ligand
 OpenBabel02271912143D
libRbt.so/2013.1/901 2013/11/27
 46 52  0  0  0  0  0  0  0  0999 V2000
  160.2259   45.9633  143.6634 P   0  0  1  0  0  0  0  0  0  0  0  0
  158.3542   41.9814  147.2790 P   0  0  1  0  0  0  0  0  0  0  0  0
  159.7159   45.8427  142.2504 O   0  5  0  0  0  0  0  0  0  0  0  0
  160.9938   47.2217  144.0045 O   0  0  0  0  0  0  0  0  0  0  0  0
  158.8277   46.5377  145.8347 C   0  0  0  0  0  0  0  0  0  0  0  0
  158.9890   45.7433  144.6668 O   0  0  0  0  0  0  0  0  0  0  0  0
  157.8384   45.8769  146.7804 C   0  0  1  0  0  0  0  0  0  0  0  0
  156.6011   46.5667  146.6744 O   0  0  0  0  0  0  0  0  0  0  0  0
  157.5344   44.4111  146.4980 C   0  0  1  0  0  0  0  0  0  0  0  0
  158.2197   43.5920  147.4339 O   0  0  0  0  0  0  0  0  0  0  0  0
  156.0516   44.2994  146.7734 C   0  0  1  0  0  0  0  0  0  0  0  0
  155.8426   43.9642  148.1467 O   0  0  0  0  0  0  0  0  0  0  0  0
  155.4974   45.6801  146.5732 C   0  0  2  0  0  0  0  0  0  0  0  0
  160.8203   41.3458  142.4930 C   0  0  1  0  0  0  0  0  0  0  0  0
  151.5118   44.4290  143.3957 N   0  0  0  0  0  0  0  0  0  0  0  0
  151.7179   44.1219  144.6904 C   0  0  1  0  0  0  0  0  0  0  0  0
  160.7301   42.8525  142.3699 C   0  0  2  0  0  0  0  0  0  0  0  0
  150.7973   43.3781  145.3435 N   0  0  0  0  0  0  0  0  0  0  0  0
  161.9668   43.3127  141.8178 O   0  0  0  0  0  0  0  0  0  0  0  0
  160.5491   43.3621  143.7875 C   0  0  2  0  0  0  0  0  0  0  0  0
  152.8080   44.5155  145.3872 N   0  0  0  0  0  0  0  0  0  0  0  0
  161.1242   44.6571  143.9568 O   0  0  0  0  0  0  0  0  0  0  0  0
  153.7735   45.2577  144.8044 C   0  0  2  0  0  0  0  0  0  0  0  0
  161.2698   42.2964  144.6102 C   0  0  2  0  0  0  0  0  0  0  0  0
  161.2702   41.1002  143.8281 O   0  0  0  0  0  0  0  0  0  0  0  0
  153.6156   45.6280  143.3945 C   0  0  2  0  0  0  0  0  0  0  0  0
  160.6503   42.0054  145.9807 C   0  0  0  0  0  0  0  0  0  0  0  0
  159.2342   41.8356  145.9322 O   0  0  0  0  0  0  0  0  0  0  0  0
  152.3952   45.1611  142.6955 C   0  0  0  0  0  0  0  0  0  0  0  0
  152.2069   45.4510  141.4895 O   0  0  0  0  0  0  0  0  0  0  0  0
  154.7050   46.3484  143.0734 N   0  0  0  0  0  0  0  0  0  0  0  0
  155.4897   46.4358  144.1742 C   0  0  0  0  0  0  0  0  0  0  0  0
  154.9299   45.7836  145.2079 N   0  0  1  0  0  0  0  0  0  0  0  0
  156.4884   41.0073  139.5337 N   0  0  0  0  0  0  0  0  0  0  0  0
  159.1730   41.5123  148.4671 O   0  5  0  0  0  0  0  0  0  0  0  0
  157.6179   41.7027  139.3295 C   0  0  2  0  0  0  0  0  0  0  0  0
  157.6973   42.4370  138.2098 N   0  0  0  0  0  0  0  0  0  0  0  0
  156.9926   41.3953  146.9952 O   0  0  0  0  0  0  0  0  0  0  0  0
  158.6669   41.6956  140.1849 N   0  0  0  0  0  0  0  0  0  0  0  0
  158.6253   40.9647  141.3187 C   0  0  1  0  0  0  0  0  0  0  0  0
  157.4086   40.1774  141.6019 C   0  0  1  0  0  0  0  0  0  0  0  0
  156.3085   40.2342  140.6059 C   0  0  0  0  0  0  0  0  0  0  0  0
  155.2366   39.6092  140.7562 O   0  0  0  0  0  0  0  0  0  0  0  0
  157.6270   39.5493  142.7681 N   0  0  0  0  0  0  0  0  0  0  0  0
  158.8700   39.9105  143.1918 C   0  0  0  0  0  0  0  0  0  0  0  0
  159.4700   40.7529  142.3276 N   0  0  2  0  0  0  0  0  0  0  0  0
  1  3  1  6  0  0  0
  1  4  2  0  0  0  0
  1  6  1  0  0  0  0
  1 22  1  0  0  0  0
  2 28  1  0  0  0  0
  2 35  1  1  0  0  0
  2 38  2  0  0  0  0
  2 10  1  0  0  0  0
  5  6  1  0  0  0  0
  7  5  1  6  0  0  0
  7  8  1  0  0  0  0
  7  9  1  0  0  0  0
  9 10  1  1  0  0  0
  9 11  1  0  0  0  0
 11 12  1  1  0  0  0
 11 13  1  0  0  0  0
 13  8  1  6  0  0  0
 13 33  1  0  0  0  0
 14 46  1  0  0  0  0
 14 17  1  0  0  0  0
 14 25  1  1  0  0  0
 15 16  1  0  0  0  0
 15 29  1  0  0  0  0
 16 18  1  6  0  0  0
 16 21  1  0  0  0  0
 17 19  1  1  0  0  0
 17 20  1  0  0  0  0
 20 22  1  6  0  0  0
 20 24  1  0  0  0  0
 23 21  1  6  0  0  0
 23 26  1  0  0  0  0
 23 33  1  0  0  0  0
 24 25  1  6  0  0  0
 24 27  1  0  0  0  0
 26 29  1  6  0  0  0
 26 31  1  0  0  0  0
 27 28  1  0  0  0  0
 29 30  2  0  0  0  0
 31 32  1  0  0  0  0
 33 32  1  1  0  0  0
 34 36  1  0  0  0  0
 34 42  1  0  0  0  0
 36 37  1  6  0  0  0
 36 39  1  0  0  0  0
 40 39  1  6  0  0  0
 40 41  1  0  0  0  0
 40 46  1  0  0  0  0
 41 42  1  6  0  0  0
 41 44  1  0  0  0  0
 42 43  2  0  0  0  0
 44 45  1  0  0  0  0
 46 45  1  1  0  0  0
M  CHG  2   3  -1  35  -1
M  END
>  <CHROM.1>
-169.30250045,52.78088829,157.49128686,43.48084451,144.05823499,-0.37922745
-0.20054611,1.03089192

>  <Name>
ligand

>  <RI>
0

>  <Rbt.Current_Directory>
/home/itssahil/PROJECTS/Mol_Feturizer/Test_systems_manuscript/rnas/4yb0

>  <Rbt.Executable>
rbdock ($Id: //depot/dev/client3/rdock/2013.1/src/exe/rbdock.cxx#4 $)

>  <Rbt.Library>
libRbt.so (2013.1, Build901 2013/11/27)

>  <Rbt.Parameter_File>
/export/apps/rDock/src/rDock_2013.1_src/data/scripts/dock_solv.prm

>  <Rbt.Receptor>
prm/pocket_docking_2.prm

>  <SCORE>
-46.5163

>  <SCORE.INTER>
-46.5185

>  <SCORE.INTER.CONST>
1

>  <SCORE.INTER.POLAR>
0

>  <SCORE.INTER.ROT>
2

>  <SCORE.INTER.SOLV>
37.9716

>  <SCORE.INTER.VDW>
-48.6029

>  <SCORE.INTER.norm>
-1.01127

>  <SCORE.INTRA>
0.00215128

>  <SCORE.INTRA.DIHEDRAL>
0.000277929

>  <SCORE.INTRA.DIHEDRAL.0>
2.42188

>  <SCORE.INTRA.POLAR>
0

>  <SCORE.INTRA.POLAR.0>
0

>  <SCORE.INTRA.REPUL>
0

>  <SCORE.INTRA.REPUL.0>
0

>  <SCORE.INTRA.SOLV>
9.58874e-05

>  <SCORE.INTRA.SOLV.lig_0>
-127.307

>  <SCORE.INTRA.VDW>
0.00196437

>  <SCORE.INTRA.VDW.0>
-2.19936

>  <SCORE.INTRA.norm>
4.67669e-05

>  <SCORE.RESTR>
9.19628e-05

>  <SCORE.RESTR.CAVITY>
9.19628e-05

>  <SCORE.RESTR.norm>
1.99919e-06

>  <SCORE.SYSTEM>
0

>  <SCORE.SYSTEM.CONST>
0

>  <SCORE.SYSTEM.DIHEDRAL>
0

>  <SCORE.SYSTEM.SOLV>
0

>  <SCORE.SYSTEM.norm>
0

>  <SCORE.heavy>
46

>  <SCORE.norm>
-1.01122

>  <RMSD>
0.240

$$$$
ligand
 OpenBabel02271912143D
libRbt.so/2013.1/901 2013/11/27
 46 52  0  0  0  0  0  0  0  0999 V2000
  160.0511   46.0329  143.5812 P   0  0  1  0  0  0  0  0  0  0  0  0
  158.2393   42.0499  147.2259 P   0  0  1  0  0  0  0  0  0  0  0  0
  159.5419   45.8951  142.1695 O   0  5  0  0  0  0  0  0  0  0  0  0
  160.8011   47.3045  143.9128 O   0  0  0  0  0  0  0  0  0  0  0  0
  158.6464   46.6024  145.7496 C   0  0  0  0  0  0  0  0  0  0  0  0
  158.8183   45.8022  144.5871 O   0  0  0  0  0  0  0  0  0  0  0  0
  157.6674   45.9341  146.7007 C   0  0  1  0  0  0  0  0  0  0  0  0
  156.4203   46.6054  146.5909 O   0  0  0  0  0  0  0  0  0  0  0  0
  157.3842   44.4622  146.4288 C   0  0  1  0  0  0  0  0  0  0  0  0
  158.0818   43.6594  147.3698 O   0  0  0  0  0  0  0  0  0  0  0  0
  155.9033   44.3312  146.7061 C   0  0  1  0  0  0  0  0  0  0  0  0
  155.7002   44.0026  148.0819 O   0  0  0  0  0  0  0  0  0  0  0  0
  155.3293   45.7023  146.4968 C   0  0  2  0  0  0  0  0  0  0  0  0
  160.7108   41.4163  142.4424 C   0  0  1  0  0  0  0  0  0  0  0  0
  151.2868   44.5067  143.3703 N   0  0  0  0  0  0  0  0  0  0  0  0
  151.4879   44.2283  144.6722 C   0  0  1  0  0  0  0  0  0  0  0  0
  160.5989   42.9207  142.3089 C   0  0  2  0  0  0  0  0  0  0  0  0
  150.5445   43.5363  145.3493 N   0  0  0  0  0  0  0  0  0  0  0  0
  161.8284   43.3947  141.7526 O   0  0  0  0  0  0  0  0  0  0  0  0
  160.4117   43.4376  143.7231 C   0  0  2  0  0  0  0  0  0  0  0  0
  152.5946   44.6019  145.3537 N   0  0  0  0  0  0  0  0  0  0  0  0
  160.9683   44.7417  143.8828 O   0  0  0  0  0  0  0  0  0  0  0  0
  153.5831   45.2928  144.7468 C   0  0  2  0  0  0  0  0  0  0  0  0
  161.1481   42.3881  144.5526 C   0  0  2  0  0  0  0  0  0  0  0  0
  161.1651   41.1865  143.7788 O   0  0  0  0  0  0  0  0  0  0  0  0
  153.4318   45.6294  143.3278 C   0  0  2  0  0  0  0  0  0  0  0  0
  160.5338   42.0977  145.9256 C   0  0  0  0  0  0  0  0  0  0  0  0
  159.1203   41.9074  145.8795 O   0  0  0  0  0  0  0  0  0  0  0  0
  152.1923   45.1871  142.6467 C   0  0  0  0  0  0  0  0  0  0  0  0
  152.0087   45.4500  141.4338 O   0  0  0  0  0  0  0  0  0  0  0  0
  154.5446   46.3013  142.9827 N   0  0  0  0  0  0  0  0  0  0  0  0
  155.3371   46.3911  144.0777 C   0  0  0  0  0  0  0  0  0  0  0  0
  154.7593   45.7881  145.1313 N   0  0  1  0  0  0  0  0  0  0  0  0
  156.3383   41.0767  139.5435 N   0  0  0  0  0  0  0  0  0  0  0  0
  159.0656   41.6009  148.4166 O   0  5  0  0  0  0  0  0  0  0  0  0
  157.4514   41.7982  139.3406 C   0  0  2  0  0  0  0  0  0  0  0  0
  157.4993   42.5636  138.2401 N   0  0  0  0  0  0  0  0  0  0  0  0
  156.8860   41.4424  146.9473 O   0  0  0  0  0  0  0  0  0  0  0  0
  158.5142   41.7877  140.1789 N   0  0  0  0  0  0  0  0  0  0  0  0
  158.5043   41.0260  141.2929 C   0  0  1  0  0  0  0  0  0  0  0  0
  157.3069   40.2089  141.5738 C   0  0  1  0  0  0  0  0  0  0  0  0
  156.1898   40.2719  140.5971 C   0  0  0  0  0  0  0  0  0  0  0  0
  155.1321   39.6232  140.7473 O   0  0  0  0  0  0  0  0  0  0  0  0
  157.5555   39.5539  142.7190 N   0  0  0  0  0  0  0  0  0  0  0  0
  158.7985   39.9267  143.1327 C   0  0  0  0  0  0  0  0  0  0  0  0
  159.3690   40.8031  142.2823 N   0  0  2  0  0  0  0  0  0  0  0  0
  1  3  1  6  0  0  0
  1  4  2  0  0  0  0
  1  6  1  0  0  0  0
  1 22  1  0  0  0  0
  2 28  1  0  0  0  0
  2 35  1  1  0  0  0
  2 38  2  0  0  0  0
  2 10  1  0  0  0  0
  5  6  1  0  0  0  0
  7  5  1  6  0  0  0
  7  8  1  0  0  0  0
  7  9  1  0  0  0  0
  9 10  1  1  0  0  0
  9 11  1  0  0  0  0
 11 12  1  1  0  0  0
 11 13  1  0  0  0  0
 13  8  1  6  0  0  0
 13 33  1  0  0  0  0
 14 46  1  0  0  0  0
 14 17  1  0  0  0  0
 14 25  1  1  0  0  0
 15 16  1  0  0  0  0
 15 29  1  0  0  0  0
 16 18  1  6  0  0  0
 16 21  1  0  0  0  0
 17 19  1  1  0  0  0
 17 20  1  0  0  0  0
 20 22  1  6  0  0  0
 20 24  1  0  0  0  0
 23 21  1  6  0  0  0
 23 26  1  0  0  0  0
 23 33  1  0  0  0  0
 24 25  1  6  0  0  0
 24 27  1  0  0  0  0
 26 29  1  6  0  0  0
 26 31  1  0  0  0  0
 27 28  1  0  0  0  0
 29 30  2  0  0  0  0
 31 32  1  0  0  0  0
 33 32  1  1  0  0  0
 34 36  1  0  0  0  0
 34 42  1  0  0  0  0
 36 37  1  6  0  0  0
 36 39  1  0  0  0  0
 40 39  1  6  0  0  0
 40 41  1  0  0  0  0
 40 46  1  0  0  0  0
 41 42  1  6  0  0  0
 41 44  1  0  0  0  0
 42 43  2  0  0  0  0
 44 45  1  0  0  0  0
 46 45  1  1  0  0  0
M  CHG  2   3  -1  35  -1
M  END
>  <CHROM.1>
-166.19714624,50.63642100,157.33995039,43.53789916,144.00570537,-0.35716585
-0.19866432,1.03232070

>  <Name>
ligand

>  <RI>
0

>  <Rbt.Current_Directory>
/home/itssahil/PROJECTS/Mol_Feturizer/Test_systems_manuscript/rnas/4yb0

>  <Rbt.Executable>
rbdock ($Id: //depot/dev/client3/rdock/2013.1/src/exe/rbdock.cxx#4 $)

>  <Rbt.Library>
libRbt.so (2013.1, Build901 2013/11/27)

>  <Rbt.Parameter_File>
/export/apps/rDock/src/rDock_2013.1_src/data/scripts/dock_solv.prm

>  <Rbt.Receptor>
prm/pocket_docking_2.prm

>  <SCORE>
-46.3926

>  <SCORE.INTER>
-46.3792

>  <SCORE.INTER.CONST>
1

>  <SCORE.INTER.POLAR>
0

>  <SCORE.INTER.ROT>
2

>  <SCORE.INTER.SOLV>
39.4719

>  <SCORE.INTER.VDW>
-49.0101

>  <SCORE.INTER.norm>
-1.00824

>  <SCORE.INTRA>
-0.0134075

>  <SCORE.INTRA.DIHEDRAL>
0.00639596

>  <SCORE.INTRA.DIHEDRAL.0>
2.42188

>  <SCORE.INTRA.POLAR>
0

>  <SCORE.INTRA.POLAR.0>
0

>  <SCORE.INTRA.REPUL>
0

>  <SCORE.INTRA.REPUL.0>
0

>  <SCORE.INTRA.SOLV>
9.72969e-06

>  <SCORE.INTRA.SOLV.lig_0>
-127.307

>  <SCORE.INTRA.VDW>
-0.0166103

>  <SCORE.INTRA.VDW.0>
-2.19936

>  <SCORE.INTRA.norm>
-0.000291467

>  <SCORE.RESTR>
0

>  <SCORE.RESTR.CAVITY>
0

>  <SCORE.RESTR.norm>
0

>  <SCORE.SYSTEM>
0

>  <SCORE.SYSTEM.CONST>
0

>  <SCORE.SYSTEM.DIHEDRAL>
0

>  <SCORE.SYSTEM.SOLV>
0

>  <SCORE.SYSTEM.norm>
0

>  <SCORE.heavy>
46

>  <SCORE.norm>
-1.00853

>  <RMSD>
0.245

$$$$
ligand
 OpenBabel02271912143D
libRbt.so/2013.1/901 2013/11/27
 46 52  0  0  0  0  0  0  0  0999 V2000
  160.2713   45.9589  143.6448 P   0  0  1  0  0  0  0  0  0  0  0  0
  158.4073   42.0030  147.2927 P   0  0  1  0  0  0  0  0  0  0  0  0
  159.7532   45.8321  142.2354 O   0  5  0  0  0  0  0  0  0  0  0  0
  161.0449   47.2168  143.9746 O   0  0  0  0  0  0  0  0  0  0  0  0
  158.8869   46.5498  145.8205 C   0  0  0  0  0  0  0  0  0  0  0  0
  159.0393   45.7483  144.6562 O   0  0  0  0  0  0  0  0  0  0  0  0
  157.9008   45.8973  146.7753 C   0  0  1  0  0  0  0  0  0  0  0  0
  156.6651   46.5904  146.6723 O   0  0  0  0  0  0  0  0  0  0  0  0
  157.5907   44.4309  146.5028 C   0  0  1  0  0  0  0  0  0  0  0  0
  158.2786   43.6148  147.4394 O   0  0  0  0  0  0  0  0  0  0  0  0
  156.1091   44.3254  146.7869 C   0  0  1  0  0  0  0  0  0  0  0  0
  155.9066   43.9984  148.1632 O   0  0  0  0  0  0  0  0  0  0  0  0
  155.5581   45.7066  146.5821 C   0  0  2  0  0  0  0  0  0  0  0  0
  160.8450   41.3332  142.4968 C   0  0  1  0  0  0  0  0  0  0  0  0
  151.5469   44.4583  143.4359 N   0  0  0  0  0  0  0  0  0  0  0  0
  151.7585   44.1587  144.7315 C   0  0  1  0  0  0  0  0  0  0  0  0
  160.7588   42.8395  142.3658 C   0  0  2  0  0  0  0  0  0  0  0  0
  150.8372   43.4249  145.3949 N   0  0  0  0  0  0  0  0  0  0  0  0
  161.9938   43.2927  141.8044 O   0  0  0  0  0  0  0  0  0  0  0  0
  160.5872   43.3575  143.7816 C   0  0  2  0  0  0  0  0  0  0  0  0
  152.8549   44.5503  145.4194 N   0  0  0  0  0  0  0  0  0  0  0  0
  161.1672   44.6516  143.9405 O   0  0  0  0  0  0  0  0  0  0  0  0
  153.8216   45.2827  144.8260 C   0  0  2  0  0  0  0  0  0  0  0  0
  161.3091   42.2942  144.6062 C   0  0  2  0  0  0  0  0  0  0  0  0
  161.3015   41.0936  143.8308 O   0  0  0  0  0  0  0  0  0  0  0  0
  153.6578   45.6444  143.4146 C   0  0  2  0  0  0  0  0  0  0  0  0
  160.6962   42.0126  145.9817 C   0  0  0  0  0  0  0  0  0  0  0  0
  159.2794   41.8470  145.9420 O   0  0  0  0  0  0  0  0  0  0  0  0
  152.4306   45.1802  142.7258 C   0  0  0  0  0  0  0  0  0  0  0  0
  152.2371   45.4631  141.5189 O   0  0  0  0  0  0  0  0  0  0  0  0
  154.7497   46.3560  143.0824 N   0  0  0  0  0  0  0  0  0  0  0  0
  155.5412   46.4461  144.1781 C   0  0  0  0  0  0  0  0  0  0  0  0
  154.9834   45.8043  145.2194 N   0  0  1  0  0  0  0  0  0  0  0  0
  156.4914   41.0006  139.5689 N   0  0  0  0  0  0  0  0  0  0  0  0
  159.2312   41.5380  148.4788 O   0  5  0  0  0  0  0  0  0  0  0  0
  157.6212   41.6925  139.3554 C   0  0  2  0  0  0  0  0  0  0  0  0
  157.6946   42.4245  138.2337 N   0  0  0  0  0  0  0  0  0  0  0  0
  157.0423   41.4196  147.0197 O   0  0  0  0  0  0  0  0  0  0  0  0
  158.6763   41.6843  140.2034 N   0  0  0  0  0  0  0  0  0  0  0  0
  158.6407   40.9557  141.3388 C   0  0  1  0  0  0  0  0  0  0  0  0
  157.4239   40.1722  141.6322 C   0  0  1  0  0  0  0  0  0  0  0  0
  156.3169   40.2301  140.6439 C   0  0  0  0  0  0  0  0  0  0  0  0
  155.2445   39.6083  140.8030 O   0  0  0  0  0  0  0  0  0  0  0  0
  157.6489   39.5458  142.7981 N   0  0  0  0  0  0  0  0  0  0  0  0
  158.8959   39.9045  143.2123 C   0  0  0  0  0  0  0  0  0  0  0  0
  159.4920   40.7437  142.3422 N   0  0  2  0  0  0  0  0  0  0  0  0
  1  3  1  6  0  0  0
  1  4  2  0  0  0  0
  1  6  1  0  0  0  0
  1 22  1  0  0  0  0
  2 28  1  0  0  0  0
  2 35  1  1  0  0  0
  2 38  2  0  0  0  0
  2 10  1  0  0  0  0
  5  6  1  0  0  0  0
  7  5  1  6  0  0  0
  7  8  1  0  0  0  0
  7  9  1  0  0  0  0
  9 10  1  1  0  0  0
  9 11  1  0  0  0  0
 11 12  1  1  0  0  0
 11 13  1  0  0  0  0
 13  8  1  6  0  0  0
 13 33  1  0  0  0  0
 14 46  1  0  0  0  0
 14 17  1  0  0  0  0
 14 25  1  1  0  0  0
 15 16  1  0  0  0  0
 15 29  1  0  0  0  0
 16 18  1  6  0  0  0
 16 21  1  0  0  0  0
 17 19  1  1  0  0  0
 17 20  1  0  0  0  0
 20 22  1  6  0  0  0
 20 24  1  0  0  0  0
 23 21  1  6  0  0  0
 23 26  1  0  0  0  0
 23 33  1  0  0  0  0
 24 25  1  6  0  0  0
 24 27  1  0  0  0  0
 26 29  1  6  0  0  0
 26 31  1  0  0  0  0
 27 28  1  0  0  0  0
 29 30  2  0  0  0  0
 31 32  1  0  0  0  0
 33 32  1  1  0  0  0
 34 36  1  0  0  0  0
 34 42  1  0  0  0  0
 36 37  1  6  0  0  0
 36 39  1  0  0  0  0
 40 39  1  6  0  0  0
 40 41  1  0  0  0  0
 40 46  1  0  0  0  0
 41 42  1  6  0  0  0
 41 44  1  0  0  0  0
 42 43  2  0  0  0  0
 44 45  1  0  0  0  0
 46 45  1  1  0  0  0
M  CHG  2   3  -1  35  -1
M  END
>  <CHROM.1>
-169.11983547,52.55405557,157.53030522,43.48908757,144.06933233,-0.38353507
-0.20106215,1.02465973

>  <Name>
ligand

>  <RI>
0

>  <Rbt.Current_Directory>
/home/itssahil/PROJECTS/Mol_Feturizer/Test_systems_manuscript/rnas/4yb0

>  <Rbt.Executable>
rbdock ($Id: //depot/dev/client3/rdock/2013.1/src/exe/rbdock.cxx#4 $)

>  <Rbt.Library>
libRbt.so (2013.1, Build901 2013/11/27)

>  <Rbt.Parameter_File>
/export/apps/rDock/src/rDock_2013.1_src/data/scripts/dock_solv.prm

>  <Rbt.Receptor>
prm/pocket_docking_2.prm

>  <SCORE>
-46.5302

>  <SCORE.INTER>
-46.5336

>  <SCORE.INTER.CONST>
1

>  <SCORE.INTER.POLAR>
0

>  <SCORE.INTER.ROT>
2

>  <SCORE.INTER.SOLV>
37.7595

>  <SCORE.INTER.VDW>
-48.5423

>  <SCORE.INTER.norm>
-1.0116

>  <SCORE.INTRA>
0.00339199

>  <SCORE.INTRA.DIHEDRAL>
0.000799447

>  <SCORE.INTRA.DIHEDRAL.0>
2.42188

>  <SCORE.INTRA.POLAR>
0

>  <SCORE.INTRA.POLAR.0>
0

>  <SCORE.INTRA.REPUL>
0

>  <SCORE.INTRA.REPUL.0>
0

>  <SCORE.INTRA.SOLV>
0.000141881

>  <SCORE.INTRA.SOLV.lig_0>
-127.307

>  <SCORE.INTRA.VDW>
0.00292132

>  <SCORE.INTRA.VDW.0>
-2.19936

>  <SCORE.INTRA.norm>
7.37389e-05

>  <SCORE.RESTR>
0

>  <SCORE.RESTR.CAVITY>
0

>  <SCORE.RESTR.norm>
0

>  <SCORE.SYSTEM>
0

>  <SCORE.SYSTEM.CONST>
0

>  <SCORE.SYSTEM.DIHEDRAL>
0

>  <SCORE.SYSTEM.SOLV>
0

>  <SCORE.SYSTEM.norm>
0

>  <SCORE.heavy>
46

>  <SCORE.norm>
-1.01153

>  <RMSD>
0.249

$$$$
ligand
 OpenBabel02271912143D
libRbt.so/2013.1/901 2013/11/27
 46 52  0  0  0  0  0  0  0  0999 V2000
  160.2450   45.9623  143.6017 P   0  0  1  0  0  0  0  0  0  0  0  0
  158.3873   42.0053  147.2516 P   0  0  1  0  0  0  0  0  0  0  0  0
  159.7221   45.8376  142.1938 O   0  5  0  0  0  0  0  0  0  0  0  0
  161.0215   47.2187  143.9302 O   0  0  0  0  0  0  0  0  0  0  0  0
  158.8685   46.5528  145.7825 C   0  0  0  0  0  0  0  0  0  0  0  0
  159.0160   45.7524  144.6169 O   0  0  0  0  0  0  0  0  0  0  0  0
  157.8846   45.9008  146.7398 C   0  0  1  0  0  0  0  0  0  0  0  0
  156.6495   46.5957  146.6415 O   0  0  0  0  0  0  0  0  0  0  0  0
  157.5715   44.4351  146.4668 C   0  0  1  0  0  0  0  0  0  0  0  0
  158.2613   43.6171  147.4004 O   0  0  0  0  0  0  0  0  0  0  0  0
  156.0907   44.3314  146.7557 C   0  0  1  0  0  0  0  0  0  0  0  0
  155.8923   44.0033  148.1322 O   0  0  0  0  0  0  0  0  0  0  0  0
  155.5410   45.7136  146.5540 C   0  0  2  0  0  0  0  0  0  0  0  0
  160.8084   41.3369  142.4471 C   0  0  1  0  0  0  0  0  0  0  0  0
  151.5416   44.4314  143.4064 N   0  0  0  0  0  0  0  0  0  0  0  0
  151.7604   44.1249  144.6991 C   0  0  1  0  0  0  0  0  0  0  0  0
  160.7239   42.8435  142.3179 C   0  0  2  0  0  0  0  0  0  0  0  0
  150.8513   43.3727  145.3587 N   0  0  0  0  0  0  0  0  0  0  0  0
  161.9577   43.2955  141.7530 O   0  0  0  0  0  0  0  0  0  0  0  0
  160.5576   43.3603  143.7347 C   0  0  2  0  0  0  0  0  0  0  0  0
  152.8525   44.5271  145.3878 N   0  0  0  0  0  0  0  0  0  0  0  0
  161.1400   44.6533  143.8931 O   0  0  0  0  0  0  0  0  0  0  0  0
  153.8071   45.2781  144.7982 C   0  0  2  0  0  0  0  0  0  0  0  0
  161.2807   42.2951  144.5560 C   0  0  2  0  0  0  0  0  0  0  0  0
  161.2689   41.0953  143.7793 O   0  0  0  0  0  0  0  0  0  0  0  0
  153.6350   45.6484  143.3900 C   0  0  2  0  0  0  0  0  0  0  0  0
  160.6719   42.0130  145.9331 C   0  0  0  0  0  0  0  0  0  0  0  0
  159.2547   41.8494  145.8978 O   0  0  0  0  0  0  0  0  0  0  0  0
  152.4132   45.1717  142.7001 C   0  0  0  0  0  0  0  0  0  0  0  0
  152.2131   45.4611  141.4959 O   0  0  0  0  0  0  0  0  0  0  0  0
  154.7157   46.3784  143.0611 N   0  0  0  0  0  0  0  0  0  0  0  0
  155.5082   46.4715  144.1559 C   0  0  0  0  0  0  0  0  0  0  0  0
  154.9620   45.8135  145.1933 N   0  0  1  0  0  0  0  0  0  0  0  0
  156.4572   40.9890  139.5174 N   0  0  0  0  0  0  0  0  0  0  0  0
  159.2143   41.5378  148.4346 O   0  5  0  0  0  0  0  0  0  0  0  0
  157.5890   41.6760  139.2989 C   0  0  2  0  0  0  0  0  0  0  0  0
  157.6656   42.3976  138.1707 N   0  0  0  0  0  0  0  0  0  0  0  0
  157.0205   41.4241  146.9824 O   0  0  0  0  0  0  0  0  0  0  0  0
  158.6431   41.6728  140.1481 N   0  0  0  0  0  0  0  0  0  0  0  0
  158.6045   40.9546  141.2901 C   0  0  1  0  0  0  0  0  0  0  0  0
  157.3853   40.1769  141.5892 C   0  0  1  0  0  0  0  0  0  0  0  0
  156.2796   40.2287  140.5991 C   0  0  0  0  0  0  0  0  0  0  0  0
  155.2054   39.6110  140.7626 O   0  0  0  0  0  0  0  0  0  0  0  0
  157.6074   39.5605  142.7609 N   0  0  0  0  0  0  0  0  0  0  0  0
  158.8548   39.9197  143.1732 C   0  0  0  0  0  0  0  0  0  0  0  0
  159.4540   40.7494  142.2963 N   0  0  2  0  0  0  0  0  0  0  0  0
  1  3  1  6  0  0  0
  1  4  2  0  0  0  0
  1  6  1  0  0  0  0
  1 22  1  0  0  0  0
  2 28  1  0  0  0  0
  2 35  1  1  0  0  0
  2 38  2  0  0  0  0
  2 10  1  0  0  0  0
  5  6  1  0  0  0  0
  7  5  1  6  0  0  0
  7  8  1  0  0  0  0
  7  9  1  0  0  0  0
  9 10  1  1  0  0  0
  9 11  1  0  0  0  0
 11 12  1  1  0  0  0
 11 13  1  0  0  0  0
 13  8  1  6  0  0  0
 13 33  1  0  0  0  0
 14 46  1  0  0  0  0
 14 17  1  0  0  0  0
 14 25  1  1  0  0  0
 15 16  1  0  0  0  0
 15 29  1  0  0  0  0
 16 18  1  6  0  0  0
 16 21  1  0  0  0  0
 17 19  1  1  0  0  0
 17 20  1  0  0  0  0
 20 22  1  6  0  0  0
 20 24  1  0  0  0  0
 23 21  1  6  0  0  0
 23 26  1  0  0  0  0
 23 33  1  0  0  0  0
 24 25  1  6  0  0  0
 24 27  1  0  0  0  0
 26 29  1  6  0  0  0
 26 31  1  0  0  0  0
 27 28  1  0  0  0  0
 29 30  2  0  0  0  0
 31 32  1  0  0  0  0
 33 32  1  1  0  0  0
 34 36  1  0  0  0  0
 34 42  1  0  0  0  0
 36 37  1  6  0  0  0
 36 39  1  0  0  0  0
 40 39  1  6  0  0  0
 40 41  1  0  0  0  0
 40 46  1  0  0  0  0
 41 42  1  6  0  0  0
 41 44  1  0  0  0  0
 42 43  2  0  0  0  0
 44 45  1  0  0  0  0
 46 45  1  1  0  0  0
M  CHG  2   3  -1  35  -1
M  END
>  <CHROM.1>
-170.11709994,53.18672771,157.50581588,43.48855081,144.02943781,-0.39222124
-0.19727119,1.02275230

>  <Name>
ligand

>  <RI>
0

>  <Rbt.Current_Directory>
/home/itssahil/PROJECTS/Mol_Feturizer/Test_systems_manuscript/rnas/4yb0

>  <Rbt.Executable>
rbdock ($Id: //depot/dev/client3/rdock/2013.1/src/exe/rbdock.cxx#4 $)

>  <Rbt.Library>
libRbt.so (2013.1, Build901 2013/11/27)

>  <Rbt.Parameter_File>
/export/apps/rDock/src/rDock_2013.1_src/data/scripts/dock_solv.prm

>  <Rbt.Receptor>
prm/pocket_docking_2.prm

>  <SCORE>
-46.5112

>  <SCORE.INTER>
-46.5149

>  <SCORE.INTER.CONST>
1

>  <SCORE.INTER.POLAR>
0

>  <SCORE.INTER.ROT>
2

>  <SCORE.INTER.SOLV>
38.0846

>  <SCORE.INTER.VDW>
-48.6382

>  <SCORE.INTER.norm>
-1.01119

>  <SCORE.INTRA>
0.00374109

>  <SCORE.INTRA.DIHEDRAL>
-0.00117161

>  <SCORE.INTRA.DIHEDRAL.0>
2.42188

>  <SCORE.INTRA.POLAR>
0

>  <SCORE.INTRA.POLAR.0>
0

>  <SCORE.INTRA.REPUL>
0

>  <SCORE.INTRA.REPUL.0>
0

>  <SCORE.INTRA.SOLV>
0.000204086

>  <SCORE.INTRA.SOLV.lig_0>
-127.307

>  <SCORE.INTRA.VDW>
0.00422485

>  <SCORE.INTRA.VDW.0>
-2.19936

>  <SCORE.INTRA.norm>
8.13279e-05

>  <SCORE.RESTR>
0

>  <SCORE.RESTR.CAVITY>
0

>  <SCORE.RESTR.norm>
0

>  <SCORE.SYSTEM>
0

>  <SCORE.SYSTEM.CONST>
0

>  <SCORE.SYSTEM.DIHEDRAL>
0

>  <SCORE.SYSTEM.SOLV>
0

>  <SCORE.SYSTEM.norm>
0

>  <SCORE.heavy>
46

>  <SCORE.norm>
-1.01111

>  <RMSD>
0.250

$$$$
ligand
 OpenBabel02271912143D
libRbt.so/2013.1/901 2013/11/27
 46 52  0  0  0  0  0  0  0  0999 V2000
  160.2686   45.9572  143.6204 P   0  0  1  0  0  0  0  0  0  0  0  0
  158.4231   42.0028  147.2793 P   0  0  1  0  0  0  0  0  0  0  0  0
  159.7440   45.8293  142.2134 O   0  5  0  0  0  0  0  0  0  0  0  0
  161.0434   47.2155  143.9458 O   0  0  0  0  0  0  0  0  0  0  0  0
  158.8943   46.5489  145.8022 C   0  0  0  0  0  0  0  0  0  0  0  0
  159.0415   45.7468  144.6377 O   0  0  0  0  0  0  0  0  0  0  0  0
  157.9129   45.8967  146.7620 C   0  0  1  0  0  0  0  0  0  0  0  0
  156.6765   46.5893  146.6643 O   0  0  0  0  0  0  0  0  0  0  0  0
  157.6020   44.4300  146.4918 C   0  0  1  0  0  0  0  0  0  0  0  0
  158.2945   43.6147  147.4257 O   0  0  0  0  0  0  0  0  0  0  0  0
  156.1218   44.3242  146.7829 C   0  0  1  0  0  0  0  0  0  0  0  0
  155.9259   43.9980  148.1603 O   0  0  0  0  0  0  0  0  0  0  0  0
  155.5693   45.7051  146.5798 C   0  0  2  0  0  0  0  0  0  0  0  0
  160.8385   41.3309  142.4725 C   0  0  1  0  0  0  0  0  0  0  0  0
  151.5530   44.4370  143.4482 N   0  0  0  0  0  0  0  0  0  0  0  0
  151.7720   44.1362  144.7422 C   0  0  1  0  0  0  0  0  0  0  0  0
  160.7511   42.8371  142.3410 C   0  0  2  0  0  0  0  0  0  0  0  0
  150.8583   43.3951  145.4081 N   0  0  0  0  0  0  0  0  0  0  0  0
  161.9833   43.2904  141.7735 O   0  0  0  0  0  0  0  0  0  0  0  0
  160.5860   43.3560  143.7572 C   0  0  2  0  0  0  0  0  0  0  0  0
  152.8688   44.5336  145.4263 N   0  0  0  0  0  0  0  0  0  0  0  0
  161.1663   44.6503  143.9126 O   0  0  0  0  0  0  0  0  0  0  0  0
  153.8282   45.2734  144.8303 C   0  0  2  0  0  0  0  0  0  0  0  0
  161.3121   42.2933  144.5791 C   0  0  2  0  0  0  0  0  0  0  0  0
  161.3013   41.0923  143.8044 O   0  0  0  0  0  0  0  0  0  0  0  0
  153.6561   45.6369  143.4203 C   0  0  2  0  0  0  0  0  0  0  0  0
  160.7058   42.0124  145.9576 C   0  0  0  0  0  0  0  0  0  0  0  0
  159.2889   41.8463  145.9246 O   0  0  0  0  0  0  0  0  0  0  0  0
  152.4289   45.1661  142.7358 C   0  0  0  0  0  0  0  0  0  0  0  0
  152.2285   45.4501  141.5303 O   0  0  0  0  0  0  0  0  0  0  0  0
  154.7418   46.3562  143.0849 N   0  0  0  0  0  0  0  0  0  0  0  0
  155.5374   46.4493  144.1774 C   0  0  0  0  0  0  0  0  0  0  0  0
  154.9882   45.8018  145.2198 N   0  0  1  0  0  0  0  0  0  0  0  0
  156.4920   40.9541  139.5393 N   0  0  0  0  0  0  0  0  0  0  0  0
  159.2526   41.5388  148.4619 O   0  5  0  0  0  0  0  0  0  0  0  0
  157.6235   41.6405  139.3168 C   0  0  2  0  0  0  0  0  0  0  0  0
  157.7010   42.3526  138.1827 N   0  0  0  0  0  0  0  0  0  0  0  0
  157.0570   41.4188  147.0130 O   0  0  0  0  0  0  0  0  0  0  0  0
  158.6763   41.6454  140.1675 N   0  0  0  0  0  0  0  0  0  0  0  0
  158.6367   40.9367  141.3154 C   0  0  1  0  0  0  0  0  0  0  0  0
  157.4179   40.1603  141.6191 C   0  0  1  0  0  0  0  0  0  0  0  0
  156.3135   40.2027  140.6270 C   0  0  0  0  0  0  0  0  0  0  0  0
  155.2397   39.5854  140.7941 O   0  0  0  0  0  0  0  0  0  0  0  0
  157.6388   39.5539  142.7963 N   0  0  0  0  0  0  0  0  0  0  0  0
  158.8853   39.9179  143.2075 C   0  0  0  0  0  0  0  0  0  0  0  0
  159.4849   40.7409  142.3245 N   0  0  2  0  0  0  0  0  0  0  0  0
  1  3  1  6  0  0  0
  1  4  2  0  0  0  0
  1  6  1  0  0  0  0
  1 22  1  0  0  0  0
  2 28  1  0  0  0  0
  2 35  1  1  0  0  0
  2 38  2  0  0  0  0
  2 10  1  0  0  0  0
  5  6  1  0  0  0  0
  7  5  1  6  0  0  0
  7  8  1  0  0  0  0
  7  9  1  0  0  0  0
  9 10  1  1  0  0  0
  9 11  1  0  0  0  0
 11 12  1  1  0  0  0
 11 13  1  0  0  0  0
 13  8  1  6  0  0  0
 13 33  1  0  0  0  0
 14 46  1  0  0  0  0
 14 17  1  0  0  0  0
 14 25  1  1  0  0  0
 15 16  1  0  0  0  0
 15 29  1  0  0  0  0
 16 18  1  6  0  0  0
 16 21  1  0  0  0  0
 17 19  1  1  0  0  0
 17 20  1  0  0  0  0
 20 22  1  6  0  0  0
 20 24  1  0  0  0  0
 23 21  1  6  0  0  0
 23 26  1  0  0  0  0
 23 33  1  0  0  0  0
 24 25  1  6  0  0  0
 24 27  1  0  0  0  0
 26 29  1  6  0  0  0
 26 31  1  0  0  0  0
 27 28  1  0  0  0  0
 29 30  2  0  0  0  0
 31 32  1  0  0  0  0
 33 32  1  1  0  0  0
 34 36  1  0  0  0  0
 34 42  1  0  0  0  0
 36 37  1  6  0  0  0
 36 39  1  0  0  0  0
 40 39  1  6  0  0  0
 40 41  1  0  0  0  0
 40 46  1  0  0  0  0
 41 42  1  6  0  0  0
 41 44  1  0  0  0  0
 42 43  2  0  0  0  0
 44 45  1  0  0  0  0
 46 45  1  1  0  0  0
M  CHG  2   3  -1  35  -1
M  END
>  <CHROM.1>
-169.50480210,53.60963126,157.53373087,43.48041746,144.05581515,-0.39859813
-0.19634886,1.02092410

>  <Name>
ligand

>  <RI>
0

>  <Rbt.Current_Directory>
/home/itssahil/PROJECTS/Mol_Feturizer/Test_systems_manuscript/rnas/4yb0

>  <Rbt.Executable>
rbdock ($Id: //depot/dev/client3/rdock/2013.1/src/exe/rbdock.cxx#4 $)

>  <Rbt.Library>
libRbt.so (2013.1, Build901 2013/11/27)

>  <Rbt.Parameter_File>
/export/apps/rDock/src/rDock_2013.1_src/data/scripts/dock_solv.prm

>  <Rbt.Receptor>
prm/pocket_docking_4.prm

>  <SCORE>
-46.534

>  <SCORE.INTER>
-46.5282

>  <SCORE.INTER.CONST>
1

>  <SCORE.INTER.POLAR>
0

>  <SCORE.INTER.ROT>
2

>  <SCORE.INTER.SOLV>
37.9142

>  <SCORE.INTER.VDW>
-48.5902

>  <SCORE.INTER.norm>
-1.01148

>  <SCORE.INTRA>
-0.00577706

>  <SCORE.INTRA.DIHEDRAL>
-0.00116411

>  <SCORE.INTRA.DIHEDRAL.0>
2.42188

>  <SCORE.INTRA.POLAR>
0

>  <SCORE.INTRA.POLAR.0>
0

>  <SCORE.INTRA.REPUL>
0

>  <SCORE.INTRA.REPUL.0>
0

>  <SCORE.INTRA.SOLV>
-0.000252216

>  <SCORE.INTRA.SOLV.lig_0>
-127.307

>  <SCORE.INTRA.VDW>
-0.0050689

>  <SCORE.INTRA.VDW.0>
-2.19936

>  <SCORE.INTRA.norm>
-0.000125588

>  <SCORE.RESTR>
0

>  <SCORE.RESTR.CAVITY>
0

>  <SCORE.RESTR.norm>
0

>  <SCORE.SYSTEM>
0

>  <SCORE.SYSTEM.CONST>
0

>  <SCORE.SYSTEM.DIHEDRAL>
0

>  <SCORE.SYSTEM.SOLV>
0

>  <SCORE.SYSTEM.norm>
0

>  <SCORE.heavy>
46

>  <SCORE.norm>
-1.01161

>  <RMSD>
0.252

$$$$
ligand
 OpenBabel02271912143D
libRbt.so/2013.1/901 2013/11/27
 46 52  0  0  0  0  0  0  0  0999 V2000
  160.2714   45.9536  143.6260 P   0  0  1  0  0  0  0  0  0  0  0  0
  158.4208   41.9971  147.2801 P   0  0  1  0  0  0  0  0  0  0  0  0
  159.7481   45.8270  142.2185 O   0  5  0  0  0  0  0  0  0  0  0  0
  161.0463   47.2114  143.9532 O   0  0  0  0  0  0  0  0  0  0  0  0
  158.8951   46.5441  145.8070 C   0  0  0  0  0  0  0  0  0  0  0  0
  159.0432   45.7429  144.6420 O   0  0  0  0  0  0  0  0  0  0  0  0
  157.9125   45.8916  146.7653 C   0  0  1  0  0  0  0  0  0  0  0  0
  156.6765   46.5847  146.6670 O   0  0  0  0  0  0  0  0  0  0  0  0
  157.6014   44.4252  146.4936 C   0  0  1  0  0  0  0  0  0  0  0  0
  158.2927   43.6089  147.4276 O   0  0  0  0  0  0  0  0  0  0  0  0
  156.1208   44.3197  146.7833 C   0  0  1  0  0  0  0  0  0  0  0  0
  155.9235   43.9925  148.1602 O   0  0  0  0  0  0  0  0  0  0  0  0
  155.5691   45.7010  146.5807 C   0  0  2  0  0  0  0  0  0  0  0  0
  160.8407   41.3281  142.4751 C   0  0  1  0  0  0  0  0  0  0  0  0
  151.5463   44.4531  143.4492 N   0  0  0  0  0  0  0  0  0  0  0  0
  151.7628   44.1532  144.7439 C   0  0  1  0  0  0  0  0  0  0  0  0
  160.7540   42.8344  142.3447 C   0  0  2  0  0  0  0  0  0  0  0  0
  150.8440   43.4193  145.4106 N   0  0  0  0  0  0  0  0  0  0  0  0
  161.9869   43.2876  141.7788 O   0  0  0  0  0  0  0  0  0  0  0  0
  160.5877   43.3522  143.7612 C   0  0  2  0  0  0  0  0  0  0  0  0
  152.8617   44.5448  145.4278 N   0  0  0  0  0  0  0  0  0  0  0  0
  161.1683   44.6462  143.9181 O   0  0  0  0  0  0  0  0  0  0  0  0
  153.8262   45.2774  144.8310 C   0  0  2  0  0  0  0  0  0  0  0  0
  161.3126   42.2886  144.5830 C   0  0  2  0  0  0  0  0  0  0  0  0
  161.3021   41.0882  143.8073 O   0  0  0  0  0  0  0  0  0  0  0  0
  153.6571   45.6394  143.4203 C   0  0  2  0  0  0  0  0  0  0  0  0
  160.7048   42.0069  145.9606 C   0  0  0  0  0  0  0  0  0  0  0  0
  159.2879   41.8414  145.9261 O   0  0  0  0  0  0  0  0  0  0  0  0
  152.4274   45.1752  142.7359 C   0  0  0  0  0  0  0  0  0  0  0  0
  152.2294   45.4583  141.5299 O   0  0  0  0  0  0  0  0  0  0  0  0
  154.7477   46.3511  143.0842 N   0  0  0  0  0  0  0  0  0  0  0  0
  155.5433   46.4410  144.1769 C   0  0  0  0  0  0  0  0  0  0  0  0
  154.9894   45.7989  145.2202 N   0  0  1  0  0  0  0  0  0  0  0  0
  156.4991   40.9509  139.5347 N   0  0  0  0  0  0  0  0  0  0  0  0
  159.2490   41.5318  148.4631 O   0  5  0  0  0  0  0  0  0  0  0  0
  157.6313   41.6364  139.3135 C   0  0  2  0  0  0  0  0  0  0  0  0
  157.7112   42.3474  138.1789 N   0  0  0  0  0  0  0  0  0  0  0  0
  157.0548   41.4138  147.0120 O   0  0  0  0  0  0  0  0  0  0  0  0
  158.6827   41.6415  140.1661 N   0  0  0  0  0  0  0  0  0  0  0  0
  158.6406   40.9340  141.3146 C   0  0  1  0  0  0  0  0  0  0  0  0
  157.4209   40.1585  141.6170 C   0  0  1  0  0  0  0  0  0  0  0  0
  156.3183   40.2006  140.6229 C   0  0  0  0  0  0  0  0  0  0  0  0
  155.2439   39.5840  140.7887 O   0  0  0  0  0  0  0  0  0  0  0  0
  157.6394   39.5532  142.7951 N   0  0  0  0  0  0  0  0  0  0  0  0
  158.8854   39.9168  143.2081 C   0  0  0  0  0  0  0  0  0  0  0  0
  159.4870   40.7386  142.3254 N   0  0  2  0  0  0  0  0  0  0  0  0
  1  3  1  6  0  0  0
  1  4  2  0  0  0  0
  1  6  1  0  0  0  0
  1 22  1  0  0  0  0
  2 28  1  0  0  0  0
  2 35  1  1  0  0  0
  2 38  2  0  0  0  0
  2 10  1  0  0  0  0
  5  6  1  0  0  0  0
  7  5  1  6  0  0  0
  7  8  1  0  0  0  0
  7  9  1  0  0  0  0
  9 10  1  1  0  0  0
  9 11  1  0  0  0  0
 11 12  1  1  0  0  0
 11 13  1  0  0  0  0
 13  8  1  6  0  0  0
 13 33  1  0  0  0  0
 14 46  1  0  0  0  0
 14 17  1  0  0  0  0
 14 25  1  1  0  0  0
 15 16  1  0  0  0  0
 15 29  1  0  0  0  0
 16 18  1  6  0  0  0
 16 21  1  0  0  0  0
 17 19  1  1  0  0  0
 17 20  1  0  0  0  0
 20 22  1  6  0  0  0
 20 24  1  0  0  0  0
 23 21  1  6  0  0  0
 23 26  1  0  0  0  0
 23 33  1  0  0  0  0
 24 25  1  6  0  0  0
 24 27  1  0  0  0  0
 26 29  1  6  0  0  0
 26 31  1  0  0  0  0
 27 28  1  0  0  0  0
 29 30  2  0  0  0  0
 31 32  1  0  0  0  0
 33 32  1  1  0  0  0
 34 36  1  0  0  0  0
 34 42  1  0  0  0  0
 36 37  1  6  0  0  0
 36 39  1  0  0  0  0
 40 39  1  6  0  0  0
 40 41  1  0  0  0  0
 40 46  1  0  0  0  0
 41 42  1  6  0  0  0
 41 44  1  0  0  0  0
 42 43  2  0  0  0  0
 44 45  1  0  0  0  0
 46 45  1  1  0  0  0
M  CHG  2   3  -1  35  -1
M  END
>  <CHROM.1>
-169.12580290,53.71898398,157.53442099,43.47885490,144.05714762,-0.39992361
-0.19814048,1.02201778

>  <Name>
ligand

>  <RI>
0

>  <Rbt.Current_Directory>
/home/itssahil/PROJECTS/Mol_Feturizer/Test_systems_manuscript/rnas/4yb0

>  <Rbt.Executable>
rbdock ($Id: //depot/dev/client3/rdock/2013.1/src/exe/rbdock.cxx#4 $)

>  <Rbt.Library>
libRbt.so (2013.1, Build901 2013/11/27)

>  <Rbt.Parameter_File>
/export/apps/rDock/src/rDock_2013.1_src/data/scripts/dock_solv.prm

>  <Rbt.Receptor>
prm/pocket_docking_2.prm

>  <SCORE>
-46.543

>  <SCORE.INTER>
-46.533

>  <SCORE.INTER.CONST>
1

>  <SCORE.INTER.POLAR>
0

>  <SCORE.INTER.ROT>
2

>  <SCORE.INTER.SOLV>
37.9841

>  <SCORE.INTER.VDW>
-48.6167

>  <SCORE.INTER.norm>
-1.01159

>  <SCORE.INTRA>
-0.00991066

>  <SCORE.INTRA.DIHEDRAL>
-0.000938464

>  <SCORE.INTRA.DIHEDRAL.0>
2.42188

>  <SCORE.INTRA.POLAR>
0

>  <SCORE.INTRA.POLAR.0>
0

>  <SCORE.INTRA.REPUL>
0

>  <SCORE.INTRA.REPUL.0>
0

>  <SCORE.INTRA.SOLV>
-0.000455697

>  <SCORE.INTRA.SOLV.lig_0>
-127.307

>  <SCORE.INTRA.VDW>
-0.00921358

>  <SCORE.INTRA.VDW.0>
-2.19936

>  <SCORE.INTRA.norm>
-0.000215449

>  <SCORE.RESTR>
0

>  <SCORE.RESTR.CAVITY>
0

>  <SCORE.RESTR.norm>
0

>  <SCORE.SYSTEM>
0

>  <SCORE.SYSTEM.CONST>
0

>  <SCORE.SYSTEM.DIHEDRAL>
0

>  <SCORE.SYSTEM.SOLV>
0

>  <SCORE.SYSTEM.norm>
0

>  <SCORE.heavy>
46

>  <SCORE.norm>
-1.0118

>  <RMSD>
0.256

$$$$
ligand
 OpenBabel02271912143D
libRbt.so/2013.1/901 2013/11/27
 46 52  0  0  0  0  0  0  0  0999 V2000
  160.1468   45.9796  143.5679 P   0  0  1  0  0  0  0  0  0  0  0  0
  158.3324   42.0215  147.2384 P   0  0  1  0  0  0  0  0  0  0  0  0
  159.6359   45.8342  142.1576 O   0  5  0  0  0  0  0  0  0  0  0  0
  160.8993   47.2520  143.8911 O   0  0  0  0  0  0  0  0  0  0  0  0
  158.7454   46.5643  145.7344 C   0  0  0  0  0  0  0  0  0  0  0  0
  158.9147   45.7569  144.5766 O   0  0  0  0  0  0  0  0  0  0  0  0
  157.7663   45.9034  146.6905 C   0  0  1  0  0  0  0  0  0  0  0  0
  156.5202   46.5760  146.5780 O   0  0  0  0  0  0  0  0  0  0  0  0
  157.4804   44.4303  146.4277 C   0  0  1  0  0  0  0  0  0  0  0  0
  158.1777   43.6321  147.3728 O   0  0  0  0  0  0  0  0  0  0  0  0
  155.9996   44.3034  146.7074 C   0  0  1  0  0  0  0  0  0  0  0  0
  155.7974   43.9834  148.0854 O   0  0  0  0  0  0  0  0  0  0  0  0
  155.4276   45.6742  146.4905 C   0  0  2  0  0  0  0  0  0  0  0  0
  160.7977   41.3552  142.4562 C   0  0  1  0  0  0  0  0  0  0  0  0
  151.3538   44.5193  143.3894 N   0  0  0  0  0  0  0  0  0  0  0  0
  151.5522   44.2550  144.6947 C   0  0  1  0  0  0  0  0  0  0  0  0
  160.6882   42.8589  142.3137 C   0  0  2  0  0  0  0  0  0  0  0  0
  150.5963   43.5922  145.3833 N   0  0  0  0  0  0  0  0  0  0  0  0
  161.9179   43.3275  141.7533 O   0  0  0  0  0  0  0  0  0  0  0  0
  160.5033   43.3846  143.7250 C   0  0  2  0  0  0  0  0  0  0  0  0
  152.6680   44.6150  145.3686 N   0  0  0  0  0  0  0  0  0  0  0  0
  161.0622   44.6888  143.8764 O   0  0  0  0  0  0  0  0  0  0  0  0
  153.6692   45.2767  144.7501 C   0  0  2  0  0  0  0  0  0  0  0  0
  161.2389   42.3388  144.5600 C   0  0  2  0  0  0  0  0  0  0  0  0
  161.2531   41.1327  143.7934 O   0  0  0  0  0  0  0  0  0  0  0  0
  153.5216   45.5965  143.3268 C   0  0  2  0  0  0  0  0  0  0  0  0
  160.6256   42.0577  145.9353 C   0  0  0  0  0  0  0  0  0  0  0  0
  159.2117   41.8694  145.8919 O   0  0  0  0  0  0  0  0  0  0  0  0
  152.2715   45.1706  142.6545 C   0  0  0  0  0  0  0  0  0  0  0  0
  152.0906   45.4203  141.4384 O   0  0  0  0  0  0  0  0  0  0  0  0
  154.6472   46.2403  142.9700 N   0  0  0  0  0  0  0  0  0  0  0  0
  155.4440   46.3289  144.0620 C   0  0  0  0  0  0  0  0  0  0  0  0
  154.8563   45.7528  145.1251 N   0  0  1  0  0  0  0  0  0  0  0  0
  156.4531   40.9462  139.5245 N   0  0  0  0  0  0  0  0  0  0  0  0
  159.1592   41.5782  148.4308 O   0  5  0  0  0  0  0  0  0  0  0  0
  157.5716   41.6563  139.3110 C   0  0  2  0  0  0  0  0  0  0  0  0
  157.6342   42.3875  138.1881 N   0  0  0  0  0  0  0  0  0  0  0  0
  156.9778   41.4145  146.9649 O   0  0  0  0  0  0  0  0  0  0  0  0
  158.6258   41.6668  140.1600 N   0  0  0  0  0  0  0  0  0  0  0  0
  158.6012   40.9396  141.2966 C   0  0  1  0  0  0  0  0  0  0  0  0
  157.3971   40.1366  141.5901 C   0  0  1  0  0  0  0  0  0  0  0  0
  156.2903   40.1746  140.6005 C   0  0  0  0  0  0  0  0  0  0  0  0
  155.2281   39.5355  140.7596 O   0  0  0  0  0  0  0  0  0  0  0  0
  157.6312   39.5159  142.7572 N   0  0  0  0  0  0  0  0  0  0  0  0
  158.8717   39.8958  143.1720 C   0  0  0  0  0  0  0  0  0  0  0  0
  159.4547   40.7432  142.3011 N   0  0  2  0  0  0  0  0  0  0  0  0
  1  3  1  6  0  0  0
  1  4  2  0  0  0  0
  1  6  1  0  0  0  0
  1 22  1  0  0  0  0
  2 28  1  0  0  0  0
  2 35  1  1  0  0  0
  2 38  2  0  0  0  0
  2 10  1  0  0  0  0
  5  6  1  0  0  0  0
  7  5  1  6  0  0  0
  7  8  1  0  0  0  0
  7  9  1  0  0  0  0
  9 10  1  1  0  0  0
  9 11  1  0  0  0  0
 11 12  1  1  0  0  0
 11 13  1  0  0  0  0
 13  8  1  6  0  0  0
 13 33  1  0  0  0  0
 14 46  1  0  0  0  0
 14 17  1  0  0  0  0
 14 25  1  1  0  0  0
 15 16  1  0  0  0  0
 15 29  1  0  0  0  0
 16 18  1  6  0  0  0
 16 21  1  0  0  0  0
 17 19  1  1  0  0  0
 17 20  1  0  0  0  0
 20 22  1  6  0  0  0
 20 24  1  0  0  0  0
 23 21  1  6  0  0  0
 23 26  1  0  0  0  0
 23 33  1  0  0  0  0
 24 25  1  6  0  0  0
 24 27  1  0  0  0  0
 26 29  1  6  0  0  0
 26 31  1  0  0  0  0
 27 28  1  0  0  0  0
 29 30  2  0  0  0  0
 31 32  1  0  0  0  0
 33 32  1  1  0  0  0
 34 36  1  0  0  0  0
 34 42  1  0  0  0  0
 36 37  1  6  0  0  0
 36 39  1  0  0  0  0
 40 39  1  6  0  0  0
 40 41  1  0  0  0  0
 40 46  1  0  0  0  0
 41 42  1  6  0  0  0
 41 44  1  0  0  0  0
 42 43  2  0  0  0  0
 44 45  1  0  0  0  0
 46 45  1  1  0  0  0
M  CHG  2   3  -1  35  -1
M  END
>  <CHROM.1>
-165.00823617,52.19325628,157.43267921,43.49092375,144.00746466,-0.37764665
-0.20197033,1.02465858

>  <Name>
ligand

>  <RI>
0

>  <Rbt.Current_Directory>
/home/itssahil/PROJECTS/Mol_Feturizer/Test_systems_manuscript/rnas/4yb0

>  <Rbt.Executable>
rbdock ($Id: //depot/dev/client3/rdock/2013.1/src/exe/rbdock.cxx#4 $)

>  <Rbt.Library>
libRbt.so (2013.1, Build901 2013/11/27)

>  <Rbt.Parameter_File>
/export/apps/rDock/src/rDock_2013.1_src/data/scripts/dock_solv.prm

>  <Rbt.Receptor>
prm/pocket_docking_2.prm

>  <SCORE>
-46.5088

>  <SCORE.INTER>
-46.4677

>  <SCORE.INTER.CONST>
1

>  <SCORE.INTER.POLAR>
0

>  <SCORE.INTER.ROT>
2

>  <SCORE.INTER.SOLV>
39.3231

>  <SCORE.INTER.VDW>
-49.0195

>  <SCORE.INTER.norm>
-1.01017

>  <SCORE.INTRA>
-0.0410941

>  <SCORE.INTRA.DIHEDRAL>
0.00522127

>  <SCORE.INTRA.DIHEDRAL.0>
2.42188

>  <SCORE.INTRA.POLAR>
0

>  <SCORE.INTRA.POLAR.0>
0

>  <SCORE.INTRA.REPUL>
0

>  <SCORE.INTRA.REPUL.0>
0

>  <SCORE.INTRA.SOLV>
-0.00124246

>  <SCORE.INTRA.SOLV.lig_0>
-127.307

>  <SCORE.INTRA.VDW>
-0.0430835

>  <SCORE.INTRA.VDW.0>
-2.19936

>  <SCORE.INTRA.norm>
-0.000893349

>  <SCORE.RESTR>
0

>  <SCORE.RESTR.CAVITY>
0

>  <SCORE.RESTR.norm>
0

>  <SCORE.SYSTEM>
0

>  <SCORE.SYSTEM.CONST>
0

>  <SCORE.SYSTEM.DIHEDRAL>
0

>  <SCORE.SYSTEM.SOLV>
0

>  <SCORE.SYSTEM.norm>
0

>  <SCORE.heavy>
46

>  <SCORE.norm>
-1.01106

>  <RMSD>
0.258

$$$$
ligand
 OpenBabel02271912143D
libRbt.so/2013.1/901 2013/11/27
 46 52  0  0  0  0  0  0  0  0999 V2000
  160.2641   45.9555  143.6050 P   0  0  1  0  0  0  0  0  0  0  0  0
  158.4022   42.0104  147.2657 P   0  0  1  0  0  0  0  0  0  0  0  0
  159.7461   45.8238  142.1960 O   0  5  0  0  0  0  0  0  0  0  0  0
  161.0371   47.2148  143.9307 O   0  0  0  0  0  0  0  0  0  0  0  0
  158.8794   46.5526  145.7788 C   0  0  0  0  0  0  0  0  0  0  0  0
  159.0322   45.7475  144.6171 O   0  0  0  0  0  0  0  0  0  0  0  0
  157.8936   45.9028  146.7357 C   0  0  1  0  0  0  0  0  0  0  0  0
  156.6575   46.5949  146.6304 O   0  0  0  0  0  0  0  0  0  0  0  0
  157.5843   44.4353  146.4679 C   0  0  1  0  0  0  0  0  0  0  0  0
  158.2726   43.6226  147.4072 O   0  0  0  0  0  0  0  0  0  0  0  0
  156.1028   44.3300  146.7524 C   0  0  1  0  0  0  0  0  0  0  0  0
  155.9004   44.0073  148.1297 O   0  0  0  0  0  0  0  0  0  0  0  0
  155.5510   45.7102  146.5431 C   0  0  2  0  0  0  0  0  0  0  0  0
  160.8402   41.3263  142.4721 C   0  0  1  0  0  0  0  0  0  0  0  0
  151.5437   44.4436  143.3992 N   0  0  0  0  0  0  0  0  0  0  0  0
  151.7559   44.1476  144.6954 C   0  0  1  0  0  0  0  0  0  0  0  0
  160.7532   42.8321  142.3362 C   0  0  2  0  0  0  0  0  0  0  0  0
  150.8365   43.4129  145.3605 N   0  0  0  0  0  0  0  0  0  0  0  0
  161.9880   43.2842  141.7733 O   0  0  0  0  0  0  0  0  0  0  0  0
  160.5814   43.3547  143.7502 C   0  0  2  0  0  0  0  0  0  0  0  0
  152.8512   44.5439  145.3826 N   0  0  0  0  0  0  0  0  0  0  0  0
  161.1607   44.6495  143.9049 O   0  0  0  0  0  0  0  0  0  0  0  0
  153.8159   45.2775  144.7877 C   0  0  2  0  0  0  0  0  0  0  0  0
  161.3038   42.2944  144.5783 C   0  0  2  0  0  0  0  0  0  0  0  0
  161.2969   41.0913  143.8068 O   0  0  0  0  0  0  0  0  0  0  0  0
  153.6514   45.6355  143.3754 C   0  0  2  0  0  0  0  0  0  0  0  0
  160.6911   42.0170  145.9547 C   0  0  0  0  0  0  0  0  0  0  0  0
  159.2744   41.8505  145.9155 O   0  0  0  0  0  0  0  0  0  0  0  0
  152.4256   45.1663  142.6875 C   0  0  0  0  0  0  0  0  0  0  0  0
  152.2315   45.4459  141.4800 O   0  0  0  0  0  0  0  0  0  0  0  0
  154.7414   46.3493  143.0417 N   0  0  0  0  0  0  0  0  0  0  0  0
  155.5325   46.4441  144.1373 C   0  0  0  0  0  0  0  0  0  0  0  0
  154.9762   45.8032  145.1800 N   0  0  1  0  0  0  0  0  0  0  0  0
  156.4991   40.9577  139.5299 N   0  0  0  0  0  0  0  0  0  0  0  0
  159.2263   41.5497  148.4534 O   0  5  0  0  0  0  0  0  0  0  0  0
  157.6303   41.6461  139.3122 C   0  0  2  0  0  0  0  0  0  0  0  0
  157.7091   42.3631  138.1813 N   0  0  0  0  0  0  0  0  0  0  0  0
  157.0375   41.4254  146.9945 O   0  0  0  0  0  0  0  0  0  0  0  0
  158.6817   41.6485  140.1648 N   0  0  0  0  0  0  0  0  0  0  0  0
  158.6408   40.9349  141.3096 C   0  0  1  0  0  0  0  0  0  0  0  0
  157.4223   40.1560  141.6080 C   0  0  1  0  0  0  0  0  0  0  0  0
  156.3196   40.2015  140.6141 C   0  0  0  0  0  0  0  0  0  0  0  0
  155.2461   39.5825  140.7768 O   0  0  0  0  0  0  0  0  0  0  0  0
  157.6418   39.5449  142.7830 N   0  0  0  0  0  0  0  0  0  0  0  0
  158.8872   39.9083  143.1978 C   0  0  0  0  0  0  0  0  0  0  0  0
  159.4875   40.7356  142.3193 N   0  0  2  0  0  0  0  0  0  0  0  0
  1  3  1  6  0  0  0
  1  4  2  0  0  0  0
  1  6  1  0  0  0  0
  1 22  1  0  0  0  0
  2 28  1  0  0  0  0
  2 35  1  1  0  0  0
  2 38  2  0  0  0  0
  2 10  1  0  0  0  0
  5  6  1  0  0  0  0
  7  5  1  6  0  0  0
  7  8  1  0  0  0  0
  7  9  1  0  0  0  0
  9 10  1  1  0  0  0
  9 11  1  0  0  0  0
 11 12  1  1  0  0  0
 11 13  1  0  0  0  0
 13  8  1  6  0  0  0
 13 33  1  0  0  0  0
 14 46  1  0  0  0  0
 14 17  1  0  0  0  0
 14 25  1  1  0  0  0
 15 16  1  0  0  0  0
 15 29  1  0  0  0  0
 16 18  1  6  0  0  0
 16 21  1  0  0  0  0
 17 19  1  1  0  0  0
 17 20  1  0  0  0  0
 20 22  1  6  0  0  0
 20 24  1  0  0  0  0
 23 21  1  6  0  0  0
 23 26  1  0  0  0  0
 23 33  1  0  0  0  0
 24 25  1  6  0  0  0
 24 27  1  0  0  0  0
 26 29  1  6  0  0  0
 26 31  1  0  0  0  0
 27 28  1  0  0  0  0
 29 30  2  0  0  0  0
 31 32  1  0  0  0  0
 33 32  1  1  0  0  0
 34 36  1  0  0  0  0
 34 42  1  0  0  0  0
 36 37  1  6  0  0  0
 36 39  1  0  0  0  0
 40 39  1  6  0  0  0
 40 41  1  0  0  0  0
 40 46  1  0  0  0  0
 41 42  1  6  0  0  0
 41 44  1  0  0  0  0
 42 43  2  0  0  0  0
 44 45  1  0  0  0  0
 46 45  1  1  0  0  0
M  CHG  2   3  -1  35  -1
M  END
>  <CHROM.1>
-169.25677857,53.17793336,157.52610076,43.48228889,144.03566042,-0.38996242
-0.19969617,1.02018648

>  <Name>
ligand

>  <RI>
0

>  <Rbt.Current_Directory>
/home/itssahil/PROJECTS/Mol_Feturizer/Test_systems_manuscript/rnas/4yb0

>  <Rbt.Executable>
rbdock ($Id: //depot/dev/client3/rdock/2013.1/src/exe/rbdock.cxx#4 $)

>  <Rbt.Library>
libRbt.so (2013.1, Build901 2013/11/27)

>  <Rbt.Parameter_File>
/export/apps/rDock/src/rDock_2013.1_src/data/scripts/dock_solv.prm

>  <Rbt.Receptor>
prm/pocket_docking_2.prm

>  <SCORE>
-46.554

>  <SCORE.INTER>
-46.5512

>  <SCORE.INTER.CONST>
1

>  <SCORE.INTER.POLAR>
0

>  <SCORE.INTER.ROT>
2

>  <SCORE.INTER.SOLV>
37.942

>  <SCORE.INTER.VDW>
-48.6148

>  <SCORE.INTER.norm>
-1.01198

>  <SCORE.INTRA>
-0.00277018

>  <SCORE.INTRA.DIHEDRAL>
-0.000263741

>  <SCORE.INTRA.DIHEDRAL.0>
2.42188

>  <SCORE.INTRA.POLAR>
0

>  <SCORE.INTRA.POLAR.0>
0

>  <SCORE.INTRA.REPUL>
0

>  <SCORE.INTRA.REPUL.0>
0

>  <SCORE.INTRA.SOLV>
-0.000126389

>  <SCORE.INTRA.SOLV.lig_0>
-127.307

>  <SCORE.INTRA.VDW>
-0.00257512

>  <SCORE.INTRA.VDW.0>
-2.19936

>  <SCORE.INTRA.norm>
-6.02213e-05

>  <SCORE.RESTR>
0

>  <SCORE.RESTR.CAVITY>
0

>  <SCORE.RESTR.norm>
0

>  <SCORE.SYSTEM>
0

>  <SCORE.SYSTEM.CONST>
0

>  <SCORE.SYSTEM.DIHEDRAL>
0

>  <SCORE.SYSTEM.SOLV>
0

>  <SCORE.SYSTEM.norm>
0

>  <SCORE.heavy>
46

>  <SCORE.norm>
-1.01204

>  <RMSD>
0.262

$$$$
ligand
 OpenBabel02271912143D
libRbt.so/2013.1/901 2013/11/27
 46 52  0  0  0  0  0  0  0  0999 V2000
  160.2308   45.9469  143.5735 P   0  0  1  0  0  0  0  0  0  0  0  0
  158.3621   42.0086  147.2379 P   0  0  1  0  0  0  0  0  0  0  0  0
  159.7091   45.8174  142.1656 O   0  5  0  0  0  0  0  0  0  0  0  0
  161.0093   47.2033  143.8976 O   0  0  0  0  0  0  0  0  0  0  0  0
  158.8533   46.5491  145.7505 C   0  0  0  0  0  0  0  0  0  0  0  0
  159.0004   45.7436  144.5883 O   0  0  0  0  0  0  0  0  0  0  0  0
  157.8672   45.9029  146.7096 C   0  0  1  0  0  0  0  0  0  0  0  0
  156.6336   46.5997  146.6071 O   0  0  0  0  0  0  0  0  0  0  0  0
  157.5516   44.4367  146.4423 C   0  0  1  0  0  0  0  0  0  0  0  0
  158.2390   43.6212  147.3799 O   0  0  0  0  0  0  0  0  0  0  0  0
  156.0704   44.3370  146.7301 C   0  0  1  0  0  0  0  0  0  0  0  0
  155.8700   44.0149  148.1078 O   0  0  0  0  0  0  0  0  0  0  0  0
  155.5234   45.7194  146.5222 C   0  0  2  0  0  0  0  0  0  0  0  0
  160.7866   41.3158  142.4386 C   0  0  1  0  0  0  0  0  0  0  0  0
  151.5254   44.4306  143.3756 N   0  0  0  0  0  0  0  0  0  0  0  0
  151.7423   44.1288  144.6698 C   0  0  1  0  0  0  0  0  0  0  0  0
  160.7050   42.8220  142.3031 C   0  0  2  0  0  0  0  0  0  0  0  0
  150.8315   43.3805  145.3314 N   0  0  0  0  0  0  0  0  0  0  0  0
  161.9402   43.2693  141.7375 O   0  0  0  0  0  0  0  0  0  0  0  0
  160.5384   43.3450  143.7176 C   0  0  2  0  0  0  0  0  0  0  0  0
  152.8343   44.5322  145.3580 N   0  0  0  0  0  0  0  0  0  0  0  0
  161.1230   44.6376  143.8712 O   0  0  0  0  0  0  0  0  0  0  0  0
  153.7907   45.2794  144.7664 C   0  0  2  0  0  0  0  0  0  0  0  0
  161.2587   42.2818  144.5440 C   0  0  2  0  0  0  0  0  0  0  0  0
  161.2454   41.0789  143.7722 O   0  0  0  0  0  0  0  0  0  0  0  0
  153.6206   45.6444  143.3565 C   0  0  2  0  0  0  0  0  0  0  0  0
  160.6480   42.0066  145.9216 C   0  0  0  0  0  0  0  0  0  0  0  0
  159.2305   41.8455  145.8857 O   0  0  0  0  0  0  0  0  0  0  0  0
  152.3987   45.1668  142.6673 C   0  0  0  0  0  0  0  0  0  0  0  0
  152.2002   45.4517  141.4617 O   0  0  0  0  0  0  0  0  0  0  0  0
  154.7026   46.3715  143.0259 N   0  0  0  0  0  0  0  0  0  0  0  0
  155.4942   46.4677  144.1210 C   0  0  0  0  0  0  0  0  0  0  0  0
  154.9460   45.8147  145.1605 N   0  0  1  0  0  0  0  0  0  0  0  0
  156.4217   40.9956  139.5261 N   0  0  0  0  0  0  0  0  0  0  0  0
  159.1870   41.5445  148.4236 O   0  5  0  0  0  0  0  0  0  0  0  0
  157.5528   41.6842  139.3085 C   0  0  2  0  0  0  0  0  0  0  0  0
  157.6245   42.4156  138.1864 N   0  0  0  0  0  0  0  0  0  0  0  0
  156.9945   41.4288  146.9697 O   0  0  0  0  0  0  0  0  0  0  0  0
  158.6108   41.6729  140.1528 N   0  0  0  0  0  0  0  0  0  0  0  0
  158.5771   40.9447  141.2885 C   0  0  1  0  0  0  0  0  0  0  0  0
  157.3591   40.1649  141.5863 C   0  0  1  0  0  0  0  0  0  0  0  0
  156.2487   40.2259  140.6019 C   0  0  0  0  0  0  0  0  0  0  0  0
  155.1751   39.6073  140.7649 O   0  0  0  0  0  0  0  0  0  0  0  0
  157.5863   39.5380  142.7515 N   0  0  0  0  0  0  0  0  0  0  0  0
  158.8358   39.8931  143.1612 C   0  0  0  0  0  0  0  0  0  0  0  0
  159.4313   40.7303  142.2889 N   0  0  2  0  0  0  0  0  0  0  0  0
  1  3  1  6  0  0  0
  1  4  2  0  0  0  0
  1  6  1  0  0  0  0
  1 22  1  0  0  0  0
  2 28  1  0  0  0  0
  2 35  1  1  0  0  0
  2 38  2  0  0  0  0
  2 10  1  0  0  0  0
  5  6  1  0  0  0  0
  7  5  1  6  0  0  0
  7  8  1  0  0  0  0
  7  9  1  0  0  0  0
  9 10  1  1  0  0  0
  9 11  1  0  0  0  0
 11 12  1  1  0  0  0
 11 13  1  0  0  0  0
 13  8  1  6  0  0  0
 13 33  1  0  0  0  0
 14 46  1  0  0  0  0
 14 17  1  0  0  0  0
 14 25  1  1  0  0  0
 15 16  1  0  0  0  0
 15 29  1  0  0  0  0
 16 18  1  6  0  0  0
 16 21  1  0  0  0  0
 17 19  1  1  0  0  0
 17 20  1  0  0  0  0
 20 22  1  6  0  0  0
 20 24  1  0  0  0  0
 23 21  1  6  0  0  0
 23 26  1  0  0  0  0
 23 33  1  0  0  0  0
 24 25  1  6  0  0  0
 24 27  1  0  0  0  0
 26 29  1  6  0  0  0
 26 31  1  0  0  0  0
 27 28  1  0  0  0  0
 29 30  2  0  0  0  0
 31 32  1  0  0  0  0
 33 32  1  1  0  0  0
 34 36  1  0  0  0  0
 34 42  1  0  0  0  0
 36 37  1  6  0  0  0
 36 39  1  0  0  0  0
 40 39  1  6  0  0  0
 40 41  1  0  0  0  0
 40 46  1  0  0  0  0
 41 42  1  6  0  0  0
 41 44  1  0  0  0  0
 42 43  2  0  0  0  0
 44 45  1  0  0  0  0
 46 45  1  1  0  0  0
M  CHG  2   3  -1  35  -1
M  END
>  <CHROM.1>
-170.14264120,52.37153743,157.48487383,43.48350750,144.01093883,-0.38301124
-0.20001833,1.02002385

>  <Name>
ligand

>  <RI>
0

>  <Rbt.Current_Directory>
/home/itssahil/PROJECTS/Mol_Feturizer/Test_systems_manuscript/rnas/4yb0

>  <Rbt.Executable>
rbdock ($Id: //depot/dev/client3/rdock/2013.1/src/exe/rbdock.cxx#4 $)

>  <Rbt.Library>
libRbt.so (2013.1, Build901 2013/11/27)

>  <Rbt.Parameter_File>
/export/apps/rDock/src/rDock_2013.1_src/data/scripts/dock_solv.prm

>  <Rbt.Receptor>
prm/pocket_docking_4.prm

>  <SCORE>
-46.593

>  <SCORE.INTER>
-46.6064

>  <SCORE.INTER.CONST>
1

>  <SCORE.INTER.POLAR>
0

>  <SCORE.INTER.ROT>
2

>  <SCORE.INTER.SOLV>
38.3031

>  <SCORE.INTER.VDW>
-48.7719

>  <SCORE.INTER.norm>
-1.01318

>  <SCORE.INTRA>
0.0133837

>  <SCORE.INTRA.DIHEDRAL>
5.38096e-06

>  <SCORE.INTRA.DIHEDRAL.0>
2.42188

>  <SCORE.INTRA.POLAR>
0

>  <SCORE.INTRA.POLAR.0>
0

>  <SCORE.INTRA.REPUL>
0

>  <SCORE.INTRA.REPUL.0>
0

>  <SCORE.INTRA.SOLV>
0.000634098

>  <SCORE.INTRA.SOLV.lig_0>
-127.307

>  <SCORE.INTRA.VDW>
0.0130639

>  <SCORE.INTRA.VDW.0>
-2.19936

>  <SCORE.INTRA.norm>
0.00029095

>  <SCORE.RESTR>
0

>  <SCORE.RESTR.CAVITY>
0

>  <SCORE.RESTR.norm>
0

>  <SCORE.SYSTEM>
0

>  <SCORE.SYSTEM.CONST>
0

>  <SCORE.SYSTEM.DIHEDRAL>
0

>  <SCORE.SYSTEM.SOLV>
0

>  <SCORE.SYSTEM.norm>
0

>  <SCORE.heavy>
46

>  <SCORE.norm>
-1.01289

>  <RMSD>
0.263

$$$$
ligand
 OpenBabel02271912143D
libRbt.so/2013.1/901 2013/11/27
 46 52  0  0  0  0  0  0  0  0999 V2000
  160.2473   45.9475  143.6070 P   0  0  1  0  0  0  0  0  0  0  0  0
  158.3729   41.9926  147.2507 P   0  0  1  0  0  0  0  0  0  0  0  0
  159.7321   45.8211  142.1964 O   0  5  0  0  0  0  0  0  0  0  0  0
  161.0209   47.2050  143.9386 O   0  0  0  0  0  0  0  0  0  0  0  0
  158.8585   46.5391  145.7798 C   0  0  0  0  0  0  0  0  0  0  0  0
  159.0130   45.7377  144.6158 O   0  0  0  0  0  0  0  0  0  0  0  0
  157.8699   45.8873  146.7324 C   0  0  1  0  0  0  0  0  0  0  0  0
  156.6348   46.5811  146.6267 O   0  0  0  0  0  0  0  0  0  0  0  0
  157.5595   44.4211  146.4591 C   0  0  1  0  0  0  0  0  0  0  0  0
  158.2449   43.6045  147.3972 O   0  0  0  0  0  0  0  0  0  0  0  0
  156.0773   44.3164  146.7400 C   0  0  1  0  0  0  0  0  0  0  0  0
  155.8716   43.9895  148.1158 O   0  0  0  0  0  0  0  0  0  0  0  0
  155.5275   45.6980  146.5340 C   0  0  2  0  0  0  0  0  0  0  0  0
  160.8206   41.3215  142.4602 C   0  0  1  0  0  0  0  0  0  0  0  0
  151.5346   44.4302  143.3724 N   0  0  0  0  0  0  0  0  0  0  0  0
  151.7449   44.1277  144.6675 C   0  0  1  0  0  0  0  0  0  0  0  0
  160.7356   42.8279  142.3290 C   0  0  2  0  0  0  0  0  0  0  0  0
  150.8274   43.3847  145.3259 N   0  0  0  0  0  0  0  0  0  0  0  0
  161.9721   43.2803  141.7703 O   0  0  0  0  0  0  0  0  0  0  0  0
  160.5613   43.3460  143.7444 C   0  0  2  0  0  0  0  0  0  0  0  0
  152.8364   44.5253  145.3598 N   0  0  0  0  0  0  0  0  0  0  0  0
  161.1417   44.6396  143.9046 O   0  0  0  0  0  0  0  0  0  0  0  0
  153.7991   45.2670  144.7717 C   0  0  2  0  0  0  0  0  0  0  0  0
  161.2807   42.2821  144.5706 C   0  0  2  0  0  0  0  0  0  0  0  0
  161.2741   41.0816  143.7951 O   0  0  0  0  0  0  0  0  0  0  0  0
  153.6365   45.6324  143.3611 C   0  0  2  0  0  0  0  0  0  0  0  0
  160.6647   42.0009  145.9447 C   0  0  0  0  0  0  0  0  0  0  0  0
  159.2479   41.8362  145.9019 O   0  0  0  0  0  0  0  0  0  0  0  0
  152.4147   45.1613  142.6673 C   0  0  0  0  0  0  0  0  0  0  0  0
  152.2224   45.4469  141.4609 O   0  0  0  0  0  0  0  0  0  0  0  0
  154.7238   46.3534  143.0344 N   0  0  0  0  0  0  0  0  0  0  0  0
  155.5116   46.4457  144.1326 C   0  0  0  0  0  0  0  0  0  0  0  0
  154.9558   45.7961  145.1701 N   0  0  1  0  0  0  0  0  0  0  0  0
  156.4783   40.9817  139.5164 N   0  0  0  0  0  0  0  0  0  0  0  0
  159.1939   41.5270  148.4386 O   0  5  0  0  0  0  0  0  0  0  0  0
  157.6097   41.6715  139.3046 C   0  0  2  0  0  0  0  0  0  0  0  0
  157.6884   42.3988  138.1802 N   0  0  0  0  0  0  0  0  0  0  0  0
  157.0082   41.4101  146.9747 O   0  0  0  0  0  0  0  0  0  0  0  0
  158.6614   41.6656  140.1567 N   0  0  0  0  0  0  0  0  0  0  0  0
  158.6206   40.9417  141.2950 C   0  0  1  0  0  0  0  0  0  0  0  0
  157.4018   40.1607  141.5867 C   0  0  1  0  0  0  0  0  0  0  0  0
  156.2987   40.2157  140.5938 C   0  0  0  0  0  0  0  0  0  0  0  0
  155.2250   39.5957  140.7512 O   0  0  0  0  0  0  0  0  0  0  0  0
  157.6214   39.5388  142.7560 N   0  0  0  0  0  0  0  0  0  0  0  0
  158.8672   39.8978  143.1737 C   0  0  0  0  0  0  0  0  0  0  0  0
  159.4676   40.7328  142.3025 N   0  0  2  0  0  0  0  0  0  0  0  0
  1  3  1  6  0  0  0
  1  4  2  0  0  0  0
  1  6  1  0  0  0  0
  1 22  1  0  0  0  0
  2 28  1  0  0  0  0
  2 35  1  1  0  0  0
  2 38  2  0  0  0  0
  2 10  1  0  0  0  0
  5  6  1  0  0  0  0
  7  5  1  6  0  0  0
  7  8  1  0  0  0  0
  7  9  1  0  0  0  0
  9 10  1  1  0  0  0
  9 11  1  0  0  0  0
 11 12  1  1  0  0  0
 11 13  1  0  0  0  0
 13  8  1  6  0  0  0
 13 33  1  0  0  0  0
 14 46  1  0  0  0  0
 14 17  1  0  0  0  0
 14 25  1  1  0  0  0
 15 16  1  0  0  0  0
 15 29  1  0  0  0  0
 16 18  1  6  0  0  0
 16 21  1  0  0  0  0
 17 19  1  1  0  0  0
 17 20  1  0  0  0  0
 20 22  1  6  0  0  0
 20 24  1  0  0  0  0
 23 21  1  6  0  0  0
 23 26  1  0  0  0  0
 23 33  1  0  0  0  0
 24 25  1  6  0  0  0
 24 27  1  0  0  0  0
 26 29  1  6  0  0  0
 26 31  1  0  0  0  0
 27 28  1  0  0  0  0
 29 30  2  0  0  0  0
 31 32  1  0  0  0  0
 33 32  1  1  0  0  0
 34 36  1  0  0  0  0
 34 42  1  0  0  0  0
 36 37  1  6  0  0  0
 36 39  1  0  0  0  0
 40 39  1  6  0  0  0
 40 41  1  0  0  0  0
 40 46  1  0  0  0  0
 41 42  1  6  0  0  0
 41 44  1  0  0  0  0
 42 43  2  0  0  0  0
 44 45  1  0  0  0  0
 46 45  1  1  0  0  0
M  CHG  2   3  -1  35  -1
M  END
>  <CHROM.1>
-169.63068445,52.81127372,157.50571314,43.47587345,144.02408157,-0.38375721
-0.20106280,1.02399332

>  <Name>
ligand

>  <RI>
0

>  <Rbt.Current_Directory>
/home/itssahil/PROJECTS/Mol_Feturizer/Test_systems_manuscript/rnas/4yb0

>  <Rbt.Executable>
rbdock ($Id: //depot/dev/client3/rdock/2013.1/src/exe/rbdock.cxx#4 $)

>  <Rbt.Library>
libRbt.so (2013.1, Build901 2013/11/27)

>  <Rbt.Parameter_File>
/export/apps/rDock/src/rDock_2013.1_src/data/scripts/dock_solv.prm

>  <Rbt.Receptor>
prm/pocket_docking_2.prm

>  <SCORE>
-46.5615

>  <SCORE.INTER>
-46.5658

>  <SCORE.INTER.CONST>
1

>  <SCORE.INTER.POLAR>
0

>  <SCORE.INTER.ROT>
2

>  <SCORE.INTER.SOLV>
38.0898

>  <SCORE.INTER.VDW>
-48.6738

>  <SCORE.INTER.norm>
-1.0123

>  <SCORE.INTRA>
0.00431565

>  <SCORE.INTRA.DIHEDRAL>
-0.000106038

>  <SCORE.INTRA.DIHEDRAL.0>
2.42188

>  <SCORE.INTRA.POLAR>
0

>  <SCORE.INTRA.POLAR.0>
0

>  <SCORE.INTRA.REPUL>
0

>  <SCORE.INTRA.REPUL.0>
0

>  <SCORE.INTRA.SOLV>
0.000207841

>  <SCORE.INTRA.SOLV.lig_0>
-127.307

>  <SCORE.INTRA.VDW>
0.00426475

>  <SCORE.INTRA.VDW.0>
-2.19936

>  <SCORE.INTRA.norm>
9.38186e-05

>  <SCORE.RESTR>
0

>  <SCORE.RESTR.CAVITY>
0

>  <SCORE.RESTR.norm>
0

>  <SCORE.SYSTEM>
0

>  <SCORE.SYSTEM.CONST>
0

>  <SCORE.SYSTEM.DIHEDRAL>
0

>  <SCORE.SYSTEM.SOLV>
0

>  <SCORE.SYSTEM.norm>
0

>  <SCORE.heavy>
46

>  <SCORE.norm>
-1.01221

>  <RMSD>
0.264

$$$$
ligand
 OpenBabel02271912143D
libRbt.so/2013.1/901 2013/11/27
 46 52  0  0  0  0  0  0  0  0999 V2000
  160.2539   45.9569  143.5963 P   0  0  1  0  0  0  0  0  0  0  0  0
  158.3896   42.0177  147.2621 P   0  0  1  0  0  0  0  0  0  0  0  0
  159.7377   45.8222  142.1869 O   0  5  0  0  0  0  0  0  0  0  0  0
  161.0258   47.2173  143.9206 O   0  0  0  0  0  0  0  0  0  0  0  0
  158.8662   46.5573  145.7673 C   0  0  0  0  0  0  0  0  0  0  0  0
  159.0209   45.7501  144.6073 O   0  0  0  0  0  0  0  0  0  0  0  0
  157.8796   45.9087  146.7242 C   0  0  1  0  0  0  0  0  0  0  0  0
  156.6433   46.6000  146.6161 O   0  0  0  0  0  0  0  0  0  0  0  0
  157.5714   44.4406  146.4587 C   0  0  1  0  0  0  0  0  0  0  0  0
  158.2590   43.6301  147.4004 O   0  0  0  0  0  0  0  0  0  0  0  0
  156.0896   44.3350  146.7416 C   0  0  1  0  0  0  0  0  0  0  0  0
  155.8857   44.0148  148.1193 O   0  0  0  0  0  0  0  0  0  0  0  0
  155.5373   45.7146  146.5290 C   0  0  2  0  0  0  0  0  0  0  0  0
  160.8339   41.3259  142.4727 C   0  0  1  0  0  0  0  0  0  0  0  0
  151.5385   44.4329  143.3805 N   0  0  0  0  0  0  0  0  0  0  0  0
  151.7498   44.1386  144.6773 C   0  0  1  0  0  0  0  0  0  0  0  0
  160.7463   42.8314  142.3339 C   0  0  2  0  0  0  0  0  0  0  0  0
  150.8318   43.4015  145.3416 N   0  0  0  0  0  0  0  0  0  0  0  0
  161.9815   43.2831  141.7717 O   0  0  0  0  0  0  0  0  0  0  0  0
  160.5724   43.3565  143.7468 C   0  0  2  0  0  0  0  0  0  0  0  0
  152.8428   44.5388  145.3657 N   0  0  0  0  0  0  0  0  0  0  0  0
  161.1508   44.6520  143.8998 O   0  0  0  0  0  0  0  0  0  0  0  0
  153.8061   45.2751  144.7716 C   0  0  2  0  0  0  0  0  0  0  0  0
  161.2944   42.2982  144.5778 C   0  0  2  0  0  0  0  0  0  0  0  0
  161.2891   41.0936  143.8084 O   0  0  0  0  0  0  0  0  0  0  0  0
  153.6425   45.6314  143.3588 C   0  0  2  0  0  0  0  0  0  0  0  0
  160.6801   42.0230  145.9538 C   0  0  0  0  0  0  0  0  0  0  0  0
  159.2635   41.8557  145.9132 O   0  0  0  0  0  0  0  0  0  0  0  0
  152.4191   45.1579  142.6695 C   0  0  0  0  0  0  0  0  0  0  0  0
  152.2259   45.4359  141.4615 O   0  0  0  0  0  0  0  0  0  0  0  0
  154.7306   46.3484  143.0261 N   0  0  0  0  0  0  0  0  0  0  0  0
  155.5199   46.4465  144.1227 C   0  0  0  0  0  0  0  0  0  0  0  0
  154.9642   45.8047  145.1651 N   0  0  1  0  0  0  0  0  0  0  0  0
  156.4981   40.9465  139.5241 N   0  0  0  0  0  0  0  0  0  0  0  0
  159.2125   41.5596  148.4516 O   0  5  0  0  0  0  0  0  0  0  0  0
  157.6294   41.6347  139.3063 C   0  0  2  0  0  0  0  0  0  0  0  0
  157.7099   42.3483  138.1733 N   0  0  0  0  0  0  0  0  0  0  0  0
  157.0255   41.4314  146.9903 O   0  0  0  0  0  0  0  0  0  0  0  0
  158.6793   41.6401  140.1607 N   0  0  0  0  0  0  0  0  0  0  0  0
  158.6367   40.9300  141.3076 C   0  0  1  0  0  0  0  0  0  0  0  0
  157.4179   40.1516  141.6062 C   0  0  1  0  0  0  0  0  0  0  0  0
  156.3170   40.1936  140.6103 C   0  0  0  0  0  0  0  0  0  0  0  0
  155.2434   39.5746  140.7730 O   0  0  0  0  0  0  0  0  0  0  0  0
  157.6356   39.5442  142.7835 N   0  0  0  0  0  0  0  0  0  0  0  0
  158.8801   39.9094  143.1994 C   0  0  0  0  0  0  0  0  0  0  0  0
  159.4817   40.7342  142.3194 N   0  0  2  0  0  0  0  0  0  0  0  0
  1  3  1  6  0  0  0
  1  4  2  0  0  0  0
  1  6  1  0  0  0  0
  1 22  1  0  0  0  0
  2 28  1  0  0  0  0
  2 35  1  1  0  0  0
  2 38  2  0  0  0  0
  2 10  1  0  0  0  0
  5  6  1  0  0  0  0
  7  5  1  6  0  0  0
  7  8  1  0  0  0  0
  7  9  1  0  0  0  0
  9 10  1  1  0  0  0
  9 11  1  0  0  0  0
 11 12  1  1  0  0  0
 11 13  1  0  0  0  0
 13  8  1  6  0  0  0
 13 33  1  0  0  0  0
 14 46  1  0  0  0  0
 14 17  1  0  0  0  0
 14 25  1  1  0  0  0
 15 16  1  0  0  0  0
 15 29  1  0  0  0  0
 16 18  1  6  0  0  0
 16 21  1  0  0  0  0
 17 19  1  1  0  0  0
 17 20  1  0  0  0  0
 20 22  1  6  0  0  0
 20 24  1  0  0  0  0
 23 21  1  6  0  0  0
 23 26  1  0  0  0  0
 23 33  1  0  0  0  0
 24 25  1  6  0  0  0
 24 27  1  0  0  0  0
 26 29  1  6  0  0  0
 26 31  1  0  0  0  0
 27 28  1  0  0  0  0
 29 30  2  0  0  0  0
 31 32  1  0  0  0  0
 33 32  1  1  0  0  0
 34 36  1  0  0  0  0
 34 42  1  0  0  0  0
 36 37  1  6  0  0  0
 36 39  1  0  0  0  0
 40 39  1  6  0  0  0
 40 41  1  0  0  0  0
 40 46  1  0  0  0  0
 41 42  1  6  0  0  0
 41 44  1  0  0  0  0
 42 43  2  0  0  0  0
 44 45  1  0  0  0  0
 46 45  1  1  0  0  0
M  CHG  2   3  -1  35  -1
M  END
>  <CHROM.1>
-169.42009049,53.25429488,157.51729927,43.48193461,144.02779490,-0.38914989
-0.19936400,1.01826737

>  <Name>
ligand

>  <RI>
0

>  <Rbt.Current_Directory>
/home/itssahil/PROJECTS/Mol_Feturizer/Test_systems_manuscript/rnas/4yb0

>  <Rbt.Executable>
rbdock ($Id: //depot/dev/client3/rdock/2013.1/src/exe/rbdock.cxx#4 $)

>  <Rbt.Library>
libRbt.so (2013.1, Build901 2013/11/27)

>  <Rbt.Parameter_File>
/export/apps/rDock/src/rDock_2013.1_src/data/scripts/dock_solv.prm

>  <Rbt.Receptor>
prm/pocket_docking_4.prm

>  <SCORE>
-46.5934

>  <SCORE.INTER>
-46.5911

>  <SCORE.INTER.CONST>
1

>  <SCORE.INTER.POLAR>
0

>  <SCORE.INTER.ROT>
2

>  <SCORE.INTER.SOLV>
37.9652

>  <SCORE.INTER.VDW>
-48.6491

>  <SCORE.INTER.norm>
-1.01285

>  <SCORE.INTRA>
-0.00239252

>  <SCORE.INTRA.DIHEDRAL>
-0.000545505

>  <SCORE.INTRA.DIHEDRAL.0>
2.42188

>  <SCORE.INTRA.POLAR>
0

>  <SCORE.INTRA.POLAR.0>
0

>  <SCORE.INTRA.REPUL>
0

>  <SCORE.INTRA.REPUL.0>
0

>  <SCORE.INTRA.SOLV>
-0.00010226

>  <SCORE.INTRA.SOLV.lig_0>
-127.307

>  <SCORE.INTRA.VDW>
-0.00206864

>  <SCORE.INTRA.VDW.0>
-2.19936

>  <SCORE.INTRA.norm>
-5.20114e-05

>  <SCORE.RESTR>
0

>  <SCORE.RESTR.CAVITY>
0

>  <SCORE.RESTR.norm>
0

>  <SCORE.SYSTEM>
0

>  <SCORE.SYSTEM.CONST>
0

>  <SCORE.SYSTEM.DIHEDRAL>
0

>  <SCORE.SYSTEM.SOLV>
0

>  <SCORE.SYSTEM.norm>
0

>  <SCORE.heavy>
46

>  <SCORE.norm>
-1.0129

>  <RMSD>
0.264

$$$$
ligand
 OpenBabel02271912143D
libRbt.so/2013.1/901 2013/11/27
 46 52  0  0  0  0  0  0  0  0999 V2000
  160.2765   45.9621  143.6221 P   0  0  1  0  0  0  0  0  0  0  0  0
  158.3862   42.0244  147.2762 P   0  0  1  0  0  0  0  0  0  0  0  0
  159.7639   45.8317  142.2109 O   0  5  0  0  0  0  0  0  0  0  0  0
  161.0522   47.2190  143.9506 O   0  0  0  0  0  0  0  0  0  0  0  0
  158.8846   46.5645  145.7898 C   0  0  0  0  0  0  0  0  0  0  0  0
  159.0397   45.7586  144.6290 O   0  0  0  0  0  0  0  0  0  0  0  0
  157.8927   45.9183  146.7428 C   0  0  1  0  0  0  0  0  0  0  0  0
  156.6594   46.6144  146.6321 O   0  0  0  0  0  0  0  0  0  0  0  0
  157.5796   44.4518  146.4742 C   0  0  1  0  0  0  0  0  0  0  0  0
  158.2613   43.6371  147.4166 O   0  0  0  0  0  0  0  0  0  0  0  0
  156.0966   44.3514  146.7525 C   0  0  1  0  0  0  0  0  0  0  0  0
  155.8875   44.0299  148.1290 O   0  0  0  0  0  0  0  0  0  0  0  0
  155.5503   45.7334  146.5404 C   0  0  2  0  0  0  0  0  0  0  0  0
  160.8421   41.3307  142.4930 C   0  0  1  0  0  0  0  0  0  0  0  0
  151.5738   44.4401  143.3684 N   0  0  0  0  0  0  0  0  0  0  0  0
  151.7826   44.1390  144.6640 C   0  0  1  0  0  0  0  0  0  0  0  0
  160.7606   42.8368  142.3563 C   0  0  2  0  0  0  0  0  0  0  0  0
  150.8681   43.3902  145.3200 N   0  0  0  0  0  0  0  0  0  0  0  0
  161.9992   43.2846  141.7984 O   0  0  0  0  0  0  0  0  0  0  0  0
  160.5845   43.3604  143.7694 C   0  0  2  0  0  0  0  0  0  0  0  0
  152.8698   44.5435  145.3592 N   0  0  0  0  0  0  0  0  0  0  0  0
  161.1675   44.6533  143.9261 O   0  0  0  0  0  0  0  0  0  0  0  0
  153.8293   45.2914  144.7735 C   0  0  2  0  0  0  0  0  0  0  0  0
  161.3000   42.2979  144.6009 C   0  0  2  0  0  0  0  0  0  0  0  0
  161.2923   41.0947  143.8297 O   0  0  0  0  0  0  0  0  0  0  0  0
  153.6680   45.6557  143.3625 C   0  0  2  0  0  0  0  0  0  0  0  0
  160.6806   42.0230  145.9747 C   0  0  0  0  0  0  0  0  0  0  0  0
  159.2635   41.8612  145.9297 O   0  0  0  0  0  0  0  0  0  0  0  0
  152.4511   45.1768  142.6655 C   0  0  0  0  0  0  0  0  0  0  0  0
  152.2602   45.4611  141.4586 O   0  0  0  0  0  0  0  0  0  0  0  0
  154.7516   46.3836  143.0386 N   0  0  0  0  0  0  0  0  0  0  0  0
  155.5359   46.4809  144.1388 C   0  0  0  0  0  0  0  0  0  0  0  0
  154.9816   45.8278  145.1749 N   0  0  1  0  0  0  0  0  0  0  0  0
  156.5126   40.9745  139.5322 N   0  0  0  0  0  0  0  0  0  0  0  0
  159.2037   41.5613  148.4674 O   0  5  0  0  0  0  0  0  0  0  0  0
  157.6470   41.6590  139.3190 C   0  0  2  0  0  0  0  0  0  0  0  0
  157.7331   42.3749  138.1879 N   0  0  0  0  0  0  0  0  0  0  0  0
  157.0207   41.4438  146.9995 O   0  0  0  0  0  0  0  0  0  0  0  0
  158.6947   41.6584  140.1761 N   0  0  0  0  0  0  0  0  0  0  0  0
  158.6464   40.9458  141.3212 C   0  0  1  0  0  0  0  0  0  0  0  0
  157.4240   40.1712  141.6148 C   0  0  1  0  0  0  0  0  0  0  0  0
  156.3258   40.2197  140.6162 C   0  0  0  0  0  0  0  0  0  0  0  0
  155.2495   39.6043  140.7746 O   0  0  0  0  0  0  0  0  0  0  0  0
  157.6363   39.5602  142.7912 N   0  0  0  0  0  0  0  0  0  0  0  0
  158.8811   39.9198  143.2112 C   0  0  0  0  0  0  0  0  0  0  0  0
  159.4881   40.7444  142.3348 N   0  0  2  0  0  0  0  0  0  0  0  0
  1  3  1  6  0  0  0
  1  4  2  0  0  0  0
  1  6  1  0  0  0  0
  1 22  1  0  0  0  0
  2 28  1  0  0  0  0
  2 35  1  1  0  0  0
  2 38  2  0  0  0  0
  2 10  1  0  0  0  0
  5  6  1  0  0  0  0
  7  5  1  6  0  0  0
  7  8  1  0  0  0  0
  7  9  1  0  0  0  0
  9 10  1  1  0  0  0
  9 11  1  0  0  0  0
 11 12  1  1  0  0  0
 11 13  1  0  0  0  0
 13  8  1  6  0  0  0
 13 33  1  0  0  0  0
 14 46  1  0  0  0  0
 14 17  1  0  0  0  0
 14 25  1  1  0  0  0
 15 16  1  0  0  0  0
 15 29  1  0  0  0  0
 16 18  1  6  0  0  0
 16 21  1  0  0  0  0
 17 19  1  1  0  0  0
 17 20  1  0  0  0  0
 20 22  1  6  0  0  0
 20 24  1  0  0  0  0
 23 21  1  6  0  0  0
 23 26  1  0  0  0  0
 23 33  1  0  0  0  0
 24 25  1  6  0  0  0
 24 27  1  0  0  0  0
 26 29  1  6  0  0  0
 26 31  1  0  0  0  0
 27 28  1  0  0  0  0
 29 30  2  0  0  0  0
 31 32  1  0  0  0  0
 33 32  1  1  0  0  0
 34 36  1  0  0  0  0
 34 42  1  0  0  0  0
 36 37  1  6  0  0  0
 36 39  1  0  0  0  0
 40 39  1  6  0  0  0
 40 41  1  0  0  0  0
 40 46  1  0  0  0  0
 41 42  1  6  0  0  0
 41 44  1  0  0  0  0
 42 43  2  0  0  0  0
 44 45  1  0  0  0  0
 46 45  1  1  0  0  0
M  CHG  2   3  -1  35  -1
M  END
>  <CHROM.1>
-170.16191534,53.20200120,157.53092747,43.49378059,144.04066354,-0.38655498
-0.20218161,1.01921716

>  <Name>
ligand

>  <RI>
0

>  <Rbt.Current_Directory>
/home/itssahil/PROJECTS/Mol_Feturizer/Test_systems_manuscript/rnas/4yb0

>  <Rbt.Executable>
rbdock ($Id: //depot/dev/client3/rdock/2013.1/src/exe/rbdock.cxx#4 $)

>  <Rbt.Library>
libRbt.so (2013.1, Build901 2013/11/27)

>  <Rbt.Parameter_File>
/export/apps/rDock/src/rDock_2013.1_src/data/scripts/dock_solv.prm

>  <Rbt.Receptor>
prm/pocket_docking_3.prm

>  <SCORE>
-46.6052

>  <SCORE.INTER>
-46.6091

>  <SCORE.INTER.CONST>
1

>  <SCORE.INTER.POLAR>
0

>  <SCORE.INTER.ROT>
2

>  <SCORE.INTER.SOLV>
37.5928

>  <SCORE.INTER.VDW>
-48.537

>  <SCORE.INTER.norm>
-1.01324

>  <SCORE.INTRA>
0.0039125

>  <SCORE.INTRA.DIHEDRAL>
-0.00124158

>  <SCORE.INTRA.DIHEDRAL.0>
2.42188

>  <SCORE.INTRA.POLAR>
0

>  <SCORE.INTRA.POLAR.0>
0

>  <SCORE.INTRA.REPUL>
0

>  <SCORE.INTRA.REPUL.0>
0

>  <SCORE.INTRA.SOLV>
0.000213723

>  <SCORE.INTRA.SOLV.lig_0>
-127.307

>  <SCORE.INTRA.VDW>
0.00442643

>  <SCORE.INTRA.VDW.0>
-2.19936

>  <SCORE.INTRA.norm>
8.50543e-05

>  <SCORE.RESTR>
0

>  <SCORE.RESTR.CAVITY>
0

>  <SCORE.RESTR.norm>
0

>  <SCORE.SYSTEM>
0

>  <SCORE.SYSTEM.CONST>
0

>  <SCORE.SYSTEM.DIHEDRAL>
0

>  <SCORE.SYSTEM.SOLV>
0

>  <SCORE.SYSTEM.norm>
0

>  <SCORE.heavy>
46

>  <SCORE.norm>
-1.01316

>  <RMSD>
0.266

$$$$
ligand
 OpenBabel02271912143D
libRbt.so/2013.1/901 2013/11/27
 46 52  0  0  0  0  0  0  0  0999 V2000
  160.2736   45.9376  143.6394 P   0  0  1  0  0  0  0  0  0  0  0  0
  158.3887   41.9868  147.2822 P   0  0  1  0  0  0  0  0  0  0  0  0
  159.7588   45.8122  142.2286 O   0  5  0  0  0  0  0  0  0  0  0  0
  161.0499   47.1933  143.9713 O   0  0  0  0  0  0  0  0  0  0  0  0
  158.8851   46.5322  145.8115 C   0  0  0  0  0  0  0  0  0  0  0  0
  159.0383   45.7305  144.6476 O   0  0  0  0  0  0  0  0  0  0  0  0
  157.8947   45.8826  146.7637 C   0  0  1  0  0  0  0  0  0  0  0  0
  156.6612   46.5792  146.6574 O   0  0  0  0  0  0  0  0  0  0  0  0
  157.5811   44.4171  146.4903 C   0  0  1  0  0  0  0  0  0  0  0  0
  158.2642   43.5990  147.4287 O   0  0  0  0  0  0  0  0  0  0  0  0
  156.0985   44.3158  146.7705 C   0  0  1  0  0  0  0  0  0  0  0  0
  155.8915   43.9893  148.1462 O   0  0  0  0  0  0  0  0  0  0  0  0
  155.5519   45.6986  146.5643 C   0  0  2  0  0  0  0  0  0  0  0  0
  160.8371   41.3103  142.4927 C   0  0  1  0  0  0  0  0  0  0  0  0
  151.5587   44.4378  143.4002 N   0  0  0  0  0  0  0  0  0  0  0  0
  151.7679   44.1346  144.6953 C   0  0  1  0  0  0  0  0  0  0  0  0
  160.7555   42.8168  142.3616 C   0  0  2  0  0  0  0  0  0  0  0  0
  150.8489   43.3927  145.3530 N   0  0  0  0  0  0  0  0  0  0  0  0
  161.9933   43.2665  141.8034 O   0  0  0  0  0  0  0  0  0  0  0  0
  160.5817   43.3353  143.7769 C   0  0  2  0  0  0  0  0  0  0  0  0
  152.8597   44.5303  145.3883 N   0  0  0  0  0  0  0  0  0  0  0  0
  161.1649   44.6276  143.9374 O   0  0  0  0  0  0  0  0  0  0  0  0
  153.8238   45.2708  144.8009 C   0  0  2  0  0  0  0  0  0  0  0  0
  161.2984   42.2698  144.6034 C   0  0  2  0  0  0  0  0  0  0  0  0
  161.2894   41.0693  143.8278 O   0  0  0  0  0  0  0  0  0  0  0  0
  153.6624   45.6369  143.3903 C   0  0  2  0  0  0  0  0  0  0  0  0
  160.6811   41.9900  145.9772 C   0  0  0  0  0  0  0  0  0  0  0  0
  159.2639   41.8284  145.9337 O   0  0  0  0  0  0  0  0  0  0  0  0
  152.4403   45.1678  142.6958 C   0  0  0  0  0  0  0  0  0  0  0  0
  152.2491   45.4541  141.4894 O   0  0  0  0  0  0  0  0  0  0  0  0
  154.7510   46.3564  143.0644 N   0  0  0  0  0  0  0  0  0  0  0  0
  155.5384   46.4471  144.1630 C   0  0  0  0  0  0  0  0  0  0  0  0
  154.9811   45.7979  145.2001 N   0  0  1  0  0  0  0  0  0  0  0  0
  156.4952   40.9805  139.5472 N   0  0  0  0  0  0  0  0  0  0  0  0
  159.2081   41.5194  148.4705 O   0  5  0  0  0  0  0  0  0  0  0  0
  157.6282   41.6679  139.3359 C   0  0  2  0  0  0  0  0  0  0  0  0
  157.7089   42.3951  138.2117 N   0  0  0  0  0  0  0  0  0  0  0  0
  157.0228   41.4073  147.0055 O   0  0  0  0  0  0  0  0  0  0  0  0
  158.6795   41.6595  140.1885 N   0  0  0  0  0  0  0  0  0  0  0  0
  158.6367   40.9355  141.3266 C   0  0  1  0  0  0  0  0  0  0  0  0
  157.4160   40.1572  141.6178 C   0  0  1  0  0  0  0  0  0  0  0  0
  156.3135   40.2148  140.6244 C   0  0  0  0  0  0  0  0  0  0  0  0
  155.2383   39.5972  140.7813 O   0  0  0  0  0  0  0  0  0  0  0  0
  157.6338   39.5346  142.7871 N   0  0  0  0  0  0  0  0  0  0  0  0
  158.8802   39.8909  143.2053 C   0  0  0  0  0  0  0  0  0  0  0  0
  159.4828   40.7246  142.3345 N   0  0  2  0  0  0  0  0  0  0  0  0
  1  3  1  6  0  0  0
  1  4  2  0  0  0  0
  1  6  1  0  0  0  0
  1 22  1  0  0  0  0
  2 28  1  0  0  0  0
  2 35  1  1  0  0  0
  2 38  2  0  0  0  0
  2 10  1  0  0  0  0
  5  6  1  0  0  0  0
  7  5  1  6  0  0  0
  7  8  1  0  0  0  0
  7  9  1  0  0  0  0
  9 10  1  1  0  0  0
  9 11  1  0  0  0  0
 11 12  1  1  0  0  0
 11 13  1  0  0  0  0
 13  8  1  6  0  0  0
 13 33  1  0  0  0  0
 14 46  1  0  0  0  0
 14 17  1  0  0  0  0
 14 25  1  1  0  0  0
 15 16  1  0  0  0  0
 15 29  1  0  0  0  0
 16 18  1  6  0  0  0
 16 21  1  0  0  0  0
 17 19  1  1  0  0  0
 17 20  1  0  0  0  0
 20 22  1  6  0  0  0
 20 24  1  0  0  0  0
 23 21  1  6  0  0  0
 23 26  1  0  0  0  0
 23 33  1  0  0  0  0
 24 25  1  6  0  0  0
 24 27  1  0  0  0  0
 26 29  1  6  0  0  0
 26 31  1  0  0  0  0
 27 28  1  0  0  0  0
 29 30  2  0  0  0  0
 31 32  1  0  0  0  0
 33 32  1  1  0  0  0
 34 36  1  0  0  0  0
 34 42  1  0  0  0  0
 36 37  1  6  0  0  0
 36 39  1  0  0  0  0
 40 39  1  6  0  0  0
 40 41  1  0  0  0  0
 40 46  1  0  0  0  0
 41 42  1  6  0  0  0
 41 44  1  0  0  0  0
 42 43  2  0  0  0  0
 44 45  1  0  0  0  0
 46 45  1  1  0  0  0
M  CHG  2   3  -1  35  -1
M  END
>  <CHROM.1>
-169.67692132,52.80383801,157.52639777,43.47186344,144.05515036,-0.38437107
-0.20309549,1.02381183

>  <Name>
ligand

>  <RI>
0

>  <Rbt.Current_Directory>
/home/itssahil/PROJECTS/Mol_Feturizer/Test_systems_manuscript/rnas/4yb0

>  <Rbt.Executable>
rbdock ($Id: //depot/dev/client3/rdock/2013.1/src/exe/rbdock.cxx#4 $)

>  <Rbt.Library>
libRbt.so (2013.1, Build901 2013/11/27)

>  <Rbt.Parameter_File>
/export/apps/rDock/src/rDock_2013.1_src/data/scripts/dock_solv.prm

>  <Rbt.Receptor>
prm/pocket_docking_2.prm

>  <SCORE>
-46.5759

>  <SCORE.INTER>
-46.5806

>  <SCORE.INTER.CONST>
1

>  <SCORE.INTER.POLAR>
0

>  <SCORE.INTER.ROT>
2

>  <SCORE.INTER.SOLV>
37.7923

>  <SCORE.INTER.VDW>
-48.5845

>  <SCORE.INTER.norm>
-1.01262

>  <SCORE.INTRA>
0.00475695

>  <SCORE.INTRA.DIHEDRAL>
-0.000143095

>  <SCORE.INTRA.DIHEDRAL.0>
2.42188

>  <SCORE.INTRA.POLAR>
0

>  <SCORE.INTRA.POLAR.0>
0

>  <SCORE.INTRA.REPUL>
0

>  <SCORE.INTRA.REPUL.0>
0

>  <SCORE.INTRA.SOLV>
0.000229673

>  <SCORE.INTRA.SOLV.lig_0>
-127.307

>  <SCORE.INTRA.VDW>
0.00471366

>  <SCORE.INTRA.VDW.0>
-2.19936

>  <SCORE.INTRA.norm>
0.000103412

>  <SCORE.RESTR>
0

>  <SCORE.RESTR.CAVITY>
0

>  <SCORE.RESTR.norm>
0

>  <SCORE.SYSTEM>
0

>  <SCORE.SYSTEM.CONST>
0

>  <SCORE.SYSTEM.DIHEDRAL>
0

>  <SCORE.SYSTEM.SOLV>
0

>  <SCORE.SYSTEM.norm>
0

>  <SCORE.heavy>
46

>  <SCORE.norm>
-1.01252

>  <RMSD>
0.267

$$$$
ligand
 OpenBabel02271912143D
libRbt.so/2013.1/901 2013/11/27
 46 52  0  0  0  0  0  0  0  0999 V2000
  160.3006   45.9348  143.6325 P   0  0  1  0  0  0  0  0  0  0  0  0
  158.4280   41.9893  147.2872 P   0  0  1  0  0  0  0  0  0  0  0  0
  159.7760   45.8114  142.2252 O   0  5  0  0  0  0  0  0  0  0  0  0
  161.0832   47.1880  143.9594 O   0  0  0  0  0  0  0  0  0  0  0  0
  158.9288   46.5334  145.8141 C   0  0  0  0  0  0  0  0  0  0  0  0
  159.0716   45.7314  144.6489 O   0  0  0  0  0  0  0  0  0  0  0  0
  157.9427   45.8867  146.7728 C   0  0  1  0  0  0  0  0  0  0  0  0
  156.7108   46.5872  146.6750 O   0  0  0  0  0  0  0  0  0  0  0  0
  157.6227   44.4222  146.5012 C   0  0  1  0  0  0  0  0  0  0  0  0
  158.3095   43.6018  147.4348 O   0  0  0  0  0  0  0  0  0  0  0  0
  156.1417   44.3256  146.7914 C   0  0  1  0  0  0  0  0  0  0  0  0
  155.9430   43.9995  148.1684 O   0  0  0  0  0  0  0  0  0  0  0  0
  155.5981   45.7101  146.5891 C   0  0  2  0  0  0  0  0  0  0  0  0
  160.8417   41.3060  142.4811 C   0  0  1  0  0  0  0  0  0  0  0  0
  151.5631   44.4932  143.4613 N   0  0  0  0  0  0  0  0  0  0  0  0
  151.7777   44.1928  144.7561 C   0  0  1  0  0  0  0  0  0  0  0  0
  160.7640   42.8128  142.3508 C   0  0  2  0  0  0  0  0  0  0  0  0
  150.8531   43.4674  145.4241 N   0  0  0  0  0  0  0  0  0  0  0  0
  161.9994   43.2587  141.7844 O   0  0  0  0  0  0  0  0  0  0  0  0
  160.6014   43.3315  143.7673 C   0  0  2  0  0  0  0  0  0  0  0  0
  152.8804   44.5757  145.4390 N   0  0  0  0  0  0  0  0  0  0  0  0
  161.1899   44.6220  143.9241 O   0  0  0  0  0  0  0  0  0  0  0  0
  153.8506   45.2995  144.8409 C   0  0  2  0  0  0  0  0  0  0  0  0
  161.3203   42.2636  144.5888 C   0  0  2  0  0  0  0  0  0  0  0  0
  161.3023   41.0633  143.8131 O   0  0  0  0  0  0  0  0  0  0  0  0
  153.6838   45.6615  143.4299 C   0  0  2  0  0  0  0  0  0  0  0  0
  160.7114   41.9855  145.9667 C   0  0  0  0  0  0  0  0  0  0  0  0
  159.2935   41.8284  145.9328 O   0  0  0  0  0  0  0  0  0  0  0  0
  152.4497   45.2071  142.7468 C   0  0  0  0  0  0  0  0  0  0  0  0
  152.2535   45.4907  141.5405 O   0  0  0  0  0  0  0  0  0  0  0  0
  154.7801   46.3636  143.0924 N   0  0  0  0  0  0  0  0  0  0  0  0
  155.5771   46.4479  144.1846 C   0  0  0  0  0  0  0  0  0  0  0  0
  155.0184   45.8116  145.2289 N   0  0  1  0  0  0  0  0  0  0  0  0
  156.5008   40.9467  139.5375 N   0  0  0  0  0  0  0  0  0  0  0  0
  159.2539   41.5190  148.4698 O   0  5  0  0  0  0  0  0  0  0  0  0
  157.6376   41.6243  139.3152 C   0  0  2  0  0  0  0  0  0  0  0  0
  157.7232   42.3311  138.1784 N   0  0  0  0  0  0  0  0  0  0  0  0
  157.0583   41.4141  147.0196 O   0  0  0  0  0  0  0  0  0  0  0  0
  158.6881   41.6256  140.1689 N   0  0  0  0  0  0  0  0  0  0  0  0
  158.6404   40.9221  141.3196 C   0  0  1  0  0  0  0  0  0  0  0  0
  157.4155   40.1554  141.6233 C   0  0  1  0  0  0  0  0  0  0  0  0
  156.3142   40.2012  140.6279 C   0  0  0  0  0  0  0  0  0  0  0  0
  155.2357   39.5920  140.7947 O   0  0  0  0  0  0  0  0  0  0  0  0
  157.6290   39.5525  142.8036 N   0  0  0  0  0  0  0  0  0  0  0  0
  158.8768   39.9096  143.2167 C   0  0  0  0  0  0  0  0  0  0  0  0
  159.4846   40.7246  142.3319 N   0  0  2  0  0  0  0  0  0  0  0  0
  1  3  1  6  0  0  0
  1  4  2  0  0  0  0
  1  6  1  0  0  0  0
  1 22  1  0  0  0  0
  2 28  1  0  0  0  0
  2 35  1  1  0  0  0
  2 38  2  0  0  0  0
  2 10  1  0  0  0  0
  5  6  1  0  0  0  0
  7  5  1  6  0  0  0
  7  8  1  0  0  0  0
  7  9  1  0  0  0  0
  9 10  1  1  0  0  0
  9 11  1  0  0  0  0
 11 12  1  1  0  0  0
 11 13  1  0  0  0  0
 13  8  1  6  0  0  0
 13 33  1  0  0  0  0
 14 46  1  0  0  0  0
 14 17  1  0  0  0  0
 14 25  1  1  0  0  0
 15 16  1  0  0  0  0
 15 29  1  0  0  0  0
 16 18  1  6  0  0  0
 16 21  1  0  0  0  0
 17 19  1  1  0  0  0
 17 20  1  0  0  0  0
 20 22  1  6  0  0  0
 20 24  1  0  0  0  0
 23 21  1  6  0  0  0
 23 26  1  0  0  0  0
 23 33  1  0  0  0  0
 24 25  1  6  0  0  0
 24 27  1  0  0  0  0
 26 29  1  6  0  0  0
 26 31  1  0  0  0  0
 27 28  1  0  0  0  0
 29 30  2  0  0  0  0
 31 32  1  0  0  0  0
 33 32  1  1  0  0  0
 34 36  1  0  0  0  0
 34 42  1  0  0  0  0
 36 37  1  6  0  0  0
 36 39  1  0  0  0  0
 40 39  1  6  0  0  0
 40 41  1  0  0  0  0
 40 46  1  0  0  0  0
 41 42  1  6  0  0  0
 41 44  1  0  0  0  0
 42 43  2  0  0  0  0
 44 45  1  0  0  0  0
 46 45  1  1  0  0  0
M  CHG  2   3  -1  35  -1
M  END
>  <CHROM.1>
-168.97012588,53.92729887,157.54912938,43.47625748,144.06430666,-0.40615453
-0.20327520,1.02112068

>  <Name>
ligand

>  <RI>
0

>  <Rbt.Current_Directory>
/home/itssahil/PROJECTS/Mol_Feturizer/Test_systems_manuscript/rnas/4yb0

>  <Rbt.Executable>
rbdock ($Id: //depot/dev/client3/rdock/2013.1/src/exe/rbdock.cxx#4 $)

>  <Rbt.Library>
libRbt.so (2013.1, Build901 2013/11/27)

>  <Rbt.Parameter_File>
/export/apps/rDock/src/rDock_2013.1_src/data/scripts/dock_solv.prm

>  <Rbt.Receptor>
prm/pocket_docking_2.prm

>  <SCORE>
-46.5305

>  <SCORE.INTER>
-46.517

>  <SCORE.INTER.CONST>
1

>  <SCORE.INTER.POLAR>
0

>  <SCORE.INTER.ROT>
2

>  <SCORE.INTER.SOLV>
38.047

>  <SCORE.INTER.VDW>
-48.627

>  <SCORE.INTER.norm>
-1.01124

>  <SCORE.INTRA>
-0.0134352

>  <SCORE.INTRA.DIHEDRAL>
-0.00109312

>  <SCORE.INTRA.DIHEDRAL.0>
2.42188

>  <SCORE.INTRA.POLAR>
0

>  <SCORE.INTRA.POLAR.0>
0

>  <SCORE.INTRA.REPUL>
0

>  <SCORE.INTRA.REPUL.0>
0

>  <SCORE.INTRA.SOLV>
-0.000623201

>  <SCORE.INTRA.SOLV.lig_0>
-127.307

>  <SCORE.INTRA.VDW>
-0.012577

>  <SCORE.INTRA.VDW.0>
-2.19936

>  <SCORE.INTRA.norm>
-0.000292069

>  <SCORE.RESTR>
0

>  <SCORE.RESTR.CAVITY>
0

>  <SCORE.RESTR.norm>
0

>  <SCORE.SYSTEM>
0

>  <SCORE.SYSTEM.CONST>
0

>  <SCORE.SYSTEM.DIHEDRAL>
0

>  <SCORE.SYSTEM.SOLV>
0

>  <SCORE.SYSTEM.norm>
0

>  <SCORE.heavy>
46

>  <SCORE.norm>
-1.01153

>  <RMSD>
0.276

$$$$
ligand
 OpenBabel02271912143D
libRbt.so/2013.1/901 2013/11/27
 46 52  0  0  0  0  0  0  0  0999 V2000
  160.2911   45.9363  143.6273 P   0  0  1  0  0  0  0  0  0  0  0  0
  158.3919   41.9997  147.2780 P   0  0  1  0  0  0  0  0  0  0  0  0
  159.7768   45.8093  142.2165 O   0  5  0  0  0  0  0  0  0  0  0  0
  161.0711   47.1903  143.9568 O   0  0  0  0  0  0  0  0  0  0  0  0
  158.9033   46.5402  145.7972 C   0  0  0  0  0  0  0  0  0  0  0  0
  159.0547   45.7353  144.6352 O   0  0  0  0  0  0  0  0  0  0  0  0
  157.9102   45.8958  146.7503 C   0  0  1  0  0  0  0  0  0  0  0  0
  156.6790   46.5959  146.6417 O   0  0  0  0  0  0  0  0  0  0  0  0
  157.5923   44.4306  146.4800 C   0  0  1  0  0  0  0  0  0  0  0  0
  158.2723   43.6126  147.4207 O   0  0  0  0  0  0  0  0  0  0  0  0
  156.1092   44.3345  146.7596 C   0  0  1  0  0  0  0  0  0  0  0  0
  155.9004   44.0118  148.1359 O   0  0  0  0  0  0  0  0  0  0  0  0
  155.5670   45.7186  146.5499 C   0  0  2  0  0  0  0  0  0  0  0  0
  160.8410   41.3047  142.4915 C   0  0  1  0  0  0  0  0  0  0  0  0
  151.5851   44.4393  143.3791 N   0  0  0  0  0  0  0  0  0  0  0  0
  151.7944   44.1354  144.6740 C   0  0  1  0  0  0  0  0  0  0  0  0
  160.7642   42.8111  142.3569 C   0  0  2  0  0  0  0  0  0  0  0  0
  150.8789   43.3873  145.3295 N   0  0  0  0  0  0  0  0  0  0  0  0
  162.0036   43.2558  141.7984 O   0  0  0  0  0  0  0  0  0  0  0  0
  160.5911   43.3334  143.7709 C   0  0  2  0  0  0  0  0  0  0  0  0
  152.8830   44.5364  145.3689 N   0  0  0  0  0  0  0  0  0  0  0  0
  161.1783   44.6243  143.9288 O   0  0  0  0  0  0  0  0  0  0  0  0
  153.8436   45.2833  144.7838 C   0  0  2  0  0  0  0  0  0  0  0  0
  161.3040   42.2676  144.6002 C   0  0  2  0  0  0  0  0  0  0  0  0
  161.2918   41.0654  143.8274 O   0  0  0  0  0  0  0  0  0  0  0  0
  153.6819   45.6505  143.3735 C   0  0  2  0  0  0  0  0  0  0  0  0
  160.6851   41.9928  145.9743 C   0  0  0  0  0  0  0  0  0  0  0  0
  159.2674   41.8355  145.9304 O   0  0  0  0  0  0  0  0  0  0  0  0
  152.4633   45.1754  142.6768 C   0  0  0  0  0  0  0  0  0  0  0  0
  152.2719   45.4623  141.4705 O   0  0  0  0  0  0  0  0  0  0  0  0
  154.7666   46.3767  143.0500 N   0  0  0  0  0  0  0  0  0  0  0  0
  155.5521   46.4704  144.1497 C   0  0  0  0  0  0  0  0  0  0  0  0
  154.9973   45.8166  145.1851 N   0  0  1  0  0  0  0  0  0  0  0  0
  156.4977   40.9860  139.5468 N   0  0  0  0  0  0  0  0  0  0  0  0
  159.2092   41.5324  148.4678 O   0  5  0  0  0  0  0  0  0  0  0  0
  157.6326   41.6700  139.3350 C   0  0  2  0  0  0  0  0  0  0  0  0
  157.7153   42.3964  138.2104 N   0  0  0  0  0  0  0  0  0  0  0  0
  157.0244   41.4238  147.0018 O   0  0  0  0  0  0  0  0  0  0  0  0
  158.6841   41.6590  140.1874 N   0  0  0  0  0  0  0  0  0  0  0  0
  158.6393   40.9357  141.3259 C   0  0  1  0  0  0  0  0  0  0  0  0
  157.4165   40.1610  141.6177 C   0  0  1  0  0  0  0  0  0  0  0  0
  156.3140   40.2214  140.6245 C   0  0  0  0  0  0  0  0  0  0  0  0
  155.2371   39.6069  140.7818 O   0  0  0  0  0  0  0  0  0  0  0  0
  157.6327   39.5384  142.7872 N   0  0  0  0  0  0  0  0  0  0  0  0
  158.8802   39.8913  143.2051 C   0  0  0  0  0  0  0  0  0  0  0  0
  159.4850   40.7228  142.3338 N   0  0  2  0  0  0  0  0  0  0  0  0
  1  3  1  6  0  0  0
  1  4  2  0  0  0  0
  1  6  1  0  0  0  0
  1 22  1  0  0  0  0
  2 28  1  0  0  0  0
  2 35  1  1  0  0  0
  2 38  2  0  0  0  0
  2 10  1  0  0  0  0
  5  6  1  0  0  0  0
  7  5  1  6  0  0  0
  7  8  1  0  0  0  0
  7  9  1  0  0  0  0
  9 10  1  1  0  0  0
  9 11  1  0  0  0  0
 11 12  1  1  0  0  0
 11 13  1  0  0  0  0
 13  8  1  6  0  0  0
 13 33  1  0  0  0  0
 14 46  1  0  0  0  0
 14 17  1  0  0  0  0
 14 25  1  1  0  0  0
 15 16  1  0  0  0  0
 15 29  1  0  0  0  0
 16 18  1  6  0  0  0
 16 21  1  0  0  0  0
 17 19  1  1  0  0  0
 17 20  1  0  0  0  0
 20 22  1  6  0  0  0
 20 24  1  0  0  0  0
 23 21  1  6  0  0  0
 23 26  1  0  0  0  0
 23 33  1  0  0  0  0
 24 25  1  6  0  0  0
 24 27  1  0  0  0  0
 26 29  1  6  0  0  0
 26 31  1  0  0  0  0
 27 28  1  0  0  0  0
 29 30  2  0  0  0  0
 31 32  1  0  0  0  0
 33 32  1  1  0  0  0
 34 36  1  0  0  0  0
 34 42  1  0  0  0  0
 36 37  1  6  0  0  0
 36 39  1  0  0  0  0
 40 39  1  6  0  0  0
 40 41  1  0  0  0  0
 40 46  1  0  0  0  0
 41 42  1  6  0  0  0
 41 44  1  0  0  0  0
 42 43  2  0  0  0  0
 44 45  1  0  0  0  0
 46 45  1  1  0  0  0
M  CHG  2   3  -1  35  -1
M  END
>  <CHROM.1>
-170.22834293,52.69234718,157.53731304,43.47793220,144.04651299,-0.38308738
-0.20462432,1.02090408

>  <Name>
ligand

>  <RI>
0

>  <Rbt.Current_Directory>
/home/itssahil/PROJECTS/Mol_Feturizer/Test_systems_manuscript/rnas/4yb0

>  <Rbt.Executable>
rbdock ($Id: //depot/dev/client3/rdock/2013.1/src/exe/rbdock.cxx#4 $)

>  <Rbt.Library>
libRbt.so (2013.1, Build901 2013/11/27)

>  <Rbt.Parameter_File>
/export/apps/rDock/src/rDock_2013.1_src/data/scripts/dock_solv.prm

>  <Rbt.Receptor>
prm/pocket_docking_2.prm

>  <SCORE>
-46.5815

>  <SCORE.INTER>
-46.5918

>  <SCORE.INTER.CONST>
1

>  <SCORE.INTER.POLAR>
0

>  <SCORE.INTER.ROT>
2

>  <SCORE.INTER.SOLV>
37.6394

>  <SCORE.INTER.VDW>
-48.541

>  <SCORE.INTER.norm>
-1.01287

>  <SCORE.INTRA>
0.0102999

>  <SCORE.INTRA.DIHEDRAL>
-0.000556585

>  <SCORE.INTRA.DIHEDRAL.0>
2.42188

>  <SCORE.INTRA.POLAR>
0

>  <SCORE.INTRA.POLAR.0>
0

>  <SCORE.INTRA.REPUL>
0

>  <SCORE.INTRA.REPUL.0>
0

>  <SCORE.INTRA.SOLV>
0.000502213

>  <SCORE.INTRA.SOLV.lig_0>
-127.307

>  <SCORE.INTRA.VDW>
0.0103271

>  <SCORE.INTRA.VDW.0>
-2.19936

>  <SCORE.INTRA.norm>
0.000223912

>  <SCORE.RESTR>
0

>  <SCORE.RESTR.CAVITY>
0

>  <SCORE.RESTR.norm>
0

>  <SCORE.SYSTEM>
0

>  <SCORE.SYSTEM.CONST>
0

>  <SCORE.SYSTEM.DIHEDRAL>
0

>  <SCORE.SYSTEM.SOLV>
0

>  <SCORE.SYSTEM.norm>
0

>  <SCORE.heavy>
46

>  <SCORE.norm>
-1.01264

>  <RMSD>
0.277

$$$$
ligand
 OpenBabel02271912143D
libRbt.so/2013.1/901 2013/11/27
 46 52  0  0  0  0  0  0  0  0999 V2000
  160.1315   45.9562  143.6203 P   0  0  1  0  0  0  0  0  0  0  0  0
  158.2500   41.9754  147.2319 P   0  0  1  0  0  0  0  0  0  0  0  0
  159.6319   45.8305  142.2041 O   0  5  0  0  0  0  0  0  0  0  0  0
  160.8922   47.2184  143.9638 O   0  0  0  0  0  0  0  0  0  0  0  0
  158.7161   46.5302  145.7806 C   0  0  0  0  0  0  0  0  0  0  0  0
  158.8886   45.7337  144.6156 O   0  0  0  0  0  0  0  0  0  0  0  0
  157.7227   45.8677  146.7209 C   0  0  1  0  0  0  0  0  0  0  0  0
  156.4836   46.5525  146.6047 O   0  0  0  0  0  0  0  0  0  0  0  0
  157.4263   44.4001  146.4397 C   0  0  1  0  0  0  0  0  0  0  0  0
  158.1082   43.5857  147.3822 O   0  0  0  0  0  0  0  0  0  0  0  0
  155.9421   44.2834  146.7051 C   0  0  1  0  0  0  0  0  0  0  0  0
  155.7248   43.9504  148.0776 O   0  0  0  0  0  0  0  0  0  0  0  0
  155.3840   45.6614  146.4978 C   0  0  2  0  0  0  0  0  0  0  0  0
  160.7518   41.3384  142.4647 C   0  0  1  0  0  0  0  0  0  0  0  0
  151.3453   44.5397  143.3391 N   0  0  0  0  0  0  0  0  0  0  0  0
  151.5322   44.2553  144.6419 C   0  0  1  0  0  0  0  0  0  0  0  0
  160.6567   42.8445  142.3375 C   0  0  2  0  0  0  0  0  0  0  0  0
  150.5726   43.5775  145.3105 N   0  0  0  0  0  0  0  0  0  0  0  0
  161.8953   43.3082  141.7929 O   0  0  0  0  0  0  0  0  0  0  0  0
  160.4639   43.3566  143.7526 C   0  0  2  0  0  0  0  0  0  0  0  0
  152.6399   44.6090  145.3323 N   0  0  0  0  0  0  0  0  0  0  0  0
  161.0328   44.6541  143.9229 O   0  0  0  0  0  0  0  0  0  0  0  0
  153.6442   45.2847  144.7343 C   0  0  2  0  0  0  0  0  0  0  0  0
  161.1829   42.2956  144.5828 C   0  0  2  0  0  0  0  0  0  0  0  0
  161.1933   41.0976  143.8034 O   0  0  0  0  0  0  0  0  0  0  0  0
  153.5089   45.6268  143.3149 C   0  0  2  0  0  0  0  0  0  0  0  0
  160.5549   42.0053  145.9495 C   0  0  0  0  0  0  0  0  0  0  0  0
  159.1399   41.8299  145.8916 O   0  0  0  0  0  0  0  0  0  0  0  0
  152.2672   45.2066  142.6238 C   0  0  0  0  0  0  0  0  0  0  0  0
  152.0970   45.4752  141.4102 O   0  0  0  0  0  0  0  0  0  0  0  0
  154.6352   46.2809  142.9795 N   0  0  0  0  0  0  0  0  0  0  0  0
  155.4210   46.3552  144.0804 C   0  0  0  0  0  0  0  0  0  0  0  0
  154.8256   45.7596  145.1284 N   0  0  1  0  0  0  0  0  0  0  0  0
  156.4208   41.0165  139.5021 N   0  0  0  0  0  0  0  0  0  0  0  0
  159.0623   41.5121  148.4267 O   0  5  0  0  0  0  0  0  0  0  0  0
  157.5461   41.7214  139.3075 C   0  0  2  0  0  0  0  0  0  0  0  0
  157.6207   42.4720  138.1984 N   0  0  0  0  0  0  0  0  0  0  0  0
  156.8926   41.3834  146.9400 O   0  0  0  0  0  0  0  0  0  0  0  0
  158.5955   41.7083  140.1624 N   0  0  0  0  0  0  0  0  0  0  0  0
  158.5586   40.9611  141.2857 C   0  0  1  0  0  0  0  0  0  0  0  0
  157.3467   40.1626  141.5580 C   0  0  1  0  0  0  0  0  0  0  0  0
  156.2459   40.2272  140.5632 C   0  0  0  0  0  0  0  0  0  0  0  0
  155.1778   39.5938  140.7049 O   0  0  0  0  0  0  0  0  0  0  0  0
  157.5692   39.5193  142.7151 N   0  0  0  0  0  0  0  0  0  0  0  0
  158.8103   39.8818  143.1436 C   0  0  0  0  0  0  0  0  0  0  0  0
  159.4049   40.7400  142.2912 N   0  0  2  0  0  0  0  0  0  0  0  0
  1  3  1  6  0  0  0
  1  4  2  0  0  0  0
  1  6  1  0  0  0  0
  1 22  1  0  0  0  0
  2 28  1  0  0  0  0
  2 35  1  1  0  0  0
  2 38  2  0  0  0  0
  2 10  1  0  0  0  0
  5  6  1  0  0  0  0
  7  5  1  6  0  0  0
  7  8  1  0  0  0  0
  7  9  1  0  0  0  0
  9 10  1  1  0  0  0
  9 11  1  0  0  0  0
 11 12  1  1  0  0  0
 11 13  1  0  0  0  0
 13  8  1  6  0  0  0
 13 33  1  0  0  0  0
 14 46  1  0  0  0  0
 14 17  1  0  0  0  0
 14 25  1  1  0  0  0
 15 16  1  0  0  0  0
 15 29  1  0  0  0  0
 16 18  1  6  0  0  0
 16 21  1  0  0  0  0
 17 19  1  1  0  0  0
 17 20  1  0  0  0  0
 20 22  1  6  0  0  0
 20 24  1  0  0  0  0
 23 21  1  6  0  0  0
 23 26  1  0  0  0  0
 23 33  1  0  0  0  0
 24 25  1  6  0  0  0
 24 27  1  0  0  0  0
 26 29  1  6  0  0  0
 26 31  1  0  0  0  0
 27 28  1  0  0  0  0
 29 30  2  0  0  0  0
 31 32  1  0  0  0  0
 33 32  1  1  0  0  0
 34 36  1  0  0  0  0
 34 42  1  0  0  0  0
 36 37  1  6  0  0  0
 36 39  1  0  0  0  0
 40 39  1  6  0  0  0
 40 41  1  0  0  0  0
 40 46  1  0  0  0  0
 41 42  1  6  0  0  0
 41 44  1  0  0  0  0
 42 43  2  0  0  0  0
 44 45  1  0  0  0  0
 46 45  1  1  0  0  0
M  CHG  2   3  -1  35  -1
M  END
>  <CHROM.1>
-165.81645786,51.73900401,157.39277556,43.48508710,144.00940076,-0.36792820
-0.21190648,1.03594871

>  <Name>
ligand

>  <RI>
0

>  <Rbt.Current_Directory>
/home/itssahil/PROJECTS/Mol_Feturizer/Test_systems_manuscript/rnas/4yb0

>  <Rbt.Executable>
rbdock ($Id: //depot/dev/client3/rdock/2013.1/src/exe/rbdock.cxx#4 $)

>  <Rbt.Library>
libRbt.so (2013.1, Build901 2013/11/27)

>  <Rbt.Parameter_File>
/export/apps/rDock/src/rDock_2013.1_src/data/scripts/dock_solv.prm

>  <Rbt.Receptor>
prm/pocket_docking_2.prm

>  <SCORE>
-46.443

>  <SCORE.INTER>
-46.4133

>  <SCORE.INTER.CONST>
1

>  <SCORE.INTER.POLAR>
0

>  <SCORE.INTER.ROT>
2

>  <SCORE.INTER.SOLV>
39.3912

>  <SCORE.INTER.VDW>
-49.0059

>  <SCORE.INTER.norm>
-1.00898

>  <SCORE.INTRA>
-0.0296903

>  <SCORE.INTRA.DIHEDRAL>
0.00516838

>  <SCORE.INTRA.DIHEDRAL.0>
2.42188

>  <SCORE.INTRA.POLAR>
0

>  <SCORE.INTRA.POLAR.0>
0

>  <SCORE.INTRA.REPUL>
0

>  <SCORE.INTRA.REPUL.0>
0

>  <SCORE.INTRA.SOLV>
-0.000703642

>  <SCORE.INTRA.SOLV.lig_0>
-127.307

>  <SCORE.INTRA.VDW>
-0.0319226

>  <SCORE.INTRA.VDW.0>
-2.19936

>  <SCORE.INTRA.norm>
-0.00064544

>  <SCORE.RESTR>
0

>  <SCORE.RESTR.CAVITY>
0

>  <SCORE.RESTR.norm>
0

>  <SCORE.SYSTEM>
0

>  <SCORE.SYSTEM.CONST>
0

>  <SCORE.SYSTEM.DIHEDRAL>
0

>  <SCORE.SYSTEM.SOLV>
0

>  <SCORE.SYSTEM.norm>
0

>  <SCORE.heavy>
46

>  <SCORE.norm>
-1.00963

>  <RMSD>
0.278

$$$$
ligand
 OpenBabel02271912143D
libRbt.so/2013.1/901 2013/11/27
 46 52  0  0  0  0  0  0  0  0999 V2000
  160.2793   45.9153  143.6437 P   0  0  1  0  0  0  0  0  0  0  0  0
  158.3856   41.9527  147.2689 P   0  0  1  0  0  0  0  0  0  0  0  0
  159.7649   45.7969  142.2321 O   0  5  0  0  0  0  0  0  0  0  0  0
  161.0578   47.1682  143.9812 O   0  0  0  0  0  0  0  0  0  0  0  0
  158.8910   46.5034  145.8176 C   0  0  0  0  0  0  0  0  0  0  0  0
  159.0432   45.7063  144.6504 O   0  0  0  0  0  0  0  0  0  0  0  0
  157.8989   45.8516  146.7666 C   0  0  1  0  0  0  0  0  0  0  0  0
  156.6668   46.5509  146.6627 O   0  0  0  0  0  0  0  0  0  0  0  0
  157.5828   44.3878  146.4868 C   0  0  1  0  0  0  0  0  0  0  0  0
  158.2639   43.5645  147.4221 O   0  0  0  0  0  0  0  0  0  0  0  0
  156.0998   44.2880  146.7660 C   0  0  1  0  0  0  0  0  0  0  0  0
  155.8916   43.9561  148.1402 O   0  0  0  0  0  0  0  0  0  0  0  0
  155.5559   45.6727  146.5654 C   0  0  2  0  0  0  0  0  0  0  0  0
  160.8348   41.2919  142.4777 C   0  0  1  0  0  0  0  0  0  0  0  0
  151.5534   44.4478  143.3990 N   0  0  0  0  0  0  0  0  0  0  0  0
  151.7603   44.1406  144.6935 C   0  0  1  0  0  0  0  0  0  0  0  0
  160.7561   42.7991  142.3529 C   0  0  2  0  0  0  0  0  0  0  0  0
  150.8358   43.4045  145.3498 N   0  0  0  0  0  0  0  0  0  0  0  0
  161.9949   43.2489  141.7972 O   0  0  0  0  0  0  0  0  0  0  0  0
  160.5826   43.3119  143.7703 C   0  0  2  0  0  0  0  0  0  0  0  0
  152.8550   44.5268  145.3873 N   0  0  0  0  0  0  0  0  0  0  0  0
  161.1681   44.6025  143.9365 O   0  0  0  0  0  0  0  0  0  0  0  0
  153.8247   45.2612  144.8012 C   0  0  2  0  0  0  0  0  0  0  0  0
  161.2969   42.2417  144.5926 C   0  0  2  0  0  0  0  0  0  0  0  0
  161.2861   41.0445  143.8120 O   0  0  0  0  0  0  0  0  0  0  0  0
  153.6661   45.6311  143.3913 C   0  0  2  0  0  0  0  0  0  0  0  0
  160.6785   41.9572  145.9649 C   0  0  0  0  0  0  0  0  0  0  0  0
  159.2611   41.7984  145.9202 O   0  0  0  0  0  0  0  0  0  0  0  0
  152.4405   45.1725  142.6959 C   0  0  0  0  0  0  0  0  0  0  0  0
  152.2514   45.4624  141.4900 O   0  0  0  0  0  0  0  0  0  0  0  0
  154.7600   46.3430  143.0667 N   0  0  0  0  0  0  0  0  0  0  0  0
  155.5480   46.4257  144.1655 C   0  0  0  0  0  0  0  0  0  0  0  0
  154.9859   45.7789  145.2014 N   0  0  1  0  0  0  0  0  0  0  0  0
  156.4893   40.9911  139.5344 N   0  0  0  0  0  0  0  0  0  0  0  0
  159.2036   41.4788  148.4556 O   0  5  0  0  0  0  0  0  0  0  0  0
  157.6231   41.6785  139.3272 C   0  0  2  0  0  0  0  0  0  0  0  0
  157.7036   42.4143  138.2085 N   0  0  0  0  0  0  0  0  0  0  0  0
  157.0187   41.3769  146.9892 O   0  0  0  0  0  0  0  0  0  0  0  0
  158.6753   41.6620  140.1785 N   0  0  0  0  0  0  0  0  0  0  0  0
  158.6326   40.9293  141.3111 C   0  0  1  0  0  0  0  0  0  0  0  0
  157.4112   40.1505  141.5975 C   0  0  1  0  0  0  0  0  0  0  0  0
  156.3077   40.2174  140.6058 C   0  0  0  0  0  0  0  0  0  0  0  0
  155.2318   39.6001  140.7591 O   0  0  0  0  0  0  0  0  0  0  0  0
  157.6293   39.5186  142.7617 N   0  0  0  0  0  0  0  0  0  0  0  0
  158.8766   39.8698  143.1813 C   0  0  0  0  0  0  0  0  0  0  0  0
  159.4795   40.7094  142.3164 N   0  0  2  0  0  0  0  0  0  0  0  0
  1  3  1  6  0  0  0
  1  4  2  0  0  0  0
  1  6  1  0  0  0  0
  1 22  1  0  0  0  0
  2 28  1  0  0  0  0
  2 35  1  1  0  0  0
  2 38  2  0  0  0  0
  2 10  1  0  0  0  0
  5  6  1  0  0  0  0
  7  5  1  6  0  0  0
  7  8  1  0  0  0  0
  7  9  1  0  0  0  0
  9 10  1  1  0  0  0
  9 11  1  0  0  0  0
 11 12  1  1  0  0  0
 11 13  1  0  0  0  0
 13  8  1  6  0  0  0
 13 33  1  0  0  0  0
 14 46  1  0  0  0  0
 14 17  1  0  0  0  0
 14 25  1  1  0  0  0
 15 16  1  0  0  0  0
 15 29  1  0  0  0  0
 16 18  1  6  0  0  0
 16 21  1  0  0  0  0
 17 19  1  1  0  0  0
 17 20  1  0  0  0  0
 20 22  1  6  0  0  0
 20 24  1  0  0  0  0
 23 21  1  6  0  0  0
 23 26  1  0  0  0  0
 23 33  1  0  0  0  0
 24 25  1  6  0  0  0
 24 27  1  0  0  0  0
 26 29  1  6  0  0  0
 26 31  1  0  0  0  0
 27 28  1  0  0  0  0
 29 30  2  0  0  0  0
 31 32  1  0  0  0  0
 33 32  1  1  0  0  0
 34 36  1  0  0  0  0
 34 42  1  0  0  0  0
 36 37  1  6  0  0  0
 36 39  1  0  0  0  0
 40 39  1  6  0  0  0
 40 41  1  0  0  0  0
 40 46  1  0  0  0  0
 41 42  1  6  0  0  0
 41 44  1  0  0  0  0
 42 43  2  0  0  0  0
 44 45  1  0  0  0  0
 46 45  1  1  0  0  0
M  CHG  2   3  -1  35  -1
M  END
>  <CHROM.1>
-169.32395318,52.58276233,157.52603014,43.45554716,144.04886447,-0.38321591
-0.20606850,1.02869225

>  <Name>
ligand

>  <RI>
0

>  <Rbt.Current_Directory>
/home/itssahil/PROJECTS/Mol_Feturizer/Test_systems_manuscript/rnas/4yb0

>  <Rbt.Executable>
rbdock ($Id: //depot/dev/client3/rdock/2013.1/src/exe/rbdock.cxx#4 $)

>  <Rbt.Library>
libRbt.so (2013.1, Build901 2013/11/27)

>  <Rbt.Parameter_File>
/export/apps/rDock/src/rDock_2013.1_src/data/scripts/dock_solv.prm

>  <Rbt.Receptor>
prm/pocket_docking_2.prm

>  <SCORE>
-46.5703

>  <SCORE.INTER>
-46.5749

>  <SCORE.INTER.CONST>
1

>  <SCORE.INTER.POLAR>
0

>  <SCORE.INTER.ROT>
2

>  <SCORE.INTER.SOLV>
38.0086

>  <SCORE.INTER.VDW>
-48.6528

>  <SCORE.INTER.norm>
-1.0125

>  <SCORE.INTRA>
0.00461805

>  <SCORE.INTRA.DIHEDRAL>
0.000547938

>  <SCORE.INTRA.DIHEDRAL.0>
2.42188

>  <SCORE.INTRA.POLAR>
0

>  <SCORE.INTRA.POLAR.0>
0

>  <SCORE.INTRA.REPUL>
0

>  <SCORE.INTRA.REPUL.0>
0

>  <SCORE.INTRA.SOLV>
0.000206324

>  <SCORE.INTRA.SOLV.lig_0>
-127.307

>  <SCORE.INTRA.VDW>
0.00424091

>  <SCORE.INTRA.VDW.0>
-2.19936

>  <SCORE.INTRA.norm>
0.000100392

>  <SCORE.RESTR>
0

>  <SCORE.RESTR.CAVITY>
0

>  <SCORE.RESTR.norm>
0

>  <SCORE.SYSTEM>
0

>  <SCORE.SYSTEM.CONST>
0

>  <SCORE.SYSTEM.DIHEDRAL>
0

>  <SCORE.SYSTEM.SOLV>
0

>  <SCORE.SYSTEM.norm>
0

>  <SCORE.heavy>
46

>  <SCORE.norm>
-1.0124

>  <RMSD>
0.280

$$$$
ligand
 OpenBabel02271912143D
libRbt.so/2013.1/901 2013/11/27
 46 52  0  0  0  0  0  0  0  0999 V2000
  160.2368   45.9222  143.5692 P   0  0  1  0  0  0  0  0  0  0  0  0
  158.3671   41.9660  147.2139 P   0  0  1  0  0  0  0  0  0  0  0  0
  159.7072   45.8058  142.1631 O   0  5  0  0  0  0  0  0  0  0  0  0
  161.0234   47.1722  143.8986 O   0  0  0  0  0  0  0  0  0  0  0  0
  158.8737   46.5150  145.7578 C   0  0  0  0  0  0  0  0  0  0  0  0
  159.0107   45.7175  144.5889 O   0  0  0  0  0  0  0  0  0  0  0  0
  157.8893   45.8666  146.7171 C   0  0  1  0  0  0  0  0  0  0  0  0
  156.6587   46.5704  146.6263 O   0  0  0  0  0  0  0  0  0  0  0  0
  157.5649   44.4041  146.4405 C   0  0  1  0  0  0  0  0  0  0  0  0
  158.2529   43.5782  147.3685 O   0  0  0  0  0  0  0  0  0  0  0  0
  156.0847   44.3096  146.7353 C   0  0  1  0  0  0  0  0  0  0  0  0
  155.8897   43.9783  148.1116 O   0  0  0  0  0  0  0  0  0  0  0  0
  155.5437   45.6963  146.5406 C   0  0  2  0  0  0  0  0  0  0  0  0
  160.7633   41.2969  142.3970 C   0  0  1  0  0  0  0  0  0  0  0  0
  151.5357   44.4286  143.3980 N   0  0  0  0  0  0  0  0  0  0  0  0
  151.7596   44.1133  144.6878 C   0  0  1  0  0  0  0  0  0  0  0  0
  160.6887   42.8044  142.2732 C   0  0  2  0  0  0  0  0  0  0  0  0
  150.8543   43.3547  145.3452 N   0  0  0  0  0  0  0  0  0  0  0  0
  161.9232   43.2498  141.7045 O   0  0  0  0  0  0  0  0  0  0  0  0
  160.5320   43.3177  143.6924 C   0  0  2  0  0  0  0  0  0  0  0  0
  152.8533   44.5128  145.3755 N   0  0  0  0  0  0  0  0  0  0  0  0
  161.1239   44.6061  143.8525 O   0  0  0  0  0  0  0  0  0  0  0  0
  153.8044   45.2699  144.7879 C   0  0  2  0  0  0  0  0  0  0  0  0
  161.2511   42.2447  144.5070 C   0  0  2  0  0  0  0  0  0  0  0  0
  161.2277   41.0477  143.7264 O   0  0  0  0  0  0  0  0  0  0  0  0
  153.6266   45.6498  143.3829 C   0  0  2  0  0  0  0  0  0  0  0  0
  160.6462   41.9623  145.8857 C   0  0  0  0  0  0  0  0  0  0  0  0
  159.2277   41.8087  145.8559 O   0  0  0  0  0  0  0  0  0  0  0  0
  152.4033   45.1756  142.6940 C   0  0  0  0  0  0  0  0  0  0  0  0
  152.1983   45.4732  141.4926 O   0  0  0  0  0  0  0  0  0  0  0  0
  154.7047   46.3842  143.0554 N   0  0  0  0  0  0  0  0  0  0  0  0
  155.5009   46.4711  144.1480 C   0  0  0  0  0  0  0  0  0  0  0  0
  154.9597   45.8047  145.1826 N   0  0  1  0  0  0  0  0  0  0  0  0
  156.4057   40.9721  139.4741 N   0  0  0  0  0  0  0  0  0  0  0  0
  159.1958   41.4889  148.3918 O   0  5  0  0  0  0  0  0  0  0  0  0
  157.5425   41.6497  139.2518 C   0  0  2  0  0  0  0  0  0  0  0  0
  157.6231   42.3667  138.1209 N   0  0  0  0  0  0  0  0  0  0  0  0
  156.9952   41.3952  146.9485 O   0  0  0  0  0  0  0  0  0  0  0  0
  158.5976   41.6414  140.0996 N   0  0  0  0  0  0  0  0  0  0  0  0
  158.5550   40.9275  141.2441 C   0  0  1  0  0  0  0  0  0  0  0  0
  157.3303   40.1602  141.5475 C   0  0  1  0  0  0  0  0  0  0  0  0
  156.2237   40.2170  140.5586 C   0  0  0  0  0  0  0  0  0  0  0  0
  155.1450   39.6082  140.7257 O   0  0  0  0  0  0  0  0  0  0  0  0
  157.5492   39.5462  142.7211 N   0  0  0  0  0  0  0  0  0  0  0  0
  158.7999   39.8973  143.1306 C   0  0  0  0  0  0  0  0  0  0  0  0
  159.4043   40.7193  142.2499 N   0  0  2  0  0  0  0  0  0  0  0  0
  1  3  1  6  0  0  0
  1  4  2  0  0  0  0
  1  6  1  0  0  0  0
  1 22  1  0  0  0  0
  2 28  1  0  0  0  0
  2 35  1  1  0  0  0
  2 38  2  0  0  0  0
  2 10  1  0  0  0  0
  5  6  1  0  0  0  0
  7  5  1  6  0  0  0
  7  8  1  0  0  0  0
  7  9  1  0  0  0  0
  9 10  1  1  0  0  0
  9 11  1  0  0  0  0
 11 12  1  1  0  0  0
 11 13  1  0  0  0  0
 13  8  1  6  0  0  0
 13 33  1  0  0  0  0
 14 46  1  0  0  0  0
 14 17  1  0  0  0  0
 14 25  1  1  0  0  0
 15 16  1  0  0  0  0
 15 29  1  0  0  0  0
 16 18  1  6  0  0  0
 16 21  1  0  0  0  0
 17 19  1  1  0  0  0
 17 20  1  0  0  0  0
 20 22  1  6  0  0  0
 20 24  1  0  0  0  0
 23 21  1  6  0  0  0
 23 26  1  0  0  0  0
 23 33  1  0  0  0  0
 24 25  1  6  0  0  0
 24 27  1  0  0  0  0
 26 29  1  6  0  0  0
 26 31  1  0  0  0  0
 27 28  1  0  0  0  0
 29 30  2  0  0  0  0
 31 32  1  0  0  0  0
 33 32  1  1  0  0  0
 34 36  1  0  0  0  0
 34 42  1  0  0  0  0
 36 37  1  6  0  0  0
 36 39  1  0  0  0  0
 40 39  1  6  0  0  0
 40 41  1  0  0  0  0
 40 46  1  0  0  0  0
 41 42  1  6  0  0  0
 41 44  1  0  0  0  0
 42 43  2  0  0  0  0
 44 45  1  0  0  0  0
 46 45  1  1  0  0  0
M  CHG  2   3  -1  35  -1
M  END
>  <CHROM.1>
-170.67114095,53.61391759,157.48473357,43.46168295,143.99840028,-0.40350928
-0.19910637,1.02323081

>  <Name>
ligand

>  <RI>
0

>  <Rbt.Current_Directory>
/home/itssahil/PROJECTS/Mol_Feturizer/Test_systems_manuscript/rnas/4yb0

>  <Rbt.Executable>
rbdock ($Id: //depot/dev/client3/rdock/2013.1/src/exe/rbdock.cxx#4 $)

>  <Rbt.Library>
libRbt.so (2013.1, Build901 2013/11/27)

>  <Rbt.Parameter_File>
/export/apps/rDock/src/rDock_2013.1_src/data/scripts/dock_solv.prm

>  <Rbt.Receptor>
prm/pocket_docking_3.prm

>  <SCORE>
-46.6076

>  <SCORE.INTER>
-46.6108

>  <SCORE.INTER.CONST>
1

>  <SCORE.INTER.POLAR>
0

>  <SCORE.INTER.ROT>
2

>  <SCORE.INTER.SOLV>
38.6937

>  <SCORE.INTER.VDW>
-48.9051

>  <SCORE.INTER.norm>
-1.01328

>  <SCORE.INTRA>
0.00318835

>  <SCORE.INTRA.DIHEDRAL>
-0.00239785

>  <SCORE.INTRA.DIHEDRAL.0>
2.42188

>  <SCORE.INTRA.POLAR>
0

>  <SCORE.INTRA.POLAR.0>
0

>  <SCORE.INTRA.REPUL>
0

>  <SCORE.INTRA.REPUL.0>
0

>  <SCORE.INTRA.SOLV>
0.000223975

>  <SCORE.INTRA.SOLV.lig_0>
-127.307

>  <SCORE.INTRA.VDW>
0.00427529

>  <SCORE.INTRA.VDW.0>
-2.19936

>  <SCORE.INTRA.norm>
6.9312e-05

>  <SCORE.RESTR>
0

>  <SCORE.RESTR.CAVITY>
0

>  <SCORE.RESTR.norm>
0

>  <SCORE.SYSTEM>
0

>  <SCORE.SYSTEM.CONST>
0

>  <SCORE.SYSTEM.DIHEDRAL>
0

>  <SCORE.SYSTEM.SOLV>
0

>  <SCORE.SYSTEM.norm>
0

>  <SCORE.heavy>
46

>  <SCORE.norm>
-1.01321

>  <RMSD>
0.281

$$$$
ligand
 OpenBabel02271912143D
libRbt.so/2013.1/901 2013/11/27
 46 52  0  0  0  0  0  0  0  0999 V2000
  160.1365   45.9215  143.5983 P   0  0  1  0  0  0  0  0  0  0  0  0
  158.2647   41.9658  147.2424 P   0  0  1  0  0  0  0  0  0  0  0  0
  159.6240   45.7927  142.1870 O   0  5  0  0  0  0  0  0  0  0  0  0
  160.9069   47.1809  143.9300 O   0  0  0  0  0  0  0  0  0  0  0  0
  158.7429   46.5120  145.7683 C   0  0  0  0  0  0  0  0  0  0  0  0
  158.9010   45.7099  144.6052 O   0  0  0  0  0  0  0  0  0  0  0  0
  157.7541   45.8589  146.7198 C   0  0  1  0  0  0  0  0  0  0  0  0
  156.5178   46.5499  146.6114 O   0  0  0  0  0  0  0  0  0  0  0  0
  157.4474   44.3918  146.4473 C   0  0  1  0  0  0  0  0  0  0  0  0
  158.1329   43.5775  147.3873 O   0  0  0  0  0  0  0  0  0  0  0  0
  155.9649   44.2842  146.7259 C   0  0  1  0  0  0  0  0  0  0  0  0
  155.7576   43.9580  148.1016 O   0  0  0  0  0  0  0  0  0  0  0  0
  155.4125   45.6644  146.5177 C   0  0  2  0  0  0  0  0  0  0  0  0
  160.7218   41.2958  142.4565 C   0  0  1  0  0  0  0  0  0  0  0  0
  151.3450   44.5427  143.3961 N   0  0  0  0  0  0  0  0  0  0  0  0
  151.5422   44.2615  144.6981 C   0  0  1  0  0  0  0  0  0  0  0  0
  160.6338   42.8018  142.3239 C   0  0  2  0  0  0  0  0  0  0  0  0
  150.5868   43.5877  145.3765 N   0  0  0  0  0  0  0  0  0  0  0  0
  161.8702   43.2565  141.7668 O   0  0  0  0  0  0  0  0  0  0  0  0
  160.4559   43.3208  143.7385 C   0  0  2  0  0  0  0  0  0  0  0  0
  152.6564   44.6147  145.3782 N   0  0  0  0  0  0  0  0  0  0  0  0
  161.0333   44.6158  143.8985 O   0  0  0  0  0  0  0  0  0  0  0  0
  153.6572   45.2866  144.7699 C   0  0  2  0  0  0  0  0  0  0  0  0
  161.1763   42.2592  144.5668 C   0  0  2  0  0  0  0  0  0  0  0  0
  161.1736   41.0580  143.7924 O   0  0  0  0  0  0  0  0  0  0  0  0
  153.5107   45.6250  143.3508 C   0  0  2  0  0  0  0  0  0  0  0  0
  160.5586   41.9779  145.9401 C   0  0  0  0  0  0  0  0  0  0  0  0
  159.1422   41.8100  145.8952 O   0  0  0  0  0  0  0  0  0  0  0  0
  152.2624   45.2057  142.6712 C   0  0  0  0  0  0  0  0  0  0  0  0
  152.0825   45.4712  141.4583 O   0  0  0  0  0  0  0  0  0  0  0  0
  154.6355   46.2757  143.0041 N   0  0  0  0  0  0  0  0  0  0  0  0
  155.4307   46.3514  144.0982 C   0  0  0  0  0  0  0  0  0  0  0  0
  154.8429   45.7600  145.1528 N   0  0  1  0  0  0  0  0  0  0  0  0
  156.3377   41.0357  139.5670 N   0  0  0  0  0  0  0  0  0  0  0  0
  159.0848   41.5030  148.4321 O   0  5  0  0  0  0  0  0  0  0  0  0
  157.4614   41.7408  139.3643 C   0  0  2  0  0  0  0  0  0  0  0  0
  157.5184   42.5099  138.2668 N   0  0  0  0  0  0  0  0  0  0  0  0
  156.9017   41.3800  146.9646 O   0  0  0  0  0  0  0  0  0  0  0  0
  158.5259   41.7104  140.1999 N   0  0  0  0  0  0  0  0  0  0  0  0
  158.5069   40.9444  141.3108 C   0  0  1  0  0  0  0  0  0  0  0  0
  157.2976   40.1446  141.5913 C   0  0  1  0  0  0  0  0  0  0  0  0
  156.1794   40.2290  140.6176 C   0  0  0  0  0  0  0  0  0  0  0  0
  155.1121   39.5961  140.7677 O   0  0  0  0  0  0  0  0  0  0  0  0
  157.5389   39.4812  142.7332 N   0  0  0  0  0  0  0  0  0  0  0  0
  158.7885   39.8330  143.1454 C   0  0  0  0  0  0  0  0  0  0  0  0
  159.3703   40.7040  142.2972 N   0  0  2  0  0  0  0  0  0  0  0  0
  1  3  1  6  0  0  0
  1  4  2  0  0  0  0
  1  6  1  0  0  0  0
  1 22  1  0  0  0  0
  2 28  1  0  0  0  0
  2 35  1  1  0  0  0
  2 38  2  0  0  0  0
  2 10  1  0  0  0  0
  5  6  1  0  0  0  0
  7  5  1  6  0  0  0
  7  8  1  0  0  0  0
  7  9  1  0  0  0  0
  9 10  1  1  0  0  0
  9 11  1  0  0  0  0
 11 12  1  1  0  0  0
 11 13  1  0  0  0  0
 13  8  1  6  0  0  0
 13 33  1  0  0  0  0
 14 46  1  0  0  0  0
 14 17  1  0  0  0  0
 14 25  1  1  0  0  0
 15 16  1  0  0  0  0
 15 29  1  0  0  0  0
 16 18  1  6  0  0  0
 16 21  1  0  0  0  0
 17 19  1  1  0  0  0
 17 20  1  0  0  0  0
 20 22  1  6  0  0  0
 20 24  1  0  0  0  0
 23 21  1  6  0  0  0
 23 26  1  0  0  0  0
 23 33  1  0  0  0  0
 24 25  1  6  0  0  0
 24 27  1  0  0  0  0
 26 29  1  6  0  0  0
 26 31  1  0  0  0  0
 27 28  1  0  0  0  0
 29 30  2  0  0  0  0
 31 32  1  0  0  0  0
 33 32  1  1  0  0  0
 34 36  1  0  0  0  0
 34 42  1  0  0  0  0
 36 37  1  6  0  0  0
 36 39  1  0  0  0  0
 40 39  1  6  0  0  0
 40 41  1  0  0  0  0
 40 46  1  0  0  0  0
 41 42  1  6  0  0  0
 41 44  1  0  0  0  0
 42 43  2  0  0  0  0
 44 45  1  0  0  0  0
 46 45  1  1  0  0  0
M  CHG  2   3  -1  35  -1
M  END
>  <CHROM.1>
-166.01900150,50.41262826,157.38555457,43.47147508,144.02466384,-0.36448042
-0.21258767,1.03157331

>  <Name>
ligand

>  <RI>
0

>  <Rbt.Current_Directory>
/home/itssahil/PROJECTS/Mol_Feturizer/Test_systems_manuscript/rnas/4yb0

>  <Rbt.Executable>
rbdock ($Id: //depot/dev/client3/rdock/2013.1/src/exe/rbdock.cxx#4 $)

>  <Rbt.Library>
libRbt.so (2013.1, Build901 2013/11/27)

>  <Rbt.Parameter_File>
/export/apps/rDock/src/rDock_2013.1_src/data/scripts/dock_solv.prm

>  <Rbt.Receptor>
prm/pocket_docking_2.prm

>  <SCORE>
-46.4613

>  <SCORE.INTER>
-46.4494

>  <SCORE.INTER.CONST>
1

>  <SCORE.INTER.POLAR>
0

>  <SCORE.INTER.ROT>
2

>  <SCORE.INTER.SOLV>
39.6465

>  <SCORE.INTER.VDW>
-49.1151

>  <SCORE.INTER.norm>
-1.00977

>  <SCORE.INTRA>
-0.0119595

>  <SCORE.INTRA.DIHEDRAL>
0.00687214

>  <SCORE.INTRA.DIHEDRAL.0>
2.42188

>  <SCORE.INTRA.POLAR>
0

>  <SCORE.INTRA.POLAR.0>
0

>  <SCORE.INTRA.REPUL>
0

>  <SCORE.INTRA.REPUL.0>
0

>  <SCORE.INTRA.SOLV>
5.77896e-05

>  <SCORE.INTRA.SOLV.lig_0>
-127.307

>  <SCORE.INTRA.VDW>
-0.0154245

>  <SCORE.INTRA.VDW.0>
-2.19936

>  <SCORE.INTRA.norm>
-0.00025999

>  <SCORE.RESTR>
0

>  <SCORE.RESTR.CAVITY>
0

>  <SCORE.RESTR.norm>
0

>  <SCORE.SYSTEM>
0

>  <SCORE.SYSTEM.CONST>
0

>  <SCORE.SYSTEM.DIHEDRAL>
0

>  <SCORE.SYSTEM.SOLV>
0

>  <SCORE.SYSTEM.norm>
0

>  <SCORE.heavy>
46

>  <SCORE.norm>
-1.01003

>  <RMSD>
0.282

$$$$
ligand
 OpenBabel02271912143D
libRbt.so/2013.1/901 2013/11/27
 46 52  0  0  0  0  0  0  0  0999 V2000
  160.2419   45.9014  143.5725 P   0  0  1  0  0  0  0  0  0  0  0  0
  158.3901   41.9526  147.2342 P   0  0  1  0  0  0  0  0  0  0  0  0
  159.7071   45.7810  142.1688 O   0  5  0  0  0  0  0  0  0  0  0  0
  161.0285   47.1530  143.8958 O   0  0  0  0  0  0  0  0  0  0  0  0
  158.8865   46.4984  145.7648 C   0  0  0  0  0  0  0  0  0  0  0  0
  159.0199   45.6981  144.5974 O   0  0  0  0  0  0  0  0  0  0  0  0
  157.9065   45.8515  146.7295 C   0  0  1  0  0  0  0  0  0  0  0  0
  156.6748   46.5538  146.6416 O   0  0  0  0  0  0  0  0  0  0  0  0
  157.5825   44.3879  146.4578 C   0  0  1  0  0  0  0  0  0  0  0  0
  158.2749   43.5650  147.3852 O   0  0  0  0  0  0  0  0  0  0  0  0
  156.1035   44.2927  146.7585 C   0  0  1  0  0  0  0  0  0  0  0  0
  155.9141   43.9647  148.1364 O   0  0  0  0  0  0  0  0  0  0  0  0
  155.5604   45.6784  146.5623 C   0  0  2  0  0  0  0  0  0  0  0  0
  160.7685   41.2738  142.4100 C   0  0  1  0  0  0  0  0  0  0  0  0
  151.5209   44.4358  143.4502 N   0  0  0  0  0  0  0  0  0  0  0  0
  151.7472   44.1286  144.7415 C   0  0  1  0  0  0  0  0  0  0  0  0
  160.6919   42.7809  142.2826 C   0  0  2  0  0  0  0  0  0  0  0  0
  150.8355   43.3872  145.4097 N   0  0  0  0  0  0  0  0  0  0  0  0
  161.9238   43.2260  141.7081 O   0  0  0  0  0  0  0  0  0  0  0  0
  160.5401   43.2975  143.7011 C   0  0  2  0  0  0  0  0  0  0  0  0
  152.8493   44.5198  145.4204 N   0  0  0  0  0  0  0  0  0  0  0  0
  161.1314   44.5870  143.8557 O   0  0  0  0  0  0  0  0  0  0  0  0
  153.8071   45.2595  144.8218 C   0  0  2  0  0  0  0  0  0  0  0  0
  161.2634   42.2274  144.5157 C   0  0  2  0  0  0  0  0  0  0  0  0
  161.2383   41.0283  143.7382 O   0  0  0  0  0  0  0  0  0  0  0  0
  153.6273   45.6298  143.4145 C   0  0  2  0  0  0  0  0  0  0  0  0
  160.6640   41.9478  145.8974 C   0  0  0  0  0  0  0  0  0  0  0  0
  159.2457   41.7927  145.8734 O   0  0  0  0  0  0  0  0  0  0  0  0
  152.3946   45.1656  142.7356 C   0  0  0  0  0  0  0  0  0  0  0  0
  152.1875   45.4556  141.5327 O   0  0  0  0  0  0  0  0  0  0  0  0
  154.7130   46.3475  143.0756 N   0  0  0  0  0  0  0  0  0  0  0  0
  155.5157   46.4334  144.1635 C   0  0  0  0  0  0  0  0  0  0  0  0
  154.9711   45.7828  145.2064 N   0  0  1  0  0  0  0  0  0  0  0  0
  156.4057   40.9260  139.4974 N   0  0  0  0  0  0  0  0  0  0  0  0
  159.2238   41.4793  148.4101 O   0  5  0  0  0  0  0  0  0  0  0  0
  157.5418   41.6025  139.2682 C   0  0  2  0  0  0  0  0  0  0  0  0
  157.6199   42.3114  138.1322 N   0  0  0  0  0  0  0  0  0  0  0  0
  157.0178   41.3797  146.9755 O   0  0  0  0  0  0  0  0  0  0  0  0
  158.5985   41.6007  140.1142 N   0  0  0  0  0  0  0  0  0  0  0  0
  158.5583   40.8950  141.2638 C   0  0  1  0  0  0  0  0  0  0  0  0
  157.3346   40.1293  141.5749 C   0  0  1  0  0  0  0  0  0  0  0  0
  156.2261   40.1785  140.5877 C   0  0  0  0  0  0  0  0  0  0  0  0
  155.1480   39.5704  140.7611 O   0  0  0  0  0  0  0  0  0  0  0  0
  157.5559   39.5238  142.7525 N   0  0  0  0  0  0  0  0  0  0  0  0
  158.8072   39.8785  143.1571 C   0  0  0  0  0  0  0  0  0  0  0  0
  159.4095   40.6945  142.2695 N   0  0  2  0  0  0  0  0  0  0  0  0
  1  3  1  6  0  0  0
  1  4  2  0  0  0  0
  1  6  1  0  0  0  0
  1 22  1  0  0  0  0
  2 28  1  0  0  0  0
  2 35  1  1  0  0  0
  2 38  2  0  0  0  0
  2 10  1  0  0  0  0
  5  6  1  0  0  0  0
  7  5  1  6  0  0  0
  7  8  1  0  0  0  0
  7  9  1  0  0  0  0
  9 10  1  1  0  0  0
  9 11  1  0  0  0  0
 11 12  1  1  0  0  0
 11 13  1  0  0  0  0
 13  8  1  6  0  0  0
 13 33  1  0  0  0  0
 14 46  1  0  0  0  0
 14 17  1  0  0  0  0
 14 25  1  1  0  0  0
 15 16  1  0  0  0  0
 15 29  1  0  0  0  0
 16 18  1  6  0  0  0
 16 21  1  0  0  0  0
 17 19  1  1  0  0  0
 17 20  1  0  0  0  0
 20 22  1  6  0  0  0
 20 24  1  0  0  0  0
 23 21  1  6  0  0  0
 23 26  1  0  0  0  0
 23 33  1  0  0  0  0
 24 25  1  6  0  0  0
 24 27  1  0  0  0  0
 26 29  1  6  0  0  0
 26 31  1  0  0  0  0
 27 28  1  0  0  0  0
 29 30  2  0  0  0  0
 31 32  1  0  0  0  0
 33 32  1  1  0  0  0
 34 36  1  0  0  0  0
 34 42  1  0  0  0  0
 36 37  1  6  0  0  0
 36 39  1  0  0  0  0
 40 39  1  6  0  0  0
 40 41  1  0  0  0  0
 40 46  1  0  0  0  0
 41 42  1  6  0  0  0
 41 44  1  0  0  0  0
 42 43  2  0  0  0  0
 44 45  1  0  0  0  0
 46 45  1  1  0  0  0
M  CHG  2   3  -1  35  -1
M  END
>  <CHROM.1>
-169.80539147,53.90328440,157.49231010,43.44209362,144.01890595,-0.41127413
-0.19837255,1.02051292

>  <Name>
ligand

>  <RI>
0

>  <Rbt.Current_Directory>
/home/itssahil/PROJECTS/Mol_Feturizer/Test_systems_manuscript/rnas/4yb0

>  <Rbt.Executable>
rbdock ($Id: //depot/dev/client3/rdock/2013.1/src/exe/rbdock.cxx#4 $)

>  <Rbt.Library>
libRbt.so (2013.1, Build901 2013/11/27)

>  <Rbt.Parameter_File>
/export/apps/rDock/src/rDock_2013.1_src/data/scripts/dock_solv.prm

>  <Rbt.Receptor>
prm/pocket_docking_2.prm

>  <SCORE>
-46.5654

>  <SCORE.INTER>
-46.5587

>  <SCORE.INTER.CONST>
1

>  <SCORE.INTER.POLAR>
0

>  <SCORE.INTER.ROT>
2

>  <SCORE.INTER.SOLV>
38.8758

>  <SCORE.INTER.VDW>
-48.931

>  <SCORE.INTER.norm>
-1.01214

>  <SCORE.INTRA>
-0.00676797

>  <SCORE.INTRA.DIHEDRAL>
-0.00191777

>  <SCORE.INTRA.DIHEDRAL.0>
2.42188

>  <SCORE.INTRA.POLAR>
0

>  <SCORE.INTRA.POLAR.0>
0

>  <SCORE.INTRA.REPUL>
0

>  <SCORE.INTRA.REPUL.0>
0

>  <SCORE.INTRA.SOLV>
-0.000286244

>  <SCORE.INTRA.SOLV.lig_0>
-127.307

>  <SCORE.INTRA.VDW>
-0.00566596

>  <SCORE.INTRA.VDW.0>
-2.19936

>  <SCORE.INTRA.norm>
-0.00014713

>  <SCORE.RESTR>
0

>  <SCORE.RESTR.CAVITY>
0

>  <SCORE.RESTR.norm>
0

>  <SCORE.SYSTEM>
0

>  <SCORE.SYSTEM.CONST>
0

>  <SCORE.SYSTEM.DIHEDRAL>
0

>  <SCORE.SYSTEM.SOLV>
0

>  <SCORE.SYSTEM.norm>
0

>  <SCORE.heavy>
46

>  <SCORE.norm>
-1.01229

>  <RMSD>
0.285

$$$$
ligand
 OpenBabel02271912143D
libRbt.so/2013.1/901 2013/11/27
 46 52  0  0  0  0  0  0  0  0999 V2000
  160.1458   45.9246  143.6038 P   0  0  1  0  0  0  0  0  0  0  0  0
  158.2706   41.9675  147.2446 P   0  0  1  0  0  0  0  0  0  0  0  0
  159.6416   45.7911  142.1899 O   0  5  0  0  0  0  0  0  0  0  0  0
  160.9092   47.1878  143.9374 O   0  0  0  0  0  0  0  0  0  0  0  0
  158.7379   46.5131  145.7650 C   0  0  0  0  0  0  0  0  0  0  0  0
  158.9057   45.7096  144.6043 O   0  0  0  0  0  0  0  0  0  0  0  0
  157.7467   45.8575  146.7123 C   0  0  1  0  0  0  0  0  0  0  0  0
  156.5080   46.5432  146.5960 O   0  0  0  0  0  0  0  0  0  0  0  0
  157.4475   44.3886  146.4407 C   0  0  1  0  0  0  0  0  0  0  0  0
  158.1313   43.5789  147.3859 O   0  0  0  0  0  0  0  0  0  0  0  0
  155.9639   44.2754  146.7114 C   0  0  1  0  0  0  0  0  0  0  0  0
  155.7506   43.9508  148.0866 O   0  0  0  0  0  0  0  0  0  0  0  0
  155.4070   45.6529  146.4978 C   0  0  2  0  0  0  0  0  0  0  0  0
  160.7565   41.2993  142.4734 C   0  0  1  0  0  0  0  0  0  0  0  0
  151.3468   44.5390  143.3640 N   0  0  0  0  0  0  0  0  0  0  0  0
  151.5360   44.2646  144.6686 C   0  0  1  0  0  0  0  0  0  0  0  0
  160.6629   42.8047  142.3376 C   0  0  2  0  0  0  0  0  0  0  0  0
  150.5728   43.6015  145.3467 N   0  0  0  0  0  0  0  0  0  0  0  0
  161.9005   43.2635  141.7865 O   0  0  0  0  0  0  0  0  0  0  0  0
  160.4752   43.3254  143.7503 C   0  0  2  0  0  0  0  0  0  0  0  0
  152.6493   44.6146  145.3518 N   0  0  0  0  0  0  0  0  0  0  0  0
  161.0464   44.6231  143.9112 O   0  0  0  0  0  0  0  0  0  0  0  0
  153.6574   45.2759  144.7440 C   0  0  2  0  0  0  0  0  0  0  0  0
  161.1955   42.2683  144.5845 C   0  0  2  0  0  0  0  0  0  0  0  0
  161.2020   41.0657  143.8121 O   0  0  0  0  0  0  0  0  0  0  0  0
  153.5199   45.6064  143.3222 C   0  0  2  0  0  0  0  0  0  0  0  0
  160.5715   41.9868  145.9549 C   0  0  0  0  0  0  0  0  0  0  0  0
  159.1560   41.8130  145.9024 O   0  0  0  0  0  0  0  0  0  0  0  0
  152.2720   45.1912  142.6393 C   0  0  0  0  0  0  0  0  0  0  0  0
  152.0996   45.4503  141.4240 O   0  0  0  0  0  0  0  0  0  0  0  0
  154.6507   46.2474  142.9768 N   0  0  0  0  0  0  0  0  0  0  0  0
  155.4412   46.3245  144.0741 C   0  0  0  0  0  0  0  0  0  0  0  0
  154.8444   45.7438  145.1296 N   0  0  1  0  0  0  0  0  0  0  0  0
  156.4258   40.9467  139.5140 N   0  0  0  0  0  0  0  0  0  0  0  0
  159.0860   41.5102  148.4396 O   0  5  0  0  0  0  0  0  0  0  0  0
  157.5527   41.6463  139.3102 C   0  0  2  0  0  0  0  0  0  0  0  0
  157.6294   42.3815  138.1909 N   0  0  0  0  0  0  0  0  0  0  0  0
  156.9115   41.3756  146.9604 O   0  0  0  0  0  0  0  0  0  0  0  0
  158.6018   41.6425  140.1656 N   0  0  0  0  0  0  0  0  0  0  0  0
  158.5629   40.9109  141.2989 C   0  0  1  0  0  0  0  0  0  0  0  0
  157.3491   40.1189  141.5818 C   0  0  1  0  0  0  0  0  0  0  0  0
  156.2487   40.1724  140.5858 C   0  0  0  0  0  0  0  0  0  0  0  0
  155.1791   39.5434  140.7358 O   0  0  0  0  0  0  0  0  0  0  0  0
  157.5698   39.4910  142.7476 N   0  0  0  0  0  0  0  0  0  0  0  0
  158.8115   39.8565  143.1715 C   0  0  0  0  0  0  0  0  0  0  0  0
  159.4084   40.7016  142.3077 N   0  0  2  0  0  0  0  0  0  0  0  0
  1  3  1  6  0  0  0
  1  4  2  0  0  0  0
  1  6  1  0  0  0  0
  1 22  1  0  0  0  0
  2 28  1  0  0  0  0
  2 35  1  1  0  0  0
  2 38  2  0  0  0  0
  2 10  1  0  0  0  0
  5  6  1  0  0  0  0
  7  5  1  6  0  0  0
  7  8  1  0  0  0  0
  7  9  1  0  0  0  0
  9 10  1  1  0  0  0
  9 11  1  0  0  0  0
 11 12  1  1  0  0  0
 11 13  1  0  0  0  0
 13  8  1  6  0  0  0
 13 33  1  0  0  0  0
 14 46  1  0  0  0  0
 14 17  1  0  0  0  0
 14 25  1  1  0  0  0
 15 16  1  0  0  0  0
 15 29  1  0  0  0  0
 16 18  1  6  0  0  0
 16 21  1  0  0  0  0
 17 19  1  1  0  0  0
 17 20  1  0  0  0  0
 20 22  1  6  0  0  0
 20 24  1  0  0  0  0
 23 21  1  6  0  0  0
 23 26  1  0  0  0  0
 23 33  1  0  0  0  0
 24 25  1  6  0  0  0
 24 27  1  0  0  0  0
 26 29  1  6  0  0  0
 26 31  1  0  0  0  0
 27 28  1  0  0  0  0
 29 30  2  0  0  0  0
 31 32  1  0  0  0  0
 33 32  1  1  0  0  0
 34 36  1  0  0  0  0
 34 42  1  0  0  0  0
 36 37  1  6  0  0  0
 36 39  1  0  0  0  0
 40 39  1  6  0  0  0
 40 41  1  0  0  0  0
 40 46  1  0  0  0  0
 41 42  1  6  0  0  0
 41 44  1  0  0  0  0
 42 43  2  0  0  0  0
 44 45  1  0  0  0  0
 46 45  1  1  0  0  0
M  CHG  2   3  -1  35  -1
M  END
>  <CHROM.1>
-165.34313009,52.23096030,157.40511775,43.45959085,144.01521788,-0.37754450
-0.21248038,1.02898712

>  <Name>
ligand

>  <RI>
0

>  <Rbt.Current_Directory>
/home/itssahil/PROJECTS/Mol_Feturizer/Test_systems_manuscript/rnas/4yb0

>  <Rbt.Executable>
rbdock ($Id: //depot/dev/client3/rdock/2013.1/src/exe/rbdock.cxx#4 $)

>  <Rbt.Library>
libRbt.so (2013.1, Build901 2013/11/27)

>  <Rbt.Parameter_File>
/export/apps/rDock/src/rDock_2013.1_src/data/scripts/dock_solv.prm

>  <Rbt.Receptor>
prm/pocket_docking_2.prm

>  <SCORE>
-46.5801

>  <SCORE.INTER>
-46.5411

>  <SCORE.INTER.CONST>
1

>  <SCORE.INTER.POLAR>
0

>  <SCORE.INTER.ROT>
2

>  <SCORE.INTER.SOLV>
39.6064

>  <SCORE.INTER.VDW>
-49.1629

>  <SCORE.INTER.norm>
-1.01176

>  <SCORE.INTRA>
-0.0390589

>  <SCORE.INTRA.DIHEDRAL>
0.00487429

>  <SCORE.INTRA.DIHEDRAL.0>
2.42188

>  <SCORE.INTRA.POLAR>
0

>  <SCORE.INTRA.POLAR.0>
0

>  <SCORE.INTRA.REPUL>
0

>  <SCORE.INTRA.REPUL.0>
0

>  <SCORE.INTRA.SOLV>
-0.001136

>  <SCORE.INTRA.SOLV.lig_0>
-127.307

>  <SCORE.INTRA.VDW>
-0.040928

>  <SCORE.INTRA.VDW.0>
-2.19936

>  <SCORE.INTRA.norm>
-0.000849106

>  <SCORE.RESTR>
0

>  <SCORE.RESTR.CAVITY>
0

>  <SCORE.RESTR.norm>
0

>  <SCORE.SYSTEM>
0

>  <SCORE.SYSTEM.CONST>
0

>  <SCORE.SYSTEM.DIHEDRAL>
0

>  <SCORE.SYSTEM.SOLV>
0

>  <SCORE.SYSTEM.norm>
0

>  <SCORE.heavy>
46

>  <SCORE.norm>
-1.01261

>  <RMSD>
0.292

$$$$
ligand
 OpenBabel02271912143D
libRbt.so/2013.1/901 2013/11/27
 46 52  0  0  0  0  0  0  0  0999 V2000
  160.1414   45.9464  143.6049 P   0  0  1  0  0  0  0  0  0  0  0  0
  158.3018   41.9608  147.2328 P   0  0  1  0  0  0  0  0  0  0  0  0
  159.6424   45.8101  142.1894 O   0  5  0  0  0  0  0  0  0  0  0  0
  160.8893   47.2176  143.9431 O   0  0  0  0  0  0  0  0  0  0  0  0
  158.7210   46.5145  145.7635 C   0  0  0  0  0  0  0  0  0  0  0  0
  158.9011   45.7153  144.6016 O   0  0  0  0  0  0  0  0  0  0  0  0
  157.7348   45.8457  146.7068 C   0  0  1  0  0  0  0  0  0  0  0  0
  156.4888   46.5174  146.5885 O   0  0  0  0  0  0  0  0  0  0  0  0
  157.4532   44.3740  146.4315 C   0  0  1  0  0  0  0  0  0  0  0  0
  158.1437   43.5703  147.3769 O   0  0  0  0  0  0  0  0  0  0  0  0
  155.9703   44.2433  146.6980 C   0  0  1  0  0  0  0  0  0  0  0  0
  155.7570   43.9135  148.0719 O   0  0  0  0  0  0  0  0  0  0  0  0
  155.3982   45.6148  146.4856 C   0  0  2  0  0  0  0  0  0  0  0  0
  160.8079   41.3307  142.4670 C   0  0  1  0  0  0  0  0  0  0  0  0
  151.3171   44.5507  143.3617 N   0  0  0  0  0  0  0  0  0  0  0  0
  151.4999   44.2871  144.6694 C   0  0  1  0  0  0  0  0  0  0  0  0
  160.6975   42.8352  142.3339 C   0  0  2  0  0  0  0  0  0  0  0  0
  150.5228   43.6519  145.3543 N   0  0  0  0  0  0  0  0  0  0  0  0
  161.9312   43.3093  141.7871 O   0  0  0  0  0  0  0  0  0  0  0  0
  160.5001   43.3509  143.7472 C   0  0  2  0  0  0  0  0  0  0  0  0
  152.6200   44.6215  145.3494 N   0  0  0  0  0  0  0  0  0  0  0  0
  161.0559   44.6548  143.9121 O   0  0  0  0  0  0  0  0  0  0  0  0
  153.6420   45.2547  144.7349 C   0  0  2  0  0  0  0  0  0  0  0  0
  161.2302   42.3004  144.5811 C   0  0  2  0  0  0  0  0  0  0  0  0
  161.2525   41.0996  143.8064 O   0  0  0  0  0  0  0  0  0  0  0  0
  153.5121   45.5719  143.3094 C   0  0  2  0  0  0  0  0  0  0  0  0
  160.6057   42.0091  145.9493 C   0  0  0  0  0  0  0  0  0  0  0  0
  159.1925   41.8192  145.8927 O   0  0  0  0  0  0  0  0  0  0  0  0
  152.2560   45.1752  142.6304 C   0  0  0  0  0  0  0  0  0  0  0  0
  152.0897   45.4242  141.4121 O   0  0  0  0  0  0  0  0  0  0  0  0
  154.6561   46.1852  142.9576 N   0  0  0  0  0  0  0  0  0  0  0  0
  155.4476   46.2582  144.0546 C   0  0  0  0  0  0  0  0  0  0  0  0
  154.8383   45.7020  145.1161 N   0  0  1  0  0  0  0  0  0  0  0  0
  156.5115   40.8936  139.4691 N   0  0  0  0  0  0  0  0  0  0  0  0
  159.1191   41.5105  148.4290 O   0  5  0  0  0  0  0  0  0  0  0  0
  157.6339   41.6006  139.2665 C   0  0  2  0  0  0  0  0  0  0  0  0
  157.7154   42.3199  138.1371 N   0  0  0  0  0  0  0  0  0  0  0  0
  156.9503   41.3540  146.9438 O   0  0  0  0  0  0  0  0  0  0  0  0
  158.6741   41.6195  140.1324 N   0  0  0  0  0  0  0  0  0  0  0  0
  158.6303   40.9043  141.2761 C   0  0  1  0  0  0  0  0  0  0  0  0
  157.4209   40.1053  141.5583 C   0  0  1  0  0  0  0  0  0  0  0  0
  156.3305   40.1336  140.5505 C   0  0  0  0  0  0  0  0  0  0  0  0
  155.2653   39.4969  140.6989 O   0  0  0  0  0  0  0  0  0  0  0  0
  157.6354   39.4968  142.7356 N   0  0  0  0  0  0  0  0  0  0  0  0
  158.8692   39.8802  143.1666 C   0  0  0  0  0  0  0  0  0  0  0  0
  159.4672   40.7180  142.2965 N   0  0  2  0  0  0  0  0  0  0  0  0
  1  3  1  6  0  0  0
  1  4  2  0  0  0  0
  1  6  1  0  0  0  0
  1 22  1  0  0  0  0
  2 28  1  0  0  0  0
  2 35  1  1  0  0  0
  2 38  2  0  0  0  0
  2 10  1  0  0  0  0
  5  6  1  0  0  0  0
  7  5  1  6  0  0  0
  7  8  1  0  0  0  0
  7  9  1  0  0  0  0
  9 10  1  1  0  0  0
  9 11  1  0  0  0  0
 11 12  1  1  0  0  0
 11 13  1  0  0  0  0
 13  8  1  6  0  0  0
 13 33  1  0  0  0  0
 14 46  1  0  0  0  0
 14 17  1  0  0  0  0
 14 25  1  1  0  0  0
 15 16  1  0  0  0  0
 15 29  1  0  0  0  0
 16 18  1  6  0  0  0
 16 21  1  0  0  0  0
 17 19  1  1  0  0  0
 17 20  1  0  0  0  0
 20 22  1  6  0  0  0
 20 24  1  0  0  0  0
 23 21  1  6  0  0  0
 23 26  1  0  0  0  0
 23 33  1  0  0  0  0
 24 25  1  6  0  0  0
 24 27  1  0  0  0  0
 26 29  1  6  0  0  0
 26 31  1  0  0  0  0
 27 28  1  0  0  0  0
 29 30  2  0  0  0  0
 31 32  1  0  0  0  0
 33 32  1  1  0  0  0
 34 36  1  0  0  0  0
 34 42  1  0  0  0  0
 36 37  1  6  0  0  0
 36 39  1  0  0  0  0
 40 39  1  6  0  0  0
 40 41  1  0  0  0  0
 40 46  1  0  0  0  0
 41 42  1  6  0  0  0
 41 44  1  0  0  0  0
 42 43  2  0  0  0  0
 44 45  1  0  0  0  0
 46 45  1  1  0  0  0
M  CHG  2   3  -1  35  -1
M  END
>  <CHROM.1>
-163.33847634,53.29791010,157.42575788,43.45477598,144.00370130,-0.38474117
-0.20959644,1.03286323

>  <Name>
ligand

>  <RI>
0

>  <Rbt.Current_Directory>
/home/itssahil/PROJECTS/Mol_Feturizer/Test_systems_manuscript/rnas/4yb0

>  <Rbt.Executable>
rbdock ($Id: //depot/dev/client3/rdock/2013.1/src/exe/rbdock.cxx#4 $)

>  <Rbt.Library>
libRbt.so (2013.1, Build901 2013/11/27)

>  <Rbt.Parameter_File>
/export/apps/rDock/src/rDock_2013.1_src/data/scripts/dock_solv.prm

>  <Rbt.Receptor>
prm/pocket_docking_2.prm

>  <SCORE>
-46.4363

>  <SCORE.INTER>
-46.3703

>  <SCORE.INTER.CONST>
1

>  <SCORE.INTER.POLAR>
0

>  <SCORE.INTER.ROT>
2

>  <SCORE.INTER.SOLV>
39.8159

>  <SCORE.INTER.VDW>
-49.1188

>  <SCORE.INTER.norm>
-1.00805

>  <SCORE.INTRA>
-0.0660884

>  <SCORE.INTRA.DIHEDRAL>
0.00497207

>  <SCORE.INTRA.DIHEDRAL.0>
2.42188

>  <SCORE.INTRA.POLAR>
0

>  <SCORE.INTRA.POLAR.0>
0

>  <SCORE.INTRA.REPUL>
0

>  <SCORE.INTRA.REPUL.0>
0

>  <SCORE.INTRA.SOLV>
-0.00243345

>  <SCORE.INTRA.SOLV.lig_0>
-127.307

>  <SCORE.INTRA.VDW>
-0.0673577

>  <SCORE.INTRA.VDW.0>
-2.19936

>  <SCORE.INTRA.norm>
-0.0014367

>  <SCORE.RESTR>
0

>  <SCORE.RESTR.CAVITY>
0

>  <SCORE.RESTR.norm>
0

>  <SCORE.SYSTEM>
0

>  <SCORE.SYSTEM.CONST>
0

>  <SCORE.SYSTEM.DIHEDRAL>
0

>  <SCORE.SYSTEM.SOLV>
0

>  <SCORE.SYSTEM.norm>
0

>  <SCORE.heavy>
46

>  <SCORE.norm>
-1.00949

>  <RMSD>
0.297

$$$$
ligand
 OpenBabel02271912143D
libRbt.so/2013.1/901 2013/11/27
 46 52  0  0  0  0  0  0  0  0999 V2000
  160.1017   45.9287  143.5395 P   0  0  1  0  0  0  0  0  0  0  0  0
  158.2516   41.9879  147.2107 P   0  0  1  0  0  0  0  0  0  0  0  0
  159.5862   45.7900  142.1302 O   0  5  0  0  0  0  0  0  0  0  0  0
  160.8688   47.1924  143.8620 O   0  0  0  0  0  0  0  0  0  0  0  0
  158.7114   46.5271  145.7093 C   0  0  0  0  0  0  0  0  0  0  0  0
  158.8693   45.7188  144.5505 O   0  0  0  0  0  0  0  0  0  0  0  0
  157.7270   45.8762  146.6670 C   0  0  1  0  0  0  0  0  0  0  0  0
  156.4881   46.5626  146.5577 O   0  0  0  0  0  0  0  0  0  0  0  0
  157.4244   44.4066  146.4037 C   0  0  1  0  0  0  0  0  0  0  0  0
  158.1149   43.6000  147.3467 O   0  0  0  0  0  0  0  0  0  0  0  0
  155.9429   44.2958  146.6865 C   0  0  1  0  0  0  0  0  0  0  0  0
  155.7401   43.9769  148.0646 O   0  0  0  0  0  0  0  0  0  0  0  0
  155.3855   45.6729  146.4718 C   0  0  2  0  0  0  0  0  0  0  0  0
  160.6993   41.2983  142.4228 C   0  0  1  0  0  0  0  0  0  0  0  0
  151.3139   44.5208  143.3667 N   0  0  0  0  0  0  0  0  0  0  0  0
  151.5151   44.2478  144.6698 C   0  0  1  0  0  0  0  0  0  0  0  0
  160.6060   42.8033  142.2817 C   0  0  2  0  0  0  0  0  0  0  0  0
  150.5634   43.5751  145.3545 N   0  0  0  0  0  0  0  0  0  0  0  0
  161.8396   43.2587  141.7191 O   0  0  0  0  0  0  0  0  0  0  0  0
  160.4299   43.3298  143.6938 C   0  0  2  0  0  0  0  0  0  0  0  0
  152.6299   44.6084  145.3451 N   0  0  0  0  0  0  0  0  0  0  0  0
  161.0034   44.6276  143.8450 O   0  0  0  0  0  0  0  0  0  0  0  0
  153.6271   45.2797  144.7304 C   0  0  2  0  0  0  0  0  0  0  0  0
  161.1558   42.2754  144.5265 C   0  0  2  0  0  0  0  0  0  0  0  0
  161.1551   41.0697  143.7589 O   0  0  0  0  0  0  0  0  0  0  0  0
  153.4762   45.6093  143.3097 C   0  0  2  0  0  0  0  0  0  0  0  0
  160.5423   42.0000  145.9029 C   0  0  0  0  0  0  0  0  0  0  0  0
  159.1263   41.8272  145.8623 O   0  0  0  0  0  0  0  0  0  0  0  0
  152.2275   45.1822  142.6357 C   0  0  0  0  0  0  0  0  0  0  0  0
  152.0439   45.4401  141.4217 O   0  0  0  0  0  0  0  0  0  0  0  0
  154.5982   46.2614  142.9565 N   0  0  0  0  0  0  0  0  0  0  0  0
  155.3959   46.3458  144.0482 C   0  0  0  0  0  0  0  0  0  0  0  0
  154.8123   45.7588  145.1076 N   0  0  1  0  0  0  0  0  0  0  0  0
  156.3083   41.0090  139.5466 N   0  0  0  0  0  0  0  0  0  0  0  0
  159.0760   41.5346  148.4011 O   0  5  0  0  0  0  0  0  0  0  0  0
  157.4291   41.7167  139.3372 C   0  0  2  0  0  0  0  0  0  0  0  0
  157.4806   42.4804  138.2357 N   0  0  0  0  0  0  0  0  0  0  0  0
  156.8898   41.3961  146.9396 O   0  0  0  0  0  0  0  0  0  0  0  0
  158.4959   41.6942  140.1701 N   0  0  0  0  0  0  0  0  0  0  0  0
  158.4825   40.9337  141.2849 C   0  0  1  0  0  0  0  0  0  0  0  0
  157.2766   40.1314  141.5728 C   0  0  1  0  0  0  0  0  0  0  0  0
  156.1555   40.2071  140.6017 C   0  0  0  0  0  0  0  0  0  0  0  0
  155.0908   39.5714  140.7579 O   0  0  0  0  0  0  0  0  0  0  0  0
  157.5232   39.4746  142.7173 N   0  0  0  0  0  0  0  0  0  0  0  0
  158.7727   39.8327  143.1243 C   0  0  0  0  0  0  0  0  0  0  0  0
  159.3494   40.7012  142.2701 N   0  0  2  0  0  0  0  0  0  0  0  0
  1  3  1  6  0  0  0
  1  4  2  0  0  0  0
  1  6  1  0  0  0  0
  1 22  1  0  0  0  0
  2 28  1  0  0  0  0
  2 35  1  1  0  0  0
  2 38  2  0  0  0  0
  2 10  1  0  0  0  0
  5  6  1  0  0  0  0
  7  5  1  6  0  0  0
  7  8  1  0  0  0  0
  7  9  1  0  0  0  0
  9 10  1  1  0  0  0
  9 11  1  0  0  0  0
 11 12  1  1  0  0  0
 11 13  1  0  0  0  0
 13  8  1  6  0  0  0
 13 33  1  0  0  0  0
 14 46  1  0  0  0  0
 14 17  1  0  0  0  0
 14 25  1  1  0  0  0
 15 16  1  0  0  0  0
 15 29  1  0  0  0  0
 16 18  1  6  0  0  0
 16 21  1  0  0  0  0
 17 19  1  1  0  0  0
 17 20  1  0  0  0  0
 20 22  1  6  0  0  0
 20 24  1  0  0  0  0
 23 21  1  6  0  0  0
 23 26  1  0  0  0  0
 23 33  1  0  0  0  0
 24 25  1  6  0  0  0
 24 27  1  0  0  0  0
 26 29  1  6  0  0  0
 26 31  1  0  0  0  0
 27 28  1  0  0  0  0
 29 30  2  0  0  0  0
 31 32  1  0  0  0  0
 33 32  1  1  0  0  0
 34 36  1  0  0  0  0
 34 42  1  0  0  0  0
 36 37  1  6  0  0  0
 36 39  1  0  0  0  0
 40 39  1  6  0  0  0
 40 41  1  0  0  0  0
 40 46  1  0  0  0  0
 41 42  1  6  0  0  0
 41 44  1  0  0  0  0
 42 43  2  0  0  0  0
 44 45  1  0  0  0  0
 46 45  1  1  0  0  0
M  CHG  2   3  -1  35  -1
M  END
>  <CHROM.1>
-166.00368636,50.37098674,157.35962520,43.47240174,143.98666604,-0.36451012
-0.20862887,1.02581970

>  <Name>
ligand

>  <RI>
0

>  <Rbt.Current_Directory>
/home/itssahil/PROJECTS/Mol_Feturizer/Test_systems_manuscript/rnas/4yb0

>  <Rbt.Executable>
rbdock ($Id: //depot/dev/client3/rdock/2013.1/src/exe/rbdock.cxx#4 $)

>  <Rbt.Library>
libRbt.so (2013.1, Build901 2013/11/27)

>  <Rbt.Parameter_File>
/export/apps/rDock/src/rDock_2013.1_src/data/scripts/dock_solv.prm

>  <Rbt.Receptor>
prm/pocket_docking_2.prm

>  <SCORE>
-46.5069

>  <SCORE.INTER>
-46.4954

>  <SCORE.INTER.CONST>
1

>  <SCORE.INTER.POLAR>
0

>  <SCORE.INTER.ROT>
2

>  <SCORE.INTER.SOLV>
39.9491

>  <SCORE.INTER.VDW>
-49.2466

>  <SCORE.INTER.norm>
-1.01077

>  <SCORE.INTRA>
-0.011554

>  <SCORE.INTRA.DIHEDRAL>
0.00694423

>  <SCORE.INTRA.DIHEDRAL.0>
2.42188

>  <SCORE.INTRA.POLAR>
0

>  <SCORE.INTRA.POLAR.0>
0

>  <SCORE.INTRA.REPUL>
0

>  <SCORE.INTRA.REPUL.0>
0

>  <SCORE.INTRA.SOLV>
7.34982e-05

>  <SCORE.INTRA.SOLV.lig_0>
-127.307

>  <SCORE.INTRA.VDW>
-0.0150629

>  <SCORE.INTRA.VDW.0>
-2.19936

>  <SCORE.INTRA.norm>
-0.000251175

>  <SCORE.RESTR>
0

>  <SCORE.RESTR.CAVITY>
0

>  <SCORE.RESTR.norm>
0

>  <SCORE.SYSTEM>
0

>  <SCORE.SYSTEM.CONST>
0

>  <SCORE.SYSTEM.DIHEDRAL>
0

>  <SCORE.SYSTEM.SOLV>
0

>  <SCORE.SYSTEM.norm>
0

>  <SCORE.heavy>
46

>  <SCORE.norm>
-1.01102

>  <RMSD>
0.298

$$$$
ligand
 OpenBabel02271912143D
libRbt.so/2013.1/901 2013/11/27
 46 52  0  0  0  0  0  0  0  0999 V2000
  160.1120   45.9250  143.5937 P   0  0  1  0  0  0  0  0  0  0  0  0
  158.2561   41.9560  147.2314 P   0  0  1  0  0  0  0  0  0  0  0  0
  159.6077   45.7907  142.1799 O   0  5  0  0  0  0  0  0  0  0  0  0
  160.8699   47.1912  143.9282 O   0  0  0  0  0  0  0  0  0  0  0  0
  158.7025   46.5051  145.7561 C   0  0  0  0  0  0  0  0  0  0  0  0
  158.8734   45.7035  144.5945 O   0  0  0  0  0  0  0  0  0  0  0  0
  157.7147   45.8441  146.7032 C   0  0  1  0  0  0  0  0  0  0  0  0
  156.4729   46.5245  146.5881 O   0  0  0  0  0  0  0  0  0  0  0  0
  157.4219   44.3742  146.4303 C   0  0  1  0  0  0  0  0  0  0  0  0
  158.1097   43.5666  147.3743 O   0  0  0  0  0  0  0  0  0  0  0  0
  155.9390   44.2541  146.7015 C   0  0  1  0  0  0  0  0  0  0  0  0
  155.7277   43.9272  148.0765 O   0  0  0  0  0  0  0  0  0  0  0  0
  155.3758   45.6294  146.4896 C   0  0  2  0  0  0  0  0  0  0  0  0
  160.7428   41.3036  142.4584 C   0  0  1  0  0  0  0  0  0  0  0  0
  151.3074   44.5252  143.3630 N   0  0  0  0  0  0  0  0  0  0  0  0
  151.4967   44.2535  144.6681 C   0  0  1  0  0  0  0  0  0  0  0  0
  160.6424   42.8087  142.3241 C   0  0  2  0  0  0  0  0  0  0  0  0
  150.5313   43.5964  145.3490 N   0  0  0  0  0  0  0  0  0  0  0  0
  161.8777   43.2736  141.7729 O   0  0  0  0  0  0  0  0  0  0  0  0
  160.4531   43.3272  143.7375 C   0  0  2  0  0  0  0  0  0  0  0  0
  152.6123   44.6003  145.3492 N   0  0  0  0  0  0  0  0  0  0  0  0
  161.0185   44.6273  143.8994 O   0  0  0  0  0  0  0  0  0  0  0  0
  153.6227   45.2555  144.7386 C   0  0  2  0  0  0  0  0  0  0  0  0
  161.1784   42.2725  144.5702 C   0  0  2  0  0  0  0  0  0  0  0  0
  161.1899   41.0707  143.7967 O   0  0  0  0  0  0  0  0  0  0  0  0
  153.4852   45.5828  143.3160 C   0  0  2  0  0  0  0  0  0  0  0  0
  160.5563   41.9869  145.9406 C   0  0  0  0  0  0  0  0  0  0  0  0
  159.1416   41.8068  145.8887 O   0  0  0  0  0  0  0  0  0  0  0  0
  152.2347   45.1713  142.6356 C   0  0  0  0  0  0  0  0  0  0  0  0
  152.0622   45.4280  141.4197 O   0  0  0  0  0  0  0  0  0  0  0  0
  154.6185   46.2178  142.9677 N   0  0  0  0  0  0  0  0  0  0  0  0
  155.4105   46.2944  144.0641 C   0  0  0  0  0  0  0  0  0  0  0  0
  154.8122   45.7191  145.1217 N   0  0  1  0  0  0  0  0  0  0  0  0
  156.4239   40.9126  139.4865 N   0  0  0  0  0  0  0  0  0  0  0  0
  159.0741   41.5012  148.4255 O   0  5  0  0  0  0  0  0  0  0  0  0
  157.5492   41.6143  139.2811 C   0  0  2  0  0  0  0  0  0  0  0  0
  157.6275   42.3407  138.1562 N   0  0  0  0  0  0  0  0  0  0  0  0
  156.8995   41.3583  146.9473 O   0  0  0  0  0  0  0  0  0  0  0  0
  158.5952   41.6210  140.1402 N   0  0  0  0  0  0  0  0  0  0  0  0
  158.5547   40.8984  141.2793 C   0  0  1  0  0  0  0  0  0  0  0  0
  157.3425   40.1047  141.5642 C   0  0  1  0  0  0  0  0  0  0  0  0
  156.2455   40.1464  140.5639 C   0  0  0  0  0  0  0  0  0  0  0  0
  155.1775   39.5150  140.7151 O   0  0  0  0  0  0  0  0  0  0  0  0
  157.5611   39.4869  142.7358 N   0  0  0  0  0  0  0  0  0  0  0  0
  158.8001   39.8600  143.1612 C   0  0  0  0  0  0  0  0  0  0  0  0
  159.3972   40.7001  142.2927 N   0  0  2  0  0  0  0  0  0  0  0  0
  1  3  1  6  0  0  0
  1  4  2  0  0  0  0
  1  6  1  0  0  0  0
  1 22  1  0  0  0  0
  2 28  1  0  0  0  0
  2 35  1  1  0  0  0
  2 38  2  0  0  0  0
  2 10  1  0  0  0  0
  5  6  1  0  0  0  0
  7  5  1  6  0  0  0
  7  8  1  0  0  0  0
  7  9  1  0  0  0  0
  9 10  1  1  0  0  0
  9 11  1  0  0  0  0
 11 12  1  1  0  0  0
 11 13  1  0  0  0  0
 13  8  1  6  0  0  0
 13 33  1  0  0  0  0
 14 46  1  0  0  0  0
 14 17  1  0  0  0  0
 14 25  1  1  0  0  0
 15 16  1  0  0  0  0
 15 29  1  0  0  0  0
 16 18  1  6  0  0  0
 16 21  1  0  0  0  0
 17 19  1  1  0  0  0
 17 20  1  0  0  0  0
 20 22  1  6  0  0  0
 20 24  1  0  0  0  0
 23 21  1  6  0  0  0
 23 26  1  0  0  0  0
 23 33  1  0  0  0  0
 24 25  1  6  0  0  0
 24 27  1  0  0  0  0
 26 29  1  6  0  0  0
 26 31  1  0  0  0  0
 27 28  1  0  0  0  0
 29 30  2  0  0  0  0
 31 32  1  0  0  0  0
 33 32  1  1  0  0  0
 34 36  1  0  0  0  0
 34 42  1  0  0  0  0
 36 37  1  6  0  0  0
 36 39  1  0  0  0  0
 40 39  1  6  0  0  0
 40 41  1  0  0  0  0
 40 46  1  0  0  0  0
 41 42  1  6  0  0  0
 41 44  1  0  0  0  0
 42 43  2  0  0  0  0
 44 45  1  0  0  0  0
 46 45  1  1  0  0  0
M  CHG  2   3  -1  35  -1
M  END
>  <CHROM.1>
-164.79037559,52.80307504,157.38251551,43.44772002,144.00304678,-0.38278527
-0.20970237,1.02992491

>  <Name>
ligand

>  <RI>
0

>  <Rbt.Current_Directory>
/home/itssahil/PROJECTS/Mol_Feturizer/Test_systems_manuscript/rnas/4yb0

>  <Rbt.Executable>
rbdock ($Id: //depot/dev/client3/rdock/2013.1/src/exe/rbdock.cxx#4 $)

>  <Rbt.Library>
libRbt.so (2013.1, Build901 2013/11/27)

>  <Rbt.Parameter_File>
/export/apps/rDock/src/rDock_2013.1_src/data/scripts/dock_solv.prm

>  <Rbt.Receptor>
prm/pocket_docking_2.prm

>  <SCORE>
-46.533

>  <SCORE.INTER>
-46.4832

>  <SCORE.INTER.CONST>
1

>  <SCORE.INTER.POLAR>
0

>  <SCORE.INTER.ROT>
2

>  <SCORE.INTER.SOLV>
39.9779

>  <SCORE.INTER.VDW>
-49.2481

>  <SCORE.INTER.norm>
-1.0105

>  <SCORE.INTRA>
-0.0498291

>  <SCORE.INTRA.DIHEDRAL>
0.00451291

>  <SCORE.INTRA.DIHEDRAL.0>
2.42188

>  <SCORE.INTRA.POLAR>
0

>  <SCORE.INTRA.POLAR.0>
0

>  <SCORE.INTRA.REPUL>
0

>  <SCORE.INTRA.REPUL.0>
0

>  <SCORE.INTRA.SOLV>
-0.0016385

>  <SCORE.INTRA.SOLV.lig_0>
-127.307

>  <SCORE.INTRA.VDW>
-0.0512663

>  <SCORE.INTRA.VDW.0>
-2.19936

>  <SCORE.INTRA.norm>
-0.00108324

>  <SCORE.RESTR>
0

>  <SCORE.RESTR.CAVITY>
0

>  <SCORE.RESTR.norm>
0

>  <SCORE.SYSTEM>
0

>  <SCORE.SYSTEM.CONST>
0

>  <SCORE.SYSTEM.DIHEDRAL>
0

>  <SCORE.SYSTEM.SOLV>
0

>  <SCORE.SYSTEM.norm>
0

>  <SCORE.heavy>
46

>  <SCORE.norm>
-1.01159

>  <RMSD>
0.302

$$$$
ligand
 OpenBabel02271912143D
libRbt.so/2013.1/901 2013/11/27
 46 52  0  0  0  0  0  0  0  0999 V2000
  160.1501   45.9418  143.6202 P   0  0  1  0  0  0  0  0  0  0  0  0
  158.2665   41.9746  147.2456 P   0  0  1  0  0  0  0  0  0  0  0  0
  159.6529   45.8096  142.2037 O   0  5  0  0  0  0  0  0  0  0  0  0
  160.9090   47.2062  143.9595 O   0  0  0  0  0  0  0  0  0  0  0  0
  158.7306   46.5236  145.7756 C   0  0  0  0  0  0  0  0  0  0  0  0
  158.9058   45.7224  144.6144 O   0  0  0  0  0  0  0  0  0  0  0  0
  157.7364   45.8643  146.7172 C   0  0  1  0  0  0  0  0  0  0  0  0
  156.4968   46.5474  146.5960 O   0  0  0  0  0  0  0  0  0  0  0  0
  157.4418   44.3952  146.4418 C   0  0  1  0  0  0  0  0  0  0  0  0
  158.1229   43.5855  147.3888 O   0  0  0  0  0  0  0  0  0  0  0  0
  155.9573   44.2782  146.7052 C   0  0  1  0  0  0  0  0  0  0  0  0
  155.7381   43.9508  148.0788 O   0  0  0  0  0  0  0  0  0  0  0  0
  155.3982   45.6548  146.4912 C   0  0  2  0  0  0  0  0  0  0  0  0
  160.7766   41.3198  142.4852 C   0  0  1  0  0  0  0  0  0  0  0  0
  151.3127   44.6300  143.3599 N   0  0  0  0  0  0  0  0  0  0  0  0
  151.4901   44.3657  144.6682 C   0  0  1  0  0  0  0  0  0  0  0  0
  160.6803   42.8252  142.3514 C   0  0  2  0  0  0  0  0  0  0  0  0
  150.5052   43.7410  145.3516 N   0  0  0  0  0  0  0  0  0  0  0  0
  161.9194   43.2877  141.8069 O   0  0  0  0  0  0  0  0  0  0  0  0
  160.4847   43.3432  143.7641 C   0  0  2  0  0  0  0  0  0  0  0  0
  152.6122   44.6891  145.3502 N   0  0  0  0  0  0  0  0  0  0  0  0
  161.0521   44.6419  143.9298 O   0  0  0  0  0  0  0  0  0  0  0  0
  153.6419   45.3113  144.7373 C   0  0  2  0  0  0  0  0  0  0  0  0
  161.2033   42.2863  144.5999 C   0  0  2  0  0  0  0  0  0  0  0  0
  161.2162   41.0850  143.8256 O   0  0  0  0  0  0  0  0  0  0  0  0
  153.5180   45.6288  143.3112 C   0  0  2  0  0  0  0  0  0  0  0  0
  160.5734   42.0012  145.9669 C   0  0  0  0  0  0  0  0  0  0  0  0
  159.1587   41.8243  145.9074 O   0  0  0  0  0  0  0  0  0  0  0  0
  152.2594   45.2444  142.6300 C   0  0  0  0  0  0  0  0  0  0  0  0
  152.0980   45.4941  141.4112 O   0  0  0  0  0  0  0  0  0  0  0  0
  154.6690   46.2301  142.9612 N   0  0  0  0  0  0  0  0  0  0  0  0
  155.4590   46.2958  144.0598 C   0  0  0  0  0  0  0  0  0  0  0  0
  154.8420   45.7466  145.1205 N   0  0  1  0  0  0  0  0  0  0  0  0
  156.4913   40.9044  139.4684 N   0  0  0  0  0  0  0  0  0  0  0  0
  159.0772   41.5172  148.4437 O   0  5  0  0  0  0  0  0  0  0  0  0
  157.6218   41.5987  139.2665 C   0  0  2  0  0  0  0  0  0  0  0  0
  157.7163   42.3090  138.1325 N   0  0  0  0  0  0  0  0  0  0  0  0
  156.9101   41.3801  146.9540 O   0  0  0  0  0  0  0  0  0  0  0  0
  158.6577   41.6132  140.1377 N   0  0  0  0  0  0  0  0  0  0  0  0
  158.6008   40.9068  141.2861 C   0  0  1  0  0  0  0  0  0  0  0  0
  157.3821   40.1220  141.5678 C   0  0  1  0  0  0  0  0  0  0  0  0
  156.2971   40.1540  140.5542 C   0  0  0  0  0  0  0  0  0  0  0  0
  155.2248   39.5291  140.7016 O   0  0  0  0  0  0  0  0  0  0  0  0
  157.5844   39.5197  142.7504 N   0  0  0  0  0  0  0  0  0  0  0  0
  158.8199   39.8938  143.1851 C   0  0  0  0  0  0  0  0  0  0  0  0
  159.4306   40.7193  142.3121 N   0  0  2  0  0  0  0  0  0  0  0  0
  1  3  1  6  0  0  0
  1  4  2  0  0  0  0
  1  6  1  0  0  0  0
  1 22  1  0  0  0  0
  2 28  1  0  0  0  0
  2 35  1  1  0  0  0
  2 38  2  0  0  0  0
  2 10  1  0  0  0  0
  5  6  1  0  0  0  0
  7  5  1  6  0  0  0
  7  8  1  0  0  0  0
  7  9  1  0  0  0  0
  9 10  1  1  0  0  0
  9 11  1  0  0  0  0
 11 12  1  1  0  0  0
 11 13  1  0  0  0  0
 13  8  1  6  0  0  0
 13 33  1  0  0  0  0
 14 46  1  0  0  0  0
 14 17  1  0  0  0  0
 14 25  1  1  0  0  0
 15 16  1  0  0  0  0
 15 29  1  0  0  0  0
 16 18  1  6  0  0  0
 16 21  1  0  0  0  0
 17 19  1  1  0  0  0
 17 20  1  0  0  0  0
 20 22  1  6  0  0  0
 20 24  1  0  0  0  0
 23 21  1  6  0  0  0
 23 26  1  0  0  0  0
 23 33  1  0  0  0  0
 24 25  1  6  0  0  0
 24 27  1  0  0  0  0
 26 29  1  6  0  0  0
 26 31  1  0  0  0  0
 27 28  1  0  0  0  0
 29 30  2  0  0  0  0
 31 32  1  0  0  0  0
 33 32  1  1  0  0  0
 34 36  1  0  0  0  0
 34 42  1  0  0  0  0
 36 37  1  6  0  0  0
 36 39  1  0  0  0  0
 40 39  1  6  0  0  0
 40 41  1  0  0  0  0
 40 46  1  0  0  0  0
 41 42  1  6  0  0  0
 41 44  1  0  0  0  0
 42 43  2  0  0  0  0
 44 45  1  0  0  0  0
 46 45  1  1  0  0  0
M  CHG  2   3  -1  35  -1
M  END
>  <CHROM.1>
-163.27421691,53.72690266,157.41173754,43.47387263,144.01316073,-0.39228480
-0.21840016,1.03109083

>  <Name>
ligand

>  <RI>
0

>  <Rbt.Current_Directory>
/home/itssahil/PROJECTS/Mol_Feturizer/Test_systems_manuscript/rnas/4yb0

>  <Rbt.Executable>
rbdock ($Id: //depot/dev/client3/rdock/2013.1/src/exe/rbdock.cxx#4 $)

>  <Rbt.Library>
libRbt.so (2013.1, Build901 2013/11/27)

>  <Rbt.Parameter_File>
/export/apps/rDock/src/rDock_2013.1_src/data/scripts/dock_solv.prm

>  <Rbt.Receptor>
prm/pocket_docking_2.prm

>  <SCORE>
-46.4793

>  <SCORE.INTER>
-46.4079

>  <SCORE.INTER.CONST>
1

>  <SCORE.INTER.POLAR>
0

>  <SCORE.INTER.ROT>
2

>  <SCORE.INTER.SOLV>
40.0221

>  <SCORE.INTER.VDW>
-49.2126

>  <SCORE.INTER.norm>
-1.00887

>  <SCORE.INTRA>
-0.0714088

>  <SCORE.INTRA.DIHEDRAL>
0.00438058

>  <SCORE.INTRA.DIHEDRAL.0>
2.42188

>  <SCORE.INTRA.POLAR>
0

>  <SCORE.INTRA.POLAR.0>
0

>  <SCORE.INTRA.REPUL>
0

>  <SCORE.INTRA.REPUL.0>
0

>  <SCORE.INTRA.SOLV>
-0.00267795

>  <SCORE.INTRA.SOLV.lig_0>
-127.307

>  <SCORE.INTRA.VDW>
-0.0722601

>  <SCORE.INTRA.VDW.0>
-2.19936

>  <SCORE.INTRA.norm>
-0.00155236

>  <SCORE.RESTR>
0

>  <SCORE.RESTR.CAVITY>
0

>  <SCORE.RESTR.norm>
0

>  <SCORE.SYSTEM>
0

>  <SCORE.SYSTEM.CONST>
0

>  <SCORE.SYSTEM.DIHEDRAL>
0

>  <SCORE.SYSTEM.SOLV>
0

>  <SCORE.SYSTEM.norm>
0

>  <SCORE.heavy>
46

>  <SCORE.norm>
-1.01042

>  <RMSD>
0.308

$$$$
ligand
 OpenBabel02271912143D
libRbt.so/2013.1/901 2013/11/27
 46 52  0  0  0  0  0  0  0  0999 V2000
  160.1429   45.9553  143.6079 P   0  0  1  0  0  0  0  0  0  0  0  0
  158.2422   41.9713  147.2060 P   0  0  1  0  0  0  0  0  0  0  0  0
  159.6601   45.8240  142.1863 O   0  5  0  0  0  0  0  0  0  0  0  0
  160.8927   47.2223  143.9574 O   0  0  0  0  0  0  0  0  0  0  0  0
  158.6998   46.5257  145.7507 C   0  0  0  0  0  0  0  0  0  0  0  0
  158.8899   45.7279  144.5894 O   0  0  0  0  0  0  0  0  0  0  0  0
  157.6995   45.8597  146.6810 C   0  0  1  0  0  0  0  0  0  0  0  0
  156.4580   46.5375  146.5493 O   0  0  0  0  0  0  0  0  0  0  0  0
  157.4143   44.3900  146.3995 C   0  0  1  0  0  0  0  0  0  0  0  0
  158.0899   43.5812  147.3514 O   0  0  0  0  0  0  0  0  0  0  0  0
  155.9278   44.2656  146.6482 C   0  0  1  0  0  0  0  0  0  0  0  0
  155.6968   43.9342  148.0189 O   0  0  0  0  0  0  0  0  0  0  0  0
  155.3646   45.6401  146.4318 C   0  0  2  0  0  0  0  0  0  0  0  0
  160.8015   41.3387  142.4688 C   0  0  1  0  0  0  0  0  0  0  0  0
  151.3453   44.5372  143.2420 N   0  0  0  0  0  0  0  0  0  0  0  0
  151.5156   44.2623  144.5490 C   0  0  1  0  0  0  0  0  0  0  0  0
  160.6996   42.8439  142.3374 C   0  0  2  0  0  0  0  0  0  0  0  0
  150.5414   43.6017  145.2137 N   0  0  0  0  0  0  0  0  0  0  0  0
  161.9418   43.3133  141.8061 O   0  0  0  0  0  0  0  0  0  0  0  0
  160.4879   43.3578  143.7492 C   0  0  2  0  0  0  0  0  0  0  0  0
  152.6203   44.6093  145.2476 N   0  0  0  0  0  0  0  0  0  0  0  0
  161.0478   44.6588  143.9233 O   0  0  0  0  0  0  0  0  0  0  0  0
  153.6385   45.2679  144.6539 C   0  0  2  0  0  0  0  0  0  0  0  0
  161.2032   42.3024  144.5897 C   0  0  2  0  0  0  0  0  0  0  0  0
  161.2291   41.1029  143.8129 O   0  0  0  0  0  0  0  0  0  0  0  0
  153.5216   45.5988  143.2303 C   0  0  2  0  0  0  0  0  0  0  0  0
  160.5613   42.0113  145.9498 C   0  0  0  0  0  0  0  0  0  0  0  0
  159.1480   41.8281  145.8762 O   0  0  0  0  0  0  0  0  0  0  0  0
  152.2822   45.1870  142.5302 C   0  0  0  0  0  0  0  0  0  0  0  0
  152.1274   45.4466  141.3126 O   0  0  0  0  0  0  0  0  0  0  0  0
  154.6588   46.2368  142.9006 N   0  0  0  0  0  0  0  0  0  0  0  0
  155.4343   46.3118  144.0089 C   0  0  0  0  0  0  0  0  0  0  0  0
  154.8213   45.7325  145.0559 N   0  0  1  0  0  0  0  0  0  0  0  0
  156.5343   40.9355  139.4247 N   0  0  0  0  0  0  0  0  0  0  0  0
  159.0433   41.5149  148.4109 O   0  5  0  0  0  0  0  0  0  0  0  0
  157.6617   41.6389  139.2373 C   0  0  2  0  0  0  0  0  0  0  0  0
  157.7577   42.3637  138.1128 N   0  0  0  0  0  0  0  0  0  0  0  0
  156.8914   41.3713  146.8998 O   0  0  0  0  0  0  0  0  0  0  0  0
  158.6930   41.6488  140.1140 N   0  0  0  0  0  0  0  0  0  0  0  0
  158.6344   40.9278  141.2534 C   0  0  1  0  0  0  0  0  0  0  0  0
  157.4189   40.1324  141.5189 C   0  0  1  0  0  0  0  0  0  0  0  0
  156.3390   40.1706  140.5001 C   0  0  0  0  0  0  0  0  0  0  0  0
  155.2697   39.5376  140.6342 O   0  0  0  0  0  0  0  0  0  0  0  0
  157.6187   39.5168  142.6951 N   0  0  0  0  0  0  0  0  0  0  0  0
  158.8497   39.8927  143.1408 C   0  0  0  0  0  0  0  0  0  0  0  0
  159.4600   40.7325  142.2813 N   0  0  2  0  0  0  0  0  0  0  0  0
  1  3  1  6  0  0  0
  1  4  2  0  0  0  0
  1  6  1  0  0  0  0
  1 22  1  0  0  0  0
  2 28  1  0  0  0  0
  2 35  1  1  0  0  0
  2 38  2  0  0  0  0
  2 10  1  0  0  0  0
  5  6  1  0  0  0  0
  7  5  1  6  0  0  0
  7  8  1  0  0  0  0
  7  9  1  0  0  0  0
  9 10  1  1  0  0  0
  9 11  1  0  0  0  0
 11 12  1  1  0  0  0
 11 13  1  0  0  0  0
 13  8  1  6  0  0  0
 13 33  1  0  0  0  0
 14 46  1  0  0  0  0
 14 17  1  0  0  0  0
 14 25  1  1  0  0  0
 15 16  1  0  0  0  0
 15 29  1  0  0  0  0
 16 18  1  6  0  0  0
 16 21  1  0  0  0  0
 17 19  1  1  0  0  0
 17 20  1  0  0  0  0
 20 22  1  6  0  0  0
 20 24  1  0  0  0  0
 23 21  1  6  0  0  0
 23 26  1  0  0  0  0
 23 33  1  0  0  0  0
 24 25  1  6  0  0  0
 24 27  1  0  0  0  0
 26 29  1  6  0  0  0
 26 31  1  0  0  0  0
 27 28  1  0  0  0  0
 29 30  2  0  0  0  0
 31 32  1  0  0  0  0
 33 32  1  1  0  0  0
 34 36  1  0  0  0  0
 34 42  1  0  0  0  0
 36 37  1  6  0  0  0
 36 39  1  0  0  0  0
 40 39  1  6  0  0  0
 40 41  1  0  0  0  0
 40 46  1  0  0  0  0
 41 42  1  6  0  0  0
 41 44  1  0  0  0  0
 42 43  2  0  0  0  0
 44 45  1  0  0  0  0
 46 45  1  1  0  0  0
M  CHG  2   3  -1  35  -1
M  END
>  <CHROM.1>
-164.75628326,53.08513918,157.41398730,43.46944496,143.96852974,-0.37142728
-0.21522807,1.03536629

>  <Name>
ligand

>  <RI>
0

>  <Rbt.Current_Directory>
/home/itssahil/PROJECTS/Mol_Feturizer/Test_systems_manuscript/rnas/4yb0

>  <Rbt.Executable>
rbdock ($Id: //depot/dev/client3/rdock/2013.1/src/exe/rbdock.cxx#4 $)

>  <Rbt.Library>
libRbt.so (2013.1, Build901 2013/11/27)

>  <Rbt.Parameter_File>
/export/apps/rDock/src/rDock_2013.1_src/data/scripts/dock_solv.prm

>  <Rbt.Receptor>
prm/pocket_docking_3.prm

>  <SCORE>
-46.6009

>  <SCORE.INTER>
-46.5475

>  <SCORE.INTER.CONST>
1

>  <SCORE.INTER.POLAR>
0

>  <SCORE.INTER.ROT>
2

>  <SCORE.INTER.SOLV>
39.3632

>  <SCORE.INTER.VDW>
-49.0861

>  <SCORE.INTER.norm>
-1.0119

>  <SCORE.INTRA>
-0.0533314

>  <SCORE.INTRA.DIHEDRAL>
0.00412413

>  <SCORE.INTRA.DIHEDRAL.0>
2.42188

>  <SCORE.INTRA.POLAR>
0

>  <SCORE.INTRA.POLAR.0>
0

>  <SCORE.INTRA.REPUL>
0

>  <SCORE.INTRA.REPUL.0>
0

>  <SCORE.INTRA.SOLV>
-0.00179657

>  <SCORE.INTRA.SOLV.lig_0>
-127.307

>  <SCORE.INTRA.VDW>
-0.0544952

>  <SCORE.INTRA.VDW.0>
-2.19936

>  <SCORE.INTRA.norm>
-0.00115938

>  <SCORE.RESTR>
0

>  <SCORE.RESTR.CAVITY>
0

>  <SCORE.RESTR.norm>
0

>  <SCORE.SYSTEM>
0

>  <SCORE.SYSTEM.CONST>
0

>  <SCORE.SYSTEM.DIHEDRAL>
0

>  <SCORE.SYSTEM.SOLV>
0

>  <SCORE.SYSTEM.norm>
0

>  <SCORE.heavy>
46

>  <SCORE.norm>
-1.01306

>  <RMSD>
0.323

$$$$
ligand
 OpenBabel02271912143D
libRbt.so/2013.1/901 2013/11/27
 46 52  0  0  0  0  0  0  0  0999 V2000
  159.8317   46.1924  143.5211 P   0  0  1  0  0  0  0  0  0  0  0  0
  158.1038   42.1753  147.1691 P   0  0  1  0  0  0  0  0  0  0  0  0
  159.3601   46.0196  142.1003 O   0  5  0  0  0  0  0  0  0  0  0  0
  160.5216   47.4971  143.8550 O   0  0  0  0  0  0  0  0  0  0  0  0
  158.3571   46.7255  145.6520 C   0  0  0  0  0  0  0  0  0  0  0  0
  158.5873   45.9214  144.5024 O   0  0  0  0  0  0  0  0  0  0  0  0
  157.3853   46.0272  146.5889 C   0  0  1  0  0  0  0  0  0  0  0  0
  156.1145   46.6455  146.4445 O   0  0  0  0  0  0  0  0  0  0  0  0
  157.1686   44.5422  146.3270 C   0  0  1  0  0  0  0  0  0  0  0  0
  157.8774   43.7784  147.2918 O   0  0  0  0  0  0  0  0  0  0  0  0
  155.6886   44.3532  146.5735 C   0  0  1  0  0  0  0  0  0  0  0  0
  155.4685   44.0304  147.9480 O   0  0  0  0  0  0  0  0  0  0  0  0
  155.0637   45.6974  146.3366 C   0  0  2  0  0  0  0  0  0  0  0  0
  160.7048   41.5957  142.4479 C   0  0  1  0  0  0  0  0  0  0  0  0
  151.1178   44.3524  143.1481 N   0  0  0  0  0  0  0  0  0  0  0  0
  151.2975   44.1016  144.4587 C   0  0  1  0  0  0  0  0  0  0  0  0
  160.5345   43.0927  142.2954 C   0  0  2  0  0  0  0  0  0  0  0  0
  150.3562   43.3994  145.1282 N   0  0  0  0  0  0  0  0  0  0  0  0
  161.7556   43.6112  141.7608 O   0  0  0  0  0  0  0  0  0  0  0  0
  160.2949   43.6157  143.6994 C   0  0  2  0  0  0  0  0  0  0  0  0
  152.3804   44.5130  145.1565 N   0  0  0  0  0  0  0  0  0  0  0  0
  160.7940   44.9432  143.8569 O   0  0  0  0  0  0  0  0  0  0  0  0
  153.3654   45.2164  144.5581 C   0  0  2  0  0  0  0  0  0  0  0  0
  161.0550   42.6058  144.5563 C   0  0  2  0  0  0  0  0  0  0  0  0
  161.1383   41.3982  143.7963 O   0  0  0  0  0  0  0  0  0  0  0  0
  153.2366   45.5245  143.1304 C   0  0  2  0  0  0  0  0  0  0  0  0
  160.4227   42.3043  145.9186 C   0  0  0  0  0  0  0  0  0  0  0  0
  159.0196   42.0555  145.8438 O   0  0  0  0  0  0  0  0  0  0  0  0
  152.0225   45.0413  142.4316 C   0  0  0  0  0  0  0  0  0  0  0  0
  151.8588   45.2786  141.2106 O   0  0  0  0  0  0  0  0  0  0  0  0
  154.3406   46.2163  142.7967 N   0  0  0  0  0  0  0  0  0  0  0  0
  155.1073   46.3439  143.9063 C   0  0  0  0  0  0  0  0  0  0  0  0
  154.5213   45.7459  144.9582 N   0  0  1  0  0  0  0  0  0  0  0  0
  156.3482   41.1569  139.5383 N   0  0  0  0  0  0  0  0  0  0  0  0
  158.9210   41.7727  148.3823 O   0  5  0  0  0  0  0  0  0  0  0  0
  157.4258   41.9370  139.3620 C   0  0  2  0  0  0  0  0  0  0  0  0
  157.4357   42.7437  138.2903 N   0  0  0  0  0  0  0  0  0  0  0  0
  156.7829   41.5099  146.8678 O   0  0  0  0  0  0  0  0  0  0  0  0
  158.4893   41.9459  140.1994 N   0  0  0  0  0  0  0  0  0  0  0  0
  158.5172   41.1443  141.2847 C   0  0  1  0  0  0  0  0  0  0  0  0
  157.3600   40.2618  141.5354 C   0  0  1  0  0  0  0  0  0  0  0  0
  156.2396   40.3079  140.5616 C   0  0  0  0  0  0  0  0  0  0  0  0
  155.2139   39.6051  140.6878 O   0  0  0  0  0  0  0  0  0  0  0  0
  157.6412   39.5777  142.6558 N   0  0  0  0  0  0  0  0  0  0  0  0
  158.8660   39.9933  143.0829 C   0  0  0  0  0  0  0  0  0  0  0  0
  159.3931   40.9261  142.2653 N   0  0  2  0  0  0  0  0  0  0  0  0
  1  3  1  6  0  0  0
  1  4  2  0  0  0  0
  1  6  1  0  0  0  0
  1 22  1  0  0  0  0
  2 28  1  0  0  0  0
  2 35  1  1  0  0  0
  2 38  2  0  0  0  0
  2 10  1  0  0  0  0
  5  6  1  0  0  0  0
  7  5  1  6  0  0  0
  7  8  1  0  0  0  0
  7  9  1  0  0  0  0
  9 10  1  1  0  0  0
  9 11  1  0  0  0  0
 11 12  1  1  0  0  0
 11 13  1  0  0  0  0
 13  8  1  6  0  0  0
 13 33  1  0  0  0  0
 14 46  1  0  0  0  0
 14 17  1  0  0  0  0
 14 25  1  1  0  0  0
 15 16  1  0  0  0  0
 15 29  1  0  0  0  0
 16 18  1  6  0  0  0
 16 21  1  0  0  0  0
 17 19  1  1  0  0  0
 17 20  1  0  0  0  0
 20 22  1  6  0  0  0
 20 24  1  0  0  0  0
 23 21  1  6  0  0  0
 23 26  1  0  0  0  0
 23 33  1  0  0  0  0
 24 25  1  6  0  0  0
 24 27  1  0  0  0  0
 26 29  1  6  0  0  0
 26 31  1  0  0  0  0
 27 28  1  0  0  0  0
 29 30  2  0  0  0  0
 31 32  1  0  0  0  0
 33 32  1  1  0  0  0
 34 36  1  0  0  0  0
 34 42  1  0  0  0  0
 36 37  1  6  0  0  0
 36 39  1  0  0  0  0
 40 39  1  6  0  0  0
 40 41  1  0  0  0  0
 40 46  1  0  0  0  0
 41 42  1  6  0  0  0
 41 44  1  0  0  0  0
 42 43  2  0  0  0  0
 44 45  1  0  0  0  0
 46 45  1  1  0  0  0
M  CHG  2   3  -1  35  -1
M  END
>  <CHROM.1>
-165.10721535,47.60966656,157.20595757,43.60956412,143.92394662,-0.29122421
-0.18016779,1.03481011

>  <Name>
ligand

>  <RI>
0

>  <Rbt.Current_Directory>
/home/itssahil/PROJECTS/Mol_Feturizer/Test_systems_manuscript/rnas/4yb0

>  <Rbt.Executable>
rbdock ($Id: //depot/dev/client3/rdock/2013.1/src/exe/rbdock.cxx#4 $)

>  <Rbt.Library>
libRbt.so (2013.1, Build901 2013/11/27)

>  <Rbt.Parameter_File>
/export/apps/rDock/src/rDock_2013.1_src/data/scripts/dock_solv.prm

>  <Rbt.Receptor>
prm/pocket_docking_3.prm

>  <SCORE>
-46.8614

>  <SCORE.INTER>
-46.861

>  <SCORE.INTER.CONST>
1

>  <SCORE.INTER.POLAR>
0

>  <SCORE.INTER.ROT>
2

>  <SCORE.INTER.SOLV>
39.2641

>  <SCORE.INTER.VDW>
-49.2621

>  <SCORE.INTER.norm>
-1.01872

>  <SCORE.INTRA>
-0.000350989

>  <SCORE.INTRA.DIHEDRAL>
0.0114397

>  <SCORE.INTRA.DIHEDRAL.0>
2.42188

>  <SCORE.INTRA.POLAR>
0

>  <SCORE.INTRA.POLAR.0>
0

>  <SCORE.INTRA.REPUL>
0

>  <SCORE.INTRA.REPUL.0>
0

>  <SCORE.INTRA.SOLV>
0.00116192

>  <SCORE.INTRA.SOLV.lig_0>
-127.307

>  <SCORE.INTRA.VDW>
-0.0066518

>  <SCORE.INTRA.VDW.0>
-2.19936

>  <SCORE.INTRA.norm>
-7.6302e-06

>  <SCORE.RESTR>
0

>  <SCORE.RESTR.CAVITY>
0

>  <SCORE.RESTR.norm>
0

>  <SCORE.SYSTEM>
0

>  <SCORE.SYSTEM.CONST>
0

>  <SCORE.SYSTEM.DIHEDRAL>
0

>  <SCORE.SYSTEM.SOLV>
0

>  <SCORE.SYSTEM.norm>
0

>  <SCORE.heavy>
46

>  <SCORE.norm>
-1.01873

>  <RMSD>
0.378

$$$$
ligand
 OpenBabel02271912143D
libRbt.so/2013.1/901 2013/11/27
 46 52  0  0  0  0  0  0  0  0999 V2000
  159.8252   46.1824  143.5365 P   0  0  1  0  0  0  0  0  0  0  0  0
  158.0702   42.1876  147.1961 P   0  0  1  0  0  0  0  0  0  0  0  0
  159.3625   46.0019  142.1137 O   0  5  0  0  0  0  0  0  0  0  0  0
  160.5142   47.4883  143.8674 O   0  0  0  0  0  0  0  0  0  0  0  0
  158.3375   46.7289  145.6549 C   0  0  0  0  0  0  0  0  0  0  0  0
  158.5743   45.9181  144.5114 O   0  0  0  0  0  0  0  0  0  0  0  0
  157.3591   46.0368  146.5895 C   0  0  1  0  0  0  0  0  0  0  0  0
  156.0899   46.6554  146.4335 O   0  0  0  0  0  0  0  0  0  0  0  0
  157.1427   44.5505  146.3347 C   0  0  1  0  0  0  0  0  0  0  0  0
  157.8446   43.7916  147.3083 O   0  0  0  0  0  0  0  0  0  0  0  0
  155.6610   44.3643  146.5728 C   0  0  1  0  0  0  0  0  0  0  0  0
  155.4318   44.0495  147.9477 O   0  0  0  0  0  0  0  0  0  0  0  0
  155.0389   45.7077  146.3243 C   0  0  2  0  0  0  0  0  0  0  0  0
  160.7007   41.5788  142.4950 C   0  0  1  0  0  0  0  0  0  0  0  0
  151.1193   44.3350  143.1151 N   0  0  0  0  0  0  0  0  0  0  0  0
  151.2913   44.0899  144.4278 C   0  0  1  0  0  0  0  0  0  0  0  0
  160.5328   43.0751  142.3329 C   0  0  2  0  0  0  0  0  0  0  0  0
  150.3485   43.3864  145.0937 N   0  0  0  0  0  0  0  0  0  0  0  0
  161.7579   43.5894  141.8033 O   0  0  0  0  0  0  0  0  0  0  0  0
  160.2848   43.6063  143.7324 C   0  0  2  0  0  0  0  0  0  0  0  0
  152.3680   44.5082  145.1311 N   0  0  0  0  0  0  0  0  0  0  0  0
  160.7841   44.9342  143.8855 O   0  0  0  0  0  0  0  0  0  0  0  0
  153.3541   45.2132  144.5365 C   0  0  2  0  0  0  0  0  0  0  0  0
  161.0385   42.6006  144.5998 C   0  0  2  0  0  0  0  0  0  0  0  0
  161.1255   41.3886  143.8472 O   0  0  0  0  0  0  0  0  0  0  0  0
  153.2335   45.5154  143.1069 C   0  0  2  0  0  0  0  0  0  0  0  0
  160.3972   42.3074  145.9598 C   0  0  0  0  0  0  0  0  0  0  0  0
  158.9943   42.0595  145.8774 O   0  0  0  0  0  0  0  0  0  0  0  0
  152.0259   45.0248  142.4019 C   0  0  0  0  0  0  0  0  0  0  0  0
  151.8693   45.2569  141.1790 O   0  0  0  0  0  0  0  0  0  0  0  0
  154.3369   46.2105  142.7777 N   0  0  0  0  0  0  0  0  0  0  0  0
  155.0958   46.3452  143.8918 C   0  0  0  0  0  0  0  0  0  0  0  0
  154.5053   45.7489  144.9421 N   0  0  1  0  0  0  0  0  0  0  0  0
  156.3855   41.0902  139.5323 N   0  0  0  0  0  0  0  0  0  0  0  0
  158.8793   41.7911  148.4168 O   0  5  0  0  0  0  0  0  0  0  0  0
  157.4681   41.8630  139.3549 C   0  0  2  0  0  0  0  0  0  0  0  0
  157.4963   42.6461  138.2662 N   0  0  0  0  0  0  0  0  0  0  0  0
  156.7507   41.5217  146.8902 O   0  0  0  0  0  0  0  0  0  0  0  0
  158.5194   41.8868  140.2073 N   0  0  0  0  0  0  0  0  0  0  0  0
  158.5288   41.1089  141.3100 C   0  0  1  0  0  0  0  0  0  0  0  0
  157.3652   40.2356  141.5629 C   0  0  1  0  0  0  0  0  0  0  0  0
  156.2592   40.2640  140.5721 C   0  0  0  0  0  0  0  0  0  0  0  0
  155.2294   39.5671  140.6985 O   0  0  0  0  0  0  0  0  0  0  0  0
  157.6277   39.5752  142.7018 N   0  0  0  0  0  0  0  0  0  0  0  0
  158.8475   39.9962  143.1377 C   0  0  0  0  0  0  0  0  0  0  0  0
  159.3896   40.9094  142.3078 N   0  0  2  0  0  0  0  0  0  0  0  0
  1  3  1  6  0  0  0
  1  4  2  0  0  0  0
  1  6  1  0  0  0  0
  1 22  1  0  0  0  0
  2 28  1  0  0  0  0
  2 35  1  1  0  0  0
  2 38  2  0  0  0  0
  2 10  1  0  0  0  0
  5  6  1  0  0  0  0
  7  5  1  6  0  0  0
  7  8  1  0  0  0  0
  7  9  1  0  0  0  0
  9 10  1  1  0  0  0
  9 11  1  0  0  0  0
 11 12  1  1  0  0  0
 11 13  1  0  0  0  0
 13  8  1  6  0  0  0
 13 33  1  0  0  0  0
 14 46  1  0  0  0  0
 14 17  1  0  0  0  0
 14 25  1  1  0  0  0
 15 16  1  0  0  0  0
 15 29  1  0  0  0  0
 16 18  1  6  0  0  0
 16 21  1  0  0  0  0
 17 19  1  1  0  0  0
 17 20  1  0  0  0  0
 20 22  1  6  0  0  0
 20 24  1  0  0  0  0
 23 21  1  6  0  0  0
 23 26  1  0  0  0  0
 23 33  1  0  0  0  0
 24 25  1  6  0  0  0
 24 27  1  0  0  0  0
 26 29  1  6  0  0  0
 26 31  1  0  0  0  0
 27 28  1  0  0  0  0
 29 30  2  0  0  0  0
 31 32  1  0  0  0  0
 33 32  1  1  0  0  0
 34 36  1  0  0  0  0
 34 42  1  0  0  0  0
 36 37  1  6  0  0  0
 36 39  1  0  0  0  0
 40 39  1  6  0  0  0
 40 41  1  0  0  0  0
 40 46  1  0  0  0  0
 41 42  1  6  0  0  0
 41 44  1  0  0  0  0
 42 43  2  0  0  0  0
 44 45  1  0  0  0  0
 46 45  1  1  0  0  0
M  CHG  2   3  -1  35  -1
M  END
>  <CHROM.1>
-165.40917334,48.64846153,157.19777910,43.59873421,143.93382346,-0.29460205
-0.18263916,1.02840152

>  <Name>
ligand

>  <RI>
0

>  <Rbt.Current_Directory>
/home/itssahil/PROJECTS/Mol_Feturizer/Test_systems_manuscript/rnas/4yb0

>  <Rbt.Executable>
rbdock ($Id: //depot/dev/client3/rdock/2013.1/src/exe/rbdock.cxx#4 $)

>  <Rbt.Library>
libRbt.so (2013.1, Build901 2013/11/27)

>  <Rbt.Parameter_File>
/export/apps/rDock/src/rDock_2013.1_src/data/scripts/dock_solv.prm

>  <Rbt.Receptor>
prm/pocket_docking_5.prm

>  <SCORE>
-46.829

>  <SCORE.INTER>
-46.8352

>  <SCORE.INTER.CONST>
1

>  <SCORE.INTER.POLAR>
0

>  <SCORE.INTER.ROT>
2

>  <SCORE.INTER.SOLV>
39.1539

>  <SCORE.INTER.VDW>
-49.2081

>  <SCORE.INTER.norm>
-1.01816

>  <SCORE.INTRA>
0.00614458

>  <SCORE.INTRA.DIHEDRAL>
0.00982259

>  <SCORE.INTRA.DIHEDRAL.0>
2.42188

>  <SCORE.INTRA.POLAR>
0

>  <SCORE.INTRA.POLAR.0>
0

>  <SCORE.INTRA.REPUL>
0

>  <SCORE.INTRA.REPUL.0>
0

>  <SCORE.INTRA.SOLV>
0.000738891

>  <SCORE.INTRA.SOLV.lig_0>
-127.307

>  <SCORE.INTRA.VDW>
0.000863834

>  <SCORE.INTRA.VDW.0>
-2.19936

>  <SCORE.INTRA.norm>
0.000133578

>  <SCORE.RESTR>
0

>  <SCORE.RESTR.CAVITY>
0

>  <SCORE.RESTR.norm>
0

>  <SCORE.SYSTEM>
0

>  <SCORE.SYSTEM.CONST>
0

>  <SCORE.SYSTEM.DIHEDRAL>
0

>  <SCORE.SYSTEM.SOLV>
0

>  <SCORE.SYSTEM.norm>
0

>  <SCORE.heavy>
46

>  <SCORE.norm>
-1.01802

>  <RMSD>
0.393

$$$$
ligand
 OpenBabel02271912143D
libRbt.so/2013.1/901 2013/11/27
 46 52  0  0  0  0  0  0  0  0999 V2000
  159.8300   46.1773  143.5305 P   0  0  1  0  0  0  0  0  0  0  0  0
  158.0725   42.1834  147.1898 P   0  0  1  0  0  0  0  0  0  0  0  0
  159.3661   45.9979  142.1079 O   0  5  0  0  0  0  0  0  0  0  0  0
  160.5207   47.4823  143.8613 O   0  0  0  0  0  0  0  0  0  0  0  0
  158.3444   46.7249  145.6500 C   0  0  0  0  0  0  0  0  0  0  0  0
  158.5794   45.9142  144.5061 O   0  0  0  0  0  0  0  0  0  0  0  0
  157.3657   46.0337  146.5850 C   0  0  1  0  0  0  0  0  0  0  0  0
  156.0971   46.6539  146.4300 O   0  0  0  0  0  0  0  0  0  0  0  0
  157.1473   44.5477  146.3298 C   0  0  1  0  0  0  0  0  0  0  0  0
  157.8489   43.7876  147.3026 O   0  0  0  0  0  0  0  0  0  0  0  0
  155.6655   44.3632  146.5688 C   0  0  1  0  0  0  0  0  0  0  0  0
  155.4369   44.0482  147.9437 O   0  0  0  0  0  0  0  0  0  0  0  0
  155.0449   45.7075  146.3211 C   0  0  2  0  0  0  0  0  0  0  0  0
  160.6993   41.5731  142.4867 C   0  0  1  0  0  0  0  0  0  0  0  0
  151.1175   44.3480  143.1158 N   0  0  0  0  0  0  0  0  0  0  0  0
  151.2896   44.1032  144.4286 C   0  0  1  0  0  0  0  0  0  0  0  0
  160.5331   43.0697  142.3253 C   0  0  2  0  0  0  0  0  0  0  0  0
  150.3444   43.4039  145.0958 N   0  0  0  0  0  0  0  0  0  0  0  0
  161.7584   43.5827  141.7950 O   0  0  0  0  0  0  0  0  0  0  0  0
  160.2866   43.6006  143.7251 C   0  0  2  0  0  0  0  0  0  0  0  0
  152.3684   44.5178  145.1308 N   0  0  0  0  0  0  0  0  0  0  0  0
  160.7876   44.9279  143.8784 O   0  0  0  0  0  0  0  0  0  0  0  0
  153.3569   45.2184  144.5350 C   0  0  2  0  0  0  0  0  0  0  0  0
  161.0396   42.5937  144.5917 C   0  0  2  0  0  0  0  0  0  0  0  0
  161.1247   41.3819  143.8386 O   0  0  0  0  0  0  0  0  0  0  0  0
  153.2364   45.5201  143.1052 C   0  0  2  0  0  0  0  0  0  0  0  0
  160.3989   42.3008  145.9520 C   0  0  0  0  0  0  0  0  0  0  0  0
  158.9956   42.0546  145.8705 O   0  0  0  0  0  0  0  0  0  0  0  0
  152.0264   45.0337  142.4015 C   0  0  0  0  0  0  0  0  0  0  0  0
  151.8698   45.2656  141.1785 O   0  0  0  0  0  0  0  0  0  0  0  0
  154.3423   46.2104  142.7748 N   0  0  0  0  0  0  0  0  0  0  0  0
  155.1025   46.3430  143.8882 C   0  0  0  0  0  0  0  0  0  0  0  0
  154.5105   45.7498  144.9394 N   0  0  1  0  0  0  0  0  0  0  0  0
  156.3451   41.1498  139.5714 N   0  0  0  0  0  0  0  0  0  0  0  0
  158.8820   41.7855  148.4098 O   0  5  0  0  0  0  0  0  0  0  0  0
  157.4234   41.9298  139.3993 C   0  0  2  0  0  0  0  0  0  0  0  0
  157.4350   42.7408  138.3309 N   0  0  0  0  0  0  0  0  0  0  0  0
  156.7520   41.5192  146.8845 O   0  0  0  0  0  0  0  0  0  0  0  0
  158.4862   41.9343  140.2377 N   0  0  0  0  0  0  0  0  0  0  0  0
  158.5124   41.1282  141.3197 C   0  0  1  0  0  0  0  0  0  0  0  0
  157.3543   40.2457  141.5657 C   0  0  1  0  0  0  0  0  0  0  0  0
  156.2348   40.2967  140.5911 C   0  0  0  0  0  0  0  0  0  0  0  0
  155.2084   39.5942  140.7135 O   0  0  0  0  0  0  0  0  0  0  0  0
  157.6339   39.5568  142.6835 N   0  0  0  0  0  0  0  0  0  0  0  0
  158.8586   39.9696  143.1135 C   0  0  0  0  0  0  0  0  0  0  0  0
  159.3872   40.9054  142.3002 N   0  0  2  0  0  0  0  0  0  0  0  0
  1  3  1  6  0  0  0
  1  4  2  0  0  0  0
  1  6  1  0  0  0  0
  1 22  1  0  0  0  0
  2 28  1  0  0  0  0
  2 35  1  1  0  0  0
  2 38  2  0  0  0  0
  2 10  1  0  0  0  0
  5  6  1  0  0  0  0
  7  5  1  6  0  0  0
  7  8  1  0  0  0  0
  7  9  1  0  0  0  0
  9 10  1  1  0  0  0
  9 11  1  0  0  0  0
 11 12  1  1  0  0  0
 11 13  1  0  0  0  0
 13  8  1  6  0  0  0
 13 33  1  0  0  0  0
 14 46  1  0  0  0  0
 14 17  1  0  0  0  0
 14 25  1  1  0  0  0
 15 16  1  0  0  0  0
 15 29  1  0  0  0  0
 16 18  1  6  0  0  0
 16 21  1  0  0  0  0
 17 19  1  1  0  0  0
 17 20  1  0  0  0  0
 20 22  1  6  0  0  0
 20 24  1  0  0  0  0
 23 21  1  6  0  0  0
 23 26  1  0  0  0  0
 23 33  1  0  0  0  0
 24 25  1  6  0  0  0
 24 27  1  0  0  0  0
 26 29  1  6  0  0  0
 26 31  1  0  0  0  0
 27 28  1  0  0  0  0
 29 30  2  0  0  0  0
 31 32  1  0  0  0  0
 33 32  1  1  0  0  0
 34 36  1  0  0  0  0
 34 42  1  0  0  0  0
 36 37  1  6  0  0  0
 36 39  1  0  0  0  0
 40 39  1  6  0  0  0
 40 41  1  0  0  0  0
 40 46  1  0  0  0  0
 41 42  1  6  0  0  0
 41 44  1  0  0  0  0
 42 43  2  0  0  0  0
 44 45  1  0  0  0  0
 46 45  1  1  0  0  0
M  CHG  2   3  -1  35  -1
M  END
>  <CHROM.1>
-165.23894608,46.99746508,157.19527989,43.60397395,143.93364807,-0.28155896
-0.18492651,1.03068912

>  <Name>
ligand

>  <RI>
0

>  <Rbt.Current_Directory>
/home/itssahil/PROJECTS/Mol_Feturizer/Test_systems_manuscript/rnas/4yb0

>  <Rbt.Executable>
rbdock ($Id: //depot/dev/client3/rdock/2013.1/src/exe/rbdock.cxx#4 $)

>  <Rbt.Library>
libRbt.so (2013.1, Build901 2013/11/27)

>  <Rbt.Parameter_File>
/export/apps/rDock/src/rDock_2013.1_src/data/scripts/dock_solv.prm

>  <Rbt.Receptor>
prm/pocket_docking_3.prm

>  <SCORE>
-46.8525

>  <SCORE.INTER>
-46.8611

>  <SCORE.INTER.CONST>
1

>  <SCORE.INTER.POLAR>
0

>  <SCORE.INTER.ROT>
2

>  <SCORE.INTER.SOLV>
39.1316

>  <SCORE.INTER.VDW>
-49.2179

>  <SCORE.INTER.norm>
-1.01872

>  <SCORE.INTRA>
0.0086042

>  <SCORE.INTRA.DIHEDRAL>
0.0120981

>  <SCORE.INTRA.DIHEDRAL.0>
2.42188

>  <SCORE.INTRA.POLAR>
0

>  <SCORE.INTRA.POLAR.0>
0

>  <SCORE.INTRA.REPUL>
0

>  <SCORE.INTRA.REPUL.0>
0

>  <SCORE.INTRA.SOLV>
0.00152756

>  <SCORE.INTRA.SOLV.lig_0>
-127.307

>  <SCORE.INTRA.VDW>
0.00179136

>  <SCORE.INTRA.VDW.0>
-2.19936

>  <SCORE.INTRA.norm>
0.000187048

>  <SCORE.RESTR>
0

>  <SCORE.RESTR.CAVITY>
0

>  <SCORE.RESTR.norm>
0

>  <SCORE.SYSTEM>
0

>  <SCORE.SYSTEM.CONST>
0

>  <SCORE.SYSTEM.DIHEDRAL>
0

>  <SCORE.SYSTEM.SOLV>
0

>  <SCORE.SYSTEM.norm>
0

>  <SCORE.heavy>
46

>  <SCORE.norm>
-1.01853

>  <RMSD>
0.394

$$$$
ligand
 OpenBabel02271912143D
libRbt.so/2013.1/901 2013/11/27
 46 52  0  0  0  0  0  0  0  0999 V2000
  159.8410   46.1452  143.5134 P   0  0  1  0  0  0  0  0  0  0  0  0
  158.0721   42.1690  147.1864 P   0  0  1  0  0  0  0  0  0  0  0  0
  159.3724   45.9651  142.0924 O   0  5  0  0  0  0  0  0  0  0  0  0
  160.5396   47.4472  143.8395 O   0  0  0  0  0  0  0  0  0  0  0  0
  158.3640   46.7055  145.6356 C   0  0  0  0  0  0  0  0  0  0  0  0
  158.5916   45.8909  144.4929 O   0  0  0  0  0  0  0  0  0  0  0  0
  157.3842   46.0216  146.5747 C   0  0  1  0  0  0  0  0  0  0  0  0
  156.1185   46.6482  146.4218 O   0  0  0  0  0  0  0  0  0  0  0  0
  157.1572   44.5363  146.3235 C   0  0  1  0  0  0  0  0  0  0  0  0
  157.8573   43.7746  147.2962 O   0  0  0  0  0  0  0  0  0  0  0  0
  155.6751   44.3602  146.5669 C   0  0  1  0  0  0  0  0  0  0  0  0
  155.4484   44.0496  147.9431 O   0  0  0  0  0  0  0  0  0  0  0  0
  155.0610   45.7072  146.3178 C   0  0  2  0  0  0  0  0  0  0  0  0
  160.6829   41.5340  142.4778 C   0  0  1  0  0  0  0  0  0  0  0  0
  151.1233   44.3513  143.1236 N   0  0  0  0  0  0  0  0  0  0  0  0
  151.2984   44.1072  144.4362 C   0  0  1  0  0  0  0  0  0  0  0  0
  160.5243   43.0311  142.3134 C   0  0  2  0  0  0  0  0  0  0  0  0
  150.3539   43.4099  145.1062 N   0  0  0  0  0  0  0  0  0  0  0  0
  161.7509   43.5364  141.7787 O   0  0  0  0  0  0  0  0  0  0  0  0
  160.2844   43.5665  143.7126 C   0  0  2  0  0  0  0  0  0  0  0  0
  152.3796   44.5207  145.1352 N   0  0  0  0  0  0  0  0  0  0  0  0
  160.7929   44.8914  143.8616 O   0  0  0  0  0  0  0  0  0  0  0  0
  153.3676   45.2193  144.5364 C   0  0  2  0  0  0  0  0  0  0  0  0
  161.0343   42.5575  144.5795 C   0  0  2  0  0  0  0  0  0  0  0  0
  161.1109   41.3436  143.8290 O   0  0  0  0  0  0  0  0  0  0  0  0
  153.2440   45.5201  143.1067 C   0  0  2  0  0  0  0  0  0  0  0  0
  160.3957   42.2712  145.9421 C   0  0  0  0  0  0  0  0  0  0  0  0
  158.9909   42.0323  145.8649 O   0  0  0  0  0  0  0  0  0  0  0  0
  152.0314   45.0350  142.4064 C   0  0  0  0  0  0  0  0  0  0  0  0
  151.8721   45.2661  141.1837 O   0  0  0  0  0  0  0  0  0  0  0  0
  154.3501   46.2085  142.7729 N   0  0  0  0  0  0  0  0  0  0  0  0
  155.1134   46.3407  143.8843 C   0  0  0  0  0  0  0  0  0  0  0  0
  154.5231   45.7492  144.9374 N   0  0  1  0  0  0  0  0  0  0  0  0
  156.3729   41.0377  139.5087 N   0  0  0  0  0  0  0  0  0  0  0  0
  158.8826   41.7695  148.4052 O   0  5  0  0  0  0  0  0  0  0  0  0
  157.4626   41.7988  139.3234 C   0  0  2  0  0  0  0  0  0  0  0  0
  157.5007   42.5656  138.2235 N   0  0  0  0  0  0  0  0  0  0  0  0
  156.7472   41.5111  146.8861 O   0  0  0  0  0  0  0  0  0  0  0  0
  158.5113   41.8264  140.1788 N   0  0  0  0  0  0  0  0  0  0  0  0
  158.5108   41.0648  141.2929 C   0  0  1  0  0  0  0  0  0  0  0  0
  157.3391   40.2050  141.5547 C   0  0  1  0  0  0  0  0  0  0  0  0
  156.2365   40.2280  140.5601 C   0  0  0  0  0  0  0  0  0  0  0  0
  155.2005   39.5417  140.6934 O   0  0  0  0  0  0  0  0  0  0  0  0
  157.5926   39.5593  142.7041 N   0  0  0  0  0  0  0  0  0  0  0  0
  158.8145   39.9765  143.1377 C   0  0  0  0  0  0  0  0  0  0  0  0
  159.3668   40.8729  142.2962 N   0  0  2  0  0  0  0  0  0  0  0  0
  1  3  1  6  0  0  0
  1  4  2  0  0  0  0
  1  6  1  0  0  0  0
  1 22  1  0  0  0  0
  2 28  1  0  0  0  0
  2 35  1  1  0  0  0
  2 38  2  0  0  0  0
  2 10  1  0  0  0  0
  5  6  1  0  0  0  0
  7  5  1  6  0  0  0
  7  8  1  0  0  0  0
  7  9  1  0  0  0  0
  9 10  1  1  0  0  0
  9 11  1  0  0  0  0
 11 12  1  1  0  0  0
 11 13  1  0  0  0  0
 13  8  1  6  0  0  0
 13 33  1  0  0  0  0
 14 46  1  0  0  0  0
 14 17  1  0  0  0  0
 14 25  1  1  0  0  0
 15 16  1  0  0  0  0
 15 29  1  0  0  0  0
 16 18  1  6  0  0  0
 16 21  1  0  0  0  0
 17 19  1  1  0  0  0
 17 20  1  0  0  0  0
 20 22  1  6  0  0  0
 20 24  1  0  0  0  0
 23 21  1  6  0  0  0
 23 26  1  0  0  0  0
 23 33  1  0  0  0  0
 24 25  1  6  0  0  0
 24 27  1  0  0  0  0
 26 29  1  6  0  0  0
 26 31  1  0  0  0  0
 27 28  1  0  0  0  0
 29 30  2  0  0  0  0
 31 32  1  0  0  0  0
 33 32  1  1  0  0  0
 34 36  1  0  0  0  0
 34 42  1  0  0  0  0
 36 37  1  6  0  0  0
 36 39  1  0  0  0  0
 40 39  1  6  0  0  0
 40 41  1  0  0  0  0
 40 46  1  0  0  0  0
 41 42  1  6  0  0  0
 41 44  1  0  0  0  0
 42 43  2  0  0  0  0
 44 45  1  0  0  0  0
 46 45  1  1  0  0  0
M  CHG  2   3  -1  35  -1
M  END
>  <CHROM.1>
-165.47332563,49.47756523,157.20019700,43.57597123,143.92187632,-0.30850195
-0.18576811,1.02412125

>  <Name>
ligand

>  <RI>
0

>  <Rbt.Current_Directory>
/home/itssahil/PROJECTS/Mol_Feturizer/Test_systems_manuscript/rnas/4yb0

>  <Rbt.Executable>
rbdock ($Id: //depot/dev/client3/rdock/2013.1/src/exe/rbdock.cxx#4 $)

>  <Rbt.Library>
libRbt.so (2013.1, Build901 2013/11/27)

>  <Rbt.Parameter_File>
/export/apps/rDock/src/rDock_2013.1_src/data/scripts/dock_solv.prm

>  <Rbt.Receptor>
prm/pocket_docking_3.prm

>  <SCORE>
-46.8409

>  <SCORE.INTER>
-46.8368

>  <SCORE.INTER.CONST>
1

>  <SCORE.INTER.POLAR>
0

>  <SCORE.INTER.ROT>
2

>  <SCORE.INTER.SOLV>
39.4697

>  <SCORE.INTER.VDW>
-49.3144

>  <SCORE.INTER.norm>
-1.01819

>  <SCORE.INTRA>
-0.00418362

>  <SCORE.INTRA.DIHEDRAL>
0.00865166

>  <SCORE.INTRA.DIHEDRAL.0>
2.42188

>  <SCORE.INTRA.POLAR>
0

>  <SCORE.INTRA.POLAR.0>
0

>  <SCORE.INTRA.REPUL>
0

>  <SCORE.INTRA.REPUL.0>
0

>  <SCORE.INTRA.SOLV>
0.000334671

>  <SCORE.INTRA.SOLV.lig_0>
-127.307

>  <SCORE.INTRA.VDW>
-0.00867679

>  <SCORE.INTRA.VDW.0>
-2.19936

>  <SCORE.INTRA.norm>
-9.09483e-05

>  <SCORE.RESTR>
0

>  <SCORE.RESTR.CAVITY>
0

>  <SCORE.RESTR.norm>
0

>  <SCORE.SYSTEM>
0

>  <SCORE.SYSTEM.CONST>
0

>  <SCORE.SYSTEM.DIHEDRAL>
0

>  <SCORE.SYSTEM.SOLV>
0

>  <SCORE.SYSTEM.norm>
0

>  <SCORE.heavy>
46

>  <SCORE.norm>
-1.01828

>  <RMSD>
0.394

$$$$
ligand
 OpenBabel02271912143D
libRbt.so/2013.1/901 2013/11/27
 46 52  0  0  0  0  0  0  0  0999 V2000
  159.8031   46.1879  143.4840 P   0  0  1  0  0  0  0  0  0  0  0  0
  158.0968   42.1915  147.1648 P   0  0  1  0  0  0  0  0  0  0  0  0
  159.3342   45.9997  142.0642 O   0  5  0  0  0  0  0  0  0  0  0  0
  160.4842   47.4998  143.8074 O   0  0  0  0  0  0  0  0  0  0  0  0
  158.3227   46.7299  145.6086 C   0  0  0  0  0  0  0  0  0  0  0  0
  158.5593   45.9174  144.4663 O   0  0  0  0  0  0  0  0  0  0  0  0
  157.3543   46.0335  146.5504 C   0  0  1  0  0  0  0  0  0  0  0  0
  156.0798   46.6423  146.3994 O   0  0  0  0  0  0  0  0  0  0  0  0
  157.1475   44.5449  146.3012 C   0  0  1  0  0  0  0  0  0  0  0  0
  157.8600   43.7940  147.2733 O   0  0  0  0  0  0  0  0  0  0  0  0
  155.6684   44.3486  146.5477 C   0  0  1  0  0  0  0  0  0  0  0  0
  155.4488   44.0363  147.9248 O   0  0  0  0  0  0  0  0  0  0  0  0
  155.0352   45.6866  146.2985 C   0  0  2  0  0  0  0  0  0  0  0  0
  160.7068   41.5877  142.4516 C   0  0  1  0  0  0  0  0  0  0  0  0
  151.0902   44.3097  143.1224 N   0  0  0  0  0  0  0  0  0  0  0  0
  151.2684   44.0741  144.4361 C   0  0  1  0  0  0  0  0  0  0  0  0
  160.5271   43.0823  142.2859 C   0  0  2  0  0  0  0  0  0  0  0  0
  150.3256   43.3810  145.1129 N   0  0  0  0  0  0  0  0  0  0  0  0
  161.7455   43.6039  141.7483 O   0  0  0  0  0  0  0  0  0  0  0  0
  160.2826   43.6158  143.6851 C   0  0  2  0  0  0  0  0  0  0  0  0
  152.3512   44.4922  145.1299 N   0  0  0  0  0  0  0  0  0  0  0  0
  160.7730   44.9478  143.8317 O   0  0  0  0  0  0  0  0  0  0  0  0
  153.3377   45.1871  144.5243 C   0  0  2  0  0  0  0  0  0  0  0  0
  161.0482   42.6182  144.5515 C   0  0  2  0  0  0  0  0  0  0  0  0
  161.1401   41.4047  143.8021 O   0  0  0  0  0  0  0  0  0  0  0  0
  153.2106   45.4786  143.0930 C   0  0  2  0  0  0  0  0  0  0  0  0
  160.4163   42.3245  145.9157 C   0  0  0  0  0  0  0  0  0  0  0  0
  159.0148   42.0661  145.8416 O   0  0  0  0  0  0  0  0  0  0  0  0
  151.9965   44.9889  142.3987 C   0  0  0  0  0  0  0  0  0  0  0  0
  151.8342   45.2122  141.1749 O   0  0  0  0  0  0  0  0  0  0  0  0
  154.3159   46.1651  142.7521 N   0  0  0  0  0  0  0  0  0  0  0  0
  155.0817   46.3046  143.8608 C   0  0  0  0  0  0  0  0  0  0  0  0
  154.4940   45.7197  144.9191 N   0  0  1  0  0  0  0  0  0  0  0  0
  156.4542   40.9370  139.4301 N   0  0  0  0  0  0  0  0  0  0  0  0
  158.9152   41.8046  148.3823 O   0  5  0  0  0  0  0  0  0  0  0  0
  157.5406   41.7001  139.2340 C   0  0  2  0  0  0  0  0  0  0  0  0
  157.5917   42.4235  138.1056 N   0  0  0  0  0  0  0  0  0  0  0  0
  156.7806   41.5150  146.8678 O   0  0  0  0  0  0  0  0  0  0  0  0
  158.5738   41.7705  140.1056 N   0  0  0  0  0  0  0  0  0  0  0  0
  158.5599   41.0530  141.2486 C   0  0  1  0  0  0  0  0  0  0  0  0
  157.3910   40.1937  141.5237 C   0  0  1  0  0  0  0  0  0  0  0  0
  156.3059   40.1678  140.5099 C   0  0  0  0  0  0  0  0  0  0  0  0
  155.2735   39.4780  140.6521 O   0  0  0  0  0  0  0  0  0  0  0  0
  157.6295   39.5957  142.7017 N   0  0  0  0  0  0  0  0  0  0  0  0
  158.8401   40.0405  143.1397 C   0  0  0  0  0  0  0  0  0  0  0  0
  159.3996   40.9082  142.2734 N   0  0  2  0  0  0  0  0  0  0  0  0
  1  3  1  6  0  0  0
  1  4  2  0  0  0  0
  1  6  1  0  0  0  0
  1 22  1  0  0  0  0
  2 28  1  0  0  0  0
  2 35  1  1  0  0  0
  2 38  2  0  0  0  0
  2 10  1  0  0  0  0
  5  6  1  0  0  0  0
  7  5  1  6  0  0  0
  7  8  1  0  0  0  0
  7  9  1  0  0  0  0
  9 10  1  1  0  0  0
  9 11  1  0  0  0  0
 11 12  1  1  0  0  0
 11 13  1  0  0  0  0
 13  8  1  6  0  0  0
 13 33  1  0  0  0  0
 14 46  1  0  0  0  0
 14 17  1  0  0  0  0
 14 25  1  1  0  0  0
 15 16  1  0  0  0  0
 15 29  1  0  0  0  0
 16 18  1  6  0  0  0
 16 21  1  0  0  0  0
 17 19  1  1  0  0  0
 17 20  1  0  0  0  0
 20 22  1  6  0  0  0
 20 24  1  0  0  0  0
 23 21  1  6  0  0  0
 23 26  1  0  0  0  0
 23 33  1  0  0  0  0
 24 25  1  6  0  0  0
 24 27  1  0  0  0  0
 26 29  1  6  0  0  0
 26 31  1  0  0  0  0
 27 28  1  0  0  0  0
 29 30  2  0  0  0  0
 31 32  1  0  0  0  0
 33 32  1  1  0  0  0
 34 36  1  0  0  0  0
 34 42  1  0  0  0  0
 36 37  1  6  0  0  0
 36 39  1  0  0  0  0
 40 39  1  6  0  0  0
 40 41  1  0  0  0  0
 40 46  1  0  0  0  0
 41 42  1  6  0  0  0
 41 44  1  0  0  0  0
 42 43  2  0  0  0  0
 44 45  1  0  0  0  0
 46 45  1  1  0  0  0
M  CHG  2   3  -1  35  -1
M  END
>  <CHROM.1>
-164.62913456,51.94847433,157.20290363,43.57677608,143.89474085,-0.32922852
-0.17375787,1.02112168

>  <Name>
ligand

>  <RI>
0

>  <Rbt.Current_Directory>
/home/itssahil/PROJECTS/Mol_Feturizer/Test_systems_manuscript/rnas/4yb0

>  <Rbt.Executable>
rbdock ($Id: //depot/dev/client3/rdock/2013.1/src/exe/rbdock.cxx#4 $)

>  <Rbt.Library>
libRbt.so (2013.1, Build901 2013/11/27)

>  <Rbt.Parameter_File>
/export/apps/rDock/src/rDock_2013.1_src/data/scripts/dock_solv.prm

>  <Rbt.Receptor>
prm/pocket_docking_4.prm

>  <SCORE>
-46.6392

>  <SCORE.INTER>
-46.5982

>  <SCORE.INTER.CONST>
1

>  <SCORE.INTER.POLAR>
0

>  <SCORE.INTER.ROT>
2

>  <SCORE.INTER.SOLV>
39.7492

>  <SCORE.INTER.VDW>
-49.2485

>  <SCORE.INTER.norm>
-1.013

>  <SCORE.INTRA>
-0.0409871

>  <SCORE.INTRA.DIHEDRAL>
0.0059022

>  <SCORE.INTRA.DIHEDRAL.0>
2.42188

>  <SCORE.INTRA.POLAR>
0

>  <SCORE.INTRA.POLAR.0>
0

>  <SCORE.INTRA.REPUL>
0

>  <SCORE.INTRA.REPUL.0>
0

>  <SCORE.INTRA.SOLV>
-0.00125826

>  <SCORE.INTRA.SOLV.lig_0>
-127.307

>  <SCORE.INTRA.VDW>
-0.0433091

>  <SCORE.INTRA.VDW.0>
-2.19936

>  <SCORE.INTRA.norm>
-0.000891024

>  <SCORE.RESTR>
0

>  <SCORE.RESTR.CAVITY>
0

>  <SCORE.RESTR.norm>
0

>  <SCORE.SYSTEM>
0

>  <SCORE.SYSTEM.CONST>
0

>  <SCORE.SYSTEM.DIHEDRAL>
0

>  <SCORE.SYSTEM.SOLV>
0

>  <SCORE.SYSTEM.norm>
0

>  <SCORE.heavy>
46

>  <SCORE.norm>
-1.0139

>  <RMSD>
0.413

$$$$
ligand
 OpenBabel02271912143D
libRbt.so/2013.1/901 2013/11/27
 46 52  0  0  0  0  0  0  0  0999 V2000
  159.8027   46.1231  143.4379 P   0  0  1  0  0  0  0  0  0  0  0  0
  158.0791   42.1629  147.1496 P   0  0  1  0  0  0  0  0  0  0  0  0
  159.3170   45.9366  142.0236 O   0  5  0  0  0  0  0  0  0  0  0  0
  160.5049   47.4266  143.7498 O   0  0  0  0  0  0  0  0  0  0  0  0
  158.3513   46.6925  145.5753 C   0  0  0  0  0  0  0  0  0  0  0  0
  158.5653   45.8730  144.4336 O   0  0  0  0  0  0  0  0  0  0  0  0
  157.3830   46.0126  146.5293 C   0  0  1  0  0  0  0  0  0  0  0  0
  156.1155   46.6384  146.3889 O   0  0  0  0  0  0  0  0  0  0  0  0
  157.1533   44.5262  146.2874 C   0  0  1  0  0  0  0  0  0  0  0  0
  157.8653   43.7689  147.2549 O   0  0  0  0  0  0  0  0  0  0  0  0
  155.6743   44.3510  146.5494 C   0  0  1  0  0  0  0  0  0  0  0  0
  155.4643   44.0464  147.9296 O   0  0  0  0  0  0  0  0  0  0  0  0
  155.0570   45.6967  146.3018 C   0  0  2  0  0  0  0  0  0  0  0  0
  160.6330   41.5075  142.4126 C   0  0  1  0  0  0  0  0  0  0  0  0
  151.0785   44.3313  143.1627 N   0  0  0  0  0  0  0  0  0  0  0  0
  151.2691   44.0937  144.4743 C   0  0  1  0  0  0  0  0  0  0  0  0
  160.4720   43.0038  142.2436 C   0  0  2  0  0  0  0  0  0  0  0  0
  150.3316   43.4016  145.1594 N   0  0  0  0  0  0  0  0  0  0  0  0
  161.6920   43.5069  141.6918 O   0  0  0  0  0  0  0  0  0  0  0  0
  160.2489   43.5454  143.6432 C   0  0  2  0  0  0  0  0  0  0  0  0
  152.3594   44.5089  145.1580 N   0  0  0  0  0  0  0  0  0  0  0  0
  160.7590   44.8710  143.7802 O   0  0  0  0  0  0  0  0  0  0  0  0
  153.3413   45.2027  144.5436 C   0  0  2  0  0  0  0  0  0  0  0  0
  161.0095   42.5404  144.5054 C   0  0  2  0  0  0  0  0  0  0  0  0
  161.0773   41.3231  143.7594 O   0  0  0  0  0  0  0  0  0  0  0  0
  153.2008   45.4962  143.1140 C   0  0  2  0  0  0  0  0  0  0  0  0
  160.3875   42.2599  145.8769 C   0  0  0  0  0  0  0  0  0  0  0  0
  158.9819   42.0205  145.8177 O   0  0  0  0  0  0  0  0  0  0  0  0
  151.9790   45.0097  142.4310 C   0  0  0  0  0  0  0  0  0  0  0  0
  151.8052   45.2348  141.2091 O   0  0  0  0  0  0  0  0  0  0  0  0
  154.3040   46.1810  142.7632 N   0  0  0  0  0  0  0  0  0  0  0  0
  155.0809   46.3176  143.8646 C   0  0  0  0  0  0  0  0  0  0  0  0
  154.5024   45.7326  144.9278 N   0  0  1  0  0  0  0  0  0  0  0  0
  156.2642   41.0369  139.5264 N   0  0  0  0  0  0  0  0  0  0  0  0
  158.9044   41.7689  148.3603 O   0  5  0  0  0  0  0  0  0  0  0  0
  157.3481   41.8029  139.3283 C   0  0  2  0  0  0  0  0  0  0  0  0
  157.3620   42.5832  138.2373 N   0  0  0  0  0  0  0  0  0  0  0  0
  156.7508   41.5035  146.8682 O   0  0  0  0  0  0  0  0  0  0  0  0
  158.4141   41.8227  140.1623 N   0  0  0  0  0  0  0  0  0  0  0  0
  158.4381   41.0474  141.2667 C   0  0  1  0  0  0  0  0  0  0  0  0
  157.2740   40.1816  141.5419 C   0  0  1  0  0  0  0  0  0  0  0  0
  156.1512   40.2140  140.5703 C   0  0  0  0  0  0  0  0  0  0  0  0
  155.1196   39.5235  140.7164 O   0  0  0  0  0  0  0  0  0  0  0  0
  157.5524   39.5225  142.6778 N   0  0  0  0  0  0  0  0  0  0  0  0
  158.7820   39.9374  143.0914 C   0  0  0  0  0  0  0  0  0  0  0  0
  159.3149   40.8454  142.2499 N   0  0  2  0  0  0  0  0  0  0  0  0
  1  3  1  6  0  0  0
  1  4  2  0  0  0  0
  1  6  1  0  0  0  0
  1 22  1  0  0  0  0
  2 28  1  0  0  0  0
  2 35  1  1  0  0  0
  2 38  2  0  0  0  0
  2 10  1  0  0  0  0
  5  6  1  0  0  0  0
  7  5  1  6  0  0  0
  7  8  1  0  0  0  0
  7  9  1  0  0  0  0
  9 10  1  1  0  0  0
  9 11  1  0  0  0  0
 11 12  1  1  0  0  0
 11 13  1  0  0  0  0
 13  8  1  6  0  0  0
 13 33  1  0  0  0  0
 14 46  1  0  0  0  0
 14 17  1  0  0  0  0
 14 25  1  1  0  0  0
 15 16  1  0  0  0  0
 15 29  1  0  0  0  0
 16 18  1  6  0  0  0
 16 21  1  0  0  0  0
 17 19  1  1  0  0  0
 17 20  1  0  0  0  0
 20 22  1  6  0  0  0
 20 24  1  0  0  0  0
 23 21  1  6  0  0  0
 23 26  1  0  0  0  0
 23 33  1  0  0  0  0
 24 25  1  6  0  0  0
 24 27  1  0  0  0  0
 26 29  1  6  0  0  0
 26 31  1  0  0  0  0
 27 28  1  0  0  0  0
 29 30  2  0  0  0  0
 31 32  1  0  0  0  0
 33 32  1  1  0  0  0
 34 36  1  0  0  0  0
 34 42  1  0  0  0  0
 36 37  1  6  0  0  0
 36 39  1  0  0  0  0
 40 39  1  6  0  0  0
 40 41  1  0  0  0  0
 40 46  1  0  0  0  0
 41 42  1  6  0  0  0
 41 44  1  0  0  0  0
 42 43  2  0  0  0  0
 44 45  1  0  0  0  0
 46 45  1  1  0  0  0
M  CHG  2   3  -1  35  -1
M  END
>  <CHROM.1>
-165.35461035,48.39989224,157.16469371,43.56015215,143.89289925,-0.30921189
-0.18041048,1.01939740

>  <Name>
ligand

>  <RI>
0

>  <Rbt.Current_Directory>
/home/itssahil/PROJECTS/Mol_Feturizer/Test_systems_manuscript/rnas/4yb0

>  <Rbt.Executable>
rbdock ($Id: //depot/dev/client3/rdock/2013.1/src/exe/rbdock.cxx#4 $)

>  <Rbt.Library>
libRbt.so (2013.1, Build901 2013/11/27)

>  <Rbt.Parameter_File>
/export/apps/rDock/src/rDock_2013.1_src/data/scripts/dock_solv.prm

>  <Rbt.Receptor>
prm/pocket_docking_8.prm

>  <SCORE>
-46.76

>  <SCORE.INTER>
-46.7514

>  <SCORE.INTER.CONST>
1

>  <SCORE.INTER.POLAR>
0

>  <SCORE.INTER.ROT>
2

>  <SCORE.INTER.SOLV>
40.163

>  <SCORE.INTER.VDW>
-49.4886

>  <SCORE.INTER.norm>
-1.01633

>  <SCORE.INTRA>
-0.00859293

>  <SCORE.INTRA.DIHEDRAL>
0.0101989

>  <SCORE.INTRA.DIHEDRAL.0>
2.42188

>  <SCORE.INTRA.POLAR>
0

>  <SCORE.INTRA.POLAR.0>
0

>  <SCORE.INTRA.REPUL>
0

>  <SCORE.INTRA.REPUL.0>
0

>  <SCORE.INTRA.SOLV>
0.000846767

>  <SCORE.INTRA.SOLV.lig_0>
-127.307

>  <SCORE.INTRA.VDW>
-0.0141157

>  <SCORE.INTRA.VDW.0>
-2.19936

>  <SCORE.INTRA.norm>
-0.000186803

>  <SCORE.RESTR>
0

>  <SCORE.RESTR.CAVITY>
0

>  <SCORE.RESTR.norm>
0

>  <SCORE.SYSTEM>
0

>  <SCORE.SYSTEM.CONST>
0

>  <SCORE.SYSTEM.DIHEDRAL>
0

>  <SCORE.SYSTEM.SOLV>
0

>  <SCORE.SYSTEM.norm>
0

>  <SCORE.heavy>
46

>  <SCORE.norm>
-1.01652

>  <RMSD>
0.418

$$$$
ligand
 OpenBabel02271912143D
libRbt.so/2013.1/901 2013/11/27
 46 52  0  0  0  0  0  0  0  0999 V2000
  159.8122   46.1738  143.5983 P   0  0  1  0  0  0  0  0  0  0  0  0
  158.0216   42.1641  147.2242 P   0  0  1  0  0  0  0  0  0  0  0  0
  159.3612   46.0007  142.1708 O   0  5  0  0  0  0  0  0  0  0  0  0
  160.4999   47.4773  143.9411 O   0  0  0  0  0  0  0  0  0  0  0  0
  158.3074   46.7123  145.7067 C   0  0  0  0  0  0  0  0  0  0  0  0
  158.5528   45.9065  144.5614 O   0  0  0  0  0  0  0  0  0  0  0  0
  157.3203   46.0170  146.6298 C   0  0  1  0  0  0  0  0  0  0  0  0
  156.0532   46.6379  146.4661 O   0  0  0  0  0  0  0  0  0  0  0  0
  157.1043   44.5322  146.3661 C   0  0  1  0  0  0  0  0  0  0  0  0
  157.7970   43.7678  147.3420 O   0  0  0  0  0  0  0  0  0  0  0  0
  155.6203   44.3468  146.5909 C   0  0  1  0  0  0  0  0  0  0  0  0
  155.3793   44.0258  147.9624 O   0  0  0  0  0  0  0  0  0  0  0  0
  155.0020   45.6921  146.3436 C   0  0  2  0  0  0  0  0  0  0  0  0
  160.6907   41.5741  142.5424 C   0  0  1  0  0  0  0  0  0  0  0  0
  151.0257   44.5007  143.1317 N   0  0  0  0  0  0  0  0  0  0  0  0
  151.1748   44.2693  144.4498 C   0  0  1  0  0  0  0  0  0  0  0  0
  160.5260   43.0714  142.3860 C   0  0  2  0  0  0  0  0  0  0  0  0
  150.1873   43.6362  145.1214 N   0  0  0  0  0  0  0  0  0  0  0  0
  161.7561   43.5867  141.8691 O   0  0  0  0  0  0  0  0  0  0  0  0
  160.2669   43.5963  143.7858 C   0  0  2  0  0  0  0  0  0  0  0  0
  152.2706   44.6346  145.1530 N   0  0  0  0  0  0  0  0  0  0  0  0
  160.7666   44.9228  143.9495 O   0  0  0  0  0  0  0  0  0  0  0  0
  153.3011   45.2680  144.5531 C   0  0  2  0  0  0  0  0  0  0  0  0
  161.0121   42.5855  144.6548 C   0  0  2  0  0  0  0  0  0  0  0  0
  161.1039   41.3770  143.8973 O   0  0  0  0  0  0  0  0  0  0  0  0
  153.2074   45.5511  143.1175 C   0  0  2  0  0  0  0  0  0  0  0  0
  160.3591   42.2868  146.0079 C   0  0  0  0  0  0  0  0  0  0  0  0
  158.9566   42.0410  145.9127 O   0  0  0  0  0  0  0  0  0  0  0  0
  151.9766   45.1216  142.4128 C   0  0  0  0  0  0  0  0  0  0  0  0
  151.8415   45.3406  141.1849 O   0  0  0  0  0  0  0  0  0  0  0  0
  154.3527   46.1722  142.7839 N   0  0  0  0  0  0  0  0  0  0  0  0
  155.1118   46.2810  143.9007 C   0  0  0  0  0  0  0  0  0  0  0  0
  154.4801   45.7404  144.9572 N   0  0  1  0  0  0  0  0  0  0  0  0
  156.4177   41.0761  139.5207 N   0  0  0  0  0  0  0  0  0  0  0  0
  158.8200   41.7609  148.4497 O   0  5  0  0  0  0  0  0  0  0  0  0
  157.5053   41.8443  139.3533 C   0  0  2  0  0  0  0  0  0  0  0  0
  157.5518   42.6191  138.2594 N   0  0  0  0  0  0  0  0  0  0  0  0
  156.7039   41.5013  146.9040 O   0  0  0  0  0  0  0  0  0  0  0  0
  158.5440   41.8714  140.2208 N   0  0  0  0  0  0  0  0  0  0  0  0
  158.5349   41.1018  141.3294 C   0  0  1  0  0  0  0  0  0  0  0  0
  157.3650   40.2339  141.5717 C   0  0  1  0  0  0  0  0  0  0  0  0
  156.2737   40.2581  140.5646 C   0  0  0  0  0  0  0  0  0  0  0  0
  155.2400   39.5654  140.6812 O   0  0  0  0  0  0  0  0  0  0  0  0
  157.6088   39.5813  142.7193 N   0  0  0  0  0  0  0  0  0  0  0  0
  158.8234   40.0020  143.1698 C   0  0  0  0  0  0  0  0  0  0  0  0
  159.3804   40.9073  142.3411 N   0  0  2  0  0  0  0  0  0  0  0  0
  1  3  1  6  0  0  0
  1  4  2  0  0  0  0
  1  6  1  0  0  0  0
  1 22  1  0  0  0  0
  2 28  1  0  0  0  0
  2 35  1  1  0  0  0
  2 38  2  0  0  0  0
  2 10  1  0  0  0  0
  5  6  1  0  0  0  0
  7  5  1  6  0  0  0
  7  8  1  0  0  0  0
  7  9  1  0  0  0  0
  9 10  1  1  0  0  0
  9 11  1  0  0  0  0
 11 12  1  1  0  0  0
 11 13  1  0  0  0  0
 13  8  1  6  0  0  0
 13 33  1  0  0  0  0
 14 46  1  0  0  0  0
 14 17  1  0  0  0  0
 14 25  1  1  0  0  0
 15 16  1  0  0  0  0
 15 29  1  0  0  0  0
 16 18  1  6  0  0  0
 16 21  1  0  0  0  0
 17 19  1  1  0  0  0
 17 20  1  0  0  0  0
 20 22  1  6  0  0  0
 20 24  1  0  0  0  0
 23 21  1  6  0  0  0
 23 26  1  0  0  0  0
 23 33  1  0  0  0  0
 24 25  1  6  0  0  0
 24 27  1  0  0  0  0
 26 29  1  6  0  0  0
 26 31  1  0  0  0  0
 27 28  1  0  0  0  0
 29 30  2  0  0  0  0
 31 32  1  0  0  0  0
 33 32  1  1  0  0  0
 34 36  1  0  0  0  0
 34 42  1  0  0  0  0
 36 37  1  6  0  0  0
 36 39  1  0  0  0  0
 40 39  1  6  0  0  0
 40 41  1  0  0  0  0
 40 46  1  0  0  0  0
 41 42  1  6  0  0  0
 41 44  1  0  0  0  0
 42 43  2  0  0  0  0
 44 45  1  0  0  0  0
 46 45  1  1  0  0  0
M  CHG  2   3  -1  35  -1
M  END
>  <CHROM.1>
-161.77818614,49.44250920,157.17135094,43.60609941,143.96306747,-0.30560593
-0.19909782,1.03781491

>  <Name>
ligand

>  <RI>
0

>  <Rbt.Current_Directory>
/home/itssahil/PROJECTS/Mol_Feturizer/Test_systems_manuscript/rnas/4yb0

>  <Rbt.Executable>
rbdock ($Id: //depot/dev/client3/rdock/2013.1/src/exe/rbdock.cxx#4 $)

>  <Rbt.Library>
libRbt.so (2013.1, Build901 2013/11/27)

>  <Rbt.Parameter_File>
/export/apps/rDock/src/rDock_2013.1_src/data/scripts/dock_solv.prm

>  <Rbt.Receptor>
prm/pocket_docking_5.prm

>  <SCORE>
-46.8018

>  <SCORE.INTER>
-46.7714

>  <SCORE.INTER.CONST>
1

>  <SCORE.INTER.POLAR>
0

>  <SCORE.INTER.ROT>
2

>  <SCORE.INTER.SOLV>
39.7496

>  <SCORE.INTER.VDW>
-49.3641

>  <SCORE.INTER.norm>
-1.01677

>  <SCORE.INTRA>
-0.0304404

>  <SCORE.INTRA.DIHEDRAL>
0.0116587

>  <SCORE.INTRA.DIHEDRAL.0>
2.42188

>  <SCORE.INTRA.POLAR>
0

>  <SCORE.INTRA.POLAR.0>
0

>  <SCORE.INTRA.REPUL>
0

>  <SCORE.INTRA.REPUL.0>
0

>  <SCORE.INTRA.SOLV>
-0.00101541

>  <SCORE.INTRA.SOLV.lig_0>
-127.307

>  <SCORE.INTRA.VDW>
-0.035762

>  <SCORE.INTRA.VDW.0>
-2.19936

>  <SCORE.INTRA.norm>
-0.000661747

>  <SCORE.RESTR>
0

>  <SCORE.RESTR.CAVITY>
0

>  <SCORE.RESTR.norm>
0

>  <SCORE.SYSTEM>
0

>  <SCORE.SYSTEM.CONST>
0

>  <SCORE.SYSTEM.DIHEDRAL>
0

>  <SCORE.SYSTEM.SOLV>
0

>  <SCORE.SYSTEM.norm>
0

>  <SCORE.heavy>
46

>  <SCORE.norm>
-1.01743

>  <RMSD>
0.420

$$$$
ligand
 OpenBabel02271912143D
libRbt.so/2013.1/901 2013/11/27
 46 52  0  0  0  0  0  0  0  0999 V2000
  159.7327   46.1937  143.4841 P   0  0  1  0  0  0  0  0  0  0  0  0
  158.1637   42.2371  147.2675 P   0  0  1  0  0  0  0  0  0  0  0  0
  159.2544   45.9633  142.0737 O   0  5  0  0  0  0  0  0  0  0  0  0
  160.3840   47.5288  143.7720 O   0  0  0  0  0  0  0  0  0  0  0  0
  158.2606   46.7450  145.6121 C   0  0  0  0  0  0  0  0  0  0  0  0
  158.5060   45.9139  144.4850 O   0  0  0  0  0  0  0  0  0  0  0  0
  157.3194   46.0454  146.5788 C   0  0  1  0  0  0  0  0  0  0  0  0
  156.0286   46.6191  146.4282 O   0  0  0  0  0  0  0  0  0  0  0  0
  157.1473   44.5471  146.3637 C   0  0  1  0  0  0  0  0  0  0  0  0
  157.8881   43.8353  147.3441 O   0  0  0  0  0  0  0  0  0  0  0  0
  155.6761   44.3196  146.6300 C   0  0  1  0  0  0  0  0  0  0  0  0
  155.4782   44.0319  148.0157 O   0  0  0  0  0  0  0  0  0  0  0  0
  155.0072   45.6359  146.3589 C   0  0  2  0  0  0  0  0  0  0  0  0
  160.7406   41.5960  142.5410 C   0  0  1  0  0  0  0  0  0  0  0  0
  150.9230   44.3814  143.3106 N   0  0  0  0  0  0  0  0  0  0  0  0
  151.0999   44.2149  144.6350 C   0  0  1  0  0  0  0  0  0  0  0  0
  160.5220   43.0817  142.3453 C   0  0  2  0  0  0  0  0  0  0  0  0
  150.1147   43.6427  145.3625 N   0  0  0  0  0  0  0  0  0  0  0  0
  161.7215   43.6216  141.7837 O   0  0  0  0  0  0  0  0  0  0  0  0
  160.2782   43.6393  143.7352 C   0  0  2  0  0  0  0  0  0  0  0  0
  152.2217   44.5881  145.2916 N   0  0  0  0  0  0  0  0  0  0  0  0
  160.7367   44.9859  143.8479 O   0  0  0  0  0  0  0  0  0  0  0  0
  153.2516   45.1631  144.6346 C   0  0  2  0  0  0  0  0  0  0  0  0
  161.0772   42.6800  144.6146 C   0  0  2  0  0  0  0  0  0  0  0  0
  161.1918   41.4532  143.8905 O   0  0  0  0  0  0  0  0  0  0  0  0
  153.1284   45.3737  143.1888 C   0  0  2  0  0  0  0  0  0  0  0  0
  160.4665   42.4004  145.9914 C   0  0  0  0  0  0  0  0  0  0  0  0
  159.0712   42.1059  145.9377 O   0  0  0  0  0  0  0  0  0  0  0  0
  151.8701   44.9398  142.5375 C   0  0  0  0  0  0  0  0  0  0  0  0
  151.7092   45.0983  141.3034 O   0  0  0  0  0  0  0  0  0  0  0  0
  154.2796   45.9473  142.7956 N   0  0  0  0  0  0  0  0  0  0  0  0
  155.0691   46.0945  143.8866 C   0  0  0  0  0  0  0  0  0  0  0  0
  154.4516   45.6256  144.9848 N   0  0  1  0  0  0  0  0  0  0  0  0
  156.4327   40.8428  139.6233 N   0  0  0  0  0  0  0  0  0  0  0  0
  159.0037   41.8972  148.4843 O   0  5  0  0  0  0  0  0  0  0  0  0
  157.4918   41.6376  139.4051 C   0  0  2  0  0  0  0  0  0  0  0  0
  157.4938   42.3690  138.2807 N   0  0  0  0  0  0  0  0  0  0  0  0
  156.8619   41.5220  146.9990 O   0  0  0  0  0  0  0  0  0  0  0  0
  158.5444   41.7322  140.2509 N   0  0  0  0  0  0  0  0  0  0  0  0
  158.5798   41.0077  141.3889 C   0  0  1  0  0  0  0  0  0  0  0  0
  157.4430   40.1138  141.6876 C   0  0  1  0  0  0  0  0  0  0  0  0
  156.3338   40.0632  140.7014 C   0  0  0  0  0  0  0  0  0  0  0  0
  155.3252   39.3434  140.8649 O   0  0  0  0  0  0  0  0  0  0  0  0
  157.7282   39.5157  142.8552 N   0  0  0  0  0  0  0  0  0  0  0  0
  158.9365   39.9922  143.2655 C   0  0  0  0  0  0  0  0  0  0  0  0
  159.4491   40.8807  142.3912 N   0  0  2  0  0  0  0  0  0  0  0  0
  1  3  1  6  0  0  0
  1  4  2  0  0  0  0
  1  6  1  0  0  0  0
  1 22  1  0  0  0  0
  2 28  1  0  0  0  0
  2 35  1  1  0  0  0
  2 38  2  0  0  0  0
  2 10  1  0  0  0  0
  5  6  1  0  0  0  0
  7  5  1  6  0  0  0
  7  8  1  0  0  0  0
  7  9  1  0  0  0  0
  9 10  1  1  0  0  0
  9 11  1  0  0  0  0
 11 12  1  1  0  0  0
 11 13  1  0  0  0  0
 13  8  1  6  0  0  0
 13 33  1  0  0  0  0
 14 46  1  0  0  0  0
 14 17  1  0  0  0  0
 14 25  1  1  0  0  0
 15 16  1  0  0  0  0
 15 29  1  0  0  0  0
 16 18  1  6  0  0  0
 16 21  1  0  0  0  0
 17 19  1  1  0  0  0
 17 20  1  0  0  0  0
 20 22  1  6  0  0  0
 20 24  1  0  0  0  0
 23 21  1  6  0  0  0
 23 26  1  0  0  0  0
 23 33  1  0  0  0  0
 24 25  1  6  0  0  0
 24 27  1  0  0  0  0
 26 29  1  6  0  0  0
 26 31  1  0  0  0  0
 27 28  1  0  0  0  0
 29 30  2  0  0  0  0
 31 32  1  0  0  0  0
 33 32  1  1  0  0  0
 34 36  1  0  0  0  0
 34 42  1  0  0  0  0
 36 37  1  6  0  0  0
 36 39  1  0  0  0  0
 40 39  1  6  0  0  0
 40 41  1  0  0  0  0
 40 46  1  0  0  0  0
 41 42  1  6  0  0  0
 41 44  1  0  0  0  0
 42 43  2  0  0  0  0
 44 45  1  0  0  0  0
 46 45  1  1  0  0  0
M  CHG  2   3  -1  35  -1
M  END
>  <CHROM.1>
-158.20067721,50.11893966,157.18256952,43.56742966,143.98897593,-0.32483676
-0.17016787,1.01101239

>  <Name>
ligand

>  <RI>
0

>  <Rbt.Current_Directory>
/home/itssahil/PROJECTS/Mol_Feturizer/Test_systems_manuscript/rnas/4yb0

>  <Rbt.Executable>
rbdock ($Id: //depot/dev/client3/rdock/2013.1/src/exe/rbdock.cxx#4 $)

>  <Rbt.Library>
libRbt.so (2013.1, Build901 2013/11/27)

>  <Rbt.Parameter_File>
/export/apps/rDock/src/rDock_2013.1_src/data/scripts/dock_solv.prm

>  <Rbt.Receptor>
prm/pocket_docking_2.prm

>  <SCORE>
-46.5092

>  <SCORE.INTER>
-46.4674

>  <SCORE.INTER.CONST>
1

>  <SCORE.INTER.POLAR>
0

>  <SCORE.INTER.ROT>
2

>  <SCORE.INTER.SOLV>
40.4138

>  <SCORE.INTER.VDW>
-49.3829

>  <SCORE.INTER.norm>
-1.01016

>  <SCORE.INTRA>
-0.0465094

>  <SCORE.INTRA.DIHEDRAL>
0.0129407

>  <SCORE.INTRA.DIHEDRAL.0>
2.42188

>  <SCORE.INTRA.POLAR>
0

>  <SCORE.INTRA.POLAR.0>
0

>  <SCORE.INTRA.REPUL>
0

>  <SCORE.INTRA.REPUL.0>
0

>  <SCORE.INTRA.SOLV>
-0.00263626

>  <SCORE.INTRA.SOLV.lig_0>
-127.307

>  <SCORE.INTRA.VDW>
-0.0516616

>  <SCORE.INTRA.VDW.0>
-2.19936

>  <SCORE.INTRA.norm>
-0.00101107

>  <SCORE.RESTR>
0.00473232

>  <SCORE.RESTR.CAVITY>
0.00473232

>  <SCORE.RESTR.norm>
0.000102876

>  <SCORE.SYSTEM>
0

>  <SCORE.SYSTEM.CONST>
0

>  <SCORE.SYSTEM.DIHEDRAL>
0

>  <SCORE.SYSTEM.SOLV>
0

>  <SCORE.SYSTEM.norm>
0

>  <SCORE.heavy>
46

>  <SCORE.norm>
-1.01107

>  <RMSD>
0.421

$$$$
ligand
 OpenBabel02271912143D
libRbt.so/2013.1/901 2013/11/27
 46 52  0  0  0  0  0  0  0  0999 V2000
  159.8336   46.1532  143.5193 P   0  0  1  0  0  0  0  0  0  0  0  0
  158.0580   42.1786  147.1909 P   0  0  1  0  0  0  0  0  0  0  0  0
  159.3701   45.9707  142.0970 O   0  5  0  0  0  0  0  0  0  0  0  0
  160.5290   47.4567  143.8463 O   0  0  0  0  0  0  0  0  0  0  0  0
  158.3483   46.7137  145.6358 C   0  0  0  0  0  0  0  0  0  0  0  0
  158.5812   45.8982  144.4948 O   0  0  0  0  0  0  0  0  0  0  0  0
  157.3663   46.0294  146.5723 C   0  0  1  0  0  0  0  0  0  0  0  0
  156.1002   46.6539  146.4142 O   0  0  0  0  0  0  0  0  0  0  0  0
  157.1425   44.5434  146.3220 C   0  0  1  0  0  0  0  0  0  0  0  0
  157.8404   43.7840  147.2981 O   0  0  0  0  0  0  0  0  0  0  0  0
  155.6598   44.3654  146.5604 C   0  0  1  0  0  0  0  0  0  0  0  0
  155.4288   44.0560  147.9363 O   0  0  0  0  0  0  0  0  0  0  0  0
  155.0445   45.7111  146.3077 C   0  0  2  0  0  0  0  0  0  0  0  0
  160.6861   41.5421  142.4921 C   0  0  1  0  0  0  0  0  0  0  0  0
  151.0274   44.5317  143.1425 N   0  0  0  0  0  0  0  0  0  0  0  0
  151.1851   44.3127  144.4617 C   0  0  1  0  0  0  0  0  0  0  0  0
  160.5257   43.0388  142.3254 C   0  0  2  0  0  0  0  0  0  0  0  0
  150.1961   43.6982  145.1484 N   0  0  0  0  0  0  0  0  0  0  0  0
  161.7534   43.5453  141.7943 O   0  0  0  0  0  0  0  0  0  0  0  0
  160.2801   43.5755  143.7232 C   0  0  2  0  0  0  0  0  0  0  0  0
  152.2910   44.6727  145.1517 N   0  0  0  0  0  0  0  0  0  0  0  0
  160.7861   44.9013  143.8723 O   0  0  0  0  0  0  0  0  0  0  0  0
  153.3235   45.2877  144.5363 C   0  0  2  0  0  0  0  0  0  0  0  0
  161.0287   42.5686  144.5938 C   0  0  2  0  0  0  0  0  0  0  0  0
  161.1097   41.3540  143.8450 O   0  0  0  0  0  0  0  0  0  0  0  0
  153.2209   45.5565  143.0986 C   0  0  2  0  0  0  0  0  0  0  0  0
  160.3857   42.2829  145.9545 C   0  0  0  0  0  0  0  0  0  0  0  0
  158.9816   42.0418  145.8728 O   0  0  0  0  0  0  0  0  0  0  0  0
  151.9792   45.1338  142.4090 C   0  0  0  0  0  0  0  0  0  0  0  0
  151.8362   45.3412  141.1800 O   0  0  0  0  0  0  0  0  0  0  0  0
  154.3704   46.1607  142.7487 N   0  0  0  0  0  0  0  0  0  0  0  0
  155.1401   46.2727  143.8578 C   0  0  0  0  0  0  0  0  0  0  0  0
  154.5113   45.7507  144.9253 N   0  0  1  0  0  0  0  0  0  0  0  0
  156.3797   41.0482  139.5174 N   0  0  0  0  0  0  0  0  0  0  0  0
  158.8649   41.7818  148.4129 O   0  5  0  0  0  0  0  0  0  0  0  0
  157.4678   41.8125  139.3362 C   0  0  2  0  0  0  0  0  0  0  0  0
  157.5050   42.5838  138.2394 N   0  0  0  0  0  0  0  0  0  0  0  0
  156.7352   41.5184  146.8868 O   0  0  0  0  0  0  0  0  0  0  0  0
  158.5157   41.8390  140.1925 N   0  0  0  0  0  0  0  0  0  0  0  0
  158.5160   41.0728  141.3035 C   0  0  1  0  0  0  0  0  0  0  0  0
  157.3461   40.2093  141.5609 C   0  0  1  0  0  0  0  0  0  0  0  0
  156.2443   40.2339  140.5654 C   0  0  0  0  0  0  0  0  0  0  0  0
  155.2097   39.5447  140.6950 O   0  0  0  0  0  0  0  0  0  0  0  0
  157.6001   39.5595  142.7078 N   0  0  0  0  0  0  0  0  0  0  0  0
  158.8207   39.9777  143.1441 C   0  0  0  0  0  0  0  0  0  0  0  0
  159.3716   40.8788  142.3068 N   0  0  2  0  0  0  0  0  0  0  0  0
  1  3  1  6  0  0  0
  1  4  2  0  0  0  0
  1  6  1  0  0  0  0
  1 22  1  0  0  0  0
  2 28  1  0  0  0  0
  2 35  1  1  0  0  0
  2 38  2  0  0  0  0
  2 10  1  0  0  0  0
  5  6  1  0  0  0  0
  7  5  1  6  0  0  0
  7  8  1  0  0  0  0
  7  9  1  0  0  0  0
  9 10  1  1  0  0  0
  9 11  1  0  0  0  0
 11 12  1  1  0  0  0
 11 13  1  0  0  0  0
 13  8  1  6  0  0  0
 13 33  1  0  0  0  0
 14 46  1  0  0  0  0
 14 17  1  0  0  0  0
 14 25  1  1  0  0  0
 15 16  1  0  0  0  0
 15 29  1  0  0  0  0
 16 18  1  6  0  0  0
 16 21  1  0  0  0  0
 17 19  1  1  0  0  0
 17 20  1  0  0  0  0
 20 22  1  6  0  0  0
 20 24  1  0  0  0  0
 23 21  1  6  0  0  0
 23 26  1  0  0  0  0
 23 33  1  0  0  0  0
 24 25  1  6  0  0  0
 24 27  1  0  0  0  0
 26 29  1  6  0  0  0
 26 31  1  0  0  0  0
 27 28  1  0  0  0  0
 29 30  2  0  0  0  0
 31 32  1  0  0  0  0
 33 32  1  1  0  0  0
 34 36  1  0  0  0  0
 34 42  1  0  0  0  0
 36 37  1  6  0  0  0
 36 39  1  0  0  0  0
 40 39  1  6  0  0  0
 40 41  1  0  0  0  0
 40 46  1  0  0  0  0
 41 42  1  6  0  0  0
 41 44  1  0  0  0  0
 42 43  2  0  0  0  0
 44 45  1  0  0  0  0
 46 45  1  1  0  0  0
M  CHG  2   3  -1  35  -1
M  END
>  <CHROM.1>
-161.30259734,49.13759524,157.18441709,43.60205511,143.92710287,-0.31344841
-0.19993640,1.02924488

>  <Name>
ligand

>  <RI>
0

>  <Rbt.Current_Directory>
/home/itssahil/PROJECTS/Mol_Feturizer/Test_systems_manuscript/rnas/4yb0

>  <Rbt.Executable>
rbdock ($Id: //depot/dev/client3/rdock/2013.1/src/exe/rbdock.cxx#4 $)

>  <Rbt.Library>
libRbt.so (2013.1, Build901 2013/11/27)

>  <Rbt.Parameter_File>
/export/apps/rDock/src/rDock_2013.1_src/data/scripts/dock_solv.prm

>  <Rbt.Receptor>
prm/pocket_docking_4.prm

>  <SCORE>
-46.8266

>  <SCORE.INTER>
-46.7968

>  <SCORE.INTER.CONST>
1

>  <SCORE.INTER.POLAR>
0

>  <SCORE.INTER.ROT>
2

>  <SCORE.INTER.SOLV>
40.1229

>  <SCORE.INTER.VDW>
-49.5055

>  <SCORE.INTER.norm>
-1.01732

>  <SCORE.INTRA>
-0.0298083

>  <SCORE.INTRA.DIHEDRAL>
0.0124045

>  <SCORE.INTRA.DIHEDRAL.0>
2.42188

>  <SCORE.INTRA.POLAR>
0

>  <SCORE.INTRA.POLAR.0>
0

>  <SCORE.INTRA.REPUL>
0

>  <SCORE.INTRA.REPUL.0>
0

>  <SCORE.INTRA.SOLV>
-0.0010301

>  <SCORE.INTRA.SOLV.lig_0>
-127.307

>  <SCORE.INTRA.VDW>
-0.0354955

>  <SCORE.INTRA.VDW.0>
-2.19936

>  <SCORE.INTRA.norm>
-0.000648006

>  <SCORE.RESTR>
0

>  <SCORE.RESTR.CAVITY>
0

>  <SCORE.RESTR.norm>
0

>  <SCORE.SYSTEM>
0

>  <SCORE.SYSTEM.CONST>
0

>  <SCORE.SYSTEM.DIHEDRAL>
0

>  <SCORE.SYSTEM.SOLV>
0

>  <SCORE.SYSTEM.norm>
0

>  <SCORE.heavy>
46

>  <SCORE.norm>
-1.01797

>  <RMSD>
0.421

$$$$
ligand
 OpenBabel02271912143D
libRbt.so/2013.1/901 2013/11/27
 46 52  0  0  0  0  0  0  0  0999 V2000
  159.8222   46.1862  143.5889 P   0  0  1  0  0  0  0  0  0  0  0  0
  158.0192   42.1818  147.2145 P   0  0  1  0  0  0  0  0  0  0  0  0
  159.3713   46.0141  142.1613 O   0  5  0  0  0  0  0  0  0  0  0  0
  160.5133   47.4879  143.9319 O   0  0  0  0  0  0  0  0  0  0  0  0
  158.3180   46.7290  145.6966 C   0  0  0  0  0  0  0  0  0  0  0  0
  158.5616   45.9224  144.5515 O   0  0  0  0  0  0  0  0  0  0  0  0
  157.3286   46.0365  146.6193 C   0  0  1  0  0  0  0  0  0  0  0  0
  156.0632   46.6609  146.4550 O   0  0  0  0  0  0  0  0  0  0  0  0
  157.1086   44.5523  146.3558 C   0  0  1  0  0  0  0  0  0  0  0  0
  157.7989   43.7861  147.3320 O   0  0  0  0  0  0  0  0  0  0  0  0
  155.6241   44.3709  146.5799 C   0  0  1  0  0  0  0  0  0  0  0  0
  155.3816   44.0507  147.9513 O   0  0  0  0  0  0  0  0  0  0  0  0
  155.0095   45.7178  146.3321 C   0  0  2  0  0  0  0  0  0  0  0  0
  160.6887   41.5840  142.5340 C   0  0  1  0  0  0  0  0  0  0  0  0
  151.0418   44.5147  143.1140 N   0  0  0  0  0  0  0  0  0  0  0  0
  151.1913   44.2804  144.4315 C   0  0  1  0  0  0  0  0  0  0  0  0
  160.5282   43.0817  142.3774 C   0  0  2  0  0  0  0  0  0  0  0  0
  150.2066   43.6401  145.1006 N   0  0  0  0  0  0  0  0  0  0  0  0
  161.7599   43.5936  141.8609 O   0  0  0  0  0  0  0  0  0  0  0  0
  160.2698   43.6075  143.7770 C   0  0  2  0  0  0  0  0  0  0  0  0
  152.2846   44.6494  145.1366 N   0  0  0  0  0  0  0  0  0  0  0  0
  160.7730   44.9327  143.9406 O   0  0  0  0  0  0  0  0  0  0  0  0
  153.3121   45.2900  144.5392 C   0  0  2  0  0  0  0  0  0  0  0  0
  161.0119   42.5948  144.6464 C   0  0  2  0  0  0  0  0  0  0  0  0
  161.1008   41.3860  143.8891 O   0  0  0  0  0  0  0  0  0  0  0  0
  153.2180   45.5767  143.1044 C   0  0  2  0  0  0  0  0  0  0  0  0
  160.3575   42.2980  145.9993 C   0  0  0  0  0  0  0  0  0  0  0  0
  158.9544   42.0560  145.9035 O   0  0  0  0  0  0  0  0  0  0  0  0
  151.9899   45.1427  142.3976 C   0  0  0  0  0  0  0  0  0  0  0  0
  151.8546   45.3645  141.1702 O   0  0  0  0  0  0  0  0  0  0  0  0
  154.3603   46.2048  142.7734 N   0  0  0  0  0  0  0  0  0  0  0  0
  155.1179   46.3144  143.8911 C   0  0  0  0  0  0  0  0  0  0  0  0
  154.4883   45.7674  144.9455 N   0  0  1  0  0  0  0  0  0  0  0  0
  156.4099   41.1067  139.5172 N   0  0  0  0  0  0  0  0  0  0  0  0
  158.8159   41.7766  148.4405 O   0  5  0  0  0  0  0  0  0  0  0  0
  157.4987   41.8733  139.3512 C   0  0  2  0  0  0  0  0  0  0  0  0
  157.5451   42.6523  138.2601 N   0  0  0  0  0  0  0  0  0  0  0  0
  156.6998   41.5225  146.8939 O   0  0  0  0  0  0  0  0  0  0  0  0
  158.5389   41.8949  140.2171 N   0  0  0  0  0  0  0  0  0  0  0  0
  158.5300   41.1209  141.3226 C   0  0  1  0  0  0  0  0  0  0  0  0
  157.3586   40.2546  141.5634 C   0  0  1  0  0  0  0  0  0  0  0  0
  156.2658   40.2850  140.5582 C   0  0  0  0  0  0  0  0  0  0  0  0
  155.2308   39.5939  140.6738 O   0  0  0  0  0  0  0  0  0  0  0  0
  157.6030   39.5970  142.7080 N   0  0  0  0  0  0  0  0  0  0  0  0
  158.8192   40.0133  143.1583 C   0  0  0  0  0  0  0  0  0  0  0  0
  159.3767   40.9207  142.3322 N   0  0  2  0  0  0  0  0  0  0  0  0
  1  3  1  6  0  0  0
  1  4  2  0  0  0  0
  1  6  1  0  0  0  0
  1 22  1  0  0  0  0
  2 28  1  0  0  0  0
  2 35  1  1  0  0  0
  2 38  2  0  0  0  0
  2 10  1  0  0  0  0
  5  6  1  0  0  0  0
  7  5  1  6  0  0  0
  7  8  1  0  0  0  0
  7  9  1  0  0  0  0
  9 10  1  1  0  0  0
  9 11  1  0  0  0  0
 11 12  1  1  0  0  0
 11 13  1  0  0  0  0
 13  8  1  6  0  0  0
 13 33  1  0  0  0  0
 14 46  1  0  0  0  0
 14 17  1  0  0  0  0
 14 25  1  1  0  0  0
 15 16  1  0  0  0  0
 15 29  1  0  0  0  0
 16 18  1  6  0  0  0
 16 21  1  0  0  0  0
 17 19  1  1  0  0  0
 17 20  1  0  0  0  0
 20 22  1  6  0  0  0
 20 24  1  0  0  0  0
 23 21  1  6  0  0  0
 23 26  1  0  0  0  0
 23 33  1  0  0  0  0
 24 25  1  6  0  0  0
 24 27  1  0  0  0  0
 26 29  1  6  0  0  0
 26 31  1  0  0  0  0
 27 28  1  0  0  0  0
 29 30  2  0  0  0  0
 31 32  1  0  0  0  0
 33 32  1  1  0  0  0
 34 36  1  0  0  0  0
 34 42  1  0  0  0  0
 36 37  1  6  0  0  0
 36 39  1  0  0  0  0
 40 39  1  6  0  0  0
 40 41  1  0  0  0  0
 40 46  1  0  0  0  0
 41 42  1  6  0  0  0
 41 44  1  0  0  0  0
 42 43  2  0  0  0  0
 44 45  1  0  0  0  0
 46 45  1  1  0  0  0
M  CHG  2   3  -1  35  -1
M  END
>  <CHROM.1>
-162.26693491,49.18034957,157.17474616,43.62432998,143.95308884,-0.30288560
-0.20019941,1.03726167

>  <Name>
ligand

>  <RI>
0

>  <Rbt.Current_Directory>
/home/itssahil/PROJECTS/Mol_Feturizer/Test_systems_manuscript/rnas/4yb0

>  <Rbt.Executable>
rbdock ($Id: //depot/dev/client3/rdock/2013.1/src/exe/rbdock.cxx#4 $)

>  <Rbt.Library>
libRbt.so (2013.1, Build901 2013/11/27)

>  <Rbt.Parameter_File>
/export/apps/rDock/src/rDock_2013.1_src/data/scripts/dock_solv.prm

>  <Rbt.Receptor>
prm/pocket_docking_5.prm

>  <SCORE>
-46.7763

>  <SCORE.INTER>
-46.7527

>  <SCORE.INTER.CONST>
1

>  <SCORE.INTER.POLAR>
0

>  <SCORE.INTER.ROT>
2

>  <SCORE.INTER.SOLV>
39.6158

>  <SCORE.INTER.VDW>
-49.307

>  <SCORE.INTER.norm>
-1.01636

>  <SCORE.INTRA>
-0.0236142

>  <SCORE.INTRA.DIHEDRAL>
0.0116597

>  <SCORE.INTRA.DIHEDRAL.0>
2.42188

>  <SCORE.INTRA.POLAR>
0

>  <SCORE.INTRA.POLAR.0>
0

>  <SCORE.INTRA.REPUL>
0

>  <SCORE.INTRA.REPUL.0>
0

>  <SCORE.INTRA.SOLV>
-0.000701989

>  <SCORE.INTRA.SOLV.lig_0>
-127.307

>  <SCORE.INTRA.VDW>
-0.029093

>  <SCORE.INTRA.VDW.0>
-2.19936

>  <SCORE.INTRA.norm>
-0.000513352

>  <SCORE.RESTR>
0

>  <SCORE.RESTR.CAVITY>
0

>  <SCORE.RESTR.norm>
0

>  <SCORE.SYSTEM>
0

>  <SCORE.SYSTEM.CONST>
0

>  <SCORE.SYSTEM.DIHEDRAL>
0

>  <SCORE.SYSTEM.SOLV>
0

>  <SCORE.SYSTEM.norm>
0

>  <SCORE.heavy>
46

>  <SCORE.norm>
-1.01688

>  <RMSD>
0.422

$$$$
ligand
 OpenBabel02271912143D
libRbt.so/2013.1/901 2013/11/27
 46 52  0  0  0  0  0  0  0  0999 V2000
  159.8061   46.1876  143.6211 P   0  0  1  0  0  0  0  0  0  0  0  0
  158.0085   42.1553  147.2182 P   0  0  1  0  0  0  0  0  0  0  0  0
  159.3595   46.0223  142.1912 O   0  5  0  0  0  0  0  0  0  0  0  0
  160.4916   47.4897  143.9735 O   0  0  0  0  0  0  0  0  0  0  0  0
  158.2946   46.7124  145.7280 C   0  0  0  0  0  0  0  0  0  0  0  0
  158.5441   45.9136  144.5788 O   0  0  0  0  0  0  0  0  0  0  0  0
  157.3054   46.0109  146.6440 C   0  0  1  0  0  0  0  0  0  0  0  0
  156.0382   46.6316  146.4802 O   0  0  0  0  0  0  0  0  0  0  0  0
  157.0915   44.5275  146.3712 C   0  0  1  0  0  0  0  0  0  0  0  0
  157.7820   43.7580  147.3446 O   0  0  0  0  0  0  0  0  0  0  0  0
  155.6071   44.3393  146.5904 C   0  0  1  0  0  0  0  0  0  0  0  0
  155.3622   44.0102  147.9592 O   0  0  0  0  0  0  0  0  0  0  0  0
  154.9882   45.6855  146.3490 C   0  0  2  0  0  0  0  0  0  0  0  0
  160.6921   41.5949  142.5411 C   0  0  1  0  0  0  0  0  0  0  0  0
  151.0230   44.5083  143.1182 N   0  0  0  0  0  0  0  0  0  0  0  0
  151.1685   44.2693  144.4353 C   0  0  1  0  0  0  0  0  0  0  0  0
  160.5265   43.0930  142.3929 C   0  0  2  0  0  0  0  0  0  0  0  0
  150.1797   43.6310  145.1002 N   0  0  0  0  0  0  0  0  0  0  0  0
  161.7576   43.6123  141.8826 O   0  0  0  0  0  0  0  0  0  0  0  0
  160.2627   43.6094  143.7950 C   0  0  2  0  0  0  0  0  0  0  0  0
  152.2617   44.6318  145.1441 N   0  0  0  0  0  0  0  0  0  0  0  0
  160.7606   44.9355  143.9678 O   0  0  0  0  0  0  0  0  0  0  0  0
  153.2932   45.2700  144.5509 C   0  0  2  0  0  0  0  0  0  0  0  0
  161.0062   42.5943  144.6603 C   0  0  2  0  0  0  0  0  0  0  0  0
  161.1014   41.3904  143.8960 O   0  0  0  0  0  0  0  0  0  0  0  0
  153.2035   45.5614  143.1168 C   0  0  2  0  0  0  0  0  0  0  0  0
  160.3494   42.2871  146.0097 C   0  0  0  0  0  0  0  0  0  0  0  0
  158.9475   42.0407  145.9088 O   0  0  0  0  0  0  0  0  0  0  0  0
  151.9753   45.1346  142.4059 C   0  0  0  0  0  0  0  0  0  0  0  0
  151.8437   45.3607  141.1789 O   0  0  0  0  0  0  0  0  0  0  0  0
  154.3490   46.1859  142.7903 N   0  0  0  0  0  0  0  0  0  0  0  0
  155.1046   46.2891  143.9100 C   0  0  0  0  0  0  0  0  0  0  0  0
  154.4704   45.7414  144.9614 N   0  0  1  0  0  0  0  0  0  0  0  0
  156.3949   41.1644  139.5435 N   0  0  0  0  0  0  0  0  0  0  0  0
  158.8035   41.7456  148.4437 O   0  5  0  0  0  0  0  0  0  0  0  0
  157.4775   41.9422  139.3890 C   0  0  2  0  0  0  0  0  0  0  0  0
  157.5109   42.7485  138.3175 N   0  0  0  0  0  0  0  0  0  0  0  0
  156.6923   41.4931  146.8902 O   0  0  0  0  0  0  0  0  0  0  0  0
  158.5237   41.9491  140.2478 N   0  0  0  0  0  0  0  0  0  0  0  0
  158.5278   41.1477  141.3337 C   0  0  1  0  0  0  0  0  0  0  0  0
  157.3639   40.2678  141.5610 C   0  0  1  0  0  0  0  0  0  0  0  0
  156.2637   40.3160  140.5646 C   0  0  0  0  0  0  0  0  0  0  0  0
  155.2341   39.6153  140.6700 O   0  0  0  0  0  0  0  0  0  0  0  0
  157.6207   39.5835  142.6870 N   0  0  0  0  0  0  0  0  0  0  0  0
  158.8374   39.9966  143.1390 C   0  0  0  0  0  0  0  0  0  0  0  0
  159.3830   40.9281  142.3320 N   0  0  2  0  0  0  0  0  0  0  0  0
  1  3  1  6  0  0  0
  1  4  2  0  0  0  0
  1  6  1  0  0  0  0
  1 22  1  0  0  0  0
  2 28  1  0  0  0  0
  2 35  1  1  0  0  0
  2 38  2  0  0  0  0
  2 10  1  0  0  0  0
  5  6  1  0  0  0  0
  7  5  1  6  0  0  0
  7  8  1  0  0  0  0
  7  9  1  0  0  0  0
  9 10  1  1  0  0  0
  9 11  1  0  0  0  0
 11 12  1  1  0  0  0
 11 13  1  0  0  0  0
 13  8  1  6  0  0  0
 13 33  1  0  0  0  0
 14 46  1  0  0  0  0
 14 17  1  0  0  0  0
 14 25  1  1  0  0  0
 15 16  1  0  0  0  0
 15 29  1  0  0  0  0
 16 18  1  6  0  0  0
 16 21  1  0  0  0  0
 17 19  1  1  0  0  0
 17 20  1  0  0  0  0
 20 22  1  6  0  0  0
 20 24  1  0  0  0  0
 23 21  1  6  0  0  0
 23 26  1  0  0  0  0
 23 33  1  0  0  0  0
 24 25  1  6  0  0  0
 24 27  1  0  0  0  0
 26 29  1  6  0  0  0
 26 31  1  0  0  0  0
 27 28  1  0  0  0  0
 29 30  2  0  0  0  0
 31 32  1  0  0  0  0
 33 32  1  1  0  0  0
 34 36  1  0  0  0  0
 34 42  1  0  0  0  0
 36 37  1  6  0  0  0
 36 39  1  0  0  0  0
 40 39  1  6  0  0  0
 40 41  1  0  0  0  0
 40 46  1  0  0  0  0
 41 42  1  6  0  0  0
 41 44  1  0  0  0  0
 42 43  2  0  0  0  0
 44 45  1  0  0  0  0
 46 45  1  1  0  0  0
M  CHG  2   3  -1  35  -1
M  END
>  <CHROM.1>
-161.79701646,47.94341784,157.16297257,43.62116572,143.96729320,-0.28928317
-0.20070740,1.04626826

>  <Name>
ligand

>  <RI>
0

>  <Rbt.Current_Directory>
/home/itssahil/PROJECTS/Mol_Feturizer/Test_systems_manuscript/rnas/4yb0

>  <Rbt.Executable>
rbdock ($Id: //depot/dev/client3/rdock/2013.1/src/exe/rbdock.cxx#4 $)

>  <Rbt.Library>
libRbt.so (2013.1, Build901 2013/11/27)

>  <Rbt.Parameter_File>
/export/apps/rDock/src/rDock_2013.1_src/data/scripts/dock_solv.prm

>  <Rbt.Receptor>
prm/pocket_docking_3.prm

>  <SCORE>
-46.7667

>  <SCORE.INTER>
-46.7382

>  <SCORE.INTER.CONST>
1

>  <SCORE.INTER.POLAR>
0

>  <SCORE.INTER.ROT>
2

>  <SCORE.INTER.SOLV>
39.588

>  <SCORE.INTER.VDW>
-49.2881

>  <SCORE.INTER.norm>
-1.01605

>  <SCORE.INTRA>
-0.0284975

>  <SCORE.INTRA.DIHEDRAL>
0.0136355

>  <SCORE.INTRA.DIHEDRAL.0>
2.42188

>  <SCORE.INTRA.POLAR>
0

>  <SCORE.INTRA.POLAR.0>
0

>  <SCORE.INTRA.REPUL>
0

>  <SCORE.INTRA.REPUL.0>
0

>  <SCORE.INTRA.SOLV>
-0.000234046

>  <SCORE.INTRA.SOLV.lig_0>
-127.307

>  <SCORE.INTRA.VDW>
-0.0351982

>  <SCORE.INTRA.VDW.0>
-2.19936

>  <SCORE.INTRA.norm>
-0.000619511

>  <SCORE.RESTR>
0

>  <SCORE.RESTR.CAVITY>
0

>  <SCORE.RESTR.norm>
0

>  <SCORE.SYSTEM>
0

>  <SCORE.SYSTEM.CONST>
0

>  <SCORE.SYSTEM.DIHEDRAL>
0

>  <SCORE.SYSTEM.SOLV>
0

>  <SCORE.SYSTEM.norm>
0

>  <SCORE.heavy>
46

>  <SCORE.norm>
-1.01667

>  <RMSD>
0.427

$$$$
ligand
 OpenBabel02271912143D
libRbt.so/2013.1/901 2013/11/27
 46 52  0  0  0  0  0  0  0  0999 V2000
  159.8222   46.1794  143.5428 P   0  0  1  0  0  0  0  0  0  0  0  0
  158.0469   42.1779  147.1852 P   0  0  1  0  0  0  0  0  0  0  0  0
  159.3666   46.0021  142.1173 O   0  5  0  0  0  0  0  0  0  0  0  0
  160.5100   47.4844  143.8798 O   0  0  0  0  0  0  0  0  0  0  0  0
  158.3240   46.7223  145.6547 C   0  0  0  0  0  0  0  0  0  0  0  0
  158.5662   45.9137  144.5108 O   0  0  0  0  0  0  0  0  0  0  0  0
  157.3405   46.0287  146.5829 C   0  0  1  0  0  0  0  0  0  0  0  0
  156.0724   46.6481  146.4217 O   0  0  0  0  0  0  0  0  0  0  0  0
  157.1248   44.5430  146.3239 C   0  0  1  0  0  0  0  0  0  0  0  0
  157.8214   43.7817  147.2995 O   0  0  0  0  0  0  0  0  0  0  0  0
  155.6418   44.3570  146.5541 C   0  0  1  0  0  0  0  0  0  0  0  0
  155.4055   44.0394  147.9272 O   0  0  0  0  0  0  0  0  0  0  0  0
  155.0216   45.7011  146.3052 C   0  0  2  0  0  0  0  0  0  0  0  0
  160.7010   41.5776  142.4962 C   0  0  1  0  0  0  0  0  0  0  0  0
  151.0296   44.5107  143.1124 N   0  0  0  0  0  0  0  0  0  0  0  0
  151.1825   44.2846  144.4309 C   0  0  1  0  0  0  0  0  0  0  0  0
  160.5346   43.0744  142.3364 C   0  0  2  0  0  0  0  0  0  0  0  0
  150.1949   43.6581  145.1088 N   0  0  0  0  0  0  0  0  0  0  0  0
  161.7625   43.5892  141.8140 O   0  0  0  0  0  0  0  0  0  0  0  0
  160.2797   43.6027  143.7357 C   0  0  2  0  0  0  0  0  0  0  0  0
  152.2821   44.6488  145.1288 N   0  0  0  0  0  0  0  0  0  0  0  0
  160.7788   44.9301  143.8941 O   0  0  0  0  0  0  0  0  0  0  0  0
  153.3128   45.2756  144.5225 C   0  0  2  0  0  0  0  0  0  0  0  0
  161.0285   42.5949  144.6048 C   0  0  2  0  0  0  0  0  0  0  0  0
  161.1188   41.3845  143.8502 O   0  0  0  0  0  0  0  0  0  0  0  0
  153.2153   45.5527  143.0860 C   0  0  2  0  0  0  0  0  0  0  0  0
  160.3802   42.2993  145.9609 C   0  0  0  0  0  0  0  0  0  0  0  0
  158.9777   42.0521  145.8710 O   0  0  0  0  0  0  0  0  0  0  0  0
  151.9804   45.1248  142.3875 C   0  0  0  0  0  0  0  0  0  0  0  0
  151.8419   45.3389  141.1591 O   0  0  0  0  0  0  0  0  0  0  0  0
  154.3617   46.1681  142.7457 N   0  0  0  0  0  0  0  0  0  0  0  0
  155.1250   46.2789  143.8594 C   0  0  0  0  0  0  0  0  0  0  0  0
  154.4950   45.7454  144.9205 N   0  0  1  0  0  0  0  0  0  0  0  0
  156.3702   41.1460  139.5475 N   0  0  0  0  0  0  0  0  0  0  0  0
  158.8497   41.7786  148.4092 O   0  5  0  0  0  0  0  0  0  0  0  0
  157.4498   41.9256  139.3819 C   0  0  2  0  0  0  0  0  0  0  0  0
  157.4697   42.7338  138.3116 N   0  0  0  0  0  0  0  0  0  0  0  0
  156.7287   41.5132  146.8712 O   0  0  0  0  0  0  0  0  0  0  0  0
  158.5058   41.9326  140.2287 N   0  0  0  0  0  0  0  0  0  0  0  0
  158.5236   41.1293  141.3130 C   0  0  1  0  0  0  0  0  0  0  0  0
  157.3637   40.2473  141.5522 C   0  0  1  0  0  0  0  0  0  0  0  0
  156.2520   40.2956  140.5686 C   0  0  0  0  0  0  0  0  0  0  0  0
  155.2247   39.5932  140.6847 O   0  0  0  0  0  0  0  0  0  0  0  0
  157.6344   39.5614  142.6740 N   0  0  0  0  0  0  0  0  0  0  0  0
  158.8556   39.9755  143.1126 C   0  0  0  0  0  0  0  0  0  0  0  0
  159.3906   40.9092  142.3011 N   0  0  2  0  0  0  0  0  0  0  0  0
  1  3  1  6  0  0  0
  1  4  2  0  0  0  0
  1  6  1  0  0  0  0
  1 22  1  0  0  0  0
  2 28  1  0  0  0  0
  2 35  1  1  0  0  0
  2 38  2  0  0  0  0
  2 10  1  0  0  0  0
  5  6  1  0  0  0  0
  7  5  1  6  0  0  0
  7  8  1  0  0  0  0
  7  9  1  0  0  0  0
  9 10  1  1  0  0  0
  9 11  1  0  0  0  0
 11 12  1  1  0  0  0
 11 13  1  0  0  0  0
 13  8  1  6  0  0  0
 13 33  1  0  0  0  0
 14 46  1  0  0  0  0
 14 17  1  0  0  0  0
 14 25  1  1  0  0  0
 15 16  1  0  0  0  0
 15 29  1  0  0  0  0
 16 18  1  6  0  0  0
 16 21  1  0  0  0  0
 17 19  1  1  0  0  0
 17 20  1  0  0  0  0
 20 22  1  6  0  0  0
 20 24  1  0  0  0  0
 23 21  1  6  0  0  0
 23 26  1  0  0  0  0
 23 33  1  0  0  0  0
 24 25  1  6  0  0  0
 24 27  1  0  0  0  0
 26 29  1  6  0  0  0
 26 31  1  0  0  0  0
 27 28  1  0  0  0  0
 29 30  2  0  0  0  0
 31 32  1  0  0  0  0
 33 32  1  1  0  0  0
 34 36  1  0  0  0  0
 34 42  1  0  0  0  0
 36 37  1  6  0  0  0
 36 39  1  0  0  0  0
 40 39  1  6  0  0  0
 40 41  1  0  0  0  0
 40 46  1  0  0  0  0
 41 42  1  6  0  0  0
 41 44  1  0  0  0  0
 42 43  2  0  0  0  0
 44 45  1  0  0  0  0
 46 45  1  1  0  0  0
M  CHG  2   3  -1  35  -1
M  END
>  <CHROM.1>
-161.49668639,47.27976894,157.17879436,43.62041178,143.92969649,-0.29018685
-0.19904030,1.03785086

>  <Name>
ligand

>  <RI>
0

>  <Rbt.Current_Directory>
/home/itssahil/PROJECTS/Mol_Feturizer/Test_systems_manuscript/rnas/4yb0

>  <Rbt.Executable>
rbdock ($Id: //depot/dev/client3/rdock/2013.1/src/exe/rbdock.cxx#4 $)

>  <Rbt.Library>
libRbt.so (2013.1, Build901 2013/11/27)

>  <Rbt.Parameter_File>
/export/apps/rDock/src/rDock_2013.1_src/data/scripts/dock_solv.prm

>  <Rbt.Receptor>
prm/pocket_docking_3.prm

>  <SCORE>
-46.9147

>  <SCORE.INTER>
-46.8927

>  <SCORE.INTER.CONST>
1

>  <SCORE.INTER.POLAR>
0

>  <SCORE.INTER.ROT>
2

>  <SCORE.INTER.SOLV>
39.7619

>  <SCORE.INTER.VDW>
-49.4491

>  <SCORE.INTER.norm>
-1.01941

>  <SCORE.INTRA>
-0.0220271

>  <SCORE.INTRA.DIHEDRAL>
0.0146956

>  <SCORE.INTRA.DIHEDRAL.0>
2.42188

>  <SCORE.INTRA.POLAR>
0

>  <SCORE.INTRA.POLAR.0>
0

>  <SCORE.INTRA.REPUL>
0

>  <SCORE.INTRA.REPUL.0>
0

>  <SCORE.INTRA.SOLV>
-1.92133e-07

>  <SCORE.INTRA.SOLV.lig_0>
-127.307

>  <SCORE.INTRA.VDW>
-0.0293748

>  <SCORE.INTRA.VDW.0>
-2.19936

>  <SCORE.INTRA.norm>
-0.000478851

>  <SCORE.RESTR>
0

>  <SCORE.RESTR.CAVITY>
0

>  <SCORE.RESTR.norm>
0

>  <SCORE.SYSTEM>
0

>  <SCORE.SYSTEM.CONST>
0

>  <SCORE.SYSTEM.DIHEDRAL>
0

>  <SCORE.SYSTEM.SOLV>
0

>  <SCORE.SYSTEM.norm>
0

>  <SCORE.heavy>
46

>  <SCORE.norm>
-1.01988

>  <RMSD>
0.427

$$$$
ligand
 OpenBabel02271912143D
libRbt.so/2013.1/901 2013/11/27
 46 52  0  0  0  0  0  0  0  0999 V2000
  159.8015   46.2027  143.5860 P   0  0  1  0  0  0  0  0  0  0  0  0
  158.0162   42.2112  147.2344 P   0  0  1  0  0  0  0  0  0  0  0  0
  159.3534   46.0192  142.1589 O   0  5  0  0  0  0  0  0  0  0  0  0
  160.4849   47.5104  143.9216 O   0  0  0  0  0  0  0  0  0  0  0  0
  158.2917   46.7503  145.6884 C   0  0  0  0  0  0  0  0  0  0  0  0
  158.5412   45.9380  144.5487 O   0  0  0  0  0  0  0  0  0  0  0  0
  157.3050   46.0582  146.6142 C   0  0  1  0  0  0  0  0  0  0  0  0
  156.0364   46.6745  146.4445 O   0  0  0  0  0  0  0  0  0  0  0  0
  157.0936   44.5711  146.3597 C   0  0  1  0  0  0  0  0  0  0  0  0
  157.7868   43.8149  147.3416 O   0  0  0  0  0  0  0  0  0  0  0  0
  155.6098   44.3829  146.5832 C   0  0  1  0  0  0  0  0  0  0  0  0
  155.3673   44.0700  147.9563 O   0  0  0  0  0  0  0  0  0  0  0  0
  154.9881   45.7249  146.3262 C   0  0  2  0  0  0  0  0  0  0  0  0
  160.6948   41.5989  142.5609 C   0  0  1  0  0  0  0  0  0  0  0  0
  151.0303   44.4813  143.1112 N   0  0  0  0  0  0  0  0  0  0  0  0
  151.1793   44.2562  144.4304 C   0  0  1  0  0  0  0  0  0  0  0  0
  160.5261   43.0947  142.3947 C   0  0  2  0  0  0  0  0  0  0  0  0
  150.1970   43.6154  145.1024 N   0  0  0  0  0  0  0  0  0  0  0  0
  161.7556   43.6101  141.8765 O   0  0  0  0  0  0  0  0  0  0  0  0
  160.2632   43.6277  143.7907 C   0  0  2  0  0  0  0  0  0  0  0  0
  152.2700   44.6352  145.1344 N   0  0  0  0  0  0  0  0  0  0  0  0
  160.7588   44.9567  143.9467 O   0  0  0  0  0  0  0  0  0  0  0  0
  153.2950   45.2770  144.5341 C   0  0  2  0  0  0  0  0  0  0  0  0
  161.0097   42.6247  144.6674 C   0  0  2  0  0  0  0  0  0  0  0  0
  161.1063   41.4116  143.9177 O   0  0  0  0  0  0  0  0  0  0  0  0
  153.2012   45.5539  143.0973 C   0  0  2  0  0  0  0  0  0  0  0  0
  160.3553   42.3327  146.0213 C   0  0  0  0  0  0  0  0  0  0  0  0
  158.9537   42.0824  145.9253 O   0  0  0  0  0  0  0  0  0  0  0  0
  151.9762   45.1093  142.3919 C   0  0  0  0  0  0  0  0  0  0  0  0
  151.8413   45.3225  141.1630 O   0  0  0  0  0  0  0  0  0  0  0  0
  154.3408   46.1856  142.7637 N   0  0  0  0  0  0  0  0  0  0  0  0
  155.0965   46.3061  143.8815 C   0  0  0  0  0  0  0  0  0  0  0  0
  154.4683   45.7629  144.9387 N   0  0  1  0  0  0  0  0  0  0  0  0
  156.3790   41.1484  139.5930 N   0  0  0  0  0  0  0  0  0  0  0  0
  158.8136   41.8180  148.4638 O   0  5  0  0  0  0  0  0  0  0  0  0
  157.4578   41.9298  139.4300 C   0  0  2  0  0  0  0  0  0  0  0  0
  157.4811   42.7345  138.3571 N   0  0  0  0  0  0  0  0  0  0  0  0
  156.7009   41.5426  146.9163 O   0  0  0  0  0  0  0  0  0  0  0  0
  158.5097   41.9418  140.2818 N   0  0  0  0  0  0  0  0  0  0  0  0
  158.5239   41.1421  141.3689 C   0  0  1  0  0  0  0  0  0  0  0  0
  157.3648   40.2585  141.6054 C   0  0  1  0  0  0  0  0  0  0  0  0
  156.2577   40.3012  140.6163 C   0  0  0  0  0  0  0  0  0  0  0  0
  155.2313   39.5970  140.7298 O   0  0  0  0  0  0  0  0  0  0  0  0
  157.6316   39.5768  142.7307 N   0  0  0  0  0  0  0  0  0  0  0  0
  158.8498   39.9950  143.1738 C   0  0  0  0  0  0  0  0  0  0  0  0
  159.3867   40.9271  142.3617 N   0  0  2  0  0  0  0  0  0  0  0  0
  1  3  1  6  0  0  0
  1  4  2  0  0  0  0
  1  6  1  0  0  0  0
  1 22  1  0  0  0  0
  2 28  1  0  0  0  0
  2 35  1  1  0  0  0
  2 38  2  0  0  0  0
  2 10  1  0  0  0  0
  5  6  1  0  0  0  0
  7  5  1  6  0  0  0
  7  8  1  0  0  0  0
  7  9  1  0  0  0  0
  9 10  1  1  0  0  0
  9 11  1  0  0  0  0
 11 12  1  1  0  0  0
 11 13  1  0  0  0  0
 13  8  1  6  0  0  0
 13 33  1  0  0  0  0
 14 46  1  0  0  0  0
 14 17  1  0  0  0  0
 14 25  1  1  0  0  0
 15 16  1  0  0  0  0
 15 29  1  0  0  0  0
 16 18  1  6  0  0  0
 16 21  1  0  0  0  0
 17 19  1  1  0  0  0
 17 20  1  0  0  0  0
 20 22  1  6  0  0  0
 20 24  1  0  0  0  0
 23 21  1  6  0  0  0
 23 26  1  0  0  0  0
 23 33  1  0  0  0  0
 24 25  1  6  0  0  0
 24 27  1  0  0  0  0
 26 29  1  6  0  0  0
 26 31  1  0  0  0  0
 27 28  1  0  0  0  0
 29 30  2  0  0  0  0
 31 32  1  0  0  0  0
 33 32  1  1  0  0  0
 34 36  1  0  0  0  0
 34 42  1  0  0  0  0
 36 37  1  6  0  0  0
 36 39  1  0  0  0  0
 40 39  1  6  0  0  0
 40 41  1  0  0  0  0
 40 46  1  0  0  0  0
 41 42  1  6  0  0  0
 41 44  1  0  0  0  0
 42 43  2  0  0  0  0
 44 45  1  0  0  0  0
 46 45  1  1  0  0  0
M  CHG  2   3  -1  35  -1
M  END
>  <CHROM.1>
-162.23145117,47.25359040,157.16299072,43.63628428,143.96858548,-0.28228085
-0.19740234,1.03431186

>  <Name>
ligand

>  <RI>
0

>  <Rbt.Current_Directory>
/home/itssahil/PROJECTS/Mol_Feturizer/Test_systems_manuscript/rnas/4yb0

>  <Rbt.Executable>
rbdock ($Id: //depot/dev/client3/rdock/2013.1/src/exe/rbdock.cxx#4 $)

>  <Rbt.Library>
libRbt.so (2013.1, Build901 2013/11/27)

>  <Rbt.Parameter_File>
/export/apps/rDock/src/rDock_2013.1_src/data/scripts/dock_solv.prm

>  <Rbt.Receptor>
prm/pocket_docking_4.prm

>  <SCORE>
-46.7672

>  <SCORE.INTER>
-46.7507

>  <SCORE.INTER.CONST>
1

>  <SCORE.INTER.POLAR>
0

>  <SCORE.INTER.ROT>
2

>  <SCORE.INTER.SOLV>
39.3747

>  <SCORE.INTER.VDW>
-49.2254

>  <SCORE.INTER.norm>
-1.01632

>  <SCORE.INTRA>
-0.0165347

>  <SCORE.INTRA.DIHEDRAL>
0.0142021

>  <SCORE.INTRA.DIHEDRAL.0>
2.42188

>  <SCORE.INTRA.POLAR>
0

>  <SCORE.INTRA.POLAR.0>
0

>  <SCORE.INTRA.REPUL>
0

>  <SCORE.INTRA.REPUL.0>
0

>  <SCORE.INTRA.SOLV>
0.000280397

>  <SCORE.INTRA.SOLV.lig_0>
-127.307

>  <SCORE.INTRA.VDW>
-0.023776

>  <SCORE.INTRA.VDW.0>
-2.19936

>  <SCORE.INTRA.norm>
-0.00035945

>  <SCORE.RESTR>
0

>  <SCORE.RESTR.CAVITY>
0

>  <SCORE.RESTR.norm>
0

>  <SCORE.SYSTEM>
0

>  <SCORE.SYSTEM.CONST>
0

>  <SCORE.SYSTEM.DIHEDRAL>
0

>  <SCORE.SYSTEM.SOLV>
0

>  <SCORE.SYSTEM.norm>
0

>  <SCORE.heavy>
46

>  <SCORE.norm>
-1.01668

>  <RMSD>
0.431

$$$$
ligand
 OpenBabel02271912143D
libRbt.so/2013.1/901 2013/11/27
 46 52  0  0  0  0  0  0  0  0999 V2000
  159.7998   46.2017  143.5397 P   0  0  1  0  0  0  0  0  0  0  0  0
  158.0328   42.2029  147.1892 P   0  0  1  0  0  0  0  0  0  0  0  0
  159.3419   46.0227  142.1152 O   0  5  0  0  0  0  0  0  0  0  0  0
  160.4874   47.5074  143.8743 O   0  0  0  0  0  0  0  0  0  0  0  0
  158.3048   46.7459  145.6536 C   0  0  0  0  0  0  0  0  0  0  0  0
  158.5456   45.9362  144.5101 O   0  0  0  0  0  0  0  0  0  0  0  0
  157.3233   46.0527  146.5841 C   0  0  1  0  0  0  0  0  0  0  0  0
  156.0545   46.6712  146.4244 O   0  0  0  0  0  0  0  0  0  0  0  0
  157.1079   44.5666  146.3270 C   0  0  1  0  0  0  0  0  0  0  0  0
  157.8066   43.8067  147.3022 O   0  0  0  0  0  0  0  0  0  0  0  0
  155.6254   44.3800  146.5598 C   0  0  1  0  0  0  0  0  0  0  0  0
  155.3916   44.0637  147.9336 O   0  0  0  0  0  0  0  0  0  0  0  0
  155.0040   45.7235  146.3106 C   0  0  2  0  0  0  0  0  0  0  0  0
  160.6795   41.5994  142.4964 C   0  0  1  0  0  0  0  0  0  0  0  0
  151.0211   44.4987  143.1195 N   0  0  0  0  0  0  0  0  0  0  0  0
  151.1782   44.2704  144.4372 C   0  0  1  0  0  0  0  0  0  0  0  0
  160.5119   43.0958  142.3353 C   0  0  2  0  0  0  0  0  0  0  0  0
  150.1984   43.6311  145.1144 N   0  0  0  0  0  0  0  0  0  0  0  0
  161.7387   43.6109  141.8104 O   0  0  0  0  0  0  0  0  0  0  0  0
  160.2590   43.6255  143.7345 C   0  0  2  0  0  0  0  0  0  0  0  0
  152.2747   44.6446  145.1347 N   0  0  0  0  0  0  0  0  0  0  0  0
  160.7577   44.9533  143.8907 O   0  0  0  0  0  0  0  0  0  0  0  0
  153.2976   45.2845  144.5289 C   0  0  2  0  0  0  0  0  0  0  0  0
  161.0099   42.6190  144.6034 C   0  0  2  0  0  0  0  0  0  0  0  0
  161.0996   41.4078  143.8499 O   0  0  0  0  0  0  0  0  0  0  0  0
  153.1951   45.5648  143.0933 C   0  0  2  0  0  0  0  0  0  0  0  0
  160.3640   42.3243  145.9609 C   0  0  0  0  0  0  0  0  0  0  0  0
  158.9614   42.0763  145.8735 O   0  0  0  0  0  0  0  0  0  0  0  0
  151.9640   45.1254  142.3952 C   0  0  0  0  0  0  0  0  0  0  0  0
  151.8216   45.3416  141.1677 O   0  0  0  0  0  0  0  0  0  0  0  0
  154.3343   46.1937  142.7534 N   0  0  0  0  0  0  0  0  0  0  0  0
  155.0978   46.3096  143.8664 C   0  0  0  0  0  0  0  0  0  0  0  0
  154.4751   45.7661  144.9267 N   0  0  1  0  0  0  0  0  0  0  0  0
  156.3534   41.1471  139.5437 N   0  0  0  0  0  0  0  0  0  0  0  0
  158.8378   41.8053  148.4122 O   0  5  0  0  0  0  0  0  0  0  0  0
  157.4337   41.9251  139.3740 C   0  0  2  0  0  0  0  0  0  0  0  0
  157.4557   42.7252  138.2976 N   0  0  0  0  0  0  0  0  0  0  0  0
  156.7144   41.5372  146.8780 O   0  0  0  0  0  0  0  0  0  0  0  0
  158.4882   41.9380  140.2225 N   0  0  0  0  0  0  0  0  0  0  0  0
  158.5038   41.1430  141.3129 C   0  0  1  0  0  0  0  0  0  0  0  0
  157.3432   40.2633  141.5568 C   0  0  1  0  0  0  0  0  0  0  0  0
  156.2331   40.3045  140.5710 C   0  0  0  0  0  0  0  0  0  0  0  0
  155.2054   39.6035  140.6906 O   0  0  0  0  0  0  0  0  0  0  0  0
  157.6118   39.5858  142.6842 N   0  0  0  0  0  0  0  0  0  0  0  0
  158.8324   40.0027  143.1218 C   0  0  0  0  0  0  0  0  0  0  0  0
  159.3691   40.9300  142.3041 N   0  0  2  0  0  0  0  0  0  0  0  0
  1  3  1  6  0  0  0
  1  4  2  0  0  0  0
  1  6  1  0  0  0  0
  1 22  1  0  0  0  0
  2 28  1  0  0  0  0
  2 35  1  1  0  0  0
  2 38  2  0  0  0  0
  2 10  1  0  0  0  0
  5  6  1  0  0  0  0
  7  5  1  6  0  0  0
  7  8  1  0  0  0  0
  7  9  1  0  0  0  0
  9 10  1  1  0  0  0
  9 11  1  0  0  0  0
 11 12  1  1  0  0  0
 11 13  1  0  0  0  0
 13  8  1  6  0  0  0
 13 33  1  0  0  0  0
 14 46  1  0  0  0  0
 14 17  1  0  0  0  0
 14 25  1  1  0  0  0
 15 16  1  0  0  0  0
 15 29  1  0  0  0  0
 16 18  1  6  0  0  0
 16 21  1  0  0  0  0
 17 19  1  1  0  0  0
 17 20  1  0  0  0  0
 20 22  1  6  0  0  0
 20 24  1  0  0  0  0
 23 21  1  6  0  0  0
 23 26  1  0  0  0  0
 23 33  1  0  0  0  0
 24 25  1  6  0  0  0
 24 27  1  0  0  0  0
 26 29  1  6  0  0  0
 26 31  1  0  0  0  0
 27 28  1  0  0  0  0
 29 30  2  0  0  0  0
 31 32  1  0  0  0  0
 33 32  1  1  0  0  0
 34 36  1  0  0  0  0
 34 42  1  0  0  0  0
 36 37  1  6  0  0  0
 36 39  1  0  0  0  0
 40 39  1  6  0  0  0
 40 41  1  0  0  0  0
 40 46  1  0  0  0  0
 41 42  1  6  0  0  0
 41 44  1  0  0  0  0
 42 43  2  0  0  0  0
 44 45  1  0  0  0  0
 46 45  1  1  0  0  0
M  CHG  2   3  -1  35  -1
M  END
>  <CHROM.1>
-162.13644759,47.70517532,157.16097628,43.63682333,143.93168952,-0.29298395
-0.19531551,1.03531325

>  <Name>
ligand

>  <RI>
0

>  <Rbt.Current_Directory>
/home/itssahil/PROJECTS/Mol_Feturizer/Test_systems_manuscript/rnas/4yb0

>  <Rbt.Executable>
rbdock ($Id: //depot/dev/client3/rdock/2013.1/src/exe/rbdock.cxx#4 $)

>  <Rbt.Library>
libRbt.so (2013.1, Build901 2013/11/27)

>  <Rbt.Parameter_File>
/export/apps/rDock/src/rDock_2013.1_src/data/scripts/dock_solv.prm

>  <Rbt.Receptor>
prm/pocket_docking_5.prm

>  <SCORE>
-46.7899

>  <SCORE.INTER>
-46.7679

>  <SCORE.INTER.CONST>
1

>  <SCORE.INTER.POLAR>
0

>  <SCORE.INTER.ROT>
2

>  <SCORE.INTER.SOLV>
39.7747

>  <SCORE.INTER.VDW>
-49.3702

>  <SCORE.INTER.norm>
-1.01669

>  <SCORE.INTRA>
-0.0230585

>  <SCORE.INTRA.DIHEDRAL>
0.0136974

>  <SCORE.INTRA.DIHEDRAL.0>
2.42188

>  <SCORE.INTRA.POLAR>
0

>  <SCORE.INTRA.POLAR.0>
0

>  <SCORE.INTRA.REPUL>
0

>  <SCORE.INTRA.REPUL.0>
0

>  <SCORE.INTRA.SOLV>
1.25327e-05

>  <SCORE.INTRA.SOLV.lig_0>
-127.307

>  <SCORE.INTRA.VDW>
-0.0299134

>  <SCORE.INTRA.VDW.0>
-2.19936

>  <SCORE.INTRA.norm>
-0.000501271

>  <SCORE.RESTR>
0.00101453

>  <SCORE.RESTR.CAVITY>
0.00101453

>  <SCORE.RESTR.norm>
2.2055e-05

>  <SCORE.SYSTEM>
0

>  <SCORE.SYSTEM.CONST>
0

>  <SCORE.SYSTEM.DIHEDRAL>
0

>  <SCORE.SYSTEM.SOLV>
0

>  <SCORE.SYSTEM.norm>
0

>  <SCORE.heavy>
46

>  <SCORE.norm>
-1.01717

>  <RMSD>
0.432

$$$$
ligand
 OpenBabel02271912143D
libRbt.so/2013.1/901 2013/11/27
 46 52  0  0  0  0  0  0  0  0999 V2000
  159.7938   46.2154  143.5927 P   0  0  1  0  0  0  0  0  0  0  0  0
  158.0107   42.2020  147.2181 P   0  0  1  0  0  0  0  0  0  0  0  0
  159.3486   46.0380  142.1639 O   0  5  0  0  0  0  0  0  0  0  0  0
  160.4739   47.5228  143.9360 O   0  0  0  0  0  0  0  0  0  0  0  0
  158.2791   46.7493  145.6951 C   0  0  0  0  0  0  0  0  0  0  0  0
  158.5324   45.9432  144.5518 O   0  0  0  0  0  0  0  0  0  0  0  0
  157.2923   46.0505  146.6157 C   0  0  1  0  0  0  0  0  0  0  0  0
  156.0227   46.6649  146.4468 O   0  0  0  0  0  0  0  0  0  0  0  0
  157.0845   44.5642  146.3535 C   0  0  1  0  0  0  0  0  0  0  0  0
  157.7777   43.8047  147.3328 O   0  0  0  0  0  0  0  0  0  0  0  0
  155.6008   44.3718  146.5734 C   0  0  1  0  0  0  0  0  0  0  0  0
  155.3566   44.0515  147.9445 O   0  0  0  0  0  0  0  0  0  0  0  0
  154.9767   45.7136  146.3220 C   0  0  2  0  0  0  0  0  0  0  0  0
  160.6988   41.6186  142.5464 C   0  0  1  0  0  0  0  0  0  0  0  0
  151.0223   44.4878  143.0960 N   0  0  0  0  0  0  0  0  0  0  0  0
  151.1687   44.2579  144.4146 C   0  0  1  0  0  0  0  0  0  0  0  0
  160.5273   43.1148  142.3873 C   0  0  2  0  0  0  0  0  0  0  0  0
  150.1842   43.6162  145.0827 N   0  0  0  0  0  0  0  0  0  0  0  0
  161.7565   43.6354  141.8739 O   0  0  0  0  0  0  0  0  0  0  0  0
  160.2607   43.6404  143.7855 C   0  0  2  0  0  0  0  0  0  0  0  0
  152.2588   44.6326  145.1218 N   0  0  0  0  0  0  0  0  0  0  0  0
  160.7532   44.9696  143.9489 O   0  0  0  0  0  0  0  0  0  0  0  0
  153.2859   45.2748  144.5254 C   0  0  2  0  0  0  0  0  0  0  0  0
  161.0079   42.6346  144.6584 C   0  0  2  0  0  0  0  0  0  0  0  0
  161.1083   41.4255  143.9030 O   0  0  0  0  0  0  0  0  0  0  0  0
  153.1949   45.5570  143.0895 C   0  0  2  0  0  0  0  0  0  0  0  0
  160.3517   42.3345  146.0097 C   0  0  0  0  0  0  0  0  0  0  0  0
  158.9508   42.0817  145.9100 O   0  0  0  0  0  0  0  0  0  0  0  0
  151.9703   45.1169  142.3805 C   0  0  0  0  0  0  0  0  0  0  0  0
  151.8378   45.3347  141.1521 O   0  0  0  0  0  0  0  0  0  0  0  0
  154.3360   46.1880  142.7600 N   0  0  0  0  0  0  0  0  0  0  0  0
  155.0900   46.3034  143.8795 C   0  0  0  0  0  0  0  0  0  0  0  0
  154.4593   45.7574  144.9337 N   0  0  1  0  0  0  0  0  0  0  0  0
  156.3975   41.1606  139.5587 N   0  0  0  0  0  0  0  0  0  0  0  0
  158.8068   41.8044  148.4469 O   0  5  0  0  0  0  0  0  0  0  0  0
  157.4760   41.9432  139.4002 C   0  0  2  0  0  0  0  0  0  0  0  0
  157.5034   42.7473  138.3268 N   0  0  0  0  0  0  0  0  0  0  0  0
  156.6974   41.5322  146.8943 O   0  0  0  0  0  0  0  0  0  0  0  0
  158.5240   41.9571  140.2569 N   0  0  0  0  0  0  0  0  0  0  0  0
  158.5342   41.1583  141.3445 C   0  0  1  0  0  0  0  0  0  0  0  0
  157.3750   40.2733  141.5762 C   0  0  1  0  0  0  0  0  0  0  0  0
  156.2725   40.3139  140.5820 C   0  0  0  0  0  0  0  0  0  0  0  0
  155.2465   39.6085  140.6912 O   0  0  0  0  0  0  0  0  0  0  0  0
  157.6375   39.5927  142.7033 N   0  0  0  0  0  0  0  0  0  0  0  0
  158.8531   40.0127  143.1518 C   0  0  0  0  0  0  0  0  0  0  0  0
  159.3925   40.9450  142.3415 N   0  0  2  0  0  0  0  0  0  0  0  0
  1  3  1  6  0  0  0
  1  4  2  0  0  0  0
  1  6  1  0  0  0  0
  1 22  1  0  0  0  0
  2 28  1  0  0  0  0
  2 35  1  1  0  0  0
  2 38  2  0  0  0  0
  2 10  1  0  0  0  0
  5  6  1  0  0  0  0
  7  5  1  6  0  0  0
  7  8  1  0  0  0  0
  7  9  1  0  0  0  0
  9 10  1  1  0  0  0
  9 11  1  0  0  0  0
 11 12  1  1  0  0  0
 11 13  1  0  0  0  0
 13  8  1  6  0  0  0
 13 33  1  0  0  0  0
 14 46  1  0  0  0  0
 14 17  1  0  0  0  0
 14 25  1  1  0  0  0
 15 16  1  0  0  0  0
 15 29  1  0  0  0  0
 16 18  1  6  0  0  0
 16 21  1  0  0  0  0
 17 19  1  1  0  0  0
 17 20  1  0  0  0  0
 20 22  1  6  0  0  0
 20 24  1  0  0  0  0
 23 21  1  6  0  0  0
 23 26  1  0  0  0  0
 23 33  1  0  0  0  0
 24 25  1  6  0  0  0
 24 27  1  0  0  0  0
 26 29  1  6  0  0  0
 26 31  1  0  0  0  0
 27 28  1  0  0  0  0
 29 30  2  0  0  0  0
 31 32  1  0  0  0  0
 33 32  1  1  0  0  0
 34 36  1  0  0  0  0
 34 42  1  0  0  0  0
 36 37  1  6  0  0  0
 36 39  1  0  0  0  0
 40 39  1  6  0  0  0
 40 41  1  0  0  0  0
 40 46  1  0  0  0  0
 41 42  1  6  0  0  0
 41 44  1  0  0  0  0
 42 43  2  0  0  0  0
 44 45  1  0  0  0  0
 46 45  1  1  0  0  0
M  CHG  2   3  -1  35  -1
M  END
>  <CHROM.1>
-162.00242123,47.61976738,157.16055183,43.64112234,143.95700630,-0.28341356
-0.19699013,1.03965468

>  <Name>
ligand

>  <RI>
0

>  <Rbt.Current_Directory>
/home/itssahil/PROJECTS/Mol_Feturizer/Test_systems_manuscript/rnas/4yb0

>  <Rbt.Executable>
rbdock ($Id: //depot/dev/client3/rdock/2013.1/src/exe/rbdock.cxx#4 $)

>  <Rbt.Library>
libRbt.so (2013.1, Build901 2013/11/27)

>  <Rbt.Parameter_File>
/export/apps/rDock/src/rDock_2013.1_src/data/scripts/dock_solv.prm

>  <Rbt.Receptor>
prm/pocket_docking_7.prm

>  <SCORE>
-46.8618

>  <SCORE.INTER>
-46.8395

>  <SCORE.INTER.CONST>
1

>  <SCORE.INTER.POLAR>
0

>  <SCORE.INTER.ROT>
2

>  <SCORE.INTER.SOLV>
39.4013

>  <SCORE.INTER.VDW>
-49.2934

>  <SCORE.INTER.norm>
-1.01825

>  <SCORE.INTRA>
-0.022901

>  <SCORE.INTRA.DIHEDRAL>
0.0139042

>  <SCORE.INTRA.DIHEDRAL.0>
2.42188

>  <SCORE.INTRA.POLAR>
0

>  <SCORE.INTRA.POLAR.0>
0

>  <SCORE.INTRA.REPUL>
0

>  <SCORE.INTRA.REPUL.0>
0

>  <SCORE.INTRA.SOLV>
7.81614e-06

>  <SCORE.INTRA.SOLV.lig_0>
-127.307

>  <SCORE.INTRA.VDW>
-0.029857

>  <SCORE.INTRA.VDW.0>
-2.19936

>  <SCORE.INTRA.norm>
-0.000497848

>  <SCORE.RESTR>
0.00064066

>  <SCORE.RESTR.CAVITY>
0.00064066

>  <SCORE.RESTR.norm>
1.39274e-05

>  <SCORE.SYSTEM>
0

>  <SCORE.SYSTEM.CONST>
0

>  <SCORE.SYSTEM.DIHEDRAL>
0

>  <SCORE.SYSTEM.SOLV>
0

>  <SCORE.SYSTEM.norm>
0

>  <SCORE.heavy>
46

>  <SCORE.norm>
-1.01873

>  <RMSD>
0.438

$$$$
ligand
 OpenBabel02271912143D
libRbt.so/2013.1/901 2013/11/27
 46 52  0  0  0  0  0  0  0  0999 V2000
  159.8180   46.1729  143.5023 P   0  0  1  0  0  0  0  0  0  0  0  0
  158.0489   42.2015  147.1805 P   0  0  1  0  0  0  0  0  0  0  0  0
  159.3599   45.9839  142.0791 O   0  5  0  0  0  0  0  0  0  0  0  0
  160.5065   47.4805  143.8274 O   0  0  0  0  0  0  0  0  0  0  0  0
  158.3236   46.7331  145.6123 C   0  0  0  0  0  0  0  0  0  0  0  0
  158.5638   45.9152  144.4746 O   0  0  0  0  0  0  0  0  0  0  0  0
  157.3418   46.0473  146.5479 C   0  0  1  0  0  0  0  0  0  0  0  0
  156.0734   46.6655  146.3839 O   0  0  0  0  0  0  0  0  0  0  0  0
  157.1255   44.5595  146.3015 C   0  0  1  0  0  0  0  0  0  0  0  0
  157.8237   43.8062  147.2820 O   0  0  0  0  0  0  0  0  0  0  0  0
  155.6428   44.3755  146.5358 C   0  0  1  0  0  0  0  0  0  0  0  0
  155.4090   44.0693  147.9119 O   0  0  0  0  0  0  0  0  0  0  0  0
  155.0223   45.7177  146.2770 C   0  0  2  0  0  0  0  0  0  0  0  0
  160.6946   41.5626  142.4919 C   0  0  1  0  0  0  0  0  0  0  0  0
  151.0244   44.5020  143.1013 N   0  0  0  0  0  0  0  0  0  0  0  0
  151.1795   44.2867  144.4213 C   0  0  1  0  0  0  0  0  0  0  0  0
  160.5280   43.0580  142.3201 C   0  0  2  0  0  0  0  0  0  0  0  0
  150.1930   43.6661  145.1060 N   0  0  0  0  0  0  0  0  0  0  0  0
  161.7551   43.5684  141.7913 O   0  0  0  0  0  0  0  0  0  0  0  0
  160.2756   43.5978  143.7154 C   0  0  2  0  0  0  0  0  0  0  0  0
  152.2804   44.6564  145.1142 N   0  0  0  0  0  0  0  0  0  0  0  0
  160.7752   44.9264  143.8621 O   0  0  0  0  0  0  0  0  0  0  0  0
  153.3103   45.2779  144.5009 C   0  0  2  0  0  0  0  0  0  0  0  0
  161.0260   42.5971  144.5915 C   0  0  2  0  0  0  0  0  0  0  0  0
  161.1149   41.3805  143.8467 O   0  0  0  0  0  0  0  0  0  0  0  0
  153.2102   45.5432  143.0624 C   0  0  2  0  0  0  0  0  0  0  0  0
  160.3801   42.3126  145.9511 C   0  0  0  0  0  0  0  0  0  0  0  0
  158.9773   42.0649  145.8657 O   0  0  0  0  0  0  0  0  0  0  0  0
  151.9740   45.1098  142.3696 C   0  0  0  0  0  0  0  0  0  0  0  0
  151.8334   45.3139  141.1398 O   0  0  0  0  0  0  0  0  0  0  0  0
  154.3562   46.1554  142.7150 N   0  0  0  0  0  0  0  0  0  0  0  0
  155.1215   46.2752  143.8264 C   0  0  0  0  0  0  0  0  0  0  0  0
  154.4932   45.7506  144.8929 N   0  0  1  0  0  0  0  0  0  0  0  0
  156.3724   41.0848  139.5377 N   0  0  0  0  0  0  0  0  0  0  0  0
  158.8538   41.8122  148.4062 O   0  5  0  0  0  0  0  0  0  0  0  0
  157.4537   41.8598  139.3616 C   0  0  2  0  0  0  0  0  0  0  0  0
  157.4782   42.6488  138.2771 N   0  0  0  0  0  0  0  0  0  0  0  0
  156.7301   41.5344  146.8742 O   0  0  0  0  0  0  0  0  0  0  0  0
  158.5071   41.8803  140.2115 N   0  0  0  0  0  0  0  0  0  0  0  0
  158.5202   41.0965  141.3100 C   0  0  1  0  0  0  0  0  0  0  0  0
  157.3582   40.2205  141.5611 C   0  0  1  0  0  0  0  0  0  0  0  0
  156.2497   40.2529  140.5733 C   0  0  0  0  0  0  0  0  0  0  0  0
  155.2210   39.5542  140.6986 O   0  0  0  0  0  0  0  0  0  0  0  0
  157.6245   39.5543  142.6958 N   0  0  0  0  0  0  0  0  0  0  0  0
  158.8449   39.9745  143.1309 C   0  0  0  0  0  0  0  0  0  0  0  0
  159.3838   40.8927  142.3045 N   0  0  2  0  0  0  0  0  0  0  0  0
  1  3  1  6  0  0  0
  1  4  2  0  0  0  0
  1  6  1  0  0  0  0
  1 22  1  0  0  0  0
  2 28  1  0  0  0  0
  2 35  1  1  0  0  0
  2 38  2  0  0  0  0
  2 10  1  0  0  0  0
  5  6  1  0  0  0  0
  7  5  1  6  0  0  0
  7  8  1  0  0  0  0
  7  9  1  0  0  0  0
  9 10  1  1  0  0  0
  9 11  1  0  0  0  0
 11 12  1  1  0  0  0
 11 13  1  0  0  0  0
 13  8  1  6  0  0  0
 13 33  1  0  0  0  0
 14 46  1  0  0  0  0
 14 17  1  0  0  0  0
 14 25  1  1  0  0  0
 15 16  1  0  0  0  0
 15 29  1  0  0  0  0
 16 18  1  6  0  0  0
 16 21  1  0  0  0  0
 17 19  1  1  0  0  0
 17 20  1  0  0  0  0
 20 22  1  6  0  0  0
 20 24  1  0  0  0  0
 23 21  1  6  0  0  0
 23 26  1  0  0  0  0
 23 33  1  0  0  0  0
 24 25  1  6  0  0  0
 24 27  1  0  0  0  0
 26 29  1  6  0  0  0
 26 31  1  0  0  0  0
 27 28  1  0  0  0  0
 29 30  2  0  0  0  0
 31 32  1  0  0  0  0
 33 32  1  1  0  0  0
 34 36  1  0  0  0  0
 34 42  1  0  0  0  0
 36 37  1  6  0  0  0
 36 39  1  0  0  0  0
 40 39  1  6  0  0  0
 40 41  1  0  0  0  0
 40 46  1  0  0  0  0
 41 42  1  6  0  0  0
 41 44  1  0  0  0  0
 42 43  2  0  0  0  0
 44 45  1  0  0  0  0
 46 45  1  1  0  0  0
M  CHG  2   3  -1  35  -1
M  END
>  <CHROM.1>
-161.48622597,47.90445256,157.17660912,43.61499180,143.91297058,-0.29708642
-0.19785136,1.02861507

>  <Name>
ligand

>  <RI>
0

>  <Rbt.Current_Directory>
/home/itssahil/PROJECTS/Mol_Feturizer/Test_systems_manuscript/rnas/4yb0

>  <Rbt.Executable>
rbdock ($Id: //depot/dev/client3/rdock/2013.1/src/exe/rbdock.cxx#4 $)

>  <Rbt.Library>
libRbt.so (2013.1, Build901 2013/11/27)

>  <Rbt.Parameter_File>
/export/apps/rDock/src/rDock_2013.1_src/data/scripts/dock_solv.prm

>  <Rbt.Receptor>
prm/pocket_docking_3.prm

>  <SCORE>
-46.9193

>  <SCORE.INTER>
-46.8891

>  <SCORE.INTER.CONST>
1

>  <SCORE.INTER.POLAR>
0

>  <SCORE.INTER.ROT>
2

>  <SCORE.INTER.SOLV>
39.893

>  <SCORE.INTER.VDW>
-49.4904

>  <SCORE.INTER.norm>
-1.01933

>  <SCORE.INTRA>
-0.0301687

>  <SCORE.INTRA.DIHEDRAL>
0.0139051

>  <SCORE.INTRA.DIHEDRAL.0>
2.42188

>  <SCORE.INTRA.POLAR>
0

>  <SCORE.INTRA.POLAR.0>
0

>  <SCORE.INTRA.REPUL>
0

>  <SCORE.INTRA.REPUL.0>
0

>  <SCORE.INTRA.SOLV>
-0.000326601

>  <SCORE.INTRA.SOLV.lig_0>
-127.307

>  <SCORE.INTRA.VDW>
-0.036958

>  <SCORE.INTRA.VDW.0>
-2.19936

>  <SCORE.INTRA.norm>
-0.000655842

>  <SCORE.RESTR>
0

>  <SCORE.RESTR.CAVITY>
0

>  <SCORE.RESTR.norm>
0

>  <SCORE.SYSTEM>
0

>  <SCORE.SYSTEM.CONST>
0

>  <SCORE.SYSTEM.DIHEDRAL>
0

>  <SCORE.SYSTEM.SOLV>
0

>  <SCORE.SYSTEM.norm>
0

>  <SCORE.heavy>
46

>  <SCORE.norm>
-1.01998

>  <RMSD>
0.439

$$$$
ligand
 OpenBabel02271912143D
libRbt.so/2013.1/901 2013/11/27
 46 52  0  0  0  0  0  0  0  0999 V2000
  159.8529   46.1314  143.4995 P   0  0  1  0  0  0  0  0  0  0  0  0
  158.0456   42.1614  147.1607 P   0  0  1  0  0  0  0  0  0  0  0  0
  159.3940   45.9522  142.0753 O   0  5  0  0  0  0  0  0  0  0  0  0
  160.5529   47.4314  143.8303 O   0  0  0  0  0  0  0  0  0  0  0  0
  158.3622   46.6966  145.6109 C   0  0  0  0  0  0  0  0  0  0  0  0
  158.5957   45.8811  144.4700 O   0  0  0  0  0  0  0  0  0  0  0  0
  157.3736   46.0159  146.5430 C   0  0  1  0  0  0  0  0  0  0  0  0
  156.1109   46.6462  146.3808 O   0  0  0  0  0  0  0  0  0  0  0  0
  157.1440   44.5312  146.2906 C   0  0  1  0  0  0  0  0  0  0  0  0
  157.8348   43.7677  147.2685 O   0  0  0  0  0  0  0  0  0  0  0  0
  155.6596   44.3596  146.5232 C   0  0  1  0  0  0  0  0  0  0  0  0
  155.4221   44.0500  147.8979 O   0  0  0  0  0  0  0  0  0  0  0  0
  155.0514   45.7083  146.2694 C   0  0  2  0  0  0  0  0  0  0  0  0
  160.6886   41.5174  142.4712 C   0  0  1  0  0  0  0  0  0  0  0  0
  151.0452   44.5405  143.0861 N   0  0  0  0  0  0  0  0  0  0  0  0
  151.1976   44.3185  144.4054 C   0  0  1  0  0  0  0  0  0  0  0  0
  160.5356   43.0149  142.3053 C   0  0  2  0  0  0  0  0  0  0  0  0
  150.2052   43.7037  145.0869 N   0  0  0  0  0  0  0  0  0  0  0  0
  161.7675   43.5164  141.7794 O   0  0  0  0  0  0  0  0  0  0  0  0
  160.2871   43.5515  143.7027 C   0  0  2  0  0  0  0  0  0  0  0  0
  152.3012   44.6757  145.1005 N   0  0  0  0  0  0  0  0  0  0  0  0
  160.7985   44.8749  143.8550 O   0  0  0  0  0  0  0  0  0  0  0  0
  153.3368   45.2908  144.4904 C   0  0  2  0  0  0  0  0  0  0  0  0
  161.0278   42.5405  144.5752 C   0  0  2  0  0  0  0  0  0  0  0  0
  161.1062   41.3262  143.8255 O   0  0  0  0  0  0  0  0  0  0  0  0
  153.2400   45.5629  143.0529 C   0  0  2  0  0  0  0  0  0  0  0  0
  160.3785   42.2564  145.9332 C   0  0  0  0  0  0  0  0  0  0  0  0
  158.9736   42.0217  145.8459 O   0  0  0  0  0  0  0  0  0  0  0  0
  152.0005   45.1431  142.3576 C   0  0  0  0  0  0  0  0  0  0  0  0
  151.8625   45.3534  141.1285 O   0  0  0  0  0  0  0  0  0  0  0  0
  154.3916   46.1665  142.7088 N   0  0  0  0  0  0  0  0  0  0  0  0
  155.1571   46.2751  143.8211 C   0  0  0  0  0  0  0  0  0  0  0  0
  154.5236   45.7516  144.8851 N   0  0  1  0  0  0  0  0  0  0  0  0
  156.3574   41.1017  139.5208 N   0  0  0  0  0  0  0  0  0  0  0  0
  158.8461   41.7599  148.3854 O   0  5  0  0  0  0  0  0  0  0  0  0
  157.4448   41.8692  139.3496 C   0  0  2  0  0  0  0  0  0  0  0  0
  157.4740   42.6675  138.2720 N   0  0  0  0  0  0  0  0  0  0  0  0
  156.7210   41.5074  146.8510 O   0  0  0  0  0  0  0  0  0  0  0  0
  158.4998   41.8734  140.1977 N   0  0  0  0  0  0  0  0  0  0  0  0
  158.5083   41.0799  141.2892 C   0  0  1  0  0  0  0  0  0  0  0  0
  157.3395   40.2114  141.5348 C   0  0  1  0  0  0  0  0  0  0  0  0
  156.2295   40.2617  140.5493 C   0  0  0  0  0  0  0  0  0  0  0  0
  155.1953   39.5705  140.6703 O   0  0  0  0  0  0  0  0  0  0  0  0
  157.6021   39.5331  142.6631 N   0  0  0  0  0  0  0  0  0  0  0  0
  158.8268   39.9392  143.0996 C   0  0  0  0  0  0  0  0  0  0  0  0
  159.3719   40.8602  142.2803 N   0  0  2  0  0  0  0  0  0  0  0  0
  1  3  1  6  0  0  0
  1  4  2  0  0  0  0
  1  6  1  0  0  0  0
  1 22  1  0  0  0  0
  2 28  1  0  0  0  0
  2 35  1  1  0  0  0
  2 38  2  0  0  0  0
  2 10  1  0  0  0  0
  5  6  1  0  0  0  0
  7  5  1  6  0  0  0
  7  8  1  0  0  0  0
  7  9  1  0  0  0  0
  9 10  1  1  0  0  0
  9 11  1  0  0  0  0
 11 12  1  1  0  0  0
 11 13  1  0  0  0  0
 13  8  1  6  0  0  0
 13 33  1  0  0  0  0
 14 46  1  0  0  0  0
 14 17  1  0  0  0  0
 14 25  1  1  0  0  0
 15 16  1  0  0  0  0
 15 29  1  0  0  0  0
 16 18  1  6  0  0  0
 16 21  1  0  0  0  0
 17 19  1  1  0  0  0
 17 20  1  0  0  0  0
 20 22  1  6  0  0  0
 20 24  1  0  0  0  0
 23 21  1  6  0  0  0
 23 26  1  0  0  0  0
 23 33  1  0  0  0  0
 24 25  1  6  0  0  0
 24 27  1  0  0  0  0
 26 29  1  6  0  0  0
 26 31  1  0  0  0  0
 27 28  1  0  0  0  0
 29 30  2  0  0  0  0
 31 32  1  0  0  0  0
 33 32  1  1  0  0  0
 34 36  1  0  0  0  0
 34 42  1  0  0  0  0
 36 37  1  6  0  0  0
 36 39  1  0  0  0  0
 40 39  1  6  0  0  0
 40 41  1  0  0  0  0
 40 46  1  0  0  0  0
 41 42  1  6  0  0  0
 41 44  1  0  0  0  0
 42 43  2  0  0  0  0
 44 45  1  0  0  0  0
 46 45  1  1  0  0  0
M  CHG  2   3  -1  35  -1
M  END
>  <CHROM.1>
-161.50614275,47.59322676,157.18754699,43.59688918,143.89921748,-0.29855321
-0.20604635,1.03213820

>  <Name>
ligand

>  <RI>
0

>  <Rbt.Current_Directory>
/home/itssahil/PROJECTS/Mol_Feturizer/Test_systems_manuscript/rnas/4yb0

>  <Rbt.Executable>
rbdock ($Id: //depot/dev/client3/rdock/2013.1/src/exe/rbdock.cxx#4 $)

>  <Rbt.Library>
libRbt.so (2013.1, Build901 2013/11/27)

>  <Rbt.Parameter_File>
/export/apps/rDock/src/rDock_2013.1_src/data/scripts/dock_solv.prm

>  <Rbt.Receptor>
prm/pocket_docking_3.prm

>  <SCORE>
-46.9107

>  <SCORE.INTER>
-46.8847

>  <SCORE.INTER.CONST>
1

>  <SCORE.INTER.POLAR>
0

>  <SCORE.INTER.ROT>
2

>  <SCORE.INTER.SOLV>
40.0532

>  <SCORE.INTER.VDW>
-49.5409

>  <SCORE.INTER.norm>
-1.01923

>  <SCORE.INTRA>
-0.02603

>  <SCORE.INTRA.DIHEDRAL>
0.014291

>  <SCORE.INTRA.DIHEDRAL.0>
2.42188

>  <SCORE.INTRA.POLAR>
0

>  <SCORE.INTRA.POLAR.0>
0

>  <SCORE.INTRA.REPUL>
0

>  <SCORE.INTRA.REPUL.0>
0

>  <SCORE.INTRA.SOLV>
-0.000158641

>  <SCORE.INTRA.SOLV.lig_0>
-127.307

>  <SCORE.INTRA.VDW>
-0.0330962

>  <SCORE.INTRA.VDW.0>
-2.19936

>  <SCORE.INTRA.norm>
-0.000565869

>  <SCORE.RESTR>
0

>  <SCORE.RESTR.CAVITY>
0

>  <SCORE.RESTR.norm>
0

>  <SCORE.SYSTEM>
0

>  <SCORE.SYSTEM.CONST>
0

>  <SCORE.SYSTEM.DIHEDRAL>
0

>  <SCORE.SYSTEM.SOLV>
0

>  <SCORE.SYSTEM.norm>
0

>  <SCORE.heavy>
46

>  <SCORE.norm>
-1.0198

>  <RMSD>
0.440

$$$$
ligand
 OpenBabel02271912143D
libRbt.so/2013.1/901 2013/11/27
 46 52  0  0  0  0  0  0  0  0999 V2000
  159.8215   46.1528  143.5113 P   0  0  1  0  0  0  0  0  0  0  0  0
  158.0378   42.1833  147.1845 P   0  0  1  0  0  0  0  0  0  0  0  0
  159.3648   45.9660  142.0874 O   0  5  0  0  0  0  0  0  0  0  0  0
  160.5128   47.4585  143.8383 O   0  0  0  0  0  0  0  0  0  0  0  0
  158.3258   46.7153  145.6198 C   0  0  0  0  0  0  0  0  0  0  0  0
  158.5654   45.8975  144.4818 O   0  0  0  0  0  0  0  0  0  0  0  0
  157.3410   46.0312  146.5536 C   0  0  1  0  0  0  0  0  0  0  0  0
  156.0744   46.6527  146.3884 O   0  0  0  0  0  0  0  0  0  0  0  0
  157.1213   44.5442  146.3059 C   0  0  1  0  0  0  0  0  0  0  0  0
  157.8165   43.7884  147.2868 O   0  0  0  0  0  0  0  0  0  0  0  0
  155.6380   44.3637  146.5382 C   0  0  1  0  0  0  0  0  0  0  0  0
  155.4015   44.0571  147.9137 O   0  0  0  0  0  0  0  0  0  0  0  0
  155.0211   45.7075  146.2795 C   0  0  2  0  0  0  0  0  0  0  0  0
  160.6880   41.5410  142.4988 C   0  0  1  0  0  0  0  0  0  0  0  0
  151.0300   44.4916  143.0952 N   0  0  0  0  0  0  0  0  0  0  0  0
  151.1837   44.2736  144.4150 C   0  0  1  0  0  0  0  0  0  0  0  0
  160.5253   43.0370  142.3279 C   0  0  2  0  0  0  0  0  0  0  0  0
  150.1974   43.6494  145.0968 N   0  0  0  0  0  0  0  0  0  0  0  0
  161.7543   43.5447  141.8011 O   0  0  0  0  0  0  0  0  0  0  0  0
  160.2725   43.5765  143.7232 C   0  0  2  0  0  0  0  0  0  0  0  0
  152.2829   44.6437  145.1103 N   0  0  0  0  0  0  0  0  0  0  0  0
  160.7751   44.9037  143.8715 O   0  0  0  0  0  0  0  0  0  0  0  0
  153.3124   45.2687  144.4999 C   0  0  2  0  0  0  0  0  0  0  0  0
  161.0192   42.5732  144.5996 C   0  0  2  0  0  0  0  0  0  0  0  0
  161.1060   41.3570  143.8540 O   0  0  0  0  0  0  0  0  0  0  0  0
  153.2139   45.5372  143.0619 C   0  0  2  0  0  0  0  0  0  0  0  0
  160.3708   42.2894  145.9582 C   0  0  0  0  0  0  0  0  0  0  0  0
  158.9676   42.0452  145.8707 O   0  0  0  0  0  0  0  0  0  0  0  0
  151.9794   45.1031  142.3664 C   0  0  0  0  0  0  0  0  0  0  0  0
  151.8401   45.3098  141.1368 O   0  0  0  0  0  0  0  0  0  0  0  0
  154.3592   46.1525  142.7176 N   0  0  0  0  0  0  0  0  0  0  0  0
  155.1227   46.2711  143.8303 C   0  0  0  0  0  0  0  0  0  0  0  0
  154.4939   45.7428  144.8947 N   0  0  1  0  0  0  0  0  0  0  0  0
  156.3523   41.1022  139.5583 N   0  0  0  0  0  0  0  0  0  0  0  0
  158.8401   41.7910  148.4110 O   0  5  0  0  0  0  0  0  0  0  0  0
  157.4335   41.8783  139.3867 C   0  0  2  0  0  0  0  0  0  0  0  0
  157.4540   42.6801  138.3116 N   0  0  0  0  0  0  0  0  0  0  0  0
  156.7177   41.5196  146.8760 O   0  0  0  0  0  0  0  0  0  0  0  0
  158.4907   41.8878  140.2321 N   0  0  0  0  0  0  0  0  0  0  0  0
  158.5080   41.0909  141.3211 C   0  0  1  0  0  0  0  0  0  0  0  0
  157.3463   40.2130  141.5669 C   0  0  1  0  0  0  0  0  0  0  0  0
  156.2335   40.2581  140.5845 C   0  0  0  0  0  0  0  0  0  0  0  0
  155.2047   39.5588  140.7060 O   0  0  0  0  0  0  0  0  0  0  0  0
  157.6170   39.5331  142.6924 N   0  0  0  0  0  0  0  0  0  0  0  0
  158.8397   39.9469  143.1270 C   0  0  0  0  0  0  0  0  0  0  0  0
  159.3757   40.8746  142.3093 N   0  0  2  0  0  0  0  0  0  0  0  0
  1  3  1  6  0  0  0
  1  4  2  0  0  0  0
  1  6  1  0  0  0  0
  1 22  1  0  0  0  0
  2 28  1  0  0  0  0
  2 35  1  1  0  0  0
  2 38  2  0  0  0  0
  2 10  1  0  0  0  0
  5  6  1  0  0  0  0
  7  5  1  6  0  0  0
  7  8  1  0  0  0  0
  7  9  1  0  0  0  0
  9 10  1  1  0  0  0
  9 11  1  0  0  0  0
 11 12  1  1  0  0  0
 11 13  1  0  0  0  0
 13  8  1  6  0  0  0
 13 33  1  0  0  0  0
 14 46  1  0  0  0  0
 14 17  1  0  0  0  0
 14 25  1  1  0  0  0
 15 16  1  0  0  0  0
 15 29  1  0  0  0  0
 16 18  1  6  0  0  0
 16 21  1  0  0  0  0
 17 19  1  1  0  0  0
 17 20  1  0  0  0  0
 20 22  1  6  0  0  0
 20 24  1  0  0  0  0
 23 21  1  6  0  0  0
 23 26  1  0  0  0  0
 23 33  1  0  0  0  0
 24 25  1  6  0  0  0
 24 27  1  0  0  0  0
 26 29  1  6  0  0  0
 26 31  1  0  0  0  0
 27 28  1  0  0  0  0
 29 30  2  0  0  0  0
 31 32  1  0  0  0  0
 33 32  1  1  0  0  0
 34 36  1  0  0  0  0
 34 42  1  0  0  0  0
 36 37  1  6  0  0  0
 36 39  1  0  0  0  0
 40 39  1  6  0  0  0
 40 41  1  0  0  0  0
 40 46  1  0  0  0  0
 41 42  1  6  0  0  0
 41 44  1  0  0  0  0
 42 43  2  0  0  0  0
 44 45  1  0  0  0  0
 46 45  1  1  0  0  0
M  CHG  2   3  -1  35  -1
M  END
>  <CHROM.1>
-161.75774108,47.17651814,157.17210195,43.60266854,143.91866382,-0.29028867
-0.20019230,1.02980819

>  <Name>
ligand

>  <RI>
0

>  <Rbt.Current_Directory>
/home/itssahil/PROJECTS/Mol_Feturizer/Test_systems_manuscript/rnas/4yb0

>  <Rbt.Executable>
rbdock ($Id: //depot/dev/client3/rdock/2013.1/src/exe/rbdock.cxx#4 $)

>  <Rbt.Library>
libRbt.so (2013.1, Build901 2013/11/27)

>  <Rbt.Parameter_File>
/export/apps/rDock/src/rDock_2013.1_src/data/scripts/dock_solv.prm

>  <Rbt.Receptor>
prm/pocket_docking_4.prm

>  <SCORE>
-46.805

>  <SCORE.INTER>
-46.7861

>  <SCORE.INTER.CONST>
1

>  <SCORE.INTER.POLAR>
0

>  <SCORE.INTER.ROT>
2

>  <SCORE.INTER.SOLV>
39.8757

>  <SCORE.INTER.VDW>
-49.416

>  <SCORE.INTER.norm>
-1.01709

>  <SCORE.INTRA>
-0.0188565

>  <SCORE.INTRA.DIHEDRAL>
0.0146417

>  <SCORE.INTRA.DIHEDRAL.0>
2.42188

>  <SCORE.INTRA.POLAR>
0

>  <SCORE.INTRA.POLAR.0>
0

>  <SCORE.INTRA.REPUL>
0

>  <SCORE.INTRA.REPUL.0>
0

>  <SCORE.INTRA.SOLV>
0.000147754

>  <SCORE.INTRA.SOLV.lig_0>
-127.307

>  <SCORE.INTRA.VDW>
-0.0262512

>  <SCORE.INTRA.VDW.0>
-2.19936

>  <SCORE.INTRA.norm>
-0.000409924

>  <SCORE.RESTR>
0

>  <SCORE.RESTR.CAVITY>
0

>  <SCORE.RESTR.norm>
0

>  <SCORE.SYSTEM>
0

>  <SCORE.SYSTEM.CONST>
0

>  <SCORE.SYSTEM.DIHEDRAL>
0

>  <SCORE.SYSTEM.SOLV>
0

>  <SCORE.SYSTEM.norm>
0

>  <SCORE.heavy>
46

>  <SCORE.norm>
-1.0175

>  <RMSD>
0.440

$$$$
ligand
 OpenBabel02271912143D
libRbt.so/2013.1/901 2013/11/27
 46 52  0  0  0  0  0  0  0  0999 V2000
  159.8169   46.1846  143.5271 P   0  0  1  0  0  0  0  0  0  0  0  0
  158.0390   42.1857  147.1712 P   0  0  1  0  0  0  0  0  0  0  0  0
  159.3640   46.0052  142.1011 O   0  5  0  0  0  0  0  0  0  0  0  0
  160.5029   47.4906  143.8639 O   0  0  0  0  0  0  0  0  0  0  0  0
  158.3146   46.7285  145.6358 C   0  0  0  0  0  0  0  0  0  0  0  0
  158.5595   45.9188  144.4933 O   0  0  0  0  0  0  0  0  0  0  0  0
  157.3302   46.0351  146.5631 C   0  0  1  0  0  0  0  0  0  0  0  0
  156.0617   46.6532  146.3991 O   0  0  0  0  0  0  0  0  0  0  0  0
  157.1162   44.5489  146.3055 C   0  0  1  0  0  0  0  0  0  0  0  0
  157.8119   43.7894  147.2832 O   0  0  0  0  0  0  0  0  0  0  0  0
  155.6330   44.3618  146.5333 C   0  0  1  0  0  0  0  0  0  0  0  0
  155.3946   44.0456  147.9064 O   0  0  0  0  0  0  0  0  0  0  0  0
  155.0120   45.7051  146.2818 C   0  0  2  0  0  0  0  0  0  0  0  0
  160.7018   41.5824  142.4875 C   0  0  1  0  0  0  0  0  0  0  0  0
  151.0304   44.4992  143.0818 N   0  0  0  0  0  0  0  0  0  0  0  0
  151.1818   44.2738  144.4006 C   0  0  1  0  0  0  0  0  0  0  0  0
  160.5342   43.0788  142.3256 C   0  0  2  0  0  0  0  0  0  0  0  0
  150.1953   43.6435  145.0767 N   0  0  0  0  0  0  0  0  0  0  0  0
  161.7626   43.5942  141.8047 O   0  0  0  0  0  0  0  0  0  0  0  0
  160.2764   43.6086  143.7238 C   0  0  2  0  0  0  0  0  0  0  0  0
  152.2787   44.6422  145.1005 N   0  0  0  0  0  0  0  0  0  0  0  0
  160.7741   44.9366  143.8815 O   0  0  0  0  0  0  0  0  0  0  0  0
  153.3081   45.2730  144.4960 C   0  0  2  0  0  0  0  0  0  0  0  0
  161.0247   42.6024  144.5954 C   0  0  2  0  0  0  0  0  0  0  0  0
  161.1174   41.3912  143.8424 O   0  0  0  0  0  0  0  0  0  0  0  0
  153.2121   45.5496  143.0594 C   0  0  2  0  0  0  0  0  0  0  0  0
  160.3744   42.3077  145.9507 C   0  0  0  0  0  0  0  0  0  0  0  0
  158.9722   42.0592  145.8587 O   0  0  0  0  0  0  0  0  0  0  0  0
  151.9801   45.1169  142.3587 C   0  0  0  0  0  0  0  0  0  0  0  0
  151.8431   45.3305  141.1300 O   0  0  0  0  0  0  0  0  0  0  0  0
  154.3568   46.1693  142.7211 N   0  0  0  0  0  0  0  0  0  0  0  0
  155.1177   46.2831  143.8362 C   0  0  0  0  0  0  0  0  0  0  0  0
  154.4878   45.7472  144.8961 N   0  0  1  0  0  0  0  0  0  0  0  0
  156.3744   41.1465  139.5342 N   0  0  0  0  0  0  0  0  0  0  0  0
  158.8400   41.7885  148.3969 O   0  5  0  0  0  0  0  0  0  0  0  0
  157.4533   41.9274  139.3699 C   0  0  2  0  0  0  0  0  0  0  0  0
  157.4734   42.7359  138.2997 N   0  0  0  0  0  0  0  0  0  0  0  0
  156.7220   41.5194  146.8556 O   0  0  0  0  0  0  0  0  0  0  0  0
  158.5085   41.9354  140.2178 N   0  0  0  0  0  0  0  0  0  0  0  0
  158.5260   41.1319  141.3019 C   0  0  1  0  0  0  0  0  0  0  0  0
  157.3669   40.2485  141.5397 C   0  0  1  0  0  0  0  0  0  0  0  0
  156.2561   40.2958  140.5549 C   0  0  0  0  0  0  0  0  0  0  0  0
  155.2295   39.5922  140.6698 O   0  0  0  0  0  0  0  0  0  0  0  0
  157.6373   39.5627  142.6616 N   0  0  0  0  0  0  0  0  0  0  0  0
  158.8576   39.9781  143.1016 C   0  0  0  0  0  0  0  0  0  0  0  0
  159.3923   40.9126  142.2908 N   0  0  2  0  0  0  0  0  0  0  0  0
  1  3  1  6  0  0  0
  1  4  2  0  0  0  0
  1  6  1  0  0  0  0
  1 22  1  0  0  0  0
  2 28  1  0  0  0  0
  2 35  1  1  0  0  0
  2 38  2  0  0  0  0
  2 10  1  0  0  0  0
  5  6  1  0  0  0  0
  7  5  1  6  0  0  0
  7  8  1  0  0  0  0
  7  9  1  0  0  0  0
  9 10  1  1  0  0  0
  9 11  1  0  0  0  0
 11 12  1  1  0  0  0
 11 13  1  0  0  0  0
 13  8  1  6  0  0  0
 13 33  1  0  0  0  0
 14 46  1  0  0  0  0
 14 17  1  0  0  0  0
 14 25  1  1  0  0  0
 15 16  1  0  0  0  0
 15 29  1  0  0  0  0
 16 18  1  6  0  0  0
 16 21  1  0  0  0  0
 17 19  1  1  0  0  0
 17 20  1  0  0  0  0
 20 22  1  6  0  0  0
 20 24  1  0  0  0  0
 23 21  1  6  0  0  0
 23 26  1  0  0  0  0
 23 33  1  0  0  0  0
 24 25  1  6  0  0  0
 24 27  1  0  0  0  0
 26 29  1  6  0  0  0
 26 31  1  0  0  0  0
 27 28  1  0  0  0  0
 29 30  2  0  0  0  0
 31 32  1  0  0  0  0
 33 32  1  1  0  0  0
 34 36  1  0  0  0  0
 34 42  1  0  0  0  0
 36 37  1  6  0  0  0
 36 39  1  0  0  0  0
 40 39  1  6  0  0  0
 40 41  1  0  0  0  0
 40 46  1  0  0  0  0
 41 42  1  6  0  0  0
 41 44  1  0  0  0  0
 42 43  2  0  0  0  0
 44 45  1  0  0  0  0
 46 45  1  1  0  0  0
M  CHG  2   3  -1  35  -1
M  END
>  <CHROM.1>
-161.67540925,47.19016543,157.17540334,43.62307818,143.91253954,-0.28689616
-0.19858647,1.03696651

>  <Name>
ligand

>  <RI>
0

>  <Rbt.Current_Directory>
/home/itssahil/PROJECTS/Mol_Feturizer/Test_systems_manuscript/rnas/4yb0

>  <Rbt.Executable>
rbdock ($Id: //depot/dev/client3/rdock/2013.1/src/exe/rbdock.cxx#4 $)

>  <Rbt.Library>
libRbt.so (2013.1, Build901 2013/11/27)

>  <Rbt.Parameter_File>
/export/apps/rDock/src/rDock_2013.1_src/data/scripts/dock_solv.prm

>  <Rbt.Receptor>
prm/pocket_docking_3.prm

>  <SCORE>
-46.9033

>  <SCORE.INTER>
-46.8837

>  <SCORE.INTER.CONST>
1

>  <SCORE.INTER.POLAR>
0

>  <SCORE.INTER.ROT>
2

>  <SCORE.INTER.SOLV>
39.715

>  <SCORE.INTER.VDW>
-49.4275

>  <SCORE.INTER.norm>
-1.01921

>  <SCORE.INTRA>
-0.0196106

>  <SCORE.INTRA.DIHEDRAL>
0.0146829

>  <SCORE.INTRA.DIHEDRAL.0>
2.42188

>  <SCORE.INTRA.POLAR>
0

>  <SCORE.INTRA.POLAR.0>
0

>  <SCORE.INTRA.REPUL>
0

>  <SCORE.INTRA.REPUL.0>
0

>  <SCORE.INTRA.SOLV>
0.000110831

>  <SCORE.INTRA.SOLV.lig_0>
-127.307

>  <SCORE.INTRA.VDW>
-0.0270075

>  <SCORE.INTRA.VDW.0>
-2.19936

>  <SCORE.INTRA.norm>
-0.000426317

>  <SCORE.RESTR>
0

>  <SCORE.RESTR.CAVITY>
0

>  <SCORE.RESTR.norm>
0

>  <SCORE.SYSTEM>
0

>  <SCORE.SYSTEM.CONST>
0

>  <SCORE.SYSTEM.DIHEDRAL>
0

>  <SCORE.SYSTEM.SOLV>
0

>  <SCORE.SYSTEM.norm>
0

>  <SCORE.heavy>
46

>  <SCORE.norm>
-1.01964

>  <RMSD>
0.441

$$$$
ligand
 OpenBabel02271912143D
libRbt.so/2013.1/901 2013/11/27
 46 52  0  0  0  0  0  0  0  0999 V2000
  159.7607   46.1821  143.5680 P   0  0  1  0  0  0  0  0  0  0  0  0
  158.0403   42.1747  147.2302 P   0  0  1  0  0  0  0  0  0  0  0  0
  159.3135   45.9877  142.1420 O   0  5  0  0  0  0  0  0  0  0  0  0
  160.4248   47.5008  143.8990 O   0  0  0  0  0  0  0  0  0  0  0  0
  158.2455   46.7130  145.6708 C   0  0  0  0  0  0  0  0  0  0  0  0
  158.5058   45.9012  144.5331 O   0  0  0  0  0  0  0  0  0  0  0  0
  157.2706   46.0087  146.6000 C   0  0  1  0  0  0  0  0  0  0  0  0
  155.9926   46.6054  146.4302 O   0  0  0  0  0  0  0  0  0  0  0  0
  157.0812   44.5180  146.3500 C   0  0  1  0  0  0  0  0  0  0  0  0
  157.7870   43.7751  147.3331 O   0  0  0  0  0  0  0  0  0  0  0  0
  155.6007   44.3081  146.5760 C   0  0  1  0  0  0  0  0  0  0  0  0
  155.3647   43.9955  147.9503 O   0  0  0  0  0  0  0  0  0  0  0  0
  154.9586   45.6398  146.3160 C   0  0  2  0  0  0  0  0  0  0  0  0
  160.7218   41.5893  142.5549 C   0  0  1  0  0  0  0  0  0  0  0  0
  150.9974   44.3649  143.1175 N   0  0  0  0  0  0  0  0  0  0  0  0
  151.1489   44.1506  144.4381 C   0  0  1  0  0  0  0  0  0  0  0  0
  160.5305   43.0819  142.3846 C   0  0  2  0  0  0  0  0  0  0  0  0
  150.1686   43.5137  145.1169 N   0  0  0  0  0  0  0  0  0  0  0  0
  161.7514   43.6143  141.8633 O   0  0  0  0  0  0  0  0  0  0  0  0
  160.2613   43.6149  143.7795 C   0  0  2  0  0  0  0  0  0  0  0  0
  152.2401   44.5368  145.1374 N   0  0  0  0  0  0  0  0  0  0  0  0
  160.7371   44.9517  143.9310 O   0  0  0  0  0  0  0  0  0  0  0  0
  153.2633   45.1752  144.5303 C   0  0  2  0  0  0  0  0  0  0  0  0
  161.0240   42.6257  144.6580 C   0  0  2  0  0  0  0  0  0  0  0  0
  161.1378   41.4121  143.9116 O   0  0  0  0  0  0  0  0  0  0  0  0
  153.1667   45.4406  143.0915 C   0  0  2  0  0  0  0  0  0  0  0  0
  160.3758   42.3279  146.0136 C   0  0  0  0  0  0  0  0  0  0  0  0
  158.9780   42.0562  145.9202 O   0  0  0  0  0  0  0  0  0  0  0  0
  151.9412   44.9886  142.3917 C   0  0  0  0  0  0  0  0  0  0  0  0
  151.8040   45.1918  141.1613 O   0  0  0  0  0  0  0  0  0  0  0  0
  154.3048   46.0712  142.7509 N   0  0  0  0  0  0  0  0  0  0  0  0
  155.0621   46.2017  143.8665 C   0  0  0  0  0  0  0  0  0  0  0  0
  154.4365   45.6660  144.9291 N   0  0  1  0  0  0  0  0  0  0  0  0
  156.4493   41.0035  139.5482 N   0  0  0  0  0  0  0  0  0  0  0  0
  158.8452   41.7971  148.4596 O   0  5  0  0  0  0  0  0  0  0  0  0
  157.5216   41.7918  139.3756 C   0  0  2  0  0  0  0  0  0  0  0  0
  157.5499   42.5649  138.2797 N   0  0  0  0  0  0  0  0  0  0  0  0
  156.7348   41.4855  146.9157 O   0  0  0  0  0  0  0  0  0  0  0  0
  158.5624   41.8406  140.2397 N   0  0  0  0  0  0  0  0  0  0  0  0
  158.5714   41.0734  141.3499 C   0  0  1  0  0  0  0  0  0  0  0  0
  157.4189   40.1842  141.5980 C   0  0  1  0  0  0  0  0  0  0  0  0
  156.3242   40.1854  140.5944 C   0  0  0  0  0  0  0  0  0  0  0  0
  155.3041   39.4735  140.7159 O   0  0  0  0  0  0  0  0  0  0  0  0
  157.6788   39.5389  142.7462 N   0  0  0  0  0  0  0  0  0  0  0  0
  158.8866   39.9835  143.1919 C   0  0  0  0  0  0  0  0  0  0  0  0
  159.4237   40.8973  142.3593 N   0  0  2  0  0  0  0  0  0  0  0  0
  1  3  1  6  0  0  0
  1  4  2  0  0  0  0
  1  6  1  0  0  0  0
  1 22  1  0  0  0  0
  2 28  1  0  0  0  0
  2 35  1  1  0  0  0
  2 38  2  0  0  0  0
  2 10  1  0  0  0  0
  5  6  1  0  0  0  0
  7  5  1  6  0  0  0
  7  8  1  0  0  0  0
  7  9  1  0  0  0  0
  9 10  1  1  0  0  0
  9 11  1  0  0  0  0
 11 12  1  1  0  0  0
 11 13  1  0  0  0  0
 13  8  1  6  0  0  0
 13 33  1  0  0  0  0
 14 46  1  0  0  0  0
 14 17  1  0  0  0  0
 14 25  1  1  0  0  0
 15 16  1  0  0  0  0
 15 29  1  0  0  0  0
 16 18  1  6  0  0  0
 16 21  1  0  0  0  0
 17 19  1  1  0  0  0
 17 20  1  0  0  0  0
 20 22  1  6  0  0  0
 20 24  1  0  0  0  0
 23 21  1  6  0  0  0
 23 26  1  0  0  0  0
 23 33  1  0  0  0  0
 24 25  1  6  0  0  0
 24 27  1  0  0  0  0
 26 29  1  6  0  0  0
 26 31  1  0  0  0  0
 27 28  1  0  0  0  0
 29 30  2  0  0  0  0
 31 32  1  0  0  0  0
 33 32  1  1  0  0  0
 34 36  1  0  0  0  0
 34 42  1  0  0  0  0
 36 37  1  6  0  0  0
 36 39  1  0  0  0  0
 40 39  1  6  0  0  0
 40 41  1  0  0  0  0
 40 46  1  0  0  0  0
 41 42  1  6  0  0  0
 41 44  1  0  0  0  0
 42 43  2  0  0  0  0
 44 45  1  0  0  0  0
 46 45  1  1  0  0  0
M  CHG  2   3  -1  35  -1
M  END
>  <CHROM.1>
-161.40027648,48.98783723,157.16394204,43.57470491,143.95724311,-0.29299532
-0.18549565,1.03155849

>  <Name>
ligand

>  <RI>
0

>  <Rbt.Current_Directory>
/home/itssahil/PROJECTS/Mol_Feturizer/Test_systems_manuscript/rnas/4yb0

>  <Rbt.Executable>
rbdock ($Id: //depot/dev/client3/rdock/2013.1/src/exe/rbdock.cxx#4 $)

>  <Rbt.Library>
libRbt.so (2013.1, Build901 2013/11/27)

>  <Rbt.Parameter_File>
/export/apps/rDock/src/rDock_2013.1_src/data/scripts/dock_solv.prm

>  <Rbt.Receptor>
prm/pocket_docking_3.prm

>  <SCORE>
-46.7202

>  <SCORE.INTER>
-46.693

>  <SCORE.INTER.CONST>
1

>  <SCORE.INTER.POLAR>
0

>  <SCORE.INTER.ROT>
2

>  <SCORE.INTER.SOLV>
39.6442

>  <SCORE.INTER.VDW>
-49.2767

>  <SCORE.INTER.norm>
-1.01507

>  <SCORE.INTRA>
-0.0271788

>  <SCORE.INTRA.DIHEDRAL>
0.0125383

>  <SCORE.INTRA.DIHEDRAL.0>
2.42188

>  <SCORE.INTRA.POLAR>
0

>  <SCORE.INTRA.POLAR.0>
0

>  <SCORE.INTRA.REPUL>
0

>  <SCORE.INTRA.REPUL.0>
0

>  <SCORE.INTRA.SOLV>
-0.000917419

>  <SCORE.INTRA.SOLV.lig_0>
-127.307

>  <SCORE.INTRA.VDW>
-0.0329893

>  <SCORE.INTRA.VDW.0>
-2.19936

>  <SCORE.INTRA.norm>
-0.000590844

>  <SCORE.RESTR>
0

>  <SCORE.RESTR.CAVITY>
0

>  <SCORE.RESTR.norm>
0

>  <SCORE.SYSTEM>
0

>  <SCORE.SYSTEM.CONST>
0

>  <SCORE.SYSTEM.DIHEDRAL>
0

>  <SCORE.SYSTEM.SOLV>
0

>  <SCORE.SYSTEM.norm>
0

>  <SCORE.heavy>
46

>  <SCORE.norm>
-1.01566

>  <RMSD>
0.442

$$$$
ligand
 OpenBabel02271912143D
libRbt.so/2013.1/901 2013/11/27
 46 52  0  0  0  0  0  0  0  0999 V2000
  159.7503   46.2194  143.5938 P   0  0  1  0  0  0  0  0  0  0  0  0
  158.0023   42.2078  147.2383 P   0  0  1  0  0  0  0  0  0  0  0  0
  159.3021   46.0343  142.1670 O   0  5  0  0  0  0  0  0  0  0  0  0
  160.4232   47.5322  143.9306 O   0  0  0  0  0  0  0  0  0  0  0  0
  158.2383   46.7513  145.6987 C   0  0  0  0  0  0  0  0  0  0  0  0
  158.4934   45.9428  144.5575 O   0  0  0  0  0  0  0  0  0  0  0  0
  157.2585   46.0496  146.6246 C   0  0  1  0  0  0  0  0  0  0  0  0
  155.9846   46.6556  146.4572 O   0  0  0  0  0  0  0  0  0  0  0  0
  157.0592   44.5612  146.3681 C   0  0  1  0  0  0  0  0  0  0  0  0
  157.7598   43.8094  147.3481 O   0  0  0  0  0  0  0  0  0  0  0  0
  155.5773   44.3604  146.5930 C   0  0  1  0  0  0  0  0  0  0  0  0
  155.3389   44.0434  147.9659 O   0  0  0  0  0  0  0  0  0  0  0  0
  154.9441   45.6975  146.3387 C   0  0  2  0  0  0  0  0  0  0  0  0
  160.6807   41.6247  142.5609 C   0  0  1  0  0  0  0  0  0  0  0  0
  151.0062   44.3998  143.1207 N   0  0  0  0  0  0  0  0  0  0  0  0
  151.1604   44.1708  144.4386 C   0  0  1  0  0  0  0  0  0  0  0  0
  160.4994   43.1193  142.3971 C   0  0  2  0  0  0  0  0  0  0  0  0
  150.1902   43.5092  145.1082 N   0  0  0  0  0  0  0  0  0  0  0  0
  161.7240   43.6457  141.8783 O   0  0  0  0  0  0  0  0  0  0  0  0
  160.2336   43.6481  143.7942 C   0  0  2  0  0  0  0  0  0  0  0  0
  152.2448   44.5656  145.1436 N   0  0  0  0  0  0  0  0  0  0  0  0
  160.7184   44.9809  143.9516 O   0  0  0  0  0  0  0  0  0  0  0  0
  153.2577   45.2285  144.5457 C   0  0  2  0  0  0  0  0  0  0  0  0
  160.9895   42.6499  144.6685 C   0  0  2  0  0  0  0  0  0  0  0  0
  161.0953   41.4389  143.9170 O   0  0  0  0  0  0  0  0  0  0  0  0
  153.1577   45.5110  143.1104 C   0  0  2  0  0  0  0  0  0  0  0  0
  160.3390   42.3505  146.0227 C   0  0  0  0  0  0  0  0  0  0  0  0
  158.9394   42.0887  145.9279 O   0  0  0  0  0  0  0  0  0  0  0  0
  151.9401   45.0482  142.4038 C   0  0  0  0  0  0  0  0  0  0  0  0
  151.8003   45.2652  141.1761 O   0  0  0  0  0  0  0  0  0  0  0  0
  154.2855   46.1645  142.7790 N   0  0  0  0  0  0  0  0  0  0  0  0
  155.0399   46.2929  143.8968 C   0  0  0  0  0  0  0  0  0  0  0  0
  154.4225   45.7333  144.9518 N   0  0  1  0  0  0  0  0  0  0  0  0
  156.4232   41.0519  139.5306 N   0  0  0  0  0  0  0  0  0  0  0  0
  158.8044   41.8194  148.4662 O   0  5  0  0  0  0  0  0  0  0  0  0
  157.5033   41.8296  139.3590 C   0  0  2  0  0  0  0  0  0  0  0  0
  157.5455   42.5938  138.2573 N   0  0  0  0  0  0  0  0  0  0  0  0
  156.6923   41.5287  146.9206 O   0  0  0  0  0  0  0  0  0  0  0  0
  158.5388   41.8763  140.2295 N   0  0  0  0  0  0  0  0  0  0  0  0
  158.5339   41.1178  141.3458 C   0  0  1  0  0  0  0  0  0  0  0  0
  157.3723   40.2404  141.5931 C   0  0  1  0  0  0  0  0  0  0  0  0
  156.2842   40.2431  140.5823 C   0  0  0  0  0  0  0  0  0  0  0  0
  155.2573   39.5408  140.7025 O   0  0  0  0  0  0  0  0  0  0  0  0
  157.6190   39.6020  142.7480 N   0  0  0  0  0  0  0  0  0  0  0  0
  158.8277   40.0397  143.1982 C   0  0  0  0  0  0  0  0  0  0  0  0
  159.3780   40.9424  142.3622 N   0  0  2  0  0  0  0  0  0  0  0  0
  1  3  1  6  0  0  0
  1  4  2  0  0  0  0
  1  6  1  0  0  0  0
  1 22  1  0  0  0  0
  2 28  1  0  0  0  0
  2 35  1  1  0  0  0
  2 38  2  0  0  0  0
  2 10  1  0  0  0  0
  5  6  1  0  0  0  0
  7  5  1  6  0  0  0
  7  8  1  0  0  0  0
  7  9  1  0  0  0  0
  9 10  1  1  0  0  0
  9 11  1  0  0  0  0
 11 12  1  1  0  0  0
 11 13  1  0  0  0  0
 13  8  1  6  0  0  0
 13 33  1  0  0  0  0
 14 46  1  0  0  0  0
 14 17  1  0  0  0  0
 14 25  1  1  0  0  0
 15 16  1  0  0  0  0
 15 29  1  0  0  0  0
 16 18  1  6  0  0  0
 16 21  1  0  0  0  0
 17 19  1  1  0  0  0
 17 20  1  0  0  0  0
 20 22  1  6  0  0  0
 20 24  1  0  0  0  0
 23 21  1  6  0  0  0
 23 26  1  0  0  0  0
 23 33  1  0  0  0  0
 24 25  1  6  0  0  0
 24 27  1  0  0  0  0
 26 29  1  6  0  0  0
 26 31  1  0  0  0  0
 27 28  1  0  0  0  0
 29 30  2  0  0  0  0
 31 32  1  0  0  0  0
 33 32  1  1  0  0  0
 34 36  1  0  0  0  0
 34 42  1  0  0  0  0
 36 37  1  6  0  0  0
 36 39  1  0  0  0  0
 40 39  1  6  0  0  0
 40 41  1  0  0  0  0
 40 46  1  0  0  0  0
 41 42  1  6  0  0  0
 41 44  1  0  0  0  0
 42 43  2  0  0  0  0
 44 45  1  0  0  0  0
 46 45  1  1  0  0  0
M  CHG  2   3  -1  35  -1
M  END
>  <CHROM.1>
-162.81223021,49.78357410,157.14137742,43.61783338,143.96764268,-0.29948732
-0.18617353,1.03233894

>  <Name>
ligand

>  <RI>
0

>  <Rbt.Current_Directory>
/home/itssahil/PROJECTS/Mol_Feturizer/Test_systems_manuscript/rnas/4yb0

>  <Rbt.Executable>
rbdock ($Id: //depot/dev/client3/rdock/2013.1/src/exe/rbdock.cxx#4 $)

>  <Rbt.Library>
libRbt.so (2013.1, Build901 2013/11/27)

>  <Rbt.Parameter_File>
/export/apps/rDock/src/rDock_2013.1_src/data/scripts/dock_solv.prm

>  <Rbt.Receptor>
prm/pocket_docking_5.prm

>  <SCORE>
-46.6742

>  <SCORE.INTER>
-46.6467

>  <SCORE.INTER.CONST>
1

>  <SCORE.INTER.POLAR>
0

>  <SCORE.INTER.ROT>
2

>  <SCORE.INTER.SOLV>
39.5328

>  <SCORE.INTER.VDW>
-49.2087

>  <SCORE.INTER.norm>
-1.01406

>  <SCORE.INTRA>
-0.0274999

>  <SCORE.INTRA.DIHEDRAL>
0.0104293

>  <SCORE.INTRA.DIHEDRAL.0>
2.42188

>  <SCORE.INTRA.POLAR>
0

>  <SCORE.INTRA.POLAR.0>
0

>  <SCORE.INTRA.REPUL>
0

>  <SCORE.INTRA.REPUL.0>
0

>  <SCORE.INTRA.SOLV>
-0.00081398

>  <SCORE.INTRA.SOLV.lig_0>
-127.307

>  <SCORE.INTRA.VDW>
-0.0323075

>  <SCORE.INTRA.VDW.0>
-2.19936

>  <SCORE.INTRA.norm>
-0.000597823

>  <SCORE.RESTR>
0

>  <SCORE.RESTR.CAVITY>
0

>  <SCORE.RESTR.norm>
0

>  <SCORE.SYSTEM>
0

>  <SCORE.SYSTEM.CONST>
0

>  <SCORE.SYSTEM.DIHEDRAL>
0

>  <SCORE.SYSTEM.SOLV>
0

>  <SCORE.SYSTEM.norm>
0

>  <SCORE.heavy>
46

>  <SCORE.norm>
-1.01466

>  <RMSD>
0.442

$$$$
ligand
 OpenBabel02271912143D
libRbt.so/2013.1/901 2013/11/27
 46 52  0  0  0  0  0  0  0  0999 V2000
  159.8408   46.1274  143.5043 P   0  0  1  0  0  0  0  0  0  0  0  0
  158.0450   42.1673  147.1817 P   0  0  1  0  0  0  0  0  0  0  0  0
  159.3819   45.9415  142.0809 O   0  5  0  0  0  0  0  0  0  0  0  0
  160.5375   47.4306  143.8297 O   0  0  0  0  0  0  0  0  0  0  0  0
  158.3493   46.6971  145.6138 C   0  0  0  0  0  0  0  0  0  0  0  0
  158.5845   45.8777  144.4762 O   0  0  0  0  0  0  0  0  0  0  0  0
  157.3627   46.0175  146.5490 C   0  0  1  0  0  0  0  0  0  0  0  0
  156.0984   46.6439  146.3847 O   0  0  0  0  0  0  0  0  0  0  0  0
  157.1370   44.5312  146.3025 C   0  0  1  0  0  0  0  0  0  0  0  0
  157.8301   43.7734  147.2832 O   0  0  0  0  0  0  0  0  0  0  0  0
  155.6531   44.3567  146.5363 C   0  0  1  0  0  0  0  0  0  0  0  0
  155.4168   44.0519  147.9123 O   0  0  0  0  0  0  0  0  0  0  0  0
  155.0412   45.7028  146.2774 C   0  0  2  0  0  0  0  0  0  0  0  0
  160.6881   41.5116  142.4939 C   0  0  1  0  0  0  0  0  0  0  0  0
  151.0346   44.5175  143.1012 N   0  0  0  0  0  0  0  0  0  0  0  0
  151.1876   44.3018  144.4214 C   0  0  1  0  0  0  0  0  0  0  0  0
  160.5312   43.0081  142.3222 C   0  0  2  0  0  0  0  0  0  0  0  0
  150.1959   43.6896  145.1062 N   0  0  0  0  0  0  0  0  0  0  0  0
  161.7617   43.5107  141.7938 O   0  0  0  0  0  0  0  0  0  0  0  0
  160.2818   43.5495  143.7174 C   0  0  2  0  0  0  0  0  0  0  0  0
  152.2913   44.6630  145.1144 N   0  0  0  0  0  0  0  0  0  0  0  0
  160.7898   44.8748  143.8643 O   0  0  0  0  0  0  0  0  0  0  0  0
  153.3263   45.2758  144.5010 C   0  0  2  0  0  0  0  0  0  0  0  0
  161.0254   42.5439  144.5937 C   0  0  2  0  0  0  0  0  0  0  0  0
  161.1067   41.3268  143.8489 O   0  0  0  0  0  0  0  0  0  0  0  0
  153.2288   45.5411  143.0623 C   0  0  2  0  0  0  0  0  0  0  0  0
  160.3772   42.2635  145.9531 C   0  0  0  0  0  0  0  0  0  0  0  0
  158.9729   42.0248  145.8672 O   0  0  0  0  0  0  0  0  0  0  0  0
  151.9893   45.1173  142.3695 C   0  0  0  0  0  0  0  0  0  0  0  0
  151.8507   45.3217  141.1394 O   0  0  0  0  0  0  0  0  0  0  0  0
  154.3798   46.1438  142.7149 N   0  0  0  0  0  0  0  0  0  0  0  0
  155.1457   46.2581  143.8264 C   0  0  0  0  0  0  0  0  0  0  0  0
  154.5129   45.7392  144.8931 N   0  0  1  0  0  0  0  0  0  0  0  0
  156.4544   40.9109  139.4359 N   0  0  0  0  0  0  0  0  0  0  0  0
  158.8470   41.7727  148.4077 O   0  5  0  0  0  0  0  0  0  0  0  0
  157.5533   41.6577  139.2471 C   0  0  2  0  0  0  0  0  0  0  0  0
  157.6250   42.3764  138.1168 N   0  0  0  0  0  0  0  0  0  0  0  0
  156.7220   41.5086  146.8750 O   0  0  0  0  0  0  0  0  0  0  0  0
  158.5794   41.7165  140.1280 N   0  0  0  0  0  0  0  0  0  0  0  0
  158.5449   41.0033  141.2731 C   0  0  1  0  0  0  0  0  0  0  0  0
  157.3614   40.1617  141.5405 C   0  0  1  0  0  0  0  0  0  0  0  0
  156.2853   40.1477  140.5169 C   0  0  0  0  0  0  0  0  0  0  0  0
  155.2419   39.4732  140.6520 O   0  0  0  0  0  0  0  0  0  0  0  0
  157.5806   39.5645  142.7226 N   0  0  0  0  0  0  0  0  0  0  0  0
  158.7933   39.9936  143.1702 C   0  0  0  0  0  0  0  0  0  0  0  0
  159.3731   40.8502  142.3061 N   0  0  2  0  0  0  0  0  0  0  0  0
  1  3  1  6  0  0  0
  1  4  2  0  0  0  0
  1  6  1  0  0  0  0
  1 22  1  0  0  0  0
  2 28  1  0  0  0  0
  2 35  1  1  0  0  0
  2 38  2  0  0  0  0
  2 10  1  0  0  0  0
  5  6  1  0  0  0  0
  7  5  1  6  0  0  0
  7  8  1  0  0  0  0
  7  9  1  0  0  0  0
  9 10  1  1  0  0  0
  9 11  1  0  0  0  0
 11 12  1  1  0  0  0
 11 13  1  0  0  0  0
 13  8  1  6  0  0  0
 13 33  1  0  0  0  0
 14 46  1  0  0  0  0
 14 17  1  0  0  0  0
 14 25  1  1  0  0  0
 15 16  1  0  0  0  0
 15 29  1  0  0  0  0
 16 18  1  6  0  0  0
 16 21  1  0  0  0  0
 17 19  1  1  0  0  0
 17 20  1  0  0  0  0
 20 22  1  6  0  0  0
 20 24  1  0  0  0  0
 23 21  1  6  0  0  0
 23 26  1  0  0  0  0
 23 33  1  0  0  0  0
 24 25  1  6  0  0  0
 24 27  1  0  0  0  0
 26 29  1  6  0  0  0
 26 31  1  0  0  0  0
 27 28  1  0  0  0  0
 29 30  2  0  0  0  0
 31 32  1  0  0  0  0
 33 32  1  1  0  0  0
 34 36  1  0  0  0  0
 34 42  1  0  0  0  0
 36 37  1  6  0  0  0
 36 39  1  0  0  0  0
 40 39  1  6  0  0  0
 40 41  1  0  0  0  0
 40 46  1  0  0  0  0
 41 42  1  6  0  0  0
 41 44  1  0  0  0  0
 42 43  2  0  0  0  0
 44 45  1  0  0  0  0
 46 45  1  1  0  0  0
M  CHG  2   3  -1  35  -1
M  END
>  <CHROM.1>
-161.38399020,51.97221699,157.19249237,43.57056981,143.90285297,-0.33729148
-0.20109418,1.02188342

>  <Name>
ligand

>  <RI>
0

>  <Rbt.Current_Directory>
/home/itssahil/PROJECTS/Mol_Feturizer/Test_systems_manuscript/rnas/4yb0

>  <Rbt.Executable>
rbdock ($Id: //depot/dev/client3/rdock/2013.1/src/exe/rbdock.cxx#4 $)

>  <Rbt.Library>
libRbt.so (2013.1, Build901 2013/11/27)

>  <Rbt.Parameter_File>
/export/apps/rDock/src/rDock_2013.1_src/data/scripts/dock_solv.prm

>  <Rbt.Receptor>
prm/pocket_docking_3.prm

>  <SCORE>
-46.779

>  <SCORE.INTER>
-46.7145

>  <SCORE.INTER.CONST>
1

>  <SCORE.INTER.POLAR>
0

>  <SCORE.INTER.ROT>
2

>  <SCORE.INTER.SOLV>
40.3613

>  <SCORE.INTER.VDW>
-49.5301

>  <SCORE.INTER.norm>
-1.01553

>  <SCORE.INTRA>
-0.0644853

>  <SCORE.INTRA.DIHEDRAL>
0.00837263

>  <SCORE.INTRA.DIHEDRAL.0>
2.42188

>  <SCORE.INTRA.POLAR>
0

>  <SCORE.INTRA.POLAR.0>
0

>  <SCORE.INTRA.REPUL>
0

>  <SCORE.INTRA.REPUL.0>
0

>  <SCORE.INTRA.SOLV>
-0.00246452

>  <SCORE.INTRA.SOLV.lig_0>
-127.307

>  <SCORE.INTRA.VDW>
-0.0674393

>  <SCORE.INTRA.VDW.0>
-2.19936

>  <SCORE.INTRA.norm>
-0.00140185

>  <SCORE.RESTR>
0

>  <SCORE.RESTR.CAVITY>
0

>  <SCORE.RESTR.norm>
0

>  <SCORE.SYSTEM>
0

>  <SCORE.SYSTEM.CONST>
0

>  <SCORE.SYSTEM.DIHEDRAL>
0

>  <SCORE.SYSTEM.SOLV>
0

>  <SCORE.SYSTEM.norm>
0

>  <SCORE.heavy>
46

>  <SCORE.norm>
-1.01693

>  <RMSD>
0.445

$$$$
ligand
 OpenBabel02271912143D
libRbt.so/2013.1/901 2013/11/27
 46 52  0  0  0  0  0  0  0  0999 V2000
  159.8121   46.1759  143.5058 P   0  0  1  0  0  0  0  0  0  0  0  0
  158.0249   42.2041  147.1748 P   0  0  1  0  0  0  0  0  0  0  0  0
  159.3566   45.9900  142.0813 O   0  5  0  0  0  0  0  0  0  0  0  0
  160.5032   47.4813  143.8342 O   0  0  0  0  0  0  0  0  0  0  0  0
  158.3145   46.7371  145.6133 C   0  0  0  0  0  0  0  0  0  0  0  0
  158.5550   45.9200  144.4750 O   0  0  0  0  0  0  0  0  0  0  0  0
  157.3289   46.0524  146.5458 C   0  0  1  0  0  0  0  0  0  0  0  0
  156.0624   46.6741  146.3799 O   0  0  0  0  0  0  0  0  0  0  0  0
  157.1093   44.5656  146.2969 C   0  0  1  0  0  0  0  0  0  0  0  0
  157.8036   43.8092  147.2780 O   0  0  0  0  0  0  0  0  0  0  0  0
  155.6257   44.3850  146.5278 C   0  0  1  0  0  0  0  0  0  0  0  0
  155.3881   44.0775  147.9029 O   0  0  0  0  0  0  0  0  0  0  0  0
  155.0091   45.7291  146.2694 C   0  0  2  0  0  0  0  0  0  0  0  0
  160.6792   41.5647  142.4911 C   0  0  1  0  0  0  0  0  0  0  0  0
  151.0291   44.4979  143.0772 N   0  0  0  0  0  0  0  0  0  0  0  0
  151.1828   44.2768  144.3965 C   0  0  1  0  0  0  0  0  0  0  0  0
  160.5168   43.0608  142.3210 C   0  0  2  0  0  0  0  0  0  0  0  0
  150.1997   43.6444  145.0754 N   0  0  0  0  0  0  0  0  0  0  0  0
  161.7463   43.5688  141.7956 O   0  0  0  0  0  0  0  0  0  0  0  0
  160.2627   43.5994  143.7165 C   0  0  2  0  0  0  0  0  0  0  0  0
  152.2790   44.6517  145.0941 N   0  0  0  0  0  0  0  0  0  0  0  0
  160.7653   44.9265  143.8660 O   0  0  0  0  0  0  0  0  0  0  0  0
  153.3051   45.2850  144.4867 C   0  0  2  0  0  0  0  0  0  0  0  0
  161.0086   42.5956  144.5928 C   0  0  2  0  0  0  0  0  0  0  0  0
  161.0960   41.3798  143.8465 O   0  0  0  0  0  0  0  0  0  0  0  0
  153.2064   45.5573  143.0494 C   0  0  2  0  0  0  0  0  0  0  0  0
  160.3590   42.3109  145.9506 C   0  0  0  0  0  0  0  0  0  0  0  0
  158.9558   42.0668  145.8618 O   0  0  0  0  0  0  0  0  0  0  0  0
  151.9754   45.1175  142.3513 C   0  0  0  0  0  0  0  0  0  0  0  0
  151.8361   45.3271  141.1222 O   0  0  0  0  0  0  0  0  0  0  0  0
  154.3482   46.1807  142.7082 N   0  0  0  0  0  0  0  0  0  0  0  0
  155.1098   46.3007  143.8221 C   0  0  0  0  0  0  0  0  0  0  0  0
  154.4832   45.7652  144.8842 N   0  0  1  0  0  0  0  0  0  0  0  0
  156.3339   41.1477  139.5616 N   0  0  0  0  0  0  0  0  0  0  0  0
  158.8261   41.8110  148.4018 O   0  5  0  0  0  0  0  0  0  0  0  0
  157.4137   41.9266  139.3934 C   0  0  2  0  0  0  0  0  0  0  0  0
  157.4294   42.7383  138.3257 N   0  0  0  0  0  0  0  0  0  0  0  0
  156.7050   41.5407  146.8647 O   0  0  0  0  0  0  0  0  0  0  0  0
  158.4737   41.9296  140.2352 N   0  0  0  0  0  0  0  0  0  0  0  0
  158.4957   41.1228  141.3168 C   0  0  1  0  0  0  0  0  0  0  0  0
  157.3359   40.2413  141.5585 C   0  0  1  0  0  0  0  0  0  0  0  0
  156.2196   40.2940  140.5804 C   0  0  0  0  0  0  0  0  0  0  0  0
  155.1921   39.5924  140.6990 O   0  0  0  0  0  0  0  0  0  0  0  0
  157.6113   39.5514  142.6768 N   0  0  0  0  0  0  0  0  0  0  0  0
  158.8350   39.9627  143.1110 C   0  0  0  0  0  0  0  0  0  0  0  0
  159.3671   40.8984  142.2999 N   0  0  2  0  0  0  0  0  0  0  0  0
  1  3  1  6  0  0  0
  1  4  2  0  0  0  0
  1  6  1  0  0  0  0
  1 22  1  0  0  0  0
  2 28  1  0  0  0  0
  2 35  1  1  0  0  0
  2 38  2  0  0  0  0
  2 10  1  0  0  0  0
  5  6  1  0  0  0  0
  7  5  1  6  0  0  0
  7  8  1  0  0  0  0
  7  9  1  0  0  0  0
  9 10  1  1  0  0  0
  9 11  1  0  0  0  0
 11 12  1  1  0  0  0
 11 13  1  0  0  0  0
 13  8  1  6  0  0  0
 13 33  1  0  0  0  0
 14 46  1  0  0  0  0
 14 17  1  0  0  0  0
 14 25  1  1  0  0  0
 15 16  1  0  0  0  0
 15 29  1  0  0  0  0
 16 18  1  6  0  0  0
 16 21  1  0  0  0  0
 17 19  1  1  0  0  0
 17 20  1  0  0  0  0
 20 22  1  6  0  0  0
 20 24  1  0  0  0  0
 23 21  1  6  0  0  0
 23 26  1  0  0  0  0
 23 33  1  0  0  0  0
 24 25  1  6  0  0  0
 24 27  1  0  0  0  0
 26 29  1  6  0  0  0
 26 31  1  0  0  0  0
 27 28  1  0  0  0  0
 29 30  2  0  0  0  0
 31 32  1  0  0  0  0
 33 32  1  1  0  0  0
 34 36  1  0  0  0  0
 34 42  1  0  0  0  0
 36 37  1  6  0  0  0
 36 39  1  0  0  0  0
 40 39  1  6  0  0  0
 40 41  1  0  0  0  0
 40 46  1  0  0  0  0
 41 42  1  6  0  0  0
 41 44  1  0  0  0  0
 42 43  2  0  0  0  0
 44 45  1  0  0  0  0
 46 45  1  1  0  0  0
M  CHG  2   3  -1  35  -1
M  END
>  <CHROM.1>
-162.14497629,46.62263854,157.16173846,43.62584535,143.91040832,-0.28373944
-0.19974459,1.03071681

>  <Name>
ligand

>  <RI>
0

>  <Rbt.Current_Directory>
/home/itssahil/PROJECTS/Mol_Feturizer/Test_systems_manuscript/rnas/4yb0

>  <Rbt.Executable>
rbdock ($Id: //depot/dev/client3/rdock/2013.1/src/exe/rbdock.cxx#4 $)

>  <Rbt.Library>
libRbt.so (2013.1, Build901 2013/11/27)

>  <Rbt.Parameter_File>
/export/apps/rDock/src/rDock_2013.1_src/data/scripts/dock_solv.prm

>  <Rbt.Receptor>
prm/pocket_docking_3.prm

>  <SCORE>
-46.9063

>  <SCORE.INTER>
-46.8975

>  <SCORE.INTER.CONST>
1

>  <SCORE.INTER.POLAR>
0

>  <SCORE.INTER.ROT>
2

>  <SCORE.INTER.SOLV>
39.7769

>  <SCORE.INTER.VDW>
-49.4573

>  <SCORE.INTER.norm>
-1.01951

>  <SCORE.INTRA>
-0.00882538

>  <SCORE.INTRA.DIHEDRAL>
0.0150509

>  <SCORE.INTRA.DIHEDRAL.0>
2.42188

>  <SCORE.INTRA.POLAR>
0

>  <SCORE.INTRA.POLAR.0>
0

>  <SCORE.INTRA.REPUL>
0

>  <SCORE.INTRA.REPUL.0>
0

>  <SCORE.INTRA.SOLV>
0.000574551

>  <SCORE.INTRA.SOLV.lig_0>
-127.307

>  <SCORE.INTRA.VDW>
-0.0166381

>  <SCORE.INTRA.VDW.0>
-2.19936

>  <SCORE.INTRA.norm>
-0.000191856

>  <SCORE.RESTR>
0

>  <SCORE.RESTR.CAVITY>
0

>  <SCORE.RESTR.norm>
0

>  <SCORE.SYSTEM>
0

>  <SCORE.SYSTEM.CONST>
0

>  <SCORE.SYSTEM.DIHEDRAL>
0

>  <SCORE.SYSTEM.SOLV>
0

>  <SCORE.SYSTEM.norm>
0

>  <SCORE.heavy>
46

>  <SCORE.norm>
-1.0197

>  <RMSD>
0.451

$$$$
ligand
 OpenBabel02271912143D
libRbt.so/2013.1/901 2013/11/27
 46 52  0  0  0  0  0  0  0  0999 V2000
  159.8445   46.1248  143.5077 P   0  0  1  0  0  0  0  0  0  0  0  0
  158.0486   42.1562  147.1758 P   0  0  1  0  0  0  0  0  0  0  0  0
  159.3903   45.9392  142.0828 O   0  5  0  0  0  0  0  0  0  0  0  0
  160.5369   47.4295  143.8364 O   0  0  0  0  0  0  0  0  0  0  0  0
  158.3455   46.6884  145.6135 C   0  0  0  0  0  0  0  0  0  0  0  0
  158.5862   45.8708  144.4757 O   0  0  0  0  0  0  0  0  0  0  0  0
  157.3580   46.0053  146.5452 C   0  0  1  0  0  0  0  0  0  0  0  0
  156.0925   46.6285  146.3778 O   0  0  0  0  0  0  0  0  0  0  0  0
  157.1369   44.5186  146.2965 C   0  0  1  0  0  0  0  0  0  0  0  0
  157.8292   43.7616  147.2784 O   0  0  0  0  0  0  0  0  0  0  0  0
  155.6528   44.3400  146.5258 C   0  0  1  0  0  0  0  0  0  0  0  0
  155.4134   44.0331  147.9008 O   0  0  0  0  0  0  0  0  0  0  0  0
  155.0382   45.6847  146.2665 C   0  0  2  0  0  0  0  0  0  0  0  0
  160.7070   41.5123  142.4950 C   0  0  1  0  0  0  0  0  0  0  0  0
  151.0279   44.5275  143.0845 N   0  0  0  0  0  0  0  0  0  0  0  0
  151.1754   44.3153  144.4059 C   0  0  1  0  0  0  0  0  0  0  0  0
  160.5466   43.0085  142.3243 C   0  0  2  0  0  0  0  0  0  0  0  0
  150.1759   43.7156  145.0904 N   0  0  0  0  0  0  0  0  0  0  0  0
  161.7772   43.5149  141.8001 O   0  0  0  0  0  0  0  0  0  0  0  0
  160.2917   43.5478  143.7195 C   0  0  2  0  0  0  0  0  0  0  0  0
  152.2809   44.6680  145.1004 N   0  0  0  0  0  0  0  0  0  0  0  0
  160.7958   44.8744  143.8692 O   0  0  0  0  0  0  0  0  0  0  0  0
  153.3235   45.2682  144.4874 C   0  0  2  0  0  0  0  0  0  0  0  0
  161.0354   42.5433  144.5968 C   0  0  2  0  0  0  0  0  0  0  0  0
  161.1221   41.3272  143.8510 O   0  0  0  0  0  0  0  0  0  0  0  0
  153.2323   45.5290  143.0474 C   0  0  2  0  0  0  0  0  0  0  0  0
  160.3841   42.2598  145.9540 C   0  0  0  0  0  0  0  0  0  0  0  0
  158.9807   42.0174  145.8638 O   0  0  0  0  0  0  0  0  0  0  0  0
  151.9904   45.1150  142.3530 C   0  0  0  0  0  0  0  0  0  0  0  0
  151.8570   45.3161  141.1219 O   0  0  0  0  0  0  0  0  0  0  0  0
  154.3902   46.1188  142.7007 N   0  0  0  0  0  0  0  0  0  0  0  0
  155.1544   46.2297  143.8138 C   0  0  0  0  0  0  0  0  0  0  0  0
  154.5137   45.7212  144.8807 N   0  0  1  0  0  0  0  0  0  0  0  0
  156.4706   40.9255  139.4379 N   0  0  0  0  0  0  0  0  0  0  0  0
  158.8481   41.7624  148.4037 O   0  5  0  0  0  0  0  0  0  0  0  0
  157.5662   41.6784  139.2549 C   0  0  2  0  0  0  0  0  0  0  0  0
  157.6333   42.4086  138.1317 N   0  0  0  0  0  0  0  0  0  0  0  0
  156.7283   41.4944  146.8646 O   0  0  0  0  0  0  0  0  0  0  0  0
  158.5935   41.7325  140.1346 N   0  0  0  0  0  0  0  0  0  0  0  0
  158.5637   41.0078  141.2727 C   0  0  1  0  0  0  0  0  0  0  0  0
  157.3839   40.1589  141.5335 C   0  0  1  0  0  0  0  0  0  0  0  0
  156.3063   40.1509  140.5116 C   0  0  0  0  0  0  0  0  0  0  0  0
  155.2657   39.4709  140.6416 O   0  0  0  0  0  0  0  0  0  0  0  0
  157.6074   39.5508  142.7093 N   0  0  0  0  0  0  0  0  0  0  0  0
  158.8192   39.9802  143.1592 C   0  0  0  0  0  0  0  0  0  0  0  0
  159.3942   40.8477  142.3027 N   0  0  2  0  0  0  0  0  0  0  0  0
  1  3  1  6  0  0  0
  1  4  2  0  0  0  0
  1  6  1  0  0  0  0
  1 22  1  0  0  0  0
  2 28  1  0  0  0  0
  2 35  1  1  0  0  0
  2 38  2  0  0  0  0
  2 10  1  0  0  0  0
  5  6  1  0  0  0  0
  7  5  1  6  0  0  0
  7  8  1  0  0  0  0
  7  9  1  0  0  0  0
  9 10  1  1  0  0  0
  9 11  1  0  0  0  0
 11 12  1  1  0  0  0
 11 13  1  0  0  0  0
 13  8  1  6  0  0  0
 13 33  1  0  0  0  0
 14 46  1  0  0  0  0
 14 17  1  0  0  0  0
 14 25  1  1  0  0  0
 15 16  1  0  0  0  0
 15 29  1  0  0  0  0
 16 18  1  6  0  0  0
 16 21  1  0  0  0  0
 17 19  1  1  0  0  0
 17 20  1  0  0  0  0
 20 22  1  6  0  0  0
 20 24  1  0  0  0  0
 23 21  1  6  0  0  0
 23 26  1  0  0  0  0
 23 33  1  0  0  0  0
 24 25  1  6  0  0  0
 24 27  1  0  0  0  0
 26 29  1  6  0  0  0
 26 31  1  0  0  0  0
 27 28  1  0  0  0  0
 29 30  2  0  0  0  0
 31 32  1  0  0  0  0
 33 32  1  1  0  0  0
 34 36  1  0  0  0  0
 34 42  1  0  0  0  0
 36 37  1  6  0  0  0
 36 39  1  0  0  0  0
 40 39  1  6  0  0  0
 40 41  1  0  0  0  0
 40 46  1  0  0  0  0
 41 42  1  6  0  0  0
 41 44  1  0  0  0  0
 42 43  2  0  0  0  0
 44 45  1  0  0  0  0
 46 45  1  1  0  0  0
M  CHG  2   3  -1  35  -1
M  END
>  <CHROM.1>
-160.61078916,51.39476048,157.19871235,43.56683020,143.89824626,-0.32990224
-0.20339479,1.02565658

>  <Name>
ligand

>  <RI>
0

>  <Rbt.Current_Directory>
/home/itssahil/PROJECTS/Mol_Feturizer/Test_systems_manuscript/rnas/4yb0

>  <Rbt.Executable>
rbdock ($Id: //depot/dev/client3/rdock/2013.1/src/exe/rbdock.cxx#4 $)

>  <Rbt.Library>
libRbt.so (2013.1, Build901 2013/11/27)

>  <Rbt.Parameter_File>
/export/apps/rDock/src/rDock_2013.1_src/data/scripts/dock_solv.prm

>  <Rbt.Receptor>
prm/pocket_docking_3.prm

>  <SCORE>
-46.7522

>  <SCORE.INTER>
-46.6893

>  <SCORE.INTER.CONST>
1

>  <SCORE.INTER.POLAR>
0

>  <SCORE.INTER.ROT>
2

>  <SCORE.INTER.SOLV>
40.3338

>  <SCORE.INTER.VDW>
-49.5042

>  <SCORE.INTER.norm>
-1.01499

>  <SCORE.INTRA>
-0.0628863

>  <SCORE.INTRA.DIHEDRAL>
0.00972587

>  <SCORE.INTRA.DIHEDRAL.0>
2.42188

>  <SCORE.INTRA.POLAR>
0

>  <SCORE.INTRA.POLAR.0>
0

>  <SCORE.INTRA.REPUL>
0

>  <SCORE.INTRA.REPUL.0>
0

>  <SCORE.INTRA.SOLV>
-0.0024448

>  <SCORE.INTRA.SOLV.lig_0>
-127.307

>  <SCORE.INTRA.VDW>
-0.0665268

>  <SCORE.INTRA.VDW.0>
-2.19936

>  <SCORE.INTRA.norm>
-0.00136709

>  <SCORE.RESTR>
0

>  <SCORE.RESTR.CAVITY>
0

>  <SCORE.RESTR.norm>
0

>  <SCORE.SYSTEM>
0

>  <SCORE.SYSTEM.CONST>
0

>  <SCORE.SYSTEM.DIHEDRAL>
0

>  <SCORE.SYSTEM.SOLV>
0

>  <SCORE.SYSTEM.norm>
0

>  <SCORE.heavy>
46

>  <SCORE.norm>
-1.01635

>  <RMSD>
0.451

$$$$
ligand
 OpenBabel02271912143D
libRbt.so/2013.1/901 2013/11/27
 46 52  0  0  0  0  0  0  0  0999 V2000
  159.6749   46.2267  143.4664 P   0  0  1  0  0  0  0  0  0  0  0  0
  158.1127   42.2590  147.2410 P   0  0  1  0  0  0  0  0  0  0  0  0
  159.2024   45.9953  142.0542 O   0  5  0  0  0  0  0  0  0  0  0  0
  160.3187   47.5647  143.7577 O   0  0  0  0  0  0  0  0  0  0  0  0
  158.1931   46.7687  145.5900 C   0  0  0  0  0  0  0  0  0  0  0  0
  158.4463   45.9400  144.4630 O   0  0  0  0  0  0  0  0  0  0  0  0
  157.2521   46.0637  146.5530 C   0  0  1  0  0  0  0  0  0  0  0  0
  155.9590   46.6312  146.3986 O   0  0  0  0  0  0  0  0  0  0  0  0
  157.0881   44.5648  146.3360 C   0  0  1  0  0  0  0  0  0  0  0  0
  157.8291   43.8557  147.3182 O   0  0  0  0  0  0  0  0  0  0  0  0
  155.6172   44.3299  146.5972 C   0  0  1  0  0  0  0  0  0  0  0  0
  155.4161   44.0399  147.9819 O   0  0  0  0  0  0  0  0  0  0  0  0
  154.9428   45.6431  146.3251 C   0  0  2  0  0  0  0  0  0  0  0  0
  160.7083   41.6349  142.5224 C   0  0  1  0  0  0  0  0  0  0  0  0
  150.9373   44.2379  143.2383 N   0  0  0  0  0  0  0  0  0  0  0  0
  151.1195   44.0542  144.5597 C   0  0  1  0  0  0  0  0  0  0  0  0
  160.4831   43.1197  142.3274 C   0  0  2  0  0  0  0  0  0  0  0  0
  150.1640   43.4166  145.2722 N   0  0  0  0  0  0  0  0  0  0  0  0
  161.6819   43.6659  141.7702 O   0  0  0  0  0  0  0  0  0  0  0  0
  160.2321   43.6748  143.7170 C   0  0  2  0  0  0  0  0  0  0  0  0
  152.2186   44.4724  145.2274 N   0  0  0  0  0  0  0  0  0  0  0  0
  160.6836   45.0235  143.8325 O   0  0  0  0  0  0  0  0  0  0  0  0
  153.2185   45.1137  144.5856 C   0  0  2  0  0  0  0  0  0  0  0  0
  161.0328   42.7186  144.5982 C   0  0  2  0  0  0  0  0  0  0  0  0
  161.1558   41.4930  143.8733 O   0  0  0  0  0  0  0  0  0  0  0  0
  153.0879   45.3467  143.1439 C   0  0  2  0  0  0  0  0  0  0  0  0
  160.4190   42.4347  145.9727 C   0  0  0  0  0  0  0  0  0  0  0  0
  159.0253   42.1334  145.9140 O   0  0  0  0  0  0  0  0  0  0  0  0
  151.8556   44.8606  142.4797 C   0  0  0  0  0  0  0  0  0  0  0  0
  151.6896   45.0353  141.2485 O   0  0  0  0  0  0  0  0  0  0  0  0
  154.2083   45.9877  142.7663 N   0  0  0  0  0  0  0  0  0  0  0  0
  154.9864   46.1541  143.8626 C   0  0  0  0  0  0  0  0  0  0  0  0
  154.3917   45.6314  144.9492 N   0  0  1  0  0  0  0  0  0  0  0  0
  156.3987   40.8870  139.6061 N   0  0  0  0  0  0  0  0  0  0  0  0
  158.9504   41.9219  148.4603 O   0  5  0  0  0  0  0  0  0  0  0  0
  157.4524   41.6905  139.3941 C   0  0  2  0  0  0  0  0  0  0  0  0
  157.4475   42.4340  138.2777 N   0  0  0  0  0  0  0  0  0  0  0  0
  156.8153   41.5377  146.9675 O   0  0  0  0  0  0  0  0  0  0  0  0
  158.5063   41.7824  140.2386 N   0  0  0  0  0  0  0  0  0  0  0  0
  158.5486   41.0459  141.3687 C   0  0  1  0  0  0  0  0  0  0  0  0
  157.4179   40.1420  141.6602 C   0  0  1  0  0  0  0  0  0  0  0  0
  156.3068   40.0953  140.6758 C   0  0  0  0  0  0  0  0  0  0  0  0
  155.3030   39.3677  140.8338 O   0  0  0  0  0  0  0  0  0  0  0  0
  157.7093   39.5331  142.8206 N   0  0  0  0  0  0  0  0  0  0  0  0
  158.9155   40.0124  143.2335 C   0  0  0  0  0  0  0  0  0  0  0  0
  159.4208   40.9134  142.3677 N   0  0  2  0  0  0  0  0  0  0  0  0
  1  3  1  6  0  0  0
  1  4  2  0  0  0  0
  1  6  1  0  0  0  0
  1 22  1  0  0  0  0
  2 28  1  0  0  0  0
  2 35  1  1  0  0  0
  2 38  2  0  0  0  0
  2 10  1  0  0  0  0
  5  6  1  0  0  0  0
  7  5  1  6  0  0  0
  7  8  1  0  0  0  0
  7  9  1  0  0  0  0
  9 10  1  1  0  0  0
  9 11  1  0  0  0  0
 11 12  1  1  0  0  0
 11 13  1  0  0  0  0
 13  8  1  6  0  0  0
 13 33  1  0  0  0  0
 14 46  1  0  0  0  0
 14 17  1  0  0  0  0
 14 25  1  1  0  0  0
 15 16  1  0  0  0  0
 15 29  1  0  0  0  0
 16 18  1  6  0  0  0
 16 21  1  0  0  0  0
 17 19  1  1  0  0  0
 17 20  1  0  0  0  0
 20 22  1  6  0  0  0
 20 24  1  0  0  0  0
 23 21  1  6  0  0  0
 23 26  1  0  0  0  0
 23 33  1  0  0  0  0
 24 25  1  6  0  0  0
 24 27  1  0  0  0  0
 26 29  1  6  0  0  0
 26 31  1  0  0  0  0
 27 28  1  0  0  0  0
 29 30  2  0  0  0  0
 31 32  1  0  0  0  0
 33 32  1  1  0  0  0
 34 36  1  0  0  0  0
 34 42  1  0  0  0  0
 36 37  1  6  0  0  0
 36 39  1  0  0  0  0
 40 39  1  6  0  0  0
 40 41  1  0  0  0  0
 40 46  1  0  0  0  0
 41 42  1  6  0  0  0
 41 44  1  0  0  0  0
 42 43  2  0  0  0  0
 44 45  1  0  0  0  0
 46 45  1  1  0  0  0
M  CHG  2   3  -1  35  -1
M  END
>  <CHROM.1>
-161.14084869,49.47003847,157.14110172,43.57554012,143.95964935,-0.30536081
-0.15793097,1.01033923

>  <Name>
ligand

>  <RI>
0

>  <Rbt.Current_Directory>
/home/itssahil/PROJECTS/Mol_Feturizer/Test_systems_manuscript/rnas/4yb0

>  <Rbt.Executable>
rbdock ($Id: //depot/dev/client3/rdock/2013.1/src/exe/rbdock.cxx#4 $)

>  <Rbt.Library>
libRbt.so (2013.1, Build901 2013/11/27)

>  <Rbt.Parameter_File>
/export/apps/rDock/src/rDock_2013.1_src/data/scripts/dock_solv.prm

>  <Rbt.Receptor>
prm/pocket_docking_2.prm

>  <SCORE>
-46.4308

>  <SCORE.INTER>
-46.4019

>  <SCORE.INTER.CONST>
1

>  <SCORE.INTER.POLAR>
0

>  <SCORE.INTER.ROT>
2

>  <SCORE.INTER.SOLV>
40.2404

>  <SCORE.INTER.VDW>
-49.2814

>  <SCORE.INTER.norm>
-1.00874

>  <SCORE.INTRA>
-0.0352269

>  <SCORE.INTRA.DIHEDRAL>
0.0120649

>  <SCORE.INTRA.DIHEDRAL.0>
2.42188

>  <SCORE.INTRA.POLAR>
0

>  <SCORE.INTRA.POLAR.0>
0

>  <SCORE.INTRA.REPUL>
0

>  <SCORE.INTRA.REPUL.0>
0

>  <SCORE.INTRA.SOLV>
-0.00126023

>  <SCORE.INTRA.SOLV.lig_0>
-127.307

>  <SCORE.INTRA.VDW>
-0.0406293

>  <SCORE.INTRA.VDW.0>
-2.19936

>  <SCORE.INTRA.norm>
-0.000765803

>  <SCORE.RESTR>
0.00638859

>  <SCORE.RESTR.CAVITY>
0.00638859

>  <SCORE.RESTR.norm>
0.000138882

>  <SCORE.SYSTEM>
0

>  <SCORE.SYSTEM.CONST>
0

>  <SCORE.SYSTEM.DIHEDRAL>
0

>  <SCORE.SYSTEM.SOLV>
0

>  <SCORE.SYSTEM.norm>
0

>  <SCORE.heavy>
46

>  <SCORE.norm>
-1.00936

>  <RMSD>
0.453

$$$$
ligand
 OpenBabel02271912143D
libRbt.so/2013.1/901 2013/11/27
 46 52  0  0  0  0  0  0  0  0999 V2000
  159.7409   46.2126  143.5287 P   0  0  1  0  0  0  0  0  0  0  0  0
  158.0499   42.2216  147.2224 P   0  0  1  0  0  0  0  0  0  0  0  0
  159.2941   46.0044  142.1045 O   0  5  0  0  0  0  0  0  0  0  0  0
  160.3964   47.5382  143.8491 O   0  0  0  0  0  0  0  0  0  0  0  0
  158.2236   46.7493  145.6285 C   0  0  0  0  0  0  0  0  0  0  0  0
  158.4886   45.9306  144.4968 O   0  0  0  0  0  0  0  0  0  0  0  0
  157.2541   46.0456  146.5637 C   0  0  1  0  0  0  0  0  0  0  0  0
  155.9721   46.6323  146.3903 O   0  0  0  0  0  0  0  0  0  0  0  0
  157.0745   44.5517  146.3252 C   0  0  1  0  0  0  0  0  0  0  0  0
  157.7860   43.8210  147.3133 O   0  0  0  0  0  0  0  0  0  0  0  0
  155.5956   44.3336  146.5538 C   0  0  1  0  0  0  0  0  0  0  0  0
  155.3627   44.0299  147.9306 O   0  0  0  0  0  0  0  0  0  0  0  0
  154.9444   45.6590  146.2842 C   0  0  2  0  0  0  0  0  0  0  0  0
  160.7321   41.6188  142.5497 C   0  0  1  0  0  0  0  0  0  0  0  0
  150.9700   44.3743  143.1062 N   0  0  0  0  0  0  0  0  0  0  0  0
  151.1210   44.1762  144.4294 C   0  0  1  0  0  0  0  0  0  0  0  0
  160.5306   43.1087  142.3683 C   0  0  2  0  0  0  0  0  0  0  0  0
  150.1362   43.5562  145.1173 N   0  0  0  0  0  0  0  0  0  0  0  0
  161.7476   43.6453  141.8421 O   0  0  0  0  0  0  0  0  0  0  0  0
  160.2589   43.6505  143.7592 C   0  0  2  0  0  0  0  0  0  0  0  0
  152.2160   44.5626  145.1225 N   0  0  0  0  0  0  0  0  0  0  0  0
  160.7258   44.9915  143.9002 O   0  0  0  0  0  0  0  0  0  0  0  0
  153.2437   45.1847  144.5062 C   0  0  2  0  0  0  0  0  0  0  0  0
  161.0288   42.6731  144.6446 C   0  0  2  0  0  0  0  0  0  0  0  0
  161.1502   41.4547  143.9075 O   0  0  0  0  0  0  0  0  0  0  0  0
  153.1479   45.4319  143.0641 C   0  0  2  0  0  0  0  0  0  0  0  0
  160.3835   42.3812  146.0029 C   0  0  0  0  0  0  0  0  0  0  0  0
  158.9875   42.0995  145.9126 O   0  0  0  0  0  0  0  0  0  0  0  0
  151.9181   44.9807  142.3714 C   0  0  0  0  0  0  0  0  0  0  0  0
  151.7813   45.1688  141.1385 O   0  0  0  0  0  0  0  0  0  0  0  0
  154.2907   46.0487  142.7143 N   0  0  0  0  0  0  0  0  0  0  0  0
  155.0502   46.1878  143.8275 C   0  0  0  0  0  0  0  0  0  0  0  0
  154.4213   45.6712  144.8975 N   0  0  1  0  0  0  0  0  0  0  0  0
  156.4430   41.0105  139.5714 N   0  0  0  0  0  0  0  0  0  0  0  0
  158.8581   41.8588  148.4541 O   0  5  0  0  0  0  0  0  0  0  0  0
  157.5072   41.8086  139.3947 C   0  0  2  0  0  0  0  0  0  0  0  0
  157.5209   42.5870  138.3023 N   0  0  0  0  0  0  0  0  0  0  0  0
  156.7489   41.5213  146.9141 O   0  0  0  0  0  0  0  0  0  0  0  0
  158.5538   41.8623  140.2514 N   0  0  0  0  0  0  0  0  0  0  0  0
  158.5774   41.0901  141.3580 C   0  0  1  0  0  0  0  0  0  0  0  0
  157.4344   40.1899  141.6103 C   0  0  1  0  0  0  0  0  0  0  0  0
  156.3324   40.1865  140.6147 C   0  0  0  0  0  0  0  0  0  0  0  0
  155.3193   39.4653  140.7402 O   0  0  0  0  0  0  0  0  0  0  0  0
  157.7081   39.5416  142.7535 N   0  0  0  0  0  0  0  0  0  0  0  0
  158.9154   39.9945  143.1925 C   0  0  0  0  0  0  0  0  0  0  0  0
  159.4385   40.9167  142.3604 N   0  0  2  0  0  0  0  0  0  0  0  0
  1  3  1  6  0  0  0
  1  4  2  0  0  0  0
  1  6  1  0  0  0  0
  1 22  1  0  0  0  0
  2 28  1  0  0  0  0
  2 35  1  1  0  0  0
  2 38  2  0  0  0  0
  2 10  1  0  0  0  0
  5  6  1  0  0  0  0
  7  5  1  6  0  0  0
  7  8  1  0  0  0  0
  7  9  1  0  0  0  0
  9 10  1  1  0  0  0
  9 11  1  0  0  0  0
 11 12  1  1  0  0  0
 11 13  1  0  0  0  0
 13  8  1  6  0  0  0
 13 33  1  0  0  0  0
 14 46  1  0  0  0  0
 14 17  1  0  0  0  0
 14 25  1  1  0  0  0
 15 16  1  0  0  0  0
 15 29  1  0  0  0  0
 16 18  1  6  0  0  0
 16 21  1  0  0  0  0
 17 19  1  1  0  0  0
 17 20  1  0  0  0  0
 20 22  1  6  0  0  0
 20 24  1  0  0  0  0
 23 21  1  6  0  0  0
 23 26  1  0  0  0  0
 23 33  1  0  0  0  0
 24 25  1  6  0  0  0
 24 27  1  0  0  0  0
 26 29  1  6  0  0  0
 26 31  1  0  0  0  0
 27 28  1  0  0  0  0
 29 30  2  0  0  0  0
 31 32  1  0  0  0  0
 33 32  1  1  0  0  0
 34 36  1  0  0  0  0
 34 42  1  0  0  0  0
 36 37  1  6  0  0  0
 36 39  1  0  0  0  0
 40 39  1  6  0  0  0
 40 41  1  0  0  0  0
 40 46  1  0  0  0  0
 41 42  1  6  0  0  0
 41 44  1  0  0  0  0
 42 43  2  0  0  0  0
 44 45  1  0  0  0  0
 46 45  1  1  0  0  0
M  CHG  2   3  -1  35  -1
M  END
>  <CHROM.1>
-160.49312720,48.18528852,157.15780071,43.59847707,143.94267708,-0.28583437
-0.18296320,1.02674657

>  <Name>
ligand

>  <RI>
0

>  <Rbt.Current_Directory>
/home/itssahil/PROJECTS/Mol_Feturizer/Test_systems_manuscript/rnas/4yb0

>  <Rbt.Executable>
rbdock ($Id: //depot/dev/client3/rdock/2013.1/src/exe/rbdock.cxx#4 $)

>  <Rbt.Library>
libRbt.so (2013.1, Build901 2013/11/27)

>  <Rbt.Parameter_File>
/export/apps/rDock/src/rDock_2013.1_src/data/scripts/dock_solv.prm

>  <Rbt.Receptor>
prm/pocket_docking_4.prm

>  <SCORE>
-46.7883

>  <SCORE.INTER>
-46.7477

>  <SCORE.INTER.CONST>
1

>  <SCORE.INTER.POLAR>
0

>  <SCORE.INTER.ROT>
2

>  <SCORE.INTER.SOLV>
39.6599

>  <SCORE.INTER.VDW>
-49.3184

>  <SCORE.INTER.norm>
-1.01625

>  <SCORE.INTRA>
-0.0405842

>  <SCORE.INTRA.DIHEDRAL>
0.0142076

>  <SCORE.INTRA.DIHEDRAL.0>
2.42188

>  <SCORE.INTRA.POLAR>
0

>  <SCORE.INTRA.POLAR.0>
0

>  <SCORE.INTRA.REPUL>
0

>  <SCORE.INTRA.REPUL.0>
0

>  <SCORE.INTRA.SOLV>
-0.000829019

>  <SCORE.INTRA.SOLV.lig_0>
-127.307

>  <SCORE.INTRA.VDW>
-0.0472735

>  <SCORE.INTRA.VDW.0>
-2.19936

>  <SCORE.INTRA.norm>
-0.000882264

>  <SCORE.RESTR>
0

>  <SCORE.RESTR.CAVITY>
0

>  <SCORE.RESTR.norm>
0

>  <SCORE.SYSTEM>
0

>  <SCORE.SYSTEM.CONST>
0

>  <SCORE.SYSTEM.DIHEDRAL>
0

>  <SCORE.SYSTEM.SOLV>
0

>  <SCORE.SYSTEM.norm>
0

>  <SCORE.heavy>
46

>  <SCORE.norm>
-1.01714

>  <RMSD>
0.461

$$$$
ligand
 OpenBabel02271912143D
libRbt.so/2013.1/901 2013/11/27
 46 52  0  0  0  0  0  0  0  0999 V2000
  159.7162   46.2479  143.5451 P   0  0  1  0  0  0  0  0  0  0  0  0
  158.0365   42.2379  147.2234 P   0  0  1  0  0  0  0  0  0  0  0  0
  159.2693   46.0444  142.1204 O   0  5  0  0  0  0  0  0  0  0  0  0
  160.3687   47.5738  143.8707 O   0  0  0  0  0  0  0  0  0  0  0  0
  158.1986   46.7724  145.6478 C   0  0  0  0  0  0  0  0  0  0  0  0
  158.4650   45.9590  144.5127 O   0  0  0  0  0  0  0  0  0  0  0  0
  157.2312   46.0626  146.5805 C   0  0  1  0  0  0  0  0  0  0  0  0
  155.9476   46.6470  146.4101 O   0  0  0  0  0  0  0  0  0  0  0  0
  157.0551   44.5693  146.3360 C   0  0  1  0  0  0  0  0  0  0  0  0
  157.7688   43.8363  147.3209 O   0  0  0  0  0  0  0  0  0  0  0  0
  155.5768   44.3467  146.5645 C   0  0  1  0  0  0  0  0  0  0  0  0
  155.3452   44.0369  147.9401 O   0  0  0  0  0  0  0  0  0  0  0  0
  154.9223   45.6716  146.3005 C   0  0  2  0  0  0  0  0  0  0  0  0
  160.7181   41.6605  142.5472 C   0  0  1  0  0  0  0  0  0  0  0  0
  150.9781   44.3320  143.1076 N   0  0  0  0  0  0  0  0  0  0  0  0
  151.1341   44.1216  144.4283 C   0  0  1  0  0  0  0  0  0  0  0  0
  160.5129   43.1506  142.3719 C   0  0  2  0  0  0  0  0  0  0  0  0
  150.1645   43.4704  145.1088 N   0  0  0  0  0  0  0  0  0  0  0  0
  161.7284   43.6923  141.8473 O   0  0  0  0  0  0  0  0  0  0  0  0
  160.2405   43.6862  143.7651 C   0  0  2  0  0  0  0  0  0  0  0  0
  152.2200   44.5254  145.1259 N   0  0  0  0  0  0  0  0  0  0  0  0
  160.7042   45.0277  143.9113 O   0  0  0  0  0  0  0  0  0  0  0  0
  153.2325   45.1788  144.5170 C   0  0  2  0  0  0  0  0  0  0  0  0
  161.0131   42.7071  144.6462 C   0  0  2  0  0  0  0  0  0  0  0  0
  161.1371   41.4919  143.9041 O   0  0  0  0  0  0  0  0  0  0  0  0
  153.1305   45.4410  143.0781 C   0  0  2  0  0  0  0  0  0  0  0  0
  160.3691   42.4081  146.0036 C   0  0  0  0  0  0  0  0  0  0  0  0
  158.9738   42.1234  145.9127 O   0  0  0  0  0  0  0  0  0  0  0  0
  151.9114   44.9693  142.3800 C   0  0  0  0  0  0  0  0  0  0  0  0
  151.7698   45.1689  141.1496 O   0  0  0  0  0  0  0  0  0  0  0  0
  154.2583   46.0887  142.7356 N   0  0  0  0  0  0  0  0  0  0  0  0
  155.0147   46.2322  143.8503 C   0  0  0  0  0  0  0  0  0  0  0  0
  154.3985   45.6882  144.9141 N   0  0  1  0  0  0  0  0  0  0  0  0
  156.4193   41.0687  139.5793 N   0  0  0  0  0  0  0  0  0  0  0  0
  158.8461   41.8721  148.4533 O   0  5  0  0  0  0  0  0  0  0  0  0
  157.4802   41.8723  139.4069 C   0  0  2  0  0  0  0  0  0  0  0  0
  157.4870   42.6620  138.3226 N   0  0  0  0  0  0  0  0  0  0  0  0
  156.7370   41.5358  146.9129 O   0  0  0  0  0  0  0  0  0  0  0  0
  158.5300   41.9206  140.2600 N   0  0  0  0  0  0  0  0  0  0  0  0
  158.5605   41.1370  141.3584 C   0  0  1  0  0  0  0  0  0  0  0  0
  157.4215   40.2304  141.6057 C   0  0  1  0  0  0  0  0  0  0  0  0
  156.3156   40.2336  140.6144 C   0  0  0  0  0  0  0  0  0  0  0  0
  155.3054   39.5077  140.7364 O   0  0  0  0  0  0  0  0  0  0  0  0
  157.7018   39.5712  142.7411 N   0  0  0  0  0  0  0  0  0  0  0  0
  158.9093   40.0235  143.1800 C   0  0  0  0  0  0  0  0  0  0  0  0
  159.4261   40.9560  142.3555 N   0  0  2  0  0  0  0  0  0  0  0  0
  1  3  1  6  0  0  0
  1  4  2  0  0  0  0
  1  6  1  0  0  0  0
  1 22  1  0  0  0  0
  2 28  1  0  0  0  0
  2 35  1  1  0  0  0
  2 38  2  0  0  0  0
  2 10  1  0  0  0  0
  5  6  1  0  0  0  0
  7  5  1  6  0  0  0
  7  8  1  0  0  0  0
  7  9  1  0  0  0  0
  9 10  1  1  0  0  0
  9 11  1  0  0  0  0
 11 12  1  1  0  0  0
 11 13  1  0  0  0  0
 13  8  1  6  0  0  0
 13 33  1  0  0  0  0
 14 46  1  0  0  0  0
 14 17  1  0  0  0  0
 14 25  1  1  0  0  0
 15 16  1  0  0  0  0
 15 29  1  0  0  0  0
 16 18  1  6  0  0  0
 16 21  1  0  0  0  0
 17 19  1  1  0  0  0
 17 20  1  0  0  0  0
 20 22  1  6  0  0  0
 20 24  1  0  0  0  0
 23 21  1  6  0  0  0
 23 26  1  0  0  0  0
 23 33  1  0  0  0  0
 24 25  1  6  0  0  0
 24 27  1  0  0  0  0
 26 29  1  6  0  0  0
 26 31  1  0  0  0  0
 27 28  1  0  0  0  0
 29 30  2  0  0  0  0
 31 32  1  0  0  0  0
 33 32  1  1  0  0  0
 34 36  1  0  0  0  0
 34 42  1  0  0  0  0
 36 37  1  6  0  0  0
 36 39  1  0  0  0  0
 40 39  1  6  0  0  0
 40 41  1  0  0  0  0
 40 46  1  0  0  0  0
 41 42  1  6  0  0  0
 41 44  1  0  0  0  0
 42 43  2  0  0  0  0
 44 45  1  0  0  0  0
 46 45  1  1  0  0  0
M  CHG  2   3  -1  35  -1
M  END
>  <CHROM.1>
-161.78711594,47.76712632,157.14162721,43.62119067,143.94966007,-0.27751149
-0.17657175,1.02982157

>  <Name>
ligand

>  <RI>
0

>  <Rbt.Current_Directory>
/home/itssahil/PROJECTS/Mol_Feturizer/Test_systems_manuscript/rnas/4yb0

>  <Rbt.Executable>
rbdock ($Id: //depot/dev/client3/rdock/2013.1/src/exe/rbdock.cxx#4 $)

>  <Rbt.Library>
libRbt.so (2013.1, Build901 2013/11/27)

>  <Rbt.Parameter_File>
/export/apps/rDock/src/rDock_2013.1_src/data/scripts/dock_solv.prm

>  <Rbt.Receptor>
prm/pocket_docking_3.prm

>  <SCORE>
-46.8366

>  <SCORE.INTER>
-46.8103

>  <SCORE.INTER.CONST>
1

>  <SCORE.INTER.POLAR>
0

>  <SCORE.INTER.ROT>
2

>  <SCORE.INTER.SOLV>
39.4302

>  <SCORE.INTER.VDW>
-49.2836

>  <SCORE.INTER.norm>
-1.01762

>  <SCORE.INTRA>
-0.0263086

>  <SCORE.INTRA.DIHEDRAL>
0.0138699

>  <SCORE.INTRA.DIHEDRAL.0>
2.42188

>  <SCORE.INTRA.POLAR>
0

>  <SCORE.INTRA.POLAR.0>
0

>  <SCORE.INTRA.REPUL>
0

>  <SCORE.INTRA.REPUL.0>
0

>  <SCORE.INTRA.SOLV>
-0.00014658

>  <SCORE.INTRA.SOLV.lig_0>
-127.307

>  <SCORE.INTRA.VDW>
-0.0331702

>  <SCORE.INTRA.VDW.0>
-2.19936

>  <SCORE.INTRA.norm>
-0.000571925

>  <SCORE.RESTR>
0

>  <SCORE.RESTR.CAVITY>
0

>  <SCORE.RESTR.norm>
0

>  <SCORE.SYSTEM>
0

>  <SCORE.SYSTEM.CONST>
0

>  <SCORE.SYSTEM.DIHEDRAL>
0

>  <SCORE.SYSTEM.SOLV>
0

>  <SCORE.SYSTEM.norm>
0

>  <SCORE.heavy>
46

>  <SCORE.norm>
-1.01819

>  <RMSD>
0.462

$$$$
ligand
 OpenBabel02271912143D
libRbt.so/2013.1/901 2013/11/27
 46 52  0  0  0  0  0  0  0  0999 V2000
  159.6783   46.2538  143.5289 P   0  0  1  0  0  0  0  0  0  0  0  0
  158.0370   42.2413  147.2217 P   0  0  1  0  0  0  0  0  0  0  0  0
  159.2274   46.0445  142.1062 O   0  5  0  0  0  0  0  0  0  0  0  0
  160.3237   47.5843  143.8492 O   0  0  0  0  0  0  0  0  0  0  0  0
  158.1652   46.7733  145.6360 C   0  0  0  0  0  0  0  0  0  0  0  0
  158.4325   45.9592  144.5016 O   0  0  0  0  0  0  0  0  0  0  0  0
  157.2056   46.0595  146.5737 C   0  0  1  0  0  0  0  0  0  0  0  0
  155.9178   46.6355  146.4068 O   0  0  0  0  0  0  0  0  0  0  0  0
  157.0379   44.5646  146.3330 C   0  0  1  0  0  0  0  0  0  0  0  0
  157.7597   43.8382  147.3168 O   0  0  0  0  0  0  0  0  0  0  0  0
  155.5619   44.3334  146.5674 C   0  0  1  0  0  0  0  0  0  0  0  0
  155.3373   44.0250  147.9445 O   0  0  0  0  0  0  0  0  0  0  0  0
  154.8982   45.6536  146.3030 C   0  0  2  0  0  0  0  0  0  0  0  0
  160.7049   41.6705  142.5369 C   0  0  1  0  0  0  0  0  0  0  0  0
  150.9519   44.2803  143.1269 N   0  0  0  0  0  0  0  0  0  0  0  0
  151.1143   44.0734  144.4474 C   0  0  1  0  0  0  0  0  0  0  0  0
  160.4899   43.1590  142.3592 C   0  0  2  0  0  0  0  0  0  0  0  0
  150.1518   43.4165  145.1326 N   0  0  0  0  0  0  0  0  0  0  0  0
  161.7000   43.7070  141.8290 O   0  0  0  0  0  0  0  0  0  0  0  0
  160.2192   43.6958  143.7523 C   0  0  2  0  0  0  0  0  0  0  0  0
  152.1998   44.4861  145.1404 N   0  0  0  0  0  0  0  0  0  0  0  0
  160.6752   45.0405  143.8940 O   0  0  0  0  0  0  0  0  0  0  0  0
  153.2055   45.1456  144.5266 C   0  0  2  0  0  0  0  0  0  0  0  0
  161.0012   42.7234  144.6326 C   0  0  2  0  0  0  0  0  0  0  0  0
  161.1300   41.5075  143.8926 O   0  0  0  0  0  0  0  0  0  0  0  0
  153.0963   45.4045  143.0876 C   0  0  2  0  0  0  0  0  0  0  0  0
  160.3640   42.4233  145.9930 C   0  0  0  0  0  0  0  0  0  0  0  0
  158.9701   42.1298  145.9078 O   0  0  0  0  0  0  0  0  0  0  0  0
  151.8780   44.9229  142.3948 C   0  0  0  0  0  0  0  0  0  0  0  0
  151.7305   45.1194  141.1646 O   0  0  0  0  0  0  0  0  0  0  0  0
  154.2182   46.0596  142.7399 N   0  0  0  0  0  0  0  0  0  0  0  0
  154.9776   46.2105  143.8515 C   0  0  0  0  0  0  0  0  0  0  0  0
  154.3692   45.6640  144.9185 N   0  0  1  0  0  0  0  0  0  0  0  0
  156.3847   41.0675  139.6026 N   0  0  0  0  0  0  0  0  0  0  0  0
  158.8533   41.8830  148.4493 O   0  5  0  0  0  0  0  0  0  0  0  0
  157.4379   41.8803  139.4267 C   0  0  2  0  0  0  0  0  0  0  0  0
  157.4293   42.6778  138.3482 N   0  0  0  0  0  0  0  0  0  0  0  0
  156.7407   41.5304  146.9174 O   0  0  0  0  0  0  0  0  0  0  0  0
  158.4948   41.9304  140.2709 N   0  0  0  0  0  0  0  0  0  0  0  0
  158.5410   41.1393  141.3633 C   0  0  1  0  0  0  0  0  0  0  0  0
  157.4110   40.2222  141.6140 C   0  0  1  0  0  0  0  0  0  0  0  0
  156.2964   40.2241  140.6325 C   0  0  0  0  0  0  0  0  0  0  0  0
  155.2929   39.4898  140.7580 O   0  0  0  0  0  0  0  0  0  0  0  0
  157.7063   39.5570  142.7420 N   0  0  0  0  0  0  0  0  0  0  0  0
  158.9142   40.0153  143.1737 C   0  0  0  0  0  0  0  0  0  0  0  0
  159.4167   40.9577  142.3515 N   0  0  2  0  0  0  0  0  0  0  0  0
  1  3  1  6  0  0  0
  1  4  2  0  0  0  0
  1  6  1  0  0  0  0
  1 22  1  0  0  0  0
  2 28  1  0  0  0  0
  2 35  1  1  0  0  0
  2 38  2  0  0  0  0
  2 10  1  0  0  0  0
  5  6  1  0  0  0  0
  7  5  1  6  0  0  0
  7  8  1  0  0  0  0
  7  9  1  0  0  0  0
  9 10  1  1  0  0  0
  9 11  1  0  0  0  0
 11 12  1  1  0  0  0
 11 13  1  0  0  0  0
 13  8  1  6  0  0  0
 13 33  1  0  0  0  0
 14 46  1  0  0  0  0
 14 17  1  0  0  0  0
 14 25  1  1  0  0  0
 15 16  1  0  0  0  0
 15 29  1  0  0  0  0
 16 18  1  6  0  0  0
 16 21  1  0  0  0  0
 17 19  1  1  0  0  0
 17 20  1  0  0  0  0
 20 22  1  6  0  0  0
 20 24  1  0  0  0  0
 23 21  1  6  0  0  0
 23 26  1  0  0  0  0
 23 33  1  0  0  0  0
 24 25  1  6  0  0  0
 24 27  1  0  0  0  0
 26 29  1  6  0  0  0
 26 31  1  0  0  0  0
 27 28  1  0  0  0  0
 29 30  2  0  0  0  0
 31 32  1  0  0  0  0
 33 32  1  1  0  0  0
 34 36  1  0  0  0  0
 34 42  1  0  0  0  0
 36 37  1  6  0  0  0
 36 39  1  0  0  0  0
 40 39  1  6  0  0  0
 40 41  1  0  0  0  0
 40 46  1  0  0  0  0
 41 42  1  6  0  0  0
 41 44  1  0  0  0  0
 42 43  2  0  0  0  0
 44 45  1  0  0  0  0
 46 45  1  1  0  0  0
M  CHG  2   3  -1  35  -1
M  END
>  <CHROM.1>
-161.84378388,47.15149412,157.12013579,43.61409317,143.95010855,-0.27210748
-0.16955067,1.02836996

>  <Name>
ligand

>  <RI>
0

>  <Rbt.Current_Directory>
/home/itssahil/PROJECTS/Mol_Feturizer/Test_systems_manuscript/rnas/4yb0

>  <Rbt.Executable>
rbdock ($Id: //depot/dev/client3/rdock/2013.1/src/exe/rbdock.cxx#4 $)

>  <Rbt.Library>
libRbt.so (2013.1, Build901 2013/11/27)

>  <Rbt.Parameter_File>
/export/apps/rDock/src/rDock_2013.1_src/data/scripts/dock_solv.prm

>  <Rbt.Receptor>
prm/pocket_docking_6.prm

>  <SCORE>
-46.7663

>  <SCORE.INTER>
-46.7484

>  <SCORE.INTER.CONST>
1

>  <SCORE.INTER.POLAR>
0

>  <SCORE.INTER.ROT>
2

>  <SCORE.INTER.SOLV>
39.6348

>  <SCORE.INTER.VDW>
-49.3105

>  <SCORE.INTER.norm>
-1.01627

>  <SCORE.INTRA>
-0.0179265

>  <SCORE.INTRA.DIHEDRAL>
0.0146117

>  <SCORE.INTRA.DIHEDRAL.0>
2.42188

>  <SCORE.INTRA.POLAR>
0

>  <SCORE.INTRA.POLAR.0>
0

>  <SCORE.INTRA.REPUL>
0

>  <SCORE.INTRA.REPUL.0>
0

>  <SCORE.INTRA.SOLV>
0.000191927

>  <SCORE.INTRA.SOLV.lig_0>
-127.307

>  <SCORE.INTRA.VDW>
-0.0253283

>  <SCORE.INTRA.VDW.0>
-2.19936

>  <SCORE.INTRA.norm>
-0.000389706

>  <SCORE.RESTR>
4.81481e-07

>  <SCORE.RESTR.CAVITY>
4.81481e-07

>  <SCORE.RESTR.norm>
1.0467e-08

>  <SCORE.SYSTEM>
0

>  <SCORE.SYSTEM.CONST>
0

>  <SCORE.SYSTEM.DIHEDRAL>
0

>  <SCORE.SYSTEM.SOLV>
0

>  <SCORE.SYSTEM.norm>
0

>  <SCORE.heavy>
46

>  <SCORE.norm>
-1.01666

>  <RMSD>
0.475

$$$$
ligand
 OpenBabel02271912143D
libRbt.so/2013.1/901 2013/11/27
 46 52  0  0  0  0  0  0  0  0999 V2000
  159.6338   46.2671  143.4892 P   0  0  1  0  0  0  0  0  0  0  0  0
  158.0764   42.2748  147.2399 P   0  0  1  0  0  0  0  0  0  0  0  0
  159.1659   46.0409  142.0747 O   0  5  0  0  0  0  0  0  0  0  0  0
  160.2719   47.6060  143.7889 O   0  0  0  0  0  0  0  0  0  0  0  0
  158.1444   46.7930  145.6116 C   0  0  0  0  0  0  0  0  0  0  0  0
  158.4036   45.9708  144.4812 O   0  0  0  0  0  0  0  0  0  0  0  0
  157.2035   46.0797  146.5685 C   0  0  1  0  0  0  0  0  0  0  0  0
  155.9087   46.6432  146.4136 O   0  0  0  0  0  0  0  0  0  0  0  0
  157.0456   44.5813  146.3436 C   0  0  1  0  0  0  0  0  0  0  0  0
  157.7867   43.8701  147.3243 O   0  0  0  0  0  0  0  0  0  0  0  0
  155.5749   44.3396  146.5998 C   0  0  1  0  0  0  0  0  0  0  0  0
  155.3712   44.0420  147.9825 O   0  0  0  0  0  0  0  0  0  0  0  0
  154.8963   45.6517  146.3324 C   0  0  2  0  0  0  0  0  0  0  0  0
  160.6867   41.6838  142.5252 C   0  0  1  0  0  0  0  0  0  0  0  0
  150.8972   44.2611  143.2308 N   0  0  0  0  0  0  0  0  0  0  0  0
  151.0757   44.0733  144.5521 C   0  0  1  0  0  0  0  0  0  0  0  0
  160.4565   43.1687  142.3369 C   0  0  2  0  0  0  0  0  0  0  0  0
  150.1173   43.4350  145.2602 N   0  0  0  0  0  0  0  0  0  0  0  0
  161.6547   43.7222  141.7857 O   0  0  0  0  0  0  0  0  0  0  0  0
  160.1997   43.7160  143.7286 C   0  0  2  0  0  0  0  0  0  0  0  0
  152.1736   44.4880  145.2240 N   0  0  0  0  0  0  0  0  0  0  0  0
  160.6459   45.0657  143.8520 O   0  0  0  0  0  0  0  0  0  0  0  0
  153.1760   45.1298  144.5868 C   0  0  2  0  0  0  0  0  0  0  0  0
  161.0017   42.7584  144.6071 C   0  0  2  0  0  0  0  0  0  0  0  0
  161.1312   41.5368  143.8765 O   0  0  0  0  0  0  0  0  0  0  0  0
  153.0496   45.3673  143.1454 C   0  0  2  0  0  0  0  0  0  0  0  0
  160.3853   42.4654  145.9786 C   0  0  0  0  0  0  0  0  0  0  0  0
  158.9930   42.1592  145.9147 O   0  0  0  0  0  0  0  0  0  0  0  0
  151.8184   44.8848  142.4765 C   0  0  0  0  0  0  0  0  0  0  0  0
  151.6560   45.0633  141.2454 O   0  0  0  0  0  0  0  0  0  0  0  0
  154.1719   46.0078  142.7727 N   0  0  0  0  0  0  0  0  0  0  0  0
  154.9473   46.1698  143.8716 C   0  0  0  0  0  0  0  0  0  0  0  0
  154.3489   45.6448  144.9550 N   0  0  1  0  0  0  0  0  0  0  0  0
  156.4046   40.9084  139.5757 N   0  0  0  0  0  0  0  0  0  0  0  0
  158.9121   41.9348  148.4597 O   0  5  0  0  0  0  0  0  0  0  0  0
  157.4583   41.7132  139.3682 C   0  0  2  0  0  0  0  0  0  0  0  0
  157.4614   42.4501  138.2473 N   0  0  0  0  0  0  0  0  0  0  0  0
  156.7824   41.5502  146.9594 O   0  0  0  0  0  0  0  0  0  0  0  0
  158.5045   41.8126  140.2213 N   0  0  0  0  0  0  0  0  0  0  0  0
  158.5386   41.0829  141.3561 C   0  0  1  0  0  0  0  0  0  0  0  0
  157.4075   40.1780  141.6430 C   0  0  1  0  0  0  0  0  0  0  0  0
  156.3052   40.1228  140.6492 C   0  0  0  0  0  0  0  0  0  0  0  0
  155.3017   39.3937  140.8027 O   0  0  0  0  0  0  0  0  0  0  0  0
  157.6901   39.5767  142.8095 N   0  0  0  0  0  0  0  0  0  0  0  0
  158.8916   40.0613  143.2301 C   0  0  0  0  0  0  0  0  0  0  0  0
  159.4023   40.9584  142.3635 N   0  0  2  0  0  0  0  0  0  0  0  0
  1  3  1  6  0  0  0
  1  4  2  0  0  0  0
  1  6  1  0  0  0  0
  1 22  1  0  0  0  0
  2 28  1  0  0  0  0
  2 35  1  1  0  0  0
  2 38  2  0  0  0  0
  2 10  1  0  0  0  0
  5  6  1  0  0  0  0
  7  5  1  6  0  0  0
  7  8  1  0  0  0  0
  7  9  1  0  0  0  0
  9 10  1  1  0  0  0
  9 11  1  0  0  0  0
 11 12  1  1  0  0  0
 11 13  1  0  0  0  0
 13  8  1  6  0  0  0
 13 33  1  0  0  0  0
 14 46  1  0  0  0  0
 14 17  1  0  0  0  0
 14 25  1  1  0  0  0
 15 16  1  0  0  0  0
 15 29  1  0  0  0  0
 16 18  1  6  0  0  0
 16 21  1  0  0  0  0
 17 19  1  1  0  0  0
 17 20  1  0  0  0  0
 20 22  1  6  0  0  0
 20 24  1  0  0  0  0
 23 21  1  6  0  0  0
 23 26  1  0  0  0  0
 23 33  1  0  0  0  0
 24 25  1  6  0  0  0
 24 27  1  0  0  0  0
 26 29  1  6  0  0  0
 26 31  1  0  0  0  0
 27 28  1  0  0  0  0
 29 30  2  0  0  0  0
 31 32  1  0  0  0  0
 33 32  1  1  0  0  0
 34 36  1  0  0  0  0
 34 42  1  0  0  0  0
 36 37  1  6  0  0  0
 36 39  1  0  0  0  0
 40 39  1  6  0  0  0
 40 41  1  0  0  0  0
 40 46  1  0  0  0  0
 41 42  1  6  0  0  0
 41 44  1  0  0  0  0
 42 43  2  0  0  0  0
 44 45  1  0  0  0  0
 46 45  1  1  0  0  0
M  CHG  2   3  -1  35  -1
M  END
>  <CHROM.1>
-160.82731221,50.19066081,157.10964490,43.60277360,143.96087943,-0.30841494
-0.15677395,1.01525833

>  <Name>
ligand

>  <RI>
0

>  <Rbt.Current_Directory>
/home/itssahil/PROJECTS/Mol_Feturizer/Test_systems_manuscript/rnas/4yb0

>  <Rbt.Executable>
rbdock ($Id: //depot/dev/client3/rdock/2013.1/src/exe/rbdock.cxx#4 $)

>  <Rbt.Library>
libRbt.so (2013.1, Build901 2013/11/27)

>  <Rbt.Parameter_File>
/export/apps/rDock/src/rDock_2013.1_src/data/scripts/dock_solv.prm

>  <Rbt.Receptor>
prm/pocket_docking_2.prm

>  <SCORE>
-46.4635

>  <SCORE.INTER>
-46.4185

>  <SCORE.INTER.CONST>
1

>  <SCORE.INTER.POLAR>
0

>  <SCORE.INTER.ROT>
2

>  <SCORE.INTER.SOLV>
40.377

>  <SCORE.INTER.VDW>
-49.338

>  <SCORE.INTER.norm>
-1.0091

>  <SCORE.INTRA>
-0.0465506

>  <SCORE.INTRA.DIHEDRAL>
0.0112841

>  <SCORE.INTRA.DIHEDRAL.0>
2.42188

>  <SCORE.INTRA.POLAR>
0

>  <SCORE.INTRA.POLAR.0>
0

>  <SCORE.INTRA.REPUL>
0

>  <SCORE.INTRA.REPUL.0>
0

>  <SCORE.INTRA.SOLV>
-0.00174535

>  <SCORE.INTRA.SOLV.lig_0>
-127.307

>  <SCORE.INTRA.VDW>
-0.05132

>  <SCORE.INTRA.VDW.0>
-2.19936

>  <SCORE.INTRA.norm>
-0.00101197

>  <SCORE.RESTR>
0.00159838

>  <SCORE.RESTR.CAVITY>
0.00159838

>  <SCORE.RESTR.norm>
3.47473e-05

>  <SCORE.SYSTEM>
0

>  <SCORE.SYSTEM.CONST>
0

>  <SCORE.SYSTEM.DIHEDRAL>
0

>  <SCORE.SYSTEM.SOLV>
0

>  <SCORE.SYSTEM.norm>
0

>  <SCORE.heavy>
46

>  <SCORE.norm>
-1.01008

>  <RMSD>
0.476

$$$$
ligand
 OpenBabel02271912143D
libRbt.so/2013.1/901 2013/11/27
 46 52  0  0  0  0  0  0  0  0999 V2000
  159.7025   46.2544  143.5267 P   0  0  1  0  0  0  0  0  0  0  0  0
  158.0415   42.2364  147.2047 P   0  0  1  0  0  0  0  0  0  0  0  0
  159.2561   46.0492  142.1020 O   0  5  0  0  0  0  0  0  0  0  0  0
  160.3492   47.5831  143.8523 O   0  0  0  0  0  0  0  0  0  0  0  0
  158.1832   46.7718  145.6298 C   0  0  0  0  0  0  0  0  0  0  0  0
  158.4529   45.9598  144.4945 O   0  0  0  0  0  0  0  0  0  0  0  0
  157.2191   46.0576  146.5627 C   0  0  1  0  0  0  0  0  0  0  0  0
  155.9330   46.6364  146.3926 O   0  0  0  0  0  0  0  0  0  0  0  0
  157.0496   44.5636  146.3180 C   0  0  1  0  0  0  0  0  0  0  0  0
  157.7667   43.8336  147.3026 O   0  0  0  0  0  0  0  0  0  0  0  0
  155.5724   44.3345  146.5467 C   0  0  1  0  0  0  0  0  0  0  0  0
  155.3425   44.0234  147.9224 O   0  0  0  0  0  0  0  0  0  0  0  0
  154.9119   45.6565  146.2832 C   0  0  2  0  0  0  0  0  0  0  0  0
  160.7243   41.6716  142.5277 C   0  0  1  0  0  0  0  0  0  0  0  0
  150.9540   44.3376  143.0985 N   0  0  0  0  0  0  0  0  0  0  0  0
  151.1087   44.1323  144.4202 C   0  0  1  0  0  0  0  0  0  0  0  0
  160.5126   43.1609  142.3527 C   0  0  2  0  0  0  0  0  0  0  0  0
  150.1334   43.4936  145.1043 N   0  0  0  0  0  0  0  0  0  0  0  0
  161.7255   43.7079  141.8279 O   0  0  0  0  0  0  0  0  0  0  0  0
  160.2381   43.6949  143.7461 C   0  0  2  0  0  0  0  0  0  0  0  0
  152.1986   44.5295  145.1154 N   0  0  0  0  0  0  0  0  0  0  0  0
  160.6960   45.0385  143.8924 O   0  0  0  0  0  0  0  0  0  0  0  0
  153.2169   45.1705  144.5029 C   0  0  2  0  0  0  0  0  0  0  0  0
  161.0153   42.7191  144.6268 C   0  0  2  0  0  0  0  0  0  0  0  0
  161.1445   41.5047  143.8844 O   0  0  0  0  0  0  0  0  0  0  0  0
  153.1166   45.4264  143.0626 C   0  0  2  0  0  0  0  0  0  0  0  0
  160.3730   42.4171  145.9843 C   0  0  0  0  0  0  0  0  0  0  0  0
  158.9789   42.1263  145.8938 O   0  0  0  0  0  0  0  0  0  0  0  0
  151.8929   44.9625  142.3674 C   0  0  0  0  0  0  0  0  0  0  0  0
  151.7526   45.1573  141.1360 O   0  0  0  0  0  0  0  0  0  0  0  0
  154.2503   46.0619  142.7165 N   0  0  0  0  0  0  0  0  0  0  0  0
  155.0084   46.2040  143.8302 C   0  0  0  0  0  0  0  0  0  0  0  0
  154.3877   45.6710  144.8969 N   0  0  1  0  0  0  0  0  0  0  0  0
  156.4249   41.0652  139.5638 N   0  0  0  0  0  0  0  0  0  0  0  0
  158.8530   41.8739  148.4343 O   0  5  0  0  0  0  0  0  0  0  0  0
  157.4818   41.8740  139.3915 C   0  0  2  0  0  0  0  0  0  0  0  0
  157.4837   42.6657  138.3087 N   0  0  0  0  0  0  0  0  0  0  0  0
  156.7450   41.5286  146.8944 O   0  0  0  0  0  0  0  0  0  0  0  0
  158.5323   41.9256  140.2435 N   0  0  0  0  0  0  0  0  0  0  0  0
  158.5678   41.1403  141.3404 C   0  0  1  0  0  0  0  0  0  0  0  0
  157.4333   40.2279  141.5874 C   0  0  1  0  0  0  0  0  0  0  0  0
  156.3262   40.2277  140.5975 C   0  0  0  0  0  0  0  0  0  0  0  0
  155.3196   39.4970  140.7193 O   0  0  0  0  0  0  0  0  0  0  0  0
  157.7180   39.5679  142.7213 N   0  0  0  0  0  0  0  0  0  0  0  0
  158.9239   40.0250  143.1596 C   0  0  0  0  0  0  0  0  0  0  0  0
  159.4354   40.9615  142.3363 N   0  0  2  0  0  0  0  0  0  0  0  0
  1  3  1  6  0  0  0
  1  4  2  0  0  0  0
  1  6  1  0  0  0  0
  1 22  1  0  0  0  0
  2 28  1  0  0  0  0
  2 35  1  1  0  0  0
  2 38  2  0  0  0  0
  2 10  1  0  0  0  0
  5  6  1  0  0  0  0
  7  5  1  6  0  0  0
  7  8  1  0  0  0  0
  7  9  1  0  0  0  0
  9 10  1  1  0  0  0
  9 11  1  0  0  0  0
 11 12  1  1  0  0  0
 11 13  1  0  0  0  0
 13  8  1  6  0  0  0
 13 33  1  0  0  0  0
 14 46  1  0  0  0  0
 14 17  1  0  0  0  0
 14 25  1  1  0  0  0
 15 16  1  0  0  0  0
 15 29  1  0  0  0  0
 16 18  1  6  0  0  0
 16 21  1  0  0  0  0
 17 19  1  1  0  0  0
 17 20  1  0  0  0  0
 20 22  1  6  0  0  0
 20 24  1  0  0  0  0
 23 21  1  6  0  0  0
 23 26  1  0  0  0  0
 23 33  1  0  0  0  0
 24 25  1  6  0  0  0
 24 27  1  0  0  0  0
 26 29  1  6  0  0  0
 26 31  1  0  0  0  0
 27 28  1  0  0  0  0
 29 30  2  0  0  0  0
 31 32  1  0  0  0  0
 33 32  1  1  0  0  0
 34 36  1  0  0  0  0
 34 42  1  0  0  0  0
 36 37  1  6  0  0  0
 36 39  1  0  0  0  0
 40 39  1  6  0  0  0
 40 41  1  0  0  0  0
 40 46  1  0  0  0  0
 41 42  1  6  0  0  0
 41 44  1  0  0  0  0
 42 43  2  0  0  0  0
 44 45  1  0  0  0  0
 46 45  1  1  0  0  0
M  CHG  2   3  -1  35  -1
M  END
>  <CHROM.1>
-160.94977917,47.65773443,157.13733241,43.62079252,143.93254882,-0.27706285
-0.17552795,1.03156740

>  <Name>
ligand

>  <RI>
0

>  <Rbt.Current_Directory>
/home/itssahil/PROJECTS/Mol_Feturizer/Test_systems_manuscript/rnas/4yb0

>  <Rbt.Executable>
rbdock ($Id: //depot/dev/client3/rdock/2013.1/src/exe/rbdock.cxx#4 $)

>  <Rbt.Library>
libRbt.so (2013.1, Build901 2013/11/27)

>  <Rbt.Parameter_File>
/export/apps/rDock/src/rDock_2013.1_src/data/scripts/dock_solv.prm

>  <Rbt.Receptor>
prm/pocket_docking_4.prm

>  <SCORE>
-46.8548

>  <SCORE.INTER>
-46.8241

>  <SCORE.INTER.CONST>
1

>  <SCORE.INTER.POLAR>
0

>  <SCORE.INTER.ROT>
2

>  <SCORE.INTER.SOLV>
39.5993

>  <SCORE.INTER.VDW>
-49.3492

>  <SCORE.INTER.norm>
-1.01791

>  <SCORE.INTRA>
-0.0307133

>  <SCORE.INTRA.DIHEDRAL>
0.0145892

>  <SCORE.INTRA.DIHEDRAL.0>
2.42188

>  <SCORE.INTRA.POLAR>
0

>  <SCORE.INTRA.POLAR.0>
0

>  <SCORE.INTRA.REPUL>
0

>  <SCORE.INTRA.REPUL.0>
0

>  <SCORE.INTRA.SOLV>
-0.000392716

>  <SCORE.INTRA.SOLV.lig_0>
-127.307

>  <SCORE.INTRA.VDW>
-0.0378115

>  <SCORE.INTRA.VDW.0>
-2.19936

>  <SCORE.INTRA.norm>
-0.000667679

>  <SCORE.RESTR>
0

>  <SCORE.RESTR.CAVITY>
0

>  <SCORE.RESTR.norm>
0

>  <SCORE.SYSTEM>
0

>  <SCORE.SYSTEM.CONST>
0

>  <SCORE.SYSTEM.DIHEDRAL>
0

>  <SCORE.SYSTEM.SOLV>
0

>  <SCORE.SYSTEM.norm>
0

>  <SCORE.heavy>
46

>  <SCORE.norm>
-1.01858

>  <RMSD>
0.476

$$$$
ligand
 OpenBabel02271912143D
libRbt.so/2013.1/901 2013/11/27
 46 52  0  0  0  0  0  0  0  0999 V2000
  159.7045   46.1830  143.5581 P   0  0  1  0  0  0  0  0  0  0  0  0
  157.9490   42.2133  147.2446 P   0  0  1  0  0  0  0  0  0  0  0  0
  159.2747   45.9716  142.1292 O   0  5  0  0  0  0  0  0  0  0  0  0
  160.3620   47.5067  143.8820 O   0  0  0  0  0  0  0  0  0  0  0  0
  158.1635   46.7342  145.6367 C   0  0  0  0  0  0  0  0  0  0  0  0
  158.4388   45.9103  144.5114 O   0  0  0  0  0  0  0  0  0  0  0  0
  157.1790   46.0384  146.5621 C   0  0  1  0  0  0  0  0  0  0  0  0
  155.9020   46.6303  146.3705 O   0  0  0  0  0  0  0  0  0  0  0  0
  156.9956   44.5445  146.3268 C   0  0  1  0  0  0  0  0  0  0  0  0
  157.6913   43.8142  147.3265 O   0  0  0  0  0  0  0  0  0  0  0  0
  155.5130   44.3340  146.5376 C   0  0  1  0  0  0  0  0  0  0  0  0
  155.2614   44.0364  147.9125 O   0  0  0  0  0  0  0  0  0  0  0  0
  154.8713   45.6613  146.2551 C   0  0  2  0  0  0  0  0  0  0  0  0
  160.6869   41.5811  142.6083 C   0  0  1  0  0  0  0  0  0  0  0  0
  150.9654   44.3127  143.0191 N   0  0  0  0  0  0  0  0  0  0  0  0
  151.1036   44.1099  144.3430 C   0  0  1  0  0  0  0  0  0  0  0  0
  160.4945   43.0713  142.4189 C   0  0  2  0  0  0  0  0  0  0  0  0
  150.1234   43.4655  145.0147 N   0  0  0  0  0  0  0  0  0  0  0  0
  161.7204   43.6004  141.9061 O   0  0  0  0  0  0  0  0  0  0  0  0
  160.2078   43.6194  143.8044 C   0  0  2  0  0  0  0  0  0  0  0  0
  152.1814   44.5151  145.0523 N   0  0  0  0  0  0  0  0  0  0  0  0
  160.6791   44.9588  143.9464 O   0  0  0  0  0  0  0  0  0  0  0  0
  153.2036   45.1621  144.4528 C   0  0  2  0  0  0  0  0  0  0  0  0
  160.9620   42.6418  144.7029 C   0  0  2  0  0  0  0  0  0  0  0  0
  161.0871   41.4202  143.9717 O   0  0  0  0  0  0  0  0  0  0  0  0
  153.1210   45.4158  143.0110 C   0  0  2  0  0  0  0  0  0  0  0  0
  160.2984   42.3578  146.0541 C   0  0  0  0  0  0  0  0  0  0  0  0
  158.9024   42.0821  145.9472 O   0  0  0  0  0  0  0  0  0  0  0  0
  151.9098   44.9431  142.3000 C   0  0  0  0  0  0  0  0  0  0  0  0
  151.7848   45.1356  141.0666 O   0  0  0  0  0  0  0  0  0  0  0  0
  154.2550   46.0584  142.6794 N   0  0  0  0  0  0  0  0  0  0  0  0
  154.9972   46.2067  143.8029 C   0  0  0  0  0  0  0  0  0  0  0  0
  154.3657   45.6708  144.8619 N   0  0  1  0  0  0  0  0  0  0  0  0
  156.4358   40.9765  139.5750 N   0  0  0  0  0  0  0  0  0  0  0  0
  158.7400   41.8513  148.4877 O   0  5  0  0  0  0  0  0  0  0  0  0
  157.5062   41.7685  139.4084 C   0  0  2  0  0  0  0  0  0  0  0  0
  157.5387   42.5405  138.3120 N   0  0  0  0  0  0  0  0  0  0  0  0
  156.6487   41.5178  146.9226 O   0  0  0  0  0  0  0  0  0  0  0  0
  158.5413   41.8220  140.2791 N   0  0  0  0  0  0  0  0  0  0  0  0
  158.5461   41.0561  141.3902 C   0  0  1  0  0  0  0  0  0  0  0  0
  157.3953   40.1629  141.6319 C   0  0  1  0  0  0  0  0  0  0  0  0
  156.3069   40.1591  140.6214 C   0  0  0  0  0  0  0  0  0  0  0  0
  155.2888   39.4435  140.7371 O   0  0  0  0  0  0  0  0  0  0  0  0
  157.6502   39.5198  142.7824 N   0  0  0  0  0  0  0  0  0  0  0  0
  158.8536   39.9693  143.2353 C   0  0  0  0  0  0  0  0  0  0  0  0
  159.3925   40.8842  142.4052 N   0  0  2  0  0  0  0  0  0  0  0  0
  1  3  1  6  0  0  0
  1  4  2  0  0  0  0
  1  6  1  0  0  0  0
  1 22  1  0  0  0  0
  2 28  1  0  0  0  0
  2 35  1  1  0  0  0
  2 38  2  0  0  0  0
  2 10  1  0  0  0  0
  5  6  1  0  0  0  0
  7  5  1  6  0  0  0
  7  8  1  0  0  0  0
  7  9  1  0  0  0  0
  9 10  1  1  0  0  0
  9 11  1  0  0  0  0
 11 12  1  1  0  0  0
 11 13  1  0  0  0  0
 13  8  1  6  0  0  0
 13 33  1  0  0  0  0
 14 46  1  0  0  0  0
 14 17  1  0  0  0  0
 14 25  1  1  0  0  0
 15 16  1  0  0  0  0
 15 29  1  0  0  0  0
 16 18  1  6  0  0  0
 16 21  1  0  0  0  0
 17 19  1  1  0  0  0
 17 20  1  0  0  0  0
 20 22  1  6  0  0  0
 20 24  1  0  0  0  0
 23 21  1  6  0  0  0
 23 26  1  0  0  0  0
 23 33  1  0  0  0  0
 24 25  1  6  0  0  0
 24 27  1  0  0  0  0
 26 29  1  6  0  0  0
 26 31  1  0  0  0  0
 27 28  1  0  0  0  0
 29 30  2  0  0  0  0
 31 32  1  0  0  0  0
 33 32  1  1  0  0  0
 34 36  1  0  0  0  0
 34 42  1  0  0  0  0
 36 37  1  6  0  0  0
 36 39  1  0  0  0  0
 40 39  1  6  0  0  0
 40 41  1  0  0  0  0
 40 46  1  0  0  0  0
 41 42  1  6  0  0  0
 41 44  1  0  0  0  0
 42 43  2  0  0  0  0
 44 45  1  0  0  0  0
 46 45  1  1  0  0  0
M  CHG  2   3  -1  35  -1
M  END
>  <CHROM.1>
-162.05051319,48.31912943,157.10848244,43.57397250,143.94725443,-0.27384595
-0.18808299,1.02247953

>  <Name>
ligand

>  <RI>
0

>  <Rbt.Current_Directory>
/home/itssahil/PROJECTS/Mol_Feturizer/Test_systems_manuscript/rnas/4yb0

>  <Rbt.Executable>
rbdock ($Id: //depot/dev/client3/rdock/2013.1/src/exe/rbdock.cxx#4 $)

>  <Rbt.Library>
libRbt.so (2013.1, Build901 2013/11/27)

>  <Rbt.Parameter_File>
/export/apps/rDock/src/rDock_2013.1_src/data/scripts/dock_solv.prm

>  <Rbt.Receptor>
prm/pocket_docking_3.prm

>  <SCORE>
-46.7936

>  <SCORE.INTER>
-46.7621

>  <SCORE.INTER.CONST>
1

>  <SCORE.INTER.POLAR>
0

>  <SCORE.INTER.ROT>
2

>  <SCORE.INTER.SOLV>
39.4591

>  <SCORE.INTER.VDW>
-49.2611

>  <SCORE.INTER.norm>
-1.01657

>  <SCORE.INTRA>
-0.0314895

>  <SCORE.INTRA.DIHEDRAL>
0.0129637

>  <SCORE.INTRA.DIHEDRAL.0>
2.42188

>  <SCORE.INTRA.POLAR>
0

>  <SCORE.INTRA.POLAR.0>
0

>  <SCORE.INTRA.REPUL>
0

>  <SCORE.INTRA.REPUL.0>
0

>  <SCORE.INTRA.SOLV>
-0.000335935

>  <SCORE.INTRA.SOLV.lig_0>
-127.307

>  <SCORE.INTRA.VDW>
-0.0378034

>  <SCORE.INTRA.VDW.0>
-2.19936

>  <SCORE.INTRA.norm>
-0.000684555

>  <SCORE.RESTR>
0

>  <SCORE.RESTR.CAVITY>
0

>  <SCORE.RESTR.norm>
0

>  <SCORE.SYSTEM>
0

>  <SCORE.SYSTEM.CONST>
0

>  <SCORE.SYSTEM.DIHEDRAL>
0

>  <SCORE.SYSTEM.SOLV>
0

>  <SCORE.SYSTEM.norm>
0

>  <SCORE.heavy>
46

>  <SCORE.norm>
-1.01725

>  <RMSD>
0.516

$$$$
ligand
 OpenBabel02271912143D
libRbt.so/2013.1/901 2013/11/27
 46 52  0  0  0  0  0  0  0  0999 V2000
  159.7155   46.2038  143.5678 P   0  0  1  0  0  0  0  0  0  0  0  0
  157.9145   42.2198  147.2168 P   0  0  1  0  0  0  0  0  0  0  0  0
  159.2890   46.0072  142.1358 O   0  5  0  0  0  0  0  0  0  0  0  0
  160.3827   47.5195  143.9045 O   0  0  0  0  0  0  0  0  0  0  0  0
  158.1718   46.7513  145.6454 C   0  0  0  0  0  0  0  0  0  0  0  0
  158.4443   45.9340  144.5146 O   0  0  0  0  0  0  0  0  0  0  0  0
  157.1784   46.0563  146.5619 C   0  0  1  0  0  0  0  0  0  0  0  0
  155.9069   46.6603  146.3706 O   0  0  0  0  0  0  0  0  0  0  0  0
  156.9835   44.5659  146.3141 C   0  0  1  0  0  0  0  0  0  0  0  0
  157.6696   43.8221  147.3104 O   0  0  0  0  0  0  0  0  0  0  0  0
  155.4985   44.3660  146.5182 C   0  0  1  0  0  0  0  0  0  0  0  0
  155.2396   44.0596  147.8897 O   0  0  0  0  0  0  0  0  0  0  0  0
  154.8687   45.7007  146.2439 C   0  0  2  0  0  0  0  0  0  0  0  0
  160.6633   41.6016  142.5850 C   0  0  1  0  0  0  0  0  0  0  0  0
  150.9888   44.3593  142.9738 N   0  0  0  0  0  0  0  0  0  0  0  0
  151.1244   44.1387  144.2951 C   0  0  1  0  0  0  0  0  0  0  0  0
  160.4839   43.0948  142.4068 C   0  0  2  0  0  0  0  0  0  0  0  0
  150.1485   43.4744  144.9536 N   0  0  0  0  0  0  0  0  0  0  0  0
  161.7159   43.6178  141.9025 O   0  0  0  0  0  0  0  0  0  0  0  0
  160.1968   43.6343  143.7956 C   0  0  2  0  0  0  0  0  0  0  0  0
  152.1953   44.5445  145.0143 N   0  0  0  0  0  0  0  0  0  0  0  0
  160.6786   44.9686  143.9498 O   0  0  0  0  0  0  0  0  0  0  0  0
  153.2129   45.2108  144.4282 C   0  0  2  0  0  0  0  0  0  0  0  0
  160.9398   42.6435  144.6889 C   0  0  2  0  0  0  0  0  0  0  0  0
  161.0574   41.4266  143.9486 O   0  0  0  0  0  0  0  0  0  0  0  0
  153.1329   45.4846  142.9900 C   0  0  2  0  0  0  0  0  0  0  0  0
  160.2691   42.3543  146.0355 C   0  0  0  0  0  0  0  0  0  0  0  0
  158.8713   42.0910  145.9216 O   0  0  0  0  0  0  0  0  0  0  0  0
  151.9293   45.0099  142.2675 C   0  0  0  0  0  0  0  0  0  0  0  0
  151.8068   45.2191  141.0366 O   0  0  0  0  0  0  0  0  0  0  0  0
  154.2613   46.1437  142.6721 N   0  0  0  0  0  0  0  0  0  0  0  0
  154.9978   46.2833  143.8005 C   0  0  0  0  0  0  0  0  0  0  0  0
  154.3681   45.7254  144.8491 N   0  0  1  0  0  0  0  0  0  0  0  0
  156.4194   41.0541  139.5310 N   0  0  0  0  0  0  0  0  0  0  0  0
  158.6981   41.8415  148.4596 O   0  5  0  0  0  0  0  0  0  0  0  0
  157.4971   41.8382  139.3742 C   0  0  2  0  0  0  0  0  0  0  0  0
  157.5404   42.6176  138.2833 N   0  0  0  0  0  0  0  0  0  0  0  0
  156.6096   41.5376  146.8847 O   0  0  0  0  0  0  0  0  0  0  0  0
  158.5292   41.8769  140.2492 N   0  0  0  0  0  0  0  0  0  0  0  0
  158.5231   41.1032  141.3549 C   0  0  1  0  0  0  0  0  0  0  0  0
  157.3639   40.2180  141.5858 C   0  0  1  0  0  0  0  0  0  0  0  0
  156.2796   40.2304  140.5710 C   0  0  0  0  0  0  0  0  0  0  0  0
  155.2550   39.5226  140.6777 O   0  0  0  0  0  0  0  0  0  0  0  0
  157.6089   39.5647  142.7327 N   0  0  0  0  0  0  0  0  0  0  0  0
  158.8141   40.0009  143.1935 C   0  0  0  0  0  0  0  0  0  0  0  0
  159.3640   40.9170  142.3720 N   0  0  2  0  0  0  0  0  0  0  0  0
  1  3  1  6  0  0  0
  1  4  2  0  0  0  0
  1  6  1  0  0  0  0
  1 22  1  0  0  0  0
  2 28  1  0  0  0  0
  2 35  1  1  0  0  0
  2 38  2  0  0  0  0
  2 10  1  0  0  0  0
  5  6  1  0  0  0  0
  7  5  1  6  0  0  0
  7  8  1  0  0  0  0
  7  9  1  0  0  0  0
  9 10  1  1  0  0  0
  9 11  1  0  0  0  0
 11 12  1  1  0  0  0
 11 13  1  0  0  0  0
 13  8  1  6  0  0  0
 13 33  1  0  0  0  0
 14 46  1  0  0  0  0
 14 17  1  0  0  0  0
 14 25  1  1  0  0  0
 15 16  1  0  0  0  0
 15 29  1  0  0  0  0
 16 18  1  6  0  0  0
 16 21  1  0  0  0  0
 17 19  1  1  0  0  0
 17 20  1  0  0  0  0
 20 22  1  6  0  0  0
 20 24  1  0  0  0  0
 23 21  1  6  0  0  0
 23 26  1  0  0  0  0
 23 33  1  0  0  0  0
 24 25  1  6  0  0  0
 24 27  1  0  0  0  0
 26 29  1  6  0  0  0
 26 31  1  0  0  0  0
 27 28  1  0  0  0  0
 29 30  2  0  0  0  0
 31 32  1  0  0  0  0
 33 32  1  1  0  0  0
 34 36  1  0  0  0  0
 34 42  1  0  0  0  0
 36 37  1  6  0  0  0
 36 39  1  0  0  0  0
 40 39  1  6  0  0  0
 40 41  1  0  0  0  0
 40 46  1  0  0  0  0
 41 42  1  6  0  0  0
 41 44  1  0  0  0  0
 42 43  2  0  0  0  0
 44 45  1  0  0  0  0
 46 45  1  1  0  0  0
M  CHG  2   3  -1  35  -1
M  END
>  <CHROM.1>
-163.18374440,48.37505036,157.09968169,43.60756293,143.92611881,-0.27229950
-0.19322386,1.02855975

>  <Name>
ligand

>  <RI>
0

>  <Rbt.Current_Directory>
/home/itssahil/PROJECTS/Mol_Feturizer/Test_systems_manuscript/rnas/4yb0

>  <Rbt.Executable>
rbdock ($Id: //depot/dev/client3/rdock/2013.1/src/exe/rbdock.cxx#4 $)

>  <Rbt.Library>
libRbt.so (2013.1, Build901 2013/11/27)

>  <Rbt.Parameter_File>
/export/apps/rDock/src/rDock_2013.1_src/data/scripts/dock_solv.prm

>  <Rbt.Receptor>
prm/pocket_docking_3.prm

>  <SCORE>
-46.8328

>  <SCORE.INTER>
-46.8087

>  <SCORE.INTER.CONST>
1

>  <SCORE.INTER.POLAR>
0

>  <SCORE.INTER.ROT>
2

>  <SCORE.INTER.SOLV>
39.3126

>  <SCORE.INTER.VDW>
-49.2433

>  <SCORE.INTER.norm>
-1.01758

>  <SCORE.INTRA>
-0.0241388

>  <SCORE.INTRA.DIHEDRAL>
0.012036

>  <SCORE.INTRA.DIHEDRAL.0>
2.42188

>  <SCORE.INTRA.POLAR>
0

>  <SCORE.INTRA.POLAR.0>
0

>  <SCORE.INTRA.REPUL>
0

>  <SCORE.INTRA.REPUL.0>
0

>  <SCORE.INTRA.SOLV>
5.04987e-05

>  <SCORE.INTRA.SOLV.lig_0>
-127.307

>  <SCORE.INTRA.VDW>
-0.030182

>  <SCORE.INTRA.VDW.0>
-2.19936

>  <SCORE.INTRA.norm>
-0.000524756

>  <SCORE.RESTR>
0

>  <SCORE.RESTR.CAVITY>
0

>  <SCORE.RESTR.norm>
0

>  <SCORE.SYSTEM>
0

>  <SCORE.SYSTEM.CONST>
0

>  <SCORE.SYSTEM.DIHEDRAL>
0

>  <SCORE.SYSTEM.SOLV>
0

>  <SCORE.SYSTEM.norm>
0

>  <SCORE.heavy>
46

>  <SCORE.norm>
-1.0181

>  <RMSD>
0.523

$$$$
ligand
 OpenBabel02271912143D
libRbt.so/2013.1/901 2013/11/27
 46 52  0  0  0  0  0  0  0  0999 V2000
  159.7077   46.1900  143.6078 P   0  0  1  0  0  0  0  0  0  0  0  0
  157.8927   42.1731  147.2135 P   0  0  1  0  0  0  0  0  0  0  0  0
  159.2843   46.0079  142.1730 O   0  5  0  0  0  0  0  0  0  0  0  0
  160.3758   47.5014  143.9588 O   0  0  0  0  0  0  0  0  0  0  0  0
  158.1597   46.7193  145.6870 C   0  0  0  0  0  0  0  0  0  0  0  0
  158.4339   45.9127  144.5489 O   0  0  0  0  0  0  0  0  0  0  0  0
  157.1633   46.0168  146.5943 C   0  0  1  0  0  0  0  0  0  0  0  0
  155.8931   46.6243  146.4058 O   0  0  0  0  0  0  0  0  0  0  0  0
  156.9671   44.5291  146.3315 C   0  0  1  0  0  0  0  0  0  0  0  0
  157.6498   43.7747  147.3221 O   0  0  0  0  0  0  0  0  0  0  0  0
  155.4813   44.3292  146.5301 C   0  0  1  0  0  0  0  0  0  0  0  0
  155.2187   44.0099  147.8980 O   0  0  0  0  0  0  0  0  0  0  0  0
  154.8539   45.6674  146.2674 C   0  0  2  0  0  0  0  0  0  0  0  0
  160.6518   41.5963  142.5826 C   0  0  1  0  0  0  0  0  0  0  0  0
  150.9820   44.3593  142.9744 N   0  0  0  0  0  0  0  0  0  0  0  0
  151.1143   44.1252  144.2937 C   0  0  1  0  0  0  0  0  0  0  0  0
  160.4748   43.0914  142.4184 C   0  0  2  0  0  0  0  0  0  0  0  0
  150.1369   43.4542  144.9431 N   0  0  0  0  0  0  0  0  0  0  0  0
  161.7087   43.6176  141.9221 O   0  0  0  0  0  0  0  0  0  0  0  0
  160.1851   43.6178  143.8117 C   0  0  2  0  0  0  0  0  0  0  0  0
  152.1835   44.5237  145.0196 N   0  0  0  0  0  0  0  0  0  0  0  0
  160.6683   44.9498  143.9800 O   0  0  0  0  0  0  0  0  0  0  0  0
  153.2024   45.1959  144.4427 C   0  0  2  0  0  0  0  0  0  0  0  0
  160.9247   42.6173  144.6971 C   0  0  2  0  0  0  0  0  0  0  0  0
  161.0425   41.4075  143.9452 O   0  0  0  0  0  0  0  0  0  0  0  0
  153.1259   45.4845  143.0072 C   0  0  2  0  0  0  0  0  0  0  0  0
  160.2504   42.3160  146.0392 C   0  0  0  0  0  0  0  0  0  0  0  0
  158.8525   42.0556  145.9195 O   0  0  0  0  0  0  0  0  0  0  0  0
  151.9241   45.0171  142.2771 C   0  0  0  0  0  0  0  0  0  0  0  0
  151.8045   45.2389  141.0481 O   0  0  0  0  0  0  0  0  0  0  0  0
  154.2551   46.1468  142.6988 N   0  0  0  0  0  0  0  0  0  0  0  0
  154.9889   46.2748  143.8303 C   0  0  0  0  0  0  0  0  0  0  0  0
  154.3566   45.7063  144.8717 N   0  0  1  0  0  0  0  0  0  0  0  0
  156.4188   41.0775  139.5085 N   0  0  0  0  0  0  0  0  0  0  0  0
  158.6729   41.7817  148.4545 O   0  5  0  0  0  0  0  0  0  0  0  0
  157.4984   41.8608  139.3613 C   0  0  2  0  0  0  0  0  0  0  0  0
  157.5473   42.6476  138.2760 N   0  0  0  0  0  0  0  0  0  0  0  0
  156.5878   41.4959  146.8718 O   0  0  0  0  0  0  0  0  0  0  0  0
  158.5272   41.8916  140.2405 N   0  0  0  0  0  0  0  0  0  0  0  0
  158.5155   41.1102  141.3408 C   0  0  1  0  0  0  0  0  0  0  0  0
  157.3539   40.2255  141.5611 C   0  0  1  0  0  0  0  0  0  0  0  0
  156.2735   40.2469  140.5422 C   0  0  0  0  0  0  0  0  0  0  0  0
  155.2472   39.5403  140.6401 O   0  0  0  0  0  0  0  0  0  0  0  0
  157.5932   39.5639  142.7044 N   0  0  0  0  0  0  0  0  0  0  0  0
  158.7975   39.9948  143.1728 C   0  0  0  0  0  0  0  0  0  0  0  0
  159.3522   40.9156  142.3598 N   0  0  2  0  0  0  0  0  0  0  0  0
  1  3  1  6  0  0  0
  1  4  2  0  0  0  0
  1  6  1  0  0  0  0
  1 22  1  0  0  0  0
  2 28  1  0  0  0  0
  2 35  1  1  0  0  0
  2 38  2  0  0  0  0
  2 10  1  0  0  0  0
  5  6  1  0  0  0  0
  7  5  1  6  0  0  0
  7  8  1  0  0  0  0
  7  9  1  0  0  0  0
  9 10  1  1  0  0  0
  9 11  1  0  0  0  0
 11 12  1  1  0  0  0
 11 13  1  0  0  0  0
 13  8  1  6  0  0  0
 13 33  1  0  0  0  0
 14 46  1  0  0  0  0
 14 17  1  0  0  0  0
 14 25  1  1  0  0  0
 15 16  1  0  0  0  0
 15 29  1  0  0  0  0
 16 18  1  6  0  0  0
 16 21  1  0  0  0  0
 17 19  1  1  0  0  0
 17 20  1  0  0  0  0
 20 22  1  6  0  0  0
 20 24  1  0  0  0  0
 23 21  1  6  0  0  0
 23 26  1  0  0  0  0
 23 33  1  0  0  0  0
 24 25  1  6  0  0  0
 24 27  1  0  0  0  0
 26 29  1  6  0  0  0
 26 31  1  0  0  0  0
 27 28  1  0  0  0  0
 29 30  2  0  0  0  0
 31 32  1  0  0  0  0
 33 32  1  1  0  0  0
 34 36  1  0  0  0  0
 34 42  1  0  0  0  0
 36 37  1  6  0  0  0
 36 39  1  0  0  0  0
 40 39  1  6  0  0  0
 40 41  1  0  0  0  0
 40 46  1  0  0  0  0
 41 42  1  6  0  0  0
 41 44  1  0  0  0  0
 42 43  2  0  0  0  0
 44 45  1  0  0  0  0
 46 45  1  1  0  0  0
M  CHG  2   3  -1  35  -1
M  END
>  <CHROM.1>
-163.26678726,48.55874840,157.08830557,43.59275496,143.93401777,-0.27229704
-0.19519528,1.03819205

>  <Name>
ligand

>  <RI>
0

>  <Rbt.Current_Directory>
/home/itssahil/PROJECTS/Mol_Feturizer/Test_systems_manuscript/rnas/4yb0

>  <Rbt.Executable>
rbdock ($Id: //depot/dev/client3/rdock/2013.1/src/exe/rbdock.cxx#4 $)

>  <Rbt.Library>
libRbt.so (2013.1, Build901 2013/11/27)

>  <Rbt.Parameter_File>
/export/apps/rDock/src/rDock_2013.1_src/data/scripts/dock_solv.prm

>  <Rbt.Receptor>
prm/pocket_docking_4.prm

>  <SCORE>
-46.8668

>  <SCORE.INTER>
-46.8585

>  <SCORE.INTER.CONST>
1

>  <SCORE.INTER.POLAR>
0

>  <SCORE.INTER.ROT>
2

>  <SCORE.INTER.SOLV>
39.3998

>  <SCORE.INTER.VDW>
-49.3056

>  <SCORE.INTER.norm>
-1.01866

>  <SCORE.INTRA>
-0.00833636

>  <SCORE.INTRA.DIHEDRAL>
0.0117289

>  <SCORE.INTRA.DIHEDRAL.0>
2.42188

>  <SCORE.INTRA.POLAR>
0

>  <SCORE.INTRA.POLAR.0>
0

>  <SCORE.INTRA.REPUL>
0

>  <SCORE.INTRA.REPUL.0>
0

>  <SCORE.INTRA.SOLV>
-1.37788e-05

>  <SCORE.INTRA.SOLV.lig_0>
-127.307

>  <SCORE.INTRA.VDW>
-0.0141939

>  <SCORE.INTRA.VDW.0>
-2.19936

>  <SCORE.INTRA.norm>
-0.000181225

>  <SCORE.RESTR>
0

>  <SCORE.RESTR.CAVITY>
0

>  <SCORE.RESTR.norm>
0

>  <SCORE.SYSTEM>
0

>  <SCORE.SYSTEM.CONST>
0

>  <SCORE.SYSTEM.DIHEDRAL>
0

>  <SCORE.SYSTEM.SOLV>
0

>  <SCORE.SYSTEM.norm>
0

>  <SCORE.heavy>
46

>  <SCORE.norm>
-1.01884

>  <RMSD>
0.525

$$$$
ligand
 OpenBabel02271912143D
libRbt.so/2013.1/901 2013/11/27
 46 52  0  0  0  0  0  0  0  0999 V2000
  159.6627   46.2655  143.5449 P   0  0  1  0  0  0  0  0  0  0  0  0
  157.9480   42.2540  147.2052 P   0  0  1  0  0  0  0  0  0  0  0  0
  159.2298   46.0625  142.1158 O   0  5  0  0  0  0  0  0  0  0  0  0
  160.3117   47.5914  143.8772 O   0  0  0  0  0  0  0  0  0  0  0  0
  158.1246   46.7890  145.6328 C   0  0  0  0  0  0  0  0  0  0  0  0
  158.4022   45.9761  144.5001 O   0  0  0  0  0  0  0  0  0  0  0  0
  157.1482   46.0787  146.5558 C   0  0  1  0  0  0  0  0  0  0  0  0
  155.8663   46.6629  146.3731 O   0  0  0  0  0  0  0  0  0  0  0  0
  156.9749   44.5854  146.3091 C   0  0  1  0  0  0  0  0  0  0  0  0
  157.6791   43.8523  147.3007 O   0  0  0  0  0  0  0  0  0  0  0  0
  155.4945   44.3625  146.5230 C   0  0  1  0  0  0  0  0  0  0  0  0
  155.2496   44.0522  147.8963 O   0  0  0  0  0  0  0  0  0  0  0  0
  154.8423   45.6874  146.2532 C   0  0  2  0  0  0  0  0  0  0  0  0
  160.6752   41.6787  142.5552 C   0  0  1  0  0  0  0  0  0  0  0  0
  150.9529   44.3030  143.0124 N   0  0  0  0  0  0  0  0  0  0  0  0
  151.0994   44.0865  144.3332 C   0  0  1  0  0  0  0  0  0  0  0  0
  160.4715   43.1689  142.3784 C   0  0  2  0  0  0  0  0  0  0  0  0
  150.1342   43.4148  144.9998 N   0  0  0  0  0  0  0  0  0  0  0  0
  161.6919   43.7109  141.8659 O   0  0  0  0  0  0  0  0  0  0  0  0
  160.1853   43.7038  143.7691 C   0  0  2  0  0  0  0  0  0  0  0  0
  152.1714   44.5038  145.0443 N   0  0  0  0  0  0  0  0  0  0  0  0
  160.6474   45.0454  143.9203 O   0  0  0  0  0  0  0  0  0  0  0  0
  153.1788   45.1781  144.4498 C   0  0  2  0  0  0  0  0  0  0  0  0
  160.9496   42.7246  144.6574 C   0  0  2  0  0  0  0  0  0  0  0  0
  161.0811   41.5097  143.9160 O   0  0  0  0  0  0  0  0  0  0  0  0
  153.0866   45.4480  143.0116 C   0  0  2  0  0  0  0  0  0  0  0  0
  160.2924   42.4250  146.0083 C   0  0  0  0  0  0  0  0  0  0  0  0
  158.8981   42.1401  145.9037 O   0  0  0  0  0  0  0  0  0  0  0  0
  151.8825   44.9606  142.2983 C   0  0  0  0  0  0  0  0  0  0  0  0
  151.7498   45.1660  141.0678 O   0  0  0  0  0  0  0  0  0  0  0  0
  154.2067   46.1167  142.6846 N   0  0  0  0  0  0  0  0  0  0  0  0
  154.9495   46.2656  143.8077 C   0  0  0  0  0  0  0  0  0  0  0  0
  154.3320   45.7043  144.8617 N   0  0  1  0  0  0  0  0  0  0  0  0
  156.4163   41.0712  139.5336 N   0  0  0  0  0  0  0  0  0  0  0  0
  158.7457   41.8878  148.4428 O   0  5  0  0  0  0  0  0  0  0  0  0
  157.4800   41.8728  139.3702 C   0  0  2  0  0  0  0  0  0  0  0  0
  157.5022   42.6554  138.2811 N   0  0  0  0  0  0  0  0  0  0  0  0
  156.6518   41.5517  146.8818 O   0  0  0  0  0  0  0  0  0  0  0  0
  158.5183   41.9257  140.2371 N   0  0  0  0  0  0  0  0  0  0  0  0
  158.5334   41.1493  141.3408 C   0  0  1  0  0  0  0  0  0  0  0  0
  157.3903   40.2452  141.5786 C   0  0  1  0  0  0  0  0  0  0  0  0
  156.2978   40.2428  140.5726 C   0  0  0  0  0  0  0  0  0  0  0  0
  155.2855   39.5186  140.6856 O   0  0  0  0  0  0  0  0  0  0  0  0
  157.6547   39.5931  142.7219 N   0  0  0  0  0  0  0  0  0  0  0  0
  158.8566   40.0472  143.1742 C   0  0  0  0  0  0  0  0  0  0  0  0
  159.3853   40.9740  142.3507 N   0  0  2  0  0  0  0  0  0  0  0  0
  1  3  1  6  0  0  0
  1  4  2  0  0  0  0
  1  6  1  0  0  0  0
  1 22  1  0  0  0  0
  2 28  1  0  0  0  0
  2 35  1  1  0  0  0
  2 38  2  0  0  0  0
  2 10  1  0  0  0  0
  5  6  1  0  0  0  0
  7  5  1  6  0  0  0
  7  8  1  0  0  0  0
  7  9  1  0  0  0  0
  9 10  1  1  0  0  0
  9 11  1  0  0  0  0
 11 12  1  1  0  0  0
 11 13  1  0  0  0  0
 13  8  1  6  0  0  0
 13 33  1  0  0  0  0
 14 46  1  0  0  0  0
 14 17  1  0  0  0  0
 14 25  1  1  0  0  0
 15 16  1  0  0  0  0
 15 29  1  0  0  0  0
 16 18  1  6  0  0  0
 16 21  1  0  0  0  0
 17 19  1  1  0  0  0
 17 20  1  0  0  0  0
 20 22  1  6  0  0  0
 20 24  1  0  0  0  0
 23 21  1  6  0  0  0
 23 26  1  0  0  0  0
 23 33  1  0  0  0  0
 24 25  1  6  0  0  0
 24 27  1  0  0  0  0
 26 29  1  6  0  0  0
 26 31  1  0  0  0  0
 27 28  1  0  0  0  0
 29 30  2  0  0  0  0
 31 32  1  0  0  0  0
 33 32  1  1  0  0  0
 34 36  1  0  0  0  0
 34 42  1  0  0  0  0
 36 37  1  6  0  0  0
 36 39  1  0  0  0  0
 40 39  1  6  0  0  0
 40 41  1  0  0  0  0
 40 46  1  0  0  0  0
 41 42  1  6  0  0  0
 41 44  1  0  0  0  0
 42 43  2  0  0  0  0
 44 45  1  0  0  0  0
 46 45  1  1  0  0  0
M  CHG  2   3  -1  35  -1
M  END
>  <CHROM.1>
-162.80033901,48.21497215,157.08853374,43.63155310,143.92111707,-0.26971581
-0.17783375,1.02978684

>  <Name>
ligand

>  <RI>
0

>  <Rbt.Current_Directory>
/home/itssahil/PROJECTS/Mol_Feturizer/Test_systems_manuscript/rnas/4yb0

>  <Rbt.Executable>
rbdock ($Id: //depot/dev/client3/rdock/2013.1/src/exe/rbdock.cxx#4 $)

>  <Rbt.Library>
libRbt.so (2013.1, Build901 2013/11/27)

>  <Rbt.Parameter_File>
/export/apps/rDock/src/rDock_2013.1_src/data/scripts/dock_solv.prm

>  <Rbt.Receptor>
prm/pocket_docking_6.prm

>  <SCORE>
-46.7938

>  <SCORE.INTER>
-46.7689

>  <SCORE.INTER.CONST>
1

>  <SCORE.INTER.POLAR>
0

>  <SCORE.INTER.ROT>
2

>  <SCORE.INTER.SOLV>
39.3875

>  <SCORE.INTER.VDW>
-49.2418

>  <SCORE.INTER.norm>
-1.01672

>  <SCORE.INTRA>
-0.0248603

>  <SCORE.INTRA.DIHEDRAL>
0.0125418

>  <SCORE.INTRA.DIHEDRAL.0>
2.42188

>  <SCORE.INTRA.POLAR>
0

>  <SCORE.INTRA.POLAR.0>
0

>  <SCORE.INTRA.REPUL>
0

>  <SCORE.INTRA.REPUL.0>
0

>  <SCORE.INTRA.SOLV>
-7.88105e-06

>  <SCORE.INTRA.SOLV.lig_0>
-127.307

>  <SCORE.INTRA.VDW>
-0.0311272

>  <SCORE.INTRA.VDW.0>
-2.19936

>  <SCORE.INTRA.norm>
-0.000540441

>  <SCORE.RESTR>
0

>  <SCORE.RESTR.CAVITY>
0

>  <SCORE.RESTR.norm>
0

>  <SCORE.SYSTEM>
0

>  <SCORE.SYSTEM.CONST>
0

>  <SCORE.SYSTEM.DIHEDRAL>
0

>  <SCORE.SYSTEM.SOLV>
0

>  <SCORE.SYSTEM.norm>
0

>  <SCORE.heavy>
46

>  <SCORE.norm>
-1.01726

>  <RMSD>
0.526

$$$$
ligand
 OpenBabel02271912143D
libRbt.so/2013.1/901 2013/11/27
 46 52  0  0  0  0  0  0  0  0999 V2000
  159.7063   46.1941  143.5965 P   0  0  1  0  0  0  0  0  0  0  0  0
  157.8867   42.1792  147.2022 P   0  0  1  0  0  0  0  0  0  0  0  0
  159.2834   46.0121  142.1615 O   0  5  0  0  0  0  0  0  0  0  0  0
  160.3753   47.5051  143.9476 O   0  0  0  0  0  0  0  0  0  0  0  0
  158.1578   46.7250  145.6749 C   0  0  0  0  0  0  0  0  0  0  0  0
  158.4319   45.9179  144.5371 O   0  0  0  0  0  0  0  0  0  0  0  0
  157.1604   46.0234  146.5819 C   0  0  1  0  0  0  0  0  0  0  0  0
  155.8908   46.6318  146.3928 O   0  0  0  0  0  0  0  0  0  0  0  0
  156.9632   44.5358  146.3194 C   0  0  1  0  0  0  0  0  0  0  0  0
  157.6450   43.7811  147.3104 O   0  0  0  0  0  0  0  0  0  0  0  0
  155.4772   44.3371  146.5174 C   0  0  1  0  0  0  0  0  0  0  0  0
  155.2138   44.0182  147.8852 O   0  0  0  0  0  0  0  0  0  0  0  0
  154.8509   45.6757  146.2541 C   0  0  2  0  0  0  0  0  0  0  0  0
  160.6473   41.5995  142.5725 C   0  0  1  0  0  0  0  0  0  0  0  0
  150.9860   44.3574  142.9570 N   0  0  0  0  0  0  0  0  0  0  0  0
  151.1186   44.1218  144.2761 C   0  0  1  0  0  0  0  0  0  0  0  0
  160.4715   43.0947  142.4080 C   0  0  2  0  0  0  0  0  0  0  0  0
  150.1434   43.4460  144.9239 N   0  0  0  0  0  0  0  0  0  0  0  0
  161.7061   43.6199  141.9122 O   0  0  0  0  0  0  0  0  0  0  0  0
  160.1816   43.6215  143.8011 C   0  0  2  0  0  0  0  0  0  0  0  0
  152.1857   44.5234  145.0032 N   0  0  0  0  0  0  0  0  0  0  0  0
  160.6657   44.9533  143.9694 O   0  0  0  0  0  0  0  0  0  0  0  0
  153.2024   45.2005  144.4278 C   0  0  2  0  0  0  0  0  0  0  0  0
  160.9201   42.6207  144.6870 C   0  0  2  0  0  0  0  0  0  0  0  0
  161.0372   41.4107  143.9354 O   0  0  0  0  0  0  0  0  0  0  0  0
  153.1255   45.4909  142.9927 C   0  0  2  0  0  0  0  0  0  0  0  0
  160.2450   42.3201  146.0289 C   0  0  0  0  0  0  0  0  0  0  0  0
  158.8469   42.0608  145.9086 O   0  0  0  0  0  0  0  0  0  0  0  0
  151.9259   45.0199  142.2612 C   0  0  0  0  0  0  0  0  0  0  0  0
  151.8062   45.2430  141.0325 O   0  0  0  0  0  0  0  0  0  0  0  0
  154.2523   46.1580  142.6859 N   0  0  0  0  0  0  0  0  0  0  0  0
  154.9849   46.2873  143.8180 C   0  0  0  0  0  0  0  0  0  0  0  0
  154.3543   45.7147  144.8582 N   0  0  1  0  0  0  0  0  0  0  0  0
  156.3492   41.1843  139.5740 N   0  0  0  0  0  0  0  0  0  0  0  0
  158.6660   41.7874  148.4436 O   0  5  0  0  0  0  0  0  0  0  0  0
  157.4204   41.9810  139.4370 C   0  0  2  0  0  0  0  0  0  0  0  0
  157.4398   42.8146  138.3863 N   0  0  0  0  0  0  0  0  0  0  0  0
  156.5814   41.5030  146.8600 O   0  0  0  0  0  0  0  0  0  0  0  0
  158.4685   41.9810  140.2935 N   0  0  0  0  0  0  0  0  0  0  0  0
  158.4865   41.1525  141.3587 C   0  0  1  0  0  0  0  0  0  0  0  0
  157.3358   40.2507  141.5660 C   0  0  1  0  0  0  0  0  0  0  0  0
  156.2325   40.3085  140.5735 C   0  0  0  0  0  0  0  0  0  0  0  0
  155.2132   39.5909  140.6633 O   0  0  0  0  0  0  0  0  0  0  0  0
  157.6050   39.5417  142.6738 N   0  0  0  0  0  0  0  0  0  0  0  0
  158.8168   39.9604  143.1335 C   0  0  0  0  0  0  0  0  0  0  0  0
  159.3473   40.9197  142.3493 N   0  0  2  0  0  0  0  0  0  0  0  0
  1  3  1  6  0  0  0
  1  4  2  0  0  0  0
  1  6  1  0  0  0  0
  1 22  1  0  0  0  0
  2 28  1  0  0  0  0
  2 35  1  1  0  0  0
  2 38  2  0  0  0  0
  2 10  1  0  0  0  0
  5  6  1  0  0  0  0
  7  5  1  6  0  0  0
  7  8  1  0  0  0  0
  7  9  1  0  0  0  0
  9 10  1  1  0  0  0
  9 11  1  0  0  0  0
 11 12  1  1  0  0  0
 11 13  1  0  0  0  0
 13  8  1  6  0  0  0
 13 33  1  0  0  0  0
 14 46  1  0  0  0  0
 14 17  1  0  0  0  0
 14 25  1  1  0  0  0
 15 16  1  0  0  0  0
 15 29  1  0  0  0  0
 16 18  1  6  0  0  0
 16 21  1  0  0  0  0
 17 19  1  1  0  0  0
 17 20  1  0  0  0  0
 20 22  1  6  0  0  0
 20 24  1  0  0  0  0
 23 21  1  6  0  0  0
 23 26  1  0  0  0  0
 23 33  1  0  0  0  0
 24 25  1  6  0  0  0
 24 27  1  0  0  0  0
 26 29  1  6  0  0  0
 26 31  1  0  0  0  0
 27 28  1  0  0  0  0
 29 30  2  0  0  0  0
 31 32  1  0  0  0  0
 33 32  1  1  0  0  0
 34 36  1  0  0  0  0
 34 42  1  0  0  0  0
 36 37  1  6  0  0  0
 36 39  1  0  0  0  0
 40 39  1  6  0  0  0
 40 41  1  0  0  0  0
 40 46  1  0  0  0  0
 41 42  1  6  0  0  0
 41 44  1  0  0  0  0
 42 43  2  0  0  0  0
 44 45  1  0  0  0  0
 46 45  1  1  0  0  0
M  CHG  2   3  -1  35  -1
M  END
>  <CHROM.1>
-163.55133250,45.69648851,157.07828634,43.60853352,143.93023702,-0.24707311
-0.19686810,1.04081286

>  <Name>
ligand

>  <RI>
0

>  <Rbt.Current_Directory>
/home/itssahil/PROJECTS/Mol_Feturizer/Test_systems_manuscript/rnas/4yb0

>  <Rbt.Executable>
rbdock ($Id: //depot/dev/client3/rdock/2013.1/src/exe/rbdock.cxx#4 $)

>  <Rbt.Library>
libRbt.so (2013.1, Build901 2013/11/27)

>  <Rbt.Parameter_File>
/export/apps/rDock/src/rDock_2013.1_src/data/scripts/dock_solv.prm

>  <Rbt.Receptor>
prm/pocket_docking_3.prm

>  <SCORE>
-46.8355

>  <SCORE.INTER>
-46.8493

>  <SCORE.INTER.CONST>
1

>  <SCORE.INTER.POLAR>
0

>  <SCORE.INTER.ROT>
2

>  <SCORE.INTER.SOLV>
39.2188

>  <SCORE.INTER.VDW>
-49.2391

>  <SCORE.INTER.norm>
-1.01846

>  <SCORE.INTRA>
0.0137274

>  <SCORE.INTRA.DIHEDRAL>
0.0150905

>  <SCORE.INTRA.DIHEDRAL.0>
2.42188

>  <SCORE.INTRA.POLAR>
0

>  <SCORE.INTRA.POLAR.0>
0

>  <SCORE.INTRA.REPUL>
0

>  <SCORE.INTRA.REPUL.0>
0

>  <SCORE.INTRA.SOLV>
0.00156894

>  <SCORE.INTRA.SOLV.lig_0>
-127.307

>  <SCORE.INTRA.VDW>
0.00539763

>  <SCORE.INTRA.VDW.0>
-2.19936

>  <SCORE.INTRA.norm>
0.000298421

>  <SCORE.RESTR>
0

>  <SCORE.RESTR.CAVITY>
0

>  <SCORE.RESTR.norm>
0

>  <SCORE.SYSTEM>
0

>  <SCORE.SYSTEM.CONST>
0

>  <SCORE.SYSTEM.DIHEDRAL>
0

>  <SCORE.SYSTEM.SOLV>
0

>  <SCORE.SYSTEM.norm>
0

>  <SCORE.heavy>
46

>  <SCORE.norm>
-1.01816

>  <RMSD>
0.534

$$$$
ligand
 OpenBabel02271912143D
libRbt.so/2013.1/901 2013/11/27
 46 52  0  0  0  0  0  0  0  0999 V2000
  159.5646   46.2947  143.5452 P   0  0  1  0  0  0  0  0  0  0  0  0
  157.9959   42.2614  147.2470 P   0  0  1  0  0  0  0  0  0  0  0  0
  159.1231   46.0709  142.1218 O   0  5  0  0  0  0  0  0  0  0  0  0
  160.1807   47.6397  143.8629 O   0  0  0  0  0  0  0  0  0  0  0  0
  158.0338   46.7896  145.6454 C   0  0  0  0  0  0  0  0  0  0  0  0
  158.3220   45.9773  144.5149 O   0  0  0  0  0  0  0  0  0  0  0  0
  157.0863   46.0590  146.5826 C   0  0  1  0  0  0  0  0  0  0  0  0
  155.7873   46.6071  146.4093 O   0  0  0  0  0  0  0  0  0  0  0  0
  156.9510   44.5600  146.3467 C   0  0  1  0  0  0  0  0  0  0  0  0
  157.6847   43.8525  147.3355 O   0  0  0  0  0  0  0  0  0  0  0  0
  155.4795   44.2985  146.5770 C   0  0  1  0  0  0  0  0  0  0  0  0
  155.2568   43.9903  147.9545 O   0  0  0  0  0  0  0  0  0  0  0  0
  154.7889   45.6035  146.3057 C   0  0  2  0  0  0  0  0  0  0  0  0
  160.6911   41.7307  142.5731 C   0  0  1  0  0  0  0  0  0  0  0  0
  150.8354   44.2287  143.1393 N   0  0  0  0  0  0  0  0  0  0  0  0
  150.9910   44.0415  144.4636 C   0  0  1  0  0  0  0  0  0  0  0  0
  160.4453   43.2137  142.3893 C   0  0  2  0  0  0  0  0  0  0  0  0
  150.0179   43.4085  145.1562 N   0  0  0  0  0  0  0  0  0  0  0  0
  161.6454   43.7853  141.8612 O   0  0  0  0  0  0  0  0  0  0  0  0
  160.1587   43.7495  143.7796 C   0  0  2  0  0  0  0  0  0  0  0  0
  152.0795   44.4516  145.1533 N   0  0  0  0  0  0  0  0  0  0  0  0
  160.5857   45.1040  143.9180 O   0  0  0  0  0  0  0  0  0  0  0  0
  153.0955   45.0880  144.5322 C   0  0  2  0  0  0  0  0  0  0  0  0
  160.9580   42.7969  144.6660 C   0  0  2  0  0  0  0  0  0  0  0  0
  161.1150   41.5814  143.9307 O   0  0  0  0  0  0  0  0  0  0  0  0
  152.9942   45.3245  143.0888 C   0  0  2  0  0  0  0  0  0  0  0  0
  160.3228   42.4883  146.0253 C   0  0  0  0  0  0  0  0  0  0  0  0
  158.9357   42.1650  145.9366 O   0  0  0  0  0  0  0  0  0  0  0  0
  151.7720   44.8473  142.3999 C   0  0  0  0  0  0  0  0  0  0  0  0
  151.6310   45.0253  141.1661 O   0  0  0  0  0  0  0  0  0  0  0  0
  154.1256   45.9594  142.7341 N   0  0  0  0  0  0  0  0  0  0  0  0
  154.8833   46.1188  143.8457 C   0  0  0  0  0  0  0  0  0  0  0  0
  154.2645   45.5978  144.9195 N   0  0  1  0  0  0  0  0  0  0  0  0
  156.4365   40.9656  139.5814 N   0  0  0  0  0  0  0  0  0  0  0  0
  158.8156   41.9248  148.4786 O   0  5  0  0  0  0  0  0  0  0  0  0
  157.4787   41.7913  139.4001 C   0  0  2  0  0  0  0  0  0  0  0  0
  157.4763   42.5564  138.2984 N   0  0  0  0  0  0  0  0  0  0  0  0
  156.7160   41.5223  146.9410 O   0  0  0  0  0  0  0  0  0  0  0  0
  158.5189   41.8848  140.2613 N   0  0  0  0  0  0  0  0  0  0  0  0
  158.5585   41.1271  141.3773 C   0  0  1  0  0  0  0  0  0  0  0  0
  157.4399   40.1981  141.6350 C   0  0  1  0  0  0  0  0  0  0  0  0
  156.3437   40.1515  140.6341 C   0  0  0  0  0  0  0  0  0  0  0  0
  155.3507   39.4036  140.7635 O   0  0  0  0  0  0  0  0  0  0  0  0
  157.7257   39.5717  142.7874 N   0  0  0  0  0  0  0  0  0  0  0  0
  158.9175   40.0637  143.2267 C   0  0  0  0  0  0  0  0  0  0  0  0
  159.4188   40.9901  142.3860 N   0  0  2  0  0  0  0  0  0  0  0  0
  1  3  1  6  0  0  0
  1  4  2  0  0  0  0
  1  6  1  0  0  0  0
  1 22  1  0  0  0  0
  2 28  1  0  0  0  0
  2 35  1  1  0  0  0
  2 38  2  0  0  0  0
  2 10  1  0  0  0  0
  5  6  1  0  0  0  0
  7  5  1  6  0  0  0
  7  8  1  0  0  0  0
  7  9  1  0  0  0  0
  9 10  1  1  0  0  0
  9 11  1  0  0  0  0
 11 12  1  1  0  0  0
 11 13  1  0  0  0  0
 13  8  1  6  0  0  0
 13 33  1  0  0  0  0
 14 46  1  0  0  0  0
 14 17  1  0  0  0  0
 14 25  1  1  0  0  0
 15 16  1  0  0  0  0
 15 29  1  0  0  0  0
 16 18  1  6  0  0  0
 16 21  1  0  0  0  0
 17 19  1  1  0  0  0
 17 20  1  0  0  0  0
 20 22  1  6  0  0  0
 20 24  1  0  0  0  0
 23 21  1  6  0  0  0
 23 26  1  0  0  0  0
 23 33  1  0  0  0  0
 24 25  1  6  0  0  0
 24 27  1  0  0  0  0
 26 29  1  6  0  0  0
 26 31  1  0  0  0  0
 27 28  1  0  0  0  0
 29 30  2  0  0  0  0
 31 32  1  0  0  0  0
 33 32  1  1  0  0  0
 34 36  1  0  0  0  0
 34 42  1  0  0  0  0
 36 37  1  6  0  0  0
 36 39  1  0  0  0  0
 40 39  1  6  0  0  0
 40 41  1  0  0  0  0
 40 46  1  0  0  0  0
 41 42  1  6  0  0  0
 41 44  1  0  0  0  0
 42 43  2  0  0  0  0
 44 45  1  0  0  0  0
 46 45  1  1  0  0  0
M  CHG  2   3  -1  35  -1
M  END
>  <CHROM.1>
-159.76119376,48.88217557,157.06075084,43.60657204,143.96444574,-0.27904150
-0.15919771,1.02759171

>  <Name>
ligand

>  <RI>
0

>  <Rbt.Current_Directory>
/home/itssahil/PROJECTS/Mol_Feturizer/Test_systems_manuscript/rnas/4yb0

>  <Rbt.Executable>
rbdock ($Id: //depot/dev/client3/rdock/2013.1/src/exe/rbdock.cxx#4 $)

>  <Rbt.Library>
libRbt.so (2013.1, Build901 2013/11/27)

>  <Rbt.Parameter_File>
/export/apps/rDock/src/rDock_2013.1_src/data/scripts/dock_solv.prm

>  <Rbt.Receptor>
prm/pocket_docking_2.prm

>  <SCORE>
-46.4667

>  <SCORE.INTER>
-46.4298

>  <SCORE.INTER.CONST>
1

>  <SCORE.INTER.POLAR>
0

>  <SCORE.INTER.ROT>
2

>  <SCORE.INTER.SOLV>
40.1395

>  <SCORE.INTER.VDW>
-49.2663

>  <SCORE.INTER.norm>
-1.00934

>  <SCORE.INTRA>
-0.0369836

>  <SCORE.INTRA.DIHEDRAL>
0.0137456

>  <SCORE.INTRA.DIHEDRAL.0>
2.42188

>  <SCORE.INTRA.POLAR>
0

>  <SCORE.INTRA.POLAR.0>
0

>  <SCORE.INTRA.REPUL>
0

>  <SCORE.INTRA.REPUL.0>
0

>  <SCORE.INTRA.SOLV>
-0.00144971

>  <SCORE.INTRA.SOLV.lig_0>
-127.307

>  <SCORE.INTRA.VDW>
-0.0431316

>  <SCORE.INTRA.VDW.0>
-2.19936

>  <SCORE.INTRA.norm>
-0.000803992

>  <SCORE.RESTR>
0

>  <SCORE.RESTR.CAVITY>
0

>  <SCORE.RESTR.norm>
0

>  <SCORE.SYSTEM>
0

>  <SCORE.SYSTEM.CONST>
0

>  <SCORE.SYSTEM.DIHEDRAL>
0

>  <SCORE.SYSTEM.SOLV>
0

>  <SCORE.SYSTEM.norm>
0

>  <SCORE.heavy>
46

>  <SCORE.norm>
-1.01015

>  <RMSD>
0.545

$$$$
ligand
 OpenBabel02271912143D
libRbt.so/2013.1/901 2013/11/27
 46 52  0  0  0  0  0  0  0  0999 V2000
  159.6814   46.1970  143.5669 P   0  0  1  0  0  0  0  0  0  0  0  0
  157.8938   42.2074  147.2164 P   0  0  1  0  0  0  0  0  0  0  0  0
  159.2591   45.9966  142.1342 O   0  5  0  0  0  0  0  0  0  0  0  0
  160.3409   47.5166  143.9035 O   0  0  0  0  0  0  0  0  0  0  0  0
  158.1303   46.7385  145.6406 C   0  0  0  0  0  0  0  0  0  0  0  0
  158.4096   45.9215  144.5112 O   0  0  0  0  0  0  0  0  0  0  0  0
  157.1387   46.0393  146.5557 C   0  0  1  0  0  0  0  0  0  0  0  0
  155.8644   46.6362  146.3609 O   0  0  0  0  0  0  0  0  0  0  0  0
  156.9523   44.5475  146.3091 C   0  0  1  0  0  0  0  0  0  0  0  0
  157.6402   43.8085  147.3077 O   0  0  0  0  0  0  0  0  0  0  0  0
  155.4679   44.3399  146.5102 C   0  0  1  0  0  0  0  0  0  0  0  0
  155.2077   44.0337  147.8815 O   0  0  0  0  0  0  0  0  0  0  0  0
  154.8316   45.6710  146.2331 C   0  0  2  0  0  0  0  0  0  0  0  0
  160.6560   41.5989  142.5913 C   0  0  1  0  0  0  0  0  0  0  0  0
  150.9608   44.3153  142.9582 N   0  0  0  0  0  0  0  0  0  0  0  0
  151.0939   44.0981  144.2803 C   0  0  1  0  0  0  0  0  0  0  0  0
  160.4690   43.0909  142.4110 C   0  0  2  0  0  0  0  0  0  0  0  0
  150.1177   43.4338  144.9384 N   0  0  0  0  0  0  0  0  0  0  0  0
  161.6993   43.6199  141.9087 O   0  0  0  0  0  0  0  0  0  0  0  0
  160.1760   43.6304  143.7985 C   0  0  2  0  0  0  0  0  0  0  0  0
  152.1626   44.5074  145.0008 N   0  0  0  0  0  0  0  0  0  0  0  0
  160.6503   44.9674  143.9523 O   0  0  0  0  0  0  0  0  0  0  0  0
  153.1804   45.1739  144.4151 C   0  0  2  0  0  0  0  0  0  0  0  0
  160.9224   42.6445  144.6946 C   0  0  2  0  0  0  0  0  0  0  0  0
  161.0481   41.4275  143.9558 O   0  0  0  0  0  0  0  0  0  0  0  0
  153.1030   45.4441  142.9761 C   0  0  2  0  0  0  0  0  0  0  0  0
  160.2503   42.3533  146.0400 C   0  0  0  0  0  0  0  0  0  0  0  0
  158.8541   42.0823  145.9235 O   0  0  0  0  0  0  0  0  0  0  0  0
  151.9016   44.9657  142.2523 C   0  0  0  0  0  0  0  0  0  0  0  0
  151.7814   45.1717  141.0206 O   0  0  0  0  0  0  0  0  0  0  0  0
  154.2310   46.1042  142.6589 N   0  0  0  0  0  0  0  0  0  0  0  0
  154.9649   46.2477  143.7885 C   0  0  0  0  0  0  0  0  0  0  0  0
  154.3339   45.6914  144.8372 N   0  0  1  0  0  0  0  0  0  0  0  0
  156.4153   41.0351  139.5358 N   0  0  0  0  0  0  0  0  0  0  0  0
  158.6768   41.8347  148.4613 O   0  5  0  0  0  0  0  0  0  0  0  0
  157.4882   41.8262  139.3813 C   0  0  2  0  0  0  0  0  0  0  0  0
  157.5266   42.6092  138.2929 N   0  0  0  0  0  0  0  0  0  0  0  0
  156.5934   41.5179  146.8823 O   0  0  0  0  0  0  0  0  0  0  0  0
  158.5200   41.8685  140.2564 N   0  0  0  0  0  0  0  0  0  0  0  0
  158.5187   41.0913  141.3597 C   0  0  1  0  0  0  0  0  0  0  0  0
  157.3649   40.1984  141.5879 C   0  0  1  0  0  0  0  0  0  0  0  0
  156.2805   40.2074  140.5733 C   0  0  0  0  0  0  0  0  0  0  0  0
  155.2602   39.4931  140.6778 O   0  0  0  0  0  0  0  0  0  0  0  0
  157.6139   39.5431  142.7329 N   0  0  0  0  0  0  0  0  0  0  0  0
  158.8165   39.9852  143.1949 C   0  0  0  0  0  0  0  0  0  0  0  0
  159.3608   40.9071  142.3762 N   0  0  2  0  0  0  0  0  0  0  0  0
  1  3  1  6  0  0  0
  1  4  2  0  0  0  0
  1  6  1  0  0  0  0
  1 22  1  0  0  0  0
  2 28  1  0  0  0  0
  2 35  1  1  0  0  0
  2 38  2  0  0  0  0
  2 10  1  0  0  0  0
  5  6  1  0  0  0  0
  7  5  1  6  0  0  0
  7  8  1  0  0  0  0
  7  9  1  0  0  0  0
  9 10  1  1  0  0  0
  9 11  1  0  0  0  0
 11 12  1  1  0  0  0
 11 13  1  0  0  0  0
 13  8  1  6  0  0  0
 13 33  1  0  0  0  0
 14 46  1  0  0  0  0
 14 17  1  0  0  0  0
 14 25  1  1  0  0  0
 15 16  1  0  0  0  0
 15 29  1  0  0  0  0
 16 18  1  6  0  0  0
 16 21  1  0  0  0  0
 17 19  1  1  0  0  0
 17 20  1  0  0  0  0
 20 22  1  6  0  0  0
 20 24  1  0  0  0  0
 23 21  1  6  0  0  0
 23 26  1  0  0  0  0
 23 33  1  0  0  0  0
 24 25  1  6  0  0  0
 24 27  1  0  0  0  0
 26 29  1  6  0  0  0
 26 31  1  0  0  0  0
 27 28  1  0  0  0  0
 29 30  2  0  0  0  0
 31 32  1  0  0  0  0
 33 32  1  1  0  0  0
 34 36  1  0  0  0  0
 34 42  1  0  0  0  0
 36 37  1  6  0  0  0
 36 39  1  0  0  0  0
 40 39  1  6  0  0  0
 40 41  1  0  0  0  0
 40 46  1  0  0  0  0
 41 42  1  6  0  0  0
 41 44  1  0  0  0  0
 42 43  2  0  0  0  0
 44 45  1  0  0  0  0
 46 45  1  1  0  0  0
M  CHG  2   3  -1  35  -1
M  END
>  <CHROM.1>
-162.95617476,48.10043000,157.07748667,43.58938227,143.92343256,-0.26586359
-0.19064893,1.02900771

>  <Name>
ligand

>  <RI>
0

>  <Rbt.Current_Directory>
/home/itssahil/PROJECTS/Mol_Feturizer/Test_systems_manuscript/rnas/4yb0

>  <Rbt.Executable>
rbdock ($Id: //depot/dev/client3/rdock/2013.1/src/exe/rbdock.cxx#4 $)

>  <Rbt.Library>
libRbt.so (2013.1, Build901 2013/11/27)

>  <Rbt.Parameter_File>
/export/apps/rDock/src/rDock_2013.1_src/data/scripts/dock_solv.prm

>  <Rbt.Receptor>
prm/pocket_docking_3.prm

>  <SCORE>
-46.9102

>  <SCORE.INTER>
-46.8879

>  <SCORE.INTER.CONST>
1

>  <SCORE.INTER.POLAR>
0

>  <SCORE.INTER.ROT>
2

>  <SCORE.INTER.SOLV>
39.4127

>  <SCORE.INTER.VDW>
-49.3295

>  <SCORE.INTER.norm>
-1.0193

>  <SCORE.INTRA>
-0.0222939

>  <SCORE.INTRA.DIHEDRAL>
0.0125716

>  <SCORE.INTRA.DIHEDRAL.0>
2.42188

>  <SCORE.INTRA.POLAR>
0

>  <SCORE.INTRA.POLAR.0>
0

>  <SCORE.INTRA.REPUL>
0

>  <SCORE.INTRA.REPUL.0>
0

>  <SCORE.INTRA.SOLV>
0.000108566

>  <SCORE.INTRA.SOLV.lig_0>
-127.307

>  <SCORE.INTRA.VDW>
-0.028634

>  <SCORE.INTRA.VDW.0>
-2.19936

>  <SCORE.INTRA.norm>
-0.000484649

>  <SCORE.RESTR>
0

>  <SCORE.RESTR.CAVITY>
0

>  <SCORE.RESTR.norm>
0

>  <SCORE.SYSTEM>
0

>  <SCORE.SYSTEM.CONST>
0

>  <SCORE.SYSTEM.DIHEDRAL>
0

>  <SCORE.SYSTEM.SOLV>
0

>  <SCORE.SYSTEM.norm>
0

>  <SCORE.heavy>
46

>  <SCORE.norm>
-1.01979

>  <RMSD>
0.547

$$$$
ligand
 OpenBabel02271912143D
libRbt.so/2013.1/901 2013/11/27
 46 52  0  0  0  0  0  0  0  0999 V2000
  159.6780   46.2057  143.5902 P   0  0  1  0  0  0  0  0  0  0  0  0
  157.8894   42.1777  147.1967 P   0  0  1  0  0  0  0  0  0  0  0  0
  159.2596   46.0183  142.1547 O   0  5  0  0  0  0  0  0  0  0  0  0
  160.3341   47.5233  143.9412 O   0  0  0  0  0  0  0  0  0  0  0  0
  158.1208   46.7242  145.6652 C   0  0  0  0  0  0  0  0  0  0  0  0
  158.4045   45.9186  144.5287 O   0  0  0  0  0  0  0  0  0  0  0  0
  157.1283   46.0142  146.5711 C   0  0  1  0  0  0  0  0  0  0  0  0
  155.8533   46.6105  146.3789 O   0  0  0  0  0  0  0  0  0  0  0  0
  156.9455   44.5246  146.3097 C   0  0  1  0  0  0  0  0  0  0  0  0
  157.6324   43.7773  147.3028 O   0  0  0  0  0  0  0  0  0  0  0  0
  155.4610   44.3121  146.5051 C   0  0  1  0  0  0  0  0  0  0  0  0
  155.1981   43.9922  147.8728 O   0  0  0  0  0  0  0  0  0  0  0  0
  154.8228   45.6446  146.2393 C   0  0  2  0  0  0  0  0  0  0  0  0
  160.6640   41.6191  142.5728 C   0  0  1  0  0  0  0  0  0  0  0  0
  150.9567   44.3243  142.9442 N   0  0  0  0  0  0  0  0  0  0  0  0
  151.0862   44.0960  144.2649 C   0  0  1  0  0  0  0  0  0  0  0  0
  160.4745   43.1124  142.4065 C   0  0  2  0  0  0  0  0  0  0  0  0
  150.1070   43.4286  144.9152 N   0  0  0  0  0  0  0  0  0  0  0  0
  161.7050   43.6486  141.9123 O   0  0  0  0  0  0  0  0  0  0  0  0
  160.1771   43.6379  143.7984 C   0  0  2  0  0  0  0  0  0  0  0  0
  152.1542   44.4970  144.9912 N   0  0  0  0  0  0  0  0  0  0  0  0
  160.6484   44.9743  143.9662 O   0  0  0  0  0  0  0  0  0  0  0  0
  153.1748   45.1660  144.4134 C   0  0  2  0  0  0  0  0  0  0  0  0
  160.9232   42.6449  144.6868 C   0  0  2  0  0  0  0  0  0  0  0  0
  161.0531   41.4353  143.9366 O   0  0  0  0  0  0  0  0  0  0  0  0
  153.1014   45.4481  142.9764 C   0  0  2  0  0  0  0  0  0  0  0  0
  160.2484   42.3394  146.0277 C   0  0  0  0  0  0  0  0  0  0  0  0
  158.8531   42.0669  145.9050 O   0  0  0  0  0  0  0  0  0  0  0  0
  151.9007   44.9783  142.2459 C   0  0  0  0  0  0  0  0  0  0  0  0
  151.7839   45.1946  141.0157 O   0  0  0  0  0  0  0  0  0  0  0  0
  154.2317   46.1082  142.6673 N   0  0  0  0  0  0  0  0  0  0  0  0
  154.9632   46.2409  143.7998 C   0  0  0  0  0  0  0  0  0  0  0  0
  154.3284   45.6775  144.8424 N   0  0  1  0  0  0  0  0  0  0  0  0
  156.3971   41.1287  139.5413 N   0  0  0  0  0  0  0  0  0  0  0  0
  158.6700   41.7945  148.4400 O   0  5  0  0  0  0  0  0  0  0  0  0
  157.4640   41.9308  139.4022 C   0  0  2  0  0  0  0  0  0  0  0  0
  157.4875   42.7486  138.3392 N   0  0  0  0  0  0  0  0  0  0  0  0
  156.5911   41.4889  146.8528 O   0  0  0  0  0  0  0  0  0  0  0  0
  158.5040   41.9510  140.2683 N   0  0  0  0  0  0  0  0  0  0  0  0
  158.5178   41.1387  141.3460 C   0  0  1  0  0  0  0  0  0  0  0  0
  157.3714   40.2321  141.5562 C   0  0  1  0  0  0  0  0  0  0  0  0
  156.2771   40.2672  140.5527 C   0  0  0  0  0  0  0  0  0  0  0  0
  155.2619   39.5439  140.6440 O   0  0  0  0  0  0  0  0  0  0  0  0
  157.6351   39.5418  142.6770 N   0  0  0  0  0  0  0  0  0  0  0  0
  158.8397   39.9759  143.1416 C   0  0  0  0  0  0  0  0  0  0  0  0
  159.3708   40.9269  142.3479 N   0  0  2  0  0  0  0  0  0  0  0  0
  1  3  1  6  0  0  0
  1  4  2  0  0  0  0
  1  6  1  0  0  0  0
  1 22  1  0  0  0  0
  2 28  1  0  0  0  0
  2 35  1  1  0  0  0
  2 38  2  0  0  0  0
  2 10  1  0  0  0  0
  5  6  1  0  0  0  0
  7  5  1  6  0  0  0
  7  8  1  0  0  0  0
  7  9  1  0  0  0  0
  9 10  1  1  0  0  0
  9 11  1  0  0  0  0
 11 12  1  1  0  0  0
 11 13  1  0  0  0  0
 13  8  1  6  0  0  0
 13 33  1  0  0  0  0
 14 46  1  0  0  0  0
 14 17  1  0  0  0  0
 14 25  1  1  0  0  0
 15 16  1  0  0  0  0
 15 29  1  0  0  0  0
 16 18  1  6  0  0  0
 16 21  1  0  0  0  0
 17 19  1  1  0  0  0
 17 20  1  0  0  0  0
 20 22  1  6  0  0  0
 20 24  1  0  0  0  0
 23 21  1  6  0  0  0
 23 26  1  0  0  0  0
 23 33  1  0  0  0  0
 24 25  1  6  0  0  0
 24 27  1  0  0  0  0
 26 29  1  6  0  0  0
 26 31  1  0  0  0  0
 27 28  1  0  0  0  0
 29 30  2  0  0  0  0
 31 32  1  0  0  0  0
 33 32  1  1  0  0  0
 34 36  1  0  0  0  0
 34 42  1  0  0  0  0
 36 37  1  6  0  0  0
 36 39  1  0  0  0  0
 40 39  1  6  0  0  0
 40 41  1  0  0  0  0
 40 46  1  0  0  0  0
 41 42  1  6  0  0  0
 41 44  1  0  0  0  0
 42 43  2  0  0  0  0
 44 45  1  0  0  0  0
 46 45  1  1  0  0  0
M  CHG  2   3  -1  35  -1
M  END
>  <CHROM.1>
-162.70162104,46.61667805,157.07394883,43.59661203,143.91983464,-0.25084284
-0.19191738,1.04130779

>  <Name>
ligand

>  <RI>
0

>  <Rbt.Current_Directory>
/home/itssahil/PROJECTS/Mol_Feturizer/Test_systems_manuscript/rnas/4yb0

>  <Rbt.Executable>
rbdock ($Id: //depot/dev/client3/rdock/2013.1/src/exe/rbdock.cxx#4 $)

>  <Rbt.Library>
libRbt.so (2013.1, Build901 2013/11/27)

>  <Rbt.Parameter_File>
/export/apps/rDock/src/rDock_2013.1_src/data/scripts/dock_solv.prm

>  <Rbt.Receptor>
prm/pocket_docking_3.prm

>  <SCORE>
-46.8996

>  <SCORE.INTER>
-46.8948

>  <SCORE.INTER.CONST>
1

>  <SCORE.INTER.POLAR>
0

>  <SCORE.INTER.ROT>
2

>  <SCORE.INTER.SOLV>
39.3193

>  <SCORE.INTER.VDW>
-49.3029

>  <SCORE.INTER.norm>
-1.01945

>  <SCORE.INTRA>
-0.00480249

>  <SCORE.INTRA.DIHEDRAL>
0.0146438

>  <SCORE.INTRA.DIHEDRAL.0>
2.42188

>  <SCORE.INTRA.POLAR>
0

>  <SCORE.INTRA.POLAR.0>
0

>  <SCORE.INTRA.REPUL>
0

>  <SCORE.INTRA.REPUL.0>
0

>  <SCORE.INTRA.SOLV>
0.000781213

>  <SCORE.INTRA.SOLV.lig_0>
-127.307

>  <SCORE.INTRA.VDW>
-0.012515

>  <SCORE.INTRA.VDW.0>
-2.19936

>  <SCORE.INTRA.norm>
-0.000104402

>  <SCORE.RESTR>
0

>  <SCORE.RESTR.CAVITY>
0

>  <SCORE.RESTR.norm>
0

>  <SCORE.SYSTEM>
0

>  <SCORE.SYSTEM.CONST>
0

>  <SCORE.SYSTEM.DIHEDRAL>
0

>  <SCORE.SYSTEM.SOLV>
0

>  <SCORE.SYSTEM.norm>
0

>  <SCORE.heavy>
46

>  <SCORE.norm>
-1.01956

>  <RMSD>
0.550

$$$$
ligand
 OpenBabel02271912143D
libRbt.so/2013.1/901 2013/11/27
 46 52  0  0  0  0  0  0  0  0999 V2000
  159.6839   46.2082  143.5660 P   0  0  1  0  0  0  0  0  0  0  0  0
  157.8848   42.2158  147.2067 P   0  0  1  0  0  0  0  0  0  0  0  0
  159.2630   46.0110  142.1325 O   0  5  0  0  0  0  0  0  0  0  0  0
  160.3453   47.5261  143.9057 O   0  0  0  0  0  0  0  0  0  0  0  0
  158.1312   46.7491  145.6387 C   0  0  0  0  0  0  0  0  0  0  0  0
  158.4105   45.9334  144.5083 O   0  0  0  0  0  0  0  0  0  0  0  0
  157.1372   46.0501  146.5514 C   0  0  1  0  0  0  0  0  0  0  0  0
  155.8642   46.6495  146.3561 O   0  0  0  0  0  0  0  0  0  0  0  0
  156.9485   44.5591  146.3021 C   0  0  1  0  0  0  0  0  0  0  0  0
  157.6339   43.8172  147.3003 O   0  0  0  0  0  0  0  0  0  0  0  0
  155.4635   44.3537  146.5010 C   0  0  1  0  0  0  0  0  0  0  0  0
  155.2011   44.0457  147.8715 O   0  0  0  0  0  0  0  0  0  0  0  0
  154.8299   45.6864  146.2254 C   0  0  2  0  0  0  0  0  0  0  0  0
  160.6516   41.6100  142.5840 C   0  0  1  0  0  0  0  0  0  0  0  0
  150.9668   44.3312  142.9410 N   0  0  0  0  0  0  0  0  0  0  0  0
  151.0988   44.1100  144.2626 C   0  0  1  0  0  0  0  0  0  0  0  0
  160.4674   43.1026  142.4060 C   0  0  2  0  0  0  0  0  0  0  0  0
  150.1235   43.4411  144.9173 N   0  0  0  0  0  0  0  0  0  0  0  0
  161.6993   43.6303  141.9061 O   0  0  0  0  0  0  0  0  0  0  0  0
  160.1737   43.6404  143.7940 C   0  0  2  0  0  0  0  0  0  0  0  0
  152.1656   44.5198  144.9858 N   0  0  0  0  0  0  0  0  0  0  0  0
  160.6501   44.9763  143.9507 O   0  0  0  0  0  0  0  0  0  0  0  0
  153.1823   45.1908  144.4036 C   0  0  2  0  0  0  0  0  0  0  0  0
  160.9172   42.6517  144.6894 C   0  0  2  0  0  0  0  0  0  0  0  0
  161.0417   41.4357  143.9488 O   0  0  0  0  0  0  0  0  0  0  0  0
  153.1061   45.4655  142.9653 C   0  0  2  0  0  0  0  0  0  0  0  0
  160.2430   42.3594  146.0335 C   0  0  0  0  0  0  0  0  0  0  0  0
  158.8464   42.0911  145.9148 O   0  0  0  0  0  0  0  0  0  0  0  0
  151.9070   44.9862  142.2384 C   0  0  0  0  0  0  0  0  0  0  0  0
  151.7878   45.1959  141.0073 O   0  0  0  0  0  0  0  0  0  0  0  0
  154.2328   46.1295  142.6518 N   0  0  0  0  0  0  0  0  0  0  0  0
  154.9649   46.2713  143.7828 C   0  0  0  0  0  0  0  0  0  0  0  0
  154.3339   45.7100  144.8289 N   0  0  1  0  0  0  0  0  0  0  0  0
  156.3994   41.0806  139.5383 N   0  0  0  0  0  0  0  0  0  0  0  0
  158.6655   41.8396  148.4520 O   0  5  0  0  0  0  0  0  0  0  0  0
  157.4719   41.8732  139.3886 C   0  0  2  0  0  0  0  0  0  0  0  0
  157.5065   42.6680  138.3086 N   0  0  0  0  0  0  0  0  0  0  0  0
  156.5835   41.5291  146.8698 O   0  0  0  0  0  0  0  0  0  0  0  0
  158.5070   41.9056  140.2602 N   0  0  0  0  0  0  0  0  0  0  0  0
  158.5096   41.1164  141.3550 C   0  0  1  0  0  0  0  0  0  0  0  0
  157.3565   40.2213  141.5776 C   0  0  1  0  0  0  0  0  0  0  0  0
  156.2683   40.2416  140.5672 C   0  0  0  0  0  0  0  0  0  0  0  0
  155.2482   39.5264  140.6677 O   0  0  0  0  0  0  0  0  0  0  0  0
  157.6096   39.5534  142.7144 N   0  0  0  0  0  0  0  0  0  0  0  0
  158.8140   39.9901  143.1767 C   0  0  0  0  0  0  0  0  0  0  0  0
  159.3555   40.9209  142.3662 N   0  0  2  0  0  0  0  0  0  0  0  0
  1  3  1  6  0  0  0
  1  4  2  0  0  0  0
  1  6  1  0  0  0  0
  1 22  1  0  0  0  0
  2 28  1  0  0  0  0
  2 35  1  1  0  0  0
  2 38  2  0  0  0  0
  2 10  1  0  0  0  0
  5  6  1  0  0  0  0
  7  5  1  6  0  0  0
  7  8  1  0  0  0  0
  7  9  1  0  0  0  0
  9 10  1  1  0  0  0
  9 11  1  0  0  0  0
 11 12  1  1  0  0  0
 11 13  1  0  0  0  0
 13  8  1  6  0  0  0
 13 33  1  0  0  0  0
 14 46  1  0  0  0  0
 14 17  1  0  0  0  0
 14 25  1  1  0  0  0
 15 16  1  0  0  0  0
 15 29  1  0  0  0  0
 16 18  1  6  0  0  0
 16 21  1  0  0  0  0
 17 19  1  1  0  0  0
 17 20  1  0  0  0  0
 20 22  1  6  0  0  0
 20 24  1  0  0  0  0
 23 21  1  6  0  0  0
 23 26  1  0  0  0  0
 23 33  1  0  0  0  0
 24 25  1  6  0  0  0
 24 27  1  0  0  0  0
 26 29  1  6  0  0  0
 26 31  1  0  0  0  0
 27 28  1  0  0  0  0
 29 30  2  0  0  0  0
 31 32  1  0  0  0  0
 33 32  1  1  0  0  0
 34 36  1  0  0  0  0
 34 42  1  0  0  0  0
 36 37  1  6  0  0  0
 36 39  1  0  0  0  0
 40 39  1  6  0  0  0
 40 41  1  0  0  0  0
 40 46  1  0  0  0  0
 41 42  1  6  0  0  0
 41 44  1  0  0  0  0
 42 43  2  0  0  0  0
 44 45  1  0  0  0  0
 46 45  1  1  0  0  0
M  CHG  2   3  -1  35  -1
M  END
>  <CHROM.1>
-163.22171376,47.48943734,157.07405625,43.60572469,143.91653568,-0.25960486
-0.19231670,1.03108133

>  <Name>
ligand

>  <RI>
0

>  <Rbt.Current_Directory>
/home/itssahil/PROJECTS/Mol_Feturizer/Test_systems_manuscript/rnas/4yb0

>  <Rbt.Executable>
rbdock ($Id: //depot/dev/client3/rdock/2013.1/src/exe/rbdock.cxx#4 $)

>  <Rbt.Library>
libRbt.so (2013.1, Build901 2013/11/27)

>  <Rbt.Parameter_File>
/export/apps/rDock/src/rDock_2013.1_src/data/scripts/dock_solv.prm

>  <Rbt.Receptor>
prm/pocket_docking_3.prm

>  <SCORE>
-46.8855

>  <SCORE.INTER>
-46.8729

>  <SCORE.INTER.CONST>
1

>  <SCORE.INTER.POLAR>
0

>  <SCORE.INTER.ROT>
2

>  <SCORE.INTER.SOLV>
39.3073

>  <SCORE.INTER.VDW>
-49.2844

>  <SCORE.INTER.norm>
-1.01898

>  <SCORE.INTRA>
-0.0125486

>  <SCORE.INTRA.DIHEDRAL>
0.0131516

>  <SCORE.INTRA.DIHEDRAL.0>
2.42188

>  <SCORE.INTRA.POLAR>
0

>  <SCORE.INTRA.POLAR.0>
0

>  <SCORE.INTRA.REPUL>
0

>  <SCORE.INTRA.REPUL.0>
0

>  <SCORE.INTRA.SOLV>
0.000521965

>  <SCORE.INTRA.SOLV.lig_0>
-127.307

>  <SCORE.INTRA.VDW>
-0.0193854

>  <SCORE.INTRA.VDW.0>
-2.19936

>  <SCORE.INTRA.norm>
-0.000272797

>  <SCORE.RESTR>
0

>  <SCORE.RESTR.CAVITY>
0

>  <SCORE.RESTR.norm>
0

>  <SCORE.SYSTEM>
0

>  <SCORE.SYSTEM.CONST>
0

>  <SCORE.SYSTEM.DIHEDRAL>
0

>  <SCORE.SYSTEM.SOLV>
0

>  <SCORE.SYSTEM.norm>
0

>  <SCORE.heavy>
46

>  <SCORE.norm>
-1.01925

>  <RMSD>
0.551

$$$$
ligand
 OpenBabel02271912143D
libRbt.so/2013.1/901 2013/11/27
 46 52  0  0  0  0  0  0  0  0999 V2000
  159.5538   46.2725  143.5256 P   0  0  1  0  0  0  0  0  0  0  0  0
  157.9680   42.2620  147.2448 P   0  0  1  0  0  0  0  0  0  0  0  0
  159.1077   46.0466  142.1040 O   0  5  0  0  0  0  0  0  0  0  0  0
  160.1791   47.6147  143.8373 O   0  0  0  0  0  0  0  0  0  0  0  0
  158.0308   46.7843  145.6275 C   0  0  0  0  0  0  0  0  0  0  0  0
  158.3114   45.9663  144.4991 O   0  0  0  0  0  0  0  0  0  0  0  0
  157.0808   46.0629  146.5692 C   0  0  1  0  0  0  0  0  0  0  0  0
  155.7849   46.6186  146.3969 O   0  0  0  0  0  0  0  0  0  0  0  0
  156.9356   44.5640  146.3389 C   0  0  1  0  0  0  0  0  0  0  0  0
  157.6670   43.8553  147.3285 O   0  0  0  0  0  0  0  0  0  0  0  0
  155.4629   44.3126  146.5733 C   0  0  1  0  0  0  0  0  0  0  0  0
  155.2413   44.0106  147.9523 O   0  0  0  0  0  0  0  0  0  0  0  0
  154.7800   45.6210  146.2990 C   0  0  2  0  0  0  0  0  0  0  0  0
  160.6494   41.6981  142.5669 C   0  0  1  0  0  0  0  0  0  0  0  0
  150.8298   44.2220  143.1391 N   0  0  0  0  0  0  0  0  0  0  0  0
  150.9898   44.0336  144.4627 C   0  0  1  0  0  0  0  0  0  0  0  0
  160.4125   43.1820  142.3785 C   0  0  2  0  0  0  0  0  0  0  0  0
  150.0231   43.3919  145.1563 N   0  0  0  0  0  0  0  0  0  0  0  0
  161.6150   43.7442  141.8457 O   0  0  0  0  0  0  0  0  0  0  0  0
  160.1324   43.7244  143.7675 C   0  0  2  0  0  0  0  0  0  0  0  0
  152.0767   44.4507  145.1507 N   0  0  0  0  0  0  0  0  0  0  0  0
  160.5682   45.0767  143.9003 O   0  0  0  0  0  0  0  0  0  0  0  0
  153.0864   45.0959  144.5284 C   0  0  2  0  0  0  0  0  0  0  0  0
  160.9276   42.7699  144.6554 C   0  0  2  0  0  0  0  0  0  0  0  0
  161.0753   41.5509  143.9241 O   0  0  0  0  0  0  0  0  0  0  0  0
  152.9801   45.3342  143.0856 C   0  0  2  0  0  0  0  0  0  0  0  0
  160.2935   42.4700  146.0172 C   0  0  0  0  0  0  0  0  0  0  0  0
  158.9042   42.1552  145.9327 O   0  0  0  0  0  0  0  0  0  0  0  0
  151.7600   44.8489  142.3987 C   0  0  0  0  0  0  0  0  0  0  0  0
  151.6148   45.0281  141.1655 O   0  0  0  0  0  0  0  0  0  0  0  0
  154.1058   45.9782  142.7296 N   0  0  0  0  0  0  0  0  0  0  0  0
  154.8649   46.1414  143.8397 C   0  0  0  0  0  0  0  0  0  0  0  0
  154.2525   45.6138  144.9140 N   0  0  1  0  0  0  0  0  0  0  0  0
  156.4441   40.8590  139.5256 N   0  0  0  0  0  0  0  0  0  0  0  0
  158.7882   41.9245  148.4758 O   0  5  0  0  0  0  0  0  0  0  0  0
  157.4996   41.6647  139.3314 C   0  0  2  0  0  0  0  0  0  0  0  0
  157.5276   42.3839  138.1995 N   0  0  0  0  0  0  0  0  0  0  0  0
  156.6828   41.5299  146.9442 O   0  0  0  0  0  0  0  0  0  0  0  0
  158.5241   41.7817  140.2083 N   0  0  0  0  0  0  0  0  0  0  0  0
  158.5330   41.0701  141.3550 C   0  0  1  0  0  0  0  0  0  0  0  0
  157.3985   40.1653  141.6283 C   0  0  1  0  0  0  0  0  0  0  0  0
  156.3212   40.0900  140.6087 C   0  0  0  0  0  0  0  0  0  0  0  0
  155.3169   39.3593  140.7490 O   0  0  0  0  0  0  0  0  0  0  0  0
  157.6545   39.5835  142.8108 N   0  0  0  0  0  0  0  0  0  0  0  0
  158.8434   40.0796  143.2530 C   0  0  0  0  0  0  0  0  0  0  0  0
  159.3720   40.9650  142.3851 N   0  0  2  0  0  0  0  0  0  0  0  0
  1  3  1  6  0  0  0
  1  4  2  0  0  0  0
  1  6  1  0  0  0  0
  1 22  1  0  0  0  0
  2 28  1  0  0  0  0
  2 35  1  1  0  0  0
  2 38  2  0  0  0  0
  2 10  1  0  0  0  0
  5  6  1  0  0  0  0
  7  5  1  6  0  0  0
  7  8  1  0  0  0  0
  7  9  1  0  0  0  0
  9 10  1  1  0  0  0
  9 11  1  0  0  0  0
 11 12  1  1  0  0  0
 11 13  1  0  0  0  0
 13  8  1  6  0  0  0
 13 33  1  0  0  0  0
 14 46  1  0  0  0  0
 14 17  1  0  0  0  0
 14 25  1  1  0  0  0
 15 16  1  0  0  0  0
 15 29  1  0  0  0  0
 16 18  1  6  0  0  0
 16 21  1  0  0  0  0
 17 19  1  1  0  0  0
 17 20  1  0  0  0  0
 20 22  1  6  0  0  0
 20 24  1  0  0  0  0
 23 21  1  6  0  0  0
 23 26  1  0  0  0  0
 23 33  1  0  0  0  0
 24 25  1  6  0  0  0
 24 27  1  0  0  0  0
 26 29  1  6  0  0  0
 26 31  1  0  0  0  0
 27 28  1  0  0  0  0
 29 30  2  0  0  0  0
 31 32  1  0  0  0  0
 33 32  1  1  0  0  0
 34 36  1  0  0  0  0
 34 42  1  0  0  0  0
 36 37  1  6  0  0  0
 36 39  1  0  0  0  0
 40 39  1  6  0  0  0
 40 41  1  0  0  0  0
 40 46  1  0  0  0  0
 41 42  1  6  0  0  0
 41 44  1  0  0  0  0
 42 43  2  0  0  0  0
 44 45  1  0  0  0  0
 46 45  1  1  0  0  0
M  CHG  2   3  -1  35  -1
M  END
>  <CHROM.1>
-160.61148231,51.38481796,157.04266333,43.58765499,143.95219630,-0.30415605
-0.15893271,1.01821317

>  <Name>
ligand

>  <RI>
0

>  <Rbt.Current_Directory>
/home/itssahil/PROJECTS/Mol_Feturizer/Test_systems_manuscript/rnas/4yb0

>  <Rbt.Executable>
rbdock ($Id: //depot/dev/client3/rdock/2013.1/src/exe/rbdock.cxx#4 $)

>  <Rbt.Library>
libRbt.so (2013.1, Build901 2013/11/27)

>  <Rbt.Parameter_File>
/export/apps/rDock/src/rDock_2013.1_src/data/scripts/dock_solv.prm

>  <Rbt.Receptor>
prm/pocket_docking_2.prm

>  <SCORE>
-46.3941

>  <SCORE.INTER>
-46.3313

>  <SCORE.INTER.CONST>
1

>  <SCORE.INTER.POLAR>
0

>  <SCORE.INTER.ROT>
2

>  <SCORE.INTER.SOLV>
40.5998

>  <SCORE.INTER.VDW>
-49.3541

>  <SCORE.INTER.norm>
-1.0072

>  <SCORE.INTRA>
-0.0627612

>  <SCORE.INTRA.DIHEDRAL>
0.00973967

>  <SCORE.INTRA.DIHEDRAL.0>
2.42188

>  <SCORE.INTRA.POLAR>
0

>  <SCORE.INTRA.POLAR.0>
0

>  <SCORE.INTRA.REPUL>
0

>  <SCORE.INTRA.REPUL.0>
0

>  <SCORE.INTRA.SOLV>
-0.00243942

>  <SCORE.INTRA.SOLV.lig_0>
-127.307

>  <SCORE.INTRA.VDW>
-0.0664113

>  <SCORE.INTRA.VDW.0>
-2.19936

>  <SCORE.INTRA.norm>
-0.00136437

>  <SCORE.RESTR>
0

>  <SCORE.RESTR.CAVITY>
0

>  <SCORE.RESTR.norm>
0

>  <SCORE.SYSTEM>
0

>  <SCORE.SYSTEM.CONST>
0

>  <SCORE.SYSTEM.DIHEDRAL>
0

>  <SCORE.SYSTEM.SOLV>
0

>  <SCORE.SYSTEM.norm>
0

>  <SCORE.heavy>
46

>  <SCORE.norm>
-1.00857

>  <RMSD>
0.558

$$$$
ligand
 OpenBabel02271912143D
libRbt.so/2013.1/901 2013/11/27
 46 52  0  0  0  0  0  0  0  0999 V2000
  159.5726   46.2450  143.5261 P   0  0  1  0  0  0  0  0  0  0  0  0
  157.9726   42.2571  147.2635 P   0  0  1  0  0  0  0  0  0  0  0  0
  159.1336   46.0095  142.1038 O   0  5  0  0  0  0  0  0  0  0  0  0
  160.1951   47.5898  143.8321 O   0  0  0  0  0  0  0  0  0  0  0  0
  158.0390   46.7689  145.6173 C   0  0  0  0  0  0  0  0  0  0  0  0
  158.3258   45.9439  144.4956 O   0  0  0  0  0  0  0  0  0  0  0  0
  157.0852   46.0527  146.5591 C   0  0  1  0  0  0  0  0  0  0  0  0
  155.7896   46.6060  146.3769 O   0  0  0  0  0  0  0  0  0  0  0  0
  156.9424   44.5522  146.3377 C   0  0  1  0  0  0  0  0  0  0  0  0
  157.6697   43.8506  147.3354 O   0  0  0  0  0  0  0  0  0  0  0  0
  155.4689   44.3009  146.5667 C   0  0  1  0  0  0  0  0  0  0  0  0
  155.2409   44.0076  147.9465 O   0  0  0  0  0  0  0  0  0  0  0  0
  154.7861   45.6068  146.2807 C   0  0  2  0  0  0  0  0  0  0  0  0
  160.6771   41.6656  142.6022 C   0  0  1  0  0  0  0  0  0  0  0  0
  150.8137   44.2634  143.1245 N   0  0  0  0  0  0  0  0  0  0  0  0
  150.9619   44.0937  144.4519 C   0  0  1  0  0  0  0  0  0  0  0  0
  160.4397   43.1480  142.4031 C   0  0  2  0  0  0  0  0  0  0  0  0
  149.9744   43.4913  145.1514 N   0  0  0  0  0  0  0  0  0  0  0  0
  161.6442   43.7079  141.8725 O   0  0  0  0  0  0  0  0  0  0  0  0
  160.1524   43.6991  143.7872 C   0  0  2  0  0  0  0  0  0  0  0  0
  152.0568   44.4923  145.1384 N   0  0  0  0  0  0  0  0  0  0  0  0
  160.5863   45.0526  143.9133 O   0  0  0  0  0  0  0  0  0  0  0  0
  153.0871   45.0982  144.5104 C   0  0  2  0  0  0  0  0  0  0  0  0
  160.9442   42.7511  144.6851 C   0  0  2  0  0  0  0  0  0  0  0  0
  161.0966   41.5275  143.9624 O   0  0  0  0  0  0  0  0  0  0  0  0
  152.9944   45.3142  143.0632 C   0  0  2  0  0  0  0  0  0  0  0  0
  160.3038   42.4593  146.0458 C   0  0  0  0  0  0  0  0  0  0  0  0
  158.9152   42.1427  145.9566 O   0  0  0  0  0  0  0  0  0  0  0  0
  151.7645   44.8512  142.3783 C   0  0  0  0  0  0  0  0  0  0  0  0
  151.6303   45.0128  141.1414 O   0  0  0  0  0  0  0  0  0  0  0  0
  154.1394   45.9204  142.7020 N   0  0  0  0  0  0  0  0  0  0  0  0
  154.8973   46.0817  143.8132 C   0  0  0  0  0  0  0  0  0  0  0  0
  154.2653   45.5901  144.8931 N   0  0  1  0  0  0  0  0  0  0  0  0
  156.4419   40.8704  139.5907 N   0  0  0  0  0  0  0  0  0  0  0  0
  158.7872   41.9284  148.5005 O   0  5  0  0  0  0  0  0  0  0  0  0
  157.4913   41.6853  139.4021 C   0  0  2  0  0  0  0  0  0  0  0  0
  157.5031   42.4286  138.2855 N   0  0  0  0  0  0  0  0  0  0  0  0
  156.6895   41.5218  146.9614 O   0  0  0  0  0  0  0  0  0  0  0  0
  158.5250   41.7888  140.2698 N   0  0  0  0  0  0  0  0  0  0  0  0
  158.5502   41.0529  141.4008 C   0  0  1  0  0  0  0  0  0  0  0  0
  157.4232   40.1367  141.6673 C   0  0  1  0  0  0  0  0  0  0  0  0
  156.3349   40.0778  140.6585 C   0  0  0  0  0  0  0  0  0  0  0  0
  155.3358   39.3392  140.7942 O   0  0  0  0  0  0  0  0  0  0  0  0
  157.6953   39.5312  142.8342 N   0  0  0  0  0  0  0  0  0  0  0  0
  158.8867   40.0237  143.2736 C   0  0  0  0  0  0  0  0  0  0  0  0
  159.4013   40.9300  142.4191 N   0  0  2  0  0  0  0  0  0  0  0  0
  1  3  1  6  0  0  0
  1  4  2  0  0  0  0
  1  6  1  0  0  0  0
  1 22  1  0  0  0  0
  2 28  1  0  0  0  0
  2 35  1  1  0  0  0
  2 38  2  0  0  0  0
  2 10  1  0  0  0  0
  5  6  1  0  0  0  0
  7  5  1  6  0  0  0
  7  8  1  0  0  0  0
  7  9  1  0  0  0  0
  9 10  1  1  0  0  0
  9 11  1  0  0  0  0
 11 12  1  1  0  0  0
 11 13  1  0  0  0  0
 13  8  1  6  0  0  0
 13 33  1  0  0  0  0
 14 46  1  0  0  0  0
 14 17  1  0  0  0  0
 14 25  1  1  0  0  0
 15 16  1  0  0  0  0
 15 29  1  0  0  0  0
 16 18  1  6  0  0  0
 16 21  1  0  0  0  0
 17 19  1  1  0  0  0
 17 20  1  0  0  0  0
 20 22  1  6  0  0  0
 20 24  1  0  0  0  0
 23 21  1  6  0  0  0
 23 26  1  0  0  0  0
 23 33  1  0  0  0  0
 24 25  1  6  0  0  0
 24 27  1  0  0  0  0
 26 29  1  6  0  0  0
 26 31  1  0  0  0  0
 27 28  1  0  0  0  0
 29 30  2  0  0  0  0
 31 32  1  0  0  0  0
 33 32  1  1  0  0  0
 34 36  1  0  0  0  0
 34 42  1  0  0  0  0
 36 37  1  6  0  0  0
 36 39  1  0  0  0  0
 40 39  1  6  0  0  0
 40 41  1  0  0  0  0
 40 46  1  0  0  0  0
 41 42  1  6  0  0  0
 41 44  1  0  0  0  0
 42 43  2  0  0  0  0
 44 45  1  0  0  0  0
 46 45  1  1  0  0  0
M  CHG  2   3  -1  35  -1
M  END
>  <CHROM.1>
-158.84660435,49.53124664,157.05278269,43.57658087,143.96426763,-0.28780213
-0.16794173,1.01780823

>  <Name>
ligand

>  <RI>
0

>  <Rbt.Current_Directory>
/home/itssahil/PROJECTS/Mol_Feturizer/Test_systems_manuscript/rnas/4yb0

>  <Rbt.Executable>
rbdock ($Id: //depot/dev/client3/rdock/2013.1/src/exe/rbdock.cxx#4 $)

>  <Rbt.Library>
libRbt.so (2013.1, Build901 2013/11/27)

>  <Rbt.Parameter_File>
/export/apps/rDock/src/rDock_2013.1_src/data/scripts/dock_solv.prm

>  <Rbt.Receptor>
prm/pocket_docking_2.prm

>  <SCORE>
-46.5642

>  <SCORE.INTER>
-46.5298

>  <SCORE.INTER.CONST>
1

>  <SCORE.INTER.POLAR>
0

>  <SCORE.INTER.ROT>
2

>  <SCORE.INTER.SOLV>
40.5093

>  <SCORE.INTER.VDW>
-49.4563

>  <SCORE.INTER.norm>
-1.01152

>  <SCORE.INTRA>
-0.0346528

>  <SCORE.INTRA.DIHEDRAL>
0.0134013

>  <SCORE.INTRA.DIHEDRAL.0>
2.42188

>  <SCORE.INTRA.POLAR>
0

>  <SCORE.INTRA.POLAR.0>
0

>  <SCORE.INTRA.REPUL>
0

>  <SCORE.INTRA.REPUL.0>
0

>  <SCORE.INTRA.SOLV>
-0.00210736

>  <SCORE.INTRA.SOLV.lig_0>
-127.307

>  <SCORE.INTRA.VDW>
-0.0402998

>  <SCORE.INTRA.VDW.0>
-2.19936

>  <SCORE.INTRA.norm>
-0.000753322

>  <SCORE.RESTR>
0.000249

>  <SCORE.RESTR.CAVITY>
0.000249

>  <SCORE.RESTR.norm>
5.41304e-06

>  <SCORE.SYSTEM>
0

>  <SCORE.SYSTEM.CONST>
0

>  <SCORE.SYSTEM.DIHEDRAL>
0

>  <SCORE.SYSTEM.SOLV>
0

>  <SCORE.SYSTEM.norm>
0

>  <SCORE.heavy>
46

>  <SCORE.norm>
-1.01227

>  <RMSD>
0.563

$$$$
ligand
 OpenBabel02271912143D
libRbt.so/2013.1/901 2013/11/27
 46 52  0  0  0  0  0  0  0  0999 V2000
  159.5431   46.2987  143.5170 P   0  0  1  0  0  0  0  0  0  0  0  0
  157.9764   42.2914  147.2477 P   0  0  1  0  0  0  0  0  0  0  0  0
  159.1041   46.0630  142.0948 O   0  5  0  0  0  0  0  0  0  0  0  0
  160.1562   47.6473  143.8252 O   0  0  0  0  0  0  0  0  0  0  0  0
  158.0082   46.8070  145.6111 C   0  0  0  0  0  0  0  0  0  0  0  0
  158.2996   45.9865  144.4873 O   0  0  0  0  0  0  0  0  0  0  0  0
  157.0606   46.0819  146.5525 C   0  0  1  0  0  0  0  0  0  0  0  0
  155.7608   46.6262  146.3730 O   0  0  0  0  0  0  0  0  0  0  0  0
  156.9285   44.5809  146.3281 C   0  0  1  0  0  0  0  0  0  0  0  0
  157.6620   43.8825  147.3234 O   0  0  0  0  0  0  0  0  0  0  0  0
  155.4571   44.3184  146.5582 C   0  0  1  0  0  0  0  0  0  0  0  0
  155.2329   44.0205  147.9377 O   0  0  0  0  0  0  0  0  0  0  0  0
  154.7645   45.6200  146.2758 C   0  0  2  0  0  0  0  0  0  0  0  0
  160.6795   41.7294  142.5821 C   0  0  1  0  0  0  0  0  0  0  0  0
  150.7913   44.2691  143.1237 N   0  0  0  0  0  0  0  0  0  0  0  0
  150.9414   44.0995  144.4510 C   0  0  1  0  0  0  0  0  0  0  0  0
  160.4312   43.2104  142.3864 C   0  0  2  0  0  0  0  0  0  0  0  0
  149.9559   43.4951  145.1515 N   0  0  0  0  0  0  0  0  0  0  0  0
  161.6310   43.7802  141.8557 O   0  0  0  0  0  0  0  0  0  0  0  0
  160.1415   43.7565  143.7721 C   0  0  2  0  0  0  0  0  0  0  0  0
  152.0362   44.5002  145.1363 N   0  0  0  0  0  0  0  0  0  0  0  0
  160.5658   45.1129  143.9006 O   0  0  0  0  0  0  0  0  0  0  0  0
  153.0646   45.1083  144.5074 C   0  0  2  0  0  0  0  0  0  0  0  0
  160.9413   42.8124  144.6670 C   0  0  2  0  0  0  0  0  0  0  0  0
  161.1016   41.5915  143.9415 O   0  0  0  0  0  0  0  0  0  0  0  0
  152.9699   45.3244  143.0602 C   0  0  2  0  0  0  0  0  0  0  0  0
  160.3046   42.5131  146.0278 C   0  0  0  0  0  0  0  0  0  0  0  0
  158.9182   42.1866  145.9396 O   0  0  0  0  0  0  0  0  0  0  0  0
  151.7402   44.8590  142.3766 C   0  0  0  0  0  0  0  0  0  0  0  0
  151.6043   45.0205  141.1399 O   0  0  0  0  0  0  0  0  0  0  0  0
  154.1132   45.9329  142.6979 N   0  0  0  0  0  0  0  0  0  0  0  0
  154.8721   46.0956  143.8083 C   0  0  0  0  0  0  0  0  0  0  0  0
  154.2422   45.6025  144.8888 N   0  0  1  0  0  0  0  0  0  0  0  0
  156.4108   40.9621  139.6111 N   0  0  0  0  0  0  0  0  0  0  0  0
  158.7947   41.9659  148.4831 O   0  5  0  0  0  0  0  0  0  0  0  0
  157.4490   41.7924  139.4277 C   0  0  2  0  0  0  0  0  0  0  0  0
  157.4376   42.5624  138.3294 N   0  0  0  0  0  0  0  0  0  0  0  0
  156.6983   41.5475  146.9456 O   0  0  0  0  0  0  0  0  0  0  0  0
  158.4937   41.8859  140.2833 N   0  0  0  0  0  0  0  0  0  0  0  0
  158.5424   41.1233  141.3957 C   0  0  1  0  0  0  0  0  0  0  0  0
  157.4287   40.1891  141.6555 C   0  0  1  0  0  0  0  0  0  0  0  0
  156.3269   40.1430  140.6607 C   0  0  0  0  0  0  0  0  0  0  0  0
  155.3374   39.3909  140.7923 O   0  0  0  0  0  0  0  0  0  0  0  0
  157.7233   39.5586  142.8035 N   0  0  0  0  0  0  0  0  0  0  0  0
  158.9157   40.0530  143.2383 C   0  0  0  0  0  0  0  0  0  0  0  0
  159.4089   40.9850  142.3989 N   0  0  2  0  0  0  0  0  0  0  0  0
  1  3  1  6  0  0  0
  1  4  2  0  0  0  0
  1  6  1  0  0  0  0
  1 22  1  0  0  0  0
  2 28  1  0  0  0  0
  2 35  1  1  0  0  0
  2 38  2  0  0  0  0
  2 10  1  0  0  0  0
  5  6  1  0  0  0  0
  7  5  1  6  0  0  0
  7  8  1  0  0  0  0
  7  9  1  0  0  0  0
  9 10  1  1  0  0  0
  9 11  1  0  0  0  0
 11 12  1  1  0  0  0
 11 13  1  0  0  0  0
 13  8  1  6  0  0  0
 13 33  1  0  0  0  0
 14 46  1  0  0  0  0
 14 17  1  0  0  0  0
 14 25  1  1  0  0  0
 15 16  1  0  0  0  0
 15 29  1  0  0  0  0
 16 18  1  6  0  0  0
 16 21  1  0  0  0  0
 17 19  1  1  0  0  0
 17 20  1  0  0  0  0
 20 22  1  6  0  0  0
 20 24  1  0  0  0  0
 23 21  1  6  0  0  0
 23 26  1  0  0  0  0
 23 33  1  0  0  0  0
 24 25  1  6  0  0  0
 24 27  1  0  0  0  0
 26 29  1  6  0  0  0
 26 31  1  0  0  0  0
 27 28  1  0  0  0  0
 29 30  2  0  0  0  0
 31 32  1  0  0  0  0
 33 32  1  1  0  0  0
 34 36  1  0  0  0  0
 34 42  1  0  0  0  0
 36 37  1  6  0  0  0
 36 39  1  0  0  0  0
 40 39  1  6  0  0  0
 40 41  1  0  0  0  0
 40 46  1  0  0  0  0
 41 42  1  6  0  0  0
 41 44  1  0  0  0  0
 42 43  2  0  0  0  0
 44 45  1  0  0  0  0
 46 45  1  1  0  0  0
M  CHG  2   3  -1  35  -1
M  END
>  <CHROM.1>
-158.52593483,48.06356963,157.03846475,43.61845081,143.95676656,-0.27356855
-0.16317398,1.02291108

>  <Name>
ligand

>  <RI>
0

>  <Rbt.Current_Directory>
/home/itssahil/PROJECTS/Mol_Feturizer/Test_systems_manuscript/rnas/4yb0

>  <Rbt.Executable>
rbdock ($Id: //depot/dev/client3/rdock/2013.1/src/exe/rbdock.cxx#4 $)

>  <Rbt.Library>
libRbt.so (2013.1, Build901 2013/11/27)

>  <Rbt.Parameter_File>
/export/apps/rDock/src/rDock_2013.1_src/data/scripts/dock_solv.prm

>  <Rbt.Receptor>
prm/pocket_docking_2.prm

>  <SCORE>
-46.5992

>  <SCORE.INTER>
-46.5638

>  <SCORE.INTER.CONST>
1

>  <SCORE.INTER.POLAR>
0

>  <SCORE.INTER.ROT>
2

>  <SCORE.INTER.SOLV>
40.4442

>  <SCORE.INTER.VDW>
-49.4573

>  <SCORE.INTER.norm>
-1.01226

>  <SCORE.INTRA>
-0.0354177

>  <SCORE.INTRA.DIHEDRAL>
0.0155322

>  <SCORE.INTRA.DIHEDRAL.0>
2.42188

>  <SCORE.INTRA.POLAR>
0

>  <SCORE.INTRA.POLAR.0>
0

>  <SCORE.INTRA.REPUL>
0

>  <SCORE.INTRA.REPUL.0>
0

>  <SCORE.INTRA.SOLV>
-0.00146113

>  <SCORE.INTRA.SOLV.lig_0>
-127.307

>  <SCORE.INTRA.VDW>
-0.0424533

>  <SCORE.INTRA.VDW.0>
-2.19936

>  <SCORE.INTRA.norm>
-0.000769951

>  <SCORE.RESTR>
0

>  <SCORE.RESTR.CAVITY>
0

>  <SCORE.RESTR.norm>
0

>  <SCORE.SYSTEM>
0

>  <SCORE.SYSTEM.CONST>
0

>  <SCORE.SYSTEM.DIHEDRAL>
0

>  <SCORE.SYSTEM.SOLV>
0

>  <SCORE.SYSTEM.norm>
0

>  <SCORE.heavy>
46

>  <SCORE.norm>
-1.01303

>  <RMSD>
0.575

$$$$
ligand
 OpenBabel02271912143D
libRbt.so/2013.1/901 2013/11/27
 46 52  0  0  0  0  0  0  0  0999 V2000
  159.5326   46.2997  143.5111 P   0  0  1  0  0  0  0  0  0  0  0  0
  157.9602   42.2970  147.2442 P   0  0  1  0  0  0  0  0  0  0  0  0
  159.0913   46.0650  142.0894 O   0  5  0  0  0  0  0  0  0  0  0  0
  160.1496   47.6467  143.8183 O   0  0  0  0  0  0  0  0  0  0  0  0
  158.0016   46.8122  145.6070 C   0  0  0  0  0  0  0  0  0  0  0  0
  158.2896   45.9908  144.4829 O   0  0  0  0  0  0  0  0  0  0  0  0
  157.0534   46.0897  146.5496 C   0  0  1  0  0  0  0  0  0  0  0  0
  155.7548   46.6374  146.3717 O   0  0  0  0  0  0  0  0  0  0  0  0
  156.9171   44.5890  146.3256 C   0  0  1  0  0  0  0  0  0  0  0  0
  157.6501   43.8888  147.3201 O   0  0  0  0  0  0  0  0  0  0  0  0
  155.4453   44.3304  146.5576 C   0  0  1  0  0  0  0  0  0  0  0  0
  155.2221   44.0333  147.9374 O   0  0  0  0  0  0  0  0  0  0  0  0
  154.7558   45.6337  146.2758 C   0  0  2  0  0  0  0  0  0  0  0  0
  160.6561   41.7273  142.5753 C   0  0  1  0  0  0  0  0  0  0  0  0
  150.7954   44.2503  143.1217 N   0  0  0  0  0  0  0  0  0  0  0  0
  150.9495   44.0752  144.4478 C   0  0  1  0  0  0  0  0  0  0  0  0
  160.4114   43.2090  142.3798 C   0  0  2  0  0  0  0  0  0  0  0  0
  149.9728   43.4544  145.1463 N   0  0  0  0  0  0  0  0  0  0  0  0
  161.6120   43.7756  141.8474 O   0  0  0  0  0  0  0  0  0  0  0  0
  160.1248   43.7560  143.7657 C   0  0  2  0  0  0  0  0  0  0  0  0
  152.0402   44.4859  145.1339 N   0  0  0  0  0  0  0  0  0  0  0  0
  160.5528   45.1113  143.8935 O   0  0  0  0  0  0  0  0  0  0  0  0
  153.0599   45.1105  144.5069 C   0  0  2  0  0  0  0  0  0  0  0  0
  160.9233   42.8099  144.6598 C   0  0  2  0  0  0  0  0  0  0  0  0
  161.0796   41.5885  143.9342 O   0  0  0  0  0  0  0  0  0  0  0  0
  152.9603   45.3334  143.0612 C   0  0  2  0  0  0  0  0  0  0  0  0
  160.2875   42.5125  146.0214 C   0  0  0  0  0  0  0  0  0  0  0  0
  158.9002   42.1895  145.9349 O   0  0  0  0  0  0  0  0  0  0  0  0
  151.7356   44.8563  142.3766 C   0  0  0  0  0  0  0  0  0  0  0  0
  151.5959   45.0231  141.1411 O   0  0  0  0  0  0  0  0  0  0  0  0
  154.0953   45.9584  142.7007 N   0  0  0  0  0  0  0  0  0  0  0  0
  154.8537   46.1245  143.8109 C   0  0  0  0  0  0  0  0  0  0  0  0
  154.2317   45.6174  144.8895 N   0  0  1  0  0  0  0  0  0  0  0  0
  156.3987   40.9459  139.5917 N   0  0  0  0  0  0  0  0  0  0  0  0
  158.7793   41.9695  148.4787 O   0  5  0  0  0  0  0  0  0  0  0  0
  157.4412   41.7700  139.4047 C   0  0  2  0  0  0  0  0  0  0  0  0
  157.4382   42.5284  138.2982 N   0  0  0  0  0  0  0  0  0  0  0  0
  156.6798   41.5563  146.9438 O   0  0  0  0  0  0  0  0  0  0  0  0
  158.4821   41.8683  140.2643 N   0  0  0  0  0  0  0  0  0  0  0  0
  158.5222   41.1175  141.3850 C   0  0  1  0  0  0  0  0  0  0  0  0
  157.4035   40.1906  141.6492 C   0  0  1  0  0  0  0  0  0  0  0  0
  156.3064   40.1383  140.6495 C   0  0  0  0  0  0  0  0  0  0  0  0
  155.3132   39.3917  140.7843 O   0  0  0  0  0  0  0  0  0  0  0  0
  157.6899   39.5711  142.8053 N   0  0  0  0  0  0  0  0  0  0  0  0
  158.8822   40.0652  143.2406 C   0  0  0  0  0  0  0  0  0  0  0  0
  159.3833   40.9863  142.3938 N   0  0  2  0  0  0  0  0  0  0  0  0
  1  3  1  6  0  0  0
  1  4  2  0  0  0  0
  1  6  1  0  0  0  0
  1 22  1  0  0  0  0
  2 28  1  0  0  0  0
  2 35  1  1  0  0  0
  2 38  2  0  0  0  0
  2 10  1  0  0  0  0
  5  6  1  0  0  0  0
  7  5  1  6  0  0  0
  7  8  1  0  0  0  0
  7  9  1  0  0  0  0
  9 10  1  1  0  0  0
  9 11  1  0  0  0  0
 11 12  1  1  0  0  0
 11 13  1  0  0  0  0
 13  8  1  6  0  0  0
 13 33  1  0  0  0  0
 14 46  1  0  0  0  0
 14 17  1  0  0  0  0
 14 25  1  1  0  0  0
 15 16  1  0  0  0  0
 15 29  1  0  0  0  0
 16 18  1  6  0  0  0
 16 21  1  0  0  0  0
 17 19  1  1  0  0  0
 17 20  1  0  0  0  0
 20 22  1  6  0  0  0
 20 24  1  0  0  0  0
 23 21  1  6  0  0  0
 23 26  1  0  0  0  0
 23 33  1  0  0  0  0
 24 25  1  6  0  0  0
 24 27  1  0  0  0  0
 26 29  1  6  0  0  0
 26 31  1  0  0  0  0
 27 28  1  0  0  0  0
 29 30  2  0  0  0  0
 31 32  1  0  0  0  0
 33 32  1  1  0  0  0
 34 36  1  0  0  0  0
 34 42  1  0  0  0  0
 36 37  1  6  0  0  0
 36 39  1  0  0  0  0
 40 39  1  6  0  0  0
 40 41  1  0  0  0  0
 40 46  1  0  0  0  0
 41 42  1  6  0  0  0
 41 44  1  0  0  0  0
 42 43  2  0  0  0  0
 44 45  1  0  0  0  0
 46 45  1  1  0  0  0
M  CHG  2   3  -1  35  -1
M  END
>  <CHROM.1>
-159.46077191,48.76239510,157.02569753,43.61869355,143.95152272,-0.27906626
-0.16103857,1.02022156

>  <Name>
ligand

>  <RI>
0

>  <Rbt.Current_Directory>
/home/itssahil/PROJECTS/Mol_Feturizer/Test_systems_manuscript/rnas/4yb0

>  <Rbt.Executable>
rbdock ($Id: //depot/dev/client3/rdock/2013.1/src/exe/rbdock.cxx#4 $)

>  <Rbt.Library>
libRbt.so (2013.1, Build901 2013/11/27)

>  <Rbt.Parameter_File>
/export/apps/rDock/src/rDock_2013.1_src/data/scripts/dock_solv.prm

>  <Rbt.Receptor>
prm/pocket_docking_2.prm

>  <SCORE>
-46.5605

>  <SCORE.INTER>
-46.5231

>  <SCORE.INTER.CONST>
1

>  <SCORE.INTER.POLAR>
0

>  <SCORE.INTER.ROT>
2

>  <SCORE.INTER.SOLV>
40.4804

>  <SCORE.INTER.VDW>
-49.4422

>  <SCORE.INTER.norm>
-1.01137

>  <SCORE.INTRA>
-0.0374159

>  <SCORE.INTRA.DIHEDRAL>
0.0140852

>  <SCORE.INTRA.DIHEDRAL.0>
2.42188

>  <SCORE.INTRA.POLAR>
0

>  <SCORE.INTRA.POLAR.0>
0

>  <SCORE.INTRA.REPUL>
0

>  <SCORE.INTRA.REPUL.0>
0

>  <SCORE.INTRA.SOLV>
-0.0014941

>  <SCORE.INTRA.SOLV.lig_0>
-127.307

>  <SCORE.INTRA.VDW>
-0.0437114

>  <SCORE.INTRA.VDW.0>
-2.19936

>  <SCORE.INTRA.norm>
-0.000813389

>  <SCORE.RESTR>
0

>  <SCORE.RESTR.CAVITY>
0

>  <SCORE.RESTR.norm>
0

>  <SCORE.SYSTEM>
0

>  <SCORE.SYSTEM.CONST>
0

>  <SCORE.SYSTEM.DIHEDRAL>
0

>  <SCORE.SYSTEM.SOLV>
0

>  <SCORE.SYSTEM.norm>
0

>  <SCORE.heavy>
46

>  <SCORE.norm>
-1.01218

>  <RMSD>
0.580

$$$$
ligand
 OpenBabel02271912143D
libRbt.so/2013.1/901 2013/11/27
 46 52  0  0  0  0  0  0  0  0999 V2000
  159.5201   46.2551  143.5633 P   0  0  1  0  0  0  0  0  0  0  0  0
  157.8993   42.2160  147.2361 P   0  0  1  0  0  0  0  0  0  0  0  0
  159.0886   46.0396  142.1356 O   0  5  0  0  0  0  0  0  0  0  0  0
  160.1412   47.5953  143.8914 O   0  0  0  0  0  0  0  0  0  0  0  0
  157.9754   46.7502  145.6534 C   0  0  0  0  0  0  0  0  0  0  0  0
  158.2680   45.9409  144.5218 O   0  0  0  0  0  0  0  0  0  0  0  0
  157.0164   46.0212  146.5800 C   0  0  1  0  0  0  0  0  0  0  0  0
  155.7219   46.5774  146.3987 O   0  0  0  0  0  0  0  0  0  0  0  0
  156.8746   44.5240  146.3370 C   0  0  1  0  0  0  0  0  0  0  0  0
  157.5963   43.8084  147.3286 O   0  0  0  0  0  0  0  0  0  0  0  0
  155.3998   44.2700  146.5545 C   0  0  1  0  0  0  0  0  0  0  0  0
  155.1644   43.9575  147.9289 O   0  0  0  0  0  0  0  0  0  0  0  0
  154.7188   45.5800  146.2832 C   0  0  2  0  0  0  0  0  0  0  0  0
  160.6284   41.6887  142.5815 C   0  0  1  0  0  0  0  0  0  0  0  0
  150.8090   44.1882  143.0702 N   0  0  0  0  0  0  0  0  0  0  0  0
  150.9566   43.9882  144.3935 C   0  0  1  0  0  0  0  0  0  0  0  0
  160.3925   43.1738  142.4019 C   0  0  2  0  0  0  0  0  0  0  0  0
  149.9868   43.3345  145.0713 N   0  0  0  0  0  0  0  0  0  0  0  0
  161.5999   43.7407  141.8856 O   0  0  0  0  0  0  0  0  0  0  0  0
  160.0979   43.7057  143.7920 C   0  0  2  0  0  0  0  0  0  0  0  0
  152.0341   44.4051  145.0964 N   0  0  0  0  0  0  0  0  0  0  0  0
  160.5314   45.0572  143.9393 O   0  0  0  0  0  0  0  0  0  0  0  0
  153.0463   45.0619  144.4906 C   0  0  2  0  0  0  0  0  0  0  0  0
  160.8847   42.7450  144.6808 C   0  0  2  0  0  0  0  0  0  0  0  0
  161.0406   41.5316  143.9419 O   0  0  0  0  0  0  0  0  0  0  0  0
  152.9532   45.3132  143.0491 C   0  0  2  0  0  0  0  0  0  0  0  0
  160.2370   42.4345  146.0338 C   0  0  0  0  0  0  0  0  0  0  0  0
  158.8488   42.1195  145.9328 O   0  0  0  0  0  0  0  0  0  0  0  0
  151.7429   44.8274  142.3452 C   0  0  0  0  0  0  0  0  0  0  0  0
  151.6092   45.0174  141.1123 O   0  0  0  0  0  0  0  0  0  0  0  0
  154.0787   45.9670  142.7105 N   0  0  0  0  0  0  0  0  0  0  0  0
  154.8255   46.1241  143.8298 C   0  0  0  0  0  0  0  0  0  0  0  0
  154.2054   45.5828  144.8928 N   0  0  1  0  0  0  0  0  0  0  0  0
  156.3794   40.9802  139.5680 N   0  0  0  0  0  0  0  0  0  0  0  0
  158.7072   41.8698  148.4728 O   0  5  0  0  0  0  0  0  0  0  0  0
  157.4257   41.8036  139.4003 C   0  0  2  0  0  0  0  0  0  0  0  0
  157.4299   42.5825  138.3083 N   0  0  0  0  0  0  0  0  0  0  0  0
  156.6177   41.4854  146.9170 O   0  0  0  0  0  0  0  0  0  0  0  0
  158.4638   41.8816  140.2656 N   0  0  0  0  0  0  0  0  0  0  0  0
  158.4967   41.1097  141.3720 C   0  0  1  0  0  0  0  0  0  0  0  0
  157.3734   40.1824  141.6147 C   0  0  1  0  0  0  0  0  0  0  0  0
  156.2799   40.1533  140.6101 C   0  0  0  0  0  0  0  0  0  0  0  0
  155.2833   39.4082  140.7271 O   0  0  0  0  0  0  0  0  0  0  0  0
  157.6530   39.5402  142.7599 N   0  0  0  0  0  0  0  0  0  0  0  0
  158.8456   40.0214  143.2089 C   0  0  0  0  0  0  0  0  0  0  0  0
  159.3535   40.9562  142.3814 N   0  0  2  0  0  0  0  0  0  0  0  0
  1  3  1  6  0  0  0
  1  4  2  0  0  0  0
  1  6  1  0  0  0  0
  1 22  1  0  0  0  0
  2 28  1  0  0  0  0
  2 35  1  1  0  0  0
  2 38  2  0  0  0  0
  2 10  1  0  0  0  0
  5  6  1  0  0  0  0
  7  5  1  6  0  0  0
  7  8  1  0  0  0  0
  7  9  1  0  0  0  0
  9 10  1  1  0  0  0
  9 11  1  0  0  0  0
 11 12  1  1  0  0  0
 11 13  1  0  0  0  0
 13  8  1  6  0  0  0
 13 33  1  0  0  0  0
 14 46  1  0  0  0  0
 14 17  1  0  0  0  0
 14 25  1  1  0  0  0
 15 16  1  0  0  0  0
 15 29  1  0  0  0  0
 16 18  1  6  0  0  0
 16 21  1  0  0  0  0
 17 19  1  1  0  0  0
 17 20  1  0  0  0  0
 20 22  1  6  0  0  0
 20 24  1  0  0  0  0
 23 21  1  6  0  0  0
 23 26  1  0  0  0  0
 23 33  1  0  0  0  0
 24 25  1  6  0  0  0
 24 27  1  0  0  0  0
 26 29  1  6  0  0  0
 26 31  1  0  0  0  0
 27 28  1  0  0  0  0
 29 30  2  0  0  0  0
 31 32  1  0  0  0  0
 33 32  1  1  0  0  0
 34 36  1  0  0  0  0
 34 42  1  0  0  0  0
 36 37  1  6  0  0  0
 36 39  1  0  0  0  0
 40 39  1  6  0  0  0
 40 41  1  0  0  0  0
 40 46  1  0  0  0  0
 41 42  1  6  0  0  0
 41 44  1  0  0  0  0
 42 43  2  0  0  0  0
 44 45  1  0  0  0  0
 46 45  1  1  0  0  0
M  CHG  2   3  -1  35  -1
M  END
>  <CHROM.1>
-160.92646471,48.30692202,156.99908539,43.57613203,143.95234962,-0.26677304
-0.16450947,1.03152941

>  <Name>
ligand

>  <RI>
0

>  <Rbt.Current_Directory>
/home/itssahil/PROJECTS/Mol_Feturizer/Test_systems_manuscript/rnas/4yb0

>  <Rbt.Executable>
rbdock ($Id: //depot/dev/client3/rdock/2013.1/src/exe/rbdock.cxx#4 $)

>  <Rbt.Library>
libRbt.so (2013.1, Build901 2013/11/27)

>  <Rbt.Parameter_File>
/export/apps/rDock/src/rDock_2013.1_src/data/scripts/dock_solv.prm

>  <Rbt.Receptor>
prm/pocket_docking_2.prm

>  <SCORE>
-46.6286

>  <SCORE.INTER>
-46.5895

>  <SCORE.INTER.CONST>
1

>  <SCORE.INTER.POLAR>
0

>  <SCORE.INTER.ROT>
2

>  <SCORE.INTER.SOLV>
40.4205

>  <SCORE.INTER.VDW>
-49.4665

>  <SCORE.INTER.norm>
-1.01281

>  <SCORE.INTRA>
-0.0391565

>  <SCORE.INTRA.DIHEDRAL>
0.0137637

>  <SCORE.INTRA.DIHEDRAL.0>
2.42188

>  <SCORE.INTRA.POLAR>
0

>  <SCORE.INTRA.POLAR.0>
0

>  <SCORE.INTRA.REPUL>
0

>  <SCORE.INTRA.REPUL.0>
0

>  <SCORE.INTRA.SOLV>
-0.000736448

>  <SCORE.INTRA.SOLV.lig_0>
-127.307

>  <SCORE.INTRA.VDW>
-0.0456702

>  <SCORE.INTRA.VDW.0>
-2.19936

>  <SCORE.INTRA.norm>
-0.000851229

>  <SCORE.RESTR>
0

>  <SCORE.RESTR.CAVITY>
0

>  <SCORE.RESTR.norm>
0

>  <SCORE.SYSTEM>
0

>  <SCORE.SYSTEM.CONST>
0

>  <SCORE.SYSTEM.DIHEDRAL>
0

>  <SCORE.SYSTEM.SOLV>
0

>  <SCORE.SYSTEM.norm>
0

>  <SCORE.heavy>
46

>  <SCORE.norm>
-1.01367

>  <RMSD>
0.597

$$$$
ligand
 OpenBabel02271912143D
libRbt.so/2013.1/901 2013/11/27
 46 52  0  0  0  0  0  0  0  0999 V2000
  159.5226   46.2957  143.5358 P   0  0  1  0  0  0  0  0  0  0  0  0
  157.9151   42.2820  147.2422 P   0  0  1  0  0  0  0  0  0  0  0  0
  159.0941   46.0655  142.1095 O   0  5  0  0  0  0  0  0  0  0  0  0
  160.1373   47.6415  143.8528 O   0  0  0  0  0  0  0  0  0  0  0  0
  157.9729   46.8023  145.6194 C   0  0  0  0  0  0  0  0  0  0  0  0
  158.2707   45.9843  144.4954 O   0  0  0  0  0  0  0  0  0  0  0  0
  157.0160   46.0773  146.5511 C   0  0  1  0  0  0  0  0  0  0  0  0
  155.7192   46.6259  146.3632 O   0  0  0  0  0  0  0  0  0  0  0  0
  156.8812   44.5773  146.3212 C   0  0  1  0  0  0  0  0  0  0  0  0
  157.6048   43.8738  147.3202 O   0  0  0  0  0  0  0  0  0  0  0  0
  155.4072   44.3185  146.5391 C   0  0  1  0  0  0  0  0  0  0  0  0
  155.1714   44.0172  147.9159 O   0  0  0  0  0  0  0  0  0  0  0  0
  154.7207   45.6229  146.2552 C   0  0  2  0  0  0  0  0  0  0  0  0
  160.6529   41.7258  142.5961 C   0  0  1  0  0  0  0  0  0  0  0  0
  150.8213   44.1857  143.0496 N   0  0  0  0  0  0  0  0  0  0  0  0
  150.9680   43.9982  144.3749 C   0  0  1  0  0  0  0  0  0  0  0  0
  160.4105   43.2082  142.4030 C   0  0  2  0  0  0  0  0  0  0  0  0
  150.0000   43.3465  145.0572 N   0  0  0  0  0  0  0  0  0  0  0  0
  161.6161   43.7759  141.8833 O   0  0  0  0  0  0  0  0  0  0  0  0
  160.1116   43.7510  143.7879 C   0  0  2  0  0  0  0  0  0  0  0  0
  152.0427   44.4260  145.0755 N   0  0  0  0  0  0  0  0  0  0  0  0
  160.5389   45.1057  143.9238 O   0  0  0  0  0  0  0  0  0  0  0  0
  153.0529   45.0817  144.4651 C   0  0  2  0  0  0  0  0  0  0  0  0
  160.9016   42.8018  144.6863 C   0  0  2  0  0  0  0  0  0  0  0  0
  161.0640   41.5826  143.9584 O   0  0  0  0  0  0  0  0  0  0  0  0
  152.9607   45.3197  143.0213 C   0  0  2  0  0  0  0  0  0  0  0  0
  160.2534   42.5004  146.0411 C   0  0  0  0  0  0  0  0  0  0  0  0
  158.8668   42.1783  145.9411 O   0  0  0  0  0  0  0  0  0  0  0  0
  151.7535   44.8224  142.3202 C   0  0  0  0  0  0  0  0  0  0  0  0
  151.6206   45.0007  141.0855 O   0  0  0  0  0  0  0  0  0  0  0  0
  154.0839   45.9752  142.6784 N   0  0  0  0  0  0  0  0  0  0  0  0
  154.8285   46.1455  143.7972 C   0  0  0  0  0  0  0  0  0  0  0  0
  154.2092   45.6112  144.8641 N   0  0  1  0  0  0  0  0  0  0  0  0
  156.4093   40.9743  139.5855 N   0  0  0  0  0  0  0  0  0  0  0  0
  158.7228   41.9504  148.4830 O   0  5  0  0  0  0  0  0  0  0  0  0
  157.4518   41.8012  139.4122 C   0  0  2  0  0  0  0  0  0  0  0  0
  157.4530   42.5719  138.3142 N   0  0  0  0  0  0  0  0  0  0  0  0
  156.6372   41.5428  146.9279 O   0  0  0  0  0  0  0  0  0  0  0  0
  158.4889   41.8908  140.2774 N   0  0  0  0  0  0  0  0  0  0  0  0
  158.5248   41.1275  141.3898 C   0  0  1  0  0  0  0  0  0  0  0  0
  157.4057   40.1968  141.6388 C   0  0  1  0  0  0  0  0  0  0  0  0
  156.3130   40.1549  140.6338 C   0  0  0  0  0  0  0  0  0  0  0  0
  155.3198   39.4060  140.7559 O   0  0  0  0  0  0  0  0  0  0  0  0
  157.6876   39.5647  142.7891 N   0  0  0  0  0  0  0  0  0  0  0  0
  158.8776   40.0549  143.2351 C   0  0  0  0  0  0  0  0  0  0  0  0
  159.3816   40.9858  142.4008 N   0  0  2  0  0  0  0  0  0  0  0  0
  1  3  1  6  0  0  0
  1  4  2  0  0  0  0
  1  6  1  0  0  0  0
  1 22  1  0  0  0  0
  2 28  1  0  0  0  0
  2 35  1  1  0  0  0
  2 38  2  0  0  0  0
  2 10  1  0  0  0  0
  5  6  1  0  0  0  0
  7  5  1  6  0  0  0
  7  8  1  0  0  0  0
  7  9  1  0  0  0  0
  9 10  1  1  0  0  0
  9 11  1  0  0  0  0
 11 12  1  1  0  0  0
 11 13  1  0  0  0  0
 13  8  1  6  0  0  0
 13 33  1  0  0  0  0
 14 46  1  0  0  0  0
 14 17  1  0  0  0  0
 14 25  1  1  0  0  0
 15 16  1  0  0  0  0
 15 29  1  0  0  0  0
 16 18  1  6  0  0  0
 16 21  1  0  0  0  0
 17 19  1  1  0  0  0
 17 20  1  0  0  0  0
 20 22  1  6  0  0  0
 20 24  1  0  0  0  0
 23 21  1  6  0  0  0
 23 26  1  0  0  0  0
 23 33  1  0  0  0  0
 24 25  1  6  0  0  0
 24 27  1  0  0  0  0
 26 29  1  6  0  0  0
 26 31  1  0  0  0  0
 27 28  1  0  0  0  0
 29 30  2  0  0  0  0
 31 32  1  0  0  0  0
 33 32  1  1  0  0  0
 34 36  1  0  0  0  0
 34 42  1  0  0  0  0
 36 37  1  6  0  0  0
 36 39  1  0  0  0  0
 40 39  1  6  0  0  0
 40 41  1  0  0  0  0
 40 46  1  0  0  0  0
 41 42  1  6  0  0  0
 41 44  1  0  0  0  0
 42 43  2  0  0  0  0
 44 45  1  0  0  0  0
 46 45  1  1  0  0  0
M  CHG  2   3  -1  35  -1
M  END
>  <CHROM.1>
-160.91181471,48.22386902,157.01299115,43.60924985,143.94554022,-0.26256862
-0.16143574,1.02335424

>  <Name>
ligand

>  <RI>
0

>  <Rbt.Current_Directory>
/home/itssahil/PROJECTS/Mol_Feturizer/Test_systems_manuscript/rnas/4yb0

>  <Rbt.Executable>
rbdock ($Id: //depot/dev/client3/rdock/2013.1/src/exe/rbdock.cxx#4 $)

>  <Rbt.Library>
libRbt.so (2013.1, Build901 2013/11/27)

>  <Rbt.Parameter_File>
/export/apps/rDock/src/rDock_2013.1_src/data/scripts/dock_solv.prm

>  <Rbt.Receptor>
prm/pocket_docking_2.prm

>  <SCORE>
-46.5821

>  <SCORE.INTER>
-46.5444

>  <SCORE.INTER.CONST>
1

>  <SCORE.INTER.POLAR>
0

>  <SCORE.INTER.ROT>
2

>  <SCORE.INTER.SOLV>
40.039

>  <SCORE.INTER.VDW>
-49.3093

>  <SCORE.INTER.norm>
-1.01184

>  <SCORE.INTRA>
-0.0382071

>  <SCORE.INTRA.DIHEDRAL>
0.0138822

>  <SCORE.INTRA.DIHEDRAL.0>
2.42188

>  <SCORE.INTRA.POLAR>
0

>  <SCORE.INTRA.POLAR.0>
0

>  <SCORE.INTRA.REPUL>
0

>  <SCORE.INTRA.REPUL.0>
0

>  <SCORE.INTRA.SOLV>
-0.000698808

>  <SCORE.INTRA.SOLV.lig_0>
-127.307

>  <SCORE.INTRA.VDW>
-0.0447988

>  <SCORE.INTRA.VDW.0>
-2.19936

>  <SCORE.INTRA.norm>
-0.000830588

>  <SCORE.RESTR>
0.000474279

>  <SCORE.RESTR.CAVITY>
0.000474279

>  <SCORE.RESTR.norm>
1.03104e-05

>  <SCORE.SYSTEM>
0

>  <SCORE.SYSTEM.CONST>
0

>  <SCORE.SYSTEM.DIHEDRAL>
0

>  <SCORE.SYSTEM.SOLV>
0

>  <SCORE.SYSTEM.norm>
0

>  <SCORE.heavy>
46

>  <SCORE.norm>
-1.01266

>  <RMSD>
0.602

$$$$
ligand
 OpenBabel02271912143D
libRbt.so/2013.1/901 2013/11/27
 46 52  0  0  0  0  0  0  0  0999 V2000
  158.3741   42.3070  147.3942 P   0  0  1  0  0  0  0  0  0  0  0  0
  159.8456   46.3253  143.6367 P   0  0  1  0  0  0  0  0  0  0  0  0
  157.0042   41.7105  147.1976 O   0  5  0  0  0  0  0  0  0  0  0  0
  159.2669   41.6385  148.4168 O   0  0  0  0  0  0  0  0  0  0  0  0
  160.4712   42.0813  145.7971 C   0  0  0  0  0  0  0  0  0  0  0  0
  159.0951   42.3989  145.9600 O   0  0  0  0  0  0  0  0  0  0  0  0
  160.9757   42.6212  144.4690 C   0  0  1  0  0  0  0  0  0  0  0  0
  161.0703   41.5338  143.5599 O   0  0  0  0  0  0  0  0  0  0  0  0
  160.0859   43.6604  143.7988 C   0  0  1  0  0  0  0  0  0  0  0  0
  160.6460   44.9535  143.9738 O   0  0  0  0  0  0  0  0  0  0  0  0
  160.1732   43.3053  142.3314 C   0  0  1  0  0  0  0  0  0  0  0  0
  161.2614   44.0107  141.7311 O   0  0  0  0  0  0  0  0  0  0  0  0
  160.5235   41.8463  142.2879 C   0  0  2  0  0  0  0  0  0  0  0  0
  155.4378   46.0549  146.7814 C   0  0  1  0  0  0  0  0  0  0  0  0
  156.4316   40.8275  139.1630 N   0  0  0  0  0  0  0  0  0  0  0  0
  157.4438   41.7019  139.0088 C   0  0  1  0  0  0  0  0  0  0  0  0
  155.9465   44.6880  147.1891 C   0  0  2  0  0  0  0  0  0  0  0  0
  157.4818   42.4737  137.8996 N   0  0  0  0  0  0  0  0  0  0  0  0
  155.7344   44.5536  148.5972 O   0  0  0  0  0  0  0  0  0  0  0  0
  157.4288   44.6970  146.8650 C   0  0  2  0  0  0  0  0  0  0  0  0
  158.4385   41.8600  139.9112 N   0  0  0  0  0  0  0  0  0  0  0  0
  158.1661   43.8637  147.7584 O   0  0  0  0  0  0  0  0  0  0  0  0
  158.4690   41.1286  141.0457 C   0  0  2  0  0  0  0  0  0  0  0  0
  157.7865   46.1732  147.0218 C   0  0  2  0  0  0  0  0  0  0  0  0
  156.5800   46.9142  146.8269 O   0  0  0  0  0  0  0  0  0  0  0  0
  157.3964   40.1570  141.2803 C   0  0  2  0  0  0  0  0  0  0  0  0
  158.8585   46.6875  146.0559 C   0  0  0  0  0  0  0  0  0  0  0  0
  158.6336   46.2899  144.7039 O   0  0  0  0  0  0  0  0  0  0  0  0
  156.3405   40.0386  140.2473 C   0  0  0  0  0  0  0  0  0  0  0  0
  155.4001   39.2214  140.3948 O   0  0  0  0  0  0  0  0  0  0  0  0
  157.6662   39.5819  142.4658 N   0  0  0  0  0  0  0  0  0  0  0  0
  158.8071   40.1303  142.9482 C   0  0  0  0  0  0  0  0  0  0  0  0
  159.2855   41.0540  142.0966 N   0  0  1  0  0  0  0  0  0  0  0  0
  151.5808   44.5533  143.5401 N   0  0  0  0  0  0  0  0  0  0  0  0
  160.7904   47.4595  143.9872 O   0  5  0  0  0  0  0  0  0  0  0  0
  151.6823   44.4294  144.8724 C   0  0  2  0  0  0  0  0  0  0  0  0
  150.6649   43.8389  145.5171 N   0  0  0  0  0  0  0  0  0  0  0  0
  159.2384   46.2190  142.2590 O   0  0  0  0  0  0  0  0  0  0  0  0
  152.7447   44.8688  145.5869 N   0  0  0  0  0  0  0  0  0  0  0  0
  153.7842   45.4724  144.9735 C   0  0  1  0  0  0  0  0  0  0  0  0
  153.7337   45.6383  143.5070 C   0  0  1  0  0  0  0  0  0  0  0  0
  152.5270   45.1361  142.8019 C   0  0  0  0  0  0  0  0  0  0  0  0
  152.3910   45.2237  141.5626 O   0  0  0  0  0  0  0  0  0  0  0  0
  154.8697   46.2623  143.1572 N   0  0  0  0  0  0  0  0  0  0  0  0
  155.5822   46.4690  144.2995 C   0  0  0  0  0  0  0  0  0  0  0  0
  154.9359   46.0014  145.3859 N   0  0  2  0  0  0  0  0  0  0  0  0
  1  3  1  6  0  0  0
  1  4  2  0  0  0  0
  1  6  1  0  0  0  0
  1 22  1  0  0  0  0
  2 28  1  0  0  0  0
  2 35  1  1  0  0  0
  2 38  2  0  0  0  0
  2 10  1  0  0  0  0
  5  6  1  0  0  0  0
  7  5  1  1  0  0  0
  7  8  1  0  0  0  0
  7  9  1  0  0  0  0
  9 10  1  6  0  0  0
  9 11  1  0  0  0  0
 11 12  1  1  0  0  0
 11 13  1  0  0  0  0
 13  8  1  1  0  0  0
 13 33  1  0  0  0  0
 14 46  1  0  0  0  0
 14 17  1  0  0  0  0
 14 25  1  6  0  0  0
 15 16  1  0  0  0  0
 15 29  1  0  0  0  0
 16 18  1  1  0  0  0
 16 21  1  0  0  0  0
 17 19  1  1  0  0  0
 17 20  1  0  0  0  0
 20 22  1  1  0  0  0
 20 24  1  0  0  0  0
 23 21  1  1  0  0  0
 23 26  1  0  0  0  0
 23 33  1  0  0  0  0
 24 25  1  6  0  0  0
 24 27  1  0  0  0  0
 26 29  1  1  0  0  0
 26 31  1  0  0  0  0
 27 28  1  0  0  0  0
 29 30  2  0  0  0  0
 31 32  1  0  0  0  0
 33 32  1  6  0  0  0
 34 36  1  0  0  0  0
 34 42  1  0  0  0  0
 36 37  1  1  0  0  0
 36 39  1  0  0  0  0
 40 39  1  1  0  0  0
 40 41  1  0  0  0  0
 40 46  1  0  0  0  0
 41 42  1  1  0  0  0
 41 44  1  0  0  0  0
 42 43  2  0  0  0  0
 44 45  1  0  0  0  0
 46 45  1  6  0  0  0
M  CHG  2   3  -1  35  -1
M  END
>  <CHROM.1>
176.82744499,75.87323778,157.36724622,43.71371538,144.06237130,-2.23264173
0.17849755,-2.11695695

>  <Name>
ligand

>  <RI>
0

>  <Rbt.Current_Directory>
/home/itssahil/PROJECTS/Mol_Feturizer/Test_systems_manuscript/rnas/4yb0

>  <Rbt.Executable>
rbdock ($Id: //depot/dev/client3/rdock/2013.1/src/exe/rbdock.cxx#4 $)

>  <Rbt.Library>
libRbt.so (2013.1, Build901 2013/11/27)

>  <Rbt.Parameter_File>
/export/apps/rDock/src/rDock_2013.1_src/data/scripts/dock_solv.prm

>  <Rbt.Receptor>
prm/pocket_docking_2.prm

>  <SCORE>
-43.4459

>  <SCORE.INTER>
-43.3566

>  <SCORE.INTER.CONST>
1

>  <SCORE.INTER.POLAR>
0

>  <SCORE.INTER.ROT>
2

>  <SCORE.INTER.SOLV>
39.8982

>  <SCORE.INTER.VDW>
-47.1371

>  <SCORE.INTER.norm>
-0.942535

>  <SCORE.INTRA>
-0.0896702

>  <SCORE.INTRA.DIHEDRAL>
-0.048817

>  <SCORE.INTRA.DIHEDRAL.0>
2.42188

>  <SCORE.INTRA.POLAR>
0

>  <SCORE.INTRA.POLAR.0>
0

>  <SCORE.INTRA.REPUL>
0

>  <SCORE.INTRA.REPUL.0>
0

>  <SCORE.INTRA.SOLV>
-0.00420409

>  <SCORE.INTRA.SOLV.lig_0>
-127.307

>  <SCORE.INTRA.VDW>
-0.0631597

>  <SCORE.INTRA.VDW.0>
-2.19936

>  <SCORE.INTRA.norm>
-0.00194935

>  <SCORE.RESTR>
0.000360717

>  <SCORE.RESTR.CAVITY>
0.000360717

>  <SCORE.RESTR.norm>
7.84168e-06

>  <SCORE.SYSTEM>
0

>  <SCORE.SYSTEM.CONST>
0

>  <SCORE.SYSTEM.DIHEDRAL>
0

>  <SCORE.SYSTEM.SOLV>
0

>  <SCORE.SYSTEM.norm>
0

>  <SCORE.heavy>
46

>  <SCORE.norm>
-0.944477

>  <RMSD>
0.858

$$$$
ligand
 OpenBabel02271912143D
libRbt.so/2013.1/901 2013/11/27
 46 52  0  0  0  0  0  0  0  0999 V2000
  158.3530   42.2798  147.4154 P   0  0  1  0  0  0  0  0  0  0  0  0
  159.8866   46.2717  143.6547 P   0  0  1  0  0  0  0  0  0  0  0  0
  156.9777   41.6975  147.2135 O   0  5  0  0  0  0  0  0  0  0  0  0
  159.2333   41.6045  148.4443 O   0  0  0  0  0  0  0  0  0  0  0  0
  160.4555   42.0271  145.8296 C   0  0  0  0  0  0  0  0  0  0  0  0
  159.0821   42.3599  145.9847 O   0  0  0  0  0  0  0  0  0  0  0  0
  160.9725   42.5580  144.5026 C   0  0  1  0  0  0  0  0  0  0  0  0
  161.0600   41.4671  143.5969 O   0  0  0  0  0  0  0  0  0  0  0  0
  160.0973   43.6048  143.8251 C   0  0  1  0  0  0  0  0  0  0  0  0
  160.6705   44.8923  143.9995 O   0  0  0  0  0  0  0  0  0  0  0  0
  160.1882   43.2449  142.3592 C   0  0  1  0  0  0  0  0  0  0  0  0
  161.2869   43.9369  141.7625 O   0  0  0  0  0  0  0  0  0  0  0  0
  160.5230   41.7820  142.3214 C   0  0  2  0  0  0  0  0  0  0  0  0
  155.4603   46.0573  146.7778 C   0  0  1  0  0  0  0  0  0  0  0  0
  156.3912   40.8605  139.2188 N   0  0  0  0  0  0  0  0  0  0  0  0
  157.4078   41.7312  139.0731 C   0  0  1  0  0  0  0  0  0  0  0  0
  155.9523   44.6861  147.1916 C   0  0  2  0  0  0  0  0  0  0  0  0
  157.4395   42.5271  137.9809 N   0  0  0  0  0  0  0  0  0  0  0  0
  155.7316   44.5579  148.5990 O   0  0  0  0  0  0  0  0  0  0  0  0
  157.4361   44.6783  146.8751 C   0  0  2  0  0  0  0  0  0  0  0  0
  158.4131   41.8625  139.9681 N   0  0  0  0  0  0  0  0  0  0  0  0
  158.1599   43.8396  147.7744 O   0  0  0  0  0  0  0  0  0  0  0  0
  158.4505   41.1059  141.0857 C   0  0  2  0  0  0  0  0  0  0  0  0
  157.8090   46.1511  147.0298 C   0  0  2  0  0  0  0  0  0  0  0  0
  156.6115   46.9044  146.8267 O   0  0  0  0  0  0  0  0  0  0  0  0
  157.3736   40.1366  141.3104 C   0  0  2  0  0  0  0  0  0  0  0  0
  158.8912   46.6511  146.0678 C   0  0  0  0  0  0  0  0  0  0  0  0
  158.6688   46.2523  144.7159 O   0  0  0  0  0  0  0  0  0  0  0  0
  156.3060   40.0484  140.2864 C   0  0  0  0  0  0  0  0  0  0  0  0
  155.3615   39.2345  140.4258 O   0  0  0  0  0  0  0  0  0  0  0  0
  157.6519   39.5337  142.4799 N   0  0  0  0  0  0  0  0  0  0  0  0
  158.8017   40.0635  142.9619 C   0  0  0  0  0  0  0  0  0  0  0  0
  159.2775   41.0026  142.1259 N   0  0  1  0  0  0  0  0  0  0  0  0
  151.5875   44.6216  143.5255 N   0  0  0  0  0  0  0  0  0  0  0  0
  160.8417   47.3967  144.0069 O   0  5  0  0  0  0  0  0  0  0  0  0
  151.6789   44.5049  144.8592 C   0  0  2  0  0  0  0  0  0  0  0  0
  150.6447   43.9425  145.5023 N   0  0  0  0  0  0  0  0  0  0  0  0
  159.2852   46.1682  142.2742 O   0  0  0  0  0  0  0  0  0  0  0  0
  152.7472   44.9248  145.5765 N   0  0  0  0  0  0  0  0  0  0  0  0
  153.8037   45.5000  144.9647 C   0  0  1  0  0  0  0  0  0  0  0  0
  153.7649   45.6566  143.4969 C   0  0  1  0  0  0  0  0  0  0  0  0
  152.5508   45.1772  142.7886 C   0  0  0  0  0  0  0  0  0  0  0  0
  152.4236   45.2591  141.5479 O   0  0  0  0  0  0  0  0  0  0  0  0
  154.9168   46.2519  143.1491 N   0  0  0  0  0  0  0  0  0  0  0  0
  155.6276   46.4503  144.2939 C   0  0  0  0  0  0  0  0  0  0  0  0
  154.9649   46.0054  145.3799 N   0  0  2  0  0  0  0  0  0  0  0  0
  1  3  1  6  0  0  0
  1  4  2  0  0  0  0
  1  6  1  0  0  0  0
  1 22  1  0  0  0  0
  2 28  1  0  0  0  0
  2 35  1  1  0  0  0
  2 38  2  0  0  0  0
  2 10  1  0  0  0  0
  5  6  1  0  0  0  0
  7  5  1  1  0  0  0
  7  8  1  0  0  0  0
  7  9  1  0  0  0  0
  9 10  1  6  0  0  0
  9 11  1  0  0  0  0
 11 12  1  1  0  0  0
 11 13  1  0  0  0  0
 13  8  1  1  0  0  0
 13 33  1  0  0  0  0
 14 46  1  0  0  0  0
 14 17  1  0  0  0  0
 14 25  1  6  0  0  0
 15 16  1  0  0  0  0
 15 29  1  0  0  0  0
 16 18  1  1  0  0  0
 16 21  1  0  0  0  0
 17 19  1  1  0  0  0
 17 20  1  0  0  0  0
 20 22  1  1  0  0  0
 20 24  1  0  0  0  0
 23 21  1  1  0  0  0
 23 26  1  0  0  0  0
 23 33  1  0  0  0  0
 24 25  1  6  0  0  0
 24 27  1  0  0  0  0
 26 29  1  1  0  0  0
 26 31  1  0  0  0  0
 27 28  1  0  0  0  0
 29 30  2  0  0  0  0
 31 32  1  0  0  0  0
 33 32  1  6  0  0  0
 34 36  1  0  0  0  0
 34 42  1  0  0  0  0
 36 37  1  1  0  0  0
 36 39  1  0  0  0  0
 40 39  1  1  0  0  0
 40 41  1  0  0  0  0
 40 46  1  0  0  0  0
 41 42  1  1  0  0  0
 41 44  1  0  0  0  0
 42 43  2  0  0  0  0
 44 45  1  0  0  0  0
 46 45  1  6  0  0  0
M  CHG  2   3  -1  35  -1
M  END
>  <CHROM.1>
175.12948345,76.61607628,157.37144638,43.69844688,144.07965968,-2.26310115
0.19494156,-2.11737491

>  <Name>
ligand

>  <RI>
0

>  <Rbt.Current_Directory>
/home/itssahil/PROJECTS/Mol_Feturizer/Test_systems_manuscript/rnas/4yb0

>  <Rbt.Executable>
rbdock ($Id: //depot/dev/client3/rdock/2013.1/src/exe/rbdock.cxx#4 $)

>  <Rbt.Library>
libRbt.so (2013.1, Build901 2013/11/27)

>  <Rbt.Parameter_File>
/export/apps/rDock/src/rDock_2013.1_src/data/scripts/dock_solv.prm

>  <Rbt.Receptor>
prm/pocket_docking_2.prm

>  <SCORE>
-43.3864

>  <SCORE.INTER>
-43.3082

>  <SCORE.INTER.CONST>
1

>  <SCORE.INTER.POLAR>
0

>  <SCORE.INTER.ROT>
2

>  <SCORE.INTER.SOLV>
39.8842

>  <SCORE.INTER.VDW>
-47.1002

>  <SCORE.INTER.norm>
-0.941482

>  <SCORE.INTRA>
-0.0782432

>  <SCORE.INTRA.DIHEDRAL>
-0.0515466

>  <SCORE.INTRA.DIHEDRAL.0>
2.42188

>  <SCORE.INTRA.POLAR>
0

>  <SCORE.INTRA.POLAR.0>
0

>  <SCORE.INTRA.REPUL>
0

>  <SCORE.INTRA.REPUL.0>
0

>  <SCORE.INTRA.SOLV>
-0.00364587

>  <SCORE.INTRA.SOLV.lig_0>
-127.307

>  <SCORE.INTRA.VDW>
-0.050647

>  <SCORE.INTRA.VDW.0>
-2.19936

>  <SCORE.INTRA.norm>
-0.00170094

>  <SCORE.RESTR>
0

>  <SCORE.RESTR.CAVITY>
0

>  <SCORE.RESTR.norm>
0

>  <SCORE.SYSTEM>
0

>  <SCORE.SYSTEM.CONST>
0

>  <SCORE.SYSTEM.DIHEDRAL>
0

>  <SCORE.SYSTEM.SOLV>
0

>  <SCORE.SYSTEM.norm>
0

>  <SCORE.heavy>
46

>  <SCORE.norm>
-0.943183

>  <RMSD>
0.858

$$$$
ligand
 OpenBabel02271912143D
libRbt.so/2013.1/901 2013/11/27
 46 52  0  0  0  0  0  0  0  0999 V2000
  158.2734   42.1545  147.5363 P   0  0  1  0  0  0  0  0  0  0  0  0
  159.9139   46.1649  143.8409 P   0  0  1  0  0  0  0  0  0  0  0  0
  156.8846   41.6098  147.3228 O   0  5  0  0  0  0  0  0  0  0  0  0
  159.1343   41.4418  148.5563 O   0  0  0  0  0  0  0  0  0  0  0  0
  160.3726   41.8744  145.9507 C   0  0  0  0  0  0  0  0  0  0  0  0
  159.0075   42.2387  146.1083 O   0  0  0  0  0  0  0  0  0  0  0  0
  160.9055   42.4128  144.6331 C   0  0  1  0  0  0  0  0  0  0  0  0
  160.9681   41.3342  143.7108 O   0  0  0  0  0  0  0  0  0  0  0  0
  160.0581   43.4914  143.9703 C   0  0  1  0  0  0  0  0  0  0  0  0
  160.6626   44.7614  144.1657 O   0  0  0  0  0  0  0  0  0  0  0  0
  160.1434   43.1519  142.4991 C   0  0  1  0  0  0  0  0  0  0  0  0
  161.2602   43.8256  141.9153 O   0  0  0  0  0  0  0  0  0  0  0  0
  160.4419   41.6820  142.4392 C   0  0  2  0  0  0  0  0  0  0  0  0
  155.4766   46.0121  146.9518 C   0  0  1  0  0  0  0  0  0  0  0  0
  156.2461   40.9812  139.3650 N   0  0  0  0  0  0  0  0  0  0  0  0
  157.2780   41.8373  139.2418 C   0  0  1  0  0  0  0  0  0  0  0  0
  155.9334   44.6229  147.3453 C   0  0  2  0  0  0  0  0  0  0  0  0
  157.3096   42.6802  138.1854 N   0  0  0  0  0  0  0  0  0  0  0  0
  155.7065   44.4784  148.7501 O   0  0  0  0  0  0  0  0  0  0  0  0
  157.4174   44.5832  147.0315 C   0  0  2  0  0  0  0  0  0  0  0  0
  158.2991   41.9088  140.1256 N   0  0  0  0  0  0  0  0  0  0  0  0
  158.1181   43.7129  147.9191 O   0  0  0  0  0  0  0  0  0  0  0  0
  158.3378   41.1026  141.2080 C   0  0  2  0  0  0  0  0  0  0  0  0
  157.8262   46.0437  147.2097 C   0  0  2  0  0  0  0  0  0  0  0  0
  156.6482   46.8295  147.0161 O   0  0  0  0  0  0  0  0  0  0  0  0
  157.2447   40.1458  141.4067 C   0  0  2  0  0  0  0  0  0  0  0  0
  158.9227   46.5315  146.2577 C   0  0  0  0  0  0  0  0  0  0  0  0
  158.6936   46.1593  144.8993 O   0  0  0  0  0  0  0  0  0  0  0  0
  156.1604   40.1243  140.3969 C   0  0  0  0  0  0  0  0  0  0  0  0
  155.2016   39.3238  140.5153 O   0  0  0  0  0  0  0  0  0  0  0  0
  157.5282   39.4860  142.5439 N   0  0  0  0  0  0  0  0  0  0  0  0
  158.6957   39.9710  143.0306 C   0  0  0  0  0  0  0  0  0  0  0  0
  159.1780   40.9368  142.2293 N   0  0  1  0  0  0  0  0  0  0  0  0
  151.6789   44.5198  143.6370 N   0  0  0  0  0  0  0  0  0  0  0  0
  160.8957   47.2603  144.2123 O   0  5  0  0  0  0  0  0  0  0  0  0
  151.7773   44.3517  144.9647 C   0  0  2  0  0  0  0  0  0  0  0  0
  150.7736   43.7108  145.5822 N   0  0  0  0  0  0  0  0  0  0  0  0
  159.3132   46.0978  142.4578 O   0  0  0  0  0  0  0  0  0  0  0  0
  152.8235   44.7948  145.7005 N   0  0  0  0  0  0  0  0  0  0  0  0
  153.8488   45.4482  145.1148 C   0  0  1  0  0  0  0  0  0  0  0  0
  153.8009   45.6645  143.6548 C   0  0  1  0  0  0  0  0  0  0  0  0
  152.6120   45.1543  142.9254 C   0  0  0  0  0  0  0  0  0  0  0  0
  152.4798   45.2819  141.6891 O   0  0  0  0  0  0  0  0  0  0  0  0
  154.9207   46.3318  143.3339 N   0  0  0  0  0  0  0  0  0  0  0  0
  155.6215   46.5176  144.4870 C   0  0  0  0  0  0  0  0  0  0  0  0
  154.9832   45.9941  145.5524 N   0  0  2  0  0  0  0  0  0  0  0  0
  1  3  1  6  0  0  0
  1  4  2  0  0  0  0
  1  6  1  0  0  0  0
  1 22  1  0  0  0  0
  2 28  1  0  0  0  0
  2 35  1  1  0  0  0
  2 38  2  0  0  0  0
  2 10  1  0  0  0  0
  5  6  1  0  0  0  0
  7  5  1  1  0  0  0
  7  8  1  0  0  0  0
  7  9  1  0  0  0  0
  9 10  1  6  0  0  0
  9 11  1  0  0  0  0
 11 12  1  1  0  0  0
 11 13  1  0  0  0  0
 13  8  1  1  0  0  0
 13 33  1  0  0  0  0
 14 46  1  0  0  0  0
 14 17  1  0  0  0  0
 14 25  1  6  0  0  0
 15 16  1  0  0  0  0
 15 29  1  0  0  0  0
 16 18  1  1  0  0  0
 16 21  1  0  0  0  0
 17 19  1  1  0  0  0
 17 20  1  0  0  0  0
 20 22  1  1  0  0  0
 20 24  1  0  0  0  0
 23 21  1  1  0  0  0
 23 26  1  0  0  0  0
 23 33  1  0  0  0  0
 24 25  1  6  0  0  0
 24 27  1  0  0  0  0
 26 29  1  1  0  0  0
 26 31  1  0  0  0  0
 27 28  1  0  0  0  0
 29 30  2  0  0  0  0
 31 32  1  0  0  0  0
 33 32  1  6  0  0  0
 34 36  1  0  0  0  0
 34 42  1  0  0  0  0
 36 37  1  1  0  0  0
 36 39  1  0  0  0  0
 40 39  1  1  0  0  0
 40 41  1  0  0  0  0
 40 46  1  0  0  0  0
 41 42  1  1  0  0  0
 41 44  1  0  0  0  0
 42 43  2  0  0  0  0
 44 45  1  0  0  0  0
 46 45  1  6  0  0  0
M  CHG  2   3  -1  35  -1
M  END
>  <CHROM.1>
173.17747918,72.01582539,157.34059714,43.63400496,144.22286868,-2.21611735
0.20090481,-2.10521322

>  <Name>
ligand

>  <RI>
0

>  <Rbt.Current_Directory>
/home/itssahil/PROJECTS/Mol_Feturizer/Test_systems_manuscript/rnas/4yb0

>  <Rbt.Executable>
rbdock ($Id: //depot/dev/client3/rdock/2013.1/src/exe/rbdock.cxx#4 $)

>  <Rbt.Library>
libRbt.so (2013.1, Build901 2013/11/27)

>  <Rbt.Parameter_File>
/export/apps/rDock/src/rDock_2013.1_src/data/scripts/dock_solv.prm

>  <Rbt.Receptor>
prm/pocket_docking_3.prm

>  <SCORE>
-44.0632

>  <SCORE.INTER>
-44.0336

>  <SCORE.INTER.CONST>
1

>  <SCORE.INTER.POLAR>
0

>  <SCORE.INTER.ROT>
2

>  <SCORE.INTER.SOLV>
38.9469

>  <SCORE.INTER.VDW>
-47.2714

>  <SCORE.INTER.norm>
-0.957252

>  <SCORE.INTRA>
-0.0296163

>  <SCORE.INTRA.DIHEDRAL>
-0.0486051

>  <SCORE.INTRA.DIHEDRAL.0>
2.42188

>  <SCORE.INTRA.POLAR>
0

>  <SCORE.INTRA.POLAR.0>
0

>  <SCORE.INTRA.REPUL>
0

>  <SCORE.INTRA.REPUL.0>
0

>  <SCORE.INTRA.SOLV>
-0.000583847

>  <SCORE.INTRA.SOLV.lig_0>
-127.307

>  <SCORE.INTRA.VDW>
-0.00502186

>  <SCORE.INTRA.VDW.0>
-2.19936

>  <SCORE.INTRA.norm>
-0.000643833

>  <SCORE.RESTR>
0

>  <SCORE.RESTR.CAVITY>
0

>  <SCORE.RESTR.norm>
0

>  <SCORE.SYSTEM>
0

>  <SCORE.SYSTEM.CONST>
0

>  <SCORE.SYSTEM.DIHEDRAL>
0

>  <SCORE.SYSTEM.SOLV>
0

>  <SCORE.SYSTEM.norm>
0

>  <SCORE.heavy>
46

>  <SCORE.norm>
-0.957896

>  <RMSD>
0.864

$$$$
ligand
 OpenBabel02271912143D
libRbt.so/2013.1/901 2013/11/27
 46 52  0  0  0  0  0  0  0  0999 V2000
  158.2149   42.2292  147.4816 P   0  0  1  0  0  0  0  0  0  0  0  0
  159.8518   46.1985  143.7405 P   0  0  1  0  0  0  0  0  0  0  0  0
  156.8397   41.6564  147.2542 O   0  5  0  0  0  0  0  0  0  0  0  0
  159.0698   41.5506  148.5296 O   0  0  0  0  0  0  0  0  0  0  0  0
  160.3465   41.9565  145.9383 C   0  0  0  0  0  0  0  0  0  0  0  0
  158.9727   42.2998  146.0653 O   0  0  0  0  0  0  0  0  0  0  0  0
  160.8934   42.4796  144.6204 C   0  0  1  0  0  0  0  0  0  0  0  0
  160.9908   41.3854  143.7197 O   0  0  0  0  0  0  0  0  0  0  0  0
  160.0395   43.5307  143.9227 C   0  0  1  0  0  0  0  0  0  0  0  0
  160.6185   44.8145  144.1047 O   0  0  0  0  0  0  0  0  0  0  0  0
  160.1567   43.1657  142.4599 C   0  0  1  0  0  0  0  0  0  0  0  0
  161.2720   43.8479  141.8830 O   0  0  0  0  0  0  0  0  0  0  0  0
  160.4813   41.7003  142.4329 C   0  0  2  0  0  0  0  0  0  0  0  0
  155.3633   46.0258  146.7760 C   0  0  1  0  0  0  0  0  0  0  0  0
  156.3465   40.8788  139.3064 N   0  0  0  0  0  0  0  0  0  0  0  0
  157.3648   41.7515  139.1860 C   0  0  1  0  0  0  0  0  0  0  0  0
  155.8368   44.6523  147.2035 C   0  0  2  0  0  0  0  0  0  0  0  0
  157.3976   42.5793  138.1178 N   0  0  0  0  0  0  0  0  0  0  0  0
  155.5875   44.5300  148.6066 O   0  0  0  0  0  0  0  0  0  0  0  0
  157.3265   44.6327  146.9164 C   0  0  2  0  0  0  0  0  0  0  0  0
  158.3707   41.8544  140.0840 N   0  0  0  0  0  0  0  0  0  0  0  0
  158.0262   43.7914  147.8323 O   0  0  0  0  0  0  0  0  0  0  0  0
  158.4071   41.0650  141.1788 C   0  0  2  0  0  0  0  0  0  0  0  0
  157.7071   46.1032  147.0742 C   0  0  2  0  0  0  0  0  0  0  0  0
  156.5194   46.8647  146.8453 O   0  0  0  0  0  0  0  0  0  0  0  0
  157.3284   40.0916  141.3752 C   0  0  2  0  0  0  0  0  0  0  0  0
  158.8118   46.5924  146.1324 C   0  0  0  0  0  0  0  0  0  0  0  0
  158.6132   46.1912  144.7774 O   0  0  0  0  0  0  0  0  0  0  0  0
  156.2602   40.0357  140.3496 C   0  0  0  0  0  0  0  0  0  0  0  0
  155.3142   39.2198  140.4654 O   0  0  0  0  0  0  0  0  0  0  0  0
  157.6060   39.4538  142.5263 N   0  0  0  0  0  0  0  0  0  0  0  0
  158.7571   39.9669  143.0232 C   0  0  0  0  0  0  0  0  0  0  0  0
  159.2344   40.9294  142.2150 N   0  0  1  0  0  0  0  0  0  0  0  0
  151.5391   44.6210  143.4534 N   0  0  0  0  0  0  0  0  0  0  0  0
  160.8080   47.3176  144.1083 O   0  5  0  0  0  0  0  0  0  0  0  0
  151.6025   44.5093  144.7892 C   0  0  2  0  0  0  0  0  0  0  0  0
  150.5491   43.9622  145.4140 N   0  0  0  0  0  0  0  0  0  0  0  0
  159.2770   46.0953  142.3487 O   0  0  0  0  0  0  0  0  0  0  0  0
  152.6613   44.9199  145.5259 N   0  0  0  0  0  0  0  0  0  0  0  0
  153.7365   45.4798  144.9328 C   0  0  1  0  0  0  0  0  0  0  0  0
  153.7289   45.6300  143.4638 C   0  0  1  0  0  0  0  0  0  0  0  0
  152.5234   45.1618  142.7335 C   0  0  0  0  0  0  0  0  0  0  0  0
  152.4220   45.2394  141.4902 O   0  0  0  0  0  0  0  0  0  0  0  0
  154.8945   46.2101  143.1364 N   0  0  0  0  0  0  0  0  0  0  0  0
  155.5846   46.4053  144.2943 C   0  0  0  0  0  0  0  0  0  0  0  0
  154.8952   45.9733  145.3688 N   0  0  2  0  0  0  0  0  0  0  0  0
  1  3  1  6  0  0  0
  1  4  2  0  0  0  0
  1  6  1  0  0  0  0
  1 22  1  0  0  0  0
  2 28  1  0  0  0  0
  2 35  1  1  0  0  0
  2 38  2  0  0  0  0
  2 10  1  0  0  0  0
  5  6  1  0  0  0  0
  7  5  1  1  0  0  0
  7  8  1  0  0  0  0
  7  9  1  0  0  0  0
  9 10  1  6  0  0  0
  9 11  1  0  0  0  0
 11 12  1  1  0  0  0
 11 13  1  0  0  0  0
 13  8  1  1  0  0  0
 13 33  1  0  0  0  0
 14 46  1  0  0  0  0
 14 17  1  0  0  0  0
 14 25  1  6  0  0  0
 15 16  1  0  0  0  0
 15 29  1  0  0  0  0
 16 18  1  1  0  0  0
 16 21  1  0  0  0  0
 17 19  1  1  0  0  0
 17 20  1  0  0  0  0
 20 22  1  1  0  0  0
 20 24  1  0  0  0  0
 23 21  1  1  0  0  0
 23 26  1  0  0  0  0
 23 33  1  0  0  0  0
 24 25  1  6  0  0  0
 24 27  1  0  0  0  0
 26 29  1  1  0  0  0
 26 31  1  0  0  0  0
 27 28  1  0  0  0  0
 29 30  2  0  0  0  0
 31 32  1  0  0  0  0
 33 32  1  6  0  0  0
 34 36  1  0  0  0  0
 34 42  1  0  0  0  0
 36 37  1  1  0  0  0
 36 39  1  0  0  0  0
 40 39  1  1  0  0  0
 40 41  1  0  0  0  0
 40 46  1  0  0  0  0
 41 42  1  1  0  0  0
 41 44  1  0  0  0  0
 42 43  2  0  0  0  0
 44 45  1  0  0  0  0
 46 45  1  6  0  0  0
M  CHG  2   3  -1  35  -1
M  END
>  <CHROM.1>
172.91637764,76.89138713,157.30289485,43.65494178,144.12909832,-2.31279826
0.21451029,-2.11524189

>  <Name>
ligand

>  <RI>
0

>  <Rbt.Current_Directory>
/home/itssahil/PROJECTS/Mol_Feturizer/Test_systems_manuscript/rnas/4yb0

>  <Rbt.Executable>
rbdock ($Id: //depot/dev/client3/rdock/2013.1/src/exe/rbdock.cxx#4 $)

>  <Rbt.Library>
libRbt.so (2013.1, Build901 2013/11/27)

>  <Rbt.Parameter_File>
/export/apps/rDock/src/rDock_2013.1_src/data/scripts/dock_solv.prm

>  <Rbt.Receptor>
prm/pocket_docking_2.prm

>  <SCORE>
-43.5867

>  <SCORE.INTER>
-43.5353

>  <SCORE.INTER.CONST>
1

>  <SCORE.INTER.POLAR>
0

>  <SCORE.INTER.ROT>
2

>  <SCORE.INTER.SOLV>
39.8402

>  <SCORE.INTER.VDW>
-47.2369

>  <SCORE.INTER.norm>
-0.946419

>  <SCORE.INTRA>
-0.0580083

>  <SCORE.INTRA.DIHEDRAL>
-0.0543216

>  <SCORE.INTRA.DIHEDRAL.0>
2.42188

>  <SCORE.INTRA.POLAR>
0

>  <SCORE.INTRA.POLAR.0>
0

>  <SCORE.INTRA.REPUL>
0

>  <SCORE.INTRA.REPUL.0>
0

>  <SCORE.INTRA.SOLV>
-0.00261596

>  <SCORE.INTRA.SOLV.lig_0>
-127.307

>  <SCORE.INTRA.VDW>
-0.0295395

>  <SCORE.INTRA.VDW.0>
-2.19936

>  <SCORE.INTRA.norm>
-0.00126105

>  <SCORE.RESTR>
0.00659706

>  <SCORE.RESTR.CAVITY>
0.00659706

>  <SCORE.RESTR.norm>
0.000143414

>  <SCORE.SYSTEM>
0

>  <SCORE.SYSTEM.CONST>
0

>  <SCORE.SYSTEM.DIHEDRAL>
0

>  <SCORE.SYSTEM.SOLV>
0

>  <SCORE.SYSTEM.norm>
0

>  <SCORE.heavy>
46

>  <SCORE.norm>
-0.947537

>  <RMSD>
0.865

$$$$
ligand
 OpenBabel02271912143D
libRbt.so/2013.1/901 2013/11/27
 46 52  0  0  0  0  0  0  0  0999 V2000
  158.2504   42.1659  147.5308 P   0  0  1  0  0  0  0  0  0  0  0  0
  159.8919   46.1702  143.8291 P   0  0  1  0  0  0  0  0  0  0  0  0
  156.8643   41.6158  147.3135 O   0  5  0  0  0  0  0  0  0  0  0  0
  159.1098   41.4593  148.5563 O   0  0  0  0  0  0  0  0  0  0  0  0
  160.3568   41.8879  145.9543 C   0  0  0  0  0  0  0  0  0  0  0  0
  158.9899   42.2481  146.1054 O   0  0  0  0  0  0  0  0  0  0  0  0
  160.8931   42.4239  144.6372 C   0  0  1  0  0  0  0  0  0  0  0  0
  160.9630   41.3427  143.7185 O   0  0  0  0  0  0  0  0  0  0  0  0
  160.0447   43.4975  143.9676 C   0  0  1  0  0  0  0  0  0  0  0  0
  160.6441   44.7702  144.1614 O   0  0  0  0  0  0  0  0  0  0  0  0
  160.1370   43.1538  142.4978 C   0  0  1  0  0  0  0  0  0  0  0  0
  161.2538   43.8294  141.9163 O   0  0  0  0  0  0  0  0  0  0  0  0
  160.4406   41.6847  142.4438 C   0  0  2  0  0  0  0  0  0  0  0  0
  155.4429   46.0121  146.9231 C   0  0  1  0  0  0  0  0  0  0  0  0
  156.2501   40.9729  139.3650 N   0  0  0  0  0  0  0  0  0  0  0  0
  157.2784   41.8337  139.2444 C   0  0  1  0  0  0  0  0  0  0  0  0
  155.9029   44.6257  147.3228 C   0  0  2  0  0  0  0  0  0  0  0  0
  157.3071   42.6791  138.1901 N   0  0  0  0  0  0  0  0  0  0  0  0
  155.6709   44.4849  148.7271 O   0  0  0  0  0  0  0  0  0  0  0  0
  157.3882   44.5900  147.0149 C   0  0  2  0  0  0  0  0  0  0  0  0
  158.2985   41.9075  140.1291 N   0  0  0  0  0  0  0  0  0  0  0  0
  158.0884   43.7250  147.9080 O   0  0  0  0  0  0  0  0  0  0  0  0
  158.3399   41.0991  141.2097 C   0  0  2  0  0  0  0  0  0  0  0  0
  157.7914   46.0524  147.1901 C   0  0  2  0  0  0  0  0  0  0  0  0
  156.6115   46.8337  146.9894 O   0  0  0  0  0  0  0  0  0  0  0  0
  157.2509   40.1371  141.4054 C   0  0  2  0  0  0  0  0  0  0  0  0
  158.8900   46.5410  146.2409 C   0  0  0  0  0  0  0  0  0  0  0  0
  158.6675   46.1637  144.8828 O   0  0  0  0  0  0  0  0  0  0  0  0
  156.1673   40.1132  140.3948 C   0  0  0  0  0  0  0  0  0  0  0  0
  155.2119   39.3084  140.5107 O   0  0  0  0  0  0  0  0  0  0  0  0
  157.5363   39.4759  142.5413 N   0  0  0  0  0  0  0  0  0  0  0  0
  158.7014   39.9648  143.0299 C   0  0  0  0  0  0  0  0  0  0  0  0
  159.1801   40.9345  142.2313 N   0  0  1  0  0  0  0  0  0  0  0  0
  151.6182   44.5811  143.6123 N   0  0  0  0  0  0  0  0  0  0  0  0
  160.8686   47.2700  144.2010 O   0  5  0  0  0  0  0  0  0  0  0  0
  151.7061   44.4294  144.9428 C   0  0  2  0  0  0  0  0  0  0  0  0
  150.6819   43.8264  145.5647 N   0  0  0  0  0  0  0  0  0  0  0  0
  159.2970   46.0966  142.4439 O   0  0  0  0  0  0  0  0  0  0  0  0
  152.7614   44.8530  145.6770 N   0  0  0  0  0  0  0  0  0  0  0  0
  153.8074   45.4685  145.0868 C   0  0  1  0  0  0  0  0  0  0  0  0
  153.7719   45.6649  143.6237 C   0  0  1  0  0  0  0  0  0  0  0  0
  152.5720   45.1784  142.8961 C   0  0  0  0  0  0  0  0  0  0  0  0
  152.4487   45.2919  141.6575 O   0  0  0  0  0  0  0  0  0  0  0  0
  154.9117   46.2953  143.2984 N   0  0  0  0  0  0  0  0  0  0  0  0
  155.6126   46.4776  144.4520 C   0  0  0  0  0  0  0  0  0  0  0  0
  154.9551   45.9880  145.5218 N   0  0  2  0  0  0  0  0  0  0  0  0
  1  3  1  6  0  0  0
  1  4  2  0  0  0  0
  1  6  1  0  0  0  0
  1 22  1  0  0  0  0
  2 28  1  0  0  0  0
  2 35  1  1  0  0  0
  2 38  2  0  0  0  0
  2 10  1  0  0  0  0
  5  6  1  0  0  0  0
  7  5  1  1  0  0  0
  7  8  1  0  0  0  0
  7  9  1  0  0  0  0
  9 10  1  6  0  0  0
  9 11  1  0  0  0  0
 11 12  1  1  0  0  0
 11 13  1  0  0  0  0
 13  8  1  1  0  0  0
 13 33  1  0  0  0  0
 14 46  1  0  0  0  0
 14 17  1  0  0  0  0
 14 25  1  6  0  0  0
 15 16  1  0  0  0  0
 15 29  1  0  0  0  0
 16 18  1  1  0  0  0
 16 21  1  0  0  0  0
 17 19  1  1  0  0  0
 17 20  1  0  0  0  0
 20 22  1  1  0  0  0
 20 24  1  0  0  0  0
 23 21  1  1  0  0  0
 23 26  1  0  0  0  0
 23 33  1  0  0  0  0
 24 25  1  6  0  0  0
 24 27  1  0  0  0  0
 26 29  1  1  0  0  0
 26 31  1  0  0  0  0
 27 28  1  0  0  0  0
 29 30  2  0  0  0  0
 31 32  1  0  0  0  0
 33 32  1  6  0  0  0
 34 36  1  0  0  0  0
 34 42  1  0  0  0  0
 36 37  1  1  0  0  0
 36 39  1  0  0  0  0
 40 39  1  1  0  0  0
 40 41  1  0  0  0  0
 40 46  1  0  0  0  0
 41 42  1  1  0  0  0
 41 44  1  0  0  0  0
 42 43  2  0  0  0  0
 44 45  1  0  0  0  0
 46 45  1  6  0  0  0
M  CHG  2   3  -1  35  -1
M  END
>  <CHROM.1>
172.81065937,73.95620889,157.31977834,43.64237952,144.21162666,-2.25666075
0.20774889,-2.10571565

>  <Name>
ligand

>  <RI>
0

>  <Rbt.Current_Directory>
/home/itssahil/PROJECTS/Mol_Feturizer/Test_systems_manuscript/rnas/4yb0

>  <Rbt.Executable>
rbdock ($Id: //depot/dev/client3/rdock/2013.1/src/exe/rbdock.cxx#4 $)

>  <Rbt.Library>
libRbt.so (2013.1, Build901 2013/11/27)

>  <Rbt.Parameter_File>
/export/apps/rDock/src/rDock_2013.1_src/data/scripts/dock_solv.prm

>  <Rbt.Receptor>
prm/pocket_docking_3.prm

>  <SCORE>
-44.123

>  <SCORE.INTER>
-44.0841

>  <SCORE.INTER.CONST>
1

>  <SCORE.INTER.POLAR>
0

>  <SCORE.INTER.ROT>
2

>  <SCORE.INTER.SOLV>
39.3743

>  <SCORE.INTER.VDW>
-47.4475

>  <SCORE.INTER.norm>
-0.95835

>  <SCORE.INTRA>
-0.0388945

>  <SCORE.INTRA.DIHEDRAL>
-0.0513357

>  <SCORE.INTRA.DIHEDRAL.0>
2.42188

>  <SCORE.INTRA.POLAR>
0

>  <SCORE.INTRA.POLAR.0>
0

>  <SCORE.INTRA.REPUL>
0

>  <SCORE.INTRA.REPUL.0>
0

>  <SCORE.INTRA.SOLV>
-0.00127232

>  <SCORE.INTRA.SOLV.lig_0>
-127.307

>  <SCORE.INTRA.VDW>
-0.0125905

>  <SCORE.INTRA.VDW.0>
-2.19936

>  <SCORE.INTRA.norm>
-0.000845533

>  <SCORE.RESTR>
0

>  <SCORE.RESTR.CAVITY>
0

>  <SCORE.RESTR.norm>
0

>  <SCORE.SYSTEM>
0

>  <SCORE.SYSTEM.CONST>
0

>  <SCORE.SYSTEM.DIHEDRAL>
0

>  <SCORE.SYSTEM.SOLV>
0

>  <SCORE.SYSTEM.norm>
0

>  <SCORE.heavy>
46

>  <SCORE.norm>
-0.959195

>  <RMSD>
0.865

$$$$
ligand
 OpenBabel02271912143D
libRbt.so/2013.1/901 2013/11/27
 46 52  0  0  0  0  0  0  0  0999 V2000
  158.2630   42.1871  147.5459 P   0  0  1  0  0  0  0  0  0  0  0  0
  159.9258   46.1671  143.8276 P   0  0  1  0  0  0  0  0  0  0  0  0
  156.8776   41.6365  147.3251 O   0  5  0  0  0  0  0  0  0  0  0  0
  159.1167   41.4863  148.5801 O   0  0  0  0  0  0  0  0  0  0  0  0
  160.3770   41.8979  145.9817 C   0  0  0  0  0  0  0  0  0  0  0  0
  159.0096   42.2599  146.1238 O   0  0  0  0  0  0  0  0  0  0  0  0
  160.9203   42.4253  144.6639 C   0  0  1  0  0  0  0  0  0  0  0  0
  160.9939   41.3383  143.7524 O   0  0  0  0  0  0  0  0  0  0  0  0
  160.0759   43.4953  143.9835 C   0  0  1  0  0  0  0  0  0  0  0  0
  160.6753   44.7687  144.1723 O   0  0  0  0  0  0  0  0  0  0  0  0
  160.1753   43.1423  142.5164 C   0  0  1  0  0  0  0  0  0  0  0  0
  161.2955   43.8136  141.9362 O   0  0  0  0  0  0  0  0  0  0  0  0
  160.4782   41.6727  142.4730 C   0  0  2  0  0  0  0  0  0  0  0  0
  155.4613   46.0313  146.9003 C   0  0  1  0  0  0  0  0  0  0  0  0
  156.2029   41.0808  139.4866 N   0  0  0  0  0  0  0  0  0  0  0  0
  157.2198   41.9569  139.3810 C   0  0  1  0  0  0  0  0  0  0  0  0
  155.9183   44.6471  147.3109 C   0  0  2  0  0  0  0  0  0  0  0  0
  157.2096   42.8565  138.3721 N   0  0  0  0  0  0  0  0  0  0  0  0
  155.6792   44.5152  148.7149 O   0  0  0  0  0  0  0  0  0  0  0  0
  157.4051   44.6085  147.0106 C   0  0  2  0  0  0  0  0  0  0  0  0
  158.2655   41.9947  140.2377 N   0  0  0  0  0  0  0  0  0  0  0  0
  158.1002   43.7486  147.9126 O   0  0  0  0  0  0  0  0  0  0  0  0
  158.3462   41.1314  141.2727 C   0  0  2  0  0  0  0  0  0  0  0  0
  157.8085   46.0717  147.1788 C   0  0  2  0  0  0  0  0  0  0  0  0
  156.6302   46.8525  146.9673 O   0  0  0  0  0  0  0  0  0  0  0  0
  157.2717   40.1496  141.4499 C   0  0  2  0  0  0  0  0  0  0  0  0
  158.9121   46.5537  146.2320 C   0  0  0  0  0  0  0  0  0  0  0  0
  158.6961   46.1681  144.8752 O   0  0  0  0  0  0  0  0  0  0  0  0
  156.1585   40.1677  140.4720 C   0  0  0  0  0  0  0  0  0  0  0  0
  155.2138   39.3484  140.5737 O   0  0  0  0  0  0  0  0  0  0  0  0
  157.5969   39.4329  142.5405 N   0  0  0  0  0  0  0  0  0  0  0  0
  158.7720   39.9073  143.0193 C   0  0  0  0  0  0  0  0  0  0  0  0
  159.2182   40.9221  142.2588 N   0  0  1  0  0  0  0  0  0  0  0  0
  151.6388   44.6086  143.5834 N   0  0  0  0  0  0  0  0  0  0  0  0
  160.9014   47.2686  144.1975 O   0  5  0  0  0  0  0  0  0  0  0  0
  151.7182   44.4688  144.9157 C   0  0  2  0  0  0  0  0  0  0  0  0
  150.6846   43.8825  145.5380 N   0  0  0  0  0  0  0  0  0  0  0  0
  159.3376   46.0853  142.4400 O   0  0  0  0  0  0  0  0  0  0  0  0
  152.7742   44.8884  145.6513 N   0  0  0  0  0  0  0  0  0  0  0  0
  153.8296   45.4872  145.0608 C   0  0  1  0  0  0  0  0  0  0  0  0
  153.8036   45.6699  143.5957 C   0  0  1  0  0  0  0  0  0  0  0  0
  152.6025   45.1890  142.8665 C   0  0  0  0  0  0  0  0  0  0  0  0
  152.4867   45.2918  141.6263 O   0  0  0  0  0  0  0  0  0  0  0  0
  154.9516   46.2851  143.2704 N   0  0  0  0  0  0  0  0  0  0  0  0
  155.6485   46.4712  144.4258 C   0  0  0  0  0  0  0  0  0  0  0  0
  154.9805   45.9988  145.4968 N   0  0  2  0  0  0  0  0  0  0  0  0
  1  3  1  6  0  0  0
  1  4  2  0  0  0  0
  1  6  1  0  0  0  0
  1 22  1  0  0  0  0
  2 28  1  0  0  0  0
  2 35  1  1  0  0  0
  2 38  2  0  0  0  0
  2 10  1  0  0  0  0
  5  6  1  0  0  0  0
  7  5  1  1  0  0  0
  7  8  1  0  0  0  0
  7  9  1  0  0  0  0
  9 10  1  6  0  0  0
  9 11  1  0  0  0  0
 11 12  1  1  0  0  0
 11 13  1  0  0  0  0
 13  8  1  1  0  0  0
 13 33  1  0  0  0  0
 14 46  1  0  0  0  0
 14 17  1  0  0  0  0
 14 25  1  6  0  0  0
 15 16  1  0  0  0  0
 15 29  1  0  0  0  0
 16 18  1  1  0  0  0
 16 21  1  0  0  0  0
 17 19  1  1  0  0  0
 17 20  1  0  0  0  0
 20 22  1  1  0  0  0
 20 24  1  0  0  0  0
 23 21  1  1  0  0  0
 23 26  1  0  0  0  0
 23 33  1  0  0  0  0
 24 25  1  6  0  0  0
 24 27  1  0  0  0  0
 26 29  1  1  0  0  0
 26 31  1  0  0  0  0
 27 28  1  0  0  0  0
 29 30  2  0  0  0  0
 31 32  1  0  0  0  0
 33 32  1  6  0  0  0
 34 36  1  0  0  0  0
 34 42  1  0  0  0  0
 36 37  1  1  0  0  0
 36 39  1  0  0  0  0
 40 39  1  1  0  0  0
 40 41  1  0  0  0  0
 40 46  1  0  0  0  0
 41 42  1  1  0  0  0
 41 44  1  0  0  0  0
 42 43  2  0  0  0  0
 44 45  1  0  0  0  0
 46 45  1  6  0  0  0
M  CHG  2   3  -1  35  -1
M  END
>  <CHROM.1>
168.86137781,74.54915300,157.33764916,43.66119394,144.22525039,-2.33972516
0.21644717,-2.10837549

>  <Name>
ligand

>  <RI>
0

>  <Rbt.Current_Directory>
/home/itssahil/PROJECTS/Mol_Feturizer/Test_systems_manuscript/rnas/4yb0

>  <Rbt.Executable>
rbdock ($Id: //depot/dev/client3/rdock/2013.1/src/exe/rbdock.cxx#4 $)

>  <Rbt.Library>
libRbt.so (2013.1, Build901 2013/11/27)

>  <Rbt.Parameter_File>
/export/apps/rDock/src/rDock_2013.1_src/data/scripts/dock_solv.prm

>  <Rbt.Receptor>
prm/pocket_docking_4.prm

>  <SCORE>
-44.0134

>  <SCORE.INTER>
-44.014

>  <SCORE.INTER.CONST>
1

>  <SCORE.INTER.POLAR>
0

>  <SCORE.INTER.ROT>
2

>  <SCORE.INTER.SOLV>
38.8257

>  <SCORE.INTER.VDW>
-47.2179

>  <SCORE.INTER.norm>
-0.956825

>  <SCORE.INTRA>
0.000615538

>  <SCORE.INTRA.DIHEDRAL>
-0.0561538

>  <SCORE.INTRA.DIHEDRAL.0>
2.42188

>  <SCORE.INTRA.POLAR>
0

>  <SCORE.INTRA.POLAR.0>
0

>  <SCORE.INTRA.REPUL>
0

>  <SCORE.INTRA.REPUL.0>
0

>  <SCORE.INTRA.SOLV>
0.000507692

>  <SCORE.INTRA.SOLV.lig_0>
-127.307

>  <SCORE.INTRA.VDW>
0.0284386

>  <SCORE.INTRA.VDW.0>
-2.19936

>  <SCORE.INTRA.norm>
1.33813e-05

>  <SCORE.RESTR>
0

>  <SCORE.RESTR.CAVITY>
0

>  <SCORE.RESTR.norm>
0

>  <SCORE.SYSTEM>
0

>  <SCORE.SYSTEM.CONST>
0

>  <SCORE.SYSTEM.DIHEDRAL>
0

>  <SCORE.SYSTEM.SOLV>
0

>  <SCORE.SYSTEM.norm>
0

>  <SCORE.heavy>
46

>  <SCORE.norm>
-0.956812

>  <RMSD>
0.866

$$$$
ligand
 OpenBabel02271912143D
libRbt.so/2013.1/901 2013/11/27
 46 52  0  0  0  0  0  0  0  0999 V2000
  158.2466   42.2091  147.4723 P   0  0  1  0  0  0  0  0  0  0  0  0
  159.8880   46.1778  143.7325 P   0  0  1  0  0  0  0  0  0  0  0  0
  156.8622   41.6537  147.2577 O   0  5  0  0  0  0  0  0  0  0  0  0
  159.1051   41.5151  148.5072 O   0  0  0  0  0  0  0  0  0  0  0  0
  160.3572   41.9191  145.9036 C   0  0  0  0  0  0  0  0  0  0  0  0
  158.9891   42.2779  146.0479 O   0  0  0  0  0  0  0  0  0  0  0  0
  160.8953   42.4424  144.5821 C   0  0  1  0  0  0  0  0  0  0  0  0
  160.9696   41.3517  143.6750 O   0  0  0  0  0  0  0  0  0  0  0  0
  160.0461   43.5071  143.8994 C   0  0  1  0  0  0  0  0  0  0  0  0
  160.6423   44.7830  144.0811 O   0  0  0  0  0  0  0  0  0  0  0  0
  160.1425   43.1482  142.4335 C   0  0  1  0  0  0  0  0  0  0  0  0
  161.2592   43.8201  141.8474 O   0  0  0  0  0  0  0  0  0  0  0  0
  160.4494   41.6792  142.3956 C   0  0  2  0  0  0  0  0  0  0  0  0
  155.4323   46.0426  146.8180 C   0  0  1  0  0  0  0  0  0  0  0  0
  156.3687   40.7837  139.2187 N   0  0  0  0  0  0  0  0  0  0  0  0
  157.4084   41.6277  139.0779 C   0  0  1  0  0  0  0  0  0  0  0  0
  155.8944   44.6614  147.2332 C   0  0  2  0  0  0  0  0  0  0  0  0
  157.4833   42.3984  137.9699 N   0  0  0  0  0  0  0  0  0  0  0  0
  155.6595   44.5349  148.6384 O   0  0  0  0  0  0  0  0  0  0  0  0
  157.3804   44.6258  146.9291 C   0  0  2  0  0  0  0  0  0  0  0  0
  158.3959   41.7558  139.9928 N   0  0  0  0  0  0  0  0  0  0  0  0
  158.0804   43.7716  147.8328 O   0  0  0  0  0  0  0  0  0  0  0  0
  158.3904   41.0234  141.1271 C   0  0  2  0  0  0  0  0  0  0  0  0
  157.7801   46.0908  147.0898 C   0  0  2  0  0  0  0  0  0  0  0  0
  156.5990   46.8674  146.8783 O   0  0  0  0  0  0  0  0  0  0  0  0
  157.2864   40.0840  141.3475 C   0  0  2  0  0  0  0  0  0  0  0  0
  158.8798   46.5718  146.1380 C   0  0  0  0  0  0  0  0  0  0  0  0
  158.6612   46.1798  144.7834 O   0  0  0  0  0  0  0  0  0  0  0  0
  156.2405   39.9974  140.3012 C   0  0  0  0  0  0  0  0  0  0  0  0
  155.2745   39.2085  140.4362 O   0  0  0  0  0  0  0  0  0  0  0  0
  157.5240   39.5007  142.5359 N   0  0  0  0  0  0  0  0  0  0  0  0
  158.6747   40.0147  143.0329 C   0  0  0  0  0  0  0  0  0  0  0  0
  159.1910   40.9242  142.1881 N   0  0  1  0  0  0  0  0  0  0  0  0
  151.5971   44.6102  143.5199 N   0  0  0  0  0  0  0  0  0  0  0  0
  160.8615   47.2836  144.0950 O   0  5  0  0  0  0  0  0  0  0  0  0
  151.6797   44.4785  144.8528 C   0  0  2  0  0  0  0  0  0  0  0  0
  150.6460   43.8990  145.4814 N   0  0  0  0  0  0  0  0  0  0  0  0
  159.2963   46.0884  142.3468 O   0  0  0  0  0  0  0  0  0  0  0  0
  152.7387   44.8996  145.5831 N   0  0  0  0  0  0  0  0  0  0  0  0
  153.7943   45.4917  144.9861 C   0  0  1  0  0  0  0  0  0  0  0  0
  153.7651   45.6654  143.5200 C   0  0  1  0  0  0  0  0  0  0  0  0
  152.5607   45.1834  142.7969 C   0  0  0  0  0  0  0  0  0  0  0  0
  152.4420   45.2788  141.5564 O   0  0  0  0  0  0  0  0  0  0  0  0
  154.9139   46.2753  143.1879 N   0  0  0  0  0  0  0  0  0  0  0  0
  155.6144   46.4666  144.3403 C   0  0  0  0  0  0  0  0  0  0  0  0
  154.9478   46.0028  145.4159 N   0  0  2  0  0  0  0  0  0  0  0  0
  1  3  1  6  0  0  0
  1  4  2  0  0  0  0
  1  6  1  0  0  0  0
  1 22  1  0  0  0  0
  2 28  1  0  0  0  0
  2 35  1  1  0  0  0
  2 38  2  0  0  0  0
  2 10  1  0  0  0  0
  5  6  1  0  0  0  0
  7  5  1  1  0  0  0
  7  8  1  0  0  0  0
  7  9  1  0  0  0  0
  9 10  1  6  0  0  0
  9 11  1  0  0  0  0
 11 12  1  1  0  0  0
 11 13  1  0  0  0  0
 13  8  1  1  0  0  0
 13 33  1  0  0  0  0
 14 46  1  0  0  0  0
 14 17  1  0  0  0  0
 14 25  1  6  0  0  0
 15 16  1  0  0  0  0
 15 29  1  0  0  0  0
 16 18  1  1  0  0  0
 16 21  1  0  0  0  0
 17 19  1  1  0  0  0
 17 20  1  0  0  0  0
 20 22  1  1  0  0  0
 20 24  1  0  0  0  0
 23 21  1  1  0  0  0
 23 26  1  0  0  0  0
 23 33  1  0  0  0  0
 24 25  1  6  0  0  0
 24 27  1  0  0  0  0
 26 29  1  1  0  0  0
 26 31  1  0  0  0  0
 27 28  1  0  0  0  0
 29 30  2  0  0  0  0
 31 32  1  0  0  0  0
 33 32  1  6  0  0  0
 34 36  1  0  0  0  0
 34 42  1  0  0  0  0
 36 37  1  1  0  0  0
 36 39  1  0  0  0  0
 40 39  1  1  0  0  0
 40 41  1  0  0  0  0
 40 46  1  0  0  0  0
 41 42  1  1  0  0  0
 41 44  1  0  0  0  0
 42 43  2  0  0  0  0
 44 45  1  0  0  0  0
 46 45  1  6  0  0  0
M  CHG  2   3  -1  35  -1
M  END
>  <CHROM.1>
176.73711023,74.89339261,157.32909516,43.63762559,144.12598697,-2.21685751
0.20715804,-2.11909237

>  <Name>
ligand

>  <RI>
0

>  <Rbt.Current_Directory>
/home/itssahil/PROJECTS/Mol_Feturizer/Test_systems_manuscript/rnas/4yb0

>  <Rbt.Executable>
rbdock ($Id: //depot/dev/client3/rdock/2013.1/src/exe/rbdock.cxx#4 $)

>  <Rbt.Library>
libRbt.so (2013.1, Build901 2013/11/27)

>  <Rbt.Parameter_File>
/export/apps/rDock/src/rDock_2013.1_src/data/scripts/dock_solv.prm

>  <Rbt.Receptor>
prm/pocket_docking_2.prm

>  <SCORE>
-43.547

>  <SCORE.INTER>
-43.5027

>  <SCORE.INTER.CONST>
1

>  <SCORE.INTER.POLAR>
0

>  <SCORE.INTER.ROT>
2

>  <SCORE.INTER.SOLV>
40.2217

>  <SCORE.INTER.VDW>
-47.3424

>  <SCORE.INTER.norm>
-0.94571

>  <SCORE.INTRA>
-0.0828159

>  <SCORE.INTRA.DIHEDRAL>
-0.0478842

>  <SCORE.INTRA.DIHEDRAL.0>
2.42188

>  <SCORE.INTRA.POLAR>
0

>  <SCORE.INTRA.POLAR.0>
0

>  <SCORE.INTRA.REPUL>
0

>  <SCORE.INTRA.REPUL.0>
0

>  <SCORE.INTRA.SOLV>
-0.00372672

>  <SCORE.INTRA.SOLV.lig_0>
-127.307

>  <SCORE.INTRA.VDW>
-0.0570105

>  <SCORE.INTRA.VDW.0>
-2.19936

>  <SCORE.INTRA.norm>
-0.00180035

>  <SCORE.RESTR>
0.0384382

>  <SCORE.RESTR.CAVITY>
0.0384382

>  <SCORE.RESTR.norm>
0.000835612

>  <SCORE.SYSTEM>
0

>  <SCORE.SYSTEM.CONST>
0

>  <SCORE.SYSTEM.DIHEDRAL>
0

>  <SCORE.SYSTEM.SOLV>
0

>  <SCORE.SYSTEM.norm>
0

>  <SCORE.heavy>
46

>  <SCORE.norm>
-0.946675

>  <RMSD>
0.868

$$$$
ligand
 OpenBabel02271912143D
libRbt.so/2013.1/901 2013/11/27
 46 52  0  0  0  0  0  0  0  0999 V2000
  158.2542   42.1886  147.5656 P   0  0  1  0  0  0  0  0  0  0  0  0
  159.9051   46.1742  143.8480 P   0  0  1  0  0  0  0  0  0  0  0  0
  156.8691   41.6365  147.3469 O   0  5  0  0  0  0  0  0  0  0  0  0
  159.1108   41.4879  148.5976 O   0  0  0  0  0  0  0  0  0  0  0  0
  160.3657   41.9035  145.9973 C   0  0  0  0  0  0  0  0  0  0  0  0
  158.9981   42.2637  146.1422 O   0  0  0  0  0  0  0  0  0  0  0  0
  160.9059   42.4328  144.6790 C   0  0  1  0  0  0  0  0  0  0  0  0
  160.9792   41.3468  143.7663 O   0  0  0  0  0  0  0  0  0  0  0  0
  160.0589   43.5024  144.0011 C   0  0  1  0  0  0  0  0  0  0  0  0
  160.6570   44.7764  144.1900 O   0  0  0  0  0  0  0  0  0  0  0  0
  160.1560   43.1509  142.5335 C   0  0  1  0  0  0  0  0  0  0  0  0
  161.2743   43.8241  141.9519 O   0  0  0  0  0  0  0  0  0  0  0  0
  160.4607   41.6817  142.4882 C   0  0  2  0  0  0  0  0  0  0  0  0
  155.4464   46.0298  146.9287 C   0  0  1  0  0  0  0  0  0  0  0  0
  156.1989   41.0626  139.4882 N   0  0  0  0  0  0  0  0  0  0  0  0
  157.2167   41.9371  139.3786 C   0  0  1  0  0  0  0  0  0  0  0  0
  155.9060   44.6458  147.3372 C   0  0  2  0  0  0  0  0  0  0  0  0
  157.2117   42.8267  138.3608 N   0  0  0  0  0  0  0  0  0  0  0  0
  155.6697   44.5123  148.7415 O   0  0  0  0  0  0  0  0  0  0  0  0
  157.3923   44.6094  147.0342 C   0  0  2  0  0  0  0  0  0  0  0  0
  158.2585   41.9828  140.2397 N   0  0  0  0  0  0  0  0  0  0  0  0
  158.0901   43.7495  147.9341 O   0  0  0  0  0  0  0  0  0  0  0  0
  158.3340   41.1297  141.2835 C   0  0  2  0  0  0  0  0  0  0  0  0
  157.7941   46.0730  147.2029 C   0  0  2  0  0  0  0  0  0  0  0  0
  156.6144   46.8525  146.9944 O   0  0  0  0  0  0  0  0  0  0  0  0
  157.2581   40.1503  141.4654 C   0  0  2  0  0  0  0  0  0  0  0  0
  158.8954   46.5572  146.2546 C   0  0  0  0  0  0  0  0  0  0  0  0
  158.6773   46.1726  144.8978 O   0  0  0  0  0  0  0  0  0  0  0  0
  156.1493   40.1593  140.4823 C   0  0  0  0  0  0  0  0  0  0  0  0
  155.2038   39.3416  140.5877 O   0  0  0  0  0  0  0  0  0  0  0  0
  157.5778   39.4442  142.5645 N   0  0  0  0  0  0  0  0  0  0  0  0
  158.7510   39.9227  143.0441 C   0  0  0  0  0  0  0  0  0  0  0  0
  159.2013   40.9297  142.2756 N   0  0  1  0  0  0  0  0  0  0  0  0
  151.6271   44.5905  143.6154 N   0  0  0  0  0  0  0  0  0  0  0  0
  160.8799   47.2766  144.2170 O   0  5  0  0  0  0  0  0  0  0  0  0
  151.7102   44.4475  144.9471 C   0  0  2  0  0  0  0  0  0  0  0  0
  150.6818   43.8524  145.5697 N   0  0  0  0  0  0  0  0  0  0  0  0
  159.3145   46.0929  142.4613 O   0  0  0  0  0  0  0  0  0  0  0  0
  152.7647   44.8722  145.6818 N   0  0  0  0  0  0  0  0  0  0  0  0
  153.8149   45.4798  145.0909 C   0  0  1  0  0  0  0  0  0  0  0  0
  153.7847   45.6664  143.6264 C   0  0  1  0  0  0  0  0  0  0  0  0
  152.5855   45.1794  142.8982 C   0  0  0  0  0  0  0  0  0  0  0  0
  152.4665   45.2850  141.6585 O   0  0  0  0  0  0  0  0  0  0  0  0
  154.9279   46.2904  143.3005 N   0  0  0  0  0  0  0  0  0  0  0  0
  155.6258   46.4780  144.4551 C   0  0  0  0  0  0  0  0  0  0  0  0
  154.9631   45.9980  145.5261 N   0  0  2  0  0  0  0  0  0  0  0  0
  1  3  1  6  0  0  0
  1  4  2  0  0  0  0
  1  6  1  0  0  0  0
  1 22  1  0  0  0  0
  2 28  1  0  0  0  0
  2 35  1  1  0  0  0
  2 38  2  0  0  0  0
  2 10  1  0  0  0  0
  5  6  1  0  0  0  0
  7  5  1  1  0  0  0
  7  8  1  0  0  0  0
  7  9  1  0  0  0  0
  9 10  1  6  0  0  0
  9 11  1  0  0  0  0
 11 12  1  1  0  0  0
 11 13  1  0  0  0  0
 13  8  1  1  0  0  0
 13 33  1  0  0  0  0
 14 46  1  0  0  0  0
 14 17  1  0  0  0  0
 14 25  1  6  0  0  0
 15 16  1  0  0  0  0
 15 29  1  0  0  0  0
 16 18  1  1  0  0  0
 16 21  1  0  0  0  0
 17 19  1  1  0  0  0
 17 20  1  0  0  0  0
 20 22  1  1  0  0  0
 20 24  1  0  0  0  0
 23 21  1  1  0  0  0
 23 26  1  0  0  0  0
 23 33  1  0  0  0  0
 24 25  1  6  0  0  0
 24 27  1  0  0  0  0
 26 29  1  1  0  0  0
 26 31  1  0  0  0  0
 27 28  1  0  0  0  0
 29 30  2  0  0  0  0
 31 32  1  0  0  0  0
 33 32  1  6  0  0  0
 34 36  1  0  0  0  0
 34 42  1  0  0  0  0
 36 37  1  1  0  0  0
 36 39  1  0  0  0  0
 40 39  1  1  0  0  0
 40 41  1  0  0  0  0
 40 46  1  0  0  0  0
 41 42  1  1  0  0  0
 41 44  1  0  0  0  0
 42 43  2  0  0  0  0
 44 45  1  0  0  0  0
 46 45  1  6  0  0  0
M  CHG  2   3  -1  35  -1
M  END
>  <CHROM.1>
169.58902047,74.21444316,157.32367257,43.66029360,144.24553125,-2.32012249
0.21254635,-2.10816763

>  <Name>
ligand

>  <RI>
0

>  <Rbt.Current_Directory>
/home/itssahil/PROJECTS/Mol_Feturizer/Test_systems_manuscript/rnas/4yb0

>  <Rbt.Executable>
rbdock ($Id: //depot/dev/client3/rdock/2013.1/src/exe/rbdock.cxx#4 $)

>  <Rbt.Library>
libRbt.so (2013.1, Build901 2013/11/27)

>  <Rbt.Parameter_File>
/export/apps/rDock/src/rDock_2013.1_src/data/scripts/dock_solv.prm

>  <Rbt.Receptor>
prm/pocket_docking_7.prm

>  <SCORE>
-44.0798

>  <SCORE.INTER>
-44.0741

>  <SCORE.INTER.CONST>
1

>  <SCORE.INTER.POLAR>
0

>  <SCORE.INTER.ROT>
2

>  <SCORE.INTER.SOLV>
38.8822

>  <SCORE.INTER.VDW>
-47.2768

>  <SCORE.INTER.norm>
-0.958132

>  <SCORE.INTRA>
-0.00569395

>  <SCORE.INTRA.DIHEDRAL>
-0.0550509

>  <SCORE.INTRA.DIHEDRAL.0>
2.42188

>  <SCORE.INTRA.POLAR>
0

>  <SCORE.INTRA.POLAR.0>
0

>  <SCORE.INTRA.REPUL>
0

>  <SCORE.INTRA.REPUL.0>
0

>  <SCORE.INTRA.SOLV>
0.000280962

>  <SCORE.INTRA.SOLV.lig_0>
-127.307

>  <SCORE.INTRA.VDW>
0.021691

>  <SCORE.INTRA.VDW.0>
-2.19936

>  <SCORE.INTRA.norm>
-0.000123782

>  <SCORE.RESTR>
0

>  <SCORE.RESTR.CAVITY>
0

>  <SCORE.RESTR.norm>
0

>  <SCORE.SYSTEM>
0

>  <SCORE.SYSTEM.CONST>
0

>  <SCORE.SYSTEM.DIHEDRAL>
0

>  <SCORE.SYSTEM.SOLV>
0

>  <SCORE.SYSTEM.norm>
0

>  <SCORE.heavy>
46

>  <SCORE.norm>
-0.958256

>  <RMSD>
0.868

$$$$
ligand
 OpenBabel02271912143D
libRbt.so/2013.1/901 2013/11/27
 46 52  0  0  0  0  0  0  0  0999 V2000
  158.2589   42.1823  147.5623 P   0  0  1  0  0  0  0  0  0  0  0  0
  159.9248   46.1605  143.8434 P   0  0  1  0  0  0  0  0  0  0  0  0
  156.8702   41.6383  147.3462 O   0  5  0  0  0  0  0  0  0  0  0  0
  159.1136   41.4762  148.5920 O   0  0  0  0  0  0  0  0  0  0  0  0
  160.3654   41.8860  145.9893 C   0  0  0  0  0  0  0  0  0  0  0  0
  159.0002   42.2539  146.1373 O   0  0  0  0  0  0  0  0  0  0  0  0
  160.9058   42.4129  144.6702 C   0  0  1  0  0  0  0  0  0  0  0  0
  160.9710   41.3270  143.7567 O   0  0  0  0  0  0  0  0  0  0  0  0
  160.0636   43.4877  143.9947 C   0  0  1  0  0  0  0  0  0  0  0  0
  160.6694   44.7582  144.1830 O   0  0  0  0  0  0  0  0  0  0  0  0
  160.1555   43.1365  142.5266 C   0  0  1  0  0  0  0  0  0  0  0  0
  161.2764   43.8036  141.9430 O   0  0  0  0  0  0  0  0  0  0  0  0
  160.4517   41.6657  142.4799 C   0  0  2  0  0  0  0  0  0  0  0  0
  155.4720   46.0400  146.9335 C   0  0  1  0  0  0  0  0  0  0  0  0
  156.2466   40.9805  139.4148 N   0  0  0  0  0  0  0  0  0  0  0  0
  157.2777   41.8378  139.2933 C   0  0  1  0  0  0  0  0  0  0  0  0
  155.9244   44.6532  147.3403 C   0  0  2  0  0  0  0  0  0  0  0  0
  157.3056   42.6868  138.2417 N   0  0  0  0  0  0  0  0  0  0  0  0
  155.6903   44.5203  148.7450 O   0  0  0  0  0  0  0  0  0  0  0  0
  157.4098   44.6084  147.0341 C   0  0  2  0  0  0  0  0  0  0  0  0
  158.3015   41.9047  140.1743 N   0  0  0  0  0  0  0  0  0  0  0  0
  158.1046   43.7440  147.9320 O   0  0  0  0  0  0  0  0  0  0  0  0
  158.3440   41.0923  141.2519 C   0  0  2  0  0  0  0  0  0  0  0  0
  157.8204   46.0695  147.2027 C   0  0  2  0  0  0  0  0  0  0  0  0
  156.6448   46.8559  146.9972 O   0  0  0  0  0  0  0  0  0  0  0  0
  157.2520   40.1338  141.4485 C   0  0  2  0  0  0  0  0  0  0  0  0
  158.9225   46.5479  146.2524 C   0  0  0  0  0  0  0  0  0  0  0  0
  158.6994   46.1653  144.8958 O   0  0  0  0  0  0  0  0  0  0  0  0
  156.1645   40.1176  140.4420 C   0  0  0  0  0  0  0  0  0  0  0  0
  155.2065   39.3159  140.5587 O   0  0  0  0  0  0  0  0  0  0  0  0
  157.5393   39.4676  142.5810 N   0  0  0  0  0  0  0  0  0  0  0  0
  158.7082   39.9504  143.0668 C   0  0  0  0  0  0  0  0  0  0  0  0
  159.1875   40.9210  142.2696 N   0  0  1  0  0  0  0  0  0  0  0  0
  151.6430   44.6136  143.6258 N   0  0  0  0  0  0  0  0  0  0  0  0
  160.9068   47.2570  144.2110 O   0  5  0  0  0  0  0  0  0  0  0  0
  151.7287   44.4678  144.9570 C   0  0  2  0  0  0  0  0  0  0  0  0
  150.7008   43.8732  145.5808 N   0  0  0  0  0  0  0  0  0  0  0  0
  159.3308   46.0834  142.4579 O   0  0  0  0  0  0  0  0  0  0  0  0
  152.7856   44.8893  145.6903 N   0  0  0  0  0  0  0  0  0  0  0  0
  153.8355   45.4964  145.0982 C   0  0  1  0  0  0  0  0  0  0  0  0
  153.8024   45.6860  143.6341 C   0  0  1  0  0  0  0  0  0  0  0  0
  152.6007   45.2024  142.9077 C   0  0  0  0  0  0  0  0  0  0  0  0
  152.4792   45.3106  141.6685 O   0  0  0  0  0  0  0  0  0  0  0  0
  154.9459   46.3087  143.3070 N   0  0  0  0  0  0  0  0  0  0  0  0
  155.6466   46.4928  144.4604 C   0  0  0  0  0  0  0  0  0  0  0  0
  154.9855   46.0118  145.5319 N   0  0  2  0  0  0  0  0  0  0  0  0
  1  3  1  6  0  0  0
  1  4  2  0  0  0  0
  1  6  1  0  0  0  0
  1 22  1  0  0  0  0
  2 28  1  0  0  0  0
  2 35  1  1  0  0  0
  2 38  2  0  0  0  0
  2 10  1  0  0  0  0
  5  6  1  0  0  0  0
  7  5  1  1  0  0  0
  7  8  1  0  0  0  0
  7  9  1  0  0  0  0
  9 10  1  6  0  0  0
  9 11  1  0  0  0  0
 11 12  1  1  0  0  0
 11 13  1  0  0  0  0
 13  8  1  1  0  0  0
 13 33  1  0  0  0  0
 14 46  1  0  0  0  0
 14 17  1  0  0  0  0
 14 25  1  6  0  0  0
 15 16  1  0  0  0  0
 15 29  1  0  0  0  0
 16 18  1  1  0  0  0
 16 21  1  0  0  0  0
 17 19  1  1  0  0  0
 17 20  1  0  0  0  0
 20 22  1  1  0  0  0
 20 24  1  0  0  0  0
 23 21  1  1  0  0  0
 23 26  1  0  0  0  0
 23 33  1  0  0  0  0
 24 25  1  6  0  0  0
 24 27  1  0  0  0  0
 26 29  1  1  0  0  0
 26 31  1  0  0  0  0
 27 28  1  0  0  0  0
 29 30  2  0  0  0  0
 31 32  1  0  0  0  0
 33 32  1  6  0  0  0
 34 36  1  0  0  0  0
 34 42  1  0  0  0  0
 36 37  1  1  0  0  0
 36 39  1  0  0  0  0
 40 39  1  1  0  0  0
 40 41  1  0  0  0  0
 40 46  1  0  0  0  0
 41 42  1  1  0  0  0
 41 44  1  0  0  0  0
 42 43  2  0  0  0  0
 44 45  1  0  0  0  0
 46 45  1  6  0  0  0
M  CHG  2   3  -1  35  -1
M  END
>  <CHROM.1>
172.25881106,73.96533638,157.33770711,43.65000574,144.23682110,-2.26397240
0.21322707,-2.11039166

>  <Name>
ligand

>  <RI>
0

>  <Rbt.Current_Directory>
/home/itssahil/PROJECTS/Mol_Feturizer/Test_systems_manuscript/rnas/4yb0

>  <Rbt.Executable>
rbdock ($Id: //depot/dev/client3/rdock/2013.1/src/exe/rbdock.cxx#4 $)

>  <Rbt.Library>
libRbt.so (2013.1, Build901 2013/11/27)

>  <Rbt.Parameter_File>
/export/apps/rDock/src/rDock_2013.1_src/data/scripts/dock_solv.prm

>  <Rbt.Receptor>
prm/pocket_docking_7.prm

>  <SCORE>
-44.0945

>  <SCORE.INTER>
-44.0613

>  <SCORE.INTER.CONST>
1

>  <SCORE.INTER.POLAR>
0

>  <SCORE.INTER.ROT>
2

>  <SCORE.INTER.SOLV>
39.1371

>  <SCORE.INTER.VDW>
-47.3532

>  <SCORE.INTER.norm>
-0.957854

>  <SCORE.INTRA>
-0.0332498

>  <SCORE.INTRA.DIHEDRAL>
-0.0519529

>  <SCORE.INTRA.DIHEDRAL.0>
2.42188

>  <SCORE.INTRA.POLAR>
0

>  <SCORE.INTRA.POLAR.0>
0

>  <SCORE.INTRA.REPUL>
0

>  <SCORE.INTRA.REPUL.0>
0

>  <SCORE.INTRA.SOLV>
-0.000990151

>  <SCORE.INTRA.SOLV.lig_0>
-127.307

>  <SCORE.INTRA.VDW>
-0.00677834

>  <SCORE.INTRA.VDW.0>
-2.19936

>  <SCORE.INTRA.norm>
-0.000722823

>  <SCORE.RESTR>
0

>  <SCORE.RESTR.CAVITY>
0

>  <SCORE.RESTR.norm>
0

>  <SCORE.SYSTEM>
0

>  <SCORE.SYSTEM.CONST>
0

>  <SCORE.SYSTEM.DIHEDRAL>
0

>  <SCORE.SYSTEM.SOLV>
0

>  <SCORE.SYSTEM.norm>
0

>  <SCORE.heavy>
46

>  <SCORE.norm>
-0.958576

>  <RMSD>
0.869

$$$$
ligand
 OpenBabel02271912143D
libRbt.so/2013.1/901 2013/11/27
 46 52  0  0  0  0  0  0  0  0999 V2000
  158.2693   42.1659  147.5654 P   0  0  1  0  0  0  0  0  0  0  0  0
  159.9587   46.1466  143.8599 P   0  0  1  0  0  0  0  0  0  0  0  0
  156.8800   41.6258  147.3433 O   0  5  0  0  0  0  0  0  0  0  0  0
  159.1184   41.4557  148.5970 O   0  0  0  0  0  0  0  0  0  0  0  0
  160.3807   41.8671  145.9995 C   0  0  0  0  0  0  0  0  0  0  0  0
  159.0159   42.2382  146.1433 O   0  0  0  0  0  0  0  0  0  0  0  0
  160.9272   42.3951  144.6833 C   0  0  1  0  0  0  0  0  0  0  0  0
  160.9929   41.3107  143.7681 O   0  0  0  0  0  0  0  0  0  0  0  0
  160.0902   43.4732  144.0068 C   0  0  1  0  0  0  0  0  0  0  0  0
  160.6985   44.7418  144.1996 O   0  0  0  0  0  0  0  0  0  0  0  0
  160.1866   43.1245  142.5384 C   0  0  1  0  0  0  0  0  0  0  0  0
  161.3113   43.7898  141.9601 O   0  0  0  0  0  0  0  0  0  0  0  0
  160.4792   41.6530  142.4900 C   0  0  2  0  0  0  0  0  0  0  0  0
  155.4944   46.0318  146.9336 C   0  0  1  0  0  0  0  0  0  0  0  0
  156.2551   41.0237  139.4391 N   0  0  0  0  0  0  0  0  0  0  0  0
  157.2853   41.8835  139.3271 C   0  0  1  0  0  0  0  0  0  0  0  0
  155.9418   44.6431  147.3394 C   0  0  2  0  0  0  0  0  0  0  0  0
  157.3063   42.7520  138.2915 N   0  0  0  0  0  0  0  0  0  0  0  0
  155.7023   44.5082  148.7431 O   0  0  0  0  0  0  0  0  0  0  0  0
  157.4282   44.5951  147.0385 C   0  0  2  0  0  0  0  0  0  0  0  0
  158.3145   41.9343  140.2028 N   0  0  0  0  0  0  0  0  0  0  0  0
  158.1175   43.7272  147.9374 O   0  0  0  0  0  0  0  0  0  0  0  0
  158.3640   41.1019  141.2648 C   0  0  2  0  0  0  0  0  0  0  0  0
  157.8419   46.0548  147.2114 C   0  0  2  0  0  0  0  0  0  0  0  0
  156.6690   46.8446  147.0030 O   0  0  0  0  0  0  0  0  0  0  0  0
  157.2735   40.1395  141.4503 C   0  0  2  0  0  0  0  0  0  0  0  0
  158.9486   46.5322  146.2659 C   0  0  0  0  0  0  0  0  0  0  0  0
  158.7295   46.1527  144.9079 O   0  0  0  0  0  0  0  0  0  0  0  0
  156.1797   40.1417  140.4505 C   0  0  0  0  0  0  0  0  0  0  0  0
  155.2226   39.3377  140.5582 O   0  0  0  0  0  0  0  0  0  0  0  0
  157.5680   39.4524  142.5682 N   0  0  0  0  0  0  0  0  0  0  0  0
  158.7398   39.9264  143.0557 C   0  0  0  0  0  0  0  0  0  0  0  0
  159.2139   40.9120  142.2738 N   0  0  1  0  0  0  0  0  0  0  0  0
  151.6703   44.6281  143.6104 N   0  0  0  0  0  0  0  0  0  0  0  0
  160.9422   47.2400  144.2331 O   0  5  0  0  0  0  0  0  0  0  0  0
  151.7505   44.4807  144.9419 C   0  0  2  0  0  0  0  0  0  0  0  0
  150.7172   43.8908  145.5612 N   0  0  0  0  0  0  0  0  0  0  0  0
  159.3696   46.0736  142.4722 O   0  0  0  0  0  0  0  0  0  0  0  0
  152.8068   44.8961  145.6794 N   0  0  0  0  0  0  0  0  0  0  0  0
  153.8619   45.4983  145.0918 C   0  0  1  0  0  0  0  0  0  0  0  0
  153.8352   45.6894  143.6278 C   0  0  1  0  0  0  0  0  0  0  0  0
  152.6337   45.2127  142.8964 C   0  0  0  0  0  0  0  0  0  0  0  0
  152.5174   45.3227  141.6569 O   0  0  0  0  0  0  0  0  0  0  0  0
  154.9830   46.3066  143.3055 N   0  0  0  0  0  0  0  0  0  0  0  0
  155.6805   46.4861  144.4616 C   0  0  0  0  0  0  0  0  0  0  0  0
  155.0129   46.0074  145.5302 N   0  0  2  0  0  0  0  0  0  0  0  0
  1  3  1  6  0  0  0
  1  4  2  0  0  0  0
  1  6  1  0  0  0  0
  1 22  1  0  0  0  0
  2 28  1  0  0  0  0
  2 35  1  1  0  0  0
  2 38  2  0  0  0  0
  2 10  1  0  0  0  0
  5  6  1  0  0  0  0
  7  5  1  1  0  0  0
  7  8  1  0  0  0  0
  7  9  1  0  0  0  0
  9 10  1  6  0  0  0
  9 11  1  0  0  0  0
 11 12  1  1  0  0  0
 11 13  1  0  0  0  0
 13  8  1  1  0  0  0
 13 33  1  0  0  0  0
 14 46  1  0  0  0  0
 14 17  1  0  0  0  0
 14 25  1  6  0  0  0
 15 16  1  0  0  0  0
 15 29  1  0  0  0  0
 16 18  1  1  0  0  0
 16 21  1  0  0  0  0
 17 19  1  1  0  0  0
 17 20  1  0  0  0  0
 20 22  1  1  0  0  0
 20 24  1  0  0  0  0
 23 21  1  1  0  0  0
 23 26  1  0  0  0  0
 23 33  1  0  0  0  0
 24 25  1  6  0  0  0
 24 27  1  0  0  0  0
 26 29  1  1  0  0  0
 26 31  1  0  0  0  0
 27 28  1  0  0  0  0
 29 30  2  0  0  0  0
 31 32  1  0  0  0  0
 33 32  1  6  0  0  0
 34 36  1  0  0  0  0
 34 42  1  0  0  0  0
 36 37  1  1  0  0  0
 36 39  1  0  0  0  0
 40 39  1  1  0  0  0
 40 41  1  0  0  0  0
 40 46  1  0  0  0  0
 41 42  1  1  0  0  0
 41 44  1  0  0  0  0
 42 43  2  0  0  0  0
 44 45  1  0  0  0  0
 46 45  1  6  0  0  0
M  CHG  2   3  -1  35  -1
M  END
>  <CHROM.1>
171.12667965,74.12161772,157.36037595,43.64707992,144.24275275,-2.28748394
0.21884324,-2.10726972

>  <Name>
ligand

>  <RI>
0

>  <Rbt.Current_Directory>
/home/itssahil/PROJECTS/Mol_Feturizer/Test_systems_manuscript/rnas/4yb0

>  <Rbt.Executable>
rbdock ($Id: //depot/dev/client3/rdock/2013.1/src/exe/rbdock.cxx#4 $)

>  <Rbt.Library>
libRbt.so (2013.1, Build901 2013/11/27)

>  <Rbt.Parameter_File>
/export/apps/rDock/src/rDock_2013.1_src/data/scripts/dock_solv.prm

>  <Rbt.Receptor>
prm/pocket_docking_5.prm

>  <SCORE>
-44.1527

>  <SCORE.INTER>
-44.1305

>  <SCORE.INTER.CONST>
1

>  <SCORE.INTER.POLAR>
0

>  <SCORE.INTER.ROT>
2

>  <SCORE.INTER.SOLV>
38.9187

>  <SCORE.INTER.VDW>
-47.3266

>  <SCORE.INTER.norm>
-0.959359

>  <SCORE.INTRA>
-0.0222245

>  <SCORE.INTRA.DIHEDRAL>
-0.0533504

>  <SCORE.INTRA.DIHEDRAL.0>
2.42188

>  <SCORE.INTRA.POLAR>
0

>  <SCORE.INTRA.POLAR.0>
0

>  <SCORE.INTRA.REPUL>
0

>  <SCORE.INTRA.REPUL.0>
0

>  <SCORE.INTRA.SOLV>
-0.00047321

>  <SCORE.INTRA.SOLV.lig_0>
-127.307

>  <SCORE.INTRA.VDW>
0.00468733

>  <SCORE.INTRA.VDW.0>
-2.19936

>  <SCORE.INTRA.norm>
-0.00048314

>  <SCORE.RESTR>
0

>  <SCORE.RESTR.CAVITY>
0

>  <SCORE.RESTR.norm>
0

>  <SCORE.SYSTEM>
0

>  <SCORE.SYSTEM.CONST>
0

>  <SCORE.SYSTEM.DIHEDRAL>
0

>  <SCORE.SYSTEM.SOLV>
0

>  <SCORE.SYSTEM.norm>
0

>  <SCORE.heavy>
46

>  <SCORE.norm>
-0.959842

>  <RMSD>
0.870

$$$$
ligand
 OpenBabel02271912143D
libRbt.so/2013.1/901 2013/11/27
 46 52  0  0  0  0  0  0  0  0999 V2000
  158.2665   42.1296  147.5454 P   0  0  1  0  0  0  0  0  0  0  0  0
  159.9891   46.1251  143.8713 P   0  0  1  0  0  0  0  0  0  0  0  0
  156.8722   41.6040  147.3201 O   0  5  0  0  0  0  0  0  0  0  0  0
  159.1099   41.4032  148.5703 O   0  0  0  0  0  0  0  0  0  0  0  0
  160.3738   41.8245  145.9752 C   0  0  0  0  0  0  0  0  0  0  0  0
  159.0126   42.2068  146.1233 O   0  0  0  0  0  0  0  0  0  0  0  0
  160.9241   42.3583  144.6630 C   0  0  1  0  0  0  0  0  0  0  0  0
  160.9792   41.2809  143.7388 O   0  0  0  0  0  0  0  0  0  0  0  0
  160.0963   43.4496  143.9961 C   0  0  1  0  0  0  0  0  0  0  0  0
  160.7163   44.7110  144.1988 O   0  0  0  0  0  0  0  0  0  0  0  0
  160.1883   43.1121  142.5248 C   0  0  1  0  0  0  0  0  0  0  0  0
  161.3186   43.7719  141.9510 O   0  0  0  0  0  0  0  0  0  0  0  0
  160.4675   41.6384  142.4640 C   0  0  2  0  0  0  0  0  0  0  0  0
  155.5264   46.0256  146.9480 C   0  0  1  0  0  0  0  0  0  0  0  0
  156.2946   40.9888  139.3477 N   0  0  0  0  0  0  0  0  0  0  0  0
  157.3399   41.8297  139.2330 C   0  0  1  0  0  0  0  0  0  0  0  0
  155.9615   44.6296  147.3419 C   0  0  2  0  0  0  0  0  0  0  0  0
  157.3946   42.6691  138.1748 N   0  0  0  0  0  0  0  0  0  0  0  0
  155.7219   44.4853  148.7446 O   0  0  0  0  0  0  0  0  0  0  0  0
  157.4471   44.5705  147.0394 C   0  0  2  0  0  0  0  0  0  0  0  0
  158.3525   41.8891  140.1273 N   0  0  0  0  0  0  0  0  0  0  0  0
  158.1293   43.6891  147.9304 O   0  0  0  0  0  0  0  0  0  0  0  0
  158.3683   41.0856  141.2123 C   0  0  2  0  0  0  0  0  0  0  0  0
  157.8742   46.0250  147.2239 C   0  0  2  0  0  0  0  0  0  0  0  0
  156.7085   46.8271  147.0230 O   0  0  0  0  0  0  0  0  0  0  0  0
  157.2596   40.1451  141.4021 C   0  0  2  0  0  0  0  0  0  0  0  0
  158.9845   46.5000  146.2814 C   0  0  0  0  0  0  0  0  0  0  0  0
  158.7608   46.1337  144.9204 O   0  0  0  0  0  0  0  0  0  0  0  0
  156.1857   40.1362  140.3810 C   0  0  0  0  0  0  0  0  0  0  0  0
  155.2144   39.3498  140.4914 O   0  0  0  0  0  0  0  0  0  0  0  0
  157.5216   39.4846  142.5440 N   0  0  0  0  0  0  0  0  0  0  0  0
  158.6908   39.9542  143.0416 C   0  0  0  0  0  0  0  0  0  0  0  0
  159.1953   40.9108  142.2428 N   0  0  1  0  0  0  0  0  0  0  0  0
  151.7260   44.6076  143.6038 N   0  0  0  0  0  0  0  0  0  0  0  0
  160.9828   47.2064  144.2526 O   0  5  0  0  0  0  0  0  0  0  0  0
  151.8108   44.4377  144.9323 C   0  0  2  0  0  0  0  0  0  0  0  0
  150.7901   43.8166  145.5419 N   0  0  0  0  0  0  0  0  0  0  0  0
  159.3982   46.0689  142.4836 O   0  0  0  0  0  0  0  0  0  0  0  0
  152.8598   44.8603  145.6761 N   0  0  0  0  0  0  0  0  0  0  0  0
  153.9022   45.4936  145.0984 C   0  0  1  0  0  0  0  0  0  0  0  0
  153.8697   45.7106  143.6382 C   0  0  1  0  0  0  0  0  0  0  0  0
  152.6768   45.2238  142.8995 C   0  0  0  0  0  0  0  0  0  0  0  0
  152.5566   45.3538  141.6623 O   0  0  0  0  0  0  0  0  0  0  0  0
  155.0048   46.3559  143.3259 N   0  0  0  0  0  0  0  0  0  0  0  0
  155.7002   46.5280  144.4844 C   0  0  0  0  0  0  0  0  0  0  0  0
  155.0436   46.0172  145.5448 N   0  0  2  0  0  0  0  0  0  0  0  0
  1  3  1  6  0  0  0
  1  4  2  0  0  0  0
  1  6  1  0  0  0  0
  1 22  1  0  0  0  0
  2 28  1  0  0  0  0
  2 35  1  1  0  0  0
  2 38  2  0  0  0  0
  2 10  1  0  0  0  0
  5  6  1  0  0  0  0
  7  5  1  1  0  0  0
  7  8  1  0  0  0  0
  7  9  1  0  0  0  0
  9 10  1  6  0  0  0
  9 11  1  0  0  0  0
 11 12  1  1  0  0  0
 11 13  1  0  0  0  0
 13  8  1  1  0  0  0
 13 33  1  0  0  0  0
 14 46  1  0  0  0  0
 14 17  1  0  0  0  0
 14 25  1  6  0  0  0
 15 16  1  0  0  0  0
 15 29  1  0  0  0  0
 16 18  1  1  0  0  0
 16 21  1  0  0  0  0
 17 19  1  1  0  0  0
 17 20  1  0  0  0  0
 20 22  1  1  0  0  0
 20 24  1  0  0  0  0
 23 21  1  1  0  0  0
 23 26  1  0  0  0  0
 23 33  1  0  0  0  0
 24 25  1  6  0  0  0
 24 27  1  0  0  0  0
 26 29  1  1  0  0  0
 26 31  1  0  0  0  0
 27 28  1  0  0  0  0
 29 30  2  0  0  0  0
 31 32  1  0  0  0  0
 33 32  1  6  0  0  0
 34 36  1  0  0  0  0
 34 42  1  0  0  0  0
 36 37  1  1  0  0  0
 36 39  1  0  0  0  0
 40 39  1  1  0  0  0
 40 41  1  0  0  0  0
 40 46  1  0  0  0  0
 41 42  1  1  0  0  0
 41 44  1  0  0  0  0
 42 43  2  0  0  0  0
 44 45  1  0  0  0  0
 46 45  1  6  0  0  0
M  CHG  2   3  -1  35  -1
M  END
>  <CHROM.1>
173.50680202,72.38400140,157.37911184,43.62879859,144.22753899,-2.21662784
0.21747600,-2.10319080

>  <Name>
ligand

>  <RI>
0

>  <Rbt.Current_Directory>
/home/itssahil/PROJECTS/Mol_Feturizer/Test_systems_manuscript/rnas/4yb0

>  <Rbt.Executable>
rbdock ($Id: //depot/dev/client3/rdock/2013.1/src/exe/rbdock.cxx#4 $)

>  <Rbt.Library>
libRbt.so (2013.1, Build901 2013/11/27)

>  <Rbt.Parameter_File>
/export/apps/rDock/src/rDock_2013.1_src/data/scripts/dock_solv.prm

>  <Rbt.Receptor>
prm/pocket_docking_3.prm

>  <SCORE>
-44.0421

>  <SCORE.INTER>
-44.0066

>  <SCORE.INTER.CONST>
1

>  <SCORE.INTER.POLAR>
0

>  <SCORE.INTER.ROT>
2

>  <SCORE.INTER.SOLV>
38.9235

>  <SCORE.INTER.VDW>
-47.2456

>  <SCORE.INTER.norm>
-0.956665

>  <SCORE.INTRA>
-0.0354701

>  <SCORE.INTRA.DIHEDRAL>
-0.0486928

>  <SCORE.INTRA.DIHEDRAL.0>
2.42188

>  <SCORE.INTRA.POLAR>
0

>  <SCORE.INTRA.POLAR.0>
0

>  <SCORE.INTRA.REPUL>
0

>  <SCORE.INTRA.REPUL.0>
0

>  <SCORE.INTRA.SOLV>
-0.000923044

>  <SCORE.INTRA.SOLV.lig_0>
-127.307

>  <SCORE.INTRA.VDW>
-0.0106622

>  <SCORE.INTRA.VDW.0>
-2.19936

>  <SCORE.INTRA.norm>
-0.000771089

>  <SCORE.RESTR>
0

>  <SCORE.RESTR.CAVITY>
0

>  <SCORE.RESTR.norm>
0

>  <SCORE.SYSTEM>
0

>  <SCORE.SYSTEM.CONST>
0

>  <SCORE.SYSTEM.DIHEDRAL>
0

>  <SCORE.SYSTEM.SOLV>
0

>  <SCORE.SYSTEM.norm>
0

>  <SCORE.heavy>
46

>  <SCORE.norm>
-0.957436

>  <RMSD>
0.873

$$$$
ligand
 OpenBabel02271912143D
libRbt.so/2013.1/901 2013/11/27
 46 52  0  0  0  0  0  0  0  0999 V2000
  158.2705   42.1610  147.5642 P   0  0  1  0  0  0  0  0  0  0  0  0
  160.0026   46.1723  143.9117 P   0  0  1  0  0  0  0  0  0  0  0  0
  156.8803   41.6298  147.3273 O   0  5  0  0  0  0  0  0  0  0  0  0
  159.1096   41.4362  148.5938 O   0  0  0  0  0  0  0  0  0  0  0  0
  160.3909   41.8688  146.0092 C   0  0  0  0  0  0  0  0  0  0  0  0
  159.0269   42.2447  146.1479 O   0  0  0  0  0  0  0  0  0  0  0  0
  160.9485   42.4079  144.7022 C   0  0  1  0  0  0  0  0  0  0  0  0
  161.0154   41.3328  143.7762 O   0  0  0  0  0  0  0  0  0  0  0  0
  160.1209   43.4969  144.0315 C   0  0  1  0  0  0  0  0  0  0  0  0
  160.7337   44.7606  144.2416 O   0  0  0  0  0  0  0  0  0  0  0  0
  160.2254   43.1631  142.5603 C   0  0  1  0  0  0  0  0  0  0  0  0
  161.3570   43.8292  141.9964 O   0  0  0  0  0  0  0  0  0  0  0  0
  160.5116   41.6908  142.4984 C   0  0  2  0  0  0  0  0  0  0  0  0
  155.5176   46.0461  146.9547 C   0  0  1  0  0  0  0  0  0  0  0  0
  156.3860   40.9998  139.3284 N   0  0  0  0  0  0  0  0  0  0  0  0
  157.4311   41.8420  139.2204 C   0  0  1  0  0  0  0  0  0  0  0  0
  155.9560   44.6512  147.3489 C   0  0  2  0  0  0  0  0  0  0  0  0
  157.4994   42.6706  138.1546 N   0  0  0  0  0  0  0  0  0  0  0  0
  155.7065   44.5028  148.7494 O   0  0  0  0  0  0  0  0  0  0  0  0
  157.4441   44.5994  147.0573 C   0  0  2  0  0  0  0  0  0  0  0  0
  158.4304   41.9128  140.1287 N   0  0  0  0  0  0  0  0  0  0  0  0
  158.1235   43.7191  147.9515 O   0  0  0  0  0  0  0  0  0  0  0  0
  158.4321   41.1204  141.2219 C   0  0  2  0  0  0  0  0  0  0  0  0
  157.8633   46.0554  147.2481 C   0  0  2  0  0  0  0  0  0  0  0  0
  156.6954   46.8527  147.0403 O   0  0  0  0  0  0  0  0  0  0  0  0
  157.3229   40.1792  141.4051 C   0  0  2  0  0  0  0  0  0  0  0  0
  158.9784   46.5374  146.3149 C   0  0  0  0  0  0  0  0  0  0  0  0
  158.7665   46.1731  144.9516 O   0  0  0  0  0  0  0  0  0  0  0  0
  156.2640   40.1574  140.3686 C   0  0  0  0  0  0  0  0  0  0  0  0
  155.2929   39.3700  140.4729 O   0  0  0  0  0  0  0  0  0  0  0  0
  157.5697   39.5310  142.5574 N   0  0  0  0  0  0  0  0  0  0  0  0
  158.7304   40.0084  143.0671 C   0  0  0  0  0  0  0  0  0  0  0  0
  159.2444   40.9579  142.2661 N   0  0  1  0  0  0  0  0  0  0  0  0
  151.7441   44.6270  143.5806 N   0  0  0  0  0  0  0  0  0  0  0  0
  160.9886   47.2571  144.3028 O   0  5  0  0  0  0  0  0  0  0  0  0
  151.8192   44.4558  144.9095 C   0  0  2  0  0  0  0  0  0  0  0  0
  150.7947   43.8328  145.5108 N   0  0  0  0  0  0  0  0  0  0  0  0
  159.4224   46.1164  142.5194 O   0  0  0  0  0  0  0  0  0  0  0  0
  152.8620   44.8789  145.6616 N   0  0  0  0  0  0  0  0  0  0  0  0
  153.9079   45.5141  145.0924 C   0  0  1  0  0  0  0  0  0  0  0  0
  153.8861   45.7326  143.6322 C   0  0  1  0  0  0  0  0  0  0  0  0
  152.6994   45.2451  142.8841 C   0  0  0  0  0  0  0  0  0  0  0  0
  152.5883   45.3763  141.6461 O   0  0  0  0  0  0  0  0  0  0  0  0
  155.0227   46.3796  143.3291 N   0  0  0  0  0  0  0  0  0  0  0  0
  155.7092   46.5514  144.4930 C   0  0  0  0  0  0  0  0  0  0  0  0
  155.0453   46.0386  145.5479 N   0  0  2  0  0  0  0  0  0  0  0  0
  1  3  1  6  0  0  0
  1  4  2  0  0  0  0
  1  6  1  0  0  0  0
  1 22  1  0  0  0  0
  2 28  1  0  0  0  0
  2 35  1  1  0  0  0
  2 38  2  0  0  0  0
  2 10  1  0  0  0  0
  5  6  1  0  0  0  0
  7  5  1  1  0  0  0
  7  8  1  0  0  0  0
  7  9  1  0  0  0  0
  9 10  1  6  0  0  0
  9 11  1  0  0  0  0
 11 12  1  1  0  0  0
 11 13  1  0  0  0  0
 13  8  1  1  0  0  0
 13 33  1  0  0  0  0
 14 46  1  0  0  0  0
 14 17  1  0  0  0  0
 14 25  1  6  0  0  0
 15 16  1  0  0  0  0
 15 29  1  0  0  0  0
 16 18  1  1  0  0  0
 16 21  1  0  0  0  0
 17 19  1  1  0  0  0
 17 20  1  0  0  0  0
 20 22  1  1  0  0  0
 20 24  1  0  0  0  0
 23 21  1  1  0  0  0
 23 26  1  0  0  0  0
 23 33  1  0  0  0  0
 24 25  1  6  0  0  0
 24 27  1  0  0  0  0
 26 29  1  1  0  0  0
 26 31  1  0  0  0  0
 27 28  1  0  0  0  0
 29 30  2  0  0  0  0
 31 32  1  0  0  0  0
 33 32  1  6  0  0  0
 34 36  1  0  0  0  0
 34 42  1  0  0  0  0
 36 37  1  1  0  0  0
 36 39  1  0  0  0  0
 40 39  1  1  0  0  0
 40 41  1  0  0  0  0
 40 46  1  0  0  0  0
 41 42  1  1  0  0  0
 41 44  1  0  0  0  0
 42 43  2  0  0  0  0
 44 45  1  0  0  0  0
 46 45  1  6  0  0  0
M  CHG  2   3  -1  35  -1
M  END
>  <CHROM.1>
174.33219495,72.58017923,157.40306151,43.66123786,144.24088578,-2.21636137
0.21738329,-2.09976173

>  <Name>
ligand

>  <RI>
0

>  <Rbt.Current_Directory>
/home/itssahil/PROJECTS/Mol_Feturizer/Test_systems_manuscript/rnas/4yb0

>  <Rbt.Executable>
rbdock ($Id: //depot/dev/client3/rdock/2013.1/src/exe/rbdock.cxx#4 $)

>  <Rbt.Library>
libRbt.so (2013.1, Build901 2013/11/27)

>  <Rbt.Parameter_File>
/export/apps/rDock/src/rDock_2013.1_src/data/scripts/dock_solv.prm

>  <Rbt.Receptor>
prm/pocket_docking_3.prm

>  <SCORE>
-43.9849

>  <SCORE.INTER>
-43.94

>  <SCORE.INTER.CONST>
1

>  <SCORE.INTER.POLAR>
0

>  <SCORE.INTER.ROT>
2

>  <SCORE.INTER.SOLV>
38.5256

>  <SCORE.INTER.VDW>
-47.0685

>  <SCORE.INTER.norm>
-0.955216

>  <SCORE.INTRA>
-0.0449768

>  <SCORE.INTRA.DIHEDRAL>
-0.0479994

>  <SCORE.INTRA.DIHEDRAL.0>
2.42188

>  <SCORE.INTRA.POLAR>
0

>  <SCORE.INTRA.POLAR.0>
0

>  <SCORE.INTRA.REPUL>
0

>  <SCORE.INTRA.REPUL.0>
0

>  <SCORE.INTRA.SOLV>
-0.00144083

>  <SCORE.INTRA.SOLV.lig_0>
-127.307

>  <SCORE.INTRA.VDW>
-0.0202566

>  <SCORE.INTRA.VDW.0>
-2.19936

>  <SCORE.INTRA.norm>
-0.000977756

>  <SCORE.RESTR>
0

>  <SCORE.RESTR.CAVITY>
0

>  <SCORE.RESTR.norm>
0

>  <SCORE.SYSTEM>
0

>  <SCORE.SYSTEM.CONST>
0

>  <SCORE.SYSTEM.DIHEDRAL>
0

>  <SCORE.SYSTEM.SOLV>
0

>  <SCORE.SYSTEM.norm>
0

>  <SCORE.heavy>
46

>  <SCORE.norm>
-0.956194

>  <RMSD>
0.873

$$$$
ligand
 OpenBabel02271912143D
libRbt.so/2013.1/901 2013/11/27
 46 52  0  0  0  0  0  0  0  0999 V2000
  158.2575   42.1566  147.5838 P   0  0  1  0  0  0  0  0  0  0  0  0
  159.9665   46.1649  143.9172 P   0  0  1  0  0  0  0  0  0  0  0  0
  156.8654   41.6259  147.3568 O   0  5  0  0  0  0  0  0  0  0  0  0
  159.1032   41.4318  148.6080 O   0  0  0  0  0  0  0  0  0  0  0  0
  160.3669   41.8623  146.0143 C   0  0  0  0  0  0  0  0  0  0  0  0
  159.0041   42.2391  146.1622 O   0  0  0  0  0  0  0  0  0  0  0  0
  160.9157   42.4004  144.7032 C   0  0  1  0  0  0  0  0  0  0  0  0
  160.9756   41.3248  143.7773 O   0  0  0  0  0  0  0  0  0  0  0  0
  160.0841   43.4896  144.0376 C   0  0  1  0  0  0  0  0  0  0  0  0
  160.6990   44.7530  144.2428 O   0  0  0  0  0  0  0  0  0  0  0  0
  160.1782   43.1549  142.5659 C   0  0  1  0  0  0  0  0  0  0  0  0
  161.3062   43.8200  141.9938 O   0  0  0  0  0  0  0  0  0  0  0  0
  160.4632   41.6824  142.5028 C   0  0  2  0  0  0  0  0  0  0  0  0
  155.5025   46.0429  146.9913 C   0  0  1  0  0  0  0  0  0  0  0  0
  156.2645   41.0639  139.4149 N   0  0  0  0  0  0  0  0  0  0  0  0
  157.3028   41.9144  139.3066 C   0  0  1  0  0  0  0  0  0  0  0  0
  155.9429   44.6479  147.3832 C   0  0  2  0  0  0  0  0  0  0  0  0
  157.3413   42.7746  138.2645 N   0  0  0  0  0  0  0  0  0  0  0  0
  155.7030   44.5004  148.7855 O   0  0  0  0  0  0  0  0  0  0  0  0
  157.4289   44.5951  147.0813 C   0  0  2  0  0  0  0  0  0  0  0  0
  158.3237   41.9635  140.1920 N   0  0  0  0  0  0  0  0  0  0  0  0
  158.1140   43.7149  147.9713 O   0  0  0  0  0  0  0  0  0  0  0  0
  158.3557   41.1392  141.2609 C   0  0  2  0  0  0  0  0  0  0  0  0
  157.8502   46.0510  147.2684 C   0  0  2  0  0  0  0  0  0  0  0  0
  156.6814   46.8488  147.0682 O   0  0  0  0  0  0  0  0  0  0  0  0
  157.2555   40.1872  141.4429 C   0  0  2  0  0  0  0  0  0  0  0  0
  158.9591   46.5319  146.3273 C   0  0  0  0  0  0  0  0  0  0  0  0
  158.7375   46.1670  144.9656 O   0  0  0  0  0  0  0  0  0  0  0  0
  156.1717   40.1905  140.4323 C   0  0  0  0  0  0  0  0  0  0  0  0
  155.2070   39.3953  140.5367 O   0  0  0  0  0  0  0  0  0  0  0  0
  157.5333   39.5064  142.5690 N   0  0  0  0  0  0  0  0  0  0  0  0
  158.7040   39.9746  143.0644 C   0  0  0  0  0  0  0  0  0  0  0  0
  159.1940   40.9501  142.2797 N   0  0  1  0  0  0  0  0  0  0  0  0
  151.7447   44.5514  143.6309 N   0  0  0  0  0  0  0  0  0  0  0  0
  160.9557   47.2494  144.3008 O   0  5  0  0  0  0  0  0  0  0  0  0
  151.8339   44.3706  144.9577 C   0  0  2  0  0  0  0  0  0  0  0  0
  150.8311   43.7148  145.5605 N   0  0  0  0  0  0  0  0  0  0  0  0
  159.3765   46.1086  142.5290 O   0  0  0  0  0  0  0  0  0  0  0  0
  152.8703   44.8153  145.7063 N   0  0  0  0  0  0  0  0  0  0  0  0
  153.8945   45.4836  145.1356 C   0  0  1  0  0  0  0  0  0  0  0  0
  153.8563   45.7143  143.6775 C   0  0  1  0  0  0  0  0  0  0  0  0
  152.6778   45.2013  142.9334 C   0  0  0  0  0  0  0  0  0  0  0  0
  152.5543   45.3403  141.6974 O   0  0  0  0  0  0  0  0  0  0  0  0
  154.9727   46.3946  143.3724 N   0  0  0  0  0  0  0  0  0  0  0  0
  155.6626   46.5747  144.5329 C   0  0  0  0  0  0  0  0  0  0  0  0
  155.0205   46.0349  145.5878 N   0  0  2  0  0  0  0  0  0  0  0  0
  1  3  1  6  0  0  0
  1  4  2  0  0  0  0
  1  6  1  0  0  0  0
  1 22  1  0  0  0  0
  2 28  1  0  0  0  0
  2 35  1  1  0  0  0
  2 38  2  0  0  0  0
  2 10  1  0  0  0  0
  5  6  1  0  0  0  0
  7  5  1  1  0  0  0
  7  8  1  0  0  0  0
  7  9  1  0  0  0  0
  9 10  1  6  0  0  0
  9 11  1  0  0  0  0
 11 12  1  1  0  0  0
 11 13  1  0  0  0  0
 13  8  1  1  0  0  0
 13 33  1  0  0  0  0
 14 46  1  0  0  0  0
 14 17  1  0  0  0  0
 14 25  1  6  0  0  0
 15 16  1  0  0  0  0
 15 29  1  0  0  0  0
 16 18  1  1  0  0  0
 16 21  1  0  0  0  0
 17 19  1  1  0  0  0
 17 20  1  0  0  0  0
 20 22  1  1  0  0  0
 20 24  1  0  0  0  0
 23 21  1  1  0  0  0
 23 26  1  0  0  0  0
 23 33  1  0  0  0  0
 24 25  1  6  0  0  0
 24 27  1  0  0  0  0
 26 29  1  1  0  0  0
 26 31  1  0  0  0  0
 27 28  1  0  0  0  0
 29 30  2  0  0  0  0
 31 32  1  0  0  0  0
 33 32  1  6  0  0  0
 34 36  1  0  0  0  0
 34 42  1  0  0  0  0
 36 37  1  1  0  0  0
 36 39  1  0  0  0  0
 40 39  1  1  0  0  0
 40 41  1  0  0  0  0
 40 46  1  0  0  0  0
 41 42  1  1  0  0  0
 41 44  1  0  0  0  0
 42 43  2  0  0  0  0
 44 45  1  0  0  0  0
 46 45  1  6  0  0  0
M  CHG  2   3  -1  35  -1
M  END
>  <CHROM.1>
172.30997695,70.90473406,157.36664572,43.65540419,144.27005410,-2.21370416
0.20998771,-2.10100770

>  <Name>
ligand

>  <RI>
0

>  <Rbt.Current_Directory>
/home/itssahil/PROJECTS/Mol_Feturizer/Test_systems_manuscript/rnas/4yb0

>  <Rbt.Executable>
rbdock ($Id: //depot/dev/client3/rdock/2013.1/src/exe/rbdock.cxx#4 $)

>  <Rbt.Library>
libRbt.so (2013.1, Build901 2013/11/27)

>  <Rbt.Parameter_File>
/export/apps/rDock/src/rDock_2013.1_src/data/scripts/dock_solv.prm

>  <Rbt.Receptor>
prm/pocket_docking_4.prm

>  <SCORE>
-43.9252

>  <SCORE.INTER>
-43.9412

>  <SCORE.INTER.CONST>
1

>  <SCORE.INTER.POLAR>
0

>  <SCORE.INTER.ROT>
2

>  <SCORE.INTER.SOLV>
38.2619

>  <SCORE.INTER.VDW>
-46.9814

>  <SCORE.INTER.norm>
-0.955243

>  <SCORE.INTRA>
0.0160126

>  <SCORE.INTRA.DIHEDRAL>
-0.0481463

>  <SCORE.INTRA.DIHEDRAL.0>
2.42188

>  <SCORE.INTRA.POLAR>
0

>  <SCORE.INTRA.POLAR.0>
0

>  <SCORE.INTRA.REPUL>
0

>  <SCORE.INTRA.REPUL.0>
0

>  <SCORE.INTRA.SOLV>
0.000378291

>  <SCORE.INTRA.SOLV.lig_0>
-127.307

>  <SCORE.INTRA.VDW>
0.0398966

>  <SCORE.INTRA.VDW.0>
-2.19936

>  <SCORE.INTRA.norm>
0.0003481

>  <SCORE.RESTR>
0

>  <SCORE.RESTR.CAVITY>
0

>  <SCORE.RESTR.norm>
0

>  <SCORE.SYSTEM>
0

>  <SCORE.SYSTEM.CONST>
0

>  <SCORE.SYSTEM.DIHEDRAL>
0

>  <SCORE.SYSTEM.SOLV>
0

>  <SCORE.SYSTEM.norm>
0

>  <SCORE.heavy>
46

>  <SCORE.norm>
-0.954895

>  <RMSD>
0.874

$$$$
ligand
 OpenBabel02271912143D
libRbt.so/2013.1/901 2013/11/27
 46 52  0  0  0  0  0  0  0  0999 V2000
  158.2646   42.1541  147.5785 P   0  0  1  0  0  0  0  0  0  0  0  0
  159.9849   46.1489  143.9025 P   0  0  1  0  0  0  0  0  0  0  0  0
  156.8728   41.6233  147.3498 O   0  5  0  0  0  0  0  0  0  0  0  0
  159.1073   41.4325  148.6075 O   0  0  0  0  0  0  0  0  0  0  0  0
  160.3779   41.8535  146.0156 C   0  0  0  0  0  0  0  0  0  0  0  0
  159.0149   42.2313  146.1586 O   0  0  0  0  0  0  0  0  0  0  0  0
  160.9305   42.3868  144.7041 C   0  0  1  0  0  0  0  0  0  0  0  0
  160.9922   41.3079  143.7821 O   0  0  0  0  0  0  0  0  0  0  0  0
  160.1010   43.4739  144.0325 C   0  0  1  0  0  0  0  0  0  0  0  0
  160.7160   44.7378  144.2349 O   0  0  0  0  0  0  0  0  0  0  0  0
  160.1989   43.1341  142.5622 C   0  0  1  0  0  0  0  0  0  0  0  0
  161.3287   43.7967  141.9908 O   0  0  0  0  0  0  0  0  0  0  0  0
  160.4833   41.6612  142.5051 C   0  0  2  0  0  0  0  0  0  0  0  0
  155.5129   46.0395  146.9652 C   0  0  1  0  0  0  0  0  0  0  0  0
  156.2507   41.0923  139.4542 N   0  0  0  0  0  0  0  0  0  0  0  0
  157.2843   41.9491  139.3521 C   0  0  1  0  0  0  0  0  0  0  0  0
  155.9516   44.6457  147.3631 C   0  0  2  0  0  0  0  0  0  0  0  0
  157.3071   42.8317  138.3285 N   0  0  0  0  0  0  0  0  0  0  0  0
  155.7080   44.5032  148.7653 O   0  0  0  0  0  0  0  0  0  0  0  0
  157.4384   44.5913  147.0654 C   0  0  2  0  0  0  0  0  0  0  0  0
  158.3155   41.9834  140.2263 N   0  0  0  0  0  0  0  0  0  0  0  0
  158.1207   43.7139  147.9602 O   0  0  0  0  0  0  0  0  0  0  0  0
  158.3634   41.1363  141.2766 C   0  0  2  0  0  0  0  0  0  0  0  0
  157.8598   46.0476  147.2485 C   0  0  2  0  0  0  0  0  0  0  0  0
  156.6919   46.8452  147.0425 O   0  0  0  0  0  0  0  0  0  0  0  0
  157.2691   40.1761  141.4510 C   0  0  2  0  0  0  0  0  0  0  0  0
  158.9714   46.5247  146.3086 C   0  0  0  0  0  0  0  0  0  0  0  0
  158.7533   46.1551  144.9477 O   0  0  0  0  0  0  0  0  0  0  0  0
  156.1734   40.1968  140.4535 C   0  0  0  0  0  0  0  0  0  0  0  0
  155.2131   39.3955  140.5521 O   0  0  0  0  0  0  0  0  0  0  0  0
  157.5629   39.4724  142.5588 N   0  0  0  0  0  0  0  0  0  0  0  0
  158.7376   39.9346  143.0504 C   0  0  0  0  0  0  0  0  0  0  0  0
  159.2144   40.9288  142.2812 N   0  0  1  0  0  0  0  0  0  0  0  0
  151.7134   44.6300  143.6164 N   0  0  0  0  0  0  0  0  0  0  0  0
  160.9736   47.2343  144.2850 O   0  5  0  0  0  0  0  0  0  0  0  0
  151.7927   44.4667  144.9460 C   0  0  2  0  0  0  0  0  0  0  0  0
  150.7657   43.8561  145.5557 N   0  0  0  0  0  0  0  0  0  0  0  0
  159.3986   46.0880  142.5130 O   0  0  0  0  0  0  0  0  0  0  0  0
  152.8423   44.8860  145.6910 N   0  0  0  0  0  0  0  0  0  0  0  0
  153.8909   45.5088  145.1133 C   0  0  1  0  0  0  0  0  0  0  0  0
  153.8647   45.7181  143.6518 C   0  0  1  0  0  0  0  0  0  0  0  0
  152.6708   45.2356  142.9119 C   0  0  0  0  0  0  0  0  0  0  0  0
  152.5555   45.3597  141.6736 O   0  0  0  0  0  0  0  0  0  0  0  0
  155.0053   46.3537  143.3397 N   0  0  0  0  0  0  0  0  0  0  0  0
  155.6981   46.5272  144.4995 C   0  0  0  0  0  0  0  0  0  0  0  0
  155.0346   46.0268  145.5605 N   0  0  2  0  0  0  0  0  0  0  0  0
  1  3  1  6  0  0  0
  1  4  2  0  0  0  0
  1  6  1  0  0  0  0
  1 22  1  0  0  0  0
  2 28  1  0  0  0  0
  2 35  1  1  0  0  0
  2 38  2  0  0  0  0
  2 10  1  0  0  0  0
  5  6  1  0  0  0  0
  7  5  1  1  0  0  0
  7  8  1  0  0  0  0
  7  9  1  0  0  0  0
  9 10  1  6  0  0  0
  9 11  1  0  0  0  0
 11 12  1  1  0  0  0
 11 13  1  0  0  0  0
 13  8  1  1  0  0  0
 13 33  1  0  0  0  0
 14 46  1  0  0  0  0
 14 17  1  0  0  0  0
 14 25  1  6  0  0  0
 15 16  1  0  0  0  0
 15 29  1  0  0  0  0
 16 18  1  1  0  0  0
 16 21  1  0  0  0  0
 17 19  1  1  0  0  0
 17 20  1  0  0  0  0
 20 22  1  1  0  0  0
 20 24  1  0  0  0  0
 23 21  1  1  0  0  0
 23 26  1  0  0  0  0
 23 33  1  0  0  0  0
 24 25  1  6  0  0  0
 24 27  1  0  0  0  0
 26 29  1  1  0  0  0
 26 31  1  0  0  0  0
 27 28  1  0  0  0  0
 29 30  2  0  0  0  0
 31 32  1  0  0  0  0
 33 32  1  6  0  0  0
 34 36  1  0  0  0  0
 34 42  1  0  0  0  0
 36 37  1  1  0  0  0
 36 39  1  0  0  0  0
 40 39  1  1  0  0  0
 40 41  1  0  0  0  0
 40 46  1  0  0  0  0
 41 42  1  1  0  0  0
 41 44  1  0  0  0  0
 42 43  2  0  0  0  0
 44 45  1  0  0  0  0
 46 45  1  6  0  0  0
M  CHG  2   3  -1  35  -1
M  END
>  <CHROM.1>
170.63248231,73.02013307,157.37308110,43.65815645,144.26401581,-2.27933132
0.22102427,-2.10150415

>  <Name>
ligand

>  <RI>
0

>  <Rbt.Current_Directory>
/home/itssahil/PROJECTS/Mol_Feturizer/Test_systems_manuscript/rnas/4yb0

>  <Rbt.Executable>
rbdock ($Id: //depot/dev/client3/rdock/2013.1/src/exe/rbdock.cxx#4 $)

>  <Rbt.Library>
libRbt.so (2013.1, Build901 2013/11/27)

>  <Rbt.Parameter_File>
/export/apps/rDock/src/rDock_2013.1_src/data/scripts/dock_solv.prm

>  <Rbt.Receptor>
prm/pocket_docking_3.prm

>  <SCORE>
-44.0458

>  <SCORE.INTER>
-44.0362

>  <SCORE.INTER.CONST>
1

>  <SCORE.INTER.POLAR>
0

>  <SCORE.INTER.ROT>
2

>  <SCORE.INTER.SOLV>
38.5572

>  <SCORE.INTER.VDW>
-47.1432

>  <SCORE.INTER.norm>
-0.957309

>  <SCORE.INTRA>
-0.00958418

>  <SCORE.INTRA.DIHEDRAL>
-0.052587

>  <SCORE.INTRA.DIHEDRAL.0>
2.42188

>  <SCORE.INTRA.POLAR>
0

>  <SCORE.INTRA.POLAR.0>
0

>  <SCORE.INTRA.REPUL>
0

>  <SCORE.INTRA.REPUL.0>
0

>  <SCORE.INTRA.SOLV>
0.000278081

>  <SCORE.INTRA.SOLV.lig_0>
-127.307

>  <SCORE.INTRA.VDW>
0.0165703

>  <SCORE.INTRA.VDW.0>
-2.19936

>  <SCORE.INTRA.norm>
-0.000208352

>  <SCORE.RESTR>
0

>  <SCORE.RESTR.CAVITY>
0

>  <SCORE.RESTR.norm>
0

>  <SCORE.SYSTEM>
0

>  <SCORE.SYSTEM.CONST>
0

>  <SCORE.SYSTEM.DIHEDRAL>
0

>  <SCORE.SYSTEM.SOLV>
0

>  <SCORE.SYSTEM.norm>
0

>  <SCORE.heavy>
46

>  <SCORE.norm>
-0.957517

>  <RMSD>
0.875

$$$$
ligand
 OpenBabel02271912143D
libRbt.so/2013.1/901 2013/11/27
 46 52  0  0  0  0  0  0  0  0999 V2000
  158.2691   42.1581  147.5662 P   0  0  1  0  0  0  0  0  0  0  0  0
  159.9870   46.1456  143.8812 P   0  0  1  0  0  0  0  0  0  0  0  0
  156.8764   41.6282  147.3405 O   0  5  0  0  0  0  0  0  0  0  0  0
  159.1128   41.4374  148.5949 O   0  0  0  0  0  0  0  0  0  0  0  0
  160.3796   41.8531  146.0003 C   0  0  0  0  0  0  0  0  0  0  0  0
  159.0172   42.2325  146.1449 O   0  0  0  0  0  0  0  0  0  0  0  0
  160.9305   42.3839  144.6871 C   0  0  1  0  0  0  0  0  0  0  0  0
  160.9898   41.3035  143.7667 O   0  0  0  0  0  0  0  0  0  0  0  0
  160.1010   43.4708  144.0152 C   0  0  1  0  0  0  0  0  0  0  0  0
  160.7174   44.7344  144.2146 O   0  0  0  0  0  0  0  0  0  0  0  0
  160.1961   43.1285  142.5452 C   0  0  1  0  0  0  0  0  0  0  0  0
  161.3256   43.7893  141.9710 O   0  0  0  0  0  0  0  0  0  0  0  0
  160.4792   41.6554  142.4899 C   0  0  2  0  0  0  0  0  0  0  0  0
  155.5199   46.0450  146.9513 C   0  0  1  0  0  0  0  0  0  0  0  0
  156.3663   40.9075  139.3163 N   0  0  0  0  0  0  0  0  0  0  0  0
  157.4164   41.7411  139.1929 C   0  0  1  0  0  0  0  0  0  0  0  0
  155.9580   44.6515  147.3507 C   0  0  2  0  0  0  0  0  0  0  0  0
  157.4947   42.5426  138.1072 N   0  0  0  0  0  0  0  0  0  0  0  0
  155.7165   44.5113  148.7535 O   0  0  0  0  0  0  0  0  0  0  0  0
  157.4442   44.5952  147.0506 C   0  0  2  0  0  0  0  0  0  0  0  0
  158.4115   41.8293  140.1044 N   0  0  0  0  0  0  0  0  0  0  0  0
  158.1272   43.7186  147.9457 O   0  0  0  0  0  0  0  0  0  0  0  0
  158.4032   41.0644  141.2170 C   0  0  2  0  0  0  0  0  0  0  0  0
  157.8673   46.0514  147.2308 C   0  0  2  0  0  0  0  0  0  0  0  0
  156.6997   46.8498  147.0254 O   0  0  0  0  0  0  0  0  0  0  0  0
  157.2880   40.1339  141.4177 C   0  0  2  0  0  0  0  0  0  0  0  0
  158.9777   46.5261  146.2884 C   0  0  0  0  0  0  0  0  0  0  0  0
  158.7571   46.1546  144.9283 O   0  0  0  0  0  0  0  0  0  0  0  0
  156.2344   40.0919  140.3765 C   0  0  0  0  0  0  0  0  0  0  0  0
  155.2585   39.3125  140.4952 O   0  0  0  0  0  0  0  0  0  0  0  0
  157.5253   39.5133  142.5870 N   0  0  0  0  0  0  0  0  0  0  0  0
  158.6860   39.9971  143.0909 C   0  0  0  0  0  0  0  0  0  0  0  0
  159.2092   40.9237  142.2692 N   0  0  1  0  0  0  0  0  0  0  0  0
  151.7117   44.6376  143.6115 N   0  0  0  0  0  0  0  0  0  0  0  0
  160.9773   47.2307  144.2603 O   0  5  0  0  0  0  0  0  0  0  0  0
  151.7928   44.4769  144.9413 C   0  0  2  0  0  0  0  0  0  0  0  0
  150.7653   43.8700  145.5539 N   0  0  0  0  0  0  0  0  0  0  0  0
  159.3984   46.0831  142.4927 O   0  0  0  0  0  0  0  0  0  0  0  0
  152.8445   44.8953  145.6837 N   0  0  0  0  0  0  0  0  0  0  0  0
  153.8937   45.5144  145.1031 C   0  0  1  0  0  0  0  0  0  0  0  0
  153.8656   45.7207  143.6411 C   0  0  1  0  0  0  0  0  0  0  0  0
  152.6694   45.2395  142.9042 C   0  0  0  0  0  0  0  0  0  0  0  0
  152.5524   45.3614  141.6658 O   0  0  0  0  0  0  0  0  0  0  0  0
  155.0072   46.3529  143.3260 N   0  0  0  0  0  0  0  0  0  0  0  0
  155.7023   46.5272  144.4843 C   0  0  0  0  0  0  0  0  0  0  0  0
  155.0393   46.0306  145.5474 N   0  0  2  0  0  0  0  0  0  0  0  0
  1  3  1  6  0  0  0
  1  4  2  0  0  0  0
  1  6  1  0  0  0  0
  1 22  1  0  0  0  0
  2 28  1  0  0  0  0
  2 35  1  1  0  0  0
  2 38  2  0  0  0  0
  2 10  1  0  0  0  0
  5  6  1  0  0  0  0
  7  5  1  1  0  0  0
  7  8  1  0  0  0  0
  7  9  1  0  0  0  0
  9 10  1  6  0  0  0
  9 11  1  0  0  0  0
 11 12  1  1  0  0  0
 11 13  1  0  0  0  0
 13  8  1  1  0  0  0
 13 33  1  0  0  0  0
 14 46  1  0  0  0  0
 14 17  1  0  0  0  0
 14 25  1  6  0  0  0
 15 16  1  0  0  0  0
 15 29  1  0  0  0  0
 16 18  1  1  0  0  0
 16 21  1  0  0  0  0
 17 19  1  1  0  0  0
 17 20  1  0  0  0  0
 20 22  1  1  0  0  0
 20 24  1  0  0  0  0
 23 21  1  1  0  0  0
 23 26  1  0  0  0  0
 23 33  1  0  0  0  0
 24 25  1  6  0  0  0
 24 27  1  0  0  0  0
 26 29  1  1  0  0  0
 26 31  1  0  0  0  0
 27 28  1  0  0  0  0
 29 30  2  0  0  0  0
 31 32  1  0  0  0  0
 33 32  1  6  0  0  0
 34 36  1  0  0  0  0
 34 42  1  0  0  0  0
 36 37  1  1  0  0  0
 36 39  1  0  0  0  0
 40 39  1  1  0  0  0
 40 41  1  0  0  0  0
 40 46  1  0  0  0  0
 41 42  1  1  0  0  0
 41 44  1  0  0  0  0
 42 43  2  0  0  0  0
 44 45  1  0  0  0  0
 46 45  1  6  0  0  0
M  CHG  2   3  -1  35  -1
M  END
>  <CHROM.1>
175.62551665,73.10932820,157.38696757,43.63883178,144.23670762,-2.20024119
0.21681357,-2.10772165

>  <Name>
ligand

>  <RI>
0

>  <Rbt.Current_Directory>
/home/itssahil/PROJECTS/Mol_Feturizer/Test_systems_manuscript/rnas/4yb0

>  <Rbt.Executable>
rbdock ($Id: //depot/dev/client3/rdock/2013.1/src/exe/rbdock.cxx#4 $)

>  <Rbt.Library>
libRbt.so (2013.1, Build901 2013/11/27)

>  <Rbt.Parameter_File>
/export/apps/rDock/src/rDock_2013.1_src/data/scripts/dock_solv.prm

>  <Rbt.Receptor>
prm/pocket_docking_5.prm

>  <SCORE>
-43.9466

>  <SCORE.INTER>
-43.8857

>  <SCORE.INTER.CONST>
1

>  <SCORE.INTER.POLAR>
0

>  <SCORE.INTER.ROT>
2

>  <SCORE.INTER.SOLV>
39.0555

>  <SCORE.INTER.VDW>
-47.209

>  <SCORE.INTER.norm>
-0.954036

>  <SCORE.INTRA>
-0.0609511

>  <SCORE.INTRA.DIHEDRAL>
-0.0471483

>  <SCORE.INTRA.DIHEDRAL.0>
2.42188

>  <SCORE.INTRA.POLAR>
0

>  <SCORE.INTRA.POLAR.0>
0

>  <SCORE.INTRA.REPUL>
0

>  <SCORE.INTRA.REPUL.0>
0

>  <SCORE.INTRA.SOLV>
-0.00235212

>  <SCORE.INTRA.SOLV.lig_0>
-127.307

>  <SCORE.INTRA.VDW>
-0.0362009

>  <SCORE.INTRA.VDW.0>
-2.19936

>  <SCORE.INTRA.norm>
-0.00132502

>  <SCORE.RESTR>
0

>  <SCORE.RESTR.CAVITY>
0

>  <SCORE.RESTR.norm>
0

>  <SCORE.SYSTEM>
0

>  <SCORE.SYSTEM.CONST>
0

>  <SCORE.SYSTEM.DIHEDRAL>
0

>  <SCORE.SYSTEM.SOLV>
0

>  <SCORE.SYSTEM.norm>
0

>  <SCORE.heavy>
46

>  <SCORE.norm>
-0.955361

>  <RMSD>
0.875

$$$$
ligand
 OpenBabel02271912143D
libRbt.so/2013.1/901 2013/11/27
 46 52  0  0  0  0  0  0  0  0999 V2000
  158.2467   42.1501  147.5447 P   0  0  1  0  0  0  0  0  0  0  0  0
  160.0112   46.1195  143.8622 P   0  0  1  0  0  0  0  0  0  0  0  0
  156.8492   41.6343  147.3168 O   0  5  0  0  0  0  0  0  0  0  0  0
  159.0814   41.4209  148.5749 O   0  0  0  0  0  0  0  0  0  0  0  0
  160.3567   41.8235  145.9824 C   0  0  0  0  0  0  0  0  0  0  0  0
  158.9979   42.2166  146.1248 O   0  0  0  0  0  0  0  0  0  0  0  0
  160.9151   42.3485  144.6701 C   0  0  1  0  0  0  0  0  0  0  0  0
  160.9650   41.2675  143.7499 O   0  0  0  0  0  0  0  0  0  0  0  0
  160.0978   43.4436  143.9967 C   0  0  1  0  0  0  0  0  0  0  0  0
  160.7266   44.7010  144.1970 O   0  0  0  0  0  0  0  0  0  0  0  0
  160.1919   43.1003  142.5269 C   0  0  1  0  0  0  0  0  0  0  0  0
  161.3289   43.7495  141.9544 O   0  0  0  0  0  0  0  0  0  0  0  0
  160.4601   41.6243  142.4722 C   0  0  2  0  0  0  0  0  0  0  0  0
  155.5381   46.0646  146.9249 C   0  0  1  0  0  0  0  0  0  0  0  0
  156.3483   40.9131  139.2889 N   0  0  0  0  0  0  0  0  0  0  0  0
  157.4074   41.7355  139.1667 C   0  0  1  0  0  0  0  0  0  0  0  0
  155.9614   44.6667  147.3251 C   0  0  2  0  0  0  0  0  0  0  0  0
  157.4970   42.5339  138.0796 N   0  0  0  0  0  0  0  0  0  0  0  0
  155.7162   44.5292  148.7275 O   0  0  0  0  0  0  0  0  0  0  0  0
  157.4475   44.5953  147.0275 C   0  0  2  0  0  0  0  0  0  0  0  0
  158.4008   41.8151  140.0808 N   0  0  0  0  0  0  0  0  0  0  0  0
  158.1201   43.7119  147.9238 O   0  0  0  0  0  0  0  0  0  0  0  0
  158.3815   41.0525  141.1948 C   0  0  2  0  0  0  0  0  0  0  0  0
  157.8850   46.0472  147.2083 C   0  0  2  0  0  0  0  0  0  0  0  0
  156.7260   46.8574  147.0008 O   0  0  0  0  0  0  0  0  0  0  0  0
  157.2561   40.1342  141.3943 C   0  0  2  0  0  0  0  0  0  0  0  0
  159.0018   46.5105  146.2676 C   0  0  0  0  0  0  0  0  0  0  0  0
  158.7797   46.1411  144.9073 O   0  0  0  0  0  0  0  0  0  0  0  0
  156.2049   40.1011  140.3503 C   0  0  0  0  0  0  0  0  0  0  0  0
  155.2206   39.3321  140.4678 O   0  0  0  0  0  0  0  0  0  0  0  0
  157.4837   39.5134  142.5655 N   0  0  0  0  0  0  0  0  0  0  0  0
  158.6480   39.9861  143.0716 C   0  0  0  0  0  0  0  0  0  0  0  0
  159.1832   40.9055  142.2495 N   0  0  1  0  0  0  0  0  0  0  0  0
  151.8034   44.5438  143.5520 N   0  0  0  0  0  0  0  0  0  0  0  0
  161.0118   47.1945  144.2429 O   0  5  0  0  0  0  0  0  0  0  0  0
  151.8910   44.3611  144.8786 C   0  0  2  0  0  0  0  0  0  0  0  0
  150.8931   43.6943  145.4775 N   0  0  0  0  0  0  0  0  0  0  0  0
  159.4243   46.0628  142.4727 O   0  0  0  0  0  0  0  0  0  0  0  0
  152.9212   44.8142  145.6307 N   0  0  0  0  0  0  0  0  0  0  0  0
  153.9402   45.4937  145.0640 C   0  0  1  0  0  0  0  0  0  0  0  0
  153.9034   45.7270  143.6063 C   0  0  1  0  0  0  0  0  0  0  0  0
  152.7319   45.2041  142.8581 C   0  0  0  0  0  0  0  0  0  0  0  0
  152.6101   45.3445  141.6222 O   0  0  0  0  0  0  0  0  0  0  0  0
  155.0140   46.4187  143.3054 N   0  0  0  0  0  0  0  0  0  0  0  0
  155.6992   46.6031  144.4680 C   0  0  0  0  0  0  0  0  0  0  0  0
  155.0597   46.0548  145.5202 N   0  0  2  0  0  0  0  0  0  0  0  0
  1  3  1  6  0  0  0
  1  4  2  0  0  0  0
  1  6  1  0  0  0  0
  1 22  1  0  0  0  0
  2 28  1  0  0  0  0
  2 35  1  1  0  0  0
  2 38  2  0  0  0  0
  2 10  1  0  0  0  0
  5  6  1  0  0  0  0
  7  5  1  1  0  0  0
  7  8  1  0  0  0  0
  7  9  1  0  0  0  0
  9 10  1  6  0  0  0
  9 11  1  0  0  0  0
 11 12  1  1  0  0  0
 11 13  1  0  0  0  0
 13  8  1  1  0  0  0
 13 33  1  0  0  0  0
 14 46  1  0  0  0  0
 14 17  1  0  0  0  0
 14 25  1  6  0  0  0
 15 16  1  0  0  0  0
 15 29  1  0  0  0  0
 16 18  1  1  0  0  0
 16 21  1  0  0  0  0
 17 19  1  1  0  0  0
 17 20  1  0  0  0  0
 20 22  1  1  0  0  0
 20 24  1  0  0  0  0
 23 21  1  1  0  0  0
 23 26  1  0  0  0  0
 23 33  1  0  0  0  0
 24 25  1  6  0  0  0
 24 27  1  0  0  0  0
 26 29  1  1  0  0  0
 26 31  1  0  0  0  0
 27 28  1  0  0  0  0
 29 30  2  0  0  0  0
 31 32  1  0  0  0  0
 33 32  1  6  0  0  0
 34 36  1  0  0  0  0
 34 42  1  0  0  0  0
 36 37  1  1  0  0  0
 36 39  1  0  0  0  0
 40 39  1  1  0  0  0
 40 41  1  0  0  0  0
 40 46  1  0  0  0  0
 41 42  1  1  0  0  0
 41 44  1  0  0  0  0
 42 43  2  0  0  0  0
 44 45  1  0  0  0  0
 46 45  1  6  0  0  0
M  CHG  2   3  -1  35  -1
M  END
>  <CHROM.1>
175.75004134,69.62200328,157.39454483,43.62220788,144.21038683,-2.13899871
0.21327443,-2.11113976

>  <Name>
ligand

>  <RI>
0

>  <Rbt.Current_Directory>
/home/itssahil/PROJECTS/Mol_Feturizer/Test_systems_manuscript/rnas/4yb0

>  <Rbt.Executable>
rbdock ($Id: //depot/dev/client3/rdock/2013.1/src/exe/rbdock.cxx#4 $)

>  <Rbt.Library>
libRbt.so (2013.1, Build901 2013/11/27)

>  <Rbt.Parameter_File>
/export/apps/rDock/src/rDock_2013.1_src/data/scripts/dock_solv.prm

>  <Rbt.Receptor>
prm/pocket_docking_2.prm

>  <SCORE>
-43.574

>  <SCORE.INTER>
-43.6927

>  <SCORE.INTER.CONST>
1

>  <SCORE.INTER.POLAR>
0

>  <SCORE.INTER.ROT>
2

>  <SCORE.INTER.SOLV>
38.4804

>  <SCORE.INTER.VDW>
-46.8886

>  <SCORE.INTER.norm>
-0.949841

>  <SCORE.INTRA>
-0.00881083

>  <SCORE.INTRA.DIHEDRAL>
-0.0425458

>  <SCORE.INTRA.DIHEDRAL.0>
2.42188

>  <SCORE.INTRA.POLAR>
0

>  <SCORE.INTRA.POLAR.0>
0

>  <SCORE.INTRA.REPUL>
0

>  <SCORE.INTRA.REPUL.0>
0

>  <SCORE.INTRA.SOLV>
-0.000808163

>  <SCORE.INTRA.SOLV.lig_0>
-127.307

>  <SCORE.INTRA.VDW>
0.0128662

>  <SCORE.INTRA.VDW.0>
-2.19936

>  <SCORE.INTRA.norm>
-0.00019154

>  <SCORE.RESTR>
0.127537

>  <SCORE.RESTR.CAVITY>
0.127537

>  <SCORE.RESTR.norm>
0.00277255

>  <SCORE.SYSTEM>
0

>  <SCORE.SYSTEM.CONST>
0

>  <SCORE.SYSTEM.DIHEDRAL>
0

>  <SCORE.SYSTEM.SOLV>
0

>  <SCORE.SYSTEM.norm>
0

>  <SCORE.heavy>
46

>  <SCORE.norm>
-0.94726

>  <RMSD>
0.876

$$$$
ligand
 OpenBabel02271912143D
libRbt.so/2013.1/901 2013/11/27
 46 52  0  0  0  0  0  0  0  0999 V2000
  158.1388   42.2062  147.4937 P   0  0  1  0  0  0  0  0  0  0  0  0
  159.8340   46.1706  143.7733 P   0  0  1  0  0  0  0  0  0  0  0  0
  156.7605   41.6453  147.2555 O   0  5  0  0  0  0  0  0  0  0  0  0
  158.9808   41.5182  148.5459 O   0  0  0  0  0  0  0  0  0  0  0  0
  160.2786   41.9196  145.9644 C   0  0  0  0  0  0  0  0  0  0  0  0
  158.9069   42.2738  146.0828 O   0  0  0  0  0  0  0  0  0  0  0  0
  160.8389   42.4411  144.6515 C   0  0  1  0  0  0  0  0  0  0  0  0
  160.9334   41.3483  143.7489 O   0  0  0  0  0  0  0  0  0  0  0  0
  159.9984   43.5009  143.9505 C   0  0  1  0  0  0  0  0  0  0  0  0
  160.5868   44.7795  144.1394 O   0  0  0  0  0  0  0  0  0  0  0  0
  160.1227   43.1383  142.4876 C   0  0  1  0  0  0  0  0  0  0  0  0
  161.2475   43.8126  141.9200 O   0  0  0  0  0  0  0  0  0  0  0  0
  160.4355   41.6704  142.4594 C   0  0  2  0  0  0  0  0  0  0  0  0
  155.3234   46.0279  146.7775 C   0  0  1  0  0  0  0  0  0  0  0  0
  156.3431   40.8528  139.2765 N   0  0  0  0  0  0  0  0  0  0  0  0
  157.3728   41.7127  139.1614 C   0  0  1  0  0  0  0  0  0  0  0  0
  155.7827   44.6495  147.2050 C   0  0  2  0  0  0  0  0  0  0  0  0
  157.4321   42.5259  138.0833 N   0  0  0  0  0  0  0  0  0  0  0  0
  155.5227   44.5260  148.6060 O   0  0  0  0  0  0  0  0  0  0  0  0
  157.2741   44.6183  146.9280 C   0  0  2  0  0  0  0  0  0  0  0  0
  158.3651   41.8164  140.0744 N   0  0  0  0  0  0  0  0  0  0  0  0
  157.9606   43.7692  147.8467 O   0  0  0  0  0  0  0  0  0  0  0  0
  158.3750   41.0412  141.1798 C   0  0  2  0  0  0  0  0  0  0  0  0
  157.6657   46.0852  147.0919 C   0  0  2  0  0  0  0  0  0  0  0  0
  156.4859   46.8570  146.8568 O   0  0  0  0  0  0  0  0  0  0  0  0
  157.2825   40.0823  141.3711 C   0  0  2  0  0  0  0  0  0  0  0  0
  158.7808   46.5675  146.1589 C   0  0  0  0  0  0  0  0  0  0  0  0
  158.5883   46.1710  144.8017 O   0  0  0  0  0  0  0  0  0  0  0  0
  156.2305   40.0245  140.3290 C   0  0  0  0  0  0  0  0  0  0  0  0
  155.2738   39.2206  140.4398 O   0  0  0  0  0  0  0  0  0  0  0  0
  157.5343   39.4567  142.5348 N   0  0  0  0  0  0  0  0  0  0  0  0
  158.6827   39.9637  143.0438 C   0  0  0  0  0  0  0  0  0  0  0  0
  159.1837   40.9103  142.2311 N   0  0  1  0  0  0  0  0  0  0  0  0
  151.5224   44.6373  143.4225 N   0  0  0  0  0  0  0  0  0  0  0  0
  160.7968   47.2809  144.1503 O   0  5  0  0  0  0  0  0  0  0  0  0
  151.5772   44.5185  144.7580 C   0  0  2  0  0  0  0  0  0  0  0  0
  150.5203   43.9670  145.3729 N   0  0  0  0  0  0  0  0  0  0  0  0
  159.2679   46.0753  142.3773 O   0  0  0  0  0  0  0  0  0  0  0  0
  152.6307   44.9262  145.5038 N   0  0  0  0  0  0  0  0  0  0  0  0
  153.7092   45.4902  144.9207 C   0  0  1  0  0  0  0  0  0  0  0  0
  153.7111   45.6483  143.4526 C   0  0  1  0  0  0  0  0  0  0  0  0
  152.5109   45.1828  142.7119 C   0  0  0  0  0  0  0  0  0  0  0  0
  152.4175   45.2671  141.4684 O   0  0  0  0  0  0  0  0  0  0  0  0
  154.8782   46.2312  143.1360 N   0  0  0  0  0  0  0  0  0  0  0  0
  155.5606   46.4209  144.2994 C   0  0  0  0  0  0  0  0  0  0  0  0
  154.8646   45.9825  145.3670 N   0  0  2  0  0  0  0  0  0  0  0  0
  1  3  1  6  0  0  0
  1  4  2  0  0  0  0
  1  6  1  0  0  0  0
  1 22  1  0  0  0  0
  2 28  1  0  0  0  0
  2 35  1  1  0  0  0
  2 38  2  0  0  0  0
  2 10  1  0  0  0  0
  5  6  1  0  0  0  0
  7  5  1  1  0  0  0
  7  8  1  0  0  0  0
  7  9  1  0  0  0  0
  9 10  1  6  0  0  0
  9 11  1  0  0  0  0
 11 12  1  1  0  0  0
 11 13  1  0  0  0  0
 13  8  1  1  0  0  0
 13 33  1  0  0  0  0
 14 46  1  0  0  0  0
 14 17  1  0  0  0  0
 14 25  1  6  0  0  0
 15 16  1  0  0  0  0
 15 29  1  0  0  0  0
 16 18  1  1  0  0  0
 16 21  1  0  0  0  0
 17 19  1  1  0  0  0
 17 20  1  0  0  0  0
 20 22  1  1  0  0  0
 20 24  1  0  0  0  0
 23 21  1  1  0  0  0
 23 26  1  0  0  0  0
 23 33  1  0  0  0  0
 24 25  1  6  0  0  0
 24 27  1  0  0  0  0
 26 29  1  1  0  0  0
 26 31  1  0  0  0  0
 27 28  1  0  0  0  0
 29 30  2  0  0  0  0
 31 32  1  0  0  0  0
 33 32  1  6  0  0  0
 34 36  1  0  0  0  0
 34 42  1  0  0  0  0
 36 37  1  1  0  0  0
 36 39  1  0  0  0  0
 40 39  1  1  0  0  0
 40 41  1  0  0  0  0
 40 46  1  0  0  0  0
 41 42  1  1  0  0  0
 41 44  1  0  0  0  0
 42 43  2  0  0  0  0
 44 45  1  0  0  0  0
 46 45  1  6  0  0  0
M  CHG  2   3  -1  35  -1
M  END
>  <CHROM.1>
173.96412308,76.33723871,157.26588671,43.64040246,144.13519502,-2.29154841
0.22194579,-2.11390999

>  <Name>
ligand

>  <RI>
0

>  <Rbt.Current_Directory>
/home/itssahil/PROJECTS/Mol_Feturizer/Test_systems_manuscript/rnas/4yb0

>  <Rbt.Executable>
rbdock ($Id: //depot/dev/client3/rdock/2013.1/src/exe/rbdock.cxx#4 $)

>  <Rbt.Library>
libRbt.so (2013.1, Build901 2013/11/27)

>  <Rbt.Parameter_File>
/export/apps/rDock/src/rDock_2013.1_src/data/scripts/dock_solv.prm

>  <Rbt.Receptor>
prm/pocket_docking_2.prm

>  <SCORE>
-43.6125

>  <SCORE.INTER>
-43.5533

>  <SCORE.INTER.CONST>
1

>  <SCORE.INTER.POLAR>
0

>  <SCORE.INTER.ROT>
2

>  <SCORE.INTER.SOLV>
40.1664

>  <SCORE.INTER.VDW>
-47.3577

>  <SCORE.INTER.norm>
-0.946811

>  <SCORE.INTRA>
-0.0652775

>  <SCORE.INTRA.DIHEDRAL>
-0.0526024

>  <SCORE.INTRA.DIHEDRAL.0>
2.42188

>  <SCORE.INTRA.POLAR>
0

>  <SCORE.INTRA.POLAR.0>
0

>  <SCORE.INTRA.REPUL>
0

>  <SCORE.INTRA.REPUL.0>
0

>  <SCORE.INTRA.SOLV>
-0.00292033

>  <SCORE.INTRA.SOLV.lig_0>
-127.307

>  <SCORE.INTRA.VDW>
-0.0375162

>  <SCORE.INTRA.VDW.0>
-2.19936

>  <SCORE.INTRA.norm>
-0.00141908

>  <SCORE.RESTR>
0.00604296

>  <SCORE.RESTR.CAVITY>
0.00604296

>  <SCORE.RESTR.norm>
0.000131369

>  <SCORE.SYSTEM>
0

>  <SCORE.SYSTEM.CONST>
0

>  <SCORE.SYSTEM.DIHEDRAL>
0

>  <SCORE.SYSTEM.SOLV>
0

>  <SCORE.SYSTEM.norm>
0

>  <SCORE.heavy>
46

>  <SCORE.norm>
-0.948099

>  <RMSD>
0.878

$$$$
ligand
 OpenBabel02271912143D
libRbt.so/2013.1/901 2013/11/27
 46 52  0  0  0  0  0  0  0  0999 V2000
  158.2827   42.1124  147.5546 P   0  0  1  0  0  0  0  0  0  0  0  0
  160.0278   46.1131  143.8968 P   0  0  1  0  0  0  0  0  0  0  0  0
  156.8845   41.5973  147.3286 O   0  5  0  0  0  0  0  0  0  0  0  0
  159.1224   41.3756  148.5751 O   0  0  0  0  0  0  0  0  0  0  0  0
  160.3860   41.8003  145.9804 C   0  0  0  0  0  0  0  0  0  0  0  0
  159.0276   42.1912  146.1319 O   0  0  0  0  0  0  0  0  0  0  0  0
  160.9382   42.3364  144.6699 C   0  0  1  0  0  0  0  0  0  0  0  0
  160.9849   41.2630  143.7407 O   0  0  0  0  0  0  0  0  0  0  0  0
  160.1171   43.4364  144.0091 C   0  0  1  0  0  0  0  0  0  0  0  0
  160.7459   44.6926  144.2169 O   0  0  0  0  0  0  0  0  0  0  0  0
  160.2051   43.1051  142.5362 C   0  0  1  0  0  0  0  0  0  0  0  0
  161.3390   43.7598  141.9640 O   0  0  0  0  0  0  0  0  0  0  0  0
  160.4741   41.6298  142.4683 C   0  0  2  0  0  0  0  0  0  0  0  0
  155.5683   46.0296  146.9785 C   0  0  1  0  0  0  0  0  0  0  0  0
  156.3245   40.9771  139.3216 N   0  0  0  0  0  0  0  0  0  0  0  0
  157.3793   41.8058  139.2050 C   0  0  1  0  0  0  0  0  0  0  0  0
  155.9945   44.6289  147.3655 C   0  0  2  0  0  0  0  0  0  0  0  0
  157.4526   42.6292  138.1354 N   0  0  0  0  0  0  0  0  0  0  0  0
  155.7555   44.4798  148.7678 O   0  0  0  0  0  0  0  0  0  0  0  0
  157.4793   44.5612  147.0608 C   0  0  2  0  0  0  0  0  0  0  0  0
  158.3840   41.8680  140.1080 N   0  0  0  0  0  0  0  0  0  0  0  0
  158.1565   43.6710  147.9469 O   0  0  0  0  0  0  0  0  0  0  0  0
  158.3814   41.0801  141.2045 C   0  0  2  0  0  0  0  0  0  0  0  0
  157.9164   46.0119  147.2515 C   0  0  2  0  0  0  0  0  0  0  0  0
  156.7559   46.8227  147.0558 O   0  0  0  0  0  0  0  0  0  0  0  0
  157.2615   40.1535  141.3970 C   0  0  2  0  0  0  0  0  0  0  0  0
  159.0287   46.4837  146.3098 C   0  0  0  0  0  0  0  0  0  0  0  0
  158.8009   46.1252  144.9474 O   0  0  0  0  0  0  0  0  0  0  0  0
  156.1972   40.1406  140.3659 C   0  0  0  0  0  0  0  0  0  0  0  0
  155.2170   39.3657  140.4783 O   0  0  0  0  0  0  0  0  0  0  0  0
  157.5060   39.5069  142.5507 N   0  0  0  0  0  0  0  0  0  0  0  0
  158.6751   39.9720  143.0528 C   0  0  0  0  0  0  0  0  0  0  0  0
  159.1968   40.9118  142.2453 N   0  0  1  0  0  0  0  0  0  0  0  0
  151.7986   44.5708  143.6172 N   0  0  0  0  0  0  0  0  0  0  0  0
  161.0293   47.1859  144.2819 O   0  5  0  0  0  0  0  0  0  0  0  0
  151.8895   44.3826  144.9428 C   0  0  2  0  0  0  0  0  0  0  0  0
  150.8852   43.7275  145.5440 N   0  0  0  0  0  0  0  0  0  0  0  0
  159.4349   46.0673  142.5095 O   0  0  0  0  0  0  0  0  0  0  0  0
  152.9290   44.8192  145.6919 N   0  0  0  0  0  0  0  0  0  0  0  0
  153.9548   45.4866  145.1228 C   0  0  1  0  0  0  0  0  0  0  0  0
  153.9149   45.7251  143.6661 C   0  0  1  0  0  0  0  0  0  0  0  0
  152.7331   45.2207  142.9214 C   0  0  0  0  0  0  0  0  0  0  0  0
  152.6079   45.3667  141.6865 O   0  0  0  0  0  0  0  0  0  0  0  0
  155.0334   46.4026  143.3625 N   0  0  0  0  0  0  0  0  0  0  0  0
  155.7261   46.5739  144.5227 C   0  0  0  0  0  0  0  0  0  0  0  0
  155.0838   46.0310  145.5759 N   0  0  2  0  0  0  0  0  0  0  0  0
  1  3  1  6  0  0  0
  1  4  2  0  0  0  0
  1  6  1  0  0  0  0
  1 22  1  0  0  0  0
  2 28  1  0  0  0  0
  2 35  1  1  0  0  0
  2 38  2  0  0  0  0
  2 10  1  0  0  0  0
  5  6  1  0  0  0  0
  7  5  1  1  0  0  0
  7  8  1  0  0  0  0
  7  9  1  0  0  0  0
  9 10  1  6  0  0  0
  9 11  1  0  0  0  0
 11 12  1  1  0  0  0
 11 13  1  0  0  0  0
 13  8  1  1  0  0  0
 13 33  1  0  0  0  0
 14 46  1  0  0  0  0
 14 17  1  0  0  0  0
 14 25  1  6  0  0  0
 15 16  1  0  0  0  0
 15 29  1  0  0  0  0
 16 18  1  1  0  0  0
 16 21  1  0  0  0  0
 17 19  1  1  0  0  0
 17 20  1  0  0  0  0
 20 22  1  1  0  0  0
 20 24  1  0  0  0  0
 23 21  1  1  0  0  0
 23 26  1  0  0  0  0
 23 33  1  0  0  0  0
 24 25  1  6  0  0  0
 24 27  1  0  0  0  0
 26 29  1  1  0  0  0
 26 31  1  0  0  0  0
 27 28  1  0  0  0  0
 29 30  2  0  0  0  0
 31 32  1  0  0  0  0
 33 32  1  6  0  0  0
 34 36  1  0  0  0  0
 34 42  1  0  0  0  0
 36 37  1  1  0  0  0
 36 39  1  0  0  0  0
 40 39  1  1  0  0  0
 40 41  1  0  0  0  0
 40 46  1  0  0  0  0
 41 42  1  1  0  0  0
 41 44  1  0  0  0  0
 42 43  2  0  0  0  0
 44 45  1  0  0  0  0
 46 45  1  6  0  0  0
M  CHG  2   3  -1  35  -1
M  END
>  <CHROM.1>
174.77148991,70.49569937,157.40971089,43.61897688,144.23955973,-2.16298816
0.21447335,-2.10204840

>  <Name>
ligand

>  <RI>
0

>  <Rbt.Current_Directory>
/home/itssahil/PROJECTS/Mol_Feturizer/Test_systems_manuscript/rnas/4yb0

>  <Rbt.Executable>
rbdock ($Id: //depot/dev/client3/rdock/2013.1/src/exe/rbdock.cxx#4 $)

>  <Rbt.Library>
libRbt.so (2013.1, Build901 2013/11/27)

>  <Rbt.Parameter_File>
/export/apps/rDock/src/rDock_2013.1_src/data/scripts/dock_solv.prm

>  <Rbt.Receptor>
prm/pocket_docking_4.prm

>  <SCORE>
-43.9349

>  <SCORE.INTER>
-43.9292

>  <SCORE.INTER.CONST>
1

>  <SCORE.INTER.POLAR>
0

>  <SCORE.INTER.ROT>
2

>  <SCORE.INTER.SOLV>
38.5131

>  <SCORE.INTER.VDW>
-47.0571

>  <SCORE.INTER.norm>
-0.954982

>  <SCORE.INTRA>
-0.00576928

>  <SCORE.INTRA.DIHEDRAL>
-0.0448475

>  <SCORE.INTRA.DIHEDRAL.0>
2.42188

>  <SCORE.INTRA.POLAR>
0

>  <SCORE.INTRA.POLAR.0>
0

>  <SCORE.INTRA.REPUL>
0

>  <SCORE.INTRA.REPUL.0>
0

>  <SCORE.INTRA.SOLV>
-0.000709014

>  <SCORE.INTRA.SOLV.lig_0>
-127.307

>  <SCORE.INTRA.VDW>
0.017009

>  <SCORE.INTRA.VDW.0>
-2.19936

>  <SCORE.INTRA.norm>
-0.000125419

>  <SCORE.RESTR>
0

>  <SCORE.RESTR.CAVITY>
0

>  <SCORE.RESTR.norm>
0

>  <SCORE.SYSTEM>
0

>  <SCORE.SYSTEM.CONST>
0

>  <SCORE.SYSTEM.DIHEDRAL>
0

>  <SCORE.SYSTEM.SOLV>
0

>  <SCORE.SYSTEM.norm>
0

>  <SCORE.heavy>
46

>  <SCORE.norm>
-0.955107

>  <RMSD>
0.878

$$$$
ligand
 OpenBabel02271912143D
libRbt.so/2013.1/901 2013/11/27
 46 52  0  0  0  0  0  0  0  0999 V2000
  158.2854   42.1355  147.5423 P   0  0  1  0  0  0  0  0  0  0  0  0
  160.0244   46.1225  143.8667 P   0  0  1  0  0  0  0  0  0  0  0  0
  156.8864   41.6204  147.3213 O   0  5  0  0  0  0  0  0  0  0  0  0
  159.1271   41.4018  148.5635 O   0  0  0  0  0  0  0  0  0  0  0  0
  160.3849   41.8168  145.9645 C   0  0  0  0  0  0  0  0  0  0  0  0
  159.0271   42.2089  146.1177 O   0  0  0  0  0  0  0  0  0  0  0  0
  160.9345   42.3481  144.6509 C   0  0  1  0  0  0  0  0  0  0  0  0
  160.9785   41.2713  143.7253 O   0  0  0  0  0  0  0  0  0  0  0  0
  160.1124   43.4461  143.9881 C   0  0  1  0  0  0  0  0  0  0  0  0
  160.7423   44.7027  144.1900 O   0  0  0  0  0  0  0  0  0  0  0  0
  160.1968   43.1097  142.5161 C   0  0  1  0  0  0  0  0  0  0  0  0
  161.3299   43.7618  141.9391 O   0  0  0  0  0  0  0  0  0  0  0  0
  160.4650   41.6340  142.4527 C   0  0  2  0  0  0  0  0  0  0  0  0
  155.5718   46.0522  146.9588 C   0  0  1  0  0  0  0  0  0  0  0  0
  156.3863   40.8558  139.2425 N   0  0  0  0  0  0  0  0  0  0  0  0
  157.4513   41.6689  139.1099 C   0  0  1  0  0  0  0  0  0  0  0  0
  155.9981   44.6526  147.3497 C   0  0  2  0  0  0  0  0  0  0  0  0
  157.5579   42.4363  138.0022 N   0  0  0  0  0  0  0  0  0  0  0  0
  155.7623   44.5084  148.7530 O   0  0  0  0  0  0  0  0  0  0  0  0
  157.4822   44.5830  147.0418 C   0  0  2  0  0  0  0  0  0  0  0  0
  158.4345   41.7688  140.0330 N   0  0  0  0  0  0  0  0  0  0  0  0
  158.1609   43.6956  147.9295 O   0  0  0  0  0  0  0  0  0  0  0  0
  158.3982   41.0377  141.1675 C   0  0  2  0  0  0  0  0  0  0  0  0
  157.9205   46.0341  147.2265 C   0  0  2  0  0  0  0  0  0  0  0  0
  156.7600   46.8449  147.0306 O   0  0  0  0  0  0  0  0  0  0  0  0
  157.2654   40.1312  141.3792 C   0  0  2  0  0  0  0  0  0  0  0  0
  159.0309   46.5020  146.2806 C   0  0  0  0  0  0  0  0  0  0  0  0
  158.7998   46.1389  144.9200 O   0  0  0  0  0  0  0  0  0  0  0  0
  156.2262   40.0745  140.3243 C   0  0  0  0  0  0  0  0  0  0  0  0
  155.2364   39.3142  140.4517 O   0  0  0  0  0  0  0  0  0  0  0  0
  157.4761   39.5421  142.5698 N   0  0  0  0  0  0  0  0  0  0  0  0
  158.6371   40.0226  143.0762 C   0  0  0  0  0  0  0  0  0  0  0  0
  159.1868   40.9159  142.2352 N   0  0  1  0  0  0  0  0  0  0  0  0
  151.8267   44.5262  143.5998 N   0  0  0  0  0  0  0  0  0  0  0  0
  161.0272   47.1961  144.2457 O   0  5  0  0  0  0  0  0  0  0  0  0
  151.9248   44.3345  144.9244 C   0  0  2  0  0  0  0  0  0  0  0  0
  150.9362   43.6553  145.5250 N   0  0  0  0  0  0  0  0  0  0  0  0
  159.4282   46.0722  142.4809 O   0  0  0  0  0  0  0  0  0  0  0  0
  152.9563   44.7904  145.6730 N   0  0  0  0  0  0  0  0  0  0  0  0
  153.9660   45.4821  145.1044 C   0  0  1  0  0  0  0  0  0  0  0  0
  153.9176   45.7258  143.6488 C   0  0  1  0  0  0  0  0  0  0  0  0
  152.7452   45.1990  142.9046 C   0  0  0  0  0  0  0  0  0  0  0  0
  152.6141   45.3475  141.6706 O   0  0  0  0  0  0  0  0  0  0  0  0
  155.0205   46.4286  143.3456 N   0  0  0  0  0  0  0  0  0  0  0  0
  155.7121   46.6100  144.5050 C   0  0  0  0  0  0  0  0  0  0  0  0
  155.0841   46.0489  145.5573 N   0  0  2  0  0  0  0  0  0  0  0  0
  1  3  1  6  0  0  0
  1  4  2  0  0  0  0
  1  6  1  0  0  0  0
  1 22  1  0  0  0  0
  2 28  1  0  0  0  0
  2 35  1  1  0  0  0
  2 38  2  0  0  0  0
  2 10  1  0  0  0  0
  5  6  1  0  0  0  0
  7  5  1  1  0  0  0
  7  8  1  0  0  0  0
  7  9  1  0  0  0  0
  9 10  1  6  0  0  0
  9 11  1  0  0  0  0
 11 12  1  1  0  0  0
 11 13  1  0  0  0  0
 13  8  1  1  0  0  0
 13 33  1  0  0  0  0
 14 46  1  0  0  0  0
 14 17  1  0  0  0  0
 14 25  1  6  0  0  0
 15 16  1  0  0  0  0
 15 29  1  0  0  0  0
 16 18  1  1  0  0  0
 16 21  1  0  0  0  0
 17 19  1  1  0  0  0
 17 20  1  0  0  0  0
 20 22  1  1  0  0  0
 20 24  1  0  0  0  0
 23 21  1  1  0  0  0
 23 26  1  0  0  0  0
 23 33  1  0  0  0  0
 24 25  1  6  0  0  0
 24 27  1  0  0  0  0
 26 29  1  1  0  0  0
 26 31  1  0  0  0  0
 27 28  1  0  0  0  0
 29 30  2  0  0  0  0
 31 32  1  0  0  0  0
 33 32  1  6  0  0  0
 34 36  1  0  0  0  0
 34 42  1  0  0  0  0
 36 37  1  1  0  0  0
 36 39  1  0  0  0  0
 40 39  1  1  0  0  0
 40 41  1  0  0  0  0
 40 46  1  0  0  0  0
 41 42  1  1  0  0  0
 41 44  1  0  0  0  0
 42 43  2  0  0  0  0
 44 45  1  0  0  0  0
 46 45  1  6  0  0  0
M  CHG  2   3  -1  35  -1
M  END
>  <CHROM.1>
177.91161143,69.15065114,157.41782381,43.61201741,144.21464255,-2.10158971
0.20570558,-2.11075392

>  <Name>
ligand

>  <RI>
0

>  <Rbt.Current_Directory>
/home/itssahil/PROJECTS/Mol_Feturizer/Test_systems_manuscript/rnas/4yb0

>  <Rbt.Executable>
rbdock ($Id: //depot/dev/client3/rdock/2013.1/src/exe/rbdock.cxx#4 $)

>  <Rbt.Library>
libRbt.so (2013.1, Build901 2013/11/27)

>  <Rbt.Parameter_File>
/export/apps/rDock/src/rDock_2013.1_src/data/scripts/dock_solv.prm

>  <Rbt.Receptor>
prm/pocket_docking_2.prm

>  <SCORE>
-43.5391

>  <SCORE.INTER>
-43.6671

>  <SCORE.INTER.CONST>
1

>  <SCORE.INTER.POLAR>
0

>  <SCORE.INTER.ROT>
2

>  <SCORE.INTER.SOLV>
38.5798

>  <SCORE.INTER.VDW>
-46.9046

>  <SCORE.INTER.norm>
-0.949284

>  <SCORE.INTRA>
-0.0250963

>  <SCORE.INTRA.DIHEDRAL>
-0.0393553

>  <SCORE.INTRA.DIHEDRAL.0>
2.42188

>  <SCORE.INTRA.POLAR>
0

>  <SCORE.INTRA.POLAR.0>
0

>  <SCORE.INTRA.REPUL>
0

>  <SCORE.INTRA.REPUL.0>
0

>  <SCORE.INTRA.SOLV>
-0.00170661

>  <SCORE.INTRA.SOLV.lig_0>
-127.307

>  <SCORE.INTRA.VDW>
-0.00456531

>  <SCORE.INTRA.VDW.0>
-2.19936

>  <SCORE.INTRA.norm>
-0.000545571

>  <SCORE.RESTR>
0.153047

>  <SCORE.RESTR.CAVITY>
0.153047

>  <SCORE.RESTR.norm>
0.0033271

>  <SCORE.SYSTEM>
0

>  <SCORE.SYSTEM.CONST>
0

>  <SCORE.SYSTEM.DIHEDRAL>
0

>  <SCORE.SYSTEM.SOLV>
0

>  <SCORE.SYSTEM.norm>
0

>  <SCORE.heavy>
46

>  <SCORE.norm>
-0.946502

>  <RMSD>
0.879

$$$$
ligand
 OpenBabel02271912143D
libRbt.so/2013.1/901 2013/11/27
 46 52  0  0  0  0  0  0  0  0999 V2000
  158.1507   42.2325  147.5003 P   0  0  1  0  0  0  0  0  0  0  0  0
  159.8603   46.1701  143.7582 P   0  0  1  0  0  0  0  0  0  0  0  0
  156.7701   41.6758  147.2657 O   0  5  0  0  0  0  0  0  0  0  0  0
  158.9904   41.5467  148.5559 O   0  0  0  0  0  0  0  0  0  0  0  0
  160.2887   41.9290  145.9718 C   0  0  0  0  0  0  0  0  0  0  0  0
  158.9185   42.2894  146.0888 O   0  0  0  0  0  0  0  0  0  0  0  0
  160.8506   42.4414  144.6559 C   0  0  1  0  0  0  0  0  0  0  0  0
  160.9404   41.3433  143.7592 O   0  0  0  0  0  0  0  0  0  0  0  0
  160.0141   43.5008  143.9496 C   0  0  1  0  0  0  0  0  0  0  0  0
  160.6077   44.7779  144.1315 O   0  0  0  0  0  0  0  0  0  0  0  0
  160.1364   43.1299  142.4886 C   0  0  1  0  0  0  0  0  0  0  0  0
  161.2637   43.7966  141.9171 O   0  0  0  0  0  0  0  0  0  0  0  0
  160.4433   41.6606  142.4681 C   0  0  2  0  0  0  0  0  0  0  0  0
  155.3504   46.0615  146.7649 C   0  0  1  0  0  0  0  0  0  0  0  0
  156.3227   40.8751  139.3136 N   0  0  0  0  0  0  0  0  0  0  0  0
  157.3528   41.7343  139.1968 C   0  0  1  0  0  0  0  0  0  0  0  0
  155.8043   44.6836  147.1995 C   0  0  2  0  0  0  0  0  0  0  0  0
  157.4043   42.5562  138.1248 N   0  0  0  0  0  0  0  0  0  0  0  0
  155.5444   44.5686  148.6013 O   0  0  0  0  0  0  0  0  0  0  0  0
  157.2955   44.6449  146.9222 C   0  0  2  0  0  0  0  0  0  0  0  0
  158.3529   41.8291  140.1021 N   0  0  0  0  0  0  0  0  0  0  0  0
  157.9789   43.7980  147.8451 O   0  0  0  0  0  0  0  0  0  0  0  0
  158.3709   41.0450  141.2011 C   0  0  2  0  0  0  0  0  0  0  0  0
  157.6930   46.1111  147.0781 C   0  0  2  0  0  0  0  0  0  0  0  0
  156.5162   46.8863  146.8392 O   0  0  0  0  0  0  0  0  0  0  0  0
  157.2785   40.0862  141.3939 C   0  0  2  0  0  0  0  0  0  0  0  0
  158.8097   46.5840  146.1421 C   0  0  0  0  0  0  0  0  0  0  0  0
  158.6150   46.1810  144.7871 O   0  0  0  0  0  0  0  0  0  0  0  0
  156.2177   40.0385  140.3603 C   0  0  0  0  0  0  0  0  0  0  0  0
  155.2606   39.2352  140.4728 O   0  0  0  0  0  0  0  0  0  0  0  0
  157.5392   39.4508  142.5503 N   0  0  0  0  0  0  0  0  0  0  0  0
  158.6927   39.9520  143.0537 C   0  0  0  0  0  0  0  0  0  0  0  0
  159.1884   40.9043  142.2444 N   0  0  1  0  0  0  0  0  0  0  0  0
  151.5308   44.6936  143.4216 N   0  0  0  0  0  0  0  0  0  0  0  0
  160.8277   47.2785  144.1290 O   0  5  0  0  0  0  0  0  0  0  0  0
  151.5842   44.5853  144.7581 C   0  0  2  0  0  0  0  0  0  0  0  0
  150.5201   44.0530  145.3776 N   0  0  0  0  0  0  0  0  0  0  0  0
  159.2933   46.0696  142.3630 O   0  0  0  0  0  0  0  0  0  0  0  0
  152.6431   44.9851  145.5004 N   0  0  0  0  0  0  0  0  0  0  0  0
  153.7290   45.5298  144.9127 C   0  0  1  0  0  0  0  0  0  0  0  0
  153.7328   45.6756  143.4432 C   0  0  1  0  0  0  0  0  0  0  0  0
  152.5264   45.2200  142.7064 C   0  0  0  0  0  0  0  0  0  0  0  0
  152.4340   45.2950  141.4623 O   0  0  0  0  0  0  0  0  0  0  0  0
  154.9075   46.2402  143.1217 N   0  0  0  0  0  0  0  0  0  0  0  0
  155.5925   46.4306  144.2835 C   0  0  0  0  0  0  0  0  0  0  0  0
  154.8908   46.0104  145.3548 N   0  0  2  0  0  0  0  0  0  0  0  0
  1  3  1  6  0  0  0
  1  4  2  0  0  0  0
  1  6  1  0  0  0  0
  1 22  1  0  0  0  0
  2 28  1  0  0  0  0
  2 35  1  1  0  0  0
  2 38  2  0  0  0  0
  2 10  1  0  0  0  0
  5  6  1  0  0  0  0
  7  5  1  1  0  0  0
  7  8  1  0  0  0  0
  7  9  1  0  0  0  0
  9 10  1  6  0  0  0
  9 11  1  0  0  0  0
 11 12  1  1  0  0  0
 11 13  1  0  0  0  0
 13  8  1  1  0  0  0
 13 33  1  0  0  0  0
 14 46  1  0  0  0  0
 14 17  1  0  0  0  0
 14 25  1  6  0  0  0
 15 16  1  0  0  0  0
 15 29  1  0  0  0  0
 16 18  1  1  0  0  0
 16 21  1  0  0  0  0
 17 19  1  1  0  0  0
 17 20  1  0  0  0  0
 20 22  1  1  0  0  0
 20 24  1  0  0  0  0
 23 21  1  1  0  0  0
 23 26  1  0  0  0  0
 23 33  1  0  0  0  0
 24 25  1  6  0  0  0
 24 27  1  0  0  0  0
 26 29  1  1  0  0  0
 26 31  1  0  0  0  0
 27 28  1  0  0  0  0
 29 30  2  0  0  0  0
 31 32  1  0  0  0  0
 33 32  1  6  0  0  0
 34 36  1  0  0  0  0
 34 42  1  0  0  0  0
 36 37  1  1  0  0  0
 36 39  1  0  0  0  0
 40 39  1  1  0  0  0
 40 41  1  0  0  0  0
 40 46  1  0  0  0  0
 41 42  1  1  0  0  0
 41 44  1  0  0  0  0
 42 43  2  0  0  0  0
 44 45  1  0  0  0  0
 46 45  1  6  0  0  0
M  CHG  2   3  -1  35  -1
M  END
>  <CHROM.1>
173.05502340,76.89721363,157.27836878,43.65849900,144.13734461,-2.30988430
0.22825010,-2.11854083

>  <Name>
ligand

>  <RI>
0

>  <Rbt.Current_Directory>
/home/itssahil/PROJECTS/Mol_Feturizer/Test_systems_manuscript/rnas/4yb0

>  <Rbt.Executable>
rbdock ($Id: //depot/dev/client3/rdock/2013.1/src/exe/rbdock.cxx#4 $)

>  <Rbt.Library>
libRbt.so (2013.1, Build901 2013/11/27)

>  <Rbt.Parameter_File>
/export/apps/rDock/src/rDock_2013.1_src/data/scripts/dock_solv.prm

>  <Rbt.Receptor>
prm/pocket_docking_2.prm

>  <SCORE>
-43.5796

>  <SCORE.INTER>
-43.5214

>  <SCORE.INTER.CONST>
1

>  <SCORE.INTER.POLAR>
0

>  <SCORE.INTER.ROT>
2

>  <SCORE.INTER.SOLV>
40.1617

>  <SCORE.INTER.VDW>
-47.3348

>  <SCORE.INTER.norm>
-0.946117

>  <SCORE.INTRA>
-0.0594544

>  <SCORE.INTRA.DIHEDRAL>
-0.0541733

>  <SCORE.INTRA.DIHEDRAL.0>
2.42188

>  <SCORE.INTRA.POLAR>
0

>  <SCORE.INTRA.POLAR.0>
0

>  <SCORE.INTRA.REPUL>
0

>  <SCORE.INTRA.REPUL.0>
0

>  <SCORE.INTRA.SOLV>
-0.0026904

>  <SCORE.INTRA.SOLV.lig_0>
-127.307

>  <SCORE.INTRA.VDW>
-0.0310226

>  <SCORE.INTRA.VDW.0>
-2.19936

>  <SCORE.INTRA.norm>
-0.00129249

>  <SCORE.RESTR>
0.00129187

>  <SCORE.RESTR.CAVITY>
0.00129187

>  <SCORE.RESTR.norm>
2.80841e-05

>  <SCORE.SYSTEM>
0

>  <SCORE.SYSTEM.CONST>
0

>  <SCORE.SYSTEM.DIHEDRAL>
0

>  <SCORE.SYSTEM.SOLV>
0

>  <SCORE.SYSTEM.norm>
0

>  <SCORE.heavy>
46

>  <SCORE.norm>
-0.947382

>  <RMSD>
0.880

$$$$
ligand
 OpenBabel02271912143D
libRbt.so/2013.1/901 2013/11/27
 46 52  0  0  0  0  0  0  0  0999 V2000
  158.2710   42.1433  147.5624 P   0  0  1  0  0  0  0  0  0  0  0  0
  160.0158   46.1524  143.9135 P   0  0  1  0  0  0  0  0  0  0  0  0
  156.8724   41.6298  147.3362 O   0  5  0  0  0  0  0  0  0  0  0  0
  159.1111   41.4034  148.5803 O   0  0  0  0  0  0  0  0  0  0  0  0
  160.3729   41.8340  145.9857 C   0  0  0  0  0  0  0  0  0  0  0  0
  159.0148   42.2253  146.1393 O   0  0  0  0  0  0  0  0  0  0  0  0
  160.9244   42.3731  144.6762 C   0  0  1  0  0  0  0  0  0  0  0  0
  160.9697   41.3020  143.7442 O   0  0  0  0  0  0  0  0  0  0  0  0
  160.1034   43.4753  144.0189 C   0  0  1  0  0  0  0  0  0  0  0  0
  160.7332   44.7305  144.2294 O   0  0  0  0  0  0  0  0  0  0  0  0
  160.1900   43.1477  142.5450 C   0  0  1  0  0  0  0  0  0  0  0  0
  161.3240   43.8033  141.9737 O   0  0  0  0  0  0  0  0  0  0  0  0
  160.4581   41.6725  142.4731 C   0  0  2  0  0  0  0  0  0  0  0  0
  155.5587   46.0638  146.9986 C   0  0  1  0  0  0  0  0  0  0  0  0
  156.3186   41.0114  139.3149 N   0  0  0  0  0  0  0  0  0  0  0  0
  157.3755   41.8373  139.1976 C   0  0  1  0  0  0  0  0  0  0  0  0
  155.9842   44.6618  147.3816 C   0  0  2  0  0  0  0  0  0  0  0  0
  157.4544   42.6548  138.1240 N   0  0  0  0  0  0  0  0  0  0  0  0
  155.7463   44.5092  148.7837 O   0  0  0  0  0  0  0  0  0  0  0  0
  157.4688   44.5939  147.0756 C   0  0  2  0  0  0  0  0  0  0  0  0
  158.3771   41.9023  140.1040 N   0  0  0  0  0  0  0  0  0  0  0  0
  158.1461   43.7010  147.9588 O   0  0  0  0  0  0  0  0  0  0  0  0
  158.3689   41.1202  141.2046 C   0  0  2  0  0  0  0  0  0  0  0  0
  157.9070   46.0438  147.2696 C   0  0  2  0  0  0  0  0  0  0  0  0
  156.7468   46.8559  147.0769 O   0  0  0  0  0  0  0  0  0  0  0  0
  157.2464   40.1969  141.3980 C   0  0  2  0  0  0  0  0  0  0  0  0
  159.0188   46.5174  146.3283 C   0  0  0  0  0  0  0  0  0  0  0  0
  158.7897   46.1625  144.9652 O   0  0  0  0  0  0  0  0  0  0  0  0
  156.1859   40.1807  140.3631 C   0  0  0  0  0  0  0  0  0  0  0  0
  155.2037   39.4084  140.4760 O   0  0  0  0  0  0  0  0  0  0  0  0
  157.4854   39.5561  142.5560 N   0  0  0  0  0  0  0  0  0  0  0  0
  158.6536   40.0214  143.0599 C   0  0  0  0  0  0  0  0  0  0  0  0
  159.1801   40.9559  142.2493 N   0  0  1  0  0  0  0  0  0  0  0  0
  151.8547   44.4988  143.6121 N   0  0  0  0  0  0  0  0  0  0  0  0
  161.0182   47.2235  144.3006 O   0  5  0  0  0  0  0  0  0  0  0  0
  151.9554   44.2907  144.9340 C   0  0  2  0  0  0  0  0  0  0  0  0
  150.9822   43.5802  145.5233 N   0  0  0  0  0  0  0  0  0  0  0  0
  159.4217   46.1105  142.5266 O   0  0  0  0  0  0  0  0  0  0  0  0
  152.9750   44.7598  145.6907 N   0  0  0  0  0  0  0  0  0  0  0  0
  153.9691   45.4828  145.1337 C   0  0  1  0  0  0  0  0  0  0  0  0
  153.9169   45.7460  143.6816 C   0  0  1  0  0  0  0  0  0  0  0  0
  152.7582   45.2027  142.9281 C   0  0  0  0  0  0  0  0  0  0  0  0
  152.6252   45.3656  141.6961 O   0  0  0  0  0  0  0  0  0  0  0  0
  155.0036   46.4785  143.3902 N   0  0  0  0  0  0  0  0  0  0  0  0
  155.6892   46.6595  144.5532 C   0  0  0  0  0  0  0  0  0  0  0  0
  155.0730   46.0690  145.5964 N   0  0  2  0  0  0  0  0  0  0  0  0
  1  3  1  6  0  0  0
  1  4  2  0  0  0  0
  1  6  1  0  0  0  0
  1 22  1  0  0  0  0
  2 28  1  0  0  0  0
  2 35  1  1  0  0  0
  2 38  2  0  0  0  0
  2 10  1  0  0  0  0
  5  6  1  0  0  0  0
  7  5  1  1  0  0  0
  7  8  1  0  0  0  0
  7  9  1  0  0  0  0
  9 10  1  6  0  0  0
  9 11  1  0  0  0  0
 11 12  1  1  0  0  0
 11 13  1  0  0  0  0
 13  8  1  1  0  0  0
 13 33  1  0  0  0  0
 14 46  1  0  0  0  0
 14 17  1  0  0  0  0
 14 25  1  6  0  0  0
 15 16  1  0  0  0  0
 15 29  1  0  0  0  0
 16 18  1  1  0  0  0
 16 21  1  0  0  0  0
 17 19  1  1  0  0  0
 17 20  1  0  0  0  0
 20 22  1  1  0  0  0
 20 24  1  0  0  0  0
 23 21  1  1  0  0  0
 23 26  1  0  0  0  0
 23 33  1  0  0  0  0
 24 25  1  6  0  0  0
 24 27  1  0  0  0  0
 26 29  1  1  0  0  0
 26 31  1  0  0  0  0
 27 28  1  0  0  0  0
 29 30  2  0  0  0  0
 31 32  1  0  0  0  0
 33 32  1  6  0  0  0
 34 36  1  0  0  0  0
 34 42  1  0  0  0  0
 36 37  1  1  0  0  0
 36 39  1  0  0  0  0
 40 39  1  1  0  0  0
 40 41  1  0  0  0  0
 40 46  1  0  0  0  0
 41 42  1  1  0  0  0
 41 44  1  0  0  0  0
 42 43  2  0  0  0  0
 44 45  1  0  0  0  0
 46 45  1  6  0  0  0
M  CHG  2   3  -1  35  -1
M  END
>  <CHROM.1>
175.29667536,67.73125890,157.40535954,43.64417390,144.24784291,-2.10609558
0.20436906,-2.10207944

>  <Name>
ligand

>  <RI>
0

>  <Rbt.Current_Directory>
/home/itssahil/PROJECTS/Mol_Feturizer/Test_systems_manuscript/rnas/4yb0

>  <Rbt.Executable>
rbdock ($Id: //depot/dev/client3/rdock/2013.1/src/exe/rbdock.cxx#4 $)

>  <Rbt.Library>
libRbt.so (2013.1, Build901 2013/11/27)

>  <Rbt.Parameter_File>
/export/apps/rDock/src/rDock_2013.1_src/data/scripts/dock_solv.prm

>  <Rbt.Receptor>
prm/pocket_docking_3.prm

>  <SCORE>
-43.8882

>  <SCORE.INTER>
-43.8979

>  <SCORE.INTER.CONST>
1

>  <SCORE.INTER.POLAR>
0

>  <SCORE.INTER.ROT>
2

>  <SCORE.INTER.SOLV>
37.8145

>  <SCORE.INTER.VDW>
-46.8034

>  <SCORE.INTER.norm>
-0.954302

>  <SCORE.INTRA>
0.00965741

>  <SCORE.INTRA.DIHEDRAL>
-0.0404339

>  <SCORE.INTRA.DIHEDRAL.0>
2.42188

>  <SCORE.INTRA.POLAR>
0

>  <SCORE.INTRA.POLAR.0>
0

>  <SCORE.INTRA.REPUL>
0

>  <SCORE.INTRA.REPUL.0>
0

>  <SCORE.INTRA.SOLV>
0.000323372

>  <SCORE.INTRA.SOLV.lig_0>
-127.307

>  <SCORE.INTRA.VDW>
0.0297127

>  <SCORE.INTRA.VDW.0>
-2.19936

>  <SCORE.INTRA.norm>
0.000209944

>  <SCORE.RESTR>
0

>  <SCORE.RESTR.CAVITY>
0

>  <SCORE.RESTR.norm>
0

>  <SCORE.SYSTEM>
0

>  <SCORE.SYSTEM.CONST>
0

>  <SCORE.SYSTEM.DIHEDRAL>
0

>  <SCORE.SYSTEM.SOLV>
0

>  <SCORE.SYSTEM.norm>
0

>  <SCORE.heavy>
46

>  <SCORE.norm>
-0.954092

>  <RMSD>
0.880

$$$$
ligand
 OpenBabel02271912143D
libRbt.so/2013.1/901 2013/11/27
 46 52  0  0  0  0  0  0  0  0999 V2000
  158.2667   42.1383  147.5586 P   0  0  1  0  0  0  0  0  0  0  0  0
  160.0188   46.1506  143.9169 P   0  0  1  0  0  0  0  0  0  0  0  0
  156.8682   41.6255  147.3298 O   0  5  0  0  0  0  0  0  0  0  0  0
  159.1050   41.3968  148.5771 O   0  0  0  0  0  0  0  0  0  0  0  0
  160.3709   41.8298  145.9849 C   0  0  0  0  0  0  0  0  0  0  0  0
  159.0127   42.2215  146.1368 O   0  0  0  0  0  0  0  0  0  0  0  0
  160.9246   42.3701  144.6768 C   0  0  1  0  0  0  0  0  0  0  0  0
  160.9709   41.3000  143.7437 O   0  0  0  0  0  0  0  0  0  0  0  0
  160.1051   43.4733  144.0194 C   0  0  1  0  0  0  0  0  0  0  0  0
  160.7351   44.7281  144.2323 O   0  0  0  0  0  0  0  0  0  0  0  0
  160.1938   43.1474  142.5453 C   0  0  1  0  0  0  0  0  0  0  0  0
  161.3289   43.8031  141.9764 O   0  0  0  0  0  0  0  0  0  0  0  0
  160.4614   41.6721  142.4722 C   0  0  2  0  0  0  0  0  0  0  0  0
  155.5569   46.0604  146.9951 C   0  0  1  0  0  0  0  0  0  0  0  0
  156.3229   41.0214  139.3105 N   0  0  0  0  0  0  0  0  0  0  0  0
  157.3799   41.8477  139.1963 C   0  0  1  0  0  0  0  0  0  0  0  0
  155.9813   44.6578  147.3772 C   0  0  2  0  0  0  0  0  0  0  0  0
  157.4591   42.6687  138.1253 N   0  0  0  0  0  0  0  0  0  0  0  0
  155.7412   44.5038  148.7788 O   0  0  0  0  0  0  0  0  0  0  0  0
  157.4663   44.5897  147.0733 C   0  0  2  0  0  0  0  0  0  0  0  0
  158.3811   41.9096  140.1032 N   0  0  0  0  0  0  0  0  0  0  0  0
  158.1419   43.6956  147.9566 O   0  0  0  0  0  0  0  0  0  0  0  0
  158.3725   41.1240  141.2013 C   0  0  2  0  0  0  0  0  0  0  0  0
  157.9048   46.0392  147.2696 C   0  0  2  0  0  0  0  0  0  0  0  0
  156.7452   46.8520  147.0761 O   0  0  0  0  0  0  0  0  0  0  0  0
  157.2500   40.2002  141.3913 C   0  0  2  0  0  0  0  0  0  0  0  0
  159.0183   46.5133  146.3305 C   0  0  0  0  0  0  0  0  0  0  0  0
  158.7911   46.1601  144.9667 O   0  0  0  0  0  0  0  0  0  0  0  0
  156.1898   40.1873  140.3560 C   0  0  0  0  0  0  0  0  0  0  0  0
  155.2075   39.4147  140.4661 O   0  0  0  0  0  0  0  0  0  0  0  0
  157.4886   39.5555  142.5473 N   0  0  0  0  0  0  0  0  0  0  0  0
  158.6567   40.0192  143.0530 C   0  0  0  0  0  0  0  0  0  0  0  0
  159.1835   40.9562  142.2457 N   0  0  1  0  0  0  0  0  0  0  0  0
  151.8572   44.5010  143.6013 N   0  0  0  0  0  0  0  0  0  0  0  0
  161.0210   47.2209  144.3066 O   0  5  0  0  0  0  0  0  0  0  0  0
  151.9558   44.2914  144.9231 C   0  0  2  0  0  0  0  0  0  0  0  0
  150.9814   43.5807  145.5101 N   0  0  0  0  0  0  0  0  0  0  0  0
  159.4268   46.1105  142.5290 O   0  0  0  0  0  0  0  0  0  0  0  0
  152.9746   44.7591  145.6818 N   0  0  0  0  0  0  0  0  0  0  0  0
  153.9699   45.4823  145.1271 C   0  0  1  0  0  0  0  0  0  0  0  0
  153.9200   45.7470  143.6752 C   0  0  1  0  0  0  0  0  0  0  0  0
  152.7622   45.2051  142.9194 C   0  0  0  0  0  0  0  0  0  0  0  0
  152.6312   45.3694  141.6873 O   0  0  0  0  0  0  0  0  0  0  0  0
  155.0075   46.4793  143.3863 N   0  0  0  0  0  0  0  0  0  0  0  0
  155.6914   46.6586  144.5505 C   0  0  0  0  0  0  0  0  0  0  0  0
  155.0734   46.0674  145.5921 N   0  0  2  0  0  0  0  0  0  0  0  0
  1  3  1  6  0  0  0
  1  4  2  0  0  0  0
  1  6  1  0  0  0  0
  1 22  1  0  0  0  0
  2 28  1  0  0  0  0
  2 35  1  1  0  0  0
  2 38  2  0  0  0  0
  2 10  1  0  0  0  0
  5  6  1  0  0  0  0
  7  5  1  1  0  0  0
  7  8  1  0  0  0  0
  7  9  1  0  0  0  0
  9 10  1  6  0  0  0
  9 11  1  0  0  0  0
 11 12  1  1  0  0  0
 11 13  1  0  0  0  0
 13  8  1  1  0  0  0
 13 33  1  0  0  0  0
 14 46  1  0  0  0  0
 14 17  1  0  0  0  0
 14 25  1  6  0  0  0
 15 16  1  0  0  0  0
 15 29  1  0  0  0  0
 16 18  1  1  0  0  0
 16 21  1  0  0  0  0
 17 19  1  1  0  0  0
 17 20  1  0  0  0  0
 20 22  1  1  0  0  0
 20 24  1  0  0  0  0
 23 21  1  1  0  0  0
 23 26  1  0  0  0  0
 23 33  1  0  0  0  0
 24 25  1  6  0  0  0
 24 27  1  0  0  0  0
 26 29  1  1  0  0  0
 26 31  1  0  0  0  0
 27 28  1  0  0  0  0
 29 30  2  0  0  0  0
 31 32  1  0  0  0  0
 33 32  1  6  0  0  0
 34 36  1  0  0  0  0
 34 42  1  0  0  0  0
 36 37  1  1  0  0  0
 36 39  1  0  0  0  0
 40 39  1  1  0  0  0
 40 41  1  0  0  0  0
 40 46  1  0  0  0  0
 41 42  1  1  0  0  0
 41 44  1  0  0  0  0
 42 43  2  0  0  0  0
 44 45  1  0  0  0  0
 46 45  1  6  0  0  0
M  CHG  2   3  -1  35  -1
M  END
>  <CHROM.1>
175.15377198,67.73736402,157.40636946,43.64368446,144.24484790,-2.10902470
0.20566270,-2.10058994

>  <Name>
ligand

>  <RI>
0

>  <Rbt.Current_Directory>
/home/itssahil/PROJECTS/Mol_Feturizer/Test_systems_manuscript/rnas/4yb0

>  <Rbt.Executable>
rbdock ($Id: //depot/dev/client3/rdock/2013.1/src/exe/rbdock.cxx#4 $)

>  <Rbt.Library>
libRbt.so (2013.1, Build901 2013/11/27)

>  <Rbt.Parameter_File>
/export/apps/rDock/src/rDock_2013.1_src/data/scripts/dock_solv.prm

>  <Rbt.Receptor>
prm/pocket_docking_3.prm

>  <SCORE>
-43.9057

>  <SCORE.INTER>
-43.9167

>  <SCORE.INTER.CONST>
1

>  <SCORE.INTER.POLAR>
0

>  <SCORE.INTER.ROT>
2

>  <SCORE.INTER.SOLV>
37.7903

>  <SCORE.INTER.VDW>
-46.8079

>  <SCORE.INTER.norm>
-0.95471

>  <SCORE.INTRA>
0.0109715

>  <SCORE.INTRA.DIHEDRAL>
-0.0406078

>  <SCORE.INTRA.DIHEDRAL.0>
2.42188

>  <SCORE.INTRA.POLAR>
0

>  <SCORE.INTRA.POLAR.0>
0

>  <SCORE.INTRA.REPUL>
0

>  <SCORE.INTRA.REPUL.0>
0

>  <SCORE.INTRA.SOLV>
0.000394614

>  <SCORE.INTRA.SOLV.lig_0>
-127.307

>  <SCORE.INTRA.VDW>
0.0310781

>  <SCORE.INTRA.VDW.0>
-2.19936

>  <SCORE.INTRA.norm>
0.000238512

>  <SCORE.RESTR>
0

>  <SCORE.RESTR.CAVITY>
0

>  <SCORE.RESTR.norm>
0

>  <SCORE.SYSTEM>
0

>  <SCORE.SYSTEM.CONST>
0

>  <SCORE.SYSTEM.DIHEDRAL>
0

>  <SCORE.SYSTEM.SOLV>
0

>  <SCORE.SYSTEM.norm>
0

>  <SCORE.heavy>
46

>  <SCORE.norm>
-0.954472

>  <RMSD>
0.880

$$$$
ligand
 OpenBabel02271912143D
libRbt.so/2013.1/901 2013/11/27
 46 52  0  0  0  0  0  0  0  0999 V2000
  158.2706   42.1477  147.5546 P   0  0  1  0  0  0  0  0  0  0  0  0
  160.0150   46.1563  143.9051 P   0  0  1  0  0  0  0  0  0  0  0  0
  156.8713   41.6354  147.3297 O   0  5  0  0  0  0  0  0  0  0  0  0
  159.1112   41.4067  148.5714 O   0  0  0  0  0  0  0  0  0  0  0  0
  160.3706   41.8370  145.9756 C   0  0  0  0  0  0  0  0  0  0  0  0
  159.0130   42.2294  146.1307 O   0  0  0  0  0  0  0  0  0  0  0  0
  160.9212   42.3761  144.6657 C   0  0  1  0  0  0  0  0  0  0  0  0
  160.9646   41.3052  143.7333 O   0  0  0  0  0  0  0  0  0  0  0  0
  160.1005   43.4791  144.0095 C   0  0  1  0  0  0  0  0  0  0  0  0
  160.7315   44.7338  144.2197 O   0  0  0  0  0  0  0  0  0  0  0  0
  160.1852   43.1519  142.5355 C   0  0  1  0  0  0  0  0  0  0  0  0
  161.3192   43.8067  141.9631 O   0  0  0  0  0  0  0  0  0  0  0  0
  160.4520   41.6765  142.4628 C   0  0  2  0  0  0  0  0  0  0  0  0
  155.5611   46.0706  146.9948 C   0  0  1  0  0  0  0  0  0  0  0  0
  156.3225   40.9994  139.2950 N   0  0  0  0  0  0  0  0  0  0  0  0
  157.3817   41.8219  139.1749 C   0  0  1  0  0  0  0  0  0  0  0  0
  155.9859   44.6681  147.3770 C   0  0  2  0  0  0  0  0  0  0  0  0
  157.4663   42.6306  138.0950 N   0  0  0  0  0  0  0  0  0  0  0  0
  155.7493   44.5153  148.7793 O   0  0  0  0  0  0  0  0  0  0  0  0
  157.4700   44.5990  147.0693 C   0  0  2  0  0  0  0  0  0  0  0  0
  158.3801   41.8919  140.0844 N   0  0  0  0  0  0  0  0  0  0  0  0
  158.1475   43.7054  147.9516 O   0  0  0  0  0  0  0  0  0  0  0  0
  158.3661   41.1188  141.1913 C   0  0  2  0  0  0  0  0  0  0  0  0
  157.9097   46.0485  147.2634 C   0  0  2  0  0  0  0  0  0  0  0  0
  156.7500   46.8617  147.0721 O   0  0  0  0  0  0  0  0  0  0  0  0
  157.2408   40.1997  141.3880 C   0  0  2  0  0  0  0  0  0  0  0  0
  159.0209   46.5214  146.3210 C   0  0  0  0  0  0  0  0  0  0  0  0
  158.7901   46.1672  144.9580 O   0  0  0  0  0  0  0  0  0  0  0  0
  156.1840   40.1775  140.3494 C   0  0  0  0  0  0  0  0  0  0  0  0
  155.1996   39.4084  140.4649 O   0  0  0  0  0  0  0  0  0  0  0  0
  157.4740   39.5676  142.5520 N   0  0  0  0  0  0  0  0  0  0  0  0
  158.6415   40.0344  143.0563 C   0  0  0  0  0  0  0  0  0  0  0  0
  159.1732   40.9610  142.2402 N   0  0  1  0  0  0  0  0  0  0  0  0
  151.8631   44.4924  143.6079 N   0  0  0  0  0  0  0  0  0  0  0  0
  161.0188   47.2265  144.2914 O   0  5  0  0  0  0  0  0  0  0  0  0
  151.9664   44.2813  144.9291 C   0  0  2  0  0  0  0  0  0  0  0  0
  150.9981   43.5633  145.5175 N   0  0  0  0  0  0  0  0  0  0  0  0
  159.4195   46.1154  142.5188 O   0  0  0  0  0  0  0  0  0  0  0  0
  152.9840   44.7545  145.6860 N   0  0  0  0  0  0  0  0  0  0  0  0
  153.9731   45.4851  145.1300 C   0  0  1  0  0  0  0  0  0  0  0  0
  153.9179   45.7518  143.6786 C   0  0  1  0  0  0  0  0  0  0  0  0
  152.7616   45.2035  142.9248 C   0  0  0  0  0  0  0  0  0  0  0  0
  152.6264   45.3689  141.6934 O   0  0  0  0  0  0  0  0  0  0  0  0
  154.9998   46.4917  143.3881 N   0  0  0  0  0  0  0  0  0  0  0  0
  155.6854   46.6736  144.5509 C   0  0  0  0  0  0  0  0  0  0  0  0
  155.0740   46.0767  145.5931 N   0  0  2  0  0  0  0  0  0  0  0  0
  1  3  1  6  0  0  0
  1  4  2  0  0  0  0
  1  6  1  0  0  0  0
  1 22  1  0  0  0  0
  2 28  1  0  0  0  0
  2 35  1  1  0  0  0
  2 38  2  0  0  0  0
  2 10  1  0  0  0  0
  5  6  1  0  0  0  0
  7  5  1  1  0  0  0
  7  8  1  0  0  0  0
  7  9  1  0  0  0  0
  9 10  1  6  0  0  0
  9 11  1  0  0  0  0
 11 12  1  1  0  0  0
 11 13  1  0  0  0  0
 13  8  1  1  0  0  0
 13 33  1  0  0  0  0
 14 46  1  0  0  0  0
 14 17  1  0  0  0  0
 14 25  1  6  0  0  0
 15 16  1  0  0  0  0
 15 29  1  0  0  0  0
 16 18  1  1  0  0  0
 16 21  1  0  0  0  0
 17 19  1  1  0  0  0
 17 20  1  0  0  0  0
 20 22  1  1  0  0  0
 20 24  1  0  0  0  0
 23 21  1  1  0  0  0
 23 26  1  0  0  0  0
 23 33  1  0  0  0  0
 24 25  1  6  0  0  0
 24 27  1  0  0  0  0
 26 29  1  1  0  0  0
 26 31  1  0  0  0  0
 27 28  1  0  0  0  0
 29 30  2  0  0  0  0
 31 32  1  0  0  0  0
 33 32  1  6  0  0  0
 34 36  1  0  0  0  0
 34 42  1  0  0  0  0
 36 37  1  1  0  0  0
 36 39  1  0  0  0  0
 40 39  1  1  0  0  0
 40 41  1  0  0  0  0
 40 46  1  0  0  0  0
 41 42  1  1  0  0  0
 41 44  1  0  0  0  0
 42 43  2  0  0  0  0
 44 45  1  0  0  0  0
 46 45  1  6  0  0  0
M  CHG  2   3  -1  35  -1
M  END
>  <CHROM.1>
175.85287479,67.31289527,157.40550735,43.64610659,144.23946958,-2.09065799
0.20257934,-2.10296999

>  <Name>
ligand

>  <RI>
0

>  <Rbt.Current_Directory>
/home/itssahil/PROJECTS/Mol_Feturizer/Test_systems_manuscript/rnas/4yb0

>  <Rbt.Executable>
rbdock ($Id: //depot/dev/client3/rdock/2013.1/src/exe/rbdock.cxx#4 $)

>  <Rbt.Library>
libRbt.so (2013.1, Build901 2013/11/27)

>  <Rbt.Parameter_File>
/export/apps/rDock/src/rDock_2013.1_src/data/scripts/dock_solv.prm

>  <Rbt.Receptor>
prm/pocket_docking_5.prm

>  <SCORE>
-43.8209

>  <SCORE.INTER>
-43.8285

>  <SCORE.INTER.CONST>
1

>  <SCORE.INTER.POLAR>
0

>  <SCORE.INTER.ROT>
2

>  <SCORE.INTER.SOLV>
37.8162

>  <SCORE.INTER.VDW>
-46.7577

>  <SCORE.INTER.norm>
-0.952794

>  <SCORE.INTRA>
0.00766317

>  <SCORE.INTRA.DIHEDRAL>
-0.0391867

>  <SCORE.INTRA.DIHEDRAL.0>
2.42188

>  <SCORE.INTRA.POLAR>
0

>  <SCORE.INTRA.POLAR.0>
0

>  <SCORE.INTRA.REPUL>
0

>  <SCORE.INTRA.REPUL.0>
0

>  <SCORE.INTRA.SOLV>
0.000235178

>  <SCORE.INTRA.SOLV.lig_0>
-127.307

>  <SCORE.INTRA.VDW>
0.027139

>  <SCORE.INTRA.VDW.0>
-2.19936

>  <SCORE.INTRA.norm>
0.000166591

>  <SCORE.RESTR>
0

>  <SCORE.RESTR.CAVITY>
0

>  <SCORE.RESTR.norm>
0

>  <SCORE.SYSTEM>
0

>  <SCORE.SYSTEM.CONST>
0

>  <SCORE.SYSTEM.DIHEDRAL>
0

>  <SCORE.SYSTEM.SOLV>
0

>  <SCORE.SYSTEM.norm>
0

>  <SCORE.heavy>
46

>  <SCORE.norm>
-0.952627

>  <RMSD>
0.880

$$$$
ligand
 OpenBabel02271912143D
libRbt.so/2013.1/901 2013/11/27
 46 52  0  0  0  0  0  0  0  0999 V2000
  158.1901   42.1880  147.4338 P   0  0  1  0  0  0  0  0  0  0  0  0
  159.8258   46.1690  143.7046 P   0  0  1  0  0  0  0  0  0  0  0  0
  156.8139   41.6174  147.2063 O   0  5  0  0  0  0  0  0  0  0  0  0
  159.0456   41.5048  148.4782 O   0  0  0  0  0  0  0  0  0  0  0  0
  160.3192   41.9186  145.8866 C   0  0  0  0  0  0  0  0  0  0  0  0
  158.9460   42.2628  146.0167 O   0  0  0  0  0  0  0  0  0  0  0  0
  160.8648   42.4458  144.5698 C   0  0  1  0  0  0  0  0  0  0  0  0
  160.9599   41.3547  143.6651 O   0  0  0  0  0  0  0  0  0  0  0  0
  160.0110   43.5003  143.8771 C   0  0  1  0  0  0  0  0  0  0  0  0
  160.5917   44.7829  144.0628 O   0  0  0  0  0  0  0  0  0  0  0  0
  160.1259   43.1404  142.4128 C   0  0  1  0  0  0  0  0  0  0  0  0
  161.2411   43.8235  141.8368 O   0  0  0  0  0  0  0  0  0  0  0  0
  160.4490   41.6748  142.3801 C   0  0  2  0  0  0  0  0  0  0  0  0
  155.3413   45.9900  146.7457 C   0  0  1  0  0  0  0  0  0  0  0  0
  156.3919   40.7560  139.1798 N   0  0  0  0  0  0  0  0  0  0  0  0
  157.4214   41.6141  139.0503 C   0  0  1  0  0  0  0  0  0  0  0  0
  155.8140   44.6145  147.1676 C   0  0  2  0  0  0  0  0  0  0  0  0
  157.4908   42.3953  137.9493 N   0  0  0  0  0  0  0  0  0  0  0  0
  155.5665   44.4874  148.5706 O   0  0  0  0  0  0  0  0  0  0  0  0
  157.3034   44.5944  146.8783 C   0  0  2  0  0  0  0  0  0  0  0  0
  158.4037   41.7466  139.9702 N   0  0  0  0  0  0  0  0  0  0  0  0
  158.0034   43.7492  147.7903 O   0  0  0  0  0  0  0  0  0  0  0  0
  158.4031   41.0043  141.0980 C   0  0  2  0  0  0  0  0  0  0  0  0
  157.6856   46.0639  147.0408 C   0  0  2  0  0  0  0  0  0  0  0  0
  156.4984   46.8274  146.8164 O   0  0  0  0  0  0  0  0  0  0  0  0
  157.3102   40.0493  141.3061 C   0  0  2  0  0  0  0  0  0  0  0  0
  158.7895   46.5554  146.0993 C   0  0  0  0  0  0  0  0  0  0  0  0
  158.5887   46.1592  144.7432 O   0  0  0  0  0  0  0  0  0  0  0  0
  156.2694   39.9589  140.2550 C   0  0  0  0  0  0  0  0  0  0  0  0
  155.3128   39.1568  140.3795 O   0  0  0  0  0  0  0  0  0  0  0  0
  157.5506   39.4588  142.4902 N   0  0  0  0  0  0  0  0  0  0  0  0
  158.6928   39.9828  142.9962 C   0  0  0  0  0  0  0  0  0  0  0  0
  159.2009   40.9059  142.1612 N   0  0  1  0  0  0  0  0  0  0  0  0
  151.4739   44.6835  143.4330 N   0  0  0  0  0  0  0  0  0  0  0  0
  160.7837   47.2857  144.0751 O   0  5  0  0  0  0  0  0  0  0  0  0
  151.5343   44.5786  144.7695 C   0  0  2  0  0  0  0  0  0  0  0  0
  150.4647   44.0685  145.3980 N   0  0  0  0  0  0  0  0  0  0  0  0
  159.2490   46.0712  142.3132 O   0  0  0  0  0  0  0  0  0  0  0  0
  152.6057   44.9607  145.5033 N   0  0  0  0  0  0  0  0  0  0  0  0
  153.6975   45.4830  144.9063 C   0  0  1  0  0  0  0  0  0  0  0  0
  153.6940   45.6238  143.4364 C   0  0  1  0  0  0  0  0  0  0  0  0
  152.4743   45.1887  142.7094 C   0  0  0  0  0  0  0  0  0  0  0  0
  152.3748   45.2614  141.4656 O   0  0  0  0  0  0  0  0  0  0  0  0
  154.8770   46.1652  143.1050 N   0  0  0  0  0  0  0  0  0  0  0  0
  155.5734   46.3463  144.2615 C   0  0  0  0  0  0  0  0  0  0  0  0
  154.8712   45.9430  145.3389 N   0  0  2  0  0  0  0  0  0  0  0  0
  1  3  1  6  0  0  0
  1  4  2  0  0  0  0
  1  6  1  0  0  0  0
  1 22  1  0  0  0  0
  2 28  1  0  0  0  0
  2 35  1  1  0  0  0
  2 38  2  0  0  0  0
  2 10  1  0  0  0  0
  5  6  1  0  0  0  0
  7  5  1  1  0  0  0
  7  8  1  0  0  0  0
  7  9  1  0  0  0  0
  9 10  1  6  0  0  0
  9 11  1  0  0  0  0
 11 12  1  1  0  0  0
 11 13  1  0  0  0  0
 13  8  1  1  0  0  0
 13 33  1  0  0  0  0
 14 46  1  0  0  0  0
 14 17  1  0  0  0  0
 14 25  1  6  0  0  0
 15 16  1  0  0  0  0
 15 29  1  0  0  0  0
 16 18  1  1  0  0  0
 16 21  1  0  0  0  0
 17 19  1  1  0  0  0
 17 20  1  0  0  0  0
 20 22  1  1  0  0  0
 20 24  1  0  0  0  0
 23 21  1  1  0  0  0
 23 26  1  0  0  0  0
 23 33  1  0  0  0  0
 24 25  1  6  0  0  0
 24 27  1  0  0  0  0
 26 29  1  1  0  0  0
 26 31  1  0  0  0  0
 27 28  1  0  0  0  0
 29 30  2  0  0  0  0
 31 32  1  0  0  0  0
 33 32  1  6  0  0  0
 34 36  1  0  0  0  0
 34 42  1  0  0  0  0
 36 37  1  1  0  0  0
 36 39  1  0  0  0  0
 40 39  1  1  0  0  0
 40 41  1  0  0  0  0
 40 46  1  0  0  0  0
 41 42  1  1  0  0  0
 41 44  1  0  0  0  0
 42 43  2  0  0  0  0
 44 45  1  0  0  0  0
 46 45  1  6  0  0  0
M  CHG  2   3  -1  35  -1
M  END
>  <CHROM.1>
176.05108670,78.71269890,157.27980615,43.62332260,144.08039686,-2.28628646
0.21962021,-2.11399865

>  <Name>
ligand

>  <RI>
0

>  <Rbt.Current_Directory>
/home/itssahil/PROJECTS/Mol_Feturizer/Test_systems_manuscript/rnas/4yb0

>  <Rbt.Executable>
rbdock ($Id: //depot/dev/client3/rdock/2013.1/src/exe/rbdock.cxx#4 $)

>  <Rbt.Library>
libRbt.so (2013.1, Build901 2013/11/27)

>  <Rbt.Parameter_File>
/export/apps/rDock/src/rDock_2013.1_src/data/scripts/dock_solv.prm

>  <Rbt.Receptor>
prm/pocket_docking_2.prm

>  <SCORE>
-43.4636

>  <SCORE.INTER>
-43.3649

>  <SCORE.INTER.CONST>
1

>  <SCORE.INTER.POLAR>
0

>  <SCORE.INTER.ROT>
2

>  <SCORE.INTER.SOLV>
41.1898

>  <SCORE.INTER.VDW>
-47.5732

>  <SCORE.INTER.norm>
-0.942715

>  <SCORE.INTRA>
-0.0987152

>  <SCORE.INTRA.DIHEDRAL>
-0.0523928

>  <SCORE.INTRA.DIHEDRAL.0>
2.42188

>  <SCORE.INTRA.POLAR>
0

>  <SCORE.INTRA.POLAR.0>
0

>  <SCORE.INTRA.REPUL>
0

>  <SCORE.INTRA.REPUL.0>
0

>  <SCORE.INTRA.SOLV>
-0.00496281

>  <SCORE.INTRA.SOLV.lig_0>
-127.307

>  <SCORE.INTRA.VDW>
-0.0700374

>  <SCORE.INTRA.VDW.0>
-2.19936

>  <SCORE.INTRA.norm>
-0.00214598

>  <SCORE.RESTR>
0

>  <SCORE.RESTR.CAVITY>
0

>  <SCORE.RESTR.norm>
0

>  <SCORE.SYSTEM>
0

>  <SCORE.SYSTEM.CONST>
0

>  <SCORE.SYSTEM.DIHEDRAL>
0

>  <SCORE.SYSTEM.SOLV>
0

>  <SCORE.SYSTEM.norm>
0

>  <SCORE.heavy>
46

>  <SCORE.norm>
-0.944861

>  <RMSD>
0.881

$$$$
ligand
 OpenBabel02271912143D
libRbt.so/2013.1/901 2013/11/27
 46 52  0  0  0  0  0  0  0  0999 V2000
  158.2542   42.3186  147.4367 P   0  0  1  0  0  0  0  0  0  0  0  0
  159.6740   46.3756  143.7010 P   0  0  1  0  0  0  0  0  0  0  0  0
  156.9095   41.6764  147.2117 O   0  5  0  0  0  0  0  0  0  0  0  0
  159.1457   41.6825  148.4807 O   0  0  0  0  0  0  0  0  0  0  0  0
  160.3924   42.1595  145.8869 C   0  0  0  0  0  0  0  0  0  0  0  0
  159.0032   42.4314  146.0185 O   0  0  0  0  0  0  0  0  0  0  0  0
  160.9080   42.7131  144.5688 C   0  0  1  0  0  0  0  0  0  0  0  0
  161.0589   41.6274  143.6651 O   0  0  0  0  0  0  0  0  0  0  0  0
  159.9992   43.7206  143.8761 C   0  0  1  0  0  0  0  0  0  0  0  0
  160.5120   45.0320  144.0596 O   0  0  0  0  0  0  0  0  0  0  0  0
  160.1308   43.3654  142.4120 C   0  0  1  0  0  0  0  0  0  0  0  0
  161.2079   44.1054  141.8338 O   0  0  0  0  0  0  0  0  0  0  0  0
  160.5303   41.9188  142.3805 C   0  0  2  0  0  0  0  0  0  0  0  0
  155.2091   45.9653  146.7484 C   0  0  1  0  0  0  0  0  0  0  0  0
  156.2487   41.1120  139.4541 N   0  0  0  0  0  0  0  0  0  0  0  0
  157.1970   42.0632  139.3596 C   0  0  1  0  0  0  0  0  0  0  0  0
  155.7538   44.6169  147.1711 C   0  0  2  0  0  0  0  0  0  0  0  0
  157.1007   42.9917  138.3818 N   0  0  0  0  0  0  0  0  0  0  0  0
  155.5151   44.4787  148.5746 O   0  0  0  0  0  0  0  0  0  0  0  0
  157.2417   44.6746  146.8799 C   0  0  2  0  0  0  0  0  0  0  0  0
  158.2545   42.1498  140.1979 N   0  0  0  0  0  0  0  0  0  0  0  0
  157.9864   43.8683  147.7917 O   0  0  0  0  0  0  0  0  0  0  0  0
  158.4190   41.2618  141.2017 C   0  0  2  0  0  0  0  0  0  0  0  0
  157.5466   46.1623  147.0403 C   0  0  2  0  0  0  0  0  0  0  0  0
  156.3207   46.8623  146.8166 O   0  0  0  0  0  0  0  0  0  0  0  0
  157.4224   40.1988  141.3652 C   0  0  2  0  0  0  0  0  0  0  0  0
  158.6220   46.7099  146.0967 C   0  0  0  0  0  0  0  0  0  0  0  0
  158.4405   46.3021  144.7413 O   0  0  0  0  0  0  0  0  0  0  0  0
  156.2908   40.1669  140.4089 C   0  0  0  0  0  0  0  0  0  0  0  0
  155.4104   39.2778  140.5001 O   0  0  0  0  0  0  0  0  0  0  0  0
  157.8210   39.4731  142.4250 N   0  0  0  0  0  0  0  0  0  0  0  0
  158.9682   40.0165  142.8981 C   0  0  0  0  0  0  0  0  0  0  0  0
  159.3239   41.0853  142.1642 N   0  0  1  0  0  0  0  0  0  0  0  0
  151.3297   44.6322  143.4603 N   0  0  0  0  0  0  0  0  0  0  0  0
  160.5725   47.5415  144.0689 O   0  5  0  0  0  0  0  0  0  0  0  0
  151.3871   44.5571  144.7989 C   0  0  2  0  0  0  0  0  0  0  0  0
  150.3103   44.0751  145.4372 N   0  0  0  0  0  0  0  0  0  0  0  0
  159.1013   46.2462  142.3105 O   0  0  0  0  0  0  0  0  0  0  0  0
  152.4622   44.9424  145.5255 N   0  0  0  0  0  0  0  0  0  0  0  0
  153.5614   45.4370  144.9185 C   0  0  1  0  0  0  0  0  0  0  0  0
  153.5616   45.5443  143.4457 C   0  0  1  0  0  0  0  0  0  0  0  0
  152.3374   45.1081  142.7269 C   0  0  0  0  0  0  0  0  0  0  0  0
  152.2404   45.1536  141.4817 O   0  0  0  0  0  0  0  0  0  0  0  0
  154.7517   46.0630  143.1039 N   0  0  0  0  0  0  0  0  0  0  0  0
  155.4488   46.2618  144.2571 C   0  0  0  0  0  0  0  0  0  0  0  0
  154.7402   45.8920  145.3423 N   0  0  2  0  0  0  0  0  0  0  0  0
  1  3  1  6  0  0  0
  1  4  2  0  0  0  0
  1  6  1  0  0  0  0
  1 22  1  0  0  0  0
  2 28  1  0  0  0  0
  2 35  1  1  0  0  0
  2 38  2  0  0  0  0
  2 10  1  0  0  0  0
  5  6  1  0  0  0  0
  7  5  1  1  0  0  0
  7  8  1  0  0  0  0
  7  9  1  0  0  0  0
  9 10  1  6  0  0  0
  9 11  1  0  0  0  0
 11 12  1  1  0  0  0
 11 13  1  0  0  0  0
 13  8  1  1  0  0  0
 13 33  1  0  0  0  0
 14 46  1  0  0  0  0
 14 17  1  0  0  0  0
 14 25  1  6  0  0  0
 15 16  1  0  0  0  0
 15 29  1  0  0  0  0
 16 18  1  1  0  0  0
 16 21  1  0  0  0  0
 17 19  1  1  0  0  0
 17 20  1  0  0  0  0
 20 22  1  1  0  0  0
 20 24  1  0  0  0  0
 23 21  1  1  0  0  0
 23 26  1  0  0  0  0
 23 33  1  0  0  0  0
 24 25  1  6  0  0  0
 24 27  1  0  0  0  0
 26 29  1  1  0  0  0
 26 31  1  0  0  0  0
 27 28  1  0  0  0  0
 29 30  2  0  0  0  0
 31 32  1  0  0  0  0
 33 32  1  6  0  0  0
 34 36  1  0  0  0  0
 34 42  1  0  0  0  0
 36 37  1  1  0  0  0
 36 39  1  0  0  0  0
 40 39  1  1  0  0  0
 40 41  1  0  0  0  0
 40 46  1  0  0  0  0
 41 42  1  1  0  0  0
 41 44  1  0  0  0  0
 42 43  2  0  0  0  0
 44 45  1  0  0  0  0
 46 45  1  6  0  0  0
M  CHG  2   3  -1  35  -1
M  END
>  <CHROM.1>
166.13382536,82.64671163,157.22674178,43.75547951,144.11397259,-0.63632974
-0.19820222,1.04102172

>  <Name>
ligand

>  <RI>
0

>  <Rbt.Current_Directory>
/home/itssahil/PROJECTS/Mol_Feturizer/Test_systems_manuscript/rnas/4yb0

>  <Rbt.Executable>
rbdock ($Id: //depot/dev/client3/rdock/2013.1/src/exe/rbdock.cxx#4 $)

>  <Rbt.Library>
libRbt.so (2013.1, Build901 2013/11/27)

>  <Rbt.Parameter_File>
/export/apps/rDock/src/rDock_2013.1_src/data/scripts/dock_solv.prm

>  <Rbt.Receptor>
prm/pocket_docking_3.prm

>  <SCORE>
-43.075

>  <SCORE.INTER>
-43.0478

>  <SCORE.INTER.CONST>
1

>  <SCORE.INTER.POLAR>
0

>  <SCORE.INTER.ROT>
2

>  <SCORE.INTER.SOLV>
39.7822

>  <SCORE.INTER.VDW>
-46.8926

>  <SCORE.INTER.norm>
-0.935822

>  <SCORE.INTRA>
-0.0272144

>  <SCORE.INTRA.DIHEDRAL>
-0.0655454

>  <SCORE.INTRA.DIHEDRAL.0>
2.42188

>  <SCORE.INTRA.POLAR>
0

>  <SCORE.INTRA.POLAR.0>
0

>  <SCORE.INTRA.REPUL>
0

>  <SCORE.INTRA.REPUL.0>
0

>  <SCORE.INTRA.SOLV>
-0.000126086

>  <SCORE.INTRA.SOLV.lig_0>
-127.307

>  <SCORE.INTRA.VDW>
0.00562136

>  <SCORE.INTRA.VDW.0>
-2.19936

>  <SCORE.INTRA.norm>
-0.000591617

>  <SCORE.RESTR>
0

>  <SCORE.RESTR.CAVITY>
0

>  <SCORE.RESTR.norm>
0

>  <SCORE.SYSTEM>
0

>  <SCORE.SYSTEM.CONST>
0

>  <SCORE.SYSTEM.DIHEDRAL>
0

>  <SCORE.SYSTEM.SOLV>
0

>  <SCORE.SYSTEM.norm>
0

>  <SCORE.heavy>
46

>  <SCORE.norm>
-0.936414

>  <RMSD>
0.882

$$$$
ligand
 OpenBabel02271912143D
libRbt.so/2013.1/901 2013/11/27
 46 52  0  0  0  0  0  0  0  0999 V2000
  158.1266   42.2339  147.5099 P   0  0  1  0  0  0  0  0  0  0  0  0
  159.8337   46.1879  143.7840 P   0  0  1  0  0  0  0  0  0  0  0  0
  156.7506   41.6694  147.2665 O   0  5  0  0  0  0  0  0  0  0  0  0
  158.9643   41.5514  148.5691 O   0  0  0  0  0  0  0  0  0  0  0  0
  160.2750   41.9458  145.9931 C   0  0  0  0  0  0  0  0  0  0  0  0
  158.9020   42.2978  146.1029 O   0  0  0  0  0  0  0  0  0  0  0  0
  160.8412   42.4637  144.6812 C   0  0  1  0  0  0  0  0  0  0  0  0
  160.9427   41.3677  143.7832 O   0  0  0  0  0  0  0  0  0  0  0  0
  160.0024   43.5193  143.9719 C   0  0  1  0  0  0  0  0  0  0  0  0
  160.5873   44.7997  144.1593 O   0  0  0  0  0  0  0  0  0  0  0  0
  160.1352   43.1516  142.5110 C   0  0  1  0  0  0  0  0  0  0  0  0
  161.2616   43.8260  141.9470 O   0  0  0  0  0  0  0  0  0  0  0  0
  160.4509   41.6842  142.4898 C   0  0  2  0  0  0  0  0  0  0  0  0
  155.3075   46.0473  146.7649 C   0  0  1  0  0  0  0  0  0  0  0  0
  156.3487   40.8852  139.3149 N   0  0  0  0  0  0  0  0  0  0  0  0
  157.3737   41.7515  139.2059 C   0  0  1  0  0  0  0  0  0  0  0  0
  155.7672   44.6715  147.1998 C   0  0  2  0  0  0  0  0  0  0  0  0
  157.4244   42.5780  138.1374 N   0  0  0  0  0  0  0  0  0  0  0  0
  155.5001   44.5525  148.5999 O   0  0  0  0  0  0  0  0  0  0  0  0
  157.2602   44.6422  146.9308 C   0  0  2  0  0  0  0  0  0  0  0  0
  158.3695   41.8490  140.1157 N   0  0  0  0  0  0  0  0  0  0  0  0
  157.9434   43.7978  147.8563 O   0  0  0  0  0  0  0  0  0  0  0  0
  158.3879   41.0605  141.2116 C   0  0  2  0  0  0  0  0  0  0  0  0
  157.6480   46.1104  147.0914 C   0  0  2  0  0  0  0  0  0  0  0  0
  156.4680   46.8790  146.8472 O   0  0  0  0  0  0  0  0  0  0  0  0
  157.3009   40.0939  141.3960 C   0  0  2  0  0  0  0  0  0  0  0  0
  158.7671   46.5915  146.1626 C   0  0  0  0  0  0  0  0  0  0  0  0
  158.5825   46.1897  144.8058 O   0  0  0  0  0  0  0  0  0  0  0  0
  156.2447   40.0436  140.3577 C   0  0  0  0  0  0  0  0  0  0  0  0
  155.2924   39.2338  140.4629 O   0  0  0  0  0  0  0  0  0  0  0  0
  157.5608   39.4555  142.5508 N   0  0  0  0  0  0  0  0  0  0  0  0
  158.7090   39.9620  143.0611 C   0  0  0  0  0  0  0  0  0  0  0  0
  159.2019   40.9208  142.2578 N   0  0  1  0  0  0  0  0  0  0  0  0
  151.4987   44.6986  143.4017 N   0  0  0  0  0  0  0  0  0  0  0  0
  160.7923   47.3015  144.1620 O   0  5  0  0  0  0  0  0  0  0  0  0
  151.5430   44.5935  144.7388 C   0  0  2  0  0  0  0  0  0  0  0  0
  150.4712   44.0707  145.3531 N   0  0  0  0  0  0  0  0  0  0  0  0
  159.2752   46.0864  142.3854 O   0  0  0  0  0  0  0  0  0  0  0  0
  152.6002   44.9875  145.4866 N   0  0  0  0  0  0  0  0  0  0  0  0
  153.6937   45.5226  144.9041 C   0  0  1  0  0  0  0  0  0  0  0  0
  153.7076   45.6645  143.4343 C   0  0  1  0  0  0  0  0  0  0  0  0
  152.5024   45.2158  142.6913 C   0  0  0  0  0  0  0  0  0  0  0  0
  152.4182   45.2882  141.4465 O   0  0  0  0  0  0  0  0  0  0  0  0
  154.8884   46.2196  143.1186 N   0  0  0  0  0  0  0  0  0  0  0  0
  155.5676   46.4080  144.2841 C   0  0  0  0  0  0  0  0  0  0  0  0
  154.8563   45.9959  145.3521 N   0  0  2  0  0  0  0  0  0  0  0  0
  1  3  1  6  0  0  0
  1  4  2  0  0  0  0
  1  6  1  0  0  0  0
  1 22  1  0  0  0  0
  2 28  1  0  0  0  0
  2 35  1  1  0  0  0
  2 38  2  0  0  0  0
  2 10  1  0  0  0  0
  5  6  1  0  0  0  0
  7  5  1  1  0  0  0
  7  8  1  0  0  0  0
  7  9  1  0  0  0  0
  9 10  1  6  0  0  0
  9 11  1  0  0  0  0
 11 12  1  1  0  0  0
 11 13  1  0  0  0  0
 13  8  1  1  0  0  0
 13 33  1  0  0  0  0
 14 46  1  0  0  0  0
 14 17  1  0  0  0  0
 14 25  1  6  0  0  0
 15 16  1  0  0  0  0
 15 29  1  0  0  0  0
 16 18  1  1  0  0  0
 16 21  1  0  0  0  0
 17 19  1  1  0  0  0
 17 20  1  0  0  0  0
 20 22  1  1  0  0  0
 20 24  1  0  0  0  0
 23 21  1  1  0  0  0
 23 26  1  0  0  0  0
 23 33  1  0  0  0  0
 24 25  1  6  0  0  0
 24 27  1  0  0  0  0
 26 29  1  1  0  0  0
 26 31  1  0  0  0  0
 27 28  1  0  0  0  0
 29 30  2  0  0  0  0
 31 32  1  0  0  0  0
 33 32  1  6  0  0  0
 34 36  1  0  0  0  0
 34 42  1  0  0  0  0
 36 37  1  1  0  0  0
 36 39  1  0  0  0  0
 40 39  1  1  0  0  0
 40 41  1  0  0  0  0
 40 46  1  0  0  0  0
 41 42  1  1  0  0  0
 41 44  1  0  0  0  0
 42 43  2  0  0  0  0
 44 45  1  0  0  0  0
 46 45  1  6  0  0  0
M  CHG  2   3  -1  35  -1
M  END
>  <CHROM.1>
172.89125515,77.70060016,157.26244661,43.66493177,144.14524671,-2.32997557
0.22953802,-2.11429926

>  <Name>
ligand

>  <RI>
0

>  <Rbt.Current_Directory>
/home/itssahil/PROJECTS/Mol_Feturizer/Test_systems_manuscript/rnas/4yb0

>  <Rbt.Executable>
rbdock ($Id: //depot/dev/client3/rdock/2013.1/src/exe/rbdock.cxx#4 $)

>  <Rbt.Library>
libRbt.so (2013.1, Build901 2013/11/27)

>  <Rbt.Parameter_File>
/export/apps/rDock/src/rDock_2013.1_src/data/scripts/dock_solv.prm

>  <Rbt.Receptor>
prm/pocket_docking_2.prm

>  <SCORE>
-43.5867

>  <SCORE.INTER>
-43.5243

>  <SCORE.INTER.CONST>
1

>  <SCORE.INTER.POLAR>
0

>  <SCORE.INTER.ROT>
2

>  <SCORE.INTER.SOLV>
40.1186

>  <SCORE.INTER.VDW>
-47.3224

>  <SCORE.INTER.norm>
-0.94618

>  <SCORE.INTRA>
-0.0623763

>  <SCORE.INTRA.DIHEDRAL>
-0.0551093

>  <SCORE.INTRA.DIHEDRAL.0>
2.42188

>  <SCORE.INTRA.POLAR>
0

>  <SCORE.INTRA.POLAR.0>
0

>  <SCORE.INTRA.REPUL>
0

>  <SCORE.INTRA.REPUL.0>
0

>  <SCORE.INTRA.SOLV>
-0.00294902

>  <SCORE.INTRA.SOLV.lig_0>
-127.307

>  <SCORE.INTRA.VDW>
-0.0333472

>  <SCORE.INTRA.VDW.0>
-2.19936

>  <SCORE.INTRA.norm>
-0.00135601

>  <SCORE.RESTR>
0

>  <SCORE.RESTR.CAVITY>
0

>  <SCORE.RESTR.norm>
0

>  <SCORE.SYSTEM>
0

>  <SCORE.SYSTEM.CONST>
0

>  <SCORE.SYSTEM.DIHEDRAL>
0

>  <SCORE.SYSTEM.SOLV>
0

>  <SCORE.SYSTEM.norm>
0

>  <SCORE.heavy>
46

>  <SCORE.norm>
-0.947536

>  <RMSD>
0.883

$$$$
ligand
 OpenBabel02271912143D
libRbt.so/2013.1/901 2013/11/27
 46 52  0  0  0  0  0  0  0  0999 V2000
  158.5509   42.0799  147.5172 P   0  0  1  0  0  0  0  0  0  0  0  0
  160.1524   46.0857  143.7997 P   0  0  1  0  0  0  0  0  0  0  0  0
  157.1481   41.5587  147.3396 O   0  5  0  0  0  0  0  0  0  0  0  0
  159.4283   41.3474  148.5087 O   0  0  0  0  0  0  0  0  0  0  0  0
  160.6004   41.7758  145.8720 C   0  0  0  0  0  0  0  0  0  0  0  0
  159.2462   42.1609  146.0698 O   0  0  0  0  0  0  0  0  0  0  0  0
  161.1050   42.3134  144.5431 C   0  0  1  0  0  0  0  0  0  0  0  0
  161.1245   41.2396  143.6134 O   0  0  0  0  0  0  0  0  0  0  0  0
  160.2570   43.4094  143.9102 C   0  0  1  0  0  0  0  0  0  0  0  0
  160.8871   44.6684  144.0957 O   0  0  0  0  0  0  0  0  0  0  0  0
  160.2958   43.0775  142.4354 C   0  0  1  0  0  0  0  0  0  0  0  0
  161.4067   43.7368  141.8243 O   0  0  0  0  0  0  0  0  0  0  0  0
  160.5687   41.6034  142.3590 C   0  0  2  0  0  0  0  0  0  0  0  0
  155.8015   45.9851  147.0326 C   0  0  1  0  0  0  0  0  0  0  0  0
  156.3374   40.8994  139.3347 N   0  0  0  0  0  0  0  0  0  0  0  0
  157.3867   41.7286  139.1783 C   0  0  1  0  0  0  0  0  0  0  0  0
  156.2467   44.5864  147.4054 C   0  0  2  0  0  0  0  0  0  0  0  0
  157.4290   42.5375  138.0962 N   0  0  0  0  0  0  0  0  0  0  0  0
  156.0567   44.4372  148.8152 O   0  0  0  0  0  0  0  0  0  0  0  0
  157.7205   44.5249  147.0500 C   0  0  2  0  0  0  0  0  0  0  0  0
  158.4152   41.8051  140.0530 N   0  0  0  0  0  0  0  0  0  0  0  0
  158.4315   43.6382  147.9129 O   0  0  0  0  0  0  0  0  0  0  0  0
  158.4441   41.0322  141.1597 C   0  0  2  0  0  0  0  0  0  0  0  0
  158.1577   45.9775  147.2249 C   0  0  2  0  0  0  0  0  0  0  0  0
  156.9876   46.7833  147.0686 O   0  0  0  0  0  0  0  0  0  0  0  0
  157.3320   40.1059  141.3949 C   0  0  2  0  0  0  0  0  0  0  0  0
  159.2350   46.4535  146.2453 C   0  0  0  0  0  0  0  0  0  0  0  0
  158.9621   46.0932  144.8918 O   0  0  0  0  0  0  0  0  0  0  0  0
  156.2404   40.0768  140.3932 C   0  0  0  0  0  0  0  0  0  0  0  0
  155.2655   39.3015  140.5424 O   0  0  0  0  0  0  0  0  0  0  0  0
  157.6091   39.4756  142.5503 N   0  0  0  0  0  0  0  0  0  0  0  0
  158.7902   39.9499  143.0142 C   0  0  0  0  0  0  0  0  0  0  0  0
  159.2877   40.8797  142.1803 N   0  0  1  0  0  0  0  0  0  0  0  0
  151.8477   44.6562  143.8328 N   0  0  0  0  0  0  0  0  0  0  0  0
  161.1618   47.1630  144.1497 O   0  5  0  0  0  0  0  0  0  0  0  0
  151.9749   44.4902  145.1584 C   0  0  2  0  0  0  0  0  0  0  0  0
  150.9600   43.9000  145.8072 N   0  0  0  0  0  0  0  0  0  0  0  0
  159.5124   46.0364  142.4336 O   0  0  0  0  0  0  0  0  0  0  0  0
  153.0607   44.8873  145.8623 N   0  0  0  0  0  0  0  0  0  0  0  0
  154.0988   45.4892  145.2446 C   0  0  1  0  0  0  0  0  0  0  0  0
  154.0204   45.7002  143.7852 C   0  0  1  0  0  0  0  0  0  0  0  0
  152.7893   45.2428  143.0919 C   0  0  0  0  0  0  0  0  0  0  0  0
  152.6288   45.3704  141.8590 O   0  0  0  0  0  0  0  0  0  0  0  0
  155.1609   46.3127  143.4294 N   0  0  0  0  0  0  0  0  0  0  0  0
  155.9013   46.4711  144.5616 C   0  0  0  0  0  0  0  0  0  0  0  0
  155.2692   45.9834  145.6474 N   0  0  2  0  0  0  0  0  0  0  0  0
  1  3  1  6  0  0  0
  1  4  2  0  0  0  0
  1  6  1  0  0  0  0
  1 22  1  0  0  0  0
  2 28  1  0  0  0  0
  2 35  1  1  0  0  0
  2 38  2  0  0  0  0
  2 10  1  0  0  0  0
  5  6  1  0  0  0  0
  7  5  1  1  0  0  0
  7  8  1  0  0  0  0
  7  9  1  0  0  0  0
  9 10  1  6  0  0  0
  9 11  1  0  0  0  0
 11 12  1  6  0  0  0
 11 13  1  0  0  0  0
 13  8  1  1  0  0  0
 13 33  1  0  0  0  0
 14 46  1  0  0  0  0
 14 17  1  0  0  0  0
 14 25  1  6  0  0  0
 15 16  1  0  0  0  0
 15 29  1  0  0  0  0
 16 18  1  1  0  0  0
 16 21  1  0  0  0  0
 17 19  1  1  0  0  0
 17 20  1  0  0  0  0
 20 22  1  1  0  0  0
 20 24  1  0  0  0  0
 23 21  1  1  0  0  0
 23 26  1  0  0  0  0
 23 33  1  0  0  0  0
 24 25  1  6  0  0  0
 24 27  1  0  0  0  0
 26 29  1  1  0  0  0
 26 31  1  0  0  0  0
 27 28  1  0  0  0  0
 29 30  2  0  0  0  0
 31 32  1  0  0  0  0
 33 32  1  6  0  0  0
 34 36  1  0  0  0  0
 34 42  1  0  0  0  0
 36 37  1  1  0  0  0
 36 39  1  0  0  0  0
 40 39  1  1  0  0  0
 40 41  1  0  0  0  0
 40 46  1  0  0  0  0
 41 42  1  1  0  0  0
 41 44  1  0  0  0  0
 42 43  2  0  0  0  0
 44 45  1  0  0  0  0
 46 45  1  6  0  0  0
M  CHG  2   3  -1  35  -1
M  END
>  <CHROM.1>
175.63218837,73.89375125,157.55210187,43.59325844,144.23413201,-2.17619761
0.20536814,-2.10739675

>  <Name>
ligand

>  <RI>
0

>  <Rbt.Current_Directory>
/home/itssahil/PROJECTS/Mol_Feturizer/Test_systems_manuscript/rnas/4yb0

>  <Rbt.Executable>
rbdock ($Id: //depot/dev/client3/rdock/2013.1/src/exe/rbdock.cxx#4 $)

>  <Rbt.Library>
libRbt.so (2013.1, Build901 2013/11/27)

>  <Rbt.Parameter_File>
/export/apps/rDock/src/rDock_2013.1_src/data/scripts/dock_solv.prm

>  <Rbt.Receptor>
prm/pocket_docking_7.prm

>  <SCORE>
-43.4976

>  <SCORE.INTER>
-43.4314

>  <SCORE.INTER.CONST>
1

>  <SCORE.INTER.POLAR>
0

>  <SCORE.INTER.ROT>
2

>  <SCORE.INTER.SOLV>
39.1161

>  <SCORE.INTER.VDW>
-46.9263

>  <SCORE.INTER.norm>
-0.944161

>  <SCORE.INTRA>
-0.0661809

>  <SCORE.INTRA.DIHEDRAL>
-0.0480581

>  <SCORE.INTRA.DIHEDRAL.0>
2.42188

>  <SCORE.INTRA.POLAR>
0

>  <SCORE.INTRA.POLAR.0>
0

>  <SCORE.INTRA.REPUL>
0

>  <SCORE.INTRA.REPUL.0>
0

>  <SCORE.INTRA.SOLV>
-0.00270867

>  <SCORE.INTRA.SOLV.lig_0>
-127.307

>  <SCORE.INTRA.VDW>
-0.0407975

>  <SCORE.INTRA.VDW.0>
-2.19936

>  <SCORE.INTRA.norm>
-0.00143872

>  <SCORE.RESTR>
0

>  <SCORE.RESTR.CAVITY>
0

>  <SCORE.RESTR.norm>
0

>  <SCORE.SYSTEM>
0

>  <SCORE.SYSTEM.CONST>
0

>  <SCORE.SYSTEM.DIHEDRAL>
0

>  <SCORE.SYSTEM.SOLV>
0

>  <SCORE.SYSTEM.norm>
0

>  <SCORE.heavy>
46

>  <SCORE.norm>
-0.945599

>  <RMSD>
0.895

$$$$
ligand
 OpenBabel02271912143D
libRbt.so/2013.1/901 2013/11/27
 46 52  0  0  0  0  0  0  0  0999 V2000
  158.4933   42.0580  147.5483 P   0  0  1  0  0  0  0  0  0  0  0  0
  160.1610   46.0762  143.8736 P   0  0  1  0  0  0  0  0  0  0  0  0
  157.0803   41.5659  147.3688 O   0  5  0  0  0  0  0  0  0  0  0  0
  159.3593   41.2970  148.5285 O   0  0  0  0  0  0  0  0  0  0  0  0
  160.5319   41.7342  145.8934 C   0  0  0  0  0  0  0  0  0  0  0  0
  159.1860   42.1428  146.0999 O   0  0  0  0  0  0  0  0  0  0  0  0
  161.0431   42.2778  144.5694 C   0  0  1  0  0  0  0  0  0  0  0  0
  161.0392   41.2149  143.6271 O   0  0  0  0  0  0  0  0  0  0  0  0
  160.2144   43.3973  143.9522 C   0  0  1  0  0  0  0  0  0  0  0  0
  160.8691   44.6417  144.1506 O   0  0  0  0  0  0  0  0  0  0  0  0
  160.2427   43.0822  142.4734 C   0  0  1  0  0  0  0  0  0  0  0  0
  161.3643   43.7273  141.8668 O   0  0  0  0  0  0  0  0  0  0  0  0
  160.4871   41.6041  142.3788 C   0  0  2  0  0  0  0  0  0  0  0  0
  155.8181   46.0206  147.1183 C   0  0  1  0  0  0  0  0  0  0  0  0
  156.2688   40.9633  139.3223 N   0  0  0  0  0  0  0  0  0  0  0  0
  157.3377   41.7673  139.1674 C   0  0  1  0  0  0  0  0  0  0  0  0
  156.2374   44.6093  147.4732 C   0  0  2  0  0  0  0  0  0  0  0  0
  157.4080   42.5639  138.0775 N   0  0  0  0  0  0  0  0  0  0  0  0
  156.0485   44.4471  148.8817 O   0  0  0  0  0  0  0  0  0  0  0  0
  157.7087   44.5238  147.1126 C   0  0  2  0  0  0  0  0  0  0  0  0
  158.3597   41.8299  140.0508 N   0  0  0  0  0  0  0  0  0  0  0  0
  158.4050   43.6135  147.9628 O   0  0  0  0  0  0  0  0  0  0  0  0
  158.3612   41.0680  141.1655 C   0  0  2  0  0  0  0  0  0  0  0  0
  158.1742   45.9656  147.3033 C   0  0  2  0  0  0  0  0  0  0  0  0
  157.0194   46.7955  147.1602 O   0  0  0  0  0  0  0  0  0  0  0  0
  157.2267   40.1692  141.3997 C   0  0  2  0  0  0  0  0  0  0  0  0
  159.2577   46.4325  146.3262 C   0  0  0  0  0  0  0  0  0  0  0  0
  158.9742   46.0935  144.9693 O   0  0  0  0  0  0  0  0  0  0  0  0
  156.1438   40.1541  140.3882 C   0  0  0  0  0  0  0  0  0  0  0  0
  155.1505   39.4022  140.5361 O   0  0  0  0  0  0  0  0  0  0  0  0
  157.4790   39.5448  142.5639 N   0  0  0  0  0  0  0  0  0  0  0  0
  158.6662   39.9975  143.0340 C   0  0  0  0  0  0  0  0  0  0  0  0
  159.1918   40.9074  142.1954 N   0  0  1  0  0  0  0  0  0  0  0  0
  152.0016   44.4895  143.8431 N   0  0  0  0  0  0  0  0  0  0  0  0
  161.1918   47.1297  144.2332 O   0  5  0  0  0  0  0  0  0  0  0  0
  152.1512   44.2608  145.1569 C   0  0  2  0  0  0  0  0  0  0  0  0
  151.2035   43.5356  145.7695 N   0  0  0  0  0  0  0  0  0  0  0  0
  159.5163   46.0554  142.5090 O   0  0  0  0  0  0  0  0  0  0  0  0
  153.1952   44.7234  145.8837 N   0  0  0  0  0  0  0  0  0  0  0  0
  154.1649   45.4608  145.3029 C   0  0  1  0  0  0  0  0  0  0  0  0
  154.0588   45.7468  143.8581 C   0  0  1  0  0  0  0  0  0  0  0  0
  152.8762   45.2092  143.1383 C   0  0  0  0  0  0  0  0  0  0  0  0
  152.6979   45.3910  141.9147 O   0  0  0  0  0  0  0  0  0  0  0  0
  155.1305   46.4899  143.5395 N   0  0  0  0  0  0  0  0  0  0  0  0
  155.8569   46.6560  144.6797 C   0  0  0  0  0  0  0  0  0  0  0  0
  155.2819   46.0456  145.7348 N   0  0  2  0  0  0  0  0  0  0  0  0
  1  3  1  6  0  0  0
  1  4  2  0  0  0  0
  1  6  1  0  0  0  0
  1 22  1  0  0  0  0
  2 28  1  0  0  0  0
  2 35  1  1  0  0  0
  2 38  2  0  0  0  0
  2 10  1  0  0  0  0
  5  6  1  0  0  0  0
  7  5  1  1  0  0  0
  7  8  1  0  0  0  0
  7  9  1  0  0  0  0
  9 10  1  6  0  0  0
  9 11  1  0  0  0  0
 11 12  1  6  0  0  0
 11 13  1  0  0  0  0
 13  8  1  1  0  0  0
 13 33  1  0  0  0  0
 14 46  1  0  0  0  0
 14 17  1  0  0  0  0
 14 25  1  6  0  0  0
 15 16  1  0  0  0  0
 15 29  1  0  0  0  0
 16 18  1  1  0  0  0
 16 21  1  0  0  0  0
 17 19  1  1  0  0  0
 17 20  1  0  0  0  0
 20 22  1  1  0  0  0
 20 24  1  0  0  0  0
 23 21  1  1  0  0  0
 23 26  1  0  0  0  0
 23 33  1  0  0  0  0
 24 25  1  6  0  0  0
 24 27  1  0  0  0  0
 26 29  1  1  0  0  0
 26 31  1  0  0  0  0
 27 28  1  0  0  0  0
 29 30  2  0  0  0  0
 31 32  1  0  0  0  0
 33 32  1  6  0  0  0
 34 36  1  0  0  0  0
 34 42  1  0  0  0  0
 36 37  1  1  0  0  0
 36 39  1  0  0  0  0
 40 39  1  1  0  0  0
 40 41  1  0  0  0  0
 40 46  1  0  0  0  0
 41 42  1  1  0  0  0
 41 44  1  0  0  0  0
 42 43  2  0  0  0  0
 44 45  1  0  0  0  0
 46 45  1  6  0  0  0
M  CHG  2   3  -1  35  -1
M  END
>  <CHROM.1>
177.08622194,66.55597305,157.53699096,43.58873659,144.27457331,-2.02642754
0.19206790,-2.10362548

>  <Name>
ligand

>  <RI>
0

>  <Rbt.Current_Directory>
/home/itssahil/PROJECTS/Mol_Feturizer/Test_systems_manuscript/rnas/4yb0

>  <Rbt.Executable>
rbdock ($Id: //depot/dev/client3/rdock/2013.1/src/exe/rbdock.cxx#4 $)

>  <Rbt.Library>
libRbt.so (2013.1, Build901 2013/11/27)

>  <Rbt.Parameter_File>
/export/apps/rDock/src/rDock_2013.1_src/data/scripts/dock_solv.prm

>  <Rbt.Receptor>
prm/pocket_docking_4.prm

>  <SCORE>
-43.471

>  <SCORE.INTER>
-43.4733

>  <SCORE.INTER.CONST>
1

>  <SCORE.INTER.POLAR>
0

>  <SCORE.INTER.ROT>
2

>  <SCORE.INTER.SOLV>
37.9288

>  <SCORE.INTER.VDW>
-46.5585

>  <SCORE.INTER.norm>
-0.945072

>  <SCORE.INTRA>
0.00229133

>  <SCORE.INTRA.DIHEDRAL>
-0.0366369

>  <SCORE.INTRA.DIHEDRAL.0>
2.42188

>  <SCORE.INTRA.POLAR>
0

>  <SCORE.INTRA.POLAR.0>
0

>  <SCORE.INTRA.REPUL>
0

>  <SCORE.INTRA.REPUL.0>
0

>  <SCORE.INTRA.SOLV>
-3.99628e-05

>  <SCORE.INTRA.SOLV.lig_0>
-127.307

>  <SCORE.INTRA.VDW>
0.0206298

>  <SCORE.INTRA.VDW.0>
-2.19936

>  <SCORE.INTRA.norm>
4.98116e-05

>  <SCORE.RESTR>
0

>  <SCORE.RESTR.CAVITY>
0

>  <SCORE.RESTR.norm>
0

>  <SCORE.SYSTEM>
0

>  <SCORE.SYSTEM.CONST>
0

>  <SCORE.SYSTEM.DIHEDRAL>
0

>  <SCORE.SYSTEM.SOLV>
0

>  <SCORE.SYSTEM.norm>
0

>  <SCORE.heavy>
46

>  <SCORE.norm>
-0.945022

>  <RMSD>
0.914

$$$$
ligand
 OpenBabel02271912143D
libRbt.so/2013.1/901 2013/11/27
 46 52  0  0  0  0  0  0  0  0999 V2000
  158.5627   42.0572  147.5503 P   0  0  1  0  0  0  0  0  0  0  0  0
  160.1907   46.0627  143.8441 P   0  0  1  0  0  0  0  0  0  0  0  0
  157.1530   41.5531  147.3776 O   0  5  0  0  0  0  0  0  0  0  0  0
  159.4368   41.3096  148.5334 O   0  0  0  0  0  0  0  0  0  0  0  0
  160.5997   41.7376  145.8926 C   0  0  0  0  0  0  0  0  0  0  0  0
  159.2512   42.1374  146.0995 O   0  0  0  0  0  0  0  0  0  0  0  0
  161.1034   42.2760  144.5636 C   0  0  1  0  0  0  0  0  0  0  0  0
  161.1054   41.2067  143.6285 O   0  0  0  0  0  0  0  0  0  0  0  0
  160.2648   43.3849  143.9408 C   0  0  1  0  0  0  0  0  0  0  0  0
  160.9105   44.6356  144.1291 O   0  0  0  0  0  0  0  0  0  0  0  0
  160.2919   43.0600  142.4641 C   0  0  1  0  0  0  0  0  0  0  0  0
  161.4071   43.7094  141.8503 O   0  0  0  0  0  0  0  0  0  0  0  0
  160.5473   41.5832  142.3790 C   0  0  2  0  0  0  0  0  0  0  0  0
  155.8563   45.9963  147.0998 C   0  0  1  0  0  0  0  0  0  0  0  0
  156.3453   40.8601  139.3185 N   0  0  0  0  0  0  0  0  0  0  0  0
  157.4100   41.6675  139.1528 C   0  0  1  0  0  0  0  0  0  0  0  0
  156.2872   44.5907  147.4633 C   0  0  2  0  0  0  0  0  0  0  0  0
  157.4799   42.4440  138.0485 N   0  0  0  0  0  0  0  0  0  0  0  0
  156.1029   44.4366  148.8733 O   0  0  0  0  0  0  0  0  0  0  0  0
  157.7582   44.5139  147.0997 C   0  0  2  0  0  0  0  0  0  0  0  0
  158.4280   41.7527  140.0389 N   0  0  0  0  0  0  0  0  0  0  0  0
  158.4635   43.6148  147.9543 O   0  0  0  0  0  0  0  0  0  0  0  0
  158.4295   41.0117  141.1676 C   0  0  2  0  0  0  0  0  0  0  0  0
  158.2132   45.9605  147.2793 C   0  0  2  0  0  0  0  0  0  0  0  0
  157.0517   46.7806  147.1334 O   0  0  0  0  0  0  0  0  0  0  0  0
  157.2994   40.1107  141.4141 C   0  0  2  0  0  0  0  0  0  0  0  0
  159.2907   46.4289  146.2964 C   0  0  0  0  0  0  0  0  0  0  0  0
  159.0064   46.0785  144.9426 O   0  0  0  0  0  0  0  0  0  0  0  0
  156.2208   40.0701  140.3987 C   0  0  0  0  0  0  0  0  0  0  0  0
  155.2314   39.3152  140.5568 O   0  0  0  0  0  0  0  0  0  0  0  0
  157.5508   39.5096  142.5907 N   0  0  0  0  0  0  0  0  0  0  0  0
  158.7333   39.9781  143.0569 C   0  0  0  0  0  0  0  0  0  0  0  0
  159.2570   40.8754  142.2036 N   0  0  1  0  0  0  0  0  0  0  0  0
  151.9719   44.5333  143.8735 N   0  0  0  0  0  0  0  0  0  0  0  0
  161.2144   47.1265  144.1939 O   0  5  0  0  0  0  0  0  0  0  0  0
  152.1172   44.3316  145.1923 C   0  0  2  0  0  0  0  0  0  0  0  0
  151.1444   43.6590  145.8251 N   0  0  0  0  0  0  0  0  0  0  0  0
  159.5429   46.0277  142.4812 O   0  0  0  0  0  0  0  0  0  0  0  0
  153.1809   44.7713  145.9047 N   0  0  0  0  0  0  0  0  0  0  0  0
  154.1762   45.4560  145.3032 C   0  0  1  0  0  0  0  0  0  0  0  0
  154.0762   45.7101  143.8520 C   0  0  1  0  0  0  0  0  0  0  0  0
  152.8712   45.2010  143.1488 C   0  0  0  0  0  0  0  0  0  0  0  0
  152.6957   45.3592  141.9215 O   0  0  0  0  0  0  0  0  0  0  0  0
  155.1746   46.4031  143.5122 N   0  0  0  0  0  0  0  0  0  0  0  0
  155.9109   46.5692  144.6461 C   0  0  0  0  0  0  0  0  0  0  0  0
  155.3165   46.0077  145.7175 N   0  0  2  0  0  0  0  0  0  0  0  0
  1  3  1  6  0  0  0
  1  4  2  0  0  0  0
  1  6  1  0  0  0  0
  1 22  1  0  0  0  0
  2 28  1  0  0  0  0
  2 35  1  1  0  0  0
  2 38  2  0  0  0  0
  2 10  1  0  0  0  0
  5  6  1  0  0  0  0
  7  5  1  1  0  0  0
  7  8  1  0  0  0  0
  7  9  1  0  0  0  0
  9 10  1  6  0  0  0
  9 11  1  0  0  0  0
 11 12  1  6  0  0  0
 11 13  1  0  0  0  0
 13  8  1  1  0  0  0
 13 33  1  0  0  0  0
 14 46  1  0  0  0  0
 14 17  1  0  0  0  0
 14 25  1  6  0  0  0
 15 16  1  0  0  0  0
 15 29  1  0  0  0  0
 16 18  1  1  0  0  0
 16 21  1  0  0  0  0
 17 19  1  1  0  0  0
 17 20  1  0  0  0  0
 20 22  1  1  0  0  0
 20 24  1  0  0  0  0
 23 21  1  1  0  0  0
 23 26  1  0  0  0  0
 23 33  1  0  0  0  0
 24 25  1  6  0  0  0
 24 27  1  0  0  0  0
 26 29  1  1  0  0  0
 26 31  1  0  0  0  0
 27 28  1  0  0  0  0
 29 30  2  0  0  0  0
 31 32  1  0  0  0  0
 33 32  1  6  0  0  0
 34 36  1  0  0  0  0
 34 42  1  0  0  0  0
 36 37  1  1  0  0  0
 36 39  1  0  0  0  0
 40 39  1  1  0  0  0
 40 41  1  0  0  0  0
 40 46  1  0  0  0  0
 41 42  1  1  0  0  0
 41 44  1  0  0  0  0
 42 43  2  0  0  0  0
 44 45  1  0  0  0  0
 46 45  1  6  0  0  0
M  CHG  2   3  -1  35  -1
M  END
>  <CHROM.1>
177.86319038,69.40199438,157.58093655,43.56802189,144.26961306,-2.06998514
0.19324852,-2.10962402

>  <Name>
ligand

>  <RI>
0

>  <Rbt.Current_Directory>
/home/itssahil/PROJECTS/Mol_Feturizer/Test_systems_manuscript/rnas/4yb0

>  <Rbt.Executable>
rbdock ($Id: //depot/dev/client3/rdock/2013.1/src/exe/rbdock.cxx#4 $)

>  <Rbt.Library>
libRbt.so (2013.1, Build901 2013/11/27)

>  <Rbt.Parameter_File>
/export/apps/rDock/src/rDock_2013.1_src/data/scripts/dock_solv.prm

>  <Rbt.Receptor>
prm/pocket_docking_4.prm

>  <SCORE>
-43.5535

>  <SCORE.INTER>
-43.527

>  <SCORE.INTER.CONST>
1

>  <SCORE.INTER.POLAR>
0

>  <SCORE.INTER.ROT>
2

>  <SCORE.INTER.SOLV>
38.3526

>  <SCORE.INTER.VDW>
-46.7356

>  <SCORE.INTER.norm>
-0.94624

>  <SCORE.INTRA>
-0.0265154

>  <SCORE.INTRA.DIHEDRAL>
-0.0397578

>  <SCORE.INTRA.DIHEDRAL.0>
2.42188

>  <SCORE.INTRA.POLAR>
0

>  <SCORE.INTRA.POLAR.0>
0

>  <SCORE.INTRA.REPUL>
0

>  <SCORE.INTRA.REPUL.0>
0

>  <SCORE.INTRA.SOLV>
-0.00180003

>  <SCORE.INTRA.SOLV.lig_0>
-127.307

>  <SCORE.INTRA.VDW>
-0.00573653

>  <SCORE.INTRA.VDW.0>
-2.19936

>  <SCORE.INTRA.norm>
-0.000576422

>  <SCORE.RESTR>
0

>  <SCORE.RESTR.CAVITY>
0

>  <SCORE.RESTR.norm>
0

>  <SCORE.SYSTEM>
0

>  <SCORE.SYSTEM.CONST>
0

>  <SCORE.SYSTEM.DIHEDRAL>
0

>  <SCORE.SYSTEM.SOLV>
0

>  <SCORE.SYSTEM.norm>
0

>  <SCORE.heavy>
46

>  <SCORE.norm>
-0.946816

>  <RMSD>
0.914

$$$$
ligand
 OpenBabel02271912143D
libRbt.so/2013.1/901 2013/11/27
 46 52  0  0  0  0  0  0  0  0999 V2000
  158.5808   42.0554  147.5582 P   0  0  1  0  0  0  0  0  0  0  0  0
  160.1485   46.0957  143.8638 P   0  0  1  0  0  0  0  0  0  0  0  0
  157.1761   41.5364  147.3890 O   0  5  0  0  0  0  0  0  0  0  0  0
  159.4673   41.3132  148.5344 O   0  0  0  0  0  0  0  0  0  0  0  0
  160.6143   41.7662  145.8908 C   0  0  0  0  0  0  0  0  0  0  0  0
  159.2623   42.1499  146.1051 O   0  0  0  0  0  0  0  0  0  0  0  0
  161.1065   42.3162  144.5623 C   0  0  1  0  0  0  0  0  0  0  0  0
  161.1167   41.2512  143.6223 O   0  0  0  0  0  0  0  0  0  0  0  0
  160.2530   43.4184  143.9480 C   0  0  1  0  0  0  0  0  0  0  0  0
  160.8854   44.6754  144.1393 O   0  0  0  0  0  0  0  0  0  0  0  0
  160.2776   43.1006  142.4697 C   0  0  1  0  0  0  0  0  0  0  0  0
  161.3829   43.7652  141.8544 O   0  0  0  0  0  0  0  0  0  0  0  0
  160.5492   41.6271  142.3768 C   0  0  2  0  0  0  0  0  0  0  0  0
  155.8286   45.9660  147.1369 C   0  0  1  0  0  0  0  0  0  0  0  0
  156.4168   40.7562  139.2605 N   0  0  0  0  0  0  0  0  0  0  0  0
  157.4811   41.5619  139.0843 C   0  0  1  0  0  0  0  0  0  0  0  0
  156.2767   44.5636  147.4922 C   0  0  2  0  0  0  0  0  0  0  0  0
  157.5710   42.2928  137.9507 N   0  0  0  0  0  0  0  0  0  0  0  0
  156.1000   44.4011  148.9022 O   0  0  0  0  0  0  0  0  0  0  0  0
  157.7470   44.5050  147.1222 C   0  0  2  0  0  0  0  0  0  0  0  0
  158.4796   41.6889  139.9875 N   0  0  0  0  0  0  0  0  0  0  0  0
  158.4658   43.6099  147.9698 O   0  0  0  0  0  0  0  0  0  0  0  0
  158.4604   40.9949  141.1455 C   0  0  2  0  0  0  0  0  0  0  0  0
  158.1865   45.9558  147.3066 C   0  0  2  0  0  0  0  0  0  0  0  0
  157.0153   46.7634  147.1692 O   0  0  0  0  0  0  0  0  0  0  0  0
  157.3294   40.0986  141.4048 C   0  0  2  0  0  0  0  0  0  0  0  0
  159.2546   46.4407  146.3214 C   0  0  0  0  0  0  0  0  0  0  0  0
  158.9687   46.0932  144.9672 O   0  0  0  0  0  0  0  0  0  0  0  0
  156.2729   40.0106  140.3695 C   0  0  0  0  0  0  0  0  0  0  0  0
  155.2838   39.2573  140.5375 O   0  0  0  0  0  0  0  0  0  0  0  0
  157.5584   39.5477  142.6102 N   0  0  0  0  0  0  0  0  0  0  0  0
  158.7285   40.0413  143.0817 C   0  0  0  0  0  0  0  0  0  0  0  0
  159.2661   40.9057  142.2034 N   0  0  1  0  0  0  0  0  0  0  0  0
  151.9839   44.4134  143.9049 N   0  0  0  0  0  0  0  0  0  0  0  0
  161.1617   47.1693  144.2143 O   0  5  0  0  0  0  0  0  0  0  0  0
  152.1416   44.1988  145.2202 C   0  0  2  0  0  0  0  0  0  0  0  0
  151.1953   43.4842  145.8472 N   0  0  0  0  0  0  0  0  0  0  0  0
  159.4956   46.0596  142.5035 O   0  0  0  0  0  0  0  0  0  0  0  0
  153.1924   44.6654  145.9347 N   0  0  0  0  0  0  0  0  0  0  0  0
  154.1609   45.3924  145.3391 C   0  0  1  0  0  0  0  0  0  0  0  0
  154.0461   45.6627  143.8920 C   0  0  1  0  0  0  0  0  0  0  0  0
  152.8565   45.1218  143.1862 C   0  0  0  0  0  0  0  0  0  0  0  0
  152.6705   45.2906  141.9619 O   0  0  0  0  0  0  0  0  0  0  0  0
  155.1185   46.3980  143.5578 N   0  0  0  0  0  0  0  0  0  0  0  0
  155.8532   46.5739  144.6911 C   0  0  0  0  0  0  0  0  0  0  0  0
  155.2831   45.9776  145.7569 N   0  0  2  0  0  0  0  0  0  0  0  0
  1  3  1  6  0  0  0
  1  4  2  0  0  0  0
  1  6  1  0  0  0  0
  1 22  1  0  0  0  0
  2 28  1  0  0  0  0
  2 35  1  1  0  0  0
  2 38  2  0  0  0  0
  2 10  1  0  0  0  0
  5  6  1  0  0  0  0
  7  5  1  1  0  0  0
  7  8  1  0  0  0  0
  7  9  1  0  0  0  0
  9 10  1  6  0  0  0
  9 11  1  0  0  0  0
 11 12  1  6  0  0  0
 11 13  1  0  0  0  0
 13  8  1  1  0  0  0
 13 33  1  0  0  0  0
 14 46  1  0  0  0  0
 14 17  1  0  0  0  0
 14 25  1  6  0  0  0
 15 16  1  0  0  0  0
 15 29  1  0  0  0  0
 16 18  1  1  0  0  0
 16 21  1  0  0  0  0
 17 19  1  1  0  0  0
 17 20  1  0  0  0  0
 20 22  1  1  0  0  0
 20 24  1  0  0  0  0
 23 21  1  1  0  0  0
 23 26  1  0  0  0  0
 23 33  1  0  0  0  0
 24 25  1  6  0  0  0
 24 27  1  0  0  0  0
 26 29  1  1  0  0  0
 26 31  1  0  0  0  0
 27 28  1  0  0  0  0
 29 30  2  0  0  0  0
 31 32  1  0  0  0  0
 33 32  1  6  0  0  0
 34 36  1  0  0  0  0
 34 42  1  0  0  0  0
 36 37  1  1  0  0  0
 36 39  1  0  0  0  0
 40 39  1  1  0  0  0
 40 41  1  0  0  0  0
 40 46  1  0  0  0  0
 41 42  1  1  0  0  0
 41 44  1  0  0  0  0
 42 43  2  0  0  0  0
 44 45  1  0  0  0  0
 46 45  1  6  0  0  0
M  CHG  2   3  -1  35  -1
M  END
>  <CHROM.1>
-179.12419883,67.95612240,157.58066504,43.55088159,144.27940014,-2.02353660
0.17290304,-2.11000824

>  <Name>
ligand

>  <RI>
0

>  <Rbt.Current_Directory>
/home/itssahil/PROJECTS/Mol_Feturizer/Test_systems_manuscript/rnas/4yb0

>  <Rbt.Executable>
rbdock ($Id: //depot/dev/client3/rdock/2013.1/src/exe/rbdock.cxx#4 $)

>  <Rbt.Library>
libRbt.so (2013.1, Build901 2013/11/27)

>  <Rbt.Parameter_File>
/export/apps/rDock/src/rDock_2013.1_src/data/scripts/dock_solv.prm

>  <Rbt.Receptor>
prm/pocket_docking_4.prm

>  <SCORE>
-43.3981

>  <SCORE.INTER>
-43.3374

>  <SCORE.INTER.CONST>
1

>  <SCORE.INTER.POLAR>
0

>  <SCORE.INTER.ROT>
2

>  <SCORE.INTER.SOLV>
38.3902

>  <SCORE.INTER.VDW>
-46.6217

>  <SCORE.INTER.norm>
-0.942117

>  <SCORE.INTRA>
-0.0606561

>  <SCORE.INTRA.DIHEDRAL>
-0.034137

>  <SCORE.INTRA.DIHEDRAL.0>
2.42188

>  <SCORE.INTRA.POLAR>
0

>  <SCORE.INTRA.POLAR.0>
0

>  <SCORE.INTRA.REPUL>
0

>  <SCORE.INTRA.REPUL.0>
0

>  <SCORE.INTRA.SOLV>
-0.00266977

>  <SCORE.INTRA.SOLV.lig_0>
-127.307

>  <SCORE.INTRA.VDW>
-0.0422527

>  <SCORE.INTRA.VDW.0>
-2.19936

>  <SCORE.INTRA.norm>
-0.00131861

>  <SCORE.RESTR>
0

>  <SCORE.RESTR.CAVITY>
0

>  <SCORE.RESTR.norm>
0

>  <SCORE.SYSTEM>
0

>  <SCORE.SYSTEM.CONST>
0

>  <SCORE.SYSTEM.DIHEDRAL>
0

>  <SCORE.SYSTEM.SOLV>
0

>  <SCORE.SYSTEM.norm>
0

>  <SCORE.heavy>
46

>  <SCORE.norm>
-0.943436

>  <RMSD>
0.914

$$$$
ligand
 OpenBabel02271912143D
libRbt.so/2013.1/901 2013/11/27
 46 52  0  0  0  0  0  0  0  0999 V2000
  158.0385   42.2085  147.5637 P   0  0  1  0  0  0  0  0  0  0  0  0
  159.6483   46.1967  143.8310 P   0  0  1  0  0  0  0  0  0  0  0  0
  156.6828   41.5999  147.3130 O   0  5  0  0  0  0  0  0  0  0  0  0
  158.8893   41.5576  148.6324 O   0  0  0  0  0  0  0  0  0  0  0  0
  160.2061   41.9809  146.0640 C   0  0  0  0  0  0  0  0  0  0  0  0
  158.8220   42.2901  146.1621 O   0  0  0  0  0  0  0  0  0  0  0  0
  160.7655   42.5102  144.7538 C   0  0  1  0  0  0  0  0  0  0  0  0
  160.9081   41.4137  143.8620 O   0  0  0  0  0  0  0  0  0  0  0  0
  159.8994   43.5355  144.0332 C   0  0  1  0  0  0  0  0  0  0  0  0
  160.4423   44.8345  144.2185 O   0  0  0  0  0  0  0  0  0  0  0  0
  160.0545   43.1653  142.5752 C   0  0  1  0  0  0  0  0  0  0  0  0
  161.1634   43.8722  142.0161 O   0  0  0  0  0  0  0  0  0  0  0  0
  160.4163   41.7085  142.5635 C   0  0  2  0  0  0  0  0  0  0  0  0
  155.1067   45.9279  146.7793 C   0  0  1  0  0  0  0  0  0  0  0  0
  156.1754   40.9981  139.5541 N   0  0  0  0  0  0  0  0  0  0  0  0
  157.1495   41.9243  139.4749 C   0  0  1  0  0  0  0  0  0  0  0  0
  155.6062   44.5692  147.2244 C   0  0  2  0  0  0  0  0  0  0  0  0
  157.0969   42.8504  138.4917 N   0  0  0  0  0  0  0  0  0  0  0  0
  155.3324   44.4485  148.6231 O   0  0  0  0  0  0  0  0  0  0  0  0
  157.1013   44.5856  146.9665 C   0  0  2  0  0  0  0  0  0  0  0  0
  158.1918   41.9876  140.3343 N   0  0  0  0  0  0  0  0  0  0  0  0
  157.8037   43.7674  147.9010 O   0  0  0  0  0  0  0  0  0  0  0  0
  158.3131   41.1003  141.3447 C   0  0  2  0  0  0  0  0  0  0  0  0
  157.4416   46.0660  147.1227 C   0  0  2  0  0  0  0  0  0  0  0  0
  156.2399   46.7960  146.8660 O   0  0  0  0  0  0  0  0  0  0  0  0
  157.2865   40.0640  141.4923 C   0  0  2  0  0  0  0  0  0  0  0  0
  158.5519   46.5777  146.1997 C   0  0  0  0  0  0  0  0  0  0  0  0
  158.3902   46.1639  144.8436 O   0  0  0  0  0  0  0  0  0  0  0  0
  156.1740   40.0566  140.5133 C   0  0  0  0  0  0  0  0  0  0  0  0
  155.2694   39.1907  140.5902 O   0  0  0  0  0  0  0  0  0  0  0  0
  157.6448   39.3332  142.5629 N   0  0  0  0  0  0  0  0  0  0  0  0
  158.7958   39.8492  143.0570 C   0  0  0  0  0  0  0  0  0  0  0  0
  159.1936   40.9051  142.3261 N   0  0  1  0  0  0  0  0  0  0  0  0
  151.2765   44.6499  143.4127 N   0  0  0  0  0  0  0  0  0  0  0  0
  160.5687   47.3415  144.2105 O   0  5  0  0  0  0  0  0  0  0  0  0
  151.3028   44.5813  144.7527 C   0  0  2  0  0  0  0  0  0  0  0  0
  150.2031   44.1234  145.3694 N   0  0  0  0  0  0  0  0  0  0  0  0
  159.1038   46.0711  142.4289 O   0  0  0  0  0  0  0  0  0  0  0  0
  152.3687   44.9503  145.5010 N   0  0  0  0  0  0  0  0  0  0  0  0
  153.4903   45.4206  144.9160 C   0  0  1  0  0  0  0  0  0  0  0  0
  153.5251   45.5196  143.4431 C   0  0  1  0  0  0  0  0  0  0  0  0
  152.3090   45.1026  142.6995 C   0  0  0  0  0  0  0  0  0  0  0  0
  152.2406   45.1429  141.4522 O   0  0  0  0  0  0  0  0  0  0  0  0
  154.7322   46.0138  143.1252 N   0  0  0  0  0  0  0  0  0  0  0  0
  155.4072   46.2058  144.2925 C   0  0  0  0  0  0  0  0  0  0  0  0
  154.6679   45.8556  145.3636 N   0  0  2  0  0  0  0  0  0  0  0  0
  1  3  1  6  0  0  0
  1  4  2  0  0  0  0
  1  6  1  0  0  0  0
  1 22  1  0  0  0  0
  2 28  1  0  0  0  0
  2 35  1  1  0  0  0
  2 38  2  0  0  0  0
  2 10  1  0  0  0  0
  5  6  1  0  0  0  0
  7  5  1  1  0  0  0
  7  8  1  0  0  0  0
  7  9  1  0  0  0  0
  9 10  1  6  0  0  0
  9 11  1  0  0  0  0
 11 12  1  1  0  0  0
 11 13  1  0  0  0  0
 13  8  1  1  0  0  0
 13 33  1  0  0  0  0
 14 46  1  0  0  0  0
 14 17  1  0  0  0  0
 14 25  1  6  0  0  0
 15 16  1  0  0  0  0
 15 29  1  0  0  0  0
 16 18  1  1  0  0  0
 16 21  1  0  0  0  0
 17 19  1  1  0  0  0
 17 20  1  0  0  0  0
 20 22  1  1  0  0  0
 20 24  1  0  0  0  0
 23 21  1  1  0  0  0
 23 26  1  0  0  0  0
 23 33  1  0  0  0  0
 24 25  1  6  0  0  0
 24 27  1  0  0  0  0
 26 29  1  1  0  0  0
 26 31  1  0  0  0  0
 27 28  1  0  0  0  0
 29 30  2  0  0  0  0
 31 32  1  0  0  0  0
 33 32  1  6  0  0  0
 34 36  1  0  0  0  0
 34 42  1  0  0  0  0
 36 37  1  1  0  0  0
 36 39  1  0  0  0  0
 40 39  1  1  0  0  0
 40 41  1  0  0  0  0
 40 46  1  0  0  0  0
 41 42  1  1  0  0  0
 41 44  1  0  0  0  0
 42 43  2  0  0  0  0
 44 45  1  0  0  0  0
 46 45  1  6  0  0  0
M  CHG  2   3  -1  35  -1
M  END
>  <CHROM.1>
165.89368425,82.20774404,157.12438879,43.64350693,144.20852363,-0.62843505
-0.23050192,1.03425434

>  <Name>
ligand

>  <RI>
0

>  <Rbt.Current_Directory>
/home/itssahil/PROJECTS/Mol_Feturizer/Test_systems_manuscript/rnas/4yb0

>  <Rbt.Executable>
rbdock ($Id: //depot/dev/client3/rdock/2013.1/src/exe/rbdock.cxx#4 $)

>  <Rbt.Library>
libRbt.so (2013.1, Build901 2013/11/27)

>  <Rbt.Parameter_File>
/export/apps/rDock/src/rDock_2013.1_src/data/scripts/dock_solv.prm

>  <Rbt.Receptor>
prm/pocket_docking_3.prm

>  <SCORE>
-42.9423

>  <SCORE.INTER>
-42.9204

>  <SCORE.INTER.CONST>
1

>  <SCORE.INTER.POLAR>
0

>  <SCORE.INTER.ROT>
2

>  <SCORE.INTER.SOLV>
40.5944

>  <SCORE.INTER.VDW>
-47.0784

>  <SCORE.INTER.norm>
-0.933052

>  <SCORE.INTRA>
-0.0219315

>  <SCORE.INTRA.DIHEDRAL>
-0.0655054

>  <SCORE.INTRA.DIHEDRAL.0>
2.42188

>  <SCORE.INTRA.POLAR>
0

>  <SCORE.INTRA.POLAR.0>
0

>  <SCORE.INTRA.REPUL>
0

>  <SCORE.INTRA.REPUL.0>
0

>  <SCORE.INTRA.SOLV>
0.000154269

>  <SCORE.INTRA.SOLV.lig_0>
-127.307

>  <SCORE.INTRA.VDW>
0.0107441

>  <SCORE.INTRA.VDW.0>
-2.19936

>  <SCORE.INTRA.norm>
-0.000476771

>  <SCORE.RESTR>
0

>  <SCORE.RESTR.CAVITY>
0

>  <SCORE.RESTR.norm>
0

>  <SCORE.SYSTEM>
0

>  <SCORE.SYSTEM.CONST>
0

>  <SCORE.SYSTEM.DIHEDRAL>
0

>  <SCORE.SYSTEM.SOLV>
0

>  <SCORE.SYSTEM.norm>
0

>  <SCORE.heavy>
46

>  <SCORE.norm>
-0.933529

>  <RMSD>
0.917

$$$$
ligand
 OpenBabel02271912143D
libRbt.so/2013.1/901 2013/11/27
 46 52  0  0  0  0  0  0  0  0999 V2000
  159.8035   46.0904  143.6174 P   0  0  1  0  0  0  0  0  0  0  0  0
  159.5360   41.8099  147.3639 P   0  0  1  0  0  0  0  0  0  0  0  0
  158.9918   45.9007  142.3619 O   0  5  0  0  0  0  0  0  0  0  0  0
  160.4174   47.4569  143.8305 O   0  0  0  0  0  0  0  0  0  0  0  0
  158.9012   46.3961  146.0856 C   0  0  0  0  0  0  0  0  0  0  0  0
  158.9000   45.6533  144.8734 O   0  0  0  0  0  0  0  0  0  0  0  0
  158.2917   45.5671  147.2040 C   0  0  1  0  0  0  0  0  0  0  0  0
  156.9711   46.0385  147.4310 O   0  0  0  0  0  0  0  0  0  0  0  0
  158.1692   44.0741  146.9268 C   0  0  1  0  0  0  0  0  0  0  0  0
  159.1846   43.3727  147.6293 O   0  0  0  0  0  0  0  0  0  0  0  0
  156.8360   43.7100  147.5407 C   0  0  1  0  0  0  0  0  0  0  0  0
  157.0242   43.3292  148.9051 O   0  0  0  0  0  0  0  0  0  0  0  0
  156.0341   44.9789  147.5496 C   0  0  2  0  0  0  0  0  0  0  0  0
  160.8339   41.6534  142.1025 C   0  0  1  0  0  0  0  0  0  0  0  0
  154.9994   47.1874  142.9022 N   0  0  0  0  0  0  0  0  0  0  0  0
  155.9706   47.4592  143.7942 C   0  0  1  0  0  0  0  0  0  0  0  0
  160.4742   43.1243  142.0823 C   0  0  2  0  0  0  0  0  0  0  0  0
  156.8580   48.4414  143.5203 N   0  0  0  0  0  0  0  0  0  0  0  0
  161.4484   43.7932  141.2765 O   0  0  0  0  0  0  0  0  0  0  0  0
  160.5633   43.5804  143.5266 C   0  0  2  0  0  0  0  0  0  0  0  0
  156.1130   46.8014  144.9672 N   0  0  0  0  0  0  0  0  0  0  0  0
  160.9452   44.9521  143.6209 O   0  0  0  0  0  0  0  0  0  0  0  0
  155.2645   45.8101  145.3144 C   0  0  2  0  0  0  0  0  0  0  0  0
  161.6249   42.6432  144.0983 C   0  0  2  0  0  0  0  0  0  0  0  0
  161.6285   41.4729  143.2778 O   0  0  0  0  0  0  0  0  0  0  0  0
  154.1807   45.4617  144.3905 C   0  0  2  0  0  0  0  0  0  0  0  0
  161.4125   42.2365  145.5598 C   0  0  0  0  0  0  0  0  0  0  0  0
  160.0738   41.8300  145.8408 O   0  0  0  0  0  0  0  0  0  0  0  0
  154.0874   46.2254  143.1240 C   0  0  0  0  0  0  0  0  0  0  0  0
  153.1815   45.9676  142.2952 O   0  0  0  0  0  0  0  0  0  0  0  0
  153.4957   44.4643  144.9776 N   0  0  0  0  0  0  0  0  0  0  0  0
  154.0848   44.1942  146.1673 C   0  0  0  0  0  0  0  0  0  0  0  0
  155.1427   44.9997  146.3656 N   0  0  1  0  0  0  0  0  0  0  0  0
  156.1874   40.3376  140.0251 N   0  0  0  0  0  0  0  0  0  0  0  0
  160.6837   41.4733  148.2974 O   0  5  0  0  0  0  0  0  0  0  0  0
  157.1286   41.1768  139.5661 C   0  0  2  0  0  0  0  0  0  0  0  0
  156.8889   41.7955  138.4003 N   0  0  0  0  0  0  0  0  0  0  0  0
  158.2594   41.0049  147.3822 O   0  0  0  0  0  0  0  0  0  0  0  0
  158.2927   41.4222  140.2117 N   0  0  0  0  0  0  0  0  0  0  0  0
  158.5708   40.8142  141.3839 C   0  0  1  0  0  0  0  0  0  0  0  0
  157.5742   39.8791  141.9434 C   0  0  1  0  0  0  0  0  0  0  0  0
  156.3281   39.6601  141.1657 C   0  0  0  0  0  0  0  0  0  0  0  0
  155.4215   38.8935  141.5563 O   0  0  0  0  0  0  0  0  0  0  0  0
  158.0924   39.4161  143.0921 N   0  0  0  0  0  0  0  0  0  0  0  0
  159.3080   40.0094  143.2518 C   0  0  0  0  0  0  0  0  0  0  0  0
  159.5981   40.8423  142.2326 N   0  0  2  0  0  0  0  0  0  0  0  0
  1  3  1  6  0  0  0
  1  4  2  0  0  0  0
  1  6  1  0  0  0  0
  1 22  1  0  0  0  0
  2 28  1  0  0  0  0
  2 35  1  1  0  0  0
  2 38  2  0  0  0  0
  2 10  1  0  0  0  0
  5  6  1  0  0  0  0
  7  5  1  6  0  0  0
  7  8  1  0  0  0  0
  7  9  1  0  0  0  0
  9 10  1  1  0  0  0
  9 11  1  0  0  0  0
 11 12  1  1  0  0  0
 11 13  1  0  0  0  0
 13  8  1  6  0  0  0
 13 33  1  0  0  0  0
 14 46  1  0  0  0  0
 14 17  1  0  0  0  0
 14 25  1  1  0  0  0
 15 16  1  0  0  0  0
 15 29  1  0  0  0  0
 16 18  1  1  0  0  0
 16 21  1  0  0  0  0
 17 19  1  6  0  0  0
 17 20  1  0  0  0  0
 20 22  1  6  0  0  0
 20 24  1  0  0  0  0
 23 21  1  1  0  0  0
 23 26  1  0  0  0  0
 23 33  1  0  0  0  0
 24 25  1  6  0  0  0
 24 27  1  0  0  0  0
 26 29  1  1  0  0  0
 26 31  1  0  0  0  0
 27 28  1  0  0  0  0
 29 30  2  0  0  0  0
 31 32  1  0  0  0  0
 33 32  1  6  0  0  0
 34 36  1  0  0  0  0
 34 42  1  0  0  0  0
 36 37  1  6  0  0  0
 36 39  1  0  0  0  0
 40 39  1  6  0  0  0
 40 41  1  0  0  0  0
 40 46  1  0  0  0  0
 41 42  1  6  0  0  0
 41 44  1  0  0  0  0
 42 43  2  0  0  0  0
 44 45  1  0  0  0  0
 46 45  1  1  0  0  0
M  CHG  2   3  -1  35  -1
M  END
>  <CHROM.1>
4.81692084,60.61045886,158.06781387,43.58918012,144.23151017,-2.00688019
0.67743945,-2.15413816

>  <Name>
ligand

>  <RI>
0

>  <Rbt.Current_Directory>
/home/itssahil/PROJECTS/Mol_Feturizer/Test_systems_manuscript/rnas/4yb0

>  <Rbt.Executable>
rbdock ($Id: //depot/dev/client3/rdock/2013.1/src/exe/rbdock.cxx#4 $)

>  <Rbt.Library>
libRbt.so (2013.1, Build901 2013/11/27)

>  <Rbt.Parameter_File>
/export/apps/rDock/src/rDock_2013.1_src/data/scripts/dock_solv.prm

>  <Rbt.Receptor>
prm/pocket_docking_2.prm

>  <SCORE>
-38.9506

>  <SCORE.INTER>
-42.7385

>  <SCORE.INTER.CONST>
1

>  <SCORE.INTER.POLAR>
0

>  <SCORE.INTER.ROT>
2

>  <SCORE.INTER.SOLV>
31.8644

>  <SCORE.INTER.VDW>
-44.0471

>  <SCORE.INTER.norm>
-0.929097

>  <SCORE.INTRA>
1.40829

>  <SCORE.INTRA.DIHEDRAL>
-0.0288913

>  <SCORE.INTRA.DIHEDRAL.0>
2.42188

>  <SCORE.INTRA.POLAR>
0

>  <SCORE.INTRA.POLAR.0>
0

>  <SCORE.INTRA.REPUL>
0

>  <SCORE.INTRA.REPUL.0>
0

>  <SCORE.INTRA.SOLV>
5.40635

>  <SCORE.INTRA.SOLV.lig_0>
-127.307

>  <SCORE.INTRA.VDW>
-1.28044

>  <SCORE.INTRA.VDW.0>
-2.19936

>  <SCORE.INTRA.norm>
0.030615

>  <SCORE.RESTR>
2.37953

>  <SCORE.RESTR.CAVITY>
2.37953

>  <SCORE.RESTR.norm>
0.0517289

>  <SCORE.SYSTEM>
0

>  <SCORE.SYSTEM.CONST>
0

>  <SCORE.SYSTEM.DIHEDRAL>
0

>  <SCORE.SYSTEM.SOLV>
0

>  <SCORE.SYSTEM.norm>
0

>  <SCORE.heavy>
46

>  <SCORE.norm>
-0.846753

>  <RMSD>
2.046

$$$$
ligand
 OpenBabel02271912143D
libRbt.so/2013.1/901 2013/11/27
 46 52  0  0  0  0  0  0  0  0999 V2000
  159.8733   46.1360  143.6171 P   0  0  1  0  0  0  0  0  0  0  0  0
  159.6766   41.8465  147.3577 P   0  0  1  0  0  0  0  0  0  0  0  0
  159.0446   45.9455  142.3729 O   0  5  0  0  0  0  0  0  0  0  0  0
  160.4846   47.5045  143.8244 O   0  0  0  0  0  0  0  0  0  0  0  0
  159.0050   46.4327  146.0985 C   0  0  0  0  0  0  0  0  0  0  0  0
  158.9896   45.6924  144.8849 O   0  0  0  0  0  0  0  0  0  0  0  0
  158.4149   45.5988  147.2237 C   0  0  1  0  0  0  0  0  0  0  0  0
  157.0957   46.0644  147.4705 O   0  0  0  0  0  0  0  0  0  0  0  0
  158.2945   44.1060  146.9450 C   0  0  1  0  0  0  0  0  0  0  0  0
  159.3226   43.4072  147.6315 O   0  0  0  0  0  0  0  0  0  0  0  0
  156.9717   43.7351  147.5771 C   0  0  1  0  0  0  0  0  0  0  0  0
  157.1808   43.3522  148.9378 O   0  0  0  0  0  0  0  0  0  0  0  0
  156.1648   45.0007  147.6000 C   0  0  2  0  0  0  0  0  0  0  0  0
  160.9002   41.7064  142.0781 C   0  0  1  0  0  0  0  0  0  0  0  0
  154.7961   47.4739  143.1778 N   0  0  0  0  0  0  0  0  0  0  0  0
  155.7441   47.7789  144.0840 C   0  0  1  0  0  0  0  0  0  0  0  0
  160.5342   43.1759  142.0662 C   0  0  2  0  0  0  0  0  0  0  0  0
  156.5048   48.8800  143.8936 N   0  0  0  0  0  0  0  0  0  0  0  0
  161.4941   43.8505  141.2481 O   0  0  0  0  0  0  0  0  0  0  0  0
  160.6420   43.6293  143.5101 C   0  0  2  0  0  0  0  0  0  0  0  0
  155.9834   47.0413  145.1919 N   0  0  0  0  0  0  0  0  0  0  0  0
  161.0196   45.0023  143.6019 O   0  0  0  0  0  0  0  0  0  0  0  0
  155.2638   45.9294  145.4543 C   0  0  2  0  0  0  0  0  0  0  0  0
  161.7154   42.6953  144.0646 C   0  0  2  0  0  0  0  0  0  0  0  0
  161.7121   41.5267  143.2416 O   0  0  0  0  0  0  0  0  0  0  0  0
  154.2125   45.5380  144.5101 C   0  0  2  0  0  0  0  0  0  0  0  0
  161.5255   42.2846  145.5281 C   0  0  0  0  0  0  0  0  0  0  0  0
  160.1926   41.8720  145.8272 O   0  0  0  0  0  0  0  0  0  0  0  0
  154.0077   46.3945  143.3183 C   0  0  0  0  0  0  0  0  0  0  0  0
  153.1241   46.1054  142.4759 O   0  0  0  0  0  0  0  0  0  0  0  0
  153.6600   44.4182  145.0097 N   0  0  0  0  0  0  0  0  0  0  0  0
  154.2975   44.1156  146.1661 C   0  0  0  0  0  0  0  0  0  0  0  0
  155.2566   45.0203  146.4289 N   0  0  1  0  0  0  0  0  0  0  0  0
  156.2722   40.3037  140.0162 N   0  0  0  0  0  0  0  0  0  0  0  0
  160.8388   41.5126  148.2740 O   0  5  0  0  0  0  0  0  0  0  0  0
  157.2093   41.1376  139.5395 C   0  0  2  0  0  0  0  0  0  0  0  0
  156.9703   41.7242  138.3572 N   0  0  0  0  0  0  0  0  0  0  0  0
  158.4036   41.0361  147.3924 O   0  0  0  0  0  0  0  0  0  0  0  0
  158.3689   41.4080  140.1833 N   0  0  0  0  0  0  0  0  0  0  0  0
  158.6463   40.8325  141.3721 C   0  0  1  0  0  0  0  0  0  0  0  0
  157.6540   39.9049  141.9514 C   0  0  1  0  0  0  0  0  0  0  0  0
  156.4128   39.6569  141.1745 C   0  0  0  0  0  0  0  0  0  0  0  0
  155.5100   38.8941  141.5810 O   0  0  0  0  0  0  0  0  0  0  0  0
  158.1705   39.4755  143.1138 N   0  0  0  0  0  0  0  0  0  0  0  0
  159.3811   40.0816  143.2632 C   0  0  0  0  0  0  0  0  0  0  0  0
  159.6696   40.8899  142.2240 N   0  0  2  0  0  0  0  0  0  0  0  0
  1  3  1  6  0  0  0
  1  4  2  0  0  0  0
  1  6  1  0  0  0  0
  1 22  1  0  0  0  0
  2 28  1  0  0  0  0
  2 35  1  1  0  0  0
  2 38  2  0  0  0  0
  2 10  1  0  0  0  0
  5  6  1  0  0  0  0
  7  5  1  6  0  0  0
  7  8  1  0  0  0  0
  7  9  1  0  0  0  0
  9 10  1  1  0  0  0
  9 11  1  0  0  0  0
 11 12  1  1  0  0  0
 11 13  1  0  0  0  0
 13  8  1  6  0  0  0
 13 33  1  0  0  0  0
 14 46  1  0  0  0  0
 14 17  1  0  0  0  0
 14 25  1  1  0  0  0
 15 16  1  0  0  0  0
 15 29  1  0  0  0  0
 16 18  1  1  0  0  0
 16 21  1  0  0  0  0
 17 19  1  6  0  0  0
 17 20  1  0  0  0  0
 20 22  1  6  0  0  0
 20 24  1  0  0  0  0
 23 21  1  1  0  0  0
 23 26  1  0  0  0  0
 23 33  1  0  0  0  0
 24 25  1  6  0  0  0
 24 27  1  0  0  0  0
 26 29  1  1  0  0  0
 26 31  1  0  0  0  0
 27 28  1  0  0  0  0
 29 30  2  0  0  0  0
 31 32  1  0  0  0  0
 33 32  1  6  0  0  0
 34 36  1  0  0  0  0
 34 42  1  0  0  0  0
 36 37  1  6  0  0  0
 36 39  1  0  0  0  0
 40 39  1  6  0  0  0
 40 41  1  0  0  0  0
 40 46  1  0  0  0  0
 41 42  1  6  0  0  0
 41 44  1  0  0  0  0
 42 43  2  0  0  0  0
 44 45  1  0  0  0  0
 46 45  1  1  0  0  0
M  CHG  2   3  -1  35  -1
M  END
>  <CHROM.1>
-3.44736622,62.53854277,158.13323381,43.64672332,144.26744504,-2.05336308
0.66552229,-2.17178007

>  <Name>
ligand

>  <RI>
0

>  <Rbt.Current_Directory>
/home/itssahil/PROJECTS/Mol_Feturizer/Test_systems_manuscript/rnas/4yb0

>  <Rbt.Executable>
rbdock ($Id: //depot/dev/client3/rdock/2013.1/src/exe/rbdock.cxx#4 $)

>  <Rbt.Library>
libRbt.so (2013.1, Build901 2013/11/27)

>  <Rbt.Parameter_File>
/export/apps/rDock/src/rDock_2013.1_src/data/scripts/dock_solv.prm

>  <Rbt.Receptor>
prm/pocket_docking_3.prm

>  <SCORE>
-42.6239

>  <SCORE.INTER>
-43.1579

>  <SCORE.INTER.CONST>
1

>  <SCORE.INTER.POLAR>
0

>  <SCORE.INTER.ROT>
2

>  <SCORE.INTER.SOLV>
33.1165

>  <SCORE.INTER.VDW>
-44.7441

>  <SCORE.INTER.norm>
-0.938215

>  <SCORE.INTRA>
0.25133

>  <SCORE.INTRA.DIHEDRAL>
-0.0220765

>  <SCORE.INTRA.DIHEDRAL.0>
2.42188

>  <SCORE.INTRA.POLAR>
0

>  <SCORE.INTRA.POLAR.0>
0

>  <SCORE.INTRA.REPUL>
0

>  <SCORE.INTRA.REPUL.0>
0

>  <SCORE.INTRA.SOLV>
2.08869

>  <SCORE.INTRA.SOLV.lig_0>
-127.307

>  <SCORE.INTRA.VDW>
-0.781979

>  <SCORE.INTRA.VDW.0>
-2.19936

>  <SCORE.INTRA.norm>
0.00546369

>  <SCORE.RESTR>
0.282671

>  <SCORE.RESTR.CAVITY>
0.282671

>  <SCORE.RESTR.norm>
0.00614503

>  <SCORE.SYSTEM>
0

>  <SCORE.SYSTEM.CONST>
0

>  <SCORE.SYSTEM.DIHEDRAL>
0

>  <SCORE.SYSTEM.SOLV>
0

>  <SCORE.SYSTEM.norm>
0

>  <SCORE.heavy>
46

>  <SCORE.norm>
-0.926607

>  <RMSD>
2.065

$$$$
ligand
 OpenBabel02271912143D
libRbt.so/2013.1/901 2013/11/27
 46 52  0  0  0  0  0  0  0  0999 V2000
  159.7795   46.0497  143.6541 P   0  0  1  0  0  0  0  0  0  0  0  0
  159.5551   41.7405  147.3705 P   0  0  1  0  0  0  0  0  0  0  0  0
  158.9472   45.8730  142.4103 O   0  5  0  0  0  0  0  0  0  0  0  0
  160.4020   47.4122  143.8682 O   0  0  0  0  0  0  0  0  0  0  0  0
  158.9179   46.3391  146.1387 C   0  0  0  0  0  0  0  0  0  0  0  0
  158.8945   45.6059  144.9209 O   0  0  0  0  0  0  0  0  0  0  0  0
  158.3230   45.5035  147.2602 C   0  0  1  0  0  0  0  0  0  0  0  0
  157.0080   45.9780  147.5119 O   0  0  0  0  0  0  0  0  0  0  0  0
  158.1904   44.0132  146.9731 C   0  0  1  0  0  0  0  0  0  0  0  0
  159.2141   43.3024  147.6538 O   0  0  0  0  0  0  0  0  0  0  0  0
  156.8657   43.6492  147.6054 C   0  0  1  0  0  0  0  0  0  0  0  0
  157.0741   43.2569  148.9636 O   0  0  0  0  0  0  0  0  0  0  0  0
  156.0690   44.9211  147.6371 C   0  0  2  0  0  0  0  0  0  0  0  0
  160.7685   41.6210  142.0880 C   0  0  1  0  0  0  0  0  0  0  0  0
  155.0791   47.0314  142.9346 N   0  0  0  0  0  0  0  0  0  0  0  0
  156.0804   47.2754  143.8011 C   0  0  1  0  0  0  0  0  0  0  0  0
  160.4142   43.0934  142.0852 C   0  0  2  0  0  0  0  0  0  0  0  0
  157.0178   48.1947  143.4795 N   0  0  0  0  0  0  0  0  0  0  0  0
  161.3780   43.7651  141.2692 O   0  0  0  0  0  0  0  0  0  0  0  0
  160.5281   43.5377  143.5314 C   0  0  2  0  0  0  0  0  0  0  0  0
  156.2059   46.6495  144.9933 N   0  0  0  0  0  0  0  0  0  0  0  0
  160.9167   44.9071  143.6304 O   0  0  0  0  0  0  0  0  0  0  0  0
  155.3081   45.7214  145.3877 C   0  0  2  0  0  0  0  0  0  0  0  0
  161.5950   42.5920  144.0786 C   0  0  2  0  0  0  0  0  0  0  0  0
  161.5810   41.4283  143.2490 O   0  0  0  0  0  0  0  0  0  0  0  0
  154.1895   45.4063  144.4938 C   0  0  2  0  0  0  0  0  0  0  0  0
  161.4043   42.1745  145.5401 C   0  0  0  0  0  0  0  0  0  0  0  0
  160.0687   41.7707  145.8393 O   0  0  0  0  0  0  0  0  0  0  0  0
  154.1173   46.1319  143.2038 C   0  0  0  0  0  0  0  0  0  0  0  0
  153.1832   45.9001  142.3990 O   0  0  0  0  0  0  0  0  0  0  0  0
  153.4588   44.4704  145.1256 N   0  0  0  0  0  0  0  0  0  0  0  0
  154.0529   44.2059  146.3140 C   0  0  0  0  0  0  0  0  0  0  0  0
  155.1589   44.9546  146.4677 N   0  0  1  0  0  0  0  0  0  0  0  0
  156.1525   40.2211  139.9975 N   0  0  0  0  0  0  0  0  0  0  0  0
  160.7163   41.3922  148.2828 O   0  5  0  0  0  0  0  0  0  0  0  0
  157.0992   41.0439  139.5202 C   0  0  2  0  0  0  0  0  0  0  0  0
  156.8752   41.6180  138.3288 N   0  0  0  0  0  0  0  0  0  0  0  0
  158.2759   40.9401  147.4028 O   0  0  0  0  0  0  0  0  0  0  0  0
  158.2540   41.3151  140.1722 N   0  0  0  0  0  0  0  0  0  0  0  0
  158.5164   40.7520  141.3702 C   0  0  1  0  0  0  0  0  0  0  0  0
  157.5131   39.8371  141.9506 C   0  0  1  0  0  0  0  0  0  0  0  0
  156.2780   39.5872  141.1645 C   0  0  0  0  0  0  0  0  0  0  0  0
  155.3669   38.8345  141.5711 O   0  0  0  0  0  0  0  0  0  0  0  0
  158.0156   39.4185  143.1229 N   0  0  0  0  0  0  0  0  0  0  0  0
  159.2283   40.0192  143.2771 C   0  0  0  0  0  0  0  0  0  0  0  0
  159.5318   40.8135  142.2314 N   0  0  2  0  0  0  0  0  0  0  0  0
  1  3  1  6  0  0  0
  1  4  2  0  0  0  0
  1  6  1  0  0  0  0
  1 22  1  0  0  0  0
  2 28  1  0  0  0  0
  2 35  1  1  0  0  0
  2 38  2  0  0  0  0
  2 10  1  0  0  0  0
  5  6  1  0  0  0  0
  7  5  1  6  0  0  0
  7  8  1  0  0  0  0
  7  9  1  0  0  0  0
  9 10  1  1  0  0  0
  9 11  1  0  0  0  0
 11 12  1  1  0  0  0
 11 13  1  0  0  0  0
 13  8  1  6  0  0  0
 13 33  1  0  0  0  0
 14 46  1  0  0  0  0
 14 17  1  0  0  0  0
 14 25  1  1  0  0  0
 15 16  1  0  0  0  0
 15 29  1  0  0  0  0
 16 18  1  1  0  0  0
 16 21  1  0  0  0  0
 17 19  1  6  0  0  0
 17 20  1  0  0  0  0
 20 22  1  6  0  0  0
 20 24  1  0  0  0  0
 23 21  1  1  0  0  0
 23 26  1  0  0  0  0
 23 33  1  0  0  0  0
 24 25  1  6  0  0  0
 24 27  1  0  0  0  0
 26 29  1  1  0  0  0
 26 31  1  0  0  0  0
 27 28  1  0  0  0  0
 29 30  2  0  0  0  0
 31 32  1  0  0  0  0
 33 32  1  6  0  0  0
 34 36  1  0  0  0  0
 34 42  1  0  0  0  0
 36 37  1  6  0  0  0
 36 39  1  0  0  0  0
 40 39  1  6  0  0  0
 40 41  1  0  0  0  0
 40 46  1  0  0  0  0
 41 42  1  6  0  0  0
 41 44  1  0  0  0  0
 42 43  2  0  0  0  0
 44 45  1  0  0  0  0
 46 45  1  1  0  0  0
M  CHG  2   3  -1  35  -1
M  END
>  <CHROM.1>
8.72673508,63.74297554,158.06355036,43.52214417,144.25790103,-1.92717886
0.66880356,-2.15466717

>  <Name>
ligand

>  <RI>
0

>  <Rbt.Current_Directory>
/home/itssahil/PROJECTS/Mol_Feturizer/Test_systems_manuscript/rnas/4yb0

>  <Rbt.Executable>
rbdock ($Id: //depot/dev/client3/rdock/2013.1/src/exe/rbdock.cxx#4 $)

>  <Rbt.Library>
libRbt.so (2013.1, Build901 2013/11/27)

>  <Rbt.Parameter_File>
/export/apps/rDock/src/rDock_2013.1_src/data/scripts/dock_solv.prm

>  <Rbt.Receptor>
prm/pocket_docking_2.prm

>  <SCORE>
-38.7037

>  <SCORE.INTER>
-42.95

>  <SCORE.INTER.CONST>
1

>  <SCORE.INTER.POLAR>
0

>  <SCORE.INTER.ROT>
2

>  <SCORE.INTER.SOLV>
31.872

>  <SCORE.INTER.VDW>
-44.1907

>  <SCORE.INTER.norm>
-0.933696

>  <SCORE.INTRA>
1.95962

>  <SCORE.INTRA.DIHEDRAL>
-0.0381864

>  <SCORE.INTRA.DIHEDRAL.0>
2.42188

>  <SCORE.INTRA.POLAR>
0

>  <SCORE.INTRA.POLAR.0>
0

>  <SCORE.INTRA.REPUL>
0

>  <SCORE.INTRA.REPUL.0>
0

>  <SCORE.INTRA.SOLV>
6.90539

>  <SCORE.INTRA.SOLV.lig_0>
-127.307

>  <SCORE.INTRA.VDW>
-1.47398

>  <SCORE.INTRA.VDW.0>
-2.19936

>  <SCORE.INTRA.norm>
0.0426004

>  <SCORE.RESTR>
2.28671

>  <SCORE.RESTR.CAVITY>
2.28671

>  <SCORE.RESTR.norm>
0.049711

>  <SCORE.SYSTEM>
0

>  <SCORE.SYSTEM.CONST>
0

>  <SCORE.SYSTEM.DIHEDRAL>
0

>  <SCORE.SYSTEM.SOLV>
0

>  <SCORE.SYSTEM.norm>
0

>  <SCORE.heavy>
46

>  <SCORE.norm>
-0.841385

>  <RMSD>
2.066

$$$$
ligand
 OpenBabel02271912143D
libRbt.so/2013.1/901 2013/11/27
 46 52  0  0  0  0  0  0  0  0999 V2000
  159.9027   46.0048  143.5799 P   0  0  1  0  0  0  0  0  0  0  0  0
  159.6031   41.7719  147.3777 P   0  0  1  0  0  0  0  0  0  0  0  0
  159.0777   45.8128  142.3334 O   0  5  0  0  0  0  0  0  0  0  0  0
  160.5385   47.3643  143.7721 O   0  0  0  0  0  0  0  0  0  0  0  0
  159.0258   46.3521  146.0517 C   0  0  0  0  0  0  0  0  0  0  0  0
  159.0034   45.5955  144.8483 O   0  0  0  0  0  0  0  0  0  0  0  0
  158.4135   45.5451  147.1847 C   0  0  1  0  0  0  0  0  0  0  0  0
  157.1019   46.0388  147.4170 O   0  0  0  0  0  0  0  0  0  0  0  0
  158.2665   44.0511  146.9257 C   0  0  1  0  0  0  0  0  0  0  0  0
  159.2772   43.3426  147.6279 O   0  0  0  0  0  0  0  0  0  0  0  0
  156.9333   43.7139  147.5548 C   0  0  1  0  0  0  0  0  0  0  0  0
  157.1272   43.3460  148.9219 O   0  0  0  0  0  0  0  0  0  0  0  0
  156.1504   44.9947  147.5555 C   0  0  2  0  0  0  0  0  0  0  0  0
  160.8544   41.5358  142.1080 C   0  0  1  0  0  0  0  0  0  0  0  0
  154.8025   47.4771  143.1321 N   0  0  0  0  0  0  0  0  0  0  0  0
  155.7439   47.7821  144.0451 C   0  0  1  0  0  0  0  0  0  0  0  0
  160.5163   43.0116  142.0737 C   0  0  2  0  0  0  0  0  0  0  0  0
  156.5026   48.8859  143.8627 N   0  0  0  0  0  0  0  0  0  0  0  0
  161.4935   43.6566  141.2522 O   0  0  0  0  0  0  0  0  0  0  0  0
  160.6244   43.4828  143.5119 C   0  0  2  0  0  0  0  0  0  0  0  0
  155.9783   47.0419  145.1524 N   0  0  0  0  0  0  0  0  0  0  0  0
  161.0273   44.8496  143.5872 O   0  0  0  0  0  0  0  0  0  0  0  0
  155.2602   45.9273  145.4069 C   0  0  2  0  0  0  0  0  0  0  0  0
  161.6767   42.5365  144.0856 C   0  0  2  0  0  0  0  0  0  0  0  0
  161.6561   41.3570  143.2787 O   0  0  0  0  0  0  0  0  0  0  0  0
  154.2159   45.5357  144.4550 C   0  0  2  0  0  0  0  0  0  0  0  0
  161.4706   42.1498  145.5535 C   0  0  0  0  0  0  0  0  0  0  0  0
  160.1284   41.7665  145.8502 O   0  0  0  0  0  0  0  0  0  0  0  0
  154.0163   46.3951  143.2644 C   0  0  0  0  0  0  0  0  0  0  0  0
  153.1388   46.1061  142.4156 O   0  0  0  0  0  0  0  0  0  0  0  0
  153.6635   44.4128  144.9478 N   0  0  0  0  0  0  0  0  0  0  0  0
  154.2946   44.1086  146.1073 C   0  0  0  0  0  0  0  0  0  0  0  0
  155.2495   45.0152  146.3788 N   0  0  1  0  0  0  0  0  0  0  0  0
  156.2170   40.1845  140.0330 N   0  0  0  0  0  0  0  0  0  0  0  0
  160.7536   41.4289  148.3055 O   0  5  0  0  0  0  0  0  0  0  0  0
  157.1731   40.9928  139.5500 C   0  0  2  0  0  0  0  0  0  0  0  0
  156.9540   41.5640  138.3562 N   0  0  0  0  0  0  0  0  0  0  0  0
  158.3149   40.9862  147.4158 O   0  0  0  0  0  0  0  0  0  0  0  0
  158.3325   41.2526  140.1984 N   0  0  0  0  0  0  0  0  0  0  0  0
  158.5901   40.6920  141.3987 C   0  0  1  0  0  0  0  0  0  0  0  0
  157.5763   39.7927  141.9854 C   0  0  1  0  0  0  0  0  0  0  0  0
  156.3367   39.5547  141.2029 C   0  0  0  0  0  0  0  0  0  0  0  0
  155.4168   38.8156  141.6148 O   0  0  0  0  0  0  0  0  0  0  0  0
  158.0758   39.3733  143.1588 N   0  0  0  0  0  0  0  0  0  0  0  0
  159.2963   39.9594  143.3077 C   0  0  0  0  0  0  0  0  0  0  0  0
  159.6078   40.7448  142.2577 N   0  0  2  0  0  0  0  0  0  0  0  0
  1  3  1  6  0  0  0
  1  4  2  0  0  0  0
  1  6  1  0  0  0  0
  1 22  1  0  0  0  0
  2 28  1  0  0  0  0
  2 35  1  1  0  0  0
  2 38  2  0  0  0  0
  2 10  1  0  0  0  0
  5  6  1  0  0  0  0
  7  5  1  6  0  0  0
  7  8  1  0  0  0  0
  7  9  1  0  0  0  0
  9 10  1  1  0  0  0
  9 11  1  0  0  0  0
 11 12  1  1  0  0  0
 11 13  1  0  0  0  0
 13  8  1  6  0  0  0
 13 33  1  0  0  0  0
 14 46  1  0  0  0  0
 14 17  1  0  0  0  0
 14 25  1  1  0  0  0
 15 16  1  0  0  0  0
 15 29  1  0  0  0  0
 16 18  1  1  0  0  0
 16 21  1  0  0  0  0
 17 19  1  6  0  0  0
 17 20  1  0  0  0  0
 20 22  1  6  0  0  0
 20 24  1  0  0  0  0
 23 21  1  1  0  0  0
 23 26  1  0  0  0  0
 23 33  1  0  0  0  0
 24 25  1  6  0  0  0
 24 27  1  0  0  0  0
 26 29  1  1  0  0  0
 26 31  1  0  0  0  0
 27 28  1  0  0  0  0
 29 30  2  0  0  0  0
 31 32  1  0  0  0  0
 33 32  1  6  0  0  0
 34 36  1  0  0  0  0
 34 42  1  0  0  0  0
 36 37  1  6  0  0  0
 36 39  1  0  0  0  0
 40 39  1  6  0  0  0
 40 41  1  0  0  0  0
 40 46  1  0  0  0  0
 41 42  1  6  0  0  0
 41 44  1  0  0  0  0
 42 43  2  0  0  0  0
 44 45  1  0  0  0  0
 46 45  1  1  0  0  0
M  CHG  2   3  -1  35  -1
M  END
>  <CHROM.1>
-5.01706212,62.73652039,158.10687468,43.56206797,144.25766186,-2.05642591
0.68271593,-2.19213816

>  <Name>
ligand

>  <RI>
0

>  <Rbt.Current_Directory>
/home/itssahil/PROJECTS/Mol_Feturizer/Test_systems_manuscript/rnas/4yb0

>  <Rbt.Executable>
rbdock ($Id: //depot/dev/client3/rdock/2013.1/src/exe/rbdock.cxx#4 $)

>  <Rbt.Library>
libRbt.so (2013.1, Build901 2013/11/27)

>  <Rbt.Parameter_File>
/export/apps/rDock/src/rDock_2013.1_src/data/scripts/dock_solv.prm

>  <Rbt.Receptor>
prm/pocket_docking_3.prm

>  <SCORE>
-42.6351

>  <SCORE.INTER>
-42.947

>  <SCORE.INTER.CONST>
1

>  <SCORE.INTER.POLAR>
0

>  <SCORE.INTER.ROT>
2

>  <SCORE.INTER.SOLV>
33.8884

>  <SCORE.INTER.VDW>
-44.8608

>  <SCORE.INTER.norm>
-0.933631

>  <SCORE.INTRA>
0.0245205

>  <SCORE.INTRA.DIHEDRAL>
-0.0205569

>  <SCORE.INTRA.DIHEDRAL.0>
2.42188

>  <SCORE.INTRA.POLAR>
0

>  <SCORE.INTRA.POLAR.0>
0

>  <SCORE.INTRA.REPUL>
0

>  <SCORE.INTRA.REPUL.0>
0

>  <SCORE.INTRA.SOLV>
1.46427

>  <SCORE.INTRA.SOLV.lig_0>
-127.307

>  <SCORE.INTRA.VDW>
-0.697335

>  <SCORE.INTRA.VDW.0>
-2.19936

>  <SCORE.INTRA.norm>
0.000533053

>  <SCORE.RESTR>
0.287351

>  <SCORE.RESTR.CAVITY>
0.287351

>  <SCORE.RESTR.norm>
0.00624677

>  <SCORE.SYSTEM>
0

>  <SCORE.SYSTEM.CONST>
0

>  <SCORE.SYSTEM.DIHEDRAL>
0

>  <SCORE.SYSTEM.SOLV>
0

>  <SCORE.SYSTEM.norm>
0

>  <SCORE.heavy>
46

>  <SCORE.norm>
-0.926851

>  <RMSD>
2.066

$$$$
ligand
 OpenBabel02271912143D
libRbt.so/2013.1/901 2013/11/27
 46 52  0  0  0  0  0  0  0  0999 V2000
  159.8019   46.0371  143.6295 P   0  0  1  0  0  0  0  0  0  0  0  0
  159.5680   41.6950  147.3067 P   0  0  1  0  0  0  0  0  0  0  0  0
  158.9693   45.8734  142.3841 O   0  5  0  0  0  0  0  0  0  0  0  0
  160.4274   47.3962  143.8559 O   0  0  0  0  0  0  0  0  0  0  0  0
  158.9408   46.3059  146.1166 C   0  0  0  0  0  0  0  0  0  0  0  0
  158.9159   45.5838  144.8922 O   0  0  0  0  0  0  0  0  0  0  0  0
  158.3441   45.4614  147.2304 C   0  0  1  0  0  0  0  0  0  0  0  0
  157.0301   45.9366  147.4864 O   0  0  0  0  0  0  0  0  0  0  0  0
  158.2082   43.9742  146.9299 C   0  0  1  0  0  0  0  0  0  0  0  0
  159.2303   43.2550  147.6041 O   0  0  0  0  0  0  0  0  0  0  0  0
  156.8828   43.6073  147.5588 C   0  0  1  0  0  0  0  0  0  0  0  0
  157.0902   43.2023  148.9134 O   0  0  0  0  0  0  0  0  0  0  0  0
  156.0888   44.8805  147.6019 C   0  0  2  0  0  0  0  0  0  0  0  0
  160.7814   41.6206  142.0234 C   0  0  1  0  0  0  0  0  0  0  0  0
  155.0851   47.0602  142.9341 N   0  0  0  0  0  0  0  0  0  0  0  0
  156.0844   47.2972  143.8049 C   0  0  1  0  0  0  0  0  0  0  0  0
  160.4302   43.0937  142.0338 C   0  0  2  0  0  0  0  0  0  0  0  0
  157.0153   48.2284  143.4988 N   0  0  0  0  0  0  0  0  0  0  0  0
  161.3955   43.7706  141.2240 O   0  0  0  0  0  0  0  0  0  0  0  0
  160.5450   43.5247  143.4841 C   0  0  2  0  0  0  0  0  0  0  0  0
  156.2140   46.6529  144.9867 N   0  0  0  0  0  0  0  0  0  0  0  0
  160.9366   44.8923  143.5955 O   0  0  0  0  0  0  0  0  0  0  0  0
  155.3229   45.7120  145.3656 C   0  0  2  0  0  0  0  0  0  0  0  0
  161.6098   42.5718  144.0227 C   0  0  2  0  0  0  0  0  0  0  0  0
  161.5934   41.4156  143.1826 O   0  0  0  0  0  0  0  0  0  0  0  0
  154.2067   45.4035  144.4662 C   0  0  2  0  0  0  0  0  0  0  0  0
  161.4182   42.1415  145.4804 C   0  0  0  0  0  0  0  0  0  0  0  0
  160.0817   41.7379  145.7758 O   0  0  0  0  0  0  0  0  0  0  0  0
  154.1298   46.1496  143.1882 C   0  0  0  0  0  0  0  0  0  0  0  0
  153.1976   45.9242  142.3794 O   0  0  0  0  0  0  0  0  0  0  0  0
  153.4827   44.4522  145.0824 N   0  0  0  0  0  0  0  0  0  0  0  0
  154.0783   44.1726  146.2665 C   0  0  0  0  0  0  0  0  0  0  0  0
  155.1788   44.9266  146.4329 N   0  0  1  0  0  0  0  0  0  0  0  0
  156.1789   40.2215  139.9027 N   0  0  0  0  0  0  0  0  0  0  0  0
  160.7284   41.3359  148.2159 O   0  5  0  0  0  0  0  0  0  0  0  0
  157.1297   41.0425  139.4308 C   0  0  2  0  0  0  0  0  0  0  0  0
  156.9147   41.6148  138.2368 N   0  0  0  0  0  0  0  0  0  0  0  0
  158.2870   40.8971  147.3317 O   0  0  0  0  0  0  0  0  0  0  0  0
  158.2802   41.3138  140.0904 N   0  0  0  0  0  0  0  0  0  0  0  0
  158.5336   40.7525  141.2912 C   0  0  1  0  0  0  0  0  0  0  0  0
  157.5253   39.8396  141.8661 C   0  0  1  0  0  0  0  0  0  0  0  0
  156.2956   39.5895  141.0717 C   0  0  0  0  0  0  0  0  0  0  0  0
  155.3808   38.8383  141.4731 O   0  0  0  0  0  0  0  0  0  0  0  0
  158.0192   39.4225  143.0426 N   0  0  0  0  0  0  0  0  0  0  0  0
  159.2313   40.0223  143.2043 C   0  0  0  0  0  0  0  0  0  0  0  0
  159.5429   40.8146  142.1595 N   0  0  2  0  0  0  0  0  0  0  0  0
  1  3  1  6  0  0  0
  1  4  2  0  0  0  0
  1  6  1  0  0  0  0
  1 22  1  0  0  0  0
  2 28  1  0  0  0  0
  2 35  1  1  0  0  0
  2 38  2  0  0  0  0
  2 10  1  0  0  0  0
  5  6  1  0  0  0  0
  7  5  1  6  0  0  0
  7  8  1  0  0  0  0
  7  9  1  0  0  0  0
  9 10  1  1  0  0  0
  9 11  1  0  0  0  0
 11 12  1  1  0  0  0
 11 13  1  0  0  0  0
 13  8  1  6  0  0  0
 13 33  1  0  0  0  0
 14 46  1  0  0  0  0
 14 17  1  0  0  0  0
 14 25  1  1  0  0  0
 15 16  1  0  0  0  0
 15 29  1  0  0  0  0
 16 18  1  1  0  0  0
 16 21  1  0  0  0  0
 17 19  1  6  0  0  0
 17 20  1  0  0  0  0
 20 22  1  6  0  0  0
 20 24  1  0  0  0  0
 23 21  1  1  0  0  0
 23 26  1  0  0  0  0
 23 33  1  0  0  0  0
 24 25  1  6  0  0  0
 24 27  1  0  0  0  0
 26 29  1  1  0  0  0
 26 31  1  0  0  0  0
 27 28  1  0  0  0  0
 29 30  2  0  0  0  0
 31 32  1  0  0  0  0
 33 32  1  6  0  0  0
 34 36  1  0  0  0  0
 34 42  1  0  0  0  0
 36 37  1  6  0  0  0
 36 39  1  0  0  0  0
 40 39  1  6  0  0  0
 40 41  1  0  0  0  0
 40 46  1  0  0  0  0
 41 42  1  6  0  0  0
 41 44  1  0  0  0  0
 42 43  2  0  0  0  0
 44 45  1  0  0  0  0
 46 45  1  1  0  0  0
M  CHG  2   3  -1  35  -1
M  END
>  <CHROM.1>
8.04718153,64.48248207,158.08022501,43.50752671,144.21006813,-1.92835241
0.67190500,-2.14829771

>  <Name>
ligand

>  <RI>
0

>  <Rbt.Current_Directory>
/home/itssahil/PROJECTS/Mol_Feturizer/Test_systems_manuscript/rnas/4yb0

>  <Rbt.Executable>
rbdock ($Id: //depot/dev/client3/rdock/2013.1/src/exe/rbdock.cxx#4 $)

>  <Rbt.Library>
libRbt.so (2013.1, Build901 2013/11/27)

>  <Rbt.Parameter_File>
/export/apps/rDock/src/rDock_2013.1_src/data/scripts/dock_solv.prm

>  <Rbt.Receptor>
prm/pocket_docking_2.prm

>  <SCORE>
-38.723

>  <SCORE.INTER>
-42.8559

>  <SCORE.INTER.CONST>
1

>  <SCORE.INTER.POLAR>
0

>  <SCORE.INTER.ROT>
2

>  <SCORE.INTER.SOLV>
32.6397

>  <SCORE.INTER.VDW>
-44.3839

>  <SCORE.INTER.norm>
-0.931651

>  <SCORE.INTRA>
1.84856

>  <SCORE.INTRA.DIHEDRAL>
-0.0385725

>  <SCORE.INTRA.DIHEDRAL.0>
2.42188

>  <SCORE.INTRA.POLAR>
0

>  <SCORE.INTRA.POLAR.0>
0

>  <SCORE.INTRA.REPUL>
0

>  <SCORE.INTRA.REPUL.0>
0

>  <SCORE.INTRA.SOLV>
6.64614

>  <SCORE.INTRA.SOLV.lig_0>
-127.307

>  <SCORE.INTRA.VDW>
-1.45522

>  <SCORE.INTRA.VDW.0>
-2.19936

>  <SCORE.INTRA.norm>
0.0401861

>  <SCORE.RESTR>
2.28438

>  <SCORE.RESTR.CAVITY>
2.28438

>  <SCORE.RESTR.norm>
0.0496605

>  <SCORE.SYSTEM>
0

>  <SCORE.SYSTEM.CONST>
0

>  <SCORE.SYSTEM.DIHEDRAL>
0

>  <SCORE.SYSTEM.SOLV>
0

>  <SCORE.SYSTEM.norm>
0

>  <SCORE.heavy>
46

>  <SCORE.norm>
-0.841804

>  <RMSD>
2.071

$$$$
ligand
 OpenBabel02271912143D
libRbt.so/2013.1/901 2013/11/27
 46 52  0  0  0  0  0  0  0  0999 V2000
  159.8284   46.0370  143.6265 P   0  0  1  0  0  0  0  0  0  0  0  0
  159.5753   41.7307  147.3444 P   0  0  1  0  0  0  0  0  0  0  0  0
  158.9982   45.8635  142.3809 O   0  5  0  0  0  0  0  0  0  0  0  0
  160.4568   47.3967  143.8414 O   0  0  0  0  0  0  0  0  0  0  0  0
  158.9623   46.3316  146.1090 C   0  0  0  0  0  0  0  0  0  0  0  0
  158.9384   45.5980  144.8915 O   0  0  0  0  0  0  0  0  0  0  0  0
  158.3610   45.4993  147.2294 C   0  0  1  0  0  0  0  0  0  0  0  0
  157.0476   45.9801  147.4779 O   0  0  0  0  0  0  0  0  0  0  0  0
  158.2221   44.0096  146.9428 C   0  0  1  0  0  0  0  0  0  0  0  0
  159.2409   43.2943  147.6262 O   0  0  0  0  0  0  0  0  0  0  0  0
  156.8943   43.6520  147.5721 C   0  0  1  0  0  0  0  0  0  0  0  0
  157.0977   43.2594  148.9310 O   0  0  0  0  0  0  0  0  0  0  0  0
  156.1034   44.9275  147.6013 C   0  0  2  0  0  0  0  0  0  0  0  0
  160.8005   41.6030  142.0649 C   0  0  1  0  0  0  0  0  0  0  0  0
  155.0966   47.0903  142.9263 N   0  0  0  0  0  0  0  0  0  0  0  0
  156.0919   47.3362  143.7992 C   0  0  1  0  0  0  0  0  0  0  0  0
  160.4530   43.0770  142.0605 C   0  0  2  0  0  0  0  0  0  0  0  0
  157.0169   48.2733  143.4936 N   0  0  0  0  0  0  0  0  0  0  0  0
  161.4218   43.7438  141.2464 O   0  0  0  0  0  0  0  0  0  0  0  0
  160.5656   43.5215  143.5068 C   0  0  2  0  0  0  0  0  0  0  0  0
  156.2229   46.6953  144.9828 N   0  0  0  0  0  0  0  0  0  0  0  0
  160.9603   44.8891  143.6060 O   0  0  0  0  0  0  0  0  0  0  0  0
  155.3375   45.7489  145.3613 C   0  0  2  0  0  0  0  0  0  0  0  0
  161.6268   42.5711  144.0570 C   0  0  2  0  0  0  0  0  0  0  0  0
  161.6094   41.4071  143.2278 O   0  0  0  0  0  0  0  0  0  0  0  0
  154.2259   45.4306  144.4596 C   0  0  2  0  0  0  0  0  0  0  0  0
  161.4308   42.1552  145.5182 C   0  0  0  0  0  0  0  0  0  0  0  0
  160.0926   41.7578  145.8144 O   0  0  0  0  0  0  0  0  0  0  0  0
  154.1470   46.1734  143.1798 C   0  0  0  0  0  0  0  0  0  0  0  0
  153.2186   45.9398  142.3690 O   0  0  0  0  0  0  0  0  0  0  0  0
  153.5070   44.4755  145.0759 N   0  0  0  0  0  0  0  0  0  0  0  0
  154.1015   44.2026  146.2622 C   0  0  0  0  0  0  0  0  0  0  0  0
  155.1962   44.9647  146.4298 N   0  0  1  0  0  0  0  0  0  0  0  0
  156.1705   40.2452  139.9775 N   0  0  0  0  0  0  0  0  0  0  0  0
  160.7327   41.3775  148.2596 O   0  5  0  0  0  0  0  0  0  0  0  0
  157.1204   41.0663  139.5038 C   0  0  2  0  0  0  0  0  0  0  0  0
  156.8960   41.6509  138.3176 N   0  0  0  0  0  0  0  0  0  0  0  0
  158.2923   40.9363  147.3741 O   0  0  0  0  0  0  0  0  0  0  0  0
  158.2786   41.3260  140.1543 N   0  0  0  0  0  0  0  0  0  0  0  0
  158.5415   40.7522  141.3472 C   0  0  1  0  0  0  0  0  0  0  0  0
  157.5347   39.8384  141.9235 C   0  0  1  0  0  0  0  0  0  0  0  0
  156.2960   39.6015  141.1393 C   0  0  0  0  0  0  0  0  0  0  0  0
  155.3818   38.8508  141.5427 O   0  0  0  0  0  0  0  0  0  0  0  0
  158.0384   39.4079  143.0910 N   0  0  0  0  0  0  0  0  0  0  0  0
  159.2549   40.0006  143.2462 C   0  0  0  0  0  0  0  0  0  0  0  0
  159.5597   40.8013  142.2057 N   0  0  2  0  0  0  0  0  0  0  0  0
  1  3  1  6  0  0  0
  1  4  2  0  0  0  0
  1  6  1  0  0  0  0
  1 22  1  0  0  0  0
  2 28  1  0  0  0  0
  2 35  1  1  0  0  0
  2 38  2  0  0  0  0
  2 10  1  0  0  0  0
  5  6  1  0  0  0  0
  7  5  1  6  0  0  0
  7  8  1  0  0  0  0
  7  9  1  0  0  0  0
  9 10  1  1  0  0  0
  9 11  1  0  0  0  0
 11 12  1  1  0  0  0
 11 13  1  0  0  0  0
 13  8  1  6  0  0  0
 13 33  1  0  0  0  0
 14 46  1  0  0  0  0
 14 17  1  0  0  0  0
 14 25  1  1  0  0  0
 15 16  1  0  0  0  0
 15 29  1  0  0  0  0
 16 18  1  1  0  0  0
 16 21  1  0  0  0  0
 17 19  1  6  0  0  0
 17 20  1  0  0  0  0
 20 22  1  6  0  0  0
 20 24  1  0  0  0  0
 23 21  1  1  0  0  0
 23 26  1  0  0  0  0
 23 33  1  0  0  0  0
 24 25  1  6  0  0  0
 24 27  1  0  0  0  0
 26 29  1  1  0  0  0
 26 31  1  0  0  0  0
 27 28  1  0  0  0  0
 29 30  2  0  0  0  0
 31 32  1  0  0  0  0
 33 32  1  6  0  0  0
 34 36  1  0  0  0  0
 34 42  1  0  0  0  0
 36 37  1  6  0  0  0
 36 39  1  0  0  0  0
 40 39  1  6  0  0  0
 40 41  1  0  0  0  0
 40 46  1  0  0  0  0
 41 42  1  6  0  0  0
 41 44  1  0  0  0  0
 42 43  2  0  0  0  0
 44 45  1  0  0  0  0
 46 45  1  1  0  0  0
M  CHG  2   3  -1  35  -1
M  END
>  <CHROM.1>
7.35212550,63.17729586,158.09387576,43.52555249,144.23229845,-1.94306367
0.67562530,-2.15737152

>  <Name>
ligand

>  <RI>
0

>  <Rbt.Current_Directory>
/home/itssahil/PROJECTS/Mol_Feturizer/Test_systems_manuscript/rnas/4yb0

>  <Rbt.Executable>
rbdock ($Id: //depot/dev/client3/rdock/2013.1/src/exe/rbdock.cxx#4 $)

>  <Rbt.Library>
libRbt.so (2013.1, Build901 2013/11/27)

>  <Rbt.Parameter_File>
/export/apps/rDock/src/rDock_2013.1_src/data/scripts/dock_solv.prm

>  <Rbt.Receptor>
prm/pocket_docking_2.prm

>  <SCORE>
-38.94

>  <SCORE.INTER>
-43.0433

>  <SCORE.INTER.CONST>
1

>  <SCORE.INTER.POLAR>
0

>  <SCORE.INTER.ROT>
2

>  <SCORE.INTER.SOLV>
32.0916

>  <SCORE.INTER.VDW>
-44.3261

>  <SCORE.INTER.norm>
-0.935724

>  <SCORE.INTRA>
1.75781

>  <SCORE.INTRA.DIHEDRAL>
-0.0357986

>  <SCORE.INTRA.DIHEDRAL.0>
2.42188

>  <SCORE.INTRA.POLAR>
0

>  <SCORE.INTRA.POLAR.0>
0

>  <SCORE.INTRA.REPUL>
0

>  <SCORE.INTRA.REPUL.0>
0

>  <SCORE.INTRA.SOLV>
6.38591

>  <SCORE.INTRA.SOLV.lig_0>
-127.307

>  <SCORE.INTRA.VDW>
-1.41724

>  <SCORE.INTRA.VDW.0>
-2.19936

>  <SCORE.INTRA.norm>
0.0382133

>  <SCORE.RESTR>
2.3455

>  <SCORE.RESTR.CAVITY>
2.3455

>  <SCORE.RESTR.norm>
0.0509892

>  <SCORE.SYSTEM>
0

>  <SCORE.SYSTEM.CONST>
0

>  <SCORE.SYSTEM.DIHEDRAL>
0

>  <SCORE.SYSTEM.SOLV>
0

>  <SCORE.SYSTEM.norm>
0

>  <SCORE.heavy>
46

>  <SCORE.norm>
-0.846521

>  <RMSD>
2.075

$$$$
ligand
 OpenBabel02271912143D
libRbt.so/2013.1/901 2013/11/27
 46 52  0  0  0  0  0  0  0  0999 V2000
  159.9152   45.9614  143.5878 P   0  0  1  0  0  0  0  0  0  0  0  0
  159.6051   41.6892  147.3404 P   0  0  1  0  0  0  0  0  0  0  0  0
  159.0759   45.7929  142.3475 O   0  5  0  0  0  0  0  0  0  0  0  0
  160.5683   47.3115  143.7890 O   0  0  0  0  0  0  0  0  0  0  0  0
  159.0667   46.2904  146.0720 C   0  0  0  0  0  0  0  0  0  0  0  0
  159.0239   45.5479  144.8604 O   0  0  0  0  0  0  0  0  0  0  0  0
  158.4565   45.4775  147.2018 C   0  0  1  0  0  0  0  0  0  0  0  0
  157.1529   45.9832  147.4528 O   0  0  0  0  0  0  0  0  0  0  0  0
  158.2900   43.9882  146.9275 C   0  0  1  0  0  0  0  0  0  0  0  0
  159.2995   43.2605  147.6115 O   0  0  0  0  0  0  0  0  0  0  0  0
  156.9593   43.6590  147.5660 C   0  0  1  0  0  0  0  0  0  0  0  0
  157.1625   43.2733  148.9269 O   0  0  0  0  0  0  0  0  0  0  0  0
  156.1910   44.9484  147.5890 C   0  0  2  0  0  0  0  0  0  0  0  0
  160.8016   41.4991  142.0561 C   0  0  1  0  0  0  0  0  0  0  0  0
  154.7980   47.5215  143.2318 N   0  0  0  0  0  0  0  0  0  0  0  0
  155.7478   47.8085  144.1421 C   0  0  1  0  0  0  0  0  0  0  0  0
  160.4800   42.9789  142.0419 C   0  0  2  0  0  0  0  0  0  0  0  0
  156.5035   48.9169  143.9757 N   0  0  0  0  0  0  0  0  0  0  0  0
  161.4563   43.6222  141.2180 O   0  0  0  0  0  0  0  0  0  0  0  0
  160.6075   43.4325  143.4841 C   0  0  2  0  0  0  0  0  0  0  0  0
  155.9936   47.0455  145.2312 N   0  0  0  0  0  0  0  0  0  0  0  0
  161.0267   44.7937  143.5708 O   0  0  0  0  0  0  0  0  0  0  0  0
  155.2792   45.9247  145.4691 C   0  0  2  0  0  0  0  0  0  0  0  0
  161.6546   42.4679  144.0366 C   0  0  2  0  0  0  0  0  0  0  0  0
  161.6126   41.2979  143.2167 O   0  0  0  0  0  0  0  0  0  0  0  0
  154.2264   45.5518  144.5192 C   0  0  2  0  0  0  0  0  0  0  0  0
  161.4586   42.0668  145.5020 C   0  0  0  0  0  0  0  0  0  0  0  0
  160.1151   41.6953  145.8077 O   0  0  0  0  0  0  0  0  0  0  0  0
  154.0143   46.4358  143.3489 C   0  0  0  0  0  0  0  0  0  0  0  0
  153.1291   46.1636  142.5027 O   0  0  0  0  0  0  0  0  0  0  0  0
  153.6800   44.4181  144.9935 N   0  0  0  0  0  0  0  0  0  0  0  0
  154.3225   44.0905  146.1403 C   0  0  0  0  0  0  0  0  0  0  0  0
  155.2789   44.9925  146.4217 N   0  0  1  0  0  0  0  0  0  0  0  0
  156.1431   40.1977  139.9964 N   0  0  0  0  0  0  0  0  0  0  0  0
  160.7606   41.3227  148.2527 O   0  5  0  0  0  0  0  0  0  0  0  0
  157.1055   40.9970  139.5110 C   0  0  2  0  0  0  0  0  0  0  0  0
  156.8879   41.5721  138.3188 N   0  0  0  0  0  0  0  0  0  0  0  0
  158.3085   40.9176  147.3825 O   0  0  0  0  0  0  0  0  0  0  0  0
  158.2699   41.2441  140.1555 N   0  0  0  0  0  0  0  0  0  0  0  0
  158.5262   40.6792  141.3540 C   0  0  1  0  0  0  0  0  0  0  0  0
  157.5056   39.7894  141.9432 C   0  0  1  0  0  0  0  0  0  0  0  0
  156.2608   39.5650  141.1649 C   0  0  0  0  0  0  0  0  0  0  0  0
  155.3350   38.8346  141.5792 O   0  0  0  0  0  0  0  0  0  0  0  0
  158.0052   39.3633  143.1142 N   0  0  0  0  0  0  0  0  0  0  0  0
  159.2321   39.9368  143.2594 C   0  0  0  0  0  0  0  0  0  0  0  0
  159.5476   40.7205  142.2093 N   0  0  2  0  0  0  0  0  0  0  0  0
  1  3  1  6  0  0  0
  1  4  2  0  0  0  0
  1  6  1  0  0  0  0
  1 22  1  0  0  0  0
  2 28  1  0  0  0  0
  2 35  1  1  0  0  0
  2 38  2  0  0  0  0
  2 10  1  0  0  0  0
  5  6  1  0  0  0  0
  7  5  1  6  0  0  0
  7  8  1  0  0  0  0
  7  9  1  0  0  0  0
  9 10  1  1  0  0  0
  9 11  1  0  0  0  0
 11 12  1  1  0  0  0
 11 13  1  0  0  0  0
 13  8  1  6  0  0  0
 13 33  1  0  0  0  0
 14 46  1  0  0  0  0
 14 17  1  0  0  0  0
 14 25  1  1  0  0  0
 15 16  1  0  0  0  0
 15 29  1  0  0  0  0
 16 18  1  1  0  0  0
 16 21  1  0  0  0  0
 17 19  1  6  0  0  0
 17 20  1  0  0  0  0
 20 22  1  6  0  0  0
 20 24  1  0  0  0  0
 23 21  1  1  0  0  0
 23 26  1  0  0  0  0
 23 33  1  0  0  0  0
 24 25  1  6  0  0  0
 24 27  1  0  0  0  0
 26 29  1  1  0  0  0
 26 31  1  0  0  0  0
 27 28  1  0  0  0  0
 29 30  2  0  0  0  0
 31 32  1  0  0  0  0
 33 32  1  6  0  0  0
 34 36  1  0  0  0  0
 34 42  1  0  0  0  0
 36 37  1  6  0  0  0
 36 39  1  0  0  0  0
 40 39  1  6  0  0  0
 40 41  1  0  0  0  0
 40 46  1  0  0  0  0
 41 42  1  6  0  0  0
 41 44  1  0  0  0  0
 42 43  2  0  0  0  0
 44 45  1  0  0  0  0
 46 45  1  1  0  0  0
M  CHG  2   3  -1  35  -1
M  END
>  <CHROM.1>
-5.92558012,63.41109009,158.09685514,43.53144193,144.25672010,-2.03906288
0.68509295,-2.19403482

>  <Name>
ligand

>  <RI>
0

>  <Rbt.Current_Directory>
/home/itssahil/PROJECTS/Mol_Feturizer/Test_systems_manuscript/rnas/4yb0

>  <Rbt.Executable>
rbdock ($Id: //depot/dev/client3/rdock/2013.1/src/exe/rbdock.cxx#4 $)

>  <Rbt.Library>
libRbt.so (2013.1, Build901 2013/11/27)

>  <Rbt.Parameter_File>
/export/apps/rDock/src/rDock_2013.1_src/data/scripts/dock_solv.prm

>  <Rbt.Receptor>
prm/pocket_docking_3.prm

>  <SCORE>
-42.8071

>  <SCORE.INTER>
-43.0166

>  <SCORE.INTER.CONST>
1

>  <SCORE.INTER.POLAR>
0

>  <SCORE.INTER.ROT>
2

>  <SCORE.INTER.SOLV>
34.5297

>  <SCORE.INTER.VDW>
-45.121

>  <SCORE.INTER.norm>
-0.935144

>  <SCORE.INTRA>
-0.109121

>  <SCORE.INTRA.DIHEDRAL>
-0.0205614

>  <SCORE.INTRA.DIHEDRAL.0>
2.42188

>  <SCORE.INTRA.POLAR>
0

>  <SCORE.INTRA.POLAR.0>
0

>  <SCORE.INTRA.REPUL>
0

>  <SCORE.INTRA.REPUL.0>
0

>  <SCORE.INTRA.SOLV>
1.09696

>  <SCORE.INTRA.SOLV.lig_0>
-127.307

>  <SCORE.INTRA.VDW>
-0.647319

>  <SCORE.INTRA.VDW.0>
-2.19936

>  <SCORE.INTRA.norm>
-0.00237219

>  <SCORE.RESTR>
0.318632

>  <SCORE.RESTR.CAVITY>
0.318632

>  <SCORE.RESTR.norm>
0.00692677

>  <SCORE.SYSTEM>
0

>  <SCORE.SYSTEM.CONST>
0

>  <SCORE.SYSTEM.DIHEDRAL>
0

>  <SCORE.SYSTEM.SOLV>
0

>  <SCORE.SYSTEM.norm>
0

>  <SCORE.heavy>
46

>  <SCORE.norm>
-0.93059

>  <RMSD>
2.081

$$$$
ligand
 OpenBabel02271912143D
libRbt.so/2013.1/901 2013/11/27
 46 52  0  0  0  0  0  0  0  0999 V2000
  159.8312   46.0061  143.6207 P   0  0  1  0  0  0  0  0  0  0  0  0
  159.5881   41.6944  147.3330 P   0  0  1  0  0  0  0  0  0  0  0  0
  158.9918   45.8377  142.3805 O   0  5  0  0  0  0  0  0  0  0  0  0
  160.4658   47.3631  143.8336 O   0  0  0  0  0  0  0  0  0  0  0  0
  158.9831   46.2995  146.1095 C   0  0  0  0  0  0  0  0  0  0  0  0
  158.9482   45.5681  144.8910 O   0  0  0  0  0  0  0  0  0  0  0  0
  158.3865   45.4675  147.2327 C   0  0  1  0  0  0  0  0  0  0  0  0
  157.0766   45.9525  147.4909 O   0  0  0  0  0  0  0  0  0  0  0  0
  158.2403   43.9787  146.9445 C   0  0  1  0  0  0  0  0  0  0  0  0
  159.2612   43.2587  147.6197 O   0  0  0  0  0  0  0  0  0  0  0  0
  156.9156   43.6248  147.5823 C   0  0  1  0  0  0  0  0  0  0  0  0
  157.1268   43.2291  148.9390 O   0  0  0  0  0  0  0  0  0  0  0  0
  156.1294   44.9031  147.6190 C   0  0  2  0  0  0  0  0  0  0  0  0
  160.7766   41.5713  142.0449 C   0  0  1  0  0  0  0  0  0  0  0  0
  155.1077   47.0651  142.9469 N   0  0  0  0  0  0  0  0  0  0  0  0
  156.1111   47.3045  143.8123 C   0  0  1  0  0  0  0  0  0  0  0  0
  160.4344   43.0466  142.0454 C   0  0  2  0  0  0  0  0  0  0  0  0
  157.0417   48.2333  143.4984 N   0  0  0  0  0  0  0  0  0  0  0  0
  161.4000   43.7113  141.2259 O   0  0  0  0  0  0  0  0  0  0  0  0
  160.5585   43.4881  143.4917 C   0  0  2  0  0  0  0  0  0  0  0  0
  156.2452   46.6648  144.9962 N   0  0  0  0  0  0  0  0  0  0  0  0
  160.9588   44.8542  143.5905 O   0  0  0  0  0  0  0  0  0  0  0  0
  155.3547   45.7264  145.3828 C   0  0  2  0  0  0  0  0  0  0  0  0
  161.6200   42.5331  144.0329 C   0  0  2  0  0  0  0  0  0  0  0  0
  161.5927   41.3705  143.2020 O   0  0  0  0  0  0  0  0  0  0  0  0
  154.2342   45.4156  144.4896 C   0  0  2  0  0  0  0  0  0  0  0  0
  161.4325   42.1154  145.4948 C   0  0  0  0  0  0  0  0  0  0  0  0
  160.0950   41.7222  145.7995 O   0  0  0  0  0  0  0  0  0  0  0  0
  154.1525   46.1566  143.2089 C   0  0  0  0  0  0  0  0  0  0  0  0
  153.2165   45.9291  142.4051 O   0  0  0  0  0  0  0  0  0  0  0  0
  153.5118   44.4677  145.1127 N   0  0  0  0  0  0  0  0  0  0  0  0
  154.1123   44.1922  146.2954 C   0  0  0  0  0  0  0  0  0  0  0  0
  155.2144   44.9455  146.4538 N   0  0  1  0  0  0  0  0  0  0  0  0
  156.1492   40.1957  139.9637 N   0  0  0  0  0  0  0  0  0  0  0  0
  160.7504   41.3354  148.2396 O   0  5  0  0  0  0  0  0  0  0  0  0
  157.1017   41.0089  139.4819 C   0  0  2  0  0  0  0  0  0  0  0  0
  156.8814   41.5787  138.2877 N   0  0  0  0  0  0  0  0  0  0  0  0
  158.3025   40.9045  147.3701 O   0  0  0  0  0  0  0  0  0  0  0  0
  158.2589   41.2748  140.1319 N   0  0  0  0  0  0  0  0  0  0  0  0
  158.5177   40.7157  141.3326 C   0  0  1  0  0  0  0  0  0  0  0  0
  157.5079   39.8112  141.9180 C   0  0  1  0  0  0  0  0  0  0  0  0
  156.2705   39.5667  141.1338 C   0  0  0  0  0  0  0  0  0  0  0  0
  155.3540   38.8228  141.5446 O   0  0  0  0  0  0  0  0  0  0  0  0
  158.0079   39.3946  143.0922 N   0  0  0  0  0  0  0  0  0  0  0  0
  159.2251   39.9870  143.2427 C   0  0  0  0  0  0  0  0  0  0  0  0
  159.5339   40.7739  142.1930 N   0  0  2  0  0  0  0  0  0  0  0  0
  1  3  1  6  0  0  0
  1  4  2  0  0  0  0
  1  6  1  0  0  0  0
  1 22  1  0  0  0  0
  2 28  1  0  0  0  0
  2 35  1  1  0  0  0
  2 38  2  0  0  0  0
  2 10  1  0  0  0  0
  5  6  1  0  0  0  0
  7  5  1  6  0  0  0
  7  8  1  0  0  0  0
  7  9  1  0  0  0  0
  9 10  1  1  0  0  0
  9 11  1  0  0  0  0
 11 12  1  1  0  0  0
 11 13  1  0  0  0  0
 13  8  1  6  0  0  0
 13 33  1  0  0  0  0
 14 46  1  0  0  0  0
 14 17  1  0  0  0  0
 14 25  1  1  0  0  0
 15 16  1  0  0  0  0
 15 29  1  0  0  0  0
 16 18  1  1  0  0  0
 16 21  1  0  0  0  0
 17 19  1  6  0  0  0
 17 20  1  0  0  0  0
 20 22  1  6  0  0  0
 20 24  1  0  0  0  0
 23 21  1  1  0  0  0
 23 26  1  0  0  0  0
 23 33  1  0  0  0  0
 24 25  1  6  0  0  0
 24 27  1  0  0  0  0
 26 29  1  1  0  0  0
 26 31  1  0  0  0  0
 27 28  1  0  0  0  0
 29 30  2  0  0  0  0
 31 32  1  0  0  0  0
 33 32  1  6  0  0  0
 34 36  1  0  0  0  0
 34 42  1  0  0  0  0
 36 37  1  6  0  0  0
 36 39  1  0  0  0  0
 40 39  1  6  0  0  0
 40 41  1  0  0  0  0
 40 46  1  0  0  0  0
 41 42  1  6  0  0  0
 41 44  1  0  0  0  0
 42 43  2  0  0  0  0
 44 45  1  0  0  0  0
 46 45  1  1  0  0  0
M  CHG  2   3  -1  35  -1
M  END
>  <CHROM.1>
7.69256544,64.16636150,158.09516342,43.49433245,144.23068529,-1.92426265
0.67474788,-2.16212806

>  <Name>
ligand

>  <RI>
0

>  <Rbt.Current_Directory>
/home/itssahil/PROJECTS/Mol_Feturizer/Test_systems_manuscript/rnas/4yb0

>  <Rbt.Executable>
rbdock ($Id: //depot/dev/client3/rdock/2013.1/src/exe/rbdock.cxx#4 $)

>  <Rbt.Library>
libRbt.so (2013.1, Build901 2013/11/27)

>  <Rbt.Parameter_File>
/export/apps/rDock/src/rDock_2013.1_src/data/scripts/dock_solv.prm

>  <Rbt.Receptor>
prm/pocket_docking_2.prm

>  <SCORE>
-39.0072

>  <SCORE.INTER>
-43.15

>  <SCORE.INTER.CONST>
1

>  <SCORE.INTER.POLAR>
0

>  <SCORE.INTER.ROT>
2

>  <SCORE.INTER.SOLV>
32.4349

>  <SCORE.INTER.VDW>
-44.5116

>  <SCORE.INTER.norm>
-0.938043

>  <SCORE.INTRA>
1.79897

>  <SCORE.INTRA.DIHEDRAL>
-0.0376979

>  <SCORE.INTRA.DIHEDRAL.0>
2.42188

>  <SCORE.INTRA.POLAR>
0

>  <SCORE.INTRA.POLAR.0>
0

>  <SCORE.INTRA.REPUL>
0

>  <SCORE.INTRA.REPUL.0>
0

>  <SCORE.INTRA.SOLV>
6.51345

>  <SCORE.INTRA.SOLV.lig_0>
-127.307

>  <SCORE.INTRA.VDW>
-1.4389

>  <SCORE.INTRA.VDW.0>
-2.19936

>  <SCORE.INTRA.norm>
0.0391081

>  <SCORE.RESTR>
2.34384

>  <SCORE.RESTR.CAVITY>
2.34384

>  <SCORE.RESTR.norm>
0.050953

>  <SCORE.SYSTEM>
0

>  <SCORE.SYSTEM.CONST>
0

>  <SCORE.SYSTEM.DIHEDRAL>
0

>  <SCORE.SYSTEM.SOLV>
0

>  <SCORE.SYSTEM.norm>
0

>  <SCORE.heavy>
46

>  <SCORE.norm>
-0.847982

>  <RMSD>
2.085

$$$$
ligand
 OpenBabel02271912143D
libRbt.so/2013.1/901 2013/11/27
 46 52  0  0  0  0  0  0  0  0999 V2000
  159.8357   46.0159  143.6276 P   0  0  1  0  0  0  0  0  0  0  0  0
  159.6084   41.6818  147.3147 P   0  0  1  0  0  0  0  0  0  0  0  0
  158.9964   45.8519  142.3867 O   0  5  0  0  0  0  0  0  0  0  0  0
  160.4659   47.3738  143.8481 O   0  0  0  0  0  0  0  0  0  0  0  0
  158.9876   46.2920  146.1183 C   0  0  0  0  0  0  0  0  0  0  0  0
  158.9547   45.5675  144.8956 O   0  0  0  0  0  0  0  0  0  0  0  0
  158.3942   45.4514  147.2368 C   0  0  1  0  0  0  0  0  0  0  0  0
  157.0827   45.9305  147.4983 O   0  0  0  0  0  0  0  0  0  0  0  0
  158.2528   43.9638  146.9400 C   0  0  1  0  0  0  0  0  0  0  0  0
  159.2763   43.2433  147.6106 O   0  0  0  0  0  0  0  0  0  0  0  0
  156.9295   43.6018  147.5762 C   0  0  1  0  0  0  0  0  0  0  0  0
  157.1426   43.1989  148.9305 O   0  0  0  0  0  0  0  0  0  0  0  0
  156.1392   44.8773  147.6207 C   0  0  2  0  0  0  0  0  0  0  0  0
  160.7954   41.5935  142.0256 C   0  0  1  0  0  0  0  0  0  0  0  0
  155.1187   47.0496  142.9531 N   0  0  0  0  0  0  0  0  0  0  0  0
  156.1230   47.2856  143.8183 C   0  0  1  0  0  0  0  0  0  0  0  0
  160.4482   43.0676  142.0348 C   0  0  2  0  0  0  0  0  0  0  0  0
  157.0551   48.2133  143.5056 N   0  0  0  0  0  0  0  0  0  0  0  0
  161.4113   43.7403  141.2188 O   0  0  0  0  0  0  0  0  0  0  0  0
  160.5713   43.5012  143.4836 C   0  0  2  0  0  0  0  0  0  0  0  0
  156.2566   46.6435  145.0010 N   0  0  0  0  0  0  0  0  0  0  0  0
  160.9671   44.8680  143.5902 O   0  0  0  0  0  0  0  0  0  0  0  0
  155.3646   45.7060  145.3864 C   0  0  2  0  0  0  0  0  0  0  0  0
  161.6362   42.5465  144.0189 C   0  0  2  0  0  0  0  0  0  0  0  0
  161.6126   41.3887  143.1812 O   0  0  0  0  0  0  0  0  0  0  0  0
  154.2431   45.3988  144.4932 C   0  0  2  0  0  0  0  0  0  0  0  0
  161.4507   42.1196  145.4783 C   0  0  0  0  0  0  0  0  0  0  0  0
  160.1146   41.7202  145.7812 O   0  0  0  0  0  0  0  0  0  0  0  0
  154.1620   46.1423  143.2139 C   0  0  0  0  0  0  0  0  0  0  0  0
  153.2251   45.9179  142.4102 O   0  0  0  0  0  0  0  0  0  0  0  0
  153.5194   44.4510  145.1150 N   0  0  0  0  0  0  0  0  0  0  0  0
  154.1200   44.1723  146.2969 C   0  0  0  0  0  0  0  0  0  0  0  0
  155.2236   44.9234  146.4560 N   0  0  1  0  0  0  0  0  0  0  0  0
  156.1814   40.1979  139.9278 N   0  0  0  0  0  0  0  0  0  0  0  0
  160.7722   41.3214  148.2188 O   0  5  0  0  0  0  0  0  0  0  0  0
  157.1324   41.0148  139.4491 C   0  0  2  0  0  0  0  0  0  0  0  0
  156.9142   41.5831  138.2538 N   0  0  0  0  0  0  0  0  0  0  0  0
  158.3254   40.8874  147.3477 O   0  0  0  0  0  0  0  0  0  0  0  0
  158.2861   41.2857  140.1033 N   0  0  0  0  0  0  0  0  0  0  0  0
  158.5426   40.7283  141.3053 C   0  0  1  0  0  0  0  0  0  0  0  0
  157.5343   39.8200  141.8874 C   0  0  1  0  0  0  0  0  0  0  0  0
  156.3009   39.5700  141.0987 C   0  0  0  0  0  0  0  0  0  0  0  0
  155.3859   38.8227  141.5064 O   0  0  0  0  0  0  0  0  0  0  0  0
  158.0316   39.4061  143.0637 N   0  0  0  0  0  0  0  0  0  0  0  0
  159.2458   40.0035  143.2185 C   0  0  0  0  0  0  0  0  0  0  0  0
  159.5554   40.7911  142.1694 N   0  0  2  0  0  0  0  0  0  0  0  0
  1  3  1  6  0  0  0
  1  4  2  0  0  0  0
  1  6  1  0  0  0  0
  1 22  1  0  0  0  0
  2 28  1  0  0  0  0
  2 35  1  1  0  0  0
  2 38  2  0  0  0  0
  2 10  1  0  0  0  0
  5  6  1  0  0  0  0
  7  5  1  6  0  0  0
  7  8  1  0  0  0  0
  7  9  1  0  0  0  0
  9 10  1  1  0  0  0
  9 11  1  0  0  0  0
 11 12  1  1  0  0  0
 11 13  1  0  0  0  0
 13  8  1  6  0  0  0
 13 33  1  0  0  0  0
 14 46  1  0  0  0  0
 14 17  1  0  0  0  0
 14 25  1  1  0  0  0
 15 16  1  0  0  0  0
 15 29  1  0  0  0  0
 16 18  1  1  0  0  0
 16 21  1  0  0  0  0
 17 19  1  6  0  0  0
 17 20  1  0  0  0  0
 20 22  1  6  0  0  0
 20 24  1  0  0  0  0
 23 21  1  1  0  0  0
 23 26  1  0  0  0  0
 23 33  1  0  0  0  0
 24 25  1  6  0  0  0
 24 27  1  0  0  0  0
 26 29  1  1  0  0  0
 26 31  1  0  0  0  0
 27 28  1  0  0  0  0
 29 30  2  0  0  0  0
 31 32  1  0  0  0  0
 33 32  1  6  0  0  0
 34 36  1  0  0  0  0
 34 42  1  0  0  0  0
 36 37  1  6  0  0  0
 36 39  1  0  0  0  0
 40 39  1  6  0  0  0
 40 41  1  0  0  0  0
 40 46  1  0  0  0  0
 41 42  1  6  0  0  0
 41 44  1  0  0  0  0
 42 43  2  0  0  0  0
 44 45  1  0  0  0  0
 46 45  1  1  0  0  0
M  CHG  2   3  -1  35  -1
M  END
>  <CHROM.1>
8.06480532,64.60295943,158.11045704,43.49152463,144.22143611,-1.92039738
0.67144960,-2.15485783

>  <Name>
ligand

>  <RI>
0

>  <Rbt.Current_Directory>
/home/itssahil/PROJECTS/Mol_Feturizer/Test_systems_manuscript/rnas/4yb0

>  <Rbt.Executable>
rbdock ($Id: //depot/dev/client3/rdock/2013.1/src/exe/rbdock.cxx#4 $)

>  <Rbt.Library>
libRbt.so (2013.1, Build901 2013/11/27)

>  <Rbt.Parameter_File>
/export/apps/rDock/src/rDock_2013.1_src/data/scripts/dock_solv.prm

>  <Rbt.Receptor>
prm/pocket_docking_2.prm

>  <SCORE>
-39.0757

>  <SCORE.INTER>
-43.2702

>  <SCORE.INTER.CONST>
1

>  <SCORE.INTER.POLAR>
0

>  <SCORE.INTER.ROT>
2

>  <SCORE.INTER.SOLV>
32.5246

>  <SCORE.INTER.VDW>
-44.6217

>  <SCORE.INTER.norm>
-0.940656

>  <SCORE.INTRA>
1.85023

>  <SCORE.INTRA.DIHEDRAL>
-0.0387749

>  <SCORE.INTRA.DIHEDRAL.0>
2.42188

>  <SCORE.INTRA.POLAR>
0

>  <SCORE.INTRA.POLAR.0>
0

>  <SCORE.INTRA.REPUL>
0

>  <SCORE.INTRA.REPUL.0>
0

>  <SCORE.INTRA.SOLV>
6.65284

>  <SCORE.INTRA.SOLV.lig_0>
-127.307

>  <SCORE.INTRA.VDW>
-1.4568

>  <SCORE.INTRA.VDW.0>
-2.19936

>  <SCORE.INTRA.norm>
0.0402224

>  <SCORE.RESTR>
2.34428

>  <SCORE.RESTR.CAVITY>
2.34428

>  <SCORE.RESTR.norm>
0.0509625

>  <SCORE.SYSTEM>
0

>  <SCORE.SYSTEM.CONST>
0

>  <SCORE.SYSTEM.DIHEDRAL>
0

>  <SCORE.SYSTEM.SOLV>
0

>  <SCORE.SYSTEM.norm>
0

>  <SCORE.heavy>
46

>  <SCORE.norm>
-0.849471

>  <RMSD>
2.088

$$$$
ligand
 OpenBabel02271912143D
libRbt.so/2013.1/901 2013/11/27
 46 52  0  0  0  0  0  0  0  0999 V2000
  160.0149   46.0210  143.6446 P   0  0  1  0  0  0  0  0  0  0  0  0
  159.6025   41.7304  147.3664 P   0  0  1  0  0  0  0  0  0  0  0  0
  159.1870   45.8723  142.3942 O   0  5  0  0  0  0  0  0  0  0  0  0
  160.6849   47.3603  143.8616 O   0  0  0  0  0  0  0  0  0  0  0  0
  159.1437   46.3467  146.1214 C   0  0  0  0  0  0  0  0  0  0  0  0
  159.1037   45.6124  144.9047 O   0  0  0  0  0  0  0  0  0  0  0  0
  158.5095   45.5356  147.2393 C   0  0  1  0  0  0  0  0  0  0  0  0
  157.2106   46.0583  147.4792 O   0  0  0  0  0  0  0  0  0  0  0  0
  158.3249   44.0506  146.9537 C   0  0  1  0  0  0  0  0  0  0  0  0
  159.3163   43.3043  147.6441 O   0  0  0  0  0  0  0  0  0  0  0  0
  156.9827   43.7364  147.5754 C   0  0  1  0  0  0  0  0  0  0  0  0
  157.1653   43.3394  148.9360 O   0  0  0  0  0  0  0  0  0  0  0  0
  156.2326   45.0365  147.5982 C   0  0  2  0  0  0  0  0  0  0  0  0
  160.8546   41.5561  142.0945 C   0  0  1  0  0  0  0  0  0  0  0  0
  154.8651   47.7049  143.2905 N   0  0  0  0  0  0  0  0  0  0  0  0
  155.8008   47.9784  144.2193 C   0  0  1  0  0  0  0  0  0  0  0  0
  160.5543   43.0404  142.0861 C   0  0  2  0  0  0  0  0  0  0  0  0
  156.5468   49.0983  144.0903 N   0  0  0  0  0  0  0  0  0  0  0  0
  161.5487   43.6748  141.2771 O   0  0  0  0  0  0  0  0  0  0  0  0
  160.6723   43.4831  143.5325 C   0  0  2  0  0  0  0  0  0  0  0  0
  156.0416   47.1905  145.2918 N   0  0  0  0  0  0  0  0  0  0  0  0
  161.1098   44.8377  143.6324 O   0  0  0  0  0  0  0  0  0  0  0  0
  155.3362   46.0569  145.4925 C   0  0  2  0  0  0  0  0  0  0  0  0
  161.6994   42.5003  144.0903 C   0  0  2  0  0  0  0  0  0  0  0  0
  161.6499   41.3362  143.2625 O   0  0  0  0  0  0  0  0  0  0  0  0
  154.2988   45.6975  144.5206 C   0  0  2  0  0  0  0  0  0  0  0  0
  161.4815   42.0929  145.5508 C   0  0  0  0  0  0  0  0  0  0  0  0
  160.1296   41.7387  145.8394 O   0  0  0  0  0  0  0  0  0  0  0  0
  154.0916   46.6087  143.3705 C   0  0  0  0  0  0  0  0  0  0  0  0
  153.2195   46.3489  142.5068 O   0  0  0  0  0  0  0  0  0  0  0  0
  153.7587   44.5466  144.9595 N   0  0  0  0  0  0  0  0  0  0  0  0
  154.3908   44.1965  146.1054 C   0  0  0  0  0  0  0  0  0  0  0  0
  155.3342   45.1008  146.4212 N   0  0  1  0  0  0  0  0  0  0  0  0
  156.2005   40.3355  139.9762 N   0  0  0  0  0  0  0  0  0  0  0  0
  160.7425   41.3418  148.2890 O   0  5  0  0  0  0  0  0  0  0  0  0
  157.1795   41.1242  139.5066 C   0  0  2  0  0  0  0  0  0  0  0  0
  156.9829   41.7103  138.3162 N   0  0  0  0  0  0  0  0  0  0  0  0
  158.2947   40.9773  147.3893 O   0  0  0  0  0  0  0  0  0  0  0  0
  158.3403   41.3502  140.1652 N   0  0  0  0  0  0  0  0  0  0  0  0
  158.5755   40.7737  141.3625 C   0  0  1  0  0  0  0  0  0  0  0  0
  157.5361   39.8946  141.9346 C   0  0  1  0  0  0  0  0  0  0  0  0
  156.2966   39.6934  141.1416 C   0  0  0  0  0  0  0  0  0  0  0  0
  155.3561   38.9736  141.5409 O   0  0  0  0  0  0  0  0  0  0  0  0
  158.0168   39.4536  143.1079 N   0  0  0  0  0  0  0  0  0  0  0  0
  159.2502   40.0084  143.2702 C   0  0  0  0  0  0  0  0  0  0  0  0
  159.5881   40.7945  142.2289 N   0  0  2  0  0  0  0  0  0  0  0  0
  1  3  1  6  0  0  0
  1  4  2  0  0  0  0
  1  6  1  0  0  0  0
  1 22  1  0  0  0  0
  2 28  1  0  0  0  0
  2 35  1  1  0  0  0
  2 38  2  0  0  0  0
  2 10  1  0  0  0  0
  5  6  1  0  0  0  0
  7  5  1  6  0  0  0
  7  8  1  0  0  0  0
  7  9  1  0  0  0  0
  9 10  1  1  0  0  0
  9 11  1  0  0  0  0
 11 12  1  1  0  0  0
 11 13  1  0  0  0  0
 13  8  1  6  0  0  0
 13 33  1  0  0  0  0
 14 46  1  0  0  0  0
 14 17  1  0  0  0  0
 14 25  1  1  0  0  0
 15 16  1  0  0  0  0
 15 29  1  0  0  0  0
 16 18  1  1  0  0  0
 16 21  1  0  0  0  0
 17 19  1  6  0  0  0
 17 20  1  0  0  0  0
 20 22  1  6  0  0  0
 20 24  1  0  0  0  0
 23 21  1  1  0  0  0
 23 26  1  0  0  0  0
 23 33  1  0  0  0  0
 24 25  1  6  0  0  0
 24 27  1  0  0  0  0
 26 29  1  1  0  0  0
 26 31  1  0  0  0  0
 27 28  1  0  0  0  0
 29 30  2  0  0  0  0
 31 32  1  0  0  0  0
 33 32  1  6  0  0  0
 34 36  1  0  0  0  0
 34 42  1  0  0  0  0
 36 37  1  6  0  0  0
 36 39  1  0  0  0  0
 40 39  1  6  0  0  0
 40 41  1  0  0  0  0
 40 46  1  0  0  0  0
 41 42  1  6  0  0  0
 41 44  1  0  0  0  0
 42 43  2  0  0  0  0
 44 45  1  0  0  0  0
 46 45  1  1  0  0  0
M  CHG  2   3  -1  35  -1
M  END
>  <CHROM.1>
-7.70857471,63.37696193,158.14834908,43.61862401,144.28339939,-2.05319125
0.70033980,-2.18878002

>  <Name>
ligand

>  <RI>
0

>  <Rbt.Current_Directory>
/home/itssahil/PROJECTS/Mol_Feturizer/Test_systems_manuscript/rnas/4yb0

>  <Rbt.Executable>
rbdock ($Id: //depot/dev/client3/rdock/2013.1/src/exe/rbdock.cxx#4 $)

>  <Rbt.Library>
libRbt.so (2013.1, Build901 2013/11/27)

>  <Rbt.Parameter_File>
/export/apps/rDock/src/rDock_2013.1_src/data/scripts/dock_solv.prm

>  <Rbt.Receptor>
prm/pocket_docking_6.prm

>  <SCORE>
-43.6966

>  <SCORE.INTER>
-43.3742

>  <SCORE.INTER.CONST>
1

>  <SCORE.INTER.POLAR>
0

>  <SCORE.INTER.ROT>
2

>  <SCORE.INTER.SOLV>
33.8065

>  <SCORE.INTER.VDW>
-45.1183

>  <SCORE.INTER.norm>
-0.942917

>  <SCORE.INTRA>
-0.322426

>  <SCORE.INTRA.DIHEDRAL>
-0.0185214

>  <SCORE.INTRA.DIHEDRAL.0>
2.42188

>  <SCORE.INTRA.POLAR>
0

>  <SCORE.INTRA.POLAR.0>
0

>  <SCORE.INTRA.REPUL>
0

>  <SCORE.INTRA.REPUL.0>
0

>  <SCORE.INTRA.SOLV>
0.529539

>  <SCORE.INTRA.SOLV.lig_0>
-127.307

>  <SCORE.INTRA.VDW>
-0.577935

>  <SCORE.INTRA.VDW.0>
-2.19936

>  <SCORE.INTRA.norm>
-0.00700927

>  <SCORE.RESTR>
0

>  <SCORE.RESTR.CAVITY>
0

>  <SCORE.RESTR.norm>
0

>  <SCORE.SYSTEM>
0

>  <SCORE.SYSTEM.CONST>
0

>  <SCORE.SYSTEM.DIHEDRAL>
0

>  <SCORE.SYSTEM.SOLV>
0

>  <SCORE.SYSTEM.norm>
0

>  <SCORE.heavy>
46

>  <SCORE.norm>
-0.949926

>  <RMSD>
2.103

$$$$
ligand
 OpenBabel02271912143D
libRbt.so/2013.1/901 2013/11/27
 46 52  0  0  0  0  0  0  0  0999 V2000
  159.9781   45.9107  143.5964 P   0  0  1  0  0  0  0  0  0  0  0  0
  159.5389   41.6740  147.3764 P   0  0  1  0  0  0  0  0  0  0  0  0
  159.1371   45.7578  142.3553 O   0  5  0  0  0  0  0  0  0  0  0  0
  160.6688   47.2429  143.7903 O   0  0  0  0  0  0  0  0  0  0  0  0
  159.1339   46.2801  146.0764 C   0  0  0  0  0  0  0  0  0  0  0  0
  159.0727   45.5310  144.8696 O   0  0  0  0  0  0  0  0  0  0  0  0
  158.4984   45.4923  147.2101 C   0  0  1  0  0  0  0  0  0  0  0  0
  157.2092   46.0364  147.4547 O   0  0  0  0  0  0  0  0  0  0  0  0
  158.2904   44.0066  146.9452 C   0  0  1  0  0  0  0  0  0  0  0  0
  159.2774   43.2551  147.6364 O   0  0  0  0  0  0  0  0  0  0  0  0
  156.9495   43.7194  147.5828 C   0  0  1  0  0  0  0  0  0  0  0  0
  157.1387   43.3372  148.9466 O   0  0  0  0  0  0  0  0  0  0  0  0
  156.2181   45.0302  147.5955 C   0  0  2  0  0  0  0  0  0  0  0  0
  160.7410   41.4149  142.0963 C   0  0  1  0  0  0  0  0  0  0  0  0
  154.8353   47.6745  143.2778 N   0  0  0  0  0  0  0  0  0  0  0  0
  155.7812   47.9479  144.1963 C   0  0  1  0  0  0  0  0  0  0  0  0
  160.4615   42.9031  142.0716 C   0  0  2  0  0  0  0  0  0  0  0  0
  156.5351   49.0605  144.0517 N   0  0  0  0  0  0  0  0  0  0  0  0
  161.4574   43.5130  141.2458 O   0  0  0  0  0  0  0  0  0  0  0  0
  160.5987   43.3625  143.5111 C   0  0  2  0  0  0  0  0  0  0  0  0
  156.0247   47.1668  145.2731 N   0  0  0  0  0  0  0  0  0  0  0  0
  161.0561   44.7118  143.5897 O   0  0  0  0  0  0  0  0  0  0  0  0
  155.3119   46.0407  145.4892 C   0  0  2  0  0  0  0  0  0  0  0  0
  161.6168   42.3723  144.0724 C   0  0  2  0  0  0  0  0  0  0  0  0
  161.5435   41.1986  143.2601 O   0  0  0  0  0  0  0  0  0  0  0  0
  154.2633   45.6819  144.5292 C   0  0  2  0  0  0  0  0  0  0  0  0
  161.4063   41.9867  145.5399 C   0  0  0  0  0  0  0  0  0  0  0  0
  160.0522   41.6554  145.8449 O   0  0  0  0  0  0  0  0  0  0  0  0
  154.0536   46.5854  143.3734 C   0  0  0  0  0  0  0  0  0  0  0  0
  153.1720   46.3258  142.5194 O   0  0  0  0  0  0  0  0  0  0  0  0
  153.7176   44.5392  144.9821 N   0  0  0  0  0  0  0  0  0  0  0  0
  154.3566   44.1933  146.1254 C   0  0  0  0  0  0  0  0  0  0  0  0
  155.3100   45.0923  146.4257 N   0  0  1  0  0  0  0  0  0  0  0  0
  156.0436   40.2487  140.0439 N   0  0  0  0  0  0  0  0  0  0  0  0
  160.6815   41.2810  148.2939 O   0  5  0  0  0  0  0  0  0  0  0  0
  157.0282   41.0195  139.5567 C   0  0  2  0  0  0  0  0  0  0  0  0
  156.8257   41.6001  138.3646 N   0  0  0  0  0  0  0  0  0  0  0  0
  158.2208   40.9398  147.4205 O   0  0  0  0  0  0  0  0  0  0  0  0
  158.2002   41.2329  140.1994 N   0  0  0  0  0  0  0  0  0  0  0  0
  158.4417   40.6613  141.3979 C   0  0  1  0  0  0  0  0  0  0  0  0
  157.3965   39.8017  141.9889 C   0  0  1  0  0  0  0  0  0  0  0  0
  156.1445   39.6134  141.2126 C   0  0  0  0  0  0  0  0  0  0  0  0
  155.1985   38.9104  141.6285 O   0  0  0  0  0  0  0  0  0  0  0  0
  157.8852   39.3618  143.1594 N   0  0  0  0  0  0  0  0  0  0  0  0
  159.1285   39.8994  143.3026 C   0  0  0  0  0  0  0  0  0  0  0  0
  159.4651   40.6731  142.2516 N   0  0  2  0  0  0  0  0  0  0  0  0
  1  3  1  6  0  0  0
  1  4  2  0  0  0  0
  1  6  1  0  0  0  0
  1 22  1  0  0  0  0
  2 28  1  0  0  0  0
  2 35  1  1  0  0  0
  2 38  2  0  0  0  0
  2 10  1  0  0  0  0
  5  6  1  0  0  0  0
  7  5  1  6  0  0  0
  7  8  1  0  0  0  0
  7  9  1  0  0  0  0
  9 10  1  1  0  0  0
  9 11  1  0  0  0  0
 11 12  1  1  0  0  0
 11 13  1  0  0  0  0
 13  8  1  6  0  0  0
 13 33  1  0  0  0  0
 14 46  1  0  0  0  0
 14 17  1  0  0  0  0
 14 25  1  1  0  0  0
 15 16  1  0  0  0  0
 15 29  1  0  0  0  0
 16 18  1  1  0  0  0
 16 21  1  0  0  0  0
 17 19  1  6  0  0  0
 17 20  1  0  0  0  0
 20 22  1  6  0  0  0
 20 24  1  0  0  0  0
 23 21  1  1  0  0  0
 23 26  1  0  0  0  0
 23 33  1  0  0  0  0
 24 25  1  6  0  0  0
 24 27  1  0  0  0  0
 26 29  1  1  0  0  0
 26 31  1  0  0  0  0
 27 28  1  0  0  0  0
 29 30  2  0  0  0  0
 31 32  1  0  0  0  0
 33 32  1  6  0  0  0
 34 36  1  0  0  0  0
 34 42  1  0  0  0  0
 36 37  1  6  0  0  0
 36 39  1  0  0  0  0
 40 39  1  6  0  0  0
 40 41  1  0  0  0  0
 40 46  1  0  0  0  0
 41 42  1  6  0  0  0
 41 44  1  0  0  0  0
 42 43  2  0  0  0  0
 44 45  1  0  0  0  0
 46 45  1  1  0  0  0
M  CHG  2   3  -1  35  -1
M  END
>  <CHROM.1>
-8.13904281,62.99557864,158.08138155,43.54620022,144.28462629,-2.03893070
0.70568004,-2.21484580

>  <Name>
ligand

>  <RI>
0

>  <Rbt.Current_Directory>
/home/itssahil/PROJECTS/Mol_Feturizer/Test_systems_manuscript/rnas/4yb0

>  <Rbt.Executable>
rbdock ($Id: //depot/dev/client3/rdock/2013.1/src/exe/rbdock.cxx#4 $)

>  <Rbt.Library>
libRbt.so (2013.1, Build901 2013/11/27)

>  <Rbt.Parameter_File>
/export/apps/rDock/src/rDock_2013.1_src/data/scripts/dock_solv.prm

>  <Rbt.Receptor>
prm/pocket_docking_5.prm

>  <SCORE>
-43.515

>  <SCORE.INTER>
-43.1987

>  <SCORE.INTER.CONST>
1

>  <SCORE.INTER.POLAR>
0

>  <SCORE.INTER.ROT>
2

>  <SCORE.INTER.SOLV>
34.5201

>  <SCORE.INTER.VDW>
-45.2391

>  <SCORE.INTER.norm>
-0.939101

>  <SCORE.INTRA>
-0.316389

>  <SCORE.INTRA.DIHEDRAL>
-0.0174642

>  <SCORE.INTRA.DIHEDRAL.0>
2.42188

>  <SCORE.INTRA.POLAR>
0

>  <SCORE.INTRA.POLAR.0>
0

>  <SCORE.INTRA.REPUL>
0

>  <SCORE.INTRA.REPUL.0>
0

>  <SCORE.INTRA.SOLV>
0.502138

>  <SCORE.INTRA.SOLV.lig_0>
-127.307

>  <SCORE.INTRA.VDW>
-0.558726

>  <SCORE.INTRA.VDW.0>
-2.19936

>  <SCORE.INTRA.norm>
-0.00687803

>  <SCORE.RESTR>
0

>  <SCORE.RESTR.CAVITY>
0

>  <SCORE.RESTR.norm>
0

>  <SCORE.SYSTEM>
0

>  <SCORE.SYSTEM.CONST>
0

>  <SCORE.SYSTEM.DIHEDRAL>
0

>  <SCORE.SYSTEM.SOLV>
0

>  <SCORE.SYSTEM.norm>
0

>  <SCORE.heavy>
46

>  <SCORE.norm>
-0.945979

>  <RMSD>
2.105

$$$$
ligand
 OpenBabel02271912143D
libRbt.so/2013.1/901 2013/11/27
 46 52  0  0  0  0  0  0  0  0999 V2000
  159.9420   45.8917  143.6121 P   0  0  1  0  0  0  0  0  0  0  0  0
  159.5399   41.6214  147.3583 P   0  0  1  0  0  0  0  0  0  0  0  0
  159.1055   45.7393  142.3678 O   0  5  0  0  0  0  0  0  0  0  0  0
  160.6178   47.2298  143.8178 O   0  0  0  0  0  0  0  0  0  0  0  0
  159.0882   46.2328  146.0928 C   0  0  0  0  0  0  0  0  0  0  0  0
  159.0378   45.4925  144.8802 O   0  0  0  0  0  0  0  0  0  0  0  0
  158.4586   45.4295  147.2189 C   0  0  1  0  0  0  0  0  0  0  0  0
  157.1631   45.9577  147.4646 O   0  0  0  0  0  0  0  0  0  0  0  0
  158.2673   43.9437  146.9421 C   0  0  1  0  0  0  0  0  0  0  0  0
  159.2607   43.1976  147.6298 O   0  0  0  0  0  0  0  0  0  0  0  0
  156.9281   43.6371  147.5742 C   0  0  1  0  0  0  0  0  0  0  0  0
  157.1183   43.2465  148.9355 O   0  0  0  0  0  0  0  0  0  0  0  0
  156.1825   44.9398  147.5953 C   0  0  2  0  0  0  0  0  0  0  0  0
  160.7569   41.4161  142.0792 C   0  0  1  0  0  0  0  0  0  0  0  0
  155.1205   47.2724  143.0151 N   0  0  0  0  0  0  0  0  0  0  0  0
  156.1068   47.5093  143.9006 C   0  0  1  0  0  0  0  0  0  0  0  0
  160.4614   42.9014  142.0653 C   0  0  2  0  0  0  0  0  0  0  0  0
  157.0046   48.4853  143.6384 N   0  0  0  0  0  0  0  0  0  0  0  0
  161.4525   43.5284  141.2466 O   0  0  0  0  0  0  0  0  0  0  0  0
  160.5903   43.3511  143.5086 C   0  0  2  0  0  0  0  0  0  0  0  0
  156.2546   46.8219  145.0558 N   0  0  0  0  0  0  0  0  0  0  0  0
  161.0329   44.7047  143.5987 O   0  0  0  0  0  0  0  0  0  0  0  0
  155.3966   45.8346  145.3906 C   0  0  2  0  0  0  0  0  0  0  0  0
  161.6178   42.3677  144.0646 C   0  0  2  0  0  0  0  0  0  0  0  0
  161.5590   41.1995  143.2432 O   0  0  0  0  0  0  0  0  0  0  0  0
  154.2963   45.5234  144.4728 C   0  0  2  0  0  0  0  0  0  0  0  0
  161.4081   41.9685  145.5287 C   0  0  0  0  0  0  0  0  0  0  0  0
  160.0570   41.6202  145.8279 O   0  0  0  0  0  0  0  0  0  0  0  0
  154.1978   46.3182  143.2260 C   0  0  0  0  0  0  0  0  0  0  0  0
  153.2779   46.0929  142.4032 O   0  0  0  0  0  0  0  0  0  0  0  0
  153.6046   44.5219  145.0452 N   0  0  0  0  0  0  0  0  0  0  0  0
  154.2048   44.2155  146.2203 C   0  0  0  0  0  0  0  0  0  0  0  0
  155.2766   45.0012  146.4238 N   0  0  1  0  0  0  0  0  0  0  0  0
  156.0693   40.2302  140.0159 N   0  0  0  0  0  0  0  0  0  0  0  0
  160.6847   41.2337  148.2754 O   0  5  0  0  0  0  0  0  0  0  0  0
  157.0454   41.0174  139.5382 C   0  0  2  0  0  0  0  0  0  0  0  0
  156.8357   41.6120  138.3542 N   0  0  0  0  0  0  0  0  0  0  0  0
  158.2298   40.8728  147.3936 O   0  0  0  0  0  0  0  0  0  0  0  0
  158.2160   41.2340  140.1826 N   0  0  0  0  0  0  0  0  0  0  0  0
  158.4646   40.6488  141.3729 C   0  0  1  0  0  0  0  0  0  0  0  0
  157.4288   39.7708  141.9534 C   0  0  1  0  0  0  0  0  0  0  0  0
  156.1779   39.5802  141.1758 C   0  0  0  0  0  0  0  0  0  0  0  0
  155.2395   38.8622  141.5832 O   0  0  0  0  0  0  0  0  0  0  0  0
  157.9232   39.3202  143.1173 N   0  0  0  0  0  0  0  0  0  0  0  0
  159.1611   39.8683  143.2666 C   0  0  0  0  0  0  0  0  0  0  0  0
  159.4887   40.6595  142.2258 N   0  0  2  0  0  0  0  0  0  0  0  0
  1  3  1  6  0  0  0
  1  4  2  0  0  0  0
  1  6  1  0  0  0  0
  1 22  1  0  0  0  0
  2 28  1  0  0  0  0
  2 35  1  1  0  0  0
  2 38  2  0  0  0  0
  2 10  1  0  0  0  0
  5  6  1  0  0  0  0
  7  5  1  6  0  0  0
  7  8  1  0  0  0  0
  7  9  1  0  0  0  0
  9 10  1  1  0  0  0
  9 11  1  0  0  0  0
 11 12  1  1  0  0  0
 11 13  1  0  0  0  0
 13  8  1  6  0  0  0
 13 33  1  0  0  0  0
 14 46  1  0  0  0  0
 14 17  1  0  0  0  0
 14 25  1  1  0  0  0
 15 16  1  0  0  0  0
 15 29  1  0  0  0  0
 16 18  1  1  0  0  0
 16 21  1  0  0  0  0
 17 19  1  6  0  0  0
 17 20  1  0  0  0  0
 20 22  1  6  0  0  0
 20 24  1  0  0  0  0
 23 21  1  1  0  0  0
 23 26  1  0  0  0  0
 23 33  1  0  0  0  0
 24 25  1  6  0  0  0
 24 27  1  0  0  0  0
 26 29  1  1  0  0  0
 26 31  1  0  0  0  0
 27 28  1  0  0  0  0
 29 30  2  0  0  0  0
 31 32  1  0  0  0  0
 33 32  1  6  0  0  0
 34 36  1  0  0  0  0
 34 42  1  0  0  0  0
 36 37  1  6  0  0  0
 36 39  1  0  0  0  0
 40 39  1  6  0  0  0
 40 41  1  0  0  0  0
 40 46  1  0  0  0  0
 41 42  1  6  0  0  0
 41 44  1  0  0  0  0
 42 43  2  0  0  0  0
 44 45  1  0  0  0  0
 46 45  1  1  0  0  0
M  CHG  2   3  -1  35  -1
M  END
>  <CHROM.1>
2.68933143,62.61082364,158.10537749,43.46730091,144.24815186,-1.96486213
0.70732617,-2.18746298

>  <Name>
ligand

>  <RI>
0

>  <Rbt.Current_Directory>
/home/itssahil/PROJECTS/Mol_Feturizer/Test_systems_manuscript/rnas/4yb0

>  <Rbt.Executable>
rbdock ($Id: //depot/dev/client3/rdock/2013.1/src/exe/rbdock.cxx#4 $)

>  <Rbt.Library>
libRbt.so (2013.1, Build901 2013/11/27)

>  <Rbt.Parameter_File>
/export/apps/rDock/src/rDock_2013.1_src/data/scripts/dock_solv.prm

>  <Rbt.Receptor>
prm/pocket_docking_2.prm

>  <SCORE>
-39.6167

>  <SCORE.INTER>
-43.2076

>  <SCORE.INTER.CONST>
1

>  <SCORE.INTER.POLAR>
0

>  <SCORE.INTER.ROT>
2

>  <SCORE.INTER.SOLV>
32.6307

>  <SCORE.INTER.VDW>
-44.6153

>  <SCORE.INTER.norm>
-0.939296

>  <SCORE.INTRA>
1.09644

>  <SCORE.INTRA.DIHEDRAL>
-0.029509

>  <SCORE.INTRA.DIHEDRAL.0>
2.42188

>  <SCORE.INTRA.POLAR>
0

>  <SCORE.INTRA.POLAR.0>
0

>  <SCORE.INTRA.REPUL>
0

>  <SCORE.INTRA.REPUL.0>
0

>  <SCORE.INTRA.SOLV>
4.54612

>  <SCORE.INTRA.SOLV.lig_0>
-127.307

>  <SCORE.INTRA.VDW>
-1.16186

>  <SCORE.INTRA.VDW.0>
-2.19936

>  <SCORE.INTRA.norm>
0.0238357

>  <SCORE.RESTR>
2.49444

>  <SCORE.RESTR.CAVITY>
2.49444

>  <SCORE.RESTR.norm>
0.0542269

>  <SCORE.SYSTEM>
0

>  <SCORE.SYSTEM.CONST>
0

>  <SCORE.SYSTEM.DIHEDRAL>
0

>  <SCORE.SYSTEM.SOLV>
0

>  <SCORE.SYSTEM.norm>
0

>  <SCORE.heavy>
46

>  <SCORE.norm>
-0.861234

>  <RMSD>
2.112

$$$$
ligand
 OpenBabel02271912143D
libRbt.so/2013.1/901 2013/11/27
 46 52  0  0  0  0  0  0  0  0999 V2000
  160.0234   45.8918  143.5960 P   0  0  1  0  0  0  0  0  0  0  0  0
  159.5653   41.6358  147.3520 P   0  0  1  0  0  0  0  0  0  0  0  0
  159.1852   45.7474  142.3519 O   0  5  0  0  0  0  0  0  0  0  0  0
  160.7164   47.2215  143.7988 O   0  0  0  0  0  0  0  0  0  0  0  0
  159.1736   46.2497  146.0757 C   0  0  0  0  0  0  0  0  0  0  0  0
  159.1138   45.5073  144.8648 O   0  0  0  0  0  0  0  0  0  0  0  0
  158.5335   45.4572  147.2036 C   0  0  1  0  0  0  0  0  0  0  0  0
  157.2448   46.0028  147.4478 O   0  0  0  0  0  0  0  0  0  0  0  0
  158.3230   43.9734  146.9302 C   0  0  1  0  0  0  0  0  0  0  0  0
  159.3065   43.2161  147.6199 O   0  0  0  0  0  0  0  0  0  0  0  0
  156.9798   43.6857  147.5627 C   0  0  1  0  0  0  0  0  0  0  0  0
  157.1647   43.2958  148.9250 O   0  0  0  0  0  0  0  0  0  0  0  0
  156.2511   44.9980  147.5806 C   0  0  2  0  0  0  0  0  0  0  0  0
  160.7805   41.4025  142.0737 C   0  0  1  0  0  0  0  0  0  0  0  0
  154.8633   47.6860  143.2917 N   0  0  0  0  0  0  0  0  0  0  0  0
  155.8044   47.9545  144.2164 C   0  0  1  0  0  0  0  0  0  0  0  0
  160.5042   42.8914  142.0562 C   0  0  2  0  0  0  0  0  0  0  0  0
  156.5511   49.0740  144.0879 N   0  0  0  0  0  0  0  0  0  0  0  0
  161.5036   43.5036  141.2363 O   0  0  0  0  0  0  0  0  0  0  0  0
  160.6387   43.3428  143.4986 C   0  0  2  0  0  0  0  0  0  0  0  0
  156.0501   47.1619  145.2842 N   0  0  0  0  0  0  0  0  0  0  0  0
  161.0988   44.6907  143.5856 O   0  0  0  0  0  0  0  0  0  0  0  0
  155.3444   46.0283  145.4841 C   0  0  2  0  0  0  0  0  0  0  0  0
  161.6532   42.3474  144.0571 C   0  0  2  0  0  0  0  0  0  0  0  0
  161.5795   41.1782  143.2383 O   0  0  0  0  0  0  0  0  0  0  0  0
  154.3012   45.6742  144.5165 C   0  0  2  0  0  0  0  0  0  0  0  0
  161.4382   41.9544  145.5220 C   0  0  0  0  0  0  0  0  0  0  0  0
  160.0826   41.6244  145.8217 O   0  0  0  0  0  0  0  0  0  0  0  0
  154.0888   46.5904  143.3714 C   0  0  0  0  0  0  0  0  0  0  0  0
  153.2116   46.3354  142.5114 O   0  0  0  0  0  0  0  0  0  0  0  0
  153.7621   44.5222  144.9535 N   0  0  0  0  0  0  0  0  0  0  0  0
  154.4000   44.1665  146.0945 C   0  0  0  0  0  0  0  0  0  0  0  0
  155.3463   45.0683  146.4088 N   0  0  1  0  0  0  0  0  0  0  0  0
  156.0858   40.2579  140.0032 N   0  0  0  0  0  0  0  0  0  0  0  0
  160.7048   41.2354  148.2702 O   0  5  0  0  0  0  0  0  0  0  0  0
  157.0732   41.0292  139.5227 C   0  0  2  0  0  0  0  0  0  0  0  0
  156.8749   41.6168  138.3333 N   0  0  0  0  0  0  0  0  0  0  0  0
  158.2456   40.9043  147.3888 O   0  0  0  0  0  0  0  0  0  0  0  0
  158.2441   41.2365  140.1695 N   0  0  0  0  0  0  0  0  0  0  0  0
  158.4814   40.6578  141.3654 C   0  0  1  0  0  0  0  0  0  0  0  0
  157.4328   39.7973  141.9491 C   0  0  1  0  0  0  0  0  0  0  0  0
  156.1824   39.6159  141.1686 C   0  0  0  0  0  0  0  0  0  0  0  0
  155.2338   38.9127  141.5783 O   0  0  0  0  0  0  0  0  0  0  0  0
  157.9176   39.3499  143.1183 N   0  0  0  0  0  0  0  0  0  0  0  0
  159.1617   39.8839  143.2676 C   0  0  0  0  0  0  0  0  0  0  0  0
  159.5026   40.6627  142.2217 N   0  0  2  0  0  0  0  0  0  0  0  0
  1  3  1  6  0  0  0
  1  4  2  0  0  0  0
  1  6  1  0  0  0  0
  1 22  1  0  0  0  0
  2 28  1  0  0  0  0
  2 35  1  1  0  0  0
  2 38  2  0  0  0  0
  2 10  1  0  0  0  0
  5  6  1  0  0  0  0
  7  5  1  6  0  0  0
  7  8  1  0  0  0  0
  7  9  1  0  0  0  0
  9 10  1  1  0  0  0
  9 11  1  0  0  0  0
 11 12  1  1  0  0  0
 11 13  1  0  0  0  0
 13  8  1  6  0  0  0
 13 33  1  0  0  0  0
 14 46  1  0  0  0  0
 14 17  1  0  0  0  0
 14 25  1  1  0  0  0
 15 16  1  0  0  0  0
 15 29  1  0  0  0  0
 16 18  1  1  0  0  0
 16 21  1  0  0  0  0
 17 19  1  6  0  0  0
 17 20  1  0  0  0  0
 20 22  1  6  0  0  0
 20 24  1  0  0  0  0
 23 21  1  1  0  0  0
 23 26  1  0  0  0  0
 23 33  1  0  0  0  0
 24 25  1  6  0  0  0
 24 27  1  0  0  0  0
 26 29  1  1  0  0  0
 26 31  1  0  0  0  0
 27 28  1  0  0  0  0
 29 30  2  0  0  0  0
 31 32  1  0  0  0  0
 33 32  1  6  0  0  0
 34 36  1  0  0  0  0
 34 42  1  0  0  0  0
 36 37  1  6  0  0  0
 36 39  1  0  0  0  0
 40 39  1  6  0  0  0
 40 41  1  0  0  0  0
 40 46  1  0  0  0  0
 41 42  1  6  0  0  0
 41 44  1  0  0  0  0
 42 43  2  0  0  0  0
 44 45  1  0  0  0  0
 46 45  1  1  0  0  0
M  CHG  2   3  -1  35  -1
M  END
>  <CHROM.1>
-8.79475976,62.98703358,158.11741212,43.52974539,144.26856603,-2.04458927
0.70775239,-2.20931866

>  <Name>
ligand

>  <RI>
0

>  <Rbt.Current_Directory>
/home/itssahil/PROJECTS/Mol_Feturizer/Test_systems_manuscript/rnas/4yb0

>  <Rbt.Executable>
rbdock ($Id: //depot/dev/client3/rdock/2013.1/src/exe/rbdock.cxx#4 $)

>  <Rbt.Library>
libRbt.so (2013.1, Build901 2013/11/27)

>  <Rbt.Parameter_File>
/export/apps/rDock/src/rDock_2013.1_src/data/scripts/dock_solv.prm

>  <Rbt.Receptor>
prm/pocket_docking_7.prm

>  <SCORE>
-43.6393

>  <SCORE.INTER>
-43.3331

>  <SCORE.INTER.CONST>
1

>  <SCORE.INTER.POLAR>
0

>  <SCORE.INTER.ROT>
2

>  <SCORE.INTER.SOLV>
34.6496

>  <SCORE.INTER.VDW>
-45.3719

>  <SCORE.INTER.norm>
-0.942024

>  <SCORE.INTRA>
-0.306151

>  <SCORE.INTRA.DIHEDRAL>
-0.0167476

>  <SCORE.INTRA.DIHEDRAL.0>
2.42188

>  <SCORE.INTRA.POLAR>
0

>  <SCORE.INTRA.POLAR.0>
0

>  <SCORE.INTRA.REPUL>
0

>  <SCORE.INTRA.REPUL.0>
0

>  <SCORE.INTRA.SOLV>
0.473043

>  <SCORE.INTRA.SOLV.lig_0>
-127.307

>  <SCORE.INTRA.VDW>
-0.534298

>  <SCORE.INTRA.VDW.0>
-2.19936

>  <SCORE.INTRA.norm>
-0.00665545

>  <SCORE.RESTR>
0

>  <SCORE.RESTR.CAVITY>
0

>  <SCORE.RESTR.norm>
0

>  <SCORE.SYSTEM>
0

>  <SCORE.SYSTEM.CONST>
0

>  <SCORE.SYSTEM.DIHEDRAL>
0

>  <SCORE.SYSTEM.SOLV>
0

>  <SCORE.SYSTEM.norm>
0

>  <SCORE.heavy>
46

>  <SCORE.norm>
-0.94868

>  <RMSD>
2.114

$$$$
ligand
 OpenBabel02271912143D
libRbt.so/2013.1/901 2013/11/27
 46 52  0  0  0  0  0  0  0  0999 V2000
  160.0470   45.9967  143.6692 P   0  0  1  0  0  0  0  0  0  0  0  0
  159.6245   41.6938  147.3755 P   0  0  1  0  0  0  0  0  0  0  0  0
  159.2171   45.8554  142.4193 O   0  5  0  0  0  0  0  0  0  0  0  0
  160.7218   47.3329  143.8903 O   0  0  0  0  0  0  0  0  0  0  0  0
  159.1799   46.3161  146.1483 C   0  0  0  0  0  0  0  0  0  0  0  0
  159.1360   45.5865  144.9289 O   0  0  0  0  0  0  0  0  0  0  0  0
  158.5443   45.5030  147.2639 C   0  0  1  0  0  0  0  0  0  0  0  0
  157.2475   46.0293  147.5074 O   0  0  0  0  0  0  0  0  0  0  0  0
  158.3544   44.0198  146.9730 C   0  0  1  0  0  0  0  0  0  0  0  0
  159.3440   43.2675  147.6595 O   0  0  0  0  0  0  0  0  0  0  0  0
  157.0118   43.7078  147.5953 C   0  0  1  0  0  0  0  0  0  0  0  0
  157.1947   43.3052  148.9541 O   0  0  0  0  0  0  0  0  0  0  0  0
  156.2662   45.0104  147.6238 C   0  0  2  0  0  0  0  0  0  0  0  0
  160.8695   41.5347  142.1014 C   0  0  1  0  0  0  0  0  0  0  0  0
  154.9058   47.6969  143.3252 N   0  0  0  0  0  0  0  0  0  0  0  0
  155.8439   47.9634  144.2535 C   0  0  1  0  0  0  0  0  0  0  0  0
  160.5742   43.0201  142.0990 C   0  0  2  0  0  0  0  0  0  0  0  0
  156.5950   49.0801  144.1265 N   0  0  0  0  0  0  0  0  0  0  0  0
  161.5698   43.6541  141.2911 O   0  0  0  0  0  0  0  0  0  0  0  0
  160.6955   43.4570  143.5469 C   0  0  2  0  0  0  0  0  0  0  0  0
  156.0824   47.1716  145.3235 N   0  0  0  0  0  0  0  0  0  0  0  0
  161.1378   44.8097  143.6512 O   0  0  0  0  0  0  0  0  0  0  0  0
  155.3719   46.0408  145.5221 C   0  0  2  0  0  0  0  0  0  0  0  0
  161.7199   42.4686  144.0997 C   0  0  2  0  0  0  0  0  0  0  0  0
  161.6654   41.3078  143.2677 O   0  0  0  0  0  0  0  0  0  0  0  0
  154.3315   45.6889  144.5506 C   0  0  2  0  0  0  0  0  0  0  0  0
  161.5025   42.0566  145.5590 C   0  0  0  0  0  0  0  0  0  0  0  0
  160.1497   41.7060  145.8480 O   0  0  0  0  0  0  0  0  0  0  0  0
  154.1271   46.6042  143.4032 C   0  0  0  0  0  0  0  0  0  0  0  0
  153.2527   46.3509  142.5400 O   0  0  0  0  0  0  0  0  0  0  0  0
  153.7865   44.5394  144.9871 N   0  0  0  0  0  0  0  0  0  0  0  0
  154.4185   44.1832  146.1312 C   0  0  0  0  0  0  0  0  0  0  0  0
  155.3665   45.0822  146.4482 N   0  0  1  0  0  0  0  0  0  0  0  0
  156.2117   40.3322  139.9810 N   0  0  0  0  0  0  0  0  0  0  0  0
  160.7643   41.2978  148.2953 O   0  5  0  0  0  0  0  0  0  0  0  0
  157.1932   41.1185  139.5127 C   0  0  2  0  0  0  0  0  0  0  0  0
  156.9986   41.7070  138.3231 N   0  0  0  0  0  0  0  0  0  0  0  0
  158.3142   40.9450  147.3973 O   0  0  0  0  0  0  0  0  0  0  0  0
  158.3546   41.3398  140.1717 N   0  0  0  0  0  0  0  0  0  0  0  0
  158.5880   40.7607  141.3681 C   0  0  1  0  0  0  0  0  0  0  0  0
  157.5457   39.8841  141.9388 C   0  0  1  0  0  0  0  0  0  0  0  0
  156.3056   39.6880  141.1454 C   0  0  0  0  0  0  0  0  0  0  0  0
  155.3628   38.9706  141.5436 O   0  0  0  0  0  0  0  0  0  0  0  0
  158.0250   39.4397  143.1114 N   0  0  0  0  0  0  0  0  0  0  0  0
  159.2600   39.9904  143.2747 C   0  0  0  0  0  0  0  0  0  0  0  0
  159.6006   40.7770  142.2346 N   0  0  2  0  0  0  0  0  0  0  0  0
  1  3  1  6  0  0  0
  1  4  2  0  0  0  0
  1  6  1  0  0  0  0
  1 22  1  0  0  0  0
  2 28  1  0  0  0  0
  2 35  1  1  0  0  0
  2 38  2  0  0  0  0
  2 10  1  0  0  0  0
  5  6  1  0  0  0  0
  7  5  1  6  0  0  0
  7  8  1  0  0  0  0
  7  9  1  0  0  0  0
  9 10  1  1  0  0  0
  9 11  1  0  0  0  0
 11 12  1  1  0  0  0
 11 13  1  0  0  0  0
 13  8  1  6  0  0  0
 13 33  1  0  0  0  0
 14 46  1  0  0  0  0
 14 17  1  0  0  0  0
 14 25  1  1  0  0  0
 15 16  1  0  0  0  0
 15 29  1  0  0  0  0
 16 18  1  1  0  0  0
 16 21  1  0  0  0  0
 17 19  1  6  0  0  0
 17 20  1  0  0  0  0
 20 22  1  6  0  0  0
 20 24  1  0  0  0  0
 23 21  1  1  0  0  0
 23 26  1  0  0  0  0
 23 33  1  0  0  0  0
 24 25  1  6  0  0  0
 24 27  1  0  0  0  0
 26 29  1  1  0  0  0
 26 31  1  0  0  0  0
 27 28  1  0  0  0  0
 29 30  2  0  0  0  0
 31 32  1  0  0  0  0
 33 32  1  6  0  0  0
 34 36  1  0  0  0  0
 34 42  1  0  0  0  0
 36 37  1  6  0  0  0
 36 39  1  0  0  0  0
 40 39  1  6  0  0  0
 40 41  1  0  0  0  0
 40 46  1  0  0  0  0
 41 42  1  6  0  0  0
 41 44  1  0  0  0  0
 42 43  2  0  0  0  0
 44 45  1  0  0  0  0
 46 45  1  1  0  0  0
M  CHG  2   3  -1  35  -1
M  END
>  <CHROM.1>
-7.61299258,63.52420533,158.17368589,43.59745175,144.30073147,-2.04744569
0.70259665,-2.18759256

>  <Name>
ligand

>  <RI>
0

>  <Rbt.Current_Directory>
/home/itssahil/PROJECTS/Mol_Feturizer/Test_systems_manuscript/rnas/4yb0

>  <Rbt.Executable>
rbdock ($Id: //depot/dev/client3/rdock/2013.1/src/exe/rbdock.cxx#4 $)

>  <Rbt.Library>
libRbt.so (2013.1, Build901 2013/11/27)

>  <Rbt.Parameter_File>
/export/apps/rDock/src/rDock_2013.1_src/data/scripts/dock_solv.prm

>  <Rbt.Receptor>
prm/pocket_docking_4.prm

>  <SCORE>
-43.5954

>  <SCORE.INTER>
-43.2797

>  <SCORE.INTER.CONST>
1

>  <SCORE.INTER.POLAR>
0

>  <SCORE.INTER.ROT>
2

>  <SCORE.INTER.SOLV>
33.5927

>  <SCORE.INTER.VDW>
-44.984

>  <SCORE.INTER.norm>
-0.940863

>  <SCORE.INTRA>
-0.3157

>  <SCORE.INTRA.DIHEDRAL>
-0.0188528

>  <SCORE.INTRA.DIHEDRAL.0>
2.42188

>  <SCORE.INTRA.POLAR>
0

>  <SCORE.INTRA.POLAR.0>
0

>  <SCORE.INTRA.REPUL>
0

>  <SCORE.INTRA.REPUL.0>
0

>  <SCORE.INTRA.SOLV>
0.552865

>  <SCORE.INTRA.SOLV.lig_0>
-127.307

>  <SCORE.INTRA.VDW>
-0.582706

>  <SCORE.INTRA.VDW.0>
-2.19936

>  <SCORE.INTRA.norm>
-0.00686303

>  <SCORE.RESTR>
0

>  <SCORE.RESTR.CAVITY>
0

>  <SCORE.RESTR.norm>
0

>  <SCORE.SYSTEM>
0

>  <SCORE.SYSTEM.CONST>
0

>  <SCORE.SYSTEM.DIHEDRAL>
0

>  <SCORE.SYSTEM.SOLV>
0

>  <SCORE.SYSTEM.norm>
0

>  <SCORE.heavy>
46

>  <SCORE.norm>
-0.947726

>  <RMSD>
2.118

$$$$
ligand
 OpenBabel02271912143D
libRbt.so/2013.1/901 2013/11/27
 46 52  0  0  0  0  0  0  0  0999 V2000
  160.0251   46.0600  143.6726 P   0  0  1  0  0  0  0  0  0  0  0  0
  159.6312   41.7767  147.4047 P   0  0  1  0  0  0  0  0  0  0  0  0
  159.1913   45.9086  142.4264 O   0  5  0  0  0  0  0  0  0  0  0  0
  160.6958   47.3999  143.8837 O   0  0  0  0  0  0  0  0  0  0  0  0
  159.1655   46.3904  146.1528 C   0  0  0  0  0  0  0  0  0  0  0  0
  159.1199   45.6537  144.9378 O   0  0  0  0  0  0  0  0  0  0  0  0
  158.5368   45.5813  147.2753 C   0  0  1  0  0  0  0  0  0  0  0  0
  157.2389   46.1042  147.5202 O   0  0  0  0  0  0  0  0  0  0  0  0
  158.3512   44.0957  146.9935 C   0  0  1  0  0  0  0  0  0  0  0  0
  159.3460   43.3510  147.6807 O   0  0  0  0  0  0  0  0  0  0  0  0
  157.0120   43.7825  147.6222 C   0  0  1  0  0  0  0  0  0  0  0  0
  157.2011   43.3883  148.9826 O   0  0  0  0  0  0  0  0  0  0  0  0
  156.2617   45.0825  147.6459 C   0  0  2  0  0  0  0  0  0  0  0  0
  160.8585   41.5922  142.1273 C   0  0  1  0  0  0  0  0  0  0  0  0
  154.8836   47.7338  143.3311 N   0  0  0  0  0  0  0  0  0  0  0  0
  155.8250   48.0084  144.2538 C   0  0  1  0  0  0  0  0  0  0  0  0
  160.5578   43.0764  142.1174 C   0  0  2  0  0  0  0  0  0  0  0  0
  156.5748   49.1246  144.1152 N   0  0  0  0  0  0  0  0  0  0  0  0
  161.5482   43.7094  141.3025 O   0  0  0  0  0  0  0  0  0  0  0  0
  160.6825   43.5220  143.5624 C   0  0  2  0  0  0  0  0  0  0  0  0
  156.0679   47.2252  145.3292 N   0  0  0  0  0  0  0  0  0  0  0  0
  161.1201   44.8769  143.6576 O   0  0  0  0  0  0  0  0  0  0  0  0
  155.3589   46.0955  145.5393 C   0  0  2  0  0  0  0  0  0  0  0  0
  161.7124   42.5405  144.1173 C   0  0  2  0  0  0  0  0  0  0  0  0
  161.6593   41.3748  143.2921 O   0  0  0  0  0  0  0  0  0  0  0  0
  154.3153   45.7352  144.5745 C   0  0  2  0  0  0  0  0  0  0  0  0
  161.5015   42.1360  145.5796 C   0  0  0  0  0  0  0  0  0  0  0  0
  160.1511   41.7821  145.8753 O   0  0  0  0  0  0  0  0  0  0  0  0
  154.1061   46.6412  143.4207 C   0  0  0  0  0  0  0  0  0  0  0  0
  153.2287   46.3804  142.5627 O   0  0  0  0  0  0  0  0  0  0  0  0
  153.7728   44.5888  145.0221 N   0  0  0  0  0  0  0  0  0  0  0  0
  154.4091   44.2422  146.1666 C   0  0  0  0  0  0  0  0  0  0  0  0
  155.3577   45.1443  146.4730 N   0  0  1  0  0  0  0  0  0  0  0  0
  156.2060   40.3454  140.0209 N   0  0  0  0  0  0  0  0  0  0  0  0
  160.7757   41.3902  148.3227 O   0  5  0  0  0  0  0  0  0  0  0  0
  157.1841   41.1304  139.5436 C   0  0  2  0  0  0  0  0  0  0  0  0
  156.9870   41.7044  138.3473 N   0  0  0  0  0  0  0  0  0  0  0  0
  158.3237   41.0233  147.4353 O   0  0  0  0  0  0  0  0  0  0  0  0
  158.3445   41.3643  140.2000 N   0  0  0  0  0  0  0  0  0  0  0  0
  158.5803   40.8000  141.4030 C   0  0  1  0  0  0  0  0  0  0  0  0
  157.5418   39.9255  141.9838 C   0  0  1  0  0  0  0  0  0  0  0  0
  156.3026   39.7150  141.1927 C   0  0  0  0  0  0  0  0  0  0  0  0
  155.3628   38.9982  141.5991 O   0  0  0  0  0  0  0  0  0  0  0  0
  158.0229   39.4968  143.1614 N   0  0  0  0  0  0  0  0  0  0  0  0
  159.2556   40.0545  143.3183 C   0  0  0  0  0  0  0  0  0  0  0  0
  159.5928   40.8306  142.2692 N   0  0  2  0  0  0  0  0  0  0  0  0
  1  3  1  6  0  0  0
  1  4  2  0  0  0  0
  1  6  1  0  0  0  0
  1 22  1  0  0  0  0
  2 28  1  0  0  0  0
  2 35  1  1  0  0  0
  2 38  2  0  0  0  0
  2 10  1  0  0  0  0
  5  6  1  0  0  0  0
  7  5  1  6  0  0  0
  7  8  1  0  0  0  0
  7  9  1  0  0  0  0
  9 10  1  1  0  0  0
  9 11  1  0  0  0  0
 11 12  1  1  0  0  0
 11 13  1  0  0  0  0
 13  8  1  6  0  0  0
 13 33  1  0  0  0  0
 14 46  1  0  0  0  0
 14 17  1  0  0  0  0
 14 25  1  1  0  0  0
 15 16  1  0  0  0  0
 15 29  1  0  0  0  0
 16 18  1  1  0  0  0
 16 21  1  0  0  0  0
 17 19  1  6  0  0  0
 17 20  1  0  0  0  0
 20 22  1  6  0  0  0
 20 24  1  0  0  0  0
 23 21  1  1  0  0  0
 23 26  1  0  0  0  0
 23 33  1  0  0  0  0
 24 25  1  6  0  0  0
 24 27  1  0  0  0  0
 26 29  1  1  0  0  0
 26 31  1  0  0  0  0
 27 28  1  0  0  0  0
 29 30  2  0  0  0  0
 31 32  1  0  0  0  0
 33 32  1  6  0  0  0
 34 36  1  0  0  0  0
 34 42  1  0  0  0  0
 36 37  1  6  0  0  0
 36 39  1  0  0  0  0
 40 39  1  6  0  0  0
 40 41  1  0  0  0  0
 40 46  1  0  0  0  0
 41 42  1  6  0  0  0
 41 44  1  0  0  0  0
 42 43  2  0  0  0  0
 44 45  1  0  0  0  0
 46 45  1  1  0  0  0
M  CHG  2   3  -1  35  -1
M  END
>  <CHROM.1>
-7.40133521,63.91495504,158.16443683,43.65528236,144.32264861,-2.04198541
0.69803662,-2.19393704

>  <Name>
ligand

>  <RI>
0

>  <Rbt.Current_Directory>
/home/itssahil/PROJECTS/Mol_Feturizer/Test_systems_manuscript/rnas/4yb0

>  <Rbt.Executable>
rbdock ($Id: //depot/dev/client3/rdock/2013.1/src/exe/rbdock.cxx#4 $)

>  <Rbt.Library>
libRbt.so (2013.1, Build901 2013/11/27)

>  <Rbt.Parameter_File>
/export/apps/rDock/src/rDock_2013.1_src/data/scripts/dock_solv.prm

>  <Rbt.Receptor>
prm/pocket_docking_6.prm

>  <SCORE>
-43.4819

>  <SCORE.INTER>
-43.1813

>  <SCORE.INTER.CONST>
1

>  <SCORE.INTER.POLAR>
0

>  <SCORE.INTER.ROT>
2

>  <SCORE.INTER.SOLV>
33.1252

>  <SCORE.INTER.VDW>
-44.7626

>  <SCORE.INTER.norm>
-0.938725

>  <SCORE.INTRA>
-0.300552

>  <SCORE.INTRA.DIHEDRAL>
-0.0196853

>  <SCORE.INTRA.DIHEDRAL.0>
2.42188

>  <SCORE.INTRA.POLAR>
0

>  <SCORE.INTRA.POLAR.0>
0

>  <SCORE.INTRA.REPUL>
0

>  <SCORE.INTRA.REPUL.0>
0

>  <SCORE.INTRA.SOLV>
0.606137

>  <SCORE.INTRA.SOLV.lig_0>
-127.307

>  <SCORE.INTRA.VDW>
-0.593778

>  <SCORE.INTRA.VDW.0>
-2.19936

>  <SCORE.INTRA.norm>
-0.00653374

>  <SCORE.RESTR>
0

>  <SCORE.RESTR.CAVITY>
0

>  <SCORE.RESTR.norm>
0

>  <SCORE.SYSTEM>
0

>  <SCORE.SYSTEM.CONST>
0

>  <SCORE.SYSTEM.DIHEDRAL>
0

>  <SCORE.SYSTEM.SOLV>
0

>  <SCORE.SYSTEM.norm>
0

>  <SCORE.heavy>
46

>  <SCORE.norm>
-0.945258

>  <RMSD>
2.118

$$$$
ligand
 OpenBabel02271912143D
libRbt.so/2013.1/901 2013/11/27
 46 52  0  0  0  0  0  0  0  0999 V2000
  159.9067   45.9832  143.6328 P   0  0  1  0  0  0  0  0  0  0  0  0
  159.6763   41.7305  147.4134 P   0  0  1  0  0  0  0  0  0  0  0  0
  159.0600   45.7970  142.4000 O   0  5  0  0  0  0  0  0  0  0  0  0
  160.5450   47.3421  143.8208 O   0  0  0  0  0  0  0  0  0  0  0  0
  159.0731   46.3171  146.1214 C   0  0  0  0  0  0  0  0  0  0  0  0
  159.0300   45.5668  144.9146 O   0  0  0  0  0  0  0  0  0  0  0  0
  158.4813   45.5039  147.2607 C   0  0  1  0  0  0  0  0  0  0  0  0
  157.1737   45.9955  147.5186 O   0  0  0  0  0  0  0  0  0  0  0  0
  158.3306   44.0111  146.9967 C   0  0  1  0  0  0  0  0  0  0  0  0
  159.3539   43.2997  147.6773 O   0  0  0  0  0  0  0  0  0  0  0  0
  157.0089   43.6699  147.6473 C   0  0  1  0  0  0  0  0  0  0  0  0
  157.2270   43.2950  149.0089 O   0  0  0  0  0  0  0  0  0  0  0  0
  156.2254   44.9501  147.6684 C   0  0  2  0  0  0  0  0  0  0  0  0
  160.8350   41.5224  142.1214 C   0  0  1  0  0  0  0  0  0  0  0  0
  155.1603   47.0692  142.9863 N   0  0  0  0  0  0  0  0  0  0  0  0
  156.1661   47.3235  143.8446 C   0  0  1  0  0  0  0  0  0  0  0  0
  160.4955   42.9982  142.1006 C   0  0  2  0  0  0  0  0  0  0  0  0
  157.0869   48.2581  143.5190 N   0  0  0  0  0  0  0  0  0  0  0  0
  161.4577   43.6481  141.2654 O   0  0  0  0  0  0  0  0  0  0  0  0
  160.6285   43.4621  143.5391 C   0  0  2  0  0  0  0  0  0  0  0  0
  156.3120   46.6936  145.0324 N   0  0  0  0  0  0  0  0  0  0  0  0
  161.0319   44.8287  143.6143 O   0  0  0  0  0  0  0  0  0  0  0  0
  155.4317   45.7504  145.4305 C   0  0  2  0  0  0  0  0  0  0  0  0
  161.6913   42.5135  144.0893 C   0  0  2  0  0  0  0  0  0  0  0  0
  161.6572   41.3381  143.2768 O   0  0  0  0  0  0  0  0  0  0  0  0
  154.3093   45.4234  144.5455 C   0  0  2  0  0  0  0  0  0  0  0  0
  161.5112   42.1191  145.5586 C   0  0  0  0  0  0  0  0  0  0  0  0
  160.1747   41.7333  145.8768 O   0  0  0  0  0  0  0  0  0  0  0  0
  154.2144   46.1543  143.2599 C   0  0  0  0  0  0  0  0  0  0  0  0
  153.2762   45.9128  142.4627 O   0  0  0  0  0  0  0  0  0  0  0  0
  153.5985   44.4737  145.1793 N   0  0  0  0  0  0  0  0  0  0  0  0
  154.2076   44.2120  146.3607 C   0  0  0  0  0  0  0  0  0  0  0  0
  155.3039   44.9761  146.5078 N   0  0  1  0  0  0  0  0  0  0  0  0
  156.1770   40.1527  140.1051 N   0  0  0  0  0  0  0  0  0  0  0  0
  160.8431   41.3835  148.3190 O   0  5  0  0  0  0  0  0  0  0  0  0
  157.1261   40.9606  139.6076 C   0  0  2  0  0  0  0  0  0  0  0  0
  156.8925   41.5256  138.4136 N   0  0  0  0  0  0  0  0  0  0  0  0
  158.3894   40.9438  147.4700 O   0  0  0  0  0  0  0  0  0  0  0  0
  158.2923   41.2255  140.2417 N   0  0  0  0  0  0  0  0  0  0  0  0
  158.5644   40.6711  141.4416 C   0  0  1  0  0  0  0  0  0  0  0  0
  157.5591   39.7727  142.0439 C   0  0  1  0  0  0  0  0  0  0  0  0
  156.3111   39.5287  141.2766 C   0  0  0  0  0  0  0  0  0  0  0  0
  155.3974   38.7898  141.7023 O   0  0  0  0  0  0  0  0  0  0  0  0
  158.0725   39.3599  143.2136 N   0  0  0  0  0  0  0  0  0  0  0  0
  159.2935   39.9488  143.3460 C   0  0  0  0  0  0  0  0  0  0  0  0
  159.5916   40.7298  142.2888 N   0  0  2  0  0  0  0  0  0  0  0  0
  1  3  1  6  0  0  0
  1  4  2  0  0  0  0
  1  6  1  0  0  0  0
  1 22  1  0  0  0  0
  2 28  1  0  0  0  0
  2 35  1  1  0  0  0
  2 38  2  0  0  0  0
  2 10  1  0  0  0  0
  5  6  1  0  0  0  0
  7  5  1  6  0  0  0
  7  8  1  0  0  0  0
  7  9  1  0  0  0  0
  9 10  1  1  0  0  0
  9 11  1  0  0  0  0
 11 12  1  1  0  0  0
 11 13  1  0  0  0  0
 13  8  1  6  0  0  0
 13 33  1  0  0  0  0
 14 46  1  0  0  0  0
 14 17  1  0  0  0  0
 14 25  1  1  0  0  0
 15 16  1  0  0  0  0
 15 29  1  0  0  0  0
 16 18  1  1  0  0  0
 16 21  1  0  0  0  0
 17 19  1  6  0  0  0
 17 20  1  0  0  0  0
 20 22  1  6  0  0  0
 20 24  1  0  0  0  0
 23 21  1  1  0  0  0
 23 26  1  0  0  0  0
 23 33  1  0  0  0  0
 24 25  1  6  0  0  0
 24 27  1  0  0  0  0
 26 29  1  1  0  0  0
 26 31  1  0  0  0  0
 27 28  1  0  0  0  0
 29 30  2  0  0  0  0
 31 32  1  0  0  0  0
 33 32  1  6  0  0  0
 34 36  1  0  0  0  0
 34 42  1  0  0  0  0
 36 37  1  6  0  0  0
 36 39  1  0  0  0  0
 40 39  1  6  0  0  0
 40 41  1  0  0  0  0
 40 46  1  0  0  0  0
 41 42  1  6  0  0  0
 41 44  1  0  0  0  0
 42 43  2  0  0  0  0
 44 45  1  0  0  0  0
 46 45  1  1  0  0  0
M  CHG  2   3  -1  35  -1
M  END
>  <CHROM.1>
6.91551100,63.41221110,158.16532101,43.49092533,144.29546120,-1.92875596
0.67380347,-2.18291872

>  <Name>
ligand

>  <RI>
0

>  <Rbt.Current_Directory>
/home/itssahil/PROJECTS/Mol_Feturizer/Test_systems_manuscript/rnas/4yb0

>  <Rbt.Executable>
rbdock ($Id: //depot/dev/client3/rdock/2013.1/src/exe/rbdock.cxx#4 $)

>  <Rbt.Library>
libRbt.so (2013.1, Build901 2013/11/27)

>  <Rbt.Parameter_File>
/export/apps/rDock/src/rDock_2013.1_src/data/scripts/dock_solv.prm

>  <Rbt.Receptor>
prm/pocket_docking_3.prm

>  <SCORE>
-41.546

>  <SCORE.INTER>
-43.4458

>  <SCORE.INTER.CONST>
1

>  <SCORE.INTER.POLAR>
0

>  <SCORE.INTER.ROT>
2

>  <SCORE.INTER.SOLV>
31.4169

>  <SCORE.INTER.VDW>
-44.3695

>  <SCORE.INTER.norm>
-0.944475

>  <SCORE.INTRA>
1.69204

>  <SCORE.INTRA.DIHEDRAL>
-0.03567

>  <SCORE.INTRA.DIHEDRAL.0>
2.42188

>  <SCORE.INTRA.POLAR>
0

>  <SCORE.INTRA.POLAR.0>
0

>  <SCORE.INTRA.REPUL>
0

>  <SCORE.INTRA.REPUL.0>
0

>  <SCORE.INTRA.SOLV>
6.2203

>  <SCORE.INTRA.SOLV.lig_0>
-127.307

>  <SCORE.INTRA.VDW>
-1.40027

>  <SCORE.INTRA.VDW.0>
-2.19936

>  <SCORE.INTRA.norm>
0.0367836

>  <SCORE.RESTR>
0.207746

>  <SCORE.RESTR.CAVITY>
0.207746

>  <SCORE.RESTR.norm>
0.00451622

>  <SCORE.SYSTEM>
0

>  <SCORE.SYSTEM.CONST>
0

>  <SCORE.SYSTEM.DIHEDRAL>
0

>  <SCORE.SYSTEM.SOLV>
0

>  <SCORE.SYSTEM.norm>
0

>  <SCORE.heavy>
46

>  <SCORE.norm>
-0.903175

>  <RMSD>
2.119

$$$$
ligand
 OpenBabel02271912143D
libRbt.so/2013.1/901 2013/11/27
 46 52  0  0  0  0  0  0  0  0999 V2000
  160.0522   45.9119  143.5746 P   0  0  1  0  0  0  0  0  0  0  0  0
  159.5867   41.6755  147.3518 P   0  0  1  0  0  0  0  0  0  0  0  0
  159.2086   45.7660  142.3344 O   0  5  0  0  0  0  0  0  0  0  0  0
  160.7528   47.2390  143.7687 O   0  0  0  0  0  0  0  0  0  0  0  0
  159.2136   46.2854  146.0559 C   0  0  0  0  0  0  0  0  0  0  0  0
  159.1455   45.5378  144.8486 O   0  0  0  0  0  0  0  0  0  0  0  0
  158.5737   45.5014  147.1897 C   0  0  1  0  0  0  0  0  0  0  0  0
  157.2888   46.0546  147.4362 O   0  0  0  0  0  0  0  0  0  0  0  0
  158.3547   44.0174  146.9239 C   0  0  1  0  0  0  0  0  0  0  0  0
  159.3370   43.2583  147.6134 O   0  0  0  0  0  0  0  0  0  0  0  0
  157.0125   43.7394  147.5628 C   0  0  1  0  0  0  0  0  0  0  0  0
  157.2005   43.3548  148.9262 O   0  0  0  0  0  0  0  0  0  0  0  0
  156.2905   45.0555  147.5774 C   0  0  2  0  0  0  0  0  0  0  0  0
  160.7808   41.4119  142.0702 C   0  0  1  0  0  0  0  0  0  0  0  0
  154.9056   47.7265  143.2769 N   0  0  0  0  0  0  0  0  0  0  0  0
  155.8522   47.9939  144.1963 C   0  0  1  0  0  0  0  0  0  0  0  0
  160.5120   42.9021  142.0469 C   0  0  2  0  0  0  0  0  0  0  0  0
  156.6065   49.1071  144.0579 N   0  0  0  0  0  0  0  0  0  0  0  0
  161.5114   43.5054  141.2204 O   0  0  0  0  0  0  0  0  0  0  0  0
  160.6542   43.3593  143.4866 C   0  0  2  0  0  0  0  0  0  0  0  0
  156.0963   47.2063  145.2682 N   0  0  0  0  0  0  0  0  0  0  0  0
  161.1215   44.7053  143.5658 O   0  0  0  0  0  0  0  0  0  0  0  0
  155.3831   46.0791  145.4780 C   0  0  2  0  0  0  0  0  0  0  0  0
  161.6658   42.3614  144.0459 C   0  0  2  0  0  0  0  0  0  0  0  0
  161.5831   41.1889  143.2328 O   0  0  0  0  0  0  0  0  0  0  0  0
  154.3336   45.7266  144.5167 C   0  0  2  0  0  0  0  0  0  0  0  0
  161.4543   41.9761  145.5134 C   0  0  0  0  0  0  0  0  0  0  0  0
  160.0982   41.6544  145.8197 O   0  0  0  0  0  0  0  0  0  0  0  0
  154.1234   46.6372  143.3666 C   0  0  0  0  0  0  0  0  0  0  0  0
  153.2411   46.3831  142.5117 O   0  0  0  0  0  0  0  0  0  0  0  0
  153.7878   44.5814  144.9630 N   0  0  0  0  0  0  0  0  0  0  0  0
  154.4276   44.2283  146.1037 C   0  0  0  0  0  0  0  0  0  0  0  0
  155.3816   45.1251  146.4087 N   0  0  1  0  0  0  0  0  0  0  0  0
  156.0813   40.2642  140.0122 N   0  0  0  0  0  0  0  0  0  0  0  0
  160.7276   41.2735  148.2677 O   0  5  0  0  0  0  0  0  0  0  0  0
  157.0721   41.0259  139.5233 C   0  0  2  0  0  0  0  0  0  0  0  0
  156.8763   41.6010  138.3273 N   0  0  0  0  0  0  0  0  0  0  0  0
  158.2635   40.9508  147.3969 O   0  0  0  0  0  0  0  0  0  0  0  0
  158.2438   41.2354  140.1678 N   0  0  0  0  0  0  0  0  0  0  0  0
  158.4785   40.6691  141.3701 C   0  0  1  0  0  0  0  0  0  0  0  0
  157.4263   39.8197  141.9633 C   0  0  1  0  0  0  0  0  0  0  0  0
  156.1751   39.6349  141.1848 C   0  0  0  0  0  0  0  0  0  0  0  0
  155.2235   38.9405  141.6023 O   0  0  0  0  0  0  0  0  0  0  0  0
  157.9091   39.3833  143.1375 N   0  0  0  0  0  0  0  0  0  0  0  0
  159.1555   39.9137  143.2809 C   0  0  0  0  0  0  0  0  0  0  0  0
  159.4998   40.6793  142.2264 N   0  0  2  0  0  0  0  0  0  0  0  0
  1  3  1  6  0  0  0
  1  4  2  0  0  0  0
  1  6  1  0  0  0  0
  1 22  1  0  0  0  0
  2 28  1  0  0  0  0
  2 35  1  1  0  0  0
  2 38  2  0  0  0  0
  2 10  1  0  0  0  0
  5  6  1  0  0  0  0
  7  5  1  6  0  0  0
  7  8  1  0  0  0  0
  7  9  1  0  0  0  0
  9 10  1  1  0  0  0
  9 11  1  0  0  0  0
 11 12  1  1  0  0  0
 11 13  1  0  0  0  0
 13  8  1  6  0  0  0
 13 33  1  0  0  0  0
 14 46  1  0  0  0  0
 14 17  1  0  0  0  0
 14 25  1  1  0  0  0
 15 16  1  0  0  0  0
 15 29  1  0  0  0  0
 16 18  1  1  0  0  0
 16 21  1  0  0  0  0
 17 19  1  6  0  0  0
 17 20  1  0  0  0  0
 20 22  1  6  0  0  0
 20 24  1  0  0  0  0
 23 21  1  1  0  0  0
 23 26  1  0  0  0  0
 23 33  1  0  0  0  0
 24 25  1  6  0  0  0
 24 27  1  0  0  0  0
 26 29  1  1  0  0  0
 26 31  1  0  0  0  0
 27 28  1  0  0  0  0
 29 30  2  0  0  0  0
 31 32  1  0  0  0  0
 33 32  1  6  0  0  0
 34 36  1  0  0  0  0
 34 42  1  0  0  0  0
 36 37  1  6  0  0  0
 36 39  1  0  0  0  0
 40 39  1  6  0  0  0
 40 41  1  0  0  0  0
 40 46  1  0  0  0  0
 41 42  1  6  0  0  0
 41 44  1  0  0  0  0
 42 43  2  0  0  0  0
 44 45  1  0  0  0  0
 46 45  1  1  0  0  0
M  CHG  2   3  -1  35  -1
M  END
>  <CHROM.1>
-8.63307189,63.42627478,158.13837759,43.56024956,144.26359201,-2.03198483
0.70994626,-2.21922095

>  <Name>
ligand

>  <RI>
0

>  <Rbt.Current_Directory>
/home/itssahil/PROJECTS/Mol_Feturizer/Test_systems_manuscript/rnas/4yb0

>  <Rbt.Executable>
rbdock ($Id: //depot/dev/client3/rdock/2013.1/src/exe/rbdock.cxx#4 $)

>  <Rbt.Library>
libRbt.so (2013.1, Build901 2013/11/27)

>  <Rbt.Parameter_File>
/export/apps/rDock/src/rDock_2013.1_src/data/scripts/dock_solv.prm

>  <Rbt.Receptor>
prm/pocket_docking_5.prm

>  <SCORE>
-43.616

>  <SCORE.INTER>
-43.3035

>  <SCORE.INTER.CONST>
1

>  <SCORE.INTER.POLAR>
0

>  <SCORE.INTER.ROT>
2

>  <SCORE.INTER.SOLV>
34.3813

>  <SCORE.INTER.VDW>
-45.2628

>  <SCORE.INTER.norm>
-0.94138

>  <SCORE.INTRA>
-0.312493

>  <SCORE.INTRA.DIHEDRAL>
-0.0175982

>  <SCORE.INTRA.DIHEDRAL.0>
2.42188

>  <SCORE.INTRA.POLAR>
0

>  <SCORE.INTRA.POLAR.0>
0

>  <SCORE.INTRA.REPUL>
0

>  <SCORE.INTRA.REPUL.0>
0

>  <SCORE.INTRA.SOLV>
0.480025

>  <SCORE.INTRA.SOLV.lig_0>
-127.307

>  <SCORE.INTRA.VDW>
-0.543706

>  <SCORE.INTRA.VDW.0>
-2.19936

>  <SCORE.INTRA.norm>
-0.00679332

>  <SCORE.RESTR>
0

>  <SCORE.RESTR.CAVITY>
0

>  <SCORE.RESTR.norm>
0

>  <SCORE.SYSTEM>
0

>  <SCORE.SYSTEM.CONST>
0

>  <SCORE.SYSTEM.DIHEDRAL>
0

>  <SCORE.SYSTEM.SOLV>
0

>  <SCORE.SYSTEM.norm>
0

>  <SCORE.heavy>
46

>  <SCORE.norm>
-0.948174

>  <RMSD>
2.130

$$$$
ligand
 OpenBabel02271912143D
libRbt.so/2013.1/901 2013/11/27
 46 52  0  0  0  0  0  0  0  0999 V2000
  160.0759   45.9666  143.6443 P   0  0  1  0  0  0  0  0  0  0  0  0
  159.5926   41.6589  147.3377 P   0  0  1  0  0  0  0  0  0  0  0  0
  159.2431   45.8414  142.3946 O   0  5  0  0  0  0  0  0  0  0  0  0
  160.7706   47.2919  143.8690 O   0  0  0  0  0  0  0  0  0  0  0  0
  159.2155   46.2911  146.1250 C   0  0  0  0  0  0  0  0  0  0  0  0
  159.1599   45.5660  144.9034 O   0  0  0  0  0  0  0  0  0  0  0  0
  158.5688   45.4841  147.2386 C   0  0  1  0  0  0  0  0  0  0  0  0
  157.2801   46.0287  147.4847 O   0  0  0  0  0  0  0  0  0  0  0  0
  158.3567   44.0047  146.9433 C   0  0  1  0  0  0  0  0  0  0  0  0
  159.3356   43.2358  147.6267 O   0  0  0  0  0  0  0  0  0  0  0  0
  157.0101   43.7108  147.5657 C   0  0  1  0  0  0  0  0  0  0  0  0
  157.1880   43.3013  148.9231 O   0  0  0  0  0  0  0  0  0  0  0  0
  156.2839   45.0241  147.5988 C   0  0  2  0  0  0  0  0  0  0  0  0
  160.8312   41.4977  142.0622 C   0  0  1  0  0  0  0  0  0  0  0  0
  154.9714   47.7345  143.3002 N   0  0  0  0  0  0  0  0  0  0  0  0
  155.9156   47.9831  144.2273 C   0  0  1  0  0  0  0  0  0  0  0  0
  160.5580   42.9873  142.0645 C   0  0  2  0  0  0  0  0  0  0  0  0
  156.6881   49.0850  144.0990 N   0  0  0  0  0  0  0  0  0  0  0  0
  161.5622   43.6090  141.2578 O   0  0  0  0  0  0  0  0  0  0  0  0
  160.6868   43.4179  143.5137 C   0  0  2  0  0  0  0  0  0  0  0  0
  156.1397   47.1873  145.2975 N   0  0  0  0  0  0  0  0  0  0  0  0
  161.1490   44.7636  143.6218 O   0  0  0  0  0  0  0  0  0  0  0  0
  155.4075   46.0706  145.4974 C   0  0  2  0  0  0  0  0  0  0  0  0
  161.6968   42.4128  144.0627 C   0  0  2  0  0  0  0  0  0  0  0  0
  161.6246   41.2554  143.2272 O   0  0  0  0  0  0  0  0  0  0  0  0
  154.3595   45.7386  144.5273 C   0  0  2  0  0  0  0  0  0  0  0  0
  161.4743   41.9995  145.5209 C   0  0  0  0  0  0  0  0  0  0  0  0
  160.1168   41.6681  145.8098 O   0  0  0  0  0  0  0  0  0  0  0  0
  154.1717   46.6571  143.3796 C   0  0  0  0  0  0  0  0  0  0  0  0
  153.2915   46.4205  142.5175 O   0  0  0  0  0  0  0  0  0  0  0  0
  153.7927   44.6002  144.9649 N   0  0  0  0  0  0  0  0  0  0  0  0
  154.4188   44.2323  146.1085 C   0  0  0  0  0  0  0  0  0  0  0  0
  155.3845   45.1128  146.4240 N   0  0  1  0  0  0  0  0  0  0  0  0
  156.1548   40.3705  139.9415 N   0  0  0  0  0  0  0  0  0  0  0  0
  160.7271   41.2434  148.2554 O   0  5  0  0  0  0  0  0  0  0  0  0
  157.1474   41.1436  139.4748 C   0  0  2  0  0  0  0  0  0  0  0  0
  156.9608   41.7384  138.2871 N   0  0  0  0  0  0  0  0  0  0  0  0
  158.2713   40.9296  147.3582 O   0  0  0  0  0  0  0  0  0  0  0  0
  158.3125   41.3457  140.1337 N   0  0  0  0  0  0  0  0  0  0  0  0
  158.5380   40.7597  141.3282 C   0  0  1  0  0  0  0  0  0  0  0  0
  157.4833   39.8969  141.8970 C   0  0  1  0  0  0  0  0  0  0  0  0
  156.2399   39.7215  141.1039 C   0  0  0  0  0  0  0  0  0  0  0  0
  155.2869   39.0169  141.5007 O   0  0  0  0  0  0  0  0  0  0  0  0
  157.9567   39.4420  143.0680 N   0  0  0  0  0  0  0  0  0  0  0  0
  159.1999   39.9738  143.2320 C   0  0  0  0  0  0  0  0  0  0  0  0
  159.5513   40.7584  142.1940 N   0  0  2  0  0  0  0  0  0  0  0  0
  1  3  1  6  0  0  0
  1  4  2  0  0  0  0
  1  6  1  0  0  0  0
  1 22  1  0  0  0  0
  2 28  1  0  0  0  0
  2 35  1  1  0  0  0
  2 38  2  0  0  0  0
  2 10  1  0  0  0  0
  5  6  1  0  0  0  0
  7  5  1  6  0  0  0
  7  8  1  0  0  0  0
  7  9  1  0  0  0  0
  9 10  1  1  0  0  0
  9 11  1  0  0  0  0
 11 12  1  1  0  0  0
 11 13  1  0  0  0  0
 13  8  1  6  0  0  0
 13 33  1  0  0  0  0
 14 46  1  0  0  0  0
 14 17  1  0  0  0  0
 14 25  1  1  0  0  0
 15 16  1  0  0  0  0
 15 29  1  0  0  0  0
 16 18  1  1  0  0  0
 16 21  1  0  0  0  0
 17 19  1  6  0  0  0
 17 20  1  0  0  0  0
 20 22  1  6  0  0  0
 20 24  1  0  0  0  0
 23 21  1  1  0  0  0
 23 26  1  0  0  0  0
 23 33  1  0  0  0  0
 24 25  1  6  0  0  0
 24 27  1  0  0  0  0
 26 29  1  1  0  0  0
 26 31  1  0  0  0  0
 27 28  1  0  0  0  0
 29 30  2  0  0  0  0
 31 32  1  0  0  0  0
 33 32  1  6  0  0  0
 34 36  1  0  0  0  0
 34 42  1  0  0  0  0
 36 37  1  6  0  0  0
 36 39  1  0  0  0  0
 40 39  1  6  0  0  0
 40 41  1  0  0  0  0
 40 46  1  0  0  0  0
 41 42  1  6  0  0  0
 41 44  1  0  0  0  0
 42 43  2  0  0  0  0
 44 45  1  0  0  0  0
 46 45  1  1  0  0  0
M  CHG  2   3  -1  35  -1
M  END
>  <CHROM.1>
-7.27561588,63.53123989,158.16904700,43.59229076,144.26886367,-2.03286886
0.71477166,-2.19212120

>  <Name>
ligand

>  <RI>
0

>  <Rbt.Current_Directory>
/home/itssahil/PROJECTS/Mol_Feturizer/Test_systems_manuscript/rnas/4yb0

>  <Rbt.Executable>
rbdock ($Id: //depot/dev/client3/rdock/2013.1/src/exe/rbdock.cxx#4 $)

>  <Rbt.Library>
libRbt.so (2013.1, Build901 2013/11/27)

>  <Rbt.Parameter_File>
/export/apps/rDock/src/rDock_2013.1_src/data/scripts/dock_solv.prm

>  <Rbt.Receptor>
prm/pocket_docking_4.prm

>  <SCORE>
-43.5488

>  <SCORE.INTER>
-43.2626

>  <SCORE.INTER.CONST>
1

>  <SCORE.INTER.POLAR>
0

>  <SCORE.INTER.ROT>
2

>  <SCORE.INTER.SOLV>
33.7839

>  <SCORE.INTER.VDW>
-45.0363

>  <SCORE.INTER.norm>
-0.940491

>  <SCORE.INTRA>
-0.28623

>  <SCORE.INTRA.DIHEDRAL>
-0.0192348

>  <SCORE.INTRA.DIHEDRAL.0>
2.42188

>  <SCORE.INTRA.POLAR>
0

>  <SCORE.INTRA.POLAR.0>
0

>  <SCORE.INTRA.REPUL>
0

>  <SCORE.INTRA.REPUL.0>
0

>  <SCORE.INTRA.SOLV>
0.638038

>  <SCORE.INTRA.SOLV.lig_0>
-127.307

>  <SCORE.INTRA.VDW>
-0.595632

>  <SCORE.INTRA.VDW.0>
-2.19936

>  <SCORE.INTRA.norm>
-0.00622238

>  <SCORE.RESTR>
0

>  <SCORE.RESTR.CAVITY>
0

>  <SCORE.RESTR.norm>
0

>  <SCORE.SYSTEM>
0

>  <SCORE.SYSTEM.CONST>
0

>  <SCORE.SYSTEM.DIHEDRAL>
0

>  <SCORE.SYSTEM.SOLV>
0

>  <SCORE.SYSTEM.norm>
0

>  <SCORE.heavy>
46

>  <SCORE.norm>
-0.946713

>  <RMSD>
2.133

$$$$
ligand
 OpenBabel02271912143D
libRbt.so/2013.1/901 2013/11/27
 46 52  0  0  0  0  0  0  0  0999 V2000
  159.2748   41.7572  146.3445 P   0  0  1  0  0  0  0  0  0  0  0  0
  160.5235   46.7792  143.9673 P   0  0  1  0  0  0  0  0  0  0  0  0
  157.8870   41.2394  146.0671 O   0  5  0  0  0  0  0  0  0  0  0  0
  160.2301   40.8076  147.0340 O   0  0  0  0  0  0  0  0  0  0  0  0
  161.2492   42.0752  144.6124 C   0  0  0  0  0  0  0  0  0  0  0  0
  159.8924   42.3091  144.9664 O   0  0  0  0  0  0  0  0  0  0  0  0
  161.6640   43.0157  143.4929 C   0  0  1  0  0  0  0  0  0  0  0  0
  161.6799   42.2757  142.2805 O   0  0  0  0  0  0  0  0  0  0  0  0
  160.7416   44.2043  143.2544 C   0  0  1  0  0  0  0  0  0  0  0  0
  161.3289   45.3804  143.7914 O   0  0  0  0  0  0  0  0  0  0  0  0
  160.7193   44.3363  141.7481 C   0  0  1  0  0  0  0  0  0  0  0  0
  161.7703   45.2081  141.3272 O   0  0  0  0  0  0  0  0  0  0  0  0
  161.0473   42.9711  141.2170 C   0  0  2  0  0  0  0  0  0  0  0  0
  156.3490   45.4724  147.1700 C   0  0  1  0  0  0  0  0  0  0  0  0
  157.4355   39.4843  142.7480 N   0  0  0  0  0  0  0  0  0  0  0  0
  158.5555   39.9016  143.3681 C   0  0  1  0  0  0  0  0  0  0  0  0
  156.8686   44.0525  147.0833 C   0  0  2  0  0  0  0  0  0  0  0  0
  158.8657   39.3883  144.5796 N   0  0  0  0  0  0  0  0  0  0  0  0
  156.7561   43.4742  148.3867 O   0  0  0  0  0  0  0  0  0  0  0  0
  158.3238   44.1806  146.6735 C   0  0  2  0  0  0  0  0  0  0  0  0
  159.4039   40.8147  142.8435 N   0  0  0  0  0  0  0  0  0  0  0  0
  159.1127   43.1143  147.1996 O   0  0  0  0  0  0  0  0  0  0  0  0
  159.1652   41.3709  141.6365 C   0  0  2  0  0  0  0  0  0  0  0  0
  158.7102   45.5339  147.2663 C   0  0  2  0  0  0  0  0  0  0  0  0
  157.5022   46.2850  147.4047 O   0  0  0  0  0  0  0  0  0  0  0  0
  157.9633   40.9615  140.9033 C   0  0  2  0  0  0  0  0  0  0  0  0
  159.7166   46.3409  146.4401 C   0  0  0  0  0  0  0  0  0  0  0  0
  159.3906   46.3923  145.0518 O   0  0  0  0  0  0  0  0  0  0  0  0
  157.0803   39.9566  141.5408 C   0  0  0  0  0  0  0  0  0  0  0  0
  156.0371   39.5719  140.9598 O   0  0  0  0  0  0  0  0  0  0  0  0
  157.9751   41.6542  139.7505 N   0  0  0  0  0  0  0  0  0  0  0  0
  159.0799   42.4381  139.7434 C   0  0  0  0  0  0  0  0  0  0  0  0
  159.7891   42.2674  140.8727 N   0  0  1  0  0  0  0  0  0  0  0  0
  152.2971   44.9593  143.8599 N   0  0  0  0  0  0  0  0  0  0  0  0
  161.5050   47.7530  144.5920 O   0  5  0  0  0  0  0  0  0  0  0  0
  152.4979   44.4072  145.0665 C   0  0  2  0  0  0  0  0  0  0  0  0
  151.5424   43.5937  145.5402 N   0  0  0  0  0  0  0  0  0  0  0  0
  159.8179   47.1107  142.6748 O   0  0  0  0  0  0  0  0  0  0  0  0
  153.6005   44.6317  145.8189 N   0  0  0  0  0  0  0  0  0  0  0  0
  154.5802   45.4482  145.3775 C   0  0  1  0  0  0  0  0  0  0  0  0
  154.4196   46.0863  144.0556 C   0  0  1  0  0  0  0  0  0  0  0  0
  153.1750   45.7933  143.3001 C   0  0  0  0  0  0  0  0  0  0  0  0
  152.9473   46.2790  142.1712 O   0  0  0  0  0  0  0  0  0  0  0  0
  155.5142   46.8393  143.8631 N   0  0  0  0  0  0  0  0  0  0  0  0
  156.3037   46.6881  144.9627 C   0  0  0  0  0  0  0  0  0  0  0  0
  155.7479   45.8607  145.8700 N   0  0  2  0  0  0  0  0  0  0  0  0
  1  3  1  6  0  0  0
  1  4  2  0  0  0  0
  1  6  1  0  0  0  0
  1 22  1  0  0  0  0
  2 28  1  0  0  0  0
  2 35  1  1  0  0  0
  2 38  2  0  0  0  0
  2 10  1  0  0  0  0
  5  6  1  0  0  0  0
  7  5  1  1  0  0  0
  7  8  1  0  0  0  0
  7  9  1  0  0  0  0
  9 10  1  1  0  0  0
  9 11  1  0  0  0  0
 11 12  1  1  0  0  0
 11 13  1  0  0  0  0
 13  8  1  1  0  0  0
 13 33  1  0  0  0  0
 14 46  1  0  0  0  0
 14 17  1  0  0  0  0
 14 25  1  6  0  0  0
 15 16  1  0  0  0  0
 15 29  1  0  0  0  0
 16 18  1  6  0  0  0
 16 21  1  0  0  0  0
 17 19  1  1  0  0  0
 17 20  1  0  0  0  0
 20 22  1  1  0  0  0
 20 24  1  0  0  0  0
 23 21  1  6  0  0  0
 23 26  1  0  0  0  0
 23 33  1  0  0  0  0
 24 25  1  6  0  0  0
 24 27  1  0  0  0  0
 26 29  1  6  0  0  0
 26 31  1  0  0  0  0
 27 28  1  0  0  0  0
 29 30  2  0  0  0  0
 31 32  1  0  0  0  0
 33 32  1  1  0  0  0
 34 36  1  0  0  0  0
 34 42  1  0  0  0  0
 36 37  1  1  0  0  0
 36 39  1  0  0  0  0
 40 39  1  1  0  0  0
 40 41  1  0  0  0  0
 40 46  1  0  0  0  0
 41 42  1  1  0  0  0
 41 44  1  0  0  0  0
 42 43  2  0  0  0  0
 44 45  1  0  0  0  0
 46 45  1  6  0  0  0
M  CHG  2   3  -1  35  -1
M  END
>  <CHROM.1>
16.70980450,73.82704074,158.13071098,43.75535090,144.20282350,-0.58173146
0.09675123,0.58795062

>  <Name>
ligand

>  <RI>
0

>  <Rbt.Current_Directory>
/home/itssahil/PROJECTS/Mol_Feturizer/Test_systems_manuscript/rnas/4yb0

>  <Rbt.Executable>
rbdock ($Id: //depot/dev/client3/rdock/2013.1/src/exe/rbdock.cxx#4 $)

>  <Rbt.Library>
libRbt.so (2013.1, Build901 2013/11/27)

>  <Rbt.Parameter_File>
/export/apps/rDock/src/rDock_2013.1_src/data/scripts/dock_solv.prm

>  <Rbt.Receptor>
prm/pocket_docking_2.prm

>  <SCORE>
-6.49477

>  <SCORE.INTER>
-11.1748

>  <SCORE.INTER.CONST>
1

>  <SCORE.INTER.POLAR>
0

>  <SCORE.INTER.ROT>
2

>  <SCORE.INTER.SOLV>
35.9935

>  <SCORE.INTER.VDW>
-24.381

>  <SCORE.INTER.norm>
-0.24293

>  <SCORE.INTRA>
3.79351

>  <SCORE.INTRA.DIHEDRAL>
-0.0596421

>  <SCORE.INTRA.DIHEDRAL.0>
2.42188

>  <SCORE.INTRA.POLAR>
0

>  <SCORE.INTRA.POLAR.0>
0

>  <SCORE.INTRA.REPUL>
0

>  <SCORE.INTRA.REPUL.0>
0

>  <SCORE.INTRA.SOLV>
9.64504

>  <SCORE.INTRA.SOLV.lig_0>
-127.307

>  <SCORE.INTRA.VDW>
-0.999187

>  <SCORE.INTRA.VDW.0>
-2.19936

>  <SCORE.INTRA.norm>
0.0824677

>  <SCORE.RESTR>
0.886503

>  <SCORE.RESTR.CAVITY>
0.886503

>  <SCORE.RESTR.norm>
0.0192718

>  <SCORE.SYSTEM>
0

>  <SCORE.SYSTEM.CONST>
0

>  <SCORE.SYSTEM.DIHEDRAL>
0

>  <SCORE.SYSTEM.SOLV>
0

>  <SCORE.SYSTEM.norm>
0

>  <SCORE.heavy>
46

>  <SCORE.norm>
-0.141191

>  <RMSD>
2.134

$$$$
ligand
 OpenBabel02271912143D
libRbt.so/2013.1/901 2013/11/27
 46 52  0  0  0  0  0  0  0  0999 V2000
  160.0975   45.9438  143.6768 P   0  0  1  0  0  0  0  0  0  0  0  0
  159.5897   41.5926  147.3155 P   0  0  1  0  0  0  0  0  0  0  0  0
  159.2680   45.8367  142.4232 O   0  5  0  0  0  0  0  0  0  0  0  0
  160.7957   47.2641  143.9198 O   0  0  0  0  0  0  0  0  0  0  0  0
  159.2308   46.2406  146.1588 C   0  0  0  0  0  0  0  0  0  0  0  0
  159.1765   45.5307  144.9283 O   0  0  0  0  0  0  0  0  0  0  0  0
  158.5783   45.4220  147.2605 C   0  0  1  0  0  0  0  0  0  0  0  0
  157.2906   45.9676  147.5096 O   0  0  0  0  0  0  0  0  0  0  0  0
  158.3624   43.9470  146.9465 C   0  0  1  0  0  0  0  0  0  0  0  0
  159.3369   43.1666  147.6231 O   0  0  0  0  0  0  0  0  0  0  0  0
  157.0131   43.6497  147.5612 C   0  0  1  0  0  0  0  0  0  0  0  0
  157.1857   43.2230  148.9140 O   0  0  0  0  0  0  0  0  0  0  0  0
  156.2909   44.9649  147.6084 C   0  0  2  0  0  0  0  0  0  0  0  0
  160.8434   41.4924  142.0420 C   0  0  1  0  0  0  0  0  0  0  0  0
  154.9910   47.7391  143.3469 N   0  0  0  0  0  0  0  0  0  0  0  0
  155.9321   47.9742  144.2808 C   0  0  1  0  0  0  0  0  0  0  0  0
  160.5748   42.9827  142.0619 C   0  0  2  0  0  0  0  0  0  0  0  0
  156.7045   49.0781  144.1715 N   0  0  0  0  0  0  0  0  0  0  0  0
  161.5834   43.6111  141.2658 O   0  0  0  0  0  0  0  0  0  0  0  0
  160.7007   43.3951  143.5166 C   0  0  2  0  0  0  0  0  0  0  0  0
  156.1531   47.1624  145.3395 N   0  0  0  0  0  0  0  0  0  0  0  0
  161.1669   44.7378  143.6427 O   0  0  0  0  0  0  0  0  0  0  0  0
  155.4208   46.0426  145.5203 C   0  0  2  0  0  0  0  0  0  0  0  0
  161.7059   42.3800  144.0561 C   0  0  2  0  0  0  0  0  0  0  0  0
  161.6325   41.2333  143.2062 O   0  0  0  0  0  0  0  0  0  0  0  0
  154.3760   45.7248  144.5418 C   0  0  2  0  0  0  0  0  0  0  0  0
  161.4779   41.9496  145.5084 C   0  0  0  0  0  0  0  0  0  0  0  0
  160.1184   41.6189  145.7893 O   0  0  0  0  0  0  0  0  0  0  0  0
  154.1915   46.6604  143.4076 C   0  0  0  0  0  0  0  0  0  0  0  0
  153.3143   46.4364  142.5391 O   0  0  0  0  0  0  0  0  0  0  0  0
  153.8083   44.5796  144.9604 N   0  0  0  0  0  0  0  0  0  0  0  0
  154.4309   44.1949  146.1004 C   0  0  0  0  0  0  0  0  0  0  0  0
  155.3952   45.0709  146.4322 N   0  0  1  0  0  0  0  0  0  0  0  0
  156.1807   40.3849  139.8810 N   0  0  0  0  0  0  0  0  0  0  0  0
  160.7202   41.1622  148.2312 O   0  5  0  0  0  0  0  0  0  0  0  0
  157.1787   41.1575  139.4250 C   0  0  2  0  0  0  0  0  0  0  0  0
  157.0025   41.7576  138.2384 N   0  0  0  0  0  0  0  0  0  0  0  0
  158.2661   40.8673  147.3232 O   0  0  0  0  0  0  0  0  0  0  0  0
  158.3391   41.3542  140.0936 N   0  0  0  0  0  0  0  0  0  0  0  0
  158.5541   40.7628  141.2875 C   0  0  1  0  0  0  0  0  0  0  0  0
  157.4930   39.9002  141.8447 C   0  0  1  0  0  0  0  0  0  0  0  0
  156.2553   39.7310  141.0414 C   0  0  0  0  0  0  0  0  0  0  0  0
  155.2976   39.0271  141.4279 O   0  0  0  0  0  0  0  0  0  0  0  0
  157.9564   39.4395  143.0174 N   0  0  0  0  0  0  0  0  0  0  0  0
  159.1995   39.9677  143.1931 C   0  0  0  0  0  0  0  0  0  0  0  0
  159.5607   40.7557  142.1610 N   0  0  2  0  0  0  0  0  0  0  0  0
  1  3  1  6  0  0  0
  1  4  2  0  0  0  0
  1  6  1  0  0  0  0
  1 22  1  0  0  0  0
  2 28  1  0  0  0  0
  2 35  1  1  0  0  0
  2 38  2  0  0  0  0
  2 10  1  0  0  0  0
  5  6  1  0  0  0  0
  7  5  1  6  0  0  0
  7  8  1  0  0  0  0
  7  9  1  0  0  0  0
  9 10  1  1  0  0  0
  9 11  1  0  0  0  0
 11 12  1  1  0  0  0
 11 13  1  0  0  0  0
 13  8  1  6  0  0  0
 13 33  1  0  0  0  0
 14 46  1  0  0  0  0
 14 17  1  0  0  0  0
 14 25  1  1  0  0  0
 15 16  1  0  0  0  0
 15 29  1  0  0  0  0
 16 18  1  1  0  0  0
 16 21  1  0  0  0  0
 17 19  1  6  0  0  0
 17 20  1  0  0  0  0
 20 22  1  6  0  0  0
 20 24  1  0  0  0  0
 23 21  1  1  0  0  0
 23 26  1  0  0  0  0
 23 33  1  0  0  0  0
 24 25  1  6  0  0  0
 24 27  1  0  0  0  0
 26 29  1  1  0  0  0
 26 31  1  0  0  0  0
 27 28  1  0  0  0  0
 29 30  2  0  0  0  0
 31 32  1  0  0  0  0
 33 32  1  6  0  0  0
 34 36  1  0  0  0  0
 34 42  1  0  0  0  0
 36 37  1  6  0  0  0
 36 39  1  0  0  0  0
 40 39  1  6  0  0  0
 40 41  1  0  0  0  0
 40 46  1  0  0  0  0
 41 42  1  6  0  0  0
 41 44  1  0  0  0  0
 42 43  2  0  0  0  0
 44 45  1  0  0  0  0
 46 45  1  1  0  0  0
M  CHG  2   3  -1  35  -1
M  END
>  <CHROM.1>
-7.53552224,64.07875150,158.18157675,43.56657343,144.26593033,-2.03124443
0.71872400,-2.17988548

>  <Name>
ligand

>  <RI>
0

>  <Rbt.Current_Directory>
/home/itssahil/PROJECTS/Mol_Feturizer/Test_systems_manuscript/rnas/4yb0

>  <Rbt.Executable>
rbdock ($Id: //depot/dev/client3/rdock/2013.1/src/exe/rbdock.cxx#4 $)

>  <Rbt.Library>
libRbt.so (2013.1, Build901 2013/11/27)

>  <Rbt.Parameter_File>
/export/apps/rDock/src/rDock_2013.1_src/data/scripts/dock_solv.prm

>  <Rbt.Receptor>
prm/pocket_docking_4.prm

>  <SCORE>
-43.642

>  <SCORE.INTER>
-43.3283

>  <SCORE.INTER.CONST>
1

>  <SCORE.INTER.POLAR>
0

>  <SCORE.INTER.ROT>
2

>  <SCORE.INTER.SOLV>
34.0471

>  <SCORE.INTER.VDW>
-45.1679

>  <SCORE.INTER.norm>
-0.941919

>  <SCORE.INTRA>
-0.313721

>  <SCORE.INTRA.DIHEDRAL>
-0.0197885

>  <SCORE.INTRA.DIHEDRAL.0>
2.42188

>  <SCORE.INTRA.POLAR>
0

>  <SCORE.INTRA.POLAR.0>
0

>  <SCORE.INTRA.REPUL>
0

>  <SCORE.INTRA.REPUL.0>
0

>  <SCORE.INTRA.SOLV>
0.572171

>  <SCORE.INTRA.SOLV.lig_0>
-127.307

>  <SCORE.INTRA.VDW>
-0.589912

>  <SCORE.INTRA.VDW.0>
-2.19936

>  <SCORE.INTRA.norm>
-0.00682001

>  <SCORE.RESTR>
0

>  <SCORE.RESTR.CAVITY>
0

>  <SCORE.RESTR.norm>
0

>  <SCORE.SYSTEM>
0

>  <SCORE.SYSTEM.CONST>
0

>  <SCORE.SYSTEM.DIHEDRAL>
0

>  <SCORE.SYSTEM.SOLV>
0

>  <SCORE.SYSTEM.norm>
0

>  <SCORE.heavy>
46

>  <SCORE.norm>
-0.948739

>  <RMSD>
2.139

$$$$
ligand
 OpenBabel02271912143D
libRbt.so/2013.1/901 2013/11/27
 46 52  0  0  0  0  0  0  0  0999 V2000
  160.0725   45.9002  143.5924 P   0  0  1  0  0  0  0  0  0  0  0  0
  159.5851   41.6449  147.3455 P   0  0  1  0  0  0  0  0  0  0  0  0
  159.2295   45.7648  142.3505 O   0  5  0  0  0  0  0  0  0  0  0  0
  160.7784   47.2232  143.7945 O   0  0  0  0  0  0  0  0  0  0  0  0
  159.2329   46.2635  146.0748 C   0  0  0  0  0  0  0  0  0  0  0  0
  159.1629   45.5229  144.8634 O   0  0  0  0  0  0  0  0  0  0  0  0
  158.5886   45.4759  147.2037 C   0  0  1  0  0  0  0  0  0  0  0  0
  157.3057   46.0332  147.4520 O   0  0  0  0  0  0  0  0  0  0  0  0
  158.3635   43.9943  146.9294 C   0  0  1  0  0  0  0  0  0  0  0  0
  159.3418   43.2272  147.6156 O   0  0  0  0  0  0  0  0  0  0  0  0
  157.0195   43.7185  147.5654 C   0  0  1  0  0  0  0  0  0  0  0  0
  157.2045   43.3256  148.9268 O   0  0  0  0  0  0  0  0  0  0  0  0
  156.3031   45.0375  147.5866 C   0  0  2  0  0  0  0  0  0  0  0  0
  160.7834   41.4055  142.0636 C   0  0  1  0  0  0  0  0  0  0  0  0
  154.9469   47.7277  143.2889 N   0  0  0  0  0  0  0  0  0  0  0  0
  155.8955   47.9846  144.2092 C   0  0  1  0  0  0  0  0  0  0  0  0
  160.5210   42.8970  142.0483 C   0  0  2  0  0  0  0  0  0  0  0  0
  156.6606   49.0906  144.0728 N   0  0  0  0  0  0  0  0  0  0  0  0
  161.5238   43.5007  141.2262 O   0  0  0  0  0  0  0  0  0  0  0  0
  160.6637   43.3456  143.4907 C   0  0  2  0  0  0  0  0  0  0  0  0
  156.1312   47.1932  145.2802 N   0  0  0  0  0  0  0  0  0  0  0  0
  161.1366   44.6891  143.5778 O   0  0  0  0  0  0  0  0  0  0  0  0
  155.4070   46.0728  145.4880 C   0  0  2  0  0  0  0  0  0  0  0  0
  161.6705   42.3403  144.0455 C   0  0  2  0  0  0  0  0  0  0  0  0
  161.5836   41.1727  143.2258 O   0  0  0  0  0  0  0  0  0  0  0  0
  154.3548   45.7317  144.5255 C   0  0  2  0  0  0  0  0  0  0  0  0
  161.4558   41.9478  145.5106 C   0  0  0  0  0  0  0  0  0  0  0  0
  160.0980   41.6301  145.8138 O   0  0  0  0  0  0  0  0  0  0  0  0
  154.1542   46.6458  143.3765 C   0  0  0  0  0  0  0  0  0  0  0  0
  153.2700   46.4015  142.5207 O   0  0  0  0  0  0  0  0  0  0  0  0
  153.7976   44.5912  144.9700 N   0  0  0  0  0  0  0  0  0  0  0  0
  154.4332   44.2304  146.1106 C   0  0  0  0  0  0  0  0  0  0  0  0
  155.3957   45.1175  146.4174 N   0  0  1  0  0  0  0  0  0  0  0  0
  156.0925   40.2666  139.9813 N   0  0  0  0  0  0  0  0  0  0  0  0
  160.7234   41.2329  148.2602 O   0  5  0  0  0  0  0  0  0  0  0  0
  157.0886   41.0235  139.4959 C   0  0  2  0  0  0  0  0  0  0  0  0
  156.9018   41.5955  138.2970 N   0  0  0  0  0  0  0  0  0  0  0  0
  158.2588   40.9256  147.3852 O   0  0  0  0  0  0  0  0  0  0  0  0
  158.2572   41.2313  140.1467 N   0  0  0  0  0  0  0  0  0  0  0  0
  158.4830   40.6680  141.3521 C   0  0  1  0  0  0  0  0  0  0  0  0
  157.4245   39.8238  141.9417 C   0  0  1  0  0  0  0  0  0  0  0  0
  156.1774   39.6406  141.1563 C   0  0  0  0  0  0  0  0  0  0  0  0
  155.2211   38.9505  141.5703 O   0  0  0  0  0  0  0  0  0  0  0  0
  157.8989   39.3896  143.1201 N   0  0  0  0  0  0  0  0  0  0  0  0
  159.1461   39.9164  143.2692 C   0  0  0  0  0  0  0  0  0  0  0  0
  159.4991   40.6775  142.2145 N   0  0  2  0  0  0  0  0  0  0  0  0
  1  3  1  6  0  0  0
  1  4  2  0  0  0  0
  1  6  1  0  0  0  0
  1 22  1  0  0  0  0
  2 28  1  0  0  0  0
  2 35  1  1  0  0  0
  2 38  2  0  0  0  0
  2 10  1  0  0  0  0
  5  6  1  0  0  0  0
  7  5  1  6  0  0  0
  7  8  1  0  0  0  0
  7  9  1  0  0  0  0
  9 10  1  1  0  0  0
  9 11  1  0  0  0  0
 11 12  1  1  0  0  0
 11 13  1  0  0  0  0
 13  8  1  6  0  0  0
 13 33  1  0  0  0  0
 14 46  1  0  0  0  0
 14 17  1  0  0  0  0
 14 25  1  1  0  0  0
 15 16  1  0  0  0  0
 15 29  1  0  0  0  0
 16 18  1  1  0  0  0
 16 21  1  0  0  0  0
 17 19  1  6  0  0  0
 17 20  1  0  0  0  0
 20 22  1  6  0  0  0
 20 24  1  0  0  0  0
 23 21  1  1  0  0  0
 23 26  1  0  0  0  0
 23 33  1  0  0  0  0
 24 25  1  6  0  0  0
 24 27  1  0  0  0  0
 26 29  1  1  0  0  0
 26 31  1  0  0  0  0
 27 28  1  0  0  0  0
 29 30  2  0  0  0  0
 31 32  1  0  0  0  0
 33 32  1  6  0  0  0
 34 36  1  0  0  0  0
 34 42  1  0  0  0  0
 36 37  1  6  0  0  0
 36 39  1  0  0  0  0
 40 39  1  6  0  0  0
 40 41  1  0  0  0  0
 40 46  1  0  0  0  0
 41 42  1  6  0  0  0
 41 44  1  0  0  0  0
 42 43  2  0  0  0  0
 44 45  1  0  0  0  0
 46 45  1  1  0  0  0
M  CHG  2   3  -1  35  -1
M  END
>  <CHROM.1>
-8.23883506,64.00168331,158.15059648,43.54926957,144.26369293,-2.02243227
0.71476677,-2.21522764

>  <Name>
ligand

>  <RI>
0

>  <Rbt.Current_Directory>
/home/itssahil/PROJECTS/Mol_Feturizer/Test_systems_manuscript/rnas/4yb0

>  <Rbt.Executable>
rbdock ($Id: //depot/dev/client3/rdock/2013.1/src/exe/rbdock.cxx#4 $)

>  <Rbt.Library>
libRbt.so (2013.1, Build901 2013/11/27)

>  <Rbt.Parameter_File>
/export/apps/rDock/src/rDock_2013.1_src/data/scripts/dock_solv.prm

>  <Rbt.Receptor>
prm/pocket_docking_5.prm

>  <SCORE>
-43.6605

>  <SCORE.INTER>
-43.3369

>  <SCORE.INTER.CONST>
1

>  <SCORE.INTER.POLAR>
0

>  <SCORE.INTER.ROT>
2

>  <SCORE.INTER.SOLV>
34.3178

>  <SCORE.INTER.VDW>
-45.2639

>  <SCORE.INTER.norm>
-0.942106

>  <SCORE.INTRA>
-0.323635

>  <SCORE.INTRA.DIHEDRAL>
-0.0189051

>  <SCORE.INTRA.DIHEDRAL.0>
2.42188

>  <SCORE.INTRA.POLAR>
0

>  <SCORE.INTRA.POLAR.0>
0

>  <SCORE.INTRA.REPUL>
0

>  <SCORE.INTRA.REPUL.0>
0

>  <SCORE.INTRA.SOLV>
0.497229

>  <SCORE.INTRA.SOLV.lig_0>
-127.307

>  <SCORE.INTRA.VDW>
-0.562797

>  <SCORE.INTRA.VDW.0>
-2.19936

>  <SCORE.INTRA.norm>
-0.00703555

>  <SCORE.RESTR>
0

>  <SCORE.RESTR.CAVITY>
0

>  <SCORE.RESTR.norm>
0

>  <SCORE.SYSTEM>
0

>  <SCORE.SYSTEM.CONST>
0

>  <SCORE.SYSTEM.DIHEDRAL>
0

>  <SCORE.SYSTEM.SOLV>
0

>  <SCORE.SYSTEM.norm>
0

>  <SCORE.heavy>
46

>  <SCORE.norm>
-0.949142

>  <RMSD>
2.140

$$$$
ligand
 OpenBabel02271912143D
libRbt.so/2013.1/901 2013/11/27
 46 52  0  0  0  0  0  0  0  0999 V2000
  160.1031   46.0115  143.6869 P   0  0  1  0  0  0  0  0  0  0  0  0
  159.6050   41.6738  147.3431 P   0  0  1  0  0  0  0  0  0  0  0  0
  159.2764   45.8958  142.4322 O   0  5  0  0  0  0  0  0  0  0  0  0
  160.7958   47.3354  143.9256 O   0  0  0  0  0  0  0  0  0  0  0  0
  159.2306   46.3154  146.1660 C   0  0  0  0  0  0  0  0  0  0  0  0
  159.1813   45.6001  144.9384 O   0  0  0  0  0  0  0  0  0  0  0  0
  158.5790   45.4990  147.2699 C   0  0  1  0  0  0  0  0  0  0  0  0
  157.2888   46.0407  147.5142 O   0  0  0  0  0  0  0  0  0  0  0  0
  158.3694   44.0219  146.9617 C   0  0  1  0  0  0  0  0  0  0  0  0
  159.3456   43.2481  147.6436 O   0  0  0  0  0  0  0  0  0  0  0  0
  157.0200   43.7220  147.5752 C   0  0  1  0  0  0  0  0  0  0  0  0
  157.1917   43.3018  148.9301 O   0  0  0  0  0  0  0  0  0  0  0  0
  156.2928   45.0346  147.6154 C   0  0  2  0  0  0  0  0  0  0  0  0
  160.8692   41.5560  142.0725 C   0  0  1  0  0  0  0  0  0  0  0  0
  155.0089   47.7705  143.3243 N   0  0  0  0  0  0  0  0  0  0  0  0
  155.9498   48.0113  144.2569 C   0  0  1  0  0  0  0  0  0  0  0  0
  160.5948   43.0453  142.0855 C   0  0  2  0  0  0  0  0  0  0  0  0
  156.7267   49.1111  144.1374 N   0  0  0  0  0  0  0  0  0  0  0  0
  161.6025   43.6742  141.2887 O   0  0  0  0  0  0  0  0  0  0  0  0
  160.7163   43.4644  143.5387 C   0  0  2  0  0  0  0  0  0  0  0  0
  156.1663   47.2095  145.3242 N   0  0  0  0  0  0  0  0  0  0  0  0
  161.1771   44.8094  143.6599 O   0  0  0  0  0  0  0  0  0  0  0  0
  155.4294   46.0944  145.5153 C   0  0  2  0  0  0  0  0  0  0  0  0
  161.7245   42.4555  144.0844 C   0  0  2  0  0  0  0  0  0  0  0  0
  161.6571   41.3049  143.2393 O   0  0  0  0  0  0  0  0  0  0  0  0
  154.3846   45.7708  144.5389 C   0  0  2  0  0  0  0  0  0  0  0  0
  161.4953   42.0303  145.5382 C   0  0  0  0  0  0  0  0  0  0  0  0
  160.1365   41.6956  145.8179 O   0  0  0  0  0  0  0  0  0  0  0  0
  154.2052   46.6955  143.3949 C   0  0  0  0  0  0  0  0  0  0  0  0
  153.3281   46.4662  142.5277 O   0  0  0  0  0  0  0  0  0  0  0  0
  153.8119   44.6322  144.9683 N   0  0  0  0  0  0  0  0  0  0  0  0
  154.4316   44.2566  146.1129 C   0  0  0  0  0  0  0  0  0  0  0  0
  155.3990   45.1322  146.4371 N   0  0  1  0  0  0  0  0  0  0  0  0
  156.2078   40.4350  139.9155 N   0  0  0  0  0  0  0  0  0  0  0  0
  160.7354   41.2516  148.2628 O   0  5  0  0  0  0  0  0  0  0  0  0
  157.2027   41.2114  139.4593 C   0  0  2  0  0  0  0  0  0  0  0  0
  157.0233   41.8121  138.2734 N   0  0  0  0  0  0  0  0  0  0  0  0
  158.2842   40.9434  147.3514 O   0  0  0  0  0  0  0  0  0  0  0  0
  158.3632   41.4113  140.1267 N   0  0  0  0  0  0  0  0  0  0  0  0
  158.5816   40.8195  141.3198 C   0  0  1  0  0  0  0  0  0  0  0  0
  157.5239   39.9528  141.8773 C   0  0  1  0  0  0  0  0  0  0  0  0
  156.2860   39.7802  141.0752 C   0  0  0  0  0  0  0  0  0  0  0  0
  155.3311   39.0727  141.4621 O   0  0  0  0  0  0  0  0  0  0  0  0
  157.9901   39.4925  143.0491 N   0  0  0  0  0  0  0  0  0  0  0  0
  159.2317   40.0247  143.2239 C   0  0  0  0  0  0  0  0  0  0  0  0
  159.5891   40.8148  142.1922 N   0  0  2  0  0  0  0  0  0  0  0  0
  1  3  1  6  0  0  0
  1  4  2  0  0  0  0
  1  6  1  0  0  0  0
  1 22  1  0  0  0  0
  2 28  1  0  0  0  0
  2 35  1  1  0  0  0
  2 38  2  0  0  0  0
  2 10  1  0  0  0  0
  5  6  1  0  0  0  0
  7  5  1  6  0  0  0
  7  8  1  0  0  0  0
  7  9  1  0  0  0  0
  9 10  1  1  0  0  0
  9 11  1  0  0  0  0
 11 12  1  1  0  0  0
 11 13  1  0  0  0  0
 13  8  1  6  0  0  0
 13 33  1  0  0  0  0
 14 46  1  0  0  0  0
 14 17  1  0  0  0  0
 14 25  1  1  0  0  0
 15 16  1  0  0  0  0
 15 29  1  0  0  0  0
 16 18  1  1  0  0  0
 16 21  1  0  0  0  0
 17 19  1  6  0  0  0
 17 20  1  0  0  0  0
 20 22  1  6  0  0  0
 20 24  1  0  0  0  0
 23 21  1  1  0  0  0
 23 26  1  0  0  0  0
 23 33  1  0  0  0  0
 24 25  1  6  0  0  0
 24 27  1  0  0  0  0
 26 29  1  1  0  0  0
 26 31  1  0  0  0  0
 27 28  1  0  0  0  0
 29 30  2  0  0  0  0
 31 32  1  0  0  0  0
 33 32  1  6  0  0  0
 34 36  1  0  0  0  0
 34 42  1  0  0  0  0
 36 37  1  6  0  0  0
 36 39  1  0  0  0  0
 40 39  1  6  0  0  0
 40 41  1  0  0  0  0
 40 46  1  0  0  0  0
 41 42  1  6  0  0  0
 41 44  1  0  0  0  0
 42 43  2  0  0  0  0
 44 45  1  0  0  0  0
 46 45  1  1  0  0  0
M  CHG  2   3  -1  35  -1
M  END
>  <CHROM.1>
-6.97622455,63.73131110,158.19643118,43.62919311,144.28173816,-2.03489769
0.71750891,-2.18014702

>  <Name>
ligand

>  <RI>
0

>  <Rbt.Current_Directory>
/home/itssahil/PROJECTS/Mol_Feturizer/Test_systems_manuscript/rnas/4yb0

>  <Rbt.Executable>
rbdock ($Id: //depot/dev/client3/rdock/2013.1/src/exe/rbdock.cxx#4 $)

>  <Rbt.Library>
libRbt.so (2013.1, Build901 2013/11/27)

>  <Rbt.Parameter_File>
/export/apps/rDock/src/rDock_2013.1_src/data/scripts/dock_solv.prm

>  <Rbt.Receptor>
prm/pocket_docking_6.prm

>  <SCORE>
-43.6336

>  <SCORE.INTER>
-43.3716

>  <SCORE.INTER.CONST>
1

>  <SCORE.INTER.POLAR>
0

>  <SCORE.INTER.ROT>
2

>  <SCORE.INTER.SOLV>
33.2501

>  <SCORE.INTER.VDW>
-44.9311

>  <SCORE.INTER.norm>
-0.942861

>  <SCORE.INTRA>
-0.261966

>  <SCORE.INTRA.DIHEDRAL>
-0.0198739

>  <SCORE.INTRA.DIHEDRAL.0>
2.42188

>  <SCORE.INTRA.POLAR>
0

>  <SCORE.INTRA.POLAR.0>
0

>  <SCORE.INTRA.REPUL>
0

>  <SCORE.INTRA.REPUL.0>
0

>  <SCORE.INTRA.SOLV>
0.713327

>  <SCORE.INTRA.SOLV.lig_0>
-127.307

>  <SCORE.INTRA.VDW>
-0.608693

>  <SCORE.INTRA.VDW.0>
-2.19936

>  <SCORE.INTRA.norm>
-0.00569492

>  <SCORE.RESTR>
0

>  <SCORE.RESTR.CAVITY>
0

>  <SCORE.RESTR.norm>
0

>  <SCORE.SYSTEM>
0

>  <SCORE.SYSTEM.CONST>
0

>  <SCORE.SYSTEM.DIHEDRAL>
0

>  <SCORE.SYSTEM.SOLV>
0

>  <SCORE.SYSTEM.norm>
0

>  <SCORE.heavy>
46

>  <SCORE.norm>
-0.948556

>  <RMSD>
2.141

$$$$
ligand
 OpenBabel02271912143D
libRbt.so/2013.1/901 2013/11/27
 46 52  0  0  0  0  0  0  0  0999 V2000
  160.1050   45.9473  143.6691 P   0  0  1  0  0  0  0  0  0  0  0  0
  159.6057   41.6222  147.3399 P   0  0  1  0  0  0  0  0  0  0  0  0
  159.2720   45.8316  142.4185 O   0  5  0  0  0  0  0  0  0  0  0  0
  160.8043   47.2690  143.9008 O   0  0  0  0  0  0  0  0  0  0  0  0
  159.2452   46.2620  146.1512 C   0  0  0  0  0  0  0  0  0  0  0  0
  159.1872   45.5434  144.9259 O   0  0  0  0  0  0  0  0  0  0  0  0
  158.5953   45.4514  147.2605 C   0  0  1  0  0  0  0  0  0  0  0  0
  157.3085   45.9993  147.5091 O   0  0  0  0  0  0  0  0  0  0  0  0
  158.3781   43.9743  146.9575 C   0  0  1  0  0  0  0  0  0  0  0  0
  159.3542   43.1984  147.6370 O   0  0  0  0  0  0  0  0  0  0  0  0
  157.0304   43.6819  147.5780 C   0  0  1  0  0  0  0  0  0  0  0  0
  157.2065   43.2648  148.9333 O   0  0  0  0  0  0  0  0  0  0  0  0
  156.3088   44.9976  147.6178 C   0  0  2  0  0  0  0  0  0  0  0  0
  160.8450   41.4841  142.0639 C   0  0  1  0  0  0  0  0  0  0  0  0
  154.9980   47.7421  143.3404 N   0  0  0  0  0  0  0  0  0  0  0  0
  155.9416   47.9835  144.2700 C   0  0  1  0  0  0  0  0  0  0  0  0
  160.5769   42.9746  142.0739 C   0  0  2  0  0  0  0  0  0  0  0  0
  156.7141   49.0865  144.1509 N   0  0  0  0  0  0  0  0  0  0  0  0
  161.5835   43.5969  141.2707 O   0  0  0  0  0  0  0  0  0  0  0  0
  160.7069   43.3972  143.5253 C   0  0  2  0  0  0  0  0  0  0  0  0
  156.1653   47.1792  145.3339 N   0  0  0  0  0  0  0  0  0  0  0  0
  161.1739   44.7407  143.6406 O   0  0  0  0  0  0  0  0  0  0  0  0
  155.4333   46.0608  145.5245 C   0  0  2  0  0  0  0  0  0  0  0  0
  161.7133   42.3857  144.0693 C   0  0  2  0  0  0  0  0  0  0  0  0
  161.6372   41.2330  143.2277 O   0  0  0  0  0  0  0  0  0  0  0  0
  154.3858   45.7364  144.5511 C   0  0  2  0  0  0  0  0  0  0  0  0
  161.4890   41.9657  145.5252 C   0  0  0  0  0  0  0  0  0  0  0  0
  160.1302   41.6375  145.8122 O   0  0  0  0  0  0  0  0  0  0  0  0
  154.1984   46.6640  143.4108 C   0  0  0  0  0  0  0  0  0  0  0  0
  153.3188   46.4342  142.5463 O   0  0  0  0  0  0  0  0  0  0  0  0
  153.8190   44.5944  144.9793 N   0  0  0  0  0  0  0  0  0  0  0  0
  154.4445   44.2175  146.1203 C   0  0  0  0  0  0  0  0  0  0  0  0
  155.4100   45.0956  146.4433 N   0  0  1  0  0  0  0  0  0  0  0  0
  156.1789   40.3574  139.9202 N   0  0  0  0  0  0  0  0  0  0  0  0
  160.7385   41.1979  148.2556 O   0  5  0  0  0  0  0  0  0  0  0  0
  157.1763   41.1257  139.4557 C   0  0  2  0  0  0  0  0  0  0  0  0
  156.9984   41.7149  138.2638 N   0  0  0  0  0  0  0  0  0  0  0  0
  158.2818   40.8974  147.3563 O   0  0  0  0  0  0  0  0  0  0  0  0
  158.3377   41.3284  140.1206 N   0  0  0  0  0  0  0  0  0  0  0  0
  158.5545   40.7479  141.3195 C   0  0  1  0  0  0  0  0  0  0  0  0
  157.4941   39.8907  141.8863 C   0  0  1  0  0  0  0  0  0  0  0  0
  156.2552   39.7142  141.0864 C   0  0  0  0  0  0  0  0  0  0  0  0
  155.2980   39.0141  141.4808 O   0  0  0  0  0  0  0  0  0  0  0  0
  157.9592   39.4407  143.0625 N   0  0  0  0  0  0  0  0  0  0  0  0
  159.2026   39.9703  143.2314 C   0  0  0  0  0  0  0  0  0  0  0  0
  159.5624   40.7487  142.1916 N   0  0  2  0  0  0  0  0  0  0  0  0
  1  3  1  6  0  0  0
  1  4  2  0  0  0  0
  1  6  1  0  0  0  0
  1 22  1  0  0  0  0
  2 28  1  0  0  0  0
  2 35  1  1  0  0  0
  2 38  2  0  0  0  0
  2 10  1  0  0  0  0
  5  6  1  0  0  0  0
  7  5  1  6  0  0  0
  7  8  1  0  0  0  0
  7  9  1  0  0  0  0
  9 10  1  1  0  0  0
  9 11  1  0  0  0  0
 11 12  1  1  0  0  0
 11 13  1  0  0  0  0
 13  8  1  6  0  0  0
 13 33  1  0  0  0  0
 14 46  1  0  0  0  0
 14 17  1  0  0  0  0
 14 25  1  1  0  0  0
 15 16  1  0  0  0  0
 15 29  1  0  0  0  0
 16 18  1  1  0  0  0
 16 21  1  0  0  0  0
 17 19  1  6  0  0  0
 17 20  1  0  0  0  0
 20 22  1  6  0  0  0
 20 24  1  0  0  0  0
 23 21  1  1  0  0  0
 23 26  1  0  0  0  0
 23 33  1  0  0  0  0
 24 25  1  6  0  0  0
 24 27  1  0  0  0  0
 26 29  1  1  0  0  0
 26 31  1  0  0  0  0
 27 28  1  0  0  0  0
 29 30  2  0  0  0  0
 31 32  1  0  0  0  0
 33 32  1  6  0  0  0
 34 36  1  0  0  0  0
 34 42  1  0  0  0  0
 36 37  1  6  0  0  0
 36 39  1  0  0  0  0
 40 39  1  6  0  0  0
 40 41  1  0  0  0  0
 40 46  1  0  0  0  0
 41 42  1  6  0  0  0
 41 44  1  0  0  0  0
 42 43  2  0  0  0  0
 44 45  1  0  0  0  0
 46 45  1  1  0  0  0
M  CHG  2   3  -1  35  -1
M  END
>  <CHROM.1>
-7.54181689,64.21698644,158.19018835,43.57437477,144.27989106,-2.02704319
0.71745153,-2.18919175

>  <Name>
ligand

>  <RI>
0

>  <Rbt.Current_Directory>
/home/itssahil/PROJECTS/Mol_Feturizer/Test_systems_manuscript/rnas/4yb0

>  <Rbt.Executable>
rbdock ($Id: //depot/dev/client3/rdock/2013.1/src/exe/rbdock.cxx#4 $)

>  <Rbt.Library>
libRbt.so (2013.1, Build901 2013/11/27)

>  <Rbt.Parameter_File>
/export/apps/rDock/src/rDock_2013.1_src/data/scripts/dock_solv.prm

>  <Rbt.Receptor>
prm/pocket_docking_4.prm

>  <SCORE>
-43.5627

>  <SCORE.INTER>
-43.2473

>  <SCORE.INTER.CONST>
1

>  <SCORE.INTER.POLAR>
0

>  <SCORE.INTER.ROT>
2

>  <SCORE.INTER.SOLV>
33.7832

>  <SCORE.INTER.VDW>
-45.0259

>  <SCORE.INTER.norm>
-0.940158

>  <SCORE.INTRA>
-0.315463

>  <SCORE.INTRA.DIHEDRAL>
-0.0199927

>  <SCORE.INTRA.DIHEDRAL.0>
2.42188

>  <SCORE.INTRA.POLAR>
0

>  <SCORE.INTRA.POLAR.0>
0

>  <SCORE.INTRA.REPUL>
0

>  <SCORE.INTRA.REPUL.0>
0

>  <SCORE.INTRA.SOLV>
0.570513

>  <SCORE.INTRA.SOLV.lig_0>
-127.307

>  <SCORE.INTRA.VDW>
-0.590723

>  <SCORE.INTRA.VDW.0>
-2.19936

>  <SCORE.INTRA.norm>
-0.00685788

>  <SCORE.RESTR>
0

>  <SCORE.RESTR.CAVITY>
0

>  <SCORE.RESTR.norm>
0

>  <SCORE.SYSTEM>
0

>  <SCORE.SYSTEM.CONST>
0

>  <SCORE.SYSTEM.DIHEDRAL>
0

>  <SCORE.SYSTEM.SOLV>
0

>  <SCORE.SYSTEM.norm>
0

>  <SCORE.heavy>
46

>  <SCORE.norm>
-0.947016

>  <RMSD>
2.146

$$$$
ligand
 OpenBabel02271912143D
libRbt.so/2013.1/901 2013/11/27
 46 52  0  0  0  0  0  0  0  0999 V2000
  160.1058   45.9539  143.7007 P   0  0  1  0  0  0  0  0  0  0  0  0
  159.6254   41.6401  147.3874 P   0  0  1  0  0  0  0  0  0  0  0  0
  159.2738   45.8296  142.4503 O   0  5  0  0  0  0  0  0  0  0  0  0
  160.7988   47.2797  143.9278 O   0  0  0  0  0  0  0  0  0  0  0  0
  159.2436   46.2737  146.1814 C   0  0  0  0  0  0  0  0  0  0  0  0
  159.1895   45.5503  144.9588 O   0  0  0  0  0  0  0  0  0  0  0  0
  158.5972   45.4642  147.2935 C   0  0  1  0  0  0  0  0  0  0  0  0
  157.3077   46.0070  147.5397 O   0  0  0  0  0  0  0  0  0  0  0  0
  158.3870   43.9850  146.9959 C   0  0  1  0  0  0  0  0  0  0  0  0
  159.3665   43.2163  147.6786 O   0  0  0  0  0  0  0  0  0  0  0  0
  157.0404   43.6886  147.6170 C   0  0  1  0  0  0  0  0  0  0  0  0
  157.2181   43.2773  148.9740 O   0  0  0  0  0  0  0  0  0  0  0  0
  156.3127   45.0011  147.6517 C   0  0  2  0  0  0  0  0  0  0  0  0
  160.8672   41.4883  142.1123 C   0  0  1  0  0  0  0  0  0  0  0  0
  154.9861   47.7271  143.3674 N   0  0  0  0  0  0  0  0  0  0  0  0
  155.9277   47.9768  144.2969 C   0  0  1  0  0  0  0  0  0  0  0  0
  160.5921   42.9775  142.1167 C   0  0  2  0  0  0  0  0  0  0  0  0
  156.6930   49.0845  144.1756 N   0  0  0  0  0  0  0  0  0  0  0  0
  161.5961   43.6016  141.3115 O   0  0  0  0  0  0  0  0  0  0  0  0
  160.7196   43.4062  143.5666 C   0  0  2  0  0  0  0  0  0  0  0  0
  156.1561   47.1764  145.3627 N   0  0  0  0  0  0  0  0  0  0  0  0
  161.1803   44.7522  143.6770 O   0  0  0  0  0  0  0  0  0  0  0  0
  155.4313   46.0537  145.5555 C   0  0  2  0  0  0  0  0  0  0  0  0
  161.7306   42.4014  144.1146 C   0  0  2  0  0  0  0  0  0  0  0  0
  161.6601   41.2452  143.2774 O   0  0  0  0  0  0  0  0  0  0  0  0
  154.3864   45.7202  144.5825 C   0  0  2  0  0  0  0  0  0  0  0  0
  161.5078   41.9857  145.5721 C   0  0  0  0  0  0  0  0  0  0  0  0
  160.1504   41.6522  145.8598 O   0  0  0  0  0  0  0  0  0  0  0  0
  154.1936   46.6440  143.4399 C   0  0  0  0  0  0  0  0  0  0  0  0
  153.3158   46.4064  142.5756 O   0  0  0  0  0  0  0  0  0  0  0  0
  153.8268   44.5755  145.0130 N   0  0  0  0  0  0  0  0  0  0  0  0
  154.4543   44.2054  146.1551 C   0  0  0  0  0  0  0  0  0  0  0  0
  155.4138   45.0905  146.4766 N   0  0  1  0  0  0  0  0  0  0  0  0
  156.1943   40.3566  139.9861 N   0  0  0  0  0  0  0  0  0  0  0  0
  160.7599   41.2245  148.3051 O   0  5  0  0  0  0  0  0  0  0  0  0
  157.1864   41.1313  139.5209 C   0  0  2  0  0  0  0  0  0  0  0  0
  157.0002   41.7267  138.3335 N   0  0  0  0  0  0  0  0  0  0  0  0
  158.3050   40.9092  147.4061 O   0  0  0  0  0  0  0  0  0  0  0  0
  158.3506   41.3344  140.1811 N   0  0  0  0  0  0  0  0  0  0  0  0
  158.5756   40.7479  141.3755 C   0  0  1  0  0  0  0  0  0  0  0  0
  157.5214   39.8834  141.9427 C   0  0  1  0  0  0  0  0  0  0  0  0
  156.2790   39.7069  141.1482 C   0  0  0  0  0  0  0  0  0  0  0  0
  155.3265   39.0009  141.5434 O   0  0  0  0  0  0  0  0  0  0  0  0
  157.9942   39.4283  143.1138 N   0  0  0  0  0  0  0  0  0  0  0  0
  159.2365   39.9616  143.2794 C   0  0  0  0  0  0  0  0  0  0  0  0
  159.5880   40.7473  142.2423 N   0  0  2  0  0  0  0  0  0  0  0  0
  1  3  1  6  0  0  0
  1  4  2  0  0  0  0
  1  6  1  0  0  0  0
  1 22  1  0  0  0  0
  2 28  1  0  0  0  0
  2 35  1  1  0  0  0
  2 38  2  0  0  0  0
  2 10  1  0  0  0  0
  5  6  1  0  0  0  0
  7  5  1  6  0  0  0
  7  8  1  0  0  0  0
  7  9  1  0  0  0  0
  9 10  1  1  0  0  0
  9 11  1  0  0  0  0
 11 12  1  1  0  0  0
 11 13  1  0  0  0  0
 13  8  1  6  0  0  0
 13 33  1  0  0  0  0
 14 46  1  0  0  0  0
 14 17  1  0  0  0  0
 14 25  1  1  0  0  0
 15 16  1  0  0  0  0
 15 29  1  0  0  0  0
 16 18  1  1  0  0  0
 16 21  1  0  0  0  0
 17 19  1  6  0  0  0
 17 20  1  0  0  0  0
 20 22  1  6  0  0  0
 20 24  1  0  0  0  0
 23 21  1  1  0  0  0
 23 26  1  0  0  0  0
 23 33  1  0  0  0  0
 24 25  1  6  0  0  0
 24 27  1  0  0  0  0
 26 29  1  1  0  0  0
 26 31  1  0  0  0  0
 27 28  1  0  0  0  0
 29 30  2  0  0  0  0
 31 32  1  0  0  0  0
 33 32  1  6  0  0  0
 34 36  1  0  0  0  0
 34 42  1  0  0  0  0
 36 37  1  6  0  0  0
 36 39  1  0  0  0  0
 40 39  1  6  0  0  0
 40 41  1  0  0  0  0
 40 46  1  0  0  0  0
 41 42  1  6  0  0  0
 41 44  1  0  0  0  0
 42 43  2  0  0  0  0
 44 45  1  0  0  0  0
 46 45  1  1  0  0  0
M  CHG  2   3  -1  35  -1
M  END
>  <CHROM.1>
-7.67437334,63.58622580,158.20000250,43.57738148,144.32173434,-2.03677231
0.71348292,-2.19001841

>  <Name>
ligand

>  <RI>
0

>  <Rbt.Current_Directory>
/home/itssahil/PROJECTS/Mol_Feturizer/Test_systems_manuscript/rnas/4yb0

>  <Rbt.Executable>
rbdock ($Id: //depot/dev/client3/rdock/2013.1/src/exe/rbdock.cxx#4 $)

>  <Rbt.Library>
libRbt.so (2013.1, Build901 2013/11/27)

>  <Rbt.Parameter_File>
/export/apps/rDock/src/rDock_2013.1_src/data/scripts/dock_solv.prm

>  <Rbt.Receptor>
prm/pocket_docking_6.prm

>  <SCORE>
-43.5147

>  <SCORE.INTER>
-43.1931

>  <SCORE.INTER.CONST>
1

>  <SCORE.INTER.POLAR>
0

>  <SCORE.INTER.ROT>
2

>  <SCORE.INTER.SOLV>
33.2824

>  <SCORE.INTER.VDW>
-44.8229

>  <SCORE.INTER.norm>
-0.93898

>  <SCORE.INTRA>
-0.32164

>  <SCORE.INTRA.DIHEDRAL>
-0.0188811

>  <SCORE.INTRA.DIHEDRAL.0>
2.42188

>  <SCORE.INTRA.POLAR>
0

>  <SCORE.INTRA.POLAR.0>
0

>  <SCORE.INTRA.REPUL>
0

>  <SCORE.INTRA.REPUL.0>
0

>  <SCORE.INTRA.SOLV>
0.537313

>  <SCORE.INTRA.SOLV.lig_0>
-127.307

>  <SCORE.INTRA.VDW>
-0.580856

>  <SCORE.INTRA.VDW.0>
-2.19936

>  <SCORE.INTRA.norm>
-0.00699218

>  <SCORE.RESTR>
0

>  <SCORE.RESTR.CAVITY>
0

>  <SCORE.RESTR.norm>
0

>  <SCORE.SYSTEM>
0

>  <SCORE.SYSTEM.CONST>
0

>  <SCORE.SYSTEM.DIHEDRAL>
0

>  <SCORE.SYSTEM.SOLV>
0

>  <SCORE.SYSTEM.norm>
0

>  <SCORE.heavy>
46

>  <SCORE.norm>
-0.945973

>  <RMSD>
2.146

$$$$
ligand
 OpenBabel02271912143D
libRbt.so/2013.1/901 2013/11/27
 46 52  0  0  0  0  0  0  0  0999 V2000
  160.1291   45.8703  143.7117 P   0  0  1  0  0  0  0  0  0  0  0  0
  159.5863   41.5901  147.4287 P   0  0  1  0  0  0  0  0  0  0  0  0
  159.3011   45.7456  142.4588 O   0  5  0  0  0  0  0  0  0  0  0  0
  160.8355   47.1902  143.9317 O   0  0  0  0  0  0  0  0  0  0  0  0
  159.2601   46.2182  146.1862 C   0  0  0  0  0  0  0  0  0  0  0  0
  159.2032   45.4863  144.9688 O   0  0  0  0  0  0  0  0  0  0  0  0
  158.6002   45.4243  147.3016 C   0  0  1  0  0  0  0  0  0  0  0  0
  157.3157   45.9829  147.5381 O   0  0  0  0  0  0  0  0  0  0  0  0
  158.3751   43.9453  147.0142 C   0  0  1  0  0  0  0  0  0  0  0  0
  159.3433   43.1711  147.7069 O   0  0  0  0  0  0  0  0  0  0  0  0
  157.0228   43.6682  147.6318 C   0  0  1  0  0  0  0  0  0  0  0  0
  157.1903   43.2653  148.9925 O   0  0  0  0  0  0  0  0  0  0  0  0
  156.3093   44.9887  147.6535 C   0  0  2  0  0  0  0  0  0  0  0  0
  160.8484   41.3848  142.1603 C   0  0  1  0  0  0  0  0  0  0  0  0
  155.0250   47.7011  143.3477 N   0  0  0  0  0  0  0  0  0  0  0  0
  155.9646   47.9481  144.2799 C   0  0  1  0  0  0  0  0  0  0  0  0
  160.5896   42.8769  142.1523 C   0  0  2  0  0  0  0  0  0  0  0  0
  156.7399   49.0484  144.1556 N   0  0  0  0  0  0  0  0  0  0  0  0
  161.6037   43.4839  141.3467 O   0  0  0  0  0  0  0  0  0  0  0  0
  160.7157   43.3151  143.5994 C   0  0  2  0  0  0  0  0  0  0  0  0
  156.1815   47.1519  145.3513 N   0  0  0  0  0  0  0  0  0  0  0  0
  161.1905   44.6568  143.7017 O   0  0  0  0  0  0  0  0  0  0  0  0
  155.4462   46.0367  145.5474 C   0  0  2  0  0  0  0  0  0  0  0  0
  161.7133   42.3036  144.1593 C   0  0  2  0  0  0  0  0  0  0  0  0
  161.6338   41.1419  143.3305 O   0  0  0  0  0  0  0  0  0  0  0  0
  154.4028   45.7065  144.5716 C   0  0  2  0  0  0  0  0  0  0  0  0
  161.4799   41.9014  145.6189 C   0  0  0  0  0  0  0  0  0  0  0  0
  160.1178   41.5848  145.9033 O   0  0  0  0  0  0  0  0  0  0  0  0
  154.2229   46.6252  143.4229 C   0  0  0  0  0  0  0  0  0  0  0  0
  153.3470   46.3902  142.5560 O   0  0  0  0  0  0  0  0  0  0  0  0
  153.8315   44.5692  145.0063 N   0  0  0  0  0  0  0  0  0  0  0  0
  154.4507   44.2003  146.1533 C   0  0  0  0  0  0  0  0  0  0  0  0
  155.4164   45.0790  146.4739 N   0  0  1  0  0  0  0  0  0  0  0  0
  156.1401   40.3523  140.0619 N   0  0  0  0  0  0  0  0  0  0  0  0
  160.7123   41.1691  148.3543 O   0  5  0  0  0  0  0  0  0  0  0  0
  157.1380   41.1216  139.6001 C   0  0  2  0  0  0  0  0  0  0  0  0
  156.9483   41.7399  138.4250 N   0  0  0  0  0  0  0  0  0  0  0  0
  158.2579   40.8737  147.4472 O   0  0  0  0  0  0  0  0  0  0  0  0
  158.3112   41.2978  140.2520 N   0  0  0  0  0  0  0  0  0  0  0  0
  158.5400   40.6877  141.4338 C   0  0  1  0  0  0  0  0  0  0  0  0
  157.4798   39.8277  141.9966 C   0  0  1  0  0  0  0  0  0  0  0  0
  156.2275   39.6816  141.2117 C   0  0  0  0  0  0  0  0  0  0  0  0
  155.2694   38.9816  141.6044 O   0  0  0  0  0  0  0  0  0  0  0  0
  157.9579   39.3462  143.1551 N   0  0  0  0  0  0  0  0  0  0  0  0
  159.2089   39.8600  143.3173 C   0  0  0  0  0  0  0  0  0  0  0  0
  159.5607   40.6588  142.2904 N   0  0  2  0  0  0  0  0  0  0  0  0
  1  3  1  6  0  0  0
  1  4  2  0  0  0  0
  1  6  1  0  0  0  0
  1 22  1  0  0  0  0
  2 28  1  0  0  0  0
  2 35  1  1  0  0  0
  2 38  2  0  0  0  0
  2 10  1  0  0  0  0
  5  6  1  0  0  0  0
  7  5  1  6  0  0  0
  7  8  1  0  0  0  0
  7  9  1  0  0  0  0
  9 10  1  1  0  0  0
  9 11  1  0  0  0  0
 11 12  1  1  0  0  0
 11 13  1  0  0  0  0
 13  8  1  6  0  0  0
 13 33  1  0  0  0  0
 14 46  1  0  0  0  0
 14 17  1  0  0  0  0
 14 25  1  1  0  0  0
 15 16  1  0  0  0  0
 15 29  1  0  0  0  0
 16 18  1  1  0  0  0
 16 21  1  0  0  0  0
 17 19  1  6  0  0  0
 17 20  1  0  0  0  0
 20 22  1  6  0  0  0
 20 24  1  0  0  0  0
 23 21  1  1  0  0  0
 23 26  1  0  0  0  0
 23 33  1  0  0  0  0
 24 25  1  6  0  0  0
 24 27  1  0  0  0  0
 26 29  1  1  0  0  0
 26 31  1  0  0  0  0
 27 28  1  0  0  0  0
 29 30  2  0  0  0  0
 31 32  1  0  0  0  0
 33 32  1  6  0  0  0
 34 36  1  0  0  0  0
 34 42  1  0  0  0  0
 36 37  1  6  0  0  0
 36 39  1  0  0  0  0
 40 39  1  6  0  0  0
 40 41  1  0  0  0  0
 40 46  1  0  0  0  0
 41 42  1  6  0  0  0
 41 44  1  0  0  0  0
 42 43  2  0  0  0  0
 44 45  1  0  0  0  0
 46 45  1  1  0  0  0
M  CHG  2   3  -1  35  -1
M  END
>  <CHROM.1>
-7.84112842,61.94614678,158.19082332,43.52692726,144.34722337,-2.04750835
0.72414895,-2.19934231

>  <Name>
ligand

>  <RI>
0

>  <Rbt.Current_Directory>
/home/itssahil/PROJECTS/Mol_Feturizer/Test_systems_manuscript/rnas/4yb0

>  <Rbt.Executable>
rbdock ($Id: //depot/dev/client3/rdock/2013.1/src/exe/rbdock.cxx#4 $)

>  <Rbt.Library>
libRbt.so (2013.1, Build901 2013/11/27)

>  <Rbt.Parameter_File>
/export/apps/rDock/src/rDock_2013.1_src/data/scripts/dock_solv.prm

>  <Rbt.Receptor>
prm/pocket_docking_4.prm

>  <SCORE>
-43.558

>  <SCORE.INTER>
-43.2275

>  <SCORE.INTER.CONST>
1

>  <SCORE.INTER.POLAR>
0

>  <SCORE.INTER.ROT>
2

>  <SCORE.INTER.SOLV>
33.0467

>  <SCORE.INTER.VDW>
-44.7672

>  <SCORE.INTER.norm>
-0.939728

>  <SCORE.INTRA>
-0.330538

>  <SCORE.INTRA.DIHEDRAL>
-0.0161563

>  <SCORE.INTRA.DIHEDRAL.0>
2.42188

>  <SCORE.INTRA.POLAR>
0

>  <SCORE.INTRA.POLAR.0>
0

>  <SCORE.INTRA.REPUL>
0

>  <SCORE.INTRA.REPUL.0>
0

>  <SCORE.INTRA.SOLV>
0.515794

>  <SCORE.INTRA.SOLV.lig_0>
-127.307

>  <SCORE.INTRA.VDW>
-0.580357

>  <SCORE.INTRA.VDW.0>
-2.19936

>  <SCORE.INTRA.norm>
-0.00718561

>  <SCORE.RESTR>
0

>  <SCORE.RESTR.CAVITY>
0

>  <SCORE.RESTR.norm>
0

>  <SCORE.SYSTEM>
0

>  <SCORE.SYSTEM.CONST>
0

>  <SCORE.SYSTEM.DIHEDRAL>
0

>  <SCORE.SYSTEM.SOLV>
0

>  <SCORE.SYSTEM.norm>
0

>  <SCORE.heavy>
46

>  <SCORE.norm>
-0.946913

>  <RMSD>
2.154

$$$$
ligand
 OpenBabel02271912143D
libRbt.so/2013.1/901 2013/11/27
 46 52  0  0  0  0  0  0  0  0999 V2000
  160.0968   45.8810  143.5963 P   0  0  1  0  0  0  0  0  0  0  0  0
  159.5886   41.6107  147.3295 P   0  0  1  0  0  0  0  0  0  0  0  0
  159.2477   45.7592  142.3573 O   0  5  0  0  0  0  0  0  0  0  0  0
  160.8148   47.1969  143.8023 O   0  0  0  0  0  0  0  0  0  0  0  0
  159.2705   46.2386  146.0840 C   0  0  0  0  0  0  0  0  0  0  0  0
  159.1892   45.5049  144.8691 O   0  0  0  0  0  0  0  0  0  0  0  0
  158.6240   45.4507  147.2114 C   0  0  1  0  0  0  0  0  0  0  0  0
  157.3470   46.0175  147.4679 O   0  0  0  0  0  0  0  0  0  0  0  0
  158.3853   43.9725  146.9305 C   0  0  1  0  0  0  0  0  0  0  0  0
  159.3598   43.1936  147.6088 O   0  0  0  0  0  0  0  0  0  0  0  0
  157.0416   43.7048  147.5706 C   0  0  1  0  0  0  0  0  0  0  0  0
  157.2288   43.3033  148.9292 O   0  0  0  0  0  0  0  0  0  0  0  0
  156.3365   45.0297  147.6015 C   0  0  2  0  0  0  0  0  0  0  0  0
  160.7633   41.3885  142.0416 C   0  0  1  0  0  0  0  0  0  0  0  0
  155.0003   47.7411  143.3108 N   0  0  0  0  0  0  0  0  0  0  0  0
  155.9567   47.9838  144.2270 C   0  0  1  0  0  0  0  0  0  0  0  0
  160.5136   42.8821  142.0351 C   0  0  2  0  0  0  0  0  0  0  0  0
  156.7373   49.0786  144.0874 N   0  0  0  0  0  0  0  0  0  0  0  0
  161.5181   43.4815  141.2120 O   0  0  0  0  0  0  0  0  0  0  0  0
  160.6659   43.3221  143.4792 C   0  0  2  0  0  0  0  0  0  0  0  0
  156.1857   47.1886  145.2966 N   0  0  0  0  0  0  0  0  0  0  0  0
  161.1505   44.6610  143.5712 O   0  0  0  0  0  0  0  0  0  0  0  0
  155.4462   46.0788  145.5073 C   0  0  2  0  0  0  0  0  0  0  0  0
  161.6663   42.3054  144.0246 C   0  0  2  0  0  0  0  0  0  0  0  0
  161.5662   41.1428  143.1993 O   0  0  0  0  0  0  0  0  0  0  0  0
  154.3847   45.7535  144.5495 C   0  0  2  0  0  0  0  0  0  0  0  0
  161.4543   41.9072  145.4885 C   0  0  0  0  0  0  0  0  0  0  0  0
  160.0951   41.5995  145.7957 O   0  0  0  0  0  0  0  0  0  0  0  0
  154.1923   46.6709  143.4017 C   0  0  0  0  0  0  0  0  0  0  0  0
  153.3007   46.4398  142.5499 O   0  0  0  0  0  0  0  0  0  0  0  0
  153.8129   44.6211  144.9961 N   0  0  0  0  0  0  0  0  0  0  0  0
  154.4484   44.2506  146.1337 C   0  0  0  0  0  0  0  0  0  0  0  0
  155.4251   45.1234  146.4365 N   0  0  1  0  0  0  0  0  0  0  0  0
  156.0726   40.2630  139.9516 N   0  0  0  0  0  0  0  0  0  0  0  0
  160.7270   41.1844  148.2374 O   0  5  0  0  0  0  0  0  0  0  0  0
  157.0757   41.0088  139.4633 C   0  0  2  0  0  0  0  0  0  0  0  0
  156.8973   41.5714  138.2587 N   0  0  0  0  0  0  0  0  0  0  0  0
  158.2563   40.9025  147.3710 O   0  0  0  0  0  0  0  0  0  0  0  0
  158.2432   41.2144  140.1167 N   0  0  0  0  0  0  0  0  0  0  0  0
  158.4606   40.6603  141.3279 C   0  0  1  0  0  0  0  0  0  0  0  0
  157.3942   39.8286  141.9209 C   0  0  1  0  0  0  0  0  0  0  0  0
  156.1488   39.6470  141.1325 C   0  0  0  0  0  0  0  0  0  0  0  0
  155.1862   38.9671  141.5489 O   0  0  0  0  0  0  0  0  0  0  0  0
  157.8612   39.4016  143.1049 N   0  0  0  0  0  0  0  0  0  0  0  0
  159.1114   39.9213  143.2542 C   0  0  0  0  0  0  0  0  0  0  0  0
  159.4735   40.6706  142.1940 N   0  0  2  0  0  0  0  0  0  0  0  0
  1  3  1  6  0  0  0
  1  4  2  0  0  0  0
  1  6  1  0  0  0  0
  1 22  1  0  0  0  0
  2 28  1  0  0  0  0
  2 35  1  1  0  0  0
  2 38  2  0  0  0  0
  2 10  1  0  0  0  0
  5  6  1  0  0  0  0
  7  5  1  6  0  0  0
  7  8  1  0  0  0  0
  7  9  1  0  0  0  0
  9 10  1  1  0  0  0
  9 11  1  0  0  0  0
 11 12  1  1  0  0  0
 11 13  1  0  0  0  0
 13  8  1  6  0  0  0
 13 33  1  0  0  0  0
 14 46  1  0  0  0  0
 14 17  1  0  0  0  0
 14 25  1  1  0  0  0
 15 16  1  0  0  0  0
 15 29  1  0  0  0  0
 16 18  1  1  0  0  0
 16 21  1  0  0  0  0
 17 19  1  6  0  0  0
 17 20  1  0  0  0  0
 20 22  1  6  0  0  0
 20 24  1  0  0  0  0
 23 21  1  1  0  0  0
 23 26  1  0  0  0  0
 23 33  1  0  0  0  0
 24 25  1  6  0  0  0
 24 27  1  0  0  0  0
 26 29  1  1  0  0  0
 26 31  1  0  0  0  0
 27 28  1  0  0  0  0
 29 30  2  0  0  0  0
 31 32  1  0  0  0  0
 33 32  1  6  0  0  0
 34 36  1  0  0  0  0
 34 42  1  0  0  0  0
 36 37  1  6  0  0  0
 36 39  1  0  0  0  0
 40 39  1  6  0  0  0
 40 41  1  0  0  0  0
 40 46  1  0  0  0  0
 41 42  1  6  0  0  0
 41 44  1  0  0  0  0
 42 43  2  0  0  0  0
 44 45  1  0  0  0  0
 46 45  1  1  0  0  0
M  CHG  2   3  -1  35  -1
M  END
>  <CHROM.1>
-7.79240338,64.92768258,158.16133215,43.53766376,144.25979597,-2.00131728
0.72002806,-2.21765225

>  <Name>
ligand

>  <RI>
0

>  <Rbt.Current_Directory>
/home/itssahil/PROJECTS/Mol_Feturizer/Test_systems_manuscript/rnas/4yb0

>  <Rbt.Executable>
rbdock ($Id: //depot/dev/client3/rdock/2013.1/src/exe/rbdock.cxx#4 $)

>  <Rbt.Library>
libRbt.so (2013.1, Build901 2013/11/27)

>  <Rbt.Parameter_File>
/export/apps/rDock/src/rDock_2013.1_src/data/scripts/dock_solv.prm

>  <Rbt.Receptor>
prm/pocket_docking_5.prm

>  <SCORE>
-43.7257

>  <SCORE.INTER>
-43.3872

>  <SCORE.INTER.CONST>
1

>  <SCORE.INTER.POLAR>
0

>  <SCORE.INTER.ROT>
2

>  <SCORE.INTER.SOLV>
34.3794

>  <SCORE.INTER.VDW>
-45.3179

>  <SCORE.INTER.norm>
-0.9432

>  <SCORE.INTRA>
-0.338529

>  <SCORE.INTRA.DIHEDRAL>
-0.0207978

>  <SCORE.INTRA.DIHEDRAL.0>
2.42188

>  <SCORE.INTRA.POLAR>
0

>  <SCORE.INTRA.POLAR.0>
0

>  <SCORE.INTRA.REPUL>
0

>  <SCORE.INTRA.REPUL.0>
0

>  <SCORE.INTRA.SOLV>
0.516829

>  <SCORE.INTRA.SOLV.lig_0>
-127.307

>  <SCORE.INTRA.VDW>
-0.586545

>  <SCORE.INTRA.VDW.0>
-2.19936

>  <SCORE.INTRA.norm>
-0.00735933

>  <SCORE.RESTR>
0

>  <SCORE.RESTR.CAVITY>
0

>  <SCORE.RESTR.norm>
0

>  <SCORE.SYSTEM>
0

>  <SCORE.SYSTEM.CONST>
0

>  <SCORE.SYSTEM.DIHEDRAL>
0

>  <SCORE.SYSTEM.SOLV>
0

>  <SCORE.SYSTEM.norm>
0

>  <SCORE.heavy>
46

>  <SCORE.norm>
-0.950559

>  <RMSD>
2.159

$$$$
ligand
 OpenBabel02271912143D
libRbt.so/2013.1/901 2013/11/27
 46 52  0  0  0  0  0  0  0  0999 V2000
  160.0987   45.8916  143.6075 P   0  0  1  0  0  0  0  0  0  0  0  0
  159.5778   41.6228  147.3407 P   0  0  1  0  0  0  0  0  0  0  0  0
  159.2525   45.7702  142.3665 O   0  5  0  0  0  0  0  0  0  0  0  0
  160.8173   47.2070  143.8149 O   0  0  0  0  0  0  0  0  0  0  0  0
  159.2666   46.2506  146.0931 C   0  0  0  0  0  0  0  0  0  0  0  0
  159.1877   45.5166  144.8782 O   0  0  0  0  0  0  0  0  0  0  0  0
  158.6168   45.4636  147.2192 C   0  0  1  0  0  0  0  0  0  0  0  0
  157.3396   46.0316  147.4723 O   0  0  0  0  0  0  0  0  0  0  0  0
  158.3774   43.9856  146.9381 C   0  0  1  0  0  0  0  0  0  0  0  0
  159.3497   43.2060  147.6189 O   0  0  0  0  0  0  0  0  0  0  0  0
  157.0320   43.7192  147.5750 C   0  0  1  0  0  0  0  0  0  0  0  0
  157.2155   43.3179  148.9341 O   0  0  0  0  0  0  0  0  0  0  0  0
  156.3280   45.0447  147.6038 C   0  0  2  0  0  0  0  0  0  0  0  0
  160.7653   41.3981  142.0558 C   0  0  1  0  0  0  0  0  0  0  0  0
  155.0102   47.7510  143.3043 N   0  0  0  0  0  0  0  0  0  0  0  0
  155.9653   47.9926  144.2220 C   0  0  1  0  0  0  0  0  0  0  0  0
  160.5168   42.8920  142.0482 C   0  0  2  0  0  0  0  0  0  0  0  0
  156.7498   49.0845  144.0819 N   0  0  0  0  0  0  0  0  0  0  0  0
  161.5238   43.4903  141.2273 O   0  0  0  0  0  0  0  0  0  0  0  0
  160.6660   43.3322  143.4925 C   0  0  2  0  0  0  0  0  0  0  0  0
  156.1893   47.1990  145.2939 N   0  0  0  0  0  0  0  0  0  0  0  0
  161.1515   44.6708  143.5853 O   0  0  0  0  0  0  0  0  0  0  0  0
  155.4457   46.0921  145.5053 C   0  0  2  0  0  0  0  0  0  0  0  0
  161.6642   42.3148  144.0407 C   0  0  2  0  0  0  0  0  0  0  0  0
  161.5651   41.1521  143.2155 O   0  0  0  0  0  0  0  0  0  0  0  0
  154.3854   45.7682  144.5459 C   0  0  2  0  0  0  0  0  0  0  0  0
  161.4483   41.9172  145.5042 C   0  0  0  0  0  0  0  0  0  0  0  0
  160.0881   41.6108  145.8081 O   0  0  0  0  0  0  0  0  0  0  0  0
  154.1985   46.6837  143.3957 C   0  0  0  0  0  0  0  0  0  0  0  0
  153.3081   46.4537  142.5423 O   0  0  0  0  0  0  0  0  0  0  0  0
  153.8089   44.6386  144.9936 N   0  0  0  0  0  0  0  0  0  0  0  0
  154.4406   44.2685  146.1335 C   0  0  0  0  0  0  0  0  0  0  0  0
  155.4194   45.1388  146.4365 N   0  0  1  0  0  0  0  0  0  0  0  0
  156.0774   40.2787  139.9562 N   0  0  0  0  0  0  0  0  0  0  0  0
  160.7136   41.1958  148.2515 O   0  5  0  0  0  0  0  0  0  0  0  0
  157.0821   41.0239  139.4703 C   0  0  2  0  0  0  0  0  0  0  0  0
  156.9065   41.5876  138.2658 N   0  0  0  0  0  0  0  0  0  0  0  0
  158.2449   40.9157  147.3791 O   0  0  0  0  0  0  0  0  0  0  0  0
  158.2486   41.2279  140.1260 N   0  0  0  0  0  0  0  0  0  0  0  0
  158.4632   40.6727  141.3372 C   0  0  1  0  0  0  0  0  0  0  0  0
  157.3948   39.8416  141.9276 C   0  0  1  0  0  0  0  0  0  0  0  0
  156.1507   39.6617  141.1367 C   0  0  0  0  0  0  0  0  0  0  0  0
  155.1868   38.9825  141.5508 O   0  0  0  0  0  0  0  0  0  0  0  0
  157.8592   39.4133  143.1121 N   0  0  0  0  0  0  0  0  0  0  0  0
  159.1096   39.9316  143.2641 C   0  0  0  0  0  0  0  0  0  0  0  0
  159.4745   40.6813  142.2052 N   0  0  2  0  0  0  0  0  0  0  0  0
  1  3  1  6  0  0  0
  1  4  2  0  0  0  0
  1  6  1  0  0  0  0
  1 22  1  0  0  0  0
  2 28  1  0  0  0  0
  2 35  1  1  0  0  0
  2 38  2  0  0  0  0
  2 10  1  0  0  0  0
  5  6  1  0  0  0  0
  7  5  1  6  0  0  0
  7  8  1  0  0  0  0
  7  9  1  0  0  0  0
  9 10  1  1  0  0  0
  9 11  1  0  0  0  0
 11 12  1  1  0  0  0
 11 13  1  0  0  0  0
 13  8  1  6  0  0  0
 13 33  1  0  0  0  0
 14 46  1  0  0  0  0
 14 17  1  0  0  0  0
 14 25  1  1  0  0  0
 15 16  1  0  0  0  0
 15 29  1  0  0  0  0
 16 18  1  1  0  0  0
 16 21  1  0  0  0  0
 17 19  1  6  0  0  0
 17 20  1  0  0  0  0
 20 22  1  6  0  0  0
 20 24  1  0  0  0  0
 23 21  1  1  0  0  0
 23 26  1  0  0  0  0
 23 33  1  0  0  0  0
 24 25  1  6  0  0  0
 24 27  1  0  0  0  0
 26 29  1  1  0  0  0
 26 31  1  0  0  0  0
 27 28  1  0  0  0  0
 29 30  2  0  0  0  0
 31 32  1  0  0  0  0
 33 32  1  6  0  0  0
 34 36  1  0  0  0  0
 34 42  1  0  0  0  0
 36 37  1  6  0  0  0
 36 39  1  0  0  0  0
 40 39  1  6  0  0  0
 40 41  1  0  0  0  0
 40 46  1  0  0  0  0
 41 42  1  6  0  0  0
 41 44  1  0  0  0  0
 42 43  2  0  0  0  0
 44 45  1  0  0  0  0
 46 45  1  1  0  0  0
M  CHG  2   3  -1  35  -1
M  END
>  <CHROM.1>
-7.61715272,64.85898799,158.16012937,43.54987561,144.26660355,-2.00249549
0.72246041,-2.21648505

>  <Name>
ligand

>  <RI>
0

>  <Rbt.Current_Directory>
/home/itssahil/PROJECTS/Mol_Feturizer/Test_systems_manuscript/rnas/4yb0

>  <Rbt.Executable>
rbdock ($Id: //depot/dev/client3/rdock/2013.1/src/exe/rbdock.cxx#4 $)

>  <Rbt.Library>
libRbt.so (2013.1, Build901 2013/11/27)

>  <Rbt.Parameter_File>
/export/apps/rDock/src/rDock_2013.1_src/data/scripts/dock_solv.prm

>  <Rbt.Receptor>
prm/pocket_docking_5.prm

>  <SCORE>
-43.7076

>  <SCORE.INTER>
-43.3801

>  <SCORE.INTER.CONST>
1

>  <SCORE.INTER.POLAR>
0

>  <SCORE.INTER.ROT>
2

>  <SCORE.INTER.SOLV>
34.1437

>  <SCORE.INTER.VDW>
-45.2346

>  <SCORE.INTER.norm>
-0.943045

>  <SCORE.INTRA>
-0.327541

>  <SCORE.INTRA.DIHEDRAL>
-0.0208855

>  <SCORE.INTRA.DIHEDRAL.0>
2.42188

>  <SCORE.INTRA.POLAR>
0

>  <SCORE.INTRA.POLAR.0>
0

>  <SCORE.INTRA.REPUL>
0

>  <SCORE.INTRA.REPUL.0>
0

>  <SCORE.INTRA.SOLV>
0.551157

>  <SCORE.INTRA.SOLV.lig_0>
-127.307

>  <SCORE.INTRA.VDW>
-0.592676

>  <SCORE.INTRA.VDW.0>
-2.19936

>  <SCORE.INTRA.norm>
-0.00712045

>  <SCORE.RESTR>
0

>  <SCORE.RESTR.CAVITY>
0

>  <SCORE.RESTR.norm>
0

>  <SCORE.SYSTEM>
0

>  <SCORE.SYSTEM.CONST>
0

>  <SCORE.SYSTEM.DIHEDRAL>
0

>  <SCORE.SYSTEM.SOLV>
0

>  <SCORE.SYSTEM.norm>
0

>  <SCORE.heavy>
46

>  <SCORE.norm>
-0.950165

>  <RMSD>
2.159

$$$$
ligand
 OpenBabel02271912143D
libRbt.so/2013.1/901 2013/11/27
 46 52  0  0  0  0  0  0  0  0999 V2000
  160.1059   45.8611  143.5897 P   0  0  1  0  0  0  0  0  0  0  0  0
  159.5886   41.5861  147.3163 P   0  0  1  0  0  0  0  0  0  0  0  0
  159.2576   45.7424  142.3499 O   0  5  0  0  0  0  0  0  0  0  0  0
  160.8257   47.1756  143.7982 O   0  0  0  0  0  0  0  0  0  0  0  0
  159.2783   46.2163  146.0773 C   0  0  0  0  0  0  0  0  0  0  0  0
  159.1969   45.4845  144.8612 O   0  0  0  0  0  0  0  0  0  0  0  0
  158.6298   45.4277  147.2031 C   0  0  1  0  0  0  0  0  0  0  0  0
  157.3535   45.9961  147.4594 O   0  0  0  0  0  0  0  0  0  0  0  0
  158.3891   43.9504  146.9199 C   0  0  1  0  0  0  0  0  0  0  0  0
  159.3620   43.1690  147.5977 O   0  0  0  0  0  0  0  0  0  0  0  0
  157.0445   43.6837  147.5586 C   0  0  1  0  0  0  0  0  0  0  0  0
  157.2301   43.2799  148.9167 O   0  0  0  0  0  0  0  0  0  0  0  0
  156.3414   45.0096  147.5909 C   0  0  2  0  0  0  0  0  0  0  0  0
  160.7669   41.3698  142.0290 C   0  0  1  0  0  0  0  0  0  0  0  0
  155.0088   47.7323  143.3063 N   0  0  0  0  0  0  0  0  0  0  0  0
  155.9644   47.9726  144.2239 C   0  0  1  0  0  0  0  0  0  0  0  0
  160.5194   42.8639  142.0245 C   0  0  2  0  0  0  0  0  0  0  0  0
  156.7451   49.0677  144.0879 N   0  0  0  0  0  0  0  0  0  0  0  0
  161.5254   43.4630  141.2029 O   0  0  0  0  0  0  0  0  0  0  0  0
  160.6713   43.3015  143.4693 C   0  0  2  0  0  0  0  0  0  0  0  0
  156.1925   47.1746  145.2916 N   0  0  0  0  0  0  0  0  0  0  0  0
  161.1578   44.6396  143.5636 O   0  0  0  0  0  0  0  0  0  0  0  0
  155.4528   46.0642  145.4987 C   0  0  2  0  0  0  0  0  0  0  0  0
  161.6698   42.2826  144.0140 C   0  0  2  0  0  0  0  0  0  0  0  0
  161.5686   41.1213  143.1869 O   0  0  0  0  0  0  0  0  0  0  0  0
  154.3922   45.7414  144.5391 C   0  0  2  0  0  0  0  0  0  0  0  0
  161.4561   41.8825  145.4772 C   0  0  0  0  0  0  0  0  0  0  0  0
  160.0963   41.5764  145.7829 O   0  0  0  0  0  0  0  0  0  0  0  0
  154.2007   46.6618  143.3936 C   0  0  0  0  0  0  0  0  0  0  0  0
  153.3099   46.4330  142.5404 O   0  0  0  0  0  0  0  0  0  0  0  0
  153.8201   44.6078  144.9823 N   0  0  0  0  0  0  0  0  0  0  0  0
  154.4546   44.2343  146.1194 C   0  0  0  0  0  0  0  0  0  0  0  0
  155.4310   45.1064  146.4253 N   0  0  1  0  0  0  0  0  0  0  0  0
  156.0598   40.2878  139.9530 N   0  0  0  0  0  0  0  0  0  0  0  0
  160.7257   41.1569  148.2245 O   0  5  0  0  0  0  0  0  0  0  0  0
  157.0620   41.0375  139.4690 C   0  0  2  0  0  0  0  0  0  0  0  0
  156.8778   41.6176  138.2736 N   0  0  0  0  0  0  0  0  0  0  0  0
  158.2553   40.8799  147.3558 O   0  0  0  0  0  0  0  0  0  0  0  0
  158.2342   41.2304  140.1178 N   0  0  0  0  0  0  0  0  0  0  0  0
  158.4576   40.6586  141.3197 C   0  0  1  0  0  0  0  0  0  0  0  0
  157.3924   39.8217  141.9076 C   0  0  1  0  0  0  0  0  0  0  0  0
  156.1415   39.6549  141.1246 C   0  0  0  0  0  0  0  0  0  0  0  0
  155.1796   38.9721  141.5374 O   0  0  0  0  0  0  0  0  0  0  0  0
  157.8655   39.3767  143.0825 N   0  0  0  0  0  0  0  0  0  0  0  0
  159.1182   39.8905  143.2311 C   0  0  0  0  0  0  0  0  0  0  0  0
  159.4760   40.6537  142.1794 N   0  0  2  0  0  0  0  0  0  0  0  0
  1  3  1  6  0  0  0
  1  4  2  0  0  0  0
  1  6  1  0  0  0  0
  1 22  1  0  0  0  0
  2 28  1  0  0  0  0
  2 35  1  1  0  0  0
  2 38  2  0  0  0  0
  2 10  1  0  0  0  0
  5  6  1  0  0  0  0
  7  5  1  6  0  0  0
  7  8  1  0  0  0  0
  7  9  1  0  0  0  0
  9 10  1  1  0  0  0
  9 11  1  0  0  0  0
 11 12  1  1  0  0  0
 11 13  1  0  0  0  0
 13  8  1  6  0  0  0
 13 33  1  0  0  0  0
 14 46  1  0  0  0  0
 14 17  1  0  0  0  0
 14 25  1  1  0  0  0
 15 16  1  0  0  0  0
 15 29  1  0  0  0  0
 16 18  1  1  0  0  0
 16 21  1  0  0  0  0
 17 19  1  6  0  0  0
 17 20  1  0  0  0  0
 20 22  1  6  0  0  0
 20 24  1  0  0  0  0
 23 21  1  1  0  0  0
 23 26  1  0  0  0  0
 23 33  1  0  0  0  0
 24 25  1  6  0  0  0
 24 27  1  0  0  0  0
 26 29  1  1  0  0  0
 26 31  1  0  0  0  0
 27 28  1  0  0  0  0
 29 30  2  0  0  0  0
 31 32  1  0  0  0  0
 33 32  1  6  0  0  0
 34 36  1  0  0  0  0
 34 42  1  0  0  0  0
 36 37  1  6  0  0  0
 36 39  1  0  0  0  0
 40 39  1  6  0  0  0
 40 41  1  0  0  0  0
 40 46  1  0  0  0  0
 41 42  1  6  0  0  0
 41 44  1  0  0  0  0
 42 43  2  0  0  0  0
 44 45  1  0  0  0  0
 46 45  1  1  0  0  0
M  CHG  2   3  -1  35  -1
M  END
>  <CHROM.1>
-7.90382116,64.09160502,158.16431440,43.52366976,144.25079993,-2.00788980
0.72133054,-2.21599788

>  <Name>
ligand

>  <RI>
0

>  <Rbt.Current_Directory>
/home/itssahil/PROJECTS/Mol_Feturizer/Test_systems_manuscript/rnas/4yb0

>  <Rbt.Executable>
rbdock ($Id: //depot/dev/client3/rdock/2013.1/src/exe/rbdock.cxx#4 $)

>  <Rbt.Library>
libRbt.so (2013.1, Build901 2013/11/27)

>  <Rbt.Parameter_File>
/export/apps/rDock/src/rDock_2013.1_src/data/scripts/dock_solv.prm

>  <Rbt.Receptor>
prm/pocket_docking_7.prm

>  <SCORE>
-43.7333

>  <SCORE.INTER>
-43.4036

>  <SCORE.INTER.CONST>
1

>  <SCORE.INTER.POLAR>
0

>  <SCORE.INTER.ROT>
2

>  <SCORE.INTER.SOLV>
34.4524

>  <SCORE.INTER.VDW>
-45.3532

>  <SCORE.INTER.norm>
-0.943556

>  <SCORE.INTRA>
-0.329775

>  <SCORE.INTRA.DIHEDRAL>
-0.0194056

>  <SCORE.INTRA.DIHEDRAL.0>
2.42188

>  <SCORE.INTRA.POLAR>
0

>  <SCORE.INTRA.POLAR.0>
0

>  <SCORE.INTRA.REPUL>
0

>  <SCORE.INTRA.REPUL.0>
0

>  <SCORE.INTRA.SOLV>
0.511972

>  <SCORE.INTRA.SOLV.lig_0>
-127.307

>  <SCORE.INTRA.VDW>
-0.576058

>  <SCORE.INTRA.VDW.0>
-2.19936

>  <SCORE.INTRA.norm>
-0.00716902

>  <SCORE.RESTR>
0

>  <SCORE.RESTR.CAVITY>
0

>  <SCORE.RESTR.norm>
0

>  <SCORE.SYSTEM>
0

>  <SCORE.SYSTEM.CONST>
0

>  <SCORE.SYSTEM.DIHEDRAL>
0

>  <SCORE.SYSTEM.SOLV>
0

>  <SCORE.SYSTEM.norm>
0

>  <SCORE.heavy>
46

>  <SCORE.norm>
-0.950725

>  <RMSD>
2.161

$$$$
ligand
 OpenBabel02271912143D
libRbt.so/2013.1/901 2013/11/27
 46 52  0  0  0  0  0  0  0  0999 V2000
  160.1458   45.8961  143.6887 P   0  0  1  0  0  0  0  0  0  0  0  0
  159.6135   41.6027  147.3919 P   0  0  1  0  0  0  0  0  0  0  0  0
  159.3122   45.7772  142.4388 O   0  5  0  0  0  0  0  0  0  0  0  0
  160.8548   47.2143  143.9106 O   0  0  0  0  0  0  0  0  0  0  0  0
  159.2878   46.2359  146.1682 C   0  0  0  0  0  0  0  0  0  0  0  0
  159.2248   45.5086  144.9483 O   0  0  0  0  0  0  0  0  0  0  0  0
  158.6318   45.4386  147.2833 C   0  0  1  0  0  0  0  0  0  0  0  0
  157.3490   45.9979  147.5275 O   0  0  0  0  0  0  0  0  0  0  0  0
  158.4036   43.9609  146.9914 C   0  0  1  0  0  0  0  0  0  0  0  0
  159.3737   43.1829  147.6771 O   0  0  0  0  0  0  0  0  0  0  0  0
  157.0536   43.6832  147.6138 C   0  0  1  0  0  0  0  0  0  0  0  0
  157.2264   43.2750  148.9723 O   0  0  0  0  0  0  0  0  0  0  0  0
  156.3418   45.0046  147.6435 C   0  0  2  0  0  0  0  0  0  0  0  0
  160.8528   41.4156  142.1174 C   0  0  1  0  0  0  0  0  0  0  0  0
  155.0436   47.7337  143.3524 N   0  0  0  0  0  0  0  0  0  0  0  0
  155.9877   47.9759  144.2814 C   0  0  1  0  0  0  0  0  0  0  0  0
  160.5958   42.9080  142.1161 C   0  0  2  0  0  0  0  0  0  0  0  0
  156.7644   49.0753  144.1574 N   0  0  0  0  0  0  0  0  0  0  0  0
  161.6073   43.5168  141.3084 O   0  0  0  0  0  0  0  0  0  0  0  0
  160.7287   43.3407  143.5643 C   0  0  2  0  0  0  0  0  0  0  0  0
  156.2078   47.1758  145.3492 N   0  0  0  0  0  0  0  0  0  0  0  0
  161.2056   44.6814  143.6695 O   0  0  0  0  0  0  0  0  0  0  0  0
  155.4714   46.0611  145.5446 C   0  0  2  0  0  0  0  0  0  0  0  0
  161.7274   42.3258  144.1161 C   0  0  2  0  0  0  0  0  0  0  0  0
  161.6429   41.1673  143.2833 O   0  0  0  0  0  0  0  0  0  0  0  0
  154.4232   45.7361  144.5723 C   0  0  2  0  0  0  0  0  0  0  0  0
  161.4997   41.9184  145.5752 C   0  0  0  0  0  0  0  0  0  0  0  0
  160.1385   41.6025  145.8642 O   0  0  0  0  0  0  0  0  0  0  0  0
  154.2400   46.6590  143.4275 C   0  0  0  0  0  0  0  0  0  0  0  0
  153.3599   46.4284  142.5636 O   0  0  0  0  0  0  0  0  0  0  0  0
  153.8518   44.5983  145.0056 N   0  0  0  0  0  0  0  0  0  0  0  0
  154.4754   44.2244  146.1487 C   0  0  0  0  0  0  0  0  0  0  0  0
  155.4440   45.1004  146.4681 N   0  0  1  0  0  0  0  0  0  0  0  0
  156.1809   40.3034  139.9786 N   0  0  0  0  0  0  0  0  0  0  0  0
  160.7429   41.1769  148.3110 O   0  5  0  0  0  0  0  0  0  0  0  0
  157.1844   41.0601  139.5083 C   0  0  2  0  0  0  0  0  0  0  0  0
  157.0122   41.6398  138.3109 N   0  0  0  0  0  0  0  0  0  0  0  0
  158.2843   40.8879  147.4134 O   0  0  0  0  0  0  0  0  0  0  0  0
  158.3466   41.2604  140.1727 N   0  0  0  0  0  0  0  0  0  0  0  0
  158.5578   40.6893  141.3771 C   0  0  1  0  0  0  0  0  0  0  0  0
  157.4906   39.8450  141.9504 C   0  0  1  0  0  0  0  0  0  0  0  0
  156.2513   39.6704  141.1508 C   0  0  0  0  0  0  0  0  0  0  0  0
  155.2886   38.9808  141.5504 O   0  0  0  0  0  0  0  0  0  0  0  0
  157.9511   39.4024  143.1312 N   0  0  0  0  0  0  0  0  0  0  0  0
  159.1982   39.9244  143.2967 C   0  0  0  0  0  0  0  0  0  0  0  0
  159.5647   40.6907  142.2503 N   0  0  2  0  0  0  0  0  0  0  0  0
  1  3  1  6  0  0  0
  1  4  2  0  0  0  0
  1  6  1  0  0  0  0
  1 22  1  0  0  0  0
  2 28  1  0  0  0  0
  2 35  1  1  0  0  0
  2 38  2  0  0  0  0
  2 10  1  0  0  0  0
  5  6  1  0  0  0  0
  7  5  1  6  0  0  0
  7  8  1  0  0  0  0
  7  9  1  0  0  0  0
  9 10  1  1  0  0  0
  9 11  1  0  0  0  0
 11 12  1  1  0  0  0
 11 13  1  0  0  0  0
 13  8  1  6  0  0  0
 13 33  1  0  0  0  0
 14 46  1  0  0  0  0
 14 17  1  0  0  0  0
 14 25  1  1  0  0  0
 15 16  1  0  0  0  0
 15 29  1  0  0  0  0
 16 18  1  1  0  0  0
 16 21  1  0  0  0  0
 17 19  1  6  0  0  0
 17 20  1  0  0  0  0
 20 22  1  6  0  0  0
 20 24  1  0  0  0  0
 23 21  1  1  0  0  0
 23 26  1  0  0  0  0
 23 33  1  0  0  0  0
 24 25  1  6  0  0  0
 24 27  1  0  0  0  0
 26 29  1  1  0  0  0
 26 31  1  0  0  0  0
 27 28  1  0  0  0  0
 29 30  2  0  0  0  0
 31 32  1  0  0  0  0
 33 32  1  6  0  0  0
 34 36  1  0  0  0  0
 34 42  1  0  0  0  0
 36 37  1  6  0  0  0
 36 39  1  0  0  0  0
 40 39  1  6  0  0  0
 40 41  1  0  0  0  0
 40 46  1  0  0  0  0
 41 42  1  6  0  0  0
 41 44  1  0  0  0  0
 42 43  2  0  0  0  0
 44 45  1  0  0  0  0
 46 45  1  1  0  0  0
M  CHG  2   3  -1  35  -1
M  END
>  <CHROM.1>
-7.80584086,64.32102444,158.21249682,43.54255780,144.31738584,-2.02258108
0.72320015,-2.20067566

>  <Name>
ligand

>  <RI>
0

>  <Rbt.Current_Directory>
/home/itssahil/PROJECTS/Mol_Feturizer/Test_systems_manuscript/rnas/4yb0

>  <Rbt.Executable>
rbdock ($Id: //depot/dev/client3/rdock/2013.1/src/exe/rbdock.cxx#4 $)

>  <Rbt.Library>
libRbt.so (2013.1, Build901 2013/11/27)

>  <Rbt.Parameter_File>
/export/apps/rDock/src/rDock_2013.1_src/data/scripts/dock_solv.prm

>  <Rbt.Receptor>
prm/pocket_docking_6.prm

>  <SCORE>
-43.6447

>  <SCORE.INTER>
-43.3114

>  <SCORE.INTER.CONST>
1

>  <SCORE.INTER.POLAR>
0

>  <SCORE.INTER.ROT>
2

>  <SCORE.INTER.SOLV>
33.3632

>  <SCORE.INTER.VDW>
-44.9286

>  <SCORE.INTER.norm>
-0.941551

>  <SCORE.INTRA>
-0.333343

>  <SCORE.INTRA.DIHEDRAL>
-0.0198625

>  <SCORE.INTRA.DIHEDRAL.0>
2.42188

>  <SCORE.INTRA.POLAR>
0

>  <SCORE.INTRA.POLAR.0>
0

>  <SCORE.INTRA.REPUL>
0

>  <SCORE.INTRA.REPUL.0>
0

>  <SCORE.INTRA.SOLV>
0.516171

>  <SCORE.INTRA.SOLV.lig_0>
-127.307

>  <SCORE.INTRA.VDW>
-0.581497

>  <SCORE.INTRA.VDW.0>
-2.19936

>  <SCORE.INTRA.norm>
-0.00724658

>  <SCORE.RESTR>
0

>  <SCORE.RESTR.CAVITY>
0

>  <SCORE.RESTR.norm>
0

>  <SCORE.SYSTEM>
0

>  <SCORE.SYSTEM.CONST>
0

>  <SCORE.SYSTEM.DIHEDRAL>
0

>  <SCORE.SYSTEM.SOLV>
0

>  <SCORE.SYSTEM.norm>
0

>  <SCORE.heavy>
46

>  <SCORE.norm>
-0.948798

>  <RMSD>
2.165

$$$$
ligand
 OpenBabel02271912143D
libRbt.so/2013.1/901 2013/11/27
 46 52  0  0  0  0  0  0  0  0999 V2000
  160.1365   45.8696  143.7102 P   0  0  1  0  0  0  0  0  0  0  0  0
  159.5871   41.5744  147.4088 P   0  0  1  0  0  0  0  0  0  0  0  0
  159.3025   45.7553  142.4602 O   0  5  0  0  0  0  0  0  0  0  0  0
  160.8509   47.1847  143.9335 O   0  0  0  0  0  0  0  0  0  0  0  0
  159.2799   46.2102  146.1900 C   0  0  0  0  0  0  0  0  0  0  0  0
  159.2140   45.4844  144.9693 O   0  0  0  0  0  0  0  0  0  0  0  0
  158.6206   45.4144  147.3043 C   0  0  1  0  0  0  0  0  0  0  0  0
  157.3401   45.9785  147.5490 O   0  0  0  0  0  0  0  0  0  0  0  0
  158.3866   43.9379  147.0108 C   0  0  1  0  0  0  0  0  0  0  0  0
  159.3536   43.1553  147.6957 O   0  0  0  0  0  0  0  0  0  0  0  0
  157.0355   43.6649  147.6329 C   0  0  1  0  0  0  0  0  0  0  0  0
  157.2066   43.2546  148.9909 O   0  0  0  0  0  0  0  0  0  0  0  0
  156.3289   44.9890  147.6639 C   0  0  2  0  0  0  0  0  0  0  0  0
  160.8257   41.3880  142.1341 C   0  0  1  0  0  0  0  0  0  0  0  0
  155.0447   47.7254  143.3733 N   0  0  0  0  0  0  0  0  0  0  0  0
  155.9902   47.9626  144.3022 C   0  0  1  0  0  0  0  0  0  0  0  0
  160.5747   42.8814  142.1344 C   0  0  2  0  0  0  0  0  0  0  0  0
  156.7726   49.0580  144.1783 N   0  0  0  0  0  0  0  0  0  0  0  0
  161.5886   43.4870  141.3274 O   0  0  0  0  0  0  0  0  0  0  0  0
  160.7093   43.3120  143.5831 C   0  0  2  0  0  0  0  0  0  0  0  0
  156.2061   47.1612  145.3699 N   0  0  0  0  0  0  0  0  0  0  0  0
  161.1915   44.6507  143.6898 O   0  0  0  0  0  0  0  0  0  0  0  0
  155.4639   46.0504  145.5653 C   0  0  2  0  0  0  0  0  0  0  0  0
  161.7039   42.2925  144.1338 C   0  0  2  0  0  0  0  0  0  0  0  0
  161.6148   41.1353  143.2998 O   0  0  0  0  0  0  0  0  0  0  0  0
  154.4140   45.7309  144.5930 C   0  0  2  0  0  0  0  0  0  0  0  0
  161.4746   41.8845  145.5925 C   0  0  0  0  0  0  0  0  0  0  0  0
  160.1121   41.5738  145.8811 O   0  0  0  0  0  0  0  0  0  0  0  0
  154.2355   46.6549  143.4483 C   0  0  0  0  0  0  0  0  0  0  0  0
  153.3541   46.4290  142.5845 O   0  0  0  0  0  0  0  0  0  0  0  0
  153.8367   44.5961  145.0262 N   0  0  0  0  0  0  0  0  0  0  0  0
  154.4584   44.2189  146.1692 C   0  0  0  0  0  0  0  0  0  0  0  0
  155.4315   45.0897  146.4886 N   0  0  1  0  0  0  0  0  0  0  0  0
  156.1427   40.3103  140.0020 N   0  0  0  0  0  0  0  0  0  0  0  0
  160.7148   41.1431  148.3276 O   0  5  0  0  0  0  0  0  0  0  0  0
  157.1483   41.0654  139.5335 C   0  0  2  0  0  0  0  0  0  0  0  0
  156.9752   41.6532  138.3403 N   0  0  0  0  0  0  0  0  0  0  0  0
  158.2550   40.8649  147.4296 O   0  0  0  0  0  0  0  0  0  0  0  0
  158.3133   41.2563  140.1958 N   0  0  0  0  0  0  0  0  0  0  0  0
  158.5254   40.6767  141.3960 C   0  0  1  0  0  0  0  0  0  0  0  0
  157.4560   39.8337  141.9671 C   0  0  1  0  0  0  0  0  0  0  0  0
  156.2136   39.6696  141.1700 C   0  0  0  0  0  0  0  0  0  0  0  0
  155.2489   38.9819  141.5682 O   0  0  0  0  0  0  0  0  0  0  0  0
  157.9178   39.3816  143.1438 N   0  0  0  0  0  0  0  0  0  0  0  0
  159.1678   39.8970  143.3089 C   0  0  0  0  0  0  0  0  0  0  0  0
  159.5348   40.6681  142.2662 N   0  0  2  0  0  0  0  0  0  0  0  0
  1  3  1  6  0  0  0
  1  4  2  0  0  0  0
  1  6  1  0  0  0  0
  1 22  1  0  0  0  0
  2 28  1  0  0  0  0
  2 35  1  1  0  0  0
  2 38  2  0  0  0  0
  2 10  1  0  0  0  0
  5  6  1  0  0  0  0
  7  5  1  6  0  0  0
  7  8  1  0  0  0  0
  7  9  1  0  0  0  0
  9 10  1  1  0  0  0
  9 11  1  0  0  0  0
 11 12  1  1  0  0  0
 11 13  1  0  0  0  0
 13  8  1  6  0  0  0
 13 33  1  0  0  0  0
 14 46  1  0  0  0  0
 14 17  1  0  0  0  0
 14 25  1  1  0  0  0
 15 16  1  0  0  0  0
 15 29  1  0  0  0  0
 16 18  1  1  0  0  0
 16 21  1  0  0  0  0
 17 19  1  6  0  0  0
 17 20  1  0  0  0  0
 20 22  1  6  0  0  0
 20 24  1  0  0  0  0
 23 21  1  1  0  0  0
 23 26  1  0  0  0  0
 23 33  1  0  0  0  0
 24 25  1  6  0  0  0
 24 27  1  0  0  0  0
 26 29  1  1  0  0  0
 26 31  1  0  0  0  0
 27 28  1  0  0  0  0
 29 30  2  0  0  0  0
 31 32  1  0  0  0  0
 33 32  1  6  0  0  0
 34 36  1  0  0  0  0
 34 42  1  0  0  0  0
 36 37  1  6  0  0  0
 36 39  1  0  0  0  0
 40 39  1  6  0  0  0
 40 41  1  0  0  0  0
 40 46  1  0  0  0  0
 41 42  1  6  0  0  0
 41 44  1  0  0  0  0
 42 43  2  0  0  0  0
 44 45  1  0  0  0  0
 46 45  1  1  0  0  0
M  CHG  2   3  -1  35  -1
M  END
>  <CHROM.1>
-7.71634559,63.97932035,158.19346984,43.52433079,144.33695741,-2.02141484
0.72652535,-2.20139202

>  <Name>
ligand

>  <RI>
0

>  <Rbt.Current_Directory>
/home/itssahil/PROJECTS/Mol_Feturizer/Test_systems_manuscript/rnas/4yb0

>  <Rbt.Executable>
rbdock ($Id: //depot/dev/client3/rdock/2013.1/src/exe/rbdock.cxx#4 $)

>  <Rbt.Library>
libRbt.so (2013.1, Build901 2013/11/27)

>  <Rbt.Parameter_File>
/export/apps/rDock/src/rDock_2013.1_src/data/scripts/dock_solv.prm

>  <Rbt.Receptor>
prm/pocket_docking_6.prm

>  <SCORE>
-43.5424

>  <SCORE.INTER>
-43.2145

>  <SCORE.INTER.CONST>
1

>  <SCORE.INTER.POLAR>
0

>  <SCORE.INTER.ROT>
2

>  <SCORE.INTER.SOLV>
33.2985

>  <SCORE.INTER.VDW>
-44.8425

>  <SCORE.INTER.norm>
-0.939446

>  <SCORE.INTRA>
-0.327939

>  <SCORE.INTRA.DIHEDRAL>
-0.0194383

>  <SCORE.INTRA.DIHEDRAL.0>
2.42188

>  <SCORE.INTRA.POLAR>
0

>  <SCORE.INTRA.POLAR.0>
0

>  <SCORE.INTRA.REPUL>
0

>  <SCORE.INTRA.REPUL.0>
0

>  <SCORE.INTRA.SOLV>
0.528135

>  <SCORE.INTRA.SOLV.lig_0>
-127.307

>  <SCORE.INTRA.VDW>
-0.582287

>  <SCORE.INTRA.VDW.0>
-2.19936

>  <SCORE.INTRA.norm>
-0.0071291

>  <SCORE.RESTR>
0

>  <SCORE.RESTR.CAVITY>
0

>  <SCORE.RESTR.norm>
0

>  <SCORE.SYSTEM>
0

>  <SCORE.SYSTEM.CONST>
0

>  <SCORE.SYSTEM.DIHEDRAL>
0

>  <SCORE.SYSTEM.SOLV>
0

>  <SCORE.SYSTEM.norm>
0

>  <SCORE.heavy>
46

>  <SCORE.norm>
-0.946575

>  <RMSD>
2.166

$$$$
ligand
 OpenBabel02271912143D
libRbt.so/2013.1/901 2013/11/27
 46 52  0  0  0  0  0  0  0  0999 V2000
  158.9290   42.5941  146.8325 P   0  0  1  0  0  0  0  0  0  0  0  0
  159.7145   47.4092  143.8950 P   0  0  1  0  0  0  0  0  0  0  0  0
  157.6741   41.8305  146.4959 O   0  5  0  0  0  0  0  0  0  0  0  0
  159.9217   41.9042  147.7424 O   0  0  0  0  0  0  0  0  0  0  0  0
  161.0301   43.0014  145.2773 C   0  0  0  0  0  0  0  0  0  0  0  0
  159.6211   43.0586  145.4576 O   0  0  0  0  0  0  0  0  0  0  0  0
  161.4359   43.8466  144.0811 C   0  0  1  0  0  0  0  0  0  0  0  0
  161.7040   42.9712  142.9950 O   0  0  0  0  0  0  0  0  0  0  0  0
  160.3866   44.8329  143.5842 C   0  0  1  0  0  0  0  0  0  0  0  0
  160.7289   46.1461  144.0025 O   0  0  0  0  0  0  0  0  0  0  0  0
  160.5265   44.7679  142.0798 C   0  0  1  0  0  0  0  0  0  0  0  0
  161.4833   45.7359  141.6446 O   0  0  0  0  0  0  0  0  0  0  0  0
  161.1098   43.4164  141.7854 C   0  0  2  0  0  0  0  0  0  0  0  0
  155.4190   45.8689  146.8219 C   0  0  1  0  0  0  0  0  0  0  0  0
  157.8721   39.6310  143.4389 N   0  0  0  0  0  0  0  0  0  0  0  0
  158.8360   40.2982  144.1014 C   0  0  1  0  0  0  0  0  0  0  0  0
  156.1450   44.5507  146.9919 C   0  0  2  0  0  0  0  0  0  0  0  0
  159.0645   40.0034  145.4007 N   0  0  0  0  0  0  0  0  0  0  0  0
  155.9617   44.1316  148.3471 O   0  0  0  0  0  0  0  0  0  0  0  0
  157.6050   44.8566  146.7144 C   0  0  2  0  0  0  0  0  0  0  0  0
  159.6034   41.2579  143.5367 N   0  0  0  0  0  0  0  0  0  0  0  0
  158.4709   44.0051  147.4636 O   0  0  0  0  0  0  0  0  0  0  0  0
  159.4383   41.6066  142.2428 C   0  0  2  0  0  0  0  0  0  0  0  0
  157.7177   46.3182  147.1422 C   0  0  2  0  0  0  0  0  0  0  0  0
  156.4059   46.8782  147.0509 O   0  0  0  0  0  0  0  0  0  0  0  0
  158.4069   40.9193  141.4595 C   0  0  2  0  0  0  0  0  0  0  0  0
  158.6886   47.1643  146.3128 C   0  0  0  0  0  0  0  0  0  0  0  0
  158.5276   46.9868  144.9060 O   0  0  0  0  0  0  0  0  0  0  0  0
  157.6046   39.8791  142.1453 C   0  0  0  0  0  0  0  0  0  0  0  0
  156.7066   39.2611  141.5243 O   0  0  0  0  0  0  0  0  0  0  0  0
  158.4616   41.4484  140.2243 N   0  0  0  0  0  0  0  0  0  0  0  0
  159.4355   42.3900  140.2139 C   0  0  0  0  0  0  0  0  0  0  0  0
  160.0171   42.4831  141.4224 N   0  0  1  0  0  0  0  0  0  0  0  0
  151.7328   44.5395  143.3173 N   0  0  0  0  0  0  0  0  0  0  0  0
  160.4627   48.5984  144.4679 O   0  5  0  0  0  0  0  0  0  0  0  0
  151.8419   44.2176  144.6155 C   0  0  2  0  0  0  0  0  0  0  0  0
  150.8840   43.4399  145.1416 N   0  0  0  0  0  0  0  0  0  0  0  0
  159.1287   47.4576  142.5048 O   0  0  0  0  0  0  0  0  0  0  0  0
  152.8553   44.6372  145.4088 N   0  0  0  0  0  0  0  0  0  0  0  0
  153.8340   45.4249  144.9159 C   0  0  1  0  0  0  0  0  0  0  0  0
  153.7720   45.8140  143.4928 C   0  0  1  0  0  0  0  0  0  0  0  0
  152.6209   45.3177  142.6964 C   0  0  0  0  0  0  0  0  0  0  0  0
  152.4807   45.5860  141.4837 O   0  0  0  0  0  0  0  0  0  0  0  0
  154.8439   46.5895  143.2652 N   0  0  0  0  0  0  0  0  0  0  0  0
  155.5300   46.6800  144.4383 C   0  0  0  0  0  0  0  0  0  0  0  0
  154.9285   45.9886  145.4265 N   0  0  2  0  0  0  0  0  0  0  0  0
  1  3  1  6  0  0  0
  1  4  2  0  0  0  0
  1  6  1  0  0  0  0
  1 22  1  0  0  0  0
  2 28  1  0  0  0  0
  2 35  1  1  0  0  0
  2 38  2  0  0  0  0
  2 10  1  0  0  0  0
  5  6  1  0  0  0  0
  7  5  1  1  0  0  0
  7  8  1  0  0  0  0
  7  9  1  0  0  0  0
  9 10  1  1  0  0  0
  9 11  1  0  0  0  0
 11 12  1  1  0  0  0
 11 13  1  0  0  0  0
 13  8  1  1  0  0  0
 13 33  1  0  0  0  0
 14 46  1  0  0  0  0
 14 17  1  0  0  0  0
 14 25  1  6  0  0  0
 15 16  1  0  0  0  0
 15 29  1  0  0  0  0
 16 18  1  6  0  0  0
 16 21  1  0  0  0  0
 17 19  1  1  0  0  0
 17 20  1  0  0  0  0
 20 22  1  1  0  0  0
 20 24  1  0  0  0  0
 23 21  1  6  0  0  0
 23 26  1  0  0  0  0
 23 33  1  0  0  0  0
 24 25  1  6  0  0  0
 24 27  1  0  0  0  0
 26 29  1  6  0  0  0
 26 31  1  0  0  0  0
 27 28  1  0  0  0  0
 29 30  2  0  0  0  0
 31 32  1  0  0  0  0
 33 32  1  1  0  0  0
 34 36  1  0  0  0  0
 34 42  1  0  0  0  0
 36 37  1  1  0  0  0
 36 39  1  0  0  0  0
 40 39  1  1  0  0  0
 40 41  1  0  0  0  0
 40 46  1  0  0  0  0
 41 42  1  1  0  0  0
 41 44  1  0  0  0  0
 42 43  2  0  0  0  0
 44 45  1  0  0  0  0
 46 45  1  6  0  0  0
M  CHG  2   3  -1  35  -1
M  END
>  <CHROM.1>
17.02218690,80.00671807,157.75274581,44.12383675,144.33295456,-0.40143826
0.06767851,0.43355963

>  <Name>
ligand

>  <RI>
0

>  <Rbt.Current_Directory>
/home/itssahil/PROJECTS/Mol_Feturizer/Test_systems_manuscript/rnas/4yb0

>  <Rbt.Executable>
rbdock ($Id: //depot/dev/client3/rdock/2013.1/src/exe/rbdock.cxx#4 $)

>  <Rbt.Library>
libRbt.so (2013.1, Build901 2013/11/27)

>  <Rbt.Parameter_File>
/export/apps/rDock/src/rDock_2013.1_src/data/scripts/dock_solv.prm

>  <Rbt.Receptor>
prm/pocket_docking_2.prm

>  <SCORE>
-5.17677

>  <SCORE.INTER>
-10.4516

>  <SCORE.INTER.CONST>
1

>  <SCORE.INTER.POLAR>
0

>  <SCORE.INTER.ROT>
2

>  <SCORE.INTER.SOLV>
28.0669

>  <SCORE.INTER.VDW>
-21.2567

>  <SCORE.INTER.norm>
-0.227208

>  <SCORE.INTRA>
3.92281

>  <SCORE.INTRA.DIHEDRAL>
-0.0658166

>  <SCORE.INTRA.DIHEDRAL.0>
2.42188

>  <SCORE.INTRA.POLAR>
0

>  <SCORE.INTRA.POLAR.0>
0

>  <SCORE.INTRA.REPUL>
0

>  <SCORE.INTRA.REPUL.0>
0

>  <SCORE.INTRA.SOLV>
9.73812

>  <SCORE.INTRA.SOLV.lig_0>
-127.307

>  <SCORE.INTRA.VDW>
-0.913342

>  <SCORE.INTRA.VDW.0>
-2.19936

>  <SCORE.INTRA.norm>
0.0852785

>  <SCORE.RESTR>
1.35197

>  <SCORE.RESTR.CAVITY>
1.35197

>  <SCORE.RESTR.norm>
0.0293907

>  <SCORE.SYSTEM>
0

>  <SCORE.SYSTEM.CONST>
0

>  <SCORE.SYSTEM.DIHEDRAL>
0

>  <SCORE.SYSTEM.SOLV>
0

>  <SCORE.SYSTEM.norm>
0

>  <SCORE.heavy>
46

>  <SCORE.norm>
-0.112538

>  <RMSD>
2.167

$$$$
ligand
 OpenBabel02271912143D
libRbt.so/2013.1/901 2013/11/27
 46 52  0  0  0  0  0  0  0  0999 V2000
  160.1527   45.9264  143.7001 P   0  0  1  0  0  0  0  0  0  0  0  0
  159.6499   41.5766  147.3412 P   0  0  1  0  0  0  0  0  0  0  0  0
  159.3173   45.8214  142.4503 O   0  5  0  0  0  0  0  0  0  0  0  0
  160.8555   47.2448  143.9399 O   0  0  0  0  0  0  0  0  0  0  0  0
  159.2981   46.2255  146.1860 C   0  0  0  0  0  0  0  0  0  0  0  0
  159.2363   45.5157  144.9557 O   0  0  0  0  0  0  0  0  0  0  0  0
  158.6483   45.4086  147.2907 C   0  0  1  0  0  0  0  0  0  0  0  0
  157.3632   45.9577  147.5454 O   0  0  0  0  0  0  0  0  0  0  0  0
  158.4271   43.9342  146.9776 C   0  0  1  0  0  0  0  0  0  0  0  0
  159.4026   43.1513  147.6499 O   0  0  0  0  0  0  0  0  0  0  0  0
  157.0798   43.6405  147.5984 C   0  0  1  0  0  0  0  0  0  0  0  0
  157.2574   43.2134  148.9505 O   0  0  0  0  0  0  0  0  0  0  0  0
  156.3613   44.9576  147.6488 C   0  0  2  0  0  0  0  0  0  0  0  0
  160.8795   41.4730  142.0622 C   0  0  1  0  0  0  0  0  0  0  0  0
  155.0416   47.7416  143.3998 N   0  0  0  0  0  0  0  0  0  0  0  0
  155.9864   47.9750  144.3303 C   0  0  1  0  0  0  0  0  0  0  0  0
  160.6150   42.9639  142.0832 C   0  0  2  0  0  0  0  0  0  0  0  0
  156.7576   49.0798  144.2206 N   0  0  0  0  0  0  0  0  0  0  0  0
  161.6216   43.5896  141.2826 O   0  0  0  0  0  0  0  0  0  0  0  0
  160.7485   43.3760  143.5373 C   0  0  2  0  0  0  0  0  0  0  0  0
  156.2124   47.1607  145.3861 N   0  0  0  0  0  0  0  0  0  0  0  0
  161.2188   44.7176  143.6612 O   0  0  0  0  0  0  0  0  0  0  0  0
  155.4817   46.0399  145.5671 C   0  0  2  0  0  0  0  0  0  0  0  0
  161.7535   42.3584  144.0723 C   0  0  2  0  0  0  0  0  0  0  0  0
  161.6732   41.2118  143.2228 O   0  0  0  0  0  0  0  0  0  0  0  0
  154.4331   45.7238  144.5922 C   0  0  2  0  0  0  0  0  0  0  0  0
  161.5308   41.9286  145.5257 C   0  0  0  0  0  0  0  0  0  0  0  0
  160.1718   41.6015  145.8127 O   0  0  0  0  0  0  0  0  0  0  0  0
  154.2431   46.6622  143.4611 C   0  0  0  0  0  0  0  0  0  0  0  0
  153.3624   46.4397  142.5958 O   0  0  0  0  0  0  0  0  0  0  0  0
  153.8679   44.5772  145.0103 N   0  0  0  0  0  0  0  0  0  0  0  0
  154.4956   44.1901  146.1467 C   0  0  0  0  0  0  0  0  0  0  0  0
  155.4607   45.0659  146.4767 N   0  0  1  0  0  0  0  0  0  0  0  0
  156.2148   40.3571  139.9098 N   0  0  0  0  0  0  0  0  0  0  0  0
  160.7833   41.1432  148.2519 O   0  5  0  0  0  0  0  0  0  0  0  0
  157.2143   41.1242  139.4478 C   0  0  2  0  0  0  0  0  0  0  0  0
  157.0393   41.7152  138.2564 N   0  0  0  0  0  0  0  0  0  0  0  0
  158.3244   40.8548  147.3549 O   0  0  0  0  0  0  0  0  0  0  0  0
  158.3751   41.3240  140.1148 N   0  0  0  0  0  0  0  0  0  0  0  0
  158.5890   40.7417  141.3133 C   0  0  1  0  0  0  0  0  0  0  0  0
  157.5262   39.8856  141.8773 C   0  0  1  0  0  0  0  0  0  0  0  0
  156.2882   39.7123  141.0754 C   0  0  0  0  0  0  0  0  0  0  0  0
  155.3292   39.0133  141.4674 O   0  0  0  0  0  0  0  0  0  0  0  0
  157.9886   39.4333  143.0537 N   0  0  0  0  0  0  0  0  0  0  0  0
  159.2328   39.9605  143.2252 C   0  0  0  0  0  0  0  0  0  0  0  0
  159.5955   40.7396  142.1869 N   0  0  2  0  0  0  0  0  0  0  0  0
  1  3  1  6  0  0  0
  1  4  2  0  0  0  0
  1  6  1  0  0  0  0
  1 22  1  0  0  0  0
  2 28  1  0  0  0  0
  2 35  1  1  0  0  0
  2 38  2  0  0  0  0
  2 10  1  0  0  0  0
  5  6  1  0  0  0  0
  7  5  1  6  0  0  0
  7  8  1  0  0  0  0
  7  9  1  0  0  0  0
  9 10  1  1  0  0  0
  9 11  1  0  0  0  0
 11 12  1  1  0  0  0
 11 13  1  0  0  0  0
 13  8  1  6  0  0  0
 13 33  1  0  0  0  0
 14 46  1  0  0  0  0
 14 17  1  0  0  0  0
 14 25  1  1  0  0  0
 15 16  1  0  0  0  0
 15 29  1  0  0  0  0
 16 18  1  1  0  0  0
 16 21  1  0  0  0  0
 17 19  1  6  0  0  0
 17 20  1  0  0  0  0
 20 22  1  6  0  0  0
 20 24  1  0  0  0  0
 23 21  1  1  0  0  0
 23 26  1  0  0  0  0
 23 33  1  0  0  0  0
 24 25  1  6  0  0  0
 24 27  1  0  0  0  0
 26 29  1  1  0  0  0
 26 31  1  0  0  0  0
 27 28  1  0  0  0  0
 29 30  2  0  0  0  0
 31 32  1  0  0  0  0
 33 32  1  6  0  0  0
 34 36  1  0  0  0  0
 34 42  1  0  0  0  0
 36 37  1  6  0  0  0
 36 39  1  0  0  0  0
 40 39  1  6  0  0  0
 40 41  1  0  0  0  0
 40 46  1  0  0  0  0
 41 42  1  6  0  0  0
 41 44  1  0  0  0  0
 42 43  2  0  0  0  0
 44 45  1  0  0  0  0
 46 45  1  1  0  0  0
M  CHG  2   3  -1  35  -1
M  END
>  <CHROM.1>
-7.77723440,64.60255006,158.23353338,43.55267821,144.29731577,-2.02214240
0.71798055,-2.18500554

>  <Name>
ligand

>  <RI>
0

>  <Rbt.Current_Directory>
/home/itssahil/PROJECTS/Mol_Feturizer/Test_systems_manuscript/rnas/4yb0

>  <Rbt.Executable>
rbdock ($Id: //depot/dev/client3/rdock/2013.1/src/exe/rbdock.cxx#4 $)

>  <Rbt.Library>
libRbt.so (2013.1, Build901 2013/11/27)

>  <Rbt.Parameter_File>
/export/apps/rDock/src/rDock_2013.1_src/data/scripts/dock_solv.prm

>  <Rbt.Receptor>
prm/pocket_docking_7.prm

>  <SCORE>
-43.5458

>  <SCORE.INTER>
-43.2105

>  <SCORE.INTER.CONST>
1

>  <SCORE.INTER.POLAR>
0

>  <SCORE.INTER.ROT>
2

>  <SCORE.INTER.SOLV>
33.6241

>  <SCORE.INTER.VDW>
-44.9484

>  <SCORE.INTER.norm>
-0.939359

>  <SCORE.INTRA>
-0.335282

>  <SCORE.INTRA.DIHEDRAL>
-0.0203219

>  <SCORE.INTRA.DIHEDRAL.0>
2.42188

>  <SCORE.INTRA.POLAR>
0

>  <SCORE.INTRA.POLAR.0>
0

>  <SCORE.INTRA.REPUL>
0

>  <SCORE.INTRA.REPUL.0>
0

>  <SCORE.INTRA.SOLV>
0.519151

>  <SCORE.INTRA.SOLV.lig_0>
-127.307

>  <SCORE.INTRA.VDW>
-0.584696

>  <SCORE.INTRA.VDW.0>
-2.19936

>  <SCORE.INTRA.norm>
-0.00728874

>  <SCORE.RESTR>
0

>  <SCORE.RESTR.CAVITY>
0

>  <SCORE.RESTR.norm>
0

>  <SCORE.SYSTEM>
0

>  <SCORE.SYSTEM.CONST>
0

>  <SCORE.SYSTEM.DIHEDRAL>
0

>  <SCORE.SYSTEM.SOLV>
0

>  <SCORE.SYSTEM.norm>
0

>  <SCORE.heavy>
46

>  <SCORE.norm>
-0.946647

>  <RMSD>
2.168

$$$$
ligand
 OpenBabel02271912143D
libRbt.so/2013.1/901 2013/11/27
 46 52  0  0  0  0  0  0  0  0999 V2000
  160.1772   45.8907  143.7306 P   0  0  1  0  0  0  0  0  0  0  0  0
  159.5808   41.6031  147.4308 P   0  0  1  0  0  0  0  0  0  0  0  0
  159.3491   45.7804  142.4763 O   0  5  0  0  0  0  0  0  0  0  0  0
  160.8987   47.2014  143.9563 O   0  0  0  0  0  0  0  0  0  0  0  0
  159.3097   46.2394  146.2055 C   0  0  0  0  0  0  0  0  0  0  0  0
  159.2456   45.5127  144.9853 O   0  0  0  0  0  0  0  0  0  0  0  0
  158.6395   45.4490  147.3172 C   0  0  1  0  0  0  0  0  0  0  0  0
  157.3613   46.0216  147.5546 O   0  0  0  0  0  0  0  0  0  0  0  0
  158.3975   43.9738  147.0240 C   0  0  1  0  0  0  0  0  0  0  0  0
  159.3559   43.1858  147.7148 O   0  0  0  0  0  0  0  0  0  0  0  0
  157.0415   43.7102  147.6392 C   0  0  1  0  0  0  0  0  0  0  0  0
  157.2028   43.3002  148.9986 O   0  0  0  0  0  0  0  0  0  0  0  0
  156.3433   45.0388  147.6652 C   0  0  2  0  0  0  0  0  0  0  0  0
  160.8459   41.4030  142.1630 C   0  0  1  0  0  0  0  0  0  0  0  0
  155.1003   47.7778  143.3641 N   0  0  0  0  0  0  0  0  0  0  0  0
  156.0425   48.0098  144.2976 C   0  0  1  0  0  0  0  0  0  0  0  0
  160.6045   42.8980  142.1603 C   0  0  2  0  0  0  0  0  0  0  0  0
  156.8330   49.0996  144.1763 N   0  0  0  0  0  0  0  0  0  0  0  0
  161.6265   43.4962  141.3581 O   0  0  0  0  0  0  0  0  0  0  0  0
  160.7342   43.3293  143.6092 C   0  0  2  0  0  0  0  0  0  0  0  0
  156.2474   47.2085  145.3675 N   0  0  0  0  0  0  0  0  0  0  0  0
  161.2245   44.6650  143.7170 O   0  0  0  0  0  0  0  0  0  0  0  0
  155.4965   46.1030  145.5606 C   0  0  2  0  0  0  0  0  0  0  0  0
  161.7194   42.3041  144.1663 C   0  0  2  0  0  0  0  0  0  0  0  0
  161.6272   41.1466  143.3330 O   0  0  0  0  0  0  0  0  0  0  0  0
  154.4495   45.7894  144.5833 C   0  0  2  0  0  0  0  0  0  0  0  0
  161.4798   41.8992  145.6241 C   0  0  0  0  0  0  0  0  0  0  0  0
  160.1138   41.5974  145.9060 O   0  0  0  0  0  0  0  0  0  0  0  0
  154.2833   46.7129  143.4364 C   0  0  0  0  0  0  0  0  0  0  0  0
  153.4050   46.4918  142.5683 O   0  0  0  0  0  0  0  0  0  0  0  0
  153.8622   44.6591  145.0151 N   0  0  0  0  0  0  0  0  0  0  0  0
  154.4753   44.2793  146.1618 C   0  0  0  0  0  0  0  0  0  0  0  0
  155.4527   45.1439  146.4851 N   0  0  1  0  0  0  0  0  0  0  0  0
  156.1762   40.3353  139.9971 N   0  0  0  0  0  0  0  0  0  0  0  0
  160.7009   41.1656  148.3560 O   0  5  0  0  0  0  0  0  0  0  0  0
  157.1902   41.0809  139.5318 C   0  0  2  0  0  0  0  0  0  0  0  0
  157.0313   41.6603  138.3326 N   0  0  0  0  0  0  0  0  0  0  0  0
  158.2441   40.9022  147.4453 O   0  0  0  0  0  0  0  0  0  0  0  0
  158.3503   41.2704  140.2031 N   0  0  0  0  0  0  0  0  0  0  0  0
  158.5482   40.6991  141.4097 C   0  0  1  0  0  0  0  0  0  0  0  0
  157.4689   39.8666  141.9777 C   0  0  1  0  0  0  0  0  0  0  0  0
  156.2329   39.7034  141.1707 C   0  0  0  0  0  0  0  0  0  0  0  0
  155.2607   39.0243  141.5655 O   0  0  0  0  0  0  0  0  0  0  0  0
  157.9176   39.4212  143.1620 N   0  0  0  0  0  0  0  0  0  0  0  0
  159.1689   39.9307  143.3344 C   0  0  0  0  0  0  0  0  0  0  0  0
  159.5497   40.6915  142.2890 N   0  0  2  0  0  0  0  0  0  0  0  0
  1  3  1  6  0  0  0
  1  4  2  0  0  0  0
  1  6  1  0  0  0  0
  1 22  1  0  0  0  0
  2 28  1  0  0  0  0
  2 35  1  1  0  0  0
  2 38  2  0  0  0  0
  2 10  1  0  0  0  0
  5  6  1  0  0  0  0
  7  5  1  6  0  0  0
  7  8  1  0  0  0  0
  7  9  1  0  0  0  0
  9 10  1  1  0  0  0
  9 11  1  0  0  0  0
 11 12  1  1  0  0  0
 11 13  1  0  0  0  0
 13  8  1  6  0  0  0
 13 33  1  0  0  0  0
 14 46  1  0  0  0  0
 14 17  1  0  0  0  0
 14 25  1  1  0  0  0
 15 16  1  0  0  0  0
 15 29  1  0  0  0  0
 16 18  1  1  0  0  0
 16 21  1  0  0  0  0
 17 19  1  6  0  0  0
 17 20  1  0  0  0  0
 20 22  1  6  0  0  0
 20 24  1  0  0  0  0
 23 21  1  1  0  0  0
 23 26  1  0  0  0  0
 23 33  1  0  0  0  0
 24 25  1  6  0  0  0
 24 27  1  0  0  0  0
 26 29  1  1  0  0  0
 26 31  1  0  0  0  0
 27 28  1  0  0  0  0
 29 30  2  0  0  0  0
 31 32  1  0  0  0  0
 33 32  1  6  0  0  0
 34 36  1  0  0  0  0
 34 42  1  0  0  0  0
 36 37  1  6  0  0  0
 36 39  1  0  0  0  0
 40 39  1  6  0  0  0
 40 41  1  0  0  0  0
 40 46  1  0  0  0  0
 41 42  1  6  0  0  0
 41 44  1  0  0  0  0
 42 43  2  0  0  0  0
 44 45  1  0  0  0  0
 46 45  1  1  0  0  0
M  CHG  2   3  -1  35  -1
M  END
>  <CHROM.1>
-7.68393053,64.42400445,158.21693652,43.55652845,144.34841732,-2.01846639
0.73493726,-2.20230447

>  <Name>
ligand

>  <RI>
0

>  <Rbt.Current_Directory>
/home/itssahil/PROJECTS/Mol_Feturizer/Test_systems_manuscript/rnas/4yb0

>  <Rbt.Executable>
rbdock ($Id: //depot/dev/client3/rdock/2013.1/src/exe/rbdock.cxx#4 $)

>  <Rbt.Library>
libRbt.so (2013.1, Build901 2013/11/27)

>  <Rbt.Parameter_File>
/export/apps/rDock/src/rDock_2013.1_src/data/scripts/dock_solv.prm

>  <Rbt.Receptor>
prm/pocket_docking_4.prm

>  <SCORE>
-43.6804

>  <SCORE.INTER>
-43.3507

>  <SCORE.INTER.CONST>
1

>  <SCORE.INTER.POLAR>
0

>  <SCORE.INTER.ROT>
2

>  <SCORE.INTER.SOLV>
32.7568

>  <SCORE.INTER.VDW>
-44.7527

>  <SCORE.INTER.norm>
-0.942407

>  <SCORE.INTRA>
-0.329724

>  <SCORE.INTRA.DIHEDRAL>
-0.0201525

>  <SCORE.INTRA.DIHEDRAL.0>
2.42188

>  <SCORE.INTRA.POLAR>
0

>  <SCORE.INTRA.POLAR.0>
0

>  <SCORE.INTRA.REPUL>
0

>  <SCORE.INTRA.REPUL.0>
0

>  <SCORE.INTRA.SOLV>
0.534483

>  <SCORE.INTRA.SOLV.lig_0>
-127.307

>  <SCORE.INTRA.VDW>
-0.586889

>  <SCORE.INTRA.VDW.0>
-2.19936

>  <SCORE.INTRA.norm>
-0.00716791

>  <SCORE.RESTR>
0

>  <SCORE.RESTR.CAVITY>
0

>  <SCORE.RESTR.norm>
0

>  <SCORE.SYSTEM>
0

>  <SCORE.SYSTEM.CONST>
0

>  <SCORE.SYSTEM.DIHEDRAL>
0

>  <SCORE.SYSTEM.SOLV>
0

>  <SCORE.SYSTEM.norm>
0

>  <SCORE.heavy>
46

>  <SCORE.norm>
-0.949575

>  <RMSD>
2.179

$$$$
ligand
 OpenBabel02271912143D
libRbt.so/2013.1/901 2013/11/27
 46 52  0  0  0  0  0  0  0  0999 V2000
  159.0643   42.8740  146.8765 P   0  0  1  0  0  0  0  0  0  0  0  0
  159.5177   47.6943  143.8782 P   0  0  1  0  0  0  0  0  0  0  0  0
  157.8483   42.0373  146.5727 O   0  5  0  0  0  0  0  0  0  0  0  0
  160.1123   42.2509  147.7726 O   0  0  0  0  0  0  0  0  0  0  0  0
  161.1079   43.3827  145.2751 C   0  0  0  0  0  0  0  0  0  0  0  0
  159.7017   43.3622  145.4835 O   0  0  0  0  0  0  0  0  0  0  0  0
  161.4415   44.2367  144.0630 C   0  0  1  0  0  0  0  0  0  0  0  0
  161.7372   43.3663  142.9800 O   0  0  0  0  0  0  0  0  0  0  0  0
  160.3284   45.1569  143.5781 C   0  0  1  0  0  0  0  0  0  0  0  0
  160.6040   46.4916  143.9770 O   0  0  0  0  0  0  0  0  0  0  0  0
  160.4420   45.0839  142.0719 C   0  0  1  0  0  0  0  0  0  0  0  0
  161.3336   46.0997  141.6082 O   0  0  0  0  0  0  0  0  0  0  0  0
  161.0950   43.7645  141.7785 C   0  0  2  0  0  0  0  0  0  0  0  0
  155.3750   45.9452  146.9062 C   0  0  1  0  0  0  0  0  0  0  0  0
  158.1296   39.8022  143.5259 N   0  0  0  0  0  0  0  0  0  0  0  0
  159.0695   40.5274  144.1612 C   0  0  1  0  0  0  0  0  0  0  0  0
  156.1777   44.6720  147.0739 C   0  0  2  0  0  0  0  0  0  0  0  0
  159.3489   40.2518  145.4547 N   0  0  0  0  0  0  0  0  0  0  0  0
  156.0452   44.2576  148.4364 O   0  0  0  0  0  0  0  0  0  0  0  0
  157.6122   45.0568  146.7638 C   0  0  2  0  0  0  0  0  0  0  0  0
  159.7643   41.5282  143.5742 N   0  0  0  0  0  0  0  0  0  0  0  0
  158.5396   44.2636  147.5034 O   0  0  0  0  0  0  0  0  0  0  0  0
  159.5452   41.8614  142.2842 C   0  0  2  0  0  0  0  0  0  0  0  0
  157.6504   46.5268  147.1755 C   0  0  2  0  0  0  0  0  0  0  0  0
  156.3074   47.0110  147.1055 O   0  0  0  0  0  0  0  0  0  0  0  0
  158.5359   41.1117  141.5300 C   0  0  2  0  0  0  0  0  0  0  0  0
  158.5553   47.4176  146.3185 C   0  0  0  0  0  0  0  0  0  0  0  0
  158.3768   47.2164  144.9170 O   0  0  0  0  0  0  0  0  0  0  0  0
  157.8143   40.0289  142.2392 C   0  0  0  0  0  0  0  0  0  0  0  0
  156.9384   39.3568  141.6435 O   0  0  0  0  0  0  0  0  0  0  0  0
  158.5272   41.6382  140.2924 N   0  0  0  0  0  0  0  0  0  0  0  0
  159.4434   42.6352  140.2541 C   0  0  0  0  0  0  0  0  0  0  0  0
  160.0500   42.7672  141.4467 N   0  0  1  0  0  0  0  0  0  0  0  0
  151.6431   44.4548  143.5166 N   0  0  0  0  0  0  0  0  0  0  0  0
  160.2085   48.9298  144.4244 O   0  5  0  0  0  0  0  0  0  0  0  0
  151.7883   44.1650  144.8188 C   0  0  2  0  0  0  0  0  0  0  0  0
  150.8602   43.3783  145.3837 N   0  0  0  0  0  0  0  0  0  0  0  0
  158.9028   47.6948  142.4997 O   0  0  0  0  0  0  0  0  0  0  0  0
  152.8092   44.6249  145.5794 N   0  0  0  0  0  0  0  0  0  0  0  0
  153.7585   45.4229  145.0470 C   0  0  1  0  0  0  0  0  0  0  0  0
  153.6561   45.7780  143.6174 C   0  0  1  0  0  0  0  0  0  0  0  0
  152.4992   45.2382  142.8585 C   0  0  0  0  0  0  0  0  0  0  0  0
  152.3261   45.4757  141.6437 O   0  0  0  0  0  0  0  0  0  0  0  0
  154.7048   46.5718  143.3483 N   0  0  0  0  0  0  0  0  0  0  0  0
  155.4146   46.7042  144.5032 C   0  0  0  0  0  0  0  0  0  0  0  0
  154.8510   46.0222  145.5200 N   0  0  2  0  0  0  0  0  0  0  0  0
  1  3  1  6  0  0  0
  1  4  2  0  0  0  0
  1  6  1  0  0  0  0
  1 22  1  0  0  0  0
  2 28  1  0  0  0  0
  2 35  1  1  0  0  0
  2 38  2  0  0  0  0
  2 10  1  0  0  0  0
  5  6  1  0  0  0  0
  7  5  1  1  0  0  0
  7  8  1  0  0  0  0
  7  9  1  0  0  0  0
  9 10  1  1  0  0  0
  9 11  1  0  0  0  0
 11 12  1  1  0  0  0
 11 13  1  0  0  0  0
 13  8  1  1  0  0  0
 13 33  1  0  0  0  0
 14 46  1  0  0  0  0
 14 17  1  0  0  0  0
 14 25  1  6  0  0  0
 15 16  1  0  0  0  0
 15 29  1  0  0  0  0
 16 18  1  6  0  0  0
 16 21  1  0  0  0  0
 17 19  1  1  0  0  0
 17 20  1  0  0  0  0
 20 22  1  1  0  0  0
 20 24  1  0  0  0  0
 23 21  1  6  0  0  0
 23 26  1  0  0  0  0
 23 33  1  0  0  0  0
 24 25  1  6  0  0  0
 24 27  1  0  0  0  0
 26 29  1  6  0  0  0
 26 31  1  0  0  0  0
 27 28  1  0  0  0  0
 29 30  2  0  0  0  0
 31 32  1  0  0  0  0
 33 32  1  1  0  0  0
 34 36  1  0  0  0  0
 34 42  1  0  0  0  0
 36 37  1  1  0  0  0
 36 39  1  0  0  0  0
 40 39  1  1  0  0  0
 40 41  1  0  0  0  0
 40 46  1  0  0  0  0
 41 42  1  1  0  0  0
 41 44  1  0  0  0  0
 42 43  2  0  0  0  0
 44 45  1  0  0  0  0
 46 45  1  6  0  0  0
M  CHG  2   3  -1  35  -1
M  END
>  <CHROM.1>
16.48124852,82.08924235,157.74993182,44.31526790,144.38909594,-0.36670154
0.10605572,0.41705649

>  <Name>
ligand

>  <RI>
0

>  <Rbt.Current_Directory>
/home/itssahil/PROJECTS/Mol_Feturizer/Test_systems_manuscript/rnas/4yb0

>  <Rbt.Executable>
rbdock ($Id: //depot/dev/client3/rdock/2013.1/src/exe/rbdock.cxx#4 $)

>  <Rbt.Library>
libRbt.so (2013.1, Build901 2013/11/27)

>  <Rbt.Parameter_File>
/export/apps/rDock/src/rDock_2013.1_src/data/scripts/dock_solv.prm

>  <Rbt.Receptor>
prm/pocket_docking_3.prm

>  <SCORE>
-8.0212

>  <SCORE.INTER>
-11.6391

>  <SCORE.INTER.CONST>
1

>  <SCORE.INTER.POLAR>
0

>  <SCORE.INTER.ROT>
2

>  <SCORE.INTER.SOLV>
27.3081

>  <SCORE.INTER.VDW>
-21.7955

>  <SCORE.INTER.norm>
-0.253025

>  <SCORE.INTRA>
3.61794

>  <SCORE.INTRA.DIHEDRAL>
-0.0667965

>  <SCORE.INTRA.DIHEDRAL.0>
2.42188

>  <SCORE.INTRA.POLAR>
0

>  <SCORE.INTRA.POLAR.0>
0

>  <SCORE.INTRA.REPUL>
0

>  <SCORE.INTRA.REPUL.0>
0

>  <SCORE.INTRA.SOLV>
9.57143

>  <SCORE.INTRA.SOLV.lig_0>
-127.307

>  <SCORE.INTRA.VDW>
-1.13438

>  <SCORE.INTRA.VDW.0>
-2.19936

>  <SCORE.INTRA.norm>
0.0786509

>  <SCORE.RESTR>
0

>  <SCORE.RESTR.CAVITY>
0

>  <SCORE.RESTR.norm>
0

>  <SCORE.SYSTEM>
0

>  <SCORE.SYSTEM.CONST>
0

>  <SCORE.SYSTEM.DIHEDRAL>
0

>  <SCORE.SYSTEM.SOLV>
0

>  <SCORE.SYSTEM.norm>
0

>  <SCORE.heavy>
46

>  <SCORE.norm>
-0.174374

>  <RMSD>
2.279

$$$$
ligand
 OpenBabel02271912143D
libRbt.so/2013.1/901 2013/11/27
 46 52  0  0  0  0  0  0  0  0999 V2000
  160.3889   45.7717  143.8407 P   0  0  1  0  0  0  0  0  0  0  0  0
  159.6439   41.3840  147.3937 P   0  0  1  0  0  0  0  0  0  0  0  0
  159.5461   45.7409  142.5918 O   0  5  0  0  0  0  0  0  0  0  0  0
  161.1671   47.0422  144.1050 O   0  0  0  0  0  0  0  0  0  0  0  0
  159.5584   46.0683  146.3350 C   0  0  0  0  0  0  0  0  0  0  0  0
  159.4531   45.3888  145.0907 O   0  0  0  0  0  0  0  0  0  0  0  0
  158.8650   45.2676  147.4250 C   0  0  1  0  0  0  0  0  0  0  0  0
  157.6143   45.8845  147.6953 O   0  0  0  0  0  0  0  0  0  0  0  0
  158.5584   43.8152  147.0825 C   0  0  1  0  0  0  0  0  0  0  0  0
  159.4885   42.9636  147.7354 O   0  0  0  0  0  0  0  0  0  0  0  0
  157.1978   43.5869  147.7018 C   0  0  1  0  0  0  0  0  0  0  0  0
  157.3534   43.1225  149.0442 O   0  0  0  0  0  0  0  0  0  0  0  0
  156.5566   44.9419  147.7816 C   0  0  2  0  0  0  0  0  0  0  0  0
  160.8539   41.3185  142.1095 C   0  0  1  0  0  0  0  0  0  0  0  0
  155.8461   47.3170  143.1555 N   0  0  0  0  0  0  0  0  0  0  0  0
  156.8670   47.4073  144.0288 C   0  0  1  0  0  0  0  0  0  0  0  0
  160.6758   42.8216  142.1619 C   0  0  2  0  0  0  0  0  0  0  0  0
  157.9105   48.2160  143.7381 N   0  0  0  0  0  0  0  0  0  0  0  0
  161.7152   43.4045  141.3708 O   0  0  0  0  0  0  0  0  0  0  0  0
  160.8361   43.1952  143.6237 C   0  0  2  0  0  0  0  0  0  0  0  0
  156.9115   46.7304  145.1986 N   0  0  0  0  0  0  0  0  0  0  0  0
  161.3833   44.5045  143.7734 O   0  0  0  0  0  0  0  0  0  0  0  0
  155.9061   45.9056  145.5619 C   0  0  2  0  0  0  0  0  0  0  0  0
  161.7819   42.1104  144.1343 C   0  0  2  0  0  0  0  0  0  0  0  0
  161.6337   40.9882  143.2618 O   0  0  0  0  0  0  0  0  0  0  0  0
  154.7602   45.7600  144.6588 C   0  0  2  0  0  0  0  0  0  0  0  0
  161.5380   41.6643  145.5794 C   0  0  0  0  0  0  0  0  0  0  0  0
  160.1630   41.4102  145.8642 O   0  0  0  0  0  0  0  0  0  0  0  0
  154.7811   46.5328  143.3945 C   0  0  0  0  0  0  0  0  0  0  0  0
  153.8283   46.4443  142.5832 O   0  0  0  0  0  0  0  0  0  0  0  0
  153.9190   44.8990  145.2588 N   0  0  0  0  0  0  0  0  0  0  0  0
  154.4726   44.5236  146.4368 C   0  0  0  0  0  0  0  0  0  0  0  0
  155.6611   45.1261  146.6150 N   0  0  1  0  0  0  0  0  0  0  0  0
  156.1530   40.4618  139.9173 N   0  0  0  0  0  0  0  0  0  0  0  0
  160.7524   40.8673  148.2914 O   0  5  0  0  0  0  0  0  0  0  0  0
  157.1977   41.1714  139.4635 C   0  0  2  0  0  0  0  0  0  0  0  0
  157.0662   41.7699  138.2702 N   0  0  0  0  0  0  0  0  0  0  0  0
  158.2790   40.7397  147.3970 O   0  0  0  0  0  0  0  0  0  0  0  0
  158.3620   41.3071  140.1405 N   0  0  0  0  0  0  0  0  0  0  0  0
  158.5327   40.7152  141.3412 C   0  0  1  0  0  0  0  0  0  0  0  0
  157.4190   39.9203  141.8965 C   0  0  1  0  0  0  0  0  0  0  0  0
  156.1803   39.8153  141.0839 C   0  0  0  0  0  0  0  0  0  0  0  0
  155.1804   39.1713  141.4681 O   0  0  0  0  0  0  0  0  0  0  0  0
  157.8453   39.4443  143.0772 N   0  0  0  0  0  0  0  0  0  0  0  0
  159.1154   39.9016  143.2592 C   0  0  0  0  0  0  0  0  0  0  0  0
  159.5299   40.6580  142.2236 N   0  0  2  0  0  0  0  0  0  0  0  0
  1  3  1  6  0  0  0
  1  4  2  0  0  0  0
  1  6  1  0  0  0  0
  1 22  1  0  0  0  0
  2 28  1  0  0  0  0
  2 35  1  1  0  0  0
  2 38  2  0  0  0  0
  2 10  1  0  0  0  0
  5  6  1  0  0  0  0
  7  5  1  6  0  0  0
  7  8  1  0  0  0  0
  7  9  1  0  0  0  0
  9 10  1  1  0  0  0
  9 11  1  0  0  0  0
 11 12  1  1  0  0  0
 11 13  1  0  0  0  0
 13  8  1  6  0  0  0
 13 33  1  0  0  0  0
 14 46  1  0  0  0  0
 14 17  1  0  0  0  0
 14 25  1  1  0  0  0
 15 16  1  0  0  0  0
 15 29  1  0  0  0  0
 16 18  1  1  0  0  0
 16 21  1  0  0  0  0
 17 19  1  6  0  0  0
 17 20  1  0  0  0  0
 20 22  1  6  0  0  0
 20 24  1  0  0  0  0
 23 21  1  1  0  0  0
 23 26  1  0  0  0  0
 23 33  1  0  0  0  0
 24 25  1  6  0  0  0
 24 27  1  0  0  0  0
 26 29  1  1  0  0  0
 26 31  1  0  0  0  0
 27 28  1  0  0  0  0
 29 30  2  0  0  0  0
 31 32  1  0  0  0  0
 33 32  1  6  0  0  0
 34 36  1  0  0  0  0
 34 42  1  0  0  0  0
 36 37  1  6  0  0  0
 36 39  1  0  0  0  0
 40 39  1  6  0  0  0
 40 41  1  0  0  0  0
 40 46  1  0  0  0  0
 41 42  1  6  0  0  0
 41 44  1  0  0  0  0
 42 43  2  0  0  0  0
 44 45  1  0  0  0  0
 46 45  1  1  0  0  0
M  CHG  2   3  -1  35  -1
M  END
>  <CHROM.1>
9.00328499,66.00399325,158.38945462,43.43278491,144.34429276,1.82732234,-0.76874907
0.96576299

>  <Name>
ligand

>  <RI>
0

>  <Rbt.Current_Directory>
/home/itssahil/PROJECTS/Mol_Feturizer/Test_systems_manuscript/rnas/4yb0

>  <Rbt.Executable>
rbdock ($Id: //depot/dev/client3/rdock/2013.1/src/exe/rbdock.cxx#4 $)

>  <Rbt.Library>
libRbt.so (2013.1, Build901 2013/11/27)

>  <Rbt.Parameter_File>
/export/apps/rDock/src/rDock_2013.1_src/data/scripts/dock_solv.prm

>  <Rbt.Receptor>
prm/pocket_docking_3.prm

>  <SCORE>
-40.5634

>  <SCORE.INTER>
-42.547

>  <SCORE.INTER.CONST>
1

>  <SCORE.INTER.POLAR>
0

>  <SCORE.INTER.ROT>
2

>  <SCORE.INTER.SOLV>
30.7665

>  <SCORE.INTER.VDW>
-43.5535

>  <SCORE.INTER.norm>
-0.924936

>  <SCORE.INTRA>
1.98366

>  <SCORE.INTRA.DIHEDRAL>
-0.0419024

>  <SCORE.INTRA.DIHEDRAL.0>
2.42188

>  <SCORE.INTRA.POLAR>
0

>  <SCORE.INTRA.POLAR.0>
0

>  <SCORE.INTRA.REPUL>
0

>  <SCORE.INTRA.REPUL.0>
0

>  <SCORE.INTRA.SOLV>
7.00855

>  <SCORE.INTRA.SOLV.lig_0>
-127.307

>  <SCORE.INTRA.VDW>
-1.49966

>  <SCORE.INTRA.VDW.0>
-2.19936

>  <SCORE.INTRA.norm>
0.0431231

>  <SCORE.RESTR>
0

>  <SCORE.RESTR.CAVITY>
0

>  <SCORE.RESTR.norm>
0

>  <SCORE.SYSTEM>
0

>  <SCORE.SYSTEM.CONST>
0

>  <SCORE.SYSTEM.DIHEDRAL>
0

>  <SCORE.SYSTEM.SOLV>
0

>  <SCORE.SYSTEM.norm>
0

>  <SCORE.heavy>
46

>  <SCORE.norm>
-0.881812

>  <RMSD>
2.323

$$$$
ligand
 OpenBabel02271912143D
libRbt.so/2013.1/901 2013/11/27
 46 52  0  0  0  0  0  0  0  0999 V2000
  160.4210   45.7746  143.9511 P   0  0  1  0  0  0  0  0  0  0  0  0
  159.6471   41.2831  147.3656 P   0  0  1  0  0  0  0  0  0  0  0  0
  159.5816   45.7858  142.6996 O   0  5  0  0  0  0  0  0  0  0  0  0
  161.2038   47.0330  144.2565 O   0  0  0  0  0  0  0  0  0  0  0  0
  159.5846   45.9980  146.4511 C   0  0  0  0  0  0  0  0  0  0  0  0
  159.4799   45.3575  145.1862 O   0  0  0  0  0  0  0  0  0  0  0  0
  158.8847   45.1673  147.5140 C   0  0  1  0  0  0  0  0  0  0  0  0
  157.6358   45.7809  147.7997 O   0  0  0  0  0  0  0  0  0  0  0  0
  158.5729   43.7274  147.1263 C   0  0  1  0  0  0  0  0  0  0  0  0
  159.4975   42.8521  147.7552 O   0  0  0  0  0  0  0  0  0  0  0  0
  157.2095   43.4861  147.7345 C   0  0  1  0  0  0  0  0  0  0  0  0
  157.3593   42.9800  149.0625 O   0  0  0  0  0  0  0  0  0  0  0  0
  156.5739   44.8407  147.8541 C   0  0  2  0  0  0  0  0  0  0  0  0
  160.8720   41.3747  142.0852 C   0  0  1  0  0  0  0  0  0  0  0  0
  155.5185   47.8356  143.6752 N   0  0  0  0  0  0  0  0  0  0  0  0
  156.4869   47.9525  144.6034 C   0  0  1  0  0  0  0  0  0  0  0  0
  160.7002   42.8762  142.1833 C   0  0  2  0  0  0  0  0  0  0  0  0
  157.3647   48.9764  144.5114 N   0  0  0  0  0  0  0  0  0  0  0  0
  161.7442   43.4787  141.4134 O   0  0  0  0  0  0  0  0  0  0  0  0
  160.8578   43.2040  143.6563 C   0  0  2  0  0  0  0  0  0  0  0  0
  156.6354   47.0967  145.6399 N   0  0  0  0  0  0  0  0  0  0  0  0
  161.4102   44.5057  143.8477 O   0  0  0  0  0  0  0  0  0  0  0  0
  155.7966   46.0512  145.8024 C   0  0  2  0  0  0  0  0  0  0  0  0
  161.7975   42.1000  144.1360 C   0  0  2  0  0  0  0  0  0  0  0  0
  161.6471   41.0057  143.2290 O   0  0  0  0  0  0  0  0  0  0  0  0
  154.7165   45.8635  144.8289 C   0  0  2  0  0  0  0  0  0  0  0  0
  161.5476   41.6107  145.5659 C   0  0  0  0  0  0  0  0  0  0  0  0
  160.1707   41.3540  145.8391 O   0  0  0  0  0  0  0  0  0  0  0  0
  154.6159   46.8407  143.7194 C   0  0  0  0  0  0  0  0  0  0  0  0
  153.7127   46.7268  142.8561 O   0  0  0  0  0  0  0  0  0  0  0  0
  154.0411   44.7706  145.2267 N   0  0  0  0  0  0  0  0  0  0  0  0
  154.6326   44.2975  146.3499 C   0  0  0  0  0  0  0  0  0  0  0  0
  155.6826   45.0646  146.6913 N   0  0  1  0  0  0  0  0  0  0  0  0
  156.2121   40.5223  139.8057 N   0  0  0  0  0  0  0  0  0  0  0  0
  160.7509   40.7343  148.2501 O   0  5  0  0  0  0  0  0  0  0  0  0
  157.2664   41.2293  139.3705 C   0  0  2  0  0  0  0  0  0  0  0  0
  157.1587   41.8258  138.1739 N   0  0  0  0  0  0  0  0  0  0  0  0
  158.2795   40.6449  147.3454 O   0  0  0  0  0  0  0  0  0  0  0  0
  158.4179   41.3641  140.0693 N   0  0  0  0  0  0  0  0  0  0  0  0
  158.5647   40.7740  141.2741 C   0  0  1  0  0  0  0  0  0  0  0  0
  157.4392   39.9821  141.8096 C   0  0  1  0  0  0  0  0  0  0  0  0
  156.2160   39.8779  140.9738 C   0  0  0  0  0  0  0  0  0  0  0  0
  155.2079   39.2363  141.3400 O   0  0  0  0  0  0  0  0  0  0  0  0
  157.8422   39.5076  142.9990 N   0  0  0  0  0  0  0  0  0  0  0  0
  159.1094   39.9629  143.2042 C   0  0  0  0  0  0  0  0  0  0  0  0
  159.5449   40.7167  142.1753 N   0  0  2  0  0  0  0  0  0  0  0  0
  1  3  1  6  0  0  0
  1  4  2  0  0  0  0
  1  6  1  0  0  0  0
  1 22  1  0  0  0  0
  2 28  1  0  0  0  0
  2 35  1  1  0  0  0
  2 38  2  0  0  0  0
  2 10  1  0  0  0  0
  5  6  1  0  0  0  0
  7  5  1  6  0  0  0
  7  8  1  0  0  0  0
  7  9  1  0  0  0  0
  9 10  1  1  0  0  0
  9 11  1  0  0  0  0
 11 12  1  1  0  0  0
 11 13  1  0  0  0  0
 13  8  1  6  0  0  0
 13 33  1  0  0  0  0
 14 46  1  0  0  0  0
 14 17  1  0  0  0  0
 14 25  1  1  0  0  0
 15 16  1  0  0  0  0
 15 29  1  0  0  0  0
 16 18  1  1  0  0  0
 16 21  1  0  0  0  0
 17 19  1  6  0  0  0
 17 20  1  0  0  0  0
 20 22  1  6  0  0  0
 20 24  1  0  0  0  0
 23 21  1  1  0  0  0
 23 26  1  0  0  0  0
 23 33  1  0  0  0  0
 24 25  1  6  0  0  0
 24 27  1  0  0  0  0
 26 29  1  1  0  0  0
 26 31  1  0  0  0  0
 27 28  1  0  0  0  0
 29 30  2  0  0  0  0
 31 32  1  0  0  0  0
 33 32  1  6  0  0  0
 34 36  1  0  0  0  0
 34 42  1  0  0  0  0
 36 37  1  6  0  0  0
 36 39  1  0  0  0  0
 40 39  1  6  0  0  0
 40 41  1  0  0  0  0
 40 46  1  0  0  0  0
 41 42  1  6  0  0  0
 41 44  1  0  0  0  0
 42 43  2  0  0  0  0
 44 45  1  0  0  0  0
 46 45  1  1  0  0  0
M  CHG  2   3  -1  35  -1
M  END
>  <CHROM.1>
-4.96244672,68.09028585,158.37435079,43.47273223,144.41240059,-1.93034628
0.77327242,-2.16718824

>  <Name>
ligand

>  <RI>
0

>  <Rbt.Current_Directory>
/home/itssahil/PROJECTS/Mol_Feturizer/Test_systems_manuscript/rnas/4yb0

>  <Rbt.Executable>
rbdock ($Id: //depot/dev/client3/rdock/2013.1/src/exe/rbdock.cxx#4 $)

>  <Rbt.Library>
libRbt.so (2013.1, Build901 2013/11/27)

>  <Rbt.Parameter_File>
/export/apps/rDock/src/rDock_2013.1_src/data/scripts/dock_solv.prm

>  <Rbt.Receptor>
prm/pocket_docking_3.prm

>  <SCORE>
-42.2701

>  <SCORE.INTER>
-42.2849

>  <SCORE.INTER.CONST>
1

>  <SCORE.INTER.POLAR>
0

>  <SCORE.INTER.ROT>
2

>  <SCORE.INTER.SOLV>
31.9587

>  <SCORE.INTER.VDW>
-43.7761

>  <SCORE.INTER.norm>
-0.919236

>  <SCORE.INTRA>
-0.0112241

>  <SCORE.INTRA.DIHEDRAL>
-0.0286191

>  <SCORE.INTRA.DIHEDRAL.0>
2.42188

>  <SCORE.INTRA.POLAR>
0

>  <SCORE.INTRA.POLAR.0>
0

>  <SCORE.INTRA.REPUL>
0

>  <SCORE.INTRA.REPUL.0>
0

>  <SCORE.INTRA.SOLV>
1.48359

>  <SCORE.INTRA.SOLV.lig_0>
-127.307

>  <SCORE.INTRA.VDW>
-0.738709

>  <SCORE.INTRA.VDW.0>
-2.19936

>  <SCORE.INTRA.norm>
-0.000244001

>  <SCORE.RESTR>
0.0259757

>  <SCORE.RESTR.CAVITY>
0.0259757

>  <SCORE.RESTR.norm>
0.000564688

>  <SCORE.SYSTEM>
0

>  <SCORE.SYSTEM.CONST>
0

>  <SCORE.SYSTEM.DIHEDRAL>
0

>  <SCORE.SYSTEM.SOLV>
0

>  <SCORE.SYSTEM.norm>
0

>  <SCORE.heavy>
46

>  <SCORE.norm>
-0.918915

>  <RMSD>
2.335

$$$$
ligand
 OpenBabel02271912143D
libRbt.so/2013.1/901 2013/11/27
 46 52  0  0  0  0  0  0  0  0999 V2000
  160.4268   45.7619  143.9548 P   0  0  1  0  0  0  0  0  0  0  0  0
  159.6351   41.2691  147.3634 P   0  0  1  0  0  0  0  0  0  0  0  0
  159.5902   45.7762  142.7014 O   0  5  0  0  0  0  0  0  0  0  0  0
  161.2117   47.0183  144.2631 O   0  0  0  0  0  0  0  0  0  0  0  0
  159.5852   45.9849  146.4531 C   0  0  0  0  0  0  0  0  0  0  0  0
  159.4820   45.3458  145.1874 O   0  0  0  0  0  0  0  0  0  0  0  0
  158.8810   45.1548  147.5137 C   0  0  1  0  0  0  0  0  0  0  0  0
  157.6328   45.7710  147.7971 O   0  0  0  0  0  0  0  0  0  0  0  0
  158.5668   43.7160  147.1239 C   0  0  1  0  0  0  0  0  0  0  0  0
  159.4881   42.8381  147.7541 O   0  0  0  0  0  0  0  0  0  0  0  0
  157.2016   43.4771  147.7288 C   0  0  1  0  0  0  0  0  0  0  0  0
  157.3472   42.9695  149.0566 O   0  0  0  0  0  0  0  0  0  0  0  0
  156.5687   44.8331  147.8482 C   0  0  2  0  0  0  0  0  0  0  0  0
  160.8721   41.3628  142.0859 C   0  0  1  0  0  0  0  0  0  0  0  0
  155.5150   47.8483  143.6835 N   0  0  0  0  0  0  0  0  0  0  0  0
  156.4795   47.9638  144.6158 C   0  0  1  0  0  0  0  0  0  0  0  0
  160.7035   42.8645  142.1849 C   0  0  2  0  0  0  0  0  0  0  0  0
  157.3532   48.9921  144.5331 N   0  0  0  0  0  0  0  0  0  0  0  0
  161.7506   43.4654  141.4179 O   0  0  0  0  0  0  0  0  0  0  0  0
  160.8585   43.1907  143.6586 C   0  0  2  0  0  0  0  0  0  0  0  0
  156.6282   47.1026  145.6477 N   0  0  0  0  0  0  0  0  0  0  0  0
  161.4133   44.4910  143.8524 O   0  0  0  0  0  0  0  0  0  0  0  0
  155.7934   46.0525  145.8010 C   0  0  2  0  0  0  0  0  0  0  0  0
  161.7947   42.0841  144.1394 C   0  0  2  0  0  0  0  0  0  0  0  0
  161.6438   40.9910  143.2310 O   0  0  0  0  0  0  0  0  0  0  0  0
  154.7175   45.8658  144.8225 C   0  0  2  0  0  0  0  0  0  0  0  0
  161.5404   41.5941  145.5683 C   0  0  0  0  0  0  0  0  0  0  0  0
  160.1623   41.3402  145.8381 O   0  0  0  0  0  0  0  0  0  0  0  0
  154.6166   46.8492  143.7185 C   0  0  0  0  0  0  0  0  0  0  0  0
  153.7170   46.7365  142.8514 O   0  0  0  0  0  0  0  0  0  0  0  0
  154.0456   44.7676  145.2114 N   0  0  0  0  0  0  0  0  0  0  0  0
  154.6351   44.2904  146.3338 C   0  0  0  0  0  0  0  0  0  0  0  0
  155.6805   45.0600  146.6836 N   0  0  1  0  0  0  0  0  0  0  0  0
  156.2150   40.5241  139.7957 N   0  0  0  0  0  0  0  0  0  0  0  0
  160.7356   40.7169  148.2499 O   0  5  0  0  0  0  0  0  0  0  0  0
  157.2718   41.2293  139.3637 C   0  0  2  0  0  0  0  0  0  0  0  0
  157.1679   41.8277  138.1677 N   0  0  0  0  0  0  0  0  0  0  0  0
  158.2661   40.6339  147.3395 O   0  0  0  0  0  0  0  0  0  0  0  0
  158.4221   41.3605  140.0649 N   0  0  0  0  0  0  0  0  0  0  0  0
  158.5652   40.7685  141.2692 C   0  0  1  0  0  0  0  0  0  0  0  0
  157.4368   39.9784  141.8013 C   0  0  1  0  0  0  0  0  0  0  0  0
  156.2151   39.8781  140.9629 C   0  0  0  0  0  0  0  0  0  0  0  0
  155.2047   39.2383  141.3262 O   0  0  0  0  0  0  0  0  0  0  0  0
  157.8363   39.5012  142.9909 N   0  0  0  0  0  0  0  0  0  0  0  0
  159.1041   39.9534  143.1993 C   0  0  0  0  0  0  0  0  0  0  0  0
  159.5434   40.7077  142.1723 N   0  0  2  0  0  0  0  0  0  0  0  0
  1  3  1  6  0  0  0
  1  4  2  0  0  0  0
  1  6  1  0  0  0  0
  1 22  1  0  0  0  0
  2 28  1  0  0  0  0
  2 35  1  1  0  0  0
  2 38  2  0  0  0  0
  2 10  1  0  0  0  0
  5  6  1  0  0  0  0
  7  5  1  6  0  0  0
  7  8  1  0  0  0  0
  7  9  1  0  0  0  0
  9 10  1  1  0  0  0
  9 11  1  0  0  0  0
 11 12  1  1  0  0  0
 11 13  1  0  0  0  0
 13  8  1  6  0  0  0
 13 33  1  0  0  0  0
 14 46  1  0  0  0  0
 14 17  1  0  0  0  0
 14 25  1  1  0  0  0
 15 16  1  0  0  0  0
 15 29  1  0  0  0  0
 16 18  1  1  0  0  0
 16 21  1  0  0  0  0
 17 19  1  6  0  0  0
 17 20  1  0  0  0  0
 20 22  1  6  0  0  0
 20 24  1  0  0  0  0
 23 21  1  1  0  0  0
 23 26  1  0  0  0  0
 23 33  1  0  0  0  0
 24 25  1  6  0  0  0
 24 27  1  0  0  0  0
 26 29  1  1  0  0  0
 26 31  1  0  0  0  0
 27 28  1  0  0  0  0
 29 30  2  0  0  0  0
 31 32  1  0  0  0  0
 33 32  1  6  0  0  0
 34 36  1  0  0  0  0
 34 42  1  0  0  0  0
 36 37  1  6  0  0  0
 36 39  1  0  0  0  0
 40 39  1  6  0  0  0
 40 41  1  0  0  0  0
 40 46  1  0  0  0  0
 41 42  1  6  0  0  0
 41 44  1  0  0  0  0
 42 43  2  0  0  0  0
 44 45  1  0  0  0  0
 46 45  1  1  0  0  0
M  CHG  2   3  -1  35  -1
M  END
>  <CHROM.1>
-5.44519301,68.05891371,158.37229141,43.46592080,144.41089600,-1.93487236
0.77571679,-2.16605674

>  <Name>
ligand

>  <RI>
0

>  <Rbt.Current_Directory>
/home/itssahil/PROJECTS/Mol_Feturizer/Test_systems_manuscript/rnas/4yb0

>  <Rbt.Executable>
rbdock ($Id: //depot/dev/client3/rdock/2013.1/src/exe/rbdock.cxx#4 $)

>  <Rbt.Library>
libRbt.so (2013.1, Build901 2013/11/27)

>  <Rbt.Parameter_File>
/export/apps/rDock/src/rDock_2013.1_src/data/scripts/dock_solv.prm

>  <Rbt.Receptor>
prm/pocket_docking_3.prm

>  <SCORE>
-42.1949

>  <SCORE.INTER>
-42.1604

>  <SCORE.INTER.CONST>
1

>  <SCORE.INTER.POLAR>
0

>  <SCORE.INTER.ROT>
2

>  <SCORE.INTER.SOLV>
32.1159

>  <SCORE.INTER.VDW>
-43.7456

>  <SCORE.INTER.norm>
-0.91653

>  <SCORE.INTRA>
-0.0694496

>  <SCORE.INTRA.DIHEDRAL>
-0.0280203

>  <SCORE.INTRA.DIHEDRAL.0>
2.42188

>  <SCORE.INTRA.POLAR>
0

>  <SCORE.INTRA.POLAR.0>
0

>  <SCORE.INTRA.REPUL>
0

>  <SCORE.INTRA.REPUL.0>
0

>  <SCORE.INTRA.SOLV>
1.28925

>  <SCORE.INTRA.SOLV.lig_0>
-127.307

>  <SCORE.INTRA.VDW>
-0.700065

>  <SCORE.INTRA.VDW.0>
-2.19936

>  <SCORE.INTRA.norm>
-0.00150977

>  <SCORE.RESTR>
0.0349529

>  <SCORE.RESTR.CAVITY>
0.0349529

>  <SCORE.RESTR.norm>
0.000759845

>  <SCORE.SYSTEM>
0

>  <SCORE.SYSTEM.CONST>
0

>  <SCORE.SYSTEM.DIHEDRAL>
0

>  <SCORE.SYSTEM.SOLV>
0

>  <SCORE.SYSTEM.norm>
0

>  <SCORE.heavy>
46

>  <SCORE.norm>
-0.91728

>  <RMSD>
2.336

$$$$
ligand
 OpenBabel02271912143D
libRbt.so/2013.1/901 2013/11/27
 46 52  0  0  0  0  0  0  0  0999 V2000
  160.4204   45.7576  143.9443 P   0  0  1  0  0  0  0  0  0  0  0  0
  159.6501   41.2809  147.3789 P   0  0  1  0  0  0  0  0  0  0  0  0
  159.5787   45.7641  142.6943 O   0  5  0  0  0  0  0  0  0  0  0  0
  161.2046   47.0168  144.2430 O   0  0  0  0  0  0  0  0  0  0  0  0
  159.5888   45.9920  146.4449 C   0  0  0  0  0  0  0  0  0  0  0  0
  159.4814   45.3463  145.1829 O   0  0  0  0  0  0  0  0  0  0  0  0
  158.8903   45.1661  147.5125 C   0  0  1  0  0  0  0  0  0  0  0  0
  157.6424   45.7818  147.7980 O   0  0  0  0  0  0  0  0  0  0  0  0
  158.5769   43.7248  147.1314 C   0  0  1  0  0  0  0  0  0  0  0  0
  159.5022   42.8516  147.7623 O   0  0  0  0  0  0  0  0  0  0  0  0
  157.2145   43.4869  147.7432 C   0  0  1  0  0  0  0  0  0  0  0  0
  157.3665   42.9862  149.0729 O   0  0  0  0  0  0  0  0  0  0  0  0
  156.5800   44.8424  147.8583 C   0  0  2  0  0  0  0  0  0  0  0  0
  160.8652   41.3497  142.0959 C   0  0  1  0  0  0  0  0  0  0  0  0
  155.5124   47.8267  143.6748 N   0  0  0  0  0  0  0  0  0  0  0  0
  156.4817   47.9476  144.6015 C   0  0  1  0  0  0  0  0  0  0  0  0
  160.6945   42.8517  142.1880 C   0  0  2  0  0  0  0  0  0  0  0  0
  157.3571   48.9732  144.5064 N   0  0  0  0  0  0  0  0  0  0  0  0
  161.7375   43.4503  141.4137 O   0  0  0  0  0  0  0  0  0  0  0  0
  160.8551   43.1856  143.6593 C   0  0  2  0  0  0  0  0  0  0  0  0
  156.6335   47.0942  145.6395 N   0  0  0  0  0  0  0  0  0  0  0  0
  161.4086   44.4877  143.8443 O   0  0  0  0  0  0  0  0  0  0  0  0
  155.7973   46.0471  145.8052 C   0  0  2  0  0  0  0  0  0  0  0  0
  161.7950   42.0830  144.1419 C   0  0  2  0  0  0  0  0  0  0  0  0
  161.6422   40.9850  143.2397 O   0  0  0  0  0  0  0  0  0  0  0  0
  154.7163   45.8550  144.8335 C   0  0  2  0  0  0  0  0  0  0  0  0
  161.5475   41.5998  145.5743 C   0  0  0  0  0  0  0  0  0  0  0  0
  160.1709   41.3451  145.8511 O   0  0  0  0  0  0  0  0  0  0  0  0
  154.6121   46.8298  143.7222 C   0  0  0  0  0  0  0  0  0  0  0  0
  153.7080   46.7122  142.8603 O   0  0  0  0  0  0  0  0  0  0  0  0
  154.0439   44.7614  145.2343 N   0  0  0  0  0  0  0  0  0  0  0  0
  154.6379   44.2919  146.3577 C   0  0  0  0  0  0  0  0  0  0  0  0
  155.6866   45.0620  146.6962 N   0  0  1  0  0  0  0  0  0  0  0  0
  156.1866   40.5213  139.8460 N   0  0  0  0  0  0  0  0  0  0  0  0
  160.7552   40.7351  148.2636 O   0  5  0  0  0  0  0  0  0  0  0  0
  157.2386   41.2301  139.4081 C   0  0  2  0  0  0  0  0  0  0  0  0
  157.1226   41.8359  138.2169 N   0  0  0  0  0  0  0  0  0  0  0  0
  158.2820   40.6434  147.3639 O   0  0  0  0  0  0  0  0  0  0  0  0
  158.3956   41.3580  140.0989 N   0  0  0  0  0  0  0  0  0  0  0  0
  158.5509   40.7585  141.2980 C   0  0  1  0  0  0  0  0  0  0  0  0
  157.4284   39.9641  141.8361 C   0  0  1  0  0  0  0  0  0  0  0  0
  156.1986   39.8680  141.0090 C   0  0  0  0  0  0  0  0  0  0  0  0
  155.1924   39.2251  141.3782 O   0  0  0  0  0  0  0  0  0  0  0  0
  157.8398   39.4799  143.0187 N   0  0  0  0  0  0  0  0  0  0  0  0
  159.1092   39.9319  143.2177 C   0  0  0  0  0  0  0  0  0  0  0  0
  159.5379   40.6929  142.1912 N   0  0  2  0  0  0  0  0  0  0  0  0
  1  3  1  6  0  0  0
  1  4  2  0  0  0  0
  1  6  1  0  0  0  0
  1 22  1  0  0  0  0
  2 28  1  0  0  0  0
  2 35  1  1  0  0  0
  2 38  2  0  0  0  0
  2 10  1  0  0  0  0
  5  6  1  0  0  0  0
  7  5  1  6  0  0  0
  7  8  1  0  0  0  0
  7  9  1  0  0  0  0
  9 10  1  1  0  0  0
  9 11  1  0  0  0  0
 11 12  1  1  0  0  0
 11 13  1  0  0  0  0
 13  8  1  6  0  0  0
 13 33  1  0  0  0  0
 14 46  1  0  0  0  0
 14 17  1  0  0  0  0
 14 25  1  1  0  0  0
 15 16  1  0  0  0  0
 15 29  1  0  0  0  0
 16 18  1  1  0  0  0
 16 21  1  0  0  0  0
 17 19  1  6  0  0  0
 17 20  1  0  0  0  0
 20 22  1  6  0  0  0
 20 24  1  0  0  0  0
 23 21  1  1  0  0  0
 23 26  1  0  0  0  0
 23 33  1  0  0  0  0
 24 25  1  6  0  0  0
 24 27  1  0  0  0  0
 26 29  1  1  0  0  0
 26 31  1  0  0  0  0
 27 28  1  0  0  0  0
 29 30  2  0  0  0  0
 31 32  1  0  0  0  0
 33 32  1  6  0  0  0
 34 36  1  0  0  0  0
 34 42  1  0  0  0  0
 36 37  1  6  0  0  0
 36 39  1  0  0  0  0
 40 39  1  6  0  0  0
 40 41  1  0  0  0  0
 40 46  1  0  0  0  0
 41 42  1  6  0  0  0
 41 44  1  0  0  0  0
 42 43  2  0  0  0  0
 44 45  1  0  0  0  0
 46 45  1  1  0  0  0
M  CHG  2   3  -1  35  -1
M  END
>  <CHROM.1>
-5.17185398,67.33356229,158.37100729,43.46298690,144.42150311,-1.93366558
0.77236854,-2.17269876

>  <Name>
ligand

>  <RI>
0

>  <Rbt.Current_Directory>
/home/itssahil/PROJECTS/Mol_Feturizer/Test_systems_manuscript/rnas/4yb0

>  <Rbt.Executable>
rbdock ($Id: //depot/dev/client3/rdock/2013.1/src/exe/rbdock.cxx#4 $)

>  <Rbt.Library>
libRbt.so (2013.1, Build901 2013/11/27)

>  <Rbt.Parameter_File>
/export/apps/rDock/src/rDock_2013.1_src/data/scripts/dock_solv.prm

>  <Rbt.Receptor>
prm/pocket_docking_3.prm

>  <SCORE>
-42.244

>  <SCORE.INTER>
-42.2389

>  <SCORE.INTER.CONST>
1

>  <SCORE.INTER.POLAR>
0

>  <SCORE.INTER.ROT>
2

>  <SCORE.INTER.SOLV>
31.8739

>  <SCORE.INTER.VDW>
-43.7172

>  <SCORE.INTER.norm>
-0.918237

>  <SCORE.INTRA>
-0.0386662

>  <SCORE.INTRA.DIHEDRAL>
-0.0272956

>  <SCORE.INTRA.DIHEDRAL.0>
2.42188

>  <SCORE.INTRA.POLAR>
0

>  <SCORE.INTRA.POLAR.0>
0

>  <SCORE.INTRA.REPUL>
0

>  <SCORE.INTRA.REPUL.0>
0

>  <SCORE.INTRA.SOLV>
1.39979

>  <SCORE.INTRA.SOLV.lig_0>
-127.307

>  <SCORE.INTRA.VDW>
-0.724912

>  <SCORE.INTRA.VDW.0>
-2.19936

>  <SCORE.INTRA.norm>
-0.00084057

>  <SCORE.RESTR>
0.0335321

>  <SCORE.RESTR.CAVITY>
0.0335321

>  <SCORE.RESTR.norm>
0.000728958

>  <SCORE.SYSTEM>
0

>  <SCORE.SYSTEM.CONST>
0

>  <SCORE.SYSTEM.DIHEDRAL>
0

>  <SCORE.SYSTEM.SOLV>
0

>  <SCORE.SYSTEM.norm>
0

>  <SCORE.heavy>
46

>  <SCORE.norm>
-0.918348

>  <RMSD>
2.336

$$$$
ligand
 OpenBabel02271912143D
libRbt.so/2013.1/901 2013/11/27
 46 52  0  0  0  0  0  0  0  0999 V2000
  160.4363   45.7514  143.9299 P   0  0  1  0  0  0  0  0  0  0  0  0
  159.6437   41.2651  147.3469 P   0  0  1  0  0  0  0  0  0  0  0  0
  159.5962   45.7660  142.6789 O   0  5  0  0  0  0  0  0  0  0  0  0
  161.2252   47.0062  144.2343 O   0  0  0  0  0  0  0  0  0  0  0  0
  159.6026   45.9798  146.4304 C   0  0  0  0  0  0  0  0  0  0  0  0
  159.4941   45.3392  145.1658 O   0  0  0  0  0  0  0  0  0  0  0  0
  158.8995   45.1528  147.4941 C   0  0  1  0  0  0  0  0  0  0  0  0
  157.6537   45.7724  147.7803 O   0  0  0  0  0  0  0  0  0  0  0  0
  158.5807   43.7142  147.1072 C   0  0  1  0  0  0  0  0  0  0  0  0
  159.5016   42.8349  147.7359 O   0  0  0  0  0  0  0  0  0  0  0  0
  157.2166   43.4795  147.7164 C   0  0  1  0  0  0  0  0  0  0  0  0
  157.3649   42.9733  149.0445 O   0  0  0  0  0  0  0  0  0  0  0  0
  156.5874   44.8372  147.8358 C   0  0  2  0  0  0  0  0  0  0  0  0
  160.8655   41.3486  142.0656 C   0  0  1  0  0  0  0  0  0  0  0  0
  155.5364   47.8419  143.6628 N   0  0  0  0  0  0  0  0  0  0  0  0
  156.5050   47.9555  144.5912 C   0  0  1  0  0  0  0  0  0  0  0  0
  160.7008   42.8509  142.1632 C   0  0  2  0  0  0  0  0  0  0  0  0
  157.3844   48.9782  144.5012 N   0  0  0  0  0  0  0  0  0  0  0  0
  161.7472   43.4482  141.3923 O   0  0  0  0  0  0  0  0  0  0  0  0
  160.8610   43.1787  143.6359 C   0  0  2  0  0  0  0  0  0  0  0  0
  156.6523   47.0974  145.6260 N   0  0  0  0  0  0  0  0  0  0  0  0
  161.4195   44.4779  143.8264 O   0  0  0  0  0  0  0  0  0  0  0  0
  155.8119   46.0529  145.7865 C   0  0  2  0  0  0  0  0  0  0  0  0
  161.7958   42.0705  144.1155 C   0  0  2  0  0  0  0  0  0  0  0  0
  161.6396   40.9765  143.2091 O   0  0  0  0  0  0  0  0  0  0  0  0
  154.7314   45.8687  144.8127 C   0  0  2  0  0  0  0  0  0  0  0  0
  161.5445   41.5830  145.5458 C   0  0  0  0  0  0  0  0  0  0  0  0
  160.1666   41.3329  145.8200 O   0  0  0  0  0  0  0  0  0  0  0  0
  154.6323   46.8483  143.7051 C   0  0  0  0  0  0  0  0  0  0  0  0
  153.7290   46.7375  142.8417 O   0  0  0  0  0  0  0  0  0  0  0  0
  154.0544   44.7761  145.2084 N   0  0  0  0  0  0  0  0  0  0  0  0
  154.6452   44.2999  146.3306 C   0  0  0  0  0  0  0  0  0  0  0  0
  155.6964   45.0647  146.6735 N   0  0  1  0  0  0  0  0  0  0  0  0
  156.2021   40.5128  139.7872 N   0  0  0  0  0  0  0  0  0  0  0  0
  160.7454   40.7114  148.2309 O   0  5  0  0  0  0  0  0  0  0  0  0
  157.2597   41.2140  139.3507 C   0  0  2  0  0  0  0  0  0  0  0  0
  157.1549   41.8085  138.1529 N   0  0  0  0  0  0  0  0  0  0  0  0
  158.2730   40.6332  147.3279 O   0  0  0  0  0  0  0  0  0  0  0  0
  158.4117   41.3450  140.0493 N   0  0  0  0  0  0  0  0  0  0  0  0
  158.5557   40.7568  141.2554 C   0  0  1  0  0  0  0  0  0  0  0  0
  157.4265   39.9711  141.7924 C   0  0  1  0  0  0  0  0  0  0  0  0
  156.2030   39.8707  140.9566 C   0  0  0  0  0  0  0  0  0  0  0  0
  155.1919   39.2346  141.3240 O   0  0  0  0  0  0  0  0  0  0  0  0
  157.8272   39.4972  142.9828 N   0  0  0  0  0  0  0  0  0  0  0  0
  159.0964   39.9472  143.1873 C   0  0  0  0  0  0  0  0  0  0  0  0
  159.5355   40.6969  142.1569 N   0  0  2  0  0  0  0  0  0  0  0  0
  1  3  1  6  0  0  0
  1  4  2  0  0  0  0
  1  6  1  0  0  0  0
  1 22  1  0  0  0  0
  2 28  1  0  0  0  0
  2 35  1  1  0  0  0
  2 38  2  0  0  0  0
  2 10  1  0  0  0  0
  5  6  1  0  0  0  0
  7  5  1  6  0  0  0
  7  8  1  0  0  0  0
  7  9  1  0  0  0  0
  9 10  1  1  0  0  0
  9 11  1  0  0  0  0
 11 12  1  1  0  0  0
 11 13  1  0  0  0  0
 13  8  1  6  0  0  0
 13 33  1  0  0  0  0
 14 46  1  0  0  0  0
 14 17  1  0  0  0  0
 14 25  1  1  0  0  0
 15 16  1  0  0  0  0
 15 29  1  0  0  0  0
 16 18  1  1  0  0  0
 16 21  1  0  0  0  0
 17 19  1  6  0  0  0
 17 20  1  0  0  0  0
 20 22  1  6  0  0  0
 20 24  1  0  0  0  0
 23 21  1  1  0  0  0
 23 26  1  0  0  0  0
 23 33  1  0  0  0  0
 24 25  1  6  0  0  0
 24 27  1  0  0  0  0
 26 29  1  1  0  0  0
 26 31  1  0  0  0  0
 27 28  1  0  0  0  0
 29 30  2  0  0  0  0
 31 32  1  0  0  0  0
 33 32  1  6  0  0  0
 34 36  1  0  0  0  0
 34 42  1  0  0  0  0
 36 37  1  6  0  0  0
 36 39  1  0  0  0  0
 40 39  1  6  0  0  0
 40 41  1  0  0  0  0
 40 46  1  0  0  0  0
 41 42  1  6  0  0  0
 41 44  1  0  0  0  0
 42 43  2  0  0  0  0
 44 45  1  0  0  0  0
 46 45  1  1  0  0  0
M  CHG  2   3  -1  35  -1
M  END
>  <CHROM.1>
-5.19164641,68.19417159,158.37869520,43.45958458,144.39399770,-1.92698013
0.77645706,-2.17102528

>  <Name>
ligand

>  <RI>
0

>  <Rbt.Current_Directory>
/home/itssahil/PROJECTS/Mol_Feturizer/Test_systems_manuscript/rnas/4yb0

>  <Rbt.Executable>
rbdock ($Id: //depot/dev/client3/rdock/2013.1/src/exe/rbdock.cxx#4 $)

>  <Rbt.Library>
libRbt.so (2013.1, Build901 2013/11/27)

>  <Rbt.Parameter_File>
/export/apps/rDock/src/rDock_2013.1_src/data/scripts/dock_solv.prm

>  <Rbt.Receptor>
prm/pocket_docking_3.prm

>  <SCORE>
-42.1039

>  <SCORE.INTER>
-42.0657

>  <SCORE.INTER.CONST>
1

>  <SCORE.INTER.POLAR>
0

>  <SCORE.INTER.ROT>
2

>  <SCORE.INTER.SOLV>
32.2331

>  <SCORE.INTER.VDW>
-43.7215

>  <SCORE.INTER.norm>
-0.914472

>  <SCORE.INTRA>
-0.0484635

>  <SCORE.INTRA.DIHEDRAL>
-0.0285025

>  <SCORE.INTRA.DIHEDRAL.0>
2.42188

>  <SCORE.INTRA.POLAR>
0

>  <SCORE.INTRA.POLAR.0>
0

>  <SCORE.INTRA.REPUL>
0

>  <SCORE.INTRA.REPUL.0>
0

>  <SCORE.INTRA.SOLV>
1.39141

>  <SCORE.INTRA.SOLV.lig_0>
-127.307

>  <SCORE.INTRA.VDW>
-0.729917

>  <SCORE.INTRA.VDW.0>
-2.19936

>  <SCORE.INTRA.norm>
-0.00105355

>  <SCORE.RESTR>
0.0102839

>  <SCORE.RESTR.CAVITY>
0.0102839

>  <SCORE.RESTR.norm>
0.000223564

>  <SCORE.SYSTEM>
0

>  <SCORE.SYSTEM.CONST>
0

>  <SCORE.SYSTEM.DIHEDRAL>
0

>  <SCORE.SYSTEM.SOLV>
0

>  <SCORE.SYSTEM.norm>
0

>  <SCORE.heavy>
46

>  <SCORE.norm>
-0.915302

>  <RMSD>
2.342

$$$$
ligand
 OpenBabel02271912143D
libRbt.so/2013.1/901 2013/11/27
 46 52  0  0  0  0  0  0  0  0999 V2000
  160.4568   45.7611  143.9667 P   0  0  1  0  0  0  0  0  0  0  0  0
  159.6664   41.3052  147.4237 P   0  0  1  0  0  0  0  0  0  0  0  0
  159.6252   45.7581  142.7099 O   0  5  0  0  0  0  0  0  0  0  0  0
  161.2365   47.0235  144.2635 O   0  0  0  0  0  0  0  0  0  0  0  0
  159.6047   46.0101  146.4590 C   0  0  0  0  0  0  0  0  0  0  0  0
  159.5086   45.3561  145.2003 O   0  0  0  0  0  0  0  0  0  0  0  0
  158.8991   45.1899  147.5263 C   0  0  1  0  0  0  0  0  0  0  0  0
  157.6479   45.8052  147.7978 O   0  0  0  0  0  0  0  0  0  0  0  0
  158.5912   43.7456  147.1519 C   0  0  1  0  0  0  0  0  0  0  0  0
  159.5128   42.8781  147.7958 O   0  0  0  0  0  0  0  0  0  0  0  0
  157.2243   43.5093  147.7543 C   0  0  1  0  0  0  0  0  0  0  0  0
  157.3665   43.0175  149.0884 O   0  0  0  0  0  0  0  0  0  0  0  0
  156.5866   44.8645  147.8556 C   0  0  2  0  0  0  0  0  0  0  0  0
  160.9238   41.3422  142.1503 C   0  0  1  0  0  0  0  0  0  0  0  0
  155.5390   47.8283  143.6526 N   0  0  0  0  0  0  0  0  0  0  0  0
  156.4995   47.9578  144.5873 C   0  0  1  0  0  0  0  0  0  0  0  0
  160.7499   42.8444  142.2314 C   0  0  2  0  0  0  0  0  0  0  0  0
  157.3699   48.9881  144.4963 N   0  0  0  0  0  0  0  0  0  0  0  0
  161.7980   43.4398  141.4616 O   0  0  0  0  0  0  0  0  0  0  0  0
  160.8981   43.1880  143.7018 C   0  0  2  0  0  0  0  0  0  0  0  0
  156.6470   47.1089  145.6296 N   0  0  0  0  0  0  0  0  0  0  0  0
  161.4479   44.4923  143.8828 O   0  0  0  0  0  0  0  0  0  0  0  0
  155.8152   46.0577  145.7916 C   0  0  2  0  0  0  0  0  0  0  0  0
  161.8359   42.0902  144.1989 C   0  0  2  0  0  0  0  0  0  0  0  0
  161.6922   40.9862  143.3027 O   0  0  0  0  0  0  0  0  0  0  0  0
  154.7439   45.8562  144.8111 C   0  0  2  0  0  0  0  0  0  0  0  0
  161.5777   41.6158  145.6324 C   0  0  0  0  0  0  0  0  0  0  0  0
  160.1994   41.3605  145.8998 O   0  0  0  0  0  0  0  0  0  0  0  0
  154.6439   46.8266  143.6956 C   0  0  0  0  0  0  0  0  0  0  0  0
  153.7481   46.7010  142.8263 O   0  0  0  0  0  0  0  0  0  0  0  0
  154.0741   44.7602  145.2099 N   0  0  0  0  0  0  0  0  0  0  0  0
  154.6609   44.2979  146.3400 C   0  0  0  0  0  0  0  0  0  0  0  0
  155.7023   45.0750  146.6850 N   0  0  1  0  0  0  0  0  0  0  0  0
  156.2598   40.5023  139.8746 N   0  0  0  0  0  0  0  0  0  0  0  0
  160.7653   40.7670  148.3208 O   0  5  0  0  0  0  0  0  0  0  0  0
  157.3134   41.2117  139.4414 C   0  0  2  0  0  0  0  0  0  0  0  0
  157.2035   41.8147  138.2482 N   0  0  0  0  0  0  0  0  0  0  0  0
  158.2996   40.6653  147.4019 O   0  0  0  0  0  0  0  0  0  0  0  0
  158.4661   41.3426  140.1388 N   0  0  0  0  0  0  0  0  0  0  0  0
  158.6150   40.7460  141.3401 C   0  0  1  0  0  0  0  0  0  0  0  0
  157.4905   39.9512  141.8733 C   0  0  1  0  0  0  0  0  0  0  0  0
  156.2658   39.8516  141.0391 C   0  0  0  0  0  0  0  0  0  0  0  0
  155.2583   39.2081  141.4037 O   0  0  0  0  0  0  0  0  0  0  0  0
  157.8956   39.4702  143.0593 N   0  0  0  0  0  0  0  0  0  0  0  0
  159.1632   39.9244  143.2648 C   0  0  0  0  0  0  0  0  0  0  0  0
  159.5969   40.6838  142.2392 N   0  0  2  0  0  0  0  0  0  0  0  0
  1  3  1  6  0  0  0
  1  4  2  0  0  0  0
  1  6  1  0  0  0  0
  1 22  1  0  0  0  0
  2 28  1  0  0  0  0
  2 35  1  1  0  0  0
  2 38  2  0  0  0  0
  2 10  1  0  0  0  0
  5  6  1  0  0  0  0
  7  5  1  6  0  0  0
  7  8  1  0  0  0  0
  7  9  1  0  0  0  0
  9 10  1  1  0  0  0
  9 11  1  0  0  0  0
 11 12  1  1  0  0  0
 11 13  1  0  0  0  0
 13  8  1  6  0  0  0
 13 33  1  0  0  0  0
 14 46  1  0  0  0  0
 14 17  1  0  0  0  0
 14 25  1  1  0  0  0
 15 16  1  0  0  0  0
 15 29  1  0  0  0  0
 16 18  1  1  0  0  0
 16 21  1  0  0  0  0
 17 19  1  6  0  0  0
 17 20  1  0  0  0  0
 20 22  1  6  0  0  0
 20 24  1  0  0  0  0
 23 21  1  1  0  0  0
 23 26  1  0  0  0  0
 23 33  1  0  0  0  0
 24 25  1  6  0  0  0
 24 27  1  0  0  0  0
 26 29  1  1  0  0  0
 26 31  1  0  0  0  0
 27 28  1  0  0  0  0
 29 30  2  0  0  0  0
 31 32  1  0  0  0  0
 33 32  1  6  0  0  0
 34 36  1  0  0  0  0
 34 42  1  0  0  0  0
 36 37  1  6  0  0  0
 36 39  1  0  0  0  0
 40 39  1  6  0  0  0
 40 41  1  0  0  0  0
 40 46  1  0  0  0  0
 41 42  1  6  0  0  0
 41 44  1  0  0  0  0
 42 43  2  0  0  0  0
 44 45  1  0  0  0  0
 46 45  1  1  0  0  0
M  CHG  2   3  -1  35  -1
M  END
>  <CHROM.1>
-5.45679544,67.06143473,158.40598983,43.46817789,144.44377058,-1.94798426
0.77508254,-2.17173960

>  <Name>
ligand

>  <RI>
0

>  <Rbt.Current_Directory>
/home/itssahil/PROJECTS/Mol_Feturizer/Test_systems_manuscript/rnas/4yb0

>  <Rbt.Executable>
rbdock ($Id: //depot/dev/client3/rdock/2013.1/src/exe/rbdock.cxx#4 $)

>  <Rbt.Library>
libRbt.so (2013.1, Build901 2013/11/27)

>  <Rbt.Parameter_File>
/export/apps/rDock/src/rDock_2013.1_src/data/scripts/dock_solv.prm

>  <Rbt.Receptor>
prm/pocket_docking_3.prm

>  <SCORE>
-42.1106

>  <SCORE.INTER>
-42.0772

>  <SCORE.INTER.CONST>
1

>  <SCORE.INTER.POLAR>
0

>  <SCORE.INTER.ROT>
2

>  <SCORE.INTER.SOLV>
31.3677

>  <SCORE.INTER.VDW>
-43.4407

>  <SCORE.INTER.norm>
-0.914721

>  <SCORE.INTRA>
-0.0635728

>  <SCORE.INTRA.DIHEDRAL>
-0.026575

>  <SCORE.INTRA.DIHEDRAL.0>
2.42188

>  <SCORE.INTRA.POLAR>
0

>  <SCORE.INTRA.POLAR.0>
0

>  <SCORE.INTRA.REPUL>
0

>  <SCORE.INTRA.REPUL.0>
0

>  <SCORE.INTRA.SOLV>
1.28504

>  <SCORE.INTRA.SOLV.lig_0>
-127.307

>  <SCORE.INTRA.VDW>
-0.692807

>  <SCORE.INTRA.VDW.0>
-2.19936

>  <SCORE.INTRA.norm>
-0.00138202

>  <SCORE.RESTR>
0.0301196

>  <SCORE.RESTR.CAVITY>
0.0301196

>  <SCORE.RESTR.norm>
0.000654773

>  <SCORE.SYSTEM>
0

>  <SCORE.SYSTEM.CONST>
0

>  <SCORE.SYSTEM.DIHEDRAL>
0

>  <SCORE.SYSTEM.SOLV>
0

>  <SCORE.SYSTEM.norm>
0

>  <SCORE.heavy>
46

>  <SCORE.norm>
-0.915448

>  <RMSD>
2.342

$$$$
ligand
 OpenBabel02271912143D
libRbt.so/2013.1/901 2013/11/27
 46 52  0  0  0  0  0  0  0  0999 V2000
  160.4308   45.7362  143.9314 P   0  0  1  0  0  0  0  0  0  0  0  0
  159.6601   41.2581  147.3641 P   0  0  1  0  0  0  0  0  0  0  0  0
  159.5839   45.7469  142.6849 O   0  5  0  0  0  0  0  0  0  0  0  0
  161.2204   46.9924  144.2281 O   0  0  0  0  0  0  0  0  0  0  0  0
  159.6105   45.9704  146.4357 C   0  0  0  0  0  0  0  0  0  0  0  0
  159.4957   45.3265  145.1734 O   0  0  0  0  0  0  0  0  0  0  0  0
  158.9138   45.1456  147.5053 C   0  0  1  0  0  0  0  0  0  0  0  0
  157.6691   45.7651  147.7967 O   0  0  0  0  0  0  0  0  0  0  0  0
  158.5940   43.7058  147.1239 C   0  0  1  0  0  0  0  0  0  0  0  0
  159.5191   42.8289  147.7499 O   0  0  0  0  0  0  0  0  0  0  0  0
  157.2335   43.4717  147.7411 C   0  0  1  0  0  0  0  0  0  0  0  0
  157.3894   42.9691  149.0696 O   0  0  0  0  0  0  0  0  0  0  0  0
  156.6039   44.8292  147.8604 C   0  0  2  0  0  0  0  0  0  0  0  0
  160.8533   41.3289  142.0761 C   0  0  1  0  0  0  0  0  0  0  0  0
  155.5315   47.8189  143.6821 N   0  0  0  0  0  0  0  0  0  0  0  0
  156.5055   47.9351  144.6044 C   0  0  1  0  0  0  0  0  0  0  0  0
  160.6879   42.8313  142.1707 C   0  0  2  0  0  0  0  0  0  0  0  0
  157.3852   48.9567  144.5055 N   0  0  0  0  0  0  0  0  0  0  0  0
  161.7296   43.4274  141.3926 O   0  0  0  0  0  0  0  0  0  0  0  0
  160.8558   43.1630  143.6417 C   0  0  2  0  0  0  0  0  0  0  0  0
  156.6580   47.0810  145.6417 N   0  0  0  0  0  0  0  0  0  0  0  0
  161.4144   44.4631  143.8258 O   0  0  0  0  0  0  0  0  0  0  0  0
  155.8177   46.0378  145.8110 C   0  0  2  0  0  0  0  0  0  0  0  0
  161.7941   42.0568  144.1190 C   0  0  2  0  0  0  0  0  0  0  0  0
  161.6338   40.9603  143.2163 O   0  0  0  0  0  0  0  0  0  0  0  0
  154.7315   45.8508  144.8441 C   0  0  2  0  0  0  0  0  0  0  0  0
  161.5509   41.5728  145.5519 C   0  0  0  0  0  0  0  0  0  0  0  0
  160.1747   41.3224  145.8342 O   0  0  0  0  0  0  0  0  0  0  0  0
  154.6268   46.8262  143.7334 C   0  0  0  0  0  0  0  0  0  0  0  0
  153.7184   46.7129  142.8755 O   0  0  0  0  0  0  0  0  0  0  0  0
  154.0558   44.7603  145.2478 N   0  0  0  0  0  0  0  0  0  0  0  0
  154.6526   44.2879  146.3685 C   0  0  0  0  0  0  0  0  0  0  0  0
  155.7064   45.0531  146.7023 N   0  0  1  0  0  0  0  0  0  0  0  0
  156.1808   40.4779  139.8219 N   0  0  0  0  0  0  0  0  0  0  0  0
  160.7671   40.7076  148.2435 O   0  5  0  0  0  0  0  0  0  0  0  0
  157.2359   41.1780  139.3775 C   0  0  2  0  0  0  0  0  0  0  0  0
  157.1253   41.7666  138.1773 N   0  0  0  0  0  0  0  0  0  0  0  0
  158.2899   40.6252  147.3542 O   0  0  0  0  0  0  0  0  0  0  0  0
  158.3907   41.3134  140.0705 N   0  0  0  0  0  0  0  0  0  0  0  0
  158.5404   40.7311  141.2788 C   0  0  1  0  0  0  0  0  0  0  0  0
  157.4144   39.9470  141.8244 C   0  0  1  0  0  0  0  0  0  0  0  0
  156.1873   39.8415  140.9944 C   0  0  0  0  0  0  0  0  0  0  0  0
  155.1784   39.2062  141.3693 O   0  0  0  0  0  0  0  0  0  0  0  0
  157.8206   39.4792  143.0153 N   0  0  0  0  0  0  0  0  0  0  0  0
  159.0903   39.9313  143.2122 C   0  0  0  0  0  0  0  0  0  0  0  0
  159.5242   40.6764  142.1763 N   0  0  2  0  0  0  0  0  0  0  0  0
  1  3  1  6  0  0  0
  1  4  2  0  0  0  0
  1  6  1  0  0  0  0
  1 22  1  0  0  0  0
  2 28  1  0  0  0  0
  2 35  1  1  0  0  0
  2 38  2  0  0  0  0
  2 10  1  0  0  0  0
  5  6  1  0  0  0  0
  7  5  1  6  0  0  0
  7  8  1  0  0  0  0
  7  9  1  0  0  0  0
  9 10  1  1  0  0  0
  9 11  1  0  0  0  0
 11 12  1  1  0  0  0
 11 13  1  0  0  0  0
 13  8  1  6  0  0  0
 13 33  1  0  0  0  0
 14 46  1  0  0  0  0
 14 17  1  0  0  0  0
 14 25  1  1  0  0  0
 15 16  1  0  0  0  0
 15 29  1  0  0  0  0
 16 18  1  1  0  0  0
 16 21  1  0  0  0  0
 17 19  1  6  0  0  0
 17 20  1  0  0  0  0
 20 22  1  6  0  0  0
 20 24  1  0  0  0  0
 23 21  1  1  0  0  0
 23 26  1  0  0  0  0
 23 33  1  0  0  0  0
 24 25  1  6  0  0  0
 24 27  1  0  0  0  0
 26 29  1  1  0  0  0
 26 31  1  0  0  0  0
 27 28  1  0  0  0  0
 29 30  2  0  0  0  0
 31 32  1  0  0  0  0
 33 32  1  6  0  0  0
 34 36  1  0  0  0  0
 34 42  1  0  0  0  0
 36 37  1  6  0  0  0
 36 39  1  0  0  0  0
 40 39  1  6  0  0  0
 40 41  1  0  0  0  0
 40 46  1  0  0  0  0
 41 42  1  6  0  0  0
 41 44  1  0  0  0  0
 42 43  2  0  0  0  0
 44 45  1  0  0  0  0
 46 45  1  1  0  0  0
M  CHG  2   3  -1  35  -1
M  END
>  <CHROM.1>
-5.07378045,68.33722451,158.37817446,43.44303526,144.41176251,-1.91966295
0.77293458,-2.17760100

>  <Name>
ligand

>  <RI>
0

>  <Rbt.Current_Directory>
/home/itssahil/PROJECTS/Mol_Feturizer/Test_systems_manuscript/rnas/4yb0

>  <Rbt.Executable>
rbdock ($Id: //depot/dev/client3/rdock/2013.1/src/exe/rbdock.cxx#4 $)

>  <Rbt.Library>
libRbt.so (2013.1, Build901 2013/11/27)

>  <Rbt.Parameter_File>
/export/apps/rDock/src/rDock_2013.1_src/data/scripts/dock_solv.prm

>  <Rbt.Receptor>
prm/pocket_docking_3.prm

>  <SCORE>
-42.0621

>  <SCORE.INTER>
-42.035

>  <SCORE.INTER.CONST>
1

>  <SCORE.INTER.POLAR>
0

>  <SCORE.INTER.ROT>
2

>  <SCORE.INTER.SOLV>
32.1437

>  <SCORE.INTER.VDW>
-43.6712

>  <SCORE.INTER.norm>
-0.913805

>  <SCORE.INTRA>
-0.0307848

>  <SCORE.INTRA.DIHEDRAL>
-0.0288398

>  <SCORE.INTRA.DIHEDRAL.0>
2.42188

>  <SCORE.INTRA.POLAR>
0

>  <SCORE.INTRA.POLAR.0>
0

>  <SCORE.INTRA.REPUL>
0

>  <SCORE.INTRA.REPUL.0>
0

>  <SCORE.INTRA.SOLV>
1.43875

>  <SCORE.INTRA.SOLV.lig_0>
-127.307

>  <SCORE.INTRA.VDW>
-0.735741

>  <SCORE.INTRA.VDW.0>
-2.19936

>  <SCORE.INTRA.norm>
-0.000669234

>  <SCORE.RESTR>
0.0036813

>  <SCORE.RESTR.CAVITY>
0.0036813

>  <SCORE.RESTR.norm>
8.00282e-05

>  <SCORE.SYSTEM>
0

>  <SCORE.SYSTEM.CONST>
0

>  <SCORE.SYSTEM.DIHEDRAL>
0

>  <SCORE.SYSTEM.SOLV>
0

>  <SCORE.SYSTEM.norm>
0

>  <SCORE.heavy>
46

>  <SCORE.norm>
-0.914394

>  <RMSD>
2.348

$$$$
ligand
 OpenBabel02271912143D
libRbt.so/2013.1/901 2013/11/27
 46 52  0  0  0  0  0  0  0  0999 V2000
  160.4585   45.7128  143.9347 P   0  0  1  0  0  0  0  0  0  0  0  0
  159.6414   41.2621  147.3922 P   0  0  1  0  0  0  0  0  0  0  0  0
  159.6213   45.7185  142.6816 O   0  5  0  0  0  0  0  0  0  0  0  0
  161.2512   46.9676  144.2289 O   0  0  0  0  0  0  0  0  0  0  0  0
  159.6197   45.9680  146.4308 C   0  0  0  0  0  0  0  0  0  0  0  0
  159.5118   45.3158  145.1722 O   0  0  0  0  0  0  0  0  0  0  0  0
  158.9110   45.1537  147.5007 C   0  0  1  0  0  0  0  0  0  0  0  0
  157.6668   45.7806  147.7780 O   0  0  0  0  0  0  0  0  0  0  0  0
  158.5879   43.7127  147.1267 C   0  0  1  0  0  0  0  0  0  0  0  0
  159.5042   42.8361  147.7660 O   0  0  0  0  0  0  0  0  0  0  0  0
  157.2216   43.4888  147.7348 C   0  0  1  0  0  0  0  0  0  0  0  0
  157.3649   42.9947  149.0680 O   0  0  0  0  0  0  0  0  0  0  0  0
  156.5970   44.8498  147.8398 C   0  0  2  0  0  0  0  0  0  0  0  0
  160.8760   41.2909  142.1134 C   0  0  1  0  0  0  0  0  0  0  0  0
  155.5449   47.8400  143.6568 N   0  0  0  0  0  0  0  0  0  0  0  0
  156.5087   47.9615  144.5891 C   0  0  1  0  0  0  0  0  0  0  0  0
  160.7165   42.7947  142.1962 C   0  0  2  0  0  0  0  0  0  0  0  0
  157.3819   48.9896  144.5010 N   0  0  0  0  0  0  0  0  0  0  0  0
  161.7669   43.3808  141.4222 O   0  0  0  0  0  0  0  0  0  0  0  0
  160.8744   43.1358  143.6662 C   0  0  2  0  0  0  0  0  0  0  0  0
  156.6570   47.1063  145.6262 N   0  0  0  0  0  0  0  0  0  0  0  0
  161.4372   44.4348  143.8456 O   0  0  0  0  0  0  0  0  0  0  0  0
  155.8226   46.0567  145.7850 C   0  0  2  0  0  0  0  0  0  0  0  0
  161.8041   42.0289  144.1585 C   0  0  2  0  0  0  0  0  0  0  0  0
  161.6461   40.9269  143.2621 O   0  0  0  0  0  0  0  0  0  0  0  0
  154.7475   45.8638  144.8068 C   0  0  2  0  0  0  0  0  0  0  0  0
  161.5476   41.5560  145.5928 C   0  0  0  0  0  0  0  0  0  0  0  0
  160.1682   41.3135  145.8660 O   0  0  0  0  0  0  0  0  0  0  0  0
  154.6470   46.8407  143.6970 C   0  0  0  0  0  0  0  0  0  0  0  0
  153.7480   46.7225  142.8299 O   0  0  0  0  0  0  0  0  0  0  0  0
  154.0758   44.7676  145.2016 N   0  0  0  0  0  0  0  0  0  0  0  0
  154.6648   44.2973  146.3273 C   0  0  0  0  0  0  0  0  0  0  0  0
  155.7096   45.0694  146.6732 N   0  0  1  0  0  0  0  0  0  0  0  0
  156.2022   40.4789  139.8475 N   0  0  0  0  0  0  0  0  0  0  0  0
  160.7390   40.7129  148.2841 O   0  5  0  0  0  0  0  0  0  0  0  0
  157.2616   41.1761  139.4090 C   0  0  2  0  0  0  0  0  0  0  0  0
  157.1559   41.7728  138.2123 N   0  0  0  0  0  0  0  0  0  0  0  0
  158.2685   40.6350  147.3759 O   0  0  0  0  0  0  0  0  0  0  0  0
  158.4162   41.3011  140.1044 N   0  0  0  0  0  0  0  0  0  0  0  0
  158.5612   40.7105  141.3091 C   0  0  1  0  0  0  0  0  0  0  0  0
  157.4302   39.9290  141.8483 C   0  0  1  0  0  0  0  0  0  0  0  0
  156.2037   39.8352  141.0160 C   0  0  0  0  0  0  0  0  0  0  0  0
  155.1909   39.2029  141.3855 O   0  0  0  0  0  0  0  0  0  0  0  0
  157.8323   39.4516  143.0369 N   0  0  0  0  0  0  0  0  0  0  0  0
  159.1040   39.8957  143.2382 C   0  0  0  0  0  0  0  0  0  0  0  0
  159.5434   40.6449  142.2076 N   0  0  2  0  0  0  0  0  0  0  0  0
  1  3  1  6  0  0  0
  1  4  2  0  0  0  0
  1  6  1  0  0  0  0
  1 22  1  0  0  0  0
  2 28  1  0  0  0  0
  2 35  1  1  0  0  0
  2 38  2  0  0  0  0
  2 10  1  0  0  0  0
  5  6  1  0  0  0  0
  7  5  1  6  0  0  0
  7  8  1  0  0  0  0
  7  9  1  0  0  0  0
  9 10  1  1  0  0  0
  9 11  1  0  0  0  0
 11 12  1  1  0  0  0
 11 13  1  0  0  0  0
 13  8  1  6  0  0  0
 13 33  1  0  0  0  0
 14 46  1  0  0  0  0
 14 17  1  0  0  0  0
 14 25  1  1  0  0  0
 15 16  1  0  0  0  0
 15 29  1  0  0  0  0
 16 18  1  1  0  0  0
 16 21  1  0  0  0  0
 17 19  1  6  0  0  0
 17 20  1  0  0  0  0
 20 22  1  6  0  0  0
 20 24  1  0  0  0  0
 23 21  1  1  0  0  0
 23 26  1  0  0  0  0
 23 33  1  0  0  0  0
 24 25  1  6  0  0  0
 24 27  1  0  0  0  0
 26 29  1  1  0  0  0
 26 31  1  0  0  0  0
 27 28  1  0  0  0  0
 29 30  2  0  0  0  0
 31 32  1  0  0  0  0
 33 32  1  6  0  0  0
 34 36  1  0  0  0  0
 34 42  1  0  0  0  0
 36 37  1  6  0  0  0
 36 39  1  0  0  0  0
 40 39  1  6  0  0  0
 40 41  1  0  0  0  0
 40 46  1  0  0  0  0
 41 42  1  6  0  0  0
 41 44  1  0  0  0  0
 42 43  2  0  0  0  0
 44 45  1  0  0  0  0
 46 45  1  1  0  0  0
M  CHG  2   3  -1  35  -1
M  END
>  <CHROM.1>
-5.92395036,67.49390959,158.38762815,43.43843590,144.41955572,-1.93616686
0.77966949,-2.18064207

>  <Name>
ligand

>  <RI>
0

>  <Rbt.Current_Directory>
/home/itssahil/PROJECTS/Mol_Feturizer/Test_systems_manuscript/rnas/4yb0

>  <Rbt.Executable>
rbdock ($Id: //depot/dev/client3/rdock/2013.1/src/exe/rbdock.cxx#4 $)

>  <Rbt.Library>
libRbt.so (2013.1, Build901 2013/11/27)

>  <Rbt.Parameter_File>
/export/apps/rDock/src/rDock_2013.1_src/data/scripts/dock_solv.prm

>  <Rbt.Receptor>
prm/pocket_docking_3.prm

>  <SCORE>
-42.1386

>  <SCORE.INTER>
-42.0114

>  <SCORE.INTER.CONST>
1

>  <SCORE.INTER.POLAR>
0

>  <SCORE.INTER.ROT>
2

>  <SCORE.INTER.SOLV>
31.9693

>  <SCORE.INTER.VDW>
-43.5974

>  <SCORE.INTER.norm>
-0.913291

>  <SCORE.INTRA>
-0.142675

>  <SCORE.INTRA.DIHEDRAL>
-0.0266679

>  <SCORE.INTRA.DIHEDRAL.0>
2.42188

>  <SCORE.INTRA.POLAR>
0

>  <SCORE.INTRA.POLAR.0>
0

>  <SCORE.INTRA.REPUL>
0

>  <SCORE.INTRA.REPUL.0>
0

>  <SCORE.INTRA.SOLV>
1.09563

>  <SCORE.INTRA.SOLV.lig_0>
-127.307

>  <SCORE.INTRA.VDW>
-0.677157

>  <SCORE.INTRA.VDW.0>
-2.19936

>  <SCORE.INTRA.norm>
-0.00310164

>  <SCORE.RESTR>
0.0154482

>  <SCORE.RESTR.CAVITY>
0.0154482

>  <SCORE.RESTR.norm>
0.000335831

>  <SCORE.SYSTEM>
0

>  <SCORE.SYSTEM.CONST>
0

>  <SCORE.SYSTEM.DIHEDRAL>
0

>  <SCORE.SYSTEM.SOLV>
0

>  <SCORE.SYSTEM.norm>
0

>  <SCORE.heavy>
46

>  <SCORE.norm>
-0.916057

>  <RMSD>
2.349

$$$$
ligand
 OpenBabel02271912143D
libRbt.so/2013.1/901 2013/11/27
 46 52  0  0  0  0  0  0  0  0999 V2000
  159.5777   41.8457  147.8009 P   0  0  1  0  0  0  0  0  0  0  0  0
  159.9123   46.1058  144.0365 P   0  0  1  0  0  0  0  0  0  0  0  0
  158.2457   41.1436  147.8639 O   0  5  0  0  0  0  0  0  0  0  0  0
  160.7148   41.2184  148.5775 O   0  0  0  0  0  0  0  0  0  0  0  0
  161.2980   41.8547  145.7910 C   0  0  0  0  0  0  0  0  0  0  0  0
  159.9682   42.0493  146.2546 O   0  0  0  0  0  0  0  0  0  0  0  0
  161.4668   42.4825  144.4172 C   0  0  1  0  0  0  0  0  0  0  0  0
  161.4469   41.4402  143.4523 O   0  0  0  0  0  0  0  0  0  0  0  0
  160.3798   43.4665  144.0038 C   0  0  1  0  0  0  0  0  0  0  0  0
  160.8662   44.7950  144.1258 O   0  0  0  0  0  0  0  0  0  0  0  0
  160.1794   43.1729  142.5339 C   0  0  1  0  0  0  0  0  0  0  0  0
  161.0592   43.9885  141.7574 O   0  0  0  0  0  0  0  0  0  0  0  0
  160.6203   41.7510  142.3411 C   0  0  2  0  0  0  0  0  0  0  0  0
  156.3068   45.3529  148.0145 C   0  0  1  0  0  0  0  0  0  0  0  0
  156.2650   40.2019  139.8555 N   0  0  0  0  0  0  0  0  0  0  0  0
  157.1804   41.1256  139.5066 C   0  0  1  0  0  0  0  0  0  0  0  0
  156.9911   44.0198  148.2340 C   0  0  2  0  0  0  0  0  0  0  0  0
  157.0223   41.8017  138.3468 N   0  0  0  0  0  0  0  0  0  0  0  0
  157.0939   43.8177  149.6462 O   0  0  0  0  0  0  0  0  0  0  0  0
  158.3657   44.1651  147.6081 C   0  0  2  0  0  0  0  0  0  0  0  0
  158.2636   41.4252  140.2588 N   0  0  0  0  0  0  0  0  0  0  0  0
  159.3362   43.3653  148.2823 O   0  0  0  0  0  0  0  0  0  0  0  0
  158.4897   40.7958  141.4317 C   0  0  2  0  0  0  0  0  0  0  0  0
  158.6374   45.6597  147.7645 C   0  0  2  0  0  0  0  0  0  0  0  0
  157.3651   46.3031  147.8655 O   0  0  0  0  0  0  0  0  0  0  0  0
  157.5318   39.7782  141.8752 C   0  0  2  0  0  0  0  0  0  0  0  0
  159.4379   46.2966  146.6243 C   0  0  0  0  0  0  0  0  0  0  0  0
  158.9610   45.9303  145.3302 O   0  0  0  0  0  0  0  0  0  0  0  0
  156.3689   39.5031  140.9989 C   0  0  0  0  0  0  0  0  0  0  0  0
  155.5193   38.6404  141.3275 O   0  0  0  0  0  0  0  0  0  0  0  0
  157.9888   39.3246  143.0560 N   0  0  0  0  0  0  0  0  0  0  0  0
  159.1351   39.9865  143.3445 C   0  0  0  0  0  0  0  0  0  0  0  0
  159.4327   40.8648  142.3712 N   0  0  1  0  0  0  0  0  0  0  0  0
  155.2470   47.6407  143.4014 N   0  0  0  0  0  0  0  0  0  0  0  0
  160.8226   47.3022  144.2412 O   0  5  0  0  0  0  0  0  0  0  0  0
  156.1079   48.0041  144.3646 C   0  0  2  0  0  0  0  0  0  0  0  0
  156.8309   49.1152  144.1597 N   0  0  0  0  0  0  0  0  0  0  0  0
  159.0356   45.9983  142.8126 O   0  0  0  0  0  0  0  0  0  0  0  0
  156.2817   47.3113  145.5144 N   0  0  0  0  0  0  0  0  0  0  0  0
  155.5759   46.1861  145.7531 C   0  0  1  0  0  0  0  0  0  0  0  0
  154.6105   45.7332  144.7317 C   0  0  1  0  0  0  0  0  0  0  0  0
  154.4890   46.5469  143.4953 C   0  0  0  0  0  0  0  0  0  0  0  0
  153.6970   46.2513  142.5747 O   0  0  0  0  0  0  0  0  0  0  0  0
  154.0562   44.6068  145.2075 N   0  0  0  0  0  0  0  0  0  0  0  0
  154.6153   44.3684  146.4265 C   0  0  0  0  0  0  0  0  0  0  0  0
  155.5250   45.3074  146.7540 N   0  0  2  0  0  0  0  0  0  0  0  0
  1  3  1  1  0  0  0
  1  4  2  0  0  0  0
  1  6  1  0  0  0  0
  1 22  1  0  0  0  0
  2 28  1  0  0  0  0
  2 35  1  1  0  0  0
  2 38  2  0  0  0  0
  2 10  1  0  0  0  0
  5  6  1  0  0  0  0
  7  5  1  1  0  0  0
  7  8  1  0  0  0  0
  7  9  1  0  0  0  0
  9 10  1  6  0  0  0
  9 11  1  0  0  0  0
 11 12  1  6  0  0  0
 11 13  1  0  0  0  0
 13  8  1  1  0  0  0
 13 33  1  0  0  0  0
 14 46  1  0  0  0  0
 14 17  1  0  0  0  0
 14 25  1  6  0  0  0
 15 16  1  0  0  0  0
 15 29  1  0  0  0  0
 16 18  1  1  0  0  0
 16 21  1  0  0  0  0
 17 19  1  1  0  0  0
 17 20  1  0  0  0  0
 20 22  1  1  0  0  0
 20 24  1  0  0  0  0
 23 21  1  1  0  0  0
 23 26  1  0  0  0  0
 23 33  1  0  0  0  0
 24 25  1  6  0  0  0
 24 27  1  0  0  0  0
 26 29  1  1  0  0  0
 26 31  1  0  0  0  0
 27 28  1  0  0  0  0
 29 30  2  0  0  0  0
 31 32  1  0  0  0  0
 33 32  1  6  0  0  0
 34 36  1  0  0  0  0
 34 42  1  0  0  0  0
 36 37  1  6  0  0  0
 36 39  1  0  0  0  0
 40 39  1  6  0  0  0
 40 41  1  0  0  0  0
 40 46  1  0  0  0  0
 41 42  1  6  0  0  0
 41 44  1  0  0  0  0
 42 43  2  0  0  0  0
 44 45  1  0  0  0  0
 46 45  1  1  0  0  0
M  CHG  2   3  -1  35  -1
M  END
>  <CHROM.1>
-174.47047768,-128.66399977,158.16347965,43.68455556,144.57003089,-1.77273103
0.85438210,-2.19623620

>  <Name>
ligand

>  <RI>
0

>  <Rbt.Current_Directory>
/home/itssahil/PROJECTS/Mol_Feturizer/Test_systems_manuscript/rnas/4yb0

>  <Rbt.Executable>
rbdock ($Id: //depot/dev/client3/rdock/2013.1/src/exe/rbdock.cxx#4 $)

>  <Rbt.Library>
libRbt.so (2013.1, Build901 2013/11/27)

>  <Rbt.Parameter_File>
/export/apps/rDock/src/rDock_2013.1_src/data/scripts/dock_solv.prm

>  <Rbt.Receptor>
prm/pocket_docking_4.prm

>  <SCORE>
-41.7868

>  <SCORE.INTER>
-41.7393

>  <SCORE.INTER.CONST>
1

>  <SCORE.INTER.POLAR>
0

>  <SCORE.INTER.ROT>
2

>  <SCORE.INTER.SOLV>
30.0046

>  <SCORE.INTER.VDW>
-42.761

>  <SCORE.INTER.norm>
-0.907376

>  <SCORE.INTRA>
-0.0474992

>  <SCORE.INTRA.DIHEDRAL>
-0.0282416

>  <SCORE.INTRA.DIHEDRAL.0>
2.42188

>  <SCORE.INTRA.POLAR>
0

>  <SCORE.INTRA.POLAR.0>
0

>  <SCORE.INTRA.REPUL>
0

>  <SCORE.INTRA.REPUL.0>
0

>  <SCORE.INTRA.SOLV>
1.82549

>  <SCORE.INTRA.SOLV.lig_0>
-127.307

>  <SCORE.INTRA.VDW>
-0.946121

>  <SCORE.INTRA.VDW.0>
-2.19936

>  <SCORE.INTRA.norm>
-0.00103259

>  <SCORE.RESTR>
0

>  <SCORE.RESTR.CAVITY>
0

>  <SCORE.RESTR.norm>
0

>  <SCORE.SYSTEM>
0

>  <SCORE.SYSTEM.CONST>
0

>  <SCORE.SYSTEM.DIHEDRAL>
0

>  <SCORE.SYSTEM.SOLV>
0

>  <SCORE.SYSTEM.norm>
0

>  <SCORE.heavy>
46

>  <SCORE.norm>
-0.908408

>  <RMSD>
2.351

$$$$
ligand
 OpenBabel02271912143D
libRbt.so/2013.1/901 2013/11/27
 46 52  0  0  0  0  0  0  0  0999 V2000
  159.5192   41.9130  147.7480 P   0  0  1  0  0  0  0  0  0  0  0  0
  159.9879   46.1281  143.9475 P   0  0  1  0  0  0  0  0  0  0  0  0
  158.1703   41.2434  147.8057 O   0  5  0  0  0  0  0  0  0  0  0  0
  160.6343   41.2661  148.5403 O   0  0  0  0  0  0  0  0  0  0  0  0
  161.2564   41.8619  145.7533 C   0  0  0  0  0  0  0  0  0  0  0  0
  159.9278   42.0926  146.2034 O   0  0  0  0  0  0  0  0  0  0  0  0
  161.4519   42.4725  144.3754 C   0  0  1  0  0  0  0  0  0  0  0  0
  161.4154   41.4219  143.4199 O   0  0  0  0  0  0  0  0  0  0  0  0
  160.3924   43.4782  143.9433 C   0  0  1  0  0  0  0  0  0  0  0  0
  160.9094   44.7958  144.0573 O   0  0  0  0  0  0  0  0  0  0  0  0
  160.1976   43.1756  142.4744 C   0  0  1  0  0  0  0  0  0  0  0  0
  161.1033   43.9626  141.6983 O   0  0  0  0  0  0  0  0  0  0  0  0
  160.6060   41.7418  142.2987 C   0  0  2  0  0  0  0  0  0  0  0  0
  156.3314   45.4989  147.9004 C   0  0  1  0  0  0  0  0  0  0  0  0
  156.2328   40.2787  139.7925 N   0  0  0  0  0  0  0  0  0  0  0  0
  157.1726   41.1776  139.4437 C   0  0  1  0  0  0  0  0  0  0  0  0
  156.9818   44.1521  148.1382 C   0  0  2  0  0  0  0  0  0  0  0  0
  157.0390   41.8487  138.2779 N   0  0  0  0  0  0  0  0  0  0  0  0
  157.0676   43.9609  149.5531 O   0  0  0  0  0  0  0  0  0  0  0  0
  158.3647   44.2587  147.5232 C   0  0  2  0  0  0  0  0  0  0  0  0
  158.2572   41.4568  140.2016 N   0  0  0  0  0  0  0  0  0  0  0  0
  159.3100   43.4423  148.2133 O   0  0  0  0  0  0  0  0  0  0  0  0
  158.4597   40.8310  141.3807 C   0  0  2  0  0  0  0  0  0  0  0  0
  158.6707   45.7477  147.6681 C   0  0  2  0  0  0  0  0  0  0  0  0
  157.4134   46.4221  147.7520 O   0  0  0  0  0  0  0  0  0  0  0  0
  157.4746   39.8400  141.8246 C   0  0  2  0  0  0  0  0  0  0  0  0
  159.4961   46.3546  146.5291 C   0  0  0  0  0  0  0  0  0  0  0  0
  159.0216   45.9875  145.2343 O   0  0  0  0  0  0  0  0  0  0  0  0
  156.3118   39.5861  140.9417 C   0  0  0  0  0  0  0  0  0  0  0  0
  155.4394   38.7465  141.2704 O   0  0  0  0  0  0  0  0  0  0  0  0
  157.9122   39.3844  143.0119 N   0  0  0  0  0  0  0  0  0  0  0  0
  159.0718   40.0208  143.3040 C   0  0  0  0  0  0  0  0  0  0  0  0
  159.3974   40.8845  142.3265 N   0  0  1  0  0  0  0  0  0  0  0  0
  155.2203   47.8722  143.3430 N   0  0  0  0  0  0  0  0  0  0  0  0
  160.9247   47.3043  144.1491 O   0  5  0  0  0  0  0  0  0  0  0  0
  156.0617   48.2395  144.3217 C   0  0  2  0  0  0  0  0  0  0  0  0
  156.7464   49.3804  144.1519 N   0  0  0  0  0  0  0  0  0  0  0  0
  159.1194   46.0300  142.7169 O   0  0  0  0  0  0  0  0  0  0  0  0
  156.2528   47.5223  145.4537 N   0  0  0  0  0  0  0  0  0  0  0  0
  155.5857   46.3669  145.6570 C   0  0  1  0  0  0  0  0  0  0  0  0
  154.6432   45.9082  144.6169 C   0  0  1  0  0  0  0  0  0  0  0  0
  154.5008   46.7503  143.4019 C   0  0  0  0  0  0  0  0  0  0  0  0
  153.7255   46.4522  142.4681 O   0  0  0  0  0  0  0  0  0  0  0  0
  154.1262   44.7506  145.0583 N   0  0  0  0  0  0  0  0  0  0  0  0
  154.6857   44.4990  146.2744 C   0  0  0  0  0  0  0  0  0  0  0  0
  155.5596   45.4602  146.6335 N   0  0  2  0  0  0  0  0  0  0  0  0
  1  3  1  1  0  0  0
  1  4  2  0  0  0  0
  1  6  1  0  0  0  0
  1 22  1  0  0  0  0
  2 28  1  0  0  0  0
  2 35  1  1  0  0  0
  2 38  2  0  0  0  0
  2 10  1  0  0  0  0
  5  6  1  0  0  0  0
  7  5  1  1  0  0  0
  7  8  1  0  0  0  0
  7  9  1  0  0  0  0
  9 10  1  6  0  0  0
  9 11  1  0  0  0  0
 11 12  1  6  0  0  0
 11 13  1  0  0  0  0
 13  8  1  1  0  0  0
 13 33  1  0  0  0  0
 14 46  1  0  0  0  0
 14 17  1  0  0  0  0
 14 25  1  6  0  0  0
 15 16  1  0  0  0  0
 15 29  1  0  0  0  0
 16 18  1  1  0  0  0
 16 21  1  0  0  0  0
 17 19  1  1  0  0  0
 17 20  1  0  0  0  0
 20 22  1  1  0  0  0
 20 24  1  0  0  0  0
 23 21  1  1  0  0  0
 23 26  1  0  0  0  0
 23 33  1  0  0  0  0
 24 25  1  6  0  0  0
 24 27  1  0  0  0  0
 26 29  1  1  0  0  0
 26 31  1  0  0  0  0
 27 28  1  0  0  0  0
 29 30  2  0  0  0  0
 31 32  1  0  0  0  0
 33 32  1  6  0  0  0
 34 36  1  0  0  0  0
 34 42  1  0  0  0  0
 36 37  1  6  0  0  0
 36 39  1  0  0  0  0
 40 39  1  6  0  0  0
 40 41  1  0  0  0  0
 40 46  1  0  0  0  0
 41 42  1  6  0  0  0
 41 44  1  0  0  0  0
 42 43  2  0  0  0  0
 44 45  1  0  0  0  0
 46 45  1  1  0  0  0
M  CHG  2   3  -1  35  -1
M  END
>  <CHROM.1>
-174.61005722,-132.64134725,158.16082456,43.76627175,144.49769041,-1.79281430
0.86639749,-2.21367758

>  <Name>
ligand

>  <RI>
0

>  <Rbt.Current_Directory>
/home/itssahil/PROJECTS/Mol_Feturizer/Test_systems_manuscript/rnas/4yb0

>  <Rbt.Executable>
rbdock ($Id: //depot/dev/client3/rdock/2013.1/src/exe/rbdock.cxx#4 $)

>  <Rbt.Library>
libRbt.so (2013.1, Build901 2013/11/27)

>  <Rbt.Parameter_File>
/export/apps/rDock/src/rDock_2013.1_src/data/scripts/dock_solv.prm

>  <Rbt.Receptor>
prm/pocket_docking_7.prm

>  <SCORE>
-41.982

>  <SCORE.INTER>
-41.4817

>  <SCORE.INTER.CONST>
1

>  <SCORE.INTER.POLAR>
0

>  <SCORE.INTER.ROT>
2

>  <SCORE.INTER.SOLV>
30.8028

>  <SCORE.INTER.VDW>
-42.8554

>  <SCORE.INTER.norm>
-0.901776

>  <SCORE.INTRA>
-0.500305

>  <SCORE.INTRA.DIHEDRAL>
-0.0337869

>  <SCORE.INTRA.DIHEDRAL.0>
2.42188

>  <SCORE.INTRA.POLAR>
0

>  <SCORE.INTRA.POLAR.0>
0

>  <SCORE.INTRA.REPUL>
0

>  <SCORE.INTRA.REPUL.0>
0

>  <SCORE.INTRA.SOLV>
0.348278

>  <SCORE.INTRA.SOLV.lig_0>
-127.307

>  <SCORE.INTRA.VDW>
-0.65755

>  <SCORE.INTRA.VDW.0>
-2.19936

>  <SCORE.INTRA.norm>
-0.0108762

>  <SCORE.RESTR>
0

>  <SCORE.RESTR.CAVITY>
0

>  <SCORE.RESTR.norm>
0

>  <SCORE.SYSTEM>
0

>  <SCORE.SYSTEM.CONST>
0

>  <SCORE.SYSTEM.DIHEDRAL>
0

>  <SCORE.SYSTEM.SOLV>
0

>  <SCORE.SYSTEM.norm>
0

>  <SCORE.heavy>
46

>  <SCORE.norm>
-0.912652

>  <RMSD>
2.353

$$$$
ligand
 OpenBabel02271912143D
libRbt.so/2013.1/901 2013/11/27
 46 52  0  0  0  0  0  0  0  0999 V2000
  159.5046   41.8840  147.7542 P   0  0  1  0  0  0  0  0  0  0  0  0
  160.0201   46.0990  143.9595 P   0  0  1  0  0  0  0  0  0  0  0  0
  158.1510   41.2236  147.8049 O   0  5  0  0  0  0  0  0  0  0  0  0
  160.6115   41.2290  148.5512 O   0  0  0  0  0  0  0  0  0  0  0  0
  161.2510   41.8228  145.7677 C   0  0  0  0  0  0  0  0  0  0  0  0
  159.9218   42.0621  146.2117 O   0  0  0  0  0  0  0  0  0  0  0  0
  161.4572   42.4332  144.3912 C   0  0  1  0  0  0  0  0  0  0  0  0
  161.4181   41.3836  143.4347 O   0  0  0  0  0  0  0  0  0  0  0  0
  160.4065   43.4464  143.9549 C   0  0  1  0  0  0  0  0  0  0  0  0
  160.9319   44.7604  144.0726 O   0  0  0  0  0  0  0  0  0  0  0  0
  160.2167   43.1464  142.4850 C   0  0  1  0  0  0  0  0  0  0  0  0
  161.1314   43.9278  141.7138 O   0  0  0  0  0  0  0  0  0  0  0  0
  160.6162   41.7100  142.3099 C   0  0  2  0  0  0  0  0  0  0  0  0
  156.3406   45.4915  147.8945 C   0  0  1  0  0  0  0  0  0  0  0  0
  156.2050   40.3370  139.8194 N   0  0  0  0  0  0  0  0  0  0  0  0
  157.1475   41.2372  139.4811 C   0  0  1  0  0  0  0  0  0  0  0  0
  156.9807   44.1401  148.1342 C   0  0  2  0  0  0  0  0  0  0  0  0
  157.0060   41.9363  138.3328 N   0  0  0  0  0  0  0  0  0  0  0  0
  157.0585   43.9471  149.5493 O   0  0  0  0  0  0  0  0  0  0  0  0
  158.3672   44.2377  147.5258 C   0  0  2  0  0  0  0  0  0  0  0  0
  158.2424   41.4909  140.2331 N   0  0  0  0  0  0  0  0  0  0  0  0
  159.3036   43.4144  148.2197 O   0  0  0  0  0  0  0  0  0  0  0  0
  158.4533   40.8362  141.3950 C   0  0  2  0  0  0  0  0  0  0  0  0
  158.6827   45.7246  147.6735 C   0  0  2  0  0  0  0  0  0  0  0  0
  157.4296   46.4075  147.7520 O   0  0  0  0  0  0  0  0  0  0  0  0
  157.4657   39.8421  141.8267 C   0  0  2  0  0  0  0  0  0  0  0  0
  159.5175   46.3267  146.5390 C   0  0  0  0  0  0  0  0  0  0  0  0
  159.0467   45.9640  145.2416 O   0  0  0  0  0  0  0  0  0  0  0  0
  156.2914   39.6173  140.9512 C   0  0  0  0  0  0  0  0  0  0  0  0
  155.4166   38.7765  141.2699 O   0  0  0  0  0  0  0  0  0  0  0  0
  157.9130   39.3558  142.9981 N   0  0  0  0  0  0  0  0  0  0  0  0
  159.0805   39.9769  143.2920 C   0  0  0  0  0  0  0  0  0  0  0  0
  159.4016   40.8608  142.3313 N   0  0  1  0  0  0  0  0  0  0  0  0
  155.2663   47.8767  143.3344 N   0  0  0  0  0  0  0  0  0  0  0  0
  160.9639   47.2687  144.1666 O   0  5  0  0  0  0  0  0  0  0  0  0
  156.1055   48.2375  144.3175 C   0  0  2  0  0  0  0  0  0  0  0  0
  156.7982   49.3742  144.1522 N   0  0  0  0  0  0  0  0  0  0  0  0
  159.1568   46.0078  142.7247 O   0  0  0  0  0  0  0  0  0  0  0  0
  156.2866   47.5179  145.4496 N   0  0  0  0  0  0  0  0  0  0  0  0
  155.6112   46.3666  145.6485 C   0  0  1  0  0  0  0  0  0  0  0  0
  154.6707   45.9151  144.6034 C   0  0  1  0  0  0  0  0  0  0  0  0
  154.5395   46.7594  143.3887 C   0  0  0  0  0  0  0  0  0  0  0  0
  153.7667   46.4672  142.4509 O   0  0  0  0  0  0  0  0  0  0  0  0
  154.1442   44.7603  145.0411 N   0  0  0  0  0  0  0  0  0  0  0  0
  154.6963   44.5039  146.2596 C   0  0  0  0  0  0  0  0  0  0  0  0
  155.5746   45.4591  146.6239 N   0  0  2  0  0  0  0  0  0  0  0  0
  1  3  1  1  0  0  0
  1  4  2  0  0  0  0
  1  6  1  0  0  0  0
  1 22  1  0  0  0  0
  2 28  1  0  0  0  0
  2 35  1  1  0  0  0
  2 38  2  0  0  0  0
  2 10  1  0  0  0  0
  5  6  1  0  0  0  0
  7  5  1  1  0  0  0
  7  8  1  0  0  0  0
  7  9  1  0  0  0  0
  9 10  1  6  0  0  0
  9 11  1  0  0  0  0
 11 12  1  6  0  0  0
 11 13  1  0  0  0  0
 13  8  1  1  0  0  0
 13 33  1  0  0  0  0
 14 46  1  0  0  0  0
 14 17  1  0  0  0  0
 14 25  1  6  0  0  0
 15 16  1  0  0  0  0
 15 29  1  0  0  0  0
 16 18  1  1  0  0  0
 16 21  1  0  0  0  0
 17 19  1  1  0  0  0
 17 20  1  0  0  0  0
 20 22  1  1  0  0  0
 20 24  1  0  0  0  0
 23 21  1  1  0  0  0
 23 26  1  0  0  0  0
 23 33  1  0  0  0  0
 24 25  1  6  0  0  0
 24 27  1  0  0  0  0
 26 29  1  1  0  0  0
 26 31  1  0  0  0  0
 27 28  1  0  0  0  0
 29 30  2  0  0  0  0
 31 32  1  0  0  0  0
 33 32  1  6  0  0  0
 34 36  1  0  0  0  0
 34 42  1  0  0  0  0
 36 37  1  6  0  0  0
 36 39  1  0  0  0  0
 40 39  1  6  0  0  0
 40 41  1  0  0  0  0
 40 46  1  0  0  0  0
 41 42  1  6  0  0  0
 41 44  1  0  0  0  0
 42 43  2  0  0  0  0
 44 45  1  0  0  0  0
 46 45  1  1  0  0  0
M  CHG  2   3  -1  35  -1
M  END
>  <CHROM.1>
-176.18796181,-132.66903104,158.16989825,43.75565967,144.50314038,-1.79276053
0.87244641,-2.21530379

>  <Name>
ligand

>  <RI>
0

>  <Rbt.Current_Directory>
/home/itssahil/PROJECTS/Mol_Feturizer/Test_systems_manuscript/rnas/4yb0

>  <Rbt.Executable>
rbdock ($Id: //depot/dev/client3/rdock/2013.1/src/exe/rbdock.cxx#4 $)

>  <Rbt.Library>
libRbt.so (2013.1, Build901 2013/11/27)

>  <Rbt.Parameter_File>
/export/apps/rDock/src/rDock_2013.1_src/data/scripts/dock_solv.prm

>  <Rbt.Receptor>
prm/pocket_docking_8.prm

>  <SCORE>
-41.9639

>  <SCORE.INTER>
-41.4742

>  <SCORE.INTER.CONST>
1

>  <SCORE.INTER.POLAR>
0

>  <SCORE.INTER.ROT>
2

>  <SCORE.INTER.SOLV>
30.4905

>  <SCORE.INTER.VDW>
-42.7463

>  <SCORE.INTER.norm>
-0.901612

>  <SCORE.INTRA>
-0.489775

>  <SCORE.INTRA.DIHEDRAL>
-0.0356671

>  <SCORE.INTRA.DIHEDRAL.0>
2.42188

>  <SCORE.INTRA.POLAR>
0

>  <SCORE.INTRA.POLAR.0>
0

>  <SCORE.INTRA.REPUL>
0

>  <SCORE.INTRA.REPUL.0>
0

>  <SCORE.INTRA.SOLV>
0.341563

>  <SCORE.INTRA.SOLV.lig_0>
-127.307

>  <SCORE.INTRA.VDW>
-0.642723

>  <SCORE.INTRA.VDW.0>
-2.19936

>  <SCORE.INTRA.norm>
-0.0106473

>  <SCORE.RESTR>
0

>  <SCORE.RESTR.CAVITY>
0

>  <SCORE.RESTR.norm>
0

>  <SCORE.SYSTEM>
0

>  <SCORE.SYSTEM.CONST>
0

>  <SCORE.SYSTEM.DIHEDRAL>
0

>  <SCORE.SYSTEM.SOLV>
0

>  <SCORE.SYSTEM.norm>
0

>  <SCORE.heavy>
46

>  <SCORE.norm>
-0.91226

>  <RMSD>
2.360

$$$$
ligand
 OpenBabel02271912143D
libRbt.so/2013.1/901 2013/11/27
 46 52  0  0  0  0  0  0  0  0999 V2000
  159.4995   41.8061  147.7600 P   0  0  1  0  0  0  0  0  0  0  0  0
  160.0046   46.0452  143.9910 P   0  0  1  0  0  0  0  0  0  0  0  0
  158.1448   41.1480  147.8131 O   0  5  0  0  0  0  0  0  0  0  0  0
  160.6090   41.1435  148.5471 O   0  0  0  0  0  0  0  0  0  0  0  0
  161.2358   41.7546  145.7645 C   0  0  0  0  0  0  0  0  0  0  0  0
  159.9093   41.9936  146.2166 O   0  0  0  0  0  0  0  0  0  0  0  0
  161.4364   42.3737  144.3911 C   0  0  1  0  0  0  0  0  0  0  0  0
  161.3903   41.3307  143.4278 O   0  0  0  0  0  0  0  0  0  0  0  0
  160.3856   43.3919  143.9668 C   0  0  1  0  0  0  0  0  0  0  0  0
  160.9143   44.7041  144.0906 O   0  0  0  0  0  0  0  0  0  0  0  0
  160.1879   43.1021  142.4958 C   0  0  1  0  0  0  0  0  0  0  0  0
  161.1003   43.8868  141.7253 O   0  0  0  0  0  0  0  0  0  0  0  0
  160.5836   41.6661  142.3092 C   0  0  2  0  0  0  0  0  0  0  0  0
  156.3435   45.4188  147.9401 C   0  0  1  0  0  0  0  0  0  0  0  0
  156.1723   40.2966  139.8169 N   0  0  0  0  0  0  0  0  0  0  0  0
  157.1168   41.1943  139.4778 C   0  0  1  0  0  0  0  0  0  0  0  0
  156.9821   44.0645  148.1676 C   0  0  2  0  0  0  0  0  0  0  0  0
  156.9778   41.8914  138.3280 N   0  0  0  0  0  0  0  0  0  0  0  0
  157.0665   43.8620  149.5810 O   0  0  0  0  0  0  0  0  0  0  0  0
  158.3657   44.1635  147.5530 C   0  0  2  0  0  0  0  0  0  0  0  0
  158.2115   41.4474  140.2304 N   0  0  0  0  0  0  0  0  0  0  0  0
  159.3039   43.3337  148.2367 O   0  0  0  0  0  0  0  0  0  0  0  0
  158.4199   40.7946  141.3938 C   0  0  2  0  0  0  0  0  0  0  0  0
  158.6849   45.6487  147.7090 C   0  0  2  0  0  0  0  0  0  0  0  0
  157.4336   46.3335  147.7983 O   0  0  0  0  0  0  0  0  0  0  0  0
  157.4301   39.8032  141.8264 C   0  0  2  0  0  0  0  0  0  0  0  0
  159.5153   46.2568  146.5744 C   0  0  0  0  0  0  0  0  0  0  0  0
  159.0373   45.9036  145.2770 O   0  0  0  0  0  0  0  0  0  0  0  0
  156.2563   39.5789  140.9501 C   0  0  0  0  0  0  0  0  0  0  0  0
  155.3795   38.7403  141.2696 O   0  0  0  0  0  0  0  0  0  0  0  0
  157.8753   39.3183  142.9992 N   0  0  0  0  0  0  0  0  0  0  0  0
  159.0436   39.9378  143.2930 C   0  0  0  0  0  0  0  0  0  0  0  0
  159.3674   40.8193  142.3310 N   0  0  1  0  0  0  0  0  0  0  0  0
  155.2709   47.8233  143.3898 N   0  0  0  0  0  0  0  0  0  0  0  0
  160.9518   47.2116  144.2011 O   0  5  0  0  0  0  0  0  0  0  0  0
  156.1183   48.1740  144.3696 C   0  0  2  0  0  0  0  0  0  0  0  0
  156.8214   49.3041  144.2030 N   0  0  0  0  0  0  0  0  0  0  0  0
  159.1350   45.9640  142.7599 O   0  0  0  0  0  0  0  0  0  0  0  0
  156.2977   47.4504  145.4994 N   0  0  0  0  0  0  0  0  0  0  0  0
  155.6120   46.3054  145.6994 C   0  0  1  0  0  0  0  0  0  0  0  0
  154.6621   45.8652  144.6580 C   0  0  1  0  0  0  0  0  0  0  0  0
  154.5333   46.7132  143.4455 C   0  0  0  0  0  0  0  0  0  0  0  0
  153.7532   46.4304  142.5108 O   0  0  0  0  0  0  0  0  0  0  0  0
  154.1263   44.7149  145.0960 N   0  0  0  0  0  0  0  0  0  0  0  0
  154.6817   44.4506  146.3113 C   0  0  0  0  0  0  0  0  0  0  0  0
  155.5712   45.3964  146.6732 N   0  0  2  0  0  0  0  0  0  0  0  0
  1  3  1  1  0  0  0
  1  4  2  0  0  0  0
  1  6  1  0  0  0  0
  1 22  1  0  0  0  0
  2 28  1  0  0  0  0
  2 35  1  1  0  0  0
  2 38  2  0  0  0  0
  2 10  1  0  0  0  0
  5  6  1  0  0  0  0
  7  5  1  1  0  0  0
  7  8  1  0  0  0  0
  7  9  1  0  0  0  0
  9 10  1  6  0  0  0
  9 11  1  0  0  0  0
 11 12  1  6  0  0  0
 11 13  1  0  0  0  0
 13  8  1  1  0  0  0
 13 33  1  0  0  0  0
 14 46  1  0  0  0  0
 14 17  1  0  0  0  0
 14 25  1  6  0  0  0
 15 16  1  0  0  0  0
 15 29  1  0  0  0  0
 16 18  1  1  0  0  0
 16 21  1  0  0  0  0
 17 19  1  1  0  0  0
 17 20  1  0  0  0  0
 20 22  1  1  0  0  0
 20 24  1  0  0  0  0
 23 21  1  1  0  0  0
 23 26  1  0  0  0  0
 23 33  1  0  0  0  0
 24 25  1  6  0  0  0
 24 27  1  0  0  0  0
 26 29  1  1  0  0  0
 26 31  1  0  0  0  0
 27 28  1  0  0  0  0
 29 30  2  0  0  0  0
 31 32  1  0  0  0  0
 33 32  1  6  0  0  0
 34 36  1  0  0  0  0
 34 42  1  0  0  0  0
 36 37  1  6  0  0  0
 36 39  1  0  0  0  0
 40 39  1  6  0  0  0
 40 41  1  0  0  0  0
 40 46  1  0  0  0  0
 41 42  1  6  0  0  0
 41 44  1  0  0  0  0
 42 43  2  0  0  0  0
 44 45  1  0  0  0  0
 46 45  1  1  0  0  0
M  CHG  2   3  -1  35  -1
M  END
>  <CHROM.1>
-175.58630615,-132.14323111,158.15614873,43.69816660,144.52531820,-1.78031161
0.87360157,-2.21414117

>  <Name>
ligand

>  <RI>
0

>  <Rbt.Current_Directory>
/home/itssahil/PROJECTS/Mol_Feturizer/Test_systems_manuscript/rnas/4yb0

>  <Rbt.Executable>
rbdock ($Id: //depot/dev/client3/rdock/2013.1/src/exe/rbdock.cxx#4 $)

>  <Rbt.Library>
libRbt.so (2013.1, Build901 2013/11/27)

>  <Rbt.Parameter_File>
/export/apps/rDock/src/rDock_2013.1_src/data/scripts/dock_solv.prm

>  <Rbt.Receptor>
prm/pocket_docking_6.prm

>  <SCORE>
-41.8695

>  <SCORE.INTER>
-41.4249

>  <SCORE.INTER.CONST>
1

>  <SCORE.INTER.POLAR>
0

>  <SCORE.INTER.ROT>
2

>  <SCORE.INTER.SOLV>
30.6861

>  <SCORE.INTER.VDW>
-42.7786

>  <SCORE.INTER.norm>
-0.90054

>  <SCORE.INTRA>
-0.444603

>  <SCORE.INTRA.DIHEDRAL>
-0.034288

>  <SCORE.INTRA.DIHEDRAL.0>
2.42188

>  <SCORE.INTRA.POLAR>
0

>  <SCORE.INTRA.POLAR.0>
0

>  <SCORE.INTRA.REPUL>
0

>  <SCORE.INTRA.REPUL.0>
0

>  <SCORE.INTRA.SOLV>
0.490359

>  <SCORE.INTRA.SOLV.lig_0>
-127.307

>  <SCORE.INTRA.VDW>
-0.672638

>  <SCORE.INTRA.VDW.0>
-2.19936

>  <SCORE.INTRA.norm>
-0.00966528

>  <SCORE.RESTR>
0

>  <SCORE.RESTR.CAVITY>
0

>  <SCORE.RESTR.norm>
0

>  <SCORE.SYSTEM>
0

>  <SCORE.SYSTEM.CONST>
0

>  <SCORE.SYSTEM.DIHEDRAL>
0

>  <SCORE.SYSTEM.SOLV>
0

>  <SCORE.SYSTEM.norm>
0

>  <SCORE.heavy>
46

>  <SCORE.norm>
-0.910206

>  <RMSD>
2.364

$$$$
ligand
 OpenBabel02271912143D
libRbt.so/2013.1/901 2013/11/27
 46 52  0  0  0  0  0  0  0  0999 V2000
  159.5466   41.8028  147.7322 P   0  0  1  0  0  0  0  0  0  0  0  0
  160.0351   46.0565  143.9776 P   0  0  1  0  0  0  0  0  0  0  0  0
  158.1940   41.1402  147.7841 O   0  5  0  0  0  0  0  0  0  0  0  0
  160.6588   41.1410  148.5162 O   0  0  0  0  0  0  0  0  0  0  0  0
  161.2814   41.7638  145.7352 C   0  0  0  0  0  0  0  0  0  0  0  0
  159.9545   41.9970  146.1892 O   0  0  0  0  0  0  0  0  0  0  0  0
  161.4789   42.3883  144.3638 C   0  0  1  0  0  0  0  0  0  0  0  0
  161.4355   41.3484  143.3970 O   0  0  0  0  0  0  0  0  0  0  0  0
  160.4246   43.4046  143.9439 C   0  0  1  0  0  0  0  0  0  0  0  0
  160.9492   44.7180  144.0718 O   0  0  0  0  0  0  0  0  0  0  0  0
  160.2266   43.1192  142.4721 C   0  0  1  0  0  0  0  0  0  0  0  0
  161.1360   43.9095  141.7036 O   0  0  0  0  0  0  0  0  0  0  0  0
  160.6267   41.6852  142.2802 C   0  0  2  0  0  0  0  0  0  0  0  0
  156.3793   45.4047  147.9274 C   0  0  1  0  0  0  0  0  0  0  0  0
  156.2453   40.2706  139.7607 N   0  0  0  0  0  0  0  0  0  0  0  0
  157.1900   41.1675  139.4203 C   0  0  1  0  0  0  0  0  0  0  0  0
  157.0223   44.0518  148.1497 C   0  0  2  0  0  0  0  0  0  0  0  0
  157.0601   41.8505  138.2609 N   0  0  0  0  0  0  0  0  0  0  0  0
  157.1085   43.8446  149.5623 O   0  0  0  0  0  0  0  0  0  0  0  0
  158.4051   44.1573  147.5344 C   0  0  2  0  0  0  0  0  0  0  0  0
  158.2763   41.4334  140.1807 N   0  0  0  0  0  0  0  0  0  0  0  0
  159.3465   43.3281  148.2144 O   0  0  0  0  0  0  0  0  0  0  0  0
  158.4753   40.7953  141.3538 C   0  0  2  0  0  0  0  0  0  0  0  0
  158.7197   45.6429  147.6952 C   0  0  2  0  0  0  0  0  0  0  0  0
  157.4663   46.3235  147.7879 O   0  0  0  0  0  0  0  0  0  0  0  0
  157.4846   39.8056  141.7883 C   0  0  2  0  0  0  0  0  0  0  0  0
  159.5473   46.2576  146.5621 C   0  0  0  0  0  0  0  0  0  0  0  0
  159.0694   45.9074  145.2639 O   0  0  0  0  0  0  0  0  0  0  0  0
  156.3203   39.5667  140.9032 C   0  0  0  0  0  0  0  0  0  0  0  0
  155.4433   38.7289  141.2239 O   0  0  0  0  0  0  0  0  0  0  0  0
  157.9197   39.3362  142.9712 N   0  0  0  0  0  0  0  0  0  0  0  0
  159.0829   39.9633  143.2692 C   0  0  0  0  0  0  0  0  0  0  0  0
  159.4133   40.8344  142.2999 N   0  0  1  0  0  0  0  0  0  0  0  0
  155.2761   47.8345  143.3979 N   0  0  0  0  0  0  0  0  0  0  0  0
  160.9788   47.2252  144.1910 O   0  5  0  0  0  0  0  0  0  0  0  0
  156.1206   48.1863  144.3797 C   0  0  2  0  0  0  0  0  0  0  0  0
  156.8112   49.3254  144.2218 N   0  0  0  0  0  0  0  0  0  0  0  0
  159.1648   45.9768  142.7470 O   0  0  0  0  0  0  0  0  0  0  0  0
  156.3090   47.4556  145.5034 N   0  0  0  0  0  0  0  0  0  0  0  0
  155.6359   46.3016  145.6946 C   0  0  1  0  0  0  0  0  0  0  0  0
  154.6899   45.8596  144.6505 C   0  0  1  0  0  0  0  0  0  0  0  0
  154.5507   46.7160  143.4451 C   0  0  0  0  0  0  0  0  0  0  0  0
  153.7729   46.4323  142.5089 O   0  0  0  0  0  0  0  0  0  0  0  0
  154.1671   44.6999  145.0796 N   0  0  0  0  0  0  0  0  0  0  0  0
  154.7265   44.4319  146.2922 C   0  0  0  0  0  0  0  0  0  0  0  0
  155.6060   45.3843  146.6610 N   0  0  2  0  0  0  0  0  0  0  0  0
  1  3  1  1  0  0  0
  1  4  2  0  0  0  0
  1  6  1  0  0  0  0
  1 22  1  0  0  0  0
  2 28  1  0  0  0  0
  2 35  1  1  0  0  0
  2 38  2  0  0  0  0
  2 10  1  0  0  0  0
  5  6  1  0  0  0  0
  7  5  1  1  0  0  0
  7  8  1  0  0  0  0
  7  9  1  0  0  0  0
  9 10  1  6  0  0  0
  9 11  1  0  0  0  0
 11 12  1  6  0  0  0
 11 13  1  0  0  0  0
 13  8  1  1  0  0  0
 13 33  1  0  0  0  0
 14 46  1  0  0  0  0
 14 17  1  0  0  0  0
 14 25  1  6  0  0  0
 15 16  1  0  0  0  0
 15 29  1  0  0  0  0
 16 18  1  1  0  0  0
 16 21  1  0  0  0  0
 17 19  1  1  0  0  0
 17 20  1  0  0  0  0
 20 22  1  1  0  0  0
 20 24  1  0  0  0  0
 23 21  1  1  0  0  0
 23 26  1  0  0  0  0
 23 33  1  0  0  0  0
 24 25  1  6  0  0  0
 24 27  1  0  0  0  0
 26 29  1  1  0  0  0
 26 31  1  0  0  0  0
 27 28  1  0  0  0  0
 29 30  2  0  0  0  0
 31 32  1  0  0  0  0
 33 32  1  6  0  0  0
 34 36  1  0  0  0  0
 34 42  1  0  0  0  0
 36 37  1  6  0  0  0
 36 39  1  0  0  0  0
 40 39  1  6  0  0  0
 40 41  1  0  0  0  0
 40 46  1  0  0  0  0
 41 42  1  6  0  0  0
 41 44  1  0  0  0  0
 42 43  2  0  0  0  0
 44 45  1  0  0  0  0
 46 45  1  1  0  0  0
M  CHG  2   3  -1  35  -1
M  END
>  <CHROM.1>
-174.51135833,-132.66007622,158.19550407,43.69884784,144.50368968,-1.78641894
0.87036064,-2.20759744

>  <Name>
ligand

>  <RI>
0

>  <Rbt.Current_Directory>
/home/itssahil/PROJECTS/Mol_Feturizer/Test_systems_manuscript/rnas/4yb0

>  <Rbt.Executable>
rbdock ($Id: //depot/dev/client3/rdock/2013.1/src/exe/rbdock.cxx#4 $)

>  <Rbt.Library>
libRbt.so (2013.1, Build901 2013/11/27)

>  <Rbt.Parameter_File>
/export/apps/rDock/src/rDock_2013.1_src/data/scripts/dock_solv.prm

>  <Rbt.Receptor>
prm/pocket_docking_8.prm

>  <SCORE>
-42.204

>  <SCORE.INTER>
-41.7011

>  <SCORE.INTER.CONST>
1

>  <SCORE.INTER.POLAR>
0

>  <SCORE.INTER.ROT>
2

>  <SCORE.INTER.SOLV>
30.8792

>  <SCORE.INTER.VDW>
-43.0272

>  <SCORE.INTER.norm>
-0.906547

>  <SCORE.INTRA>
-0.50281

>  <SCORE.INTRA.DIHEDRAL>
-0.0336965

>  <SCORE.INTRA.DIHEDRAL.0>
2.42188

>  <SCORE.INTRA.POLAR>
0

>  <SCORE.INTRA.POLAR.0>
0

>  <SCORE.INTRA.REPUL>
0

>  <SCORE.INTRA.REPUL.0>
0

>  <SCORE.INTRA.SOLV>
0.343101

>  <SCORE.INTRA.SOLV.lig_0>
-127.307

>  <SCORE.INTRA.VDW>
-0.657512

>  <SCORE.INTRA.VDW.0>
-2.19936

>  <SCORE.INTRA.norm>
-0.0109306

>  <SCORE.RESTR>
0

>  <SCORE.RESTR.CAVITY>
0

>  <SCORE.RESTR.norm>
0

>  <SCORE.SYSTEM>
0

>  <SCORE.SYSTEM.CONST>
0

>  <SCORE.SYSTEM.DIHEDRAL>
0

>  <SCORE.SYSTEM.SOLV>
0

>  <SCORE.SYSTEM.norm>
0

>  <SCORE.heavy>
46

>  <SCORE.norm>
-0.917477

>  <RMSD>
2.369

$$$$
ligand
 OpenBabel02271912143D
libRbt.so/2013.1/901 2013/11/27
 46 52  0  0  0  0  0  0  0  0999 V2000
  159.5303   41.7950  147.7314 P   0  0  1  0  0  0  0  0  0  0  0  0
  160.0400   46.0552  143.9869 P   0  0  1  0  0  0  0  0  0  0  0  0
  158.1755   41.1367  147.7792 O   0  5  0  0  0  0  0  0  0  0  0  0
  160.6388   41.1280  148.5162 O   0  0  0  0  0  0  0  0  0  0  0  0
  161.2690   41.7547  145.7378 C   0  0  0  0  0  0  0  0  0  0  0  0
  159.9420   41.9912  146.1896 O   0  0  0  0  0  0  0  0  0  0  0  0
  161.4713   42.3815  144.3681 C   0  0  1  0  0  0  0  0  0  0  0  0
  161.4264   41.3439  143.3989 O   0  0  0  0  0  0  0  0  0  0  0  0
  160.4211   43.4021  143.9483 C   0  0  1  0  0  0  0  0  0  0  0  0
  160.9496   44.7135  144.0800 O   0  0  0  0  0  0  0  0  0  0  0  0
  160.2251   43.1205  142.4754 C   0  0  1  0  0  0  0  0  0  0  0  0
  161.1385   43.9095  141.7105 O   0  0  0  0  0  0  0  0  0  0  0  0
  160.6210   41.6856  142.2813 C   0  0  2  0  0  0  0  0  0  0  0  0
  156.3742   45.4067  147.9280 C   0  0  1  0  0  0  0  0  0  0  0  0
  156.2196   40.3202  139.7693 N   0  0  0  0  0  0  0  0  0  0  0  0
  157.1654   41.2186  139.4355 C   0  0  1  0  0  0  0  0  0  0  0  0
  157.0124   44.0512  148.1487 C   0  0  2  0  0  0  0  0  0  0  0  0
  157.0308   41.9177  138.2864 N   0  0  0  0  0  0  0  0  0  0  0  0
  157.0951   43.8408  149.5610 O   0  0  0  0  0  0  0  0  0  0  0  0
  158.3968   44.1536  147.5363 C   0  0  2  0  0  0  0  0  0  0  0  0
  158.2571   41.4704  140.1928 N   0  0  0  0  0  0  0  0  0  0  0  0
  159.3342   43.3199  148.2165 O   0  0  0  0  0  0  0  0  0  0  0  0
  158.4610   40.8156  141.3559 C   0  0  2  0  0  0  0  0  0  0  0  0
  158.7159   45.6379  147.7010 C   0  0  2  0  0  0  0  0  0  0  0  0
  157.4645   46.3222  147.7926 O   0  0  0  0  0  0  0  0  0  0  0  0
  157.4695   39.8234  141.7829 C   0  0  2  0  0  0  0  0  0  0  0  0
  159.5476   46.2523  146.5708 C   0  0  0  0  0  0  0  0  0  0  0  0
  159.0712   45.9064  145.2709 O   0  0  0  0  0  0  0  0  0  0  0  0
  156.2991   39.6005  140.9017 C   0  0  0  0  0  0  0  0  0  0  0  0
  155.4212   38.7614  141.2163 O   0  0  0  0  0  0  0  0  0  0  0  0
  157.9101   39.3365  142.9566 N   0  0  0  0  0  0  0  0  0  0  0  0
  159.0773   39.9555  143.2561 C   0  0  0  0  0  0  0  0  0  0  0  0
  159.4047   40.8387  142.2968 N   0  0  1  0  0  0  0  0  0  0  0  0
  155.2866   47.8506  143.4023 N   0  0  0  0  0  0  0  0  0  0  0  0
  160.9870   47.2204  144.2047 O   0  5  0  0  0  0  0  0  0  0  0  0
  156.1300   48.1977  144.3866 C   0  0  2  0  0  0  0  0  0  0  0  0
  156.8240   49.3353  144.2329 N   0  0  0  0  0  0  0  0  0  0  0  0
  159.1719   45.9809  142.7543 O   0  0  0  0  0  0  0  0  0  0  0  0
  156.3142   47.4637  145.5089 N   0  0  0  0  0  0  0  0  0  0  0  0
  155.6377   46.3111  145.6960 C   0  0  1  0  0  0  0  0  0  0  0  0
  154.6926   45.8742  144.6489 C   0  0  1  0  0  0  0  0  0  0  0  0
  154.5581   46.7339  143.4453 C   0  0  0  0  0  0  0  0  0  0  0  0
  153.7813   46.4547  142.5068 O   0  0  0  0  0  0  0  0  0  0  0  0
  154.1658   44.7149  145.0741 N   0  0  0  0  0  0  0  0  0  0  0  0
  154.7221   44.4423  146.2871 C   0  0  0  0  0  0  0  0  0  0  0  0
  155.6034   45.3915  146.6600 N   0  0  2  0  0  0  0  0  0  0  0  0
  1  3  1  1  0  0  0
  1  4  2  0  0  0  0
  1  6  1  0  0  0  0
  1 22  1  0  0  0  0
  2 28  1  0  0  0  0
  2 35  1  1  0  0  0
  2 38  2  0  0  0  0
  2 10  1  0  0  0  0
  5  6  1  0  0  0  0
  7  5  1  1  0  0  0
  7  8  1  0  0  0  0
  7  9  1  0  0  0  0
  9 10  1  6  0  0  0
  9 11  1  0  0  0  0
 11 12  1  6  0  0  0
 11 13  1  0  0  0  0
 13  8  1  1  0  0  0
 13 33  1  0  0  0  0
 14 46  1  0  0  0  0
 14 17  1  0  0  0  0
 14 25  1  6  0  0  0
 15 16  1  0  0  0  0
 15 29  1  0  0  0  0
 16 18  1  1  0  0  0
 16 21  1  0  0  0  0
 17 19  1  1  0  0  0
 17 20  1  0  0  0  0
 20 22  1  1  0  0  0
 20 24  1  0  0  0  0
 23 21  1  1  0  0  0
 23 26  1  0  0  0  0
 23 33  1  0  0  0  0
 24 25  1  6  0  0  0
 24 27  1  0  0  0  0
 26 29  1  1  0  0  0
 26 31  1  0  0  0  0
 27 28  1  0  0  0  0
 29 30  2  0  0  0  0
 31 32  1  0  0  0  0
 33 32  1  6  0  0  0
 34 36  1  0  0  0  0
 34 42  1  0  0  0  0
 36 37  1  6  0  0  0
 36 39  1  0  0  0  0
 40 39  1  6  0  0  0
 40 41  1  0  0  0  0
 40 46  1  0  0  0  0
 41 42  1  6  0  0  0
 41 44  1  0  0  0  0
 42 43  2  0  0  0  0
 44 45  1  0  0  0  0
 46 45  1  1  0  0  0
M  CHG  2   3  -1  35  -1
M  END
>  <CHROM.1>
-175.31595318,-132.69607185,158.18941288,43.70564885,144.50643423,-1.78621609
0.87291623,-2.20687960

>  <Name>
ligand

>  <RI>
0

>  <Rbt.Current_Directory>
/home/itssahil/PROJECTS/Mol_Feturizer/Test_systems_manuscript/rnas/4yb0

>  <Rbt.Executable>
rbdock ($Id: //depot/dev/client3/rdock/2013.1/src/exe/rbdock.cxx#4 $)

>  <Rbt.Library>
libRbt.so (2013.1, Build901 2013/11/27)

>  <Rbt.Parameter_File>
/export/apps/rDock/src/rDock_2013.1_src/data/scripts/dock_solv.prm

>  <Rbt.Receptor>
prm/pocket_docking_5.prm

>  <SCORE>
-42.1244

>  <SCORE.INTER>
-41.6253

>  <SCORE.INTER.CONST>
1

>  <SCORE.INTER.POLAR>
0

>  <SCORE.INTER.ROT>
2

>  <SCORE.INTER.SOLV>
30.7493

>  <SCORE.INTER.VDW>
-42.9333

>  <SCORE.INTER.norm>
-0.904898

>  <SCORE.INTRA>
-0.499128

>  <SCORE.INTRA.DIHEDRAL>
-0.0346773

>  <SCORE.INTRA.DIHEDRAL.0>
2.42188

>  <SCORE.INTRA.POLAR>
0

>  <SCORE.INTRA.POLAR.0>
0

>  <SCORE.INTRA.REPUL>
0

>  <SCORE.INTRA.REPUL.0>
0

>  <SCORE.INTRA.SOLV>
0.334365

>  <SCORE.INTRA.SOLV.lig_0>
-127.307

>  <SCORE.INTRA.VDW>
-0.648972

>  <SCORE.INTRA.VDW.0>
-2.19936

>  <SCORE.INTRA.norm>
-0.0108506

>  <SCORE.RESTR>
0

>  <SCORE.RESTR.CAVITY>
0

>  <SCORE.RESTR.norm>
0

>  <SCORE.SYSTEM>
0

>  <SCORE.SYSTEM.CONST>
0

>  <SCORE.SYSTEM.DIHEDRAL>
0

>  <SCORE.SYSTEM.SOLV>
0

>  <SCORE.SYSTEM.norm>
0

>  <SCORE.heavy>
46

>  <SCORE.norm>
-0.915749

>  <RMSD>
2.370

$$$$
ligand
 OpenBabel02271912143D
libRbt.so/2013.1/901 2013/11/27
 46 52  0  0  0  0  0  0  0  0999 V2000
  159.5544   41.8187  147.7335 P   0  0  1  0  0  0  0  0  0  0  0  0
  160.0399   46.0592  143.9635 P   0  0  1  0  0  0  0  0  0  0  0  0
  158.2012   41.1578  147.7904 O   0  5  0  0  0  0  0  0  0  0  0  0
  160.6675   41.1584  148.5175 O   0  0  0  0  0  0  0  0  0  0  0  0
  161.2851   41.7711  145.7331 C   0  0  0  0  0  0  0  0  0  0  0  0
  159.9594   42.0072  146.1890 O   0  0  0  0  0  0  0  0  0  0  0  0
  161.4805   42.3907  144.3592 C   0  0  1  0  0  0  0  0  0  0  0  0
  161.4339   41.3476  143.3960 O   0  0  0  0  0  0  0  0  0  0  0  0
  160.4265   43.4067  143.9380 C   0  0  1  0  0  0  0  0  0  0  0  0
  160.9527   44.7200  144.0604 O   0  0  0  0  0  0  0  0  0  0  0  0
  160.2252   43.1166  142.4675 C   0  0  1  0  0  0  0  0  0  0  0  0
  161.1338   43.9033  141.6945 O   0  0  0  0  0  0  0  0  0  0  0  0
  160.6233   41.6815  142.2797 C   0  0  2  0  0  0  0  0  0  0  0  0
  156.3914   45.4248  147.9229 C   0  0  1  0  0  0  0  0  0  0  0  0
  156.2157   40.2915  139.7922 N   0  0  0  0  0  0  0  0  0  0  0  0
  157.1583   41.1898  139.4495 C   0  0  1  0  0  0  0  0  0  0  0  0
  157.0334   44.0719  148.1485 C   0  0  2  0  0  0  0  0  0  0  0  0
  157.0181   41.8816  138.2966 N   0  0  0  0  0  0  0  0  0  0  0  0
  157.1223   43.8694  149.5617 O   0  0  0  0  0  0  0  0  0  0  0  0
  158.4151   44.1738  147.5300 C   0  0  2  0  0  0  0  0  0  0  0  0
  158.2523   41.4485  140.2013 N   0  0  0  0  0  0  0  0  0  0  0  0
  159.3570   43.3459  148.2109 O   0  0  0  0  0  0  0  0  0  0  0  0
  158.4618   40.8013  141.3675 C   0  0  2  0  0  0  0  0  0  0  0  0
  158.7317   45.6596  147.6852 C   0  0  2  0  0  0  0  0  0  0  0  0
  157.4792   46.3418  147.7781 O   0  0  0  0  0  0  0  0  0  0  0  0
  157.4740   39.8096  141.8042 C   0  0  2  0  0  0  0  0  0  0  0  0
  159.5576   46.2695  146.5483 C   0  0  0  0  0  0  0  0  0  0  0  0
  159.0767   45.9154  145.2522 O   0  0  0  0  0  0  0  0  0  0  0  0
  156.3009   39.5789  140.9286 C   0  0  0  0  0  0  0  0  0  0  0  0
  155.4259   38.7398  141.2515 O   0  0  0  0  0  0  0  0  0  0  0  0
  157.9200   39.3308  142.9792 N   0  0  0  0  0  0  0  0  0  0  0  0
  159.0869   39.9541  143.2707 C   0  0  0  0  0  0  0  0  0  0  0  0
  159.4089   40.8321  142.3048 N   0  0  1  0  0  0  0  0  0  0  0  0
  155.2734   47.8459  143.3924 N   0  0  0  0  0  0  0  0  0  0  0  0
  160.9853   47.2275  144.1710 O   0  5  0  0  0  0  0  0  0  0  0  0
  156.1192   48.2010  144.3720 C   0  0  2  0  0  0  0  0  0  0  0  0
  156.8069   49.3414  144.2111 N   0  0  0  0  0  0  0  0  0  0  0  0
  159.1670   45.9762  142.7349 O   0  0  0  0  0  0  0  0  0  0  0  0
  156.3115   47.4722  145.4963 N   0  0  0  0  0  0  0  0  0  0  0  0
  155.6414   46.3170  145.6905 C   0  0  1  0  0  0  0  0  0  0  0  0
  154.6942   45.8714  144.6490 C   0  0  1  0  0  0  0  0  0  0  0  0
  154.5506   46.7258  143.4427 C   0  0  0  0  0  0  0  0  0  0  0  0
  153.7714   46.4392  142.5085 O   0  0  0  0  0  0  0  0  0  0  0  0
  154.1748   44.7112  145.0807 N   0  0  0  0  0  0  0  0  0  0  0  0
  154.7374   44.4460  146.2925 C   0  0  0  0  0  0  0  0  0  0  0  0
  155.6155   45.4009  146.6582 N   0  0  2  0  0  0  0  0  0  0  0  0
  1  3  1  1  0  0  0
  1  4  2  0  0  0  0
  1  6  1  0  0  0  0
  1 22  1  0  0  0  0
  2 28  1  0  0  0  0
  2 35  1  1  0  0  0
  2 38  2  0  0  0  0
  2 10  1  0  0  0  0
  5  6  1  0  0  0  0
  7  5  1  1  0  0  0
  7  8  1  0  0  0  0
  7  9  1  0  0  0  0
  9 10  1  6  0  0  0
  9 11  1  0  0  0  0
 11 12  1  6  0  0  0
 11 13  1  0  0  0  0
 13  8  1  1  0  0  0
 13 33  1  0  0  0  0
 14 46  1  0  0  0  0
 14 17  1  0  0  0  0
 14 25  1  6  0  0  0
 15 16  1  0  0  0  0
 15 29  1  0  0  0  0
 16 18  1  1  0  0  0
 16 21  1  0  0  0  0
 17 19  1  1  0  0  0
 17 20  1  0  0  0  0
 20 22  1  1  0  0  0
 20 24  1  0  0  0  0
 23 21  1  1  0  0  0
 23 26  1  0  0  0  0
 23 33  1  0  0  0  0
 24 25  1  6  0  0  0
 24 27  1  0  0  0  0
 26 29  1  1  0  0  0
 26 31  1  0  0  0  0
 27 28  1  0  0  0  0
 29 30  2  0  0  0  0
 31 32  1  0  0  0  0
 33 32  1  6  0  0  0
 34 36  1  0  0  0  0
 34 42  1  0  0  0  0
 36 37  1  6  0  0  0
 36 39  1  0  0  0  0
 40 39  1  6  0  0  0
 40 41  1  0  0  0  0
 40 46  1  0  0  0  0
 41 42  1  6  0  0  0
 41 44  1  0  0  0  0
 42 43  2  0  0  0  0
 44 45  1  0  0  0  0
 46 45  1  1  0  0  0
M  CHG  2   3  -1  35  -1
M  END
>  <CHROM.1>
-175.27700462,-132.88246740,158.19579916,43.70900921,144.50384446,-1.78463265
0.86824223,-2.21464946

>  <Name>
ligand

>  <RI>
0

>  <Rbt.Current_Directory>
/home/itssahil/PROJECTS/Mol_Feturizer/Test_systems_manuscript/rnas/4yb0

>  <Rbt.Executable>
rbdock ($Id: //depot/dev/client3/rdock/2013.1/src/exe/rbdock.cxx#4 $)

>  <Rbt.Library>
libRbt.so (2013.1, Build901 2013/11/27)

>  <Rbt.Parameter_File>
/export/apps/rDock/src/rDock_2013.1_src/data/scripts/dock_solv.prm

>  <Rbt.Receptor>
prm/pocket_docking_6.prm

>  <SCORE>
-42.1465

>  <SCORE.INTER>
-41.6405

>  <SCORE.INTER.CONST>
1

>  <SCORE.INTER.POLAR>
0

>  <SCORE.INTER.ROT>
2

>  <SCORE.INTER.SOLV>
30.7875

>  <SCORE.INTER.VDW>
-42.9562

>  <SCORE.INTER.norm>
-0.905229

>  <SCORE.INTRA>
-0.505926

>  <SCORE.INTRA.DIHEDRAL>
-0.0348664

>  <SCORE.INTRA.DIHEDRAL.0>
2.42188

>  <SCORE.INTRA.POLAR>
0

>  <SCORE.INTRA.POLAR.0>
0

>  <SCORE.INTRA.REPUL>
0

>  <SCORE.INTRA.REPUL.0>
0

>  <SCORE.INTRA.SOLV>
0.304249

>  <SCORE.INTRA.SOLV.lig_0>
-127.307

>  <SCORE.INTRA.VDW>
-0.640617

>  <SCORE.INTRA.VDW.0>
-2.19936

>  <SCORE.INTRA.norm>
-0.0109984

>  <SCORE.RESTR>
0

>  <SCORE.RESTR.CAVITY>
0

>  <SCORE.RESTR.norm>
0

>  <SCORE.SYSTEM>
0

>  <SCORE.SYSTEM.CONST>
0

>  <SCORE.SYSTEM.DIHEDRAL>
0

>  <SCORE.SYSTEM.SOLV>
0

>  <SCORE.SYSTEM.norm>
0

>  <SCORE.heavy>
46

>  <SCORE.norm>
-0.916227

>  <RMSD>
2.371

$$$$
ligand
 OpenBabel02271912143D
libRbt.so/2013.1/901 2013/11/27
 46 52  0  0  0  0  0  0  0  0999 V2000
  159.5563   41.8135  147.7318 P   0  0  1  0  0  0  0  0  0  0  0  0
  160.0409   46.0549  143.9626 P   0  0  1  0  0  0  0  0  0  0  0  0
  158.2029   41.1532  147.7896 O   0  5  0  0  0  0  0  0  0  0  0  0
  160.6697   41.1524  148.5147 O   0  0  0  0  0  0  0  0  0  0  0  0
  161.2855   41.7656  145.7301 C   0  0  0  0  0  0  0  0  0  0  0  0
  159.9603   42.0023  146.1871 O   0  0  0  0  0  0  0  0  0  0  0  0
  161.4801   42.3856  144.3562 C   0  0  1  0  0  0  0  0  0  0  0  0
  161.4324   41.3428  143.3927 O   0  0  0  0  0  0  0  0  0  0  0  0
  160.4262   43.4022  143.9361 C   0  0  1  0  0  0  0  0  0  0  0  0
  160.9532   44.7152  144.0584 O   0  0  0  0  0  0  0  0  0  0  0  0
  160.2237   43.1126  142.4657 C   0  0  1  0  0  0  0  0  0  0  0  0
  161.1321   43.8991  141.6922 O   0  0  0  0  0  0  0  0  0  0  0  0
  160.6210   41.6773  142.2771 C   0  0  2  0  0  0  0  0  0  0  0  0
  156.3952   45.4210  147.9247 C   0  0  1  0  0  0  0  0  0  0  0  0
  156.2139   40.2857  139.7897 N   0  0  0  0  0  0  0  0  0  0  0  0
  157.1571   41.1831  139.4461 C   0  0  1  0  0  0  0  0  0  0  0  0
  157.0367   44.0677  148.1494 C   0  0  2  0  0  0  0  0  0  0  0  0
  157.0177   41.8733  138.2922 N   0  0  0  0  0  0  0  0  0  0  0  0
  157.1265   43.8648  149.5624 O   0  0  0  0  0  0  0  0  0  0  0  0
  158.4180   44.1692  147.5298 C   0  0  2  0  0  0  0  0  0  0  0  0
  158.2508   41.4424  140.1980 N   0  0  0  0  0  0  0  0  0  0  0  0
  159.3600   43.3407  148.2098 O   0  0  0  0  0  0  0  0  0  0  0  0
  158.4595   40.7968  141.3653 C   0  0  2  0  0  0  0  0  0  0  0  0
  158.7353   45.6548  147.6852 C   0  0  2  0  0  0  0  0  0  0  0  0
  157.4833   46.3376  147.7793 O   0  0  0  0  0  0  0  0  0  0  0  0
  157.4712   39.8061  141.8029 C   0  0  2  0  0  0  0  0  0  0  0  0
  159.5607   46.2647  146.5478 C   0  0  0  0  0  0  0  0  0  0  0  0
  159.0786   45.9112  145.2520 O   0  0  0  0  0  0  0  0  0  0  0  0
  156.2983   39.5747  140.9272 C   0  0  0  0  0  0  0  0  0  0  0  0
  155.4228   38.7364  141.2509 O   0  0  0  0  0  0  0  0  0  0  0  0
  157.9164   39.3288  142.9788 N   0  0  0  0  0  0  0  0  0  0  0  0
  159.0834   39.9520  143.2699 C   0  0  0  0  0  0  0  0  0  0  0  0
  159.4063   40.8285  142.3030 N   0  0  1  0  0  0  0  0  0  0  0  0
  155.2777   47.8421  143.3940 N   0  0  0  0  0  0  0  0  0  0  0  0
  160.9870   47.2227  144.1698 O   0  5  0  0  0  0  0  0  0  0  0  0
  156.1247   48.1962  144.3728 C   0  0  2  0  0  0  0  0  0  0  0  0
  156.8141   49.3354  144.2109 N   0  0  0  0  0  0  0  0  0  0  0  0
  159.1671   45.9727  142.7347 O   0  0  0  0  0  0  0  0  0  0  0  0
  156.3167   47.4676  145.4973 N   0  0  0  0  0  0  0  0  0  0  0  0
  155.6449   46.3135  145.6924 C   0  0  1  0  0  0  0  0  0  0  0  0
  154.6962   45.8690  144.6518 C   0  0  1  0  0  0  0  0  0  0  0  0
  154.5531   46.7232  143.4453 C   0  0  0  0  0  0  0  0  0  0  0  0
  153.7727   46.4374  142.5117 O   0  0  0  0  0  0  0  0  0  0  0  0
  154.1753   44.7098  145.0844 N   0  0  0  0  0  0  0  0  0  0  0  0
  154.7384   44.4442  146.2959 C   0  0  0  0  0  0  0  0  0  0  0  0
  155.6183   45.3978  146.6605 N   0  0  2  0  0  0  0  0  0  0  0  0
  1  3  1  1  0  0  0
  1  4  2  0  0  0  0
  1  6  1  0  0  0  0
  1 22  1  0  0  0  0
  2 28  1  0  0  0  0
  2 35  1  1  0  0  0
  2 38  2  0  0  0  0
  2 10  1  0  0  0  0
  5  6  1  0  0  0  0
  7  5  1  1  0  0  0
  7  8  1  0  0  0  0
  7  9  1  0  0  0  0
  9 10  1  6  0  0  0
  9 11  1  0  0  0  0
 11 12  1  6  0  0  0
 11 13  1  0  0  0  0
 13  8  1  1  0  0  0
 13 33  1  0  0  0  0
 14 46  1  0  0  0  0
 14 17  1  0  0  0  0
 14 25  1  6  0  0  0
 15 16  1  0  0  0  0
 15 29  1  0  0  0  0
 16 18  1  1  0  0  0
 16 21  1  0  0  0  0
 17 19  1  1  0  0  0
 17 20  1  0  0  0  0
 20 22  1  1  0  0  0
 20 24  1  0  0  0  0
 23 21  1  1  0  0  0
 23 26  1  0  0  0  0
 23 33  1  0  0  0  0
 24 25  1  6  0  0  0
 24 27  1  0  0  0  0
 26 29  1  1  0  0  0
 26 31  1  0  0  0  0
 27 28  1  0  0  0  0
 29 30  2  0  0  0  0
 31 32  1  0  0  0  0
 33 32  1  6  0  0  0
 34 36  1  0  0  0  0
 34 42  1  0  0  0  0
 36 37  1  6  0  0  0
 36 39  1  0  0  0  0
 40 39  1  6  0  0  0
 40 41  1  0  0  0  0
 40 46  1  0  0  0  0
 41 42  1  6  0  0  0
 41 44  1  0  0  0  0
 42 43  2  0  0  0  0
 44 45  1  0  0  0  0
 46 45  1  1  0  0  0
M  CHG  2   3  -1  35  -1
M  END
>  <CHROM.1>
-175.15669199,-132.80696981,158.19677781,43.70469069,144.50321642,-1.78264606
0.86856878,-2.21527297

>  <Name>
ligand

>  <RI>
0

>  <Rbt.Current_Directory>
/home/itssahil/PROJECTS/Mol_Feturizer/Test_systems_manuscript/rnas/4yb0

>  <Rbt.Executable>
rbdock ($Id: //depot/dev/client3/rdock/2013.1/src/exe/rbdock.cxx#4 $)

>  <Rbt.Library>
libRbt.so (2013.1, Build901 2013/11/27)

>  <Rbt.Parameter_File>
/export/apps/rDock/src/rDock_2013.1_src/data/scripts/dock_solv.prm

>  <Rbt.Receptor>
prm/pocket_docking_8.prm

>  <SCORE>
-42.1409

>  <SCORE.INTER>
-41.6366

>  <SCORE.INTER.CONST>
1

>  <SCORE.INTER.POLAR>
0

>  <SCORE.INTER.ROT>
2

>  <SCORE.INTER.SOLV>
30.8048

>  <SCORE.INTER.VDW>
-42.9593

>  <SCORE.INTER.norm>
-0.905144

>  <SCORE.INTRA>
-0.504288

>  <SCORE.INTRA.DIHEDRAL>
-0.0346311

>  <SCORE.INTRA.DIHEDRAL.0>
2.42188

>  <SCORE.INTRA.POLAR>
0

>  <SCORE.INTRA.POLAR.0>
0

>  <SCORE.INTRA.REPUL>
0

>  <SCORE.INTRA.REPUL.0>
0

>  <SCORE.INTRA.SOLV>
0.316378

>  <SCORE.INTRA.SOLV.lig_0>
-127.307

>  <SCORE.INTRA.VDW>
-0.645161

>  <SCORE.INTRA.VDW.0>
-2.19936

>  <SCORE.INTRA.norm>
-0.0109628

>  <SCORE.RESTR>
0

>  <SCORE.RESTR.CAVITY>
0

>  <SCORE.RESTR.norm>
0

>  <SCORE.SYSTEM>
0

>  <SCORE.SYSTEM.CONST>
0

>  <SCORE.SYSTEM.DIHEDRAL>
0

>  <SCORE.SYSTEM.SOLV>
0

>  <SCORE.SYSTEM.norm>
0

>  <SCORE.heavy>
46

>  <SCORE.norm>
-0.916106

>  <RMSD>
2.372

$$$$
ligand
 OpenBabel02271912143D
libRbt.so/2013.1/901 2013/11/27
 46 52  0  0  0  0  0  0  0  0999 V2000
  159.5436   41.8085  147.7414 P   0  0  1  0  0  0  0  0  0  0  0  0
  160.0480   46.0554  143.9811 P   0  0  1  0  0  0  0  0  0  0  0  0
  158.1891   41.1499  147.7929 O   0  5  0  0  0  0  0  0  0  0  0  0
  160.6532   41.1447  148.5274 O   0  0  0  0  0  0  0  0  0  0  0  0
  161.2803   41.7617  145.7461 C   0  0  0  0  0  0  0  0  0  0  0  0
  159.9537   41.9993  146.1985 O   0  0  0  0  0  0  0  0  0  0  0  0
  161.4810   42.3836  144.3740 C   0  0  1  0  0  0  0  0  0  0  0  0
  161.4355   41.3425  143.4086 O   0  0  0  0  0  0  0  0  0  0  0  0
  160.4300   43.4024  143.9516 C   0  0  1  0  0  0  0  0  0  0  0  0
  160.9581   44.7144  144.0781 O   0  0  0  0  0  0  0  0  0  0  0  0
  160.2326   43.1154  142.4800 C   0  0  1  0  0  0  0  0  0  0  0  0
  161.1449   43.9020  141.7112 O   0  0  0  0  0  0  0  0  0  0  0  0
  160.6288   41.6800  142.2906 C   0  0  2  0  0  0  0  0  0  0  0  0
  156.3864   45.4198  147.9282 C   0  0  1  0  0  0  0  0  0  0  0  0
  156.2228   40.3077  139.7904 N   0  0  0  0  0  0  0  0  0  0  0  0
  157.1676   41.2056  139.4528 C   0  0  1  0  0  0  0  0  0  0  0  0
  157.0254   44.0653  148.1531 C   0  0  2  0  0  0  0  0  0  0  0  0
  157.0305   41.9022  138.3024 N   0  0  0  0  0  0  0  0  0  0  0  0
  157.1096   43.8599  149.5661 O   0  0  0  0  0  0  0  0  0  0  0  0
  158.4091   44.1660  147.5390 C   0  0  2  0  0  0  0  0  0  0  0  0
  158.2608   41.4595  140.2074 N   0  0  0  0  0  0  0  0  0  0  0  0
  159.3474   43.3351  148.2212 O   0  0  0  0  0  0  0  0  0  0  0  0
  158.4672   40.8073  141.3714 C   0  0  2  0  0  0  0  0  0  0  0  0
  158.7278   45.6509  147.6980 C   0  0  2  0  0  0  0  0  0  0  0  0
  157.4762   46.3352  147.7885 O   0  0  0  0  0  0  0  0  0  0  0  0
  157.4770   39.8156  141.8025 C   0  0  2  0  0  0  0  0  0  0  0  0
  159.5582   46.2616  146.5648 C   0  0  0  0  0  0  0  0  0  0  0  0
  159.0806   45.9109  145.2666 O   0  0  0  0  0  0  0  0  0  0  0  0
  156.3049   39.5905  140.9242 C   0  0  0  0  0  0  0  0  0  0  0  0
  155.4279   38.7517  141.2423 O   0  0  0  0  0  0  0  0  0  0  0  0
  157.9201   39.3314  142.9764 N   0  0  0  0  0  0  0  0  0  0  0  0
  159.0877   39.9515  143.2722 C   0  0  0  0  0  0  0  0  0  0  0  0
  159.4129   40.8327  142.3104 N   0  0  1  0  0  0  0  0  0  0  0  0
  155.2844   47.8530  143.4002 N   0  0  0  0  0  0  0  0  0  0  0  0
  160.9948   47.2217  144.1937 O   0  5  0  0  0  0  0  0  0  0  0  0
  156.1275   48.2048  144.3832 C   0  0  2  0  0  0  0  0  0  0  0  0
  156.8169   49.3449  144.2271 N   0  0  0  0  0  0  0  0  0  0  0  0
  159.1787   45.9764  142.7497 O   0  0  0  0  0  0  0  0  0  0  0  0
  156.3158   47.4731  145.5063 N   0  0  0  0  0  0  0  0  0  0  0  0
  155.6440   46.3181  145.6957 C   0  0  1  0  0  0  0  0  0  0  0  0
  154.6995   45.8760  144.6502 C   0  0  1  0  0  0  0  0  0  0  0  0
  154.5604   46.7334  143.4456 C   0  0  0  0  0  0  0  0  0  0  0  0
  153.7837   46.4499  142.5084 O   0  0  0  0  0  0  0  0  0  0  0  0
  154.1777   44.7152  145.0777 N   0  0  0  0  0  0  0  0  0  0  0  0
  154.7364   44.4466  146.2905 C   0  0  0  0  0  0  0  0  0  0  0  0
  155.6143   45.3997  146.6611 N   0  0  2  0  0  0  0  0  0  0  0  0
  1  3  1  1  0  0  0
  1  4  2  0  0  0  0
  1  6  1  0  0  0  0
  1 22  1  0  0  0  0
  2 28  1  0  0  0  0
  2 35  1  1  0  0  0
  2 38  2  0  0  0  0
  2 10  1  0  0  0  0
  5  6  1  0  0  0  0
  7  5  1  1  0  0  0
  7  8  1  0  0  0  0
  7  9  1  0  0  0  0
  9 10  1  6  0  0  0
  9 11  1  0  0  0  0
 11 12  1  6  0  0  0
 11 13  1  0  0  0  0
 13  8  1  1  0  0  0
 13 33  1  0  0  0  0
 14 46  1  0  0  0  0
 14 17  1  0  0  0  0
 14 25  1  6  0  0  0
 15 16  1  0  0  0  0
 15 29  1  0  0  0  0
 16 18  1  1  0  0  0
 16 21  1  0  0  0  0
 17 19  1  1  0  0  0
 17 20  1  0  0  0  0
 20 22  1  1  0  0  0
 20 24  1  0  0  0  0
 23 21  1  1  0  0  0
 23 26  1  0  0  0  0
 23 33  1  0  0  0  0
 24 25  1  6  0  0  0
 24 27  1  0  0  0  0
 26 29  1  1  0  0  0
 26 31  1  0  0  0  0
 27 28  1  0  0  0  0
 29 30  2  0  0  0  0
 31 32  1  0  0  0  0
 33 32  1  6  0  0  0
 34 36  1  0  0  0  0
 34 42  1  0  0  0  0
 36 37  1  6  0  0  0
 36 39  1  0  0  0  0
 40 39  1  6  0  0  0
 40 41  1  0  0  0  0
 40 46  1  0  0  0  0
 41 42  1  6  0  0  0
 41 44  1  0  0  0  0
 42 43  2  0  0  0  0
 44 45  1  0  0  0  0
 46 45  1  1  0  0  0
M  CHG  2   3  -1  35  -1
M  END
>  <CHROM.1>
-175.41621690,-132.93489309,158.19753483,43.70814968,144.51178513,-1.78720202
0.87109543,-2.21124938

>  <Name>
ligand

>  <RI>
0

>  <Rbt.Current_Directory>
/home/itssahil/PROJECTS/Mol_Feturizer/Test_systems_manuscript/rnas/4yb0

>  <Rbt.Executable>
rbdock ($Id: //depot/dev/client3/rdock/2013.1/src/exe/rbdock.cxx#4 $)

>  <Rbt.Library>
libRbt.so (2013.1, Build901 2013/11/27)

>  <Rbt.Parameter_File>
/export/apps/rDock/src/rDock_2013.1_src/data/scripts/dock_solv.prm

>  <Rbt.Receptor>
prm/pocket_docking_5.prm

>  <SCORE>
-42.1209

>  <SCORE.INTER>
-41.6143

>  <SCORE.INTER.CONST>
1

>  <SCORE.INTER.POLAR>
0

>  <SCORE.INTER.ROT>
2

>  <SCORE.INTER.SOLV>
30.6739

>  <SCORE.INTER.VDW>
-42.9008

>  <SCORE.INTER.norm>
-0.904658

>  <SCORE.INTRA>
-0.506607

>  <SCORE.INTRA.DIHEDRAL>
-0.0350948

>  <SCORE.INTRA.DIHEDRAL.0>
2.42188

>  <SCORE.INTRA.POLAR>
0

>  <SCORE.INTRA.POLAR.0>
0

>  <SCORE.INTRA.REPUL>
0

>  <SCORE.INTRA.REPUL.0>
0

>  <SCORE.INTRA.SOLV>
0.295855

>  <SCORE.INTRA.SOLV.lig_0>
-127.307

>  <SCORE.INTRA.VDW>
-0.636987

>  <SCORE.INTRA.VDW.0>
-2.19936

>  <SCORE.INTRA.norm>
-0.0110132

>  <SCORE.RESTR>
0

>  <SCORE.RESTR.CAVITY>
0

>  <SCORE.RESTR.norm>
0

>  <SCORE.SYSTEM>
0

>  <SCORE.SYSTEM.CONST>
0

>  <SCORE.SYSTEM.DIHEDRAL>
0

>  <SCORE.SYSTEM.SOLV>
0

>  <SCORE.SYSTEM.norm>
0

>  <SCORE.heavy>
46

>  <SCORE.norm>
-0.915671

>  <RMSD>
2.373

$$$$
ligand
 OpenBabel02271912143D
libRbt.so/2013.1/901 2013/11/27
 46 52  0  0  0  0  0  0  0  0999 V2000
  159.5412   41.7985  147.7361 P   0  0  1  0  0  0  0  0  0  0  0  0
  160.0455   46.0421  143.9720 P   0  0  1  0  0  0  0  0  0  0  0  0
  158.1856   41.1426  147.7912 O   0  5  0  0  0  0  0  0  0  0  0  0
  160.6513   41.1330  148.5200 O   0  0  0  0  0  0  0  0  0  0  0  0
  161.2732   41.7470  145.7369 C   0  0  0  0  0  0  0  0  0  0  0  0
  159.9481   41.9875  146.1922 O   0  0  0  0  0  0  0  0  0  0  0  0
  161.4720   42.3677  144.3639 C   0  0  1  0  0  0  0  0  0  0  0  0
  161.4222   41.3260  143.3993 O   0  0  0  0  0  0  0  0  0  0  0  0
  160.4221   43.3882  143.9433 C   0  0  1  0  0  0  0  0  0  0  0  0
  160.9531   44.6993  144.0678 O   0  0  0  0  0  0  0  0  0  0  0  0
  160.2207   43.1007  142.4723 C   0  0  1  0  0  0  0  0  0  0  0  0
  161.1329   43.8850  141.7010 O   0  0  0  0  0  0  0  0  0  0  0  0
  160.6137   41.6644  142.2829 C   0  0  2  0  0  0  0  0  0  0  0  0
  156.3917   45.4162  147.9279 C   0  0  1  0  0  0  0  0  0  0  0  0
  156.2230   40.2645  139.7712 N   0  0  0  0  0  0  0  0  0  0  0  0
  157.1718   41.1559  139.4276 C   0  0  1  0  0  0  0  0  0  0  0  0
  157.0284   44.0606  148.1522 C   0  0  2  0  0  0  0  0  0  0  0  0
  157.0440   41.8365  138.2666 N   0  0  0  0  0  0  0  0  0  0  0  0
  157.1155   43.8559  149.5651 O   0  0  0  0  0  0  0  0  0  0  0  0
  158.4110   44.1581  147.5348 C   0  0  2  0  0  0  0  0  0  0  0  0
  158.2600   41.4185  140.1863 N   0  0  0  0  0  0  0  0  0  0  0  0
  159.3492   43.3258  148.2154 O   0  0  0  0  0  0  0  0  0  0  0  0
  158.4571   40.7825  141.3608 C   0  0  2  0  0  0  0  0  0  0  0  0
  158.7330   45.6425  147.6922 C   0  0  2  0  0  0  0  0  0  0  0  0
  157.4830   46.3293  147.7851 O   0  0  0  0  0  0  0  0  0  0  0  0
  157.4620   39.7987  141.7989 C   0  0  2  0  0  0  0  0  0  0  0  0
  159.5620   46.2508  146.5567 C   0  0  0  0  0  0  0  0  0  0  0  0
  159.0807   45.9002  145.2598 O   0  0  0  0  0  0  0  0  0  0  0  0
  156.2957   39.5632  140.9155 C   0  0  0  0  0  0  0  0  0  0  0  0
  155.4150   38.7305  141.2392 O   0  0  0  0  0  0  0  0  0  0  0  0
  157.8959   39.3303  142.9826 N   0  0  0  0  0  0  0  0  0  0  0  0
  159.0625   39.9525  143.2779 C   0  0  0  0  0  0  0  0  0  0  0  0
  159.3961   40.8195  142.3060 N   0  0  1  0  0  0  0  0  0  0  0  0
  155.2902   47.8447  143.3973 N   0  0  0  0  0  0  0  0  0  0  0  0
  160.9951   47.2066  144.1817 O   0  5  0  0  0  0  0  0  0  0  0  0
  156.1370   48.1949  144.3776 C   0  0  2  0  0  0  0  0  0  0  0  0
  156.8310   49.3316  144.2176 N   0  0  0  0  0  0  0  0  0  0  0  0
  159.1732   45.9640  142.7427 O   0  0  0  0  0  0  0  0  0  0  0  0
  156.3246   47.4647  145.5019 N   0  0  0  0  0  0  0  0  0  0  0  0
  155.6482   46.3131  145.6952 C   0  0  1  0  0  0  0  0  0  0  0  0
  154.6993   45.8729  144.6528 C   0  0  1  0  0  0  0  0  0  0  0  0
  154.5613   46.7285  143.4467 C   0  0  0  0  0  0  0  0  0  0  0  0
  153.7813   46.4464  142.5118 O   0  0  0  0  0  0  0  0  0  0  0  0
  154.1735   44.7154  145.0838 N   0  0  0  0  0  0  0  0  0  0  0  0
  154.7337   44.4468  146.2959 C   0  0  0  0  0  0  0  0  0  0  0  0
  155.6166   45.3969  146.6626 N   0  0  2  0  0  0  0  0  0  0  0  0
  1  3  1  1  0  0  0
  1  4  2  0  0  0  0
  1  6  1  0  0  0  0
  1 22  1  0  0  0  0
  2 28  1  0  0  0  0
  2 35  1  1  0  0  0
  2 38  2  0  0  0  0
  2 10  1  0  0  0  0
  5  6  1  0  0  0  0
  7  5  1  1  0  0  0
  7  8  1  0  0  0  0
  7  9  1  0  0  0  0
  9 10  1  6  0  0  0
  9 11  1  0  0  0  0
 11 12  1  6  0  0  0
 11 13  1  0  0  0  0
 13  8  1  1  0  0  0
 13 33  1  0  0  0  0
 14 46  1  0  0  0  0
 14 17  1  0  0  0  0
 14 25  1  6  0  0  0
 15 16  1  0  0  0  0
 15 29  1  0  0  0  0
 16 18  1  1  0  0  0
 16 21  1  0  0  0  0
 17 19  1  1  0  0  0
 17 20  1  0  0  0  0
 20 22  1  1  0  0  0
 20 24  1  0  0  0  0
 23 21  1  1  0  0  0
 23 26  1  0  0  0  0
 23 33  1  0  0  0  0
 24 25  1  6  0  0  0
 24 27  1  0  0  0  0
 26 29  1  1  0  0  0
 26 31  1  0  0  0  0
 27 28  1  0  0  0  0
 29 30  2  0  0  0  0
 31 32  1  0  0  0  0
 33 32  1  6  0  0  0
 34 36  1  0  0  0  0
 34 42  1  0  0  0  0
 36 37  1  6  0  0  0
 36 39  1  0  0  0  0
 40 39  1  6  0  0  0
 40 41  1  0  0  0  0
 40 46  1  0  0  0  0
 41 42  1  6  0  0  0
 41 44  1  0  0  0  0
 42 43  2  0  0  0  0
 44 45  1  0  0  0  0
 46 45  1  1  0  0  0
M  CHG  2   3  -1  35  -1
M  END
>  <CHROM.1>
-174.47508015,-132.77378742,158.19477142,43.69457697,144.50557097,-1.78118490
0.87313677,-2.21429252

>  <Name>
ligand

>  <RI>
0

>  <Rbt.Current_Directory>
/home/itssahil/PROJECTS/Mol_Feturizer/Test_systems_manuscript/rnas/4yb0

>  <Rbt.Executable>
rbdock ($Id: //depot/dev/client3/rdock/2013.1/src/exe/rbdock.cxx#4 $)

>  <Rbt.Library>
libRbt.so (2013.1, Build901 2013/11/27)

>  <Rbt.Parameter_File>
/export/apps/rDock/src/rDock_2013.1_src/data/scripts/dock_solv.prm

>  <Rbt.Receptor>
prm/pocket_docking_5.prm

>  <SCORE>
-42.1791

>  <SCORE.INTER>
-41.6704

>  <SCORE.INTER.CONST>
1

>  <SCORE.INTER.POLAR>
0

>  <SCORE.INTER.ROT>
2

>  <SCORE.INTER.SOLV>
30.8563

>  <SCORE.INTER.VDW>
-42.999

>  <SCORE.INTER.norm>
-0.905878

>  <SCORE.INTRA>
-0.508714

>  <SCORE.INTRA.DIHEDRAL>
-0.033798

>  <SCORE.INTRA.DIHEDRAL.0>
2.42188

>  <SCORE.INTRA.POLAR>
0

>  <SCORE.INTRA.POLAR.0>
0

>  <SCORE.INTRA.REPUL>
0

>  <SCORE.INTRA.REPUL.0>
0

>  <SCORE.INTRA.SOLV>
0.321391

>  <SCORE.INTRA.SOLV.lig_0>
-127.307

>  <SCORE.INTRA.VDW>
-0.65251

>  <SCORE.INTRA.VDW.0>
-2.19936

>  <SCORE.INTRA.norm>
-0.011059

>  <SCORE.RESTR>
0

>  <SCORE.RESTR.CAVITY>
0

>  <SCORE.RESTR.norm>
0

>  <SCORE.SYSTEM>
0

>  <SCORE.SYSTEM.CONST>
0

>  <SCORE.SYSTEM.DIHEDRAL>
0

>  <SCORE.SYSTEM.SOLV>
0

>  <SCORE.SYSTEM.norm>
0

>  <SCORE.heavy>
46

>  <SCORE.norm>
-0.916937

>  <RMSD>
2.375

$$$$
ligand
 OpenBabel02271912143D
libRbt.so/2013.1/901 2013/11/27
 46 52  0  0  0  0  0  0  0  0999 V2000
  159.5538   41.8041  147.7328 P   0  0  1  0  0  0  0  0  0  0  0  0
  160.0436   46.0507  143.9702 P   0  0  1  0  0  0  0  0  0  0  0  0
  158.1997   41.1451  147.7893 O   0  5  0  0  0  0  0  0  0  0  0  0
  160.6664   41.1407  148.5149 O   0  0  0  0  0  0  0  0  0  0  0  0
  161.2833   41.7575  145.7314 C   0  0  0  0  0  0  0  0  0  0  0  0
  159.9583   41.9948  146.1885 O   0  0  0  0  0  0  0  0  0  0  0  0
  161.4789   42.3793  144.3585 C   0  0  1  0  0  0  0  0  0  0  0  0
  161.4302   41.3381  143.3934 O   0  0  0  0  0  0  0  0  0  0  0  0
  160.4261   43.3977  143.9397 C   0  0  1  0  0  0  0  0  0  0  0  0
  160.9544   44.7100  144.0642 O   0  0  0  0  0  0  0  0  0  0  0  0
  160.2236   43.1106  142.4688 C   0  0  1  0  0  0  0  0  0  0  0  0
  161.1329   43.8973  141.6967 O   0  0  0  0  0  0  0  0  0  0  0  0
  160.6195   41.6752  142.2782 C   0  0  2  0  0  0  0  0  0  0  0  0
  156.3964   45.4146  147.9306 C   0  0  1  0  0  0  0  0  0  0  0  0
  156.2362   40.2557  139.7645 N   0  0  0  0  0  0  0  0  0  0  0  0
  157.1834   41.1481  139.4191 C   0  0  1  0  0  0  0  0  0  0  0  0
  157.0364   44.0603  148.1533 C   0  0  2  0  0  0  0  0  0  0  0  0
  157.0560   41.8241  138.2555 N   0  0  0  0  0  0  0  0  0  0  0  0
  157.1258   43.8551  149.5660 O   0  0  0  0  0  0  0  0  0  0  0  0
  158.4180   44.1613  147.5342 C   0  0  2  0  0  0  0  0  0  0  0  0
  158.2698   41.4161  140.1786 N   0  0  0  0  0  0  0  0  0  0  0  0
  159.3589   43.3307  148.2131 O   0  0  0  0  0  0  0  0  0  0  0  0
  158.4664   40.7848  141.3559 C   0  0  2  0  0  0  0  0  0  0  0  0
  158.7368   45.6463  147.6919 C   0  0  2  0  0  0  0  0  0  0  0  0
  157.4854   46.3303  147.7868 O   0  0  0  0  0  0  0  0  0  0  0  0
  157.4730   39.8004  141.7959 C   0  0  2  0  0  0  0  0  0  0  0  0
  159.5630   46.2570  146.5557 C   0  0  0  0  0  0  0  0  0  0  0  0
  159.0808   45.9061  145.2592 O   0  0  0  0  0  0  0  0  0  0  0  0
  156.3087   39.5589  140.9115 C   0  0  0  0  0  0  0  0  0  0  0  0
  155.4293   38.7253  141.2368 O   0  0  0  0  0  0  0  0  0  0  0  0
  157.9061   39.3374  142.9820 N   0  0  0  0  0  0  0  0  0  0  0  0
  159.0707   39.9634  143.2769 C   0  0  0  0  0  0  0  0  0  0  0  0
  159.4038   40.8276  142.3024 N   0  0  1  0  0  0  0  0  0  0  0  0
  155.2936   47.8362  143.3965 N   0  0  0  0  0  0  0  0  0  0  0  0
  160.9909   47.2173  144.1793 O   0  5  0  0  0  0  0  0  0  0  0  0
  156.1423   48.1868  144.3751 C   0  0  2  0  0  0  0  0  0  0  0  0
  156.8381   49.3219  144.2120 N   0  0  0  0  0  0  0  0  0  0  0  0
  159.1699   45.9713  142.7420 O   0  0  0  0  0  0  0  0  0  0  0  0
  156.3300   47.4585  145.5006 N   0  0  0  0  0  0  0  0  0  0  0  0
  155.6517   46.3084  145.6970 C   0  0  1  0  0  0  0  0  0  0  0  0
  154.7008   45.8679  144.6566 C   0  0  1  0  0  0  0  0  0  0  0  0
  154.5628   46.7214  143.4490 C   0  0  0  0  0  0  0  0  0  0  0  0
  153.7811   46.4388  142.5156 O   0  0  0  0  0  0  0  0  0  0  0  0
  154.1734   44.7122  145.0906 N   0  0  0  0  0  0  0  0  0  0  0  0
  154.7346   44.4450  146.3025 C   0  0  0  0  0  0  0  0  0  0  0  0
  155.6197   45.3942  146.6662 N   0  0  2  0  0  0  0  0  0  0  0  0
  1  3  1  1  0  0  0
  1  4  2  0  0  0  0
  1  6  1  0  0  0  0
  1 22  1  0  0  0  0
  2 28  1  0  0  0  0
  2 35  1  1  0  0  0
  2 38  2  0  0  0  0
  2 10  1  0  0  0  0
  5  6  1  0  0  0  0
  7  5  1  1  0  0  0
  7  8  1  0  0  0  0
  7  9  1  0  0  0  0
  9 10  1  6  0  0  0
  9 11  1  0  0  0  0
 11 12  1  6  0  0  0
 11 13  1  0  0  0  0
 13  8  1  1  0  0  0
 13 33  1  0  0  0  0
 14 46  1  0  0  0  0
 14 17  1  0  0  0  0
 14 25  1  6  0  0  0
 15 16  1  0  0  0  0
 15 29  1  0  0  0  0
 16 18  1  1  0  0  0
 16 21  1  0  0  0  0
 17 19  1  1  0  0  0
 17 20  1  0  0  0  0
 20 22  1  1  0  0  0
 20 24  1  0  0  0  0
 23 21  1  1  0  0  0
 23 26  1  0  0  0  0
 23 33  1  0  0  0  0
 24 25  1  6  0  0  0
 24 27  1  0  0  0  0
 26 29  1  1  0  0  0
 26 31  1  0  0  0  0
 27 28  1  0  0  0  0
 29 30  2  0  0  0  0
 31 32  1  0  0  0  0
 33 32  1  6  0  0  0
 34 36  1  0  0  0  0
 34 42  1  0  0  0  0
 36 37  1  6  0  0  0
 36 39  1  0  0  0  0
 40 39  1  6  0  0  0
 40 41  1  0  0  0  0
 40 46  1  0  0  0  0
 41 42  1  6  0  0  0
 41 44  1  0  0  0  0
 42 43  2  0  0  0  0
 44 45  1  0  0  0  0
 46 45  1  1  0  0  0
M  CHG  2   3  -1  35  -1
M  END
>  <CHROM.1>
-174.18108688,-132.50137416,158.20080739,43.69686229,144.50359004,-1.77958524
0.87185913,-2.21309950

>  <Name>
ligand

>  <RI>
0

>  <Rbt.Current_Directory>
/home/itssahil/PROJECTS/Mol_Feturizer/Test_systems_manuscript/rnas/4yb0

>  <Rbt.Executable>
rbdock ($Id: //depot/dev/client3/rdock/2013.1/src/exe/rbdock.cxx#4 $)

>  <Rbt.Library>
libRbt.so (2013.1, Build901 2013/11/27)

>  <Rbt.Parameter_File>
/export/apps/rDock/src/rDock_2013.1_src/data/scripts/dock_solv.prm

>  <Rbt.Receptor>
prm/pocket_docking_5.prm

>  <SCORE>
-42.1493

>  <SCORE.INTER>
-41.6589

>  <SCORE.INTER.CONST>
1

>  <SCORE.INTER.POLAR>
0

>  <SCORE.INTER.ROT>
2

>  <SCORE.INTER.SOLV>
30.8214

>  <SCORE.INTER.VDW>
-42.9798

>  <SCORE.INTER.norm>
-0.905629

>  <SCORE.INTRA>
-0.490365

>  <SCORE.INTRA.DIHEDRAL>
-0.0331142

>  <SCORE.INTRA.DIHEDRAL.0>
2.42188

>  <SCORE.INTRA.POLAR>
0

>  <SCORE.INTRA.POLAR.0>
0

>  <SCORE.INTRA.REPUL>
0

>  <SCORE.INTRA.REPUL.0>
0

>  <SCORE.INTRA.SOLV>
0.387866

>  <SCORE.INTRA.SOLV.lig_0>
-127.307

>  <SCORE.INTRA.VDW>
-0.667741

>  <SCORE.INTRA.VDW.0>
-2.19936

>  <SCORE.INTRA.norm>
-0.0106601

>  <SCORE.RESTR>
0

>  <SCORE.RESTR.CAVITY>
0

>  <SCORE.RESTR.norm>
0

>  <SCORE.SYSTEM>
0

>  <SCORE.SYSTEM.CONST>
0

>  <SCORE.SYSTEM.DIHEDRAL>
0

>  <SCORE.SYSTEM.SOLV>
0

>  <SCORE.SYSTEM.norm>
0

>  <SCORE.heavy>
46

>  <SCORE.norm>
-0.916289

>  <RMSD>
2.376

$$$$
ligand
 OpenBabel02271912143D
libRbt.so/2013.1/901 2013/11/27
 46 52  0  0  0  0  0  0  0  0999 V2000
  159.5465   41.8028  147.7328 P   0  0  1  0  0  0  0  0  0  0  0  0
  160.0477   46.0414  143.9626 P   0  0  1  0  0  0  0  0  0  0  0  0
  158.1906   41.1476  147.7904 O   0  5  0  0  0  0  0  0  0  0  0  0
  160.6572   41.1378  148.5161 O   0  0  0  0  0  0  0  0  0  0  0  0
  161.2759   41.7480  145.7314 C   0  0  0  0  0  0  0  0  0  0  0  0
  159.9515   41.9897  146.1881 O   0  0  0  0  0  0  0  0  0  0  0  0
  161.4731   42.3668  144.3574 C   0  0  1  0  0  0  0  0  0  0  0  0
  161.4217   41.3240  143.3942 O   0  0  0  0  0  0  0  0  0  0  0  0
  160.4231   43.3873  143.9368 C   0  0  1  0  0  0  0  0  0  0  0  0
  160.9549   44.6983  144.0590 O   0  0  0  0  0  0  0  0  0  0  0  0
  160.2198   43.0980  142.4665 C   0  0  1  0  0  0  0  0  0  0  0  0
  161.1313   43.8809  141.6930 O   0  0  0  0  0  0  0  0  0  0  0  0
  160.6118   41.6613  142.2784 C   0  0  2  0  0  0  0  0  0  0  0  0
  156.3988   45.4222  147.9240 C   0  0  1  0  0  0  0  0  0  0  0  0
  156.1986   40.2876  139.7918 N   0  0  0  0  0  0  0  0  0  0  0  0
  157.1450   41.1817  139.4484 C   0  0  1  0  0  0  0  0  0  0  0  0
  157.0352   44.0665  148.1492 C   0  0  2  0  0  0  0  0  0  0  0  0
  157.0077   41.8731  138.2950 N   0  0  0  0  0  0  0  0  0  0  0  0
  157.1240   43.8637  149.5623 O   0  0  0  0  0  0  0  0  0  0  0  0
  158.4170   44.1627  147.5299 C   0  0  2  0  0  0  0  0  0  0  0  0
  158.2399   41.4365  140.2000 N   0  0  0  0  0  0  0  0  0  0  0  0
  159.3557   43.3308  148.2104 O   0  0  0  0  0  0  0  0  0  0  0  0
  158.4467   40.7894  141.3668 C   0  0  2  0  0  0  0  0  0  0  0  0
  158.7398   45.6471  147.6850 C   0  0  2  0  0  0  0  0  0  0  0  0
  157.4903   46.3346  147.7786 O   0  0  0  0  0  0  0  0  0  0  0  0
  157.4548   39.8021  141.8042 C   0  0  2  0  0  0  0  0  0  0  0  0
  159.5677   46.2536  146.5477 C   0  0  0  0  0  0  0  0  0  0  0  0
  159.0846   45.9016  145.2519 O   0  0  0  0  0  0  0  0  0  0  0  0
  156.2808   39.5756  140.9288 C   0  0  0  0  0  0  0  0  0  0  0  0
  155.4022   38.7405  141.2524 O   0  0  0  0  0  0  0  0  0  0  0  0
  157.8986   39.3224  142.9797 N   0  0  0  0  0  0  0  0  0  0  0  0
  159.0681   39.9411  143.2707 C   0  0  0  0  0  0  0  0  0  0  0  0
  159.3939   40.8170  142.3042 N   0  0  1  0  0  0  0  0  0  0  0  0
  155.2972   47.8422  143.3889 N   0  0  0  0  0  0  0  0  0  0  0  0
  160.9981   47.2057  144.1696 O   0  5  0  0  0  0  0  0  0  0  0  0
  156.1461   48.1928  144.3673 C   0  0  2  0  0  0  0  0  0  0  0  0
  156.8425   49.3275  144.2036 N   0  0  0  0  0  0  0  0  0  0  0  0
  159.1738   45.9621  142.7345 O   0  0  0  0  0  0  0  0  0  0  0  0
  156.3334   47.4649  145.4931 N   0  0  0  0  0  0  0  0  0  0  0  0
  155.6545   46.3153  145.6901 C   0  0  1  0  0  0  0  0  0  0  0  0
  154.7034   45.8749  144.6499 C   0  0  1  0  0  0  0  0  0  0  0  0
  154.5658   46.7278  143.4419 C   0  0  0  0  0  0  0  0  0  0  0  0
  153.7840   46.4452  142.5087 O   0  0  0  0  0  0  0  0  0  0  0  0
  154.1753   44.7196  145.0844 N   0  0  0  0  0  0  0  0  0  0  0  0
  154.7365   44.4527  146.2965 C   0  0  0  0  0  0  0  0  0  0  0  0
  155.6221   45.4015  146.6597 N   0  0  2  0  0  0  0  0  0  0  0  0
  1  3  1  1  0  0  0
  1  4  2  0  0  0  0
  1  6  1  0  0  0  0
  1 22  1  0  0  0  0
  2 28  1  0  0  0  0
  2 35  1  1  0  0  0
  2 38  2  0  0  0  0
  2 10  1  0  0  0  0
  5  6  1  0  0  0  0
  7  5  1  1  0  0  0
  7  8  1  0  0  0  0
  7  9  1  0  0  0  0
  9 10  1  6  0  0  0
  9 11  1  0  0  0  0
 11 12  1  6  0  0  0
 11 13  1  0  0  0  0
 13  8  1  1  0  0  0
 13 33  1  0  0  0  0
 14 46  1  0  0  0  0
 14 17  1  0  0  0  0
 14 25  1  6  0  0  0
 15 16  1  0  0  0  0
 15 29  1  0  0  0  0
 16 18  1  1  0  0  0
 16 21  1  0  0  0  0
 17 19  1  1  0  0  0
 17 20  1  0  0  0  0
 20 22  1  1  0  0  0
 20 24  1  0  0  0  0
 23 21  1  1  0  0  0
 23 26  1  0  0  0  0
 23 33  1  0  0  0  0
 24 25  1  6  0  0  0
 24 27  1  0  0  0  0
 26 29  1  1  0  0  0
 26 31  1  0  0  0  0
 27 28  1  0  0  0  0
 29 30  2  0  0  0  0
 31 32  1  0  0  0  0
 33 32  1  6  0  0  0
 34 36  1  0  0  0  0
 34 42  1  0  0  0  0
 36 37  1  6  0  0  0
 36 39  1  0  0  0  0
 40 39  1  6  0  0  0
 40 41  1  0  0  0  0
 40 46  1  0  0  0  0
 41 42  1  6  0  0  0
 41 44  1  0  0  0  0
 42 43  2  0  0  0  0
 44 45  1  0  0  0  0
 46 45  1  1  0  0  0
M  CHG  2   3  -1  35  -1
M  END
>  <CHROM.1>
-175.21631278,-132.64617017,158.19517124,43.69801609,144.50318068,-1.77814668
0.87212326,-2.21811973

>  <Name>
ligand

>  <RI>
0

>  <Rbt.Current_Directory>
/home/itssahil/PROJECTS/Mol_Feturizer/Test_systems_manuscript/rnas/4yb0

>  <Rbt.Executable>
rbdock ($Id: //depot/dev/client3/rdock/2013.1/src/exe/rbdock.cxx#4 $)

>  <Rbt.Library>
libRbt.so (2013.1, Build901 2013/11/27)

>  <Rbt.Parameter_File>
/export/apps/rDock/src/rDock_2013.1_src/data/scripts/dock_solv.prm

>  <Rbt.Receptor>
prm/pocket_docking_5.prm

>  <SCORE>
-42.122

>  <SCORE.INTER>
-41.6262

>  <SCORE.INTER.CONST>
1

>  <SCORE.INTER.POLAR>
0

>  <SCORE.INTER.ROT>
2

>  <SCORE.INTER.SOLV>
30.7563

>  <SCORE.INTER.VDW>
-42.9362

>  <SCORE.INTER.norm>
-0.904917

>  <SCORE.INTRA>
-0.4958

>  <SCORE.INTRA.DIHEDRAL>
-0.0344978

>  <SCORE.INTRA.DIHEDRAL.0>
2.42188

>  <SCORE.INTRA.POLAR>
0

>  <SCORE.INTRA.POLAR.0>
0

>  <SCORE.INTRA.REPUL>
0

>  <SCORE.INTRA.REPUL.0>
0

>  <SCORE.INTRA.SOLV>
0.347213

>  <SCORE.INTRA.SOLV.lig_0>
-127.307

>  <SCORE.INTRA.VDW>
-0.652158

>  <SCORE.INTRA.VDW.0>
-2.19936

>  <SCORE.INTRA.norm>
-0.0107783

>  <SCORE.RESTR>
0

>  <SCORE.RESTR.CAVITY>
0

>  <SCORE.RESTR.norm>
0

>  <SCORE.SYSTEM>
0

>  <SCORE.SYSTEM.CONST>
0

>  <SCORE.SYSTEM.DIHEDRAL>
0

>  <SCORE.SYSTEM.SOLV>
0

>  <SCORE.SYSTEM.norm>
0

>  <SCORE.heavy>
46

>  <SCORE.norm>
-0.915695

>  <RMSD>
2.376

$$$$
ligand
 OpenBabel02271912143D
libRbt.so/2013.1/901 2013/11/27
 46 52  0  0  0  0  0  0  0  0999 V2000
  159.5276   41.8016  147.7435 P   0  0  1  0  0  0  0  0  0  0  0  0
  160.0513   46.0368  143.9726 P   0  0  1  0  0  0  0  0  0  0  0  0
  158.1693   41.1512  147.7986 O   0  5  0  0  0  0  0  0  0  0  0  0
  160.6344   41.1330  148.5293 O   0  0  0  0  0  0  0  0  0  0  0  0
  161.2608   41.7398  145.7456 C   0  0  0  0  0  0  0  0  0  0  0  0
  159.9363   41.9864  146.1995 O   0  0  0  0  0  0  0  0  0  0  0  0
  161.4630   42.3574  144.3717 C   0  0  1  0  0  0  0  0  0  0  0  0
  161.4098   41.3144  143.4088 O   0  0  0  0  0  0  0  0  0  0  0  0
  160.4174   43.3814  143.9486 C   0  0  1  0  0  0  0  0  0  0  0  0
  160.9536   44.6906  144.0713 O   0  0  0  0  0  0  0  0  0  0  0  0
  160.2160   43.0923  142.4780 C   0  0  1  0  0  0  0  0  0  0  0  0
  161.1318   43.8716  141.7060 O   0  0  0  0  0  0  0  0  0  0  0  0
  160.6034   41.6541  142.2913 C   0  0  2  0  0  0  0  0  0  0  0  0
  156.3923   45.4321  147.9270 C   0  0  1  0  0  0  0  0  0  0  0  0
  156.2060   40.2717  139.7815 N   0  0  0  0  0  0  0  0  0  0  0  0
  157.1582   41.1594  139.4374 C   0  0  1  0  0  0  0  0  0  0  0  0
  157.0235   44.0743  148.1540 C   0  0  2  0  0  0  0  0  0  0  0  0
  157.0327   41.8404  138.2765 N   0  0  0  0  0  0  0  0  0  0  0  0
  157.1087   43.8717  149.5673 O   0  0  0  0  0  0  0  0  0  0  0  0
  158.4068   44.1653  147.5374 C   0  0  2  0  0  0  0  0  0  0  0  0
  158.2478   41.4176  140.1957 N   0  0  0  0  0  0  0  0  0  0  0  0
  159.3413   43.3305  148.2200 O   0  0  0  0  0  0  0  0  0  0  0  0
  158.4428   40.7808  141.3701 C   0  0  2  0  0  0  0  0  0  0  0  0
  158.7346   45.6487  147.6925 C   0  0  2  0  0  0  0  0  0  0  0  0
  157.4873   46.3406  147.7834 O   0  0  0  0  0  0  0  0  0  0  0  0
  157.4440   39.8010  141.8086 C   0  0  2  0  0  0  0  0  0  0  0  0
  159.5669   46.2518  146.5566 C   0  0  0  0  0  0  0  0  0  0  0  0
  159.0851   45.9010  145.2600 O   0  0  0  0  0  0  0  0  0  0  0  0
  156.2765   39.5702  140.9257 C   0  0  0  0  0  0  0  0  0  0  0  0
  155.3925   38.7410  141.2499 O   0  0  0  0  0  0  0  0  0  0  0  0
  157.8766   39.3309  142.9921 N   0  0  0  0  0  0  0  0  0  0  0  0
  159.0458   39.9485  143.2869 C   0  0  0  0  0  0  0  0  0  0  0  0
  159.3824   40.8141  142.3149 N   0  0  1  0  0  0  0  0  0  0  0  0
  155.3204   47.8459  143.3814 N   0  0  0  0  0  0  0  0  0  0  0  0
  161.0054   47.1979  144.1811 O   0  5  0  0  0  0  0  0  0  0  0  0
  156.1702   48.1927  144.3604 C   0  0  2  0  0  0  0  0  0  0  0  0
  156.8764   49.3210  144.1944 N   0  0  0  0  0  0  0  0  0  0  0  0
  159.1796   45.9601  142.7428 O   0  0  0  0  0  0  0  0  0  0  0  0
  156.3491   47.4671  145.4890 N   0  0  0  0  0  0  0  0  0  0  0  0
  155.6602   46.3239  145.6884 C   0  0  1  0  0  0  0  0  0  0  0  0
  154.7075   45.8879  144.6478 C   0  0  1  0  0  0  0  0  0  0  0  0
  154.5796   46.7379  143.4367 C   0  0  0  0  0  0  0  0  0  0  0  0
  153.7973   46.4587  142.5027 O   0  0  0  0  0  0  0  0  0  0  0  0
  154.1689   44.7386  145.0851 N   0  0  0  0  0  0  0  0  0  0  0  0
  154.7253   44.4711  146.2992 C   0  0  0  0  0  0  0  0  0  0  0  0
  155.6181   45.4137  146.6611 N   0  0  2  0  0  0  0  0  0  0  0  0
  1  3  1  1  0  0  0
  1  4  2  0  0  0  0
  1  6  1  0  0  0  0
  1 22  1  0  0  0  0
  2 28  1  0  0  0  0
  2 35  1  1  0  0  0
  2 38  2  0  0  0  0
  2 10  1  0  0  0  0
  5  6  1  0  0  0  0
  7  5  1  1  0  0  0
  7  8  1  0  0  0  0
  7  9  1  0  0  0  0
  9 10  1  6  0  0  0
  9 11  1  0  0  0  0
 11 12  1  6  0  0  0
 11 13  1  0  0  0  0
 13  8  1  1  0  0  0
 13 33  1  0  0  0  0
 14 46  1  0  0  0  0
 14 17  1  0  0  0  0
 14 25  1  6  0  0  0
 15 16  1  0  0  0  0
 15 29  1  0  0  0  0
 16 18  1  1  0  0  0
 16 21  1  0  0  0  0
 17 19  1  1  0  0  0
 17 20  1  0  0  0  0
 20 22  1  1  0  0  0
 20 24  1  0  0  0  0
 23 21  1  1  0  0  0
 23 26  1  0  0  0  0
 23 33  1  0  0  0  0
 24 25  1  6  0  0  0
 24 27  1  0  0  0  0
 26 29  1  1  0  0  0
 26 31  1  0  0  0  0
 27 28  1  0  0  0  0
 29 30  2  0  0  0  0
 31 32  1  0  0  0  0
 33 32  1  6  0  0  0
 34 36  1  0  0  0  0
 34 42  1  0  0  0  0
 36 37  1  6  0  0  0
 36 39  1  0  0  0  0
 40 39  1  6  0  0  0
 40 41  1  0  0  0  0
 40 46  1  0  0  0  0
 41 42  1  6  0  0  0
 41 44  1  0  0  0  0
 42 43  2  0  0  0  0
 44 45  1  0  0  0  0
 46 45  1  1  0  0  0
M  CHG  2   3  -1  35  -1
M  END
>  <CHROM.1>
-174.59038025,-132.32160740,158.19247579,43.69680858,144.50798667,-1.77476309
0.87806920,-2.21843033

>  <Name>
ligand

>  <RI>
0

>  <Rbt.Current_Directory>
/home/itssahil/PROJECTS/Mol_Feturizer/Test_systems_manuscript/rnas/4yb0

>  <Rbt.Executable>
rbdock ($Id: //depot/dev/client3/rdock/2013.1/src/exe/rbdock.cxx#4 $)

>  <Rbt.Library>
libRbt.so (2013.1, Build901 2013/11/27)

>  <Rbt.Parameter_File>
/export/apps/rDock/src/rDock_2013.1_src/data/scripts/dock_solv.prm

>  <Rbt.Receptor>
prm/pocket_docking_5.prm

>  <SCORE>
-42.0911

>  <SCORE.INTER>
-41.6213

>  <SCORE.INTER.CONST>
1

>  <SCORE.INTER.POLAR>
0

>  <SCORE.INTER.ROT>
2

>  <SCORE.INTER.SOLV>
30.6529

>  <SCORE.INTER.VDW>
-42.8985

>  <SCORE.INTER.norm>
-0.90481

>  <SCORE.INTRA>
-0.469819

>  <SCORE.INTRA.DIHEDRAL>
-0.033357

>  <SCORE.INTRA.DIHEDRAL.0>
2.42188

>  <SCORE.INTRA.POLAR>
0

>  <SCORE.INTRA.POLAR.0>
0

>  <SCORE.INTRA.REPUL>
0

>  <SCORE.INTRA.REPUL.0>
0

>  <SCORE.INTRA.SOLV>
0.439172

>  <SCORE.INTRA.SOLV.lig_0>
-127.307

>  <SCORE.INTRA.VDW>
-0.672727

>  <SCORE.INTRA.VDW.0>
-2.19936

>  <SCORE.INTRA.norm>
-0.0102135

>  <SCORE.RESTR>
0

>  <SCORE.RESTR.CAVITY>
0

>  <SCORE.RESTR.norm>
0

>  <SCORE.SYSTEM>
0

>  <SCORE.SYSTEM.CONST>
0

>  <SCORE.SYSTEM.DIHEDRAL>
0

>  <SCORE.SYSTEM.SOLV>
0

>  <SCORE.SYSTEM.norm>
0

>  <SCORE.heavy>
46

>  <SCORE.norm>
-0.915023

>  <RMSD>
2.380

$$$$
ligand
 OpenBabel02271912143D
libRbt.so/2013.1/901 2013/11/27
 46 52  0  0  0  0  0  0  0  0999 V2000
  159.5379   41.8004  147.7302 P   0  0  1  0  0  0  0  0  0  0  0  0
  160.0546   46.0446  143.9685 P   0  0  1  0  0  0  0  0  0  0  0  0
  158.1797   41.1498  147.7863 O   0  5  0  0  0  0  0  0  0  0  0  0
  160.6462   41.1300  148.5124 O   0  0  0  0  0  0  0  0  0  0  0  0
  161.2675   41.7435  145.7291 C   0  0  0  0  0  0  0  0  0  0  0  0
  159.9438   41.9889  146.1860 O   0  0  0  0  0  0  0  0  0  0  0  0
  161.4672   42.3644  144.3563 C   0  0  1  0  0  0  0  0  0  0  0  0
  161.4123   41.3236  143.3910 O   0  0  0  0  0  0  0  0  0  0  0  0
  160.4208   43.3893  143.9376 C   0  0  1  0  0  0  0  0  0  0  0  0
  160.9571   44.6982  144.0624 O   0  0  0  0  0  0  0  0  0  0  0  0
  160.2167   43.1037  142.4666 C   0  0  1  0  0  0  0  0  0  0  0  0
  161.1311   43.8849  141.6948 O   0  0  0  0  0  0  0  0  0  0  0  0
  160.6038   41.6659  142.2757 C   0  0  2  0  0  0  0  0  0  0  0  0
  156.4027   45.4302  147.9280 C   0  0  1  0  0  0  0  0  0  0  0  0
  156.2112   40.2758  139.7621 N   0  0  0  0  0  0  0  0  0  0  0  0
  157.1638   41.1626  139.4172 C   0  0  1  0  0  0  0  0  0  0  0  0
  157.0344   44.0720  148.1507 C   0  0  2  0  0  0  0  0  0  0  0  0
  157.0403   41.8403  138.2542 N   0  0  0  0  0  0  0  0  0  0  0  0
  157.1222   43.8660  149.5634 O   0  0  0  0  0  0  0  0  0  0  0  0
  158.4167   44.1645  147.5318 C   0  0  2  0  0  0  0  0  0  0  0  0
  158.2521   41.4232  140.1766 N   0  0  0  0  0  0  0  0  0  0  0  0
  159.3524   43.3281  148.2108 O   0  0  0  0  0  0  0  0  0  0  0  0
  158.4451   40.7897  141.3533 C   0  0  2  0  0  0  0  0  0  0  0  0
  158.7446   45.6476  147.6899 C   0  0  2  0  0  0  0  0  0  0  0  0
  157.4974   46.3392  147.7846 O   0  0  0  0  0  0  0  0  0  0  0  0
  157.4457   39.8110  141.7927 C   0  0  2  0  0  0  0  0  0  0  0  0
  159.5748   46.2534  146.5539 C   0  0  0  0  0  0  0  0  0  0  0  0
  159.0907   45.9056  145.2573 O   0  0  0  0  0  0  0  0  0  0  0  0
  156.2797   39.5775  140.9084 C   0  0  0  0  0  0  0  0  0  0  0  0
  155.3953   38.7491  141.2333 O   0  0  0  0  0  0  0  0  0  0  0  0
  157.8762   39.3443  142.9783 N   0  0  0  0  0  0  0  0  0  0  0  0
  159.0448   39.9629  143.2734 C   0  0  0  0  0  0  0  0  0  0  0  0
  159.3830   40.8258  142.2996 N   0  0  1  0  0  0  0  0  0  0  0  0
  155.3119   47.8620  143.3966 N   0  0  0  0  0  0  0  0  0  0  0  0
  161.0090   47.2053  144.1780 O   0  5  0  0  0  0  0  0  0  0  0  0
  156.1621   48.2076  144.3757 C   0  0  2  0  0  0  0  0  0  0  0  0
  156.8631   49.3397  144.2140 N   0  0  0  0  0  0  0  0  0  0  0  0
  159.1807   45.9708  142.7401 O   0  0  0  0  0  0  0  0  0  0  0  0
  156.3462   47.4772  145.5004 N   0  0  0  0  0  0  0  0  0  0  0  0
  155.6626   46.3300  145.6953 C   0  0  1  0  0  0  0  0  0  0  0  0
  154.7099   45.8951  144.6543 C   0  0  1  0  0  0  0  0  0  0  0  0
  154.5760   46.7505  143.4477 C   0  0  0  0  0  0  0  0  0  0  0  0
  153.7932   46.4726  142.5138 O   0  0  0  0  0  0  0  0  0  0  0  0
  154.1770   44.7413  145.0868 N   0  0  0  0  0  0  0  0  0  0  0  0
  154.7368   44.4702  146.2986 C   0  0  0  0  0  0  0  0  0  0  0  0
  155.6262   45.4148  146.6635 N   0  0  2  0  0  0  0  0  0  0  0  0
  1  3  1  1  0  0  0
  1  4  2  0  0  0  0
  1  6  1  0  0  0  0
  1 22  1  0  0  0  0
  2 28  1  0  0  0  0
  2 35  1  1  0  0  0
  2 38  2  0  0  0  0
  2 10  1  0  0  0  0
  5  6  1  0  0  0  0
  7  5  1  1  0  0  0
  7  8  1  0  0  0  0
  7  9  1  0  0  0  0
  9 10  1  6  0  0  0
  9 11  1  0  0  0  0
 11 12  1  6  0  0  0
 11 13  1  0  0  0  0
 13  8  1  1  0  0  0
 13 33  1  0  0  0  0
 14 46  1  0  0  0  0
 14 17  1  0  0  0  0
 14 25  1  6  0  0  0
 15 16  1  0  0  0  0
 15 29  1  0  0  0  0
 16 18  1  1  0  0  0
 16 21  1  0  0  0  0
 17 19  1  1  0  0  0
 17 20  1  0  0  0  0
 20 22  1  1  0  0  0
 20 24  1  0  0  0  0
 23 21  1  1  0  0  0
 23 26  1  0  0  0  0
 23 33  1  0  0  0  0
 24 25  1  6  0  0  0
 24 27  1  0  0  0  0
 26 29  1  1  0  0  0
 26 31  1  0  0  0  0
 27 28  1  0  0  0  0
 29 30  2  0  0  0  0
 31 32  1  0  0  0  0
 33 32  1  6  0  0  0
 34 36  1  0  0  0  0
 34 42  1  0  0  0  0
 36 37  1  6  0  0  0
 36 39  1  0  0  0  0
 40 39  1  6  0  0  0
 40 41  1  0  0  0  0
 40 46  1  0  0  0  0
 41 42  1  6  0  0  0
 41 44  1  0  0  0  0
 42 43  2  0  0  0  0
 44 45  1  0  0  0  0
 46 45  1  1  0  0  0
M  CHG  2   3  -1  35  -1
M  END
>  <CHROM.1>
-174.22872274,-132.60665244,158.19668420,43.70253076,144.50144881,-1.77487423
0.87648981,-2.21718210

>  <Name>
ligand

>  <RI>
0

>  <Rbt.Current_Directory>
/home/itssahil/PROJECTS/Mol_Feturizer/Test_systems_manuscript/rnas/4yb0

>  <Rbt.Executable>
rbdock ($Id: //depot/dev/client3/rdock/2013.1/src/exe/rbdock.cxx#4 $)

>  <Rbt.Library>
libRbt.so (2013.1, Build901 2013/11/27)

>  <Rbt.Parameter_File>
/export/apps/rDock/src/rDock_2013.1_src/data/scripts/dock_solv.prm

>  <Rbt.Receptor>
prm/pocket_docking_7.prm

>  <SCORE>
-42.1307

>  <SCORE.INTER>
-41.6306

>  <SCORE.INTER.CONST>
1

>  <SCORE.INTER.POLAR>
0

>  <SCORE.INTER.ROT>
2

>  <SCORE.INTER.SOLV>
30.7697

>  <SCORE.INTER.VDW>
-42.9436

>  <SCORE.INTER.norm>
-0.905013

>  <SCORE.INTRA>
-0.500079

>  <SCORE.INTRA.DIHEDRAL>
-0.0333027

>  <SCORE.INTRA.DIHEDRAL.0>
2.42188

>  <SCORE.INTRA.POLAR>
0

>  <SCORE.INTRA.POLAR.0>
0

>  <SCORE.INTRA.REPUL>
0

>  <SCORE.INTRA.REPUL.0>
0

>  <SCORE.INTRA.SOLV>
0.357953

>  <SCORE.INTRA.SOLV.lig_0>
-127.307

>  <SCORE.INTRA.VDW>
-0.662404

>  <SCORE.INTRA.VDW.0>
-2.19936

>  <SCORE.INTRA.norm>
-0.0108713

>  <SCORE.RESTR>
0

>  <SCORE.RESTR.CAVITY>
0

>  <SCORE.RESTR.norm>
0

>  <SCORE.SYSTEM>
0

>  <SCORE.SYSTEM.CONST>
0

>  <SCORE.SYSTEM.DIHEDRAL>
0

>  <SCORE.SYSTEM.SOLV>
0

>  <SCORE.SYSTEM.norm>
0

>  <SCORE.heavy>
46

>  <SCORE.norm>
-0.915884

>  <RMSD>
2.382

$$$$
ligand
 OpenBabel02271912143D
libRbt.so/2013.1/901 2013/11/27
 46 52  0  0  0  0  0  0  0  0999 V2000
  159.5369   41.7238  147.7643 P   0  0  1  0  0  0  0  0  0  0  0  0
  160.0245   46.0235  144.0621 P   0  0  1  0  0  0  0  0  0  0  0  0
  158.1835   41.0626  147.8105 O   0  5  0  0  0  0  0  0  0  0  0  0
  160.6497   41.0507  148.5378 O   0  0  0  0  0  0  0  0  0  0  0  0
  161.2679   41.7073  145.7636 C   0  0  0  0  0  0  0  0  0  0  0  0
  159.9422   41.9367  146.2230 O   0  0  0  0  0  0  0  0  0  0  0  0
  161.4637   42.3486  144.3997 C   0  0  1  0  0  0  0  0  0  0  0  0
  161.4169   41.3210  143.4200 O   0  0  0  0  0  0  0  0  0  0  0  0
  160.4101   43.3716  143.9946 C   0  0  1  0  0  0  0  0  0  0  0  0
  160.9368   44.6825  144.1378 O   0  0  0  0  0  0  0  0  0  0  0  0
  160.2089   43.1049  142.5197 C   0  0  1  0  0  0  0  0  0  0  0  0
  161.1179   43.9034  141.7593 O   0  0  0  0  0  0  0  0  0  0  0  0
  160.6065   41.6728  142.3091 C   0  0  2  0  0  0  0  0  0  0  0  0
  156.3753   45.3276  148.0105 C   0  0  1  0  0  0  0  0  0  0  0  0
  156.2379   40.2677  139.7621 N   0  0  0  0  0  0  0  0  0  0  0  0
  157.1858   41.1638  139.4285 C   0  0  1  0  0  0  0  0  0  0  0  0
  157.0167   43.9710  148.2147 C   0  0  2  0  0  0  0  0  0  0  0  0
  157.0635   41.8486  138.2695 N   0  0  0  0  0  0  0  0  0  0  0  0
  157.1053   43.7461  149.6244 O   0  0  0  0  0  0  0  0  0  0  0  0
  158.3985   44.0822  147.5980 C   0  0  2  0  0  0  0  0  0  0  0  0
  158.2680   41.4272  140.1956 N   0  0  0  0  0  0  0  0  0  0  0  0
  159.3400   43.2433  148.2659 O   0  0  0  0  0  0  0  0  0  0  0  0
  158.4593   40.7871  141.3689 C   0  0  2  0  0  0  0  0  0  0  0  0
  158.7156   45.5653  147.7768 C   0  0  2  0  0  0  0  0  0  0  0  0
  157.4634   46.2464  147.8804 O   0  0  0  0  0  0  0  0  0  0  0  0
  157.4648   39.7980  141.7962 C   0  0  2  0  0  0  0  0  0  0  0  0
  159.5419   46.1929  146.6499 C   0  0  0  0  0  0  0  0  0  0  0  0
  159.0610   45.8596  145.3483 O   0  0  0  0  0  0  0  0  0  0  0  0
  156.3054   39.5620  140.9040 C   0  0  0  0  0  0  0  0  0  0  0  0
  155.4254   38.7249  141.2184 O   0  0  0  0  0  0  0  0  0  0  0  0
  157.8924   39.3264  142.9809 N   0  0  0  0  0  0  0  0  0  0  0  0
  159.0548   39.9515  143.2866 C   0  0  0  0  0  0  0  0  0  0  0  0
  159.3918   40.8236  142.3206 N   0  0  1  0  0  0  0  0  0  0  0  0
  155.3475   47.7600  143.4647 N   0  0  0  0  0  0  0  0  0  0  0  0
  160.9703   47.1880  144.2883 O   0  5  0  0  0  0  0  0  0  0  0  0
  156.2051   48.0901  144.4426 C   0  0  2  0  0  0  0  0  0  0  0  0
  156.9336   49.2039  144.2752 N   0  0  0  0  0  0  0  0  0  0  0  0
  159.1518   45.9604  142.8323 O   0  0  0  0  0  0  0  0  0  0  0  0
  156.3705   47.3617  145.5715 N   0  0  0  0  0  0  0  0  0  0  0  0
  155.6589   46.2327  145.7722 C   0  0  1  0  0  0  0  0  0  0  0  0
  154.6966   45.8154  144.7328 C   0  0  1  0  0  0  0  0  0  0  0  0
  154.5845   46.6671  143.5213 C   0  0  0  0  0  0  0  0  0  0  0  0
  153.7959   46.4032  142.5883 O   0  0  0  0  0  0  0  0  0  0  0  0
  154.1355   44.6774  145.1713 N   0  0  0  0  0  0  0  0  0  0  0  0
  154.6876   44.3994  146.3850 C   0  0  0  0  0  0  0  0  0  0  0  0
  155.5995   45.3241  146.7455 N   0  0  2  0  0  0  0  0  0  0  0  0
  1  3  1  1  0  0  0
  1  4  2  0  0  0  0
  1  6  1  0  0  0  0
  1 22  1  0  0  0  0
  2 28  1  0  0  0  0
  2 35  1  1  0  0  0
  2 38  2  0  0  0  0
  2 10  1  0  0  0  0
  5  6  1  0  0  0  0
  7  5  1  1  0  0  0
  7  8  1  0  0  0  0
  7  9  1  0  0  0  0
  9 10  1  6  0  0  0
  9 11  1  0  0  0  0
 11 12  1  6  0  0  0
 11 13  1  0  0  0  0
 13  8  1  1  0  0  0
 13 33  1  0  0  0  0
 14 46  1  0  0  0  0
 14 17  1  0  0  0  0
 14 25  1  6  0  0  0
 15 16  1  0  0  0  0
 15 29  1  0  0  0  0
 16 18  1  1  0  0  0
 16 21  1  0  0  0  0
 17 19  1  1  0  0  0
 17 20  1  0  0  0  0
 20 22  1  1  0  0  0
 20 24  1  0  0  0  0
 23 21  1  1  0  0  0
 23 26  1  0  0  0  0
 23 33  1  0  0  0  0
 24 25  1  6  0  0  0
 24 27  1  0  0  0  0
 26 29  1  1  0  0  0
 26 31  1  0  0  0  0
 27 28  1  0  0  0  0
 29 30  2  0  0  0  0
 31 32  1  0  0  0  0
 33 32  1  6  0  0  0
 34 36  1  0  0  0  0
 34 42  1  0  0  0  0
 36 37  1  6  0  0  0
 36 39  1  0  0  0  0
 40 39  1  6  0  0  0
 40 41  1  0  0  0  0
 40 46  1  0  0  0  0
 41 42  1  6  0  0  0
 41 44  1  0  0  0  0
 42 43  2  0  0  0  0
 44 45  1  0  0  0  0
 46 45  1  1  0  0  0
M  CHG  2   3  -1  35  -1
M  END
>  <CHROM.1>
-173.73998381,-130.47533015,158.19339739,43.65289999,144.55490239,-1.76590989
0.87841908,-2.19742186

>  <Name>
ligand

>  <RI>
0

>  <Rbt.Current_Directory>
/home/itssahil/PROJECTS/Mol_Feturizer/Test_systems_manuscript/rnas/4yb0

>  <Rbt.Executable>
rbdock ($Id: //depot/dev/client3/rdock/2013.1/src/exe/rbdock.cxx#4 $)

>  <Rbt.Library>
libRbt.so (2013.1, Build901 2013/11/27)

>  <Rbt.Parameter_File>
/export/apps/rDock/src/rDock_2013.1_src/data/scripts/dock_solv.prm

>  <Rbt.Receptor>
prm/pocket_docking_4.prm

>  <SCORE>
-41.8021

>  <SCORE.INTER>
-41.478

>  <SCORE.INTER.CONST>
1

>  <SCORE.INTER.POLAR>
0

>  <SCORE.INTER.ROT>
2

>  <SCORE.INTER.SOLV>
30.2639

>  <SCORE.INTER.VDW>
-42.6733

>  <SCORE.INTER.norm>
-0.901695

>  <SCORE.INTRA>
-0.330657

>  <SCORE.INTRA.DIHEDRAL>
-0.0299356

>  <SCORE.INTRA.DIHEDRAL.0>
2.42188

>  <SCORE.INTRA.POLAR>
0

>  <SCORE.INTRA.POLAR.0>
0

>  <SCORE.INTRA.REPUL>
0

>  <SCORE.INTRA.REPUL.0>
0

>  <SCORE.INTRA.SOLV>
1.03972

>  <SCORE.INTRA.SOLV.lig_0>
-127.307

>  <SCORE.INTRA.VDW>
-0.835551

>  <SCORE.INTRA.VDW.0>
-2.19936

>  <SCORE.INTRA.norm>
-0.00718819

>  <SCORE.RESTR>
0.00656335

>  <SCORE.RESTR.CAVITY>
0.00656335

>  <SCORE.RESTR.norm>
0.000142682

>  <SCORE.SYSTEM>
0

>  <SCORE.SYSTEM.CONST>
0

>  <SCORE.SYSTEM.DIHEDRAL>
0

>  <SCORE.SYSTEM.SOLV>
0

>  <SCORE.SYSTEM.norm>
0

>  <SCORE.heavy>
46

>  <SCORE.norm>
-0.908741

>  <RMSD>
2.386

$$$$
ligand
 OpenBabel02271912143D
libRbt.so/2013.1/901 2013/11/27
 46 52  0  0  0  0  0  0  0  0999 V2000
  159.5480   41.7228  147.7613 P   0  0  1  0  0  0  0  0  0  0  0  0
  160.0178   46.0187  144.0525 P   0  0  1  0  0  0  0  0  0  0  0  0
  158.1946   41.0621  147.8152 O   0  5  0  0  0  0  0  0  0  0  0  0
  160.6645   41.0500  148.5296 O   0  0  0  0  0  0  0  0  0  0  0  0
  161.2685   41.7037  145.7515 C   0  0  0  0  0  0  0  0  0  0  0  0
  159.9453   41.9340  146.2177 O   0  0  0  0  0  0  0  0  0  0  0  0
  161.4574   42.3436  144.3861 C   0  0  1  0  0  0  0  0  0  0  0  0
  161.4051   41.3151  143.4076 O   0  0  0  0  0  0  0  0  0  0  0  0
  160.4020   43.3666  143.9854 C   0  0  1  0  0  0  0  0  0  0  0  0
  160.9300   44.6775  144.1247 O   0  0  0  0  0  0  0  0  0  0  0  0
  160.1930   43.0986  142.5119 C   0  0  1  0  0  0  0  0  0  0  0  0
  161.0983   43.8961  141.7461 O   0  0  0  0  0  0  0  0  0  0  0  0
  160.5891   41.6662  142.3006 C   0  0  2  0  0  0  0  0  0  0  0  0
  156.3889   45.3280  148.0205 C   0  0  1  0  0  0  0  0  0  0  0  0
  156.2079   40.2584  139.7767 N   0  0  0  0  0  0  0  0  0  0  0  0
  157.1545   41.1537  139.4372 C   0  0  1  0  0  0  0  0  0  0  0  0
  157.0310   43.9713  148.2226 C   0  0  2  0  0  0  0  0  0  0  0  0
  157.0270   41.8366  138.2776 N   0  0  0  0  0  0  0  0  0  0  0  0
  157.1268   43.7478  149.6321 O   0  0  0  0  0  0  0  0  0  0  0  0
  158.4096   44.0815  147.5987 C   0  0  2  0  0  0  0  0  0  0  0  0
  158.2404   41.4179  140.1987 N   0  0  0  0  0  0  0  0  0  0  0  0
  159.3542   43.2428  148.2624 O   0  0  0  0  0  0  0  0  0  0  0  0
  158.4371   40.7797  141.3721 C   0  0  2  0  0  0  0  0  0  0  0  0
  158.7281   45.5646  147.7744 C   0  0  2  0  0  0  0  0  0  0  0  0
  157.4767   46.2463  147.8839 O   0  0  0  0  0  0  0  0  0  0  0  0
  157.4443   39.7917  141.8057 C   0  0  2  0  0  0  0  0  0  0  0  0
  159.5487   46.1908  146.6425 C   0  0  0  0  0  0  0  0  0  0  0  0
  159.0610   45.8564  145.3438 O   0  0  0  0  0  0  0  0  0  0  0  0
  156.2806   39.5546  140.9194 C   0  0  0  0  0  0  0  0  0  0  0  0
  155.4018   38.7183  141.2394 O   0  0  0  0  0  0  0  0  0  0  0  0
  157.8774   39.3218  142.9892 N   0  0  0  0  0  0  0  0  0  0  0  0
  159.0414   39.9470  143.2883 C   0  0  0  0  0  0  0  0  0  0  0  0
  159.3742   40.8174  142.3192 N   0  0  1  0  0  0  0  0  0  0  0  0
  155.3399   47.7551  143.4768 N   0  0  0  0  0  0  0  0  0  0  0  0
  160.9652   47.1831  144.2726 O   0  5  0  0  0  0  0  0  0  0  0  0
  156.2030   48.0858  144.4497 C   0  0  2  0  0  0  0  0  0  0  0  0
  156.9318   49.1985  144.2770 N   0  0  0  0  0  0  0  0  0  0  0  0
  159.1386   45.9547  142.8273 O   0  0  0  0  0  0  0  0  0  0  0  0
  156.3735   47.3587  145.5787 N   0  0  0  0  0  0  0  0  0  0  0  0
  155.6619   46.2307  145.7848 C   0  0  1  0  0  0  0  0  0  0  0  0
  154.6937   45.8130  144.7510 C   0  0  1  0  0  0  0  0  0  0  0  0
  154.5762   46.6631  143.5389 C   0  0  0  0  0  0  0  0  0  0  0  0
  153.7824   46.3987  142.6104 O   0  0  0  0  0  0  0  0  0  0  0  0
  154.1337   44.6761  145.1940 N   0  0  0  0  0  0  0  0  0  0  0  0
  154.6919   44.3993  146.4052 C   0  0  0  0  0  0  0  0  0  0  0  0
  155.6066   45.3235  146.7596 N   0  0  2  0  0  0  0  0  0  0  0  0
  1  3  1  1  0  0  0
  1  4  2  0  0  0  0
  1  6  1  0  0  0  0
  1 22  1  0  0  0  0
  2 28  1  0  0  0  0
  2 35  1  1  0  0  0
  2 38  2  0  0  0  0
  2 10  1  0  0  0  0
  5  6  1  0  0  0  0
  7  5  1  1  0  0  0
  7  8  1  0  0  0  0
  7  9  1  0  0  0  0
  9 10  1  6  0  0  0
  9 11  1  0  0  0  0
 11 12  1  6  0  0  0
 11 13  1  0  0  0  0
 13  8  1  1  0  0  0
 13 33  1  0  0  0  0
 14 46  1  0  0  0  0
 14 17  1  0  0  0  0
 14 25  1  6  0  0  0
 15 16  1  0  0  0  0
 15 29  1  0  0  0  0
 16 18  1  1  0  0  0
 16 21  1  0  0  0  0
 17 19  1  1  0  0  0
 17 20  1  0  0  0  0
 20 22  1  1  0  0  0
 20 24  1  0  0  0  0
 23 21  1  1  0  0  0
 23 26  1  0  0  0  0
 23 33  1  0  0  0  0
 24 25  1  6  0  0  0
 24 27  1  0  0  0  0
 26 29  1  1  0  0  0
 26 31  1  0  0  0  0
 27 28  1  0  0  0  0
 29 30  2  0  0  0  0
 31 32  1  0  0  0  0
 33 32  1  6  0  0  0
 34 36  1  0  0  0  0
 34 42  1  0  0  0  0
 36 37  1  6  0  0  0
 36 39  1  0  0  0  0
 40 39  1  6  0  0  0
 40 41  1  0  0  0  0
 40 46  1  0  0  0  0
 41 42  1  6  0  0  0
 41 44  1  0  0  0  0
 42 43  2  0  0  0  0
 44 45  1  0  0  0  0
 46 45  1  1  0  0  0
M  CHG  2   3  -1  35  -1
M  END
>  <CHROM.1>
-173.69245944,-130.42961868,158.18872135,43.64896284,144.55685050,-1.75865605
0.87583935,-2.20365446

>  <Name>
ligand

>  <RI>
0

>  <Rbt.Current_Directory>
/home/itssahil/PROJECTS/Mol_Feturizer/Test_systems_manuscript/rnas/4yb0

>  <Rbt.Executable>
rbdock ($Id: //depot/dev/client3/rdock/2013.1/src/exe/rbdock.cxx#4 $)

>  <Rbt.Library>
libRbt.so (2013.1, Build901 2013/11/27)

>  <Rbt.Parameter_File>
/export/apps/rDock/src/rDock_2013.1_src/data/scripts/dock_solv.prm

>  <Rbt.Receptor>
prm/pocket_docking_4.prm

>  <SCORE>
-41.8245

>  <SCORE.INTER>
-41.5025

>  <SCORE.INTER.CONST>
1

>  <SCORE.INTER.POLAR>
0

>  <SCORE.INTER.ROT>
2

>  <SCORE.INTER.SOLV>
30.3208

>  <SCORE.INTER.VDW>
-42.7086

>  <SCORE.INTER.norm>
-0.902227

>  <SCORE.INTRA>
-0.325608

>  <SCORE.INTRA.DIHEDRAL>
-0.0298189

>  <SCORE.INTRA.DIHEDRAL.0>
2.42188

>  <SCORE.INTRA.POLAR>
0

>  <SCORE.INTRA.POLAR.0>
0

>  <SCORE.INTRA.REPUL>
0

>  <SCORE.INTRA.REPUL.0>
0

>  <SCORE.INTRA.SOLV>
1.05531

>  <SCORE.INTRA.SOLV.lig_0>
-127.307

>  <SCORE.INTRA.VDW>
-0.838355

>  <SCORE.INTRA.VDW.0>
-2.19936

>  <SCORE.INTRA.norm>
-0.00707844

>  <SCORE.RESTR>
0.00353237

>  <SCORE.RESTR.CAVITY>
0.00353237

>  <SCORE.RESTR.norm>
7.67907e-05

>  <SCORE.SYSTEM>
0

>  <SCORE.SYSTEM.CONST>
0

>  <SCORE.SYSTEM.DIHEDRAL>
0

>  <SCORE.SYSTEM.SOLV>
0

>  <SCORE.SYSTEM.norm>
0

>  <SCORE.heavy>
46

>  <SCORE.norm>
-0.909229

>  <RMSD>
2.389

$$$$
ligand
 OpenBabel02271912143D
libRbt.so/2013.1/901 2013/11/27
 46 52  0  0  0  0  0  0  0  0999 V2000
  159.5560   41.7415  147.7772 P   0  0  1  0  0  0  0  0  0  0  0  0
  160.0158   46.0238  144.0514 P   0  0  1  0  0  0  0  0  0  0  0  0
  158.2035   41.0795  147.8355 O   0  5  0  0  0  0  0  0  0  0  0  0
  160.6744   41.0729  148.5466 O   0  0  0  0  0  0  0  0  0  0  0  0
  161.2738   41.7167  145.7653 C   0  0  0  0  0  0  0  0  0  0  0  0
  159.9510   41.9473  146.2323 O   0  0  0  0  0  0  0  0  0  0  0  0
  161.4601   42.3517  144.3971 C   0  0  1  0  0  0  0  0  0  0  0  0
  161.4077   41.3193  143.4227 O   0  0  0  0  0  0  0  0  0  0  0  0
  160.4030   43.3719  143.9940 C   0  0  1  0  0  0  0  0  0  0  0  0
  160.9296   44.6839  144.1276 O   0  0  0  0  0  0  0  0  0  0  0  0
  160.1923   43.0980  142.5218 C   0  0  1  0  0  0  0  0  0  0  0  0
  161.0957   43.8936  141.7517 O   0  0  0  0  0  0  0  0  0  0  0  0
  160.5898   41.6652  142.3154 C   0  0  2  0  0  0  0  0  0  0  0  0
  156.3932   45.3440  148.0271 C   0  0  1  0  0  0  0  0  0  0  0  0
  156.2027   40.2487  139.8067 N   0  0  0  0  0  0  0  0  0  0  0  0
  157.1473   41.1446  139.4630 C   0  0  1  0  0  0  0  0  0  0  0  0
  157.0370   43.9889  148.2335 C   0  0  2  0  0  0  0  0  0  0  0  0
  157.0156   41.8256  138.3027 N   0  0  0  0  0  0  0  0  0  0  0  0
  157.1351   43.7708  149.6437 O   0  0  0  0  0  0  0  0  0  0  0  0
  158.4147   44.0982  147.6072 C   0  0  2  0  0  0  0  0  0  0  0  0
  158.2351   41.4112  140.2208 N   0  0  0  0  0  0  0  0  0  0  0  0
  159.3612   43.2632  148.2728 O   0  0  0  0  0  0  0  0  0  0  0  0
  158.4361   40.7749  141.3946 C   0  0  2  0  0  0  0  0  0  0  0  0
  158.7317   45.5824  147.7768 C   0  0  2  0  0  0  0  0  0  0  0  0
  157.4797   46.2630  147.8854 O   0  0  0  0  0  0  0  0  0  0  0  0
  157.4457   39.7865  141.8327 C   0  0  2  0  0  0  0  0  0  0  0  0
  159.5501   46.2052  146.6415 C   0  0  0  0  0  0  0  0  0  0  0  0
  159.0609   45.8653  145.3447 O   0  0  0  0  0  0  0  0  0  0  0  0
  156.2796   39.5468  140.9502 C   0  0  0  0  0  0  0  0  0  0  0  0
  155.4027   38.7100  141.2741 O   0  0  0  0  0  0  0  0  0  0  0  0
  157.8828   39.3189  143.0156 N   0  0  0  0  0  0  0  0  0  0  0  0
  159.0469   39.9459  143.3103 C   0  0  0  0  0  0  0  0  0  0  0  0
  159.3758   40.8151  142.3390 N   0  0  1  0  0  0  0  0  0  0  0  0
  155.3340   47.7534  143.4762 N   0  0  0  0  0  0  0  0  0  0  0  0
  160.9622   47.1901  144.2658 O   0  5  0  0  0  0  0  0  0  0  0  0
  156.1979   48.0889  144.4468 C   0  0  2  0  0  0  0  0  0  0  0  0
  156.9247   49.2022  144.2692 N   0  0  0  0  0  0  0  0  0  0  0  0
  159.1350   45.9541  142.8277 O   0  0  0  0  0  0  0  0  0  0  0  0
  156.3711   47.3661  145.5781 N   0  0  0  0  0  0  0  0  0  0  0  0
  155.6616   46.2377  145.7891 C   0  0  1  0  0  0  0  0  0  0  0  0
  154.6927   45.8147  144.7581 C   0  0  1  0  0  0  0  0  0  0  0  0
  154.5722   46.6604  143.5432 C   0  0  0  0  0  0  0  0  0  0  0  0
  153.7775   46.3915  142.6168 O   0  0  0  0  0  0  0  0  0  0  0  0
  154.1351   44.6786  145.2059 N   0  0  0  0  0  0  0  0  0  0  0  0
  154.6954   44.4069  146.4173 C   0  0  0  0  0  0  0  0  0  0  0  0
  155.6091   45.3338  146.7672 N   0  0  2  0  0  0  0  0  0  0  0  0
  1  3  1  1  0  0  0
  1  4  2  0  0  0  0
  1  6  1  0  0  0  0
  1 22  1  0  0  0  0
  2 28  1  0  0  0  0
  2 35  1  1  0  0  0
  2 38  2  0  0  0  0
  2 10  1  0  0  0  0
  5  6  1  0  0  0  0
  7  5  1  1  0  0  0
  7  8  1  0  0  0  0
  7  9  1  0  0  0  0
  9 10  1  6  0  0  0
  9 11  1  0  0  0  0
 11 12  1  6  0  0  0
 11 13  1  0  0  0  0
 13  8  1  1  0  0  0
 13 33  1  0  0  0  0
 14 46  1  0  0  0  0
 14 17  1  0  0  0  0
 14 25  1  6  0  0  0
 15 16  1  0  0  0  0
 15 29  1  0  0  0  0
 16 18  1  1  0  0  0
 16 21  1  0  0  0  0
 17 19  1  1  0  0  0
 17 20  1  0  0  0  0
 20 22  1  1  0  0  0
 20 24  1  0  0  0  0
 23 21  1  1  0  0  0
 23 26  1  0  0  0  0
 23 33  1  0  0  0  0
 24 25  1  6  0  0  0
 24 27  1  0  0  0  0
 26 29  1  1  0  0  0
 26 31  1  0  0  0  0
 27 28  1  0  0  0  0
 29 30  2  0  0  0  0
 31 32  1  0  0  0  0
 33 32  1  6  0  0  0
 34 36  1  0  0  0  0
 34 42  1  0  0  0  0
 36 37  1  6  0  0  0
 36 39  1  0  0  0  0
 40 39  1  6  0  0  0
 40 41  1  0  0  0  0
 40 46  1  0  0  0  0
 41 42  1  6  0  0  0
 41 44  1  0  0  0  0
 42 43  2  0  0  0  0
 44 45  1  0  0  0  0
 46 45  1  1  0  0  0
M  CHG  2   3  -1  35  -1
M  END
>  <CHROM.1>
-173.85292676,-130.46114101,158.18961419,43.65459958,144.56784297,-1.75815769
0.87378188,-2.20816661

>  <Name>
ligand

>  <RI>
0

>  <Rbt.Current_Directory>
/home/itssahil/PROJECTS/Mol_Feturizer/Test_systems_manuscript/rnas/4yb0

>  <Rbt.Executable>
rbdock ($Id: //depot/dev/client3/rdock/2013.1/src/exe/rbdock.cxx#4 $)

>  <Rbt.Library>
libRbt.so (2013.1, Build901 2013/11/27)

>  <Rbt.Parameter_File>
/export/apps/rDock/src/rDock_2013.1_src/data/scripts/dock_solv.prm

>  <Rbt.Receptor>
prm/pocket_docking_4.prm

>  <SCORE>
-41.8242

>  <SCORE.INTER>
-41.5059

>  <SCORE.INTER.CONST>
1

>  <SCORE.INTER.POLAR>
0

>  <SCORE.INTER.ROT>
2

>  <SCORE.INTER.SOLV>
30.2007

>  <SCORE.INTER.VDW>
-42.6708

>  <SCORE.INTER.norm>
-0.902302

>  <SCORE.INTRA>
-0.328057

>  <SCORE.INTRA.DIHEDRAL>
-0.0300454

>  <SCORE.INTRA.DIHEDRAL.0>
2.42188

>  <SCORE.INTRA.POLAR>
0

>  <SCORE.INTRA.POLAR.0>
0

>  <SCORE.INTRA.REPUL>
0

>  <SCORE.INTRA.REPUL.0>
0

>  <SCORE.INTRA.SOLV>
1.04463

>  <SCORE.INTRA.SOLV.lig_0>
-127.307

>  <SCORE.INTRA.VDW>
-0.835348

>  <SCORE.INTRA.VDW.0>
-2.19936

>  <SCORE.INTRA.norm>
-0.00713167

>  <SCORE.RESTR>
0.00974588

>  <SCORE.RESTR.CAVITY>
0.00974588

>  <SCORE.RESTR.norm>
0.000211867

>  <SCORE.SYSTEM>
0

>  <SCORE.SYSTEM.CONST>
0

>  <SCORE.SYSTEM.DIHEDRAL>
0

>  <SCORE.SYSTEM.SOLV>
0

>  <SCORE.SYSTEM.norm>
0

>  <SCORE.heavy>
46

>  <SCORE.norm>
-0.909222

>  <RMSD>
2.390

$$$$
ligand
 OpenBabel02271912143D
libRbt.so/2013.1/901 2013/11/27
 46 52  0  0  0  0  0  0  0  0999 V2000
  159.5287   41.7518  147.7785 P   0  0  1  0  0  0  0  0  0  0  0  0
  160.0009   46.0528  144.0759 P   0  0  1  0  0  0  0  0  0  0  0  0
  158.1746   41.0926  147.8322 O   0  5  0  0  0  0  0  0  0  0  0  0
  160.6450   41.0767  148.5451 O   0  0  0  0  0  0  0  0  0  0  0  0
  161.2479   41.7340  145.7677 C   0  0  0  0  0  0  0  0  0  0  0  0
  159.9253   41.9650  146.2350 O   0  0  0  0  0  0  0  0  0  0  0  0
  161.4367   42.3757  144.4030 C   0  0  1  0  0  0  0  0  0  0  0  0
  161.3827   41.3487  143.4231 O   0  0  0  0  0  0  0  0  0  0  0  0
  160.3822   43.4005  144.0046 C   0  0  1  0  0  0  0  0  0  0  0  0
  160.9116   44.7106  144.1455 O   0  0  0  0  0  0  0  0  0  0  0  0
  160.1720   43.1349  142.5308 C   0  0  1  0  0  0  0  0  0  0  0  0
  161.0777   43.9325  141.7656 O   0  0  0  0  0  0  0  0  0  0  0  0
  160.5663   41.7023  142.3171 C   0  0  2  0  0  0  0  0  0  0  0  0
  156.3737   45.3601  148.0451 C   0  0  1  0  0  0  0  0  0  0  0  0
  156.2015   40.2749  139.7760 N   0  0  0  0  0  0  0  0  0  0  0  0
  157.1513   41.1661  139.4347 C   0  0  1  0  0  0  0  0  0  0  0  0
  157.0144   44.0025  148.2448 C   0  0  2  0  0  0  0  0  0  0  0  0
  157.0325   41.8383  138.2679 N   0  0  0  0  0  0  0  0  0  0  0  0
  157.1109   43.7767  149.6539 O   0  0  0  0  0  0  0  0  0  0  0  0
  158.3928   44.1120  147.6201 C   0  0  2  0  0  0  0  0  0  0  0  0
  158.2321   41.4365  140.2013 N   0  0  0  0  0  0  0  0  0  0  0  0
  159.3369   43.2713  148.2820 O   0  0  0  0  0  0  0  0  0  0  0  0
  158.4201   40.8091  141.3819 C   0  0  2  0  0  0  0  0  0  0  0  0
  158.7130   45.5945  147.7979 C   0  0  2  0  0  0  0  0  0  0  0  0
  157.4624   46.2774  147.9092 O   0  0  0  0  0  0  0  0  0  0  0  0
  157.4233   39.8261  141.8179 C   0  0  2  0  0  0  0  0  0  0  0  0
  159.5336   46.2215  146.6665 C   0  0  0  0  0  0  0  0  0  0  0  0
  159.0447   45.8897  145.3676 O   0  0  0  0  0  0  0  0  0  0  0  0
  156.2656   39.5817  140.9258 C   0  0  0  0  0  0  0  0  0  0  0  0
  155.3838   38.7493  141.2474 O   0  0  0  0  0  0  0  0  0  0  0  0
  157.8477   39.3669  143.0087 N   0  0  0  0  0  0  0  0  0  0  0  0
  159.0102   39.9939  143.3100 C   0  0  0  0  0  0  0  0  0  0  0  0
  159.3505   40.8549  142.3352 N   0  0  1  0  0  0  0  0  0  0  0  0
  155.3520   47.7750  143.4887 N   0  0  0  0  0  0  0  0  0  0  0  0
  160.9497   47.2159  144.2972 O   0  5  0  0  0  0  0  0  0  0  0  0
  156.2197   48.1003  144.4593 C   0  0  2  0  0  0  0  0  0  0  0  0
  156.9621   49.2030  144.2801 N   0  0  0  0  0  0  0  0  0  0  0  0
  159.1209   45.9917  142.8511 O   0  0  0  0  0  0  0  0  0  0  0  0
  156.3819   47.3774  145.5922 N   0  0  0  0  0  0  0  0  0  0  0  0
  155.6565   46.2595  145.8049 C   0  0  1  0  0  0  0  0  0  0  0  0
  154.6826   45.8480  144.7739 C   0  0  1  0  0  0  0  0  0  0  0  0
  154.5748   46.6929  143.5573 C   0  0  0  0  0  0  0  0  0  0  0  0
  153.7772   46.4333  142.6307 O   0  0  0  0  0  0  0  0  0  0  0  0
  154.1088   44.7207  145.2235 N   0  0  0  0  0  0  0  0  0  0  0  0
  154.6643   44.4436  146.4359 C   0  0  0  0  0  0  0  0  0  0  0  0
  155.5906   45.3584  146.7846 N   0  0  2  0  0  0  0  0  0  0  0  0
  1  3  1  1  0  0  0
  1  4  2  0  0  0  0
  1  6  1  0  0  0  0
  1 22  1  0  0  0  0
  2 28  1  0  0  0  0
  2 35  1  1  0  0  0
  2 38  2  0  0  0  0
  2 10  1  0  0  0  0
  5  6  1  0  0  0  0
  7  5  1  1  0  0  0
  7  8  1  0  0  0  0
  7  9  1  0  0  0  0
  9 10  1  6  0  0  0
  9 11  1  0  0  0  0
 11 12  1  6  0  0  0
 11 13  1  0  0  0  0
 13  8  1  1  0  0  0
 13 33  1  0  0  0  0
 14 46  1  0  0  0  0
 14 17  1  0  0  0  0
 14 25  1  6  0  0  0
 15 16  1  0  0  0  0
 15 29  1  0  0  0  0
 16 18  1  1  0  0  0
 16 21  1  0  0  0  0
 17 19  1  1  0  0  0
 17 20  1  0  0  0  0
 20 22  1  1  0  0  0
 20 24  1  0  0  0  0
 23 21  1  1  0  0  0
 23 26  1  0  0  0  0
 23 33  1  0  0  0  0
 24 25  1  6  0  0  0
 24 27  1  0  0  0  0
 26 29  1  1  0  0  0
 26 31  1  0  0  0  0
 27 28  1  0  0  0  0
 29 30  2  0  0  0  0
 31 32  1  0  0  0  0
 33 32  1  6  0  0  0
 34 36  1  0  0  0  0
 34 42  1  0  0  0  0
 36 37  1  6  0  0  0
 36 39  1  0  0  0  0
 40 39  1  6  0  0  0
 40 41  1  0  0  0  0
 40 46  1  0  0  0  0
 41 42  1  6  0  0  0
 41 44  1  0  0  0  0
 42 43  2  0  0  0  0
 44 45  1  0  0  0  0
 46 45  1  1  0  0  0
M  CHG  2   3  -1  35  -1
M  END
>  <CHROM.1>
-172.93273378,-129.66864344,158.17466214,43.67906482,144.57403425,-1.75159355
0.87971288,-2.20269308

>  <Name>
ligand

>  <RI>
0

>  <Rbt.Current_Directory>
/home/itssahil/PROJECTS/Mol_Feturizer/Test_systems_manuscript/rnas/4yb0

>  <Rbt.Executable>
rbdock ($Id: //depot/dev/client3/rdock/2013.1/src/exe/rbdock.cxx#4 $)

>  <Rbt.Library>
libRbt.so (2013.1, Build901 2013/11/27)

>  <Rbt.Parameter_File>
/export/apps/rDock/src/rDock_2013.1_src/data/scripts/dock_solv.prm

>  <Rbt.Receptor>
prm/pocket_docking_4.prm

>  <SCORE>
-41.7695

>  <SCORE.INTER>
-41.5404

>  <SCORE.INTER.CONST>
1

>  <SCORE.INTER.POLAR>
0

>  <SCORE.INTER.ROT>
2

>  <SCORE.INTER.SOLV>
29.9913

>  <SCORE.INTER.VDW>
-42.6241

>  <SCORE.INTER.norm>
-0.903053

>  <SCORE.INTRA>
-0.229054

>  <SCORE.INTRA.DIHEDRAL>
-0.0279069

>  <SCORE.INTRA.DIHEDRAL.0>
2.42188

>  <SCORE.INTRA.POLAR>
0

>  <SCORE.INTRA.POLAR.0>
0

>  <SCORE.INTRA.REPUL>
0

>  <SCORE.INTRA.REPUL.0>
0

>  <SCORE.INTRA.SOLV>
1.37792

>  <SCORE.INTRA.SOLV.lig_0>
-127.307

>  <SCORE.INTRA.VDW>
-0.904059

>  <SCORE.INTRA.VDW.0>
-2.19936

>  <SCORE.INTRA.norm>
-0.00497944

>  <SCORE.RESTR>
0

>  <SCORE.RESTR.CAVITY>
0

>  <SCORE.RESTR.norm>
0

>  <SCORE.SYSTEM>
0

>  <SCORE.SYSTEM.CONST>
0

>  <SCORE.SYSTEM.DIHEDRAL>
0

>  <SCORE.SYSTEM.SOLV>
0

>  <SCORE.SYSTEM.norm>
0

>  <SCORE.heavy>
46

>  <SCORE.norm>
-0.908033

>  <RMSD>
2.393

$$$$
ligand
 OpenBabel02271912143D
libRbt.so/2013.1/901 2013/11/27
 46 52  0  0  0  0  0  0  0  0999 V2000
  159.5366   41.7274  147.7620 P   0  0  1  0  0  0  0  0  0  0  0  0
  160.0305   46.0241  144.0573 P   0  0  1  0  0  0  0  0  0  0  0  0
  158.1807   41.0715  147.8123 O   0  5  0  0  0  0  0  0  0  0  0  0
  160.6489   41.0500  148.5324 O   0  0  0  0  0  0  0  0  0  0  0  0
  161.2617   41.7035  145.7563 C   0  0  0  0  0  0  0  0  0  0  0  0
  159.9383   41.9383  146.2195 O   0  0  0  0  0  0  0  0  0  0  0  0
  161.4561   42.3437  144.3917 C   0  0  1  0  0  0  0  0  0  0  0  0
  161.4024   41.3160  143.4124 O   0  0  0  0  0  0  0  0  0  0  0  0
  160.4054   43.3707  143.9893 C   0  0  1  0  0  0  0  0  0  0  0  0
  160.9377   44.6796  144.1308 O   0  0  0  0  0  0  0  0  0  0  0  0
  160.1989   43.1045  142.5151 C   0  0  1  0  0  0  0  0  0  0  0  0
  161.1089   43.8992  141.7519 O   0  0  0  0  0  0  0  0  0  0  0  0
  160.5903   41.6708  142.3038 C   0  0  2  0  0  0  0  0  0  0  0  0
  156.3899   45.3437  148.0164 C   0  0  1  0  0  0  0  0  0  0  0  0
  156.2144   40.2740  139.7645 N   0  0  0  0  0  0  0  0  0  0  0  0
  157.1656   41.1654  139.4273 C   0  0  1  0  0  0  0  0  0  0  0  0
  157.0266   43.9847  148.2191 C   0  0  2  0  0  0  0  0  0  0  0  0
  157.0452   41.8466  138.2659 N   0  0  0  0  0  0  0  0  0  0  0  0
  157.1184   43.7598  149.6286 O   0  0  0  0  0  0  0  0  0  0  0  0
  158.4071   44.0902  147.5984 C   0  0  2  0  0  0  0  0  0  0  0  0
  158.2493   41.4271  140.1927 N   0  0  0  0  0  0  0  0  0  0  0  0
  159.3472   43.2478  148.2637 O   0  0  0  0  0  0  0  0  0  0  0  0
  158.4390   40.7902  141.3681 C   0  0  2  0  0  0  0  0  0  0  0  0
  158.7305   45.5721  147.7759 C   0  0  2  0  0  0  0  0  0  0  0  0
  157.4813   46.2582  147.8829 O   0  0  0  0  0  0  0  0  0  0  0  0
  157.4409   39.8066  141.7994 C   0  0  2  0  0  0  0  0  0  0  0  0
  159.5560   46.1961  146.6464 C   0  0  0  0  0  0  0  0  0  0  0  0
  159.0701   45.8644  145.3463 O   0  0  0  0  0  0  0  0  0  0  0  0
  156.2800   39.5720  140.9088 C   0  0  0  0  0  0  0  0  0  0  0  0
  155.3969   38.7395  141.2267 O   0  0  0  0  0  0  0  0  0  0  0  0
  157.8675   39.3373  142.9855 N   0  0  0  0  0  0  0  0  0  0  0  0
  159.0325   39.9589  143.2882 C   0  0  0  0  0  0  0  0  0  0  0  0
  159.3723   40.8264  142.3190 N   0  0  1  0  0  0  0  0  0  0  0  0
  155.3634   47.7755  143.4700 N   0  0  0  0  0  0  0  0  0  0  0  0
  160.9816   47.1850  144.2805 O   0  5  0  0  0  0  0  0  0  0  0  0
  156.2258   48.1020  144.4449 C   0  0  2  0  0  0  0  0  0  0  0  0
  156.9604   49.2112  144.2738 N   0  0  0  0  0  0  0  0  0  0  0  0
  159.1540   45.9642  142.8300 O   0  0  0  0  0  0  0  0  0  0  0  0
  156.3901   47.3743  145.5744 N   0  0  0  0  0  0  0  0  0  0  0  0
  155.6725   46.2498  145.7789 C   0  0  1  0  0  0  0  0  0  0  0  0
  154.7048   45.8366  144.7428 C   0  0  1  0  0  0  0  0  0  0  0  0
  154.5942   46.6872  143.5304 C   0  0  0  0  0  0  0  0  0  0  0  0
  153.8013   46.4266  142.6001 O   0  0  0  0  0  0  0  0  0  0  0  0
  154.1382   44.7026  145.1846 N   0  0  0  0  0  0  0  0  0  0  0  0
  154.6921   44.4231  146.3971 C   0  0  0  0  0  0  0  0  0  0  0  0
  155.6105   45.3429  146.7536 N   0  0  2  0  0  0  0  0  0  0  0  0
  1  3  1  1  0  0  0
  1  4  2  0  0  0  0
  1  6  1  0  0  0  0
  1 22  1  0  0  0  0
  2 28  1  0  0  0  0
  2 35  1  1  0  0  0
  2 38  2  0  0  0  0
  2 10  1  0  0  0  0
  5  6  1  0  0  0  0
  7  5  1  1  0  0  0
  7  8  1  0  0  0  0
  7  9  1  0  0  0  0
  9 10  1  6  0  0  0
  9 11  1  0  0  0  0
 11 12  1  6  0  0  0
 11 13  1  0  0  0  0
 13  8  1  1  0  0  0
 13 33  1  0  0  0  0
 14 46  1  0  0  0  0
 14 17  1  0  0  0  0
 14 25  1  6  0  0  0
 15 16  1  0  0  0  0
 15 29  1  0  0  0  0
 16 18  1  1  0  0  0
 16 21  1  0  0  0  0
 17 19  1  1  0  0  0
 17 20  1  0  0  0  0
 20 22  1  1  0  0  0
 20 24  1  0  0  0  0
 23 21  1  1  0  0  0
 23 26  1  0  0  0  0
 23 33  1  0  0  0  0
 24 25  1  6  0  0  0
 24 27  1  0  0  0  0
 26 29  1  1  0  0  0
 26 31  1  0  0  0  0
 27 28  1  0  0  0  0
 29 30  2  0  0  0  0
 31 32  1  0  0  0  0
 33 32  1  6  0  0  0
 34 36  1  0  0  0  0
 34 42  1  0  0  0  0
 36 37  1  6  0  0  0
 36 39  1  0  0  0  0
 40 39  1  6  0  0  0
 40 41  1  0  0  0  0
 40 46  1  0  0  0  0
 41 42  1  6  0  0  0
 41 44  1  0  0  0  0
 42 43  2  0  0  0  0
 44 45  1  0  0  0  0
 46 45  1  1  0  0  0
M  CHG  2   3  -1  35  -1
M  END
>  <CHROM.1>
-173.51850962,-130.34346775,158.19261178,43.65968505,144.55511250,-1.75773329
0.88062637,-2.20304134

>  <Name>
ligand

>  <RI>
0

>  <Rbt.Current_Directory>
/home/itssahil/PROJECTS/Mol_Feturizer/Test_systems_manuscript/rnas/4yb0

>  <Rbt.Executable>
rbdock ($Id: //depot/dev/client3/rdock/2013.1/src/exe/rbdock.cxx#4 $)

>  <Rbt.Library>
libRbt.so (2013.1, Build901 2013/11/27)

>  <Rbt.Parameter_File>
/export/apps/rDock/src/rDock_2013.1_src/data/scripts/dock_solv.prm

>  <Rbt.Receptor>
prm/pocket_docking_4.prm

>  <SCORE>
-41.8322

>  <SCORE.INTER>
-41.5201

>  <SCORE.INTER.CONST>
1

>  <SCORE.INTER.POLAR>
0

>  <SCORE.INTER.ROT>
2

>  <SCORE.INTER.SOLV>
30.1849

>  <SCORE.INTER.VDW>
-42.6751

>  <SCORE.INTER.norm>
-0.902612

>  <SCORE.INTRA>
-0.316785

>  <SCORE.INTRA.DIHEDRAL>
-0.0295029

>  <SCORE.INTRA.DIHEDRAL.0>
2.42188

>  <SCORE.INTRA.POLAR>
0

>  <SCORE.INTRA.POLAR.0>
0

>  <SCORE.INTRA.REPUL>
0

>  <SCORE.INTRA.REPUL.0>
0

>  <SCORE.INTRA.SOLV>
1.08463

>  <SCORE.INTRA.SOLV.lig_0>
-127.307

>  <SCORE.INTRA.VDW>
-0.84435

>  <SCORE.INTRA.VDW.0>
-2.19936

>  <SCORE.INTRA.norm>
-0.00688662

>  <SCORE.RESTR>
0.00468914

>  <SCORE.RESTR.CAVITY>
0.00468914

>  <SCORE.RESTR.norm>
0.000101938

>  <SCORE.SYSTEM>
0

>  <SCORE.SYSTEM.CONST>
0

>  <SCORE.SYSTEM.DIHEDRAL>
0

>  <SCORE.SYSTEM.SOLV>
0

>  <SCORE.SYSTEM.norm>
0

>  <SCORE.heavy>
46

>  <SCORE.norm>
-0.909397

>  <RMSD>
2.393

$$$$
ligand
 OpenBabel02271912143D
libRbt.so/2013.1/901 2013/11/27
 46 52  0  0  0  0  0  0  0  0999 V2000
  159.5359   41.7254  147.7592 P   0  0  1  0  0  0  0  0  0  0  0  0
  160.0341   46.0203  144.0529 P   0  0  1  0  0  0  0  0  0  0  0  0
  158.1785   41.0728  147.8119 O   0  5  0  0  0  0  0  0  0  0  0  0
  160.6479   41.0455  148.5279 O   0  0  0  0  0  0  0  0  0  0  0  0
  161.2576   41.6970  145.7506 C   0  0  0  0  0  0  0  0  0  0  0  0
  159.9355   41.9350  146.2160 O   0  0  0  0  0  0  0  0  0  0  0  0
  161.4513   42.3364  144.3856 C   0  0  1  0  0  0  0  0  0  0  0  0
  161.3934   41.3087  143.4066 O   0  0  0  0  0  0  0  0  0  0  0  0
  160.4024   43.3660  143.9848 C   0  0  1  0  0  0  0  0  0  0  0  0
  160.9381   44.6736  144.1251 O   0  0  0  0  0  0  0  0  0  0  0  0
  160.1927   43.1000  142.5109 C   0  0  1  0  0  0  0  0  0  0  0  0
  161.1034   43.8923  141.7461 O   0  0  0  0  0  0  0  0  0  0  0  0
  160.5803   41.6652  142.2992 C   0  0  2  0  0  0  0  0  0  0  0  0
  156.3985   45.3494  148.0182 C   0  0  1  0  0  0  0  0  0  0  0  0
  156.2014   40.2720  139.7634 N   0  0  0  0  0  0  0  0  0  0  0  0
  157.1547   41.1601  139.4237 C   0  0  1  0  0  0  0  0  0  0  0  0
  157.0322   43.9888  148.2201 C   0  0  2  0  0  0  0  0  0  0  0  0
  157.0361   41.8385  138.2605 N   0  0  0  0  0  0  0  0  0  0  0  0
  157.1258   43.7640  149.6295 O   0  0  0  0  0  0  0  0  0  0  0  0
  158.4119   44.0910  147.5971 C   0  0  2  0  0  0  0  0  0  0  0  0
  158.2390   41.4213  140.1886 N   0  0  0  0  0  0  0  0  0  0  0  0
  159.3510   43.2463  148.2610 O   0  0  0  0  0  0  0  0  0  0  0  0
  158.4270   40.7873  141.3657 C   0  0  2  0  0  0  0  0  0  0  0  0
  158.7392   45.5720  147.7738 C   0  0  2  0  0  0  0  0  0  0  0  0
  157.4919   46.2612  147.8827 O   0  0  0  0  0  0  0  0  0  0  0  0
  157.4265   39.8072  141.7997 C   0  0  2  0  0  0  0  0  0  0  0  0
  159.5644   46.1938  146.6427 C   0  0  0  0  0  0  0  0  0  0  0  0
  159.0754   45.8631  145.3435 O   0  0  0  0  0  0  0  0  0  0  0  0
  156.2651   39.5730  140.9096 C   0  0  0  0  0  0  0  0  0  0  0  0
  155.3800   38.7434  141.2296 O   0  0  0  0  0  0  0  0  0  0  0  0
  157.8518   39.3402  142.9870 N   0  0  0  0  0  0  0  0  0  0  0  0
  159.0182   39.9598  143.2882 C   0  0  0  0  0  0  0  0  0  0  0  0
  159.3603   40.8238  142.3166 N   0  0  1  0  0  0  0  0  0  0  0  0
  155.3653   47.7865  143.4761 N   0  0  0  0  0  0  0  0  0  0  0  0
  160.9883   47.1788  144.2743 O   0  5  0  0  0  0  0  0  0  0  0  0
  156.2295   48.1116  144.4500 C   0  0  2  0  0  0  0  0  0  0  0  0
  156.9643   49.2206  144.2788 N   0  0  0  0  0  0  0  0  0  0  0  0
  159.1553   45.9622  142.8271 O   0  0  0  0  0  0  0  0  0  0  0  0
  156.3954   47.3826  145.5784 N   0  0  0  0  0  0  0  0  0  0  0  0
  155.6777   46.2582  145.7829 C   0  0  1  0  0  0  0  0  0  0  0  0
  154.7080   45.8465  144.7480 C   0  0  1  0  0  0  0  0  0  0  0  0
  154.5958   46.6984  143.5367 C   0  0  0  0  0  0  0  0  0  0  0  0
  153.8012   46.4392  142.6074 O   0  0  0  0  0  0  0  0  0  0  0  0
  154.1417   44.7122  145.1895 N   0  0  0  0  0  0  0  0  0  0  0  0
  154.6976   44.4313  146.4008 C   0  0  0  0  0  0  0  0  0  0  0  0
  155.6170   45.3503  146.7567 N   0  0  2  0  0  0  0  0  0  0  0  0
  1  3  1  1  0  0  0
  1  4  2  0  0  0  0
  1  6  1  0  0  0  0
  1 22  1  0  0  0  0
  2 28  1  0  0  0  0
  2 35  1  1  0  0  0
  2 38  2  0  0  0  0
  2 10  1  0  0  0  0
  5  6  1  0  0  0  0
  7  5  1  1  0  0  0
  7  8  1  0  0  0  0
  7  9  1  0  0  0  0
  9 10  1  6  0  0  0
  9 11  1  0  0  0  0
 11 12  1  6  0  0  0
 11 13  1  0  0  0  0
 13  8  1  1  0  0  0
 13 33  1  0  0  0  0
 14 46  1  0  0  0  0
 14 17  1  0  0  0  0
 14 25  1  6  0  0  0
 15 16  1  0  0  0  0
 15 29  1  0  0  0  0
 16 18  1  1  0  0  0
 16 21  1  0  0  0  0
 17 19  1  1  0  0  0
 17 20  1  0  0  0  0
 20 22  1  1  0  0  0
 20 24  1  0  0  0  0
 23 21  1  1  0  0  0
 23 26  1  0  0  0  0
 23 33  1  0  0  0  0
 24 25  1  6  0  0  0
 24 27  1  0  0  0  0
 26 29  1  1  0  0  0
 26 31  1  0  0  0  0
 27 28  1  0  0  0  0
 29 30  2  0  0  0  0
 31 32  1  0  0  0  0
 33 32  1  6  0  0  0
 34 36  1  0  0  0  0
 34 42  1  0  0  0  0
 36 37  1  6  0  0  0
 36 39  1  0  0  0  0
 40 39  1  6  0  0  0
 40 41  1  0  0  0  0
 40 46  1  0  0  0  0
 41 42  1  6  0  0  0
 41 44  1  0  0  0  0
 42 43  2  0  0  0  0
 44 45  1  0  0  0  0
 46 45  1  1  0  0  0
M  CHG  2   3  -1  35  -1
M  END
>  <CHROM.1>
-173.33898158,-130.47957036,158.19120560,43.66004464,144.55409612,-1.75452449
0.88143194,-2.20635063

>  <Name>
ligand

>  <RI>
0

>  <Rbt.Current_Directory>
/home/itssahil/PROJECTS/Mol_Feturizer/Test_systems_manuscript/rnas/4yb0

>  <Rbt.Executable>
rbdock ($Id: //depot/dev/client3/rdock/2013.1/src/exe/rbdock.cxx#4 $)

>  <Rbt.Library>
libRbt.so (2013.1, Build901 2013/11/27)

>  <Rbt.Parameter_File>
/export/apps/rDock/src/rDock_2013.1_src/data/scripts/dock_solv.prm

>  <Rbt.Receptor>
prm/pocket_docking_4.prm

>  <SCORE>
-41.8378

>  <SCORE.INTER>
-41.5098

>  <SCORE.INTER.CONST>
1

>  <SCORE.INTER.POLAR>
0

>  <SCORE.INTER.ROT>
2

>  <SCORE.INTER.SOLV>
30.2286

>  <SCORE.INTER.VDW>
-42.6827

>  <SCORE.INTER.norm>
-0.902386

>  <SCORE.INTRA>
-0.334395

>  <SCORE.INTRA.DIHEDRAL>
-0.0294848

>  <SCORE.INTRA.DIHEDRAL.0>
2.42188

>  <SCORE.INTRA.POLAR>
0

>  <SCORE.INTRA.POLAR.0>
0

>  <SCORE.INTRA.REPUL>
0

>  <SCORE.INTRA.REPUL.0>
0

>  <SCORE.INTRA.SOLV>
1.03807

>  <SCORE.INTRA.SOLV.lig_0>
-127.307

>  <SCORE.INTRA.VDW>
-0.838689

>  <SCORE.INTRA.VDW.0>
-2.19936

>  <SCORE.INTRA.norm>
-0.00726945

>  <SCORE.RESTR>
0.00638963

>  <SCORE.RESTR.CAVITY>
0.00638963

>  <SCORE.RESTR.norm>
0.000138905

>  <SCORE.SYSTEM>
0

>  <SCORE.SYSTEM.CONST>
0

>  <SCORE.SYSTEM.DIHEDRAL>
0

>  <SCORE.SYSTEM.SOLV>
0

>  <SCORE.SYSTEM.norm>
0

>  <SCORE.heavy>
46

>  <SCORE.norm>
-0.909516

>  <RMSD>
2.396

$$$$
ligand
 OpenBabel02271912143D
libRbt.so/2013.1/901 2013/11/27
 46 52  0  0  0  0  0  0  0  0999 V2000
  159.5585   41.7157  147.7574 P   0  0  1  0  0  0  0  0  0  0  0  0
  160.0388   46.0302  144.0716 P   0  0  1  0  0  0  0  0  0  0  0  0
  158.2035   41.0580  147.8078 O   0  5  0  0  0  0  0  0  0  0  0  0
  160.6734   41.0361  148.5221 O   0  0  0  0  0  0  0  0  0  0  0  0
  161.2789   41.7032  145.7476 C   0  0  0  0  0  0  0  0  0  0  0  0
  159.9563   41.9342  146.2150 O   0  0  0  0  0  0  0  0  0  0  0  0
  161.4694   42.3499  144.3856 C   0  0  1  0  0  0  0  0  0  0  0  0
  161.4146   41.3267  143.4017 O   0  0  0  0  0  0  0  0  0  0  0  0
  160.4166   43.3776  143.9904 C   0  0  1  0  0  0  0  0  0  0  0  0
  160.9477   44.6864  144.1367 O   0  0  0  0  0  0  0  0  0  0  0  0
  160.2069   43.1180  142.5155 C   0  0  1  0  0  0  0  0  0  0  0  0
  161.1141   43.9173  141.7539 O   0  0  0  0  0  0  0  0  0  0  0  0
  160.5994   41.6857  142.2966 C   0  0  2  0  0  0  0  0  0  0  0  0
  156.4083   45.3271  148.0360 C   0  0  1  0  0  0  0  0  0  0  0  0
  156.1848   40.3457  139.7941 N   0  0  0  0  0  0  0  0  0  0  0  0
  157.1299   41.2460  139.4634 C   0  0  1  0  0  0  0  0  0  0  0  0
  157.0470   43.9679  148.2309 C   0  0  2  0  0  0  0  0  0  0  0  0
  156.9906   41.9550  138.3209 N   0  0  0  0  0  0  0  0  0  0  0  0
  157.1423   43.7366  149.6391 O   0  0  0  0  0  0  0  0  0  0  0  0
  158.4259   44.0780  147.6075 C   0  0  2  0  0  0  0  0  0  0  0  0
  158.2254   41.4904  140.2176 N   0  0  0  0  0  0  0  0  0  0  0  0
  159.3685   43.2335  148.2667 O   0  0  0  0  0  0  0  0  0  0  0  0
  158.4342   40.8256  141.3741 C   0  0  2  0  0  0  0  0  0  0  0  0
  158.7480   45.5594  147.7911 C   0  0  2  0  0  0  0  0  0  0  0  0
  157.4983   46.2435  147.9042 O   0  0  0  0  0  0  0  0  0  0  0  0
  157.4438   39.8307  141.7974 C   0  0  2  0  0  0  0  0  0  0  0  0
  159.5702   46.1896  146.6626 C   0  0  0  0  0  0  0  0  0  0  0  0
  159.0816   45.8634  145.3621 O   0  0  0  0  0  0  0  0  0  0  0  0
  156.2691   39.6164  140.9199 C   0  0  0  0  0  0  0  0  0  0  0  0
  155.3918   38.7754  141.2315 O   0  0  0  0  0  0  0  0  0  0  0  0
  157.8895   39.3334  142.9648 N   0  0  0  0  0  0  0  0  0  0  0  0
  159.0587   39.9488  143.2640 C   0  0  0  0  0  0  0  0  0  0  0  0
  159.3824   40.8398  142.3107 N   0  0  1  0  0  0  0  0  0  0  0  0
  155.3402   47.7989  143.5208 N   0  0  0  0  0  0  0  0  0  0  0  0
  160.9890   47.1911  144.2980 O   0  5  0  0  0  0  0  0  0  0  0  0
  156.2007   48.1249  144.4976 C   0  0  2  0  0  0  0  0  0  0  0  0
  156.9209   49.2452  144.3379 N   0  0  0  0  0  0  0  0  0  0  0  0
  159.1594   45.9749  142.8461 O   0  0  0  0  0  0  0  0  0  0  0  0
  156.3770   47.3861  145.6181 N   0  0  0  0  0  0  0  0  0  0  0  0
  155.6741   46.2503  145.8109 C   0  0  1  0  0  0  0  0  0  0  0  0
  154.7091   45.8371  144.7723 C   0  0  1  0  0  0  0  0  0  0  0  0
  154.5850   46.7004  143.5702 C   0  0  0  0  0  0  0  0  0  0  0  0
  153.7932   46.4407  142.6387 O   0  0  0  0  0  0  0  0  0  0  0  0
  154.1580   44.6909  145.2020 N   0  0  0  0  0  0  0  0  0  0  0  0
  154.7183   44.4042  146.4099 C   0  0  0  0  0  0  0  0  0  0  0  0
  155.6259   45.3313  146.7751 N   0  0  2  0  0  0  0  0  0  0  0  0
  1  3  1  1  0  0  0
  1  4  2  0  0  0  0
  1  6  1  0  0  0  0
  1 22  1  0  0  0  0
  2 28  1  0  0  0  0
  2 35  1  1  0  0  0
  2 38  2  0  0  0  0
  2 10  1  0  0  0  0
  5  6  1  0  0  0  0
  7  5  1  1  0  0  0
  7  8  1  0  0  0  0
  7  9  1  0  0  0  0
  9 10  1  6  0  0  0
  9 11  1  0  0  0  0
 11 12  1  6  0  0  0
 11 13  1  0  0  0  0
 13  8  1  1  0  0  0
 13 33  1  0  0  0  0
 14 46  1  0  0  0  0
 14 17  1  0  0  0  0
 14 25  1  6  0  0  0
 15 16  1  0  0  0  0
 15 29  1  0  0  0  0
 16 18  1  1  0  0  0
 16 21  1  0  0  0  0
 17 19  1  1  0  0  0
 17 20  1  0  0  0  0
 20 22  1  1  0  0  0
 20 24  1  0  0  0  0
 23 21  1  1  0  0  0
 23 26  1  0  0  0  0
 23 33  1  0  0  0  0
 24 25  1  6  0  0  0
 24 27  1  0  0  0  0
 26 29  1  1  0  0  0
 26 31  1  0  0  0  0
 27 28  1  0  0  0  0
 29 30  2  0  0  0  0
 31 32  1  0  0  0  0
 33 32  1  6  0  0  0
 34 36  1  0  0  0  0
 34 42  1  0  0  0  0
 36 37  1  6  0  0  0
 36 39  1  0  0  0  0
 40 39  1  6  0  0  0
 40 41  1  0  0  0  0
 40 46  1  0  0  0  0
 41 42  1  6  0  0  0
 41 44  1  0  0  0  0
 42 43  2  0  0  0  0
 44 45  1  0  0  0  0
 46 45  1  1  0  0  0
M  CHG  2   3  -1  35  -1
M  END
>  <CHROM.1>
-174.87805259,-131.11650450,158.19794846,43.66896240,144.56821331,-1.76126792
0.87401478,-2.20143922

>  <Name>
ligand

>  <RI>
0

>  <Rbt.Current_Directory>
/home/itssahil/PROJECTS/Mol_Feturizer/Test_systems_manuscript/rnas/4yb0

>  <Rbt.Executable>
rbdock ($Id: //depot/dev/client3/rdock/2013.1/src/exe/rbdock.cxx#4 $)

>  <Rbt.Library>
libRbt.so (2013.1, Build901 2013/11/27)

>  <Rbt.Parameter_File>
/export/apps/rDock/src/rDock_2013.1_src/data/scripts/dock_solv.prm

>  <Rbt.Receptor>
prm/pocket_docking_4.prm

>  <SCORE>
-41.7554

>  <SCORE.INTER>
-41.3911

>  <SCORE.INTER.CONST>
1

>  <SCORE.INTER.POLAR>
0

>  <SCORE.INTER.ROT>
2

>  <SCORE.INTER.SOLV>
30.0996

>  <SCORE.INTER.VDW>
-42.5606

>  <SCORE.INTER.norm>
-0.899807

>  <SCORE.INTRA>
-0.369904

>  <SCORE.INTRA.DIHEDRAL>
-0.0321129

>  <SCORE.INTRA.DIHEDRAL.0>
2.42188

>  <SCORE.INTRA.POLAR>
0

>  <SCORE.INTRA.POLAR.0>
0

>  <SCORE.INTRA.REPUL>
0

>  <SCORE.INTRA.REPUL.0>
0

>  <SCORE.INTRA.SOLV>
0.820825

>  <SCORE.INTRA.SOLV.lig_0>
-127.307

>  <SCORE.INTRA.VDW>
-0.76426

>  <SCORE.INTRA.VDW.0>
-2.19936

>  <SCORE.INTRA.norm>
-0.0080414

>  <SCORE.RESTR>
0.00568352

>  <SCORE.RESTR.CAVITY>
0.00568352

>  <SCORE.RESTR.norm>
0.000123555

>  <SCORE.SYSTEM>
0

>  <SCORE.SYSTEM.CONST>
0

>  <SCORE.SYSTEM.DIHEDRAL>
0

>  <SCORE.SYSTEM.SOLV>
0

>  <SCORE.SYSTEM.norm>
0

>  <SCORE.heavy>
46

>  <SCORE.norm>
-0.907725

>  <RMSD>
2.396

$$$$
ligand
 OpenBabel02271912143D
libRbt.so/2013.1/901 2013/11/27
 46 52  0  0  0  0  0  0  0  0999 V2000
  159.5673   41.7327  147.7753 P   0  0  1  0  0  0  0  0  0  0  0  0
  160.0303   46.0254  144.0619 P   0  0  1  0  0  0  0  0  0  0  0  0
  158.2137   41.0728  147.8331 O   0  5  0  0  0  0  0  0  0  0  0  0
  160.6853   41.0600  148.5415 O   0  0  0  0  0  0  0  0  0  0  0  0
  161.2829   41.7111  145.7615 C   0  0  0  0  0  0  0  0  0  0  0  0
  159.9610   41.9425  146.2306 O   0  0  0  0  0  0  0  0  0  0  0  0
  161.4688   42.3498  144.3950 C   0  0  1  0  0  0  0  0  0  0  0  0
  161.4136   41.3205  143.4175 O   0  0  0  0  0  0  0  0  0  0  0  0
  160.4130   43.3730  143.9961 C   0  0  1  0  0  0  0  0  0  0  0  0
  160.9419   44.6837  144.1330 O   0  0  0  0  0  0  0  0  0  0  0  0
  160.2003   43.1039  142.5233 C   0  0  1  0  0  0  0  0  0  0  0  0
  161.1041   43.9002  141.7546 O   0  0  0  0  0  0  0  0  0  0  0  0
  160.5950   41.6711  142.3122 C   0  0  2  0  0  0  0  0  0  0  0  0
  156.4108   45.3398  148.0393 C   0  0  1  0  0  0  0  0  0  0  0  0
  156.2078   40.2623  139.7994 N   0  0  0  0  0  0  0  0  0  0  0  0
  157.1542   41.1567  139.4567 C   0  0  1  0  0  0  0  0  0  0  0  0
  157.0526   43.9830  148.2410 C   0  0  2  0  0  0  0  0  0  0  0  0
  157.0245   41.8382  138.2965 N   0  0  0  0  0  0  0  0  0  0  0  0
  157.1518   43.7606  149.6504 O   0  0  0  0  0  0  0  0  0  0  0  0
  158.4298   44.0919  147.6136 C   0  0  2  0  0  0  0  0  0  0  0  0
  158.2418   41.4213  140.2156 N   0  0  0  0  0  0  0  0  0  0  0  0
  159.3756   43.2533  148.2757 O   0  0  0  0  0  0  0  0  0  0  0  0
  158.4407   40.7845  141.3894 C   0  0  2  0  0  0  0  0  0  0  0  0
  158.7495   45.5750  147.7873 C   0  0  2  0  0  0  0  0  0  0  0  0
  157.4987   46.2574  147.8992 O   0  0  0  0  0  0  0  0  0  0  0  0
  157.4483   39.7976  141.8264 C   0  0  2  0  0  0  0  0  0  0  0  0
  159.5677   46.1998  146.6529 C   0  0  0  0  0  0  0  0  0  0  0  0
  159.0766   45.8647  145.3557 O   0  0  0  0  0  0  0  0  0  0  0  0
  156.2825   39.5600  140.9429 C   0  0  0  0  0  0  0  0  0  0  0  0
  155.4040   38.7246  141.2658 O   0  0  0  0  0  0  0  0  0  0  0  0
  157.8836   39.3290  143.0095 N   0  0  0  0  0  0  0  0  0  0  0  0
  159.0485   39.9540  143.3054 C   0  0  0  0  0  0  0  0  0  0  0  0
  159.3797   40.8230  142.3345 N   0  0  1  0  0  0  0  0  0  0  0  0
  155.3501   47.7652  143.4973 N   0  0  0  0  0  0  0  0  0  0  0  0
  160.9789   47.1895  144.2787 O   0  5  0  0  0  0  0  0  0  0  0  0
  156.2154   48.0964  144.4681 C   0  0  2  0  0  0  0  0  0  0  0  0
  156.9435   49.2092  144.2932 N   0  0  0  0  0  0  0  0  0  0  0  0
  159.1481   45.9608  142.8388 O   0  0  0  0  0  0  0  0  0  0  0  0
  156.3889   47.3698  145.5969 N   0  0  0  0  0  0  0  0  0  0  0  0
  155.6780   46.2416  145.8050 C   0  0  1  0  0  0  0  0  0  0  0  0
  154.7075   45.8233  144.7738 C   0  0  1  0  0  0  0  0  0  0  0  0
  154.5868   46.6730  143.5617 C   0  0  0  0  0  0  0  0  0  0  0  0
  153.7908   46.4081  142.6352 O   0  0  0  0  0  0  0  0  0  0  0  0
  154.1488   44.6865  145.2185 N   0  0  0  0  0  0  0  0  0  0  0  0
  154.7100   44.4102  146.4284 C   0  0  0  0  0  0  0  0  0  0  0  0
  155.6254   45.3347  146.7803 N   0  0  2  0  0  0  0  0  0  0  0  0
  1  3  1  1  0  0  0
  1  4  2  0  0  0  0
  1  6  1  0  0  0  0
  1 22  1  0  0  0  0
  2 28  1  0  0  0  0
  2 35  1  1  0  0  0
  2 38  2  0  0  0  0
  2 10  1  0  0  0  0
  5  6  1  0  0  0  0
  7  5  1  1  0  0  0
  7  8  1  0  0  0  0
  7  9  1  0  0  0  0
  9 10  1  6  0  0  0
  9 11  1  0  0  0  0
 11 12  1  6  0  0  0
 11 13  1  0  0  0  0
 13  8  1  1  0  0  0
 13 33  1  0  0  0  0
 14 46  1  0  0  0  0
 14 17  1  0  0  0  0
 14 25  1  6  0  0  0
 15 16  1  0  0  0  0
 15 29  1  0  0  0  0
 16 18  1  1  0  0  0
 16 21  1  0  0  0  0
 17 19  1  1  0  0  0
 17 20  1  0  0  0  0
 20 22  1  1  0  0  0
 20 24  1  0  0  0  0
 23 21  1  1  0  0  0
 23 26  1  0  0  0  0
 23 33  1  0  0  0  0
 24 25  1  6  0  0  0
 24 27  1  0  0  0  0
 26 29  1  1  0  0  0
 26 31  1  0  0  0  0
 27 28  1  0  0  0  0
 29 30  2  0  0  0  0
 31 32  1  0  0  0  0
 33 32  1  6  0  0  0
 34 36  1  0  0  0  0
 34 42  1  0  0  0  0
 36 37  1  6  0  0  0
 36 39  1  0  0  0  0
 40 39  1  6  0  0  0
 40 41  1  0  0  0  0
 40 46  1  0  0  0  0
 41 42  1  6  0  0  0
 41 44  1  0  0  0  0
 42 43  2  0  0  0  0
 44 45  1  0  0  0  0
 46 45  1  1  0  0  0
M  CHG  2   3  -1  35  -1
M  END
>  <CHROM.1>
-173.66050765,-130.48257510,158.20111122,43.65702378,144.57271215,-1.75553145
0.87470213,-2.20716419

>  <Name>
ligand

>  <RI>
0

>  <Rbt.Current_Directory>
/home/itssahil/PROJECTS/Mol_Feturizer/Test_systems_manuscript/rnas/4yb0

>  <Rbt.Executable>
rbdock ($Id: //depot/dev/client3/rdock/2013.1/src/exe/rbdock.cxx#4 $)

>  <Rbt.Library>
libRbt.so (2013.1, Build901 2013/11/27)

>  <Rbt.Parameter_File>
/export/apps/rDock/src/rDock_2013.1_src/data/scripts/dock_solv.prm

>  <Rbt.Receptor>
prm/pocket_docking_4.prm

>  <SCORE>
-41.7962

>  <SCORE.INTER>
-41.4644

>  <SCORE.INTER.CONST>
1

>  <SCORE.INTER.POLAR>
0

>  <SCORE.INTER.ROT>
2

>  <SCORE.INTER.SOLV>
30.0848

>  <SCORE.INTER.VDW>
-42.6045

>  <SCORE.INTER.norm>
-0.9014

>  <SCORE.INTRA>
-0.33216

>  <SCORE.INTRA.DIHEDRAL>
-0.0298547

>  <SCORE.INTRA.DIHEDRAL.0>
2.42188

>  <SCORE.INTRA.POLAR>
0

>  <SCORE.INTRA.POLAR.0>
0

>  <SCORE.INTRA.REPUL>
0

>  <SCORE.INTRA.REPUL.0>
0

>  <SCORE.INTRA.SOLV>
1.03721

>  <SCORE.INTRA.SOLV.lig_0>
-127.307

>  <SCORE.INTRA.VDW>
-0.835838

>  <SCORE.INTRA.VDW.0>
-2.19936

>  <SCORE.INTRA.norm>
-0.00722088

>  <SCORE.RESTR>
0.000408375

>  <SCORE.RESTR.CAVITY>
0.000408375

>  <SCORE.RESTR.norm>
8.87772e-06

>  <SCORE.SYSTEM>
0

>  <SCORE.SYSTEM.CONST>
0

>  <SCORE.SYSTEM.DIHEDRAL>
0

>  <SCORE.SYSTEM.SOLV>
0

>  <SCORE.SYSTEM.norm>
0

>  <SCORE.heavy>
46

>  <SCORE.norm>
-0.908612

>  <RMSD>
2.398

$$$$
ligand
 OpenBabel02271912143D
libRbt.so/2013.1/901 2013/11/27
 46 52  0  0  0  0  0  0  0  0999 V2000
  159.5447   41.7253  147.7560 P   0  0  1  0  0  0  0  0  0  0  0  0
  160.0506   46.0298  144.0618 P   0  0  1  0  0  0  0  0  0  0  0  0
  158.1871   41.0728  147.8042 O   0  5  0  0  0  0  0  0  0  0  0  0
  160.6551   41.0434  148.5251 O   0  0  0  0  0  0  0  0  0  0  0  0
  161.2704   41.7020  145.7508 C   0  0  0  0  0  0  0  0  0  0  0  0
  159.9474   41.9389  146.2141 O   0  0  0  0  0  0  0  0  0  0  0  0
  161.4668   42.3449  144.3878 C   0  0  1  0  0  0  0  0  0  0  0  0
  161.4109   41.3198  143.4060 O   0  0  0  0  0  0  0  0  0  0  0  0
  160.4188   43.3756  143.9875 C   0  0  1  0  0  0  0  0  0  0  0  0
  160.9544   44.6828  144.1323 O   0  0  0  0  0  0  0  0  0  0  0  0
  160.2121   43.1134  142.5126 C   0  0  1  0  0  0  0  0  0  0  0  0
  161.1243   43.9077  141.7517 O   0  0  0  0  0  0  0  0  0  0  0  0
  160.6000   41.6792  142.2979 C   0  0  2  0  0  0  0  0  0  0  0  0
  156.4070   45.3490  148.0181 C   0  0  1  0  0  0  0  0  0  0  0  0
  156.1789   40.3620  139.7949 N   0  0  0  0  0  0  0  0  0  0  0  0
  157.1271   41.2595  139.4658 C   0  0  1  0  0  0  0  0  0  0  0  0
  157.0402   43.9878  148.2177 C   0  0  2  0  0  0  0  0  0  0  0  0
  156.9897   41.9718  138.3252 N   0  0  0  0  0  0  0  0  0  0  0  0
  157.1310   43.7593  149.6267 O   0  0  0  0  0  0  0  0  0  0  0  0
  158.4212   44.0914  147.5977 C   0  0  2  0  0  0  0  0  0  0  0  0
  158.2240   41.4979  140.2200 N   0  0  0  0  0  0  0  0  0  0  0  0
  159.3589   43.2450  148.2613 O   0  0  0  0  0  0  0  0  0  0  0  0
  158.4310   40.8295  141.3747 C   0  0  2  0  0  0  0  0  0  0  0  0
  158.7483   45.5720  147.7789 C   0  0  2  0  0  0  0  0  0  0  0  0
  157.5007   46.2610  147.8871 O   0  0  0  0  0  0  0  0  0  0  0  0
  157.4372   39.8373  141.7961 C   0  0  2  0  0  0  0  0  0  0  0  0
  159.5757   46.1967  146.6511 C   0  0  0  0  0  0  0  0  0  0  0  0
  159.0894   45.8693  145.3501 O   0  0  0  0  0  0  0  0  0  0  0  0
  156.2611   39.6295  140.9188 C   0  0  0  0  0  0  0  0  0  0  0  0
  155.3808   38.7911  141.2289 O   0  0  0  0  0  0  0  0  0  0  0  0
  157.8817   39.3354  142.9621 N   0  0  0  0  0  0  0  0  0  0  0  0
  159.0534   39.9457  143.2620 C   0  0  0  0  0  0  0  0  0  0  0  0
  159.3798   40.8378  142.3107 N   0  0  1  0  0  0  0  0  0  0  0  0
  155.3695   47.8077  143.4887 N   0  0  0  0  0  0  0  0  0  0  0  0
  161.0045   47.1877  144.2880 O   0  5  0  0  0  0  0  0  0  0  0  0
  156.2299   48.1317  144.4662 C   0  0  2  0  0  0  0  0  0  0  0  0
  156.9589   49.2458  144.3033 N   0  0  0  0  0  0  0  0  0  0  0  0
  159.1743   45.9749  142.8341 O   0  0  0  0  0  0  0  0  0  0  0  0
  156.3976   47.3968  145.5905 N   0  0  0  0  0  0  0  0  0  0  0  0
  155.6857   46.2672  145.7868 C   0  0  1  0  0  0  0  0  0  0  0  0
  154.7204   45.8565  144.7475 C   0  0  1  0  0  0  0  0  0  0  0  0
  154.6059   46.7151  143.5411 C   0  0  0  0  0  0  0  0  0  0  0  0
  153.8146   46.4571  142.6087 O   0  0  0  0  0  0  0  0  0  0  0  0
  154.1594   44.7165  145.1810 N   0  0  0  0  0  0  0  0  0  0  0  0
  154.7145   44.4313  146.3917 C   0  0  0  0  0  0  0  0  0  0  0  0
  155.6280   45.3532  146.7550 N   0  0  2  0  0  0  0  0  0  0  0  0
  1  3  1  1  0  0  0
  1  4  2  0  0  0  0
  1  6  1  0  0  0  0
  1 22  1  0  0  0  0
  2 28  1  0  0  0  0
  2 35  1  1  0  0  0
  2 38  2  0  0  0  0
  2 10  1  0  0  0  0
  5  6  1  0  0  0  0
  7  5  1  1  0  0  0
  7  8  1  0  0  0  0
  7  9  1  0  0  0  0
  9 10  1  6  0  0  0
  9 11  1  0  0  0  0
 11 12  1  6  0  0  0
 11 13  1  0  0  0  0
 13  8  1  1  0  0  0
 13 33  1  0  0  0  0
 14 46  1  0  0  0  0
 14 17  1  0  0  0  0
 14 25  1  6  0  0  0
 15 16  1  0  0  0  0
 15 29  1  0  0  0  0
 16 18  1  1  0  0  0
 16 21  1  0  0  0  0
 17 19  1  1  0  0  0
 17 20  1  0  0  0  0
 20 22  1  1  0  0  0
 20 24  1  0  0  0  0
 23 21  1  1  0  0  0
 23 26  1  0  0  0  0
 23 33  1  0  0  0  0
 24 25  1  6  0  0  0
 24 27  1  0  0  0  0
 26 29  1  1  0  0  0
 26 31  1  0  0  0  0
 27 28  1  0  0  0  0
 29 30  2  0  0  0  0
 31 32  1  0  0  0  0
 33 32  1  6  0  0  0
 34 36  1  0  0  0  0
 34 42  1  0  0  0  0
 36 37  1  6  0  0  0
 36 39  1  0  0  0  0
 40 39  1  6  0  0  0
 40 41  1  0  0  0  0
 40 46  1  0  0  0  0
 41 42  1  6  0  0  0
 41 44  1  0  0  0  0
 42 43  2  0  0  0  0
 44 45  1  0  0  0  0
 46 45  1  1  0  0  0
M  CHG  2   3  -1  35  -1
M  END
>  <CHROM.1>
-175.20783234,-130.85685882,158.19991223,43.67699805,144.55900769,-1.75906095
0.87888397,-2.20422608

>  <Name>
ligand

>  <RI>
0

>  <Rbt.Current_Directory>
/home/itssahil/PROJECTS/Mol_Feturizer/Test_systems_manuscript/rnas/4yb0

>  <Rbt.Executable>
rbdock ($Id: //depot/dev/client3/rdock/2013.1/src/exe/rbdock.cxx#4 $)

>  <Rbt.Library>
libRbt.so (2013.1, Build901 2013/11/27)

>  <Rbt.Parameter_File>
/export/apps/rDock/src/rDock_2013.1_src/data/scripts/dock_solv.prm

>  <Rbt.Receptor>
prm/pocket_docking_4.prm

>  <SCORE>
-41.7662

>  <SCORE.INTER>
-41.4394

>  <SCORE.INTER.CONST>
1

>  <SCORE.INTER.POLAR>
0

>  <SCORE.INTER.ROT>
2

>  <SCORE.INTER.SOLV>
29.952

>  <SCORE.INTER.VDW>
-42.5436

>  <SCORE.INTER.norm>
-0.900857

>  <SCORE.INTRA>
-0.335706

>  <SCORE.INTRA.DIHEDRAL>
-0.0321485

>  <SCORE.INTRA.DIHEDRAL.0>
2.42188

>  <SCORE.INTRA.POLAR>
0

>  <SCORE.INTRA.POLAR.0>
0

>  <SCORE.INTRA.REPUL>
0

>  <SCORE.INTRA.REPUL.0>
0

>  <SCORE.INTRA.SOLV>
0.909979

>  <SCORE.INTRA.SOLV.lig_0>
-127.307

>  <SCORE.INTRA.VDW>
-0.774621

>  <SCORE.INTRA.VDW.0>
-2.19936

>  <SCORE.INTRA.norm>
-0.00729795

>  <SCORE.RESTR>
0.00897432

>  <SCORE.RESTR.CAVITY>
0.00897432

>  <SCORE.RESTR.norm>
0.000195094

>  <SCORE.SYSTEM>
0

>  <SCORE.SYSTEM.CONST>
0

>  <SCORE.SYSTEM.DIHEDRAL>
0

>  <SCORE.SYSTEM.SOLV>
0

>  <SCORE.SYSTEM.norm>
0

>  <SCORE.heavy>
46

>  <SCORE.norm>
-0.90796

>  <RMSD>
2.398

$$$$
ligand
 OpenBabel02271912143D
libRbt.so/2013.1/901 2013/11/27
 46 52  0  0  0  0  0  0  0  0999 V2000
  159.5461   41.7261  147.7790 P   0  0  1  0  0  0  0  0  0  0  0  0
  160.0427   46.0205  144.0720 P   0  0  1  0  0  0  0  0  0  0  0  0
  158.1890   41.0730  147.8317 O   0  5  0  0  0  0  0  0  0  0  0  0
  160.6582   41.0468  148.5479 O   0  0  0  0  0  0  0  0  0  0  0  0
  161.2680   41.6980  145.7706 C   0  0  0  0  0  0  0  0  0  0  0  0
  159.9458   41.9356  146.2358 O   0  0  0  0  0  0  0  0  0  0  0  0
  161.4615   42.3373  144.4055 C   0  0  1  0  0  0  0  0  0  0  0  0
  161.4042   41.3094  143.4267 O   0  0  0  0  0  0  0  0  0  0  0  0
  160.4122   43.3663  144.0044 C   0  0  1  0  0  0  0  0  0  0  0  0
  160.9473   44.6742  144.1445 O   0  0  0  0  0  0  0  0  0  0  0  0
  160.2028   43.1000  142.5306 C   0  0  1  0  0  0  0  0  0  0  0  0
  161.1132   43.8926  141.7657 O   0  0  0  0  0  0  0  0  0  0  0  0
  160.5910   41.6654  142.3191 C   0  0  2  0  0  0  0  0  0  0  0  0
  156.4070   45.3488  148.0371 C   0  0  1  0  0  0  0  0  0  0  0  0
  156.2062   40.2797  139.7894 N   0  0  0  0  0  0  0  0  0  0  0  0
  157.1583   41.1694  139.4505 C   0  0  1  0  0  0  0  0  0  0  0  0
  157.0413   43.9885  148.2392 C   0  0  2  0  0  0  0  0  0  0  0  0
  157.0365   41.8519  138.2901 N   0  0  0  0  0  0  0  0  0  0  0  0
  157.1349   43.7640  149.6487 O   0  0  0  0  0  0  0  0  0  0  0  0
  158.4210   44.0911  147.6163 C   0  0  2  0  0  0  0  0  0  0  0  0
  158.2444   41.4283  140.2136 N   0  0  0  0  0  0  0  0  0  0  0  0
  159.3604   43.2470  148.2805 O   0  0  0  0  0  0  0  0  0  0  0  0
  158.4357   40.7900  141.3879 C   0  0  2  0  0  0  0  0  0  0  0  0
  158.7477   45.5724  147.7928 C   0  0  2  0  0  0  0  0  0  0  0  0
  157.5000   46.2610  147.9015 O   0  0  0  0  0  0  0  0  0  0  0  0
  157.4367   39.8080  141.8208 C   0  0  2  0  0  0  0  0  0  0  0  0
  159.5727   46.1943  146.6617 C   0  0  0  0  0  0  0  0  0  0  0  0
  159.0840   45.8632  145.3625 O   0  0  0  0  0  0  0  0  0  0  0  0
  156.2731   39.5765  140.9329 C   0  0  0  0  0  0  0  0  0  0  0  0
  155.3892   38.7455  141.2521 O   0  0  0  0  0  0  0  0  0  0  0  0
  157.8652   39.3368  143.0054 N   0  0  0  0  0  0  0  0  0  0  0  0
  159.0321   39.9558  143.3059 C   0  0  0  0  0  0  0  0  0  0  0  0
  159.3713   40.8234  142.3366 N   0  0  1  0  0  0  0  0  0  0  0  0
  155.3498   47.8015  143.5089 N   0  0  0  0  0  0  0  0  0  0  0  0
  160.9964   47.1795  144.2932 O   0  5  0  0  0  0  0  0  0  0  0  0
  156.2106   48.1297  144.4848 C   0  0  2  0  0  0  0  0  0  0  0  0
  156.9343   49.2470  144.3201 N   0  0  0  0  0  0  0  0  0  0  0  0
  159.1641   45.9618  142.8461 O   0  0  0  0  0  0  0  0  0  0  0  0
  156.3838   47.3959  145.6090 N   0  0  0  0  0  0  0  0  0  0  0  0
  155.6773   46.2631  145.8069 C   0  0  1  0  0  0  0  0  0  0  0  0
  154.7119   45.8478  144.7695 C   0  0  1  0  0  0  0  0  0  0  0  0
  154.5912   46.7055  143.5631 C   0  0  0  0  0  0  0  0  0  0  0  0
  153.7994   46.4436  142.6323 O   0  0  0  0  0  0  0  0  0  0  0  0
  154.1570   44.7053  145.2044 N   0  0  0  0  0  0  0  0  0  0  0  0
  154.7156   44.4230  146.4142 C   0  0  0  0  0  0  0  0  0  0  0  0
  155.6256   45.3491  146.7755 N   0  0  2  0  0  0  0  0  0  0  0  0
  1  3  1  1  0  0  0
  1  4  2  0  0  0  0
  1  6  1  0  0  0  0
  1 22  1  0  0  0  0
  2 28  1  0  0  0  0
  2 35  1  1  0  0  0
  2 38  2  0  0  0  0
  2 10  1  0  0  0  0
  5  6  1  0  0  0  0
  7  5  1  1  0  0  0
  7  8  1  0  0  0  0
  7  9  1  0  0  0  0
  9 10  1  6  0  0  0
  9 11  1  0  0  0  0
 11 12  1  6  0  0  0
 11 13  1  0  0  0  0
 13  8  1  1  0  0  0
 13 33  1  0  0  0  0
 14 46  1  0  0  0  0
 14 17  1  0  0  0  0
 14 25  1  6  0  0  0
 15 16  1  0  0  0  0
 15 29  1  0  0  0  0
 16 18  1  1  0  0  0
 16 21  1  0  0  0  0
 17 19  1  1  0  0  0
 17 20  1  0  0  0  0
 20 22  1  1  0  0  0
 20 24  1  0  0  0  0
 23 21  1  1  0  0  0
 23 26  1  0  0  0  0
 23 33  1  0  0  0  0
 24 25  1  6  0  0  0
 24 27  1  0  0  0  0
 26 29  1  1  0  0  0
 26 31  1  0  0  0  0
 27 28  1  0  0  0  0
 29 30  2  0  0  0  0
 31 32  1  0  0  0  0
 33 32  1  6  0  0  0
 34 36  1  0  0  0  0
 34 42  1  0  0  0  0
 36 37  1  6  0  0  0
 36 39  1  0  0  0  0
 40 39  1  6  0  0  0
 40 41  1  0  0  0  0
 40 46  1  0  0  0  0
 41 42  1  6  0  0  0
 41 44  1  0  0  0  0
 42 43  2  0  0  0  0
 44 45  1  0  0  0  0
 46 45  1  1  0  0  0
M  CHG  2   3  -1  35  -1
M  END
>  <CHROM.1>
-173.60463409,-131.12652337,158.19753359,43.66248668,144.57567612,-1.75990364
0.87875904,-2.20631658

>  <Name>
ligand

>  <RI>
0

>  <Rbt.Current_Directory>
/home/itssahil/PROJECTS/Mol_Feturizer/Test_systems_manuscript/rnas/4yb0

>  <Rbt.Executable>
rbdock ($Id: //depot/dev/client3/rdock/2013.1/src/exe/rbdock.cxx#4 $)

>  <Rbt.Library>
libRbt.so (2013.1, Build901 2013/11/27)

>  <Rbt.Parameter_File>
/export/apps/rDock/src/rDock_2013.1_src/data/scripts/dock_solv.prm

>  <Rbt.Receptor>
prm/pocket_docking_4.prm

>  <SCORE>
-41.817

>  <SCORE.INTER>
-41.4452

>  <SCORE.INTER.CONST>
1

>  <SCORE.INTER.POLAR>
0

>  <SCORE.INTER.ROT>
2

>  <SCORE.INTER.SOLV>
30.1339

>  <SCORE.INTER.VDW>
-42.6081

>  <SCORE.INTER.norm>
-0.900983

>  <SCORE.INTRA>
-0.381439

>  <SCORE.INTRA.DIHEDRAL>
-0.0306601

>  <SCORE.INTRA.DIHEDRAL.0>
2.42188

>  <SCORE.INTRA.POLAR>
0

>  <SCORE.INTRA.POLAR.0>
0

>  <SCORE.INTRA.REPUL>
0

>  <SCORE.INTRA.REPUL.0>
0

>  <SCORE.INTRA.SOLV>
0.816818

>  <SCORE.INTRA.SOLV.lig_0>
-127.307

>  <SCORE.INTRA.VDW>
-0.774518

>  <SCORE.INTRA.VDW.0>
-2.19936

>  <SCORE.INTRA.norm>
-0.00829215

>  <SCORE.RESTR>
0.00966911

>  <SCORE.RESTR.CAVITY>
0.00966911

>  <SCORE.RESTR.norm>
0.000210198

>  <SCORE.SYSTEM>
0

>  <SCORE.SYSTEM.CONST>
0

>  <SCORE.SYSTEM.DIHEDRAL>
0

>  <SCORE.SYSTEM.SOLV>
0

>  <SCORE.SYSTEM.norm>
0

>  <SCORE.heavy>
46

>  <SCORE.norm>
-0.909065

>  <RMSD>
2.400

$$$$
ligand
 OpenBabel02271912143D
libRbt.so/2013.1/901 2013/11/27
 46 52  0  0  0  0  0  0  0  0999 V2000
  159.5434   41.8300  147.7761 P   0  0  1  0  0  0  0  0  0  0  0  0
  160.4152   45.8421  143.8297 P   0  0  1  0  0  0  0  0  0  0  0  0
  158.1436   41.2747  147.8332 O   0  5  0  0  0  0  0  0  0  0  0  0
  160.5892   41.1262  148.6131 O   0  0  0  0  0  0  0  0  0  0  0  0
  161.3021   41.5608  145.8181 C   0  0  0  0  0  0  0  0  0  0  0  0
  159.9898   41.9156  146.2338 O   0  0  0  0  0  0  0  0  0  0  0  0
  161.5687   42.0993  144.4222 C   0  0  1  0  0  0  0  0  0  0  0  0
  161.4617   41.0188  143.5063 O   0  0  0  0  0  0  0  0  0  0  0  0
  160.6019   43.1700  143.9326 C   0  0  1  0  0  0  0  0  0  0  0  0
  161.2229   44.4449  144.0069 O   0  0  0  0  0  0  0  0  0  0  0  0
  160.4064   42.8272  142.4727 C   0  0  1  0  0  0  0  0  0  0  0  0
  161.3856   43.5074  141.6849 O   0  0  0  0  0  0  0  0  0  0  0  0
  160.6991   41.3593  142.3586 C   0  0  2  0  0  0  0  0  0  0  0  0
  156.6572   45.6657  147.7333 C   0  0  1  0  0  0  0  0  0  0  0  0
  155.9958   40.6231  140.1486 N   0  0  0  0  0  0  0  0  0  0  0  0
  156.9783   41.4867  139.8293 C   0  0  1  0  0  0  0  0  0  0  0  0
  157.1915   44.2808  148.0337 C   0  0  2  0  0  0  0  0  0  0  0  0
  156.7998   42.3283  138.7867 N   0  0  0  0  0  0  0  0  0  0  0  0
  157.2389   44.1386  149.4562 O   0  0  0  0  0  0  0  0  0  0  0  0
  158.5881   44.2510  147.4415 C   0  0  2  0  0  0  0  0  0  0  0  0
  158.1497   41.5669  140.5003 N   0  0  0  0  0  0  0  0  0  0  0  0
  159.4525   43.3882  148.1796 O   0  0  0  0  0  0  0  0  0  0  0  0
  158.4019   40.7626  141.5550 C   0  0  2  0  0  0  0  0  0  0  0  0
  159.0124   45.7149  147.5363 C   0  0  2  0  0  0  0  0  0  0  0  0
  157.8132   46.4917  147.5709 O   0  0  0  0  0  0  0  0  0  0  0  0
  157.3747   39.7980  141.9601 C   0  0  2  0  0  0  0  0  0  0  0  0
  159.9026   46.2081  146.3912 C   0  0  0  0  0  0  0  0  0  0  0  0
  159.4203   45.8305  145.1023 O   0  0  0  0  0  0  0  0  0  0  0  0
  156.1166   39.7670  141.1777 C   0  0  0  0  0  0  0  0  0  0  0  0
  155.2046   38.9596  141.4782 O   0  0  0  0  0  0  0  0  0  0  0  0
  157.8765   39.1419  143.0215 N   0  0  0  0  0  0  0  0  0  0  0  0
  159.1121   39.6362  143.2746 C   0  0  0  0  0  0  0  0  0  0  0  0
  159.4241   40.6045  142.3956 N   0  0  1  0  0  0  0  0  0  0  0  0
  155.3028   48.2589  143.3654 N   0  0  0  0  0  0  0  0  0  0  0  0
  161.4417   46.9455  144.0048 O   0  5  0  0  0  0  0  0  0  0  0  0
  156.0868   48.6414  144.3851 C   0  0  2  0  0  0  0  0  0  0  0  0
  156.6306   49.8659  144.3205 N   0  0  0  0  0  0  0  0  0  0  0  0
  159.5613   45.7669  142.5874 O   0  0  0  0  0  0  0  0  0  0  0  0
  156.3542   47.8608  145.4582 N   0  0  0  0  0  0  0  0  0  0  0  0
  155.8293   46.6214  145.5553 C   0  0  1  0  0  0  0  0  0  0  0  0
  154.9565   46.1414  144.4652 C   0  0  1  0  0  0  0  0  0  0  0  0
  154.7229   47.0583  143.3205 C   0  0  0  0  0  0  0  0  0  0  0  0
  153.9960   46.7482  142.3522 O   0  0  0  0  0  0  0  0  0  0  0  0
  154.5789   44.8979  144.8020 N   0  0  0  0  0  0  0  0  0  0  0  0
  155.1556   44.6150  146.0031 C   0  0  0  0  0  0  0  0  0  0  0  0
  155.9051   45.6403  146.4543 N   0  0  2  0  0  0  0  0  0  0  0  0
  1  3  1  1  0  0  0
  1  4  2  0  0  0  0
  1  6  1  0  0  0  0
  1 22  1  0  0  0  0
  2 28  1  0  0  0  0
  2 35  1  6  0  0  0
  2 38  2  0  0  0  0
  2 10  1  0  0  0  0
  5  6  1  0  0  0  0
  7  5  1  1  0  0  0
  7  8  1  0  0  0  0
  7  9  1  0  0  0  0
  9 10  1  6  0  0  0
  9 11  1  0  0  0  0
 11 12  1  6  0  0  0
 11 13  1  0  0  0  0
 13  8  1  1  0  0  0
 13 33  1  0  0  0  0
 14 46  1  0  0  0  0
 14 17  1  0  0  0  0
 14 25  1  6  0  0  0
 15 16  1  0  0  0  0
 15 29  1  0  0  0  0
 16 18  1  1  0  0  0
 16 21  1  0  0  0  0
 17 19  1  1  0  0  0
 17 20  1  0  0  0  0
 20 22  1  1  0  0  0
 20 24  1  0  0  0  0
 23 21  1  1  0  0  0
 23 26  1  0  0  0  0
 23 33  1  0  0  0  0
 24 25  1  6  0  0  0
 24 27  1  0  0  0  0
 26 29  1  1  0  0  0
 26 31  1  0  0  0  0
 27 28  1  0  0  0  0
 29 30  2  0  0  0  0
 31 32  1  0  0  0  0
 33 32  1  6  0  0  0
 34 36  1  0  0  0  0
 34 42  1  0  0  0  0
 36 37  1  6  0  0  0
 36 39  1  0  0  0  0
 40 39  1  6  0  0  0
 40 41  1  0  0  0  0
 40 46  1  0  0  0  0
 41 42  1  6  0  0  0
 41 44  1  0  0  0  0
 42 43  2  0  0  0  0
 44 45  1  0  0  0  0
 46 45  1  1  0  0  0
M  CHG  2   3  -1  35  -1
M  END
>  <CHROM.1>
173.08894213,-146.10121046,158.30780971,43.74432365,144.50049655,-1.25839765
-0.87215279,0.83679151

>  <Name>
ligand

>  <RI>
0

>  <Rbt.Current_Directory>
/home/itssahil/PROJECTS/Mol_Feturizer/Test_systems_manuscript/rnas/4yb0

>  <Rbt.Executable>
rbdock ($Id: //depot/dev/client3/rdock/2013.1/src/exe/rbdock.cxx#4 $)

>  <Rbt.Library>
libRbt.so (2013.1, Build901 2013/11/27)

>  <Rbt.Parameter_File>
/export/apps/rDock/src/rDock_2013.1_src/data/scripts/dock_solv.prm

>  <Rbt.Receptor>
prm/pocket_docking_6.prm

>  <SCORE>
-37.0783

>  <SCORE.INTER>
-37.2204

>  <SCORE.INTER.CONST>
1

>  <SCORE.INTER.POLAR>
0

>  <SCORE.INTER.ROT>
2

>  <SCORE.INTER.SOLV>
30.7571

>  <SCORE.INTER.VDW>
-39.9993

>  <SCORE.INTER.norm>
-0.809139

>  <SCORE.INTRA>
0.142104

>  <SCORE.INTRA.DIHEDRAL>
-0.0596635

>  <SCORE.INTRA.DIHEDRAL.0>
2.42188

>  <SCORE.INTRA.POLAR>
0

>  <SCORE.INTRA.POLAR.0>
0

>  <SCORE.INTRA.REPUL>
0

>  <SCORE.INTRA.REPUL.0>
0

>  <SCORE.INTRA.SOLV>
0.0507559

>  <SCORE.INTRA.SOLV.lig_0>
-127.307

>  <SCORE.INTRA.VDW>
0.146558

>  <SCORE.INTRA.VDW.0>
-2.19936

>  <SCORE.INTRA.norm>
0.00308923

>  <SCORE.RESTR>
0

>  <SCORE.RESTR.CAVITY>
0

>  <SCORE.RESTR.norm>
0

>  <SCORE.SYSTEM>
0

>  <SCORE.SYSTEM.CONST>
0

>  <SCORE.SYSTEM.DIHEDRAL>
0

>  <SCORE.SYSTEM.SOLV>
0

>  <SCORE.SYSTEM.norm>
0

>  <SCORE.heavy>
46

>  <SCORE.norm>
-0.80605

>  <RMSD>
2.457

$$$$
ligand
 OpenBabel02271912143D
libRbt.so/2013.1/901 2013/11/27
 46 52  0  0  0  0  0  0  0  0999 V2000
  159.5047   41.7056  147.8796 P   0  0  1  0  0  0  0  0  0  0  0  0
  160.4756   45.8066  144.0494 P   0  0  1  0  0  0  0  0  0  0  0  0
  158.1031   41.1520  147.8908 O   0  5  0  0  0  0  0  0  0  0  0  0
  160.5294   40.9804  148.7245 O   0  0  0  0  0  0  0  0  0  0  0  0
  161.3088   41.4784  145.9579 C   0  0  0  0  0  0  0  0  0  0  0  0
  159.9875   41.8262  146.3507 O   0  0  0  0  0  0  0  0  0  0  0  0
  161.6091   42.0487  144.5815 C   0  0  1  0  0  0  0  0  0  0  0  0
  161.5221   40.9900  143.6385 O   0  0  0  0  0  0  0  0  0  0  0  0
  160.6557   43.1324  144.0944 C   0  0  1  0  0  0  0  0  0  0  0  0
  161.2767   44.4040  144.2130 O   0  0  0  0  0  0  0  0  0  0  0  0
  160.4943   42.8241  142.6227 C   0  0  1  0  0  0  0  0  0  0  0  0
  161.4928   43.5204  141.8743 O   0  0  0  0  0  0  0  0  0  0  0  0
  160.7873   41.3587  142.4814 C   0  0  2  0  0  0  0  0  0  0  0  0
  156.6262   45.5472  147.8581 C   0  0  1  0  0  0  0  0  0  0  0  0
  156.1272   40.6993  140.1587 N   0  0  0  0  0  0  0  0  0  0  0  0
  157.1170   41.5700  139.8848 C   0  0  1  0  0  0  0  0  0  0  0  0
  157.1511   44.1547  148.1387 C   0  0  2  0  0  0  0  0  0  0  0  0
  156.9603   42.4430  138.8647 N   0  0  0  0  0  0  0  0  0  0  0  0
  157.1647   43.9792  149.5582 O   0  0  0  0  0  0  0  0  0  0  0  0
  158.5613   44.1357  147.5791 C   0  0  2  0  0  0  0  0  0  0  0  0
  158.2752   41.6275  140.5806 N   0  0  0  0  0  0  0  0  0  0  0  0
  159.4067   43.2542  148.3170 O   0  0  0  0  0  0  0  0  0  0  0  0
  158.5054   40.7914  141.6154 C   0  0  2  0  0  0  0  0  0  0  0  0
  158.9855   45.5961  147.7179 C   0  0  2  0  0  0  0  0  0  0  0  0
  157.7870   46.3744  147.7423 O   0  0  0  0  0  0  0  0  0  0  0  0
  157.4690   39.8172  141.9712 C   0  0  2  0  0  0  0  0  0  0  0  0
  159.9031   46.1140  146.6060 C   0  0  0  0  0  0  0  0  0  0  0  0
  159.4509   45.7675  145.2976 O   0  0  0  0  0  0  0  0  0  0  0  0
  156.2264   39.8124  141.1637 C   0  0  0  0  0  0  0  0  0  0  0  0
  155.3074   38.9983  141.4219 O   0  0  0  0  0  0  0  0  0  0  0  0
  157.9488   39.1284  143.0220 N   0  0  0  0  0  0  0  0  0  0  0  0
  159.1800   39.6122  143.3139 C   0  0  0  0  0  0  0  0  0  0  0  0
  159.5107   40.6058  142.4707 N   0  0  1  0  0  0  0  0  0  0  0  0
  155.3992   48.2352  143.5099 N   0  0  0  0  0  0  0  0  0  0  0  0
  161.4993   46.9036  144.2744 O   0  5  0  0  0  0  0  0  0  0  0  0
  156.1622   48.5910  144.5550 C   0  0  2  0  0  0  0  0  0  0  0  0
  156.7184   49.8113  144.5266 N   0  0  0  0  0  0  0  0  0  0  0  0
  159.6511   45.7620  142.7859 O   0  0  0  0  0  0  0  0  0  0  0  0
  156.3971   47.7878  145.6189 N   0  0  0  0  0  0  0  0  0  0  0  0
  155.8588   46.5517  145.6800 C   0  0  1  0  0  0  0  0  0  0  0  0
  155.0078   46.1007  144.5606 C   0  0  1  0  0  0  0  0  0  0  0  0
  154.8098   47.0412  143.4284 C   0  0  0  0  0  0  0  0  0  0  0  0
  154.1033   46.7564  142.4375 O   0  0  0  0  0  0  0  0  0  0  0  0
  154.6113   44.8547  144.8646 N   0  0  0  0  0  0  0  0  0  0  0  0
  155.1567   44.5436  146.0733 C   0  0  0  0  0  0  0  0  0  0  0  0
  155.9044   45.5532  146.5615 N   0  0  2  0  0  0  0  0  0  0  0  0
  1  3  1  1  0  0  0
  1  4  2  0  0  0  0
  1  6  1  0  0  0  0
  1 22  1  0  0  0  0
  2 28  1  0  0  0  0
  2 35  1  1  0  0  0
  2 38  2  0  0  0  0
  2 10  1  0  0  0  0
  5  6  1  0  0  0  0
  7  5  1  1  0  0  0
  7  8  1  0  0  0  0
  7  9  1  0  0  0  0
  9 10  1  6  0  0  0
  9 11  1  0  0  0  0
 11 12  1  6  0  0  0
 11 13  1  0  0  0  0
 13  8  1  1  0  0  0
 13 33  1  0  0  0  0
 14 46  1  0  0  0  0
 14 17  1  0  0  0  0
 14 25  1  6  0  0  0
 15 16  1  0  0  0  0
 15 29  1  0  0  0  0
 16 18  1  1  0  0  0
 16 21  1  0  0  0  0
 17 19  1  1  0  0  0
 17 20  1  0  0  0  0
 20 22  1  1  0  0  0
 20 24  1  0  0  0  0
 23 21  1  1  0  0  0
 23 26  1  0  0  0  0
 23 33  1  0  0  0  0
 24 25  1  6  0  0  0
 24 27  1  0  0  0  0
 26 29  1  1  0  0  0
 26 31  1  0  0  0  0
 27 28  1  0  0  0  0
 29 30  2  0  0  0  0
 31 32  1  0  0  0  0
 33 32  1  6  0  0  0
 34 36  1  0  0  0  0
 34 42  1  0  0  0  0
 36 37  1  6  0  0  0
 36 39  1  0  0  0  0
 40 39  1  6  0  0  0
 40 41  1  0  0  0  0
 40 46  1  0  0  0  0
 41 42  1  6  0  0  0
 41 44  1  0  0  0  0
 42 43  2  0  0  0  0
 44 45  1  0  0  0  0
 46 45  1  1  0  0  0
M  CHG  2   3  -1  35  -1
M  END
>  <CHROM.1>
172.63607847,-145.61062210,158.35090791,43.69888967,144.62159482,-1.23382074
-0.89039923,0.87891419

>  <Name>
ligand

>  <RI>
0

>  <Rbt.Current_Directory>
/home/itssahil/PROJECTS/Mol_Feturizer/Test_systems_manuscript/rnas/4yb0

>  <Rbt.Executable>
rbdock ($Id: //depot/dev/client3/rdock/2013.1/src/exe/rbdock.cxx#4 $)

>  <Rbt.Library>
libRbt.so (2013.1, Build901 2013/11/27)

>  <Rbt.Parameter_File>
/export/apps/rDock/src/rDock_2013.1_src/data/scripts/dock_solv.prm

>  <Rbt.Receptor>
prm/pocket_docking_4.prm

>  <SCORE>
-36.3213

>  <SCORE.INTER>
-36.8171

>  <SCORE.INTER.CONST>
1

>  <SCORE.INTER.POLAR>
0

>  <SCORE.INTER.ROT>
2

>  <SCORE.INTER.SOLV>
30.0205

>  <SCORE.INTER.VDW>
-39.4849

>  <SCORE.INTER.norm>
-0.800371

>  <SCORE.INTRA>
0.115147

>  <SCORE.INTRA.DIHEDRAL>
-0.0599794

>  <SCORE.INTRA.DIHEDRAL.0>
2.42188

>  <SCORE.INTRA.POLAR>
0

>  <SCORE.INTRA.POLAR.0>
0

>  <SCORE.INTRA.REPUL>
0

>  <SCORE.INTRA.REPUL.0>
0

>  <SCORE.INTRA.SOLV>
0.0506363

>  <SCORE.INTRA.SOLV.lig_0>
-127.307

>  <SCORE.INTRA.VDW>
0.119819

>  <SCORE.INTRA.VDW.0>
-2.19936

>  <SCORE.INTRA.norm>
0.0025032

>  <SCORE.RESTR>
0.38065

>  <SCORE.RESTR.CAVITY>
0.38065

>  <SCORE.RESTR.norm>
0.00827501

>  <SCORE.SYSTEM>
0

>  <SCORE.SYSTEM.CONST>
0

>  <SCORE.SYSTEM.DIHEDRAL>
0

>  <SCORE.SYSTEM.SOLV>
0

>  <SCORE.SYSTEM.norm>
0

>  <SCORE.heavy>
46

>  <SCORE.norm>
-0.789593

>  <RMSD>
2.482

$$$$
ligand
 OpenBabel02271912143D
libRbt.so/2013.1/901 2013/11/27
 46 52  0  0  0  0  0  0  0  0999 V2000
  159.5969   41.4838  147.7948 P   0  0  1  0  0  0  0  0  0  0  0  0
  160.1759   45.9226  144.2744 P   0  0  1  0  0  0  0  0  0  0  0  0
  158.2240   40.8633  147.8302 O   0  5  0  0  0  0  0  0  0  0  0  0
  160.6969   40.7439  148.5241 O   0  0  0  0  0  0  0  0  0  0  0  0
  161.3030   41.5006  145.7729 C   0  0  0  0  0  0  0  0  0  0  0  0
  159.9906   41.7506  146.2589 O   0  0  0  0  0  0  0  0  0  0  0  0
  161.5029   42.1940  144.4353 C   0  0  1  0  0  0  0  0  0  0  0  0
  161.4125   41.2116  143.4132 O   0  0  0  0  0  0  0  0  0  0  0  0
  160.4773   43.2655  144.0882 C   0  0  1  0  0  0  0  0  0  0  0  0
  161.0465   44.5522  144.2807 O   0  0  0  0  0  0  0  0  0  0  0  0
  160.2506   43.0693  142.6059 C   0  0  1  0  0  0  0  0  0  0  0  0
  161.1753   43.8715  141.8688 O   0  0  0  0  0  0  0  0  0  0  0  0
  160.6007   41.6360  142.3290 C   0  0  2  0  0  0  0  0  0  0  0  0
  156.5529   45.1694  148.2365 C   0  0  1  0  0  0  0  0  0  0  0  0
  156.1975   40.4220  139.7435 N   0  0  0  0  0  0  0  0  0  0  0  0
  157.1737   41.2952  139.4311 C   0  0  1  0  0  0  0  0  0  0  0  0
  157.1538   43.7861  148.3739 C   0  0  2  0  0  0  0  0  0  0  0  0
  157.0759   42.0079  138.2867 N   0  0  0  0  0  0  0  0  0  0  0  0
  157.2517   43.4978  149.7714 O   0  0  0  0  0  0  0  0  0  0  0  0
  158.5312   43.8812  147.7446 C   0  0  2  0  0  0  0  0  0  0  0  0
  158.2614   41.5083  140.2059 N   0  0  0  0  0  0  0  0  0  0  0  0
  159.4536   42.9856  148.3636 O   0  0  0  0  0  0  0  0  0  0  0  0
  158.4296   40.8377  141.3657 C   0  0  2  0  0  0  0  0  0  0  0  0
  158.8966   45.3447  147.9828 C   0  0  2  0  0  0  0  0  0  0  0  0
  157.6677   46.0590  148.1317 O   0  0  0  0  0  0  0  0  0  0  0  0
  157.4037   39.8713  141.7697 C   0  0  2  0  0  0  0  0  0  0  0  0
  159.7290   45.9947  146.8731 C   0  0  0  0  0  0  0  0  0  0  0  0
  159.2228   45.7330  145.5648 O   0  0  0  0  0  0  0  0  0  0  0  0
  156.2399   39.6905  140.8703 C   0  0  0  0  0  0  0  0  0  0  0  0
  155.3335   38.8746  141.1649 O   0  0  0  0  0  0  0  0  0  0  0  0
  157.8132   39.3614  142.9449 N   0  0  0  0  0  0  0  0  0  0  0  0
  158.9935   39.9434  143.2663 C   0  0  0  0  0  0  0  0  0  0  0  0
  159.3602   40.8250  142.3198 N   0  0  1  0  0  0  0  0  0  0  0  0
  155.6836   47.7183  143.7215 N   0  0  0  0  0  0  0  0  0  0  0  0
  161.1603   47.0466  144.5381 O   0  5  0  0  0  0  0  0  0  0  0  0
  156.5804   47.9635  144.6892 C   0  0  2  0  0  0  0  0  0  0  0  0
  157.4028   49.0093  144.5186 N   0  0  0  0  0  0  0  0  0  0  0  0
  159.2873   45.9397  143.0545 O   0  0  0  0  0  0  0  0  0  0  0  0
  156.6958   47.2146  145.8109 N   0  0  0  0  0  0  0  0  0  0  0  0
  155.8894   46.1517  146.0145 C   0  0  1  0  0  0  0  0  0  0  0  0
  154.8797   45.8296  144.9863 C   0  0  1  0  0  0  0  0  0  0  0  0
  154.8273   46.6972  143.7820 C   0  0  0  0  0  0  0  0  0  0  0  0
  154.0056   46.5115  142.8587 O   0  0  0  0  0  0  0  0  0  0  0  0
  154.2256   44.7426  145.4254 N   0  0  0  0  0  0  0  0  0  0  0  0
  154.7673   44.4073  146.6293 C   0  0  0  0  0  0  0  0  0  0  0  0
  155.7627   45.2445  146.9826 N   0  0  2  0  0  0  0  0  0  0  0  0
  1  3  1  1  0  0  0
  1  4  2  0  0  0  0
  1  6  1  0  0  0  0
  1 22  1  0  0  0  0
  2 28  1  0  0  0  0
  2 35  1  1  0  0  0
  2 38  2  0  0  0  0
  2 10  1  0  0  0  0
  5  6  1  0  0  0  0
  7  5  1  1  0  0  0
  7  8  1  0  0  0  0
  7  9  1  0  0  0  0
  9 10  1  6  0  0  0
  9 11  1  0  0  0  0
 11 12  1  6  0  0  0
 11 13  1  0  0  0  0
 13  8  1  1  0  0  0
 13 33  1  0  0  0  0
 14 46  1  0  0  0  0
 14 17  1  0  0  0  0
 14 25  1  6  0  0  0
 15 16  1  0  0  0  0
 15 29  1  0  0  0  0
 16 18  1  1  0  0  0
 16 21  1  0  0  0  0
 17 19  1  1  0  0  0
 17 20  1  0  0  0  0
 20 22  1  1  0  0  0
 20 24  1  0  0  0  0
 23 21  1  1  0  0  0
 23 26  1  0  0  0  0
 23 33  1  0  0  0  0
 24 25  1  6  0  0  0
 24 27  1  0  0  0  0
 26 29  1  1  0  0  0
 26 31  1  0  0  0  0
 27 28  1  0  0  0  0
 29 30  2  0  0  0  0
 31 32  1  0  0  0  0
 33 32  1  6  0  0  0
 34 36  1  0  0  0  0
 34 42  1  0  0  0  0
 36 37  1  6  0  0  0
 36 39  1  0  0  0  0
 40 39  1  6  0  0  0
 40 41  1  0  0  0  0
 40 46  1  0  0  0  0
 41 42  1  6  0  0  0
 41 44  1  0  0  0  0
 42 43  2  0  0  0  0
 44 45  1  0  0  0  0
 46 45  1  1  0  0  0
M  CHG  2   3  -1  35  -1
M  END
>  <CHROM.1>
-172.23307225,-126.56683414,158.29588487,43.57268459,144.67480362,-1.69254691
0.90972693,-2.18810843

>  <Name>
ligand

>  <RI>
0

>  <Rbt.Current_Directory>
/home/itssahil/PROJECTS/Mol_Feturizer/Test_systems_manuscript/rnas/4yb0

>  <Rbt.Executable>
rbdock ($Id: //depot/dev/client3/rdock/2013.1/src/exe/rbdock.cxx#4 $)

>  <Rbt.Library>
libRbt.so (2013.1, Build901 2013/11/27)

>  <Rbt.Parameter_File>
/export/apps/rDock/src/rDock_2013.1_src/data/scripts/dock_solv.prm

>  <Rbt.Receptor>
prm/pocket_docking_3.prm

>  <SCORE>
-40.1407

>  <SCORE.INTER>
-40.4181

>  <SCORE.INTER.CONST>
1

>  <SCORE.INTER.POLAR>
0

>  <SCORE.INTER.ROT>
2

>  <SCORE.INTER.SOLV>
28.408

>  <SCORE.INTER.VDW>
-41.348

>  <SCORE.INTER.norm>
-0.878653

>  <SCORE.INTRA>
0.275442

>  <SCORE.INTRA.DIHEDRAL>
-0.0226324

>  <SCORE.INTRA.DIHEDRAL.0>
2.42188

>  <SCORE.INTRA.POLAR>
0

>  <SCORE.INTRA.POLAR.0>
0

>  <SCORE.INTRA.REPUL>
0

>  <SCORE.INTRA.REPUL.0>
0

>  <SCORE.INTRA.SOLV>
2.77313

>  <SCORE.INTRA.SOLV.lig_0>
-127.307

>  <SCORE.INTRA.VDW>
-1.09981

>  <SCORE.INTRA.VDW.0>
-2.19936

>  <SCORE.INTRA.norm>
0.00598787

>  <SCORE.RESTR>
0.00187513

>  <SCORE.RESTR.CAVITY>
0.00187513

>  <SCORE.RESTR.norm>
4.07636e-05

>  <SCORE.SYSTEM>
0

>  <SCORE.SYSTEM.CONST>
0

>  <SCORE.SYSTEM.DIHEDRAL>
0

>  <SCORE.SYSTEM.SOLV>
0

>  <SCORE.SYSTEM.norm>
0

>  <SCORE.heavy>
46

>  <SCORE.norm>
-0.872625

>  <RMSD>
2.509

$$$$
ligand
 OpenBabel02271912143D
libRbt.so/2013.1/901 2013/11/27
 46 52  0  0  0  0  0  0  0  0999 V2000
  159.6176   41.5447  147.8248 P   0  0  1  0  0  0  0  0  0  0  0  0
  160.1687   45.9467  144.2542 P   0  0  1  0  0  0  0  0  0  0  0  0
  158.2472   40.9194  147.8714 O   0  5  0  0  0  0  0  0  0  0  0  0
  160.7227   40.8169  148.5587 O   0  0  0  0  0  0  0  0  0  0  0  0
  161.3173   41.5456  145.7974 C   0  0  0  0  0  0  0  0  0  0  0  0
  160.0055   41.7961  146.2849 O   0  0  0  0  0  0  0  0  0  0  0  0
  161.5103   42.2250  144.4517 C   0  0  1  0  0  0  0  0  0  0  0  0
  161.4203   41.2312  143.4406 O   0  0  0  0  0  0  0  0  0  0  0  0
  160.4795   43.2889  144.0961 C   0  0  1  0  0  0  0  0  0  0  0  0
  161.0444   44.5797  144.2727 O   0  0  0  0  0  0  0  0  0  0  0  0
  160.2489   43.0756  142.6169 C   0  0  1  0  0  0  0  0  0  0  0  0
  161.1682   43.8732  141.8680 O   0  0  0  0  0  0  0  0  0  0  0  0
  160.6035   41.6407  142.3545 C   0  0  2  0  0  0  0  0  0  0  0  0
  156.5611   45.2234  148.2359 C   0  0  1  0  0  0  0  0  0  0  0  0
  156.1823   40.4039  139.8109 N   0  0  0  0  0  0  0  0  0  0  0  0
  157.1524   41.2800  139.4878 C   0  0  1  0  0  0  0  0  0  0  0  0
  157.1677   43.8440  148.3866 C   0  0  2  0  0  0  0  0  0  0  0  0
  157.0418   41.9896  138.3426 N   0  0  0  0  0  0  0  0  0  0  0  0
  157.2712   43.5714  149.7868 O   0  0  0  0  0  0  0  0  0  0  0  0
  158.5427   43.9374  147.7519 C   0  0  2  0  0  0  0  0  0  0  0  0
  158.2460   41.4991  140.2525 N   0  0  0  0  0  0  0  0  0  0  0  0
  159.4705   43.0520  148.3776 O   0  0  0  0  0  0  0  0  0  0  0  0
  158.4270   40.8319  141.4123 C   0  0  2  0  0  0  0  0  0  0  0  0
  158.9034   45.4047  147.9728 C   0  0  2  0  0  0  0  0  0  0  0  0
  157.6723   46.1160  148.1179 O   0  0  0  0  0  0  0  0  0  0  0  0
  157.4084   39.8626  141.8276 C   0  0  2  0  0  0  0  0  0  0  0  0
  159.7298   46.0456  146.8534 C   0  0  0  0  0  0  0  0  0  0  0  0
  159.2204   45.7677  145.5497 O   0  0  0  0  0  0  0  0  0  0  0  0
  156.2374   39.6752  140.9389 C   0  0  0  0  0  0  0  0  0  0  0  0
  155.3367   38.8567  141.2435 O   0  0  0  0  0  0  0  0  0  0  0  0
  157.8302   39.3571  143.0004 N   0  0  0  0  0  0  0  0  0  0  0  0
  159.0111   39.9443  143.3100 C   0  0  0  0  0  0  0  0  0  0  0  0
  159.3660   40.8250  142.3582 N   0  0  1  0  0  0  0  0  0  0  0  0
  155.6872   47.7025  143.6831 N   0  0  0  0  0  0  0  0  0  0  0  0
  161.1497   47.0772  144.5024 O   0  5  0  0  0  0  0  0  0  0  0  0
  156.5887   47.9591  144.6434 C   0  0  2  0  0  0  0  0  0  0  0  0
  157.4154   48.9981  144.4528 N   0  0  0  0  0  0  0  0  0  0  0  0
  159.2762   45.9472  143.0370 O   0  0  0  0  0  0  0  0  0  0  0  0
  156.7047   47.2281  145.7768 N   0  0  0  0  0  0  0  0  0  0  0  0
  155.8941   46.1726  146.0006 C   0  0  1  0  0  0  0  0  0  0  0  0
  154.8791   45.8385  144.9815 C   0  0  1  0  0  0  0  0  0  0  0  0
  154.8264   46.6865  143.7634 C   0  0  0  0  0  0  0  0  0  0  0  0
  154.0004   46.4898  142.8462 O   0  0  0  0  0  0  0  0  0  0  0  0
  154.2215   44.7619  145.4406 N   0  0  0  0  0  0  0  0  0  0  0  0
  154.7661   44.4438  146.6479 C   0  0  0  0  0  0  0  0  0  0  0  0
  155.7667   45.2819  146.9839 N   0  0  2  0  0  0  0  0  0  0  0  0
  1  3  1  1  0  0  0
  1  4  2  0  0  0  0
  1  6  1  0  0  0  0
  1 22  1  0  0  0  0
  2 28  1  0  0  0  0
  2 35  1  1  0  0  0
  2 38  2  0  0  0  0
  2 10  1  0  0  0  0
  5  6  1  0  0  0  0
  7  5  1  1  0  0  0
  7  8  1  0  0  0  0
  7  9  1  0  0  0  0
  9 10  1  6  0  0  0
  9 11  1  0  0  0  0
 11 12  1  6  0  0  0
 11 13  1  0  0  0  0
 13  8  1  1  0  0  0
 13 33  1  0  0  0  0
 14 46  1  0  0  0  0
 14 17  1  0  0  0  0
 14 25  1  6  0  0  0
 15 16  1  0  0  0  0
 15 29  1  0  0  0  0
 16 18  1  1  0  0  0
 16 21  1  0  0  0  0
 17 19  1  1  0  0  0
 17 20  1  0  0  0  0
 20 22  1  1  0  0  0
 20 24  1  0  0  0  0
 23 21  1  1  0  0  0
 23 26  1  0  0  0  0
 23 33  1  0  0  0  0
 24 25  1  6  0  0  0
 24 27  1  0  0  0  0
 26 29  1  1  0  0  0
 26 31  1  0  0  0  0
 27 28  1  0  0  0  0
 29 30  2  0  0  0  0
 31 32  1  0  0  0  0
 33 32  1  6  0  0  0
 34 36  1  0  0  0  0
 34 42  1  0  0  0  0
 36 37  1  6  0  0  0
 36 39  1  0  0  0  0
 40 39  1  6  0  0  0
 40 41  1  0  0  0  0
 40 46  1  0  0  0  0
 41 42  1  6  0  0  0
 41 44  1  0  0  0  0
 42 43  2  0  0  0  0
 44 45  1  0  0  0  0
 46 45  1  1  0  0  0
M  CHG  2   3  -1  35  -1
M  END
>  <CHROM.1>
-172.82024011,-125.99086135,158.29938722,43.59485574,144.68649036,-1.68661370
0.90536864,-2.20038061

>  <Name>
ligand

>  <RI>
0

>  <Rbt.Current_Directory>
/home/itssahil/PROJECTS/Mol_Feturizer/Test_systems_manuscript/rnas/4yb0

>  <Rbt.Executable>
rbdock ($Id: //depot/dev/client3/rdock/2013.1/src/exe/rbdock.cxx#4 $)

>  <Rbt.Library>
libRbt.so (2013.1, Build901 2013/11/27)

>  <Rbt.Parameter_File>
/export/apps/rDock/src/rDock_2013.1_src/data/scripts/dock_solv.prm

>  <Rbt.Receptor>
prm/pocket_docking_3.prm

>  <SCORE>
-40.1245

>  <SCORE.INTER>
-40.534

>  <SCORE.INTER.CONST>
1

>  <SCORE.INTER.POLAR>
0

>  <SCORE.INTER.ROT>
2

>  <SCORE.INTER.SOLV>
27.9047

>  <SCORE.INTER.VDW>
-41.2576

>  <SCORE.INTER.norm>
-0.881175

>  <SCORE.INTRA>
0.382803

>  <SCORE.INTRA.DIHEDRAL>
-0.0224232

>  <SCORE.INTRA.DIHEDRAL.0>
2.42188

>  <SCORE.INTRA.POLAR>
0

>  <SCORE.INTRA.POLAR.0>
0

>  <SCORE.INTRA.REPUL>
0

>  <SCORE.INTRA.REPUL.0>
0

>  <SCORE.INTRA.SOLV>
3.04138

>  <SCORE.INTRA.SOLV.lig_0>
-127.307

>  <SCORE.INTRA.VDW>
-1.12667

>  <SCORE.INTRA.VDW.0>
-2.19936

>  <SCORE.INTRA.norm>
0.0083218

>  <SCORE.RESTR>
0.026775

>  <SCORE.RESTR.CAVITY>
0.026775

>  <SCORE.RESTR.norm>
0.000582065

>  <SCORE.SYSTEM>
0

>  <SCORE.SYSTEM.CONST>
0

>  <SCORE.SYSTEM.DIHEDRAL>
0

>  <SCORE.SYSTEM.SOLV>
0

>  <SCORE.SYSTEM.norm>
0

>  <SCORE.heavy>
46

>  <SCORE.norm>
-0.872271

>  <RMSD>
2.509

$$$$
ligand
 OpenBabel02271912143D
libRbt.so/2013.1/901 2013/11/27
 46 52  0  0  0  0  0  0  0  0999 V2000
  159.7059   48.2178  143.1511 P   0  0  1  0  0  0  0  0  0  0  0  0
  159.4528   43.7874  146.7203 P   0  0  1  0  0  0  0  0  0  0  0  0
  159.2192   47.9468  141.7508 O   0  5  0  0  0  0  0  0  0  0  0  0
  160.0038   49.6595  143.5007 O   0  0  0  0  0  0  0  0  0  0  0  0
  158.2732   48.2449  145.3751 C   0  0  0  0  0  0  0  0  0  0  0  0
  158.6574   47.5706  144.1840 O   0  0  0  0  0  0  0  0  0  0  0  0
  157.6069   47.2705  146.3324 C   0  0  1  0  0  0  0  0  0  0  0  0
  156.2047   47.4913  146.2788 O   0  0  0  0  0  0  0  0  0  0  0  0
  157.8177   45.7938  146.0230 C   0  0  1  0  0  0  0  0  0  0  0  0
  158.7763   45.2500  146.9185 O   0  0  0  0  0  0  0  0  0  0  0  0
  156.4753   45.1728  146.3380 C   0  0  1  0  0  0  0  0  0  0  0  0
  156.4436   44.7680  147.7081 O   0  0  0  0  0  0  0  0  0  0  0  0
  155.4719   46.2791  146.1877 C   0  0  2  0  0  0  0  0  0  0  0  0
  161.8156   44.1063  141.8513 C   0  0  1  0  0  0  0  0  0  0  0  0
  151.5127   44.3900  143.3063 N   0  0  0  0  0  0  0  0  0  0  0  0
  151.7845   44.2324  144.6156 C   0  0  1  0  0  0  0  0  0  0  0  0
  161.2066   45.4904  141.7678 C   0  0  2  0  0  0  0  0  0  0  0  0
  150.9522   43.4841  145.3737 N   0  0  0  0  0  0  0  0  0  0  0  0
  162.1881   46.3569  141.1919 O   0  0  0  0  0  0  0  0  0  0  0  0
  160.9112   45.8875  143.2021 C   0  0  2  0  0  0  0  0  0  0  0  0
  152.8576   44.7827  145.2274 N   0  0  0  0  0  0  0  0  0  0  0  0
  161.0096   47.2990  143.3864 O   0  0  0  0  0  0  0  0  0  0  0  0
  153.7370   45.5402  144.5375 C   0  0  2  0  0  0  0  0  0  0  0  0
  161.9841   45.1260  143.9774 C   0  0  2  0  0  0  0  0  0  0  0  0
  162.3696   44.0140  143.1665 O   0  0  0  0  0  0  0  0  0  0  0  0
  153.5042   45.7529  143.1056 C   0  0  2  0  0  0  0  0  0  0  0  0
  161.5520   44.6208  145.3575 C   0  0  0  0  0  0  0  0  0  0  0  0
  160.2808   43.9725  145.3456 O   0  0  0  0  0  0  0  0  0  0  0  0
  152.3075   45.1188  142.5040 C   0  0  0  0  0  0  0  0  0  0  0  0
  152.0577   45.2697  141.2839 O   0  0  0  0  0  0  0  0  0  0  0  0
  154.5168   46.5252  142.6733 N   0  0  0  0  0  0  0  0  0  0  0  0
  155.3248   46.7872  143.7287 C   0  0  0  0  0  0  0  0  0  0  0  0
  154.8556   46.1978  144.8422 N   0  0  1  0  0  0  0  0  0  0  0  0
  158.9878   40.3364  144.1813 N   0  0  0  0  0  0  0  0  0  0  0  0
  160.4247   43.6149  147.8725 O   0  5  0  0  0  0  0  0  0  0  0  0
  159.9467   41.1286  144.6851 C   0  0  2  0  0  0  0  0  0  0  0  0
  160.2631   40.9690  145.9789 N   0  0  0  0  0  0  0  0  0  0  0  0
  158.3680   42.7704  146.4614 O   0  0  0  0  0  0  0  0  0  0  0  0
  160.5976   42.0697  143.9620 N   0  0  0  0  0  0  0  0  0  0  0  0
  160.3025   42.2624  142.6593 C   0  0  1  0  0  0  0  0  0  0  0  0
  159.2561   41.4211  142.0448 C   0  0  1  0  0  0  0  0  0  0  0  0
  158.5854   40.4193  142.9121 C   0  0  0  0  0  0  0  0  0  0  0  0
  157.6921   39.6562  142.4858 O   0  0  0  0  0  0  0  0  0  0  0  0
  159.1569   41.8146  140.7651 N   0  0  0  0  0  0  0  0  0  0  0  0
  160.0644   42.8135  140.5810 C   0  0  0  0  0  0  0  0  0  0  0  0
  160.7479   43.0854  141.7103 N   0  0  2  0  0  0  0  0  0  0  0  0
  1  3  1  6  0  0  0
  1  4  2  0  0  0  0
  1  6  1  0  0  0  0
  1 22  1  0  0  0  0
  2 28  1  0  0  0  0
  2 35  1  1  0  0  0
  2 38  2  0  0  0  0
  2 10  1  0  0  0  0
  5  6  1  0  0  0  0
  7  5  1  6  0  0  0
  7  8  1  0  0  0  0
  7  9  1  0  0  0  0
  9 10  1  1  0  0  0
  9 11  1  0  0  0  0
 11 12  1  1  0  0  0
 11 13  1  0  0  0  0
 13  8  1  6  0  0  0
 13 33  1  0  0  0  0
 14 46  1  0  0  0  0
 14 17  1  0  0  0  0
 14 25  1  1  0  0  0
 15 16  1  0  0  0  0
 15 29  1  0  0  0  0
 16 18  1  6  0  0  0
 16 21  1  0  0  0  0
 17 19  1  1  0  0  0
 17 20  1  0  0  0  0
 20 22  1  6  0  0  0
 20 24  1  0  0  0  0
 23 21  1  6  0  0  0
 23 26  1  0  0  0  0
 23 33  1  0  0  0  0
 24 25  1  6  0  0  0
 24 27  1  0  0  0  0
 26 29  1  6  0  0  0
 26 31  1  0  0  0  0
 27 28  1  0  0  0  0
 29 30  2  0  0  0  0
 31 32  1  0  0  0  0
 33 32  1  1  0  0  0
 34 36  1  0  0  0  0
 34 42  1  0  0  0  0
 36 37  1  1  0  0  0
 36 39  1  0  0  0  0
 40 39  1  1  0  0  0
 40 41  1  0  0  0  0
 40 46  1  0  0  0  0
 41 42  1  1  0  0  0
 41 44  1  0  0  0  0
 42 43  2  0  0  0  0
 44 45  1  0  0  0  0
 46 45  1  6  0  0  0
M  CHG  2   3  -1  35  -1
M  END
>  <CHROM.1>
-152.53137525,-110.89225067,158.08745190,44.78757020,144.14951511,-0.15165637
0.10793888,0.03945050

>  <Name>
ligand

>  <RI>
0

>  <Rbt.Current_Directory>
/home/itssahil/PROJECTS/Mol_Feturizer/Test_systems_manuscript/rnas/4yb0

>  <Rbt.Executable>
rbdock ($Id: //depot/dev/client3/rdock/2013.1/src/exe/rbdock.cxx#4 $)

>  <Rbt.Library>
libRbt.so (2013.1, Build901 2013/11/27)

>  <Rbt.Parameter_File>
/export/apps/rDock/src/rDock_2013.1_src/data/scripts/dock_solv.prm

>  <Rbt.Receptor>
prm/pocket_docking_3.prm

>  <SCORE>
-22.1113

>  <SCORE.INTER>
-26.5552

>  <SCORE.INTER.CONST>
1

>  <SCORE.INTER.POLAR>
0

>  <SCORE.INTER.ROT>
2

>  <SCORE.INTER.SOLV>
25.1928

>  <SCORE.INTER.VDW>
-31.0344

>  <SCORE.INTER.norm>
-0.577288

>  <SCORE.INTRA>
4.3648

>  <SCORE.INTRA.DIHEDRAL>
0.0152331

>  <SCORE.INTRA.DIHEDRAL.0>
2.42188

>  <SCORE.INTRA.POLAR>
0

>  <SCORE.INTRA.POLAR.0>
0

>  <SCORE.INTRA.REPUL>
0

>  <SCORE.INTRA.REPUL.0>
0

>  <SCORE.INTRA.SOLV>
9.33864

>  <SCORE.INTRA.SOLV.lig_0>
-127.307

>  <SCORE.INTRA.VDW>
-0.312132

>  <SCORE.INTRA.VDW.0>
-2.19936

>  <SCORE.INTRA.norm>
0.094887

>  <SCORE.RESTR>
0.0791647

>  <SCORE.RESTR.CAVITY>
0.0791647

>  <SCORE.RESTR.norm>
0.00172097

>  <SCORE.SYSTEM>
0

>  <SCORE.SYSTEM.CONST>
0

>  <SCORE.SYSTEM.DIHEDRAL>
0

>  <SCORE.SYSTEM.SOLV>
0

>  <SCORE.SYSTEM.norm>
0

>  <SCORE.heavy>
46

>  <SCORE.norm>
-0.48068

>  <RMSD>
2.631

$$$$
ligand
 OpenBabel02271912143D
libRbt.so/2013.1/901 2013/11/27
 46 52  0  0  0  0  0  0  0  0999 V2000
  159.5909   43.7539  147.1020 P   0  0  1  0  0  0  0  0  0  0  0  0
  159.7847   48.2130  143.5651 P   0  0  1  0  0  0  0  0  0  0  0  0
  158.4212   42.8244  146.9048 O   0  5  0  0  0  0  0  0  0  0  0  0
  160.6712   43.2948  148.0570 O   0  0  0  0  0  0  0  0  0  0  0  0
  161.6036   44.1819  145.4391 C   0  0  0  0  0  0  0  0  0  0  0  0
  160.2007   44.1111  145.6578 O   0  0  0  0  0  0  0  0  0  0  0  0
  161.8905   44.9067  144.1345 C   0  0  1  0  0  0  0  0  0  0  0  0
  162.2318   43.9340  143.1571 O   0  0  0  0  0  0  0  0  0  0  0  0
  160.7296   45.7045  143.5542 C   0  0  1  0  0  0  0  0  0  0  0  0
  160.9336   47.0891  143.7947 O   0  0  0  0  0  0  0  0  0  0  0  0
  160.8461   45.4642  142.0657 C   0  0  1  0  0  0  0  0  0  0  0  0
  161.6820   46.4655  141.4821 O   0  0  0  0  0  0  0  0  0  0  0  0
  161.5686   44.1562  141.9220 C   0  0  2  0  0  0  0  0  0  0  0  0
  155.7428   46.6080  146.8021 C   0  0  1  0  0  0  0  0  0  0  0  0
  158.7898   40.2967  144.1421 N   0  0  0  0  0  0  0  0  0  0  0  0
  159.6860   41.1426  144.6846 C   0  0  1  0  0  0  0  0  0  0  0  0
  156.6124   45.4070  147.1101 C   0  0  2  0  0  0  0  0  0  0  0  0
  159.9666   41.0451  146.0033 N   0  0  0  0  0  0  0  0  0  0  0  0
  156.5030   45.1463  148.5122 O   0  0  0  0  0  0  0  0  0  0  0  0
  158.0242   45.8290  146.7482 C   0  0  2  0  0  0  0  0  0  0  0  0
  160.3351   42.0965  143.9791 N   0  0  0  0  0  0  0  0  0  0  0  0
  158.9930   45.1767  147.5681 O   0  0  0  0  0  0  0  0  0  0  0  0
  160.1118   42.2545  142.6570 C   0  0  2  0  0  0  0  0  0  0  0  0
  157.9840   47.3367  146.9874 C   0  0  2  0  0  0  0  0  0  0  0  0
  156.6171   47.7376  146.8710 O   0  0  0  0  0  0  0  0  0  0  0  0
  159.1485   41.3660  141.9993 C   0  0  2  0  0  0  0  0  0  0  0  0
  158.8395   48.1692  146.0274 C   0  0  0  0  0  0  0  0  0  0  0  0
  158.6714   47.7984  144.6597 O   0  0  0  0  0  0  0  0  0  0  0  0
  158.4756   40.3448  142.8362 C   0  0  0  0  0  0  0  0  0  0  0  0
  157.6402   39.5597  142.3265 O   0  0  0  0  0  0  0  0  0  0  0  0
  159.1250   41.7328  140.7056 N   0  0  0  0  0  0  0  0  0  0  0  0
  159.9904   42.7628  140.5457 C   0  0  0  0  0  0  0  0  0  0  0  0
  160.5782   43.0733  141.7143 N   0  0  1  0  0  0  0  0  0  0  0  0
  152.0207   44.6439  143.6515 N   0  0  0  0  0  0  0  0  0  0  0  0
  160.4087   49.5382  143.9607 O   0  5  0  0  0  0  0  0  0  0  0  0
  152.1722   44.5291  144.9799 C   0  0  2  0  0  0  0  0  0  0  0  0
  151.2547   43.8130  145.6467 N   0  0  0  0  0  0  0  0  0  0  0  0
  159.1699   48.0217  142.2000 O   0  0  0  0  0  0  0  0  0  0  0  0
  153.1895   45.0963  145.6697 N   0  0  0  0  0  0  0  0  0  0  0  0
  154.1283   45.8281  145.0337 C   0  0  1  0  0  0  0  0  0  0  0  0
  154.0184   45.9914  143.5702 C   0  0  1  0  0  0  0  0  0  0  0  0
  152.8661   45.3437  142.8931 C   0  0  0  0  0  0  0  0  0  0  0  0
  152.6874   45.4178  141.6583 O   0  0  0  0  0  0  0  0  0  0  0  0
  155.0572   46.7548  143.1953 N   0  0  0  0  0  0  0  0  0  0  0  0
  155.7680   47.0456  144.3202 C   0  0  0  0  0  0  0  0  0  0  0  0
  155.2147   46.4965  145.4198 N   0  0  2  0  0  0  0  0  0  0  0  0
  1  3  1  6  0  0  0
  1  4  2  0  0  0  0
  1  6  1  0  0  0  0
  1 22  1  0  0  0  0
  2 28  1  0  0  0  0
  2 35  1  1  0  0  0
  2 38  2  0  0  0  0
  2 10  1  0  0  0  0
  5  6  1  0  0  0  0
  7  5  1  1  0  0  0
  7  8  1  0  0  0  0
  7  9  1  0  0  0  0
  9 10  1  6  0  0  0
  9 11  1  0  0  0  0
 11 12  1  6  0  0  0
 11 13  1  0  0  0  0
 13  8  1  1  0  0  0
 13 33  1  0  0  0  0
 14 46  1  0  0  0  0
 14 17  1  0  0  0  0
 14 25  1  6  0  0  0
 15 16  1  0  0  0  0
 15 29  1  0  0  0  0
 16 18  1  6  0  0  0
 16 21  1  0  0  0  0
 17 19  1  1  0  0  0
 17 20  1  0  0  0  0
 20 22  1  1  0  0  0
 20 24  1  0  0  0  0
 23 21  1  6  0  0  0
 23 26  1  0  0  0  0
 23 33  1  0  0  0  0
 24 25  1  6  0  0  0
 24 27  1  0  0  0  0
 26 29  1  6  0  0  0
 26 31  1  0  0  0  0
 27 28  1  0  0  0  0
 29 30  2  0  0  0  0
 31 32  1  0  0  0  0
 33 32  1  1  0  0  0
 34 36  1  0  0  0  0
 34 42  1  0  0  0  0
 36 37  1  1  0  0  0
 36 39  1  0  0  0  0
 40 39  1  1  0  0  0
 40 41  1  0  0  0  0
 40 46  1  0  0  0  0
 41 42  1  1  0  0  0
 41 44  1  0  0  0  0
 42 43  2  0  0  0  0
 44 45  1  0  0  0  0
 46 45  1  6  0  0  0
M  CHG  2   3  -1  35  -1
M  END
>  <CHROM.1>
17.28410048,84.65491242,158.18885351,44.84069807,144.47690577,-0.31975323
0.12480212,0.29784718

>  <Name>
ligand

>  <RI>
0

>  <Rbt.Current_Directory>
/home/itssahil/PROJECTS/Mol_Feturizer/Test_systems_manuscript/rnas/4yb0

>  <Rbt.Executable>
rbdock ($Id: //depot/dev/client3/rdock/2013.1/src/exe/rbdock.cxx#4 $)

>  <Rbt.Library>
libRbt.so (2013.1, Build901 2013/11/27)

>  <Rbt.Parameter_File>
/export/apps/rDock/src/rDock_2013.1_src/data/scripts/dock_solv.prm

>  <Rbt.Receptor>
prm/pocket_docking_3.prm

>  <SCORE>
-21.4126

>  <SCORE.INTER>
-25.4462

>  <SCORE.INTER.CONST>
1

>  <SCORE.INTER.POLAR>
0

>  <SCORE.INTER.ROT>
2

>  <SCORE.INTER.SOLV>
24.0448

>  <SCORE.INTER.VDW>
-29.9124

>  <SCORE.INTER.norm>
-0.553179

>  <SCORE.INTRA>
4.03368

>  <SCORE.INTRA.DIHEDRAL>
-0.0686953

>  <SCORE.INTRA.DIHEDRAL.0>
2.42188

>  <SCORE.INTRA.POLAR>
0

>  <SCORE.INTRA.POLAR.0>
0

>  <SCORE.INTRA.REPUL>
0

>  <SCORE.INTRA.REPUL.0>
0

>  <SCORE.INTRA.SOLV>
9.81613

>  <SCORE.INTRA.SOLV.lig_0>
-127.307

>  <SCORE.INTRA.VDW>
-0.84004

>  <SCORE.INTRA.VDW.0>
-2.19936

>  <SCORE.INTRA.norm>
0.0876886

>  <SCORE.RESTR>
0

>  <SCORE.RESTR.CAVITY>
0

>  <SCORE.RESTR.norm>
0

>  <SCORE.SYSTEM>
0

>  <SCORE.SYSTEM.CONST>
0

>  <SCORE.SYSTEM.DIHEDRAL>
0

>  <SCORE.SYSTEM.SOLV>
0

>  <SCORE.SYSTEM.norm>
0

>  <SCORE.heavy>
46

>  <SCORE.norm>
-0.46549

>  <RMSD>
2.686

$$$$
ligand
 OpenBabel02271912143D
libRbt.so/2013.1/901 2013/11/27
 46 52  0  0  0  0  0  0  0  0999 V2000
  158.6277   48.2772  143.6068 P   0  0  1  0  0  0  0  0  0  0  0  0
  159.2516   43.6509  146.8685 P   0  0  1  0  0  0  0  0  0  0  0  0
  158.0699   48.0253  142.2297 O   0  5  0  0  0  0  0  0  0  0  0  0
  158.7594   49.7230  144.0334 O   0  0  0  0  0  0  0  0  0  0  0  0
  157.3879   47.9759  145.9244 C   0  0  0  0  0  0  0  0  0  0  0  0
  157.7607   47.4323  144.6648 O   0  0  0  0  0  0  0  0  0  0  0  0
  156.9357   46.8644  146.8571 C   0  0  1  0  0  0  0  0  0  0  0  0
  155.5169   46.8934  146.9199 O   0  0  0  0  0  0  0  0  0  0  0  0
  157.3144   45.4515  146.4315 C   0  0  1  0  0  0  0  0  0  0  0  0
  158.4056   44.9924  147.2159 O   0  0  0  0  0  0  0  0  0  0  0  0
  156.0958   44.6346  146.7983 C   0  0  1  0  0  0  0  0  0  0  0  0
  156.2285   44.1490  148.1357 O   0  0  0  0  0  0  0  0  0  0  0  0
  154.9461   45.5996  146.7977 C   0  0  2  0  0  0  0  0  0  0  0  0
  161.1513   44.5784  141.8763 C   0  0  1  0  0  0  0  0  0  0  0  0
  150.8444   43.6337  144.1789 N   0  0  0  0  0  0  0  0  0  0  0  0
  151.2108   43.4717  145.4644 C   0  0  1  0  0  0  0  0  0  0  0  0
  160.3598   45.8683  141.9331 C   0  0  2  0  0  0  0  0  0  0  0  0
  150.4527   42.6955  146.2706 N   0  0  0  0  0  0  0  0  0  0  0  0
  161.1683   46.8939  141.3497 O   0  0  0  0  0  0  0  0  0  0  0  0
  160.1309   46.1355  143.4090 C   0  0  2  0  0  0  0  0  0  0  0  0
  152.3097   44.0444  146.0058 N   0  0  0  0  0  0  0  0  0  0  0  0
  160.0562   47.5339  143.6834 O   0  0  0  0  0  0  0  0  0  0  0  0
  153.1194   44.8304  145.2645 C   0  0  2  0  0  0  0  0  0  0  0  0
  161.3541   45.4841  144.0505 C   0  0  2  0  0  0  0  0  0  0  0  0
  161.8168   44.4855  143.1387 O   0  0  0  0  0  0  0  0  0  0  0  0
  152.7818   45.0496  143.8546 C   0  0  2  0  0  0  0  0  0  0  0  0
  161.1053   44.8436  145.4196 C   0  0  0  0  0  0  0  0  0  0  0  0
  159.9342   44.0289  145.4541 O   0  0  0  0  0  0  0  0  0  0  0  0
  151.5625   44.3900  143.3310 C   0  0  0  0  0  0  0  0  0  0  0  0
  151.2243   44.5451  142.1329 O   0  0  0  0  0  0  0  0  0  0  0  0
  153.7419   45.8518  143.3611 N   0  0  0  0  0  0  0  0  0  0  0  0
  154.6147   46.1254  144.3604 C   0  0  0  0  0  0  0  0  0  0  0  0
  154.2395   45.5142  145.4975 N   0  0  1  0  0  0  0  0  0  0  0  0
  159.6653   39.8734  143.6906 N   0  0  0  0  0  0  0  0  0  0  0  0
  160.3274   43.5456  147.9331 O   0  5  0  0  0  0  0  0  0  0  0  0
  160.6354   40.6945  144.1212 C   0  0  2  0  0  0  0  0  0  0  0  0
  161.3615   40.2933  145.1753 N   0  0  0  0  0  0  0  0  0  0  0  0
  158.2935   42.5117  146.6182 O   0  0  0  0  0  0  0  0  0  0  0  0
  160.9098   41.8923  143.5535 N   0  0  0  0  0  0  0  0  0  0  0  0
  160.1971   42.3314  142.4949 C   0  0  1  0  0  0  0  0  0  0  0  0
  159.1153   41.4729  141.9723 C   0  0  1  0  0  0  0  0  0  0  0  0
  158.8750   40.1787  142.6601 C   0  0  0  0  0  0  0  0  0  0  0  0
  157.9878   39.3794  142.2911 O   0  0  0  0  0  0  0  0  0  0  0  0
  158.5709   42.1360  140.9398 N   0  0  0  0  0  0  0  0  0  0  0  0
  159.2509   43.3095  140.8133 C   0  0  0  0  0  0  0  0  0  0  0  0
  160.2203   43.4307  141.7418 N   0  0  2  0  0  0  0  0  0  0  0  0
  1  3  1  6  0  0  0
  1  4  2  0  0  0  0
  1  6  1  0  0  0  0
  1 22  1  0  0  0  0
  2 28  1  0  0  0  0
  2 35  1  1  0  0  0
  2 38  2  0  0  0  0
  2 10  1  0  0  0  0
  5  6  1  0  0  0  0
  7  5  1  6  0  0  0
  7  8  1  0  0  0  0
  7  9  1  0  0  0  0
  9 10  1  1  0  0  0
  9 11  1  0  0  0  0
 11 12  1  1  0  0  0
 11 13  1  0  0  0  0
 13  8  1  6  0  0  0
 13 33  1  0  0  0  0
 14 46  1  0  0  0  0
 14 17  1  0  0  0  0
 14 25  1  1  0  0  0
 15 16  1  0  0  0  0
 15 29  1  0  0  0  0
 16 18  1  6  0  0  0
 16 21  1  0  0  0  0
 17 19  1  1  0  0  0
 17 20  1  0  0  0  0
 20 22  1  6  0  0  0
 20 24  1  0  0  0  0
 23 21  1  6  0  0  0
 23 26  1  0  0  0  0
 23 33  1  0  0  0  0
 24 25  1  6  0  0  0
 24 27  1  0  0  0  0
 26 29  1  6  0  0  0
 26 31  1  0  0  0  0
 27 28  1  0  0  0  0
 29 30  2  0  0  0  0
 31 32  1  0  0  0  0
 33 32  1  1  0  0  0
 34 36  1  0  0  0  0
 34 42  1  0  0  0  0
 36 37  1  1  0  0  0
 36 39  1  0  0  0  0
 40 39  1  1  0  0  0
 40 41  1  0  0  0  0
 40 46  1  0  0  0  0
 41 42  1  1  0  0  0
 41 44  1  0  0  0  0
 42 43  2  0  0  0  0
 44 45  1  0  0  0  0
 46 45  1  6  0  0  0
M  CHG  2   3  -1  35  -1
M  END
>  <CHROM.1>
-145.48890937,-128.70455037,157.60823325,44.58520075,144.43973514,-0.14373940
0.19350829,0.11194369

>  <Name>
ligand

>  <RI>
0

>  <Rbt.Current_Directory>
/home/itssahil/PROJECTS/Mol_Feturizer/Test_systems_manuscript/rnas/4yb0

>  <Rbt.Executable>
rbdock ($Id: //depot/dev/client3/rdock/2013.1/src/exe/rbdock.cxx#4 $)

>  <Rbt.Library>
libRbt.so (2013.1, Build901 2013/11/27)

>  <Rbt.Parameter_File>
/export/apps/rDock/src/rDock_2013.1_src/data/scripts/dock_solv.prm

>  <Rbt.Receptor>
prm/pocket_docking_4.prm

>  <SCORE>
-17.8366

>  <SCORE.INTER>
-17.5957

>  <SCORE.INTER.CONST>
1

>  <SCORE.INTER.POLAR>
0

>  <SCORE.INTER.ROT>
2

>  <SCORE.INTER.SOLV>
37.452

>  <SCORE.INTER.VDW>
-29.1478

>  <SCORE.INTER.norm>
-0.382516

>  <SCORE.INTRA>
-0.240866

>  <SCORE.INTRA.DIHEDRAL>
-0.0120462

>  <SCORE.INTRA.DIHEDRAL.0>
2.42188

>  <SCORE.INTRA.POLAR>
0

>  <SCORE.INTRA.POLAR.0>
0

>  <SCORE.INTRA.REPUL>
0

>  <SCORE.INTRA.REPUL.0>
0

>  <SCORE.INTRA.SOLV>
1.79683

>  <SCORE.INTRA.SOLV.lig_0>
-127.307

>  <SCORE.INTRA.VDW>
-1.13326

>  <SCORE.INTRA.VDW.0>
-2.19936

>  <SCORE.INTRA.norm>
-0.00523623

>  <SCORE.RESTR>
0

>  <SCORE.RESTR.CAVITY>
0

>  <SCORE.RESTR.norm>
0

>  <SCORE.SYSTEM>
0

>  <SCORE.SYSTEM.CONST>
0

>  <SCORE.SYSTEM.DIHEDRAL>
0

>  <SCORE.SYSTEM.SOLV>
0

>  <SCORE.SYSTEM.norm>
0

>  <SCORE.heavy>
46

>  <SCORE.norm>
-0.387753

>  <RMSD>
2.698

$$$$
ligand
 OpenBabel02271912143D
libRbt.so/2013.1/901 2013/11/27
 46 52  0  0  0  0  0  0  0  0999 V2000
  159.4570   48.3008  143.1343 P   0  0  1  0  0  0  0  0  0  0  0  0
  159.2525   43.9126  146.7582 P   0  0  1  0  0  0  0  0  0  0  0  0
  159.0271   47.9927  141.7231 O   0  5  0  0  0  0  0  0  0  0  0  0
  159.6891   49.7574  143.4721 O   0  0  0  0  0  0  0  0  0  0  0  0
  157.9519   48.3037  145.3101 C   0  0  0  0  0  0  0  0  0  0  0  0
  158.4000   47.6284  144.1421 O   0  0  0  0  0  0  0  0  0  0  0  0
  157.2914   47.3178  146.2595 C   0  0  1  0  0  0  0  0  0  0  0  0
  155.8843   47.4846  146.1574 O   0  0  0  0  0  0  0  0  0  0  0  0
  157.5672   45.8461  145.9789 C   0  0  1  0  0  0  0  0  0  0  0  0
  158.5155   45.3510  146.9128 O   0  0  0  0  0  0  0  0  0  0  0  0
  156.2394   45.1790  146.2594 C   0  0  1  0  0  0  0  0  0  0  0  0
  156.1778   44.7918  147.6336 O   0  0  0  0  0  0  0  0  0  0  0  0
  155.2008   46.2444  146.0604 C   0  0  2  0  0  0  0  0  0  0  0  0
  161.7606   44.2550  141.9641 C   0  0  1  0  0  0  0  0  0  0  0  0
  151.2738   44.3810  143.1189 N   0  0  0  0  0  0  0  0  0  0  0  0
  151.4889   44.2779  144.4441 C   0  0  1  0  0  0  0  0  0  0  0  0
  161.1033   45.6138  141.8406 C   0  0  2  0  0  0  0  0  0  0  0  0
  150.5967   43.6042  145.2039 N   0  0  0  0  0  0  0  0  0  0  0  0
  162.0701   46.5090  141.2840 O   0  0  0  0  0  0  0  0  0  0  0  0
  160.7462   46.0187  143.2585 C   0  0  2  0  0  0  0  0  0  0  0  0
  152.5614   44.8128  145.0706 N   0  0  0  0  0  0  0  0  0  0  0  0
  160.7857   47.4353  143.4252 O   0  0  0  0  0  0  0  0  0  0  0  0
  153.4985   45.4971  144.3804 C   0  0  2  0  0  0  0  0  0  0  0  0
  161.8207   45.3089  144.0793 C   0  0  2  0  0  0  0  0  0  0  0  0
  162.2741   44.2015  143.2978 O   0  0  0  0  0  0  0  0  0  0  0  0
  153.3292   45.6474  142.9317 C   0  0  2  0  0  0  0  0  0  0  0  0
  161.3627   44.8064  145.4520 C   0  0  0  0  0  0  0  0  0  0  0  0
  160.1177   44.1104  145.4085 O   0  0  0  0  0  0  0  0  0  0  0  0
  152.1294   45.0347  142.3145 C   0  0  0  0  0  0  0  0  0  0  0  0
  151.9325   45.1346  141.0795 O   0  0  0  0  0  0  0  0  0  0  0  0
  154.3903   46.3539  142.5031 N   0  0  0  0  0  0  0  0  0  0  0  0
  155.1687   46.6344  143.5758 C   0  0  0  0  0  0  0  0  0  0  0  0
  154.6326   46.1217  144.6970 N   0  0  1  0  0  0  0  0  0  0  0  0
  159.0272   40.3882  144.2476 N   0  0  0  0  0  0  0  0  0  0  0  0
  160.1917   43.7925  147.9437 O   0  5  0  0  0  0  0  0  0  0  0  0
  159.9425   41.2194  144.7695 C   0  0  2  0  0  0  0  0  0  0  0  0
  160.2342   41.0781  146.0711 N   0  0  0  0  0  0  0  0  0  0  0  0
  158.2155   42.8519  146.4794 O   0  0  0  0  0  0  0  0  0  0  0  0
  160.5732   42.1819  144.0567 N   0  0  0  0  0  0  0  0  0  0  0  0
  160.3017   42.3571  142.7464 C   0  0  1  0  0  0  0  0  0  0  0  0
  159.3036   41.4728  142.1121 C   0  0  1  0  0  0  0  0  0  0  0  0
  158.6520   40.4496  142.9689 C   0  0  0  0  0  0  0  0  0  0  0  0
  157.7994   39.6503  142.5259 O   0  0  0  0  0  0  0  0  0  0  0  0
  159.2193   41.8565  140.8284 N   0  0  0  0  0  0  0  0  0  0  0  0
  160.0915   42.8891  140.6601 C   0  0  0  0  0  0  0  0  0  0  0  0
  160.7370   43.1925  141.8037 N   0  0  2  0  0  0  0  0  0  0  0  0
  1  3  1  6  0  0  0
  1  4  2  0  0  0  0
  1  6  1  0  0  0  0
  1 22  1  0  0  0  0
  2 28  1  0  0  0  0
  2 35  1  1  0  0  0
  2 38  2  0  0  0  0
  2 10  1  0  0  0  0
  5  6  1  0  0  0  0
  7  5  1  6  0  0  0
  7  8  1  0  0  0  0
  7  9  1  0  0  0  0
  9 10  1  1  0  0  0
  9 11  1  0  0  0  0
 11 12  1  1  0  0  0
 11 13  1  0  0  0  0
 13  8  1  6  0  0  0
 13 33  1  0  0  0  0
 14 46  1  0  0  0  0
 14 17  1  0  0  0  0
 14 25  1  1  0  0  0
 15 16  1  0  0  0  0
 15 29  1  0  0  0  0
 16 18  1  6  0  0  0
 16 21  1  0  0  0  0
 17 19  1  1  0  0  0
 17 20  1  0  0  0  0
 20 22  1  6  0  0  0
 20 24  1  0  0  0  0
 23 21  1  6  0  0  0
 23 26  1  0  0  0  0
 23 33  1  0  0  0  0
 24 25  1  6  0  0  0
 24 27  1  0  0  0  0
 26 29  1  6  0  0  0
 26 31  1  0  0  0  0
 27 28  1  0  0  0  0
 29 30  2  0  0  0  0
 31 32  1  0  0  0  0
 33 32  1  1  0  0  0
 34 36  1  0  0  0  0
 34 42  1  0  0  0  0
 36 37  1  1  0  0  0
 36 39  1  0  0  0  0
 40 39  1  1  0  0  0
 40 41  1  0  0  0  0
 40 46  1  0  0  0  0
 41 42  1  1  0  0  0
 41 44  1  0  0  0  0
 42 43  2  0  0  0  0
 44 45  1  0  0  0  0
 46 45  1  6  0  0  0
M  CHG  2   3  -1  35  -1
M  END
>  <CHROM.1>
-147.48100283,-111.63624489,157.92386530,44.84611313,144.13332868,-0.13887198
0.07843109,0.01320937

>  <Name>
ligand

>  <RI>
0

>  <Rbt.Current_Directory>
/home/itssahil/PROJECTS/Mol_Feturizer/Test_systems_manuscript/rnas/4yb0

>  <Rbt.Executable>
rbdock ($Id: //depot/dev/client3/rdock/2013.1/src/exe/rbdock.cxx#4 $)

>  <Rbt.Library>
libRbt.so (2013.1, Build901 2013/11/27)

>  <Rbt.Parameter_File>
/export/apps/rDock/src/rDock_2013.1_src/data/scripts/dock_solv.prm

>  <Rbt.Receptor>
prm/pocket_docking_7.prm

>  <SCORE>
-23.0184

>  <SCORE.INTER>
-26.8717

>  <SCORE.INTER.CONST>
1

>  <SCORE.INTER.POLAR>
0

>  <SCORE.INTER.ROT>
2

>  <SCORE.INTER.SOLV>
25.0983

>  <SCORE.INTER.VDW>
-31.2139

>  <SCORE.INTER.norm>
-0.584168

>  <SCORE.INTRA>
3.83996

>  <SCORE.INTRA.DIHEDRAL>
0.0143158

>  <SCORE.INTRA.DIHEDRAL.0>
2.42188

>  <SCORE.INTRA.POLAR>
0

>  <SCORE.INTRA.POLAR.0>
0

>  <SCORE.INTRA.REPUL>
0

>  <SCORE.INTRA.REPUL.0>
0

>  <SCORE.INTRA.SOLV>
9.05596

>  <SCORE.INTRA.SOLV.lig_0>
-127.307

>  <SCORE.INTRA.VDW>
-0.695177

>  <SCORE.INTRA.VDW.0>
-2.19936

>  <SCORE.INTRA.norm>
0.0834774

>  <SCORE.RESTR>
0.0133391

>  <SCORE.RESTR.CAVITY>
0.0133391

>  <SCORE.RESTR.norm>
0.000289981

>  <SCORE.SYSTEM>
0

>  <SCORE.SYSTEM.CONST>
0

>  <SCORE.SYSTEM.DIHEDRAL>
0

>  <SCORE.SYSTEM.SOLV>
0

>  <SCORE.SYSTEM.norm>
0

>  <SCORE.heavy>
46

>  <SCORE.norm>
-0.5004

>  <RMSD>
2.699

$$$$
ligand
 OpenBabel02271912143D
libRbt.so/2013.1/901 2013/11/27
 46 52  0  0  0  0  0  0  0  0999 V2000
  159.7854   41.6457  146.4341 P   0  0  1  0  0  0  0  0  0  0  0  0
  159.7497   47.0220  144.5567 P   0  0  1  0  0  0  0  0  0  0  0  0
  158.5037   40.8809  146.2255 O   0  5  0  0  0  0  0  0  0  0  0  0
  160.9797   40.8526  146.9181 O   0  0  0  0  0  0  0  0  0  0  0  0
  161.4510   42.5303  144.5787 C   0  0  0  0  0  0  0  0  0  0  0  0
  160.1234   42.4432  145.0796 O   0  0  0  0  0  0  0  0  0  0  0  0
  161.5445   43.6393  143.5438 C   0  0  1  0  0  0  0  0  0  0  0  0
  161.5682   43.0386  142.2568 O   0  0  0  0  0  0  0  0  0  0  0  0
  160.3862   44.6286  143.5308 C   0  0  1  0  0  0  0  0  0  0  0  0
  160.7884   45.8437  144.1460 O   0  0  0  0  0  0  0  0  0  0  0  0
  160.1687   44.8972  142.0585 C   0  0  1  0  0  0  0  0  0  0  0  0
  160.9743   46.0040  141.6486 O   0  0  0  0  0  0  0  0  0  0  0  0
  160.6958   43.6869  141.3439 C   0  0  2  0  0  0  0  0  0  0  0  0
  156.3005   44.5781  147.9511 C   0  0  1  0  0  0  0  0  0  0  0  0
  157.9428   39.4827  142.8579 N   0  0  0  0  0  0  0  0  0  0  0  0
  159.0105   40.0717  143.4290 C   0  0  1  0  0  0  0  0  0  0  0  0
  157.0751   43.3115  147.6521 C   0  0  2  0  0  0  0  0  0  0  0  0
  159.5091   39.5576  144.5755 N   0  0  0  0  0  0  0  0  0  0  0  0
  157.2258   42.6000  148.8837 O   0  0  0  0  0  0  0  0  0  0  0  0
  158.4213   43.7768  147.1294 C   0  0  2  0  0  0  0  0  0  0  0  0
  159.6260   41.1611  142.9161 N   0  0  0  0  0  0  0  0  0  0  0  0
  159.4580   42.8513  147.4532 O   0  0  0  0  0  0  0  0  0  0  0  0
  159.1896   41.7307  141.7724 C   0  0  2  0  0  0  0  0  0  0  0  0
  158.5994   45.1174  147.8387 C   0  0  2  0  0  0  0  0  0  0  0  0
  157.2911   45.5854  148.1733 O   0  0  0  0  0  0  0  0  0  0  0  0
  158.0311   41.1402  141.0949 C   0  0  2  0  0  0  0  0  0  0  0  0
  159.3285   46.1907  147.0244 C   0  0  0  0  0  0  0  0  0  0  0  0
  158.8442   46.3066  145.6871 O   0  0  0  0  0  0  0  0  0  0  0  0
  157.4081   39.9476  141.7158 C   0  0  0  0  0  0  0  0  0  0  0  0
  156.4126   39.4031  141.1807 O   0  0  0  0  0  0  0  0  0  0  0  0
  157.8185   41.8889  139.9980 N   0  0  0  0  0  0  0  0  0  0  0  0
  158.7514   42.8709  139.9729 C   0  0  0  0  0  0  0  0  0  0  0  0
  159.5692   42.7745  141.0356 N   0  0  1  0  0  0  0  0  0  0  0  0
  155.5537   48.0115  144.0406 N   0  0  0  0  0  0  0  0  0  0  0  0
  160.5854   48.1132  145.1991 O   0  5  0  0  0  0  0  0  0  0  0  0
  156.4894   47.9928  145.0024 C   0  0  2  0  0  0  0  0  0  0  0  0
  157.3945   48.9828  145.0029 N   0  0  0  0  0  0  0  0  0  0  0  0
  158.8516   47.3229  143.3814 O   0  0  0  0  0  0  0  0  0  0  0  0
  156.5648   47.0348  145.9557 N   0  0  0  0  0  0  0  0  0  0  0  0
  155.6749   46.0205  145.9838 C   0  0  1  0  0  0  0  0  0  0  0  0
  154.6189   45.9846  144.9523 C   0  0  1  0  0  0  0  0  0  0  0  0
  154.6146   47.0696  143.9381 C   0  0  0  0  0  0  0  0  0  0  0  0
  153.7598   47.1319  143.0284 O   0  0  0  0  0  0  0  0  0  0  0  0
  153.8838   44.8891  145.2010 N   0  0  0  0  0  0  0  0  0  0  0  0
  154.4212   44.2857  146.2974 C   0  0  0  0  0  0  0  0  0  0  0  0
  155.4923   44.9567  146.7655 N   0  0  2  0  0  0  0  0  0  0  0  0
  1  3  1  6  0  0  0
  1  4  2  0  0  0  0
  1  6  1  0  0  0  0
  1 22  1  0  0  0  0
  2 28  1  0  0  0  0
  2 35  1  1  0  0  0
  2 38  2  0  0  0  0
  2 10  1  0  0  0  0
  5  6  1  0  0  0  0
  7  5  1  1  0  0  0
  7  8  1  0  0  0  0
  7  9  1  0  0  0  0
  9 10  1  1  0  0  0
  9 11  1  0  0  0  0
 11 12  1  6  0  0  0
 11 13  1  0  0  0  0
 13  8  1  1  0  0  0
 13 33  1  0  0  0  0
 14 46  1  0  0  0  0
 14 17  1  0  0  0  0
 14 25  1  6  0  0  0
 15 16  1  0  0  0  0
 15 29  1  0  0  0  0
 16 18  1  6  0  0  0
 16 21  1  0  0  0  0
 17 19  1  1  0  0  0
 17 20  1  0  0  0  0
 20 22  1  1  0  0  0
 20 24  1  0  0  0  0
 23 21  1  6  0  0  0
 23 26  1  0  0  0  0
 23 33  1  0  0  0  0
 24 25  1  6  0  0  0
 24 27  1  0  0  0  0
 26 29  1  6  0  0  0
 26 31  1  0  0  0  0
 27 28  1  0  0  0  0
 29 30  2  0  0  0  0
 31 32  1  0  0  0  0
 33 32  1  1  0  0  0
 34 36  1  0  0  0  0
 34 42  1  0  0  0  0
 36 37  1  6  0  0  0
 36 39  1  0  0  0  0
 40 39  1  6  0  0  0
 40 41  1  0  0  0  0
 40 46  1  0  0  0  0
 41 42  1  6  0  0  0
 41 44  1  0  0  0  0
 42 43  2  0  0  0  0
 44 45  1  0  0  0  0
 46 45  1  1  0  0  0
M  CHG  2   3  -1  35  -1
M  END
>  <CHROM.1>
19.60672971,-111.91067357,158.40594028,44.05574177,144.56001399,0.33478699
-1.14335426,2.42563700

>  <Name>
ligand

>  <RI>
0

>  <Rbt.Current_Directory>
/home/itssahil/PROJECTS/Mol_Feturizer/Test_systems_manuscript/rnas/4yb0

>  <Rbt.Executable>
rbdock ($Id: //depot/dev/client3/rdock/2013.1/src/exe/rbdock.cxx#4 $)

>  <Rbt.Library>
libRbt.so (2013.1, Build901 2013/11/27)

>  <Rbt.Parameter_File>
/export/apps/rDock/src/rDock_2013.1_src/data/scripts/dock_solv.prm

>  <Rbt.Receptor>
prm/pocket_docking_2.prm

>  <SCORE>
10.2047

>  <SCORE.INTER>
-3.22601

>  <SCORE.INTER.CONST>
1

>  <SCORE.INTER.POLAR>
0

>  <SCORE.INTER.ROT>
2

>  <SCORE.INTER.SOLV>
27.9534

>  <SCORE.INTER.VDW>
-16.4018

>  <SCORE.INTER.norm>
-0.0701306

>  <SCORE.INTRA>
10.2482

>  <SCORE.INTRA.DIHEDRAL>
-0.028181

>  <SCORE.INTRA.DIHEDRAL.0>
2.42188

>  <SCORE.INTRA.POLAR>
0

>  <SCORE.INTRA.POLAR.0>
0

>  <SCORE.INTRA.REPUL>
0

>  <SCORE.INTRA.REPUL.0>
0

>  <SCORE.INTRA.SOLV>
19.47

>  <SCORE.INTRA.SOLV.lig_0>
-127.307

>  <SCORE.INTRA.VDW>
0.527278

>  <SCORE.INTRA.VDW.0>
-2.19936

>  <SCORE.INTRA.norm>
0.222787

>  <SCORE.RESTR>
3.18248

>  <SCORE.RESTR.CAVITY>
3.18248

>  <SCORE.RESTR.norm>
0.0691844

>  <SCORE.SYSTEM>
0

>  <SCORE.SYSTEM.CONST>
0

>  <SCORE.SYSTEM.DIHEDRAL>
0

>  <SCORE.SYSTEM.SOLV>
0

>  <SCORE.SYSTEM.norm>
0

>  <SCORE.heavy>
46

>  <SCORE.norm>
0.221841

>  <RMSD>
3.137

$$$$
ligand
 OpenBabel02271912143D
libRbt.so/2013.1/901 2013/11/27
 46 52  0  0  0  0  0  0  0  0999 V2000
  159.9254   48.7655  143.0939 P   0  0  1  0  0  0  0  0  0  0  0  0
  159.9851   44.6629  147.0431 P   0  0  1  0  0  0  0  0  0  0  0  0
  159.4566   48.3383  141.7269 O   0  5  0  0  0  0  0  0  0  0  0  0
  160.1232   50.2497  143.3122 O   0  0  0  0  0  0  0  0  0  0  0  0
  158.4975   48.8913  145.3176 C   0  0  0  0  0  0  0  0  0  0  0  0
  158.9257   48.1419  144.1879 O   0  0  0  0  0  0  0  0  0  0  0  0
  157.9016   47.9623  146.3623 C   0  0  1  0  0  0  0  0  0  0  0  0
  156.4874   48.0803  146.3001 O   0  0  0  0  0  0  0  0  0  0  0  0
  158.2138   46.4820  146.1833 C   0  0  1  0  0  0  0  0  0  0  0  0
  159.2090   46.0871  147.1161 O   0  0  0  0  0  0  0  0  0  0  0  0
  156.9181   45.8003  146.5622 C   0  0  1  0  0  0  0  0  0  0  0  0
  156.9165   45.5177  147.9630 O   0  0  0  0  0  0  0  0  0  0  0  0
  155.8403   46.8172  146.3222 C   0  0  2  0  0  0  0  0  0  0  0  0
  162.3131   44.7100  142.1472 C   0  0  1  0  0  0  0  0  0  0  0  0
  151.8808   44.6116  143.6756 N   0  0  0  0  0  0  0  0  0  0  0  0
  152.1459   44.6149  144.9957 C   0  0  1  0  0  0  0  0  0  0  0  0
  161.6095   46.0359  141.9461 C   0  0  2  0  0  0  0  0  0  0  0  0
  151.3054   43.9710  145.8361 N   0  0  0  0  0  0  0  0  0  0  0  0
  162.5278   46.9134  141.2883 O   0  0  0  0  0  0  0  0  0  0  0  0
  161.2894   46.5375  143.3418 C   0  0  2  0  0  0  0  0  0  0  0  0
  153.2201   45.2299  145.5405 N   0  0  0  0  0  0  0  0  0  0  0  0
  161.2900   47.9633  143.3998 O   0  0  0  0  0  0  0  0  0  0  0  0
  154.1075   45.8911  144.7670 C   0  0  2  0  0  0  0  0  0  0  0  0
  162.4135   45.9237  144.1734 C   0  0  2  0  0  0  0  0  0  0  0  0
  162.8741   44.7733  143.4612 O   0  0  0  0  0  0  0  0  0  0  0  0
  153.8821   45.9271  143.3186 C   0  0  2  0  0  0  0  0  0  0  0  0
  162.0195   45.5145  145.5960 C   0  0  0  0  0  0  0  0  0  0  0  0
  160.7962   44.7817  145.6512 O   0  0  0  0  0  0  0  0  0  0  0  0
  152.6838   45.2311  142.7937 C   0  0  0  0  0  0  0  0  0  0  0  0
  152.4402   45.2319  141.5630 O   0  0  0  0  0  0  0  0  0  0  0  0
  154.9018   46.6340  142.7995 N   0  0  0  0  0  0  0  0  0  0  0  0
  155.7070   47.0191  143.8186 C   0  0  0  0  0  0  0  0  0  0  0  0
  155.2291   46.5744  144.9939 N   0  0  1  0  0  0  0  0  0  0  0  0
  159.9168   40.8335  144.7680 N   0  0  0  0  0  0  0  0  0  0  0  0
  160.9682   44.6607  148.1986 O   0  5  0  0  0  0  0  0  0  0  0  0
  160.8415   41.7116  145.1860 C   0  0  2  0  0  0  0  0  0  0  0  0
  161.2441   41.6238  146.4626 N   0  0  0  0  0  0  0  0  0  0  0  0
  158.9729   43.5546  146.8835 O   0  0  0  0  0  0  0  0  0  0  0  0
  161.3767   42.6700  144.3941 N   0  0  0  0  0  0  0  0  0  0  0  0
  160.9923   42.7921  143.1062 C   0  0  1  0  0  0  0  0  0  0  0  0
  159.9778   41.8545  142.5846 C   0  0  1  0  0  0  0  0  0  0  0  0
  159.4359   40.8395  143.5237 C   0  0  0  0  0  0  0  0  0  0  0  0
  158.5789   39.9980  143.1780 O   0  0  0  0  0  0  0  0  0  0  0  0
  159.7746   42.1919  141.3012 N   0  0  0  0  0  0  0  0  0  0  0  0
  160.5925   43.2466  141.0293 C   0  0  0  0  0  0  0  0  0  0  0  0
  161.3185   43.6094  142.1052 N   0  0  2  0  0  0  0  0  0  0  0  0
  1  3  1  6  0  0  0
  1  4  2  0  0  0  0
  1  6  1  0  0  0  0
  1 22  1  0  0  0  0
  2 28  1  0  0  0  0
  2 35  1  1  0  0  0
  2 38  2  0  0  0  0
  2 10  1  0  0  0  0
  5  6  1  0  0  0  0
  7  5  1  6  0  0  0
  7  8  1  0  0  0  0
  7  9  1  0  0  0  0
  9 10  1  1  0  0  0
  9 11  1  0  0  0  0
 11 12  1  1  0  0  0
 11 13  1  0  0  0  0
 13  8  1  6  0  0  0
 13 33  1  0  0  0  0
 14 46  1  0  0  0  0
 14 17  1  0  0  0  0
 14 25  1  1  0  0  0
 15 16  1  0  0  0  0
 15 29  1  0  0  0  0
 16 18  1  6  0  0  0
 16 21  1  0  0  0  0
 17 19  1  1  0  0  0
 17 20  1  0  0  0  0
 20 22  1  6  0  0  0
 20 24  1  0  0  0  0
 23 21  1  6  0  0  0
 23 26  1  0  0  0  0
 23 33  1  0  0  0  0
 24 25  1  6  0  0  0
 24 27  1  0  0  0  0
 26 29  1  6  0  0  0
 26 31  1  0  0  0  0
 27 28  1  0  0  0  0
 29 30  2  0  0  0  0
 31 32  1  0  0  0  0
 33 32  1  1  0  0  0
 34 36  1  0  0  0  0
 34 42  1  0  0  0  0
 36 37  1  1  0  0  0
 36 39  1  0  0  0  0
 40 39  1  1  0  0  0
 40 41  1  0  0  0  0
 40 46  1  0  0  0  0
 41 42  1  1  0  0  0
 41 44  1  0  0  0  0
 42 43  2  0  0  0  0
 44 45  1  0  0  0  0
 46 45  1  6  0  0  0
M  CHG  2   3  -1  35  -1
M  END
>  <CHROM.1>
-147.73320574,-115.32076193,158.55260012,45.34050714,144.40104575,-0.12490011
0.11238112,-0.06171601

>  <Name>
ligand

>  <RI>
0

>  <Rbt.Current_Directory>
/home/itssahil/PROJECTS/Mol_Feturizer/Test_systems_manuscript/rnas/4yb0

>  <Rbt.Executable>
rbdock ($Id: //depot/dev/client3/rdock/2013.1/src/exe/rbdock.cxx#4 $)

>  <Rbt.Library>
libRbt.so (2013.1, Build901 2013/11/27)

>  <Rbt.Parameter_File>
/export/apps/rDock/src/rDock_2013.1_src/data/scripts/dock_solv.prm

>  <Rbt.Receptor>
prm/pocket_docking_4.prm

>  <SCORE>
-22.7448

>  <SCORE.INTER>
-25.0562

>  <SCORE.INTER.CONST>
1

>  <SCORE.INTER.POLAR>
0

>  <SCORE.INTER.ROT>
2

>  <SCORE.INTER.SOLV>
25.1735

>  <SCORE.INTER.VDW>
-30.0287

>  <SCORE.INTER.norm>
-0.5447

>  <SCORE.INTRA>
2.31146

>  <SCORE.INTRA.DIHEDRAL>
0.00894446

>  <SCORE.INTRA.DIHEDRAL.0>
2.42188

>  <SCORE.INTRA.POLAR>
0

>  <SCORE.INTRA.POLAR.0>
0

>  <SCORE.INTRA.REPUL>
0

>  <SCORE.INTRA.REPUL.0>
0

>  <SCORE.INTRA.SOLV>
7.63878

>  <SCORE.INTRA.SOLV.lig_0>
-127.307

>  <SCORE.INTRA.VDW>
-1.5124

>  <SCORE.INTRA.VDW.0>
-2.19936

>  <SCORE.INTRA.norm>
0.0502491

>  <SCORE.RESTR>
0

>  <SCORE.RESTR.CAVITY>
0

>  <SCORE.RESTR.norm>
0

>  <SCORE.SYSTEM>
0

>  <SCORE.SYSTEM.CONST>
0

>  <SCORE.SYSTEM.DIHEDRAL>
0

>  <SCORE.SYSTEM.SOLV>
0

>  <SCORE.SYSTEM.norm>
0

>  <SCORE.heavy>
46

>  <SCORE.norm>
-0.494451

>  <RMSD>
3.225

$$$$
ligand
 OpenBabel02271912143D
libRbt.so/2013.1/901 2013/11/27
 46 52  0  0  0  0  0  0  0  0999 V2000
  160.0387   42.3569  146.7930 P   0  0  1  0  0  0  0  0  0  0  0  0
  159.7775   47.4827  144.3253 P   0  0  1  0  0  0  0  0  0  0  0  0
  158.8050   41.5046  146.6421 O   0  5  0  0  0  0  0  0  0  0  0  0
  161.2582   41.6890  147.3899 O   0  0  0  0  0  0  0  0  0  0  0  0
  161.7088   43.1211  144.8888 C   0  0  0  0  0  0  0  0  0  0  0  0
  160.3736   43.0172  145.3658 O   0  0  0  0  0  0  0  0  0  0  0  0
  161.7743   44.1124  143.7387 C   0  0  1  0  0  0  0  0  0  0  0  0
  161.8662   43.3753  142.5278 O   0  0  0  0  0  0  0  0  0  0  0  0
  160.5669   45.0292  143.5886 C   0  0  1  0  0  0  0  0  0  0  0  0
  160.8875   46.3250  144.0729 O   0  0  0  0  0  0  0  0  0  0  0  0
  160.3782   45.1210  142.0909 C   0  0  1  0  0  0  0  0  0  0  0  0
  161.1366   46.2182  141.5782 O   0  0  0  0  0  0  0  0  0  0  0  0
  160.9880   43.8699  141.5285 C   0  0  2  0  0  0  0  0  0  0  0  0
  156.3638   45.2433  147.8923 C   0  0  1  0  0  0  0  0  0  0  0  0
  158.4656   39.6677  143.4063 N   0  0  0  0  0  0  0  0  0  0  0  0
  159.4908   40.3681  143.9272 C   0  0  1  0  0  0  0  0  0  0  0  0
  157.2115   43.9959  147.7548 C   0  0  2  0  0  0  0  0  0  0  0  0
  160.0051   39.9914  145.1192 N   0  0  0  0  0  0  0  0  0  0  0  0
  157.3635   43.4342  149.0614 O   0  0  0  0  0  0  0  0  0  0  0  0
  158.5462   44.4737  147.2141 C   0  0  2  0  0  0  0  0  0  0  0  0
  160.0481   41.4402  143.3200 N   0  0  0  0  0  0  0  0  0  0  0  0
  159.6199   43.6480  147.6630 O   0  0  0  0  0  0  0  0  0  0  0  0
  159.5927   41.8761  142.1260 C   0  0  2  0  0  0  0  0  0  0  0  0
  158.6339   45.8922  147.7728 C   0  0  2  0  0  0  0  0  0  0  0  0
  157.2939   46.3218  148.0230 O   0  0  0  0  0  0  0  0  0  0  0  0
  158.4782   41.1591  141.4986 C   0  0  2  0  0  0  0  0  0  0  0  0
  159.3292   46.9074  146.8603 C   0  0  0  0  0  0  0  0  0  0  0  0
  158.8783   46.8480  145.5077 O   0  0  0  0  0  0  0  0  0  0  0  0
  157.9182   39.9939  142.2229 C   0  0  0  0  0  0  0  0  0  0  0  0
  156.9620   39.3452  141.7341 O   0  0  0  0  0  0  0  0  0  0  0  0
  158.2352   41.7904  140.3362 N   0  0  0  0  0  0  0  0  0  0  0  0
  159.1099   42.8191  140.2265 C   0  0  0  0  0  0  0  0  0  0  0  0
  159.9197   42.8685  141.2985 N   0  0  1  0  0  0  0  0  0  0  0  0
  155.4557   48.2558  143.6807 N   0  0  0  0  0  0  0  0  0  0  0  0
  160.5365   48.6825  144.8605 O   0  5  0  0  0  0  0  0  0  0  0  0
  156.3501   48.4065  144.6697 C   0  0  2  0  0  0  0  0  0  0  0  0
  157.1582   49.4757  144.6142 N   0  0  0  0  0  0  0  0  0  0  0  0
  158.8993   47.6021  143.1036 O   0  0  0  0  0  0  0  0  0  0  0  0
  156.4767   47.5417  145.7034 N   0  0  0  0  0  0  0  0  0  0  0  0
  155.6849   46.4523  145.7900 C   0  0  1  0  0  0  0  0  0  0  0  0
  154.6786   46.2301  144.7324 C   0  0  1  0  0  0  0  0  0  0  0  0
  154.6133   47.2227  143.6295 C   0  0  0  0  0  0  0  0  0  0  0  0
  153.7933   47.1274  142.6911 O   0  0  0  0  0  0  0  0  0  0  0  0
  154.0396   45.0931  145.0505 N   0  0  0  0  0  0  0  0  0  0  0  0
  154.5871   44.6364  146.2110 C   0  0  0  0  0  0  0  0  0  0  0  0
  155.5715   45.4436  146.6537 N   0  0  2  0  0  0  0  0  0  0  0  0
  1  3  1  6  0  0  0
  1  4  2  0  0  0  0
  1  6  1  0  0  0  0
  1 22  1  0  0  0  0
  2 28  1  0  0  0  0
  2 35  1  1  0  0  0
  2 38  2  0  0  0  0
  2 10  1  0  0  0  0
  5  6  1  0  0  0  0
  7  5  1  1  0  0  0
  7  8  1  0  0  0  0
  7  9  1  0  0  0  0
  9 10  1  6  0  0  0
  9 11  1  0  0  0  0
 11 12  1  6  0  0  0
 11 13  1  0  0  0  0
 13  8  1  1  0  0  0
 13 33  1  0  0  0  0
 14 46  1  0  0  0  0
 14 17  1  0  0  0  0
 14 25  1  6  0  0  0
 15 16  1  0  0  0  0
 15 29  1  0  0  0  0
 16 18  1  6  0  0  0
 16 21  1  0  0  0  0
 17 19  1  1  0  0  0
 17 20  1  0  0  0  0
 20 22  1  1  0  0  0
 20 24  1  0  0  0  0
 23 21  1  6  0  0  0
 23 26  1  0  0  0  0
 23 33  1  0  0  0  0
 24 25  1  6  0  0  0
 24 27  1  0  0  0  0
 26 29  1  6  0  0  0
 26 31  1  0  0  0  0
 27 28  1  0  0  0  0
 29 30  2  0  0  0  0
 31 32  1  0  0  0  0
 33 32  1  1  0  0  0
 34 36  1  0  0  0  0
 34 42  1  0  0  0  0
 36 37  1  6  0  0  0
 36 39  1  0  0  0  0
 40 39  1  6  0  0  0
 40 41  1  0  0  0  0
 40 46  1  0  0  0  0
 41 42  1  6  0  0  0
 41 44  1  0  0  0  0
 42 43  2  0  0  0  0
 44 45  1  0  0  0  0
 46 45  1  1  0  0  0
M  CHG  2   3  -1  35  -1
M  END
>  <CHROM.1>
18.09721473,-114.81390825,158.58530641,44.46919971,144.63442812,0.27410784
-1.08384723,2.25395021

>  <Name>
ligand

>  <RI>
0

>  <Rbt.Current_Directory>
/home/itssahil/PROJECTS/Mol_Feturizer/Test_systems_manuscript/rnas/4yb0

>  <Rbt.Executable>
rbdock ($Id: //depot/dev/client3/rdock/2013.1/src/exe/rbdock.cxx#4 $)

>  <Rbt.Library>
libRbt.so (2013.1, Build901 2013/11/27)

>  <Rbt.Parameter_File>
/export/apps/rDock/src/rDock_2013.1_src/data/scripts/dock_solv.prm

>  <Rbt.Receptor>
prm/pocket_docking_3.prm

>  <SCORE>
2.64218

>  <SCORE.INTER>
-5.3366

>  <SCORE.INTER.CONST>
1

>  <SCORE.INTER.POLAR>
0

>  <SCORE.INTER.ROT>
2

>  <SCORE.INTER.SOLV>
23.4406

>  <SCORE.INTER.VDW>
-16.3046

>  <SCORE.INTER.norm>
-0.116013

>  <SCORE.INTRA>
7.48634

>  <SCORE.INTRA.DIHEDRAL>
-0.0314046

>  <SCORE.INTRA.DIHEDRAL.0>
2.42188

>  <SCORE.INTRA.POLAR>
0

>  <SCORE.INTRA.POLAR.0>
0

>  <SCORE.INTRA.REPUL>
0

>  <SCORE.INTRA.REPUL.0>
0

>  <SCORE.INTRA.SOLV>
17.9191

>  <SCORE.INTRA.SOLV.lig_0>
-127.307

>  <SCORE.INTRA.VDW>
-1.4575

>  <SCORE.INTRA.VDW.0>
-2.19936

>  <SCORE.INTRA.norm>
0.162747

>  <SCORE.RESTR>
0.492439

>  <SCORE.RESTR.CAVITY>
0.492439

>  <SCORE.RESTR.norm>
0.0107052

>  <SCORE.SYSTEM>
0

>  <SCORE.SYSTEM.CONST>
0

>  <SCORE.SYSTEM.DIHEDRAL>
0

>  <SCORE.SYSTEM.SOLV>
0

>  <SCORE.SYSTEM.norm>
0

>  <SCORE.heavy>
46

>  <SCORE.norm>
0.0574387

>  <RMSD>
3.238

$$$$
ligand
 OpenBabel02271912143D
libRbt.so/2013.1/901 2013/11/27
 46 52  0  0  0  0  0  0  0  0999 V2000
  159.9786   48.8153  143.0597 P   0  0  1  0  0  0  0  0  0  0  0  0
  160.0717   44.7701  147.0670 P   0  0  1  0  0  0  0  0  0  0  0  0
  159.4941   48.3695  141.7041 O   0  5  0  0  0  0  0  0  0  0  0  0
  160.1822   50.3020  143.2543 O   0  0  0  0  0  0  0  0  0  0  0  0
  158.5752   48.9768  145.2966 C   0  0  0  0  0  0  0  0  0  0  0  0
  158.9894   48.2101  144.1733 O   0  0  0  0  0  0  0  0  0  0  0  0
  157.9887   48.0644  146.3611 C   0  0  1  0  0  0  0  0  0  0  0  0
  156.5741   48.1850  146.3125 O   0  0  0  0  0  0  0  0  0  0  0  0
  158.2954   46.5809  146.2002 C   0  0  1  0  0  0  0  0  0  0  0  0
  159.2998   46.1972  147.1278 O   0  0  0  0  0  0  0  0  0  0  0  0
  157.0024   45.9080  146.6030 C   0  0  1  0  0  0  0  0  0  0  0  0
  157.0154   45.6456  148.0076 O   0  0  0  0  0  0  0  0  0  0  0  0
  155.9243   46.9239  146.3599 C   0  0  2  0  0  0  0  0  0  0  0  0
  162.3466   44.7407  142.1461 C   0  0  1  0  0  0  0  0  0  0  0  0
  151.9720   44.6262  143.7818 N   0  0  0  0  0  0  0  0  0  0  0  0
  152.2571   44.6401  145.0977 C   0  0  1  0  0  0  0  0  0  0  0  0
  161.6439   46.0652  141.9334 C   0  0  2  0  0  0  0  0  0  0  0  0
  151.4431   43.9819  145.9531 N   0  0  0  0  0  0  0  0  0  0  0  0
  162.5570   46.9309  141.2531 O   0  0  0  0  0  0  0  0  0  0  0  0
  161.3401   46.5878  143.3251 C   0  0  2  0  0  0  0  0  0  0  0  0
  153.3263   45.2794  145.6238 N   0  0  0  0  0  0  0  0  0  0  0  0
  161.3446   48.0142  143.3623 O   0  0  0  0  0  0  0  0  0  0  0  0
  154.1878   45.9560  144.8345 C   0  0  2  0  0  0  0  0  0  0  0  0
  162.4718   45.9833  144.1532 C   0  0  2  0  0  0  0  0  0  0  0  0
  162.9219   44.8216  143.4528 O   0  0  0  0  0  0  0  0  0  0  0  0
  153.9397   45.9819  143.3897 C   0  0  2  0  0  0  0  0  0  0  0  0
  162.0923   45.5957  145.5858 C   0  0  0  0  0  0  0  0  0  0  0  0
  160.8680   44.8668  145.6649 O   0  0  0  0  0  0  0  0  0  0  0  0
  152.7484   45.2590  142.8856 C   0  0  0  0  0  0  0  0  0  0  0  0
  152.4861   45.2501  141.6588 O   0  0  0  0  0  0  0  0  0  0  0  0
  154.9364   46.7079  142.8526 N   0  0  0  0  0  0  0  0  0  0  0  0
  155.7488   47.1136  143.8579 C   0  0  0  0  0  0  0  0  0  0  0  0
  155.2983   46.6635  145.0419 N   0  0  1  0  0  0  0  0  0  0  0  0
  160.0218   40.8617  144.8269 N   0  0  0  0  0  0  0  0  0  0  0  0
  161.0674   44.7823  148.2118 O   0  5  0  0  0  0  0  0  0  0  0  0
  160.9602   41.7370  145.2196 C   0  0  2  0  0  0  0  0  0  0  0  0
  161.4003   41.6451  146.4833 N   0  0  0  0  0  0  0  0  0  0  0  0
  159.0554   43.6621  146.9345 O   0  0  0  0  0  0  0  0  0  0  0  0
  161.4734   42.6965  144.4145 N   0  0  0  0  0  0  0  0  0  0  0  0
  161.0512   42.8227  143.1389 C   0  0  1  0  0  0  0  0  0  0  0  0
  160.0198   41.8883  142.6453 C   0  0  1  0  0  0  0  0  0  0  0  0
  159.5041   40.8719  143.5974 C   0  0  0  0  0  0  0  0  0  0  0  0
  158.6356   40.0328  143.2752 O   0  0  0  0  0  0  0  0  0  0  0  0
  159.7793   42.2294  141.3693 N   0  0  0  0  0  0  0  0  0  0  0  0
  160.5907   43.2833  141.0760 C   0  0  0  0  0  0  0  0  0  0  0  0
  161.3491   43.6420  142.1308 N   0  0  2  0  0  0  0  0  0  0  0  0
  1  3  1  6  0  0  0
  1  4  2  0  0  0  0
  1  6  1  0  0  0  0
  1 22  1  0  0  0  0
  2 28  1  0  0  0  0
  2 35  1  1  0  0  0
  2 38  2  0  0  0  0
  2 10  1  0  0  0  0
  5  6  1  0  0  0  0
  7  5  1  6  0  0  0
  7  8  1  0  0  0  0
  7  9  1  0  0  0  0
  9 10  1  1  0  0  0
  9 11  1  0  0  0  0
 11 12  1  1  0  0  0
 11 13  1  0  0  0  0
 13  8  1  6  0  0  0
 13 33  1  0  0  0  0
 14 46  1  0  0  0  0
 14 17  1  0  0  0  0
 14 25  1  1  0  0  0
 15 16  1  0  0  0  0
 15 29  1  0  0  0  0
 16 18  1  6  0  0  0
 16 21  1  0  0  0  0
 17 19  1  1  0  0  0
 17 20  1  0  0  0  0
 20 22  1  6  0  0  0
 20 24  1  0  0  0  0
 23 21  1  6  0  0  0
 23 26  1  0  0  0  0
 23 33  1  0  0  0  0
 24 25  1  6  0  0  0
 24 27  1  0  0  0  0
 26 29  1  6  0  0  0
 26 31  1  0  0  0  0
 27 28  1  0  0  0  0
 29 30  2  0  0  0  0
 31 32  1  0  0  0  0
 33 32  1  1  0  0  0
 34 36  1  0  0  0  0
 34 42  1  0  0  0  0
 36 37  1  1  0  0  0
 36 39  1  0  0  0  0
 40 39  1  1  0  0  0
 40 41  1  0  0  0  0
 40 46  1  0  0  0  0
 41 42  1  1  0  0  0
 41 44  1  0  0  0  0
 42 43  2  0  0  0  0
 44 45  1  0  0  0  0
 46 45  1  6  0  0  0
M  CHG  2   3  -1  35  -1
M  END
>  <CHROM.1>
-149.22652243,-116.77946694,158.62230475,45.40089874,144.42800539,-0.12785313
0.12242473,-0.07143153

>  <Name>
ligand

>  <RI>
0

>  <Rbt.Current_Directory>
/home/itssahil/PROJECTS/Mol_Feturizer/Test_systems_manuscript/rnas/4yb0

>  <Rbt.Executable>
rbdock ($Id: //depot/dev/client3/rdock/2013.1/src/exe/rbdock.cxx#4 $)

>  <Rbt.Library>
libRbt.so (2013.1, Build901 2013/11/27)

>  <Rbt.Parameter_File>
/export/apps/rDock/src/rDock_2013.1_src/data/scripts/dock_solv.prm

>  <Rbt.Receptor>
prm/pocket_docking_7.prm

>  <SCORE>
-22.7647

>  <SCORE.INTER>
-24.7015

>  <SCORE.INTER.CONST>
1

>  <SCORE.INTER.POLAR>
0

>  <SCORE.INTER.ROT>
2

>  <SCORE.INTER.SOLV>
25.8263

>  <SCORE.INTER.VDW>
-30.0098

>  <SCORE.INTER.norm>
-0.53699

>  <SCORE.INTRA>
1.9368

>  <SCORE.INTRA.DIHEDRAL>
0.00681884

>  <SCORE.INTRA.DIHEDRAL.0>
2.42188

>  <SCORE.INTRA.POLAR>
0

>  <SCORE.INTRA.POLAR.0>
0

>  <SCORE.INTRA.REPUL>
0

>  <SCORE.INTRA.REPUL.0>
0

>  <SCORE.INTRA.SOLV>
7.05236

>  <SCORE.INTRA.SOLV.lig_0>
-127.307

>  <SCORE.INTRA.VDW>
-1.59279

>  <SCORE.INTRA.VDW.0>
-2.19936

>  <SCORE.INTRA.norm>
0.0421043

>  <SCORE.RESTR>
0

>  <SCORE.RESTR.CAVITY>
0

>  <SCORE.RESTR.norm>
0

>  <SCORE.SYSTEM>
0

>  <SCORE.SYSTEM.CONST>
0

>  <SCORE.SYSTEM.DIHEDRAL>
0

>  <SCORE.SYSTEM.SOLV>
0

>  <SCORE.SYSTEM.norm>
0

>  <SCORE.heavy>
46

>  <SCORE.norm>
-0.494885

>  <RMSD>
3.293

$$$$
ligand
 OpenBabel02271912143D
libRbt.so/2013.1/901 2013/11/27
 46 52  0  0  0  0  0  0  0  0999 V2000
  160.3513   46.7347  147.5891 P   0  0  1  0  0  0  0  0  0  0  0  0
  159.5138   41.1025  147.6752 P   0  0  1  0  0  0  0  0  0  0  0  0
  160.3733   47.3628  146.2194 O   0  5  0  0  0  0  0  0  0  0  0  0
  160.3445   47.6797  148.7708 O   0  0  0  0  0  0  0  0  0  0  0  0
  158.2921   45.6072  148.8088 C   0  0  0  0  0  0  0  0  0  0  0  0
  159.1150   45.7088  147.6540 O   0  0  0  0  0  0  0  0  0  0  0  0
  157.4790   44.3243  148.7565 C   0  0  1  0  0  0  0  0  0  0  0  0
  156.1511   44.6605  148.3800 O   0  0  0  0  0  0  0  0  0  0  0  0
  157.9553   43.2821  147.7527 C   0  0  1  0  0  0  0  0  0  0  0  0
  158.6369   42.2389  148.4338 O   0  0  0  0  0  0  0  0  0  0  0  0
  156.6686   42.7164  147.1947 C   0  0  1  0  0  0  0  0  0  0  0  0
  156.2511   41.6025  147.9866 O   0  0  0  0  0  0  0  0  0  0  0  0
  155.6388   43.7928  147.3805 C   0  0  2  0  0  0  0  0  0  0  0  0
  163.2487   43.9482  144.9653 C   0  0  1  0  0  0  0  0  0  0  0  0
  152.4690   45.1278  143.4160 N   0  0  0  0  0  0  0  0  0  0  0  0
  152.2423   44.3297  144.4765 C   0  0  1  0  0  0  0  0  0  0  0  0
  162.5347   45.1767  145.4892 C   0  0  2  0  0  0  0  0  0  0  0  0
  151.0311   43.7447  144.6112 N   0  0  0  0  0  0  0  0  0  0  0  0
  163.5355   46.1244  145.8713 O   0  0  0  0  0  0  0  0  0  0  0  0
  161.7513   44.7018  146.6987 C   0  0  2  0  0  0  0  0  0  0  0  0
  153.1675   44.0710  145.4282 N   0  0  0  0  0  0  0  0  0  0  0  0
  161.6134   45.7351  147.6731 O   0  0  0  0  0  0  0  0  0  0  0  0
  154.4015   44.6150  145.3625 C   0  0  2  0  0  0  0  0  0  0  0  0
  162.6051   43.5405  147.2031 C   0  0  2  0  0  0  0  0  0  0  0  0
  163.3613   43.0675  146.0864 O   0  0  0  0  0  0  0  0  0  0  0  0
  154.7191   45.4939  144.2327 C   0  0  2  0  0  0  0  0  0  0  0  0
  161.8202   42.3751  147.8135 C   0  0  0  0  0  0  0  0  0  0  0  0
  160.7079   41.9688  147.0172 O   0  0  0  0  0  0  0  0  0  0  0  0
  153.6552   45.7315  143.2288 C   0  0  0  0  0  0  0  0  0  0  0  0
  153.8708   46.4771  142.2432 O   0  0  0  0  0  0  0  0  0  0  0  0
  155.9935   45.8850  144.4106 N   0  0  0  0  0  0  0  0  0  0  0  0
  156.4528   45.3134  145.5497 C   0  0  0  0  0  0  0  0  0  0  0  0
  155.4985   44.5553  146.1173 N   0  0  1  0  0  0  0  0  0  0  0  0
  159.2280   44.4086  141.6098 N   0  0  0  0  0  0  0  0  0  0  0  0
  160.0809   40.2126  148.7654 O   0  5  0  0  0  0  0  0  0  0  0  0
  159.7476   45.3085  142.4589 C   0  0  2  0  0  0  0  0  0  0  0  0
  159.1863   46.5265  142.4876 N   0  0  0  0  0  0  0  0  0  0  0  0
  158.7003   40.5215  146.5443 O   0  0  0  0  0  0  0  0  0  0  0  0
  160.7979   45.0511  143.2730 N   0  0  0  0  0  0  0  0  0  0  0  0
  161.3915   43.8391  143.2680 C   0  0  1  0  0  0  0  0  0  0  0  0
  160.8655   42.8038  142.3558 C   0  0  1  0  0  0  0  0  0  0  0  0
  159.7168   43.1731  141.4899 C   0  0  0  0  0  0  0  0  0  0  0  0
  159.1961   42.3671  140.6891 O   0  0  0  0  0  0  0  0  0  0  0  0
  161.6259   41.7132  142.5422 N   0  0  0  0  0  0  0  0  0  0  0  0
  162.5494   42.0257  143.4934 C   0  0  0  0  0  0  0  0  0  0  0  0
  162.4143   43.2947  143.9266 N   0  0  2  0  0  0  0  0  0  0  0  0
  1  3  1  6  0  0  0
  1  4  2  0  0  0  0
  1  6  1  0  0  0  0
  1 22  1  0  0  0  0
  2 28  1  0  0  0  0
  2 35  1  1  0  0  0
  2 38  2  0  0  0  0
  2 10  1  0  0  0  0
  5  6  1  0  0  0  0
  7  5  1  6  0  0  0
  7  8  1  0  0  0  0
  7  9  1  0  0  0  0
  9 10  1  1  0  0  0
  9 11  1  0  0  0  0
 11 12  1  1  0  0  0
 11 13  1  0  0  0  0
 13  8  1  1  0  0  0
 13 33  1  0  0  0  0
 14 46  1  0  0  0  0
 14 17  1  0  0  0  0
 14 25  1  1  0  0  0
 15 16  1  0  0  0  0
 15 29  1  0  0  0  0
 16 18  1  6  0  0  0
 16 21  1  0  0  0  0
 17 19  1  1  0  0  0
 17 20  1  0  0  0  0
 20 22  1  1  0  0  0
 20 24  1  0  0  0  0
 23 21  1  6  0  0  0
 23 26  1  0  0  0  0
 23 33  1  0  0  0  0
 24 25  1  6  0  0  0
 24 27  1  0  0  0  0
 26 29  1  6  0  0  0
 26 31  1  0  0  0  0
 27 28  1  0  0  0  0
 29 30  2  0  0  0  0
 31 32  1  0  0  0  0
 33 32  1  1  0  0  0
 34 36  1  0  0  0  0
 34 42  1  0  0  0  0
 36 37  1  6  0  0  0
 36 39  1  0  0  0  0
 40 39  1  6  0  0  0
 40 41  1  0  0  0  0
 40 46  1  0  0  0  0
 41 42  1  6  0  0  0
 41 44  1  0  0  0  0
 42 43  2  0  0  0  0
 44 45  1  0  0  0  0
 46 45  1  1  0  0  0
M  CHG  2   3  -1  35  -1
M  END
>  <CHROM.1>
-128.77174379,17.20094128,158.74549188,44.11287568,145.69964198,0.16236283
-0.08367293,1.73105086

>  <Name>
ligand

>  <RI>
0

>  <Rbt.Current_Directory>
/home/itssahil/PROJECTS/Mol_Feturizer/Test_systems_manuscript/rnas/4yb0

>  <Rbt.Executable>
rbdock ($Id: //depot/dev/client3/rdock/2013.1/src/exe/rbdock.cxx#4 $)

>  <Rbt.Library>
libRbt.so (2013.1, Build901 2013/11/27)

>  <Rbt.Parameter_File>
/export/apps/rDock/src/rDock_2013.1_src/data/scripts/dock_solv.prm

>  <Rbt.Receptor>
prm/pocket_docking_4.prm

>  <SCORE>
-13.9681

>  <SCORE.INTER>
-14.8119

>  <SCORE.INTER.CONST>
1

>  <SCORE.INTER.POLAR>
0

>  <SCORE.INTER.ROT>
2

>  <SCORE.INTER.SOLV>
23.6045

>  <SCORE.INTER.VDW>
-22.6761

>  <SCORE.INTER.norm>
-0.321998

>  <SCORE.INTRA>
0.622603

>  <SCORE.INTRA.DIHEDRAL>
0.0126971

>  <SCORE.INTRA.DIHEDRAL.0>
2.42188

>  <SCORE.INTRA.POLAR>
0

>  <SCORE.INTRA.POLAR.0>
0

>  <SCORE.INTRA.REPUL>
0

>  <SCORE.INTRA.REPUL.0>
0

>  <SCORE.INTRA.SOLV>
1.03674

>  <SCORE.INTRA.SOLV.lig_0>
-127.307

>  <SCORE.INTRA.VDW>
0.0978845

>  <SCORE.INTRA.VDW.0>
-2.19936

>  <SCORE.INTRA.norm>
0.0135349

>  <SCORE.RESTR>
0.221182

>  <SCORE.RESTR.CAVITY>
0.221182

>  <SCORE.RESTR.norm>
0.00480831

>  <SCORE.SYSTEM>
0

>  <SCORE.SYSTEM.CONST>
0

>  <SCORE.SYSTEM.DIHEDRAL>
0

>  <SCORE.SYSTEM.SOLV>
0

>  <SCORE.SYSTEM.norm>
0

>  <SCORE.heavy>
46

>  <SCORE.norm>
-0.303655

>  <RMSD>
3.301

$$$$
ligand
 OpenBabel02271912143D
libRbt.so/2013.1/901 2013/11/27
 46 52  0  0  0  0  0  0  0  0999 V2000
  160.3394   46.6988  147.6580 P   0  0  1  0  0  0  0  0  0  0  0  0
  159.4758   41.0699  147.6548 P   0  0  1  0  0  0  0  0  0  0  0  0
  160.3733   47.3471  146.2980 O   0  5  0  0  0  0  0  0  0  0  0  0
  160.3292   47.6262  148.8536 O   0  0  0  0  0  0  0  0  0  0  0  0
  158.2671   45.5629  148.8474 C   0  0  0  0  0  0  0  0  0  0  0  0
  159.0981   45.6778  147.6996 O   0  0  0  0  0  0  0  0  0  0  0  0
  157.4486   44.2847  148.7707 C   0  0  1  0  0  0  0  0  0  0  0  0
  156.1248   44.6326  148.3906 O   0  0  0  0  0  0  0  0  0  0  0  0
  157.9267   43.2553  147.7546 C   0  0  1  0  0  0  0  0  0  0  0  0
  158.5991   42.1990  148.4245 O   0  0  0  0  0  0  0  0  0  0  0  0
  156.6411   42.7039  147.1799 C   0  0  1  0  0  0  0  0  0  0  0  0
  156.2134   41.5803  147.9524 O   0  0  0  0  0  0  0  0  0  0  0  0
  155.6151   43.7822  147.3749 C   0  0  2  0  0  0  0  0  0  0  0  0
  163.2414   43.9382  145.0120 C   0  0  1  0  0  0  0  0  0  0  0  0
  152.4624   45.2308  143.4369 N   0  0  0  0  0  0  0  0  0  0  0  0
  152.2227   44.4232  144.4872 C   0  0  1  0  0  0  0  0  0  0  0  0
  162.5295   45.1620  145.5494 C   0  0  2  0  0  0  0  0  0  0  0  0
  151.0008   43.8599  144.6173 N   0  0  0  0  0  0  0  0  0  0  0  0
  163.5321   46.0993  145.9521 O   0  0  0  0  0  0  0  0  0  0  0  0
  161.7360   44.6728  146.7466 C   0  0  2  0  0  0  0  0  0  0  0  0
  153.1451   44.1341  145.4330 N   0  0  0  0  0  0  0  0  0  0  0  0
  161.5964   45.6922  147.7353 O   0  0  0  0  0  0  0  0  0  0  0  0
  154.3892   44.6549  145.3713 C   0  0  2  0  0  0  0  0  0  0  0  0
  162.5811   43.5002  147.2392 C   0  0  2  0  0  0  0  0  0  0  0  0
  163.3426   43.0403  146.1205 O   0  0  0  0  0  0  0  0  0  0  0  0
  154.7210   45.5425  144.2525 C   0  0  2  0  0  0  0  0  0  0  0  0
  161.7870   42.3296  147.8271 C   0  0  0  0  0  0  0  0  0  0  0  0
  160.6782   41.9403  147.0175 O   0  0  0  0  0  0  0  0  0  0  0  0
  153.6596   45.8139  143.2546 C   0  0  0  0  0  0  0  0  0  0  0  0
  153.8872   46.5683  142.2783 O   0  0  0  0  0  0  0  0  0  0  0  0
  156.0032   45.9066  144.4322 N   0  0  0  0  0  0  0  0  0  0  0  0
  156.4540   45.3110  145.5624 C   0  0  0  0  0  0  0  0  0  0  0  0
  155.4866   44.5641  146.1224 N   0  0  1  0  0  0  0  0  0  0  0  0
  159.2481   44.4686  141.6341 N   0  0  0  0  0  0  0  0  0  0  0  0
  160.0316   40.1613  148.7353 O   0  5  0  0  0  0  0  0  0  0  0  0
  159.7666   45.3536  142.4994 C   0  0  2  0  0  0  0  0  0  0  0  0
  159.2122   46.5743  142.5409 N   0  0  0  0  0  0  0  0  0  0  0  0
  158.6672   40.5095  146.5102 O   0  0  0  0  0  0  0  0  0  0  0  0
  160.8094   45.0787  143.3175 N   0  0  0  0  0  0  0  0  0  0  0  0
  161.3960   43.8635  143.2998 C   0  0  1  0  0  0  0  0  0  0  0  0
  160.8708   42.8440  142.3696 C   0  0  1  0  0  0  0  0  0  0  0  0
  159.7306   43.2320  141.5006 C   0  0  0  0  0  0  0  0  0  0  0  0
  159.2112   42.4403  140.6849 O   0  0  0  0  0  0  0  0  0  0  0  0
  161.6235   41.7465  142.5463 N   0  0  0  0  0  0  0  0  0  0  0  0
  162.5418   42.0403  143.5084 C   0  0  0  0  0  0  0  0  0  0  0  0
  162.4108   43.3040  143.9583 N   0  0  2  0  0  0  0  0  0  0  0  0
  1  3  1  6  0  0  0
  1  4  2  0  0  0  0
  1  6  1  0  0  0  0
  1 22  1  0  0  0  0
  2 28  1  0  0  0  0
  2 35  1  1  0  0  0
  2 38  2  0  0  0  0
  2 10  1  0  0  0  0
  5  6  1  0  0  0  0
  7  5  1  6  0  0  0
  7  8  1  0  0  0  0
  7  9  1  0  0  0  0
  9 10  1  1  0  0  0
  9 11  1  0  0  0  0
 11 12  1  1  0  0  0
 11 13  1  0  0  0  0
 13  8  1  1  0  0  0
 13 33  1  0  0  0  0
 14 46  1  0  0  0  0
 14 17  1  0  0  0  0
 14 25  1  1  0  0  0
 15 16  1  0  0  0  0
 15 29  1  0  0  0  0
 16 18  1  6  0  0  0
 16 21  1  0  0  0  0
 17 19  1  1  0  0  0
 17 20  1  0  0  0  0
 20 22  1  1  0  0  0
 20 24  1  0  0  0  0
 23 21  1  6  0  0  0
 23 26  1  0  0  0  0
 23 33  1  0  0  0  0
 24 25  1  6  0  0  0
 24 27  1  0  0  0  0
 26 29  1  6  0  0  0
 26 31  1  0  0  0  0
 27 28  1  0  0  0  0
 29 30  2  0  0  0  0
 31 32  1  0  0  0  0
 33 32  1  1  0  0  0
 34 36  1  0  0  0  0
 34 42  1  0  0  0  0
 36 37  1  6  0  0  0
 36 39  1  0  0  0  0
 40 39  1  6  0  0  0
 40 41  1  0  0  0  0
 40 46  1  0  0  0  0
 41 42  1  6  0  0  0
 41 44  1  0  0  0  0
 42 43  2  0  0  0  0
 44 45  1  0  0  0  0
 46 45  1  1  0  0  0
M  CHG  2   3  -1  35  -1
M  END
>  <CHROM.1>
-127.77803256,17.29984141,158.73290167,44.11733754,145.72184691,0.16667992
-0.09107717,1.74962326

>  <Name>
ligand

>  <RI>
0

>  <Rbt.Current_Directory>
/home/itssahil/PROJECTS/Mol_Feturizer/Test_systems_manuscript/rnas/4yb0

>  <Rbt.Executable>
rbdock ($Id: //depot/dev/client3/rdock/2013.1/src/exe/rbdock.cxx#4 $)

>  <Rbt.Library>
libRbt.so (2013.1, Build901 2013/11/27)

>  <Rbt.Parameter_File>
/export/apps/rDock/src/rDock_2013.1_src/data/scripts/dock_solv.prm

>  <Rbt.Receptor>
prm/pocket_docking_4.prm

>  <SCORE>
-13.8423

>  <SCORE.INTER>
-14.6647

>  <SCORE.INTER.CONST>
1

>  <SCORE.INTER.POLAR>
0

>  <SCORE.INTER.ROT>
2

>  <SCORE.INTER.SOLV>
23.5972

>  <SCORE.INTER.VDW>
-22.5755

>  <SCORE.INTER.norm>
-0.318797

>  <SCORE.INTRA>
0.6223

>  <SCORE.INTRA.DIHEDRAL>
0.011719

>  <SCORE.INTRA.DIHEDRAL.0>
2.42188

>  <SCORE.INTRA.POLAR>
0

>  <SCORE.INTRA.POLAR.0>
0

>  <SCORE.INTRA.REPUL>
0

>  <SCORE.INTRA.REPUL.0>
0

>  <SCORE.INTRA.SOLV>
1.02934

>  <SCORE.INTRA.SOLV.lig_0>
-127.307

>  <SCORE.INTRA.VDW>
0.101771

>  <SCORE.INTRA.VDW.0>
-2.19936

>  <SCORE.INTRA.norm>
0.0135283

>  <SCORE.RESTR>
0.200079

>  <SCORE.RESTR.CAVITY>
0.200079

>  <SCORE.RESTR.norm>
0.00434955

>  <SCORE.SYSTEM>
0

>  <SCORE.SYSTEM.CONST>
0

>  <SCORE.SYSTEM.DIHEDRAL>
0

>  <SCORE.SYSTEM.SOLV>
0

>  <SCORE.SYSTEM.norm>
0

>  <SCORE.heavy>
46

>  <SCORE.norm>
-0.300919

>  <RMSD>
3.333

$$$$
ligand
 OpenBabel02271912143D
libRbt.so/2013.1/901 2013/11/27
 46 52  0  0  0  0  0  0  0  0999 V2000
  162.1843   43.9402  147.3867 P   0  0  1  0  0  0  0  0  0  0  0  0
  160.5649   48.1433  143.9022 P   0  0  1  0  0  0  0  0  0  0  0  0
  161.0849   43.0092  147.8291 O   0  5  0  0  0  0  0  0  0  0  0  0
  163.5995   43.5390  147.7417 O   0  0  0  0  0  0  0  0  0  0  0  0
  163.1563   44.2357  144.9439 C   0  0  0  0  0  0  0  0  0  0  0  0
  162.0271   44.1920  145.8066 O   0  0  0  0  0  0  0  0  0  0  0  0
  162.7718   44.8665  143.6158 C   0  0  1  0  0  0  0  0  0  0  0  0
  162.6334   43.8260  142.6587 O   0  0  0  0  0  0  0  0  0  0  0  0
  161.4548   45.6321  143.6060 C   0  0  1  0  0  0  0  0  0  0  0  0
  161.7134   47.0282  143.6308 O   0  0  0  0  0  0  0  0  0  0  0  0
  160.8577   45.2889  142.2597 C   0  0  1  0  0  0  0  0  0  0  0  0
  161.2912   46.2406  141.2859 O   0  0  0  0  0  0  0  0  0  0  0  0
  161.4585   43.9681  141.8751 C   0  0  2  0  0  0  0  0  0  0  0  0
  158.5832   46.7992  148.7661 C   0  0  1  0  0  0  0  0  0  0  0  0
  157.5112   40.9065  140.2650 N   0  0  0  0  0  0  0  0  0  0  0  0
  158.1699   41.8851  139.6158 C   0  0  1  0  0  0  0  0  0  0  0  0
  159.5251   45.6150  148.7011 C   0  0  2  0  0  0  0  0  0  0  0  0
  157.8172   42.1835  138.3454 N   0  0  0  0  0  0  0  0  0  0  0  0
  160.1001   45.4524  150.0006 O   0  0  0  0  0  0  0  0  0  0  0  0
  160.5852   45.9991  147.6859 C   0  0  2  0  0  0  0  0  0  0  0  0
  159.1765   42.6009  140.1665 N   0  0  0  0  0  0  0  0  0  0  0  0
  161.8431   45.3968  147.9878 O   0  0  0  0  0  0  0  0  0  0  0  0
  159.5845   42.3648  141.4317 C   0  0  2  0  0  0  0  0  0  0  0  0
  160.6251   47.5200  147.8175 C   0  0  2  0  0  0  0  0  0  0  0  0
  159.3568   47.9235  148.3384 O   0  0  0  0  0  0  0  0  0  0  0  0
  158.9099   41.3134  142.1993 C   0  0  2  0  0  0  0  0  0  0  0  0
  160.9018   48.2772  146.5150 C   0  0  0  0  0  0  0  0  0  0  0  0
  160.1147   47.8145  145.4183 O   0  0  0  0  0  0  0  0  0  0  0  0
  157.8160   40.5706  141.5302 C   0  0  0  0  0  0  0  0  0  0  0  0
  157.2061   39.6587  142.1387 O   0  0  0  0  0  0  0  0  0  0  0  0
  159.5010   41.2953  143.4073 N   0  0  0  0  0  0  0  0  0  0  0  0
  160.4674   42.2446  143.4158 C   0  0  0  0  0  0  0  0  0  0  0  0
  160.5157   42.8818  142.2330 N   0  0  1  0  0  0  0  0  0  0  0  0
  155.4678   43.3631  146.2914 N   0  0  0  0  0  0  0  0  0  0  0  0
  161.2681   49.4873  143.8675 O   0  5  0  0  0  0  0  0  0  0  0  0
  156.4509   43.1488  147.1793 C   0  0  2  0  0  0  0  0  0  0  0  0
  156.7115   41.8771  147.5174 N   0  0  0  0  0  0  0  0  0  0  0  0
  159.3814   47.8636  143.0082 O   0  0  0  0  0  0  0  0  0  0  0  0
  157.1788   44.1401  147.7448 N   0  0  0  0  0  0  0  0  0  0  0  0
  156.9416   45.4315  147.4332 C   0  0  1  0  0  0  0  0  0  0  0  0
  155.8724   45.7339  146.4605 C   0  0  1  0  0  0  0  0  0  0  0  0
  155.1162   44.5875  145.8953 C   0  0  0  0  0  0  0  0  0  0  0  0
  154.1974   44.7377  145.0614 O   0  0  0  0  0  0  0  0  0  0  0  0
  155.8411   47.0702  146.3355 N   0  0  0  0  0  0  0  0  0  0  0  0
  156.8090   47.5724  147.1517 C   0  0  0  0  0  0  0  0  0  0  0  0
  157.4659   46.5973  147.8106 N   0  0  2  0  0  0  0  0  0  0  0  0
  1  3  1  1  0  0  0
  1  4  2  0  0  0  0
  1  6  1  0  0  0  0
  1 22  1  0  0  0  0
  2 28  1  0  0  0  0
  2 35  1  6  0  0  0
  2 38  2  0  0  0  0
  2 10  1  0  0  0  0
  5  6  1  0  0  0  0
  7  5  1  1  0  0  0
  7  8  1  0  0  0  0
  7  9  1  0  0  0  0
  9 10  1  6  0  0  0
  9 11  1  0  0  0  0
 11 12  1  6  0  0  0
 11 13  1  0  0  0  0
 13  8  1  1  0  0  0
 13 33  1  0  0  0  0
 14 46  1  0  0  0  0
 14 17  1  0  0  0  0
 14 25  1  6  0  0  0
 15 16  1  0  0  0  0
 15 29  1  0  0  0  0
 16 18  1  1  0  0  0
 16 21  1  0  0  0  0
 17 19  1  1  0  0  0
 17 20  1  0  0  0  0
 20 22  1  1  0  0  0
 20 24  1  0  0  0  0
 23 21  1  1  0  0  0
 23 26  1  0  0  0  0
 23 33  1  0  0  0  0
 24 25  1  6  0  0  0
 24 27  1  0  0  0  0
 26 29  1  1  0  0  0
 26 31  1  0  0  0  0
 27 28  1  0  0  0  0
 29 30  2  0  0  0  0
 31 32  1  0  0  0  0
 33 32  1  6  0  0  0
 34 36  1  0  0  0  0
 34 42  1  0  0  0  0
 36 37  1  1  0  0  0
 36 39  1  0  0  0  0
 40 39  1  1  0  0  0
 40 41  1  0  0  0  0
 40 46  1  0  0  0  0
 41 42  1  1  0  0  0
 41 44  1  0  0  0  0
 42 43  2  0  0  0  0
 44 45  1  0  0  0  0
 46 45  1  6  0  0  0
M  CHG  2   3  -1  35  -1
M  END
>  <CHROM.1>
-152.86492700,30.49794281,159.56556451,44.78081793,144.94447493,-1.45065309
-0.45352384,-2.10812799

>  <Name>
ligand

>  <RI>
0

>  <Rbt.Current_Directory>
/home/itssahil/PROJECTS/Mol_Feturizer/Test_systems_manuscript/rnas/4yb0

>  <Rbt.Executable>
rbdock ($Id: //depot/dev/client3/rdock/2013.1/src/exe/rbdock.cxx#4 $)

>  <Rbt.Library>
libRbt.so (2013.1, Build901 2013/11/27)

>  <Rbt.Parameter_File>
/export/apps/rDock/src/rDock_2013.1_src/data/scripts/dock_solv.prm

>  <Rbt.Receptor>
prm/pocket_docking_4.prm

>  <SCORE>
-21.4212

>  <SCORE.INTER>
-21.9683

>  <SCORE.INTER.CONST>
1

>  <SCORE.INTER.POLAR>
0

>  <SCORE.INTER.ROT>
2

>  <SCORE.INTER.SOLV>
30.7472

>  <SCORE.INTER.VDW>
-29.8279

>  <SCORE.INTER.norm>
-0.477572

>  <SCORE.INTRA>
0.158805

>  <SCORE.INTRA.DIHEDRAL>
0.0307063

>  <SCORE.INTRA.DIHEDRAL.0>
2.42188

>  <SCORE.INTRA.POLAR>
0

>  <SCORE.INTRA.POLAR.0>
0

>  <SCORE.INTRA.REPUL>
0

>  <SCORE.INTRA.REPUL.0>
0

>  <SCORE.INTRA.SOLV>
0.0195148

>  <SCORE.INTRA.SOLV.lig_0>
-127.307

>  <SCORE.INTRA.VDW>
0.133695

>  <SCORE.INTRA.VDW.0>
-2.19936

>  <SCORE.INTRA.norm>
0.00345229

>  <SCORE.RESTR>
0.388354

>  <SCORE.RESTR.CAVITY>
0.388354

>  <SCORE.RESTR.norm>
0.00844247

>  <SCORE.SYSTEM>
0

>  <SCORE.SYSTEM.CONST>
0

>  <SCORE.SYSTEM.DIHEDRAL>
0

>  <SCORE.SYSTEM.SOLV>
0

>  <SCORE.SYSTEM.norm>
0

>  <SCORE.heavy>
46

>  <SCORE.norm>
-0.465677

>  <RMSD>
3.417

$$$$
ligand
 OpenBabel02271912143D
libRbt.so/2013.1/901 2013/11/27
 46 52  0  0  0  0  0  0  0  0999 V2000
  162.0998   45.1292  147.5622 P   0  0  1  0  0  0  0  0  0  0  0  0
  160.3236   48.4388  143.2817 P   0  0  1  0  0  0  0  0  0  0  0  0
  161.0739   44.1658  148.1012 O   0  5  0  0  0  0  0  0  0  0  0  0
  163.5170   44.9666  148.0668 O   0  0  0  0  0  0  0  0  0  0  0  0
  163.2248   45.1078  145.1678 C   0  0  0  0  0  0  0  0  0  0  0  0
  162.0421   45.0814  145.9561 O   0  0  0  0  0  0  0  0  0  0  0  0
  162.8817   45.4475  143.7267 C   0  0  1  0  0  0  0  0  0  0  0  0
  162.9306   44.2472  142.9686 O   0  0  0  0  0  0  0  0  0  0  0  0
  161.4957   46.0380  143.5004 C   0  0  1  0  0  0  0  0  0  0  0  0
  161.6018   47.4377  143.2858 O   0  0  0  0  0  0  0  0  0  0  0  0
  161.0467   45.3972  142.2064 C   0  0  1  0  0  0  0  0  0  0  0  0
  161.4523   46.2093  141.1028 O   0  0  0  0  0  0  0  0  0  0  0  0
  161.8129   44.1103  142.1046 C   0  0  2  0  0  0  0  0  0  0  0  0
  158.1177   47.7371  148.1840 C   0  0  1  0  0  0  0  0  0  0  0  0
  157.9756   40.7122  140.9754 N   0  0  0  0  0  0  0  0  0  0  0  0
  158.5287   41.6784  140.2182 C   0  0  1  0  0  0  0  0  0  0  0  0
  159.1822   46.6799  148.3911 C   0  0  2  0  0  0  0  0  0  0  0  0
  158.0788   41.8628  138.9569 N   0  0  0  0  0  0  0  0  0  0  0  0
  159.6668   46.8155  149.7300 O   0  0  0  0  0  0  0  0  0  0  0  0
  160.2724   47.0043  147.3871 C   0  0  2  0  0  0  0  0  0  0  0  0
  159.5201   42.4905  140.6501 N   0  0  0  0  0  0  0  0  0  0  0  0
  161.5594   46.6172  147.8669 O   0  0  0  0  0  0  0  0  0  0  0  0
  160.0208   42.3711  141.8983 C   0  0  2  0  0  0  0  0  0  0  0  0
  160.1400   48.5187  147.2418 C   0  0  2  0  0  0  0  0  0  0  0  0
  158.7989   48.8534  147.6051 O   0  0  0  0  0  0  0  0  0  0  0  0
  159.4639   41.3399  142.7794 C   0  0  2  0  0  0  0  0  0  0  0  0
  160.4368   49.0648  145.8417 C   0  0  0  0  0  0  0  0  0  0  0  0
  159.7924   48.3281  144.8032 O   0  0  0  0  0  0  0  0  0  0  0  0
  158.3798   40.4873  142.2374 C   0  0  0  0  0  0  0  0  0  0  0  0
  157.8685   39.5873  142.9463 O   0  0  0  0  0  0  0  0  0  0  0  0
  160.1294   41.4443  143.9435 N   0  0  0  0  0  0  0  0  0  0  0  0
  161.0320   42.4472  143.8224 C   0  0  0  0  0  0  0  0  0  0  0  0
  160.9655   42.9989  142.5982 N   0  0  1  0  0  0  0  0  0  0  0  0
  155.5619   43.5818  146.2248 N   0  0  0  0  0  0  0  0  0  0  0  0
  160.8806   49.8300  143.0443 O   0  5  0  0  0  0  0  0  0  0  0  0
  156.4850   43.6444  147.1968 C   0  0  2  0  0  0  0  0  0  0  0  0
  156.8386   42.4933  147.7879 N   0  0  0  0  0  0  0  0  0  0  0  0
  159.2509   47.8693  142.3856 O   0  0  0  0  0  0  0  0  0  0  0  0
  157.0650   44.7970  147.6060 N   0  0  0  0  0  0  0  0  0  0  0  0
  156.7306   45.9748  147.0384 C   0  0  1  0  0  0  0  0  0  0  0  0
  155.7205   45.9731  145.9613 C   0  0  1  0  0  0  0  0  0  0  0  0
  155.1274   44.6660  145.5803 C   0  0  0  0  0  0  0  0  0  0  0  0
  154.2699   44.5578  144.6775 O   0  0  0  0  0  0  0  0  0  0  0  0
  155.5706   47.2518  145.5807 N   0  0  0  0  0  0  0  0  0  0  0  0
  156.4154   47.9993  146.3441 C   0  0  0  0  0  0  0  0  0  0  0  0
  157.1072   47.2407  147.2173 N   0  0  2  0  0  0  0  0  0  0  0  0
  1  3  1  1  0  0  0
  1  4  2  0  0  0  0
  1  6  1  0  0  0  0
  1 22  1  0  0  0  0
  2 28  1  0  0  0  0
  2 35  1  6  0  0  0
  2 38  2  0  0  0  0
  2 10  1  0  0  0  0
  5  6  1  0  0  0  0
  7  5  1  1  0  0  0
  7  8  1  0  0  0  0
  7  9  1  0  0  0  0
  9 10  1  6  0  0  0
  9 11  1  0  0  0  0
 11 12  1  6  0  0  0
 11 13  1  0  0  0  0
 13  8  1  1  0  0  0
 13 33  1  0  0  0  0
 14 46  1  0  0  0  0
 14 17  1  0  0  0  0
 14 25  1  6  0  0  0
 15 16  1  0  0  0  0
 15 29  1  0  0  0  0
 16 18  1  1  0  0  0
 16 21  1  0  0  0  0
 17 19  1  1  0  0  0
 17 20  1  0  0  0  0
 20 22  1  1  0  0  0
 20 24  1  0  0  0  0
 23 21  1  1  0  0  0
 23 26  1  0  0  0  0
 23 33  1  0  0  0  0
 24 25  1  6  0  0  0
 24 27  1  0  0  0  0
 26 29  1  1  0  0  0
 26 31  1  0  0  0  0
 27 28  1  0  0  0  0
 29 30  2  0  0  0  0
 31 32  1  0  0  0  0
 33 32  1  6  0  0  0
 34 36  1  0  0  0  0
 34 42  1  0  0  0  0
 36 37  1  1  0  0  0
 36 39  1  0  0  0  0
 40 39  1  1  0  0  0
 40 41  1  0  0  0  0
 40 46  1  0  0  0  0
 41 42  1  1  0  0  0
 41 44  1  0  0  0  0
 42 43  2  0  0  0  0
 44 45  1  0  0  0  0
 46 45  1  6  0  0  0
M  CHG  2   3  -1  35  -1
M  END
>  <CHROM.1>
-163.21070286,31.28791096,159.56359928,45.25267013,144.87468033,-1.53465905
-0.47947069,-2.31529196

>  <Name>
ligand

>  <RI>
0

>  <Rbt.Current_Directory>
/home/itssahil/PROJECTS/Mol_Feturizer/Test_systems_manuscript/rnas/4yb0

>  <Rbt.Executable>
rbdock ($Id: //depot/dev/client3/rdock/2013.1/src/exe/rbdock.cxx#4 $)

>  <Rbt.Library>
libRbt.so (2013.1, Build901 2013/11/27)

>  <Rbt.Parameter_File>
/export/apps/rDock/src/rDock_2013.1_src/data/scripts/dock_solv.prm

>  <Rbt.Receptor>
prm/pocket_docking_5.prm

>  <SCORE>
-20.213

>  <SCORE.INTER>
-20.4305

>  <SCORE.INTER.CONST>
1

>  <SCORE.INTER.POLAR>
0

>  <SCORE.INTER.ROT>
2

>  <SCORE.INTER.SOLV>
26.335

>  <SCORE.INTER.VDW>
-27.332

>  <SCORE.INTER.norm>
-0.44414

>  <SCORE.INTRA>
0.205315

>  <SCORE.INTRA.DIHEDRAL>
0.0253937

>  <SCORE.INTRA.DIHEDRAL.0>
2.42188

>  <SCORE.INTRA.POLAR>
0

>  <SCORE.INTRA.POLAR.0>
0

>  <SCORE.INTRA.REPUL>
0

>  <SCORE.INTRA.REPUL.0>
0

>  <SCORE.INTRA.SOLV>
0.0157893

>  <SCORE.INTRA.SOLV.lig_0>
-127.307

>  <SCORE.INTRA.VDW>
0.184723

>  <SCORE.INTRA.VDW.0>
-2.19936

>  <SCORE.INTRA.norm>
0.00446337

>  <SCORE.RESTR>
0.0121768

>  <SCORE.RESTR.CAVITY>
0.0121768

>  <SCORE.RESTR.norm>
0.000264713

>  <SCORE.SYSTEM>
0

>  <SCORE.SYSTEM.CONST>
0

>  <SCORE.SYSTEM.DIHEDRAL>
0

>  <SCORE.SYSTEM.SOLV>
0

>  <SCORE.SYSTEM.norm>
0

>  <SCORE.heavy>
46

>  <SCORE.norm>
-0.439412

>  <RMSD>
3.582

$$$$
ligand
 OpenBabel02271912143D
libRbt.so/2013.1/901 2013/11/27
 46 52  0  0  0  0  0  0  0  0999 V2000
  160.1102   47.2611  147.7597 P   0  0  1  0  0  0  0  0  0  0  0  0
  159.8169   41.6403  146.8927 P   0  0  1  0  0  0  0  0  0  0  0  0
  159.9903   48.1120  146.5217 O   0  5  0  0  0  0  0  0  0  0  0  0
  160.0850   47.9853  149.0880 O   0  0  0  0  0  0  0  0  0  0  0  0
  158.2441   45.7350  148.8497 C   0  0  0  0  0  0  0  0  0  0  0  0
  158.9828   46.1165  147.6966 O   0  0  0  0  0  0  0  0  0  0  0  0
  157.5546   44.4024  148.6081 C   0  0  1  0  0  0  0  0  0  0  0  0
  156.1806   44.6582  148.3536 O   0  0  0  0  0  0  0  0  0  0  0  0
  158.0663   43.6013  147.4176 C   0  0  1  0  0  0  0  0  0  0  0  0
  158.8833   42.5339  147.8755 O   0  0  0  0  0  0  0  0  0  0  0  0
  156.8078   43.0085  146.8247 C   0  0  1  0  0  0  0  0  0  0  0  0
  156.5460   41.7389  147.4261 O   0  0  0  0  0  0  0  0  0  0  0  0
  155.6937   43.9248  147.2401 C   0  0  2  0  0  0  0  0  0  0  0  0
  163.0957   45.2775  144.5665 C   0  0  1  0  0  0  0  0  0  0  0  0
  152.2848   45.4065  143.5347 N   0  0  0  0  0  0  0  0  0  0  0  0
  152.2140   44.3990  144.4251 C   0  0  1  0  0  0  0  0  0  0  0  0
  162.3013   46.3181  145.3278 C   0  0  2  0  0  0  0  0  0  0  0  0
  151.1236   43.6000  144.4275 N   0  0  0  0  0  0  0  0  0  0  0  0
  163.2290   47.2856  145.8270 O   0  0  0  0  0  0  0  0  0  0  0  0
  161.6405   45.5657  146.4676 C   0  0  2  0  0  0  0  0  0  0  0  0
  153.1836   44.1313  145.3290 N   0  0  0  0  0  0  0  0  0  0  0  0
  161.4641   46.3981  147.6131 O   0  0  0  0  0  0  0  0  0  0  0  0
  154.3045   44.8817  145.3872 C   0  0  2  0  0  0  0  0  0  0  0  0
  162.6292   44.4304  146.7236 C   0  0  2  0  0  0  0  0  0  0  0  0
  163.3584   44.2353  145.5099 O   0  0  0  0  0  0  0  0  0  0  0  0
  154.4498   45.9958  144.4452 C   0  0  2  0  0  0  0  0  0  0  0  0
  161.9964   43.1031  147.1532 C   0  0  0  0  0  0  0  0  0  0  0  0
  160.8818   42.7251  146.3463 O   0  0  0  0  0  0  0  0  0  0  0  0
  153.3466   46.2290  143.4836 C   0  0  0  0  0  0  0  0  0  0  0  0
  153.4165   47.1699  142.6568 O   0  0  0  0  0  0  0  0  0  0  0  0
  155.6404   46.5602  144.7152 N   0  0  0  0  0  0  0  0  0  0  0  0
  156.2075   45.8749  145.7369 C   0  0  0  0  0  0  0  0  0  0  0  0
  155.4062   44.8725  146.1374 N   0  0  1  0  0  0  0  0  0  0  0  0
  160.7923   41.0371  142.4808 N   0  0  0  0  0  0  0  0  0  0  0  0
  160.5301   40.6416  147.7847 O   0  5  0  0  0  0  0  0  0  0  0  0
  161.5181   41.1577  143.6030 C   0  0  2  0  0  0  0  0  0  0  0  0
  161.7089   40.0513  144.3370 N   0  0  0  0  0  0  0  0  0  0  0  0
  158.9956   41.1790  145.7133 O   0  0  0  0  0  0  0  0  0  0  0  0
  162.0557   42.3258  144.0256 N   0  0  0  0  0  0  0  0  0  0  0  0
  161.8804   43.4604  143.3162 C   0  0  1  0  0  0  0  0  0  0  0  0
  161.0914   43.3940  142.0698 C   0  0  1  0  0  0  0  0  0  0  0  0
  160.5295   42.0744  141.6841 C   0  0  0  0  0  0  0  0  0  0  0  0
  159.8533   41.9127  140.6456 O   0  0  0  0  0  0  0  0  0  0  0  0
  161.0660   44.6401  141.5708 N   0  0  0  0  0  0  0  0  0  0  0  0
  161.7810   45.4276  142.4216 C   0  0  0  0  0  0  0  0  0  0  0  0
  162.2661   44.7274  143.4660 N   0  0  2  0  0  0  0  0  0  0  0  0
  1  3  1  6  0  0  0
  1  4  2  0  0  0  0
  1  6  1  0  0  0  0
  1 22  1  0  0  0  0
  2 28  1  0  0  0  0
  2 35  1  1  0  0  0
  2 38  2  0  0  0  0
  2 10  1  0  0  0  0
  5  6  1  0  0  0  0
  7  5  1  6  0  0  0
  7  8  1  0  0  0  0
  7  9  1  0  0  0  0
  9 10  1  1  0  0  0
  9 11  1  0  0  0  0
 11 12  1  1  0  0  0
 11 13  1  0  0  0  0
 13  8  1  1  0  0  0
 13 33  1  0  0  0  0
 14 46  1  0  0  0  0
 14 17  1  0  0  0  0
 14 25  1  1  0  0  0
 15 16  1  0  0  0  0
 15 29  1  0  0  0  0
 16 18  1  6  0  0  0
 16 21  1  0  0  0  0
 17 19  1  1  0  0  0
 17 20  1  0  0  0  0
 20 22  1  1  0  0  0
 20 24  1  0  0  0  0
 23 21  1  6  0  0  0
 23 26  1  0  0  0  0
 23 33  1  0  0  0  0
 24 25  1  6  0  0  0
 24 27  1  0  0  0  0
 26 29  1  6  0  0  0
 26 31  1  0  0  0  0
 27 28  1  0  0  0  0
 29 30  2  0  0  0  0
 31 32  1  0  0  0  0
 33 32  1  1  0  0  0
 34 36  1  0  0  0  0
 34 42  1  0  0  0  0
 36 37  1  1  0  0  0
 36 39  1  0  0  0  0
 40 39  1  1  0  0  0
 40 41  1  0  0  0  0
 40 46  1  0  0  0  0
 41 42  1  1  0  0  0
 41 44  1  0  0  0  0
 42 43  2  0  0  0  0
 44 45  1  0  0  0  0
 46 45  1  6  0  0  0
M  CHG  2   3  -1  35  -1
M  END
>  <CHROM.1>
-134.04180439,-118.28902718,158.87301044,44.29982922,145.59523392,-0.10136592
-0.10427756,0.83627654

>  <Name>
ligand

>  <RI>
0

>  <Rbt.Current_Directory>
/home/itssahil/PROJECTS/Mol_Feturizer/Test_systems_manuscript/rnas/4yb0

>  <Rbt.Executable>
rbdock ($Id: //depot/dev/client3/rdock/2013.1/src/exe/rbdock.cxx#4 $)

>  <Rbt.Library>
libRbt.so (2013.1, Build901 2013/11/27)

>  <Rbt.Parameter_File>
/export/apps/rDock/src/rDock_2013.1_src/data/scripts/dock_solv.prm

>  <Rbt.Receptor>
prm/pocket_docking_4.prm

>  <SCORE>
-27.472

>  <SCORE.INTER>
-29.1668

>  <SCORE.INTER.CONST>
1

>  <SCORE.INTER.POLAR>
0

>  <SCORE.INTER.ROT>
2

>  <SCORE.INTER.SOLV>
29.2125

>  <SCORE.INTER.VDW>
-34.1154

>  <SCORE.INTER.norm>
-0.634061

>  <SCORE.INTRA>
1.63274

>  <SCORE.INTRA.DIHEDRAL>
-0.00273392

>  <SCORE.INTRA.DIHEDRAL.0>
2.42188

>  <SCORE.INTRA.POLAR>
0

>  <SCORE.INTRA.POLAR.0>
0

>  <SCORE.INTRA.REPUL>
0

>  <SCORE.INTRA.REPUL.0>
0

>  <SCORE.INTRA.SOLV>
6.42628

>  <SCORE.INTRA.SOLV.lig_0>
-127.307

>  <SCORE.INTRA.VDW>
-1.57903

>  <SCORE.INTRA.VDW.0>
-2.19936

>  <SCORE.INTRA.norm>
0.0354943

>  <SCORE.RESTR>
0.0620181

>  <SCORE.RESTR.CAVITY>
0.0620181

>  <SCORE.RESTR.norm>
0.00134822

>  <SCORE.SYSTEM>
0

>  <SCORE.SYSTEM.CONST>
0

>  <SCORE.SYSTEM.DIHEDRAL>
0

>  <SCORE.SYSTEM.SOLV>
0

>  <SCORE.SYSTEM.norm>
0

>  <SCORE.heavy>
46

>  <SCORE.norm>
-0.597218

>  <RMSD>
3.680

$$$$
ligand
 OpenBabel02271912143D
libRbt.so/2013.1/901 2013/11/27
 46 52  0  0  0  0  0  0  0  0999 V2000
  157.7821   42.0496  148.5381 P   0  0  1  0  0  0  0  0  0  0  0  0
  161.7477   46.0897  147.9198 P   0  0  1  0  0  0  0  0  0  0  0  0
  156.7364   42.0007  147.4541 O   0  5  0  0  0  0  0  0  0  0  0  0
  157.7820   40.9115  149.5353 O   0  0  0  0  0  0  0  0  0  0  0  0
  160.3616   41.5075  148.3107 C   0  0  0  0  0  0  0  0  0  0  0  0
  159.2221   42.2175  147.8431 O   0  0  0  0  0  0  0  0  0  0  0  0
  161.6292   42.1339  147.7534 C   0  0  1  0  0  0  0  0  0  0  0  0
  162.0979   41.3104  146.6951 O   0  0  0  0  0  0  0  0  0  0  0  0
  161.4719   43.5315  147.1680 C   0  0  1  0  0  0  0  0  0  0  0  0
  161.9879   44.4918  148.0780 O   0  0  0  0  0  0  0  0  0  0  0  0
  162.3702   43.5071  145.9516 C   0  0  1  0  0  0  0  0  0  0  0  0
  163.6856   43.9283  146.3181 O   0  0  0  0  0  0  0  0  0  0  0  0
  162.4710   42.0638  145.5515 C   0  0  2  0  0  0  0  0  0  0  0  0
  156.3499   46.5941  147.9550 C   0  0  1  0  0  0  0  0  0  0  0  0
  159.5303   44.0990  141.7100 N   0  0  0  0  0  0  0  0  0  0  0  0
  160.3532   44.7058  142.5862 C   0  0  1  0  0  0  0  0  0  0  0  0
  156.3184   45.0814  148.0183 C   0  0  2  0  0  0  0  0  0  0  0  0
  160.4980   46.0486  142.5297 N   0  0  0  0  0  0  0  0  0  0  0  0
  155.2896   44.7119  148.9407 O   0  0  0  0  0  0  0  0  0  0  0  0
  157.6832   44.6718  148.5396 C   0  0  2  0  0  0  0  0  0  0  0  0
  161.0521   44.0440  143.5361 N   0  0  0  0  0  0  0  0  0  0  0  0
  157.6150   43.4632  149.2951 O   0  0  0  0  0  0  0  0  0  0  0  0
  160.9583   42.7027  143.6587 C   0  0  2  0  0  0  0  0  0  0  0  0
  158.0756   45.8710  149.3998 C   0  0  2  0  0  0  0  0  0  0  0  0
  157.3427   46.9933  148.9038 O   0  0  0  0  0  0  0  0  0  0  0  0
  160.0783   41.9762  142.7380 C   0  0  2  0  0  0  0  0  0  0  0  0
  159.5707   46.2045  149.4050 C   0  0  0  0  0  0  0  0  0  0  0  0
  160.1476   46.2186  148.0998 O   0  0  0  0  0  0  0  0  0  0  0  0
  159.3443   42.7680  141.7229 C   0  0  0  0  0  0  0  0  0  0  0  0
  158.5798   42.1980  140.9077 O   0  0  0  0  0  0  0  0  0  0  0  0
  160.1683   40.6789  143.0810 N   0  0  0  0  0  0  0  0  0  0  0  0
  161.0277   40.5791  144.1235 C   0  0  0  0  0  0  0  0  0  0  0  0
  161.4993   41.7906  144.4662 N   0  0  1  0  0  0  0  0  0  0  0  0
  155.2892   46.6708  142.8065 N   0  0  0  0  0  0  0  0  0  0  0  0
  162.4401   46.7376  149.1042 O   0  5  0  0  0  0  0  0  0  0  0  0
  154.5859   46.1470  143.8223 C   0  0  2  0  0  0  0  0  0  0  0  0
  153.4267   45.5418  143.5236 N   0  0  0  0  0  0  0  0  0  0  0  0
  162.0785   46.5031  146.5064 O   0  0  0  0  0  0  0  0  0  0  0  0
  154.9825   46.2027  145.1154 N   0  0  0  0  0  0  0  0  0  0  0  0
  156.1400   46.8080  145.4545 C   0  0  1  0  0  0  0  0  0  0  0  0
  156.9611   47.4038  144.3815 C   0  0  1  0  0  0  0  0  0  0  0  0
  156.4475   47.3062  142.9914 C   0  0  0  0  0  0  0  0  0  0  0  0
  157.0703   47.7731  142.0135 O   0  0  0  0  0  0  0  0  0  0  0  0
  158.0377   47.9373  144.9804 N   0  0  0  0  0  0  0  0  0  0  0  0
  157.9149   47.6962  146.3154 C   0  0  0  0  0  0  0  0  0  0  0  0
  156.7819   47.0250  146.6022 N   0  0  2  0  0  0  0  0  0  0  0  0
  1  3  1  6  0  0  0
  1  4  2  0  0  0  0
  1  6  1  0  0  0  0
  1 22  1  0  0  0  0
  2 28  1  0  0  0  0
  2 35  1  1  0  0  0
  2 38  2  0  0  0  0
  2 10  1  0  0  0  0
  5  6  1  0  0  0  0
  7  5  1  6  0  0  0
  7  8  1  0  0  0  0
  7  9  1  0  0  0  0
  9 10  1  1  0  0  0
  9 11  1  0  0  0  0
 11 12  1  1  0  0  0
 11 13  1  0  0  0  0
 13  8  1  1  0  0  0
 13 33  1  0  0  0  0
 14 46  1  0  0  0  0
 14 17  1  0  0  0  0
 14 25  1  1  0  0  0
 15 16  1  0  0  0  0
 15 29  1  0  0  0  0
 16 18  1  1  0  0  0
 16 21  1  0  0  0  0
 17 19  1  1  0  0  0
 17 20  1  0  0  0  0
 20 22  1  1  0  0  0
 20 24  1  0  0  0  0
 23 21  1  1  0  0  0
 23 26  1  0  0  0  0
 23 33  1  0  0  0  0
 24 25  1  6  0  0  0
 24 27  1  0  0  0  0
 26 29  1  1  0  0  0
 26 31  1  0  0  0  0
 27 28  1  0  0  0  0
 29 30  2  0  0  0  0
 31 32  1  0  0  0  0
 33 32  1  6  0  0  0
 34 36  1  0  0  0  0
 34 42  1  0  0  0  0
 36 37  1  1  0  0  0
 36 39  1  0  0  0  0
 40 39  1  1  0  0  0
 40 41  1  0  0  0  0
 40 46  1  0  0  0  0
 41 42  1  1  0  0  0
 41 44  1  0  0  0  0
 42 43  2  0  0  0  0
 44 45  1  0  0  0  0
 46 45  1  6  0  0  0
M  CHG  2   3  -1  35  -1
M  END
>  <CHROM.1>
136.48657637,63.57178447,159.04704608,44.46049639,146.08851861,0.27801818
-0.60807699,1.49947639

>  <Name>
ligand

>  <RI>
0

>  <Rbt.Current_Directory>
/home/itssahil/PROJECTS/Mol_Feturizer/Test_systems_manuscript/rnas/4yb0

>  <Rbt.Executable>
rbdock ($Id: //depot/dev/client3/rdock/2013.1/src/exe/rbdock.cxx#4 $)

>  <Rbt.Library>
libRbt.so (2013.1, Build901 2013/11/27)

>  <Rbt.Parameter_File>
/export/apps/rDock/src/rDock_2013.1_src/data/scripts/dock_solv.prm

>  <Rbt.Receptor>
prm/pocket_docking_5.prm

>  <SCORE>
-18.8476

>  <SCORE.INTER>
-19.6075

>  <SCORE.INTER.CONST>
1

>  <SCORE.INTER.POLAR>
0

>  <SCORE.INTER.ROT>
2

>  <SCORE.INTER.SOLV>
25.468

>  <SCORE.INTER.VDW>
-26.4943

>  <SCORE.INTER.norm>
-0.426251

>  <SCORE.INTRA>
0.755764

>  <SCORE.INTRA.DIHEDRAL>
-0.0453311

>  <SCORE.INTRA.DIHEDRAL.0>
2.42188

>  <SCORE.INTRA.POLAR>
0

>  <SCORE.INTRA.POLAR.0>
0

>  <SCORE.INTRA.REPUL>
0

>  <SCORE.INTRA.REPUL.0>
0

>  <SCORE.INTRA.SOLV>
0.891571

>  <SCORE.INTRA.SOLV.lig_0>
-127.307

>  <SCORE.INTRA.VDW>
0.332644

>  <SCORE.INTRA.VDW.0>
-2.19936

>  <SCORE.INTRA.norm>
0.0164297

>  <SCORE.RESTR>
0.00418458

>  <SCORE.RESTR.CAVITY>
0.00418458

>  <SCORE.RESTR.norm>
9.09691e-05

>  <SCORE.SYSTEM>
0

>  <SCORE.SYSTEM.CONST>
0

>  <SCORE.SYSTEM.DIHEDRAL>
0

>  <SCORE.SYSTEM.SOLV>
0

>  <SCORE.SYSTEM.norm>
0

>  <SCORE.heavy>
46

>  <SCORE.norm>
-0.40973

>  <RMSD>
3.716

$$$$
ligand
 OpenBabel02271912143D
libRbt.so/2013.1/901 2013/11/27
 46 52  0  0  0  0  0  0  0  0999 V2000
  162.7047   43.8338  147.4934 P   0  0  1  0  0  0  0  0  0  0  0  0
  160.2871   48.0543  144.5313 P   0  0  1  0  0  0  0  0  0  0  0  0
  161.7583   42.7744  147.9966 O   0  5  0  0  0  0  0  0  0  0  0  0
  164.1836   43.5541  147.6483 O   0  0  0  0  0  0  0  0  0  0  0  0
  163.3325   44.3671  144.9792 C   0  0  0  0  0  0  0  0  0  0  0  0
  162.3288   44.1614  145.9648 O   0  0  0  0  0  0  0  0  0  0  0  0
  162.7292   45.0340  143.7541 C   0  0  1  0  0  0  0  0  0  0  0  0
  162.5672   44.0430  142.7493 O   0  0  0  0  0  0  0  0  0  0  0  0
  161.3573   45.6651  143.9551 C   0  0  1  0  0  0  0  0  0  0  0  0
  161.4891   47.0760  144.0473 O   0  0  0  0  0  0  0  0  0  0  0  0
  160.6301   45.3444  142.6685 C   0  0  1  0  0  0  0  0  0  0  0  0
  160.8501   46.3899  141.7196 O   0  0  0  0  0  0  0  0  0  0  0  0
  161.2954   44.1143  142.1230 C   0  0  2  0  0  0  0  0  0  0  0  0
  159.0598   46.2370  149.4894 C   0  0  1  0  0  0  0  0  0  0  0  0
  157.7005   40.5847  140.6516 N   0  0  0  0  0  0  0  0  0  0  0  0
  158.2096   41.6352  139.9806 C   0  0  1  0  0  0  0  0  0  0  0  0
  160.0897   45.1575  149.2295 C   0  0  2  0  0  0  0  0  0  0  0  0
  157.7771   41.8842  138.7244 N   0  0  0  0  0  0  0  0  0  0  0  0
  160.8352   44.9763  150.4366 O   0  0  0  0  0  0  0  0  0  0  0  0
  160.9753   45.7035  148.1250 C   0  0  2  0  0  0  0  0  0  0  0  0
  159.1394   42.4712  140.4958 N   0  0  0  0  0  0  0  0  0  0  0  0
  162.3105   45.2116  148.2319 O   0  0  0  0  0  0  0  0  0  0  0  0
  159.6188   42.2908  141.7450 C   0  0  2  0  0  0  0  0  0  0  0  0
  160.8930   47.2105  148.3579 C   0  0  2  0  0  0  0  0  0  0  0  0
  159.6685   47.4554  149.0531 O   0  0  0  0  0  0  0  0  0  0  0  0
  159.1072   41.1664  142.5348 C   0  0  2  0  0  0  0  0  0  0  0  0
  160.9346   48.0667  147.0883 C   0  0  0  0  0  0  0  0  0  0  0  0
  160.0618   47.5939  146.0632 O   0  0  0  0  0  0  0  0  0  0  0  0
  158.0899   40.2925  141.9044 C   0  0  0  0  0  0  0  0  0  0  0  0
  157.6195   39.3140  142.5331 O   0  0  0  0  0  0  0  0  0  0  0  0
  159.7392   41.2248  143.7205 N   0  0  0  0  0  0  0  0  0  0  0  0
  160.5808   42.2861  143.6957 C   0  0  0  0  0  0  0  0  0  0  0  0
  160.5075   42.9211  142.5129 N   0  0  1  0  0  0  0  0  0  0  0  0
  156.1735   42.7031  146.8782 N   0  0  0  0  0  0  0  0  0  0  0  0
  160.8555   49.4608  144.5080 O   0  5  0  0  0  0  0  0  0  0  0  0
  157.3018   42.5388  147.5860 C   0  0  2  0  0  0  0  0  0  0  0  0
  157.8047   41.2979  147.6673 N   0  0  0  0  0  0  0  0  0  0  0  0
  159.0314   47.7122  143.7669 O   0  0  0  0  0  0  0  0  0  0  0  0
  157.9450   43.5497  148.2157 N   0  0  0  0  0  0  0  0  0  0  0  0
  157.4659   44.8102  148.1605 C   0  0  1  0  0  0  0  0  0  0  0  0
  156.2271   45.0573  147.3958 C   0  0  1  0  0  0  0  0  0  0  0  0
  155.5803   43.8903  146.7435 C   0  0  0  0  0  0  0  0  0  0  0  0
  154.5330   43.9958  146.0696 O   0  0  0  0  0  0  0  0  0  0  0  0
  155.9704   46.3705  147.5048 N   0  0  0  0  0  0  0  0  0  0  0  0
  156.9620   46.9113  148.2661 C   0  0  0  0  0  0  0  0  0  0  0  0
  157.8547   45.9823  148.6617 N   0  0  2  0  0  0  0  0  0  0  0  0
  1  3  1  1  0  0  0
  1  4  2  0  0  0  0
  1  6  1  0  0  0  0
  1 22  1  0  0  0  0
  2 28  1  0  0  0  0
  2 35  1  6  0  0  0
  2 38  2  0  0  0  0
  2 10  1  0  0  0  0
  5  6  1  0  0  0  0
  7  5  1  1  0  0  0
  7  8  1  0  0  0  0
  7  9  1  0  0  0  0
  9 10  1  6  0  0  0
  9 11  1  0  0  0  0
 11 12  1  6  0  0  0
 11 13  1  0  0  0  0
 13  8  1  1  0  0  0
 13 33  1  0  0  0  0
 14 46  1  0  0  0  0
 14 17  1  0  0  0  0
 14 25  1  6  0  0  0
 15 16  1  0  0  0  0
 15 29  1  0  0  0  0
 16 18  1  1  0  0  0
 16 21  1  0  0  0  0
 17 19  1  1  0  0  0
 17 20  1  0  0  0  0
 20 22  1  1  0  0  0
 20 24  1  0  0  0  0
 23 21  1  1  0  0  0
 23 26  1  0  0  0  0
 23 33  1  0  0  0  0
 24 25  1  6  0  0  0
 24 27  1  0  0  0  0
 26 29  1  1  0  0  0
 26 31  1  0  0  0  0
 27 28  1  0  0  0  0
 29 30  2  0  0  0  0
 31 32  1  0  0  0  0
 33 32  1  6  0  0  0
 34 36  1  0  0  0  0
 34 42  1  0  0  0  0
 36 37  1  1  0  0  0
 36 39  1  0  0  0  0
 40 39  1  1  0  0  0
 40 41  1  0  0  0  0
 40 46  1  0  0  0  0
 41 42  1  1  0  0  0
 41 44  1  0  0  0  0
 42 43  2  0  0  0  0
 44 45  1  0  0  0  0
 46 45  1  6  0  0  0
M  CHG  2   3  -1  35  -1
M  END
>  <CHROM.1>
-146.44473470,23.54835266,159.78099682,44.53756234,145.39974171,-1.39615353
-0.59603759,-2.03787131

>  <Name>
ligand

>  <RI>
0

>  <Rbt.Current_Directory>
/home/itssahil/PROJECTS/Mol_Feturizer/Test_systems_manuscript/rnas/4yb0

>  <Rbt.Executable>
rbdock ($Id: //depot/dev/client3/rdock/2013.1/src/exe/rbdock.cxx#4 $)

>  <Rbt.Library>
libRbt.so (2013.1, Build901 2013/11/27)

>  <Rbt.Parameter_File>
/export/apps/rDock/src/rDock_2013.1_src/data/scripts/dock_solv.prm

>  <Rbt.Receptor>
prm/pocket_docking_6.prm

>  <SCORE>
-22.6945

>  <SCORE.INTER>
-23.054

>  <SCORE.INTER.CONST>
1

>  <SCORE.INTER.POLAR>
0

>  <SCORE.INTER.ROT>
2

>  <SCORE.INTER.SOLV>
25.6429

>  <SCORE.INTER.VDW>
-28.8503

>  <SCORE.INTER.norm>
-0.501173

>  <SCORE.INTRA>
0.359456

>  <SCORE.INTRA.DIHEDRAL>
0.0293053

>  <SCORE.INTRA.DIHEDRAL.0>
2.42188

>  <SCORE.INTRA.POLAR>
0

>  <SCORE.INTRA.POLAR.0>
0

>  <SCORE.INTRA.REPUL>
0

>  <SCORE.INTRA.REPUL.0>
0

>  <SCORE.INTRA.SOLV>
0.462048

>  <SCORE.INTRA.SOLV.lig_0>
-127.307

>  <SCORE.INTRA.VDW>
0.113779

>  <SCORE.INTRA.VDW.0>
-2.19936

>  <SCORE.INTRA.norm>
0.00781425

>  <SCORE.RESTR>
0

>  <SCORE.RESTR.CAVITY>
0

>  <SCORE.RESTR.norm>
0

>  <SCORE.SYSTEM>
0

>  <SCORE.SYSTEM.CONST>
0

>  <SCORE.SYSTEM.DIHEDRAL>
0

>  <SCORE.SYSTEM.SOLV>
0

>  <SCORE.SYSTEM.norm>
0

>  <SCORE.heavy>
46

>  <SCORE.norm>
-0.493359

>  <RMSD>
3.924

$$$$
ligand
 OpenBabel02271912143D
libRbt.so/2013.1/901 2013/11/27
 46 52  0  0  0  0  0  0  0  0999 V2000
  157.6924   41.9879  148.1112 P   0  0  1  0  0  0  0  0  0  0  0  0
  160.9447   46.5220  146.9731 P   0  0  1  0  0  0  0  0  0  0  0  0
  156.7227   41.6004  147.0246 O   0  5  0  0  0  0  0  0  0  0  0  0
  157.8367   41.0249  149.2694 O   0  0  0  0  0  0  0  0  0  0  0  0
  160.3342   41.8753  148.0250 C   0  0  0  0  0  0  0  0  0  0  0  0
  159.1149   42.3005  147.4303 O   0  0  0  0  0  0  0  0  0  0  0  0
  161.5031   42.6245  147.4068 C   0  0  1  0  0  0  0  0  0  0  0  0
  162.1538   41.7496  146.4963 O   0  0  0  0  0  0  0  0  0  0  0  0
  161.1404   43.8729  146.6126 C   0  0  1  0  0  0  0  0  0  0  0  0
  161.4431   45.0306  147.3773 O   0  0  0  0  0  0  0  0  0  0  0  0
  162.0869   43.8279  145.4340 C   0  0  1  0  0  0  0  0  0  0  0  0
  163.2934   44.5203  145.7608 O   0  0  0  0  0  0  0  0  0  0  0  0
  162.4485   42.3814  145.2599 C   0  0  2  0  0  0  0  0  0  0  0  0
  155.5438   46.0798  146.8136 C   0  0  1  0  0  0  0  0  0  0  0  0
  159.0794   43.3008  141.3419 N   0  0  0  0  0  0  0  0  0  0  0  0
  159.7057   44.1612  142.1668 C   0  0  1  0  0  0  0  0  0  0  0  0
  155.7648   44.6103  147.1053 C   0  0  2  0  0  0  0  0  0  0  0  0
  159.4835   45.4870  142.0247 N   0  0  0  0  0  0  0  0  0  0  0  0
  154.7703   44.2061  148.0504 O   0  0  0  0  0  0  0  0  0  0  0  0
  157.1527   44.5247  147.7123 C   0  0  2  0  0  0  0  0  0  0  0  0
  160.5544   43.7739  143.1459 N   0  0  0  0  0  0  0  0  0  0  0  0
  157.2534   43.4460  148.6410 O   0  0  0  0  0  0  0  0  0  0  0  0
  160.8252   42.4675  143.3530 C   0  0  2  0  0  0  0  0  0  0  0  0
  157.2959   45.8863  148.3887 C   0  0  2  0  0  0  0  0  0  0  0  0
  156.4087   46.7796  147.7122 O   0  0  0  0  0  0  0  0  0  0  0  0
  160.1763   41.4738  142.4920 C   0  0  2  0  0  0  0  0  0  0  0  0
  158.7114   46.4719  148.3758 C   0  0  0  0  0  0  0  0  0  0  0  0
  159.3390   46.3955  147.0965 O   0  0  0  0  0  0  0  0  0  0  0  0
  159.2591   41.9724  141.4403 C   0  0  0  0  0  0  0  0  0  0  0  0
  158.6789   41.1669  140.6732 O   0  0  0  0  0  0  0  0  0  0  0  0
  160.6117   40.2732  142.9137 N   0  0  0  0  0  0  0  0  0  0  0  0
  161.4631   40.4751  143.9479 C   0  0  0  0  0  0  0  0  0  0  0  0
  161.5896   41.7881  144.2078 N   0  0  1  0  0  0  0  0  0  0  0  0
  158.3980   49.1332  143.6249 N   0  0  0  0  0  0  0  0  0  0  0  0
  161.4607   47.4461  148.0601 O   0  5  0  0  0  0  0  0  0  0  0  0
  158.2721   49.1642  144.9606 C   0  0  2  0  0  0  0  0  0  0  0  0
  158.9647   50.1015  145.6247 N   0  0  0  0  0  0  0  0  0  0  0  0
  161.2681   46.7759  145.5208 O   0  0  0  0  0  0  0  0  0  0  0  0
  157.4941   48.3050  145.6599 N   0  0  0  0  0  0  0  0  0  0  0  0
  156.7871   47.3458  145.0265 C   0  0  1  0  0  0  0  0  0  0  0  0
  156.8821   47.2596  143.5554 C   0  0  1  0  0  0  0  0  0  0  0  0
  157.7659   48.2351  142.8676 C   0  0  0  0  0  0  0  0  0  0  0  0
  157.9094   48.2486  141.6262 O   0  0  0  0  0  0  0  0  0  0  0  0
  156.0991   46.2340  143.1848 N   0  0  0  0  0  0  0  0  0  0  0  0
  155.5499   45.7180  144.3194 C   0  0  0  0  0  0  0  0  0  0  0  0
  155.9608   46.3773  145.4209 N   0  0  2  0  0  0  0  0  0  0  0  0
  1  3  1  6  0  0  0
  1  4  2  0  0  0  0
  1  6  1  0  0  0  0
  1 22  1  0  0  0  0
  2 28  1  0  0  0  0
  2 35  1  1  0  0  0
  2 38  2  0  0  0  0
  2 10  1  0  0  0  0
  5  6  1  0  0  0  0
  7  5  1  6  0  0  0
  7  8  1  0  0  0  0
  7  9  1  0  0  0  0
  9 10  1  1  0  0  0
  9 11  1  0  0  0  0
 11 12  1  1  0  0  0
 11 13  1  0  0  0  0
 13  8  1  1  0  0  0
 13 33  1  0  0  0  0
 14 46  1  0  0  0  0
 14 17  1  0  0  0  0
 14 25  1  1  0  0  0
 15 16  1  0  0  0  0
 15 29  1  0  0  0  0
 16 18  1  1  0  0  0
 16 21  1  0  0  0  0
 17 19  1  1  0  0  0
 17 20  1  0  0  0  0
 20 22  1  1  0  0  0
 20 24  1  0  0  0  0
 23 21  1  1  0  0  0
 23 26  1  0  0  0  0
 23 33  1  0  0  0  0
 24 25  1  6  0  0  0
 24 27  1  0  0  0  0
 26 29  1  1  0  0  0
 26 31  1  0  0  0  0
 27 28  1  0  0  0  0
 29 30  2  0  0  0  0
 31 32  1  0  0  0  0
 33 32  1  6  0  0  0
 34 36  1  0  0  0  0
 34 42  1  0  0  0  0
 36 37  1  1  0  0  0
 36 39  1  0  0  0  0
 40 39  1  1  0  0  0
 40 41  1  0  0  0  0
 40 46  1  0  0  0  0
 41 42  1  1  0  0  0
 41 44  1  0  0  0  0
 42 43  2  0  0  0  0
 44 45  1  0  0  0  0
 46 45  1  6  0  0  0
M  CHG  2   3  -1  35  -1
M  END
>  <CHROM.1>
128.57617526,-128.64041232,159.01255427,44.62736184,145.59009518,0.41492418
-1.01550404,2.16897154

>  <Name>
ligand

>  <RI>
0

>  <Rbt.Current_Directory>
/home/itssahil/PROJECTS/Mol_Feturizer/Test_systems_manuscript/rnas/4yb0

>  <Rbt.Executable>
rbdock ($Id: //depot/dev/client3/rdock/2013.1/src/exe/rbdock.cxx#4 $)

>  <Rbt.Library>
libRbt.so (2013.1, Build901 2013/11/27)

>  <Rbt.Parameter_File>
/export/apps/rDock/src/rDock_2013.1_src/data/scripts/dock_solv.prm

>  <Rbt.Receptor>
prm/pocket_docking_4.prm

>  <SCORE>
-20.9407

>  <SCORE.INTER>
-22.6689

>  <SCORE.INTER.CONST>
1

>  <SCORE.INTER.POLAR>
0

>  <SCORE.INTER.ROT>
2

>  <SCORE.INTER.SOLV>
21.9733

>  <SCORE.INTER.VDW>
-27.3703

>  <SCORE.INTER.norm>
-0.492802

>  <SCORE.INTRA>
1.72667

>  <SCORE.INTRA.DIHEDRAL>
-0.0438534

>  <SCORE.INTRA.DIHEDRAL.0>
2.42188

>  <SCORE.INTRA.POLAR>
0

>  <SCORE.INTRA.POLAR.0>
0

>  <SCORE.INTRA.REPUL>
0

>  <SCORE.INTRA.REPUL.0>
0

>  <SCORE.INTRA.SOLV>
5.05124

>  <SCORE.INTRA.SOLV.lig_0>
-127.307

>  <SCORE.INTRA.VDW>
-0.777021

>  <SCORE.INTRA.VDW.0>
-2.19936

>  <SCORE.INTRA.norm>
0.0375363

>  <SCORE.RESTR>
0.00149627

>  <SCORE.RESTR.CAVITY>
0.00149627

>  <SCORE.RESTR.norm>
3.25276e-05

>  <SCORE.SYSTEM>
0

>  <SCORE.SYSTEM.CONST>
0

>  <SCORE.SYSTEM.DIHEDRAL>
0

>  <SCORE.SYSTEM.SOLV>
0

>  <SCORE.SYSTEM.norm>
0

>  <SCORE.heavy>
46

>  <SCORE.norm>
-0.455233

>  <RMSD>
3.996

$$$$
ligand
 OpenBabel02271912143D
libRbt.so/2013.1/901 2013/11/27
 46 52  0  0  0  0  0  0  0  0999 V2000
  161.0657   46.4299  147.1081 P   0  0  1  0  0  0  0  0  0  0  0  0
  157.6501   41.9522  147.9534 P   0  0  1  0  0  0  0  0  0  0  0  0
  161.4835   46.6620  145.6789 O   0  5  0  0  0  0  0  0  0  0  0  0
  161.4222   47.5109  148.1052 O   0  0  0  0  0  0  0  0  0  0  0  0
  158.6352   46.6500  148.1297 C   0  0  0  0  0  0  0  0  0  0  0  0
  159.4896   46.1132  147.1282 O   0  0  0  0  0  0  0  0  0  0  0  0
  157.3166   45.8944  148.1478 C   0  0  1  0  0  0  0  0  0  0  0  0
  156.3394   46.7004  147.5050 O   0  0  0  0  0  0  0  0  0  0  0  0
  157.3128   44.5571  147.4182 C   0  0  1  0  0  0  0  0  0  0  0  0
  157.3653   43.4975  148.3621 O   0  0  0  0  0  0  0  0  0  0  0  0
  155.9564   44.5241  146.7502 C   0  0  1  0  0  0  0  0  0  0  0  0
  155.0034   43.9226  147.6288 O   0  0  0  0  0  0  0  0  0  0  0  0
  155.5510   45.9601  146.5857 C   0  0  2  0  0  0  0  0  0  0  0  0
  162.4751   42.1365  145.4883 C   0  0  1  0  0  0  0  0  0  0  0  0
  158.2697   49.3361  143.6263 N   0  0  0  0  0  0  0  0  0  0  0  0
  158.1902   49.2265  144.9659 C   0  0  1  0  0  0  0  0  0  0  0  0
  162.3940   43.6363  145.6814 C   0  0  2  0  0  0  0  0  0  0  0  0
  158.8936   50.0846  145.7381 N   0  0  0  0  0  0  0  0  0  0  0  0
  163.6939   44.0899  146.0692 O   0  0  0  0  0  0  0  0  0  0  0  0
  161.3931   43.8444  146.8025 C   0  0  2  0  0  0  0  0  0  0  0  0
  157.4355   48.2979  145.5960 N   0  0  0  0  0  0  0  0  0  0  0  0
  161.6917   45.0151  147.5617 O   0  0  0  0  0  0  0  0  0  0  0  0
  156.7018   47.4075  144.8947 C   0  0  2  0  0  0  0  0  0  0  0  0
  161.5534   42.5661  147.6224 C   0  0  2  0  0  0  0  0  0  0  0  0
  162.0736   41.5704  146.7387 O   0  0  0  0  0  0  0  0  0  0  0  0
  156.7393   47.4698  143.4302 C   0  0  2  0  0  0  0  0  0  0  0  0
  160.2671   42.0454  148.2711 C   0  0  0  0  0  0  0  0  0  0  0  0
  159.1569   42.0193  147.3749 O   0  0  0  0  0  0  0  0  0  0  0  0
  157.5888   48.5136  142.8099 C   0  0  0  0  0  0  0  0  0  0  0  0
  157.6608   48.6110  141.5612 O   0  0  0  0  0  0  0  0  0  0  0  0
  155.9276   46.4902  142.9940 N   0  0  0  0  0  0  0  0  0  0  0  0
  155.4170   45.8552  144.0762 C   0  0  0  0  0  0  0  0  0  0  0  0
  155.8824   46.4051  145.2113 N   0  0  1  0  0  0  0  0  0  0  0  0
  159.3375   43.6207  141.5399 N   0  0  0  0  0  0  0  0  0  0  0  0
  157.6451   41.1668  149.2515 O   0  5  0  0  0  0  0  0  0  0  0  0
  160.1481   44.3549  142.3175 C   0  0  2  0  0  0  0  0  0  0  0  0
  160.1975   45.6752  142.0853 N   0  0  0  0  0  0  0  0  0  0  0  0
  156.7434   41.5668  146.8099 O   0  0  0  0  0  0  0  0  0  0  0  0
  160.9100   43.8342  143.3078 N   0  0  0  0  0  0  0  0  0  0  0  0
  160.8904   42.5099  143.5669 C   0  0  1  0  0  0  0  0  0  0  0  0
  160.0173   41.6470  142.7463 C   0  0  1  0  0  0  0  0  0  0  0  0
  159.2220   42.2985  141.6746 C   0  0  0  0  0  0  0  0  0  0  0  0
  158.4495   41.6570  140.9304 O   0  0  0  0  0  0  0  0  0  0  0  0
  160.1878   40.3950  143.2001 N   0  0  0  0  0  0  0  0  0  0  0  0
  161.0851   40.4576  144.2229 C   0  0  0  0  0  0  0  0  0  0  0  0
  161.5089   41.7181  144.4426 N   0  0  2  0  0  0  0  0  0  0  0  0
  1  3  1  6  0  0  0
  1  4  2  0  0  0  0
  1  6  1  0  0  0  0
  1 22  1  0  0  0  0
  2 28  1  0  0  0  0
  2 35  1  1  0  0  0
  2 38  2  0  0  0  0
  2 10  1  0  0  0  0
  5  6  1  0  0  0  0
  7  5  1  6  0  0  0
  7  8  1  0  0  0  0
  7  9  1  0  0  0  0
  9 10  1  1  0  0  0
  9 11  1  0  0  0  0
 11 12  1  1  0  0  0
 11 13  1  0  0  0  0
 13  8  1  1  0  0  0
 13 33  1  0  0  0  0
 14 46  1  0  0  0  0
 14 17  1  0  0  0  0
 14 25  1  1  0  0  0
 15 16  1  0  0  0  0
 15 29  1  0  0  0  0
 16 18  1  1  0  0  0
 16 21  1  0  0  0  0
 17 19  1  1  0  0  0
 17 20  1  0  0  0  0
 20 22  1  1  0  0  0
 20 24  1  0  0  0  0
 23 21  1  1  0  0  0
 23 26  1  0  0  0  0
 23 33  1  0  0  0  0
 24 25  1  6  0  0  0
 24 27  1  0  0  0  0
 26 29  1  1  0  0  0
 26 31  1  0  0  0  0
 27 28  1  0  0  0  0
 29 30  2  0  0  0  0
 31 32  1  0  0  0  0
 33 32  1  6  0  0  0
 34 36  1  0  0  0  0
 34 42  1  0  0  0  0
 36 37  1  6  0  0  0
 36 39  1  0  0  0  0
 40 39  1  6  0  0  0
 40 41  1  0  0  0  0
 40 46  1  0  0  0  0
 41 42  1  6  0  0  0
 41 44  1  0  0  0  0
 42 43  2  0  0  0  0
 44 45  1  0  0  0  0
 46 45  1  1  0  0  0
M  CHG  2   3  -1  35  -1
M  END
>  <CHROM.1>
-5.03369726,15.20622595,159.04038146,44.64999021,145.60614183,2.52820490
0.94194050,-1.02480665

>  <Name>
ligand

>  <RI>
0

>  <Rbt.Current_Directory>
/home/itssahil/PROJECTS/Mol_Feturizer/Test_systems_manuscript/rnas/4yb0

>  <Rbt.Executable>
rbdock ($Id: //depot/dev/client3/rdock/2013.1/src/exe/rbdock.cxx#4 $)

>  <Rbt.Library>
libRbt.so (2013.1, Build901 2013/11/27)

>  <Rbt.Parameter_File>
/export/apps/rDock/src/rDock_2013.1_src/data/scripts/dock_solv.prm

>  <Rbt.Receptor>
prm/pocket_docking_4.prm

>  <SCORE>
-20.9355

>  <SCORE.INTER>
-21.9524

>  <SCORE.INTER.CONST>
1

>  <SCORE.INTER.POLAR>
0

>  <SCORE.INTER.ROT>
2

>  <SCORE.INTER.SOLV>
20.7838

>  <SCORE.INTER.VDW>
-26.4962

>  <SCORE.INTER.norm>
-0.477227

>  <SCORE.INTRA>
1.01035

>  <SCORE.INTRA.DIHEDRAL>
0.00652995

>  <SCORE.INTRA.DIHEDRAL.0>
2.42188

>  <SCORE.INTRA.POLAR>
0

>  <SCORE.INTRA.POLAR.0>
0

>  <SCORE.INTRA.REPUL>
0

>  <SCORE.INTRA.REPUL.0>
0

>  <SCORE.INTRA.SOLV>
2.92769

>  <SCORE.INTRA.SOLV.lig_0>
-127.307

>  <SCORE.INTRA.VDW>
-0.456759

>  <SCORE.INTRA.VDW.0>
-2.19936

>  <SCORE.INTRA.norm>
0.0219642

>  <SCORE.RESTR>
0.00658252

>  <SCORE.RESTR.CAVITY>
0.00658252

>  <SCORE.RESTR.norm>
0.000143098

>  <SCORE.SYSTEM>
0

>  <SCORE.SYSTEM.CONST>
0

>  <SCORE.SYSTEM.DIHEDRAL>
0

>  <SCORE.SYSTEM.SOLV>
0

>  <SCORE.SYSTEM.norm>
0

>  <SCORE.heavy>
46

>  <SCORE.norm>
-0.455119

>  <RMSD>
4.000

$$$$
ligand
 OpenBabel02271912143D
libRbt.so/2013.1/901 2013/11/27
 46 52  0  0  0  0  0  0  0  0999 V2000
  157.7146   41.9922  148.1245 P   0  0  1  0  0  0  0  0  0  0  0  0
  160.9628   46.5254  146.9714 P   0  0  1  0  0  0  0  0  0  0  0  0
  156.7412   41.6037  147.0415 O   0  5  0  0  0  0  0  0  0  0  0  0
  157.8629   41.0302  149.2830 O   0  0  0  0  0  0  0  0  0  0  0  0
  160.3561   41.8797  148.0293 C   0  0  0  0  0  0  0  0  0  0  0  0
  159.1348   42.3042  147.4384 O   0  0  0  0  0  0  0  0  0  0  0  0
  161.5229   42.6284  147.4065 C   0  0  1  0  0  0  0  0  0  0  0  0
  162.1704   41.7527  146.4945 O   0  0  0  0  0  0  0  0  0  0  0  0
  161.1574   43.8761  146.6125 C   0  0  1  0  0  0  0  0  0  0  0  0
  161.4627   45.0344  147.3752 O   0  0  0  0  0  0  0  0  0  0  0  0
  162.0998   43.8301  145.4306 C   0  0  1  0  0  0  0  0  0  0  0  0
  163.3075   44.5228  145.7528 O   0  0  0  0  0  0  0  0  0  0  0  0
  162.4609   42.3835  145.2566 C   0  0  2  0  0  0  0  0  0  0  0  0
  155.5614   46.0829  146.8308 C   0  0  1  0  0  0  0  0  0  0  0  0
  159.0924   43.3001  141.3374 N   0  0  0  0  0  0  0  0  0  0  0  0
  159.7233   44.1614  142.1578 C   0  0  1  0  0  0  0  0  0  0  0  0
  155.7835   44.6136  147.1229 C   0  0  2  0  0  0  0  0  0  0  0  0
  159.5067   45.4875  142.0100 N   0  0  0  0  0  0  0  0  0  0  0  0
  154.7922   44.2102  148.0718 O   0  0  0  0  0  0  0  0  0  0  0  0
  157.1735   44.5286  147.7253 C   0  0  2  0  0  0  0  0  0  0  0  0
  160.5710   43.7748  143.1380 N   0  0  0  0  0  0  0  0  0  0  0  0
  157.2774   43.4507  148.6545 O   0  0  0  0  0  0  0  0  0  0  0  0
  160.8363   42.4682  143.3507 C   0  0  2  0  0  0  0  0  0  0  0  0
  157.3189   45.8908  148.4001 C   0  0  2  0  0  0  0  0  0  0  0  0
  156.4293   46.7835  147.7258 O   0  0  0  0  0  0  0  0  0  0  0  0
  160.1822   41.4735  142.4948 C   0  0  2  0  0  0  0  0  0  0  0  0
  158.7343   46.4764  148.3818 C   0  0  0  0  0  0  0  0  0  0  0  0
  159.3576   46.3990  147.1004 O   0  0  0  0  0  0  0  0  0  0  0  0
  159.2662   41.9714  141.4417 C   0  0  0  0  0  0  0  0  0  0  0  0
  158.6818   41.1650  140.6787 O   0  0  0  0  0  0  0  0  0  0  0  0
  160.6126   40.2729  142.9216 N   0  0  0  0  0  0  0  0  0  0  0  0
  161.4658   40.4757  143.9541 C   0  0  0  0  0  0  0  0  0  0  0  0
  161.5984   41.7892  144.2079 N   0  0  1  0  0  0  0  0  0  0  0  0
  158.4170   49.1237  143.6313 N   0  0  0  0  0  0  0  0  0  0  0  0
  161.4825   47.4505  148.0559 O   0  5  0  0  0  0  0  0  0  0  0  0
  158.2973   49.1544  144.9676 C   0  0  2  0  0  0  0  0  0  0  0  0
  158.9978   50.0876  145.6292 N   0  0  0  0  0  0  0  0  0  0  0  0
  161.2812   46.7782  145.5178 O   0  0  0  0  0  0  0  0  0  0  0  0
  157.5181   48.2988  145.6697 N   0  0  0  0  0  0  0  0  0  0  0  0
  156.8032   47.3437  145.0389 C   0  0  1  0  0  0  0  0  0  0  0  0
  156.8910   47.2581  143.5673 C   0  0  1  0  0  0  0  0  0  0  0  0
  157.7768   48.2295  142.8763 C   0  0  0  0  0  0  0  0  0  0  0  0
  157.9148   48.2432  141.6342 O   0  0  0  0  0  0  0  0  0  0  0  0
  156.1010   46.2369  143.1996 N   0  0  0  0  0  0  0  0  0  0  0  0
  155.5543   45.7229  144.3363 C   0  0  0  0  0  0  0  0  0  0  0  0
  155.9736   46.3792  145.4363 N   0  0  2  0  0  0  0  0  0  0  0  0
  1  3  1  6  0  0  0
  1  4  2  0  0  0  0
  1  6  1  0  0  0  0
  1 22  1  0  0  0  0
  2 28  1  0  0  0  0
  2 35  1  1  0  0  0
  2 38  2  0  0  0  0
  2 10  1  0  0  0  0
  5  6  1  0  0  0  0
  7  5  1  6  0  0  0
  7  8  1  0  0  0  0
  7  9  1  0  0  0  0
  9 10  1  1  0  0  0
  9 11  1  0  0  0  0
 11 12  1  1  0  0  0
 11 13  1  0  0  0  0
 13  8  1  1  0  0  0
 13 33  1  0  0  0  0
 14 46  1  0  0  0  0
 14 17  1  0  0  0  0
 14 25  1  1  0  0  0
 15 16  1  0  0  0  0
 15 29  1  0  0  0  0
 16 18  1  1  0  0  0
 16 21  1  0  0  0  0
 17 19  1  1  0  0  0
 17 20  1  0  0  0  0
 20 22  1  1  0  0  0
 20 24  1  0  0  0  0
 23 21  1  1  0  0  0
 23 26  1  0  0  0  0
 23 33  1  0  0  0  0
 24 25  1  6  0  0  0
 24 27  1  0  0  0  0
 26 29  1  1  0  0  0
 26 31  1  0  0  0  0
 27 28  1  0  0  0  0
 29 30  2  0  0  0  0
 31 32  1  0  0  0  0
 33 32  1  6  0  0  0
 34 36  1  0  0  0  0
 34 42  1  0  0  0  0
 36 37  1  1  0  0  0
 36 39  1  0  0  0  0
 40 39  1  1  0  0  0
 40 41  1  0  0  0  0
 40 46  1  0  0  0  0
 41 42  1  1  0  0  0
 41 44  1  0  0  0  0
 42 43  2  0  0  0  0
 44 45  1  0  0  0  0
 46 45  1  6  0  0  0
M  CHG  2   3  -1  35  -1
M  END
>  <CHROM.1>
128.93801544,-128.31954642,159.02889915,44.62854315,145.59549369,0.40752518
-1.01694068,2.16661041

>  <Name>
ligand

>  <RI>
0

>  <Rbt.Current_Directory>
/home/itssahil/PROJECTS/Mol_Feturizer/Test_systems_manuscript/rnas/4yb0

>  <Rbt.Executable>
rbdock ($Id: //depot/dev/client3/rdock/2013.1/src/exe/rbdock.cxx#4 $)

>  <Rbt.Library>
libRbt.so (2013.1, Build901 2013/11/27)

>  <Rbt.Parameter_File>
/export/apps/rDock/src/rDock_2013.1_src/data/scripts/dock_solv.prm

>  <Rbt.Receptor>
prm/pocket_docking_4.prm

>  <SCORE>
-20.939

>  <SCORE.INTER>
-22.6733

>  <SCORE.INTER.CONST>
1

>  <SCORE.INTER.POLAR>
0

>  <SCORE.INTER.ROT>
2

>  <SCORE.INTER.SOLV>
21.7772

>  <SCORE.INTER.VDW>
-27.3079

>  <SCORE.INTER.norm>
-0.492897

>  <SCORE.INTRA>
1.73426

>  <SCORE.INTRA.DIHEDRAL>
-0.0437847

>  <SCORE.INTRA.DIHEDRAL.0>
2.42188

>  <SCORE.INTRA.POLAR>
0

>  <SCORE.INTRA.POLAR.0>
0

>  <SCORE.INTRA.REPUL>
0

>  <SCORE.INTRA.REPUL.0>
0

>  <SCORE.INTRA.SOLV>
5.13399

>  <SCORE.INTRA.SOLV.lig_0>
-127.307

>  <SCORE.INTRA.VDW>
-0.810846

>  <SCORE.INTRA.VDW.0>
-2.19936

>  <SCORE.INTRA.norm>
0.0377012

>  <SCORE.RESTR>
0

>  <SCORE.RESTR.CAVITY>
0

>  <SCORE.RESTR.norm>
0

>  <SCORE.SYSTEM>
0

>  <SCORE.SYSTEM.CONST>
0

>  <SCORE.SYSTEM.DIHEDRAL>
0

>  <SCORE.SYSTEM.SOLV>
0

>  <SCORE.SYSTEM.norm>
0

>  <SCORE.heavy>
46

>  <SCORE.norm>
-0.455196

>  <RMSD>
4.001

$$$$
ligand
 OpenBabel02271912143D
libRbt.so/2013.1/901 2013/11/27
 46 52  0  0  0  0  0  0  0  0999 V2000
  161.0679   46.4203  147.1125 P   0  0  1  0  0  0  0  0  0  0  0  0
  157.6472   41.9461  147.9557 P   0  0  1  0  0  0  0  0  0  0  0  0
  161.4878   46.6512  145.6837 O   0  5  0  0  0  0  0  0  0  0  0  0
  161.4240   47.5016  148.1093 O   0  0  0  0  0  0  0  0  0  0  0  0
  158.6361   46.6431  148.1304 C   0  0  0  0  0  0  0  0  0  0  0  0
  159.4914   46.1050  147.1305 O   0  0  0  0  0  0  0  0  0  0  0  0
  157.3169   45.8888  148.1472 C   0  0  1  0  0  0  0  0  0  0  0  0
  156.3412   46.6952  147.5025 O   0  0  0  0  0  0  0  0  0  0  0  0
  157.3128   44.5510  147.4184 C   0  0  1  0  0  0  0  0  0  0  0  0
  157.3631   43.4919  148.3630 O   0  0  0  0  0  0  0  0  0  0  0  0
  155.9574   44.5188  146.7485 C   0  0  1  0  0  0  0  0  0  0  0  0
  155.0026   43.9186  147.6261 O   0  0  0  0  0  0  0  0  0  0  0  0
  155.5535   45.9550  146.5825 C   0  0  2  0  0  0  0  0  0  0  0  0
  162.4758   42.1246  145.4972 C   0  0  1  0  0  0  0  0  0  0  0  0
  158.2615   49.3415  143.6253 N   0  0  0  0  0  0  0  0  0  0  0  0
  158.1777   49.2345  144.9649 C   0  0  1  0  0  0  0  0  0  0  0  0
  162.3957   43.6247  145.6893 C   0  0  2  0  0  0  0  0  0  0  0  0
  158.8725   50.0990  145.7376 N   0  0  0  0  0  0  0  0  0  0  0  0
  163.6955   44.0773  146.0786 O   0  0  0  0  0  0  0  0  0  0  0  0
  161.3934   43.8343  146.8089 C   0  0  2  0  0  0  0  0  0  0  0  0
  157.4266   48.3026  145.5944 N   0  0  0  0  0  0  0  0  0  0  0  0
  161.6920   45.0053  147.5677 O   0  0  0  0  0  0  0  0  0  0  0  0
  156.7013   47.4059  144.8924 C   0  0  2  0  0  0  0  0  0  0  0  0
  161.5515   42.5564  147.6298 C   0  0  2  0  0  0  0  0  0  0  0  0
  162.0720   41.5597  146.7474 O   0  0  0  0  0  0  0  0  0  0  0  0
  156.7440   47.4648  143.4280 C   0  0  2  0  0  0  0  0  0  0  0  0
  160.2637   42.0372  148.2770 C   0  0  0  0  0  0  0  0  0  0  0  0
  159.1548   42.0116  147.3793 O   0  0  0  0  0  0  0  0  0  0  0  0
  157.5891   48.5127  142.8084 C   0  0  0  0  0  0  0  0  0  0  0  0
  157.6652   48.6075  141.5597 O   0  0  0  0  0  0  0  0  0  0  0  0
  155.9402   46.4790  142.9910 N   0  0  0  0  0  0  0  0  0  0  0  0
  155.4297   45.8433  144.0728 C   0  0  0  0  0  0  0  0  0  0  0  0
  155.8872   46.3989  145.2083 N   0  0  1  0  0  0  0  0  0  0  0  0
  159.3372   43.6105  141.5502 N   0  0  0  0  0  0  0  0  0  0  0  0
  157.6396   41.1616  149.2542 O   0  5  0  0  0  0  0  0  0  0  0  0
  160.1463   44.3447  142.3294 C   0  0  2  0  0  0  0  0  0  0  0  0
  160.1936   45.6654  142.0995 N   0  0  0  0  0  0  0  0  0  0  0  0
  156.7417   41.5608  146.8112 O   0  0  0  0  0  0  0  0  0  0  0  0
  160.9087   43.8236  143.3190 N   0  0  0  0  0  0  0  0  0  0  0  0
  160.8912   42.4988  143.5759 C   0  0  1  0  0  0  0  0  0  0  0  0
  160.0198   41.6358  142.7535 C   0  0  1  0  0  0  0  0  0  0  0  0
  159.2238   42.2879  141.6825 C   0  0  0  0  0  0  0  0  0  0  0  0
  158.4527   41.6464  140.9370 O   0  0  0  0  0  0  0  0  0  0  0  0
  160.1922   40.3834  143.2051 N   0  0  0  0  0  0  0  0  0  0  0  0
  161.0890   40.4457  144.2283 C   0  0  0  0  0  0  0  0  0  0  0  0
  161.5106   41.7064  144.4505 N   0  0  2  0  0  0  0  0  0  0  0  0
  1  3  1  6  0  0  0
  1  4  2  0  0  0  0
  1  6  1  0  0  0  0
  1 22  1  0  0  0  0
  2 28  1  0  0  0  0
  2 35  1  1  0  0  0
  2 38  2  0  0  0  0
  2 10  1  0  0  0  0
  5  6  1  0  0  0  0
  7  5  1  6  0  0  0
  7  8  1  0  0  0  0
  7  9  1  0  0  0  0
  9 10  1  1  0  0  0
  9 11  1  0  0  0  0
 11 12  1  1  0  0  0
 11 13  1  0  0  0  0
 13  8  1  1  0  0  0
 13 33  1  0  0  0  0
 14 46  1  0  0  0  0
 14 17  1  0  0  0  0
 14 25  1  1  0  0  0
 15 16  1  0  0  0  0
 15 29  1  0  0  0  0
 16 18  1  1  0  0  0
 16 21  1  0  0  0  0
 17 19  1  1  0  0  0
 17 20  1  0  0  0  0
 20 22  1  1  0  0  0
 20 24  1  0  0  0  0
 23 21  1  1  0  0  0
 23 26  1  0  0  0  0
 23 33  1  0  0  0  0
 24 25  1  6  0  0  0
 24 27  1  0  0  0  0
 26 29  1  1  0  0  0
 26 31  1  0  0  0  0
 27 28  1  0  0  0  0
 29 30  2  0  0  0  0
 31 32  1  0  0  0  0
 33 32  1  6  0  0  0
 34 36  1  0  0  0  0
 34 42  1  0  0  0  0
 36 37  1  6  0  0  0
 36 39  1  0  0  0  0
 40 39  1  6  0  0  0
 40 41  1  0  0  0  0
 40 46  1  0  0  0  0
 41 42  1  6  0  0  0
 41 44  1  0  0  0  0
 42 43  2  0  0  0  0
 44 45  1  0  0  0  0
 46 45  1  1  0  0  0
M  CHG  2   3  -1  35  -1
M  END
>  <CHROM.1>
-5.48749203,14.99913321,159.04030953,44.64298516,145.60947918,2.52752134
0.94311847,-1.02603858

>  <Name>
ligand

>  <RI>
0

>  <Rbt.Current_Directory>
/home/itssahil/PROJECTS/Mol_Feturizer/Test_systems_manuscript/rnas/4yb0

>  <Rbt.Executable>
rbdock ($Id: //depot/dev/client3/rdock/2013.1/src/exe/rbdock.cxx#4 $)

>  <Rbt.Library>
libRbt.so (2013.1, Build901 2013/11/27)

>  <Rbt.Parameter_File>
/export/apps/rDock/src/rDock_2013.1_src/data/scripts/dock_solv.prm

>  <Rbt.Receptor>
prm/pocket_docking_4.prm

>  <SCORE>
-20.9429

>  <SCORE.INTER>
-21.9072

>  <SCORE.INTER.CONST>
1

>  <SCORE.INTER.POLAR>
0

>  <SCORE.INTER.ROT>
2

>  <SCORE.INTER.SOLV>
20.831

>  <SCORE.INTER.VDW>
-26.4818

>  <SCORE.INTER.norm>
-0.476243

>  <SCORE.INTRA>
0.961039

>  <SCORE.INTRA.DIHEDRAL>
0.00682735

>  <SCORE.INTRA.DIHEDRAL.0>
2.42188

>  <SCORE.INTRA.POLAR>
0

>  <SCORE.INTRA.POLAR.0>
0

>  <SCORE.INTRA.REPUL>
0

>  <SCORE.INTRA.REPUL.0>
0

>  <SCORE.INTRA.SOLV>
2.75266

>  <SCORE.INTRA.SOLV.lig_0>
-127.307

>  <SCORE.INTRA.VDW>
-0.418705

>  <SCORE.INTRA.VDW.0>
-2.19936

>  <SCORE.INTRA.norm>
0.0208922

>  <SCORE.RESTR>
0.00326193

>  <SCORE.RESTR.CAVITY>
0.00326193

>  <SCORE.RESTR.norm>
7.09116e-05

>  <SCORE.SYSTEM>
0

>  <SCORE.SYSTEM.CONST>
0

>  <SCORE.SYSTEM.DIHEDRAL>
0

>  <SCORE.SYSTEM.SOLV>
0

>  <SCORE.SYSTEM.norm>
0

>  <SCORE.heavy>
46

>  <SCORE.norm>
-0.455279

>  <RMSD>
4.001

$$$$
ligand
 OpenBabel02271912143D
libRbt.so/2013.1/901 2013/11/27
 46 52  0  0  0  0  0  0  0  0999 V2000
  160.9361   46.5093  147.3227 P   0  0  1  0  0  0  0  0  0  0  0  0
  157.5993   41.9422  147.9842 P   0  0  1  0  0  0  0  0  0  0  0  0
  161.3728   46.7898  145.9079 O   0  5  0  0  0  0  0  0  0  0  0  0
  161.2538   47.5686  148.3554 O   0  0  0  0  0  0  0  0  0  0  0  0
  158.4849   46.6518  148.3079 C   0  0  0  0  0  0  0  0  0  0  0  0
  159.3667   46.1606  147.3067 O   0  0  0  0  0  0  0  0  0  0  0  0
  157.1820   45.8699  148.2824 C   0  0  1  0  0  0  0  0  0  0  0  0
  156.1993   46.6739  147.6455 O   0  0  0  0  0  0  0  0  0  0  0  0
  157.2176   44.5538  147.5159 C   0  0  1  0  0  0  0  0  0  0  0  0
  157.2761   43.4693  148.4307 O   0  0  0  0  0  0  0  0  0  0  0  0
  155.8736   44.5126  146.8240 C   0  0  1  0  0  0  0  0  0  0  0  0
  154.9186   43.8676  147.6689 O   0  0  0  0  0  0  0  0  0  0  0  0
  155.4416   45.9442  146.6925 C   0  0  2  0  0  0  0  0  0  0  0  0
  162.4598   42.2921  145.6086 C   0  0  1  0  0  0  0  0  0  0  0  0
  157.8912   49.6344  143.8767 N   0  0  0  0  0  0  0  0  0  0  0  0
  157.7586   49.5070  145.2105 C   0  0  1  0  0  0  0  0  0  0  0  0
  162.3449   43.7841  145.8419 C   0  0  2  0  0  0  0  0  0  0  0  0
  158.3177   50.4359  146.0179 N   0  0  0  0  0  0  0  0  0  0  0  0
  163.6286   44.2524  146.2645 O   0  0  0  0  0  0  0  0  0  0  0  0
  161.3214   43.9404  146.9509 C   0  0  2  0  0  0  0  0  0  0  0  0
  157.0871   48.4925  145.8010 N   0  0  0  0  0  0  0  0  0  0  0  0
  161.5833   45.0951  147.7474 O   0  0  0  0  0  0  0  0  0  0  0  0
  156.4982   47.5275  145.0628 C   0  0  2  0  0  0  0  0  0  0  0  0
  161.4942   42.6430  147.7376 C   0  0  2  0  0  0  0  0  0  0  0  0
  162.0492   41.6832  146.8357 O   0  0  0  0  0  0  0  0  0  0  0  0
  156.6009   47.6038  143.6022 C   0  0  2  0  0  0  0  0  0  0  0  0
  160.2081   42.0786  148.3493 C   0  0  0  0  0  0  0  0  0  0  0  0
  159.1137   42.0556  147.4338 O   0  0  0  0  0  0  0  0  0  0  0  0
  157.3525   48.7438  143.0264 C   0  0  0  0  0  0  0  0  0  0  0  0
  157.4746   48.8574  141.7829 O   0  0  0  0  0  0  0  0  0  0  0  0
  155.9317   46.5393  143.1247 N   0  0  0  0  0  0  0  0  0  0  0  0
  155.4457   45.8417  144.1793 C   0  0  0  0  0  0  0  0  0  0  0  0
  155.7867   46.4342  145.3369 N   0  0  1  0  0  0  0  0  0  0  0  0
  159.4187   43.8157  141.6001 N   0  0  0  0  0  0  0  0  0  0  0  0
  157.5887   41.1206  149.2596 O   0  5  0  0  0  0  0  0  0  0  0  0
  160.2093   44.5423  142.4050 C   0  0  2  0  0  0  0  0  0  0  0  0
  160.2633   45.8649  142.1880 N   0  0  0  0  0  0  0  0  0  0  0  0
  156.7198   41.5710  146.8150 O   0  0  0  0  0  0  0  0  0  0  0  0
  160.9472   44.0117  143.4082 N   0  0  0  0  0  0  0  0  0  0  0  0
  160.9224   42.6847  143.6529 C   0  0  1  0  0  0  0  0  0  0  0  0
  160.0704   41.8299  142.8022 C   0  0  1  0  0  0  0  0  0  0  0  0
  159.3011   42.4921  141.7181 C   0  0  0  0  0  0  0  0  0  0  0  0
  158.5477   41.8579  140.9485 O   0  0  0  0  0  0  0  0  0  0  0  0
  160.2309   40.5733  143.2468 N   0  0  0  0  0  0  0  0  0  0  0  0
  161.1028   40.6258  144.2919 C   0  0  0  0  0  0  0  0  0  0  0  0
  161.5199   41.8841  144.5352 N   0  0  2  0  0  0  0  0  0  0  0  0
  1  3  1  6  0  0  0
  1  4  2  0  0  0  0
  1  6  1  0  0  0  0
  1 22  1  0  0  0  0
  2 28  1  0  0  0  0
  2 35  1  1  0  0  0
  2 38  2  0  0  0  0
  2 10  1  0  0  0  0
  5  6  1  0  0  0  0
  7  5  1  6  0  0  0
  7  8  1  0  0  0  0
  7  9  1  0  0  0  0
  9 10  1  1  0  0  0
  9 11  1  0  0  0  0
 11 12  1  1  0  0  0
 11 13  1  0  0  0  0
 13  8  1  1  0  0  0
 13 33  1  0  0  0  0
 14 46  1  0  0  0  0
 14 17  1  0  0  0  0
 14 25  1  1  0  0  0
 15 16  1  0  0  0  0
 15 29  1  0  0  0  0
 16 18  1  6  0  0  0
 16 21  1  0  0  0  0
 17 19  1  1  0  0  0
 17 20  1  0  0  0  0
 20 22  1  1  0  0  0
 20 24  1  0  0  0  0
 23 21  1  6  0  0  0
 23 26  1  0  0  0  0
 23 33  1  0  0  0  0
 24 25  1  6  0  0  0
 24 27  1  0  0  0  0
 26 29  1  6  0  0  0
 26 31  1  0  0  0  0
 27 28  1  0  0  0  0
 29 30  2  0  0  0  0
 31 32  1  0  0  0  0
 33 32  1  1  0  0  0
 34 36  1  0  0  0  0
 34 42  1  0  0  0  0
 36 37  1  6  0  0  0
 36 39  1  0  0  0  0
 40 39  1  6  0  0  0
 40 41  1  0  0  0  0
 40 46  1  0  0  0  0
 41 42  1  6  0  0  0
 41 44  1  0  0  0  0
 42 43  2  0  0  0  0
 44 45  1  0  0  0  0
 46 45  1  1  0  0  0
M  CHG  2   3  -1  35  -1
M  END
>  <CHROM.1>
-11.05165909,16.76784467,158.95247910,44.75078589,145.73189868,2.54734306
0.92019031,-1.00934077

>  <Name>
ligand

>  <RI>
0

>  <Rbt.Current_Directory>
/home/itssahil/PROJECTS/Mol_Feturizer/Test_systems_manuscript/rnas/4yb0

>  <Rbt.Executable>
rbdock ($Id: //depot/dev/client3/rdock/2013.1/src/exe/rbdock.cxx#4 $)

>  <Rbt.Library>
libRbt.so (2013.1, Build901 2013/11/27)

>  <Rbt.Parameter_File>
/export/apps/rDock/src/rDock_2013.1_src/data/scripts/dock_solv.prm

>  <Rbt.Receptor>
prm/pocket_docking_5.prm

>  <SCORE>
-21.4194

>  <SCORE.INTER>
-22.1137

>  <SCORE.INTER.CONST>
1

>  <SCORE.INTER.POLAR>
0

>  <SCORE.INTER.ROT>
2

>  <SCORE.INTER.SOLV>
19.8782

>  <SCORE.INTER.VDW>
-26.3019

>  <SCORE.INTER.norm>
-0.480733

>  <SCORE.INTRA>
0.69435

>  <SCORE.INTRA.DIHEDRAL>
0.0146268

>  <SCORE.INTRA.DIHEDRAL.0>
2.42188

>  <SCORE.INTRA.POLAR>
0

>  <SCORE.INTRA.POLAR.0>
0

>  <SCORE.INTRA.REPUL>
0

>  <SCORE.INTRA.REPUL.0>
0

>  <SCORE.INTRA.SOLV>
1.46528

>  <SCORE.INTRA.SOLV.lig_0>
-127.307

>  <SCORE.INTRA.VDW>
-0.0456061

>  <SCORE.INTRA.VDW.0>
-2.19936

>  <SCORE.INTRA.norm>
0.0150946

>  <SCORE.RESTR>
0

>  <SCORE.RESTR.CAVITY>
0

>  <SCORE.RESTR.norm>
0

>  <SCORE.SYSTEM>
0

>  <SCORE.SYSTEM.CONST>
0

>  <SCORE.SYSTEM.DIHEDRAL>
0

>  <SCORE.SYSTEM.SOLV>
0

>  <SCORE.SYSTEM.norm>
0

>  <SCORE.heavy>
46

>  <SCORE.norm>
-0.465639

>  <RMSD>
4.047

$$$$
ligand
 OpenBabel02271912143D
libRbt.so/2013.1/901 2013/11/27
 46 52  0  0  0  0  0  0  0  0999 V2000
  160.9956   46.4183  147.3550 P   0  0  1  0  0  0  0  0  0  0  0  0
  157.5856   41.8987  147.9683 P   0  0  1  0  0  0  0  0  0  0  0  0
  161.4411   46.7036  145.9439 O   0  5  0  0  0  0  0  0  0  0  0  0
  161.3265   47.4639  148.3975 O   0  0  0  0  0  0  0  0  0  0  0  0
  158.5438   46.5910  148.3340 C   0  0  0  0  0  0  0  0  0  0  0  0
  159.4209   46.0944  147.3314 O   0  0  0  0  0  0  0  0  0  0  0  0
  157.2289   45.8298  148.2980 C   0  0  1  0  0  0  0  0  0  0  0  0
  156.2609   46.6545  147.6648 O   0  0  0  0  0  0  0  0  0  0  0  0
  157.2464   44.5198  147.5206 C   0  0  1  0  0  0  0  0  0  0  0  0
  157.2850   43.4270  148.4266 O   0  0  0  0  0  0  0  0  0  0  0  0
  155.9040   44.5054  146.8243 C   0  0  1  0  0  0  0  0  0  0  0  0
  154.9364   43.8684  147.6610 O   0  0  0  0  0  0  0  0  0  0  0  0
  155.4950   45.9446  146.7035 C   0  0  2  0  0  0  0  0  0  0  0  0
  162.4586   42.1921  145.6105 C   0  0  1  0  0  0  0  0  0  0  0  0
  157.8791   49.7030  143.9219 N   0  0  0  0  0  0  0  0  0  0  0  0
  157.7228   49.5767  145.2533 C   0  0  1  0  0  0  0  0  0  0  0  0
  162.3662   43.6837  145.8558 C   0  0  2  0  0  0  0  0  0  0  0  0
  158.2337   50.5270  146.0677 N   0  0  0  0  0  0  0  0  0  0  0  0
  163.6558   44.1283  146.2862 O   0  0  0  0  0  0  0  0  0  0  0  0
  161.3418   43.8468  146.9631 C   0  0  2  0  0  0  0  0  0  0  0  0
  157.0732   48.5427  145.8345 N   0  0  0  0  0  0  0  0  0  0  0  0
  161.6192   44.9906  147.7699 O   0  0  0  0  0  0  0  0  0  0  0  0
  156.5323   47.5557  145.0887 C   0  0  2  0  0  0  0  0  0  0  0  0
  161.4917   42.5404  147.7394 C   0  0  2  0  0  0  0  0  0  0  0  0
  162.0346   41.5795  146.8312 O   0  0  0  0  0  0  0  0  0  0  0  0
  156.6631   47.6294  143.6302 C   0  0  2  0  0  0  0  0  0  0  0  0
  160.1951   41.9912  148.3425 C   0  0  0  0  0  0  0  0  0  0  0  0
  159.1034   41.9930  147.4235 O   0  0  0  0  0  0  0  0  0  0  0  0
  157.3883   48.7915  143.0648 C   0  0  0  0  0  0  0  0  0  0  0  0
  157.5326   48.9041  141.8236 O   0  0  0  0  0  0  0  0  0  0  0  0
  156.0399   46.5413  143.1439 N   0  0  0  0  0  0  0  0  0  0  0  0
  155.5552   45.8321  144.1915 C   0  0  0  0  0  0  0  0  0  0  0  0
  155.8520   46.4404  145.3531 N   0  0  1  0  0  0  0  0  0  0  0  0
  159.4153   43.8023  141.6377 N   0  0  0  0  0  0  0  0  0  0  0  0
  157.5582   41.0669  149.2368 O   0  5  0  0  0  0  0  0  0  0  0  0
  160.2092   44.5107  142.4553 C   0  0  2  0  0  0  0  0  0  0  0  0
  160.2665   45.8372  142.2641 N   0  0  0  0  0  0  0  0  0  0  0  0
  156.7041   41.5511  146.7934 O   0  0  0  0  0  0  0  0  0  0  0  0
  160.9472   43.9586  143.4467 N   0  0  0  0  0  0  0  0  0  0  0  0
  160.9191   42.6272  143.6655 C   0  0  1  0  0  0  0  0  0  0  0  0
  160.0633   41.7915  142.7995 C   0  0  1  0  0  0  0  0  0  0  0  0
  159.2941   42.4769  141.7299 C   0  0  0  0  0  0  0  0  0  0  0  0
  158.5377   41.8600  140.9493 O   0  0  0  0  0  0  0  0  0  0  0  0
  160.2210   40.5261  143.2192 N   0  0  0  0  0  0  0  0  0  0  0  0
  161.0947   40.5556  144.2637 C   0  0  0  0  0  0  0  0  0  0  0  0
  161.5158   41.8078  144.5309 N   0  0  2  0  0  0  0  0  0  0  0  0
  1  3  1  6  0  0  0
  1  4  2  0  0  0  0
  1  6  1  0  0  0  0
  1 22  1  0  0  0  0
  2 28  1  0  0  0  0
  2 35  1  1  0  0  0
  2 38  2  0  0  0  0
  2 10  1  0  0  0  0
  5  6  1  0  0  0  0
  7  5  1  6  0  0  0
  7  8  1  0  0  0  0
  7  9  1  0  0  0  0
  9 10  1  1  0  0  0
  9 11  1  0  0  0  0
 11 12  1  1  0  0  0
 11 13  1  0  0  0  0
 13  8  1  1  0  0  0
 13 33  1  0  0  0  0
 14 46  1  0  0  0  0
 14 17  1  0  0  0  0
 14 25  1  1  0  0  0
 15 16  1  0  0  0  0
 15 29  1  0  0  0  0
 16 18  1  6  0  0  0
 16 21  1  0  0  0  0
 17 19  1  1  0  0  0
 17 20  1  0  0  0  0
 20 22  1  1  0  0  0
 20 24  1  0  0  0  0
 23 21  1  6  0  0  0
 23 26  1  0  0  0  0
 23 33  1  0  0  0  0
 24 25  1  6  0  0  0
 24 27  1  0  0  0  0
 26 29  1  6  0  0  0
 26 31  1  0  0  0  0
 27 28  1  0  0  0  0
 29 30  2  0  0  0  0
 31 32  1  0  0  0  0
 33 32  1  1  0  0  0
 34 36  1  0  0  0  0
 34 42  1  0  0  0  0
 36 37  1  6  0  0  0
 36 39  1  0  0  0  0
 40 39  1  6  0  0  0
 40 41  1  0  0  0  0
 40 46  1  0  0  0  0
 41 42  1  6  0  0  0
 41 44  1  0  0  0  0
 42 43  2  0  0  0  0
 44 45  1  0  0  0  0
 46 45  1  1  0  0  0
M  CHG  2   3  -1  35  -1
M  END
>  <CHROM.1>
-14.12508848,15.75119187,158.97114079,44.71411221,145.74669817,2.54478456
0.93562772,-1.00672279

>  <Name>
ligand

>  <RI>
0

>  <Rbt.Current_Directory>
/home/itssahil/PROJECTS/Mol_Feturizer/Test_systems_manuscript/rnas/4yb0

>  <Rbt.Executable>
rbdock ($Id: //depot/dev/client3/rdock/2013.1/src/exe/rbdock.cxx#4 $)

>  <Rbt.Library>
libRbt.so (2013.1, Build901 2013/11/27)

>  <Rbt.Parameter_File>
/export/apps/rDock/src/rDock_2013.1_src/data/scripts/dock_solv.prm

>  <Rbt.Receptor>
prm/pocket_docking_5.prm

>  <SCORE>
-21.5094

>  <SCORE.INTER>
-22.2678

>  <SCORE.INTER.CONST>
1

>  <SCORE.INTER.POLAR>
0

>  <SCORE.INTER.ROT>
2

>  <SCORE.INTER.SOLV>
20.0292

>  <SCORE.INTER.VDW>
-26.4549

>  <SCORE.INTER.norm>
-0.484083

>  <SCORE.INTRA>
0.758415

>  <SCORE.INTRA.DIHEDRAL>
0.0164693

>  <SCORE.INTRA.DIHEDRAL.0>
2.42188

>  <SCORE.INTRA.POLAR>
0

>  <SCORE.INTRA.POLAR.0>
0

>  <SCORE.INTRA.REPUL>
0

>  <SCORE.INTRA.REPUL.0>
0

>  <SCORE.INTRA.SOLV>
1.34796

>  <SCORE.INTRA.SOLV.lig_0>
-127.307

>  <SCORE.INTRA.VDW>
0.0762007

>  <SCORE.INTRA.VDW.0>
-2.19936

>  <SCORE.INTRA.norm>
0.0164873

>  <SCORE.RESTR>
0

>  <SCORE.RESTR.CAVITY>
0

>  <SCORE.RESTR.norm>
0

>  <SCORE.SYSTEM>
0

>  <SCORE.SYSTEM.CONST>
0

>  <SCORE.SYSTEM.DIHEDRAL>
0

>  <SCORE.SYSTEM.SOLV>
0

>  <SCORE.SYSTEM.norm>
0

>  <SCORE.heavy>
46

>  <SCORE.norm>
-0.467596

>  <RMSD>
4.063

$$$$
ligand
 OpenBabel02271912143D
libRbt.so/2013.1/901 2013/11/27
 46 52  0  0  0  0  0  0  0  0999 V2000
  157.6679   41.9467  148.0714 P   0  0  1  0  0  0  0  0  0  0  0  0
  161.0482   46.4220  147.0835 P   0  0  1  0  0  0  0  0  0  0  0  0
  156.7036   41.6096  146.9635 O   0  5  0  0  0  0  0  0  0  0  0  0
  157.7723   40.9535  149.2081 O   0  0  0  0  0  0  0  0  0  0  0  0
  160.3070   41.7691  148.0166 C   0  0  0  0  0  0  0  0  0  0  0  0
  159.1069   42.2389  147.4165 O   0  0  0  0  0  0  0  0  0  0  0  0
  161.5026   42.5026  147.4316 C   0  0  1  0  0  0  0  0  0  0  0  0
  162.1433   41.6330  146.5090 O   0  0  0  0  0  0  0  0  0  0  0  0
  161.1822   43.7781  146.6627 C   0  0  1  0  0  0  0  0  0  0  0  0
  161.5035   44.9094  147.4585 O   0  0  0  0  0  0  0  0  0  0  0  0
  162.1430   43.7367  145.4956 C   0  0  1  0  0  0  0  0  0  0  0  0
  163.3621   44.3903  145.8544 O   0  0  0  0  0  0  0  0  0  0  0  0
  162.4705   42.2859  145.2919 C   0  0  2  0  0  0  0  0  0  0  0  0
  155.6405   46.1213  146.8439 C   0  0  1  0  0  0  0  0  0  0  0  0
  159.1910   43.3828  141.3437 N   0  0  0  0  0  0  0  0  0  0  0  0
  159.8291   44.2076  142.1955 C   0  0  1  0  0  0  0  0  0  0  0  0
  155.8206   44.6402  147.1033 C   0  0  2  0  0  0  0  0  0  0  0  0
  159.6475   45.5420  142.0777 N   0  0  0  0  0  0  0  0  0  0  0  0
  154.8036   44.2394  148.0257 O   0  0  0  0  0  0  0  0  0  0  0  0
  157.1976   44.5051  147.7260 C   0  0  2  0  0  0  0  0  0  0  0  0
  160.6507   43.7759  143.1790 N   0  0  0  0  0  0  0  0  0  0  0  0
  157.2586   43.4027  148.6299 O   0  0  0  0  0  0  0  0  0  0  0  0
  160.8803   42.4582  143.3631 C   0  0  2  0  0  0  0  0  0  0  0  0
  157.3658   45.8464  148.4364 C   0  0  2  0  0  0  0  0  0  0  0  0
  156.5105   46.7776  147.7699 O   0  0  0  0  0  0  0  0  0  0  0  0
  160.2164   41.5016  142.4721 C   0  0  2  0  0  0  0  0  0  0  0  0
  158.7956   46.3959  148.4557 C   0  0  0  0  0  0  0  0  0  0  0  0
  159.4384   46.3336  147.1831 O   0  0  0  0  0  0  0  0  0  0  0  0
  159.3305   42.0480  141.4173 C   0  0  0  0  0  0  0  0  0  0  0  0
  158.7392   41.2756  140.6250 O   0  0  0  0  0  0  0  0  0  0  0  0
  160.6101   40.2804  142.8753 N   0  0  0  0  0  0  0  0  0  0  0  0
  161.4508   40.4363  143.9261 C   0  0  0  0  0  0  0  0  0  0  0  0
  161.6113   41.7395  144.2149 N   0  0  1  0  0  0  0  0  0  0  0  0
  158.3529   49.3727  143.7279 N   0  0  0  0  0  0  0  0  0  0  0  0
  161.5726   47.3070  148.1988 O   0  5  0  0  0  0  0  0  0  0  0  0
  158.1750   49.4040  145.0576 C   0  0  2  0  0  0  0  0  0  0  0  0
  158.7634   50.4004  145.7361 N   0  0  0  0  0  0  0  0  0  0  0  0
  161.3975   46.7017  145.6419 O   0  0  0  0  0  0  0  0  0  0  0  0
  157.4443   48.4897  145.7375 N   0  0  0  0  0  0  0  0  0  0  0  0
  156.8422   47.4704  145.0894 C   0  0  1  0  0  0  0  0  0  0  0  0
  156.9989   47.3804  143.6238 C   0  0  1  0  0  0  0  0  0  0  0  0
  157.8251   48.4195  142.9580 C   0  0  0  0  0  0  0  0  0  0  0  0
  158.0135   48.4347  141.7226 O   0  0  0  0  0  0  0  0  0  0  0  0
  156.3168   46.2910  143.2363 N   0  0  0  0  0  0  0  0  0  0  0  0
  155.7696   45.7409  144.3558 C   0  0  0  0  0  0  0  0  0  0  0  0
  156.0836   46.4406  145.4641 N   0  0  2  0  0  0  0  0  0  0  0  0
  1  3  1  6  0  0  0
  1  4  2  0  0  0  0
  1  6  1  0  0  0  0
  1 22  1  0  0  0  0
  2 28  1  0  0  0  0
  2 35  1  1  0  0  0
  2 38  2  0  0  0  0
  2 10  1  0  0  0  0
  5  6  1  0  0  0  0
  7  5  1  6  0  0  0
  7  8  1  0  0  0  0
  7  9  1  0  0  0  0
  9 10  1  1  0  0  0
  9 11  1  0  0  0  0
 11 12  1  1  0  0  0
 11 13  1  0  0  0  0
 13  8  1  1  0  0  0
 13 33  1  0  0  0  0
 14 46  1  0  0  0  0
 14 17  1  0  0  0  0
 14 25  1  1  0  0  0
 15 16  1  0  0  0  0
 15 29  1  0  0  0  0
 16 18  1  1  0  0  0
 16 21  1  0  0  0  0
 17 19  1  1  0  0  0
 17 20  1  0  0  0  0
 20 22  1  1  0  0  0
 20 24  1  0  0  0  0
 23 21  1  1  0  0  0
 23 26  1  0  0  0  0
 23 33  1  0  0  0  0
 24 25  1  6  0  0  0
 24 27  1  0  0  0  0
 26 29  1  1  0  0  0
 26 31  1  0  0  0  0
 27 28  1  0  0  0  0
 29 30  2  0  0  0  0
 31 32  1  0  0  0  0
 33 32  1  6  0  0  0
 34 36  1  0  0  0  0
 34 42  1  0  0  0  0
 36 37  1  1  0  0  0
 36 39  1  0  0  0  0
 40 39  1  1  0  0  0
 40 41  1  0  0  0  0
 40 46  1  0  0  0  0
 41 42  1  1  0  0  0
 41 44  1  0  0  0  0
 42 43  2  0  0  0  0
 44 45  1  0  0  0  0
 46 45  1  6  0  0  0
M  CHG  2   3  -1  35  -1
M  END
>  <CHROM.1>
128.88537336,-135.22171592,159.06082114,44.63171004,145.62576590,0.46945995
-1.02626109,2.20146951

>  <Name>
ligand

>  <RI>
0

>  <Rbt.Current_Directory>
/home/itssahil/PROJECTS/Mol_Feturizer/Test_systems_manuscript/rnas/4yb0

>  <Rbt.Executable>
rbdock ($Id: //depot/dev/client3/rdock/2013.1/src/exe/rbdock.cxx#4 $)

>  <Rbt.Library>
libRbt.so (2013.1, Build901 2013/11/27)

>  <Rbt.Parameter_File>
/export/apps/rDock/src/rDock_2013.1_src/data/scripts/dock_solv.prm

>  <Rbt.Receptor>
prm/pocket_docking_5.prm

>  <SCORE>
-21.8528

>  <SCORE.INTER>
-22.9729

>  <SCORE.INTER.CONST>
1

>  <SCORE.INTER.POLAR>
0

>  <SCORE.INTER.ROT>
2

>  <SCORE.INTER.SOLV>
21.4937

>  <SCORE.INTER.VDW>
-27.4131

>  <SCORE.INTER.norm>
-0.499411

>  <SCORE.INTRA>
1.12005

>  <SCORE.INTRA.DIHEDRAL>
-0.0527004

>  <SCORE.INTRA.DIHEDRAL.0>
2.42188

>  <SCORE.INTRA.POLAR>
0

>  <SCORE.INTRA.POLAR.0>
0

>  <SCORE.INTRA.REPUL>
0

>  <SCORE.INTRA.REPUL.0>
0

>  <SCORE.INTRA.SOLV>
2.92787

>  <SCORE.INTRA.SOLV.lig_0>
-127.307

>  <SCORE.INTRA.VDW>
-0.317532

>  <SCORE.INTRA.VDW.0>
-2.19936

>  <SCORE.INTRA.norm>
0.024349

>  <SCORE.RESTR>
0

>  <SCORE.RESTR.CAVITY>
0

>  <SCORE.RESTR.norm>
0

>  <SCORE.SYSTEM>
0

>  <SCORE.SYSTEM.CONST>
0

>  <SCORE.SYSTEM.DIHEDRAL>
0

>  <SCORE.SYSTEM.SOLV>
0

>  <SCORE.SYSTEM.norm>
0

>  <SCORE.heavy>
46

>  <SCORE.norm>
-0.475062

>  <RMSD>
4.064

$$$$
ligand
 OpenBabel02271912143D
libRbt.so/2013.1/901 2013/11/27
 46 52  0  0  0  0  0  0  0  0999 V2000
  157.6099   41.9058  148.0853 P   0  0  1  0  0  0  0  0  0  0  0  0
  160.9720   46.4095  147.1668 P   0  0  1  0  0  0  0  0  0  0  0  0
  156.6549   41.5749  146.9674 O   0  5  0  0  0  0  0  0  0  0  0  0
  157.7122   40.9013  149.2123 O   0  0  0  0  0  0  0  0  0  0  0  0
  160.2503   41.7431  148.0465 C   0  0  0  0  0  0  0  0  0  0  0  0
  159.0517   42.2126  147.4432 O   0  0  0  0  0  0  0  0  0  0  0  0
  161.4457   42.4892  147.4772 C   0  0  1  0  0  0  0  0  0  0  0  0
  162.0974   41.6328  146.5499 O   0  0  0  0  0  0  0  0  0  0  0  0
  161.1234   43.7709  146.7194 C   0  0  1  0  0  0  0  0  0  0  0  0
  161.4331   44.8956  147.5291 O   0  0  0  0  0  0  0  0  0  0  0  0
  162.0922   43.7469  145.5585 C   0  0  1  0  0  0  0  0  0  0  0  0
  163.3052   44.4034  145.9322 O   0  0  0  0  0  0  0  0  0  0  0  0
  162.4291   42.3002  145.3419 C   0  0  2  0  0  0  0  0  0  0  0  0
  155.5677   46.0817  146.8875 C   0  0  1  0  0  0  0  0  0  0  0  0
  159.1903   43.4212  141.3670 N   0  0  0  0  0  0  0  0  0  0  0  0
  159.8207   44.2409  142.2294 C   0  0  1  0  0  0  0  0  0  0  0  0
  155.7543   44.5990  147.1328 C   0  0  2  0  0  0  0  0  0  0  0  0
  159.6417   45.5760  142.1167 N   0  0  0  0  0  0  0  0  0  0  0  0
  154.7333   44.1830  148.0440 O   0  0  0  0  0  0  0  0  0  0  0  0
  157.1278   44.4650  147.7633 C   0  0  2  0  0  0  0  0  0  0  0  0
  160.6320   43.8031  143.2188 N   0  0  0  0  0  0  0  0  0  0  0  0
  157.1889   43.3535  148.6561 O   0  0  0  0  0  0  0  0  0  0  0  0
  160.8584   42.4842  143.3982 C   0  0  2  0  0  0  0  0  0  0  0  0
  157.2838   45.7997  148.4887 C   0  0  2  0  0  0  0  0  0  0  0  0
  156.4278   46.7330  147.8262 O   0  0  0  0  0  0  0  0  0  0  0  0
  160.2025   41.5330  142.4956 C   0  0  2  0  0  0  0  0  0  0  0  0
  158.7103   46.3568  148.5234 C   0  0  0  0  0  0  0  0  0  0  0  0
  159.3620   46.3113  147.2546 O   0  0  0  0  0  0  0  0  0  0  0  0
  159.3277   42.0859  141.4349 C   0  0  0  0  0  0  0  0  0  0  0  0
  158.7436   41.3183  140.6327 O   0  0  0  0  0  0  0  0  0  0  0  0
  160.5909   40.3093  142.8963 N   0  0  0  0  0  0  0  0  0  0  0  0
  161.4212   40.4588  143.9563 C   0  0  0  0  0  0  0  0  0  0  0  0
  161.5801   41.7603  144.2536 N   0  0  1  0  0  0  0  0  0  0  0  0
  158.3135   49.3593  143.8289 N   0  0  0  0  0  0  0  0  0  0  0  0
  161.4839   47.2857  148.2947 O   0  5  0  0  0  0  0  0  0  0  0  0
  158.1307   49.3728  145.1582 C   0  0  2  0  0  0  0  0  0  0  0  0
  158.7229   50.3555  145.8532 N   0  0  0  0  0  0  0  0  0  0  0  0
  161.3293   46.7061  145.7306 O   0  0  0  0  0  0  0  0  0  0  0  0
  157.3913   48.4537  145.8221 N   0  0  0  0  0  0  0  0  0  0  0  0
  156.7851   47.4479  145.1572 C   0  0  1  0  0  0  0  0  0  0  0  0
  156.9468   47.3778  143.6911 C   0  0  1  0  0  0  0  0  0  0  0  0
  157.7825   48.4209  143.0434 C   0  0  0  0  0  0  0  0  0  0  0  0
  157.9757   48.4525  141.8090 O   0  0  0  0  0  0  0  0  0  0  0  0
  156.2591   46.2986  143.2854 N   0  0  0  0  0  0  0  0  0  0  0  0
  155.7039   45.7362  144.3947 C   0  0  0  0  0  0  0  0  0  0  0  0
  156.0183   46.4178  145.5141 N   0  0  2  0  0  0  0  0  0  0  0  0
  1  3  1  6  0  0  0
  1  4  2  0  0  0  0
  1  6  1  0  0  0  0
  1 22  1  0  0  0  0
  2 28  1  0  0  0  0
  2 35  1  1  0  0  0
  2 38  2  0  0  0  0
  2 10  1  0  0  0  0
  5  6  1  0  0  0  0
  7  5  1  6  0  0  0
  7  8  1  0  0  0  0
  7  9  1  0  0  0  0
  9 10  1  1  0  0  0
  9 11  1  0  0  0  0
 11 12  1  1  0  0  0
 11 13  1  0  0  0  0
 13  8  1  1  0  0  0
 13 33  1  0  0  0  0
 14 46  1  0  0  0  0
 14 17  1  0  0  0  0
 14 25  1  1  0  0  0
 15 16  1  0  0  0  0
 15 29  1  0  0  0  0
 16 18  1  1  0  0  0
 16 21  1  0  0  0  0
 17 19  1  1  0  0  0
 17 20  1  0  0  0  0
 20 22  1  1  0  0  0
 20 24  1  0  0  0  0
 23 21  1  1  0  0  0
 23 26  1  0  0  0  0
 23 33  1  0  0  0  0
 24 25  1  6  0  0  0
 24 27  1  0  0  0  0
 26 29  1  1  0  0  0
 26 31  1  0  0  0  0
 27 28  1  0  0  0  0
 29 30  2  0  0  0  0
 31 32  1  0  0  0  0
 33 32  1  6  0  0  0
 34 36  1  0  0  0  0
 34 42  1  0  0  0  0
 36 37  1  1  0  0  0
 36 39  1  0  0  0  0
 40 39  1  1  0  0  0
 40 41  1  0  0  0  0
 40 46  1  0  0  0  0
 41 42  1  1  0  0  0
 41 44  1  0  0  0  0
 42 43  2  0  0  0  0
 44 45  1  0  0  0  0
 46 45  1  6  0  0  0
M  CHG  2   3  -1  35  -1
M  END
>  <CHROM.1>
129.39916132,-134.47345934,159.00984408,44.62148817,145.67589920,0.47261337
-1.01745240,2.22210787

>  <Name>
ligand

>  <RI>
0

>  <Rbt.Current_Directory>
/home/itssahil/PROJECTS/Mol_Feturizer/Test_systems_manuscript/rnas/4yb0

>  <Rbt.Executable>
rbdock ($Id: //depot/dev/client3/rdock/2013.1/src/exe/rbdock.cxx#4 $)

>  <Rbt.Library>
libRbt.so (2013.1, Build901 2013/11/27)

>  <Rbt.Parameter_File>
/export/apps/rDock/src/rDock_2013.1_src/data/scripts/dock_solv.prm

>  <Rbt.Receptor>
prm/pocket_docking_5.prm

>  <SCORE>
-21.8857

>  <SCORE.INTER>
-22.9465

>  <SCORE.INTER.CONST>
1

>  <SCORE.INTER.POLAR>
0

>  <SCORE.INTER.ROT>
2

>  <SCORE.INTER.SOLV>
21.6434

>  <SCORE.INTER.VDW>
-27.4455

>  <SCORE.INTER.norm>
-0.498838

>  <SCORE.INTRA>
1.06081

>  <SCORE.INTRA.DIHEDRAL>
-0.0523924

>  <SCORE.INTRA.DIHEDRAL.0>
2.42188

>  <SCORE.INTRA.POLAR>
0

>  <SCORE.INTRA.POLAR.0>
0

>  <SCORE.INTRA.REPUL>
0

>  <SCORE.INTRA.REPUL.0>
0

>  <SCORE.INTRA.SOLV>
2.86917

>  <SCORE.INTRA.SOLV.lig_0>
-127.307

>  <SCORE.INTRA.VDW>
-0.347582

>  <SCORE.INTRA.VDW.0>
-2.19936

>  <SCORE.INTRA.norm>
0.023061

>  <SCORE.RESTR>
0

>  <SCORE.RESTR.CAVITY>
0

>  <SCORE.RESTR.norm>
0

>  <SCORE.SYSTEM>
0

>  <SCORE.SYSTEM.CONST>
0

>  <SCORE.SYSTEM.DIHEDRAL>
0

>  <SCORE.SYSTEM.SOLV>
0

>  <SCORE.SYSTEM.norm>
0

>  <SCORE.heavy>
46

>  <SCORE.norm>
-0.475777

>  <RMSD>
4.068

$$$$
ligand
 OpenBabel02271912143D
libRbt.so/2013.1/901 2013/11/27
 46 52  0  0  0  0  0  0  0  0999 V2000
  160.8836   46.5469  147.3688 P   0  0  1  0  0  0  0  0  0  0  0  0
  157.5569   41.9694  148.0095 P   0  0  1  0  0  0  0  0  0  0  0  0
  161.3406   46.8201  145.9589 O   0  5  0  0  0  0  0  0  0  0  0  0
  161.1808   47.6145  148.3991 O   0  0  0  0  0  0  0  0  0  0  0  0
  158.4170   46.6850  148.3155 C   0  0  0  0  0  0  0  0  0  0  0  0
  159.3161   46.1912  147.3312 O   0  0  0  0  0  0  0  0  0  0  0  0
  157.1181   45.8971  148.2752 C   0  0  1  0  0  0  0  0  0  0  0  0
  156.1417   46.6926  147.6181 O   0  0  0  0  0  0  0  0  0  0  0  0
  157.1711   44.5762  147.5181 C   0  0  1  0  0  0  0  0  0  0  0  0
  157.2204   43.4980  148.4409 O   0  0  0  0  0  0  0  0  0  0  0  0
  155.8380   44.5245  146.8061 C   0  0  1  0  0  0  0  0  0  0  0  0
  154.8730   43.8808  147.6406 O   0  0  0  0  0  0  0  0  0  0  0  0
  155.4019   45.9533  146.6585 C   0  0  2  0  0  0  0  0  0  0  0  0
  162.4517   42.3255  145.7061 C   0  0  1  0  0  0  0  0  0  0  0  0
  157.9945   49.5573  143.8593 N   0  0  0  0  0  0  0  0  0  0  0  0
  157.8576   49.4287  145.1926 C   0  0  1  0  0  0  0  0  0  0  0  0
  162.3267   43.8184  145.9277 C   0  0  2  0  0  0  0  0  0  0  0  0
  158.4534   50.3308  146.0041 N   0  0  0  0  0  0  0  0  0  0  0  0
  163.6017   44.2952  146.3668 O   0  0  0  0  0  0  0  0  0  0  0  0
  161.2857   43.9774  147.0200 C   0  0  2  0  0  0  0  0  0  0  0  0
  157.1466   48.4387  145.7785 N   0  0  0  0  0  0  0  0  0  0  0  0
  161.5303   45.1384  147.8127 O   0  0  0  0  0  0  0  0  0  0  0  0
  156.5196   47.5015  145.0360 C   0  0  2  0  0  0  0  0  0  0  0  0
  161.4521   42.6860  147.8178 C   0  0  2  0  0  0  0  0  0  0  0  0
  162.0251   41.7228  146.9308 O   0  0  0  0  0  0  0  0  0  0  0  0
  156.6247   47.5808  143.5757 C   0  0  2  0  0  0  0  0  0  0  0  0
  160.1593   42.1200  148.4135 C   0  0  0  0  0  0  0  0  0  0  0  0
  159.0791   42.0861  147.4816 O   0  0  0  0  0  0  0  0  0  0  0  0
  157.4206   48.6930  143.0050 C   0  0  0  0  0  0  0  0  0  0  0  0
  157.5465   48.8078  141.7620 O   0  0  0  0  0  0  0  0  0  0  0  0
  155.9137   46.5461  143.0934 N   0  0  0  0  0  0  0  0  0  0  0  0
  155.4008   45.8630  144.1449 C   0  0  0  0  0  0  0  0  0  0  0  0
  155.7655   46.4359  145.3051 N   0  0  1  0  0  0  0  0  0  0  0  0
  159.4619   43.8097  141.6446 N   0  0  0  0  0  0  0  0  0  0  0  0
  157.5305   41.1562  149.2901 O   0  5  0  0  0  0  0  0  0  0  0  0
  160.2365   44.5451  142.4571 C   0  0  2  0  0  0  0  0  0  0  0  0
  160.2862   45.8668  142.2335 N   0  0  0  0  0  0  0  0  0  0  0  0
  156.6971   41.5867  146.8295 O   0  0  0  0  0  0  0  0  0  0  0  0
  160.9623   44.0243  143.4740 N   0  0  0  0  0  0  0  0  0  0  0  0
  160.9413   42.6986  143.7258 C   0  0  1  0  0  0  0  0  0  0  0  0
  160.1068   41.8342  142.8673 C   0  0  1  0  0  0  0  0  0  0  0  0
  159.3499   42.4861  141.7683 C   0  0  0  0  0  0  0  0  0  0  0  0
  158.6116   41.8434  140.9912 O   0  0  0  0  0  0  0  0  0  0  0  0
  160.2676   40.5811  143.3213 N   0  0  0  0  0  0  0  0  0  0  0  0
  161.1237   40.6442  144.3789 C   0  0  0  0  0  0  0  0  0  0  0  0
  161.5301   41.9062  144.6212 N   0  0  2  0  0  0  0  0  0  0  0  0
  1  3  1  6  0  0  0
  1  4  2  0  0  0  0
  1  6  1  0  0  0  0
  1 22  1  0  0  0  0
  2 28  1  0  0  0  0
  2 35  1  1  0  0  0
  2 38  2  0  0  0  0
  2 10  1  0  0  0  0
  5  6  1  0  0  0  0
  7  5  1  6  0  0  0
  7  8  1  0  0  0  0
  7  9  1  0  0  0  0
  9 10  1  1  0  0  0
  9 11  1  0  0  0  0
 11 12  1  1  0  0  0
 11 13  1  0  0  0  0
 13  8  1  1  0  0  0
 13 33  1  0  0  0  0
 14 46  1  0  0  0  0
 14 17  1  0  0  0  0
 14 25  1  1  0  0  0
 15 16  1  0  0  0  0
 15 29  1  0  0  0  0
 16 18  1  6  0  0  0
 16 21  1  0  0  0  0
 17 19  1  1  0  0  0
 17 20  1  0  0  0  0
 20 22  1  1  0  0  0
 20 24  1  0  0  0  0
 23 21  1  6  0  0  0
 23 26  1  0  0  0  0
 23 33  1  0  0  0  0
 24 25  1  6  0  0  0
 24 27  1  0  0  0  0
 26 29  1  6  0  0  0
 26 31  1  0  0  0  0
 27 28  1  0  0  0  0
 29 30  2  0  0  0  0
 31 32  1  0  0  0  0
 33 32  1  1  0  0  0
 34 36  1  0  0  0  0
 34 42  1  0  0  0  0
 36 37  1  6  0  0  0
 36 39  1  0  0  0  0
 40 39  1  6  0  0  0
 40 41  1  0  0  0  0
 40 46  1  0  0  0  0
 41 42  1  6  0  0  0
 41 44  1  0  0  0  0
 42 43  2  0  0  0  0
 44 45  1  0  0  0  0
 46 45  1  1  0  0  0
M  CHG  2   3  -1  35  -1
M  END
>  <CHROM.1>
-8.29157584,16.67184852,158.94443769,44.76072358,145.76024086,2.51820239
0.90572638,-0.99097018

>  <Name>
ligand

>  <RI>
0

>  <Rbt.Current_Directory>
/home/itssahil/PROJECTS/Mol_Feturizer/Test_systems_manuscript/rnas/4yb0

>  <Rbt.Executable>
rbdock ($Id: //depot/dev/client3/rdock/2013.1/src/exe/rbdock.cxx#4 $)

>  <Rbt.Library>
libRbt.so (2013.1, Build901 2013/11/27)

>  <Rbt.Parameter_File>
/export/apps/rDock/src/rDock_2013.1_src/data/scripts/dock_solv.prm

>  <Rbt.Receptor>
prm/pocket_docking_6.prm

>  <SCORE>
-21.1538

>  <SCORE.INTER>
-21.7689

>  <SCORE.INTER.CONST>
1

>  <SCORE.INTER.POLAR>
0

>  <SCORE.INTER.ROT>
2

>  <SCORE.INTER.SOLV>
19.7547

>  <SCORE.INTER.VDW>
-26.0308

>  <SCORE.INTER.norm>
-0.473237

>  <SCORE.INTRA>
0.56984

>  <SCORE.INTRA.DIHEDRAL>
0.0116735

>  <SCORE.INTRA.DIHEDRAL.0>
2.42188

>  <SCORE.INTRA.POLAR>
0

>  <SCORE.INTRA.POLAR.0>
0

>  <SCORE.INTRA.REPUL>
0

>  <SCORE.INTRA.REPUL.0>
0

>  <SCORE.INTRA.SOLV>
1.66916

>  <SCORE.INTRA.SOLV.lig_0>
-127.307

>  <SCORE.INTRA.VDW>
-0.270579

>  <SCORE.INTRA.VDW.0>
-2.19936

>  <SCORE.INTRA.norm>
0.0123878

>  <SCORE.RESTR>
0.0452141

>  <SCORE.RESTR.CAVITY>
0.0452141

>  <SCORE.RESTR.norm>
0.000982914

>  <SCORE.SYSTEM>
0

>  <SCORE.SYSTEM.CONST>
0

>  <SCORE.SYSTEM.DIHEDRAL>
0

>  <SCORE.SYSTEM.SOLV>
0

>  <SCORE.SYSTEM.norm>
0

>  <SCORE.heavy>
46

>  <SCORE.norm>
-0.459866

>  <RMSD>
4.082

$$$$
ligand
 OpenBabel02271912143D
libRbt.so/2013.1/901 2013/11/27
 46 52  0  0  0  0  0  0  0  0999 V2000
  159.9284   46.9801  148.3199 P   0  0  1  0  0  0  0  0  0  0  0  0
  159.6902   41.2928  148.1507 P   0  0  1  0  0  0  0  0  0  0  0  0
  160.0837   47.6593  146.9836 O   0  5  0  0  0  0  0  0  0  0  0  0
  159.6487   47.8734  149.5087 O   0  0  0  0  0  0  0  0  0  0  0  0
  157.8445   45.6031  149.1920 C   0  0  0  0  0  0  0  0  0  0  0  0
  158.8119   45.8321  148.1758 O   0  0  0  0  0  0  0  0  0  0  0  0
  157.1886   44.2472  148.9894 C   0  0  1  0  0  0  0  0  0  0  0  0
  155.9020   44.4610  148.4265 O   0  0  0  0  0  0  0  0  0  0  0  0
  157.9146   43.2981  148.0443 C   0  0  1  0  0  0  0  0  0  0  0  0
  158.5961   42.3042  148.7955 O   0  0  0  0  0  0  0  0  0  0  0  0
  156.7907   42.6265  147.2876 C   0  0  1  0  0  0  0  0  0  0  0  0
  156.3825   41.4463  147.9824 O   0  0  0  0  0  0  0  0  0  0  0  0
  155.6364   43.5847  147.3420 C   0  0  2  0  0  0  0  0  0  0  0  0
  163.4577   44.6053  146.0953 C   0  0  1  0  0  0  0  0  0  0  0  0
  152.7070   45.2962  143.3375 N   0  0  0  0  0  0  0  0  0  0  0  0
  152.3771   44.5089  144.3788 C   0  0  1  0  0  0  0  0  0  0  0  0
  162.5484   45.7338  146.5346 C   0  0  2  0  0  0  0  0  0  0  0  0
  151.1102   44.0480  144.4782 N   0  0  0  0  0  0  0  0  0  0  0  0
  163.3762   46.7629  147.0836 O   0  0  0  0  0  0  0  0  0  0  0  0
  161.6514   45.1356  147.6023 C   0  0  2  0  0  0  0  0  0  0  0  0
  153.2500   44.1429  145.3446 N   0  0  0  0  0  0  0  0  0  0  0  0
  161.2636   46.1114  148.5685 O   0  0  0  0  0  0  0  0  0  0  0  0
  154.5339   44.5595  145.3139 C   0  0  2  0  0  0  0  0  0  0  0  0
  162.5407   44.0485  148.2018 C   0  0  2  0  0  0  0  0  0  0  0  0
  163.4980   43.6981  147.2001 O   0  0  0  0  0  0  0  0  0  0  0  0
  154.9638   45.4190  144.2065 C   0  0  2  0  0  0  0  0  0  0  0  0
  161.8033   42.7869  148.6612 C   0  0  0  0  0  0  0  0  0  0  0  0
  160.8689   42.3006  147.6985 O   0  0  0  0  0  0  0  0  0  0  0  0
  153.9521   45.7790  143.1854 C   0  0  0  0  0  0  0  0  0  0  0  0
  154.2639   46.5140  142.2176 O   0  0  0  0  0  0  0  0  0  0  0  0
  156.2671   45.6758  144.4174 N   0  0  0  0  0  0  0  0  0  0  0  0
  156.6407   45.0429  145.5554 C   0  0  0  0  0  0  0  0  0  0  0  0
  155.6022   44.3771  146.0898 N   0  0  1  0  0  0  0  0  0  0  0  0
  161.5963   45.0232  141.1965 N   0  0  0  0  0  0  0  0  0  0  0  0
  160.1830   40.4239  149.2926 O   0  5  0  0  0  0  0  0  0  0  0  0
  162.1181   45.9614  142.0018 C   0  0  2  0  0  0  0  0  0  0  0  0
  162.1974   47.2118  141.5228 N   0  0  0  0  0  0  0  0  0  0  0  0
  159.1171   40.6760  146.8979 O   0  0  0  0  0  0  0  0  0  0  0  0
  162.5652   45.7092  143.2543 N   0  0  0  0  0  0  0  0  0  0  0  0
  162.5064   44.4626  143.7678 C   0  0  1  0  0  0  0  0  0  0  0  0
  161.9412   43.3848  142.9314 C   0  0  1  0  0  0  0  0  0  0  0  0
  161.4828   43.7463  141.5658 C   0  0  0  0  0  0  0  0  0  0  0  0
  160.9848   42.9086  140.7834 O   0  0  0  0  0  0  0  0  0  0  0  0
  162.0039   42.2630  143.6661 N   0  0  0  0  0  0  0  0  0  0  0  0
  162.5544   42.5992  144.8658 C   0  0  0  0  0  0  0  0  0  0  0  0
  162.8582   43.9108  144.9289 N   0  0  2  0  0  0  0  0  0  0  0  0
  1  3  1  6  0  0  0
  1  4  2  0  0  0  0
  1  6  1  0  0  0  0
  1 22  1  0  0  0  0
  2 28  1  0  0  0  0
  2 35  1  1  0  0  0
  2 38  2  0  0  0  0
  2 10  1  0  0  0  0
  5  6  1  0  0  0  0
  7  5  1  6  0  0  0
  7  8  1  0  0  0  0
  7  9  1  0  0  0  0
  9 10  1  1  0  0  0
  9 11  1  0  0  0  0
 11 12  1  1  0  0  0
 11 13  1  0  0  0  0
 13  8  1  1  0  0  0
 13 33  1  0  0  0  0
 14 46  1  0  0  0  0
 14 17  1  0  0  0  0
 14 25  1  1  0  0  0
 15 16  1  0  0  0  0
 15 29  1  0  0  0  0
 16 18  1  6  0  0  0
 16 21  1  0  0  0  0
 17 19  1  1  0  0  0
 17 20  1  0  0  0  0
 20 22  1  1  0  0  0
 20 24  1  0  0  0  0
 23 21  1  6  0  0  0
 23 26  1  0  0  0  0
 23 33  1  0  0  0  0
 24 25  1  6  0  0  0
 24 27  1  0  0  0  0
 26 29  1  6  0  0  0
 26 31  1  0  0  0  0
 27 28  1  0  0  0  0
 29 30  2  0  0  0  0
 31 32  1  0  0  0  0
 33 32  1  1  0  0  0
 34 36  1  0  0  0  0
 34 42  1  0  0  0  0
 36 37  1  6  0  0  0
 36 39  1  0  0  0  0
 40 39  1  6  0  0  0
 40 41  1  0  0  0  0
 40 46  1  0  0  0  0
 41 42  1  6  0  0  0
 41 44  1  0  0  0  0
 42 43  2  0  0  0  0
 44 45  1  0  0  0  0
 46 45  1  1  0  0  0
M  CHG  2   3  -1  35  -1
M  END
>  <CHROM.1>
-114.87226356,56.77729888,159.05663898,44.37004738,146.08267816,0.07174602
0.00165780,1.82492584

>  <Name>
ligand

>  <RI>
0

>  <Rbt.Current_Directory>
/home/itssahil/PROJECTS/Mol_Feturizer/Test_systems_manuscript/rnas/4yb0

>  <Rbt.Executable>
rbdock ($Id: //depot/dev/client3/rdock/2013.1/src/exe/rbdock.cxx#4 $)

>  <Rbt.Library>
libRbt.so (2013.1, Build901 2013/11/27)

>  <Rbt.Parameter_File>
/export/apps/rDock/src/rDock_2013.1_src/data/scripts/dock_solv.prm

>  <Rbt.Receptor>
prm/pocket_docking_4.prm

>  <SCORE>
-21.2142

>  <SCORE.INTER>
-22.3778

>  <SCORE.INTER.CONST>
1

>  <SCORE.INTER.POLAR>
0

>  <SCORE.INTER.ROT>
2

>  <SCORE.INTER.SOLV>
23.2429

>  <SCORE.INTER.VDW>
-27.5995

>  <SCORE.INTER.norm>
-0.486474

>  <SCORE.INTRA>
-0.0238016

>  <SCORE.INTRA.DIHEDRAL>
-0.0232368

>  <SCORE.INTRA.DIHEDRAL.0>
2.42188

>  <SCORE.INTRA.POLAR>
0

>  <SCORE.INTRA.POLAR.0>
0

>  <SCORE.INTRA.REPUL>
0

>  <SCORE.INTRA.REPUL.0>
0

>  <SCORE.INTRA.SOLV>
-0.0130616

>  <SCORE.INTRA.SOLV.lig_0>
-127.307

>  <SCORE.INTRA.VDW>
-0.0056524

>  <SCORE.INTRA.VDW.0>
-2.19936

>  <SCORE.INTRA.norm>
-0.000517425

>  <SCORE.RESTR>
1.18742

>  <SCORE.RESTR.CAVITY>
1.18742

>  <SCORE.RESTR.norm>
0.0258134

>  <SCORE.SYSTEM>
0

>  <SCORE.SYSTEM.CONST>
0

>  <SCORE.SYSTEM.DIHEDRAL>
0

>  <SCORE.SYSTEM.SOLV>
0

>  <SCORE.SYSTEM.norm>
0

>  <SCORE.heavy>
46

>  <SCORE.norm>
-0.461178

>  <RMSD>
4.122

$$$$
ligand
 OpenBabel02271912143D
libRbt.so/2013.1/901 2013/11/27
 46 52  0  0  0  0  0  0  0  0999 V2000
  160.5996   47.6531  146.7768 P   0  0  1  0  0  0  0  0  0  0  0  0
  160.1965   43.1628  150.2560 P   0  0  1  0  0  0  0  0  0  0  0  0
  160.3325   47.3676  145.3214 O   0  5  0  0  0  0  0  0  0  0  0  0
  160.7355   49.1077  147.1709 O   0  0  0  0  0  0  0  0  0  0  0  0
  158.8764   47.5391  148.7811 C   0  0  0  0  0  0  0  0  0  0  0  0
  159.4713   46.9136  147.6515 O   0  0  0  0  0  0  0  0  0  0  0  0
  158.1610   46.5031  149.6323 C   0  0  1  0  0  0  0  0  0  0  0  0
  156.7668   46.6189  149.3862 O   0  0  0  0  0  0  0  0  0  0  0  0
  158.5245   45.0512  149.3483 C   0  0  1  0  0  0  0  0  0  0  0  0
  159.3894   44.5673  150.3653 O   0  0  0  0  0  0  0  0  0  0  0  0
  157.2030   44.3265  149.4715 C   0  0  1  0  0  0  0  0  0  0  0  0
  157.0139   43.8998  150.8222 O   0  0  0  0  0  0  0  0  0  0  0  0
  156.1483   45.3567  149.1889 C   0  0  2  0  0  0  0  0  0  0  0  0
  163.1760   43.7317  145.7626 C   0  0  1  0  0  0  0  0  0  0  0  0
  155.9902   47.7018  144.4961 N   0  0  0  0  0  0  0  0  0  0  0  0
  156.4748   48.1456  145.6713 C   0  0  1  0  0  0  0  0  0  0  0  0
  162.4804   45.0673  145.6020 C   0  0  2  0  0  0  0  0  0  0  0  0
  157.0237   49.3795  145.7316 N   0  0  0  0  0  0  0  0  0  0  0  0
  163.4627   46.0136  145.1715 O   0  0  0  0  0  0  0  0  0  0  0  0
  161.9608   45.4193  146.9834 C   0  0  2  0  0  0  0  0  0  0  0  0
  156.4427   47.4225  146.8136 N   0  0  0  0  0  0  0  0  0  0  0  0
  161.9248   46.8313  147.1861 O   0  0  0  0  0  0  0  0  0  0  0  0
  155.9078   46.1830  146.8355 C   0  0  2  0  0  0  0  0  0  0  0  0
  162.9716   44.7288  147.8963 C   0  0  2  0  0  0  0  0  0  0  0  0
  163.5490   43.6613  147.1414 O   0  0  0  0  0  0  0  0  0  0  0  0
  155.3591   45.6361  145.5907 C   0  0  2  0  0  0  0  0  0  0  0  0
  162.3935   44.1718  149.2009 C   0  0  0  0  0  0  0  0  0  0  0  0
  161.1893   43.4302  149.0101 O   0  0  0  0  0  0  0  0  0  0  0  0
  155.4295   46.4859  144.3787 C   0  0  0  0  0  0  0  0  0  0  0  0
  154.9779   46.0675  143.2856 O   0  0  0  0  0  0  0  0  0  0  0  0
  154.8941   44.4111  145.8940 N   0  0  0  0  0  0  0  0  0  0  0  0
  155.1241   44.1891  147.2104 C   0  0  0  0  0  0  0  0  0  0  0  0
  155.7312   45.2498  147.7706 N   0  0  1  0  0  0  0  0  0  0  0  0
  160.1260   41.3823  142.1827 N   0  0  0  0  0  0  0  0  0  0  0  0
  161.0108   43.0462  151.5309 O   0  5  0  0  0  0  0  0  0  0  0  0
  160.9369   42.4443  142.0586 C   0  0  2  0  0  0  0  0  0  0  0  0
  161.0126   43.0260  140.8523 N   0  0  0  0  0  0  0  0  0  0  0  0
  159.2385   42.0713  149.8447 O   0  0  0  0  0  0  0  0  0  0  0  0
  161.6743   42.9468  143.0764 N   0  0  0  0  0  0  0  0  0  0  0  0
  161.6279   42.3848  144.3025 C   0  0  1  0  0  0  0  0  0  0  0  0
  160.7529   41.2127  144.5047 C   0  0  1  0  0  0  0  0  0  0  0  0
  159.9857   40.7202  143.3323 C   0  0  0  0  0  0  0  0  0  0  0  0
  159.2139   39.7395  143.4016 O   0  0  0  0  0  0  0  0  0  0  0  0
  160.8948   40.8514  145.7898 N   0  0  0  0  0  0  0  0  0  0  0  0
  161.7771   41.7210  146.3560 C   0  0  0  0  0  0  0  0  0  0  0  0
  162.2190   42.6358  145.4704 N   0  0  2  0  0  0  0  0  0  0  0  0
  1  3  1  6  0  0  0
  1  4  2  0  0  0  0
  1  6  1  0  0  0  0
  1 22  1  0  0  0  0
  2 28  1  0  0  0  0
  2 35  1  1  0  0  0
  2 38  2  0  0  0  0
  2 10  1  0  0  0  0
  5  6  1  0  0  0  0
  7  5  1  6  0  0  0
  7  8  1  0  0  0  0
  7  9  1  0  0  0  0
  9 10  1  1  0  0  0
  9 11  1  0  0  0  0
 11 12  1  1  0  0  0
 11 13  1  0  0  0  0
 13  8  1  6  0  0  0
 13 33  1  0  0  0  0
 14 46  1  0  0  0  0
 14 17  1  0  0  0  0
 14 25  1  1  0  0  0
 15 16  1  0  0  0  0
 15 29  1  0  0  0  0
 16 18  1  1  0  0  0
 16 21  1  0  0  0  0
 17 19  1  1  0  0  0
 17 20  1  0  0  0  0
 20 22  1  1  0  0  0
 20 24  1  0  0  0  0
 23 21  1  1  0  0  0
 23 26  1  0  0  0  0
 23 33  1  0  0  0  0
 24 25  1  6  0  0  0
 24 27  1  0  0  0  0
 26 29  1  1  0  0  0
 26 31  1  0  0  0  0
 27 28  1  0  0  0  0
 29 30  2  0  0  0  0
 31 32  1  0  0  0  0
 33 32  1  6  0  0  0
 34 36  1  0  0  0  0
 34 42  1  0  0  0  0
 36 37  1  6  0  0  0
 36 39  1  0  0  0  0
 40 39  1  6  0  0  0
 40 41  1  0  0  0  0
 40 46  1  0  0  0  0
 41 42  1  6  0  0  0
 41 44  1  0  0  0  0
 42 43  2  0  0  0  0
 44 45  1  0  0  0  0
 46 45  1  1  0  0  0
M  CHG  2   3  -1  35  -1
M  END
>  <CHROM.1>
0.03254142,64.08138810,159.45068964,44.76480306,146.78872890,-2.55309347
0.58288509,-1.81265777

>  <Name>
ligand

>  <RI>
0

>  <Rbt.Current_Directory>
/home/itssahil/PROJECTS/Mol_Feturizer/Test_systems_manuscript/rnas/4yb0

>  <Rbt.Executable>
rbdock ($Id: //depot/dev/client3/rdock/2013.1/src/exe/rbdock.cxx#4 $)

>  <Rbt.Library>
libRbt.so (2013.1, Build901 2013/11/27)

>  <Rbt.Parameter_File>
/export/apps/rDock/src/rDock_2013.1_src/data/scripts/dock_solv.prm

>  <Rbt.Receptor>
prm/pocket_docking_8.prm

>  <SCORE>
-23.8502

>  <SCORE.INTER>
-24.5697

>  <SCORE.INTER.CONST>
1

>  <SCORE.INTER.POLAR>
0

>  <SCORE.INTER.ROT>
2

>  <SCORE.INTER.SOLV>
19.3891

>  <SCORE.INTER.VDW>
-27.7761

>  <SCORE.INTER.norm>
-0.534123

>  <SCORE.INTRA>
0.71949

>  <SCORE.INTRA.DIHEDRAL>
-0.0285976

>  <SCORE.INTRA.DIHEDRAL.0>
2.42188

>  <SCORE.INTRA.POLAR>
0

>  <SCORE.INTRA.POLAR.0>
0

>  <SCORE.INTRA.REPUL>
0

>  <SCORE.INTRA.REPUL.0>
0

>  <SCORE.INTRA.SOLV>
3.47969

>  <SCORE.INTRA.SOLV.lig_0>
-127.307

>  <SCORE.INTRA.VDW>
-1.00606

>  <SCORE.INTRA.VDW.0>
-2.19936

>  <SCORE.INTRA.norm>
0.0156411

>  <SCORE.RESTR>
0

>  <SCORE.RESTR.CAVITY>
0

>  <SCORE.RESTR.norm>
0

>  <SCORE.SYSTEM>
0

>  <SCORE.SYSTEM.CONST>
0

>  <SCORE.SYSTEM.DIHEDRAL>
0

>  <SCORE.SYSTEM.SOLV>
0

>  <SCORE.SYSTEM.norm>
0

>  <SCORE.heavy>
46

>  <SCORE.norm>
-0.518482

>  <RMSD>
4.126

$$$$
ligand
 OpenBabel02271912143D
libRbt.so/2013.1/901 2013/11/27
 46 52  0  0  0  0  0  0  0  0999 V2000
  160.6387   47.6200  146.7932 P   0  0  1  0  0  0  0  0  0  0  0  0
  160.3733   43.1076  150.2571 P   0  0  1  0  0  0  0  0  0  0  0  0
  160.3336   47.3399  145.3442 O   0  5  0  0  0  0  0  0  0  0  0  0
  160.7726   49.0737  147.1915 O   0  0  0  0  0  0  0  0  0  0  0  0
  158.9734   47.4796  148.8442 C   0  0  0  0  0  0  0  0  0  0  0  0
  159.5420   46.8656  147.6949 O   0  0  0  0  0  0  0  0  0  0  0  0
  158.2913   46.4325  149.7092 C   0  0  1  0  0  0  0  0  0  0  0  0
  156.8898   46.5369  149.5027 O   0  0  0  0  0  0  0  0  0  0  0  0
  158.6598   44.9856  149.4070 C   0  0  1  0  0  0  0  0  0  0  0  0
  159.5570   44.5041  150.3968 O   0  0  0  0  0  0  0  0  0  0  0  0
  157.3487   44.2482  149.5630 C   0  0  1  0  0  0  0  0  0  0  0  0
  157.2013   43.8126  150.9160 O   0  0  0  0  0  0  0  0  0  0  0  0
  156.2774   45.2702  149.3157 C   0  0  2  0  0  0  0  0  0  0  0  0
  163.2207   43.7277  145.6856 C   0  0  1  0  0  0  0  0  0  0  0  0
  155.9096   47.6637  144.6592 N   0  0  0  0  0  0  0  0  0  0  0  0
  156.4153   48.1084  145.8252 C   0  0  1  0  0  0  0  0  0  0  0  0
  162.5090   45.0577  145.5519 C   0  0  2  0  0  0  0  0  0  0  0  0
  156.9284   49.3576  145.8847 N   0  0  0  0  0  0  0  0  0  0  0  0
  163.4704   46.0153  145.0995 O   0  0  0  0  0  0  0  0  0  0  0  0
  162.0251   45.3976  146.9492 C   0  0  2  0  0  0  0  0  0  0  0  0
  156.4389   47.3714  146.9588 N   0  0  0  0  0  0  0  0  0  0  0  0
  161.9822   46.8081  147.1608 O   0  0  0  0  0  0  0  0  0  0  0  0
  155.9423   46.1160  146.9809 C   0  0  2  0  0  0  0  0  0  0  0  0
  163.0672   44.7115  147.8296 C   0  0  2  0  0  0  0  0  0  0  0  0
  163.6328   43.6533  147.0530 O   0  0  0  0  0  0  0  0  0  0  0  0
  155.3736   45.5672  145.7459 C   0  0  2  0  0  0  0  0  0  0  0  0
  162.5308   44.1422  149.1468 C   0  0  0  0  0  0  0  0  0  0  0  0
  161.3284   43.3908  148.9855 O   0  0  0  0  0  0  0  0  0  0  0  0
  155.3825   46.4327  144.5431 C   0  0  0  0  0  0  0  0  0  0  0  0
  154.9114   46.0134  143.4586 O   0  0  0  0  0  0  0  0  0  0  0  0
  154.9549   44.3252  146.0475 N   0  0  0  0  0  0  0  0  0  0  0  0
  155.2304   44.0950  147.3537 C   0  0  0  0  0  0  0  0  0  0  0  0
  155.8217   45.1671  147.9091 N   0  0  1  0  0  0  0  0  0  0  0  0
  160.1175   41.3508  142.1701 N   0  0  0  0  0  0  0  0  0  0  0  0
  161.2239   42.9916  151.5081 O   0  5  0  0  0  0  0  0  0  0  0  0
  160.9185   42.4182  142.0283 C   0  0  2  0  0  0  0  0  0  0  0  0
  160.9665   42.9981  140.8198 N   0  0  0  0  0  0  0  0  0  0  0  0
  159.4140   42.0097  149.8666 O   0  0  0  0  0  0  0  0  0  0  0  0
  161.6722   42.9276  143.0307 N   0  0  0  0  0  0  0  0  0  0  0  0
  161.6538   42.3676  144.2584 C   0  0  1  0  0  0  0  0  0  0  0  0
  160.7910   41.1898  144.4796 C   0  0  1  0  0  0  0  0  0  0  0  0
  160.0043   40.6898  143.3234 C   0  0  0  0  0  0  0  0  0  0  0  0
  159.2409   39.7040  143.4094 O   0  0  0  0  0  0  0  0  0  0  0  0
  160.9605   40.8318  145.7624 N   0  0  0  0  0  0  0  0  0  0  0  0
  161.8477   41.7085  146.3097 C   0  0  0  0  0  0  0  0  0  0  0  0
  162.2658   42.6247  145.4140 N   0  0  2  0  0  0  0  0  0  0  0  0
  1  3  1  6  0  0  0
  1  4  2  0  0  0  0
  1  6  1  0  0  0  0
  1 22  1  0  0  0  0
  2 28  1  0  0  0  0
  2 35  1  1  0  0  0
  2 38  2  0  0  0  0
  2 10  1  0  0  0  0
  5  6  1  0  0  0  0
  7  5  1  6  0  0  0
  7  8  1  0  0  0  0
  7  9  1  0  0  0  0
  9 10  1  1  0  0  0
  9 11  1  0  0  0  0
 11 12  1  1  0  0  0
 11 13  1  0  0  0  0
 13  8  1  6  0  0  0
 13 33  1  0  0  0  0
 14 46  1  0  0  0  0
 14 17  1  0  0  0  0
 14 25  1  1  0  0  0
 15 16  1  0  0  0  0
 15 29  1  0  0  0  0
 16 18  1  1  0  0  0
 16 21  1  0  0  0  0
 17 19  1  1  0  0  0
 17 20  1  0  0  0  0
 20 22  1  6  0  0  0
 20 24  1  0  0  0  0
 23 21  1  1  0  0  0
 23 26  1  0  0  0  0
 23 33  1  0  0  0  0
 24 25  1  6  0  0  0
 24 27  1  0  0  0  0
 26 29  1  1  0  0  0
 26 31  1  0  0  0  0
 27 28  1  0  0  0  0
 29 30  2  0  0  0  0
 31 32  1  0  0  0  0
 33 32  1  6  0  0  0
 34 36  1  0  0  0  0
 34 42  1  0  0  0  0
 36 37  1  6  0  0  0
 36 39  1  0  0  0  0
 40 39  1  6  0  0  0
 40 41  1  0  0  0  0
 40 46  1  0  0  0  0
 41 42  1  6  0  0  0
 41 44  1  0  0  0  0
 42 43  2  0  0  0  0
 44 45  1  0  0  0  0
 46 45  1  1  0  0  0
M  CHG  2   3  -1  35  -1
M  END
>  <CHROM.1>
-1.24208618,64.72548049,159.51293195,44.72196103,146.82186519,-2.53004449
0.56771380,-1.82516053

>  <Name>
ligand

>  <RI>
0

>  <Rbt.Current_Directory>
/home/itssahil/PROJECTS/Mol_Feturizer/Test_systems_manuscript/rnas/4yb0

>  <Rbt.Executable>
rbdock ($Id: //depot/dev/client3/rdock/2013.1/src/exe/rbdock.cxx#4 $)

>  <Rbt.Library>
libRbt.so (2013.1, Build901 2013/11/27)

>  <Rbt.Parameter_File>
/export/apps/rDock/src/rDock_2013.1_src/data/scripts/dock_solv.prm

>  <Rbt.Receptor>
prm/pocket_docking_5.prm

>  <SCORE>
-23.6328

>  <SCORE.INTER>
-24.6489

>  <SCORE.INTER.CONST>
1

>  <SCORE.INTER.POLAR>
0

>  <SCORE.INTER.ROT>
2

>  <SCORE.INTER.SOLV>
19.7848

>  <SCORE.INTER.VDW>
-27.9609

>  <SCORE.INTER.norm>
-0.535845

>  <SCORE.INTRA>
0.571772

>  <SCORE.INTRA.DIHEDRAL>
-0.0280521

>  <SCORE.INTRA.DIHEDRAL.0>
2.42188

>  <SCORE.INTRA.POLAR>
0

>  <SCORE.INTRA.POLAR.0>
0

>  <SCORE.INTRA.REPUL>
0

>  <SCORE.INTRA.REPUL.0>
0

>  <SCORE.INTRA.SOLV>
2.96532

>  <SCORE.INTRA.SOLV.lig_0>
-127.307

>  <SCORE.INTRA.VDW>
-0.896863

>  <SCORE.INTRA.VDW.0>
-2.19936

>  <SCORE.INTRA.norm>
0.0124298

>  <SCORE.RESTR>
0.444304

>  <SCORE.RESTR.CAVITY>
0.444304

>  <SCORE.RESTR.norm>
0.00965878

>  <SCORE.SYSTEM>
0

>  <SCORE.SYSTEM.CONST>
0

>  <SCORE.SYSTEM.DIHEDRAL>
0

>  <SCORE.SYSTEM.SOLV>
0

>  <SCORE.SYSTEM.norm>
0

>  <SCORE.heavy>
46

>  <SCORE.norm>
-0.513757

>  <RMSD>
4.146

$$$$
ligand
 OpenBabel02271912143D
libRbt.so/2013.1/901 2013/11/27
 46 52  0  0  0  0  0  0  0  0999 V2000
  160.5212   47.7110  146.7972 P   0  0  1  0  0  0  0  0  0  0  0  0
  160.2703   43.2308  150.3037 P   0  0  1  0  0  0  0  0  0  0  0  0
  160.2221   47.4151  145.3501 O   0  5  0  0  0  0  0  0  0  0  0  0
  160.6458   49.1691  147.1818 O   0  0  0  0  0  0  0  0  0  0  0  0
  158.8504   47.5810  148.8444 C   0  0  0  0  0  0  0  0  0  0  0  0
  159.4259   46.9591  147.7028 O   0  0  0  0  0  0  0  0  0  0  0  0
  158.1716   46.5386  149.7175 C   0  0  1  0  0  0  0  0  0  0  0  0
  156.7701   46.6332  149.5058 O   0  0  0  0  0  0  0  0  0  0  0  0
  158.5490   45.0908  149.4304 C   0  0  1  0  0  0  0  0  0  0  0  0
  159.4459   44.6240  150.4275 O   0  0  0  0  0  0  0  0  0  0  0  0
  157.2415   44.3477  149.5896 C   0  0  1  0  0  0  0  0  0  0  0  0
  157.0925   43.9244  150.9463 O   0  0  0  0  0  0  0  0  0  0  0  0
  156.1653   45.3613  149.3292 C   0  0  2  0  0  0  0  0  0  0  0  0
  163.1282   43.8226  145.7350 C   0  0  1  0  0  0  0  0  0  0  0  0
  155.9663   47.6316  144.6014 N   0  0  0  0  0  0  0  0  0  0  0  0
  156.4881   48.0818  145.7581 C   0  0  1  0  0  0  0  0  0  0  0  0
  162.4095   45.1473  145.5863 C   0  0  2  0  0  0  0  0  0  0  0  0
  157.0706   49.3013  145.7853 N   0  0  0  0  0  0  0  0  0  0  0  0
  163.3669   46.1057  145.1275 O   0  0  0  0  0  0  0  0  0  0  0  0
  161.9194   45.4979  146.9788 C   0  0  2  0  0  0  0  0  0  0  0  0
  156.4620   47.3788  146.9131 N   0  0  0  0  0  0  0  0  0  0  0  0
  161.8680   46.9101  147.1766 O   0  0  0  0  0  0  0  0  0  0  0  0
  155.8952   46.1546  146.9677 C   0  0  2  0  0  0  0  0  0  0  0  0
  162.9627   44.8261  147.8689 C   0  0  2  0  0  0  0  0  0  0  0  0
  163.5365   43.7637  147.1043 O   0  0  0  0  0  0  0  0  0  0  0  0
  155.3051   45.6020  145.7445 C   0  0  2  0  0  0  0  0  0  0  0  0
  162.4254   44.2666  149.1899 C   0  0  0  0  0  0  0  0  0  0  0  0
  161.2277   43.5070  149.0323 O   0  0  0  0  0  0  0  0  0  0  0  0
  155.3714   46.4294  144.5169 C   0  0  0  0  0  0  0  0  0  0  0  0
  154.8850   46.0051  143.4411 O   0  0  0  0  0  0  0  0  0  0  0  0
  154.8147   44.3951  146.0787 N   0  0  0  0  0  0  0  0  0  0  0  0
  155.0675   44.1889  147.3936 C   0  0  0  0  0  0  0  0  0  0  0  0
  155.7145   45.2421  147.9223 N   0  0  1  0  0  0  0  0  0  0  0  0
  160.1050   41.3511  142.2151 N   0  0  0  0  0  0  0  0  0  0  0  0
  161.1177   43.1316  151.5583 O   0  5  0  0  0  0  0  0  0  0  0  0
  160.9082   42.4154  142.0632 C   0  0  2  0  0  0  0  0  0  0  0  0
  160.9825   42.9637  140.8413 N   0  0  0  0  0  0  0  0  0  0  0  0
  159.3183   42.1238  149.9210 O   0  0  0  0  0  0  0  0  0  0  0  0
  161.6392   42.9517  143.0683 N   0  0  0  0  0  0  0  0  0  0  0  0
  161.5940   42.4238  144.3095 C   0  0  1  0  0  0  0  0  0  0  0  0
  160.7273   41.2511  144.5423 C   0  0  1  0  0  0  0  0  0  0  0  0
  159.9668   40.7202  143.3823 C   0  0  0  0  0  0  0  0  0  0  0  0
  159.2023   39.7361  143.4772 O   0  0  0  0  0  0  0  0  0  0  0  0
  160.8687   40.9269  145.8373 N   0  0  0  0  0  0  0  0  0  0  0  0
  161.7430   41.8186  146.3811 C   0  0  0  0  0  0  0  0  0  0  0  0
  162.1802   42.7117  145.4713 N   0  0  2  0  0  0  0  0  0  0  0  0
  1  3  1  6  0  0  0
  1  4  2  0  0  0  0
  1  6  1  0  0  0  0
  1 22  1  0  0  0  0
  2 28  1  0  0  0  0
  2 35  1  1  0  0  0
  2 38  2  0  0  0  0
  2 10  1  0  0  0  0
  5  6  1  0  0  0  0
  7  5  1  6  0  0  0
  7  8  1  0  0  0  0
  7  9  1  0  0  0  0
  9 10  1  1  0  0  0
  9 11  1  0  0  0  0
 11 12  1  1  0  0  0
 11 13  1  0  0  0  0
 13  8  1  6  0  0  0
 13 33  1  0  0  0  0
 14 46  1  0  0  0  0
 14 17  1  0  0  0  0
 14 25  1  1  0  0  0
 15 16  1  0  0  0  0
 15 29  1  0  0  0  0
 16 18  1  1  0  0  0
 16 21  1  0  0  0  0
 17 19  1  1  0  0  0
 17 20  1  0  0  0  0
 20 22  1  6  0  0  0
 20 24  1  0  0  0  0
 23 21  1  1  0  0  0
 23 26  1  0  0  0  0
 23 33  1  0  0  0  0
 24 25  1  6  0  0  0
 24 27  1  0  0  0  0
 26 29  1  1  0  0  0
 26 31  1  0  0  0  0
 27 28  1  0  0  0  0
 29 30  2  0  0  0  0
 31 32  1  0  0  0  0
 33 32  1  6  0  0  0
 34 36  1  0  0  0  0
 34 42  1  0  0  0  0
 36 37  1  6  0  0  0
 36 39  1  0  0  0  0
 40 39  1  6  0  0  0
 40 41  1  0  0  0  0
 40 46  1  0  0  0  0
 41 42  1  6  0  0  0
 41 44  1  0  0  0  0
 42 43  2  0  0  0  0
 44 45  1  0  0  0  0
 46 45  1  1  0  0  0
M  CHG  2   3  -1  35  -1
M  END
>  <CHROM.1>
2.50070713,66.19042787,159.43581758,44.79401857,146.84333588,-2.49437817
0.56282668,-1.82843676

>  <Name>
ligand

>  <RI>
0

>  <Rbt.Current_Directory>
/home/itssahil/PROJECTS/Mol_Feturizer/Test_systems_manuscript/rnas/4yb0

>  <Rbt.Executable>
rbdock ($Id: //depot/dev/client3/rdock/2013.1/src/exe/rbdock.cxx#4 $)

>  <Rbt.Library>
libRbt.so (2013.1, Build901 2013/11/27)

>  <Rbt.Parameter_File>
/export/apps/rDock/src/rDock_2013.1_src/data/scripts/dock_solv.prm

>  <Rbt.Receptor>
prm/pocket_docking_6.prm

>  <SCORE>
-24.0103

>  <SCORE.INTER>
-25.0654

>  <SCORE.INTER.CONST>
1

>  <SCORE.INTER.POLAR>
0

>  <SCORE.INTER.ROT>
2

>  <SCORE.INTER.SOLV>
19.0159

>  <SCORE.INTER.VDW>
-27.9822

>  <SCORE.INTER.norm>
-0.544901

>  <SCORE.INTRA>
1.05517

>  <SCORE.INTRA.DIHEDRAL>
-0.0347257

>  <SCORE.INTRA.DIHEDRAL.0>
2.42188

>  <SCORE.INTRA.POLAR>
0

>  <SCORE.INTRA.POLAR.0>
0

>  <SCORE.INTRA.REPUL>
0

>  <SCORE.INTRA.REPUL.0>
0

>  <SCORE.INTRA.SOLV>
4.46665

>  <SCORE.INTRA.SOLV.lig_0>
-127.307

>  <SCORE.INTRA.VDW>
-1.16079

>  <SCORE.INTRA.VDW.0>
-2.19936

>  <SCORE.INTRA.norm>
0.0229385

>  <SCORE.RESTR>
0

>  <SCORE.RESTR.CAVITY>
0

>  <SCORE.RESTR.norm>
0

>  <SCORE.SYSTEM>
0

>  <SCORE.SYSTEM.CONST>
0

>  <SCORE.SYSTEM.DIHEDRAL>
0

>  <SCORE.SYSTEM.SOLV>
0

>  <SCORE.SYSTEM.norm>
0

>  <SCORE.heavy>
46

>  <SCORE.norm>
-0.521962

>  <RMSD>
4.159

$$$$
ligand
 OpenBabel02271912143D
libRbt.so/2013.1/901 2013/11/27
 46 52  0  0  0  0  0  0  0  0999 V2000
  162.4171   42.6304  148.6886 P   0  0  1  0  0  0  0  0  0  0  0  0
  160.7996   47.4520  146.1260 P   0  0  1  0  0  0  0  0  0  0  0  0
  161.3163   41.6322  148.9391 O   0  5  0  0  0  0  0  0  0  0  0  0
  163.8322   42.1626  148.9503 O   0  0  0  0  0  0  0  0  0  0  0  0
  163.3820   43.4084  146.3513 C   0  0  0  0  0  0  0  0  0  0  0  0
  162.2556   43.1950  147.1919 O   0  0  0  0  0  0  0  0  0  0  0  0
  162.9952   44.2942  145.1785 C   0  0  1  0  0  0  0  0  0  0  0  0
  162.8503   43.4676  144.0324 O   0  0  0  0  0  0  0  0  0  0  0  0
  161.6806   45.0494  145.3279 C   0  0  1  0  0  0  0  0  0  0  0  0
  161.9436   46.4114  145.6316 O   0  0  0  0  0  0  0  0  0  0  0  0
  161.0780   44.9851  143.9423 C   0  0  1  0  0  0  0  0  0  0  0  0
  161.5113   46.1120  143.1780 O   0  0  0  0  0  0  0  0  0  0  0  0
  161.6733   43.7671  143.2978 C   0  0  2  0  0  0  0  0  0  0  0  0
  158.8296   45.1626  150.6282 C   0  0  1  0  0  0  0  0  0  0  0  0
  158.0418   40.8035  140.9365 N   0  0  0  0  0  0  0  0  0  0  0  0
  158.7430   41.8531  140.4680 C   0  0  1  0  0  0  0  0  0  0  0  0
  159.7675   44.0134  150.3229 C   0  0  2  0  0  0  0  0  0  0  0  0
  158.5353   42.2677  139.1982 N   0  0  0  0  0  0  0  0  0  0  0  0
  160.3463   43.5916  151.5610 O   0  0  0  0  0  0  0  0  0  0  0  0
  160.8256   44.5911  149.4016 C   0  0  2  0  0  0  0  0  0  0  0  0
  159.6543   42.5306  141.2025 N   0  0  0  0  0  0  0  0  0  0  0  0
  162.0825   43.9373  149.5714 O   0  0  0  0  0  0  0  0  0  0  0  0
  159.9156   42.1796  142.4798 C   0  0  2  0  0  0  0  0  0  0  0  0
  160.8706   46.0544  149.8360 C   0  0  2  0  0  0  0  0  0  0  0  0
  159.6053   46.3480  150.4322 O   0  0  0  0  0  0  0  0  0  0  0  0
  159.1868   41.0456  143.0564 C   0  0  2  0  0  0  0  0  0  0  0  0
  161.1454   47.0572  148.7111 C   0  0  0  0  0  0  0  0  0  0  0  0
  160.3533   46.8263  147.5468 O   0  0  0  0  0  0  0  0  0  0  0  0
  158.2038   40.3512  142.1918 C   0  0  0  0  0  0  0  0  0  0  0  0
  157.5538   39.3727  142.6323 O   0  0  0  0  0  0  0  0  0  0  0  0
  159.6299   40.9206  144.3201 N   0  0  0  0  0  0  0  0  0  0  0  0
  160.5588   41.8827  144.5361 C   0  0  0  0  0  0  0  0  0  0  0  0
  160.7283   42.6334  143.4338 N   0  0  1  0  0  0  0  0  0  0  0  0
  156.3074   42.5618  146.8188 N   0  0  0  0  0  0  0  0  0  0  0  0
  161.5069   48.7738  146.3593 O   0  5  0  0  0  0  0  0  0  0  0  0
  157.3778   42.2016  147.5436 C   0  0  2  0  0  0  0  0  0  0  0  0
  157.9185   41.0002  147.2914 N   0  0  0  0  0  0  0  0  0  0  0  0
  159.6123   47.3605  145.1985 O   0  0  0  0  0  0  0  0  0  0  0  0
  157.9274   42.9794  148.5054 N   0  0  0  0  0  0  0  0  0  0  0  0
  157.4075   44.1917  148.7905 C   0  0  1  0  0  0  0  0  0  0  0  0
  156.2287   44.6471  148.0266 C   0  0  1  0  0  0  0  0  0  0  0  0
  155.6832   43.7275  146.9958 C   0  0  0  0  0  0  0  0  0  0  0  0
  154.6928   44.0222  146.2927 O   0  0  0  0  0  0  0  0  0  0  0  0
  155.9145   45.8620  148.5037 N   0  0  0  0  0  0  0  0  0  0  0  0
  156.8177   46.1555  149.4800 C   0  0  0  0  0  0  0  0  0  0  0  0
  157.7085   45.1595  149.6559 N   0  0  2  0  0  0  0  0  0  0  0  0
  1  3  1  1  0  0  0
  1  4  2  0  0  0  0
  1  6  1  0  0  0  0
  1 22  1  0  0  0  0
  2 28  1  0  0  0  0
  2 35  1  1  0  0  0
  2 38  2  0  0  0  0
  2 10  1  0  0  0  0
  5  6  1  0  0  0  0
  7  5  1  1  0  0  0
  7  8  1  0  0  0  0
  7  9  1  0  0  0  0
  9 10  1  6  0  0  0
  9 11  1  0  0  0  0
 11 12  1  6  0  0  0
 11 13  1  0  0  0  0
 13  8  1  1  0  0  0
 13 33  1  0  0  0  0
 14 46  1  0  0  0  0
 14 17  1  0  0  0  0
 14 25  1  6  0  0  0
 15 16  1  0  0  0  0
 15 29  1  0  0  0  0
 16 18  1  1  0  0  0
 16 21  1  0  0  0  0
 17 19  1  1  0  0  0
 17 20  1  0  0  0  0
 20 22  1  1  0  0  0
 20 24  1  0  0  0  0
 23 21  1  1  0  0  0
 23 26  1  0  0  0  0
 23 33  1  0  0  0  0
 24 25  1  6  0  0  0
 24 27  1  0  0  0  0
 26 29  1  1  0  0  0
 26 31  1  0  0  0  0
 27 28  1  0  0  0  0
 29 30  2  0  0  0  0
 31 32  1  0  0  0  0
 33 32  1  6  0  0  0
 34 36  1  0  0  0  0
 34 42  1  0  0  0  0
 36 37  1  1  0  0  0
 36 39  1  0  0  0  0
 40 39  1  1  0  0  0
 40 41  1  0  0  0  0
 40 46  1  0  0  0  0
 41 42  1  1  0  0  0
 41 44  1  0  0  0  0
 42 43  2  0  0  0  0
 44 45  1  0  0  0  0
 46 45  1  6  0  0  0
M  CHG  2   3  -1  35  -1
M  END
>  <CHROM.1>
-143.38467719,11.00648268,159.89578286,43.94721994,146.37822610,-1.45736027
-0.39847977,-1.95638993

>  <Name>
ligand

>  <RI>
0

>  <Rbt.Current_Directory>
/home/itssahil/PROJECTS/Mol_Feturizer/Test_systems_manuscript/rnas/4yb0

>  <Rbt.Executable>
rbdock ($Id: //depot/dev/client3/rdock/2013.1/src/exe/rbdock.cxx#4 $)

>  <Rbt.Library>
libRbt.so (2013.1, Build901 2013/11/27)

>  <Rbt.Parameter_File>
/export/apps/rDock/src/rDock_2013.1_src/data/scripts/dock_solv.prm

>  <Rbt.Receptor>
prm/pocket_docking_7.prm

>  <SCORE>
-21.755

>  <SCORE.INTER>
-22.5332

>  <SCORE.INTER.CONST>
1

>  <SCORE.INTER.POLAR>
0

>  <SCORE.INTER.ROT>
2

>  <SCORE.INTER.SOLV>
23.4176

>  <SCORE.INTER.VDW>
-27.7614

>  <SCORE.INTER.norm>
-0.489853

>  <SCORE.INTRA>
0.778219

>  <SCORE.INTRA.DIHEDRAL>
0.0168271

>  <SCORE.INTRA.DIHEDRAL.0>
2.42188

>  <SCORE.INTRA.POLAR>
0

>  <SCORE.INTRA.POLAR.0>
0

>  <SCORE.INTRA.REPUL>
0

>  <SCORE.INTRA.REPUL.0>
0

>  <SCORE.INTRA.SOLV>
1.72044

>  <SCORE.INTRA.SOLV.lig_0>
-127.307

>  <SCORE.INTRA.VDW>
-0.0904161

>  <SCORE.INTRA.VDW.0>
-2.19936

>  <SCORE.INTRA.norm>
0.0169178

>  <SCORE.RESTR>
0

>  <SCORE.RESTR.CAVITY>
0

>  <SCORE.RESTR.norm>
0

>  <SCORE.SYSTEM>
0

>  <SCORE.SYSTEM.CONST>
0

>  <SCORE.SYSTEM.DIHEDRAL>
0

>  <SCORE.SYSTEM.SOLV>
0

>  <SCORE.SYSTEM.norm>
0

>  <SCORE.heavy>
46

>  <SCORE.norm>
-0.472935

>  <RMSD>
4.169

$$$$
ligand
 OpenBabel02271912143D
libRbt.so/2013.1/901 2013/11/27
 46 52  0  0  0  0  0  0  0  0999 V2000
  157.8184   41.9714  147.2851 P   0  0  1  0  0  0  0  0  0  0  0  0
  161.7451   46.0297  146.5487 P   0  0  1  0  0  0  0  0  0  0  0  0
  156.5692   42.1244  146.4562 O   0  5  0  0  0  0  0  0  0  0  0  0
  157.9748   40.6733  148.0467 O   0  0  0  0  0  0  0  0  0  0  0  0
  160.2676   41.4612  146.4244 C   0  0  0  0  0  0  0  0  0  0  0  0
  159.0886   42.2511  146.3399 O   0  0  0  0  0  0  0  0  0  0  0  0
  161.4184   42.1685  145.7278 C   0  0  1  0  0  0  0  0  0  0  0  0
  161.6196   41.5444  144.4677 O   0  0  0  0  0  0  0  0  0  0  0  0
  161.2053   43.6493  145.4406 C   0  0  1  0  0  0  0  0  0  0  0  0
  161.9414   44.4277  146.3727 O   0  0  0  0  0  0  0  0  0  0  0  0
  161.8292   43.8368  144.0758 C   0  0  1  0  0  0  0  0  0  0  0  0
  163.2095   44.1766  144.2219 O   0  0  0  0  0  0  0  0  0  0  0  0
  161.7802   42.4877  143.4193 C   0  0  2  0  0  0  0  0  0  0  0  0
  156.5005   46.5567  147.8166 C   0  0  1  0  0  0  0  0  0  0  0  0
  157.3541   39.9244  142.2418 N   0  0  0  0  0  0  0  0  0  0  0  0
  158.2799   39.6679  143.1853 C   0  0  1  0  0  0  0  0  0  0  0  0
  156.4154   45.0572  147.6219 C   0  0  2  0  0  0  0  0  0  0  0  0
  158.1123   38.5997  143.9967 N   0  0  0  0  0  0  0  0  0  0  0  0
  155.5853   44.5358  148.6634 O   0  0  0  0  0  0  0  0  0  0  0  0
  157.8391   44.5516  147.7623 C   0  0  2  0  0  0  0  0  0  0  0  0
  159.3859   40.4234  143.3717 N   0  0  0  0  0  0  0  0  0  0  0  0
  157.8755   43.2279  148.2937 O   0  0  0  0  0  0  0  0  0  0  0  0
  159.6260   41.5046  142.5995 C   0  0  2  0  0  0  0  0  0  0  0  0
  158.4547   45.5749  148.7140 C   0  0  2  0  0  0  0  0  0  0  0  0
  157.6855   46.7728  148.5874 O   0  0  0  0  0  0  0  0  0  0  0  0
  158.6598   41.8427  141.5498 C   0  0  2  0  0  0  0  0  0  0  0  0
  159.9316   45.8919  148.4593 C   0  0  0  0  0  0  0  0  0  0  0  0
  160.2247   46.1353  147.0840 O   0  0  0  0  0  0  0  0  0  0  0  0
  157.4714   40.9694  141.4047 C   0  0  0  0  0  0  0  0  0  0  0  0
  156.6108   41.2133  140.5250 O   0  0  0  0  0  0  0  0  0  0  0  0
  159.1401   42.9410  140.9398 N   0  0  0  0  0  0  0  0  0  0  0  0
  160.3053   43.2797  141.5421 C   0  0  0  0  0  0  0  0  0  0  0  0
  160.5929   42.4197  142.5346 N   0  0  1  0  0  0  0  0  0  0  0  0
  159.0373   50.1935  144.9924 N   0  0  0  0  0  0  0  0  0  0  0  0
  162.6967   46.4505  147.6529 O   0  5  0  0  0  0  0  0  0  0  0  0
  159.1931   49.8385  146.2772 C   0  0  2  0  0  0  0  0  0  0  0  0
  160.1305   50.4841  146.9870 N   0  0  0  0  0  0  0  0  0  0  0  0
  161.7931   46.6871  145.1908 O   0  0  0  0  0  0  0  0  0  0  0  0
  158.4632   48.8717  146.8811 N   0  0  0  0  0  0  0  0  0  0  0  0
  157.5151   48.1971  146.1974 C   0  0  1  0  0  0  0  0  0  0  0  0
  157.2939   48.5417  144.7787 C   0  0  1  0  0  0  0  0  0  0  0  0
  158.1449   49.6081  144.1920 C   0  0  0  0  0  0  0  0  0  0  0  0
  158.0317   49.9764  143.0030 O   0  0  0  0  0  0  0  0  0  0  0  0
  156.3168   47.7322  144.3403 N   0  0  0  0  0  0  0  0  0  0  0  0
  155.9454   46.9469  145.3894 C   0  0  0  0  0  0  0  0  0  0  0  0
  156.6606   47.2197  146.4987 N   0  0  2  0  0  0  0  0  0  0  0  0
  1  3  1  6  0  0  0
  1  4  2  0  0  0  0
  1  6  1  0  0  0  0
  1 22  1  0  0  0  0
  2 28  1  0  0  0  0
  2 35  1  1  0  0  0
  2 38  2  0  0  0  0
  2 10  1  0  0  0  0
  5  6  1  0  0  0  0
  7  5  1  6  0  0  0
  7  8  1  0  0  0  0
  7  9  1  0  0  0  0
  9 10  1  1  0  0  0
  9 11  1  0  0  0  0
 11 12  1  1  0  0  0
 11 13  1  0  0  0  0
 13  8  1  1  0  0  0
 13 33  1  0  0  0  0
 14 46  1  0  0  0  0
 14 17  1  0  0  0  0
 14 25  1  1  0  0  0
 15 16  1  0  0  0  0
 15 29  1  0  0  0  0
 16 18  1  6  0  0  0
 16 21  1  0  0  0  0
 17 19  1  1  0  0  0
 17 20  1  0  0  0  0
 20 22  1  1  0  0  0
 20 24  1  0  0  0  0
 23 21  1  6  0  0  0
 23 26  1  0  0  0  0
 23 33  1  0  0  0  0
 24 25  1  6  0  0  0
 24 27  1  0  0  0  0
 26 29  1  6  0  0  0
 26 31  1  0  0  0  0
 27 28  1  0  0  0  0
 29 30  2  0  0  0  0
 31 32  1  0  0  0  0
 33 32  1  1  0  0  0
 34 36  1  0  0  0  0
 34 42  1  0  0  0  0
 36 37  1  6  0  0  0
 36 39  1  0  0  0  0
 40 39  1  6  0  0  0
 40 41  1  0  0  0  0
 40 46  1  0  0  0  0
 41 42  1  6  0  0  0
 41 44  1  0  0  0  0
 42 43  2  0  0  0  0
 44 45  1  0  0  0  0
 46 45  1  1  0  0  0
M  CHG  2   3  -1  35  -1
M  END
>  <CHROM.1>
-8.56267419,-134.89577110,159.06548345,44.48778720,145.45351274,1.50619006
-0.92278878,-2.79854500

>  <Name>
ligand

>  <RI>
0

>  <Rbt.Current_Directory>
/home/itssahil/PROJECTS/Mol_Feturizer/Test_systems_manuscript/rnas/4yb0

>  <Rbt.Executable>
rbdock ($Id: //depot/dev/client3/rdock/2013.1/src/exe/rbdock.cxx#4 $)

>  <Rbt.Library>
libRbt.so (2013.1, Build901 2013/11/27)

>  <Rbt.Parameter_File>
/export/apps/rDock/src/rDock_2013.1_src/data/scripts/dock_solv.prm

>  <Rbt.Receptor>
prm/pocket_docking_5.prm

>  <SCORE>
-7.33073

>  <SCORE.INTER>
-7.08712

>  <SCORE.INTER.CONST>
1

>  <SCORE.INTER.POLAR>
0

>  <SCORE.INTER.ROT>
2

>  <SCORE.INTER.SOLV>
31.1423

>  <SCORE.INTER.VDW>
-20.0388

>  <SCORE.INTER.norm>
-0.154068

>  <SCORE.INTRA>
-0.807622

>  <SCORE.INTRA.DIHEDRAL>
-0.0321317

>  <SCORE.INTRA.DIHEDRAL.0>
2.42188

>  <SCORE.INTRA.POLAR>
0

>  <SCORE.INTRA.POLAR.0>
0

>  <SCORE.INTRA.REPUL>
0

>  <SCORE.INTRA.REPUL.0>
0

>  <SCORE.INTRA.SOLV>
0.521449

>  <SCORE.INTRA.SOLV.lig_0>
-127.307

>  <SCORE.INTRA.VDW>
-1.05228

>  <SCORE.INTRA.VDW.0>
-2.19936

>  <SCORE.INTRA.norm>
-0.017557

>  <SCORE.RESTR>
0.564016

>  <SCORE.RESTR.CAVITY>
0.564016

>  <SCORE.RESTR.norm>
0.0122612

>  <SCORE.SYSTEM>
0

>  <SCORE.SYSTEM.CONST>
0

>  <SCORE.SYSTEM.DIHEDRAL>
0

>  <SCORE.SYSTEM.SOLV>
0

>  <SCORE.SYSTEM.norm>
0

>  <SCORE.heavy>
46

>  <SCORE.norm>
-0.159364

>  <RMSD>
4.256

$$$$
ligand
 OpenBabel02271912143D
libRbt.so/2013.1/901 2013/11/27
 46 52  0  0  0  0  0  0  0  0999 V2000
  158.1013   42.2784  149.0755 P   0  0  1  0  0  0  0  0  0  0  0  0
  161.6623   46.6910  148.5465 P   0  0  1  0  0  0  0  0  0  0  0  0
  157.1839   42.0455  147.9028 O   0  5  0  0  0  0  0  0  0  0  0  0
  158.1182   41.2115  150.1484 O   0  0  0  0  0  0  0  0  0  0  0  0
  160.7332   42.0156  149.1361 C   0  0  0  0  0  0  0  0  0  0  0  0
  159.5797   42.5631  148.5110 O   0  0  0  0  0  0  0  0  0  0  0  0
  161.9785   42.7441  148.6585 C   0  0  1  0  0  0  0  0  0  0  0  0
  162.6378   41.9142  147.7127 O   0  0  0  0  0  0  0  0  0  0  0  0
  161.7362   44.0763  147.9603 C   0  0  1  0  0  0  0  0  0  0  0  0
  162.0517   45.1429  148.8431 O   0  0  0  0  0  0  0  0  0  0  0  0
  162.7526   44.0772  146.8405 C   0  0  1  0  0  0  0  0  0  0  0  0
  163.9716   44.6649  147.2995 O   0  0  0  0  0  0  0  0  0  0  0  0
  163.0454   42.6322  146.5582 C   0  0  2  0  0  0  0  0  0  0  0  0
  156.2667   46.5890  148.0281 C   0  0  1  0  0  0  0  0  0  0  0  0
  161.3249   43.7488  141.7271 N   0  0  0  0  0  0  0  0  0  0  0  0
  162.1148   44.4613  142.5524 C   0  0  1  0  0  0  0  0  0  0  0  0
  156.3882   45.0891  148.1983 C   0  0  2  0  0  0  0  0  0  0  0  0
  162.5784   45.6632  142.1426 N   0  0  0  0  0  0  0  0  0  0  0  0
  155.3144   44.6647  149.0425 O   0  0  0  0  0  0  0  0  0  0  0  0
  157.7275   44.8680  148.8763 C   0  0  2  0  0  0  0  0  0  0  0  0
  162.4759   44.0431  143.7867 N   0  0  0  0  0  0  0  0  0  0  0  0
  157.7093   43.7086  149.7079 O   0  0  0  0  0  0  0  0  0  0  0  0
  162.0510   42.8557  144.2690 C   0  0  2  0  0  0  0  0  0  0  0  0
  157.9008   46.1547  149.6803 C   0  0  2  0  0  0  0  0  0  0  0  0
  157.1089   47.1549  149.0359 O   0  0  0  0  0  0  0  0  0  0  0  0
  161.1854   42.0271  143.4241 C   0  0  2  0  0  0  0  0  0  0  0  0
  159.3439   46.6533  149.8042 C   0  0  0  0  0  0  0  0  0  0  0  0
  160.0475   46.6508  148.5627 O   0  0  0  0  0  0  0  0  0  0  0  0
  160.8317   42.5504  142.0836 C   0  0  0  0  0  0  0  0  0  0  0  0
  160.0965   41.8821  141.3175 O   0  0  0  0  0  0  0  0  0  0  0  0
  160.9114   40.9223  144.1404 N   0  0  0  0  0  0  0  0  0  0  0  0
  161.5435   41.0285  145.3339 C   0  0  0  0  0  0  0  0  0  0  0  0
  162.2249   42.1851  145.4077 N   0  0  1  0  0  0  0  0  0  0  0  0
  155.4322   46.7380  142.8398 N   0  0  0  0  0  0  0  0  0  0  0  0
  162.1569   47.4846  149.7413 O   0  5  0  0  0  0  0  0  0  0  0  0
  154.6473   46.2746  143.8247 C   0  0  2  0  0  0  0  0  0  0  0  0
  153.4569   45.7633  143.4770 N   0  0  0  0  0  0  0  0  0  0  0  0
  162.0917   47.0503  147.1448 O   0  0  0  0  0  0  0  0  0  0  0  0
  154.9925   46.3015  145.1332 N   0  0  0  0  0  0  0  0  0  0  0  0
  156.1795   46.8131  145.5212 C   0  0  1  0  0  0  0  0  0  0  0  0
  157.0899   47.3388  144.4842 C   0  0  1  0  0  0  0  0  0  0  0  0
  156.6288   47.2793  143.0737 C   0  0  0  0  0  0  0  0  0  0  0  0
  157.3274   47.6925  142.1233 O   0  0  0  0  0  0  0  0  0  0  0  0
  158.1797   47.7858  145.1283 N   0  0  0  0  0  0  0  0  0  0  0  0
  157.9821   47.5585  146.4567 C   0  0  0  0  0  0  0  0  0  0  0  0
  156.7880   46.9808  146.6951 N   0  0  2  0  0  0  0  0  0  0  0  0
  1  3  1  6  0  0  0
  1  4  2  0  0  0  0
  1  6  1  0  0  0  0
  1 22  1  0  0  0  0
  2 28  1  0  0  0  0
  2 35  1  1  0  0  0
  2 38  2  0  0  0  0
  2 10  1  0  0  0  0
  5  6  1  0  0  0  0
  7  5  1  6  0  0  0
  7  8  1  0  0  0  0
  7  9  1  0  0  0  0
  9 10  1  1  0  0  0
  9 11  1  0  0  0  0
 11 12  1  1  0  0  0
 11 13  1  0  0  0  0
 13  8  1  1  0  0  0
 13 33  1  0  0  0  0
 14 46  1  0  0  0  0
 14 17  1  0  0  0  0
 14 25  1  1  0  0  0
 15 16  1  0  0  0  0
 15 29  1  0  0  0  0
 16 18  1  1  0  0  0
 16 21  1  0  0  0  0
 17 19  1  1  0  0  0
 17 20  1  0  0  0  0
 20 22  1  1  0  0  0
 20 24  1  0  0  0  0
 23 21  1  1  0  0  0
 23 26  1  0  0  0  0
 23 33  1  0  0  0  0
 24 25  1  6  0  0  0
 24 27  1  0  0  0  0
 26 29  1  1  0  0  0
 26 31  1  0  0  0  0
 27 28  1  0  0  0  0
 29 30  2  0  0  0  0
 31 32  1  0  0  0  0
 33 32  1  6  0  0  0
 34 36  1  0  0  0  0
 34 42  1  0  0  0  0
 36 37  1  1  0  0  0
 36 39  1  0  0  0  0
 40 39  1  1  0  0  0
 40 41  1  0  0  0  0
 40 46  1  0  0  0  0
 41 42  1  1  0  0  0
 41 44  1  0  0  0  0
 42 43  2  0  0  0  0
 44 45  1  0  0  0  0
 46 45  1  6  0  0  0
M  CHG  2   3  -1  35  -1
M  END
>  <CHROM.1>
160.50381340,75.53875446,159.42707093,44.67818172,146.52824932,0.07213198
-0.49194830,1.59144457

>  <Name>
ligand

>  <RI>
0

>  <Rbt.Current_Directory>
/home/itssahil/PROJECTS/Mol_Feturizer/Test_systems_manuscript/rnas/4yb0

>  <Rbt.Executable>
rbdock ($Id: //depot/dev/client3/rdock/2013.1/src/exe/rbdock.cxx#4 $)

>  <Rbt.Library>
libRbt.so (2013.1, Build901 2013/11/27)

>  <Rbt.Parameter_File>
/export/apps/rDock/src/rDock_2013.1_src/data/scripts/dock_solv.prm

>  <Rbt.Receptor>
prm/pocket_docking_7.prm

>  <SCORE>
-20.0341

>  <SCORE.INTER>
-20.1081

>  <SCORE.INTER.CONST>
1

>  <SCORE.INTER.POLAR>
0

>  <SCORE.INTER.ROT>
2

>  <SCORE.INTER.SOLV>
25.6122

>  <SCORE.INTER.VDW>
-26.8761

>  <SCORE.INTER.norm>
-0.437132

>  <SCORE.INTRA>
0.0739548

>  <SCORE.INTRA.DIHEDRAL>
-0.0639943

>  <SCORE.INTRA.DIHEDRAL.0>
2.42188

>  <SCORE.INTRA.POLAR>
0

>  <SCORE.INTRA.POLAR.0>
0

>  <SCORE.INTRA.REPUL>
0

>  <SCORE.INTRA.REPUL.0>
0

>  <SCORE.INTRA.SOLV>
0.00541242

>  <SCORE.INTRA.SOLV.lig_0>
-127.307

>  <SCORE.INTRA.VDW>
0.103246

>  <SCORE.INTRA.VDW.0>
-2.19936

>  <SCORE.INTRA.norm>
0.00160771

>  <SCORE.RESTR>
0

>  <SCORE.RESTR.CAVITY>
0

>  <SCORE.RESTR.norm>
0

>  <SCORE.SYSTEM>
0

>  <SCORE.SYSTEM.CONST>
0

>  <SCORE.SYSTEM.DIHEDRAL>
0

>  <SCORE.SYSTEM.SOLV>
0

>  <SCORE.SYSTEM.norm>
0

>  <SCORE.heavy>
46

>  <SCORE.norm>
-0.435524

>  <RMSD>
4.310

$$$$
ligand
 OpenBabel02271912143D
libRbt.so/2013.1/901 2013/11/27
 46 52  0  0  0  0  0  0  0  0999 V2000
  158.6496   48.8577  147.4179 P   0  0  1  0  0  0  0  0  0  0  0  0
  160.2210   43.4490  148.2585 P   0  0  1  0  0  0  0  0  0  0  0  0
  158.5610   49.2872  145.9760 O   0  5  0  0  0  0  0  0  0  0  0  0
  158.1201   49.8286  148.4506 O   0  0  0  0  0  0  0  0  0  0  0  0
  157.1225   47.0960  148.6684 C   0  0  0  0  0  0  0  0  0  0  0  0
  157.9517   47.4162  147.5588 O   0  0  0  0  0  0  0  0  0  0  0  0
  156.9264   45.5914  148.7539 C   0  0  1  0  0  0  0  0  0  0  0  0
  155.6296   45.2884  148.2595 O   0  0  0  0  0  0  0  0  0  0  0  0
  157.9005   44.7519  147.9371 C   0  0  1  0  0  0  0  0  0  0  0  0
  158.8732   44.1766  148.7970 O   0  0  0  0  0  0  0  0  0  0  0  0
  157.0353   43.6368  147.3942 C   0  0  1  0  0  0  0  0  0  0  0  0
  157.0325   42.5415  148.3120 O   0  0  0  0  0  0  0  0  0  0  0  0
  155.6381   44.1850  147.3666 C   0  0  2  0  0  0  0  0  0  0  0  0
  162.7138   47.3112  145.3845 C   0  0  1  0  0  0  0  0  0  0  0  0
  152.0125   44.6605  143.6015 N   0  0  0  0  0  0  0  0  0  0  0  0
  151.9299   44.0883  144.8176 C   0  0  1  0  0  0  0  0  0  0  0  0
  161.5010   48.1663  145.6872 C   0  0  2  0  0  0  0  0  0  0  0  0
  150.7614   43.5275  145.2015 N   0  0  0  0  0  0  0  0  0  0  0  0
  161.9691   49.4844  145.9859 O   0  0  0  0  0  0  0  0  0  0  0  0
  160.8563   47.5333  146.9061 C   0  0  2  0  0  0  0  0  0  0  0  0
  152.9613   44.0367  145.6906 N   0  0  0  0  0  0  0  0  0  0  0  0
  160.1948   48.5059  147.7140 O   0  0  0  0  0  0  0  0  0  0  0  0
  154.1614   44.5714  145.3793 C   0  0  2  0  0  0  0  0  0  0  0  0
  162.0532   46.9065  147.6179 C   0  0  2  0  0  0  0  0  0  0  0  0
  163.0564   46.6859  146.6242 O   0  0  0  0  0  0  0  0  0  0  0  0
  154.3239   45.2099  144.0695 C   0  0  2  0  0  0  0  0  0  0  0  0
  161.7602   45.5894  148.3432 C   0  0  0  0  0  0  0  0  0  0  0  0
  161.0129   44.6666  147.5517 O   0  0  0  0  0  0  0  0  0  0  0  0
  153.1498   45.2288  143.1656 C   0  0  0  0  0  0  0  0  0  0  0  0
  153.2312   45.7644  142.0340 O   0  0  0  0  0  0  0  0  0  0  0  0
  155.5959   45.6442  144.0211 N   0  0  0  0  0  0  0  0  0  0  0  0
  156.1955   45.3179  145.1912 C   0  0  0  0  0  0  0  0  0  0  0  0
  155.3353   44.6774  146.0018 N   0  0  1  0  0  0  0  0  0  0  0  0
  158.9544   45.2252  142.3591 N   0  0  0  0  0  0  0  0  0  0  0  0
  160.9812   43.0057  149.4944 O   0  5  0  0  0  0  0  0  0  0  0  0
  158.9093   46.2871  143.1784 C   0  0  2  0  0  0  0  0  0  0  0  0
  157.7458   46.9486  143.2686 N   0  0  0  0  0  0  0  0  0  0  0  0
  159.8531   42.4612  147.1781 O   0  0  0  0  0  0  0  0  0  0  0  0
  159.9670   46.7186  143.9045 N   0  0  0  0  0  0  0  0  0  0  0  0
  161.1548   46.0817  143.8354 C   0  0  1  0  0  0  0  0  0  0  0  0
  161.2694   44.9041  142.9518 C   0  0  1  0  0  0  0  0  0  0  0  0
  160.0630   44.5041  142.1834 C   0  0  0  0  0  0  0  0  0  0  0  0
  160.0558   43.5194  141.4138 O   0  0  0  0  0  0  0  0  0  0  0  0
  162.5347   44.4694  143.0624 N   0  0  0  0  0  0  0  0  0  0  0  0
  163.1667   45.2939  143.9433 C   0  0  0  0  0  0  0  0  0  0  0  0
  162.3468   46.2592  144.4044 N   0  0  2  0  0  0  0  0  0  0  0  0
  1  3  1  6  0  0  0
  1  4  2  0  0  0  0
  1  6  1  0  0  0  0
  1 22  1  0  0  0  0
  2 28  1  0  0  0  0
  2 35  1  1  0  0  0
  2 38  2  0  0  0  0
  2 10  1  0  0  0  0
  5  6  1  0  0  0  0
  7  5  1  6  0  0  0
  7  8  1  0  0  0  0
  7  9  1  0  0  0  0
  9 10  1  1  0  0  0
  9 11  1  0  0  0  0
 11 12  1  1  0  0  0
 11 13  1  0  0  0  0
 13  8  1  1  0  0  0
 13 33  1  0  0  0  0
 14 46  1  0  0  0  0
 14 17  1  0  0  0  0
 14 25  1  1  0  0  0
 15 16  1  0  0  0  0
 15 29  1  0  0  0  0
 16 18  1  6  0  0  0
 16 21  1  0  0  0  0
 17 19  1  1  0  0  0
 17 20  1  0  0  0  0
 20 22  1  1  0  0  0
 20 24  1  0  0  0  0
 23 21  1  6  0  0  0
 23 26  1  0  0  0  0
 23 33  1  0  0  0  0
 24 25  1  6  0  0  0
 24 27  1  0  0  0  0
 26 29  1  6  0  0  0
 26 31  1  0  0  0  0
 27 28  1  0  0  0  0
 29 30  2  0  0  0  0
 31 32  1  0  0  0  0
 33 32  1  1  0  0  0
 34 36  1  0  0  0  0
 34 42  1  0  0  0  0
 36 37  1  6  0  0  0
 36 39  1  0  0  0  0
 40 39  1  6  0  0  0
 40 41  1  0  0  0  0
 40 46  1  0  0  0  0
 41 42  1  6  0  0  0
 41 44  1  0  0  0  0
 42 43  2  0  0  0  0
 44 45  1  0  0  0  0
 46 45  1  1  0  0  0
M  CHG  2   3  -1  35  -1
M  END
>  <CHROM.1>
-102.28202576,1.38053086,158.39328848,45.68501407,145.95429082,0.16286810
0.22462100,1.56638648

>  <Name>
ligand

>  <RI>
0

>  <Rbt.Current_Directory>
/home/itssahil/PROJECTS/Mol_Feturizer/Test_systems_manuscript/rnas/4yb0

>  <Rbt.Executable>
rbdock ($Id: //depot/dev/client3/rdock/2013.1/src/exe/rbdock.cxx#4 $)

>  <Rbt.Library>
libRbt.so (2013.1, Build901 2013/11/27)

>  <Rbt.Parameter_File>
/export/apps/rDock/src/rDock_2013.1_src/data/scripts/dock_solv.prm

>  <Rbt.Receptor>
prm/pocket_docking_4.prm

>  <SCORE>
-18.5354

>  <SCORE.INTER>
-21.3838

>  <SCORE.INTER.CONST>
1

>  <SCORE.INTER.POLAR>
0

>  <SCORE.INTER.ROT>
2

>  <SCORE.INTER.SOLV>
17.4381

>  <SCORE.INTER.VDW>
-25.0019

>  <SCORE.INTER.norm>
-0.464865

>  <SCORE.INTRA>
1.74452

>  <SCORE.INTRA.DIHEDRAL>
-0.0369909

>  <SCORE.INTRA.DIHEDRAL.0>
2.42188

>  <SCORE.INTRA.POLAR>
0

>  <SCORE.INTRA.POLAR.0>
0

>  <SCORE.INTRA.REPUL>
0

>  <SCORE.INTRA.REPUL.0>
0

>  <SCORE.INTRA.SOLV>
3.53116

>  <SCORE.INTRA.SOLV.lig_0>
-127.307

>  <SCORE.INTRA.VDW>
-0.00256692

>  <SCORE.INTRA.VDW.0>
-2.19936

>  <SCORE.INTRA.norm>
0.0379242

>  <SCORE.RESTR>
1.10386

>  <SCORE.RESTR.CAVITY>
1.10386

>  <SCORE.RESTR.norm>
0.023997

>  <SCORE.SYSTEM>
0

>  <SCORE.SYSTEM.CONST>
0

>  <SCORE.SYSTEM.DIHEDRAL>
0

>  <SCORE.SYSTEM.SOLV>
0

>  <SCORE.SYSTEM.norm>
0

>  <SCORE.heavy>
46

>  <SCORE.norm>
-0.402944

>  <RMSD>
4.342

$$$$
ligand
 OpenBabel02271912143D
libRbt.so/2013.1/901 2013/11/27
 46 52  0  0  0  0  0  0  0  0999 V2000
  160.3964   44.1236  149.4609 P   0  0  1  0  0  0  0  0  0  0  0  0
  159.7482   49.3303  147.2471 P   0  0  1  0  0  0  0  0  0  0  0  0
  159.6971   43.0148  148.7175 O   0  5  0  0  0  0  0  0  0  0  0  0
  161.3430   43.7100  150.5666 O   0  0  0  0  0  0  0  0  0  0  0  0
  162.4313   45.5905  148.6201 C   0  0  0  0  0  0  0  0  0  0  0  0
  161.1302   45.0675  148.3859 O   0  0  0  0  0  0  0  0  0  0  0  0
  162.7120   46.7351  147.6605 C   0  0  1  0  0  0  0  0  0  0  0  0
  163.5702   46.2506  146.6375 O   0  0  0  0  0  0  0  0  0  0  0  0
  161.4942   47.3174  146.9543 C   0  0  1  0  0  0  0  0  0  0  0  0
  161.1433   48.5574  147.5509 O   0  0  0  0  0  0  0  0  0  0  0  0
  161.9972   47.5949  145.5555 C   0  0  1  0  0  0  0  0  0  0  0  0
  162.5304   48.9191  145.4912 O   0  0  0  0  0  0  0  0  0  0  0  0
  163.1462   46.6523  145.3439 C   0  0  2  0  0  0  0  0  0  0  0  0
  155.9452   45.7391  148.6725 C   0  0  1  0  0  0  0  0  0  0  0  0
  159.5984   44.7190  141.9939 N   0  0  0  0  0  0  0  0  0  0  0  0
  159.7300   45.9614  142.4960 C   0  0  1  0  0  0  0  0  0  0  0  0
  157.0962   44.7941  148.9479 C   0  0  2  0  0  0  0  0  0  0  0  0
  158.8483   46.9165  142.1251 N   0  0  0  0  0  0  0  0  0  0  0  0
  156.7938   44.0903  150.1558 O   0  0  0  0  0  0  0  0  0  0  0  0
  158.3119   45.6832  149.1312 C   0  0  2  0  0  0  0  0  0  0  0  0
  160.7037   46.3169  143.3645 N   0  0  0  0  0  0  0  0  0  0  0  0
  159.2531   45.1049  150.0346 O   0  0  0  0  0  0  0  0  0  0  0  0
  161.6201   45.4191  143.7852 C   0  0  2  0  0  0  0  0  0  0  0  0
  157.6952   46.9674  149.6810 C   0  0  2  0  0  0  0  0  0  0  0  0
  156.3316   46.9875  149.2536 O   0  0  0  0  0  0  0  0  0  0  0  0
  161.5363   44.0452  143.2800 C   0  0  2  0  0  0  0  0  0  0  0  0
  158.3847   48.2609  149.2358 C   0  0  0  0  0  0  0  0  0  0  0  0
  158.6485   48.3029  147.8340 O   0  0  0  0  0  0  0  0  0  0  0  0
  160.4429   43.7292  142.3310 C   0  0  0  0  0  0  0  0  0  0  0  0
  160.3252   42.5705  141.8647 O   0  0  0  0  0  0  0  0  0  0  0  0
  162.5493   43.3733  143.8555 N   0  0  0  0  0  0  0  0  0  0  0  0
  163.2238   44.2346  144.6546 C   0  0  0  0  0  0  0  0  0  0  0  0
  162.6666   45.4573  144.6099 N   0  0  1  0  0  0  0  0  0  0  0  0
  153.0897   44.7165  144.3786 N   0  0  0  0  0  0  0  0  0  0  0  0
  159.7689   50.5850  148.0999 O   0  5  0  0  0  0  0  0  0  0  0  0
  152.8830   44.3578  145.6551 C   0  0  2  0  0  0  0  0  0  0  0  0
  151.7907   43.6264  145.9219 N   0  0  0  0  0  0  0  0  0  0  0  0
  159.5409   49.4103  145.7541 O   0  0  0  0  0  0  0  0  0  0  0  0
  153.7097   44.6970  146.6719 N   0  0  0  0  0  0  0  0  0  0  0  0
  154.8151   45.4364  146.4424 C   0  0  1  0  0  0  0  0  0  0  0  0
  155.0996   45.8623  145.0575 C   0  0  1  0  0  0  0  0  0  0  0  0
  154.1357   45.4548  144.0037 C   0  0  0  0  0  0  0  0  0  0  0  0
  154.2899   45.7599  142.8015 O   0  0  0  0  0  0  0  0  0  0  0  0
  156.2346   46.5776  145.1069 N   0  0  0  0  0  0  0  0  0  0  0  0
  156.6392   46.5989  146.4073 C   0  0  0  0  0  0  0  0  0  0  0  0
  155.7926   45.9212  147.2077 N   0  0  2  0  0  0  0  0  0  0  0  0
  1  3  1  6  0  0  0
  1  4  2  0  0  0  0
  1  6  1  0  0  0  0
  1 22  1  0  0  0  0
  2 28  1  0  0  0  0
  2 35  1  1  0  0  0
  2 38  2  0  0  0  0
  2 10  1  0  0  0  0
  5  6  1  0  0  0  0
  7  5  1  1  0  0  0
  7  8  1  0  0  0  0
  7  9  1  0  0  0  0
  9 10  1  1  0  0  0
  9 11  1  0  0  0  0
 11 12  1  1  0  0  0
 11 13  1  0  0  0  0
 13  8  1  1  0  0  0
 13 33  1  0  0  0  0
 14 46  1  0  0  0  0
 14 17  1  0  0  0  0
 14 25  1  1  0  0  0
 15 16  1  0  0  0  0
 15 29  1  0  0  0  0
 16 18  1  1  0  0  0
 16 21  1  0  0  0  0
 17 19  1  1  0  0  0
 17 20  1  0  0  0  0
 20 22  1  1  0  0  0
 20 24  1  0  0  0  0
 23 21  1  1  0  0  0
 23 26  1  0  0  0  0
 23 33  1  0  0  0  0
 24 25  1  6  0  0  0
 24 27  1  0  0  0  0
 26 29  1  1  0  0  0
 26 31  1  0  0  0  0
 27 28  1  0  0  0  0
 29 30  2  0  0  0  0
 31 32  1  0  0  0  0
 33 32  1  6  0  0  0
 34 36  1  0  0  0  0
 34 42  1  0  0  0  0
 36 37  1  1  0  0  0
 36 39  1  0  0  0  0
 40 39  1  1  0  0  0
 40 41  1  0  0  0  0
 40 46  1  0  0  0  0
 41 42  1  1  0  0  0
 41 44  1  0  0  0  0
 42 43  2  0  0  0  0
 44 45  1  0  0  0  0
 46 45  1  6  0  0  0
M  CHG  2   3  -1  35  -1
M  END
>  <CHROM.1>
141.68301963,108.12386453,158.99137046,45.95754157,146.46921096,0.03610890
0.13421621,1.36439362

>  <Name>
ligand

>  <RI>
0

>  <Rbt.Current_Directory>
/home/itssahil/PROJECTS/Mol_Feturizer/Test_systems_manuscript/rnas/4yb0

>  <Rbt.Executable>
rbdock ($Id: //depot/dev/client3/rdock/2013.1/src/exe/rbdock.cxx#4 $)

>  <Rbt.Library>
libRbt.so (2013.1, Build901 2013/11/27)

>  <Rbt.Parameter_File>
/export/apps/rDock/src/rDock_2013.1_src/data/scripts/dock_solv.prm

>  <Rbt.Receptor>
prm/pocket_docking_5.prm

>  <SCORE>
-19.7867

>  <SCORE.INTER>
-20.0621

>  <SCORE.INTER.CONST>
1

>  <SCORE.INTER.POLAR>
0

>  <SCORE.INTER.ROT>
2

>  <SCORE.INTER.SOLV>
19.9901

>  <SCORE.INTER.VDW>
-24.9715

>  <SCORE.INTER.norm>
-0.436133

>  <SCORE.INTRA>
0.260307

>  <SCORE.INTRA.DIHEDRAL>
-0.0593206

>  <SCORE.INTRA.DIHEDRAL.0>
2.42188

>  <SCORE.INTRA.POLAR>
0

>  <SCORE.INTRA.POLAR.0>
0

>  <SCORE.INTRA.REPUL>
0

>  <SCORE.INTRA.REPUL.0>
0

>  <SCORE.INTRA.SOLV>
0.095457

>  <SCORE.INTRA.SOLV.lig_0>
-127.307

>  <SCORE.INTRA.VDW>
0.242238

>  <SCORE.INTRA.VDW.0>
-2.19936

>  <SCORE.INTRA.norm>
0.00565884

>  <SCORE.RESTR>
0.0151022

>  <SCORE.RESTR.CAVITY>
0.0151022

>  <SCORE.RESTR.norm>
0.000328308

>  <SCORE.SYSTEM>
0

>  <SCORE.SYSTEM.CONST>
0

>  <SCORE.SYSTEM.DIHEDRAL>
0

>  <SCORE.SYSTEM.SOLV>
0

>  <SCORE.SYSTEM.norm>
0

>  <SCORE.heavy>
46

>  <SCORE.norm>
-0.430146

>  <RMSD>
4.421

$$$$
ligand
 OpenBabel02271912143D
libRbt.so/2013.1/901 2013/11/27
 46 52  0  0  0  0  0  0  0  0999 V2000
  160.9812   46.6380  147.7901 P   0  0  1  0  0  0  0  0  0  0  0  0
  157.6838   42.0075  148.1315 P   0  0  1  0  0  0  0  0  0  0  0  0
  161.5376   46.9343  146.4212 O   0  5  0  0  0  0  0  0  0  0  0  0
  161.1854   47.6971  148.8513 O   0  0  0  0  0  0  0  0  0  0  0  0
  158.4494   46.7306  148.5521 C   0  0  0  0  0  0  0  0  0  0  0  0
  159.4262   46.2610  147.6321 O   0  0  0  0  0  0  0  0  0  0  0  0
  157.1687   45.9253  148.4067 C   0  0  1  0  0  0  0  0  0  0  0  0
  156.2322   46.7150  147.6874 O   0  0  0  0  0  0  0  0  0  0  0  0
  157.2973   44.6144  147.6412 C   0  0  1  0  0  0  0  0  0  0  0  0
  157.2936   43.5260  148.5534 O   0  0  0  0  0  0  0  0  0  0  0  0
  156.0216   44.5527  146.8314 C   0  0  1  0  0  0  0  0  0  0  0  0
  155.0068   43.8858  147.5848 O   0  0  0  0  0  0  0  0  0  0  0  0
  155.5767   45.9770  146.6674 C   0  0  2  0  0  0  0  0  0  0  0  0
  162.7303   42.4588  146.2029 C   0  0  1  0  0  0  0  0  0  0  0  0
  158.0056   49.8392  144.0730 N   0  0  0  0  0  0  0  0  0  0  0  0
  157.7308   49.7152  145.3853 C   0  0  1  0  0  0  0  0  0  0  0  0
  162.5673   43.9471  146.4308 C   0  0  2  0  0  0  0  0  0  0  0  0
  158.1094   50.6991  146.2315 N   0  0  0  0  0  0  0  0  0  0  0  0
  163.7990   44.4362  146.9687 O   0  0  0  0  0  0  0  0  0  0  0  0
  161.4458   44.0786  147.4442 C   0  0  2  0  0  0  0  0  0  0  0  0
  157.0862   48.6516  145.9164 N   0  0  0  0  0  0  0  0  0  0  0  0
  161.6138   45.2333  148.2655 O   0  0  0  0  0  0  0  0  0  0  0  0
  156.6732   47.6299  145.1362 C   0  0  2  0  0  0  0  0  0  0  0  0
  161.5714   42.7802  148.2381 C   0  0  2  0  0  0  0  0  0  0  0  0
  162.2228   41.8357  147.3858 O   0  0  0  0  0  0  0  0  0  0  0  0
  156.9376   47.6989  143.6957 C   0  0  2  0  0  0  0  0  0  0  0  0
  160.2464   42.1892  148.7298 C   0  0  0  0  0  0  0  0  0  0  0  0
  159.2391   42.1515  147.7197 O   0  0  0  0  0  0  0  0  0  0  0  0
  157.6488   48.8948  143.1857 C   0  0  0  0  0  0  0  0  0  0  0  0
  157.9039   49.0051  141.9623 O   0  0  0  0  0  0  0  0  0  0  0  0
  156.4237   46.5739  143.1675 N   0  0  0  0  0  0  0  0  0  0  0  0
  155.8812   45.8474  144.1740 C   0  0  0  0  0  0  0  0  0  0  0  0
  156.0327   46.4808  145.3502 N   0  0  1  0  0  0  0  0  0  0  0  0
  160.9739   43.6191  141.3856 N   0  0  0  0  0  0  0  0  0  0  0  0
  157.5742   41.1788  149.3977 O   0  5  0  0  0  0  0  0  0  0  0  0
  161.8043   44.3040  142.1869 C   0  0  2  0  0  0  0  0  0  0  0  0
  162.2853   45.4688  141.7272 N   0  0  0  0  0  0  0  0  0  0  0  0
  156.9196   41.6271  146.8867 O   0  0  0  0  0  0  0  0  0  0  0  0
  162.1774   43.8802  143.4171 N   0  0  0  0  0  0  0  0  0  0  0  0
  161.7181   42.7112  143.9107 C   0  0  1  0  0  0  0  0  0  0  0  0
  160.7990   41.9102  143.0775 C   0  0  1  0  0  0  0  0  0  0  0  0
  160.4487   42.4441  141.7366 C   0  0  0  0  0  0  0  0  0  0  0  0
  159.6751   41.8450  140.9589 O   0  0  0  0  0  0  0  0  0  0  0  0
  160.5025   40.8115  143.7896 N   0  0  0  0  0  0  0  0  0  0  0  0
  161.1691   40.9086  144.9734 C   0  0  0  0  0  0  0  0  0  0  0  0
  161.8981   42.0398  145.0479 N   0  0  2  0  0  0  0  0  0  0  0  0
  1  3  1  6  0  0  0
  1  4  2  0  0  0  0
  1  6  1  0  0  0  0
  1 22  1  0  0  0  0
  2 28  1  0  0  0  0
  2 35  1  1  0  0  0
  2 38  2  0  0  0  0
  2 10  1  0  0  0  0
  5  6  1  0  0  0  0
  7  5  1  6  0  0  0
  7  8  1  0  0  0  0
  7  9  1  0  0  0  0
  9 10  1  1  0  0  0
  9 11  1  0  0  0  0
 11 12  1  1  0  0  0
 11 13  1  0  0  0  0
 13  8  1  1  0  0  0
 13 33  1  0  0  0  0
 14 46  1  0  0  0  0
 14 17  1  0  0  0  0
 14 25  1  1  0  0  0
 15 16  1  0  0  0  0
 15 29  1  0  0  0  0
 16 18  1  6  0  0  0
 16 21  1  0  0  0  0
 17 19  1  1  0  0  0
 17 20  1  0  0  0  0
 20 22  1  1  0  0  0
 20 24  1  0  0  0  0
 23 21  1  6  0  0  0
 23 26  1  0  0  0  0
 23 33  1  0  0  0  0
 24 25  1  6  0  0  0
 24 27  1  0  0  0  0
 26 29  1  6  0  0  0
 26 31  1  0  0  0  0
 27 28  1  0  0  0  0
 29 30  2  0  0  0  0
 31 32  1  0  0  0  0
 33 32  1  1  0  0  0
 34 36  1  0  0  0  0
 34 42  1  0  0  0  0
 36 37  1  6  0  0  0
 36 39  1  0  0  0  0
 40 39  1  6  0  0  0
 40 41  1  0  0  0  0
 40 46  1  0  0  0  0
 41 42  1  6  0  0  0
 41 44  1  0  0  0  0
 42 43  2  0  0  0  0
 44 45  1  0  0  0  0
 46 45  1  1  0  0  0
M  CHG  2   3  -1  35  -1
M  END
>  <CHROM.1>
-15.49381701,39.76586757,159.26254125,44.82926675,145.95725896,2.57526435
0.82325361,-0.87602613

>  <Name>
ligand

>  <RI>
0

>  <Rbt.Current_Directory>
/home/itssahil/PROJECTS/Mol_Feturizer/Test_systems_manuscript/rnas/4yb0

>  <Rbt.Executable>
rbdock ($Id: //depot/dev/client3/rdock/2013.1/src/exe/rbdock.cxx#4 $)

>  <Rbt.Library>
libRbt.so (2013.1, Build901 2013/11/27)

>  <Rbt.Parameter_File>
/export/apps/rDock/src/rDock_2013.1_src/data/scripts/dock_solv.prm

>  <Rbt.Receptor>
prm/pocket_docking_7.prm

>  <SCORE>
-20.4301

>  <SCORE.INTER>
-20.5496

>  <SCORE.INTER.CONST>
1

>  <SCORE.INTER.POLAR>
0

>  <SCORE.INTER.ROT>
2

>  <SCORE.INTER.SOLV>
21.6786

>  <SCORE.INTER.VDW>
-25.8593

>  <SCORE.INTER.norm>
-0.446731

>  <SCORE.INTRA>
0.119536

>  <SCORE.INTRA.DIHEDRAL>
0.0208541

>  <SCORE.INTRA.DIHEDRAL.0>
2.42188

>  <SCORE.INTRA.POLAR>
0

>  <SCORE.INTRA.POLAR.0>
0

>  <SCORE.INTRA.REPUL>
0

>  <SCORE.INTRA.REPUL.0>
0

>  <SCORE.INTRA.SOLV>
0.175061

>  <SCORE.INTRA.SOLV.lig_0>
-127.307

>  <SCORE.INTRA.VDW>
0.0215781

>  <SCORE.INTRA.VDW.0>
-2.19936

>  <SCORE.INTRA.norm>
0.00259861

>  <SCORE.RESTR>
0

>  <SCORE.RESTR.CAVITY>
0

>  <SCORE.RESTR.norm>
0

>  <SCORE.SYSTEM>
0

>  <SCORE.SYSTEM.CONST>
0

>  <SCORE.SYSTEM.DIHEDRAL>
0

>  <SCORE.SYSTEM.SOLV>
0

>  <SCORE.SYSTEM.norm>
0

>  <SCORE.heavy>
46

>  <SCORE.norm>
-0.444132

>  <RMSD>
4.436

$$$$
ligand
 OpenBabel02271912143D
libRbt.so/2013.1/901 2013/11/27
 46 52  0  0  0  0  0  0  0  0999 V2000
  161.0445   46.5691  147.8181 P   0  0  1  0  0  0  0  0  0  0  0  0
  157.6890   41.9776  148.1178 P   0  0  1  0  0  0  0  0  0  0  0  0
  161.6050   46.8705  146.4520 O   0  5  0  0  0  0  0  0  0  0  0  0
  161.2617   47.6162  148.8887 O   0  0  0  0  0  0  0  0  0  0  0  0
  158.5138   46.6868  148.5803 C   0  0  0  0  0  0  0  0  0  0  0  0
  159.4850   46.2132  147.6564 O   0  0  0  0  0  0  0  0  0  0  0  0
  157.2232   45.8990  148.4275 C   0  0  1  0  0  0  0  0  0  0  0  0
  156.2969   46.7067  147.7150 O   0  0  0  0  0  0  0  0  0  0  0  0
  157.3355   44.5934  147.6505 C   0  0  1  0  0  0  0  0  0  0  0  0
  157.3179   43.4972  148.5530 O   0  0  0  0  0  0  0  0  0  0  0  0
  156.0594   44.5549  146.8399 C   0  0  1  0  0  0  0  0  0  0  0  0
  155.0361   43.8942  147.5871 O   0  0  0  0  0  0  0  0  0  0  0  0
  155.6325   45.9861  146.6884 C   0  0  2  0  0  0  0  0  0  0  0  0
  162.7415   42.3825  146.1942 C   0  0  1  0  0  0  0  0  0  0  0  0
  158.0316   49.8823  144.1174 N   0  0  0  0  0  0  0  0  0  0  0  0
  157.7444   49.7552  145.4267 C   0  0  1  0  0  0  0  0  0  0  0  0
  162.5971   43.8706  146.4353 C   0  0  2  0  0  0  0  0  0  0  0  0
  158.0992   50.7451  146.2762 N   0  0  0  0  0  0  0  0  0  0  0  0
  163.8347   44.3395  146.9778 O   0  0  0  0  0  0  0  0  0  0  0  0
  161.4770   44.0073  147.4496 C   0  0  2  0  0  0  0  0  0  0  0  0
  157.1101   48.6824  145.9517 N   0  0  0  0  0  0  0  0  0  0  0  0
  161.6593   45.1525  148.2812 O   0  0  0  0  0  0  0  0  0  0  0  0
  156.7208   47.6542  145.1679 C   0  0  2  0  0  0  0  0  0  0  0  0
  161.5861   42.7004  148.2319 C   0  0  2  0  0  0  0  0  0  0  0  0
  162.2258   41.7554  147.3715 O   0  0  0  0  0  0  0  0  0  0  0  0
  156.9998   47.7262  143.7303 C   0  0  2  0  0  0  0  0  0  0  0  0
  160.2536   42.1218  148.7181 C   0  0  0  0  0  0  0  0  0  0  0  0
  159.2462   42.1057  147.7075 O   0  0  0  0  0  0  0  0  0  0  0  0
  157.6986   48.9322  143.2270 C   0  0  0  0  0  0  0  0  0  0  0  0
  157.9653   49.0455  142.0064 O   0  0  0  0  0  0  0  0  0  0  0  0
  156.5084   46.5933  143.1974 N   0  0  0  0  0  0  0  0  0  0  0  0
  155.9660   45.8595  144.1986 C   0  0  0  0  0  0  0  0  0  0  0  0
  156.0952   46.4958  145.3758 N   0  0  1  0  0  0  0  0  0  0  0  0
  161.0086   43.6030  141.3833 N   0  0  0  0  0  0  0  0  0  0  0  0
  157.5687   41.1392  149.3765 O   0  5  0  0  0  0  0  0  0  0  0  0
  161.8484   44.2697  142.1903 C   0  0  2  0  0  0  0  0  0  0  0  0
  162.3474   45.4303  141.7394 N   0  0  0  0  0  0  0  0  0  0  0  0
  156.9206   41.6179  146.8695 O   0  0  0  0  0  0  0  0  0  0  0  0
  162.2135   43.8317  143.4179 N   0  0  0  0  0  0  0  0  0  0  0  0
  161.7360   42.6663  143.9028 C   0  0  1  0  0  0  0  0  0  0  0  0
  160.8059   41.8852  143.0629 C   0  0  1  0  0  0  0  0  0  0  0  0
  160.4653   42.4337  141.7254 C   0  0  0  0  0  0  0  0  0  0  0  0
  159.6837   41.8518  140.9427 O   0  0  0  0  0  0  0  0  0  0  0  0
  160.4920   40.7861  143.7669 N   0  0  0  0  0  0  0  0  0  0  0  0
  161.1586   40.8648  144.9521 C   0  0  0  0  0  0  0  0  0  0  0  0
  161.9044   41.9843  145.0354 N   0  0  2  0  0  0  0  0  0  0  0  0
  1  3  1  6  0  0  0
  1  4  2  0  0  0  0
  1  6  1  0  0  0  0
  1 22  1  0  0  0  0
  2 28  1  0  0  0  0
  2 35  1  1  0  0  0
  2 38  2  0  0  0  0
  2 10  1  0  0  0  0
  5  6  1  0  0  0  0
  7  5  1  6  0  0  0
  7  8  1  0  0  0  0
  7  9  1  0  0  0  0
  9 10  1  1  0  0  0
  9 11  1  0  0  0  0
 11 12  1  1  0  0  0
 11 13  1  0  0  0  0
 13  8  1  1  0  0  0
 13 33  1  0  0  0  0
 14 46  1  0  0  0  0
 14 17  1  0  0  0  0
 14 25  1  1  0  0  0
 15 16  1  0  0  0  0
 15 29  1  0  0  0  0
 16 18  1  6  0  0  0
 16 21  1  0  0  0  0
 17 19  1  1  0  0  0
 17 20  1  0  0  0  0
 20 22  1  1  0  0  0
 20 24  1  0  0  0  0
 23 21  1  6  0  0  0
 23 26  1  0  0  0  0
 23 33  1  0  0  0  0
 24 25  1  6  0  0  0
 24 27  1  0  0  0  0
 26 29  1  6  0  0  0
 26 31  1  0  0  0  0
 27 28  1  0  0  0  0
 29 30  2  0  0  0  0
 31 32  1  0  0  0  0
 33 32  1  1  0  0  0
 34 36  1  0  0  0  0
 34 42  1  0  0  0  0
 36 37  1  6  0  0  0
 36 39  1  0  0  0  0
 40 39  1  6  0  0  0
 40 41  1  0  0  0  0
 40 46  1  0  0  0  0
 41 42  1  6  0  0  0
 41 44  1  0  0  0  0
 42 43  2  0  0  0  0
 44 45  1  0  0  0  0
 46 45  1  1  0  0  0
M  CHG  2   3  -1  35  -1
M  END
>  <CHROM.1>
-17.26783286,39.95270370,159.29607587,44.80259534,145.96726371,2.56629504
0.83230771,-0.86473302

>  <Name>
ligand

>  <RI>
0

>  <Rbt.Current_Directory>
/home/itssahil/PROJECTS/Mol_Feturizer/Test_systems_manuscript/rnas/4yb0

>  <Rbt.Executable>
rbdock ($Id: //depot/dev/client3/rdock/2013.1/src/exe/rbdock.cxx#4 $)

>  <Rbt.Library>
libRbt.so (2013.1, Build901 2013/11/27)

>  <Rbt.Parameter_File>
/export/apps/rDock/src/rDock_2013.1_src/data/scripts/dock_solv.prm

>  <Rbt.Receptor>
prm/pocket_docking_5.prm

>  <SCORE>
-20.2638

>  <SCORE.INTER>
-20.4032

>  <SCORE.INTER.CONST>
1

>  <SCORE.INTER.POLAR>
0

>  <SCORE.INTER.ROT>
2

>  <SCORE.INTER.SOLV>
21.8889

>  <SCORE.INTER.VDW>
-25.8317

>  <SCORE.INTER.norm>
-0.443547

>  <SCORE.INTRA>
0.135555

>  <SCORE.INTRA.DIHEDRAL>
0.0220617

>  <SCORE.INTRA.DIHEDRAL.0>
2.42188

>  <SCORE.INTRA.POLAR>
0

>  <SCORE.INTRA.POLAR.0>
0

>  <SCORE.INTRA.REPUL>
0

>  <SCORE.INTRA.REPUL.0>
0

>  <SCORE.INTRA.SOLV>
0.0888372

>  <SCORE.INTRA.SOLV.lig_0>
-127.307

>  <SCORE.INTRA.VDW>
0.0801055

>  <SCORE.INTRA.VDW.0>
-2.19936

>  <SCORE.INTRA.norm>
0.00294685

>  <SCORE.RESTR>
0.00382648

>  <SCORE.RESTR.CAVITY>
0.00382648

>  <SCORE.RESTR.norm>
8.31844e-05

>  <SCORE.SYSTEM>
0

>  <SCORE.SYSTEM.CONST>
0

>  <SCORE.SYSTEM.DIHEDRAL>
0

>  <SCORE.SYSTEM.SOLV>
0

>  <SCORE.SYSTEM.norm>
0

>  <SCORE.heavy>
46

>  <SCORE.norm>
-0.440517

>  <RMSD>
4.455

$$$$
ligand
 OpenBabel02271912143D
libRbt.so/2013.1/901 2013/11/27
 46 52  0  0  0  0  0  0  0  0999 V2000
  158.2528   42.3992  149.3513 P   0  0  1  0  0  0  0  0  0  0  0  0
  161.5874   46.9586  148.6278 P   0  0  1  0  0  0  0  0  0  0  0  0
  157.3637   42.0583  148.1832 O   0  5  0  0  0  0  0  0  0  0  0  0
  158.3111   41.3917  150.4787 O   0  0  0  0  0  0  0  0  0  0  0  0
  160.8938   42.2778  149.4520 C   0  0  0  0  0  0  0  0  0  0  0  0
  159.7215   42.7312  148.7876 O   0  0  0  0  0  0  0  0  0  0  0  0
  162.1058   43.0448  148.9495 C   0  0  1  0  0  0  0  0  0  0  0  0
  162.8190   42.2026  148.0551 O   0  0  0  0  0  0  0  0  0  0  0  0
  161.8039   44.3245  148.1800 C   0  0  1  0  0  0  0  0  0  0  0  0
  162.0525   45.4505  149.0089 O   0  0  0  0  0  0  0  0  0  0  0  0
  162.8331   44.3206  147.0721 C   0  0  1  0  0  0  0  0  0  0  0  0
  164.0141   44.9942  147.5119 O   0  0  0  0  0  0  0  0  0  0  0  0
  163.2037   42.8802  146.8687 C   0  0  2  0  0  0  0  0  0  0  0  0
  156.2114   46.5480  148.0612 C   0  0  1  0  0  0  0  0  0  0  0  0
  161.7032   43.5297  141.8814 N   0  0  0  0  0  0  0  0  0  0  0  0
  162.4726   44.3098  142.6640 C   0  0  1  0  0  0  0  0  0  0  0  0
  156.4081   45.0674  148.3109 C   0  0  2  0  0  0  0  0  0  0  0  0
  162.9757   45.4570  142.1559 N   0  0  0  0  0  0  0  0  0  0  0  0
  155.3469   44.6317  149.1653 O   0  0  0  0  0  0  0  0  0  0  0  0
  157.7482   44.9520  149.0130 C   0  0  2  0  0  0  0  0  0  0  0  0
  162.7750   44.0127  143.9482 N   0  0  0  0  0  0  0  0  0  0  0  0
  157.7794   43.8379  149.9040 O   0  0  0  0  0  0  0  0  0  0  0  0
  162.3078   42.8868  144.5286 C   0  0  2  0  0  0  0  0  0  0  0  0
  157.8445   46.2859  149.7502 C   0  0  2  0  0  0  0  0  0  0  0  0
  157.0102   47.2086  149.0464 O   0  0  0  0  0  0  0  0  0  0  0  0
  161.4613   41.9904  143.7350 C   0  0  2  0  0  0  0  0  0  0  0  0
  159.2582   46.8649  149.8623 C   0  0  0  0  0  0  0  0  0  0  0  0
  159.9768   46.8350  148.6298 O   0  0  0  0  0  0  0  0  0  0  0  0
  161.1727   42.3810  142.3349 C   0  0  0  0  0  0  0  0  0  0  0  0
  160.4564   41.6502  141.6092 O   0  0  0  0  0  0  0  0  0  0  0  0
  161.1371   40.9677  144.5461 N   0  0  0  0  0  0  0  0  0  0  0  0
  161.7220   41.1842  145.7486 C   0  0  0  0  0  0  0  0  0  0  0  0
  162.4222   42.3318  145.7350 N   0  0  1  0  0  0  0  0  0  0  0  0
  155.2884   46.6957  142.8878 N   0  0  0  0  0  0  0  0  0  0  0  0
  162.0250   47.8378  149.7842 O   0  5  0  0  0  0  0  0  0  0  0  0
  154.4973   46.2870  143.8918 C   0  0  2  0  0  0  0  0  0  0  0  0
  153.2734   45.8410  143.5714 N   0  0  0  0  0  0  0  0  0  0  0  0
  162.0156   47.2668  147.2136 O   0  0  0  0  0  0  0  0  0  0  0  0
  154.8683   46.3064  145.1934 N   0  0  0  0  0  0  0  0  0  0  0  0
  156.0896   46.7532  145.5542 C   0  0  1  0  0  0  0  0  0  0  0  0
  157.0085   47.2164  144.4951 C   0  0  1  0  0  0  0  0  0  0  0  0
  156.5181   47.1701  143.0940 C   0  0  0  0  0  0  0  0  0  0  0  0
  157.2208   47.5339  142.1267 O   0  0  0  0  0  0  0  0  0  0  0  0
  158.1339   47.6068  145.1144 N   0  0  0  0  0  0  0  0  0  0  0  0
  157.9490   47.4035  146.4484 C   0  0  0  0  0  0  0  0  0  0  0  0
  156.7287   46.8969  146.7148 N   0  0  2  0  0  0  0  0  0  0  0  0
  1  3  1  6  0  0  0
  1  4  2  0  0  0  0
  1  6  1  0  0  0  0
  1 22  1  0  0  0  0
  2 28  1  0  0  0  0
  2 35  1  1  0  0  0
  2 38  2  0  0  0  0
  2 10  1  0  0  0  0
  5  6  1  0  0  0  0
  7  5  1  6  0  0  0
  7  8  1  0  0  0  0
  7  9  1  0  0  0  0
  9 10  1  1  0  0  0
  9 11  1  0  0  0  0
 11 12  1  1  0  0  0
 11 13  1  0  0  0  0
 13  8  1  1  0  0  0
 13 33  1  0  0  0  0
 14 46  1  0  0  0  0
 14 17  1  0  0  0  0
 14 25  1  1  0  0  0
 15 16  1  0  0  0  0
 15 29  1  0  0  0  0
 16 18  1  1  0  0  0
 16 21  1  0  0  0  0
 17 19  1  1  0  0  0
 17 20  1  0  0  0  0
 20 22  1  1  0  0  0
 20 24  1  0  0  0  0
 23 21  1  1  0  0  0
 23 26  1  0  0  0  0
 23 33  1  0  0  0  0
 24 25  1  6  0  0  0
 24 27  1  0  0  0  0
 26 29  1  1  0  0  0
 26 31  1  0  0  0  0
 27 28  1  0  0  0  0
 29 30  2  0  0  0  0
 31 32  1  0  0  0  0
 33 32  1  6  0  0  0
 34 36  1  0  0  0  0
 34 42  1  0  0  0  0
 36 37  1  1  0  0  0
 36 39  1  0  0  0  0
 40 39  1  1  0  0  0
 40 41  1  0  0  0  0
 40 46  1  0  0  0  0
 41 42  1  1  0  0  0
 41 44  1  0  0  0  0
 42 43  2  0  0  0  0
 44 45  1  0  0  0  0
 46 45  1  6  0  0  0
M  CHG  2   3  -1  35  -1
M  END
>  <CHROM.1>
165.65723118,82.44929056,159.49217030,44.75031515,146.68842064,0.03614214
-0.45577443,1.56920374

>  <Name>
ligand

>  <RI>
0

>  <Rbt.Current_Directory>
/home/itssahil/PROJECTS/Mol_Feturizer/Test_systems_manuscript/rnas/4yb0

>  <Rbt.Executable>
rbdock ($Id: //depot/dev/client3/rdock/2013.1/src/exe/rbdock.cxx#4 $)

>  <Rbt.Library>
libRbt.so (2013.1, Build901 2013/11/27)

>  <Rbt.Parameter_File>
/export/apps/rDock/src/rDock_2013.1_src/data/scripts/dock_solv.prm

>  <Rbt.Receptor>
prm/pocket_docking_6.prm

>  <SCORE>
-19.8543

>  <SCORE.INTER>
-19.8362

>  <SCORE.INTER.CONST>
1

>  <SCORE.INTER.POLAR>
0

>  <SCORE.INTER.ROT>
2

>  <SCORE.INTER.SOLV>
26.0182

>  <SCORE.INTER.VDW>
-26.8302

>  <SCORE.INTER.norm>
-0.431221

>  <SCORE.INTRA>
-0.0199471

>  <SCORE.INTRA.DIHEDRAL>
-0.0658496

>  <SCORE.INTRA.DIHEDRAL.0>
2.42188

>  <SCORE.INTRA.POLAR>
0

>  <SCORE.INTRA.POLAR.0>
0

>  <SCORE.INTRA.REPUL>
0

>  <SCORE.INTRA.REPUL.0>
0

>  <SCORE.INTRA.SOLV>
0.000228438

>  <SCORE.INTRA.SOLV.lig_0>
-127.307

>  <SCORE.INTRA.VDW>
0.0128635

>  <SCORE.INTRA.VDW.0>
-2.19936

>  <SCORE.INTRA.norm>
-0.000433634

>  <SCORE.RESTR>
0.00184099

>  <SCORE.RESTR.CAVITY>
0.00184099

>  <SCORE.RESTR.norm>
4.00216e-05

>  <SCORE.SYSTEM>
0

>  <SCORE.SYSTEM.CONST>
0

>  <SCORE.SYSTEM.DIHEDRAL>
0

>  <SCORE.SYSTEM.SOLV>
0

>  <SCORE.SYSTEM.norm>
0

>  <SCORE.heavy>
46

>  <SCORE.norm>
-0.431614

>  <RMSD>
4.455

$$$$
ligand
 OpenBabel02271912143D
libRbt.so/2013.1/901 2013/11/27
 46 52  0  0  0  0  0  0  0  0999 V2000
  161.0054   46.6598  147.7525 P   0  0  1  0  0  0  0  0  0  0  0  0
  157.7157   42.0272  148.1371 P   0  0  1  0  0  0  0  0  0  0  0  0
  161.5615   46.9440  146.3811 O   0  5  0  0  0  0  0  0  0  0  0  0
  161.2075   47.7292  148.8037 O   0  0  0  0  0  0  0  0  0  0  0  0
  158.4732   46.7553  148.5131 C   0  0  0  0  0  0  0  0  0  0  0  0
  159.4510   46.2787  147.5978 O   0  0  0  0  0  0  0  0  0  0  0  0
  157.1939   45.9465  148.3751 C   0  0  1  0  0  0  0  0  0  0  0  0
  156.2563   46.7277  147.6481 O   0  0  0  0  0  0  0  0  0  0  0  0
  157.3249   44.6286  147.6221 C   0  0  1  0  0  0  0  0  0  0  0  0
  157.3229   43.5489  148.5445 O   0  0  0  0  0  0  0  0  0  0  0  0
  156.0495   44.5571  146.8127 C   0  0  1  0  0  0  0  0  0  0  0  0
  155.0357   43.8956  147.5721 O   0  0  0  0  0  0  0  0  0  0  0  0
  155.6023   45.9790  146.6351 C   0  0  2  0  0  0  0  0  0  0  0  0
  162.7619   42.4687  146.2053 C   0  0  1  0  0  0  0  0  0  0  0  0
  158.3494   49.6233  144.0431 N   0  0  0  0  0  0  0  0  0  0  0  0
  158.1174   49.4880  145.3625 C   0  0  1  0  0  0  0  0  0  0  0  0
  162.5963   43.9588  146.4191 C   0  0  2  0  0  0  0  0  0  0  0  0
  158.6421   50.3935  146.2180 N   0  0  0  0  0  0  0  0  0  0  0  0
  163.8271   44.4551  146.9526 O   0  0  0  0  0  0  0  0  0  0  0  0
  161.4744   44.0981  147.4310 C   0  0  2  0  0  0  0  0  0  0  0  0
  157.3773   48.4876  145.8921 N   0  0  0  0  0  0  0  0  0  0  0  0
  161.6403   45.2608  148.2414 O   0  0  0  0  0  0  0  0  0  0  0  0
  156.8169   47.5463  145.1030 C   0  0  2  0  0  0  0  0  0  0  0  0
  161.6020   42.8074  148.2371 C   0  0  2  0  0  0  0  0  0  0  0  0
  162.2552   41.8560  147.3939 O   0  0  0  0  0  0  0  0  0  0  0  0
  157.0269   47.6325  143.6544 C   0  0  2  0  0  0  0  0  0  0  0  0
  160.2779   42.2188  148.7341 C   0  0  0  0  0  0  0  0  0  0  0  0
  159.2709   42.1699  147.7242 O   0  0  0  0  0  0  0  0  0  0  0  0
  157.8492   48.7559  143.1466 C   0  0  0  0  0  0  0  0  0  0  0  0
  158.0638   48.8771  141.9165 O   0  0  0  0  0  0  0  0  0  0  0  0
  156.3649   46.5916  143.1185 N   0  0  0  0  0  0  0  0  0  0  0  0
  155.7850   45.8987  144.1278 C   0  0  0  0  0  0  0  0  0  0  0  0
  156.0577   46.4711  145.3133 N   0  0  1  0  0  0  0  0  0  0  0  0
  160.8321   43.6746  141.4661 N   0  0  0  0  0  0  0  0  0  0  0  0
  157.6073   41.2103  149.4110 O   0  5  0  0  0  0  0  0  0  0  0  0
  161.6378   44.3824  142.2728 C   0  0  2  0  0  0  0  0  0  0  0  0
  162.0379   45.5883  141.8425 N   0  0  0  0  0  0  0  0  0  0  0  0
  156.9525   41.6337  146.8958 O   0  0  0  0  0  0  0  0  0  0  0  0
  162.0630   43.9427  143.4803 N   0  0  0  0  0  0  0  0  0  0  0  0
  161.6855   42.7328  143.9439 C   0  0  1  0  0  0  0  0  0  0  0  0
  160.7976   41.9049  143.1033 C   0  0  1  0  0  0  0  0  0  0  0  0
  160.3861   42.4593  141.7884 C   0  0  0  0  0  0  0  0  0  0  0  0
  159.6326   41.8398  141.0071 O   0  0  0  0  0  0  0  0  0  0  0  0
  160.5833   40.7679  143.7842 N   0  0  0  0  0  0  0  0  0  0  0  0
  161.2691   40.8672  144.9568 C   0  0  0  0  0  0  0  0  0  0  0  0
  161.9306   42.0374  145.0542 N   0  0  2  0  0  0  0  0  0  0  0  0
  1  3  1  6  0  0  0
  1  4  2  0  0  0  0
  1  6  1  0  0  0  0
  1 22  1  0  0  0  0
  2 28  1  0  0  0  0
  2 35  1  1  0  0  0
  2 38  2  0  0  0  0
  2 10  1  0  0  0  0
  5  6  1  0  0  0  0
  7  5  1  6  0  0  0
  7  8  1  0  0  0  0
  7  9  1  0  0  0  0
  9 10  1  1  0  0  0
  9 11  1  0  0  0  0
 11 12  1  1  0  0  0
 11 13  1  0  0  0  0
 13  8  1  1  0  0  0
 13 33  1  0  0  0  0
 14 46  1  0  0  0  0
 14 17  1  0  0  0  0
 14 25  1  1  0  0  0
 15 16  1  0  0  0  0
 15 29  1  0  0  0  0
 16 18  1  6  0  0  0
 16 21  1  0  0  0  0
 17 19  1  1  0  0  0
 17 20  1  0  0  0  0
 20 22  1  1  0  0  0
 20 24  1  0  0  0  0
 23 21  1  6  0  0  0
 23 26  1  0  0  0  0
 23 33  1  0  0  0  0
 24 25  1  6  0  0  0
 24 27  1  0  0  0  0
 26 29  1  6  0  0  0
 26 31  1  0  0  0  0
 27 28  1  0  0  0  0
 29 30  2  0  0  0  0
 31 32  1  0  0  0  0
 33 32  1  1  0  0  0
 34 36  1  0  0  0  0
 34 42  1  0  0  0  0
 36 37  1  6  0  0  0
 36 39  1  0  0  0  0
 40 39  1  6  0  0  0
 40 41  1  0  0  0  0
 40 46  1  0  0  0  0
 41 42  1  6  0  0  0
 41 44  1  0  0  0  0
 42 43  2  0  0  0  0
 44 45  1  0  0  0  0
 46 45  1  1  0  0  0
M  CHG  2   3  -1  35  -1
M  END
>  <CHROM.1>
-7.98595551,35.45263161,159.30660254,44.81958486,145.95044714,2.53146251
0.82253924,-0.87011277

>  <Name>
ligand

>  <RI>
0

>  <Rbt.Current_Directory>
/home/itssahil/PROJECTS/Mol_Feturizer/Test_systems_manuscript/rnas/4yb0

>  <Rbt.Executable>
rbdock ($Id: //depot/dev/client3/rdock/2013.1/src/exe/rbdock.cxx#4 $)

>  <Rbt.Library>
libRbt.so (2013.1, Build901 2013/11/27)

>  <Rbt.Parameter_File>
/export/apps/rDock/src/rDock_2013.1_src/data/scripts/dock_solv.prm

>  <Rbt.Receptor>
prm/pocket_docking_7.prm

>  <SCORE>
-20.51

>  <SCORE.INTER>
-20.4904

>  <SCORE.INTER.CONST>
1

>  <SCORE.INTER.POLAR>
0

>  <SCORE.INTER.ROT>
2

>  <SCORE.INTER.SOLV>
20.0777

>  <SCORE.INTER.VDW>
-25.2862

>  <SCORE.INTER.norm>
-0.445444

>  <SCORE.INTRA>
-0.0195755

>  <SCORE.INTRA.DIHEDRAL>
0.0164367

>  <SCORE.INTRA.DIHEDRAL.0>
2.42188

>  <SCORE.INTRA.POLAR>
0

>  <SCORE.INTRA.POLAR.0>
0

>  <SCORE.INTRA.REPUL>
0

>  <SCORE.INTRA.REPUL.0>
0

>  <SCORE.INTRA.SOLV>
0.525179

>  <SCORE.INTRA.SOLV.lig_0>
-127.307

>  <SCORE.INTRA.VDW>
-0.290383

>  <SCORE.INTRA.VDW.0>
-2.19936

>  <SCORE.INTRA.norm>
-0.000425555

>  <SCORE.RESTR>
0

>  <SCORE.RESTR.CAVITY>
0

>  <SCORE.RESTR.norm>
0

>  <SCORE.SYSTEM>
0

>  <SCORE.SYSTEM.CONST>
0

>  <SCORE.SYSTEM.DIHEDRAL>
0

>  <SCORE.SYSTEM.SOLV>
0

>  <SCORE.SYSTEM.norm>
0

>  <SCORE.heavy>
46

>  <SCORE.norm>
-0.44587

>  <RMSD>
4.457

$$$$
ligand
 OpenBabel02271912143D
libRbt.so/2013.1/901 2013/11/27
 46 52  0  0  0  0  0  0  0  0999 V2000
  161.0361   46.5734  147.8324 P   0  0  1  0  0  0  0  0  0  0  0  0
  157.7007   41.9655  148.1023 P   0  0  1  0  0  0  0  0  0  0  0  0
  161.6008   46.8822  146.4697 O   0  5  0  0  0  0  0  0  0  0  0  0
  161.2440   47.6177  148.9076 O   0  0  0  0  0  0  0  0  0  0  0  0
  158.5018   46.6767  148.5847 C   0  0  0  0  0  0  0  0  0  0  0  0
  159.4789   46.2109  147.6631 O   0  0  0  0  0  0  0  0  0  0  0  0
  157.2154   45.8835  148.4239 C   0  0  1  0  0  0  0  0  0  0  0  0
  156.2884   46.6895  147.7105 O   0  0  0  0  0  0  0  0  0  0  0  0
  157.3370   44.5812  147.6428 C   0  0  1  0  0  0  0  0  0  0  0  0
  157.3208   43.4817  148.5413 O   0  0  0  0  0  0  0  0  0  0  0  0
  156.0644   44.5397  146.8268 C   0  0  1  0  0  0  0  0  0  0  0  0
  155.0411   43.8716  147.5675 O   0  0  0  0  0  0  0  0  0  0  0  0
  155.6315   45.9694  146.6786 C   0  0  2  0  0  0  0  0  0  0  0  0
  162.7590   42.4005  146.2008 C   0  0  1  0  0  0  0  0  0  0  0  0
  157.9999   49.8974  144.1275 N   0  0  0  0  0  0  0  0  0  0  0  0
  157.7049   49.7657  145.4347 C   0  0  1  0  0  0  0  0  0  0  0  0
  162.6068   43.8870  146.4465 C   0  0  2  0  0  0  0  0  0  0  0  0
  158.0411   50.7593  146.2873 N   0  0  0  0  0  0  0  0  0  0  0  0
  163.8400   44.3597  146.9957 O   0  0  0  0  0  0  0  0  0  0  0  0
  161.4819   44.0149  147.4568 C   0  0  2  0  0  0  0  0  0  0  0  0
  157.0803   48.6846  145.9543 N   0  0  0  0  0  0  0  0  0  0  0  0
  161.6555   45.1580  148.2931 O   0  0  0  0  0  0  0  0  0  0  0  0
  156.7096   47.6522  145.1671 C   0  0  2  0  0  0  0  0  0  0  0  0
  161.5939   42.7058  148.2349 C   0  0  2  0  0  0  0  0  0  0  0  0
  162.2415   41.7668  147.3737 O   0  0  0  0  0  0  0  0  0  0  0  0
  156.9981   47.7288  143.7316 C   0  0  2  0  0  0  0  0  0  0  0  0
  160.2621   42.1193  148.7136 C   0  0  0  0  0  0  0  0  0  0  0  0
  159.2589   42.1022  147.6988 O   0  0  0  0  0  0  0  0  0  0  0  0
  157.6852   48.9439  143.2342 C   0  0  0  0  0  0  0  0  0  0  0  0
  157.9593   49.0615  142.0155 O   0  0  0  0  0  0  0  0  0  0  0  0
  156.5248   46.5902  143.1944 N   0  0  0  0  0  0  0  0  0  0  0  0
  155.9844   45.8489  144.1912 C   0  0  0  0  0  0  0  0  0  0  0  0
  156.0972   46.4859  145.3697 N   0  0  1  0  0  0  0  0  0  0  0  0
  160.9748   43.6678  141.4209 N   0  0  0  0  0  0  0  0  0  0  0  0
  157.5791   41.1220  149.3575 O   0  5  0  0  0  0  0  0  0  0  0  0
  161.7992   44.3411  142.2381 C   0  0  2  0  0  0  0  0  0  0  0  0
  162.2648   45.5235  141.8085 N   0  0  0  0  0  0  0  0  0  0  0  0
  156.9390   41.6066  146.8496 O   0  0  0  0  0  0  0  0  0  0  0  0
  162.1810   43.8891  143.4556 N   0  0  0  0  0  0  0  0  0  0  0  0
  161.7372   42.7018  143.9189 C   0  0  1  0  0  0  0  0  0  0  0  0
  160.8254   41.9123  143.0669 C   0  0  1  0  0  0  0  0  0  0  0  0
  160.4648   42.4776  141.7417 C   0  0  0  0  0  0  0  0  0  0  0  0
  159.6962   41.8902  140.9502 O   0  0  0  0  0  0  0  0  0  0  0  0
  160.5442   40.7914  143.7501 N   0  0  0  0  0  0  0  0  0  0  0  0
  161.2131   40.8649  144.9343 C   0  0  0  0  0  0  0  0  0  0  0  0
  161.9285   42.0025  145.0372 N   0  0  2  0  0  0  0  0  0  0  0  0
  1  3  1  6  0  0  0
  1  4  2  0  0  0  0
  1  6  1  0  0  0  0
  1 22  1  0  0  0  0
  2 28  1  0  0  0  0
  2 35  1  1  0  0  0
  2 38  2  0  0  0  0
  2 10  1  0  0  0  0
  5  6  1  0  0  0  0
  7  5  1  6  0  0  0
  7  8  1  0  0  0  0
  7  9  1  0  0  0  0
  9 10  1  1  0  0  0
  9 11  1  0  0  0  0
 11 12  1  1  0  0  0
 11 13  1  0  0  0  0
 13  8  1  1  0  0  0
 13 33  1  0  0  0  0
 14 46  1  0  0  0  0
 14 17  1  0  0  0  0
 14 25  1  1  0  0  0
 15 16  1  0  0  0  0
 15 29  1  0  0  0  0
 16 18  1  6  0  0  0
 16 21  1  0  0  0  0
 17 19  1  1  0  0  0
 17 20  1  0  0  0  0
 20 22  1  1  0  0  0
 20 24  1  0  0  0  0
 23 21  1  6  0  0  0
 23 26  1  0  0  0  0
 23 33  1  0  0  0  0
 24 25  1  6  0  0  0
 24 27  1  0  0  0  0
 26 29  1  6  0  0  0
 26 31  1  0  0  0  0
 27 28  1  0  0  0  0
 29 30  2  0  0  0  0
 31 32  1  0  0  0  0
 33 32  1  1  0  0  0
 34 36  1  0  0  0  0
 34 42  1  0  0  0  0
 36 37  1  6  0  0  0
 36 39  1  0  0  0  0
 40 39  1  6  0  0  0
 40 41  1  0  0  0  0
 40 46  1  0  0  0  0
 41 42  1  6  0  0  0
 41 44  1  0  0  0  0
 42 43  2  0  0  0  0
 44 45  1  0  0  0  0
 46 45  1  1  0  0  0
M  CHG  2   3  -1  35  -1
M  END
>  <CHROM.1>
-17.78155184,38.29874634,159.29375475,44.81078236,145.97158195,2.55189092
0.82728190,-0.86603514

>  <Name>
ligand

>  <RI>
0

>  <Rbt.Current_Directory>
/home/itssahil/PROJECTS/Mol_Feturizer/Test_systems_manuscript/rnas/4yb0

>  <Rbt.Executable>
rbdock ($Id: //depot/dev/client3/rdock/2013.1/src/exe/rbdock.cxx#4 $)

>  <Rbt.Library>
libRbt.so (2013.1, Build901 2013/11/27)

>  <Rbt.Parameter_File>
/export/apps/rDock/src/rDock_2013.1_src/data/scripts/dock_solv.prm

>  <Rbt.Receptor>
prm/pocket_docking_5.prm

>  <SCORE>
-20.3359

>  <SCORE.INTER>
-20.4924

>  <SCORE.INTER.CONST>
1

>  <SCORE.INTER.POLAR>
0

>  <SCORE.INTER.ROT>
2

>  <SCORE.INTER.SOLV>
21.2824

>  <SCORE.INTER.VDW>
-25.6891

>  <SCORE.INTER.norm>
-0.445487

>  <SCORE.INTRA>
0.148036

>  <SCORE.INTRA.DIHEDRAL>
0.0236819

>  <SCORE.INTRA.DIHEDRAL.0>
2.42188

>  <SCORE.INTRA.POLAR>
0

>  <SCORE.INTRA.POLAR.0>
0

>  <SCORE.INTRA.REPUL>
0

>  <SCORE.INTRA.REPUL.0>
0

>  <SCORE.INTRA.SOLV>
0.073304

>  <SCORE.INTRA.SOLV.lig_0>
-127.307

>  <SCORE.INTRA.VDW>
0.0995426

>  <SCORE.INTRA.VDW.0>
-2.19936

>  <SCORE.INTRA.norm>
0.00321816

>  <SCORE.RESTR>
0.0084413

>  <SCORE.RESTR.CAVITY>
0.0084413

>  <SCORE.RESTR.norm>
0.000183506

>  <SCORE.SYSTEM>
0

>  <SCORE.SYSTEM.CONST>
0

>  <SCORE.SYSTEM.DIHEDRAL>
0

>  <SCORE.SYSTEM.SOLV>
0

>  <SCORE.SYSTEM.norm>
0

>  <SCORE.heavy>
46

>  <SCORE.norm>
-0.442086

>  <RMSD>
4.460

$$$$
ligand
 OpenBabel02271912143D
libRbt.so/2013.1/901 2013/11/27
 46 52  0  0  0  0  0  0  0  0999 V2000
  157.6585   41.9490  148.2321 P   0  0  1  0  0  0  0  0  0  0  0  0
  160.9781   46.5542  147.7817 P   0  0  1  0  0  0  0  0  0  0  0  0
  156.8396   41.6220  147.0100 O   0  5  0  0  0  0  0  0  0  0  0  0
  157.6649   40.9205  149.3419 O   0  0  0  0  0  0  0  0  0  0  0  0
  160.2909   41.8518  148.4780 C   0  0  0  0  0  0  0  0  0  0  0  0
  159.1526   42.3063  147.7577 O   0  0  0  0  0  0  0  0  0  0  0  0
  161.5205   42.6403  148.0585 C   0  0  1  0  0  0  0  0  0  0  0  0
  162.2917   41.8226  147.1898 O   0  0  0  0  0  0  0  0  0  0  0  0
  161.2480   43.9316  147.2975 C   0  0  1  0  0  0  0  0  0  0  0  0
  161.4377   45.0437  148.1599 O   0  0  0  0  0  0  0  0  0  0  0  0
  162.3373   43.9592  146.2489 C   0  0  1  0  0  0  0  0  0  0  0  0
  163.4845   44.6358  146.7666 O   0  0  0  0  0  0  0  0  0  0  0  0
  162.7344   42.5268  146.0396 C   0  0  2  0  0  0  0  0  0  0  0  0
  155.6468   46.1016  146.9080 C   0  0  1  0  0  0  0  0  0  0  0  0
  161.1135   43.4576  141.1353 N   0  0  0  0  0  0  0  0  0  0  0  0
  161.7781   44.2532  141.9945 C   0  0  1  0  0  0  0  0  0  0  0  0
  155.8454   44.6184  147.1405 C   0  0  2  0  0  0  0  0  0  0  0  0
  162.1174   45.5023  141.6048 N   0  0  0  0  0  0  0  0  0  0  0  0
  154.7432   44.1558  147.9259 O   0  0  0  0  0  0  0  0  0  0  0  0
  157.1455   44.5027  147.9141 C   0  0  2  0  0  0  0  0  0  0  0  0
  162.1298   43.8742  143.2441 N   0  0  0  0  0  0  0  0  0  0  0  0
  157.1392   43.3719  148.7843 O   0  0  0  0  0  0  0  0  0  0  0  0
  161.8239   42.6436  143.7080 C   0  0  2  0  0  0  0  0  0  0  0  0
  157.1860   45.8230  148.6804 C   0  0  2  0  0  0  0  0  0  0  0  0
  156.3822   46.7509  147.9485 O   0  0  0  0  0  0  0  0  0  0  0  0
  161.0985   41.7241  142.8260 C   0  0  2  0  0  0  0  0  0  0  0  0
  158.5849   46.4137  148.8822 C   0  0  0  0  0  0  0  0  0  0  0  0
  159.3713   46.4147  147.6914 O   0  0  0  0  0  0  0  0  0  0  0  0
  160.7468   42.2087  141.4704 C   0  0  0  0  0  0  0  0  0  0  0  0
  160.1287   41.4633  140.6728 O   0  0  0  0  0  0  0  0  0  0  0  0
  160.9225   40.5920  143.5303 N   0  0  0  0  0  0  0  0  0  0  0  0
  161.4842   40.7654  144.7508 C   0  0  0  0  0  0  0  0  0  0  0  0
  162.0233   41.9927  144.8539 N   0  0  1  0  0  0  0  0  0  0  0  0
  157.7693   49.9091  143.9694 N   0  0  0  0  0  0  0  0  0  0  0  0
  161.3410   47.4152  148.9772 O   0  5  0  0  0  0  0  0  0  0  0  0
  157.3279   49.9447  145.2361 C   0  0  2  0  0  0  0  0  0  0  0  0
  157.4256   51.1109  145.8917 N   0  0  0  0  0  0  0  0  0  0  0  0
  161.4810   46.8939  146.3997 O   0  0  0  0  0  0  0  0  0  0  0  0
  156.8001   48.8749  145.8759 N   0  0  0  0  0  0  0  0  0  0  0  0
  156.6907   47.6842  145.2503 C   0  0  1  0  0  0  0  0  0  0  0  0
  157.1581   47.5797  143.8534 C   0  0  1  0  0  0  0  0  0  0  0  0
  157.7326   48.7992  143.2302 C   0  0  0  0  0  0  0  0  0  0  0  0
  158.1502   48.8155  142.0523 O   0  0  0  0  0  0  0  0  0  0  0  0
  156.9442   46.3091  143.4766 N   0  0  0  0  0  0  0  0  0  0  0  0
  156.3844   45.6646  144.5380 C   0  0  0  0  0  0  0  0  0  0  0  0
  156.2345   46.4816  145.5994 N   0  0  2  0  0  0  0  0  0  0  0  0
  1  3  1  6  0  0  0
  1  4  2  0  0  0  0
  1  6  1  0  0  0  0
  1 22  1  0  0  0  0
  2 28  1  0  0  0  0
  2 35  1  1  0  0  0
  2 38  2  0  0  0  0
  2 10  1  0  0  0  0
  5  6  1  0  0  0  0
  7  5  1  6  0  0  0
  7  8  1  0  0  0  0
  7  9  1  0  0  0  0
  9 10  1  1  0  0  0
  9 11  1  0  0  0  0
 11 12  1  1  0  0  0
 11 13  1  0  0  0  0
 13  8  1  1  0  0  0
 13 33  1  0  0  0  0
 14 46  1  0  0  0  0
 14 17  1  0  0  0  0
 14 25  1  1  0  0  0
 15 16  1  0  0  0  0
 15 29  1  0  0  0  0
 16 18  1  1  0  0  0
 16 21  1  0  0  0  0
 17 19  1  1  0  0  0
 17 20  1  0  0  0  0
 20 22  1  1  0  0  0
 20 24  1  0  0  0  0
 23 21  1  1  0  0  0
 23 26  1  0  0  0  0
 23 33  1  0  0  0  0
 24 25  1  6  0  0  0
 24 27  1  0  0  0  0
 26 29  1  1  0  0  0
 26 31  1  0  0  0  0
 27 28  1  0  0  0  0
 29 30  2  0  0  0  0
 31 32  1  0  0  0  0
 33 32  1  6  0  0  0
 34 36  1  0  0  0  0
 34 42  1  0  0  0  0
 36 37  1  1  0  0  0
 36 39  1  0  0  0  0
 40 39  1  1  0  0  0
 40 41  1  0  0  0  0
 40 46  1  0  0  0  0
 41 42  1  1  0  0  0
 41 44  1  0  0  0  0
 42 43  2  0  0  0  0
 44 45  1  0  0  0  0
 46 45  1  6  0  0  0
M  CHG  2   3  -1  35  -1
M  END
>  <CHROM.1>
156.50602101,-154.01878068,159.27546996,44.77503627,145.95094780,0.43186722
-0.86223912,2.32441802

>  <Name>
ligand

>  <RI>
0

>  <Rbt.Current_Directory>
/home/itssahil/PROJECTS/Mol_Feturizer/Test_systems_manuscript/rnas/4yb0

>  <Rbt.Executable>
rbdock ($Id: //depot/dev/client3/rdock/2013.1/src/exe/rbdock.cxx#4 $)

>  <Rbt.Library>
libRbt.so (2013.1, Build901 2013/11/27)

>  <Rbt.Parameter_File>
/export/apps/rDock/src/rDock_2013.1_src/data/scripts/dock_solv.prm

>  <Rbt.Receptor>
prm/pocket_docking_7.prm

>  <SCORE>
-21.4383

>  <SCORE.INTER>
-22.0375

>  <SCORE.INTER.CONST>
1

>  <SCORE.INTER.POLAR>
0

>  <SCORE.INTER.ROT>
2

>  <SCORE.INTER.SOLV>
22.9339

>  <SCORE.INTER.VDW>
-27.2696

>  <SCORE.INTER.norm>
-0.479075

>  <SCORE.INTRA>
0.599191

>  <SCORE.INTRA.DIHEDRAL>
-0.0731479

>  <SCORE.INTRA.DIHEDRAL.0>
2.42188

>  <SCORE.INTRA.POLAR>
0

>  <SCORE.INTRA.POLAR.0>
0

>  <SCORE.INTRA.REPUL>
0

>  <SCORE.INTRA.REPUL.0>
0

>  <SCORE.INTRA.SOLV>
0.0632705

>  <SCORE.INTRA.SOLV.lig_0>
-127.307

>  <SCORE.INTRA.VDW>
0.60413

>  <SCORE.INTRA.VDW.0>
-2.19936

>  <SCORE.INTRA.norm>
0.0130259

>  <SCORE.RESTR>
0

>  <SCORE.RESTR.CAVITY>
0

>  <SCORE.RESTR.norm>
0

>  <SCORE.SYSTEM>
0

>  <SCORE.SYSTEM.CONST>
0

>  <SCORE.SYSTEM.DIHEDRAL>
0

>  <SCORE.SYSTEM.SOLV>
0

>  <SCORE.SYSTEM.norm>
0

>  <SCORE.heavy>
46

>  <SCORE.norm>
-0.466049

>  <RMSD>
4.470

$$$$
ligand
 OpenBabel02271912143D
libRbt.so/2013.1/901 2013/11/27
 46 52  0  0  0  0  0  0  0  0999 V2000
  157.6968   41.9715  148.1834 P   0  0  1  0  0  0  0  0  0  0  0  0
  161.0311   46.5549  147.6305 P   0  0  1  0  0  0  0  0  0  0  0  0
  156.8606   41.6326  146.9763 O   0  5  0  0  0  0  0  0  0  0  0  0
  157.7131   40.9573  149.3062 O   0  0  0  0  0  0  0  0  0  0  0  0
  160.3317   41.8651  148.3962 C   0  0  0  0  0  0  0  0  0  0  0  0
  159.1862   42.3156  147.6850 O   0  0  0  0  0  0  0  0  0  0  0  0
  161.5594   42.6423  147.9506 C   0  0  1  0  0  0  0  0  0  0  0  0
  162.3154   41.8099  147.0825 O   0  0  0  0  0  0  0  0  0  0  0  0
  161.2827   43.9250  147.1766 C   0  0  1  0  0  0  0  0  0  0  0  0
  161.4888   45.0472  148.0221 O   0  0  0  0  0  0  0  0  0  0  0  0
  162.3583   43.9341  146.1137 C   0  0  1  0  0  0  0  0  0  0  0  0
  163.5153   44.6119  146.6076 O   0  0  0  0  0  0  0  0  0  0  0  0
  162.7462   42.4972  145.9178 C   0  0  2  0  0  0  0  0  0  0  0  0
  155.6868   46.1161  146.8320 C   0  0  1  0  0  0  0  0  0  0  0  0
  161.0193   43.3922  141.0430 N   0  0  0  0  0  0  0  0  0  0  0  0
  161.6927   44.1978  141.8859 C   0  0  1  0  0  0  0  0  0  0  0  0
  155.8818   44.6351  147.0810 C   0  0  2  0  0  0  0  0  0  0  0  0
  162.0114   45.4488  141.4849 N   0  0  0  0  0  0  0  0  0  0  0  0
  154.7878   44.1878  147.8867 O   0  0  0  0  0  0  0  0  0  0  0  0
  157.1913   44.5233  147.8391 C   0  0  2  0  0  0  0  0  0  0  0  0
  162.0728   43.8274  143.1297 N   0  0  0  0  0  0  0  0  0  0  0  0
  157.1913   43.4038  148.7239 O   0  0  0  0  0  0  0  0  0  0  0  0
  161.7887   42.5957  143.6043 C   0  0  2  0  0  0  0  0  0  0  0  0
  157.2478   45.8531  148.5877 C   0  0  2  0  0  0  0  0  0  0  0  0
  156.4387   46.7753  147.8545 O   0  0  0  0  0  0  0  0  0  0  0  0
  161.0553   41.6654  142.7402 C   0  0  2  0  0  0  0  0  0  0  0  0
  158.6519   46.4398  148.7637 C   0  0  0  0  0  0  0  0  0  0  0  0
  159.4227   46.4217  147.5629 O   0  0  0  0  0  0  0  0  0  0  0  0
  160.6720   42.1410  141.3901 C   0  0  0  0  0  0  0  0  0  0  0  0
  160.0459   41.3862  140.6076 O   0  0  0  0  0  0  0  0  0  0  0  0
  160.9048   40.5343  143.4521 N   0  0  0  0  0  0  0  0  0  0  0  0
  161.4887   40.7183  144.6605 C   0  0  0  0  0  0  0  0  0  0  0  0
  162.0173   41.9513  144.7484 N   0  0  1  0  0  0  0  0  0  0  0  0
  158.5701   49.5291  144.0615 N   0  0  0  0  0  0  0  0  0  0  0  0
  161.4135   47.4294  148.8099 O   0  5  0  0  0  0  0  0  0  0  0  0
  158.2514   49.5310  145.3651 C   0  0  2  0  0  0  0  0  0  0  0  0
  158.7210   50.5397  146.1142 N   0  0  0  0  0  0  0  0  0  0  0  0
  161.5174   46.8745  146.2378 O   0  0  0  0  0  0  0  0  0  0  0  0
  157.4932   48.5758  145.9523 N   0  0  0  0  0  0  0  0  0  0  0  0
  157.0077   47.5432  145.2317 C   0  0  1  0  0  0  0  0  0  0  0  0
  157.3222   47.4841  143.7901 C   0  0  1  0  0  0  0  0  0  0  0  0
  158.1684   48.5677  143.2285 C   0  0  0  0  0  0  0  0  0  0  0  0
  158.4854   48.6112  142.0203 O   0  0  0  0  0  0  0  0  0  0  0  0
  156.7326   46.3737  143.3191 N   0  0  0  0  0  0  0  0  0  0  0  0
  156.0945   45.7827  144.3674 C   0  0  0  0  0  0  0  0  0  0  0  0
  156.2591   46.4765  145.5111 N   0  0  2  0  0  0  0  0  0  0  0  0
  1  3  1  6  0  0  0
  1  4  2  0  0  0  0
  1  6  1  0  0  0  0
  1 22  1  0  0  0  0
  2 28  1  0  0  0  0
  2 35  1  1  0  0  0
  2 38  2  0  0  0  0
  2 10  1  0  0  0  0
  5  6  1  0  0  0  0
  7  5  1  6  0  0  0
  7  8  1  0  0  0  0
  7  9  1  0  0  0  0
  9 10  1  1  0  0  0
  9 11  1  0  0  0  0
 11 12  1  1  0  0  0
 11 13  1  0  0  0  0
 13  8  1  1  0  0  0
 13 33  1  0  0  0  0
 14 46  1  0  0  0  0
 14 17  1  0  0  0  0
 14 25  1  1  0  0  0
 15 16  1  0  0  0  0
 15 29  1  0  0  0  0
 16 18  1  1  0  0  0
 16 21  1  0  0  0  0
 17 19  1  1  0  0  0
 17 20  1  0  0  0  0
 20 22  1  1  0  0  0
 20 24  1  0  0  0  0
 23 21  1  1  0  0  0
 23 26  1  0  0  0  0
 23 33  1  0  0  0  0
 24 25  1  6  0  0  0
 24 27  1  0  0  0  0
 26 29  1  1  0  0  0
 26 31  1  0  0  0  0
 27 28  1  0  0  0  0
 29 30  2  0  0  0  0
 31 32  1  0  0  0  0
 33 32  1  6  0  0  0
 34 36  1  0  0  0  0
 34 42  1  0  0  0  0
 36 37  1  1  0  0  0
 36 39  1  0  0  0  0
 40 39  1  1  0  0  0
 40 41  1  0  0  0  0
 40 46  1  0  0  0  0
 41 42  1  1  0  0  0
 41 44  1  0  0  0  0
 42 43  2  0  0  0  0
 44 45  1  0  0  0  0
 46 45  1  6  0  0  0
M  CHG  2   3  -1  35  -1
M  END
>  <CHROM.1>
155.44321260,-136.16728563,159.37695289,44.72490660,145.87393036,0.37604042
-0.89570302,2.40852575

>  <Name>
ligand

>  <RI>
0

>  <Rbt.Current_Directory>
/home/itssahil/PROJECTS/Mol_Feturizer/Test_systems_manuscript/rnas/4yb0

>  <Rbt.Executable>
rbdock ($Id: //depot/dev/client3/rdock/2013.1/src/exe/rbdock.cxx#4 $)

>  <Rbt.Library>
libRbt.so (2013.1, Build901 2013/11/27)

>  <Rbt.Parameter_File>
/export/apps/rDock/src/rDock_2013.1_src/data/scripts/dock_solv.prm

>  <Rbt.Receptor>
prm/pocket_docking_6.prm

>  <SCORE>
-21.6988

>  <SCORE.INTER>
-21.5841

>  <SCORE.INTER.CONST>
1

>  <SCORE.INTER.POLAR>
0

>  <SCORE.INTER.ROT>
2

>  <SCORE.INTER.SOLV>
22.5155

>  <SCORE.INTER.VDW>
-26.8279

>  <SCORE.INTER.norm>
-0.469219

>  <SCORE.INTRA>
-0.114784

>  <SCORE.INTRA.DIHEDRAL>
-0.0659641

>  <SCORE.INTRA.DIHEDRAL.0>
2.42188

>  <SCORE.INTRA.POLAR>
0

>  <SCORE.INTRA.POLAR.0>
0

>  <SCORE.INTRA.REPUL>
0

>  <SCORE.INTRA.REPUL.0>
0

>  <SCORE.INTRA.SOLV>
0.0531164

>  <SCORE.INTRA.SOLV.lig_0>
-127.307

>  <SCORE.INTRA.VDW>
-0.10836

>  <SCORE.INTRA.VDW.0>
-2.19936

>  <SCORE.INTRA.norm>
-0.0024953

>  <SCORE.RESTR>
0

>  <SCORE.RESTR.CAVITY>
0

>  <SCORE.RESTR.norm>
0

>  <SCORE.SYSTEM>
0

>  <SCORE.SYSTEM.CONST>
0

>  <SCORE.SYSTEM.DIHEDRAL>
0

>  <SCORE.SYSTEM.SOLV>
0

>  <SCORE.SYSTEM.norm>
0

>  <SCORE.heavy>
46

>  <SCORE.norm>
-0.471714

>  <RMSD>
4.491

$$$$
ligand
 OpenBabel02271912143D
libRbt.so/2013.1/901 2013/11/27
 46 52  0  0  0  0  0  0  0  0999 V2000
  157.6494   41.9243  148.1936 P   0  0  1  0  0  0  0  0  0  0  0  0
  160.9387   46.5524  147.7556 P   0  0  1  0  0  0  0  0  0  0  0  0
  156.8431   41.5873  146.9658 O   0  5  0  0  0  0  0  0  0  0  0  0
  157.6541   40.8994  149.3068 O   0  0  0  0  0  0  0  0  0  0  0  0
  160.2803   41.8472  148.4615 C   0  0  0  0  0  0  0  0  0  0  0  0
  159.1447   42.2910  147.7304 O   0  0  0  0  0  0  0  0  0  0  0  0
  161.5075   42.6434  148.0496 C   0  0  1  0  0  0  0  0  0  0  0  0
  162.2919   41.8287  147.1900 O   0  0  0  0  0  0  0  0  0  0  0  0
  161.2318   43.9302  147.2822 C   0  0  1  0  0  0  0  0  0  0  0  0
  161.4063   45.0465  148.1425 O   0  0  0  0  0  0  0  0  0  0  0  0
  162.3296   43.9625  146.2425 C   0  0  1  0  0  0  0  0  0  0  0  0
  163.4675   44.6493  146.7675 O   0  0  0  0  0  0  0  0  0  0  0  0
  162.7389   42.5324  146.0412 C   0  0  2  0  0  0  0  0  0  0  0  0
  155.6183   46.0577  146.8393 C   0  0  1  0  0  0  0  0  0  0  0  0
  161.1197   43.4486  141.1336 N   0  0  0  0  0  0  0  0  0  0  0  0
  161.7671   44.2532  141.9975 C   0  0  1  0  0  0  0  0  0  0  0  0
  155.8259   44.5767  147.0783 C   0  0  2  0  0  0  0  0  0  0  0  0
  162.0857   45.5093  141.6125 N   0  0  0  0  0  0  0  0  0  0  0  0
  154.7206   44.1086  147.8561 O   0  0  0  0  0  0  0  0  0  0  0  0
  157.1204   44.4731  147.8629 C   0  0  2  0  0  0  0  0  0  0  0  0
  162.1208   43.8769  143.2473 N   0  0  0  0  0  0  0  0  0  0  0  0
  157.1151   43.3451  148.7368 O   0  0  0  0  0  0  0  0  0  0  0  0
  161.8350   42.6399  143.7067 C   0  0  2  0  0  0  0  0  0  0  0  0
  157.1448   45.7961  148.6253 C   0  0  2  0  0  0  0  0  0  0  0  0
  156.3403   46.7157  147.8837 O   0  0  0  0  0  0  0  0  0  0  0  0
  161.1290   41.7103  142.8194 C   0  0  2  0  0  0  0  0  0  0  0  0
  158.5376   46.3977  148.8367 C   0  0  0  0  0  0  0  0  0  0  0  0
  159.3338   46.4007  147.6524 O   0  0  0  0  0  0  0  0  0  0  0  0
  160.7738   42.1925  141.4639 C   0  0  0  0  0  0  0  0  0  0  0  0
  160.1718   41.4386  140.6619 O   0  0  0  0  0  0  0  0  0  0  0  0
  160.9704   40.5732  143.5199 N   0  0  0  0  0  0  0  0  0  0  0  0
  161.5245   40.7530  144.7429 C   0  0  0  0  0  0  0  0  0  0  0  0
  162.0416   41.9893  144.8515 N   0  0  1  0  0  0  0  0  0  0  0  0
  158.2666   49.6720  144.0895 N   0  0  0  0  0  0  0  0  0  0  0  0
  161.2853   47.4198  148.9511 O   0  5  0  0  0  0  0  0  0  0  0  0
  157.8864   49.6780  145.3765 C   0  0  2  0  0  0  0  0  0  0  0  0
  158.2128   50.7512  146.1120 N   0  0  0  0  0  0  0  0  0  0  0  0
  161.4505   46.8913  146.3767 O   0  0  0  0  0  0  0  0  0  0  0  0
  157.2028   48.6661  145.9604 N   0  0  0  0  0  0  0  0  0  0  0  0
  156.8617   47.5682  145.2535 C   0  0  1  0  0  0  0  0  0  0  0  0
  157.2503   47.5010  143.8305 C   0  0  1  0  0  0  0  0  0  0  0  0
  158.0068   48.6504  143.2719 C   0  0  0  0  0  0  0  0  0  0  0  0
  158.3761   48.6920  142.0786 O   0  0  0  0  0  0  0  0  0  0  0  0
  156.8016   46.3221  143.3708 N   0  0  0  0  0  0  0  0  0  0  0  0
  156.1774   45.6981  144.4082 C   0  0  0  0  0  0  0  0  0  0  0  0
  156.2140   46.4377  145.5343 N   0  0  2  0  0  0  0  0  0  0  0  0
  1  3  1  6  0  0  0
  1  4  2  0  0  0  0
  1  6  1  0  0  0  0
  1 22  1  0  0  0  0
  2 28  1  0  0  0  0
  2 35  1  1  0  0  0
  2 38  2  0  0  0  0
  2 10  1  0  0  0  0
  5  6  1  0  0  0  0
  7  5  1  6  0  0  0
  7  8  1  0  0  0  0
  7  9  1  0  0  0  0
  9 10  1  1  0  0  0
  9 11  1  0  0  0  0
 11 12  1  1  0  0  0
 11 13  1  0  0  0  0
 13  8  1  1  0  0  0
 13 33  1  0  0  0  0
 14 46  1  0  0  0  0
 14 17  1  0  0  0  0
 14 25  1  1  0  0  0
 15 16  1  0  0  0  0
 15 29  1  0  0  0  0
 16 18  1  1  0  0  0
 16 21  1  0  0  0  0
 17 19  1  1  0  0  0
 17 20  1  0  0  0  0
 20 22  1  1  0  0  0
 20 24  1  0  0  0  0
 23 21  1  1  0  0  0
 23 26  1  0  0  0  0
 23 33  1  0  0  0  0
 24 25  1  6  0  0  0
 24 27  1  0  0  0  0
 26 29  1  1  0  0  0
 26 31  1  0  0  0  0
 27 28  1  0  0  0  0
 29 30  2  0  0  0  0
 31 32  1  0  0  0  0
 33 32  1  6  0  0  0
 34 36  1  0  0  0  0
 34 42  1  0  0  0  0
 36 37  1  1  0  0  0
 36 39  1  0  0  0  0
 40 39  1  1  0  0  0
 40 41  1  0  0  0  0
 40 46  1  0  0  0  0
 41 42  1  1  0  0  0
 41 44  1  0  0  0  0
 42 43  2  0  0  0  0
 44 45  1  0  0  0  0
 46 45  1  6  0  0  0
M  CHG  2   3  -1  35  -1
M  END
>  <CHROM.1>
155.77527611,-142.10968222,159.31868718,44.73462004,145.93809259,0.41311612
-0.86721335,2.39399449

>  <Name>
ligand

>  <RI>
0

>  <Rbt.Current_Directory>
/home/itssahil/PROJECTS/Mol_Feturizer/Test_systems_manuscript/rnas/4yb0

>  <Rbt.Executable>
rbdock ($Id: //depot/dev/client3/rdock/2013.1/src/exe/rbdock.cxx#4 $)

>  <Rbt.Library>
libRbt.so (2013.1, Build901 2013/11/27)

>  <Rbt.Parameter_File>
/export/apps/rDock/src/rDock_2013.1_src/data/scripts/dock_solv.prm

>  <Rbt.Receptor>
prm/pocket_docking_6.prm

>  <SCORE>
-21.6467

>  <SCORE.INTER>
-21.8359

>  <SCORE.INTER.CONST>
1

>  <SCORE.INTER.POLAR>
0

>  <SCORE.INTER.ROT>
2

>  <SCORE.INTER.SOLV>
22.2224

>  <SCORE.INTER.VDW>
-26.8981

>  <SCORE.INTER.norm>
-0.474693

>  <SCORE.INTRA>
0.189235

>  <SCORE.INTRA.DIHEDRAL>
-0.071072

>  <SCORE.INTRA.DIHEDRAL.0>
2.42188

>  <SCORE.INTRA.POLAR>
0

>  <SCORE.INTRA.POLAR.0>
0

>  <SCORE.INTRA.REPUL>
0

>  <SCORE.INTRA.REPUL.0>
0

>  <SCORE.INTRA.SOLV>
0.0577694

>  <SCORE.INTRA.SOLV.lig_0>
-127.307

>  <SCORE.INTRA.VDW>
0.195886

>  <SCORE.INTRA.VDW.0>
-2.19936

>  <SCORE.INTRA.norm>
0.0041138

>  <SCORE.RESTR>
0

>  <SCORE.RESTR.CAVITY>
0

>  <SCORE.RESTR.norm>
0

>  <SCORE.SYSTEM>
0

>  <SCORE.SYSTEM.CONST>
0

>  <SCORE.SYSTEM.DIHEDRAL>
0

>  <SCORE.SYSTEM.SOLV>
0

>  <SCORE.SYSTEM.norm>
0

>  <SCORE.heavy>
46

>  <SCORE.norm>
-0.470579

>  <RMSD>
4.510

$$$$
ligand
 OpenBabel02271912143D
libRbt.so/2013.1/901 2013/11/27
 46 52  0  0  0  0  0  0  0  0999 V2000
  157.6983   41.9616  148.1745 P   0  0  1  0  0  0  0  0  0  0  0  0
  161.0225   46.5606  147.6953 P   0  0  1  0  0  0  0  0  0  0  0  0
  156.8824   41.6251  146.9530 O   0  5  0  0  0  0  0  0  0  0  0  0
  157.7010   40.9422  149.2928 O   0  0  0  0  0  0  0  0  0  0  0  0
  160.3300   41.8645  148.4282 C   0  0  0  0  0  0  0  0  0  0  0  0
  159.1939   42.3139  147.7012 O   0  0  0  0  0  0  0  0  0  0  0  0
  161.5613   42.6486  148.0055 C   0  0  1  0  0  0  0  0  0  0  0  0
  162.3342   41.8233  147.1456 O   0  0  0  0  0  0  0  0  0  0  0  0
  161.2917   43.9339  147.2333 C   0  0  1  0  0  0  0  0  0  0  0  0
  161.4800   45.0529  148.0871 O   0  0  0  0  0  0  0  0  0  0  0  0
  162.3838   43.9521  146.1874 C   0  0  1  0  0  0  0  0  0  0  0  0
  163.5302   44.6322  146.7026 O   0  0  0  0  0  0  0  0  0  0  0  0
  162.7805   42.5177  145.9909 C   0  0  2  0  0  0  0  0  0  0  0  0
  155.6932   46.1046  146.8111 C   0  0  1  0  0  0  0  0  0  0  0  0
  161.1170   43.4327  141.0979 N   0  0  0  0  0  0  0  0  0  0  0  0
  161.7726   44.2375  141.9555 C   0  0  1  0  0  0  0  0  0  0  0  0
  155.8901   44.6232  147.0563 C   0  0  2  0  0  0  0  0  0  0  0  0
  162.0883   45.4932  141.5671 N   0  0  0  0  0  0  0  0  0  0  0  0
  154.7854   44.1679  147.8425 O   0  0  0  0  0  0  0  0  0  0  0  0
  157.1881   44.5130  147.8342 C   0  0  2  0  0  0  0  0  0  0  0  0
  162.1376   43.8615  143.2022 N   0  0  0  0  0  0  0  0  0  0  0  0
  157.1786   43.3893  148.7137 O   0  0  0  0  0  0  0  0  0  0  0  0
  161.8554   42.6247  143.6646 C   0  0  2  0  0  0  0  0  0  0  0  0
  157.2275   45.8394  148.5898 C   0  0  2  0  0  0  0  0  0  0  0  0
  156.4263   46.7619  147.8482 O   0  0  0  0  0  0  0  0  0  0  0  0
  161.1410   41.6951  142.7842 C   0  0  2  0  0  0  0  0  0  0  0  0
  158.6263   46.4308  148.7905 C   0  0  0  0  0  0  0  0  0  0  0  0
  159.4158   46.4214  147.6019 O   0  0  0  0  0  0  0  0  0  0  0  0
  160.7736   42.1769  141.4318 C   0  0  0  0  0  0  0  0  0  0  0  0
  160.1640   41.4230  140.6356 O   0  0  0  0  0  0  0  0  0  0  0  0
  160.9882   40.5584  143.4865 N   0  0  0  0  0  0  0  0  0  0  0  0
  161.5535   40.7384  144.7044 C   0  0  0  0  0  0  0  0  0  0  0  0
  162.0721   41.9745  144.8078 N   0  0  1  0  0  0  0  0  0  0  0  0
  158.6628   49.5050  144.1173 N   0  0  0  0  0  0  0  0  0  0  0  0
  161.3828   47.4310  148.8846 O   0  5  0  0  0  0  0  0  0  0  0  0
  158.3314   49.4941  145.4177 C   0  0  2  0  0  0  0  0  0  0  0  0
  158.8112   50.4837  146.1856 N   0  0  0  0  0  0  0  0  0  0  0  0
  161.5293   46.8886  146.3119 O   0  0  0  0  0  0  0  0  0  0  0  0
  157.5508   48.5442  145.9839 N   0  0  0  0  0  0  0  0  0  0  0  0
  157.0545   47.5305  145.2440 C   0  0  1  0  0  0  0  0  0  0  0  0
  157.3820   47.4862  143.8048 C   0  0  1  0  0  0  0  0  0  0  0  0
  158.2525   48.5626  143.2669 C   0  0  0  0  0  0  0  0  0  0  0  0
  158.5822   48.6175  142.0625 O   0  0  0  0  0  0  0  0  0  0  0  0
  156.7778   46.3932  143.3124 N   0  0  0  0  0  0  0  0  0  0  0  0
  156.1192   45.7989  144.3459 C   0  0  0  0  0  0  0  0  0  0  0  0
  156.2846   46.4734  145.5010 N   0  0  2  0  0  0  0  0  0  0  0  0
  1  3  1  6  0  0  0
  1  4  2  0  0  0  0
  1  6  1  0  0  0  0
  1 22  1  0  0  0  0
  2 28  1  0  0  0  0
  2 35  1  1  0  0  0
  2 38  2  0  0  0  0
  2 10  1  0  0  0  0
  5  6  1  0  0  0  0
  7  5  1  6  0  0  0
  7  8  1  0  0  0  0
  7  9  1  0  0  0  0
  9 10  1  1  0  0  0
  9 11  1  0  0  0  0
 11 12  1  1  0  0  0
 11 13  1  0  0  0  0
 13  8  1  1  0  0  0
 13 33  1  0  0  0  0
 14 46  1  0  0  0  0
 14 17  1  0  0  0  0
 14 25  1  1  0  0  0
 15 16  1  0  0  0  0
 15 29  1  0  0  0  0
 16 18  1  1  0  0  0
 16 21  1  0  0  0  0
 17 19  1  1  0  0  0
 17 20  1  0  0  0  0
 20 22  1  1  0  0  0
 20 24  1  0  0  0  0
 23 21  1  1  0  0  0
 23 26  1  0  0  0  0
 23 33  1  0  0  0  0
 24 25  1  6  0  0  0
 24 27  1  0  0  0  0
 26 29  1  1  0  0  0
 26 31  1  0  0  0  0
 27 28  1  0  0  0  0
 29 30  2  0  0  0  0
 31 32  1  0  0  0  0
 33 32  1  6  0  0  0
 34 36  1  0  0  0  0
 34 42  1  0  0  0  0
 36 37  1  1  0  0  0
 36 39  1  0  0  0  0
 40 39  1  1  0  0  0
 40 41  1  0  0  0  0
 40 46  1  0  0  0  0
 41 42  1  1  0  0  0
 41 44  1  0  0  0  0
 42 43  2  0  0  0  0
 44 45  1  0  0  0  0
 46 45  1  6  0  0  0
M  CHG  2   3  -1  35  -1
M  END
>  <CHROM.1>
155.22611572,-134.77636659,159.40857973,44.72879666,145.90667965,0.38044367
-0.88228045,2.42839986

>  <Name>
ligand

>  <RI>
0

>  <Rbt.Current_Directory>
/home/itssahil/PROJECTS/Mol_Feturizer/Test_systems_manuscript/rnas/4yb0

>  <Rbt.Executable>
rbdock ($Id: //depot/dev/client3/rdock/2013.1/src/exe/rbdock.cxx#4 $)

>  <Rbt.Library>
libRbt.so (2013.1, Build901 2013/11/27)

>  <Rbt.Parameter_File>
/export/apps/rDock/src/rDock_2013.1_src/data/scripts/dock_solv.prm

>  <Rbt.Receptor>
prm/pocket_docking_6.prm

>  <SCORE>
-21.8657

>  <SCORE.INTER>
-21.677

>  <SCORE.INTER.CONST>
1

>  <SCORE.INTER.POLAR>
0

>  <SCORE.INTER.ROT>
2

>  <SCORE.INTER.SOLV>
22.1121

>  <SCORE.INTER.VDW>
-26.7554

>  <SCORE.INTER.norm>
-0.47124

>  <SCORE.INTRA>
-0.188672

>  <SCORE.INTRA.DIHEDRAL>
-0.064482

>  <SCORE.INTRA.DIHEDRAL.0>
2.42188

>  <SCORE.INTRA.POLAR>
0

>  <SCORE.INTRA.POLAR.0>
0

>  <SCORE.INTRA.REPUL>
0

>  <SCORE.INTRA.REPUL.0>
0

>  <SCORE.INTRA.SOLV>
0.052035

>  <SCORE.INTRA.SOLV.lig_0>
-127.307

>  <SCORE.INTRA.VDW>
-0.182449

>  <SCORE.INTRA.VDW.0>
-2.19936

>  <SCORE.INTRA.norm>
-0.00410157

>  <SCORE.RESTR>
0

>  <SCORE.RESTR.CAVITY>
0

>  <SCORE.RESTR.norm>
0

>  <SCORE.SYSTEM>
0

>  <SCORE.SYSTEM.CONST>
0

>  <SCORE.SYSTEM.DIHEDRAL>
0

>  <SCORE.SYSTEM.SOLV>
0

>  <SCORE.SYSTEM.norm>
0

>  <SCORE.heavy>
46

>  <SCORE.norm>
-0.475341

>  <RMSD>
4.547

$$$$
ligand
 OpenBabel02271912143D
libRbt.so/2013.1/901 2013/11/27
 46 52  0  0  0  0  0  0  0  0999 V2000
  157.6747   41.9331  148.2216 P   0  0  1  0  0  0  0  0  0  0  0  0
  160.9676   46.5529  147.7266 P   0  0  1  0  0  0  0  0  0  0  0  0
  156.8570   41.5901  147.0031 O   0  5  0  0  0  0  0  0  0  0  0  0
  157.6877   40.9149  149.3409 O   0  0  0  0  0  0  0  0  0  0  0  0
  160.3078   41.8532  148.4666 C   0  0  0  0  0  0  0  0  0  0  0  0
  159.1664   42.2945  147.7429 O   0  0  0  0  0  0  0  0  0  0  0  0
  161.5326   42.6448  148.0390 C   0  0  1  0  0  0  0  0  0  0  0  0
  162.3079   41.8235  147.1774 O   0  0  0  0  0  0  0  0  0  0  0  0
  161.2522   43.9274  147.2664 C   0  0  1  0  0  0  0  0  0  0  0  0
  161.4361   45.0485  148.1184 O   0  0  0  0  0  0  0  0  0  0  0  0
  162.3407   43.9516  146.2169 C   0  0  1  0  0  0  0  0  0  0  0  0
  163.4844   44.6396  146.7275 O   0  0  0  0  0  0  0  0  0  0  0  0
  162.7459   42.5196  146.0206 C   0  0  2  0  0  0  0  0  0  0  0  0
  155.6385   46.0617  146.8605 C   0  0  1  0  0  0  0  0  0  0  0  0
  161.1891   43.3645  141.0800 N   0  0  0  0  0  0  0  0  0  0  0  0
  161.8591   44.1682  141.9274 C   0  0  1  0  0  0  0  0  0  0  0  0
  155.8457   44.5818  147.1066 C   0  0  2  0  0  0  0  0  0  0  0  0
  162.2237   45.4020  141.5126 N   0  0  0  0  0  0  0  0  0  0  0  0
  154.7466   44.1202  147.8970 O   0  0  0  0  0  0  0  0  0  0  0  0
  157.1470   44.4808  147.8803 C   0  0  2  0  0  0  0  0  0  0  0  0
  162.1920   43.8122  143.1889 N   0  0  0  0  0  0  0  0  0  0  0  0
  157.1476   43.3580  148.7610 O   0  0  0  0  0  0  0  0  0  0  0  0
  161.8603   42.5982  143.6778 C   0  0  2  0  0  0  0  0  0  0  0  0
  157.1803   45.8082  148.6344 C   0  0  2  0  0  0  0  0  0  0  0  0
  156.3708   46.7247  147.8945 O   0  0  0  0  0  0  0  0  0  0  0  0
  161.1276   41.6711  142.8098 C   0  0  2  0  0  0  0  0  0  0  0  0
  158.5760   46.4088  148.8299 C   0  0  0  0  0  0  0  0  0  0  0  0
  159.3616   46.4033  147.6386 O   0  0  0  0  0  0  0  0  0  0  0  0
  160.7975   42.1302  141.4400 C   0  0  0  0  0  0  0  0  0  0  0  0
  160.1743   41.3772  140.6535 O   0  0  0  0  0  0  0  0  0  0  0  0
  160.9251   40.5587  143.5381 N   0  0  0  0  0  0  0  0  0  0  0  0
  161.4778   40.7507  144.7599 C   0  0  0  0  0  0  0  0  0  0  0  0
  162.0371   41.9705  144.8403 N   0  0  1  0  0  0  0  0  0  0  0  0
  158.7738   49.3383  144.2014 N   0  0  0  0  0  0  0  0  0  0  0  0
  161.3263   47.4268  148.9138 O   0  5  0  0  0  0  0  0  0  0  0  0
  158.4731   49.3064  145.5088 C   0  0  2  0  0  0  0  0  0  0  0  0
  159.0387   50.2340  146.2955 N   0  0  0  0  0  0  0  0  0  0  0  0
  161.4677   46.8827  146.3412 O   0  0  0  0  0  0  0  0  0  0  0  0
  157.6418   48.3939  146.0643 N   0  0  0  0  0  0  0  0  0  0  0  0
  157.0586   47.4425  145.3053 C   0  0  1  0  0  0  0  0  0  0  0  0
  157.3483   47.4244  143.8575 C   0  0  1  0  0  0  0  0  0  0  0  0
  158.2789   48.4557  143.3320 C   0  0  0  0  0  0  0  0  0  0  0  0
  158.5831   48.5285  142.1220 O   0  0  0  0  0  0  0  0  0  0  0  0
  156.6579   46.3929  143.3460 N   0  0  0  0  0  0  0  0  0  0  0  0
  155.9839   45.8108  144.3766 C   0  0  0  0  0  0  0  0  0  0  0  0
  156.2232   46.4329  145.5481 N   0  0  2  0  0  0  0  0  0  0  0  0
  1  3  1  6  0  0  0
  1  4  2  0  0  0  0
  1  6  1  0  0  0  0
  1 22  1  0  0  0  0
  2 28  1  0  0  0  0
  2 35  1  1  0  0  0
  2 38  2  0  0  0  0
  2 10  1  0  0  0  0
  5  6  1  0  0  0  0
  7  5  1  6  0  0  0
  7  8  1  0  0  0  0
  7  9  1  0  0  0  0
  9 10  1  1  0  0  0
  9 11  1  0  0  0  0
 11 12  1  1  0  0  0
 11 13  1  0  0  0  0
 13  8  1  1  0  0  0
 13 33  1  0  0  0  0
 14 46  1  0  0  0  0
 14 17  1  0  0  0  0
 14 25  1  1  0  0  0
 15 16  1  0  0  0  0
 15 29  1  0  0  0  0
 16 18  1  1  0  0  0
 16 21  1  0  0  0  0
 17 19  1  1  0  0  0
 17 20  1  0  0  0  0
 20 22  1  1  0  0  0
 20 24  1  0  0  0  0
 23 21  1  1  0  0  0
 23 26  1  0  0  0  0
 23 33  1  0  0  0  0
 24 25  1  6  0  0  0
 24 27  1  0  0  0  0
 26 29  1  1  0  0  0
 26 31  1  0  0  0  0
 27 28  1  0  0  0  0
 29 30  2  0  0  0  0
 31 32  1  0  0  0  0
 33 32  1  6  0  0  0
 34 36  1  0  0  0  0
 34 42  1  0  0  0  0
 36 37  1  1  0  0  0
 36 39  1  0  0  0  0
 40 39  1  1  0  0  0
 40 41  1  0  0  0  0
 40 46  1  0  0  0  0
 41 42  1  1  0  0  0
 41 44  1  0  0  0  0
 42 43  2  0  0  0  0
 44 45  1  0  0  0  0
 46 45  1  6  0  0  0
M  CHG  2   3  -1  35  -1
M  END
>  <CHROM.1>
158.15685425,-129.85810642,159.39507726,44.68769038,145.94481251,2.84664406
0.87775945,-0.69252019

>  <Name>
ligand

>  <RI>
0

>  <Rbt.Current_Directory>
/home/itssahil/PROJECTS/Mol_Feturizer/Test_systems_manuscript/rnas/4yb0

>  <Rbt.Executable>
rbdock ($Id: //depot/dev/client3/rdock/2013.1/src/exe/rbdock.cxx#4 $)

>  <Rbt.Library>
libRbt.so (2013.1, Build901 2013/11/27)

>  <Rbt.Parameter_File>
/export/apps/rDock/src/rDock_2013.1_src/data/scripts/dock_solv.prm

>  <Rbt.Receptor>
prm/pocket_docking_5.prm

>  <SCORE>
-21.3591

>  <SCORE.INTER>
-21.4507

>  <SCORE.INTER.CONST>
1

>  <SCORE.INTER.POLAR>
0

>  <SCORE.INTER.ROT>
2

>  <SCORE.INTER.SOLV>
22.8169

>  <SCORE.INTER.VDW>
-26.8395

>  <SCORE.INTER.norm>
-0.46632

>  <SCORE.INTRA>
0.0915859

>  <SCORE.INTRA.DIHEDRAL>
-0.0570564

>  <SCORE.INTRA.DIHEDRAL.0>
2.42188

>  <SCORE.INTRA.POLAR>
0

>  <SCORE.INTRA.POLAR.0>
0

>  <SCORE.INTRA.REPUL>
0

>  <SCORE.INTRA.REPUL.0>
0

>  <SCORE.INTRA.SOLV>
1.31039

>  <SCORE.INTRA.SOLV.lig_0>
-127.307

>  <SCORE.INTRA.VDW>
-0.53508

>  <SCORE.INTRA.VDW.0>
-2.19936

>  <SCORE.INTRA.norm>
0.001991

>  <SCORE.RESTR>
0

>  <SCORE.RESTR.CAVITY>
0

>  <SCORE.RESTR.norm>
0

>  <SCORE.SYSTEM>
0

>  <SCORE.SYSTEM.CONST>
0

>  <SCORE.SYSTEM.DIHEDRAL>
0

>  <SCORE.SYSTEM.SOLV>
0

>  <SCORE.SYSTEM.norm>
0

>  <SCORE.heavy>
46

>  <SCORE.norm>
-0.464329

>  <RMSD>
4.549

$$$$
ligand
 OpenBabel02271912143D
libRbt.so/2013.1/901 2013/11/27
 46 52  0  0  0  0  0  0  0  0999 V2000
  157.6545   41.9393  148.1144 P   0  0  1  0  0  0  0  0  0  0  0  0
  161.0055   46.5247  147.6945 P   0  0  1  0  0  0  0  0  0  0  0  0
  156.8526   41.6112  146.8813 O   0  5  0  0  0  0  0  0  0  0  0  0
  157.6384   40.9158  149.2287 O   0  0  0  0  0  0  0  0  0  0  0  0
  160.2823   41.8291  148.4009 C   0  0  0  0  0  0  0  0  0  0  0  0
  159.1576   42.2865  147.6613 O   0  0  0  0  0  0  0  0  0  0  0  0
  161.5224   42.6092  147.9968 C   0  0  1  0  0  0  0  0  0  0  0  0
  162.3024   41.7835  147.1436 O   0  0  0  0  0  0  0  0  0  0  0  0
  161.2685   43.8985  147.2261 C   0  0  1  0  0  0  0  0  0  0  0  0
  161.4511   45.0134  148.0864 O   0  0  0  0  0  0  0  0  0  0  0  0
  162.3739   43.9156  146.1941 C   0  0  1  0  0  0  0  0  0  0  0  0
  163.5167   44.5884  146.7263 O   0  0  0  0  0  0  0  0  0  0  0  0
  162.7664   42.4801  145.9973 C   0  0  2  0  0  0  0  0  0  0  0  0
  155.6858   46.0966  146.7413 C   0  0  1  0  0  0  0  0  0  0  0  0
  161.0965   43.4490  141.1168 N   0  0  0  0  0  0  0  0  0  0  0  0
  161.7354   44.2507  141.9898 C   0  0  1  0  0  0  0  0  0  0  0  0
  155.8728   44.6134  146.9833 C   0  0  2  0  0  0  0  0  0  0  0  0
  162.0286   45.5186  141.6240 N   0  0  0  0  0  0  0  0  0  0  0  0
  154.7562   44.1603  147.7539 O   0  0  0  0  0  0  0  0  0  0  0  0
  157.1603   44.4943  147.7772 C   0  0  2  0  0  0  0  0  0  0  0  0
  162.1046   43.8599  143.2307 N   0  0  0  0  0  0  0  0  0  0  0  0
  157.1346   43.3674  148.6523 O   0  0  0  0  0  0  0  0  0  0  0  0
  161.8443   42.6104  143.6710 C   0  0  2  0  0  0  0  0  0  0  0  0
  157.1962   45.8177  148.5383 C   0  0  2  0  0  0  0  0  0  0  0  0
  156.4087   46.7466  147.7901 O   0  0  0  0  0  0  0  0  0  0  0  0
  161.1489   41.6832  142.7729 C   0  0  2  0  0  0  0  0  0  0  0  0
  158.5951   46.4019  148.7588 C   0  0  0  0  0  0  0  0  0  0  0  0
  159.3995   46.3933  147.5802 O   0  0  0  0  0  0  0  0  0  0  0  0
  160.7756   42.1815  141.4282 C   0  0  0  0  0  0  0  0  0  0  0  0
  160.1816   41.4304  140.6177 O   0  0  0  0  0  0  0  0  0  0  0  0
  161.0157   40.5318  143.4551 N   0  0  0  0  0  0  0  0  0  0  0  0
  161.5751   40.7011  144.6773 C   0  0  0  0  0  0  0  0  0  0  0  0
  162.0706   41.9445  144.8032 N   0  0  1  0  0  0  0  0  0  0  0  0
  158.7077   49.4912  144.0989 N   0  0  0  0  0  0  0  0  0  0  0  0
  161.3547   47.3890  148.8915 O   0  5  0  0  0  0  0  0  0  0  0  0
  158.3602   49.4767  145.3950 C   0  0  2  0  0  0  0  0  0  0  0  0
  158.8361   50.4603  146.1731 N   0  0  0  0  0  0  0  0  0  0  0  0
  161.5312   46.8555  146.3189 O   0  0  0  0  0  0  0  0  0  0  0  0
  157.5674   48.5289  145.9475 N   0  0  0  0  0  0  0  0  0  0  0  0
  157.0744   47.5213  145.1972 C   0  0  1  0  0  0  0  0  0  0  0  0
  157.4195   47.4812  143.7620 C   0  0  1  0  0  0  0  0  0  0  0  0
  158.3026   48.5548  143.2394 C   0  0  0  0  0  0  0  0  0  0  0  0
  158.6474   48.6129  142.0395 O   0  0  0  0  0  0  0  0  0  0  0  0
  156.8152   46.3937  143.2575 N   0  0  0  0  0  0  0  0  0  0  0  0
  156.1404   45.7988  144.2803 C   0  0  0  0  0  0  0  0  0  0  0  0
  156.2954   46.4675  145.4402 N   0  0  2  0  0  0  0  0  0  0  0  0
  1  3  1  6  0  0  0
  1  4  2  0  0  0  0
  1  6  1  0  0  0  0
  1 22  1  0  0  0  0
  2 28  1  0  0  0  0
  2 35  1  1  0  0  0
  2 38  2  0  0  0  0
  2 10  1  0  0  0  0
  5  6  1  0  0  0  0
  7  5  1  6  0  0  0
  7  8  1  0  0  0  0
  7  9  1  0  0  0  0
  9 10  1  1  0  0  0
  9 11  1  0  0  0  0
 11 12  1  1  0  0  0
 11 13  1  0  0  0  0
 13  8  1  1  0  0  0
 13 33  1  0  0  0  0
 14 46  1  0  0  0  0
 14 17  1  0  0  0  0
 14 25  1  1  0  0  0
 15 16  1  0  0  0  0
 15 29  1  0  0  0  0
 16 18  1  1  0  0  0
 16 21  1  0  0  0  0
 17 19  1  1  0  0  0
 17 20  1  0  0  0  0
 20 22  1  1  0  0  0
 20 24  1  0  0  0  0
 23 21  1  1  0  0  0
 23 26  1  0  0  0  0
 23 33  1  0  0  0  0
 24 25  1  6  0  0  0
 24 27  1  0  0  0  0
 26 29  1  1  0  0  0
 26 31  1  0  0  0  0
 27 28  1  0  0  0  0
 29 30  2  0  0  0  0
 31 32  1  0  0  0  0
 33 32  1  6  0  0  0
 34 36  1  0  0  0  0
 34 42  1  0  0  0  0
 36 37  1  1  0  0  0
 36 39  1  0  0  0  0
 40 39  1  1  0  0  0
 40 41  1  0  0  0  0
 40 46  1  0  0  0  0
 41 42  1  1  0  0  0
 41 44  1  0  0  0  0
 42 43  2  0  0  0  0
 44 45  1  0  0  0  0
 46 45  1  6  0  0  0
M  CHG  2   3  -1  35  -1
M  END
>  <CHROM.1>
153.58325814,-134.70357124,159.39840263,44.70986189,145.88206077,0.41684013
-0.87815756,2.44147210

>  <Name>
ligand

>  <RI>
0

>  <Rbt.Current_Directory>
/home/itssahil/PROJECTS/Mol_Feturizer/Test_systems_manuscript/rnas/4yb0

>  <Rbt.Executable>
rbdock ($Id: //depot/dev/client3/rdock/2013.1/src/exe/rbdock.cxx#4 $)

>  <Rbt.Library>
libRbt.so (2013.1, Build901 2013/11/27)

>  <Rbt.Parameter_File>
/export/apps/rDock/src/rDock_2013.1_src/data/scripts/dock_solv.prm

>  <Rbt.Receptor>
prm/pocket_docking_5.prm

>  <SCORE>
-21.8399

>  <SCORE.INTER>
-21.6422

>  <SCORE.INTER.CONST>
1

>  <SCORE.INTER.POLAR>
0

>  <SCORE.INTER.ROT>
2

>  <SCORE.INTER.SOLV>
22.1746

>  <SCORE.INTER.VDW>
-26.753

>  <SCORE.INTER.norm>
-0.470483

>  <SCORE.INTRA>
-0.197663

>  <SCORE.INTRA.DIHEDRAL>
-0.0648106

>  <SCORE.INTRA.DIHEDRAL.0>
2.42188

>  <SCORE.INTRA.POLAR>
0

>  <SCORE.INTRA.POLAR.0>
0

>  <SCORE.INTRA.REPUL>
0

>  <SCORE.INTRA.REPUL.0>
0

>  <SCORE.INTRA.SOLV>
0.0527519

>  <SCORE.INTRA.SOLV.lig_0>
-127.307

>  <SCORE.INTRA.VDW>
-0.191633

>  <SCORE.INTRA.VDW.0>
-2.19936

>  <SCORE.INTRA.norm>
-0.00429701

>  <SCORE.RESTR>
0

>  <SCORE.RESTR.CAVITY>
0

>  <SCORE.RESTR.norm>
0

>  <SCORE.SYSTEM>
0

>  <SCORE.SYSTEM.CONST>
0

>  <SCORE.SYSTEM.DIHEDRAL>
0

>  <SCORE.SYSTEM.SOLV>
0

>  <SCORE.SYSTEM.norm>
0

>  <SCORE.heavy>
46

>  <SCORE.norm>
-0.47478

>  <RMSD>
4.550

$$$$
ligand
 OpenBabel02271912143D
libRbt.so/2013.1/901 2013/11/27
 46 52  0  0  0  0  0  0  0  0999 V2000
  160.3216   42.9466  150.6842 P   0  0  1  0  0  0  0  0  0  0  0  0
  160.6493   47.6006  147.4186 P   0  0  1  0  0  0  0  0  0  0  0  0
  159.3057   41.9225  150.2478 O   0  5  0  0  0  0  0  0  0  0  0  0
  161.2654   42.5385  151.7943 O   0  0  0  0  0  0  0  0  0  0  0  0
  162.5324   43.6603  149.4181 C   0  0  0  0  0  0  0  0  0  0  0  0
  161.1278   43.4432  149.3847 O   0  0  0  0  0  0  0  0  0  0  0  0
  162.9601   44.4833  148.2142 C   0  0  1  0  0  0  0  0  0  0  0  0
  163.5621   43.6057  147.2733 O   0  0  0  0  0  0  0  0  0  0  0  0
  161.8382   45.1987  147.4722 C   0  0  1  0  0  0  0  0  0  0  0  0
  161.8531   46.5802  147.8003 O   0  0  0  0  0  0  0  0  0  0  0  0
  162.2308   45.0569  146.0187 C   0  0  1  0  0  0  0  0  0  0  0  0
  163.0450   46.1656  145.6313 O   0  0  0  0  0  0  0  0  0  0  0  0
  163.0994   43.8344  145.9511 C   0  0  2  0  0  0  0  0  0  0  0  0
  156.3048   45.4325  149.8302 C   0  0  1  0  0  0  0  0  0  0  0  0
  160.4452   41.5578  142.0372 N   0  0  0  0  0  0  0  0  0  0  0  0
  161.1167   42.7245  142.0659 C   0  0  1  0  0  0  0  0  0  0  0  0
  157.2296   44.3044  150.2370 C   0  0  2  0  0  0  0  0  0  0  0  0
  161.1602   43.4849  140.9491 N   0  0  0  0  0  0  0  0  0  0  0  0
  156.9108   43.9539  151.5866 O   0  0  0  0  0  0  0  0  0  0  0  0
  158.6307   44.8795  150.1453 C   0  0  2  0  0  0  0  0  0  0  0  0
  161.7575   43.1909  143.1616 N   0  0  0  0  0  0  0  0  0  0  0  0
  159.5083   44.2765  151.0953 O   0  0  0  0  0  0  0  0  0  0  0  0
  161.7572   42.4911  144.3163 C   0  0  2  0  0  0  0  0  0  0  0  0
  158.3936   46.3601  150.4344 C   0  0  2  0  0  0  0  0  0  0  0  0
  157.0322   46.6346  150.0966 O   0  0  0  0  0  0  0  0  0  0  0  0
  161.0435   41.2109  144.3579 C   0  0  2  0  0  0  0  0  0  0  0  0
  159.3087   47.3246  149.6735 C   0  0  0  0  0  0  0  0  0  0  0  0
  159.4153   47.0190  148.2836 O   0  0  0  0  0  0  0  0  0  0  0  0
  160.3647   40.7638  143.1188 C   0  0  0  0  0  0  0  0  0  0  0  0
  159.7415   39.6753  143.0965 O   0  0  0  0  0  0  0  0  0  0  0  0
  161.1977   40.7379  145.6074 N   0  0  0  0  0  0  0  0  0  0  0  0
  161.9430   41.6289  146.3044 C   0  0  0  0  0  0  0  0  0  0  0  0
  162.2770   42.6757  145.5297 N   0  0  1  0  0  0  0  0  0  0  0  0
  156.2339   47.9472  145.2140 N   0  0  0  0  0  0  0  0  0  0  0  0
  161.0555   48.9542  147.9704 O   0  5  0  0  0  0  0  0  0  0  0  0
  156.5838   48.3919  146.4309 C   0  0  2  0  0  0  0  0  0  0  0  0
  156.9850   49.6679  146.5304 N   0  0  0  0  0  0  0  0  0  0  0  0
  160.2992   47.4306  145.9603 O   0  0  0  0  0  0  0  0  0  0  0  0
  156.5553   47.6245  147.5456 N   0  0  0  0  0  0  0  0  0  0  0  0
  156.1623   46.3349  147.4833 C   0  0  1  0  0  0  0  0  0  0  0  0
  155.7633   45.7853  146.1721 C   0  0  1  0  0  0  0  0  0  0  0  0
  155.8333   46.6931  144.9988 C   0  0  0  0  0  0  0  0  0  0  0  0
  155.5119   46.3256  143.8482 O   0  0  0  0  0  0  0  0  0  0  0  0
  155.4281   44.5029  146.3852 N   0  0  0  0  0  0  0  0  0  0  0  0
  155.5933   44.2607  147.7153 C   0  0  0  0  0  0  0  0  0  0  0  0
  156.0343   45.3512  148.3733 N   0  0  2  0  0  0  0  0  0  0  0  0
  1  3  1  6  0  0  0
  1  4  2  0  0  0  0
  1  6  1  0  0  0  0
  1 22  1  0  0  0  0
  2 28  1  0  0  0  0
  2 35  1  1  0  0  0
  2 38  2  0  0  0  0
  2 10  1  0  0  0  0
  5  6  1  0  0  0  0
  7  5  1  1  0  0  0
  7  8  1  0  0  0  0
  7  9  1  0  0  0  0
  9 10  1  1  0  0  0
  9 11  1  0  0  0  0
 11 12  1  1  0  0  0
 11 13  1  0  0  0  0
 13  8  1  1  0  0  0
 13 33  1  0  0  0  0
 14 46  1  0  0  0  0
 14 17  1  0  0  0  0
 14 25  1  6  0  0  0
 15 16  1  0  0  0  0
 15 29  1  0  0  0  0
 16 18  1  1  0  0  0
 16 21  1  0  0  0  0
 17 19  1  1  0  0  0
 17 20  1  0  0  0  0
 20 22  1  1  0  0  0
 20 24  1  0  0  0  0
 23 21  1  1  0  0  0
 23 26  1  0  0  0  0
 23 33  1  0  0  0  0
 24 25  1  6  0  0  0
 24 27  1  0  0  0  0
 26 29  1  1  0  0  0
 26 31  1  0  0  0  0
 27 28  1  0  0  0  0
 29 30  2  0  0  0  0
 31 32  1  0  0  0  0
 33 32  1  6  0  0  0
 34 36  1  0  0  0  0
 34 42  1  0  0  0  0
 36 37  1  6  0  0  0
 36 39  1  0  0  0  0
 40 39  1  6  0  0  0
 40 41  1  0  0  0  0
 40 46  1  0  0  0  0
 41 42  1  6  0  0  0
 41 44  1  0  0  0  0
 42 43  2  0  0  0  0
 44 45  1  0  0  0  0
 46 45  1  1  0  0  0
M  CHG  2   3  -1  35  -1
M  END
>  <CHROM.1>
-174.75657166,-128.54160230,159.59566452,44.76261699,147.22068788,-2.38697055
0.71079423,-1.66975022

>  <Name>
ligand

>  <RI>
0

>  <Rbt.Current_Directory>
/home/itssahil/PROJECTS/Mol_Feturizer/Test_systems_manuscript/rnas/4yb0

>  <Rbt.Executable>
rbdock ($Id: //depot/dev/client3/rdock/2013.1/src/exe/rbdock.cxx#4 $)

>  <Rbt.Library>
libRbt.so (2013.1, Build901 2013/11/27)

>  <Rbt.Parameter_File>
/export/apps/rDock/src/rDock_2013.1_src/data/scripts/dock_solv.prm

>  <Rbt.Receptor>
prm/pocket_docking_7.prm

>  <SCORE>
-19.8818

>  <SCORE.INTER>
-19.8423

>  <SCORE.INTER.CONST>
1

>  <SCORE.INTER.POLAR>
0

>  <SCORE.INTER.ROT>
2

>  <SCORE.INTER.SOLV>
20.1576

>  <SCORE.INTER.VDW>
-24.8807

>  <SCORE.INTER.norm>
-0.431353

>  <SCORE.INTRA>
-0.0431854

>  <SCORE.INTRA.DIHEDRAL>
-0.0283973

>  <SCORE.INTRA.DIHEDRAL.0>
2.42188

>  <SCORE.INTRA.POLAR>
0

>  <SCORE.INTRA.POLAR.0>
0

>  <SCORE.INTRA.REPUL>
0

>  <SCORE.INTRA.REPUL.0>
0

>  <SCORE.INTRA.SOLV>
1.88031

>  <SCORE.INTRA.SOLV.lig_0>
-127.307

>  <SCORE.INTRA.VDW>
-0.969143

>  <SCORE.INTRA.VDW.0>
-2.19936

>  <SCORE.INTRA.norm>
-0.000938813

>  <SCORE.RESTR>
0.00363788

>  <SCORE.RESTR.CAVITY>
0.00363788

>  <SCORE.RESTR.norm>
7.90844e-05

>  <SCORE.SYSTEM>
0

>  <SCORE.SYSTEM.CONST>
0

>  <SCORE.SYSTEM.DIHEDRAL>
0

>  <SCORE.SYSTEM.SOLV>
0

>  <SCORE.SYSTEM.norm>
0

>  <SCORE.heavy>
46

>  <SCORE.norm>
-0.432213

>  <RMSD>
4.556

$$$$
ligand
 OpenBabel02271912143D
libRbt.so/2013.1/901 2013/11/27
 46 52  0  0  0  0  0  0  0  0999 V2000
  157.6040   41.9761  148.1202 P   0  0  1  0  0  0  0  0  0  0  0  0
  160.9829   46.5418  147.7096 P   0  0  1  0  0  0  0  0  0  0  0  0
  156.8026   41.6535  146.8855 O   0  5  0  0  0  0  0  0  0  0  0  0
  157.5797   40.9520  149.2339 O   0  0  0  0  0  0  0  0  0  0  0  0
  160.2305   41.8502  148.4117 C   0  0  0  0  0  0  0  0  0  0  0  0
  159.1100   42.3147  147.6702 O   0  0  0  0  0  0  0  0  0  0  0  0
  161.4761   42.6231  148.0104 C   0  0  1  0  0  0  0  0  0  0  0  0
  162.2527   41.7933  147.1581 O   0  0  0  0  0  0  0  0  0  0  0  0
  161.2313   43.9144  147.2400 C   0  0  1  0  0  0  0  0  0  0  0  0
  161.4188   45.0277  148.1013 O   0  0  0  0  0  0  0  0  0  0  0  0
  162.3386   43.9256  146.2101 C   0  0  1  0  0  0  0  0  0  0  0  0
  163.4844   44.5913  146.7449 O   0  0  0  0  0  0  0  0  0  0  0  0
  162.7230   42.4879  146.0131 C   0  0  2  0  0  0  0  0  0  0  0  0
  155.6626   46.1459  146.7461 C   0  0  1  0  0  0  0  0  0  0  0  0
  161.1231   43.4483  141.1076 N   0  0  0  0  0  0  0  0  0  0  0  0
  161.7723   44.2433  141.9792 C   0  0  1  0  0  0  0  0  0  0  0  0
  155.8403   44.6614  146.9875 C   0  0  2  0  0  0  0  0  0  0  0  0
  162.0987   45.5003  141.6043 N   0  0  0  0  0  0  0  0  0  0  0  0
  154.7196   44.2145  147.7557 O   0  0  0  0  0  0  0  0  0  0  0  0
  157.1256   44.5342  147.7838 C   0  0  2  0  0  0  0  0  0  0  0  0
  162.1203   43.8560  143.2273 N   0  0  0  0  0  0  0  0  0  0  0  0
  157.0916   43.4070  148.6581 O   0  0  0  0  0  0  0  0  0  0  0  0
  161.8265   42.6172  143.6768 C   0  0  2  0  0  0  0  0  0  0  0  0
  157.1679   45.8569  148.5457 C   0  0  2  0  0  0  0  0  0  0  0  0
  156.3874   46.7909  147.7966 O   0  0  0  0  0  0  0  0  0  0  0  0
  161.1182   41.6979  142.7807 C   0  0  2  0  0  0  0  0  0  0  0  0
  158.5698   46.4327  148.7693 C   0  0  0  0  0  0  0  0  0  0  0  0
  159.3764   46.4200  147.5922 O   0  0  0  0  0  0  0  0  0  0  0  0
  160.7696   42.1918  141.4278 C   0  0  0  0  0  0  0  0  0  0  0  0
  160.1659   41.4469  140.6186 O   0  0  0  0  0  0  0  0  0  0  0  0
  160.9515   40.5566  143.4725 N   0  0  0  0  0  0  0  0  0  0  0  0
  161.5030   40.7246  144.6984 C   0  0  0  0  0  0  0  0  0  0  0  0
  162.0263   41.9572  144.8174 N   0  0  1  0  0  0  0  0  0  0  0  0
  158.7068   49.5260  144.1108 N   0  0  0  0  0  0  0  0  0  0  0  0
  161.3350   47.4033  148.9078 O   0  5  0  0  0  0  0  0  0  0  0  0
  158.3564   49.5131  145.4061 C   0  0  2  0  0  0  0  0  0  0  0  0
  158.8354   50.4943  146.1853 N   0  0  0  0  0  0  0  0  0  0  0  0
  161.5132   46.8704  146.3352 O   0  0  0  0  0  0  0  0  0  0  0  0
  157.5577   48.5691  145.9568 N   0  0  0  0  0  0  0  0  0  0  0  0
  157.0615   47.5640  145.2052 C   0  0  1  0  0  0  0  0  0  0  0  0
  157.4095   47.5224  143.7707 C   0  0  1  0  0  0  0  0  0  0  0  0
  158.2990   48.5917  143.2503 C   0  0  0  0  0  0  0  0  0  0  0  0
  158.6467   48.6483  142.0511 O   0  0  0  0  0  0  0  0  0  0  0  0
  156.8010   46.4379  143.2648 N   0  0  0  0  0  0  0  0  0  0  0  0
  156.1212   45.8462  144.2860 C   0  0  0  0  0  0  0  0  0  0  0  0
  156.2768   46.5140  145.4463 N   0  0  2  0  0  0  0  0  0  0  0  0
  1  3  1  6  0  0  0
  1  4  2  0  0  0  0
  1  6  1  0  0  0  0
  1 22  1  0  0  0  0
  2 28  1  0  0  0  0
  2 35  1  1  0  0  0
  2 38  2  0  0  0  0
  2 10  1  0  0  0  0
  5  6  1  0  0  0  0
  7  5  1  6  0  0  0
  7  8  1  0  0  0  0
  7  9  1  0  0  0  0
  9 10  1  1  0  0  0
  9 11  1  0  0  0  0
 11 12  1  1  0  0  0
 11 13  1  0  0  0  0
 13  8  1  1  0  0  0
 13 33  1  0  0  0  0
 14 46  1  0  0  0  0
 14 17  1  0  0  0  0
 14 25  1  1  0  0  0
 15 16  1  0  0  0  0
 15 29  1  0  0  0  0
 16 18  1  1  0  0  0
 16 21  1  0  0  0  0
 17 19  1  1  0  0  0
 17 20  1  0  0  0  0
 20 22  1  1  0  0  0
 20 24  1  0  0  0  0
 23 21  1  1  0  0  0
 23 26  1  0  0  0  0
 23 33  1  0  0  0  0
 24 25  1  6  0  0  0
 24 27  1  0  0  0  0
 26 29  1  1  0  0  0
 26 31  1  0  0  0  0
 27 28  1  0  0  0  0
 29 30  2  0  0  0  0
 31 32  1  0  0  0  0
 33 32  1  6  0  0  0
 34 36  1  0  0  0  0
 34 42  1  0  0  0  0
 36 37  1  1  0  0  0
 36 39  1  0  0  0  0
 40 39  1  1  0  0  0
 40 41  1  0  0  0  0
 40 46  1  0  0  0  0
 41 42  1  1  0  0  0
 41 44  1  0  0  0  0
 42 43  2  0  0  0  0
 44 45  1  0  0  0  0
 46 45  1  6  0  0  0
M  CHG  2   3  -1  35  -1
M  END
>  <CHROM.1>
154.82672115,-134.77245088,159.37420636,44.73555284,145.89042897,0.41225632
-0.87856087,2.45260205

>  <Name>
ligand

>  <RI>
0

>  <Rbt.Current_Directory>
/home/itssahil/PROJECTS/Mol_Feturizer/Test_systems_manuscript/rnas/4yb0

>  <Rbt.Executable>
rbdock ($Id: //depot/dev/client3/rdock/2013.1/src/exe/rbdock.cxx#4 $)

>  <Rbt.Library>
libRbt.so (2013.1, Build901 2013/11/27)

>  <Rbt.Parameter_File>
/export/apps/rDock/src/rDock_2013.1_src/data/scripts/dock_solv.prm

>  <Rbt.Receptor>
prm/pocket_docking_6.prm

>  <SCORE>
-21.8058

>  <SCORE.INTER>
-21.6243

>  <SCORE.INTER.CONST>
1

>  <SCORE.INTER.POLAR>
0

>  <SCORE.INTER.ROT>
2

>  <SCORE.INTER.SOLV>
22.5113

>  <SCORE.INTER.VDW>
-26.8533

>  <SCORE.INTER.norm>
-0.470093

>  <SCORE.INTRA>
-0.18153

>  <SCORE.INTRA.DIHEDRAL>
-0.0645931

>  <SCORE.INTRA.DIHEDRAL.0>
2.42188

>  <SCORE.INTRA.POLAR>
0

>  <SCORE.INTRA.POLAR.0>
0

>  <SCORE.INTRA.REPUL>
0

>  <SCORE.INTRA.REPUL.0>
0

>  <SCORE.INTRA.SOLV>
0.0522334

>  <SCORE.INTRA.SOLV.lig_0>
-127.307

>  <SCORE.INTRA.VDW>
-0.17535

>  <SCORE.INTRA.VDW.0>
-2.19936

>  <SCORE.INTRA.norm>
-0.00394631

>  <SCORE.RESTR>
0

>  <SCORE.RESTR.CAVITY>
0

>  <SCORE.RESTR.norm>
0

>  <SCORE.SYSTEM>
0

>  <SCORE.SYSTEM.CONST>
0

>  <SCORE.SYSTEM.DIHEDRAL>
0

>  <SCORE.SYSTEM.SOLV>
0

>  <SCORE.SYSTEM.norm>
0

>  <SCORE.heavy>
46

>  <SCORE.norm>
-0.47404

>  <RMSD>
4.557

$$$$
ligand
 OpenBabel02271912143D
libRbt.so/2013.1/901 2013/11/27
 46 52  0  0  0  0  0  0  0  0999 V2000
  157.5992   41.9617  148.0996 P   0  0  1  0  0  0  0  0  0  0  0  0
  160.9693   46.5370  147.7262 P   0  0  1  0  0  0  0  0  0  0  0  0
  156.8102   41.6384  146.8570 O   0  5  0  0  0  0  0  0  0  0  0  0
  157.5673   40.9361  149.2118 O   0  0  0  0  0  0  0  0  0  0  0  0
  160.2232   41.8425  148.4155 C   0  0  0  0  0  0  0  0  0  0  0  0
  159.1084   42.3049  147.6642 O   0  0  0  0  0  0  0  0  0  0  0  0
  161.4703   42.6193  148.0268 C   0  0  1  0  0  0  0  0  0  0  0  0
  162.2571   41.7927  147.1809 O   0  0  0  0  0  0  0  0  0  0  0  0
  161.2292   43.9109  147.2557 C   0  0  1  0  0  0  0  0  0  0  0  0
  161.4056   45.0236  148.1201 O   0  0  0  0  0  0  0  0  0  0  0  0
  162.3461   43.9263  146.2363 C   0  0  1  0  0  0  0  0  0  0  0  0
  163.4850   44.5945  146.7826 O   0  0  0  0  0  0  0  0  0  0  0  0
  162.7362   42.4900  146.0412 C   0  0  2  0  0  0  0  0  0  0  0  0
  155.6593   46.1278  146.7124 C   0  0  1  0  0  0  0  0  0  0  0  0
  161.1229   43.4739  141.1447 N   0  0  0  0  0  0  0  0  0  0  0  0
  161.7543   44.2719  142.0264 C   0  0  1  0  0  0  0  0  0  0  0  0
  155.8389   44.6435  146.9537 C   0  0  2  0  0  0  0  0  0  0  0  0
  162.0550   45.5398  141.6666 N   0  0  0  0  0  0  0  0  0  0  0  0
  154.7122   44.1926  147.7108 O   0  0  0  0  0  0  0  0  0  0  0  0
  157.1170   44.5188  147.7618 C   0  0  2  0  0  0  0  0  0  0  0  0
  162.1088   43.8775  143.2705 N   0  0  0  0  0  0  0  0  0  0  0  0
  157.0778   43.3904  148.6344 O   0  0  0  0  0  0  0  0  0  0  0  0
  161.8402   42.6278  143.7052 C   0  0  2  0  0  0  0  0  0  0  0  0
  157.1485   45.8407  148.5257 C   0  0  2  0  0  0  0  0  0  0  0  0
  156.3725   46.7735  147.7705 O   0  0  0  0  0  0  0  0  0  0  0  0
  161.1523   41.7044  142.7974 C   0  0  2  0  0  0  0  0  0  0  0  0
  158.5466   46.4200  148.7631 C   0  0  0  0  0  0  0  0  0  0  0  0
  159.3643   46.4110  147.5936 O   0  0  0  0  0  0  0  0  0  0  0  0
  160.7952   42.2066  141.4498 C   0  0  0  0  0  0  0  0  0  0  0  0
  160.2081   41.4589  140.6311 O   0  0  0  0  0  0  0  0  0  0  0  0
  161.0084   40.5519  143.4757 N   0  0  0  0  0  0  0  0  0  0  0  0
  161.5548   40.7171  144.7042 C   0  0  0  0  0  0  0  0  0  0  0  0
  162.0522   41.9588  144.8384 N   0  0  1  0  0  0  0  0  0  0  0  0
  158.7684   49.4849  144.1239 N   0  0  0  0  0  0  0  0  0  0  0  0
  161.3078   47.3980  148.9287 O   0  5  0  0  0  0  0  0  0  0  0  0
  158.4126   49.4644  145.4177 C   0  0  2  0  0  0  0  0  0  0  0  0
  158.9043   50.4297  146.2088 N   0  0  0  0  0  0  0  0  0  0  0  0
  161.5115   46.8687  146.3572 O   0  0  0  0  0  0  0  0  0  0  0  0
  157.5966   48.5279  145.9554 N   0  0  0  0  0  0  0  0  0  0  0  0
  157.0872   47.5387  145.1917 C   0  0  1  0  0  0  0  0  0  0  0  0
  157.4403   47.5061  143.7582 C   0  0  1  0  0  0  0  0  0  0  0  0
  158.3491   48.5662  143.2522 C   0  0  0  0  0  0  0  0  0  0  0  0
  158.7025   48.6294  142.0551 O   0  0  0  0  0  0  0  0  0  0  0  0
  156.8164   46.4369  143.2388 N   0  0  0  0  0  0  0  0  0  0  0  0
  156.1229   45.8459  144.2512 C   0  0  0  0  0  0  0  0  0  0  0  0
  156.2847   46.4992  145.4189 N   0  0  2  0  0  0  0  0  0  0  0  0
  1  3  1  6  0  0  0
  1  4  2  0  0  0  0
  1  6  1  0  0  0  0
  1 22  1  0  0  0  0
  2 28  1  0  0  0  0
  2 35  1  1  0  0  0
  2 38  2  0  0  0  0
  2 10  1  0  0  0  0
  5  6  1  0  0  0  0
  7  5  1  6  0  0  0
  7  8  1  0  0  0  0
  7  9  1  0  0  0  0
  9 10  1  1  0  0  0
  9 11  1  0  0  0  0
 11 12  1  1  0  0  0
 11 13  1  0  0  0  0
 13  8  1  1  0  0  0
 13 33  1  0  0  0  0
 14 46  1  0  0  0  0
 14 17  1  0  0  0  0
 14 25  1  1  0  0  0
 15 16  1  0  0  0  0
 15 29  1  0  0  0  0
 16 18  1  1  0  0  0
 16 21  1  0  0  0  0
 17 19  1  1  0  0  0
 17 20  1  0  0  0  0
 20 22  1  1  0  0  0
 20 24  1  0  0  0  0
 23 21  1  1  0  0  0
 23 26  1  0  0  0  0
 23 33  1  0  0  0  0
 24 25  1  6  0  0  0
 24 27  1  0  0  0  0
 26 29  1  1  0  0  0
 26 31  1  0  0  0  0
 27 28  1  0  0  0  0
 29 30  2  0  0  0  0
 31 32  1  0  0  0  0
 33 32  1  6  0  0  0
 34 36  1  0  0  0  0
 34 42  1  0  0  0  0
 36 37  1  1  0  0  0
 36 39  1  0  0  0  0
 40 39  1  1  0  0  0
 40 41  1  0  0  0  0
 40 46  1  0  0  0  0
 41 42  1  1  0  0  0
 41 44  1  0  0  0  0
 42 43  2  0  0  0  0
 44 45  1  0  0  0  0
 46 45  1  6  0  0  0
M  CHG  2   3  -1  35  -1
M  END
>  <CHROM.1>
153.54949363,-133.53146489,159.38185177,44.72726338,145.89384768,0.42336833
-0.87190367,2.46011061

>  <Name>
ligand

>  <RI>
0

>  <Rbt.Current_Directory>
/home/itssahil/PROJECTS/Mol_Feturizer/Test_systems_manuscript/rnas/4yb0

>  <Rbt.Executable>
rbdock ($Id: //depot/dev/client3/rdock/2013.1/src/exe/rbdock.cxx#4 $)

>  <Rbt.Library>
libRbt.so (2013.1, Build901 2013/11/27)

>  <Rbt.Parameter_File>
/export/apps/rDock/src/rDock_2013.1_src/data/scripts/dock_solv.prm

>  <Rbt.Receptor>
prm/pocket_docking_8.prm

>  <SCORE>
-21.7811

>  <SCORE.INTER>
-21.6132

>  <SCORE.INTER.CONST>
1

>  <SCORE.INTER.POLAR>
0

>  <SCORE.INTER.ROT>
2

>  <SCORE.INTER.SOLV>
22.1689

>  <SCORE.INTER.VDW>
-26.7317

>  <SCORE.INTER.norm>
-0.469851

>  <SCORE.INTRA>
-0.167899

>  <SCORE.INTRA.DIHEDRAL>
-0.063423

>  <SCORE.INTRA.DIHEDRAL.0>
2.42188

>  <SCORE.INTRA.POLAR>
0

>  <SCORE.INTRA.POLAR.0>
0

>  <SCORE.INTRA.REPUL>
0

>  <SCORE.INTRA.REPUL.0>
0

>  <SCORE.INTRA.SOLV>
0.216562

>  <SCORE.INTRA.SOLV.lig_0>
-127.307

>  <SCORE.INTRA.VDW>
-0.244468

>  <SCORE.INTRA.VDW.0>
-2.19936

>  <SCORE.INTRA.norm>
-0.00364997

>  <SCORE.RESTR>
0

>  <SCORE.RESTR.CAVITY>
0

>  <SCORE.RESTR.norm>
0

>  <SCORE.SYSTEM>
0

>  <SCORE.SYSTEM.CONST>
0

>  <SCORE.SYSTEM.DIHEDRAL>
0

>  <SCORE.SYSTEM.SOLV>
0

>  <SCORE.SYSTEM.norm>
0

>  <SCORE.heavy>
46

>  <SCORE.norm>
-0.473501

>  <RMSD>
4.574

$$$$
ligand
 OpenBabel02271912143D
libRbt.so/2013.1/901 2013/11/27
 46 52  0  0  0  0  0  0  0  0999 V2000
  159.0914   48.2941  148.2349 P   0  0  1  0  0  0  0  0  0  0  0  0
  160.3576   42.7428  148.3378 P   0  0  1  0  0  0  0  0  0  0  0  0
  159.0885   48.9299  146.8686 O   0  5  0  0  0  0  0  0  0  0  0  0
  158.5642   49.1345  149.3774 O   0  0  0  0  0  0  0  0  0  0  0  0
  157.4256   46.4577  149.1581 C   0  0  0  0  0  0  0  0  0  0  0  0
  158.3183   46.8876  148.1386 O   0  0  0  0  0  0  0  0  0  0  0  0
  157.1527   44.9694  149.0165 C   0  0  1  0  0  0  0  0  0  0  0  0
  155.8661   44.8118  148.4353 O   0  0  0  0  0  0  0  0  0  0  0  0
  158.1203   44.2035  148.1232 C   0  0  1  0  0  0  0  0  0  0  0  0
  159.0242   43.4585  148.9259 O   0  0  0  0  0  0  0  0  0  0  0  0
  157.2268   43.2267  147.3920 C   0  0  1  0  0  0  0  0  0  0  0  0
  157.1295   42.0130  148.1400 O   0  0  0  0  0  0  0  0  0  0  0  0
  155.8607   43.8490  147.3924 C   0  0  2  0  0  0  0  0  0  0  0  0
  163.1623   46.8346  146.1510 C   0  0  1  0  0  0  0  0  0  0  0  0
  152.4605   44.9777  143.5569 N   0  0  0  0  0  0  0  0  0  0  0  0
  152.2996   44.2325  144.6667 C   0  0  1  0  0  0  0  0  0  0  0  0
  161.9803   47.7026  146.5294 C   0  0  2  0  0  0  0  0  0  0  0  0
  151.1014   43.6517  144.8999 N   0  0  0  0  0  0  0  0  0  0  0  0
  162.4984   48.9367  147.0339 O   0  0  0  0  0  0  0  0  0  0  0  0
  161.2516   46.9378  147.6185 C   0  0  2  0  0  0  0  0  0  0  0  0
  153.2795   44.0237  145.5750 N   0  0  0  0  0  0  0  0  0  0  0  0
  160.6028   47.8193  148.5341 O   0  0  0  0  0  0  0  0  0  0  0  0
  154.5047   44.5670  145.4113 C   0  0  2  0  0  0  0  0  0  0  0  0
  162.3833   46.1508  148.2757 C   0  0  2  0  0  0  0  0  0  0  0  0
  163.4181   46.0202  147.2984 O   0  0  0  0  0  0  0  0  0  0  0  0
  154.7518   45.3897  144.2231 C   0  0  2  0  0  0  0  0  0  0  0  0
  161.9942   44.7614  148.7902 C   0  0  0  0  0  0  0  0  0  0  0  0
  161.2389   44.0039  147.8457 O   0  0  0  0  0  0  0  0  0  0  0  0
  153.6306   45.5745  143.2719 C   0  0  0  0  0  0  0  0  0  0  0  0
  153.7849   46.2709  142.2398 O   0  0  0  0  0  0  0  0  0  0  0  0
  156.0322   45.7925  144.3075 N   0  0  0  0  0  0  0  0  0  0  0  0
  156.5595   45.2792  145.4449 C   0  0  0  0  0  0  0  0  0  0  0  0
  155.6437   44.5477  146.1034 N   0  0  1  0  0  0  0  0  0  0  0  0
  159.5268   45.5641  142.5724 N   0  0  0  0  0  0  0  0  0  0  0  0
  161.0392   42.0860  149.5236 O   0  5  0  0  0  0  0  0  0  0  0  0
  159.5093   46.5187  143.5154 C   0  0  2  0  0  0  0  0  0  0  0  0
  158.4159   47.2921  143.5911 N   0  0  0  0  0  0  0  0  0  0  0  0
  159.9907   41.9417  147.1124 O   0  0  0  0  0  0  0  0  0  0  0  0
  160.5287   46.7379  144.3785 N   0  0  0  0  0  0  0  0  0  0  0  0
  161.6466   45.9834  144.3288 C   0  0  1  0  0  0  0  0  0  0  0  0
  161.7273   44.9145  143.3132 C   0  0  1  0  0  0  0  0  0  0  0  0
  160.5682   44.7484  142.3998 C   0  0  0  0  0  0  0  0  0  0  0  0
  160.5368   43.8699  141.5113 O   0  0  0  0  0  0  0  0  0  0  0  0
  162.9248   44.3293  143.4738 N   0  0  0  0  0  0  0  0  0  0  0  0
  163.5475   44.9657  144.5046 C   0  0  0  0  0  0  0  0  0  0  0  0
  162.7886   45.9555  145.0154 N   0  0  2  0  0  0  0  0  0  0  0  0
  1  3  1  6  0  0  0
  1  4  2  0  0  0  0
  1  6  1  0  0  0  0
  1 22  1  0  0  0  0
  2 28  1  0  0  0  0
  2 35  1  1  0  0  0
  2 38  2  0  0  0  0
  2 10  1  0  0  0  0
  5  6  1  0  0  0  0
  7  5  1  6  0  0  0
  7  8  1  0  0  0  0
  7  9  1  0  0  0  0
  9 10  1  1  0  0  0
  9 11  1  0  0  0  0
 11 12  1  1  0  0  0
 11 13  1  0  0  0  0
 13  8  1  1  0  0  0
 13 33  1  0  0  0  0
 14 46  1  0  0  0  0
 14 17  1  0  0  0  0
 14 25  1  1  0  0  0
 15 16  1  0  0  0  0
 15 29  1  0  0  0  0
 16 18  1  6  0  0  0
 16 21  1  0  0  0  0
 17 19  1  1  0  0  0
 17 20  1  0  0  0  0
 20 22  1  1  0  0  0
 20 24  1  0  0  0  0
 23 21  1  6  0  0  0
 23 26  1  0  0  0  0
 23 33  1  0  0  0  0
 24 25  1  6  0  0  0
 24 27  1  0  0  0  0
 26 29  1  6  0  0  0
 26 31  1  0  0  0  0
 27 28  1  0  0  0  0
 29 30  2  0  0  0  0
 31 32  1  0  0  0  0
 33 32  1  1  0  0  0
 34 36  1  0  0  0  0
 34 42  1  0  0  0  0
 36 37  1  6  0  0  0
 36 39  1  0  0  0  0
 40 39  1  6  0  0  0
 40 41  1  0  0  0  0
 40 46  1  0  0  0  0
 41 42  1  6  0  0  0
 41 44  1  0  0  0  0
 42 43  2  0  0  0  0
 44 45  1  0  0  0  0
 46 45  1  1  0  0  0
M  CHG  2   3  -1  35  -1
M  END
>  <CHROM.1>
-104.16676825,5.86921624,158.75797875,45.39056988,146.29604878,0.20408870
0.19062883,1.73005033

>  <Name>
ligand

>  <RI>
0

>  <Rbt.Current_Directory>
/home/itssahil/PROJECTS/Mol_Feturizer/Test_systems_manuscript/rnas/4yb0

>  <Rbt.Executable>
rbdock ($Id: //depot/dev/client3/rdock/2013.1/src/exe/rbdock.cxx#4 $)

>  <Rbt.Library>
libRbt.so (2013.1, Build901 2013/11/27)

>  <Rbt.Parameter_File>
/export/apps/rDock/src/rDock_2013.1_src/data/scripts/dock_solv.prm

>  <Rbt.Receptor>
prm/pocket_docking_7.prm

>  <SCORE>
-23.5158

>  <SCORE.INTER>
-24.8225

>  <SCORE.INTER.CONST>
1

>  <SCORE.INTER.POLAR>
0

>  <SCORE.INTER.ROT>
2

>  <SCORE.INTER.SOLV>
13.5912

>  <SCORE.INTER.VDW>
-26.0121

>  <SCORE.INTER.norm>
-0.539619

>  <SCORE.INTRA>
1.30666

>  <SCORE.INTRA.DIHEDRAL>
-0.0286309

>  <SCORE.INTRA.DIHEDRAL.0>
2.42188

>  <SCORE.INTRA.POLAR>
0

>  <SCORE.INTRA.POLAR.0>
0

>  <SCORE.INTRA.REPUL>
0

>  <SCORE.INTRA.REPUL.0>
0

>  <SCORE.INTRA.SOLV>
2.86927

>  <SCORE.INTRA.SOLV.lig_0>
-127.307

>  <SCORE.INTRA.VDW>
-0.113659

>  <SCORE.INTRA.VDW.0>
-2.19936

>  <SCORE.INTRA.norm>
0.0284056

>  <SCORE.RESTR>
0

>  <SCORE.RESTR.CAVITY>
0

>  <SCORE.RESTR.norm>
0

>  <SCORE.SYSTEM>
0

>  <SCORE.SYSTEM.CONST>
0

>  <SCORE.SYSTEM.DIHEDRAL>
0

>  <SCORE.SYSTEM.SOLV>
0

>  <SCORE.SYSTEM.norm>
0

>  <SCORE.heavy>
46

>  <SCORE.norm>
-0.511214

>  <RMSD>
4.583

$$$$
ligand
 OpenBabel02271912143D
libRbt.so/2013.1/901 2013/11/27
 46 52  0  0  0  0  0  0  0  0999 V2000
  160.2677   43.2688  147.4733 P   0  0  1  0  0  0  0  0  0  0  0  0
  158.2171   48.5815  147.4776 P   0  0  1  0  0  0  0  0  0  0  0  0
  159.7967   42.3963  146.3384 O   0  5  0  0  0  0  0  0  0  0  0  0
  161.3715   42.7124  148.3462 O   0  0  0  0  0  0  0  0  0  0  0  0
  161.8183   45.4071  147.3220 C   0  0  0  0  0  0  0  0  0  0  0  0
  160.6657   44.7063  146.8732 O   0  0  0  0  0  0  0  0  0  0  0  0
  161.7390   46.8642  146.8975 C   0  0  1  0  0  0  0  0  0  0  0  0
  162.6033   47.0454  145.7848 O   0  0  0  0  0  0  0  0  0  0  0  0
  160.3646   47.3476  146.4523 C   0  0  1  0  0  0  0  0  0  0  0  0
  159.7764   48.1291  147.4817 O   0  0  0  0  0  0  0  0  0  0  0  0
  160.6727   48.2609  145.2871 C   0  0  1  0  0  0  0  0  0  0  0  0
  160.8667   49.5949  145.7613 O   0  0  0  0  0  0  0  0  0  0  0  0
  161.9930   47.7952  144.7455 C   0  0  2  0  0  0  0  0  0  0  0  0
  155.5109   43.8876  147.2911 C   0  0  1  0  0  0  0  0  0  0  0  0
  161.9699   42.8483  142.9922 N   0  0  0  0  0  0  0  0  0  0  0  0
  162.2824   43.3359  144.2078 C   0  0  1  0  0  0  0  0  0  0  0  0
  156.8727   43.2321  147.1961 C   0  0  2  0  0  0  0  0  0  0  0  0
  162.6576   42.4783  145.1830 N   0  0  0  0  0  0  0  0  0  0  0  0
  156.8455   42.0647  148.0221 O   0  0  0  0  0  0  0  0  0  0  0  0
  157.8512   44.2559  147.7408 C   0  0  2  0  0  0  0  0  0  0  0  0
  162.2462   44.6520  144.5166 N   0  0  0  0  0  0  0  0  0  0  0  0
  158.9727   43.6303  148.3629 O   0  0  0  0  0  0  0  0  0  0  0  0
  161.8848   45.5712  143.5961 C   0  0  2  0  0  0  0  0  0  0  0  0
  156.9913   45.0279  148.7390 C   0  0  2  0  0  0  0  0  0  0  0  0
  155.6327   44.8680  148.3252 O   0  0  0  0  0  0  0  0  0  0  0  0
  161.5327   45.1111  142.2492 C   0  0  2  0  0  0  0  0  0  0  0  0
  157.3132   46.5211  148.8544 C   0  0  0  0  0  0  0  0  0  0  0  0
  157.4459   47.1665  147.5886 O   0  0  0  0  0  0  0  0  0  0  0  0
  161.5951   43.6544  141.9842 C   0  0  0  0  0  0  0  0  0  0  0  0
  161.3016   43.2046  140.8504 O   0  0  0  0  0  0  0  0  0  0  0  0
  161.2236   46.2153  141.5463 N   0  0  0  0  0  0  0  0  0  0  0  0
  161.3615   47.2859  142.3647 C   0  0  0  0  0  0  0  0  0  0  0  0
  161.7560   46.8978  143.5900 N   0  0  1  0  0  0  0  0  0  0  0  0
  151.9105   44.9313  143.6053 N   0  0  0  0  0  0  0  0  0  0  0  0
  158.0054   49.3705  148.7561 O   0  5  0  0  0  0  0  0  0  0  0  0
  151.8042   44.2108  144.7324 C   0  0  2  0  0  0  0  0  0  0  0  0
  150.6133   43.6544  144.9999 N   0  0  0  0  0  0  0  0  0  0  0  0
  157.8775   49.1774  146.1330 O   0  0  0  0  0  0  0  0  0  0  0  0
  152.8252   44.0245  145.6015 N   0  0  0  0  0  0  0  0  0  0  0  0
  154.0359   44.5730  145.3683 C   0  0  1  0  0  0  0  0  0  0  0  0
  154.2181   45.3772  144.1433 C   0  0  1  0  0  0  0  0  0  0  0  0
  153.0434   45.5390  143.2491 C   0  0  0  0  0  0  0  0  0  0  0  0
  153.0964   46.1951  142.1866 O   0  0  0  0  0  0  0  0  0  0  0  0
  155.4908   45.8042  144.1563 N   0  0  0  0  0  0  0  0  0  0  0  0
  156.0683   45.3098  145.2864 C   0  0  0  0  0  0  0  0  0  0  0  0
  155.2020   44.5769  146.0138 N   0  0  2  0  0  0  0  0  0  0  0  0
  1  3  1  6  0  0  0
  1  4  2  0  0  0  0
  1  6  1  0  0  0  0
  1 22  1  0  0  0  0
  2 28  1  0  0  0  0
  2 35  1  1  0  0  0
  2 38  2  0  0  0  0
  2 10  1  0  0  0  0
  5  6  1  0  0  0  0
  7  5  1  6  0  0  0
  7  8  1  0  0  0  0
  7  9  1  0  0  0  0
  9 10  1  1  0  0  0
  9 11  1  0  0  0  0
 11 12  1  1  0  0  0
 11 13  1  0  0  0  0
 13  8  1  1  0  0  0
 13 33  1  0  0  0  0
 14 46  1  0  0  0  0
 14 17  1  0  0  0  0
 14 25  1  1  0  0  0
 15 16  1  0  0  0  0
 15 29  1  0  0  0  0
 16 18  1  6  0  0  0
 16 21  1  0  0  0  0
 17 19  1  1  0  0  0
 17 20  1  0  0  0  0
 20 22  1  1  0  0  0
 20 24  1  0  0  0  0
 23 21  1  6  0  0  0
 23 26  1  0  0  0  0
 23 33  1  0  0  0  0
 24 25  1  6  0  0  0
 24 27  1  0  0  0  0
 26 29  1  6  0  0  0
 26 31  1  0  0  0  0
 27 28  1  0  0  0  0
 29 30  2  0  0  0  0
 31 32  1  0  0  0  0
 33 32  1  1  0  0  0
 34 36  1  0  0  0  0
 34 42  1  0  0  0  0
 36 37  1  1  0  0  0
 36 39  1  0  0  0  0
 40 39  1  1  0  0  0
 40 41  1  0  0  0  0
 40 46  1  0  0  0  0
 41 42  1  1  0  0  0
 41 44  1  0  0  0  0
 42 43  2  0  0  0  0
 44 45  1  0  0  0  0
 46 45  1  6  0  0  0
M  CHG  2   3  -1  35  -1
M  END
>  <CHROM.1>
10.18174579,137.30372317,158.49754945,45.41299370,145.73211156,-0.01203577
0.10143970,0.99785418

>  <Name>
ligand

>  <RI>
0

>  <Rbt.Current_Directory>
/home/itssahil/PROJECTS/Mol_Feturizer/Test_systems_manuscript/rnas/4yb0

>  <Rbt.Executable>
rbdock ($Id: //depot/dev/client3/rdock/2013.1/src/exe/rbdock.cxx#4 $)

>  <Rbt.Library>
libRbt.so (2013.1, Build901 2013/11/27)

>  <Rbt.Parameter_File>
/export/apps/rDock/src/rDock_2013.1_src/data/scripts/dock_solv.prm

>  <Rbt.Receptor>
prm/pocket_docking_6.prm

>  <SCORE>
-22.6766

>  <SCORE.INTER>
-24.9628

>  <SCORE.INTER.CONST>
1

>  <SCORE.INTER.POLAR>
0

>  <SCORE.INTER.ROT>
2

>  <SCORE.INTER.SOLV>
20.3637

>  <SCORE.INTER.VDW>
-28.3631

>  <SCORE.INTER.norm>
-0.542669

>  <SCORE.INTRA>
2.2862

>  <SCORE.INTRA.DIHEDRAL>
-0.00900568

>  <SCORE.INTRA.DIHEDRAL.0>
2.42188

>  <SCORE.INTRA.POLAR>
0

>  <SCORE.INTRA.POLAR.0>
0

>  <SCORE.INTRA.REPUL>
0

>  <SCORE.INTRA.REPUL.0>
0

>  <SCORE.INTRA.SOLV>
7.43774

>  <SCORE.INTRA.SOLV.lig_0>
-127.307

>  <SCORE.INTRA.VDW>
-1.42817

>  <SCORE.INTRA.VDW.0>
-2.19936

>  <SCORE.INTRA.norm>
0.0496999

>  <SCORE.RESTR>
0

>  <SCORE.RESTR.CAVITY>
0

>  <SCORE.RESTR.norm>
0

>  <SCORE.SYSTEM>
0

>  <SCORE.SYSTEM.CONST>
0

>  <SCORE.SYSTEM.DIHEDRAL>
0

>  <SCORE.SYSTEM.SOLV>
0

>  <SCORE.SYSTEM.norm>
0

>  <SCORE.heavy>
46

>  <SCORE.norm>
-0.492969

>  <RMSD>
4.604

$$$$
ligand
 OpenBabel02271912143D
libRbt.so/2013.1/901 2013/11/27
 46 52  0  0  0  0  0  0  0  0999 V2000
  161.9581   47.0101  149.0854 P   0  0  1  0  0  0  0  0  0  0  0  0
  158.5833   42.6129  150.3913 P   0  0  1  0  0  0  0  0  0  0  0  0
  162.2957   47.1524  147.6236 O   0  5  0  0  0  0  0  0  0  0  0  0
  162.3729   48.1474  149.9933 O   0  0  0  0  0  0  0  0  0  0  0  0
  159.5893   47.3065  150.2257 C   0  0  0  0  0  0  0  0  0  0  0  0
  160.3847   46.7048  149.2127 O   0  0  0  0  0  0  0  0  0  0  0  0
  158.2718   46.5615  150.3634 C   0  0  1  0  0  0  0  0  0  0  0  0
  157.2622   47.3330  149.7282 O   0  0  0  0  0  0  0  0  0  0  0  0
  158.2234   45.1825  149.7180 C   0  0  1  0  0  0  0  0  0  0  0  0
  158.3260   44.1818  150.7204 O   0  0  0  0  0  0  0  0  0  0  0  0
  156.8317   45.1173  149.1300 C   0  0  1  0  0  0  0  0  0  0  0  0
  155.9278   44.5760  150.0954 O   0  0  0  0  0  0  0  0  0  0  0  0
  156.4216   46.5431  148.9012 C   0  0  2  0  0  0  0  0  0  0  0  0
  163.2629   42.6177  147.6541 C   0  0  1  0  0  0  0  0  0  0  0  0
  154.7579   46.1771  143.9368 N   0  0  0  0  0  0  0  0  0  0  0  0
  154.2347   45.6646  145.0666 C   0  0  1  0  0  0  0  0  0  0  0  0
  163.1968   44.1270  147.7597 C   0  0  2  0  0  0  0  0  0  0  0  0
  153.1028   44.9294  144.9917 N   0  0  0  0  0  0  0  0  0  0  0  0
  164.5176   44.5953  148.0460 O   0  0  0  0  0  0  0  0  0  0  0  0
  162.2609   44.4088  148.9201 C   0  0  2  0  0  0  0  0  0  0  0  0
  154.7825   45.8405  146.2905 N   0  0  0  0  0  0  0  0  0  0  0  0
  162.6048   45.6217  149.5887 O   0  0  0  0  0  0  0  0  0  0  0  0
  155.9146   46.5594  146.4473 C   0  0  2  0  0  0  0  0  0  0  0  0
  162.4635   43.1817  149.8062 C   0  0  2  0  0  0  0  0  0  0  0  0
  162.9307   42.1311  148.9572 O   0  0  0  0  0  0  0  0  0  0  0  0
  156.5407   47.1461  145.2584 C   0  0  2  0  0  0  0  0  0  0  0  0
  161.2142   42.7092  150.5562 C   0  0  0  0  0  0  0  0  0  0  0  0
  160.0554   42.6356  149.7266 O   0  0  0  0  0  0  0  0  0  0  0  0
  155.8835   46.9114  143.9510 C   0  0  0  0  0  0  0  0  0  0  0  0
  156.3741   47.3922  142.9012 O   0  0  0  0  0  0  0  0  0  0  0  0
  157.6365   47.7927  145.6941 N   0  0  0  0  0  0  0  0  0  0  0  0
  157.7079   47.6388  147.0381 C   0  0  0  0  0  0  0  0  0  0  0  0
  156.6766   46.9018  147.4859 N   0  0  1  0  0  0  0  0  0  0  0  0
  161.1648   43.0964  142.8576 N   0  0  0  0  0  0  0  0  0  0  0  0
  158.6490   41.9078  151.7331 O   0  5  0  0  0  0  0  0  0  0  0  0
  162.1906   43.7557  143.4179 C   0  0  2  0  0  0  0  0  0  0  0  0
  162.8051   44.6882  142.6748 N   0  0  0  0  0  0  0  0  0  0  0  0
  157.6128   42.1643  149.3259 O   0  0  0  0  0  0  0  0  0  0  0  0
  162.6308   43.5257  144.6771 N   0  0  0  0  0  0  0  0  0  0  0  0
  162.0407   42.5918  145.4524 C   0  0  1  0  0  0  0  0  0  0  0  0
  160.9046   41.8317  144.8938 C   0  0  1  0  0  0  0  0  0  0  0  0
  160.4922   42.1406  143.5009 C   0  0  0  0  0  0  0  0  0  0  0  0
  159.5396   41.5575  142.9400 O   0  0  0  0  0  0  0  0  0  0  0  0
  160.5121   40.9781  145.8528 N   0  0  0  0  0  0  0  0  0  0  0  0
  161.3229   41.1821  146.9280 C   0  0  0  0  0  0  0  0  0  0  0  0
  162.2384   42.1425  146.6915 N   0  0  2  0  0  0  0  0  0  0  0  0
  1  3  1  6  0  0  0
  1  4  2  0  0  0  0
  1  6  1  0  0  0  0
  1 22  1  0  0  0  0
  2 28  1  0  0  0  0
  2 35  1  1  0  0  0
  2 38  2  0  0  0  0
  2 10  1  0  0  0  0
  5  6  1  0  0  0  0
  7  5  1  6  0  0  0
  7  8  1  0  0  0  0
  7  9  1  0  0  0  0
  9 10  1  1  0  0  0
  9 11  1  0  0  0  0
 11 12  1  1  0  0  0
 11 13  1  0  0  0  0
 13  8  1  1  0  0  0
 13 33  1  0  0  0  0
 14 46  1  0  0  0  0
 14 17  1  0  0  0  0
 14 25  1  1  0  0  0
 15 16  1  0  0  0  0
 15 29  1  0  0  0  0
 16 18  1  6  0  0  0
 16 21  1  0  0  0  0
 17 19  1  1  0  0  0
 17 20  1  0  0  0  0
 20 22  1  1  0  0  0
 20 24  1  0  0  0  0
 23 21  1  6  0  0  0
 23 26  1  0  0  0  0
 23 33  1  0  0  0  0
 24 25  1  6  0  0  0
 24 27  1  0  0  0  0
 26 29  1  6  0  0  0
 26 31  1  0  0  0  0
 27 28  1  0  0  0  0
 29 30  2  0  0  0  0
 31 32  1  0  0  0  0
 33 32  1  1  0  0  0
 34 36  1  0  0  0  0
 34 42  1  0  0  0  0
 36 37  1  6  0  0  0
 36 39  1  0  0  0  0
 40 39  1  6  0  0  0
 40 41  1  0  0  0  0
 40 46  1  0  0  0  0
 41 42  1  6  0  0  0
 41 44  1  0  0  0  0
 42 43  2  0  0  0  0
 44 45  1  0  0  0  0
 46 45  1  1  0  0  0
M  CHG  2   3  -1  35  -1
M  END
>  <CHROM.1>
-166.75388520,50.82363004,159.52337678,44.68558886,147.52644358,0.19475476
-0.42437206,1.39819013

>  <Name>
ligand

>  <RI>
0

>  <Rbt.Current_Directory>
/home/itssahil/PROJECTS/Mol_Feturizer/Test_systems_manuscript/rnas/4yb0

>  <Rbt.Executable>
rbdock ($Id: //depot/dev/client3/rdock/2013.1/src/exe/rbdock.cxx#4 $)

>  <Rbt.Library>
libRbt.so (2013.1, Build901 2013/11/27)

>  <Rbt.Parameter_File>
/export/apps/rDock/src/rDock_2013.1_src/data/scripts/dock_solv.prm

>  <Rbt.Receptor>
prm/pocket_docking_7.prm

>  <SCORE>
-17.7396

>  <SCORE.INTER>
-17.7281

>  <SCORE.INTER.CONST>
1

>  <SCORE.INTER.POLAR>
0

>  <SCORE.INTER.ROT>
2

>  <SCORE.INTER.SOLV>
22.6024

>  <SCORE.INTER.VDW>
-24.2862

>  <SCORE.INTER.norm>
-0.385393

>  <SCORE.INTRA>
-0.0115261

>  <SCORE.INTRA.DIHEDRAL>
0.00561659

>  <SCORE.INTRA.DIHEDRAL.0>
2.42188

>  <SCORE.INTRA.POLAR>
0

>  <SCORE.INTRA.POLAR.0>
0

>  <SCORE.INTRA.REPUL>
0

>  <SCORE.INTRA.REPUL.0>
0

>  <SCORE.INTRA.SOLV>
0.000124743

>  <SCORE.INTRA.SOLV.lig_0>
-127.307

>  <SCORE.INTRA.VDW>
-0.0143967

>  <SCORE.INTRA.VDW.0>
-2.19936

>  <SCORE.INTRA.norm>
-0.000250567

>  <SCORE.RESTR>
0

>  <SCORE.RESTR.CAVITY>
0

>  <SCORE.RESTR.norm>
0

>  <SCORE.SYSTEM>
0

>  <SCORE.SYSTEM.CONST>
0

>  <SCORE.SYSTEM.DIHEDRAL>
0

>  <SCORE.SYSTEM.SOLV>
0

>  <SCORE.SYSTEM.norm>
0

>  <SCORE.heavy>
46

>  <SCORE.norm>
-0.385643

>  <RMSD>
4.697

$$$$
ligand
 OpenBabel02271912143D
libRbt.so/2013.1/901 2013/11/27
 46 52  0  0  0  0  0  0  0  0999 V2000
  157.5032   42.2390  147.6920 P   0  0  1  0  0  0  0  0  0  0  0  0
  162.0518   45.1893  149.4347 P   0  0  1  0  0  0  0  0  0  0  0  0
  156.6976   42.8843  146.5940 O   0  5  0  0  0  0  0  0  0  0  0  0
  157.1414   40.8151  148.0543 O   0  0  0  0  0  0  0  0  0  0  0  0
  159.9712   41.2986  147.5364 C   0  0  0  0  0  0  0  0  0  0  0  0
  159.0615   42.3690  147.3177 O   0  0  0  0  0  0  0  0  0  0  0  0
  161.4009   41.8103  147.4731 C   0  0  1  0  0  0  0  0  0  0  0  0
  161.9468   41.4348  146.2165 O   0  0  0  0  0  0  0  0  0  0  0  0
  161.5657   43.3213  147.5746 C   0  0  1  0  0  0  0  0  0  0  0  0
  162.0234   43.6659  148.8740 O   0  0  0  0  0  0  0  0  0  0  0  0
  162.6744   43.6217  146.5911 C   0  0  1  0  0  0  0  0  0  0  0  0
  163.9375   43.5499  147.2555 O   0  0  0  0  0  0  0  0  0  0  0  0
  162.6439   42.5018  145.5919 C   0  0  2  0  0  0  0  0  0  0  0  0
  156.8844   46.7912  149.0843 C   0  0  1  0  0  0  0  0  0  0  0  0
  158.8321   41.3154  142.1847 N   0  0  0  0  0  0  0  0  0  0  0  0
  159.3128   40.6121  143.2274 C   0  0  1  0  0  0  0  0  0  0  0  0
  156.6236   45.4420  148.4478 C   0  0  2  0  0  0  0  0  0  0  0  0
  158.7800   39.4011  143.5044 N   0  0  0  0  0  0  0  0  0  0  0  0
  155.3899   44.9489  148.9776 O   0  0  0  0  0  0  0  0  0  0  0  0
  157.7843   44.5638  148.8762 C   0  0  2  0  0  0  0  0  0  0  0  0
  160.3138   41.0487  144.0251 N   0  0  0  0  0  0  0  0  0  0  0  0
  157.3943   43.1955  148.9853 O   0  0  0  0  0  0  0  0  0  0  0  0
  160.8997   42.2461  143.8111 C   0  0  2  0  0  0  0  0  0  0  0  0
  158.1665   45.1663  150.2263 C   0  0  2  0  0  0  0  0  0  0  0  0
  157.7159   46.5227  150.2164 O   0  0  0  0  0  0  0  0  0  0  0  0
  160.4273   43.0655  142.6907 C   0  0  2  0  0  0  0  0  0  0  0  0
  159.6630   45.1321  150.5520 C   0  0  0  0  0  0  0  0  0  0  0  0
  160.4833   45.5740  149.4712 O   0  0  0  0  0  0  0  0  0  0  0  0
  159.3268   42.5222  141.8602 C   0  0  0  0  0  0  0  0  0  0  0  0
  158.8813   43.1818  140.8904 O   0  0  0  0  0  0  0  0  0  0  0  0
  161.1747   44.1836  142.7046 N   0  0  0  0  0  0  0  0  0  0  0  0
  162.0453   44.0935  143.7386 C   0  0  0  0  0  0  0  0  0  0  0  0
  161.8780   42.9345  144.3991 N   0  0  1  0  0  0  0  0  0  0  0  0
  157.3850   48.4973  144.1370 N   0  0  0  0  0  0  0  0  0  0  0  0
  162.5812   45.1045  150.8540 O   0  5  0  0  0  0  0  0  0  0  0  0
  156.4905   47.6500  144.6687 C   0  0  2  0  0  0  0  0  0  0  0  0
  155.5621   47.1368  143.8477 N   0  0  0  0  0  0  0  0  0  0  0  0
  162.7126   46.0816  148.4122 O   0  0  0  0  0  0  0  0  0  0  0  0
  156.4779   47.2967  145.9753 N   0  0  0  0  0  0  0  0  0  0  0  0
  157.3928   47.7969  146.8321 C   0  0  1  0  0  0  0  0  0  0  0  0
  158.4061   48.7347  146.3083 C   0  0  1  0  0  0  0  0  0  0  0  0
  158.3420   49.0761  144.8643 C   0  0  0  0  0  0  0  0  0  0  0  0
  159.1567   49.8547  144.3239 O   0  0  0  0  0  0  0  0  0  0  0  0
  159.1774   49.0801  147.3513 N   0  0  0  0  0  0  0  0  0  0  0  0
  158.7006   48.4156  148.4405 C   0  0  0  0  0  0  0  0  0  0  0  0
  157.6336   47.6510  148.1348 N   0  0  2  0  0  0  0  0  0  0  0  0
  1  3  1  6  0  0  0
  1  4  2  0  0  0  0
  1  6  1  0  0  0  0
  1 22  1  0  0  0  0
  2 28  1  0  0  0  0
  2 35  1  1  0  0  0
  2 38  2  0  0  0  0
  2 10  1  0  0  0  0
  5  6  1  0  0  0  0
  7  5  1  6  0  0  0
  7  8  1  0  0  0  0
  7  9  1  0  0  0  0
  9 10  1  1  0  0  0
  9 11  1  0  0  0  0
 11 12  1  1  0  0  0
 11 13  1  0  0  0  0
 13  8  1  1  0  0  0
 13 33  1  0  0  0  0
 14 46  1  0  0  0  0
 14 17  1  0  0  0  0
 14 25  1  1  0  0  0
 15 16  1  0  0  0  0
 15 29  1  0  0  0  0
 16 18  1  6  0  0  0
 16 21  1  0  0  0  0
 17 19  1  1  0  0  0
 17 20  1  0  0  0  0
 20 22  1  1  0  0  0
 20 24  1  0  0  0  0
 23 21  1  6  0  0  0
 23 26  1  0  0  0  0
 23 33  1  0  0  0  0
 24 25  1  6  0  0  0
 24 27  1  0  0  0  0
 26 29  1  6  0  0  0
 26 31  1  0  0  0  0
 27 28  1  0  0  0  0
 29 30  2  0  0  0  0
 31 32  1  0  0  0  0
 33 32  1  1  0  0  0
 34 36  1  0  0  0  0
 34 42  1  0  0  0  0
 36 37  1  1  0  0  0
 36 39  1  0  0  0  0
 40 39  1  1  0  0  0
 40 41  1  0  0  0  0
 40 46  1  0  0  0  0
 41 42  1  1  0  0  0
 41 44  1  0  0  0  0
 42 43  2  0  0  0  0
 44 45  1  0  0  0  0
 46 45  1  6  0  0  0
M  CHG  2   3  -1  35  -1
M  END
>  <CHROM.1>
-15.56238227,43.93982112,159.39651235,44.46801218,146.67016252,-1.03019215
-0.90305222,1.08056522

>  <Name>
ligand

>  <RI>
0

>  <Rbt.Current_Directory>
/home/itssahil/PROJECTS/Mol_Feturizer/Test_systems_manuscript/rnas/4yb0

>  <Rbt.Executable>
rbdock ($Id: //depot/dev/client3/rdock/2013.1/src/exe/rbdock.cxx#4 $)

>  <Rbt.Library>
libRbt.so (2013.1, Build901 2013/11/27)

>  <Rbt.Parameter_File>
/export/apps/rDock/src/rDock_2013.1_src/data/scripts/dock_solv.prm

>  <Rbt.Receptor>
prm/pocket_docking_7.prm

>  <SCORE>
-11.5134

>  <SCORE.INTER>
-11.5872

>  <SCORE.INTER.CONST>
1

>  <SCORE.INTER.POLAR>
0

>  <SCORE.INTER.ROT>
2

>  <SCORE.INTER.SOLV>
35.1095

>  <SCORE.INTER.VDW>
-24.3613

>  <SCORE.INTER.norm>
-0.251895

>  <SCORE.INTRA>
0.0738112

>  <SCORE.INTRA.DIHEDRAL>
0.0169615

>  <SCORE.INTRA.DIHEDRAL.0>
2.42188

>  <SCORE.INTRA.POLAR>
0

>  <SCORE.INTRA.POLAR.0>
0

>  <SCORE.INTRA.REPUL>
0

>  <SCORE.INTRA.REPUL.0>
0

>  <SCORE.INTRA.SOLV>
0.168555

>  <SCORE.INTRA.SOLV.lig_0>
-127.307

>  <SCORE.INTRA.VDW>
-0.0189473

>  <SCORE.INTRA.VDW.0>
-2.19936

>  <SCORE.INTRA.norm>
0.00160459

>  <SCORE.RESTR>
0

>  <SCORE.RESTR.CAVITY>
0

>  <SCORE.RESTR.norm>
0

>  <SCORE.SYSTEM>
0

>  <SCORE.SYSTEM.CONST>
0

>  <SCORE.SYSTEM.DIHEDRAL>
0

>  <SCORE.SYSTEM.SOLV>
0

>  <SCORE.SYSTEM.norm>
0

>  <SCORE.heavy>
46

>  <SCORE.norm>
-0.250291

>  <RMSD>
4.847

$$$$
ligand
 OpenBabel02271912143D
libRbt.so/2013.1/901 2013/11/27
 46 52  0  0  0  0  0  0  0  0999 V2000
  161.2869   46.9387  147.7765 P   0  0  1  0  0  0  0  0  0  0  0  0
  160.4397   47.6691  142.1926 P   0  0  1  0  0  0  0  0  0  0  0  0
  160.1664   46.2528  148.5148 O   0  5  0  0  0  0  0  0  0  0  0  0
  162.5710   47.1628  148.5450 O   0  0  0  0  0  0  0  0  0  0  0  0
  162.8746   45.8969  145.9344 C   0  0  0  0  0  0  0  0  0  0  0  0
  161.5562   46.1363  146.4095 O   0  0  0  0  0  0  0  0  0  0  0  0
  162.8335   45.4861  144.4718 C   0  0  1  0  0  0  0  0  0  0  0  0
  163.0271   44.0805  144.4044 O   0  0  0  0  0  0  0  0  0  0  0  0
  161.5265   45.7715  143.7431 C   0  0  1  0  0  0  0  0  0  0  0  0
  161.6836   46.9090  142.9076 O   0  0  0  0  0  0  0  0  0  0  0  0
  161.3452   44.5594  142.8571 C   0  0  1  0  0  0  0  0  0  0  0  0
  161.9720   44.7904  141.5939 O   0  0  0  0  0  0  0  0  0  0  0  0
  162.1071   43.4519  143.5250 C   0  0  2  0  0  0  0  0  0  0  0  0
  157.2797   49.1567  146.3389 C   0  0  1  0  0  0  0  0  0  0  0  0
  160.9585   41.5163  148.2664 N   0  0  0  0  0  0  0  0  0  0  0  0
  161.9948   42.2786  147.8688 C   0  0  1  0  0  0  0  0  0  0  0  0
  158.2725   48.4233  147.2163 C   0  0  2  0  0  0  0  0  0  0  0  0
  162.9270   42.6449  148.7766 N   0  0  0  0  0  0  0  0  0  0  0  0
  158.4761   49.2161  148.3892 O   0  0  0  0  0  0  0  0  0  0  0  0
  159.5462   48.3355  146.3964 C   0  0  2  0  0  0  0  0  0  0  0  0
  162.1643   42.7041  146.5965 N   0  0  0  0  0  0  0  0  0  0  0  0
  160.7062   48.3389  147.2275 O   0  0  0  0  0  0  0  0  0  0  0  0
  161.2782   42.3774  145.6315 C   0  0  2  0  0  0  0  0  0  0  0  0
  159.4565   49.5844  145.5223 C   0  0  2  0  0  0  0  0  0  0  0  0
  158.0718   49.9266  145.4307 O   0  0  0  0  0  0  0  0  0  0  0  0
  160.1251   41.5471  145.9931 C   0  0  2  0  0  0  0  0  0  0  0  0
  160.0351   49.4326  144.1121 C   0  0  0  0  0  0  0  0  0  0  0  0
  159.6100   48.2387  143.4561 O   0  0  0  0  0  0  0  0  0  0  0  0
  160.0051   41.1185  147.4065 C   0  0  0  0  0  0  0  0  0  0  0  0
  159.0371   40.4094  147.7725 O   0  0  0  0  0  0  0  0  0  0  0  0
  159.4212   41.3720  144.8605 N   0  0  0  0  0  0  0  0  0  0  0  0
  160.0601   42.0301  143.8635 C   0  0  0  0  0  0  0  0  0  0  0  0
  161.1696   42.6311  144.3275 N   0  0  1  0  0  0  0  0  0  0  0  0
  154.7218   44.5638  146.3532 N   0  0  0  0  0  0  0  0  0  0  0  0
  161.0429   48.8295  141.4235 O   0  5  0  0  0  0  0  0  0  0  0  0
  155.3704   45.1907  147.3468 C   0  0  2  0  0  0  0  0  0  0  0  0
  155.3933   44.5892  148.5455 N   0  0  0  0  0  0  0  0  0  0  0  0
  159.5674   46.6498  141.5011 O   0  0  0  0  0  0  0  0  0  0  0  0
  155.9902   46.3851  147.2004 N   0  0  0  0  0  0  0  0  0  0  0  0
  155.9836   47.0225  146.0109 C   0  0  1  0  0  0  0  0  0  0  0  0
  155.2871   46.3838  144.8762 C   0  0  1  0  0  0  0  0  0  0  0  0
  154.6252   45.0780  145.1260 C   0  0  0  0  0  0  0  0  0  0  0  0
  154.0154   44.4546  144.2306 O   0  0  0  0  0  0  0  0  0  0  0  0
  155.4249   47.2149  143.8310 N   0  0  0  0  0  0  0  0  0  0  0  0
  156.1503   48.2843  144.2616 C   0  0  0  0  0  0  0  0  0  0  0  0
  156.4830   48.1741  145.5630 N   0  0  2  0  0  0  0  0  0  0  0  0
  1  3  1  1  0  0  0
  1  4  2  0  0  0  0
  1  6  1  0  0  0  0
  1 22  1  0  0  0  0
  2 28  1  0  0  0  0
  2 35  1  6  0  0  0
  2 38  2  0  0  0  0
  2 10  1  0  0  0  0
  5  6  1  0  0  0  0
  7  5  1  1  0  0  0
  7  8  1  0  0  0  0
  7  9  1  0  0  0  0
  9 10  1  6  0  0  0
  9 11  1  0  0  0  0
 11 12  1  6  0  0  0
 11 13  1  0  0  0  0
 13  8  1  1  0  0  0
 13 33  1  0  0  0  0
 14 46  1  0  0  0  0
 14 17  1  0  0  0  0
 14 25  1  6  0  0  0
 15 16  1  0  0  0  0
 15 29  1  0  0  0  0
 16 18  1  6  0  0  0
 16 21  1  0  0  0  0
 17 19  1  1  0  0  0
 17 20  1  0  0  0  0
 20 22  1  1  0  0  0
 20 24  1  0  0  0  0
 23 21  1  6  0  0  0
 23 26  1  0  0  0  0
 23 33  1  0  0  0  0
 24 25  1  6  0  0  0
 24 27  1  0  0  0  0
 26 29  1  6  0  0  0
 26 31  1  0  0  0  0
 27 28  1  0  0  0  0
 29 30  2  0  0  0  0
 31 32  1  0  0  0  0
 33 32  1  1  0  0  0
 34 36  1  0  0  0  0
 34 42  1  0  0  0  0
 36 37  1  1  0  0  0
 36 39  1  0  0  0  0
 40 39  1  1  0  0  0
 40 41  1  0  0  0  0
 40 46  1  0  0  0  0
 41 42  1  1  0  0  0
 41 44  1  0  0  0  0
 42 43  2  0  0  0  0
 44 45  1  0  0  0  0
 46 45  1  6  0  0  0
M  CHG  2   3  -1  35  -1
M  END
>  <CHROM.1>
-8.35259249,41.35754183,159.56445871,45.78545105,145.48769055,-0.81259063
0.34122191,-0.48044162

>  <Name>
ligand

>  <RI>
0

>  <Rbt.Current_Directory>
/home/itssahil/PROJECTS/Mol_Feturizer/Test_systems_manuscript/rnas/4yb0

>  <Rbt.Executable>
rbdock ($Id: //depot/dev/client3/rdock/2013.1/src/exe/rbdock.cxx#4 $)

>  <Rbt.Library>
libRbt.so (2013.1, Build901 2013/11/27)

>  <Rbt.Parameter_File>
/export/apps/rDock/src/rDock_2013.1_src/data/scripts/dock_solv.prm

>  <Rbt.Receptor>
prm/pocket_docking_5.prm

>  <SCORE>
-19.0314

>  <SCORE.INTER>
-18.9213

>  <SCORE.INTER.CONST>
1

>  <SCORE.INTER.POLAR>
0

>  <SCORE.INTER.ROT>
2

>  <SCORE.INTER.SOLV>
20.6725

>  <SCORE.INTER.VDW>
-24.4383

>  <SCORE.INTER.norm>
-0.411332

>  <SCORE.INTRA>
-0.110091

>  <SCORE.INTRA.DIHEDRAL>
0.0126762

>  <SCORE.INTRA.DIHEDRAL.0>
2.42188

>  <SCORE.INTRA.POLAR>
0

>  <SCORE.INTRA.POLAR.0>
0

>  <SCORE.INTRA.REPUL>
0

>  <SCORE.INTRA.REPUL.0>
0

>  <SCORE.INTRA.SOLV>
0.504481

>  <SCORE.INTRA.SOLV.lig_0>
-127.307

>  <SCORE.INTRA.VDW>
-0.36867

>  <SCORE.INTRA.VDW.0>
-2.19936

>  <SCORE.INTRA.norm>
-0.00239329

>  <SCORE.RESTR>
0

>  <SCORE.RESTR.CAVITY>
0

>  <SCORE.RESTR.norm>
0

>  <SCORE.SYSTEM>
0

>  <SCORE.SYSTEM.CONST>
0

>  <SCORE.SYSTEM.DIHEDRAL>
0

>  <SCORE.SYSTEM.SOLV>
0

>  <SCORE.SYSTEM.norm>
0

>  <SCORE.heavy>
46

>  <SCORE.norm>
-0.413725

>  <RMSD>
4.925

$$$$
ligand
 OpenBabel02271912143D
libRbt.so/2013.1/901 2013/11/27
 46 52  0  0  0  0  0  0  0  0999 V2000
  161.0768   45.6427  142.4338 P   0  0  1  0  0  0  0  0  0  0  0  0
  161.0879   46.1382  148.1070 P   0  0  1  0  0  0  0  0  0  0  0  0
  160.1186   44.6213  141.8773 O   0  5  0  0  0  0  0  0  0  0  0  0
  161.7612   46.5492  141.4340 O   0  0  0  0  0  0  0  0  0  0  0  0
  160.4785   47.8986  143.6798 C   0  0  0  0  0  0  0  0  0  0  0  0
  160.3095   46.4918  143.5631 O   0  0  0  0  0  0  0  0  0  0  0  0
  159.9727   48.3725  145.0323 C   0  0  1  0  0  0  0  0  0  0  0  0
  158.7055   48.9843  144.8378 O   0  0  0  0  0  0  0  0  0  0  0  0
  159.7640   47.2835  146.0770 C   0  0  1  0  0  0  0  0  0  0  0  0
  160.8274   47.3135  147.0176 O   0  0  0  0  0  0  0  0  0  0  0  0
  158.4985   47.7124  146.7851 C   0  0  1  0  0  0  0  0  0  0  0  0
  158.8293   48.5557  147.8902 O   0  0  0  0  0  0  0  0  0  0  0  0
  157.7502   48.5612  145.7986 C   0  0  2  0  0  0  0  0  0  0  0  0
  161.7607   41.6938  145.0763 C   0  0  1  0  0  0  0  0  0  0  0  0
  154.3013   44.6323  146.2621 N   0  0  0  0  0  0  0  0  0  0  0  0
  155.1491   45.1533  147.1691 C   0  0  1  0  0  0  0  0  0  0  0  0
  161.4554   42.5877  143.8926 C   0  0  2  0  0  0  0  0  0  0  0  0
  155.1732   44.6371  148.4182 N   0  0  0  0  0  0  0  0  0  0  0  0
  162.3536   42.2269  142.8395 O   0  0  0  0  0  0  0  0  0  0  0  0
  161.7281   44.0004  144.3741 C   0  0  2  0  0  0  0  0  0  0  0  0
  155.9934   46.1754  146.9019 N   0  0  0  0  0  0  0  0  0  0  0  0
  162.1685   44.8418  143.3090 O   0  0  0  0  0  0  0  0  0  0  0  0
  156.0311   46.7423  145.6770 C   0  0  2  0  0  0  0  0  0  0  0  0
  162.8135   43.7813  145.4257 C   0  0  2  0  0  0  0  0  0  0  0  0
  162.6790   42.4345  145.8846 O   0  0  0  0  0  0  0  0  0  0  0  0
  155.1353   46.2236  144.6386 C   0  0  2  0  0  0  0  0  0  0  0  0
  162.7571   44.7330  146.6247 C   0  0  0  0  0  0  0  0  0  0  0  0
  161.4460   44.8716  147.1706 O   0  0  0  0  0  0  0  0  0  0  0  0
  154.2379   45.1025  145.0046 C   0  0  0  0  0  0  0  0  0  0  0  0
  153.4487   44.6213  144.1564 O   0  0  0  0  0  0  0  0  0  0  0  0
  155.3807   46.9528  143.5355 N   0  0  0  0  0  0  0  0  0  0  0  0
  156.3427   47.8580  143.8363 C   0  0  0  0  0  0  0  0  0  0  0  0
  156.7290   47.7305  145.1176 N   0  0  1  0  0  0  0  0  0  0  0  0
  159.5925   41.0400  149.8207 N   0  0  0  0  0  0  0  0  0  0  0  0
  162.3229   46.5528  148.8847 O   0  5  0  0  0  0  0  0  0  0  0  0
  160.8720   41.2624  149.4825 C   0  0  2  0  0  0  0  0  0  0  0  0
  161.7693   41.3384  150.4766 N   0  0  0  0  0  0  0  0  0  0  0  0
  159.7933   45.8244  148.8167 O   0  0  0  0  0  0  0  0  0  0  0  0
  161.2936   41.4152  148.2053 N   0  0  0  0  0  0  0  0  0  0  0  0
  160.4189   41.3503  147.1796 C   0  0  1  0  0  0  0  0  0  0  0  0
  158.9951   41.1066  147.4857 C   0  0  1  0  0  0  0  0  0  0  0  0
  158.6168   40.9600  148.9144 C   0  0  0  0  0  0  0  0  0  0  0  0
  157.4399   40.7459  149.2765 O   0  0  0  0  0  0  0  0  0  0  0  0
  158.3512   41.0941  146.3078 N   0  0  0  0  0  0  0  0  0  0  0  0
  159.2844   41.3047  145.3382 C   0  0  0  0  0  0  0  0  0  0  0  0
  160.5192   41.4610  145.8552 N   0  0  2  0  0  0  0  0  0  0  0  0
  1  3  1  6  0  0  0
  1  4  2  0  0  0  0
  1  6  1  0  0  0  0
  1 22  1  0  0  0  0
  2 28  1  0  0  0  0
  2 35  1  1  0  0  0
  2 38  2  0  0  0  0
  2 10  1  0  0  0  0
  5  6  1  0  0  0  0
  7  5  1  6  0  0  0
  7  8  1  0  0  0  0
  7  9  1  0  0  0  0
  9 10  1  1  0  0  0
  9 11  1  0  0  0  0
 11 12  1  1  0  0  0
 11 13  1  0  0  0  0
 13  8  1  6  0  0  0
 13 33  1  0  0  0  0
 14 46  1  0  0  0  0
 14 17  1  0  0  0  0
 14 25  1  1  0  0  0
 15 16  1  0  0  0  0
 15 29  1  0  0  0  0
 16 18  1  6  0  0  0
 16 21  1  0  0  0  0
 17 19  1  6  0  0  0
 17 20  1  0  0  0  0
 20 22  1  6  0  0  0
 20 24  1  0  0  0  0
 23 21  1  6  0  0  0
 23 26  1  0  0  0  0
 23 33  1  0  0  0  0
 24 25  1  1  0  0  0
 24 27  1  0  0  0  0
 26 29  1  6  0  0  0
 26 31  1  0  0  0  0
 27 28  1  0  0  0  0
 29 30  2  0  0  0  0
 31 32  1  0  0  0  0
 33 32  1  1  0  0  0
 34 36  1  0  0  0  0
 34 42  1  0  0  0  0
 36 37  1  1  0  0  0
 36 39  1  0  0  0  0
 40 39  1  1  0  0  0
 40 41  1  0  0  0  0
 40 46  1  0  0  0  0
 41 42  1  1  0  0  0
 41 44  1  0  0  0  0
 42 43  2  0  0  0  0
 44 45  1  0  0  0  0
 46 45  1  6  0  0  0
M  CHG  2   3  -1  35  -1
M  END
>  <CHROM.1>
150.68193546,-143.93461632,159.41687744,44.81339798,145.93468733,-2.22675335
-0.31916954,2.43256422

>  <Name>
ligand

>  <RI>
0

>  <Rbt.Current_Directory>
/home/itssahil/PROJECTS/Mol_Feturizer/Test_systems_manuscript/rnas/4yb0

>  <Rbt.Executable>
rbdock ($Id: //depot/dev/client3/rdock/2013.1/src/exe/rbdock.cxx#4 $)

>  <Rbt.Library>
libRbt.so (2013.1, Build901 2013/11/27)

>  <Rbt.Parameter_File>
/export/apps/rDock/src/rDock_2013.1_src/data/scripts/dock_solv.prm

>  <Rbt.Receptor>
prm/pocket_docking_5.prm

>  <SCORE>
-19.584

>  <SCORE.INTER>
-19.9388

>  <SCORE.INTER.CONST>
1

>  <SCORE.INTER.POLAR>
0

>  <SCORE.INTER.ROT>
2

>  <SCORE.INTER.SOLV>
24.1158

>  <SCORE.INTER.VDW>
-26.2645

>  <SCORE.INTER.norm>
-0.433453

>  <SCORE.INTRA>
0.354774

>  <SCORE.INTRA.DIHEDRAL>
-0.0730736

>  <SCORE.INTRA.DIHEDRAL.0>
2.42188

>  <SCORE.INTRA.POLAR>
0

>  <SCORE.INTRA.POLAR.0>
0

>  <SCORE.INTRA.REPUL>
0

>  <SCORE.INTRA.REPUL.0>
0

>  <SCORE.INTRA.SOLV>
0.0614143

>  <SCORE.INTRA.SOLV.lig_0>
-127.307

>  <SCORE.INTRA.VDW>
0.360604

>  <SCORE.INTRA.VDW.0>
-2.19936

>  <SCORE.INTRA.norm>
0.00771248

>  <SCORE.RESTR>
0

>  <SCORE.RESTR.CAVITY>
0

>  <SCORE.RESTR.norm>
0

>  <SCORE.SYSTEM>
0

>  <SCORE.SYSTEM.CONST>
0

>  <SCORE.SYSTEM.DIHEDRAL>
0

>  <SCORE.SYSTEM.SOLV>
0

>  <SCORE.SYSTEM.norm>
0

>  <SCORE.heavy>
46

>  <SCORE.norm>
-0.42574

>  <RMSD>
4.973

$$$$
ligand
 OpenBabel02271912143D
libRbt.so/2013.1/901 2013/11/27
 46 52  0  0  0  0  0  0  0  0999 V2000
  161.0138   45.1012  142.5283 P   0  0  1  0  0  0  0  0  0  0  0  0
  160.7085   46.0777  148.1305 P   0  0  1  0  0  0  0  0  0  0  0  0
  160.0732   44.0463  142.0051 O   0  5  0  0  0  0  0  0  0  0  0  0
  161.7680   45.9120  141.4972 O   0  0  0  0  0  0  0  0  0  0  0  0
  160.3802   47.4611  143.5426 C   0  0  0  0  0  0  0  0  0  0  0  0
  160.1964   46.0514  143.5354 O   0  0  0  0  0  0  0  0  0  0  0  0
  159.8053   48.0538  144.8185 C   0  0  1  0  0  0  0  0  0  0  0  0
  158.5609   48.6602  144.4997 O   0  0  0  0  0  0  0  0  0  0  0  0
  159.5205   47.0600  145.9374 C   0  0  1  0  0  0  0  0  0  0  0  0
  160.5288   47.1587  146.9325 O   0  0  0  0  0  0  0  0  0  0  0  0
  158.2234   47.5609  146.5319 C   0  0  1  0  0  0  0  0  0  0  0  0
  158.5036   48.4917  147.5794 O   0  0  0  0  0  0  0  0  0  0  0  0
  157.5459   48.3305  145.4355 C   0  0  2  0  0  0  0  0  0  0  0  0
  161.4845   41.3845  145.5298 C   0  0  1  0  0  0  0  0  0  0  0  0
  154.0732   44.4378  146.0128 N   0  0  0  0  0  0  0  0  0  0  0  0
  154.8833   45.0184  146.9181 C   0  0  1  0  0  0  0  0  0  0  0  0
  161.2611   42.1776  144.2591 C   0  0  2  0  0  0  0  0  0  0  0  0
  154.8541   44.5859  148.1985 N   0  0  0  0  0  0  0  0  0  0  0  0
  162.2123   41.7190  143.2944 O   0  0  0  0  0  0  0  0  0  0  0  0
  161.5276   43.6233  144.6348 C   0  0  2  0  0  0  0  0  0  0  0  0
  155.7399   46.0213  146.6195 N   0  0  0  0  0  0  0  0  0  0  0  0
  162.0412   44.3662  143.5300 O   0  0  0  0  0  0  0  0  0  0  0  0
  155.8299   46.5060  145.3625 C   0  0  2  0  0  0  0  0  0  0  0  0
  162.5477   43.4830  145.7625 C   0  0  2  0  0  0  0  0  0  0  0  0
  162.3664   42.1816  146.3248 O   0  0  0  0  0  0  0  0  0  0  0  0
  154.9775   45.9190  144.3240 C   0  0  2  0  0  0  0  0  0  0  0  0
  162.4377   44.5339  146.8717 C   0  0  0  0  0  0  0  0  0  0  0  0
  161.0998   44.7322  147.3267 O   0  0  0  0  0  0  0  0  0  0  0  0
  154.0634   44.8238  144.7254 C   0  0  0  0  0  0  0  0  0  0  0  0
  153.3094   44.2868  143.8785 O   0  0  0  0  0  0  0  0  0  0  0  0
  155.2702   46.5739  143.1864 N   0  0  0  0  0  0  0  0  0  0  0  0
  156.2204   47.4978  143.4667 C   0  0  0  0  0  0  0  0  0  0  0  0
  156.5525   47.4557  144.7688 N   0  0  1  0  0  0  0  0  0  0  0  0
  159.0874   40.4308  150.1104 N   0  0  0  0  0  0  0  0  0  0  0  0
  161.9033   46.5439  148.9410 O   0  5  0  0  0  0  0  0  0  0  0  0
  160.3960   40.5097  149.8240 C   0  0  2  0  0  0  0  0  0  0  0  0
  161.2612   40.3248  150.8323 N   0  0  0  0  0  0  0  0  0  0  0  0
  159.3707   45.8391  148.7875 O   0  0  0  0  0  0  0  0  0  0  0  0
  160.8777   40.7670  148.5855 N   0  0  0  0  0  0  0  0  0  0  0  0
  160.0377   40.9637  147.5477 C   0  0  1  0  0  0  0  0  0  0  0  0
  158.5842   40.8889  147.7973 C   0  0  1  0  0  0  0  0  0  0  0  0
  158.1412   40.6115  149.1875 C   0  0  0  0  0  0  0  0  0  0  0  0
  156.9344   40.5229  149.5002 O   0  0  0  0  0  0  0  0  0  0  0  0
  157.9850   41.1238  146.6192 N   0  0  0  0  0  0  0  0  0  0  0  0
  158.9707   41.3239  145.7006 C   0  0  0  0  0  0  0  0  0  0  0  0
  160.1971   41.2320  146.2520 N   0  0  2  0  0  0  0  0  0  0  0  0
  1  3  1  6  0  0  0
  1  4  2  0  0  0  0
  1  6  1  0  0  0  0
  1 22  1  0  0  0  0
  2 28  1  0  0  0  0
  2 35  1  1  0  0  0
  2 38  2  0  0  0  0
  2 10  1  0  0  0  0
  5  6  1  0  0  0  0
  7  5  1  6  0  0  0
  7  8  1  0  0  0  0
  7  9  1  0  0  0  0
  9 10  1  1  0  0  0
  9 11  1  0  0  0  0
 11 12  1  1  0  0  0
 11 13  1  0  0  0  0
 13  8  1  6  0  0  0
 13 33  1  0  0  0  0
 14 46  1  0  0  0  0
 14 17  1  0  0  0  0
 14 25  1  1  0  0  0
 15 16  1  0  0  0  0
 15 29  1  0  0  0  0
 16 18  1  6  0  0  0
 16 21  1  0  0  0  0
 17 19  1  6  0  0  0
 17 20  1  0  0  0  0
 20 22  1  6  0  0  0
 20 24  1  0  0  0  0
 23 21  1  6  0  0  0
 23 26  1  0  0  0  0
 23 33  1  0  0  0  0
 24 25  1  1  0  0  0
 24 27  1  0  0  0  0
 26 29  1  6  0  0  0
 26 31  1  0  0  0  0
 27 28  1  0  0  0  0
 29 30  2  0  0  0  0
 31 32  1  0  0  0  0
 33 32  1  1  0  0  0
 34 36  1  0  0  0  0
 34 42  1  0  0  0  0
 36 37  1  1  0  0  0
 36 39  1  0  0  0  0
 40 39  1  1  0  0  0
 40 41  1  0  0  0  0
 40 46  1  0  0  0  0
 41 42  1  1  0  0  0
 41 44  1  0  0  0  0
 42 43  2  0  0  0  0
 44 45  1  0  0  0  0
 46 45  1  6  0  0  0
M  CHG  2   3  -1  35  -1
M  END
>  <CHROM.1>
149.10493333,-158.64102578,159.15537742,44.50508284,145.97498601,-2.06284487
-0.26886014,2.43043645

>  <Name>
ligand

>  <RI>
0

>  <Rbt.Current_Directory>
/home/itssahil/PROJECTS/Mol_Feturizer/Test_systems_manuscript/rnas/4yb0

>  <Rbt.Executable>
rbdock ($Id: //depot/dev/client3/rdock/2013.1/src/exe/rbdock.cxx#4 $)

>  <Rbt.Library>
libRbt.so (2013.1, Build901 2013/11/27)

>  <Rbt.Parameter_File>
/export/apps/rDock/src/rDock_2013.1_src/data/scripts/dock_solv.prm

>  <Rbt.Receptor>
prm/pocket_docking_5.prm

>  <SCORE>
-19.8667

>  <SCORE.INTER>
-20.7109

>  <SCORE.INTER.CONST>
1

>  <SCORE.INTER.POLAR>
0

>  <SCORE.INTER.ROT>
2

>  <SCORE.INTER.SOLV>
26.4992

>  <SCORE.INTER.VDW>
-27.5736

>  <SCORE.INTER.norm>
-0.450236

>  <SCORE.INTRA>
0.844188

>  <SCORE.INTRA.DIHEDRAL>
-0.0720845

>  <SCORE.INTRA.DIHEDRAL.0>
2.42188

>  <SCORE.INTRA.POLAR>
0

>  <SCORE.INTRA.POLAR.0>
0

>  <SCORE.INTRA.REPUL>
0

>  <SCORE.INTRA.REPUL.0>
0

>  <SCORE.INTRA.SOLV>
0.0654345

>  <SCORE.INTRA.SOLV.lig_0>
-127.307

>  <SCORE.INTRA.VDW>
0.847513

>  <SCORE.INTRA.VDW.0>
-2.19936

>  <SCORE.INTRA.norm>
0.0183519

>  <SCORE.RESTR>
0

>  <SCORE.RESTR.CAVITY>
0

>  <SCORE.RESTR.norm>
0

>  <SCORE.SYSTEM>
0

>  <SCORE.SYSTEM.CONST>
0

>  <SCORE.SYSTEM.DIHEDRAL>
0

>  <SCORE.SYSTEM.SOLV>
0

>  <SCORE.SYSTEM.norm>
0

>  <SCORE.heavy>
46

>  <SCORE.norm>
-0.431884

>  <RMSD>
4.980

$$$$
ligand
 OpenBabel02271912143D
libRbt.so/2013.1/901 2013/11/27
 46 52  0  0  0  0  0  0  0  0999 V2000
  162.5861   46.8138  146.1035 P   0  0  1  0  0  0  0  0  0  0  0  0
  157.9382   44.7157  148.6384 P   0  0  1  0  0  0  0  0  0  0  0  0
  162.8520   46.2963  144.7134 O   0  5  0  0  0  0  0  0  0  0  0  0
  163.4475   47.9640  146.5776 O   0  0  0  0  0  0  0  0  0  0  0  0
  160.5716   48.3349  146.8958 C   0  0  0  0  0  0  0  0  0  0  0  0
  161.0222   47.1684  146.2194 O   0  0  0  0  0  0  0  0  0  0  0  0
  159.0859   48.2212  147.1949 C   0  0  1  0  0  0  0  0  0  0  0  0
  158.3861   49.0285  146.2587 O   0  0  0  0  0  0  0  0  0  0  0  0
  158.4945   46.8222  147.0769 C   0  0  1  0  0  0  0  0  0  0  0  0
  158.2934   46.2775  148.3727 O   0  0  0  0  0  0  0  0  0  0  0  0
  157.1382   47.0645  146.4535 C   0  0  1  0  0  0  0  0  0  0  0  0
  156.1672   47.2688  147.4818 O   0  0  0  0  0  0  0  0  0  0  0  0
  157.2612   48.3612  145.7073 C   0  0  2  0  0  0  0  0  0  0  0  0
  162.1001   42.0481  146.4126 C   0  0  1  0  0  0  0  0  0  0  0  0
  160.5164   49.0819  141.6537 N   0  0  0  0  0  0  0  0  0  0  0  0
  160.5865   49.5470  142.9154 C   0  0  1  0  0  0  0  0  0  0  0  0
  162.5958   43.4098  145.9729 C   0  0  2  0  0  0  0  0  0  0  0  0
  161.6308   50.3285  143.2702 N   0  0  0  0  0  0  0  0  0  0  0  0
  164.0127   43.4339  146.1674 O   0  0  0  0  0  0  0  0  0  0  0  0
  161.9082   44.4039  146.8900 C   0  0  2  0  0  0  0  0  0  0  0  0
  159.6599   49.2786  143.8631 N   0  0  0  0  0  0  0  0  0  0  0  0
  162.7150   45.5603  147.1092 O   0  0  0  0  0  0  0  0  0  0  0  0
  158.5861   48.5086  143.5855 C   0  0  2  0  0  0  0  0  0  0  0  0
  161.7095   43.5865  148.1645 C   0  0  2  0  0  0  0  0  0  0  0  0
  161.7028   42.2109  147.7767 O   0  0  0  0  0  0  0  0  0  0  0  0
  158.4444   47.9689  142.2296 C   0  0  2  0  0  0  0  0  0  0  0  0
  160.4280   43.8995  148.9432 C   0  0  0  0  0  0  0  0  0  0  0  0
  159.2685   43.9642  148.1139 O   0  0  0  0  0  0  0  0  0  0  0  0
  159.4989   48.3050  141.2442 C   0  0  0  0  0  0  0  0  0  0  0  0
  159.4301   47.8681  140.0702 O   0  0  0  0  0  0  0  0  0  0  0  0
  157.3040   47.2559  142.2288 N   0  0  0  0  0  0  0  0  0  0  0  0
  156.7633   47.3278  143.4688 C   0  0  0  0  0  0  0  0  0  0  0  0
  157.5325   48.0766  144.2782 N   0  0  1  0  0  0  0  0  0  0  0  0
  160.0094   41.4980  141.6205 N   0  0  0  0  0  0  0  0  0  0  0  0
  157.8336   44.5591  150.1439 O   0  5  0  0  0  0  0  0  0  0  0  0
  161.2417   41.8872  141.9823 C   0  0  2  0  0  0  0  0  0  0  0  0
  162.1061   42.1907  141.0025 N   0  0  0  0  0  0  0  0  0  0  0  0
  156.8010   44.3053  147.7348 O   0  0  0  0  0  0  0  0  0  0  0  0
  161.6494   41.9829  143.2695 N   0  0  0  0  0  0  0  0  0  0  0  0
  160.8093   41.6807  144.2816 C   0  0  1  0  0  0  0  0  0  0  0  0
  159.4376   41.2467  143.9493 C   0  0  1  0  0  0  0  0  0  0  0  0
  159.0758   41.1599  142.5115 C   0  0  0  0  0  0  0  0  0  0  0  0
  157.9394   40.8089  142.1273 O   0  0  0  0  0  0  0  0  0  0  0  0
  158.8227   41.0068  145.1183 N   0  0  0  0  0  0  0  0  0  0  0  0
  159.7221   41.2712  146.1064 C   0  0  0  0  0  0  0  0  0  0  0  0
  160.9099   41.6708  145.6105 N   0  0  2  0  0  0  0  0  0  0  0  0
  1  3  1  6  0  0  0
  1  4  2  0  0  0  0
  1  6  1  0  0  0  0
  1 22  1  0  0  0  0
  2 28  1  0  0  0  0
  2 35  1  1  0  0  0
  2 38  2  0  0  0  0
  2 10  1  0  0  0  0
  5  6  1  0  0  0  0
  7  5  1  6  0  0  0
  7  8  1  0  0  0  0
  7  9  1  0  0  0  0
  9 10  1  1  0  0  0
  9 11  1  0  0  0  0
 11 12  1  1  0  0  0
 11 13  1  0  0  0  0
 13  8  1  1  0  0  0
 13 33  1  0  0  0  0
 14 46  1  0  0  0  0
 14 17  1  0  0  0  0
 14 25  1  1  0  0  0
 15 16  1  0  0  0  0
 15 29  1  0  0  0  0
 16 18  1  6  0  0  0
 16 21  1  0  0  0  0
 17 19  1  1  0  0  0
 17 20  1  0  0  0  0
 20 22  1  1  0  0  0
 20 24  1  0  0  0  0
 23 21  1  6  0  0  0
 23 26  1  0  0  0  0
 23 33  1  0  0  0  0
 24 25  1  6  0  0  0
 24 27  1  0  0  0  0
 26 29  1  6  0  0  0
 26 31  1  0  0  0  0
 27 28  1  0  0  0  0
 29 30  2  0  0  0  0
 31 32  1  0  0  0  0
 33 32  1  1  0  0  0
 34 36  1  0  0  0  0
 34 42  1  0  0  0  0
 36 37  1  6  0  0  0
 36 39  1  0  0  0  0
 40 39  1  6  0  0  0
 40 41  1  0  0  0  0
 40 46  1  0  0  0  0
 41 42  1  6  0  0  0
 41 44  1  0  0  0  0
 42 43  2  0  0  0  0
 44 45  1  0  0  0  0
 46 45  1  1  0  0  0
M  CHG  2   3  -1  35  -1
M  END
>  <CHROM.1>
-7.10127603,51.42790957,159.94681983,45.37913315,145.36125283,2.45482348
1.28511003,-1.03039679

>  <Name>
ligand

>  <RI>
0

>  <Rbt.Current_Directory>
/home/itssahil/PROJECTS/Mol_Feturizer/Test_systems_manuscript/rnas/4yb0

>  <Rbt.Executable>
rbdock ($Id: //depot/dev/client3/rdock/2013.1/src/exe/rbdock.cxx#4 $)

>  <Rbt.Library>
libRbt.so (2013.1, Build901 2013/11/27)

>  <Rbt.Parameter_File>
/export/apps/rDock/src/rDock_2013.1_src/data/scripts/dock_solv.prm

>  <Rbt.Receptor>
prm/pocket_docking_4.prm

>  <SCORE>
-6.19908

>  <SCORE.INTER>
-6.07269

>  <SCORE.INTER.CONST>
1

>  <SCORE.INTER.POLAR>
0

>  <SCORE.INTER.ROT>
2

>  <SCORE.INTER.SOLV>
28.2279

>  <SCORE.INTER.VDW>
-18.3911

>  <SCORE.INTER.norm>
-0.132015

>  <SCORE.INTRA>
-0.148554

>  <SCORE.INTRA.DIHEDRAL>
-0.000804018

>  <SCORE.INTRA.DIHEDRAL.0>
2.42188

>  <SCORE.INTRA.POLAR>
0

>  <SCORE.INTRA.POLAR.0>
0

>  <SCORE.INTRA.REPUL>
0

>  <SCORE.INTRA.REPUL.0>
0

>  <SCORE.INTRA.SOLV>
0.688106

>  <SCORE.INTRA.SOLV.lig_0>
-127.307

>  <SCORE.INTRA.VDW>
-0.492205

>  <SCORE.INTRA.VDW.0>
-2.19936

>  <SCORE.INTRA.norm>
-0.00322944

>  <SCORE.RESTR>
0.0221646

>  <SCORE.RESTR.CAVITY>
0.0221646

>  <SCORE.RESTR.norm>
0.000481839

>  <SCORE.SYSTEM>
0

>  <SCORE.SYSTEM.CONST>
0

>  <SCORE.SYSTEM.DIHEDRAL>
0

>  <SCORE.SYSTEM.SOLV>
0

>  <SCORE.SYSTEM.norm>
0

>  <SCORE.heavy>
46

>  <SCORE.norm>
-0.134763

>  <RMSD>
4.997

$$$$
ligand
 OpenBabel02271912143D
libRbt.so/2013.1/901 2013/11/27
 46 52  0  0  0  0  0  0  0  0999 V2000
  161.2833   47.1807  147.6052 P   0  0  1  0  0  0  0  0  0  0  0  0
  160.1338   47.6882  142.0508 P   0  0  1  0  0  0  0  0  0  0  0  0
  160.2376   46.4611  148.4173 O   0  5  0  0  0  0  0  0  0  0  0  0
  162.5886   47.4957  148.3028 O   0  0  0  0  0  0  0  0  0  0  0  0
  162.8353   46.1652  145.7186 C   0  0  0  0  0  0  0  0  0  0  0  0
  161.5300   46.3505  146.2507 O   0  0  0  0  0  0  0  0  0  0  0  0
  162.7469   45.7066  144.2723 C   0  0  1  0  0  0  0  0  0  0  0  0
  163.0121   44.3115  144.2365 O   0  0  0  0  0  0  0  0  0  0  0  0
  161.3933   45.9001  143.6007 C   0  0  1  0  0  0  0  0  0  0  0  0
  161.4492   47.0171  142.7256 O   0  0  0  0  0  0  0  0  0  0  0  0
  161.2353   44.6528  142.7604 C   0  0  1  0  0  0  0  0  0  0  0  0
  161.7881   44.8759  141.4617 O   0  0  0  0  0  0  0  0  0  0  0  0
  162.0865   43.6082  143.4222 C   0  0  2  0  0  0  0  0  0  0  0  0
  157.0991   49.1399  146.3021 C   0  0  1  0  0  0  0  0  0  0  0  0
  161.3375   41.6711  148.2422 N   0  0  0  0  0  0  0  0  0  0  0  0
  162.3195   42.4610  147.7681 C   0  0  1  0  0  0  0  0  0  0  0  0
  158.1704   48.4875  147.1507 C   0  0  2  0  0  0  0  0  0  0  0  0
  163.3028   42.8606  148.6052 N   0  0  0  0  0  0  0  0  0  0  0  0
  158.3867   49.3267  148.2886 O   0  0  0  0  0  0  0  0  0  0  0  0
  159.4066   48.4403  146.2722 C   0  0  2  0  0  0  0  0  0  0  0  0
  162.3850   42.8829  146.4850 N   0  0  0  0  0  0  0  0  0  0  0  0
  160.6029   48.5306  147.0447 O   0  0  0  0  0  0  0  0  0  0  0  0
  161.4425   42.5238  145.5874 C   0  0  2  0  0  0  0  0  0  0  0  0
  159.2085   49.6544  145.3674 C   0  0  2  0  0  0  0  0  0  0  0  0
  157.8047   49.9208  145.3340 O   0  0  0  0  0  0  0  0  0  0  0  0
  160.3434   41.6623  146.0342 C   0  0  2  0  0  0  0  0  0  0  0  0
  159.7268   49.4883  143.9355 C   0  0  0  0  0  0  0  0  0  0  0  0
  159.3356   48.2537  143.3363 O   0  0  0  0  0  0  0  0  0  0  0  0
  160.3375   41.2398  147.4546 C   0  0  0  0  0  0  0  0  0  0  0  0
  159.4196   40.5049  147.8921 O   0  0  0  0  0  0  0  0  0  0  0  0
  159.5660   41.4591  144.9557 N   0  0  0  0  0  0  0  0  0  0  0  0
  160.1122   42.1290  143.9126 C   0  0  0  0  0  0  0  0  0  0  0  0
  161.2335   42.7655  144.2933 N   0  0  1  0  0  0  0  0  0  0  0  0
  154.6819   44.4817  146.6129 N   0  0  0  0  0  0  0  0  0  0  0  0
  160.6367   48.8535  141.2194 O   0  5  0  0  0  0  0  0  0  0  0  0
  155.3269   45.1813  147.5591 C   0  0  2  0  0  0  0  0  0  0  0  0
  155.3870   44.6480  148.7884 N   0  0  0  0  0  0  0  0  0  0  0  0
  159.2856   46.6034  141.4329 O   0  0  0  0  0  0  0  0  0  0  0  0
  155.9079   46.3835  147.3367 N   0  0  0  0  0  0  0  0  0  0  0  0
  155.8632   46.9536  146.1143 C   0  0  1  0  0  0  0  0  0  0  0  0
  155.1684   46.2330  145.0287 C   0  0  1  0  0  0  0  0  0  0  0  0
  154.5503   44.9241  145.3612 C   0  0  0  0  0  0  0  0  0  0  0  0
  153.9456   44.2346  144.5122 O   0  0  0  0  0  0  0  0  0  0  0  0
  155.2643   47.0087  143.9373 N   0  0  0  0  0  0  0  0  0  0  0  0
  155.9639   48.1211  144.2958 C   0  0  0  0  0  0  0  0  0  0  0  0
  156.3203   48.0929  145.5953 N   0  0  2  0  0  0  0  0  0  0  0  0
  1  3  1  1  0  0  0
  1  4  2  0  0  0  0
  1  6  1  0  0  0  0
  1 22  1  0  0  0  0
  2 28  1  0  0  0  0
  2 35  1  6  0  0  0
  2 38  2  0  0  0  0
  2 10  1  0  0  0  0
  5  6  1  0  0  0  0
  7  5  1  1  0  0  0
  7  8  1  0  0  0  0
  7  9  1  0  0  0  0
  9 10  1  6  0  0  0
  9 11  1  0  0  0  0
 11 12  1  6  0  0  0
 11 13  1  0  0  0  0
 13  8  1  1  0  0  0
 13 33  1  0  0  0  0
 14 46  1  0  0  0  0
 14 17  1  0  0  0  0
 14 25  1  6  0  0  0
 15 16  1  0  0  0  0
 15 29  1  0  0  0  0
 16 18  1  6  0  0  0
 16 21  1  0  0  0  0
 17 19  1  1  0  0  0
 17 20  1  0  0  0  0
 20 22  1  1  0  0  0
 20 24  1  0  0  0  0
 23 21  1  6  0  0  0
 23 26  1  0  0  0  0
 23 33  1  0  0  0  0
 24 25  1  6  0  0  0
 24 27  1  0  0  0  0
 26 29  1  6  0  0  0
 26 31  1  0  0  0  0
 27 28  1  0  0  0  0
 29 30  2  0  0  0  0
 31 32  1  0  0  0  0
 33 32  1  1  0  0  0
 34 36  1  0  0  0  0
 34 42  1  0  0  0  0
 36 37  1  1  0  0  0
 36 39  1  0  0  0  0
 40 39  1  1  0  0  0
 40 41  1  0  0  0  0
 40 46  1  0  0  0  0
 41 42  1  1  0  0  0
 41 44  1  0  0  0  0
 42 43  2  0  0  0  0
 44 45  1  0  0  0  0
 46 45  1  6  0  0  0
M  CHG  2   3  -1  35  -1
M  END
>  <CHROM.1>
-10.71385980,44.01030867,159.51346431,45.86311055,145.43960871,-0.71322188
0.35739803,-0.53427123

>  <Name>
ligand

>  <RI>
0

>  <Rbt.Current_Directory>
/home/itssahil/PROJECTS/Mol_Feturizer/Test_systems_manuscript/rnas/4yb0

>  <Rbt.Executable>
rbdock ($Id: //depot/dev/client3/rdock/2013.1/src/exe/rbdock.cxx#4 $)

>  <Rbt.Library>
libRbt.so (2013.1, Build901 2013/11/27)

>  <Rbt.Parameter_File>
/export/apps/rDock/src/rDock_2013.1_src/data/scripts/dock_solv.prm

>  <Rbt.Receptor>
prm/pocket_docking_5.prm

>  <SCORE>
-19.2305

>  <SCORE.INTER>
-19.1983

>  <SCORE.INTER.CONST>
1

>  <SCORE.INTER.POLAR>
0

>  <SCORE.INTER.ROT>
2

>  <SCORE.INTER.SOLV>
22.186

>  <SCORE.INTER.VDW>
-25.1276

>  <SCORE.INTER.norm>
-0.417355

>  <SCORE.INTRA>
-0.0321595

>  <SCORE.INTRA.DIHEDRAL>
0.0124788

>  <SCORE.INTRA.DIHEDRAL.0>
2.42188

>  <SCORE.INTRA.POLAR>
0

>  <SCORE.INTRA.POLAR.0>
0

>  <SCORE.INTRA.REPUL>
0

>  <SCORE.INTRA.REPUL.0>
0

>  <SCORE.INTRA.SOLV>
0.396209

>  <SCORE.INTRA.SOLV.lig_0>
-127.307

>  <SCORE.INTRA.VDW>
-0.236504

>  <SCORE.INTRA.VDW.0>
-2.19936

>  <SCORE.INTRA.norm>
-0.000699121

>  <SCORE.RESTR>
0

>  <SCORE.RESTR.CAVITY>
0

>  <SCORE.RESTR.norm>
0

>  <SCORE.SYSTEM>
0

>  <SCORE.SYSTEM.CONST>
0

>  <SCORE.SYSTEM.DIHEDRAL>
0

>  <SCORE.SYSTEM.SOLV>
0

>  <SCORE.SYSTEM.norm>
0

>  <SCORE.heavy>
46

>  <SCORE.norm>
-0.418054

>  <RMSD>
5.012

$$$$
ligand
 OpenBabel02271912143D
libRbt.so/2013.1/901 2013/11/27
 46 52  0  0  0  0  0  0  0  0999 V2000
  160.9532   45.2717  142.4108 P   0  0  1  0  0  0  0  0  0  0  0  0
  160.7838   46.2591  148.0168 P   0  0  1  0  0  0  0  0  0  0  0  0
  160.0291   44.1879  141.9184 O   0  5  0  0  0  0  0  0  0  0  0  0
  161.6528   46.1005  141.3557 O   0  0  0  0  0  0  0  0  0  0  0  0
  160.2807   47.6158  143.4368 C   0  0  0  0  0  0  0  0  0  0  0  0
  160.1382   46.2013  143.4388 O   0  0  0  0  0  0  0  0  0  0  0  0
  159.7263   48.1960  144.7274 C   0  0  1  0  0  0  0  0  0  0  0  0
  158.4558   48.7646  144.4436 O   0  0  0  0  0  0  0  0  0  0  0  0
  159.5037   47.1983  145.8569 C   0  0  1  0  0  0  0  0  0  0  0  0
  160.5374   47.3301  146.8216 O   0  0  0  0  0  0  0  0  0  0  0  0
  158.2104   47.6632  146.4879 C   0  0  1  0  0  0  0  0  0  0  0  0
  158.4938   48.6056  147.5241 O   0  0  0  0  0  0  0  0  0  0  0  0
  157.4788   48.4087  145.4098 C   0  0  2  0  0  0  0  0  0  0  0  0
  161.6206   41.5813  145.4074 C   0  0  1  0  0  0  0  0  0  0  0  0
  154.1209   44.4354  146.1052 N   0  0  0  0  0  0  0  0  0  0  0  0
  154.9372   45.0449  146.9856 C   0  0  1  0  0  0  0  0  0  0  0  0
  161.3369   42.3629  144.1417 C   0  0  2  0  0  0  0  0  0  0  0  0
  154.9495   44.6241  148.2701 N   0  0  0  0  0  0  0  0  0  0  0  0
  162.2725   41.9288  143.1506 O   0  0  0  0  0  0  0  0  0  0  0  0
  161.5718   43.8171  144.5054 C   0  0  2  0  0  0  0  0  0  0  0  0
  155.7607   46.0662  146.6575 N   0  0  0  0  0  0  0  0  0  0  0  0
  162.0307   44.5707  143.3839 O   0  0  0  0  0  0  0  0  0  0  0  0
  155.8085   46.5409  145.3944 C   0  0  2  0  0  0  0  0  0  0  0  0
  162.6282   43.7109  145.6030 C   0  0  2  0  0  0  0  0  0  0  0  0
  162.5017   42.4067  146.1739 O   0  0  0  0  0  0  0  0  0  0  0  0
  154.9468   45.9226  144.3820 C   0  0  2  0  0  0  0  0  0  0  0  0
  162.5199   44.7620  146.7120 C   0  0  0  0  0  0  0  0  0  0  0  0
  161.1907   44.9228  147.2056 O   0  0  0  0  0  0  0  0  0  0  0  0
  154.0707   44.8087  144.8150 C   0  0  0  0  0  0  0  0  0  0  0  0
  153.3107   44.2448  143.9914 O   0  0  0  0  0  0  0  0  0  0  0  0
  155.1956   46.5738  143.2318 N   0  0  0  0  0  0  0  0  0  0  0  0
  156.1285   47.5240  143.4809 C   0  0  0  0  0  0  0  0  0  0  0  0
  156.4924   47.5027  144.7750 N   0  0  1  0  0  0  0  0  0  0  0  0
  159.3716   40.8762  150.1066 N   0  0  0  0  0  0  0  0  0  0  0  0
  161.9877   46.7631  148.7905 O   0  5  0  0  0  0  0  0  0  0  0  0
  160.6653   41.0339  149.7867 C   0  0  2  0  0  0  0  0  0  0  0  0
  161.5560   41.0171  150.7895 N   0  0  0  0  0  0  0  0  0  0  0  0
  159.4734   45.9839  148.7135 O   0  0  0  0  0  0  0  0  0  0  0  0
  161.1076   41.2104  148.5196 N   0  0  0  0  0  0  0  0  0  0  0  0
  160.2405   41.2381  147.4858 C   0  0  1  0  0  0  0  0  0  0  0  0
  158.8017   41.0691  147.7718 C   0  0  1  0  0  0  0  0  0  0  0  0
  158.4016   40.8903  149.1909 C   0  0  0  0  0  0  0  0  0  0  0  0
  157.2106   40.7337  149.5357 O   0  0  0  0  0  0  0  0  0  0  0  0
  158.1697   41.1410  146.5896 N   0  0  0  0  0  0  0  0  0  0  0  0
  159.1231   41.3324  145.6359 C   0  0  0  0  0  0  0  0  0  0  0  0
  160.3600   41.3939  146.1676 N   0  0  2  0  0  0  0  0  0  0  0  0
  1  3  1  6  0  0  0
  1  4  2  0  0  0  0
  1  6  1  0  0  0  0
  1 22  1  0  0  0  0
  2 28  1  0  0  0  0
  2 35  1  1  0  0  0
  2 38  2  0  0  0  0
  2 10  1  0  0  0  0
  5  6  1  0  0  0  0
  7  5  1  6  0  0  0
  7  8  1  0  0  0  0
  7  9  1  0  0  0  0
  9 10  1  1  0  0  0
  9 11  1  0  0  0  0
 11 12  1  1  0  0  0
 11 13  1  0  0  0  0
 13  8  1  6  0  0  0
 13 33  1  0  0  0  0
 14 46  1  0  0  0  0
 14 17  1  0  0  0  0
 14 25  1  1  0  0  0
 15 16  1  0  0  0  0
 15 29  1  0  0  0  0
 16 18  1  6  0  0  0
 16 21  1  0  0  0  0
 17 19  1  6  0  0  0
 17 20  1  0  0  0  0
 20 22  1  6  0  0  0
 20 24  1  0  0  0  0
 23 21  1  6  0  0  0
 23 26  1  0  0  0  0
 23 33  1  0  0  0  0
 24 25  1  1  0  0  0
 24 27  1  0  0  0  0
 26 29  1  6  0  0  0
 26 31  1  0  0  0  0
 27 28  1  0  0  0  0
 29 30  2  0  0  0  0
 31 32  1  0  0  0  0
 33 32  1  1  0  0  0
 34 36  1  0  0  0  0
 34 42  1  0  0  0  0
 36 37  1  1  0  0  0
 36 39  1  0  0  0  0
 40 39  1  1  0  0  0
 40 41  1  0  0  0  0
 40 46  1  0  0  0  0
 41 42  1  1  0  0  0
 41 44  1  0  0  0  0
 42 43  2  0  0  0  0
 44 45  1  0  0  0  0
 46 45  1  6  0  0  0
M  CHG  2   3  -1  35  -1
M  END
>  <CHROM.1>
149.62710506,-152.52612339,159.21114512,44.66874930,145.91810078,-2.14587407
-0.27693361,2.38577262

>  <Name>
ligand

>  <RI>
0

>  <Rbt.Current_Directory>
/home/itssahil/PROJECTS/Mol_Feturizer/Test_systems_manuscript/rnas/4yb0

>  <Rbt.Executable>
rbdock ($Id: //depot/dev/client3/rdock/2013.1/src/exe/rbdock.cxx#4 $)

>  <Rbt.Library>
libRbt.so (2013.1, Build901 2013/11/27)

>  <Rbt.Parameter_File>
/export/apps/rDock/src/rDock_2013.1_src/data/scripts/dock_solv.prm

>  <Rbt.Receptor>
prm/pocket_docking_7.prm

>  <SCORE>
-19.7944

>  <SCORE.INTER>
-20.4929

>  <SCORE.INTER.CONST>
1

>  <SCORE.INTER.POLAR>
0

>  <SCORE.INTER.ROT>
2

>  <SCORE.INTER.SOLV>
25.9991

>  <SCORE.INTER.VDW>
-27.2617

>  <SCORE.INTER.norm>
-0.445498

>  <SCORE.INTRA>
0.698529

>  <SCORE.INTRA.DIHEDRAL>
-0.0746423

>  <SCORE.INTRA.DIHEDRAL.0>
2.42188

>  <SCORE.INTRA.POLAR>
0

>  <SCORE.INTRA.POLAR.0>
0

>  <SCORE.INTRA.REPUL>
0

>  <SCORE.INTRA.REPUL.0>
0

>  <SCORE.INTRA.SOLV>
0.0672444

>  <SCORE.INTRA.SOLV.lig_0>
-127.307

>  <SCORE.INTRA.VDW>
0.702228

>  <SCORE.INTRA.VDW.0>
-2.19936

>  <SCORE.INTRA.norm>
0.0151854

>  <SCORE.RESTR>
0

>  <SCORE.RESTR.CAVITY>
0

>  <SCORE.RESTR.norm>
0

>  <SCORE.SYSTEM>
0

>  <SCORE.SYSTEM.CONST>
0

>  <SCORE.SYSTEM.DIHEDRAL>
0

>  <SCORE.SYSTEM.SOLV>
0

>  <SCORE.SYSTEM.norm>
0

>  <SCORE.heavy>
46

>  <SCORE.norm>
-0.430313

>  <RMSD>
5.014

$$$$
ligand
 OpenBabel02271912143D
libRbt.so/2013.1/901 2013/11/27
 46 52  0  0  0  0  0  0  0  0999 V2000
  158.9843   48.0762  148.7724 P   0  0  1  0  0  0  0  0  0  0  0  0
  160.2902   42.5396  148.5052 P   0  0  1  0  0  0  0  0  0  0  0  0
  159.0701   48.8231  147.4663 O   0  5  0  0  0  0  0  0  0  0  0  0
  158.3720   48.8173  149.9409 O   0  0  0  0  0  0  0  0  0  0  0  0
  157.2753   46.1643  149.4230 C   0  0  0  0  0  0  0  0  0  0  0  0
  158.2324   46.6801  148.5070 O   0  0  0  0  0  0  0  0  0  0  0  0
  157.0262   44.6919  149.1406 C   0  0  1  0  0  0  0  0  0  0  0  0
  155.7843   44.5789  148.4603 O   0  0  0  0  0  0  0  0  0  0  0  0
  158.0600   44.0059  148.2566 C   0  0  1  0  0  0  0  0  0  0  0  0
  158.9130   43.1998  149.0561 O   0  0  0  0  0  0  0  0  0  0  0  0
  157.2279   43.0902  147.3870 C   0  0  1  0  0  0  0  0  0  0  0  0
  157.0901   41.8184  148.0238 O   0  0  0  0  0  0  0  0  0  0  0  0
  155.8595   43.7058  147.3437 C   0  0  2  0  0  0  0  0  0  0  0  0
  163.2022   46.8077  146.8635 C   0  0  1  0  0  0  0  0  0  0  0  0
  152.7011   45.1902  143.4236 N   0  0  0  0  0  0  0  0  0  0  0  0
  152.4675   44.3618  144.4590 C   0  0  1  0  0  0  0  0  0  0  0  0
  161.9893   47.6375  147.2291 C   0  0  2  0  0  0  0  0  0  0  0  0
  151.2513   43.7834  144.5760 N   0  0  0  0  0  0  0  0  0  0  0  0
  162.4601   48.8272  147.8683 O   0  0  0  0  0  0  0  0  0  0  0  0
  161.1940   46.7827  148.1981 C   0  0  2  0  0  0  0  0  0  0  0  0
  153.3905   44.0658  145.4020 N   0  0  0  0  0  0  0  0  0  0  0  0
  160.4756   47.5832  149.1358 O   0  0  0  0  0  0  0  0  0  0  0  0
  154.6292   44.6007  145.3526 C   0  0  2  0  0  0  0  0  0  0  0  0
  162.2847   45.9477  148.8652 C   0  0  2  0  0  0  0  0  0  0  0  0
  163.3856   45.9019  147.9548 O   0  0  0  0  0  0  0  0  0  0  0  0
  154.9543   45.5113  144.2504 C   0  0  2  0  0  0  0  0  0  0  0  0
  161.8735   44.5191  149.2351 C   0  0  0  0  0  0  0  0  0  0  0  0
  161.1920   43.8401  148.1811 O   0  0  0  0  0  0  0  0  0  0  0  0
  153.8925   45.7891  143.2547 C   0  0  0  0  0  0  0  0  0  0  0  0
  154.1144   46.5628  142.2924 O   0  0  0  0  0  0  0  0  0  0  0  0
  156.2321   45.8856  144.4398 N   0  0  0  0  0  0  0  0  0  0  0  0
  156.6865   45.2751  145.5605 C   0  0  0  0  0  0  0  0  0  0  0  0
  155.7257   44.5082  146.1048 N   0  0  1  0  0  0  0  0  0  0  0  0
  161.1611   46.7976  142.0188 N   0  0  0  0  0  0  0  0  0  0  0  0
  160.8942   41.7891  149.6772 O   0  5  0  0  0  0  0  0  0  0  0  0
  161.2596   47.7970  142.9090 C   0  0  2  0  0  0  0  0  0  0  0  0
  160.7771   48.9954  142.5481 N   0  0  0  0  0  0  0  0  0  0  0  0
  160.0160   41.8417  147.1953 O   0  0  0  0  0  0  0  0  0  0  0  0
  161.8178   47.6566  144.1342 N   0  0  0  0  0  0  0  0  0  0  0  0
  162.3185   46.4675  144.5300 C   0  0  1  0  0  0  0  0  0  0  0  0
  162.2396   45.3267  143.5956 C   0  0  1  0  0  0  0  0  0  0  0  0
  161.6201   45.5701  142.2680 C   0  0  0  0  0  0  0  0  0  0  0  0
  161.5009   44.6693  141.4098 O   0  0  0  0  0  0  0  0  0  0  0  0
  162.8046   44.2832  144.2235 N   0  0  0  0  0  0  0  0  0  0  0  0
  163.2017   44.7205  145.4508 C   0  0  0  0  0  0  0  0  0  0  0  0
  162.9158   46.0245  145.6360 N   0  0  2  0  0  0  0  0  0  0  0  0
  1  3  1  6  0  0  0
  1  4  2  0  0  0  0
  1  6  1  0  0  0  0
  1 22  1  0  0  0  0
  2 28  1  0  0  0  0
  2 35  1  1  0  0  0
  2 38  2  0  0  0  0
  2 10  1  0  0  0  0
  5  6  1  0  0  0  0
  7  5  1  6  0  0  0
  7  8  1  0  0  0  0
  7  9  1  0  0  0  0
  9 10  1  1  0  0  0
  9 11  1  0  0  0  0
 11 12  1  1  0  0  0
 11 13  1  0  0  0  0
 13  8  1  1  0  0  0
 13 33  1  0  0  0  0
 14 46  1  0  0  0  0
 14 17  1  0  0  0  0
 14 25  1  1  0  0  0
 15 16  1  0  0  0  0
 15 29  1  0  0  0  0
 16 18  1  6  0  0  0
 16 21  1  0  0  0  0
 17 19  1  1  0  0  0
 17 20  1  0  0  0  0
 20 22  1  1  0  0  0
 20 24  1  0  0  0  0
 23 21  1  6  0  0  0
 23 26  1  0  0  0  0
 23 33  1  0  0  0  0
 24 25  1  6  0  0  0
 24 27  1  0  0  0  0
 26 29  1  6  0  0  0
 26 31  1  0  0  0  0
 27 28  1  0  0  0  0
 29 30  2  0  0  0  0
 31 32  1  0  0  0  0
 33 32  1  1  0  0  0
 34 36  1  0  0  0  0
 34 42  1  0  0  0  0
 36 37  1  6  0  0  0
 36 39  1  0  0  0  0
 40 39  1  6  0  0  0
 40 41  1  0  0  0  0
 40 46  1  0  0  0  0
 41 42  1  6  0  0  0
 41 44  1  0  0  0  0
 42 43  2  0  0  0  0
 44 45  1  0  0  0  0
 46 45  1  1  0  0  0
M  CHG  2   3  -1  35  -1
M  END
>  <CHROM.1>
-102.83963865,44.34185896,158.95374490,45.45428087,146.48484925,0.12475184
0.23507555,1.90335746

>  <Name>
ligand

>  <RI>
0

>  <Rbt.Current_Directory>
/home/itssahil/PROJECTS/Mol_Feturizer/Test_systems_manuscript/rnas/4yb0

>  <Rbt.Executable>
rbdock ($Id: //depot/dev/client3/rdock/2013.1/src/exe/rbdock.cxx#4 $)

>  <Rbt.Library>
libRbt.so (2013.1, Build901 2013/11/27)

>  <Rbt.Parameter_File>
/export/apps/rDock/src/rDock_2013.1_src/data/scripts/dock_solv.prm

>  <Rbt.Receptor>
prm/pocket_docking_7.prm

>  <SCORE>
-25.3347

>  <SCORE.INTER>
-25.6177

>  <SCORE.INTER.CONST>
1

>  <SCORE.INTER.POLAR>
0

>  <SCORE.INTER.ROT>
2

>  <SCORE.INTER.SOLV>
13.0152

>  <SCORE.INTER.VDW>
-26.3502

>  <SCORE.INTER.norm>
-0.556906

>  <SCORE.INTRA>
0.282997

>  <SCORE.INTRA.DIHEDRAL>
-0.0180752

>  <SCORE.INTRA.DIHEDRAL.0>
2.42188

>  <SCORE.INTRA.POLAR>
0

>  <SCORE.INTRA.POLAR.0>
0

>  <SCORE.INTRA.REPUL>
0

>  <SCORE.INTRA.REPUL.0>
0

>  <SCORE.INTRA.SOLV>
-0.00429677

>  <SCORE.INTRA.SOLV.lig_0>
-127.307

>  <SCORE.INTRA.VDW>
0.294183

>  <SCORE.INTRA.VDW.0>
-2.19936

>  <SCORE.INTRA.norm>
0.00615211

>  <SCORE.RESTR>
0

>  <SCORE.RESTR.CAVITY>
0

>  <SCORE.RESTR.norm>
0

>  <SCORE.SYSTEM>
0

>  <SCORE.SYSTEM.CONST>
0

>  <SCORE.SYSTEM.DIHEDRAL>
0

>  <SCORE.SYSTEM.SOLV>
0

>  <SCORE.SYSTEM.norm>
0

>  <SCORE.heavy>
46

>  <SCORE.norm>
-0.550754

>  <RMSD>
5.044

$$$$
ligand
 OpenBabel02271912143D
libRbt.so/2013.1/901 2013/11/27
 46 52  0  0  0  0  0  0  0  0999 V2000
  158.9959   48.0430  148.8313 P   0  0  1  0  0  0  0  0  0  0  0  0
  160.2884   42.5063  148.5060 P   0  0  1  0  0  0  0  0  0  0  0  0
  159.0841   48.8034  147.5332 O   0  5  0  0  0  0  0  0  0  0  0  0
  158.3849   48.7732  150.0074 O   0  0  0  0  0  0  0  0  0  0  0  0
  157.2820   46.1284  149.4610 C   0  0  0  0  0  0  0  0  0  0  0  0
  158.2407   46.6515  148.5508 O   0  0  0  0  0  0  0  0  0  0  0  0
  157.0294   44.6597  149.1628 C   0  0  1  0  0  0  0  0  0  0  0  0
  155.7875   44.5570  148.4809 O   0  0  0  0  0  0  0  0  0  0  0  0
  158.0619   43.9805  148.2720 C   0  0  1  0  0  0  0  0  0  0  0  0
  158.9126   43.1640  149.0633 O   0  0  0  0  0  0  0  0  0  0  0  0
  157.2279   43.0762  147.3925 C   0  0  1  0  0  0  0  0  0  0  0  0
  157.0867   41.7980  148.0157 O   0  0  0  0  0  0  0  0  0  0  0  0
  155.8611   43.6956  147.3552 C   0  0  2  0  0  0  0  0  0  0  0  0
  163.2116   46.7843  146.9108 C   0  0  1  0  0  0  0  0  0  0  0  0
  152.7028   45.2427  143.4593 N   0  0  0  0  0  0  0  0  0  0  0  0
  152.4659   44.4056  144.4869 C   0  0  1  0  0  0  0  0  0  0  0  0
  162.0005   47.6132  147.2846 C   0  0  2  0  0  0  0  0  0  0  0  0
  151.2458   43.8352  144.6016 N   0  0  0  0  0  0  0  0  0  0  0  0
  162.4740   48.7949  147.9367 O   0  0  0  0  0  0  0  0  0  0  0  0
  161.2027   46.7502  148.2442 C   0  0  2  0  0  0  0  0  0  0  0  0
  153.3894   44.0934  145.4242 N   0  0  0  0  0  0  0  0  0  0  0  0
  160.4859   47.5424  149.1901 O   0  0  0  0  0  0  0  0  0  0  0  0
  154.6319   44.6196  145.3767 C   0  0  2  0  0  0  0  0  0  0  0  0
  162.2910   45.9054  148.9029 C   0  0  2  0  0  0  0  0  0  0  0  0
  163.3922   45.8666  147.9926 O   0  0  0  0  0  0  0  0  0  0  0  0
  154.9607   45.5387  144.2827 C   0  0  2  0  0  0  0  0  0  0  0  0
  161.8762   44.4741  149.2575 C   0  0  0  0  0  0  0  0  0  0  0  0
  161.1935   43.8079  148.1962 O   0  0  0  0  0  0  0  0  0  0  0  0
  153.8981   45.8344  143.2930 C   0  0  0  0  0  0  0  0  0  0  0  0
  154.1231   46.6161  142.3379 O   0  0  0  0  0  0  0  0  0  0  0  0
  156.2417   45.9017  144.4722 N   0  0  0  0  0  0  0  0  0  0  0  0
  156.6947   45.2766  145.5854 C   0  0  0  0  0  0  0  0  0  0  0  0
  155.7298   44.5114  146.1247 N   0  0  1  0  0  0  0  0  0  0  0  0
  161.1317   46.8181  142.0827 N   0  0  0  0  0  0  0  0  0  0  0  0
  160.8900   41.7419  149.6703 O   0  5  0  0  0  0  0  0  0  0  0  0
  161.2265   47.8062  142.9858 C   0  0  2  0  0  0  0  0  0  0  0  0
  160.7282   49.0041  142.6452 N   0  0  0  0  0  0  0  0  0  0  0  0
  160.0130   41.8229  147.1887 O   0  0  0  0  0  0  0  0  0  0  0  0
  161.7960   47.6552  144.2044 N   0  0  0  0  0  0  0  0  0  0  0  0
  162.3127   46.4663  144.5799 C   0  0  1  0  0  0  0  0  0  0  0  0
  162.2387   45.3376  143.6306 C   0  0  1  0  0  0  0  0  0  0  0  0
  161.6059   45.5923  142.3114 C   0  0  0  0  0  0  0  0  0  0  0  0
  161.4896   44.7020  141.4419 O   0  0  0  0  0  0  0  0  0  0  0  0
  162.8201   44.2919  144.2396 N   0  0  0  0  0  0  0  0  0  0  0  0
  163.2223   44.7167  145.4697 C   0  0  0  0  0  0  0  0  0  0  0  0
  162.9237   46.0149  145.6750 N   0  0  2  0  0  0  0  0  0  0  0  0
  1  3  1  6  0  0  0
  1  4  2  0  0  0  0
  1  6  1  0  0  0  0
  1 22  1  0  0  0  0
  2 28  1  0  0  0  0
  2 35  1  1  0  0  0
  2 38  2  0  0  0  0
  2 10  1  0  0  0  0
  5  6  1  0  0  0  0
  7  5  1  6  0  0  0
  7  8  1  0  0  0  0
  7  9  1  0  0  0  0
  9 10  1  1  0  0  0
  9 11  1  0  0  0  0
 11 12  1  1  0  0  0
 11 13  1  0  0  0  0
 13  8  1  1  0  0  0
 13 33  1  0  0  0  0
 14 46  1  0  0  0  0
 14 17  1  0  0  0  0
 14 25  1  1  0  0  0
 15 16  1  0  0  0  0
 15 29  1  0  0  0  0
 16 18  1  6  0  0  0
 16 21  1  0  0  0  0
 17 19  1  1  0  0  0
 17 20  1  0  0  0  0
 20 22  1  1  0  0  0
 20 24  1  0  0  0  0
 23 21  1  6  0  0  0
 23 26  1  0  0  0  0
 23 33  1  0  0  0  0
 24 25  1  6  0  0  0
 24 27  1  0  0  0  0
 26 29  1  6  0  0  0
 26 31  1  0  0  0  0
 27 28  1  0  0  0  0
 29 30  2  0  0  0  0
 31 32  1  0  0  0  0
 33 32  1  1  0  0  0
 34 36  1  0  0  0  0
 34 42  1  0  0  0  0
 36 37  1  6  0  0  0
 36 39  1  0  0  0  0
 40 39  1  6  0  0  0
 40 41  1  0  0  0  0
 40 46  1  0  0  0  0
 41 42  1  6  0  0  0
 41 44  1  0  0  0  0
 42 43  2  0  0  0  0
 44 45  1  0  0  0  0
 46 45  1  1  0  0  0
M  CHG  2   3  -1  35  -1
M  END
>  <CHROM.1>
-102.49740508,43.42036546,158.95493599,45.44554280,146.51904960,0.13001828
0.23130171,1.91509180

>  <Name>
ligand

>  <RI>
0

>  <Rbt.Current_Directory>
/home/itssahil/PROJECTS/Mol_Feturizer/Test_systems_manuscript/rnas/4yb0

>  <Rbt.Executable>
rbdock ($Id: //depot/dev/client3/rdock/2013.1/src/exe/rbdock.cxx#4 $)

>  <Rbt.Library>
libRbt.so (2013.1, Build901 2013/11/27)

>  <Rbt.Parameter_File>
/export/apps/rDock/src/rDock_2013.1_src/data/scripts/dock_solv.prm

>  <Rbt.Receptor>
prm/pocket_docking_6.prm

>  <SCORE>
-25.3945

>  <SCORE.INTER>
-25.697

>  <SCORE.INTER.CONST>
1

>  <SCORE.INTER.POLAR>
0

>  <SCORE.INTER.ROT>
2

>  <SCORE.INTER.SOLV>
13.0065

>  <SCORE.INTER.VDW>
-26.4001

>  <SCORE.INTER.norm>
-0.55863

>  <SCORE.INTRA>
0.302515

>  <SCORE.INTRA.DIHEDRAL>
-0.017343

>  <SCORE.INTRA.DIHEDRAL.0>
2.42188

>  <SCORE.INTRA.POLAR>
0

>  <SCORE.INTRA.POLAR.0>
0

>  <SCORE.INTRA.REPUL>
0

>  <SCORE.INTRA.REPUL.0>
0

>  <SCORE.INTRA.SOLV>
-0.00328444

>  <SCORE.INTRA.SOLV.lig_0>
-127.307

>  <SCORE.INTRA.VDW>
0.312829

>  <SCORE.INTRA.VDW.0>
-2.19936

>  <SCORE.INTRA.norm>
0.00657642

>  <SCORE.RESTR>
0

>  <SCORE.RESTR.CAVITY>
0

>  <SCORE.RESTR.norm>
0

>  <SCORE.SYSTEM>
0

>  <SCORE.SYSTEM.CONST>
0

>  <SCORE.SYSTEM.DIHEDRAL>
0

>  <SCORE.SYSTEM.SOLV>
0

>  <SCORE.SYSTEM.norm>
0

>  <SCORE.heavy>
46

>  <SCORE.norm>
-0.552054

>  <RMSD>
5.063

$$$$
ligand
 OpenBabel02271912143D
libRbt.so/2013.1/901 2013/11/27
 46 52  0  0  0  0  0  0  0  0999 V2000
  160.1795   46.5069  148.1591 P   0  0  1  0  0  0  0  0  0  0  0  0
  160.2835   45.2839  142.5981 P   0  0  1  0  0  0  0  0  0  0  0  0
  158.8525   46.2955  148.8414 O   0  5  0  0  0  0  0  0  0  0  0  0
  161.3623   46.8130  149.0517 O   0  0  0  0  0  0  0  0  0  0  0  0
  161.7679   44.6619  147.1236 C   0  0  0  0  0  0  0  0  0  0  0  0
  160.4709   45.2365  147.2177 O   0  0  0  0  0  0  0  0  0  0  0  0
  161.8501   43.7612  145.9022 C   0  0  1  0  0  0  0  0  0  0  0  0
  161.7660   42.4135  146.3435 O   0  0  0  0  0  0  0  0  0  0  0  0
  160.7413   43.9425  144.8733 C   0  0  1  0  0  0  0  0  0  0  0  0
  161.2379   44.6686  143.7585 O   0  0  0  0  0  0  0  0  0  0  0  0
  160.4467   42.5300  144.4203 C   0  0  1  0  0  0  0  0  0  0  0  0
  161.2771   42.2008  143.3050 O   0  0  0  0  0  0  0  0  0  0  0  0
  160.8708   41.6439  145.5554 C   0  0  2  0  0  0  0  0  0  0  0  0
  156.9377   48.5887  145.2953 C   0  0  1  0  0  0  0  0  0  0  0  0
  159.0919   40.3234  150.3133 N   0  0  0  0  0  0  0  0  0  0  0  0
  160.3491   40.5576  149.8919 C   0  0  1  0  0  0  0  0  0  0  0  0
  157.6314   48.0913  146.5463 C   0  0  2  0  0  0  0  0  0  0  0  0
  161.3673   40.4574  150.7754 N   0  0  0  0  0  0  0  0  0  0  0  0
  157.8237   49.2175  147.4068 O   0  0  0  0  0  0  0  0  0  0  0  0
  158.9634   47.5384  146.0751 C   0  0  2  0  0  0  0  0  0  0  0  0
  160.6606   40.8890  148.6184 N   0  0  0  0  0  0  0  0  0  0  0  0
  159.9730   47.6808  147.0734 O   0  0  0  0  0  0  0  0  0  0  0  0
  159.6999   41.0054  147.6768 C   0  0  2  0  0  0  0  0  0  0  0  0
  159.2483   48.3875  144.8382 C   0  0  2  0  0  0  0  0  0  0  0  0
  157.9867   48.8617  144.3625 O   0  0  0  0  0  0  0  0  0  0  0  0
  158.3071   40.7626  148.0650 C   0  0  2  0  0  0  0  0  0  0  0  0
  159.9760   47.6588  143.7042 C   0  0  0  0  0  0  0  0  0  0  0  0
  159.4164   46.3799  143.4083 O   0  0  0  0  0  0  0  0  0  0  0  0
  158.0418   40.4039  149.4782 C   0  0  0  0  0  0  0  0  0  0  0  0
  156.8686   40.1880  149.8665 O   0  0  0  0  0  0  0  0  0  0  0  0
  157.5731   40.9379  146.9518 N   0  0  0  0  0  0  0  0  0  0  0  0
  158.4144   41.2653  145.9417 C   0  0  0  0  0  0  0  0  0  0  0  0
  159.6853   41.3059  146.3783 N   0  0  1  0  0  0  0  0  0  0  0  0
  154.1281   44.2554  146.2781 N   0  0  0  0  0  0  0  0  0  0  0  0
  161.2080   45.9934  141.6266 O   0  5  0  0  0  0  0  0  0  0  0  0
  154.8243   45.0382  147.1168 C   0  0  2  0  0  0  0  0  0  0  0  0
  154.8301   44.7009  148.4150 N   0  0  0  0  0  0  0  0  0  0  0  0
  159.3302   44.2150  142.1219 O   0  0  0  0  0  0  0  0  0  0  0  0
  155.5076   46.1379  146.7218 N   0  0  0  0  0  0  0  0  0  0  0  0
  155.5203   46.5112  145.4250 C   0  0  1  0  0  0  0  0  0  0  0  0
  154.7736   45.6900  144.4509 C   0  0  1  0  0  0  0  0  0  0  0  0
  154.0434   44.5057  144.9705 C   0  0  0  0  0  0  0  0  0  0  0  0
  153.3875   43.7447  144.2270 O   0  0  0  0  0  0  0  0  0  0  0  0
  154.9431   46.2744  143.2543 N   0  0  0  0  0  0  0  0  0  0  0  0
  155.7329   47.3668  143.4494 C   0  0  0  0  0  0  0  0  0  0  0  0
  156.0769   47.5128  144.7444 N   0  0  2  0  0  0  0  0  0  0  0  0
  1  3  1  1  0  0  0
  1  4  2  0  0  0  0
  1  6  1  0  0  0  0
  1 22  1  0  0  0  0
  2 28  1  0  0  0  0
  2 35  1  6  0  0  0
  2 38  2  0  0  0  0
  2 10  1  0  0  0  0
  5  6  1  0  0  0  0
  7  5  1  1  0  0  0
  7  8  1  0  0  0  0
  7  9  1  0  0  0  0
  9 10  1  6  0  0  0
  9 11  1  0  0  0  0
 11 12  1  6  0  0  0
 11 13  1  0  0  0  0
 13  8  1  1  0  0  0
 13 33  1  0  0  0  0
 14 46  1  0  0  0  0
 14 17  1  0  0  0  0
 14 25  1  6  0  0  0
 15 16  1  0  0  0  0
 15 29  1  0  0  0  0
 16 18  1  6  0  0  0
 16 21  1  0  0  0  0
 17 19  1  1  0  0  0
 17 20  1  0  0  0  0
 20 22  1  1  0  0  0
 20 24  1  0  0  0  0
 23 21  1  6  0  0  0
 23 26  1  0  0  0  0
 23 33  1  0  0  0  0
 24 25  1  6  0  0  0
 24 27  1  0  0  0  0
 26 29  1  6  0  0  0
 26 31  1  0  0  0  0
 27 28  1  0  0  0  0
 29 30  2  0  0  0  0
 31 32  1  0  0  0  0
 33 32  1  1  0  0  0
 34 36  1  0  0  0  0
 34 42  1  0  0  0  0
 36 37  1  1  0  0  0
 36 39  1  0  0  0  0
 40 39  1  1  0  0  0
 40 41  1  0  0  0  0
 40 46  1  0  0  0  0
 41 42  1  1  0  0  0
 41 44  1  0  0  0  0
 42 43  2  0  0  0  0
 44 45  1  0  0  0  0
 46 45  1  6  0  0  0
M  CHG  2   3  -1  35  -1
M  END
>  <CHROM.1>
-37.29027007,26.36639711,158.70438464,44.65361893,146.07723680,-1.24602777
0.24050543,-0.66042543

>  <Name>
ligand

>  <RI>
0

>  <Rbt.Current_Directory>
/home/itssahil/PROJECTS/Mol_Feturizer/Test_systems_manuscript/rnas/4yb0

>  <Rbt.Executable>
rbdock ($Id: //depot/dev/client3/rdock/2013.1/src/exe/rbdock.cxx#4 $)

>  <Rbt.Library>
libRbt.so (2013.1, Build901 2013/11/27)

>  <Rbt.Parameter_File>
/export/apps/rDock/src/rDock_2013.1_src/data/scripts/dock_solv.prm

>  <Rbt.Receptor>
prm/pocket_docking_4.prm

>  <SCORE>
-15.832

>  <SCORE.INTER>
-17.0224

>  <SCORE.INTER.CONST>
1

>  <SCORE.INTER.POLAR>
0

>  <SCORE.INTER.ROT>
2

>  <SCORE.INTER.SOLV>
27.2386

>  <SCORE.INTER.VDW>
-25.3612

>  <SCORE.INTER.norm>
-0.370053

>  <SCORE.INTRA>
0.898404

>  <SCORE.INTRA.DIHEDRAL>
0.0288505

>  <SCORE.INTRA.DIHEDRAL.0>
2.42188

>  <SCORE.INTRA.POLAR>
0

>  <SCORE.INTRA.POLAR.0>
0

>  <SCORE.INTRA.REPUL>
0

>  <SCORE.INTRA.REPUL.0>
0

>  <SCORE.INTRA.SOLV>
0.327234

>  <SCORE.INTRA.SOLV.lig_0>
-127.307

>  <SCORE.INTRA.VDW>
0.720361

>  <SCORE.INTRA.VDW.0>
-2.19936

>  <SCORE.INTRA.norm>
0.0195305

>  <SCORE.RESTR>
0.292068

>  <SCORE.RESTR.CAVITY>
0.292068

>  <SCORE.RESTR.norm>
0.0063493

>  <SCORE.SYSTEM>
0

>  <SCORE.SYSTEM.CONST>
0

>  <SCORE.SYSTEM.DIHEDRAL>
0

>  <SCORE.SYSTEM.SOLV>
0

>  <SCORE.SYSTEM.norm>
0

>  <SCORE.heavy>
46

>  <SCORE.norm>
-0.344173

>  <RMSD>
5.075

$$$$
ligand
 OpenBabel02271912143D
libRbt.so/2013.1/901 2013/11/27
 46 52  0  0  0  0  0  0  0  0999 V2000
  158.8824   48.1178  148.8331 P   0  0  1  0  0  0  0  0  0  0  0  0
  160.3015   42.6114  148.5235 P   0  0  1  0  0  0  0  0  0  0  0  0
  158.9637   48.8790  147.5350 O   0  5  0  0  0  0  0  0  0  0  0  0
  158.2458   48.8350  150.0035 O   0  0  0  0  0  0  0  0  0  0  0  0
  157.2070   46.1657  149.4511 C   0  0  0  0  0  0  0  0  0  0  0  0
  158.1609   46.7095  148.5480 O   0  0  0  0  0  0  0  0  0  0  0  0
  156.9898   44.6915  149.1525 C   0  0  1  0  0  0  0  0  0  0  0  0
  155.7560   44.5603  148.4609 O   0  0  0  0  0  0  0  0  0  0  0  0
  158.0443   44.0350  148.2705 C   0  0  1  0  0  0  0  0  0  0  0  0
  158.9069   43.2384  149.0693 O   0  0  0  0  0  0  0  0  0  0  0  0
  157.2379   43.1113  147.3853 C   0  0  1  0  0  0  0  0  0  0  0  0
  157.1206   41.8308  148.0087 O   0  0  0  0  0  0  0  0  0  0  0  0
  155.8578   43.6998  147.3366 C   0  0  2  0  0  0  0  0  0  0  0  0
  163.1403   46.9527  146.9471 C   0  0  1  0  0  0  0  0  0  0  0  0
  152.6711   45.2374  143.4601 N   0  0  0  0  0  0  0  0  0  0  0  0
  152.4412   44.4043  144.4926 C   0  0  1  0  0  0  0  0  0  0  0  0
  161.9079   47.7544  147.3106 C   0  0  2  0  0  0  0  0  0  0  0  0
  151.2213   43.8359  144.6189 N   0  0  0  0  0  0  0  0  0  0  0  0
  162.3496   48.9470  147.9651 O   0  0  0  0  0  0  0  0  0  0  0  0
  161.1222   46.8745  148.2647 C   0  0  2  0  0  0  0  0  0  0  0  0
  153.3716   44.0941  145.4237 N   0  0  0  0  0  0  0  0  0  0  0  0
  160.3803   47.6512  149.2041 O   0  0  0  0  0  0  0  0  0  0  0  0
  154.6144   44.6185  145.3646 C   0  0  2  0  0  0  0  0  0  0  0  0
  162.2240   46.0550  148.9328 C   0  0  2  0  0  0  0  0  0  0  0  0
  163.3329   46.0402  148.0312 O   0  0  0  0  0  0  0  0  0  0  0  0
  154.9357   45.5333  144.2648 C   0  0  2  0  0  0  0  0  0  0  0  0
  161.8387   44.6150  149.2856 C   0  0  0  0  0  0  0  0  0  0  0  0
  161.1795   43.9327  148.2195 O   0  0  0  0  0  0  0  0  0  0  0  0
  153.8659   45.8269  143.2824 C   0  0  0  0  0  0  0  0  0  0  0  0
  154.0844   46.6049  142.3228 O   0  0  0  0  0  0  0  0  0  0  0  0
  156.2188   45.8952  144.4429 N   0  0  0  0  0  0  0  0  0  0  0  0
  156.6796   45.2734  145.5548 C   0  0  0  0  0  0  0  0  0  0  0  0
  155.7179   44.5114  146.1044 N   0  0  1  0  0  0  0  0  0  0  0  0
  161.1888   46.9645  142.0656 N   0  0  0  0  0  0  0  0  0  0  0  0
  160.9110   41.8616  149.6933 O   0  5  0  0  0  0  0  0  0  0  0  0
  161.2669   47.9587  142.9636 C   0  0  2  0  0  0  0  0  0  0  0  0
  160.7864   49.1575  142.6011 N   0  0  0  0  0  0  0  0  0  0  0  0
  160.0520   41.9209  147.2048 O   0  0  0  0  0  0  0  0  0  0  0  0
  161.8030   47.8130  144.1979 N   0  0  0  0  0  0  0  0  0  0  0  0
  162.3010   46.6234  144.5957 C   0  0  1  0  0  0  0  0  0  0  0  0
  162.2439   45.4881  143.6532 C   0  0  1  0  0  0  0  0  0  0  0  0
  161.6480   45.7372  142.3158 C   0  0  0  0  0  0  0  0  0  0  0  0
  161.5482   44.8412  141.4502 O   0  0  0  0  0  0  0  0  0  0  0  0
  162.8014   44.4430  144.2850 N   0  0  0  0  0  0  0  0  0  0  0  0
  163.1741   44.8743  145.5221 C   0  0  0  0  0  0  0  0  0  0  0  0
  162.8796   46.1760  145.7098 N   0  0  2  0  0  0  0  0  0  0  0  0
  1  3  1  6  0  0  0
  1  4  2  0  0  0  0
  1  6  1  0  0  0  0
  1 22  1  0  0  0  0
  2 28  1  0  0  0  0
  2 35  1  1  0  0  0
  2 38  2  0  0  0  0
  2 10  1  0  0  0  0
  5  6  1  0  0  0  0
  7  5  1  6  0  0  0
  7  8  1  0  0  0  0
  7  9  1  0  0  0  0
  9 10  1  1  0  0  0
  9 11  1  0  0  0  0
 11 12  1  1  0  0  0
 11 13  1  0  0  0  0
 13  8  1  1  0  0  0
 13 33  1  0  0  0  0
 14 46  1  0  0  0  0
 14 17  1  0  0  0  0
 14 25  1  1  0  0  0
 15 16  1  0  0  0  0
 15 29  1  0  0  0  0
 16 18  1  6  0  0  0
 16 21  1  0  0  0  0
 17 19  1  1  0  0  0
 17 20  1  0  0  0  0
 20 22  1  1  0  0  0
 20 24  1  0  0  0  0
 23 21  1  6  0  0  0
 23 26  1  0  0  0  0
 23 33  1  0  0  0  0
 24 25  1  6  0  0  0
 24 27  1  0  0  0  0
 26 29  1  6  0  0  0
 26 31  1  0  0  0  0
 27 28  1  0  0  0  0
 29 30  2  0  0  0  0
 31 32  1  0  0  0  0
 33 32  1  1  0  0  0
 34 36  1  0  0  0  0
 34 42  1  0  0  0  0
 36 37  1  6  0  0  0
 36 39  1  0  0  0  0
 40 39  1  6  0  0  0
 40 41  1  0  0  0  0
 40 46  1  0  0  0  0
 41 42  1  6  0  0  0
 41 44  1  0  0  0  0
 42 43  2  0  0  0  0
 44 45  1  0  0  0  0
 46 45  1  1  0  0  0
M  CHG  2   3  -1  35  -1
M  END
>  <CHROM.1>
-100.85388480,45.45702359,158.92516367,45.52847809,146.52408211,0.11432388
0.24744965,1.91779326

>  <Name>
ligand

>  <RI>
0

>  <Rbt.Current_Directory>
/home/itssahil/PROJECTS/Mol_Feturizer/Test_systems_manuscript/rnas/4yb0

>  <Rbt.Executable>
rbdock ($Id: //depot/dev/client3/rdock/2013.1/src/exe/rbdock.cxx#4 $)

>  <Rbt.Library>
libRbt.so (2013.1, Build901 2013/11/27)

>  <Rbt.Parameter_File>
/export/apps/rDock/src/rDock_2013.1_src/data/scripts/dock_solv.prm

>  <Rbt.Receptor>
prm/pocket_docking_7.prm

>  <SCORE>
-25.2509

>  <SCORE.INTER>
-25.5898

>  <SCORE.INTER.CONST>
1

>  <SCORE.INTER.POLAR>
0

>  <SCORE.INTER.ROT>
2

>  <SCORE.INTER.SOLV>
12.8028

>  <SCORE.INTER.VDW>
-26.2608

>  <SCORE.INTER.norm>
-0.556301

>  <SCORE.INTRA>
0.338961

>  <SCORE.INTRA.DIHEDRAL>
-0.0207617

>  <SCORE.INTRA.DIHEDRAL.0>
2.42188

>  <SCORE.INTRA.POLAR>
0

>  <SCORE.INTRA.POLAR.0>
0

>  <SCORE.INTRA.REPUL>
0

>  <SCORE.INTRA.REPUL.0>
0

>  <SCORE.INTRA.SOLV>
-0.00287578

>  <SCORE.INTRA.SOLV.lig_0>
-127.307

>  <SCORE.INTRA.VDW>
0.35078

>  <SCORE.INTRA.VDW.0>
-2.19936

>  <SCORE.INTRA.norm>
0.00736872

>  <SCORE.RESTR>
0

>  <SCORE.RESTR.CAVITY>
0

>  <SCORE.RESTR.norm>
0

>  <SCORE.SYSTEM>
0

>  <SCORE.SYSTEM.CONST>
0

>  <SCORE.SYSTEM.DIHEDRAL>
0

>  <SCORE.SYSTEM.SOLV>
0

>  <SCORE.SYSTEM.norm>
0

>  <SCORE.heavy>
46

>  <SCORE.norm>
-0.548932

>  <RMSD>
5.130

$$$$
ligand
 OpenBabel02271912143D
libRbt.so/2013.1/901 2013/11/27
 46 52  0  0  0  0  0  0  0  0999 V2000
  160.9048   44.5036  142.6993 P   0  0  1  0  0  0  0  0  0  0  0  0
  160.8396   46.1446  148.1522 P   0  0  1  0  0  0  0  0  0  0  0  0
  159.9043   43.4374  142.3344 O   0  5  0  0  0  0  0  0  0  0  0  0
  161.6540   45.1532  141.5564 O   0  0  0  0  0  0  0  0  0  0  0  0
  160.4041   46.9922  143.4445 C   0  0  0  0  0  0  0  0  0  0  0  0
  160.1632   45.6010  143.6107 O   0  0  0  0  0  0  0  0  0  0  0  0
  159.8996   47.7558  144.6578 C   0  0  1  0  0  0  0  0  0  0  0  0
  158.6702   48.3752  144.3074 O   0  0  0  0  0  0  0  0  0  0  0  0
  159.6149   46.9141  145.8952 C   0  0  1  0  0  0  0  0  0  0  0  0
  160.6612   47.0842  146.8401 O   0  0  0  0  0  0  0  0  0  0  0  0
  158.3612   47.5386  146.4654 C   0  0  1  0  0  0  0  0  0  0  0  0
  158.7160   48.5727  147.3856 O   0  0  0  0  0  0  0  0  0  0  0  0
  157.6767   48.2033  145.3064 C   0  0  2  0  0  0  0  0  0  0  0  0
  161.3315   41.1484  146.1059 C   0  0  1  0  0  0  0  0  0  0  0  0
  154.1989   44.4333  146.4192 N   0  0  0  0  0  0  0  0  0  0  0  0
  155.0802   45.0634  147.2187 C   0  0  1  0  0  0  0  0  0  0  0  0
  161.0952   41.7957  144.7573 C   0  0  2  0  0  0  0  0  0  0  0  0
  155.1368   44.7277  148.5269 N   0  0  0  0  0  0  0  0  0  0  0  0
  161.9920   41.1850  143.8253 O   0  0  0  0  0  0  0  0  0  0  0  0
  161.4333   43.2622  144.9500 C   0  0  2  0  0  0  0  0  0  0  0  0
  155.9275   46.0243  146.7856 N   0  0  0  0  0  0  0  0  0  0  0  0
  161.9367   43.8465  143.7494 O   0  0  0  0  0  0  0  0  0  0  0  0
  155.9339   46.4125  145.4925 C   0  0  2  0  0  0  0  0  0  0  0  0
  162.4865   43.2104  146.0546 C   0  0  2  0  0  0  0  0  0  0  0  0
  162.2728   41.9934  146.7730 O   0  0  0  0  0  0  0  0  0  0  0  0
  155.0007   45.7670  144.5639 C   0  0  2  0  0  0  0  0  0  0  0  0
  162.4588   44.3882  147.0336 C   0  0  0  0  0  0  0  0  0  0  0  0
  161.1471   44.6979  147.5026 O   0  0  0  0  0  0  0  0  0  0  0  0
  154.1022   44.7229  145.1102 C   0  0  0  0  0  0  0  0  0  0  0  0
  153.2817   44.1395  144.3616 O   0  0  0  0  0  0  0  0  0  0  0  0
  155.2202   46.3299  143.3624 N   0  0  0  0  0  0  0  0  0  0  0  0
  156.2014   47.2532  143.5045 C   0  0  0  0  0  0  0  0  0  0  0  0
  156.6255   47.3011  144.7793 N   0  0  1  0  0  0  0  0  0  0  0  0
  158.5554   38.9419  149.9869 N   0  0  0  0  0  0  0  0  0  0  0  0
  162.0805   46.6494  148.8644 O   0  5  0  0  0  0  0  0  0  0  0  0
  159.7911   38.6609  149.5454 C   0  0  2  0  0  0  0  0  0  0  0  0
  160.4574   37.6731  150.1615 N   0  0  0  0  0  0  0  0  0  0  0  0
  159.5176   46.0447  148.8736 O   0  0  0  0  0  0  0  0  0  0  0  0
  160.3900   39.3194  148.5256 N   0  0  0  0  0  0  0  0  0  0  0  0
  159.7527   40.3221  147.8855 C   0  0  1  0  0  0  0  0  0  0  0  0
  158.3886   40.6794  148.3237 C   0  0  1  0  0  0  0  0  0  0  0  0
  157.8099   39.9126  149.4563 C   0  0  0  0  0  0  0  0  0  0  0  0
  156.6616   40.1343  149.8973 O   0  0  0  0  0  0  0  0  0  0  0  0
  157.9924   41.6940  147.5389 N   0  0  0  0  0  0  0  0  0  0  0  0
  159.0121   41.9543  146.6743 C   0  0  0  0  0  0  0  0  0  0  0  0
  160.0656   41.1393  146.8803 N   0  0  2  0  0  0  0  0  0  0  0  0
  1  3  1  6  0  0  0
  1  4  2  0  0  0  0
  1  6  1  0  0  0  0
  1 22  1  0  0  0  0
  2 28  1  0  0  0  0
  2 35  1  1  0  0  0
  2 38  2  0  0  0  0
  2 10  1  0  0  0  0
  5  6  1  0  0  0  0
  7  5  1  6  0  0  0
  7  8  1  0  0  0  0
  7  9  1  0  0  0  0
  9 10  1  1  0  0  0
  9 11  1  0  0  0  0
 11 12  1  1  0  0  0
 11 13  1  0  0  0  0
 13  8  1  6  0  0  0
 13 33  1  0  0  0  0
 14 46  1  0  0  0  0
 14 17  1  0  0  0  0
 14 25  1  1  0  0  0
 15 16  1  0  0  0  0
 15 29  1  0  0  0  0
 16 18  1  6  0  0  0
 16 21  1  0  0  0  0
 17 19  1  6  0  0  0
 17 20  1  0  0  0  0
 20 22  1  6  0  0  0
 20 24  1  0  0  0  0
 23 21  1  6  0  0  0
 23 26  1  0  0  0  0
 23 33  1  0  0  0  0
 24 25  1  1  0  0  0
 24 27  1  0  0  0  0
 26 29  1  6  0  0  0
 26 31  1  0  0  0  0
 27 28  1  0  0  0  0
 29 30  2  0  0  0  0
 31 32  1  0  0  0  0
 33 32  1  1  0  0  0
 34 36  1  0  0  0  0
 34 42  1  0  0  0  0
 36 37  1  1  0  0  0
 36 39  1  0  0  0  0
 40 39  1  1  0  0  0
 40 41  1  0  0  0  0
 40 46  1  0  0  0  0
 41 42  1  1  0  0  0
 41 44  1  0  0  0  0
 42 43  2  0  0  0  0
 44 45  1  0  0  0  0
 46 45  1  6  0  0  0
M  CHG  2   3  -1  35  -1
M  END
>  <CHROM.1>
145.47657243,157.35090555,159.10634935,44.17831904,146.15129508,-1.84322966
-0.27146509,2.56708276

>  <Name>
ligand

>  <RI>
0

>  <Rbt.Current_Directory>
/home/itssahil/PROJECTS/Mol_Feturizer/Test_systems_manuscript/rnas/4yb0

>  <Rbt.Executable>
rbdock ($Id: //depot/dev/client3/rdock/2013.1/src/exe/rbdock.cxx#4 $)

>  <Rbt.Library>
libRbt.so (2013.1, Build901 2013/11/27)

>  <Rbt.Parameter_File>
/export/apps/rDock/src/rDock_2013.1_src/data/scripts/dock_solv.prm

>  <Rbt.Receptor>
prm/pocket_docking_5.prm

>  <SCORE>
-20.5634

>  <SCORE.INTER>
-21.4328

>  <SCORE.INTER.CONST>
1

>  <SCORE.INTER.POLAR>
0

>  <SCORE.INTER.ROT>
2

>  <SCORE.INTER.SOLV>
26.3099

>  <SCORE.INTER.VDW>
-27.9918

>  <SCORE.INTER.norm>
-0.46593

>  <SCORE.INTRA>
0.86939

>  <SCORE.INTRA.DIHEDRAL>
-0.0164712

>  <SCORE.INTRA.DIHEDRAL.0>
2.42188

>  <SCORE.INTRA.POLAR>
0

>  <SCORE.INTRA.POLAR.0>
0

>  <SCORE.INTRA.REPUL>
0

>  <SCORE.INTRA.REPUL.0>
0

>  <SCORE.INTRA.SOLV>
0.0260499

>  <SCORE.INTRA.SOLV.lig_0>
-127.307

>  <SCORE.INTRA.VDW>
0.8646

>  <SCORE.INTRA.VDW.0>
-2.19936

>  <SCORE.INTRA.norm>
0.0188998

>  <SCORE.RESTR>
0

>  <SCORE.RESTR.CAVITY>
0

>  <SCORE.RESTR.norm>
0

>  <SCORE.SYSTEM>
0

>  <SCORE.SYSTEM.CONST>
0

>  <SCORE.SYSTEM.DIHEDRAL>
0

>  <SCORE.SYSTEM.SOLV>
0

>  <SCORE.SYSTEM.norm>
0

>  <SCORE.heavy>
46

>  <SCORE.norm>
-0.447031

>  <RMSD>
5.166

$$$$
ligand
 OpenBabel02271912143D
libRbt.so/2013.1/901 2013/11/27
 46 52  0  0  0  0  0  0  0  0999 V2000
  160.3976   46.0916  142.2740 P   0  0  1  0  0  0  0  0  0  0  0  0
  161.3535   46.7430  147.8501 P   0  0  1  0  0  0  0  0  0  0  0  0
  159.5003   44.9389  141.9036 O   0  5  0  0  0  0  0  0  0  0  0  0
  160.7659   47.0511  141.1635 O   0  0  0  0  0  0  0  0  0  0  0  0
  159.7359   48.2843  143.5983 C   0  0  0  0  0  0  0  0  0  0  0  0
  159.7377   46.8648  143.5197 O   0  0  0  0  0  0  0  0  0  0  0  0
  159.4207   48.7260  145.0179 C   0  0  1  0  0  0  0  0  0  0  0  0
  158.0691   49.1618  145.0526 O   0  0  0  0  0  0  0  0  0  0  0  0
  159.5484   47.6488  146.0875 C   0  0  1  0  0  0  0  0  0  0  0  0
  160.7489   47.8434  146.8208 O   0  0  0  0  0  0  0  0  0  0  0  0
  158.3837   47.9288  147.0105 C   0  0  1  0  0  0  0  0  0  0  0  0
  158.7909   48.8386  148.0344 O   0  0  0  0  0  0  0  0  0  0  0  0
  157.3654   48.6449  146.1717 C   0  0  2  0  0  0  0  0  0  0  0  0
  162.0612   42.3409  144.7659 C   0  0  1  0  0  0  0  0  0  0  0  0
  154.4072   44.4757  147.3606 N   0  0  0  0  0  0  0  0  0  0  0  0
  155.3001   45.1478  148.1115 C   0  0  1  0  0  0  0  0  0  0  0  0
  161.4336   43.1540  143.6530 C   0  0  2  0  0  0  0  0  0  0  0  0
  155.5239   44.7461  149.3827 N   0  0  0  0  0  0  0  0  0  0  0  0
  162.1696   42.8839  142.4567 O   0  0  0  0  0  0  0  0  0  0  0  0
  161.5970   44.6031  144.0717 C   0  0  2  0  0  0  0  0  0  0  0  0
  155.9999   46.2149  147.6638 N   0  0  0  0  0  0  0  0  0  0  0  0
  161.7246   45.4645  142.9412 O   0  0  0  0  0  0  0  0  0  0  0  0
  155.8350   46.6745  146.4051 C   0  0  2  0  0  0  0  0  0  0  0  0
  162.8719   44.5568  144.9111 C   0  0  2  0  0  0  0  0  0  0  0  0
  163.0019   43.2173  145.3923 O   0  0  0  0  0  0  0  0  0  0  0  0
  154.8789   45.9890  145.5300 C   0  0  2  0  0  0  0  0  0  0  0  0
  162.9038   45.5263  146.0968 C   0  0  0  0  0  0  0  0  0  0  0  0
  161.7044   45.5080  146.8697 O   0  0  0  0  0  0  0  0  0  0  0  0
  154.1482   44.8275  146.0895 C   0  0  0  0  0  0  0  0  0  0  0  0
  153.3161   44.2053  145.3864 O   0  0  0  0  0  0  0  0  0  0  0  0
  154.9173   46.6391  144.3532 N   0  0  0  0  0  0  0  0  0  0  0  0
  155.8125   47.6500  144.4613 C   0  0  0  0  0  0  0  0  0  0  0  0
  156.3590   47.6695  145.6895 N   0  0  1  0  0  0  0  0  0  0  0  0
  160.8129   41.7708  149.8407 N   0  0  0  0  0  0  0  0  0  0  0  0
  162.6409   47.3366  148.3906 O   0  5  0  0  0  0  0  0  0  0  0  0
  161.9604   42.1794  149.2775 C   0  0  2  0  0  0  0  0  0  0  0  0
  162.9702   42.5039  150.0985 N   0  0  0  0  0  0  0  0  0  0  0  0
  160.2596   46.2832  148.7829 O   0  0  0  0  0  0  0  0  0  0  0  0
  162.1435   42.2820  147.9402 N   0  0  0  0  0  0  0  0  0  0  0  0
  161.1487   41.9694  147.0835 C   0  0  1  0  0  0  0  0  0  0  0  0
  159.8602   41.5117  147.6411 C   0  0  1  0  0  0  0  0  0  0  0  0
  159.7413   41.4371  149.1196 C   0  0  0  0  0  0  0  0  0  0  0  0
  158.6956   41.0566  149.6886 O   0  0  0  0  0  0  0  0  0  0  0  0
  159.0560   41.2762  146.5922 N   0  0  0  0  0  0  0  0  0  0  0  0
  159.7721   41.5535  145.4673 C   0  0  0  0  0  0  0  0  0  0  0  0
  161.0207   41.9704  145.7569 N   0  0  2  0  0  0  0  0  0  0  0  0
  1  3  1  6  0  0  0
  1  4  2  0  0  0  0
  1  6  1  0  0  0  0
  1 22  1  0  0  0  0
  2 28  1  0  0  0  0
  2 35  1  1  0  0  0
  2 38  2  0  0  0  0
  2 10  1  0  0  0  0
  5  6  1  0  0  0  0
  7  5  1  6  0  0  0
  7  8  1  0  0  0  0
  7  9  1  0  0  0  0
  9 10  1  1  0  0  0
  9 11  1  0  0  0  0
 11 12  1  1  0  0  0
 11 13  1  0  0  0  0
 13  8  1  6  0  0  0
 13 33  1  0  0  0  0
 14 46  1  0  0  0  0
 14 17  1  0  0  0  0
 14 25  1  1  0  0  0
 15 16  1  0  0  0  0
 15 29  1  0  0  0  0
 16 18  1  6  0  0  0
 16 21  1  0  0  0  0
 17 19  1  6  0  0  0
 17 20  1  0  0  0  0
 20 22  1  6  0  0  0
 20 24  1  0  0  0  0
 23 21  1  6  0  0  0
 23 26  1  0  0  0  0
 23 33  1  0  0  0  0
 24 25  1  1  0  0  0
 24 27  1  0  0  0  0
 26 29  1  6  0  0  0
 26 31  1  0  0  0  0
 27 28  1  0  0  0  0
 29 30  2  0  0  0  0
 31 32  1  0  0  0  0
 33 32  1  1  0  0  0
 34 36  1  0  0  0  0
 34 42  1  0  0  0  0
 36 37  1  1  0  0  0
 36 39  1  0  0  0  0
 40 39  1  1  0  0  0
 40 41  1  0  0  0  0
 40 46  1  0  0  0  0
 41 42  1  1  0  0  0
 41 44  1  0  0  0  0
 42 43  2  0  0  0  0
 44 45  1  0  0  0  0
 46 45  1  6  0  0  0
M  CHG  2   3  -1  35  -1
M  END
>  <CHROM.1>
156.09026147,-139.18607750,159.48442721,45.19380504,146.03212427,-2.57856754
-0.36912085,2.30937087

>  <Name>
ligand

>  <RI>
0

>  <Rbt.Current_Directory>
/home/itssahil/PROJECTS/Mol_Feturizer/Test_systems_manuscript/rnas/4yb0

>  <Rbt.Executable>
rbdock ($Id: //depot/dev/client3/rdock/2013.1/src/exe/rbdock.cxx#4 $)

>  <Rbt.Library>
libRbt.so (2013.1, Build901 2013/11/27)

>  <Rbt.Parameter_File>
/export/apps/rDock/src/rDock_2013.1_src/data/scripts/dock_solv.prm

>  <Rbt.Receptor>
prm/pocket_docking_5.prm

>  <SCORE>
-19.6413

>  <SCORE.INTER>
-19.7366

>  <SCORE.INTER.CONST>
1

>  <SCORE.INTER.POLAR>
0

>  <SCORE.INTER.ROT>
2

>  <SCORE.INTER.SOLV>
23.1167

>  <SCORE.INTER.VDW>
-25.7967

>  <SCORE.INTER.norm>
-0.429058

>  <SCORE.INTRA>
0.0543933

>  <SCORE.INTRA.DIHEDRAL>
-0.0686983

>  <SCORE.INTRA.DIHEDRAL.0>
2.42188

>  <SCORE.INTRA.POLAR>
0

>  <SCORE.INTRA.POLAR.0>
0

>  <SCORE.INTRA.REPUL>
0

>  <SCORE.INTRA.REPUL.0>
0

>  <SCORE.INTRA.SOLV>
0.0552819

>  <SCORE.INTRA.SOLV.lig_0>
-127.307

>  <SCORE.INTRA.VDW>
0.0611015

>  <SCORE.INTRA.VDW.0>
-2.19936

>  <SCORE.INTRA.norm>
0.00118246

>  <SCORE.RESTR>
0.0409356

>  <SCORE.RESTR.CAVITY>
0.0409356

>  <SCORE.RESTR.norm>
0.000889904

>  <SCORE.SYSTEM>
0

>  <SCORE.SYSTEM.CONST>
0

>  <SCORE.SYSTEM.DIHEDRAL>
0

>  <SCORE.SYSTEM.SOLV>
0

>  <SCORE.SYSTEM.norm>
0

>  <SCORE.heavy>
46

>  <SCORE.norm>
-0.426985

>  <RMSD>
5.248

$$$$
ligand
 OpenBabel02271912143D
libRbt.so/2013.1/901 2013/11/27
 46 52  0  0  0  0  0  0  0  0999 V2000
  160.4127   43.9175  150.5606 P   0  0  1  0  0  0  0  0  0  0  0  0
  159.9229   48.8086  147.6851 P   0  0  1  0  0  0  0  0  0  0  0  0
  159.7619   42.7215  149.9147 O   0  5  0  0  0  0  0  0  0  0  0  0
  161.2833   43.6487  151.7686 O   0  0  0  0  0  0  0  0  0  0  0  0
  162.5017   45.2824  149.6815 C   0  0  0  0  0  0  0  0  0  0  0  0
  161.2179   44.7266  149.4283 O   0  0  0  0  0  0  0  0  0  0  0  0
  162.8476   46.3021  148.6090 C   0  0  1  0  0  0  0  0  0  0  0  0
  163.7707   45.7008  147.7122 O   0  0  0  0  0  0  0  0  0  0  0  0
  161.6803   46.7858  147.7579 C   0  0  1  0  0  0  0  0  0  0  0  0
  161.2933   48.0875  148.1730 O   0  0  0  0  0  0  0  0  0  0  0  0
  162.2754   46.8923  146.3717 C   0  0  1  0  0  0  0  0  0  0  0  0
  162.8144   48.2019  146.1804 O   0  0  0  0  0  0  0  0  0  0  0  0
  163.4339   45.9379  146.3539 C   0  0  2  0  0  0  0  0  0  0  0  0
  156.0267   45.3965  149.2878 C   0  0  1  0  0  0  0  0  0  0  0  0
  161.8231   43.5104  141.9882 N   0  0  0  0  0  0  0  0  0  0  0  0
  162.1384   44.8029  142.1956 C   0  0  1  0  0  0  0  0  0  0  0  0
  157.1550   44.4996  149.7526 C   0  0  2  0  0  0  0  0  0  0  0  0
  162.0522   45.6735  141.1651 N   0  0  0  0  0  0  0  0  0  0  0  0
  156.7720   43.9476  151.0153 O   0  0  0  0  0  0  0  0  0  0  0  0
  158.3578   45.4118  149.9048 C   0  0  2  0  0  0  0  0  0  0  0  0
  162.5392   45.2916  143.3912 N   0  0  0  0  0  0  0  0  0  0  0  0
  159.2360   44.9548  150.9325 O   0  0  0  0  0  0  0  0  0  0  0  0
  162.6470   44.4860  144.4693 C   0  0  2  0  0  0  0  0  0  0  0  0
  157.7087   46.7501  150.2506 C   0  0  2  0  0  0  0  0  0  0  0  0
  156.3763   46.7091  149.7350 O   0  0  0  0  0  0  0  0  0  0  0  0
  162.3176   43.0655  144.3165 C   0  0  2  0  0  0  0  0  0  0  0  0
  158.4287   47.9833  149.6961 C   0  0  0  0  0  0  0  0  0  0  0  0
  158.7847   47.8544  148.3202 O   0  0  0  0  0  0  0  0  0  0  0  0
  161.8860   42.6020  142.9768 C   0  0  0  0  0  0  0  0  0  0  0  0
  161.5946   41.3964  142.7881 O   0  0  0  0  0  0  0  0  0  0  0  0
  162.5030   42.5070  145.5259 N   0  0  0  0  0  0  0  0  0  0  0  0
  162.9154   43.4768  146.3772 C   0  0  0  0  0  0  0  0  0  0  0  0
  163.0016   44.6589  145.7425 N   0  0  1  0  0  0  0  0  0  0  0  0
  156.4170   48.2084  144.8631 N   0  0  0  0  0  0  0  0  0  0  0  0
  159.8897   50.1586  148.3766 O   0  5  0  0  0  0  0  0  0  0  0  0
  156.5565   48.5919  146.1415 C   0  0  2  0  0  0  0  0  0  0  0  0
  156.8411   49.8823  146.3717 N   0  0  0  0  0  0  0  0  0  0  0  0
  159.8150   48.7032  146.1832 O   0  0  0  0  0  0  0  0  0  0  0  0
  156.4294   47.7504  147.1941 N   0  0  0  0  0  0  0  0  0  0  0  0
  156.1488   46.4445  147.0011 C   0  0  1  0  0  0  0  0  0  0  0  0
  155.9821   45.9597  145.6163 C   0  0  1  0  0  0  0  0  0  0  0  0
  156.1477   46.9477  144.5199 C   0  0  0  0  0  0  0  0  0  0  0  0
  156.0209   46.6385  143.3156 O   0  0  0  0  0  0  0  0  0  0  0  0
  155.7190   44.6462  145.7041 N   0  0  0  0  0  0  0  0  0  0  0  0
  155.7126   44.3258  147.0279 C   0  0  0  0  0  0  0  0  0  0  0  0
  155.9717   45.3962  147.8048 N   0  0  2  0  0  0  0  0  0  0  0  0
  1  3  1  6  0  0  0
  1  4  2  0  0  0  0
  1  6  1  0  0  0  0
  1 22  1  0  0  0  0
  2 28  1  0  0  0  0
  2 35  1  1  0  0  0
  2 38  2  0  0  0  0
  2 10  1  0  0  0  0
  5  6  1  0  0  0  0
  7  5  1  1  0  0  0
  7  8  1  0  0  0  0
  7  9  1  0  0  0  0
  9 10  1  1  0  0  0
  9 11  1  0  0  0  0
 11 12  1  1  0  0  0
 11 13  1  0  0  0  0
 13  8  1  1  0  0  0
 13 33  1  0  0  0  0
 14 46  1  0  0  0  0
 14 17  1  0  0  0  0
 14 25  1  6  0  0  0
 15 16  1  0  0  0  0
 15 29  1  0  0  0  0
 16 18  1  1  0  0  0
 16 21  1  0  0  0  0
 17 19  1  1  0  0  0
 17 20  1  0  0  0  0
 20 22  1  1  0  0  0
 20 24  1  0  0  0  0
 23 21  1  1  0  0  0
 23 26  1  0  0  0  0
 23 33  1  0  0  0  0
 24 25  1  6  0  0  0
 24 27  1  0  0  0  0
 26 29  1  1  0  0  0
 26 31  1  0  0  0  0
 27 28  1  0  0  0  0
 29 30  2  0  0  0  0
 31 32  1  0  0  0  0
 33 32  1  6  0  0  0
 34 36  1  0  0  0  0
 34 42  1  0  0  0  0
 36 37  1  6  0  0  0
 36 39  1  0  0  0  0
 40 39  1  6  0  0  0
 40 41  1  0  0  0  0
 40 46  1  0  0  0  0
 41 42  1  6  0  0  0
 41 44  1  0  0  0  0
 42 43  2  0  0  0  0
 44 45  1  0  0  0  0
 46 45  1  1  0  0  0
M  CHG  2   3  -1  35  -1
M  END
>  <CHROM.1>
-177.94555011,-117.77929191,159.72034187,45.83015839,147.15372866,-2.47365771
0.46451411,-1.48083021

>  <Name>
ligand

>  <RI>
0

>  <Rbt.Current_Directory>
/home/itssahil/PROJECTS/Mol_Feturizer/Test_systems_manuscript/rnas/4yb0

>  <Rbt.Executable>
rbdock ($Id: //depot/dev/client3/rdock/2013.1/src/exe/rbdock.cxx#4 $)

>  <Rbt.Library>
libRbt.so (2013.1, Build901 2013/11/27)

>  <Rbt.Parameter_File>
/export/apps/rDock/src/rDock_2013.1_src/data/scripts/dock_solv.prm

>  <Rbt.Receptor>
prm/pocket_docking_8.prm

>  <SCORE>
-16.771

>  <SCORE.INTER>
-18.6876

>  <SCORE.INTER.CONST>
1

>  <SCORE.INTER.POLAR>
0

>  <SCORE.INTER.ROT>
2

>  <SCORE.INTER.SOLV>
17.6862

>  <SCORE.INTER.VDW>
-23.2871

>  <SCORE.INTER.norm>
-0.406252

>  <SCORE.INTRA>
1.9166

>  <SCORE.INTRA.DIHEDRAL>
-0.0156103

>  <SCORE.INTRA.DIHEDRAL.0>
2.42188

>  <SCORE.INTRA.POLAR>
0

>  <SCORE.INTRA.POLAR.0>
0

>  <SCORE.INTRA.REPUL>
0

>  <SCORE.INTRA.REPUL.0>
0

>  <SCORE.INTRA.SOLV>
6.65301

>  <SCORE.INTRA.SOLV.lig_0>
-127.307

>  <SCORE.INTRA.VDW>
-1.4021

>  <SCORE.INTRA.VDW.0>
-2.19936

>  <SCORE.INTRA.norm>
0.0416652

>  <SCORE.RESTR>
0

>  <SCORE.RESTR.CAVITY>
0

>  <SCORE.RESTR.norm>
0

>  <SCORE.SYSTEM>
0

>  <SCORE.SYSTEM.CONST>
0

>  <SCORE.SYSTEM.DIHEDRAL>
0

>  <SCORE.SYSTEM.SOLV>
0

>  <SCORE.SYSTEM.norm>
0

>  <SCORE.heavy>
46

>  <SCORE.norm>
-0.364586

>  <RMSD>
5.252

$$$$
ligand
 OpenBabel02271912143D
libRbt.so/2013.1/901 2013/11/27
 46 52  0  0  0  0  0  0  0  0999 V2000
  161.0504   45.0504  142.3596 P   0  0  1  0  0  0  0  0  0  0  0  0
  161.1446   46.3904  147.8937 P   0  0  1  0  0  0  0  0  0  0  0  0
  160.0916   43.9521  141.9779 O   0  5  0  0  0  0  0  0  0  0  0  0
  161.7125   45.8004  141.2243 O   0  0  0  0  0  0  0  0  0  0  0  0
  160.4541   47.4643  143.2633 C   0  0  0  0  0  0  0  0  0  0  0  0
  160.2940   46.0551  143.3613 O   0  0  0  0  0  0  0  0  0  0  0  0
  159.9654   48.1330  144.5376 C   0  0  1  0  0  0  0  0  0  0  0  0
  158.6908   48.7021  144.2743 O   0  0  0  0  0  0  0  0  0  0  0  0
  159.7811   47.2117  145.7368 C   0  0  1  0  0  0  0  0  0  0  0  0
  160.8585   47.3878  146.6449 O   0  0  0  0  0  0  0  0  0  0  0  0
  158.5233   47.7352  146.3932 C   0  0  1  0  0  0  0  0  0  0  0  0
  158.8646   48.7363  147.3541 O   0  0  0  0  0  0  0  0  0  0  0  0
  157.7536   48.4227  145.3031 C   0  0  2  0  0  0  0  0  0  0  0  0
  161.8046   41.5456  145.5520 C   0  0  1  0  0  0  0  0  0  0  0  0
  154.5438   44.4026  146.3435 N   0  0  0  0  0  0  0  0  0  0  0  0
  155.4276   45.0347  147.1387 C   0  0  1  0  0  0  0  0  0  0  0  0
  161.4745   42.2504  144.2529 C   0  0  2  0  0  0  0  0  0  0  0  0
  155.5662   44.6279  148.4203 N   0  0  0  0  0  0  0  0  0  0  0  0
  162.3591   41.7406  143.2513 O   0  0  0  0  0  0  0  0  0  0  0  0
  161.7437   43.7208  144.5130 C   0  0  2  0  0  0  0  0  0  0  0  0
  156.1994   46.0658  146.7262 N   0  0  0  0  0  0  0  0  0  0  0  0
  162.1614   44.3953  143.3269 O   0  0  0  0  0  0  0  0  0  0  0  0
  156.1216   46.5277  145.4599 C   0  0  2  0  0  0  0  0  0  0  0  0
  162.8468   43.6674  145.5677 C   0  0  2  0  0  0  0  0  0  0  0  0
  162.7295   42.4038  146.2253 O   0  0  0  0  0  0  0  0  0  0  0  0
  155.1806   45.8847  144.5376 C   0  0  2  0  0  0  0  0  0  0  0  0
  162.8015   44.7877  146.6115 C   0  0  0  0  0  0  0  0  0  0  0  0
  161.4978   44.9996  147.1518 O   0  0  0  0  0  0  0  0  0  0  0  0
  154.3678   44.7612  145.0602 C   0  0  0  0  0  0  0  0  0  0  0  0
  153.5446   44.1762  144.3159 O   0  0  0  0  0  0  0  0  0  0  0  0
  155.3104   46.5276  143.3634 N   0  0  0  0  0  0  0  0  0  0  0  0
  156.2458   47.4955  143.5161 C   0  0  0  0  0  0  0  0  0  0  0  0
  156.7284   47.4940  144.7709 N   0  0  1  0  0  0  0  0  0  0  0  0
  159.7519   41.2749  150.3843 N   0  0  0  0  0  0  0  0  0  0  0  0
  162.3881   46.9233  148.5803 O   0  5  0  0  0  0  0  0  0  0  0  0
  161.0305   41.4064  149.9986 C   0  0  2  0  0  0  0  0  0  0  0  0
  161.9610   41.4864  150.9615 N   0  0  0  0  0  0  0  0  0  0  0  0
  159.8634   46.1797  148.6633 O   0  0  0  0  0  0  0  0  0  0  0  0
  161.4201   41.4653  148.7036 N   0  0  0  0  0  0  0  0  0  0  0  0
  160.5119   41.3934  147.7079 C   0  0  1  0  0  0  0  0  0  0  0  0
  159.0870   41.2470  148.0669 C   0  0  1  0  0  0  0  0  0  0  0  0
  158.7457   41.2002  149.5115 C   0  0  0  0  0  0  0  0  0  0  0  0
  157.5707   41.0724  149.9178 O   0  0  0  0  0  0  0  0  0  0  0  0
  158.4073   41.2060  146.9099 N   0  0  0  0  0  0  0  0  0  0  0  0
  159.3201   41.3107  145.9044 C   0  0  0  0  0  0  0  0  0  0  0  0
  160.5770   41.4257  146.3771 N   0  0  2  0  0  0  0  0  0  0  0  0
  1  3  1  6  0  0  0
  1  4  2  0  0  0  0
  1  6  1  0  0  0  0
  1 22  1  0  0  0  0
  2 28  1  0  0  0  0
  2 35  1  1  0  0  0
  2 38  2  0  0  0  0
  2 10  1  0  0  0  0
  5  6  1  0  0  0  0
  7  5  1  6  0  0  0
  7  8  1  0  0  0  0
  7  9  1  0  0  0  0
  9 10  1  1  0  0  0
  9 11  1  0  0  0  0
 11 12  1  1  0  0  0
 11 13  1  0  0  0  0
 13  8  1  6  0  0  0
 13 33  1  0  0  0  0
 14 46  1  0  0  0  0
 14 17  1  0  0  0  0
 14 25  1  1  0  0  0
 15 16  1  0  0  0  0
 15 29  1  0  0  0  0
 16 18  1  6  0  0  0
 16 21  1  0  0  0  0
 17 19  1  6  0  0  0
 17 20  1  0  0  0  0
 20 22  1  6  0  0  0
 20 24  1  0  0  0  0
 23 21  1  6  0  0  0
 23 26  1  0  0  0  0
 23 33  1  0  0  0  0
 24 25  1  1  0  0  0
 24 27  1  0  0  0  0
 26 29  1  6  0  0  0
 26 31  1  0  0  0  0
 27 28  1  0  0  0  0
 29 30  2  0  0  0  0
 31 32  1  0  0  0  0
 33 32  1  1  0  0  0
 34 36  1  0  0  0  0
 34 42  1  0  0  0  0
 36 37  1  1  0  0  0
 36 39  1  0  0  0  0
 40 39  1  1  0  0  0
 40 41  1  0  0  0  0
 40 46  1  0  0  0  0
 41 42  1  1  0  0  0
 41 44  1  0  0  0  0
 42 43  2  0  0  0  0
 44 45  1  0  0  0  0
 46 45  1  6  0  0  0
M  CHG  2   3  -1  35  -1
M  END
>  <CHROM.1>
145.13329735,-150.45679145,159.47657910,44.69063851,145.96587202,-2.13636632
-0.30812866,2.31219231

>  <Name>
ligand

>  <RI>
0

>  <Rbt.Current_Directory>
/home/itssahil/PROJECTS/Mol_Feturizer/Test_systems_manuscript/rnas/4yb0

>  <Rbt.Executable>
rbdock ($Id: //depot/dev/client3/rdock/2013.1/src/exe/rbdock.cxx#4 $)

>  <Rbt.Library>
libRbt.so (2013.1, Build901 2013/11/27)

>  <Rbt.Parameter_File>
/export/apps/rDock/src/rDock_2013.1_src/data/scripts/dock_solv.prm

>  <Rbt.Receptor>
prm/pocket_docking_7.prm

>  <SCORE>
-19.8425

>  <SCORE.INTER>
-20.4714

>  <SCORE.INTER.CONST>
1

>  <SCORE.INTER.POLAR>
0

>  <SCORE.INTER.ROT>
2

>  <SCORE.INTER.SOLV>
22.3305

>  <SCORE.INTER.VDW>
-26.0244

>  <SCORE.INTER.norm>
-0.44503

>  <SCORE.INTRA>
0.62889

>  <SCORE.INTRA.DIHEDRAL>
-0.0739742

>  <SCORE.INTRA.DIHEDRAL.0>
2.42188

>  <SCORE.INTRA.POLAR>
0

>  <SCORE.INTRA.POLAR.0>
0

>  <SCORE.INTRA.REPUL>
0

>  <SCORE.INTRA.REPUL.0>
0

>  <SCORE.INTRA.SOLV>
0.0678941

>  <SCORE.INTRA.SOLV.lig_0>
-127.307

>  <SCORE.INTRA.VDW>
0.63193

>  <SCORE.INTRA.VDW.0>
-2.19936

>  <SCORE.INTRA.norm>
0.0136715

>  <SCORE.RESTR>
0

>  <SCORE.RESTR.CAVITY>
0

>  <SCORE.RESTR.norm>
0

>  <SCORE.SYSTEM>
0

>  <SCORE.SYSTEM.CONST>
0

>  <SCORE.SYSTEM.DIHEDRAL>
0

>  <SCORE.SYSTEM.SOLV>
0

>  <SCORE.SYSTEM.norm>
0

>  <SCORE.heavy>
46

>  <SCORE.norm>
-0.431358

>  <RMSD>
5.268

$$$$
ligand
 OpenBabel02271912143D
libRbt.so/2013.1/901 2013/11/27
 46 52  0  0  0  0  0  0  0  0999 V2000
  160.8959   44.2850  142.6143 P   0  0  1  0  0  0  0  0  0  0  0  0
  161.0765   46.2770  147.9463 P   0  0  1  0  0  0  0  0  0  0  0  0
  159.8769   43.2033  142.3639 O   0  5  0  0  0  0  0  0  0  0  0  0
  161.5958   44.8546  141.3997 O   0  0  0  0  0  0  0  0  0  0  0  0
  160.4361   46.8197  143.2170 C   0  0  0  0  0  0  0  0  0  0  0  0
  160.1985   45.4437  143.4839 O   0  0  0  0  0  0  0  0  0  0  0  0
  159.9880   47.6634  144.3990 C   0  0  1  0  0  0  0  0  0  0  0  0
  158.7462   48.2660  144.0632 O   0  0  0  0  0  0  0  0  0  0  0  0
  159.7557   46.9055  145.6999 C   0  0  1  0  0  0  0  0  0  0  0  0
  160.8432   47.1304  146.5849 O   0  0  0  0  0  0  0  0  0  0  0  0
  158.5303   47.5732  146.2826 C   0  0  1  0  0  0  0  0  0  0  0  0
  158.9286   48.6627  147.1170 O   0  0  0  0  0  0  0  0  0  0  0  0
  157.7973   48.1652  145.1140 C   0  0  2  0  0  0  0  0  0  0  0  0
  161.4622   41.1556  146.2102 C   0  0  1  0  0  0  0  0  0  0  0  0
  154.4550   44.3990  146.5941 N   0  0  0  0  0  0  0  0  0  0  0  0
  155.3849   45.0622  147.3070 C   0  0  1  0  0  0  0  0  0  0  0  0
  161.1686   41.7154  144.8340 C   0  0  2  0  0  0  0  0  0  0  0  0
  155.5411   44.7683  148.6172 N   0  0  0  0  0  0  0  0  0  0  0  0
  162.0215   41.0401  143.9053 O   0  0  0  0  0  0  0  0  0  0  0  0
  161.5194   43.1893  144.9157 C   0  0  2  0  0  0  0  0  0  0  0  0
  156.1868   46.0171  146.7837 N   0  0  0  0  0  0  0  0  0  0  0  0
  161.9711   43.6914  143.6587 O   0  0  0  0  0  0  0  0  0  0  0  0
  156.0941   46.3647  145.4823 C   0  0  2  0  0  0  0  0  0  0  0  0
  162.6202   43.2030  145.9740 C   0  0  2  0  0  0  0  0  0  0  0  0
  162.4347   42.0366  146.7789 O   0  0  0  0  0  0  0  0  0  0  0  0
  155.1031   45.6815  144.6450 C   0  0  2  0  0  0  0  0  0  0  0  0
  162.6394   44.4421  146.8746 C   0  0  0  0  0  0  0  0  0  0  0  0
  161.3506   44.7894  147.3795 O   0  0  0  0  0  0  0  0  0  0  0  0
  154.2594   44.6464  145.2875 C   0  0  0  0  0  0  0  0  0  0  0  0
  153.3933   44.0321  144.6194 O   0  0  0  0  0  0  0  0  0  0  0  0
  155.2276   46.2084  143.4139 N   0  0  0  0  0  0  0  0  0  0  0  0
  156.2055   47.1450  143.4552 C   0  0  0  0  0  0  0  0  0  0  0  0
  156.7211   47.2370  144.6934 N   0  0  1  0  0  0  0  0  0  0  0  0
  158.5237   38.8019  149.8793 N   0  0  0  0  0  0  0  0  0  0  0  0
  162.3492   46.8196  148.5690 O   0  5  0  0  0  0  0  0  0  0  0  0
  159.6937   38.4245  149.3413 C   0  0  2  0  0  0  0  0  0  0  0  0
  160.2334   37.2771  149.7791 N   0  0  0  0  0  0  0  0  0  0  0  0
  159.7874   46.2320  148.7300 O   0  0  0  0  0  0  0  0  0  0  0  0
  160.3477   39.1376  148.3948 N   0  0  0  0  0  0  0  0  0  0  0  0
  159.8382   40.2992  147.9339 C   0  0  1  0  0  0  0  0  0  0  0  0
  158.5516   40.7692  148.4857 C   0  0  1  0  0  0  0  0  0  0  0  0
  157.9059   39.9307  149.5276 C   0  0  0  0  0  0  0  0  0  0  0  0
  156.8140   40.2383  150.0524 O   0  0  0  0  0  0  0  0  0  0  0  0
  158.2779   41.9310  147.8713 N   0  0  0  0  0  0  0  0  0  0  0  0
  159.2972   42.1748  147.0014 C   0  0  0  0  0  0  0  0  0  0  0  0
  160.2318   41.2043  147.0383 N   0  0  2  0  0  0  0  0  0  0  0  0
  1  3  1  6  0  0  0
  1  4  2  0  0  0  0
  1  6  1  0  0  0  0
  1 22  1  0  0  0  0
  2 28  1  0  0  0  0
  2 35  1  1  0  0  0
  2 38  2  0  0  0  0
  2 10  1  0  0  0  0
  5  6  1  0  0  0  0
  7  5  1  6  0  0  0
  7  8  1  0  0  0  0
  7  9  1  0  0  0  0
  9 10  1  1  0  0  0
  9 11  1  0  0  0  0
 11 12  1  1  0  0  0
 11 13  1  0  0  0  0
 13  8  1  6  0  0  0
 13 33  1  0  0  0  0
 14 46  1  0  0  0  0
 14 17  1  0  0  0  0
 14 25  1  1  0  0  0
 15 16  1  0  0  0  0
 15 29  1  0  0  0  0
 16 18  1  6  0  0  0
 16 21  1  0  0  0  0
 17 19  1  6  0  0  0
 17 20  1  0  0  0  0
 20 22  1  6  0  0  0
 20 24  1  0  0  0  0
 23 21  1  6  0  0  0
 23 26  1  0  0  0  0
 23 33  1  0  0  0  0
 24 25  1  1  0  0  0
 24 27  1  0  0  0  0
 26 29  1  6  0  0  0
 26 31  1  0  0  0  0
 27 28  1  0  0  0  0
 29 30  2  0  0  0  0
 31 32  1  0  0  0  0
 33 32  1  1  0  0  0
 34 36  1  0  0  0  0
 34 42  1  0  0  0  0
 36 37  1  1  0  0  0
 36 39  1  0  0  0  0
 40 39  1  1  0  0  0
 40 41  1  0  0  0  0
 40 46  1  0  0  0  0
 41 42  1  1  0  0  0
 41 44  1  0  0  0  0
 42 43  2  0  0  0  0
 44 45  1  0  0  0  0
 46 45  1  6  0  0  0
M  CHG  2   3  -1  35  -1
M  END
>  <CHROM.1>
142.75807518,143.15119892,159.22483670,44.13892712,146.10191288,-1.79526264
-0.28668558,2.58258454

>  <Name>
ligand

>  <RI>
0

>  <Rbt.Current_Directory>
/home/itssahil/PROJECTS/Mol_Feturizer/Test_systems_manuscript/rnas/4yb0

>  <Rbt.Executable>
rbdock ($Id: //depot/dev/client3/rdock/2013.1/src/exe/rbdock.cxx#4 $)

>  <Rbt.Library>
libRbt.so (2013.1, Build901 2013/11/27)

>  <Rbt.Parameter_File>
/export/apps/rDock/src/rDock_2013.1_src/data/scripts/dock_solv.prm

>  <Rbt.Receptor>
prm/pocket_docking_8.prm

>  <SCORE>
-20.7224

>  <SCORE.INTER>
-21.3264

>  <SCORE.INTER.CONST>
1

>  <SCORE.INTER.POLAR>
0

>  <SCORE.INTER.ROT>
2

>  <SCORE.INTER.SOLV>
25.1381

>  <SCORE.INTER.VDW>
-27.5303

>  <SCORE.INTER.norm>
-0.463618

>  <SCORE.INTRA>
0.604

>  <SCORE.INTRA.DIHEDRAL>
-0.0145757

>  <SCORE.INTRA.DIHEDRAL.0>
2.42188

>  <SCORE.INTRA.POLAR>
0

>  <SCORE.INTRA.POLAR.0>
0

>  <SCORE.INTRA.REPUL>
0

>  <SCORE.INTRA.REPUL.0>
0

>  <SCORE.INTRA.SOLV>
0.021248

>  <SCORE.INTRA.SOLV.lig_0>
-127.307

>  <SCORE.INTRA.VDW>
0.600664

>  <SCORE.INTRA.VDW.0>
-2.19936

>  <SCORE.INTRA.norm>
0.0131304

>  <SCORE.RESTR>
0

>  <SCORE.RESTR.CAVITY>
0

>  <SCORE.RESTR.norm>
0

>  <SCORE.SYSTEM>
0

>  <SCORE.SYSTEM.CONST>
0

>  <SCORE.SYSTEM.DIHEDRAL>
0

>  <SCORE.SYSTEM.SOLV>
0

>  <SCORE.SYSTEM.norm>
0

>  <SCORE.heavy>
46

>  <SCORE.norm>
-0.450487

>  <RMSD>
5.271

$$$$
ligand
 OpenBabel02271912143D
libRbt.so/2013.1/901 2013/11/27
 46 52  0  0  0  0  0  0  0  0999 V2000
  160.4337   42.7753  148.3773 P   0  0  1  0  0  0  0  0  0  0  0  0
  158.5154   48.1262  148.7225 P   0  0  1  0  0  0  0  0  0  0  0  0
  160.1606   42.0751  147.0711 O   0  5  0  0  0  0  0  0  0  0  0  0
  161.3498   42.0663  149.3507 O   0  0  0  0  0  0  0  0  0  0  0  0
  162.0253   44.8481  148.7893 C   0  0  0  0  0  0  0  0  0  0  0  0
  160.9606   44.2595  148.0538 O   0  0  0  0  0  0  0  0  0  0  0  0
  162.0516   46.3494  148.5547 C   0  0  1  0  0  0  0  0  0  0  0  0
  163.1069   46.6341  147.6474 O   0  0  0  0  0  0  0  0  0  0  0  0
  160.7902   46.9431  147.9406 C   0  0  1  0  0  0  0  0  0  0  0  0
  160.0393   47.6115  148.9436 O   0  0  0  0  0  0  0  0  0  0  0  0
  161.3218   47.9835  146.9805 C   0  0  1  0  0  0  0  0  0  0  0  0
  161.4511   49.2369  147.6545 O   0  0  0  0  0  0  0  0  0  0  0  0
  162.7097   47.5351  146.6252 C   0  0  2  0  0  0  0  0  0  0  0  0
  155.8014   43.6127  147.4365 C   0  0  1  0  0  0  0  0  0  0  0  0
  160.8912   47.4566  141.7025 N   0  0  0  0  0  0  0  0  0  0  0  0
  160.6908   48.3534  142.6866 C   0  0  1  0  0  0  0  0  0  0  0  0
  157.1455   42.9176  147.4988 C   0  0  2  0  0  0  0  0  0  0  0  0
  159.9110   49.4308  142.4447 N   0  0  0  0  0  0  0  0  0  0  0  0
  156.9469   41.6568  148.1443 O   0  0  0  0  0  0  0  0  0  0  0  0
  158.0275   43.8215  148.3397 C   0  0  2  0  0  0  0  0  0  0  0  0
  161.2278   48.2389  143.9224 N   0  0  0  0  0  0  0  0  0  0  0  0
  159.0055   43.0751  149.0626 O   0  0  0  0  0  0  0  0  0  0  0  0
  162.0149   47.1896  144.2426 C   0  0  2  0  0  0  0  0  0  0  0  0
  157.0150   44.4959  149.2628 C   0  0  2  0  0  0  0  0  0  0  0  0
  155.7514   44.4474  148.5966 O   0  0  0  0  0  0  0  0  0  0  0  0
  162.2747   46.1724  143.2191 C   0  0  2  0  0  0  0  0  0  0  0  0
  157.3383   45.9473  149.6308 C   0  0  0  0  0  0  0  0  0  0  0  0
  157.7107   46.7424  148.5058 O   0  0  0  0  0  0  0  0  0  0  0  0
  161.6528   46.3648  141.8878 C   0  0  0  0  0  0  0  0  0  0  0  0
  161.8436   45.5272  140.9735 O   0  0  0  0  0  0  0  0  0  0  0  0
  163.0688   45.2543  143.7982 N   0  0  0  0  0  0  0  0  0  0  0  0
  163.3005   45.6450  145.0744 C   0  0  0  0  0  0  0  0  0  0  0  0
  162.6699   46.8029  145.3371 N   0  0  1  0  0  0  0  0  0  0  0  0
  152.9098   45.3606  143.4090 N   0  0  0  0  0  0  0  0  0  0  0  0
  158.0896   48.7543  150.0363 O   0  5  0  0  0  0  0  0  0  0  0  0
  152.5821   44.5206  144.4029 C   0  0  2  0  0  0  0  0  0  0  0  0
  151.3343   44.0285  144.4096 N   0  0  0  0  0  0  0  0  0  0  0  0
  158.4369   48.9021  147.4302 O   0  0  0  0  0  0  0  0  0  0  0  0
  153.4368   44.1546  145.3867 N   0  0  0  0  0  0  0  0  0  0  0  0
  154.6982   44.6334  145.4158 C   0  0  1  0  0  0  0  0  0  0  0  0
  155.1211   45.5622  144.3485 C   0  0  1  0  0  0  0  0  0  0  0  0
  154.1177   45.9187  143.3133 C   0  0  0  0  0  0  0  0  0  0  0  0
  154.3788   46.6912  142.3661 O   0  0  0  0  0  0  0  0  0  0  0  0
  156.3968   45.8865  144.6123 N   0  0  0  0  0  0  0  0  0  0  0  0
  156.7551   45.2179  145.7437 C   0  0  0  0  0  0  0  0  0  0  0  0
  155.7427   44.4714  146.2276 N   0  0  2  0  0  0  0  0  0  0  0  0
  1  3  1  6  0  0  0
  1  4  2  0  0  0  0
  1  6  1  0  0  0  0
  1 22  1  0  0  0  0
  2 28  1  0  0  0  0
  2 35  1  1  0  0  0
  2 38  2  0  0  0  0
  2 10  1  0  0  0  0
  5  6  1  0  0  0  0
  7  5  1  6  0  0  0
  7  8  1  0  0  0  0
  7  9  1  0  0  0  0
  9 10  1  1  0  0  0
  9 11  1  0  0  0  0
 11 12  1  1  0  0  0
 11 13  1  0  0  0  0
 13  8  1  1  0  0  0
 13 33  1  0  0  0  0
 14 46  1  0  0  0  0
 14 17  1  0  0  0  0
 14 25  1  1  0  0  0
 15 16  1  0  0  0  0
 15 29  1  0  0  0  0
 16 18  1  1  0  0  0
 16 21  1  0  0  0  0
 17 19  1  1  0  0  0
 17 20  1  0  0  0  0
 20 22  1  1  0  0  0
 20 24  1  0  0  0  0
 23 21  1  1  0  0  0
 23 26  1  0  0  0  0
 23 33  1  0  0  0  0
 24 25  1  6  0  0  0
 24 27  1  0  0  0  0
 26 29  1  1  0  0  0
 26 31  1  0  0  0  0
 27 28  1  0  0  0  0
 29 30  2  0  0  0  0
 31 32  1  0  0  0  0
 33 32  1  6  0  0  0
 34 36  1  0  0  0  0
 34 42  1  0  0  0  0
 36 37  1  1  0  0  0
 36 39  1  0  0  0  0
 40 39  1  1  0  0  0
 40 41  1  0  0  0  0
 40 46  1  0  0  0  0
 41 42  1  1  0  0  0
 41 44  1  0  0  0  0
 42 43  2  0  0  0  0
 44 45  1  0  0  0  0
 46 45  1  6  0  0  0
M  CHG  2   3  -1  35  -1
M  END
>  <CHROM.1>
160.76313729,139.73966414,158.82616510,45.70747542,146.37910609,-0.04876201
0.25953843,1.97908089

>  <Name>
ligand

>  <RI>
0

>  <Rbt.Current_Directory>
/home/itssahil/PROJECTS/Mol_Feturizer/Test_systems_manuscript/rnas/4yb0

>  <Rbt.Executable>
rbdock ($Id: //depot/dev/client3/rdock/2013.1/src/exe/rbdock.cxx#4 $)

>  <Rbt.Library>
libRbt.so (2013.1, Build901 2013/11/27)

>  <Rbt.Parameter_File>
/export/apps/rDock/src/rDock_2013.1_src/data/scripts/dock_solv.prm

>  <Rbt.Receptor>
prm/pocket_docking_6.prm

>  <SCORE>
-22.235

>  <SCORE.INTER>
-22.5228

>  <SCORE.INTER.CONST>
1

>  <SCORE.INTER.POLAR>
0

>  <SCORE.INTER.ROT>
2

>  <SCORE.INTER.SOLV>
13.1345

>  <SCORE.INTER.VDW>
-24.3267

>  <SCORE.INTER.norm>
-0.489627

>  <SCORE.INTRA>
0.286342

>  <SCORE.INTRA.DIHEDRAL>
-0.0152618

>  <SCORE.INTRA.DIHEDRAL.0>
2.42188

>  <SCORE.INTRA.POLAR>
0

>  <SCORE.INTRA.POLAR.0>
0

>  <SCORE.INTRA.REPUL>
0

>  <SCORE.INTRA.REPUL.0>
0

>  <SCORE.INTRA.SOLV>
0.00225558

>  <SCORE.INTRA.SOLV.lig_0>
-127.307

>  <SCORE.INTRA.VDW>
0.292845

>  <SCORE.INTRA.VDW.0>
-2.19936

>  <SCORE.INTRA.norm>
0.00622483

>  <SCORE.RESTR>
0.00144118

>  <SCORE.RESTR.CAVITY>
0.00144118

>  <SCORE.RESTR.norm>
3.13301e-05

>  <SCORE.SYSTEM>
0

>  <SCORE.SYSTEM.CONST>
0

>  <SCORE.SYSTEM.DIHEDRAL>
0

>  <SCORE.SYSTEM.SOLV>
0

>  <SCORE.SYSTEM.norm>
0

>  <SCORE.heavy>
46

>  <SCORE.norm>
-0.483371

>  <RMSD>
5.282

$$$$
ligand
 OpenBabel02271912143D
libRbt.so/2013.1/901 2013/11/27
 46 52  0  0  0  0  0  0  0  0999 V2000
  160.9107   44.6297  142.5037 P   0  0  1  0  0  0  0  0  0  0  0  0
  160.9829   46.1961  147.9784 P   0  0  1  0  0  0  0  0  0  0  0  0
  159.9133   43.5557  142.1531 O   0  5  0  0  0  0  0  0  0  0  0  0
  161.6183   45.3042  141.3488 O   0  0  0  0  0  0  0  0  0  0  0  0
  160.4008   47.1014  143.2974 C   0  0  0  0  0  0  0  0  0  0  0  0
  160.1821   45.7051  143.4512 O   0  0  0  0  0  0  0  0  0  0  0  0
  159.9221   47.8420  144.5352 C   0  0  1  0  0  0  0  0  0  0  0  0
  158.6755   48.4502  144.2289 O   0  0  0  0  0  0  0  0  0  0  0  0
  159.6839   46.9801  145.7685 C   0  0  1  0  0  0  0  0  0  0  0  0
  160.7550   47.1509  146.6851 O   0  0  0  0  0  0  0  0  0  0  0  0
  158.4395   47.5807  146.3831 C   0  0  1  0  0  0  0  0  0  0  0  0
  158.8080   48.6068  147.3069 O   0  0  0  0  0  0  0  0  0  0  0  0
  157.7136   48.2521  145.2536 C   0  0  2  0  0  0  0  0  0  0  0  0
  161.4775   41.2346  145.8499 C   0  0  1  0  0  0  0  0  0  0  0  0
  154.3360   44.4042  146.4075 N   0  0  0  0  0  0  0  0  0  0  0  0
  155.2346   45.0324  147.1890 C   0  0  1  0  0  0  0  0  0  0  0  0
  161.1943   41.8970  144.5177 C   0  0  2  0  0  0  0  0  0  0  0  0
  155.3421   44.6713  148.4872 N   0  0  0  0  0  0  0  0  0  0  0  0
  162.0712   41.3105  143.5519 O   0  0  0  0  0  0  0  0  0  0  0  0
  161.5195   43.3650  144.7208 C   0  0  2  0  0  0  0  0  0  0  0  0
  156.0512   46.0155  146.7469 N   0  0  0  0  0  0  0  0  0  0  0  0
  161.9806   43.9718  143.5145 O   0  0  0  0  0  0  0  0  0  0  0  0
  156.0065   46.4298  145.4626 C   0  0  2  0  0  0  0  0  0  0  0  0
  162.6048   43.3117  145.7938 C   0  0  2  0  0  0  0  0  0  0  0  0
  162.4271   42.0826  146.5012 O   0  0  0  0  0  0  0  0  0  0  0  0
  155.0517   45.7880  144.5537 C   0  0  2  0  0  0  0  0  0  0  0  0
  162.5908   44.4758  146.7895 C   0  0  0  0  0  0  0  0  0  0  0  0
  161.2895   44.7624  147.3003 O   0  0  0  0  0  0  0  0  0  0  0  0
  154.1892   44.7185  145.1090 C   0  0  0  0  0  0  0  0  0  0  0  0
  153.3523   44.1370  144.3772 O   0  0  0  0  0  0  0  0  0  0  0  0
  155.2204   46.3784  143.3572 N   0  0  0  0  0  0  0  0  0  0  0  0
  156.1914   47.3145  143.4844 C   0  0  0  0  0  0  0  0  0  0  0  0
  156.6589   47.3437  144.7446 N   0  0  1  0  0  0  0  0  0  0  0  0
  159.3461   40.7382  150.6299 N   0  0  0  0  0  0  0  0  0  0  0  0
  162.2376   46.7071  148.6615 O   0  5  0  0  0  0  0  0  0  0  0  0
  160.6354   40.7316  150.2576 C   0  0  2  0  0  0  0  0  0  0  0  0
  161.5558   40.5789  151.2214 N   0  0  0  0  0  0  0  0  0  0  0  0
  159.6837   46.0695  148.7361 O   0  0  0  0  0  0  0  0  0  0  0  0
  161.0457   40.8734  148.9755 N   0  0  0  0  0  0  0  0  0  0  0  0
  160.1490   41.0344  147.9799 C   0  0  1  0  0  0  0  0  0  0  0  0
  158.7131   41.0494  148.3243 C   0  0  1  0  0  0  0  0  0  0  0  0
  158.3504   40.8968  149.7564 C   0  0  0  0  0  0  0  0  0  0  0  0
  157.1639   40.8906  150.1492 O   0  0  0  0  0  0  0  0  0  0  0  0
  158.0489   41.2264  147.1711 N   0  0  0  0  0  0  0  0  0  0  0  0
  158.9801   41.3101  146.1806 C   0  0  0  0  0  0  0  0  0  0  0  0
  160.2348   41.1988  146.6601 N   0  0  2  0  0  0  0  0  0  0  0  0
  1  3  1  6  0  0  0
  1  4  2  0  0  0  0
  1  6  1  0  0  0  0
  1 22  1  0  0  0  0
  2 28  1  0  0  0  0
  2 35  1  1  0  0  0
  2 38  2  0  0  0  0
  2 10  1  0  0  0  0
  5  6  1  0  0  0  0
  7  5  1  6  0  0  0
  7  8  1  0  0  0  0
  7  9  1  0  0  0  0
  9 10  1  1  0  0  0
  9 11  1  0  0  0  0
 11 12  1  1  0  0  0
 11 13  1  0  0  0  0
 13  8  1  6  0  0  0
 13 33  1  0  0  0  0
 14 46  1  0  0  0  0
 14 17  1  0  0  0  0
 14 25  1  1  0  0  0
 15 16  1  0  0  0  0
 15 29  1  0  0  0  0
 16 18  1  6  0  0  0
 16 21  1  0  0  0  0
 17 19  1  6  0  0  0
 17 20  1  0  0  0  0
 20 22  1  6  0  0  0
 20 24  1  0  0  0  0
 23 21  1  6  0  0  0
 23 26  1  0  0  0  0
 23 33  1  0  0  0  0
 24 25  1  1  0  0  0
 24 27  1  0  0  0  0
 26 29  1  6  0  0  0
 26 31  1  0  0  0  0
 27 28  1  0  0  0  0
 29 30  2  0  0  0  0
 31 32  1  0  0  0  0
 33 32  1  1  0  0  0
 34 36  1  0  0  0  0
 34 42  1  0  0  0  0
 36 37  1  1  0  0  0
 36 39  1  0  0  0  0
 40 39  1  1  0  0  0
 40 41  1  0  0  0  0
 40 46  1  0  0  0  0
 41 42  1  1  0  0  0
 41 44  1  0  0  0  0
 42 43  2  0  0  0  0
 44 45  1  0  0  0  0
 46 45  1  6  0  0  0
M  CHG  2   3  -1  35  -1
M  END
>  <CHROM.1>
144.93073835,-160.70900276,159.27430760,44.42857438,146.09373938,-2.03946661
-0.32027528,2.33264232

>  <Name>
ligand

>  <RI>
0

>  <Rbt.Current_Directory>
/home/itssahil/PROJECTS/Mol_Feturizer/Test_systems_manuscript/rnas/4yb0

>  <Rbt.Executable>
rbdock ($Id: //depot/dev/client3/rdock/2013.1/src/exe/rbdock.cxx#4 $)

>  <Rbt.Library>
libRbt.so (2013.1, Build901 2013/11/27)

>  <Rbt.Parameter_File>
/export/apps/rDock/src/rDock_2013.1_src/data/scripts/dock_solv.prm

>  <Rbt.Receptor>
prm/pocket_docking_8.prm

>  <SCORE>
-19.7058

>  <SCORE.INTER>
-20.5827

>  <SCORE.INTER.CONST>
1

>  <SCORE.INTER.POLAR>
0

>  <SCORE.INTER.ROT>
2

>  <SCORE.INTER.SOLV>
24.2801

>  <SCORE.INTER.VDW>
-26.7485

>  <SCORE.INTER.norm>
-0.44745

>  <SCORE.INTRA>
0.876934

>  <SCORE.INTRA.DIHEDRAL>
-0.0697073

>  <SCORE.INTRA.DIHEDRAL.0>
2.42188

>  <SCORE.INTRA.POLAR>
0

>  <SCORE.INTRA.POLAR.0>
0

>  <SCORE.INTRA.REPUL>
0

>  <SCORE.INTRA.REPUL.0>
0

>  <SCORE.INTRA.SOLV>
0.0655555

>  <SCORE.INTRA.SOLV.lig_0>
-127.307

>  <SCORE.INTRA.VDW>
0.87901

>  <SCORE.INTRA.VDW.0>
-2.19936

>  <SCORE.INTRA.norm>
0.0190638

>  <SCORE.RESTR>
0

>  <SCORE.RESTR.CAVITY>
0

>  <SCORE.RESTR.norm>
0

>  <SCORE.SYSTEM>
0

>  <SCORE.SYSTEM.CONST>
0

>  <SCORE.SYSTEM.DIHEDRAL>
0

>  <SCORE.SYSTEM.SOLV>
0

>  <SCORE.SYSTEM.norm>
0

>  <SCORE.heavy>
46

>  <SCORE.norm>
-0.428386

>  <RMSD>
5.285

$$$$
ligand
 OpenBabel02271912143D
libRbt.so/2013.1/901 2013/11/27
 46 52  0  0  0  0  0  0  0  0999 V2000
  160.9105   44.3138  142.6184 P   0  0  1  0  0  0  0  0  0  0  0  0
  161.0499   46.3207  147.9460 P   0  0  1  0  0  0  0  0  0  0  0  0
  159.8970   43.2278  142.3644 O   0  5  0  0  0  0  0  0  0  0  0  0
  161.6162   44.8825  141.4067 O   0  0  0  0  0  0  0  0  0  0  0  0
  160.4380   46.8484  143.2113 C   0  0  0  0  0  0  0  0  0  0  0  0
  160.2035   45.4723  143.4803 O   0  0  0  0  0  0  0  0  0  0  0  0
  159.9794   47.6938  144.3881 C   0  0  1  0  0  0  0  0  0  0  0  0
  158.7376   48.2911  144.0427 O   0  0  0  0  0  0  0  0  0  0  0  0
  159.7413   46.9385  145.6895 C   0  0  1  0  0  0  0  0  0  0  0  0
  160.8224   47.1696  146.5808 O   0  0  0  0  0  0  0  0  0  0  0  0
  158.5099   47.6034  146.2626 C   0  0  1  0  0  0  0  0  0  0  0  0
  158.8990   48.6966  147.0966 O   0  0  0  0  0  0  0  0  0  0  0  0
  157.7824   48.1897  145.0877 C   0  0  2  0  0  0  0  0  0  0  0  0
  161.4648   41.1961  146.2263 C   0  0  1  0  0  0  0  0  0  0  0  0
  154.4749   44.3847  146.5465 N   0  0  0  0  0  0  0  0  0  0  0  0
  155.4019   45.0492  147.2621 C   0  0  1  0  0  0  0  0  0  0  0  0
  161.1781   41.7511  144.8467 C   0  0  2  0  0  0  0  0  0  0  0  0
  155.5647   44.7455  148.5692 N   0  0  0  0  0  0  0  0  0  0  0  0
  162.0392   41.0764  143.9253 O   0  0  0  0  0  0  0  0  0  0  0  0
  161.5231   43.2265  144.9266 C   0  0  2  0  0  0  0  0  0  0  0  0
  156.1945   46.0148  146.7443 N   0  0  0  0  0  0  0  0  0  0  0  0
  161.9811   43.7268  143.6712 O   0  0  0  0  0  0  0  0  0  0  0  0
  156.0946   46.3726  145.4462 C   0  0  2  0  0  0  0  0  0  0  0  0
  162.6170   43.2469  145.9920 C   0  0  2  0  0  0  0  0  0  0  0  0
  162.4305   42.0820  146.7988 O   0  0  0  0  0  0  0  0  0  0  0  0
  155.1064   45.6887  144.6064 C   0  0  2  0  0  0  0  0  0  0  0  0
  162.6261   44.4884  146.8893 C   0  0  0  0  0  0  0  0  0  0  0  0
  161.3329   44.8326  147.3850 O   0  0  0  0  0  0  0  0  0  0  0  0
  154.2730   44.6416  145.2428 C   0  0  0  0  0  0  0  0  0  0  0  0
  153.4096   44.0261  144.5723 O   0  0  0  0  0  0  0  0  0  0  0  0
  155.2225   46.2271  143.3794 N   0  0  0  0  0  0  0  0  0  0  0  0
  156.1932   47.1710  143.4255 C   0  0  0  0  0  0  0  0  0  0  0  0
  156.7122   47.2566  144.6627 N   0  0  1  0  0  0  0  0  0  0  0  0
  158.5653   38.8983  149.9613 N   0  0  0  0  0  0  0  0  0  0  0  0
  162.3167   46.8694  148.5754 O   0  5  0  0  0  0  0  0  0  0  0  0
  159.7474   38.5319  149.4424 C   0  0  2  0  0  0  0  0  0  0  0  0
  160.3129   37.4144  149.9225 N   0  0  0  0  0  0  0  0  0  0  0  0
  159.7560   46.2732  148.7216 O   0  0  0  0  0  0  0  0  0  0  0  0
  160.3887   39.2280  148.4746 N   0  0  0  0  0  0  0  0  0  0  0  0
  159.8529   40.3597  147.9711 C   0  0  1  0  0  0  0  0  0  0  0  0
  158.5520   40.8161  148.5001 C   0  0  1  0  0  0  0  0  0  0  0  0
  157.9215   39.9984  149.5676 C   0  0  0  0  0  0  0  0  0  0  0  0
  156.8194   40.2965  150.0761 O   0  0  0  0  0  0  0  0  0  0  0  0
  158.2529   41.9486  147.8443 N   0  0  0  0  0  0  0  0  0  0  0  0
  159.2706   42.1875  146.9712 C   0  0  0  0  0  0  0  0  0  0  0  0
  160.2289   41.2427  147.0463 N   0  0  2  0  0  0  0  0  0  0  0  0
  1  3  1  6  0  0  0
  1  4  2  0  0  0  0
  1  6  1  0  0  0  0
  1 22  1  0  0  0  0
  2 28  1  0  0  0  0
  2 35  1  1  0  0  0
  2 38  2  0  0  0  0
  2 10  1  0  0  0  0
  5  6  1  0  0  0  0
  7  5  1  6  0  0  0
  7  8  1  0  0  0  0
  7  9  1  0  0  0  0
  9 10  1  1  0  0  0
  9 11  1  0  0  0  0
 11 12  1  1  0  0  0
 11 13  1  0  0  0  0
 13  8  1  6  0  0  0
 13 33  1  0  0  0  0
 14 46  1  0  0  0  0
 14 17  1  0  0  0  0
 14 25  1  1  0  0  0
 15 16  1  0  0  0  0
 15 29  1  0  0  0  0
 16 18  1  6  0  0  0
 16 21  1  0  0  0  0
 17 19  1  6  0  0  0
 17 20  1  0  0  0  0
 20 22  1  6  0  0  0
 20 24  1  0  0  0  0
 23 21  1  6  0  0  0
 23 26  1  0  0  0  0
 23 33  1  0  0  0  0
 24 25  1  1  0  0  0
 24 27  1  0  0  0  0
 26 29  1  6  0  0  0
 26 31  1  0  0  0  0
 27 28  1  0  0  0  0
 29 30  2  0  0  0  0
 31 32  1  0  0  0  0
 33 32  1  1  0  0  0
 34 36  1  0  0  0  0
 34 42  1  0  0  0  0
 36 37  1  1  0  0  0
 36 39  1  0  0  0  0
 40 39  1  1  0  0  0
 40 41  1  0  0  0  0
 40 46  1  0  0  0  0
 41 42  1  1  0  0  0
 41 44  1  0  0  0  0
 42 43  2  0  0  0  0
 44 45  1  0  0  0  0
 46 45  1  6  0  0  0
M  CHG  2   3  -1  35  -1
M  END
>  <CHROM.1>
141.87359515,145.36772727,159.22694997,44.17392325,146.10309181,-1.79903722
-0.27949890,2.56714660

>  <Name>
ligand

>  <RI>
0

>  <Rbt.Current_Directory>
/home/itssahil/PROJECTS/Mol_Feturizer/Test_systems_manuscript/rnas/4yb0

>  <Rbt.Executable>
rbdock ($Id: //depot/dev/client3/rdock/2013.1/src/exe/rbdock.cxx#4 $)

>  <Rbt.Library>
libRbt.so (2013.1, Build901 2013/11/27)

>  <Rbt.Parameter_File>
/export/apps/rDock/src/rDock_2013.1_src/data/scripts/dock_solv.prm

>  <Rbt.Receptor>
prm/pocket_docking_6.prm

>  <SCORE>
-20.6184

>  <SCORE.INTER>
-21.2959

>  <SCORE.INTER.CONST>
1

>  <SCORE.INTER.POLAR>
0

>  <SCORE.INTER.ROT>
2

>  <SCORE.INTER.SOLV>
24.4522

>  <SCORE.INTER.VDW>
-27.2814

>  <SCORE.INTER.norm>
-0.462955

>  <SCORE.INTRA>
0.67757

>  <SCORE.INTRA.DIHEDRAL>
-0.0131954

>  <SCORE.INTRA.DIHEDRAL.0>
2.42188

>  <SCORE.INTRA.POLAR>
0

>  <SCORE.INTRA.POLAR.0>
0

>  <SCORE.INTRA.REPUL>
0

>  <SCORE.INTRA.REPUL.0>
0

>  <SCORE.INTRA.SOLV>
0.123122

>  <SCORE.INTRA.SOLV.lig_0>
-127.307

>  <SCORE.INTRA.VDW>
0.622607

>  <SCORE.INTRA.VDW.0>
-2.19936

>  <SCORE.INTRA.norm>
0.0147298

>  <SCORE.RESTR>
0

>  <SCORE.RESTR.CAVITY>
0

>  <SCORE.RESTR.norm>
0

>  <SCORE.SYSTEM>
0

>  <SCORE.SYSTEM.CONST>
0

>  <SCORE.SYSTEM.DIHEDRAL>
0

>  <SCORE.SYSTEM.SOLV>
0

>  <SCORE.SYSTEM.norm>
0

>  <SCORE.heavy>
46

>  <SCORE.norm>
-0.448225

>  <RMSD>
5.289

$$$$
ligand
 OpenBabel02271912143D
libRbt.so/2013.1/901 2013/11/27
 46 52  0  0  0  0  0  0  0  0999 V2000
  160.3947   42.8990  148.3690 P   0  0  1  0  0  0  0  0  0  0  0  0
  158.3595   48.2127  148.6008 P   0  0  1  0  0  0  0  0  0  0  0  0
  160.1418   42.1672  147.0761 O   0  5  0  0  0  0  0  0  0  0  0  0
  161.3223   42.2297  149.3595 O   0  0  0  0  0  0  0  0  0  0  0  0
  161.9394   45.0137  148.7449 C   0  0  0  0  0  0  0  0  0  0  0  0
  160.8905   44.3876  148.0177 O   0  0  0  0  0  0  0  0  0  0  0  0
  161.9340   46.5103  148.4805 C   0  0  1  0  0  0  0  0  0  0  0  0
  162.9864   46.7998  147.5713 O   0  0  0  0  0  0  0  0  0  0  0  0
  160.6624   47.0641  147.8504 C   0  0  1  0  0  0  0  0  0  0  0  0
  159.8933   47.7358  148.8373 O   0  0  0  0  0  0  0  0  0  0  0  0
  161.1750   48.0965  146.8714 C   0  0  1  0  0  0  0  0  0  0  0  0
  161.2745   49.3655  147.5207 O   0  0  0  0  0  0  0  0  0  0  0  0
  162.5736   47.6714  146.5299 C   0  0  2  0  0  0  0  0  0  0  0  0
  155.7490   43.6166  147.3960 C   0  0  1  0  0  0  0  0  0  0  0  0
  161.0845   47.6262  141.4973 N   0  0  0  0  0  0  0  0  0  0  0  0
  160.8994   48.5617  142.4479 C   0  0  1  0  0  0  0  0  0  0  0  0
  157.1075   42.9523  147.4767 C   0  0  2  0  0  0  0  0  0  0  0  0
  160.2353   49.6961  142.1327 N   0  0  0  0  0  0  0  0  0  0  0  0
  156.9339   41.7005  148.1466 O   0  0  0  0  0  0  0  0  0  0  0  0
  157.9665   43.8917  148.3024 C   0  0  2  0  0  0  0  0  0  0  0  0
  161.3414   48.4323  143.7194 N   0  0  0  0  0  0  0  0  0  0  0  0
  158.9577   43.1813  149.0433 O   0  0  0  0  0  0  0  0  0  0  0  0
  162.0100   47.3272  144.1127 C   0  0  2  0  0  0  0  0  0  0  0  0
  156.9361   44.5621  149.2084 C   0  0  2  0  0  0  0  0  0  0  0  0
  155.6765   44.4729  148.5390 O   0  0  0  0  0  0  0  0  0  0  0  0
  162.2463   46.2658  143.1292 C   0  0  2  0  0  0  0  0  0  0  0  0
  157.2265   46.0273  149.5484 C   0  0  0  0  0  0  0  0  0  0  0  0
  157.5859   46.8077  148.4091 O   0  0  0  0  0  0  0  0  0  0  0  0
  161.7331   46.4776  141.7552 C   0  0  0  0  0  0  0  0  0  0  0  0
  161.9092   45.6037  140.8725 O   0  0  0  0  0  0  0  0  0  0  0  0
  162.9163   45.2972  143.7787 N   0  0  0  0  0  0  0  0  0  0  0  0
  163.0967   45.6986  145.0599 C   0  0  0  0  0  0  0  0  0  0  0  0
  162.5547   46.9131  145.2566 N   0  0  1  0  0  0  0  0  0  0  0  0
  152.7830   45.3540  143.4183 N   0  0  0  0  0  0  0  0  0  0  0  0
  157.9152   48.8574  149.9003 O   0  5  0  0  0  0  0  0  0  0  0  0
  152.4636   44.5456  144.4406 C   0  0  2  0  0  0  0  0  0  0  0  0
  151.2038   44.0884  144.4962 N   0  0  0  0  0  0  0  0  0  0  0  0
  158.2692   48.9609  147.2930 O   0  0  0  0  0  0  0  0  0  0  0  0
  153.3379   44.1780  145.4064 N   0  0  0  0  0  0  0  0  0  0  0  0
  154.6120   44.6223  145.3865 C   0  0  1  0  0  0  0  0  0  0  0  0
  155.0268   45.5152  144.2859 C   0  0  1  0  0  0  0  0  0  0  0  0
  154.0020   45.8763  143.2734 C   0  0  0  0  0  0  0  0  0  0  0  0
  154.2547   46.6201  142.3013 O   0  0  0  0  0  0  0  0  0  0  0  0
  156.3183   45.8099  144.5036 N   0  0  0  0  0  0  0  0  0  0  0  0
  156.6930   45.1570  145.6387 C   0  0  0  0  0  0  0  0  0  0  0  0
  155.6762   44.4495  146.1700 N   0  0  2  0  0  0  0  0  0  0  0  0
  1  3  1  6  0  0  0
  1  4  2  0  0  0  0
  1  6  1  0  0  0  0
  1 22  1  0  0  0  0
  2 28  1  0  0  0  0
  2 35  1  1  0  0  0
  2 38  2  0  0  0  0
  2 10  1  0  0  0  0
  5  6  1  0  0  0  0
  7  5  1  6  0  0  0
  7  8  1  0  0  0  0
  7  9  1  0  0  0  0
  9 10  1  1  0  0  0
  9 11  1  0  0  0  0
 11 12  1  1  0  0  0
 11 13  1  0  0  0  0
 13  8  1  1  0  0  0
 13 33  1  0  0  0  0
 14 46  1  0  0  0  0
 14 17  1  0  0  0  0
 14 25  1  1  0  0  0
 15 16  1  0  0  0  0
 15 29  1  0  0  0  0
 16 18  1  1  0  0  0
 16 21  1  0  0  0  0
 17 19  1  1  0  0  0
 17 20  1  0  0  0  0
 20 22  1  1  0  0  0
 20 24  1  0  0  0  0
 23 21  1  1  0  0  0
 23 26  1  0  0  0  0
 23 33  1  0  0  0  0
 24 25  1  6  0  0  0
 24 27  1  0  0  0  0
 26 29  1  1  0  0  0
 26 31  1  0  0  0  0
 27 28  1  0  0  0  0
 29 30  2  0  0  0  0
 31 32  1  0  0  0  0
 33 32  1  6  0  0  0
 34 36  1  0  0  0  0
 34 42  1  0  0  0  0
 36 37  1  1  0  0  0
 36 39  1  0  0  0  0
 40 39  1  1  0  0  0
 40 41  1  0  0  0  0
 40 46  1  0  0  0  0
 41 42  1  1  0  0  0
 41 44  1  0  0  0  0
 42 43  2  0  0  0  0
 44 45  1  0  0  0  0
 46 45  1  6  0  0  0
M  CHG  2   3  -1  35  -1
M  END
>  <CHROM.1>
168.01015949,143.16138609,158.75945645,45.78823990,146.30588598,-0.12433079
0.26445626,1.97698086

>  <Name>
ligand

>  <RI>
0

>  <Rbt.Current_Directory>
/home/itssahil/PROJECTS/Mol_Feturizer/Test_systems_manuscript/rnas/4yb0

>  <Rbt.Executable>
rbdock ($Id: //depot/dev/client3/rdock/2013.1/src/exe/rbdock.cxx#4 $)

>  <Rbt.Library>
libRbt.so (2013.1, Build901 2013/11/27)

>  <Rbt.Parameter_File>
/export/apps/rDock/src/rDock_2013.1_src/data/scripts/dock_solv.prm

>  <Rbt.Receptor>
prm/pocket_docking_6.prm

>  <SCORE>
-22.0628

>  <SCORE.INTER>
-22.3634

>  <SCORE.INTER.CONST>
1

>  <SCORE.INTER.POLAR>
0

>  <SCORE.INTER.ROT>
2

>  <SCORE.INTER.SOLV>
13.3914

>  <SCORE.INTER.VDW>
-24.3061

>  <SCORE.INTER.norm>
-0.486161

>  <SCORE.INTRA>
0.299462

>  <SCORE.INTRA.DIHEDRAL>
-0.00727555

>  <SCORE.INTRA.DIHEDRAL.0>
2.42188

>  <SCORE.INTRA.POLAR>
0

>  <SCORE.INTRA.POLAR.0>
0

>  <SCORE.INTRA.REPUL>
0

>  <SCORE.INTRA.REPUL.0>
0

>  <SCORE.INTRA.SOLV>
-0.00100077

>  <SCORE.INTRA.SOLV.lig_0>
-127.307

>  <SCORE.INTRA.VDW>
0.303601

>  <SCORE.INTRA.VDW.0>
-2.19936

>  <SCORE.INTRA.norm>
0.00651005

>  <SCORE.RESTR>
0.0011956

>  <SCORE.RESTR.CAVITY>
0.0011956

>  <SCORE.RESTR.norm>
2.59913e-05

>  <SCORE.SYSTEM>
0

>  <SCORE.SYSTEM.CONST>
0

>  <SCORE.SYSTEM.DIHEDRAL>
0

>  <SCORE.SYSTEM.SOLV>
0

>  <SCORE.SYSTEM.norm>
0

>  <SCORE.heavy>
46

>  <SCORE.norm>
-0.479625

>  <RMSD>
5.298

$$$$
ligand
 OpenBabel02271912143D
libRbt.so/2013.1/901 2013/11/27
 46 52  0  0  0  0  0  0  0  0999 V2000
  159.4088   47.4078  149.5139 P   0  0  1  0  0  0  0  0  0  0  0  0
  160.2152   41.9777  147.9994 P   0  0  1  0  0  0  0  0  0  0  0  0
  159.5360   48.4142  148.3994 O   0  5  0  0  0  0  0  0  0  0  0  0
  158.8862   47.9214  150.8378 O   0  0  0  0  0  0  0  0  0  0  0  0
  157.5500   45.5466  149.7964 C   0  0  0  0  0  0  0  0  0  0  0  0
  158.5317   46.1709  148.9794 O   0  0  0  0  0  0  0  0  0  0  0  0
  157.1665   44.1981  149.2098 C   0  0  1  0  0  0  0  0  0  0  0  0
  155.9070   44.3399  148.5683 O   0  0  0  0  0  0  0  0  0  0  0  0
  158.1190   43.6408  148.1596 C   0  0  1  0  0  0  0  0  0  0  0  0
  158.9122   42.6113  148.7320 O   0  0  0  0  0  0  0  0  0  0  0  0
  157.1933   43.0104  147.1434 C   0  0  1  0  0  0  0  0  0  0  0  0
  156.9555   41.6454  147.4929 O   0  0  0  0  0  0  0  0  0  0  0  0
  155.8841   43.7308  147.2865 C   0  0  2  0  0  0  0  0  0  0  0  0
  163.4621   46.2483  147.2180 C   0  0  1  0  0  0  0  0  0  0  0  0
  152.9537   45.9642  143.5487 N   0  0  0  0  0  0  0  0  0  0  0  0
  152.6904   44.9084  144.3417 C   0  0  1  0  0  0  0  0  0  0  0  0
  162.3341   47.0741  147.8006 C   0  0  2  0  0  0  0  0  0  0  0  0
  151.5048   44.2714  144.2153 N   0  0  0  0  0  0  0  0  0  0  0  0
  162.9201   48.0512  148.6654 O   0  0  0  0  0  0  0  0  0  0  0  0
  161.4845   46.0953  148.5894 C   0  0  2  0  0  0  0  0  0  0  0  0
  153.5543   44.4369  145.2692 N   0  0  0  0  0  0  0  0  0  0  0  0
  160.8572   46.7261  149.7052 O   0  0  0  0  0  0  0  0  0  0  0  0
  154.7596   45.0168  145.4532 C   0  0  2  0  0  0  0  0  0  0  0  0
  162.5093   45.0473  149.0175 C   0  0  2  0  0  0  0  0  0  0  0  0
  163.5848   45.1126  148.0784 O   0  0  0  0  0  0  0  0  0  0  0  0
  155.1142   46.1716  144.6223 C   0  0  2  0  0  0  0  0  0  0  0  0
  161.9805   43.6111  149.0828 C   0  0  0  0  0  0  0  0  0  0  0  0
  161.2222   43.2389  147.9326 O   0  0  0  0  0  0  0  0  0  0  0  0
  154.1173   46.6322  143.6273 C   0  0  0  0  0  0  0  0  0  0  0  0
  154.3666   47.6173  142.8915 O   0  0  0  0  0  0  0  0  0  0  0  0
  156.3496   46.5412  145.0043 N   0  0  0  0  0  0  0  0  0  0  0  0
  156.7518   45.7042  145.9907 C   0  0  0  0  0  0  0  0  0  0  0  0
  155.7988   44.7944  146.2577 N   0  0  1  0  0  0  0  0  0  0  0  0
  161.3592   47.4783  142.5594 N   0  0  0  0  0  0  0  0  0  0  0  0
  160.7721   40.9406  148.9566 O   0  5  0  0  0  0  0  0  0  0  0  0
  161.5650   48.2464  143.6404 C   0  0  2  0  0  0  0  0  0  0  0  0
  161.1932   49.5329  143.5638 N   0  0  0  0  0  0  0  0  0  0  0  0
  159.8561   41.6100  146.5802 O   0  0  0  0  0  0  0  0  0  0  0  0
  162.1250   47.7927  144.7862 N   0  0  0  0  0  0  0  0  0  0  0  0
  162.5162   46.5059  144.8983 C   0  0  1  0  0  0  0  0  0  0  0  0
  162.3159   45.6082  143.7430 C   0  0  1  0  0  0  0  0  0  0  0  0
  161.7032   46.1899  142.5216 C   0  0  0  0  0  0  0  0  0  0  0  0
  161.4866   45.5124  141.4939 O   0  0  0  0  0  0  0  0  0  0  0  0
  162.7884   44.4067  144.1108 N   0  0  0  0  0  0  0  0  0  0  0  0
  163.2429   44.5283  145.3890 C   0  0  0  0  0  0  0  0  0  0  0  0
  163.0848   45.7807  145.8611 N   0  0  2  0  0  0  0  0  0  0  0  0
  1  3  1  6  0  0  0
  1  4  2  0  0  0  0
  1  6  1  0  0  0  0
  1 22  1  0  0  0  0
  2 28  1  0  0  0  0
  2 35  1  1  0  0  0
  2 38  2  0  0  0  0
  2 10  1  0  0  0  0
  5  6  1  0  0  0  0
  7  5  1  6  0  0  0
  7  8  1  0  0  0  0
  7  9  1  0  0  0  0
  9 10  1  1  0  0  0
  9 11  1  0  0  0  0
 11 12  1  1  0  0  0
 11 13  1  0  0  0  0
 13  8  1  1  0  0  0
 13 33  1  0  0  0  0
 14 46  1  0  0  0  0
 14 17  1  0  0  0  0
 14 25  1  1  0  0  0
 15 16  1  0  0  0  0
 15 29  1  0  0  0  0
 16 18  1  6  0  0  0
 16 21  1  0  0  0  0
 17 19  1  1  0  0  0
 17 20  1  0  0  0  0
 20 22  1  1  0  0  0
 20 24  1  0  0  0  0
 23 21  1  6  0  0  0
 23 26  1  0  0  0  0
 23 33  1  0  0  0  0
 24 25  1  6  0  0  0
 24 27  1  0  0  0  0
 26 29  1  6  0  0  0
 26 31  1  0  0  0  0
 27 28  1  0  0  0  0
 29 30  2  0  0  0  0
 31 32  1  0  0  0  0
 33 32  1  1  0  0  0
 34 36  1  0  0  0  0
 34 42  1  0  0  0  0
 36 37  1  6  0  0  0
 36 39  1  0  0  0  0
 40 39  1  6  0  0  0
 40 41  1  0  0  0  0
 40 46  1  0  0  0  0
 41 42  1  6  0  0  0
 41 44  1  0  0  0  0
 42 43  2  0  0  0  0
 44 45  1  0  0  0  0
 46 45  1  1  0  0  0
M  CHG  2   3  -1  35  -1
M  END
>  <CHROM.1>
-112.90131200,44.79863719,159.12345297,45.32967121,146.67376828,0.16080909
0.19091018,2.09231672

>  <Name>
ligand

>  <RI>
0

>  <Rbt.Current_Directory>
/home/itssahil/PROJECTS/Mol_Feturizer/Test_systems_manuscript/rnas/4yb0

>  <Rbt.Executable>
rbdock ($Id: //depot/dev/client3/rdock/2013.1/src/exe/rbdock.cxx#4 $)

>  <Rbt.Library>
libRbt.so (2013.1, Build901 2013/11/27)

>  <Rbt.Parameter_File>
/export/apps/rDock/src/rDock_2013.1_src/data/scripts/dock_solv.prm

>  <Rbt.Receptor>
prm/pocket_docking_8.prm

>  <SCORE>
-24.3658

>  <SCORE.INTER>
-24.4967

>  <SCORE.INTER.CONST>
1

>  <SCORE.INTER.POLAR>
0

>  <SCORE.INTER.ROT>
2

>  <SCORE.INTER.SOLV>
14.6826

>  <SCORE.INTER.VDW>
-26.1586

>  <SCORE.INTER.norm>
-0.532536

>  <SCORE.INTRA>
0.130856

>  <SCORE.INTRA.DIHEDRAL>
-0.00884998

>  <SCORE.INTRA.DIHEDRAL.0>
2.42188

>  <SCORE.INTRA.POLAR>
0

>  <SCORE.INTRA.POLAR.0>
0

>  <SCORE.INTRA.REPUL>
0

>  <SCORE.INTRA.REPUL.0>
0

>  <SCORE.INTRA.SOLV>
-0.00662515

>  <SCORE.INTRA.SOLV.lig_0>
-127.307

>  <SCORE.INTRA.VDW>
0.138593

>  <SCORE.INTRA.VDW.0>
-2.19936

>  <SCORE.INTRA.norm>
0.00284469

>  <SCORE.RESTR>
0

>  <SCORE.RESTR.CAVITY>
0

>  <SCORE.RESTR.norm>
0

>  <SCORE.SYSTEM>
0

>  <SCORE.SYSTEM.CONST>
0

>  <SCORE.SYSTEM.DIHEDRAL>
0

>  <SCORE.SYSTEM.SOLV>
0

>  <SCORE.SYSTEM.norm>
0

>  <SCORE.heavy>
46

>  <SCORE.norm>
-0.529691

>  <RMSD>
5.299

$$$$
ligand
 OpenBabel02271912143D
libRbt.so/2013.1/901 2013/11/27
 46 52  0  0  0  0  0  0  0  0999 V2000
  160.7612   45.3982  144.9289 P   0  0  1  0  0  0  0  0  0  0  0  0
  159.7224   44.9025  150.5061 P   0  0  1  0  0  0  0  0  0  0  0  0
  160.0024   44.4431  144.0439 O   0  5  0  0  0  0  0  0  0  0  0  0
  161.5376   46.4967  144.2360 O   0  0  0  0  0  0  0  0  0  0  0  0
  159.7717   47.3718  146.3866 C   0  0  0  0  0  0  0  0  0  0  0  0
  159.7395   46.0001  146.0147 O   0  0  0  0  0  0  0  0  0  0  0  0
  158.9968   47.5788  147.6775 C   0  0  1  0  0  0  0  0  0  0  0  0
  157.7395   48.1523  147.3483 O   0  0  0  0  0  0  0  0  0  0  0  0
  158.6935   46.3163  148.4743 C   0  0  1  0  0  0  0  0  0  0  0  0
  159.5666   46.2347  149.5913 O   0  0  0  0  0  0  0  0  0  0  0  0
  157.2919   46.5534  148.9902 C   0  0  1  0  0  0  0  0  0  0  0  0
  157.3520   47.2075  150.2593 O   0  0  0  0  0  0  0  0  0  0  0  0
  156.6656   47.5227  148.0302 C   0  0  2  0  0  0  0  0  0  0  0  0
  161.2782   41.0892  146.9806 C   0  0  1  0  0  0  0  0  0  0  0  0
  155.1467   47.1317  143.0215 N   0  0  0  0  0  0  0  0  0  0  0  0
  155.9545   48.0307  143.6149 C   0  0  1  0  0  0  0  0  0  0  0  0
  161.1178   42.1588  145.9205 C   0  0  2  0  0  0  0  0  0  0  0  0
  156.4993   49.0175  142.8687 N   0  0  0  0  0  0  0  0  0  0  0  0
  162.2151   42.0304  145.0121 O   0  0  0  0  0  0  0  0  0  0  0  0
  161.1862   43.4783  146.6664 C   0  0  2  0  0  0  0  0  0  0  0  0
  156.2564   48.0084  144.9330 N   0  0  0  0  0  0  0  0  0  0  0  0
  161.7403   44.5121  145.8537 O   0  0  0  0  0  0  0  0  0  0  0  0
  155.7490   47.0565  145.7451 C   0  0  2  0  0  0  0  0  0  0  0  0
  162.0811   43.1336  147.8548 C   0  0  2  0  0  0  0  0  0  0  0  0
  161.9755   41.7226  148.0566 O   0  0  0  0  0  0  0  0  0  0  0  0
  154.8593   46.0450  145.1663 C   0  0  2  0  0  0  0  0  0  0  0  0
  161.7360   43.8591  149.1591 C   0  0  0  0  0  0  0  0  0  0  0  0
  160.3418   43.8365  149.4625 O   0  0  0  0  0  0  0  0  0  0  0  0
  154.5740   46.1328  143.7148 C   0  0  0  0  0  0  0  0  0  0  0  0
  153.8217   45.2920  143.1660 O   0  0  0  0  0  0  0  0  0  0  0  0
  154.5011   45.2382  146.1810 N   0  0  0  0  0  0  0  0  0  0  0  0
  155.1055   45.6869  147.3073 C   0  0  0  0  0  0  0  0  0  0  0  0
  155.8518   46.7736  147.0435 N   0  0  1  0  0  0  0  0  0  0  0  0
  158.5125   37.6599  149.8491 N   0  0  0  0  0  0  0  0  0  0  0  0
  160.7619   45.2360  151.5597 O   0  5  0  0  0  0  0  0  0  0  0  0
  159.8361   37.7388  149.6424 C   0  0  2  0  0  0  0  0  0  0  0  0
  160.6106   36.8224  150.2423 N   0  0  0  0  0  0  0  0  0  0  0  0
  158.3515   44.4074  150.8982 O   0  0  0  0  0  0  0  0  0  0  0  0
  160.4189   38.6871  148.8722 N   0  0  0  0  0  0  0  0  0  0  0  0
  159.6724   39.6284  148.2573 C   0  0  1  0  0  0  0  0  0  0  0  0
  158.2080   39.5956  148.4442 C   0  0  1  0  0  0  0  0  0  0  0  0
  157.6521   38.5270  149.3130 C   0  0  0  0  0  0  0  0  0  0  0  0
  156.4266   38.4102  149.5292 O   0  0  0  0  0  0  0  0  0  0  0  0
  157.7134   40.6270  147.7416 N   0  0  0  0  0  0  0  0  0  0  0  0
  158.7694   41.2560  147.1548 C   0  0  0  0  0  0  0  0  0  0  0  0
  159.9406   40.6645  147.4629 N   0  0  2  0  0  0  0  0  0  0  0  0
  1  3  1  6  0  0  0
  1  4  2  0  0  0  0
  1  6  1  0  0  0  0
  1 22  1  0  0  0  0
  2 28  1  0  0  0  0
  2 35  1  1  0  0  0
  2 38  2  0  0  0  0
  2 10  1  0  0  0  0
  5  6  1  0  0  0  0
  7  5  1  6  0  0  0
  7  8  1  0  0  0  0
  7  9  1  0  0  0  0
  9 10  1  1  0  0  0
  9 11  1  0  0  0  0
 11 12  1  1  0  0  0
 11 13  1  0  0  0  0
 13  8  1  6  0  0  0
 13 33  1  0  0  0  0
 14 46  1  0  0  0  0
 14 17  1  0  0  0  0
 14 25  1  1  0  0  0
 15 16  1  0  0  0  0
 15 29  1  0  0  0  0
 16 18  1  1  0  0  0
 16 21  1  0  0  0  0
 17 19  1  6  0  0  0
 17 20  1  0  0  0  0
 20 22  1  6  0  0  0
 20 24  1  0  0  0  0
 23 21  1  1  0  0  0
 23 26  1  0  0  0  0
 23 33  1  0  0  0  0
 24 25  1  1  0  0  0
 24 27  1  0  0  0  0
 26 29  1  1  0  0  0
 26 31  1  0  0  0  0
 27 28  1  0  0  0  0
 29 30  2  0  0  0  0
 31 32  1  0  0  0  0
 33 32  1  6  0  0  0
 34 36  1  0  0  0  0
 34 42  1  0  0  0  0
 36 37  1  1  0  0  0
 36 39  1  0  0  0  0
 40 39  1  1  0  0  0
 40 41  1  0  0  0  0
 40 46  1  0  0  0  0
 41 42  1  1  0  0  0
 41 44  1  0  0  0  0
 42 43  2  0  0  0  0
 44 45  1  0  0  0  0
 46 45  1  6  0  0  0
M  CHG  2   3  -1  35  -1
M  END
>  <CHROM.1>
-26.19909347,170.43560602,158.77147958,44.09615778,147.28564334,-1.97066694
0.37330299,2.83000892

>  <Name>
ligand

>  <RI>
0

>  <Rbt.Current_Directory>
/home/itssahil/PROJECTS/Mol_Feturizer/Test_systems_manuscript/rnas/4yb0

>  <Rbt.Executable>
rbdock ($Id: //depot/dev/client3/rdock/2013.1/src/exe/rbdock.cxx#4 $)

>  <Rbt.Library>
libRbt.so (2013.1, Build901 2013/11/27)

>  <Rbt.Parameter_File>
/export/apps/rDock/src/rDock_2013.1_src/data/scripts/dock_solv.prm

>  <Rbt.Receptor>
prm/pocket_docking_7.prm

>  <SCORE>
-17.0921

>  <SCORE.INTER>
-17.862

>  <SCORE.INTER.CONST>
1

>  <SCORE.INTER.POLAR>
0

>  <SCORE.INTER.ROT>
2

>  <SCORE.INTER.SOLV>
15.4314

>  <SCORE.INTER.VDW>
-21.9852

>  <SCORE.INTER.norm>
-0.388305

>  <SCORE.INTRA>
0.769905

>  <SCORE.INTRA.DIHEDRAL>
0.0143995

>  <SCORE.INTRA.DIHEDRAL.0>
2.42188

>  <SCORE.INTRA.POLAR>
0

>  <SCORE.INTRA.POLAR.0>
0

>  <SCORE.INTRA.REPUL>
0

>  <SCORE.INTRA.REPUL.0>
0

>  <SCORE.INTRA.SOLV>
0.0781925

>  <SCORE.INTRA.SOLV.lig_0>
-127.307

>  <SCORE.INTRA.VDW>
0.723609

>  <SCORE.INTRA.VDW.0>
-2.19936

>  <SCORE.INTRA.norm>
0.0167371

>  <SCORE.RESTR>
0

>  <SCORE.RESTR.CAVITY>
0

>  <SCORE.RESTR.norm>
0

>  <SCORE.SYSTEM>
0

>  <SCORE.SYSTEM.CONST>
0

>  <SCORE.SYSTEM.DIHEDRAL>
0

>  <SCORE.SYSTEM.SOLV>
0

>  <SCORE.SYSTEM.norm>
0

>  <SCORE.heavy>
46

>  <SCORE.norm>
-0.371568

>  <RMSD>
5.371

$$$$
ligand
 OpenBabel02271912143D
libRbt.so/2013.1/901 2013/11/27
 46 52  0  0  0  0  0  0  0  0999 V2000
  161.6590   47.2633  147.9338 P   0  0  1  0  0  0  0  0  0  0  0  0
  160.3540   47.3276  142.3909 P   0  0  1  0  0  0  0  0  0  0  0  0
  160.6320   46.6218  148.8310 O   0  5  0  0  0  0  0  0  0  0  0  0
  162.9859   47.6220  148.5665 O   0  0  0  0  0  0  0  0  0  0  0  0
  163.1490   46.0833  146.0935 C   0  0  0  0  0  0  0  0  0  0  0  0
  161.8609   46.3233  146.6452 O   0  0  0  0  0  0  0  0  0  0  0  0
  163.0160   45.5094  144.6926 C   0  0  1  0  0  0  0  0  0  0  0  0
  163.2705   44.1136  144.7634 O   0  0  0  0  0  0  0  0  0  0  0  0
  161.6450   45.6601  144.0457 C   0  0  1  0  0  0  0  0  0  0  0  0
  161.6835   46.7016  143.0811 O   0  0  0  0  0  0  0  0  0  0  0  0
  161.4544   44.3499  143.3148 C   0  0  1  0  0  0  0  0  0  0  0  0
  161.9712   44.4616  141.9872 O   0  0  0  0  0  0  0  0  0  0  0  0
  162.3170   43.3549  144.0354 C   0  0  2  0  0  0  0  0  0  0  0  0
  157.4526   49.1483  146.5931 C   0  0  1  0  0  0  0  0  0  0  0  0
  161.7280   41.7696  149.0040 N   0  0  0  0  0  0  0  0  0  0  0  0
  162.7056   42.5021  148.4377 C   0  0  1  0  0  0  0  0  0  0  0  0
  158.5434   48.5573  147.4617 C   0  0  2  0  0  0  0  0  0  0  0  0
  163.7306   42.9350  149.2053 N   0  0  0  0  0  0  0  0  0  0  0  0
  158.7980   49.4843  148.5208 O   0  0  0  0  0  0  0  0  0  0  0  0
  159.7534   48.4274  146.5556 C   0  0  2  0  0  0  0  0  0  0  0  0
  162.7267   42.8338  147.1268 N   0  0  0  0  0  0  0  0  0  0  0  0
  160.9720   48.5692  147.2844 O   0  0  0  0  0  0  0  0  0  0  0  0
  161.7408   42.4362  146.2944 C   0  0  2  0  0  0  0  0  0  0  0  0
  159.5379   49.5657  145.5607 C   0  0  2  0  0  0  0  0  0  0  0  0
  158.1355   49.8413  145.5450 O   0  0  0  0  0  0  0  0  0  0  0  0
  160.6437   41.6332  146.8431 C   0  0  2  0  0  0  0  0  0  0  0  0
  160.0137   49.2788  144.1331 C   0  0  0  0  0  0  0  0  0  0  0  0
  159.5969   48.0031  143.6479 O   0  0  0  0  0  0  0  0  0  0  0  0
  160.6877   41.3089  148.2884 C   0  0  0  0  0  0  0  0  0  0  0  0
  159.7738   40.6272  148.8119 O   0  0  0  0  0  0  0  0  0  0  0  0
  159.8185   41.3749  145.8130 N   0  0  0  0  0  0  0  0  0  0  0  0
  160.3347   41.9591  144.7051 C   0  0  0  0  0  0  0  0  0  0  0  0
  161.4836   42.5938  144.9961 N   0  0  1  0  0  0  0  0  0  0  0  0
  155.1698   44.4657  147.3001 N   0  0  0  0  0  0  0  0  0  0  0  0
  160.8408   48.4167  141.4535 O   0  5  0  0  0  0  0  0  0  0  0  0
  155.8680   45.2215  148.1615 C   0  0  2  0  0  0  0  0  0  0  0  0
  156.0317   44.7485  149.4060 N   0  0  0  0  0  0  0  0  0  0  0  0
  159.4808   46.2039  141.8878 O   0  0  0  0  0  0  0  0  0  0  0  0
  156.4038   46.4225  147.8406 N   0  0  0  0  0  0  0  0  0  0  0  0
  156.2551   46.9329  146.6002 C   0  0  1  0  0  0  0  0  0  0  0  0
  155.4973   46.1485  145.6047 C   0  0  1  0  0  0  0  0  0  0  0  0
  154.9352   44.8456  146.0429 C   0  0  0  0  0  0  0  0  0  0  0  0
  154.2841   44.1053  145.2747 O   0  0  0  0  0  0  0  0  0  0  0  0
  155.4941   46.8731  144.4746 N   0  0  0  0  0  0  0  0  0  0  0  0
  156.1935   48.0142  144.7275 C   0  0  0  0  0  0  0  0  0  0  0  0
  156.6467   48.0545  145.9962 N   0  0  2  0  0  0  0  0  0  0  0  0
  1  3  1  1  0  0  0
  1  4  2  0  0  0  0
  1  6  1  0  0  0  0
  1 22  1  0  0  0  0
  2 28  1  0  0  0  0
  2 35  1  6  0  0  0
  2 38  2  0  0  0  0
  2 10  1  0  0  0  0
  5  6  1  0  0  0  0
  7  5  1  1  0  0  0
  7  8  1  0  0  0  0
  7  9  1  0  0  0  0
  9 10  1  6  0  0  0
  9 11  1  0  0  0  0
 11 12  1  6  0  0  0
 11 13  1  0  0  0  0
 13  8  1  1  0  0  0
 13 33  1  0  0  0  0
 14 46  1  0  0  0  0
 14 17  1  0  0  0  0
 14 25  1  6  0  0  0
 15 16  1  0  0  0  0
 15 29  1  0  0  0  0
 16 18  1  6  0  0  0
 16 21  1  0  0  0  0
 17 19  1  1  0  0  0
 17 20  1  0  0  0  0
 20 22  1  1  0  0  0
 20 24  1  0  0  0  0
 23 21  1  6  0  0  0
 23 26  1  0  0  0  0
 23 33  1  0  0  0  0
 24 25  1  6  0  0  0
 24 27  1  0  0  0  0
 26 29  1  6  0  0  0
 26 31  1  0  0  0  0
 27 28  1  0  0  0  0
 29 30  2  0  0  0  0
 31 32  1  0  0  0  0
 33 32  1  1  0  0  0
 34 36  1  0  0  0  0
 34 42  1  0  0  0  0
 36 37  1  1  0  0  0
 36 39  1  0  0  0  0
 40 39  1  1  0  0  0
 40 41  1  0  0  0  0
 40 46  1  0  0  0  0
 41 42  1  1  0  0  0
 41 44  1  0  0  0  0
 42 43  2  0  0  0  0
 44 45  1  0  0  0  0
 46 45  1  6  0  0  0
M  CHG  2   3  -1  35  -1
M  END
>  <CHROM.1>
-11.99868926,40.28512357,159.83943141,45.77473559,145.92656898,-0.75724070
0.38222948,-0.61297485

>  <Name>
ligand

>  <RI>
0

>  <Rbt.Current_Directory>
/home/itssahil/PROJECTS/Mol_Feturizer/Test_systems_manuscript/rnas/4yb0

>  <Rbt.Executable>
rbdock ($Id: //depot/dev/client3/rdock/2013.1/src/exe/rbdock.cxx#4 $)

>  <Rbt.Library>
libRbt.so (2013.1, Build901 2013/11/27)

>  <Rbt.Parameter_File>
/export/apps/rDock/src/rDock_2013.1_src/data/scripts/dock_solv.prm

>  <Rbt.Receptor>
prm/pocket_docking_6.prm

>  <SCORE>
-19.4899

>  <SCORE.INTER>
-19.5603

>  <SCORE.INTER.CONST>
1

>  <SCORE.INTER.POLAR>
0

>  <SCORE.INTER.ROT>
2

>  <SCORE.INTER.SOLV>
17.0764

>  <SCORE.INTER.VDW>
-23.6656

>  <SCORE.INTER.norm>
-0.425223

>  <SCORE.INTRA>
0.0703951

>  <SCORE.INTRA.DIHEDRAL>
0.0173342

>  <SCORE.INTRA.DIHEDRAL.0>
2.42188

>  <SCORE.INTRA.POLAR>
0

>  <SCORE.INTRA.POLAR.0>
0

>  <SCORE.INTRA.REPUL>
0

>  <SCORE.INTRA.REPUL.0>
0

>  <SCORE.INTRA.SOLV>
0.340014

>  <SCORE.INTRA.SOLV.lig_0>
-127.307

>  <SCORE.INTRA.VDW>
-0.108279

>  <SCORE.INTRA.VDW.0>
-2.19936

>  <SCORE.INTRA.norm>
0.00153033

>  <SCORE.RESTR>
0

>  <SCORE.RESTR.CAVITY>
0

>  <SCORE.RESTR.norm>
0

>  <SCORE.SYSTEM>
0

>  <SCORE.SYSTEM.CONST>
0

>  <SCORE.SYSTEM.DIHEDRAL>
0

>  <SCORE.SYSTEM.SOLV>
0

>  <SCORE.SYSTEM.norm>
0

>  <SCORE.heavy>
46

>  <SCORE.norm>
-0.423693

>  <RMSD>
5.414

$$$$
ligand
 OpenBabel02271912143D
libRbt.so/2013.1/901 2013/11/27
 46 52  0  0  0  0  0  0  0  0999 V2000
  161.7002   47.8715  147.3500 P   0  0  1  0  0  0  0  0  0  0  0  0
  157.0596   48.0648  144.0548 P   0  0  1  0  0  0  0  0  0  0  0  0
  161.9204   46.5708  148.0786 O   0  5  0  0  0  0  0  0  0  0  0  0
  162.8236   48.8835  147.4100 O   0  0  0  0  0  0  0  0  0  0  0  0
  161.8082   48.2916  144.7401 C   0  0  0  0  0  0  0  0  0  0  0  0
  161.2960   47.5365  145.8303 O   0  0  0  0  0  0  0  0  0  0  0  0
  160.9804   48.0309  143.4925 C   0  0  1  0  0  0  0  0  0  0  0  0
  161.7142   47.1493  142.6545 O   0  0  0  0  0  0  0  0  0  0  0  0
  159.6275   47.3701  143.7249 C   0  0  1  0  0  0  0  0  0  0  0  0
  158.5960   48.3389  143.6070 O   0  0  0  0  0  0  0  0  0  0  0  0
  159.5021   46.4070  142.5658 C   0  0  1  0  0  0  0  0  0  0  0  0
  158.8696   47.0618  141.4643 O   0  0  0  0  0  0  0  0  0  0  0  0
  160.9085   46.1000  142.1403 C   0  0  2  0  0  0  0  0  0  0  0  0
  157.4544   46.7829  149.3076 C   0  0  1  0  0  0  0  0  0  0  0  0
  160.5129   40.8667  142.0865 N   0  0  0  0  0  0  0  0  0  0  0  0
  159.9097   41.7898  141.3139 C   0  0  1  0  0  0  0  0  0  0  0  0
  158.9517   46.8964  149.1103 C   0  0  2  0  0  0  0  0  0  0  0  0
  159.0544   41.3821  140.3498 N   0  0  0  0  0  0  0  0  0  0  0  0
  159.4869   47.5586  150.2596 O   0  0  0  0  0  0  0  0  0  0  0  0
  159.1305   47.7459  147.8659 C   0  0  2  0  0  0  0  0  0  0  0  0
  160.1078   43.1209  141.4476 N   0  0  0  0  0  0  0  0  0  0  0  0
  160.3344   48.5099  147.9210 O   0  0  0  0  0  0  0  0  0  0  0  0
  160.9443   43.6069  142.3895 C   0  0  2  0  0  0  0  0  0  0  0  0
  157.8836   48.6272  147.8924 C   0  0  2  0  0  0  0  0  0  0  0  0
  156.8975   47.9259  148.6530 O   0  0  0  0  0  0  0  0  0  0  0  0
  161.6346   42.6579  143.2685 C   0  0  2  0  0  0  0  0  0  0  0  0
  157.3075   48.9781  146.5170 C   0  0  0  0  0  0  0  0  0  0  0  0
  157.1972   47.8501  145.6499 O   0  0  0  0  0  0  0  0  0  0  0  0
  161.3684   41.2146  143.0630 C   0  0  0  0  0  0  0  0  0  0  0  0
  161.9339   40.3581  143.7845 O   0  0  0  0  0  0  0  0  0  0  0  0
  162.3866   43.3994  144.1013 N   0  0  0  0  0  0  0  0  0  0  0  0
  162.1998   44.7036  143.7863 C   0  0  0  0  0  0  0  0  0  0  0  0
  161.3377   44.8247  142.7618 N   0  0  1  0  0  0  0  0  0  0  0  0
  158.3564   41.7490  148.0898 N   0  0  0  0  0  0  0  0  0  0  0  0
  156.3072   49.3543  143.7847 O   0  5  0  0  0  0  0  0  0  0  0  0
  159.1061   42.6119  148.7927 C   0  0  2  0  0  0  0  0  0  0  0  0
  160.2725   42.1626  149.2795 N   0  0  0  0  0  0  0  0  0  0  0  0
  156.5960   46.7570  143.4607 O   0  0  0  0  0  0  0  0  0  0  0  0
  158.7452   43.8941  149.0337 N   0  0  0  0  0  0  0  0  0  0  0  0
  157.5768   44.3798  148.5646 C   0  0  1  0  0  0  0  0  0  0  0  0
  156.7063   43.4797  147.7819 C   0  0  1  0  0  0  0  0  0  0  0  0
  157.1739   42.0857  147.5723 C   0  0  0  0  0  0  0  0  0  0  0  0
  156.5132   41.2492  146.9197 O   0  0  0  0  0  0  0  0  0  0  0  0
  155.6232   44.1982  147.4458 N   0  0  0  0  0  0  0  0  0  0  0  0
  155.7933   45.4465  147.9635 C   0  0  0  0  0  0  0  0  0  0  0  0
  156.9569   45.5576  148.6345 N   0  0  2  0  0  0  0  0  0  0  0  0
  1  3  1  1  0  0  0
  1  4  2  0  0  0  0
  1  6  1  0  0  0  0
  1 22  1  0  0  0  0
  2 28  1  0  0  0  0
  2 35  1  6  0  0  0
  2 38  2  0  0  0  0
  2 10  1  0  0  0  0
  5  6  1  0  0  0  0
  7  5  1  1  0  0  0
  7  8  1  0  0  0  0
  7  9  1  0  0  0  0
  9 10  1  6  0  0  0
  9 11  1  0  0  0  0
 11 12  1  6  0  0  0
 11 13  1  0  0  0  0
 13  8  1  1  0  0  0
 13 33  1  0  0  0  0
 14 46  1  0  0  0  0
 14 17  1  0  0  0  0
 14 25  1  6  0  0  0
 15 16  1  0  0  0  0
 15 29  1  0  0  0  0
 16 18  1  1  0  0  0
 16 21  1  0  0  0  0
 17 19  1  1  0  0  0
 17 20  1  0  0  0  0
 20 22  1  1  0  0  0
 20 24  1  0  0  0  0
 23 21  1  1  0  0  0
 23 26  1  0  0  0  0
 23 33  1  0  0  0  0
 24 25  1  1  0  0  0
 24 27  1  0  0  0  0
 26 29  1  1  0  0  0
 26 31  1  0  0  0  0
 27 28  1  0  0  0  0
 29 30  2  0  0  0  0
 31 32  1  0  0  0  0
 33 32  1  6  0  0  0
 34 36  1  0  0  0  0
 34 42  1  0  0  0  0
 36 37  1  1  0  0  0
 36 39  1  0  0  0  0
 40 39  1  1  0  0  0
 40 41  1  0  0  0  0
 40 46  1  0  0  0  0
 41 42  1  1  0  0  0
 41 44  1  0  0  0  0
 42 43  2  0  0  0  0
 44 45  1  0  0  0  0
 46 45  1  6  0  0  0
M  CHG  2   3  -1  35  -1
M  END
>  <CHROM.1>
-169.93982230,37.42362751,159.32236636,45.64995214,145.57708211,-2.47061581
-1.18687887,-3.10673967

>  <Name>
ligand

>  <RI>
0

>  <Rbt.Current_Directory>
/home/itssahil/PROJECTS/Mol_Feturizer/Test_systems_manuscript/rnas/4yb0

>  <Rbt.Executable>
rbdock ($Id: //depot/dev/client3/rdock/2013.1/src/exe/rbdock.cxx#4 $)

>  <Rbt.Library>
libRbt.so (2013.1, Build901 2013/11/27)

>  <Rbt.Parameter_File>
/export/apps/rDock/src/rDock_2013.1_src/data/scripts/dock_solv.prm

>  <Rbt.Receptor>
prm/pocket_docking_5.prm

>  <SCORE>
-15.9147

>  <SCORE.INTER>
-16.0861

>  <SCORE.INTER.CONST>
1

>  <SCORE.INTER.POLAR>
0

>  <SCORE.INTER.ROT>
2

>  <SCORE.INTER.SOLV>
21.0154

>  <SCORE.INTER.VDW>
-22.6625

>  <SCORE.INTER.norm>
-0.349698

>  <SCORE.INTRA>
0.171363

>  <SCORE.INTRA.DIHEDRAL>
0.0167567

>  <SCORE.INTRA.DIHEDRAL.0>
2.42188

>  <SCORE.INTRA.POLAR>
0

>  <SCORE.INTRA.POLAR.0>
0

>  <SCORE.INTRA.REPUL>
0

>  <SCORE.INTRA.REPUL.0>
0

>  <SCORE.INTRA.SOLV>
0.00995472

>  <SCORE.INTRA.SOLV.lig_0>
-127.307

>  <SCORE.INTRA.VDW>
0.158008

>  <SCORE.INTRA.VDW.0>
-2.19936

>  <SCORE.INTRA.norm>
0.00372529

>  <SCORE.RESTR>
0

>  <SCORE.RESTR.CAVITY>
0

>  <SCORE.RESTR.norm>
0

>  <SCORE.SYSTEM>
0

>  <SCORE.SYSTEM.CONST>
0

>  <SCORE.SYSTEM.DIHEDRAL>
0

>  <SCORE.SYSTEM.SOLV>
0

>  <SCORE.SYSTEM.norm>
0

>  <SCORE.heavy>
46

>  <SCORE.norm>
-0.345973

>  <RMSD>
5.439

$$$$
ligand
 OpenBabel02271912143D
libRbt.so/2013.1/901 2013/11/27
 46 52  0  0  0  0  0  0  0  0999 V2000
  161.3231   46.4329  147.8764 P   0  0  1  0  0  0  0  0  0  0  0  0
  160.8860   44.7276  142.4605 P   0  0  1  0  0  0  0  0  0  0  0  0
  160.0308   46.4572  148.6514 O   0  5  0  0  0  0  0  0  0  0  0  0
  162.5942   46.6580  148.6658 O   0  0  0  0  0  0  0  0  0  0  0  0
  162.5923   44.3127  146.9311 C   0  0  0  0  0  0  0  0  0  0  0  0
  161.3871   45.0582  147.0450 O   0  0  0  0  0  0  0  0  0  0  0  0
  162.4760   43.3062  145.7983 C   0  0  1  0  0  0  0  0  0  0  0  0
  162.2549   42.0247  146.3700 O   0  0  0  0  0  0  0  0  0  0  0  0
  161.3297   43.5409  144.8227 C   0  0  1  0  0  0  0  0  0  0  0  0
  161.8343   44.0959  143.6170 O   0  0  0  0  0  0  0  0  0  0  0  0
  160.8299   42.1452  144.5241 C   0  0  1  0  0  0  0  0  0  0  0  0
  161.5329   41.6143  143.3991 O   0  0  0  0  0  0  0  0  0  0  0  0
  161.2178   41.3133  145.7120 C   0  0  2  0  0  0  0  0  0  0  0  0
  158.1757   48.6641  145.0198 C   0  0  1  0  0  0  0  0  0  0  0  0
  159.6185   40.9589  150.6982 N   0  0  0  0  0  0  0  0  0  0  0  0
  160.8633   41.0277  150.1898 C   0  0  1  0  0  0  0  0  0  0  0  0
  158.8871   48.1909  146.2702 C   0  0  2  0  0  0  0  0  0  0  0  0
  161.9194   41.0091  151.0334 N   0  0  0  0  0  0  0  0  0  0  0  0
  159.2782   49.3527  147.0070 O   0  0  0  0  0  0  0  0  0  0  0  0
  160.1035   47.4295  145.7775 C   0  0  2  0  0  0  0  0  0  0  0  0
  161.1259   41.1125  148.8659 N   0  0  0  0  0  0  0  0  0  0  0  0
  161.1900   47.5247  146.6976 O   0  0  0  0  0  0  0  0  0  0  0  0
  160.1252   41.1331  147.9598 C   0  0  2  0  0  0  0  0  0  0  0  0
  160.4056   48.1231  144.4510 C   0  0  2  0  0  0  0  0  0  0  0  0
  159.1832   48.7151  144.0061 O   0  0  0  0  0  0  0  0  0  0  0  0
  158.7428   41.0596  148.4429 C   0  0  2  0  0  0  0  0  0  0  0  0
  160.9557   47.2095  143.3513 C   0  0  0  0  0  0  0  0  0  0  0  0
  160.2213   45.9940  143.2114 O   0  0  0  0  0  0  0  0  0  0  0  0
  158.5321   40.9686  149.9069 C   0  0  0  0  0  0  0  0  0  0  0  0
  157.3703   40.9061  150.3761 O   0  0  0  0  0  0  0  0  0  0  0  0
  157.9624   41.0924  147.3480 N   0  0  0  0  0  0  0  0  0  0  0  0
  158.7669   41.1812  146.2617 C   0  0  0  0  0  0  0  0  0  0  0  0
  160.0595   41.2063  146.6305 N   0  0  1  0  0  0  0  0  0  0  0  0
  155.0279   44.7393  146.5446 N   0  0  0  0  0  0  0  0  0  0  0  0
  161.8221   45.2228  141.3740 O   0  5  0  0  0  0  0  0  0  0  0  0
  155.8879   45.4804  147.2603 C   0  0  2  0  0  0  0  0  0  0  0  0
  155.9908   45.2137  148.5709 N   0  0  0  0  0  0  0  0  0  0  0  0
  159.7756   43.7554  142.1442 O   0  0  0  0  0  0  0  0  0  0  0  0
  156.6424   46.4721  146.7316 N   0  0  0  0  0  0  0  0  0  0  0  0
  156.5618   46.7724  145.4184 C   0  0  1  0  0  0  0  0  0  0  0  0
  155.6338   45.9920  144.5756 C   0  0  1  0  0  0  0  0  0  0  0  0
  154.8366   44.9283  145.2379 C   0  0  0  0  0  0  0  0  0  0  0  0
  154.0288   44.2093  144.6115 O   0  0  0  0  0  0  0  0  0  0  0  0
  155.7416   46.4890  143.3332 N   0  0  0  0  0  0  0  0  0  0  0  0
  156.6614   47.4925  143.3808 C   0  0  0  0  0  0  0  0  0  0  0  0
  157.1509   47.6663  144.6245 N   0  0  2  0  0  0  0  0  0  0  0  0
  1  3  1  1  0  0  0
  1  4  2  0  0  0  0
  1  6  1  0  0  0  0
  1 22  1  0  0  0  0
  2 28  1  0  0  0  0
  2 35  1  6  0  0  0
  2 38  2  0  0  0  0
  2 10  1  0  0  0  0
  5  6  1  0  0  0  0
  7  5  1  1  0  0  0
  7  8  1  0  0  0  0
  7  9  1  0  0  0  0
  9 10  1  6  0  0  0
  9 11  1  0  0  0  0
 11 12  1  6  0  0  0
 11 13  1  0  0  0  0
 13  8  1  1  0  0  0
 13 33  1  0  0  0  0
 14 46  1  0  0  0  0
 14 17  1  0  0  0  0
 14 25  1  6  0  0  0
 15 16  1  0  0  0  0
 15 29  1  0  0  0  0
 16 18  1  6  0  0  0
 16 21  1  0  0  0  0
 17 19  1  1  0  0  0
 17 20  1  0  0  0  0
 20 22  1  1  0  0  0
 20 24  1  0  0  0  0
 23 21  1  6  0  0  0
 23 26  1  0  0  0  0
 23 33  1  0  0  0  0
 24 25  1  6  0  0  0
 24 27  1  0  0  0  0
 26 29  1  6  0  0  0
 26 31  1  0  0  0  0
 27 28  1  0  0  0  0
 29 30  2  0  0  0  0
 31 32  1  0  0  0  0
 33 32  1  1  0  0  0
 34 36  1  0  0  0  0
 34 42  1  0  0  0  0
 36 37  1  1  0  0  0
 36 39  1  0  0  0  0
 40 39  1  1  0  0  0
 40 41  1  0  0  0  0
 40 46  1  0  0  0  0
 41 42  1  1  0  0  0
 41 44  1  0  0  0  0
 42 43  2  0  0  0  0
 44 45  1  0  0  0  0
 46 45  1  6  0  0  0
M  CHG  2   3  -1  35  -1
M  END
>  <CHROM.1>
-31.30487993,23.41438136,159.49751128,44.63683170,146.06946808,-1.31203036
0.36898141,-0.75607771

>  <Name>
ligand

>  <RI>
0

>  <Rbt.Current_Directory>
/home/itssahil/PROJECTS/Mol_Feturizer/Test_systems_manuscript/rnas/4yb0

>  <Rbt.Executable>
rbdock ($Id: //depot/dev/client3/rdock/2013.1/src/exe/rbdock.cxx#4 $)

>  <Rbt.Library>
libRbt.so (2013.1, Build901 2013/11/27)

>  <Rbt.Parameter_File>
/export/apps/rDock/src/rDock_2013.1_src/data/scripts/dock_solv.prm

>  <Rbt.Receptor>
prm/pocket_docking_6.prm

>  <SCORE>
-17.5801

>  <SCORE.INTER>
-18.49

>  <SCORE.INTER.CONST>
1

>  <SCORE.INTER.POLAR>
0

>  <SCORE.INTER.ROT>
2

>  <SCORE.INTER.SOLV>
19.2919

>  <SCORE.INTER.VDW>
-23.6906

>  <SCORE.INTER.norm>
-0.401957

>  <SCORE.INTRA>
0.909906

>  <SCORE.INTRA.DIHEDRAL>
0.029469

>  <SCORE.INTRA.DIHEDRAL.0>
2.42188

>  <SCORE.INTRA.POLAR>
0

>  <SCORE.INTRA.POLAR.0>
0

>  <SCORE.INTRA.REPUL>
0

>  <SCORE.INTRA.REPUL.0>
0

>  <SCORE.INTRA.SOLV>
0.531602

>  <SCORE.INTRA.SOLV.lig_0>
-127.307

>  <SCORE.INTRA.VDW>
0.62937

>  <SCORE.INTRA.VDW.0>
-2.19936

>  <SCORE.INTRA.norm>
0.0197806

>  <SCORE.RESTR>
0

>  <SCORE.RESTR.CAVITY>
0

>  <SCORE.RESTR.norm>
0

>  <SCORE.SYSTEM>
0

>  <SCORE.SYSTEM.CONST>
0

>  <SCORE.SYSTEM.DIHEDRAL>
0

>  <SCORE.SYSTEM.SOLV>
0

>  <SCORE.SYSTEM.norm>
0

>  <SCORE.heavy>
46

>  <SCORE.norm>
-0.382176

>  <RMSD>
5.528

$$$$
ligand
 OpenBabel02271912143D
libRbt.so/2013.1/901 2013/11/27
 46 52  0  0  0  0  0  0  0  0999 V2000
  161.3147   46.4427  147.8680 P   0  0  1  0  0  0  0  0  0  0  0  0
  160.9255   44.6623  142.4726 P   0  0  1  0  0  0  0  0  0  0  0  0
  160.0177   46.4653  148.6350 O   0  5  0  0  0  0  0  0  0  0  0  0
  162.5789   46.6899  148.6618 O   0  0  0  0  0  0  0  0  0  0  0  0
  162.6088   44.3221  146.9583 C   0  0  0  0  0  0  0  0  0  0  0  0
  161.3962   45.0578  147.0552 O   0  0  0  0  0  0  0  0  0  0  0  0
  162.5085   43.2997  145.8383 C   0  0  1  0  0  0  0  0  0  0  0  0
  162.2957   42.0239  146.4256 O   0  0  0  0  0  0  0  0  0  0  0  0
  161.3660   43.5109  144.8530 C   0  0  1  0  0  0  0  0  0  0  0  0
  161.8727   44.0546  143.6430 O   0  0  0  0  0  0  0  0  0  0  0  0
  160.8807   42.1068  144.5699 C   0  0  1  0  0  0  0  0  0  0  0  0
  161.5953   41.5676  143.4561 O   0  0  0  0  0  0  0  0  0  0  0  0
  161.2691   41.2943  145.7709 C   0  0  2  0  0  0  0  0  0  0  0  0
  158.1642   48.6070  144.9637 C   0  0  1  0  0  0  0  0  0  0  0  0
  159.6445   40.9704  150.7511 N   0  0  0  0  0  0  0  0  0  0  0  0
  160.8917   41.0414  150.2488 C   0  0  1  0  0  0  0  0  0  0  0  0
  158.8724   48.1568  146.2244 C   0  0  2  0  0  0  0  0  0  0  0  0
  161.9433   41.0344  151.0982 N   0  0  0  0  0  0  0  0  0  0  0  0
  159.2484   49.3319  146.9481 O   0  0  0  0  0  0  0  0  0  0  0  0
  160.0986   47.4003  145.7490 C   0  0  2  0  0  0  0  0  0  0  0  0
  161.1611   41.1173  148.9258 N   0  0  0  0  0  0  0  0  0  0  0  0
  161.1787   47.5176  146.6741 O   0  0  0  0  0  0  0  0  0  0  0  0
  160.1652   41.1260  148.0141 C   0  0  2  0  0  0  0  0  0  0  0  0
  160.4022   48.0791  144.4152 C   0  0  2  0  0  0  0  0  0  0  0  0
  159.1771   48.6539  143.9553 O   0  0  0  0  0  0  0  0  0  0  0  0
  158.7806   41.0495  148.4903 C   0  0  2  0  0  0  0  0  0  0  0  0
  160.9672   47.1562  143.3309 C   0  0  0  0  0  0  0  0  0  0  0  0
  160.2448   45.9322  143.2029 O   0  0  0  0  0  0  0  0  0  0  0  0
  158.5624   40.9688  149.9538 C   0  0  0  0  0  0  0  0  0  0  0  0
  157.3983   40.9043  150.4172 O   0  0  0  0  0  0  0  0  0  0  0  0
  158.0060   41.0702  147.3911 N   0  0  0  0  0  0  0  0  0  0  0  0
  158.8160   41.1546  146.3085 C   0  0  0  0  0  0  0  0  0  0  0  0
  160.1064   41.1888  146.6840 N   0  0  1  0  0  0  0  0  0  0  0  0
  154.9586   44.7508  146.5423 N   0  0  0  0  0  0  0  0  0  0  0  0
  161.8635   45.1517  141.3852 O   0  5  0  0  0  0  0  0  0  0  0  0
  155.7958   45.5199  147.2553 C   0  0  2  0  0  0  0  0  0  0  0  0
  155.8544   45.3072  148.5784 N   0  0  0  0  0  0  0  0  0  0  0  0
  159.8260   43.6758  142.1627 O   0  0  0  0  0  0  0  0  0  0  0  0
  156.5697   46.4884  146.7119 N   0  0  0  0  0  0  0  0  0  0  0  0
  156.5336   46.7346  145.3855 C   0  0  1  0  0  0  0  0  0  0  0  0
  155.6326   45.9210  144.5449 C   0  0  1  0  0  0  0  0  0  0  0  0
  154.8114   44.8861  145.2233 C   0  0  0  0  0  0  0  0  0  0  0  0
  154.0233   44.1426  144.6002 O   0  0  0  0  0  0  0  0  0  0  0  0
  155.7828   46.3665  143.2874 N   0  0  0  0  0  0  0  0  0  0  0  0
  156.7028   47.3703  143.3246 C   0  0  0  0  0  0  0  0  0  0  0  0
  157.1508   47.5947  144.5757 N   0  0  2  0  0  0  0  0  0  0  0  0
  1  3  1  1  0  0  0
  1  4  2  0  0  0  0
  1  6  1  0  0  0  0
  1 22  1  0  0  0  0
  2 28  1  0  0  0  0
  2 35  1  6  0  0  0
  2 38  2  0  0  0  0
  2 10  1  0  0  0  0
  5  6  1  0  0  0  0
  7  5  1  1  0  0  0
  7  8  1  0  0  0  0
  7  9  1  0  0  0  0
  9 10  1  6  0  0  0
  9 11  1  0  0  0  0
 11 12  1  6  0  0  0
 11 13  1  0  0  0  0
 13  8  1  1  0  0  0
 13 33  1  0  0  0  0
 14 46  1  0  0  0  0
 14 17  1  0  0  0  0
 14 25  1  6  0  0  0
 15 16  1  0  0  0  0
 15 29  1  0  0  0  0
 16 18  1  6  0  0  0
 16 21  1  0  0  0  0
 17 19  1  1  0  0  0
 17 20  1  0  0  0  0
 20 22  1  1  0  0  0
 20 24  1  0  0  0  0
 23 21  1  6  0  0  0
 23 26  1  0  0  0  0
 23 33  1  0  0  0  0
 24 25  1  6  0  0  0
 24 27  1  0  0  0  0
 26 29  1  6  0  0  0
 26 31  1  0  0  0  0
 27 28  1  0  0  0  0
 29 30  2  0  0  0  0
 31 32  1  0  0  0  0
 33 32  1  1  0  0  0
 34 36  1  0  0  0  0
 34 42  1  0  0  0  0
 36 37  1  1  0  0  0
 36 39  1  0  0  0  0
 40 39  1  1  0  0  0
 40 41  1  0  0  0  0
 40 46  1  0  0  0  0
 41 42  1  1  0  0  0
 41 44  1  0  0  0  0
 42 43  2  0  0  0  0
 44 45  1  0  0  0  0
 46 45  1  6  0  0  0
M  CHG  2   3  -1  35  -1
M  END
>  <CHROM.1>
-31.70771602,25.73950469,159.50730607,44.61241756,146.07649212,-1.29849269
0.36516521,-0.77061444

>  <Name>
ligand

>  <RI>
0

>  <Rbt.Current_Directory>
/home/itssahil/PROJECTS/Mol_Feturizer/Test_systems_manuscript/rnas/4yb0

>  <Rbt.Executable>
rbdock ($Id: //depot/dev/client3/rdock/2013.1/src/exe/rbdock.cxx#4 $)

>  <Rbt.Library>
libRbt.so (2013.1, Build901 2013/11/27)

>  <Rbt.Parameter_File>
/export/apps/rDock/src/rDock_2013.1_src/data/scripts/dock_solv.prm

>  <Rbt.Receptor>
prm/pocket_docking_7.prm

>  <SCORE>
-17.5803

>  <SCORE.INTER>
-18.4024

>  <SCORE.INTER.CONST>
1

>  <SCORE.INTER.POLAR>
0

>  <SCORE.INTER.ROT>
2

>  <SCORE.INTER.SOLV>
20.252

>  <SCORE.INTER.VDW>
-23.9523

>  <SCORE.INTER.norm>
-0.400053

>  <SCORE.INTRA>
0.822153

>  <SCORE.INTRA.DIHEDRAL>
0.0303555

>  <SCORE.INTRA.DIHEDRAL.0>
2.42188

>  <SCORE.INTRA.POLAR>
0

>  <SCORE.INTRA.POLAR.0>
0

>  <SCORE.INTRA.REPUL>
0

>  <SCORE.INTRA.REPUL.0>
0

>  <SCORE.INTRA.SOLV>
0.376921

>  <SCORE.INTRA.SOLV.lig_0>
-127.307

>  <SCORE.INTRA.VDW>
0.618515

>  <SCORE.INTRA.VDW.0>
-2.19936

>  <SCORE.INTRA.norm>
0.0178729

>  <SCORE.RESTR>
0

>  <SCORE.RESTR.CAVITY>
0

>  <SCORE.RESTR.norm>
0

>  <SCORE.SYSTEM>
0

>  <SCORE.SYSTEM.CONST>
0

>  <SCORE.SYSTEM.DIHEDRAL>
0

>  <SCORE.SYSTEM.SOLV>
0

>  <SCORE.SYSTEM.norm>
0

>  <SCORE.heavy>
46

>  <SCORE.norm>
-0.38218

>  <RMSD>
5.546

$$$$
ligand
 OpenBabel02271912143D
libRbt.so/2013.1/901 2013/11/27
 46 52  0  0  0  0  0  0  0  0999 V2000
  161.3043   46.4726  147.8569 P   0  0  1  0  0  0  0  0  0  0  0  0
  160.8534   44.6967  142.4649 P   0  0  1  0  0  0  0  0  0  0  0  0
  160.0172   46.4887  148.6406 O   0  5  0  0  0  0  0  0  0  0  0  0
  162.5776   46.7245  148.6347 O   0  0  0  0  0  0  0  0  0  0  0  0
  162.5960   44.3588  146.9281 C   0  0  0  0  0  0  0  0  0  0  0  0
  161.3815   45.0891  147.0415 O   0  0  0  0  0  0  0  0  0  0  0  0
  162.4857   43.3373  145.8082 C   0  0  1  0  0  0  0  0  0  0  0  0
  162.2861   42.0598  146.3967 O   0  0  0  0  0  0  0  0  0  0  0  0
  161.3296   43.5445  144.8380 C   0  0  1  0  0  0  0  0  0  0  0  0
  161.8183   44.0919  143.6222 O   0  0  0  0  0  0  0  0  0  0  0  0
  160.8470   42.1386  144.5596 C   0  0  1  0  0  0  0  0  0  0  0  0
  161.5495   41.6039  143.4360 O   0  0  0  0  0  0  0  0  0  0  0  0
  161.2545   41.3265  145.7545 C   0  0  2  0  0  0  0  0  0  0  0  0
  158.1071   48.6262  144.9961 C   0  0  1  0  0  0  0  0  0  0  0  0
  159.6934   41.0270  150.7564 N   0  0  0  0  0  0  0  0  0  0  0  0
  160.9336   41.1089  150.2386 C   0  0  1  0  0  0  0  0  0  0  0  0
  158.8335   48.1778  146.2470 C   0  0  2  0  0  0  0  0  0  0  0  0
  161.9952   41.1225  151.0754 N   0  0  0  0  0  0  0  0  0  0  0  0
  159.2136   49.3537  146.9672 O   0  0  0  0  0  0  0  0  0  0  0  0
  160.0568   47.4272  145.7549 C   0  0  2  0  0  0  0  0  0  0  0  0
  161.1862   41.1764  148.9118 N   0  0  0  0  0  0  0  0  0  0  0  0
  161.1482   47.5483  146.6662 O   0  0  0  0  0  0  0  0  0  0  0  0
  160.1795   41.1646  148.0122 C   0  0  2  0  0  0  0  0  0  0  0  0
  160.3402   48.1089  144.4182 C   0  0  2  0  0  0  0  0  0  0  0  0
  159.1067   48.6788  143.9748 O   0  0  0  0  0  0  0  0  0  0  0  0
  158.8017   41.0753  148.5056 C   0  0  2  0  0  0  0  0  0  0  0  0
  160.8952   47.1898  143.3256 C   0  0  0  0  0  0  0  0  0  0  0  0
  160.1766   45.9627  143.2054 O   0  0  0  0  0  0  0  0  0  0  0  0
  158.6020   41.0050  149.9723 C   0  0  0  0  0  0  0  0  0  0  0  0
  157.4444   40.9302  150.4502 O   0  0  0  0  0  0  0  0  0  0  0  0
  158.0139   41.0766  147.4156 N   0  0  0  0  0  0  0  0  0  0  0  0
  158.8098   41.1613  146.3227 C   0  0  0  0  0  0  0  0  0  0  0  0
  160.1041   41.2148  146.6824 N   0  0  1  0  0  0  0  0  0  0  0  0
  154.9388   44.7545  146.6114 N   0  0  0  0  0  0  0  0  0  0  0  0
  161.7752   45.1914  141.3660 O   0  5  0  0  0  0  0  0  0  0  0  0
  155.7817   45.5265  147.3145 C   0  0  2  0  0  0  0  0  0  0  0  0
  155.8581   45.3127  148.6365 N   0  0  0  0  0  0  0  0  0  0  0  0
  159.7544   43.7057  142.1681 O   0  0  0  0  0  0  0  0  0  0  0  0
  156.5444   46.4989  146.7623 N   0  0  0  0  0  0  0  0  0  0  0  0
  156.4903   46.7463  145.4367 C   0  0  1  0  0  0  0  0  0  0  0  0
  155.5821   45.9296  144.6068 C   0  0  1  0  0  0  0  0  0  0  0  0
  154.7742   44.8904  145.2946 C   0  0  0  0  0  0  0  0  0  0  0  0
  153.9814   44.1441  144.6808 O   0  0  0  0  0  0  0  0  0  0  0  0
  155.7143   46.3771  143.3480 N   0  0  0  0  0  0  0  0  0  0  0  0
  156.6303   47.3848  143.3745 C   0  0  0  0  0  0  0  0  0  0  0  0
  157.0933   47.6099  144.6200 N   0  0  2  0  0  0  0  0  0  0  0  0
  1  3  1  1  0  0  0
  1  4  2  0  0  0  0
  1  6  1  0  0  0  0
  1 22  1  0  0  0  0
  2 28  1  0  0  0  0
  2 35  1  6  0  0  0
  2 38  2  0  0  0  0
  2 10  1  0  0  0  0
  5  6  1  0  0  0  0
  7  5  1  1  0  0  0
  7  8  1  0  0  0  0
  7  9  1  0  0  0  0
  9 10  1  6  0  0  0
  9 11  1  0  0  0  0
 11 12  1  6  0  0  0
 11 13  1  0  0  0  0
 13  8  1  1  0  0  0
 13 33  1  0  0  0  0
 14 46  1  0  0  0  0
 14 17  1  0  0  0  0
 14 25  1  6  0  0  0
 15 16  1  0  0  0  0
 15 29  1  0  0  0  0
 16 18  1  6  0  0  0
 16 21  1  0  0  0  0
 17 19  1  1  0  0  0
 17 20  1  0  0  0  0
 20 22  1  1  0  0  0
 20 24  1  0  0  0  0
 23 21  1  6  0  0  0
 23 26  1  0  0  0  0
 23 33  1  0  0  0  0
 24 25  1  6  0  0  0
 24 27  1  0  0  0  0
 26 29  1  6  0  0  0
 26 31  1  0  0  0  0
 27 28  1  0  0  0  0
 29 30  2  0  0  0  0
 31 32  1  0  0  0  0
 33 32  1  1  0  0  0
 34 36  1  0  0  0  0
 34 42  1  0  0  0  0
 36 37  1  1  0  0  0
 36 39  1  0  0  0  0
 40 39  1  1  0  0  0
 40 41  1  0  0  0  0
 40 46  1  0  0  0  0
 41 42  1  1  0  0  0
 41 44  1  0  0  0  0
 42 43  2  0  0  0  0
 44 45  1  0  0  0  0
 46 45  1  6  0  0  0
M  CHG  2   3  -1  35  -1
M  END
>  <CHROM.1>
-30.97218214,25.74942851,159.48178684,44.64048988,146.08688806,-1.28444134
0.37210770,-0.77702477

>  <Name>
ligand

>  <RI>
0

>  <Rbt.Current_Directory>
/home/itssahil/PROJECTS/Mol_Feturizer/Test_systems_manuscript/rnas/4yb0

>  <Rbt.Executable>
rbdock ($Id: //depot/dev/client3/rdock/2013.1/src/exe/rbdock.cxx#4 $)

>  <Rbt.Library>
libRbt.so (2013.1, Build901 2013/11/27)

>  <Rbt.Parameter_File>
/export/apps/rDock/src/rDock_2013.1_src/data/scripts/dock_solv.prm

>  <Rbt.Receptor>
prm/pocket_docking_8.prm

>  <SCORE>
-17.6487

>  <SCORE.INTER>
-18.4582

>  <SCORE.INTER.CONST>
1

>  <SCORE.INTER.POLAR>
0

>  <SCORE.INTER.ROT>
2

>  <SCORE.INTER.SOLV>
20.2258

>  <SCORE.INTER.VDW>
-23.9808

>  <SCORE.INTER.norm>
-0.401266

>  <SCORE.INTRA>
0.809515

>  <SCORE.INTRA.DIHEDRAL>
0.0304375

>  <SCORE.INTRA.DIHEDRAL.0>
2.42188

>  <SCORE.INTRA.POLAR>
0

>  <SCORE.INTRA.POLAR.0>
0

>  <SCORE.INTRA.REPUL>
0

>  <SCORE.INTRA.REPUL.0>
0

>  <SCORE.INTRA.SOLV>
0.37709

>  <SCORE.INTRA.SOLV.lig_0>
-127.307

>  <SCORE.INTRA.VDW>
0.605751

>  <SCORE.INTRA.VDW.0>
-2.19936

>  <SCORE.INTRA.norm>
0.0175981

>  <SCORE.RESTR>
0

>  <SCORE.RESTR.CAVITY>
0

>  <SCORE.RESTR.norm>
0

>  <SCORE.SYSTEM>
0

>  <SCORE.SYSTEM.CONST>
0

>  <SCORE.SYSTEM.DIHEDRAL>
0

>  <SCORE.SYSTEM.SOLV>
0

>  <SCORE.SYSTEM.norm>
0

>  <SCORE.heavy>
46

>  <SCORE.norm>
-0.383668

>  <RMSD>
5.546

$$$$
ligand
 OpenBabel02271912143D
libRbt.so/2013.1/901 2013/11/27
 46 52  0  0  0  0  0  0  0  0999 V2000
  161.3152   46.4624  147.8351 P   0  0  1  0  0  0  0  0  0  0  0  0
  160.8888   44.6660  142.4479 P   0  0  1  0  0  0  0  0  0  0  0  0
  160.0236   46.4869  148.6112 O   0  5  0  0  0  0  0  0  0  0  0  0
  162.5849   46.7124  148.6193 O   0  0  0  0  0  0  0  0  0  0  0  0
  162.6038   44.3396  146.9226 C   0  0  0  0  0  0  0  0  0  0  0  0
  161.3916   45.0752  147.0259 O   0  0  0  0  0  0  0  0  0  0  0  0
  162.4959   43.3139  145.8063 C   0  0  1  0  0  0  0  0  0  0  0  0
  162.2878   42.0397  146.3988 O   0  0  0  0  0  0  0  0  0  0  0  0
  161.3464   43.5218  144.8284 C   0  0  1  0  0  0  0  0  0  0  0  0
  161.8444   44.0621  143.6133 O   0  0  0  0  0  0  0  0  0  0  0  0
  160.8597   42.1167  144.5530 C   0  0  1  0  0  0  0  0  0  0  0  0
  161.5667   41.5745  143.4357 O   0  0  0  0  0  0  0  0  0  0  0  0
  161.2569   41.3079  145.7536 C   0  0  2  0  0  0  0  0  0  0  0  0
  158.1435   48.6170  144.9468 C   0  0  1  0  0  0  0  0  0  0  0  0
  159.6666   41.0152  150.7467 N   0  0  0  0  0  0  0  0  0  0  0  0
  160.9102   41.0874  150.2357 C   0  0  1  0  0  0  0  0  0  0  0  0
  158.8607   48.1708  146.2037 C   0  0  2  0  0  0  0  0  0  0  0  0
  161.9673   41.0910  151.0781 N   0  0  0  0  0  0  0  0  0  0  0  0
  159.2414   49.3481  146.9213 O   0  0  0  0  0  0  0  0  0  0  0  0
  160.0839   47.4133  145.7219 C   0  0  2  0  0  0  0  0  0  0  0  0
  161.1705   41.1543  148.9103 N   0  0  0  0  0  0  0  0  0  0  0  0
  161.1704   47.5338  146.6391 O   0  0  0  0  0  0  0  0  0  0  0  0
  160.1686   41.1521  148.0053 C   0  0  2  0  0  0  0  0  0  0  0  0
  160.3778   48.0883  144.3841 C   0  0  2  0  0  0  0  0  0  0  0  0
  159.1493   48.6613  143.9311 O   0  0  0  0  0  0  0  0  0  0  0  0
  158.7875   41.0737  148.4912 C   0  0  2  0  0  0  0  0  0  0  0  0
  160.9355   47.1624  143.2985 C   0  0  0  0  0  0  0  0  0  0  0  0
  160.2127   45.9378  143.1792 O   0  0  0  0  0  0  0  0  0  0  0  0
  158.5793   41.0032  149.9567 C   0  0  0  0  0  0  0  0  0  0  0  0
  157.4186   40.9375  150.4283 O   0  0  0  0  0  0  0  0  0  0  0  0
  158.0055   41.0830  147.3970 N   0  0  0  0  0  0  0  0  0  0  0  0
  158.8080   41.1624  146.3085 C   0  0  0  0  0  0  0  0  0  0  0  0
  160.1007   41.2046  146.6752 N   0  0  1  0  0  0  0  0  0  0  0  0
  155.0204   44.7007  146.5424 N   0  0  0  0  0  0  0  0  0  0  0  0
  161.8189   45.1525  141.3524 O   0  5  0  0  0  0  0  0  0  0  0  0
  155.8718   45.4633  147.2455 C   0  0  2  0  0  0  0  0  0  0  0  0
  155.9718   45.2250  148.5618 N   0  0  0  0  0  0  0  0  0  0  0  0
  159.7875   43.6782  142.1487 O   0  0  0  0  0  0  0  0  0  0  0  0
  156.6206   46.4495  146.6988 N   0  0  0  0  0  0  0  0  0  0  0  0
  156.5427   46.7216  145.3793 C   0  0  1  0  0  0  0  0  0  0  0  0
  155.6240   45.9163  144.5497 C   0  0  1  0  0  0  0  0  0  0  0  0
  154.8325   44.8606  145.2314 C   0  0  0  0  0  0  0  0  0  0  0  0
  154.0326   44.1223  144.6173 O   0  0  0  0  0  0  0  0  0  0  0  0
  155.7326   46.3880  143.2975 N   0  0  0  0  0  0  0  0  0  0  0  0
  156.6445   47.3994  143.3274 C   0  0  0  0  0  0  0  0  0  0  0  0
  157.1279   47.6031  144.5689 N   0  0  2  0  0  0  0  0  0  0  0  0
  1  3  1  1  0  0  0
  1  4  2  0  0  0  0
  1  6  1  0  0  0  0
  1 22  1  0  0  0  0
  2 28  1  0  0  0  0
  2 35  1  6  0  0  0
  2 38  2  0  0  0  0
  2 10  1  0  0  0  0
  5  6  1  0  0  0  0
  7  5  1  1  0  0  0
  7  8  1  0  0  0  0
  7  9  1  0  0  0  0
  9 10  1  6  0  0  0
  9 11  1  0  0  0  0
 11 12  1  6  0  0  0
 11 13  1  0  0  0  0
 13  8  1  1  0  0  0
 13 33  1  0  0  0  0
 14 46  1  0  0  0  0
 14 17  1  0  0  0  0
 14 25  1  6  0  0  0
 15 16  1  0  0  0  0
 15 29  1  0  0  0  0
 16 18  1  6  0  0  0
 16 21  1  0  0  0  0
 17 19  1  1  0  0  0
 17 20  1  0  0  0  0
 20 22  1  1  0  0  0
 20 24  1  0  0  0  0
 23 21  1  6  0  0  0
 23 26  1  0  0  0  0
 23 33  1  0  0  0  0
 24 25  1  6  0  0  0
 24 27  1  0  0  0  0
 26 29  1  6  0  0  0
 26 31  1  0  0  0  0
 27 28  1  0  0  0  0
 29 30  2  0  0  0  0
 31 32  1  0  0  0  0
 33 32  1  1  0  0  0
 34 36  1  0  0  0  0
 34 42  1  0  0  0  0
 36 37  1  1  0  0  0
 36 39  1  0  0  0  0
 40 39  1  1  0  0  0
 40 41  1  0  0  0  0
 40 46  1  0  0  0  0
 41 42  1  1  0  0  0
 41 44  1  0  0  0  0
 42 43  2  0  0  0  0
 44 45  1  0  0  0  0
 46 45  1  6  0  0  0
M  CHG  2   3  -1  35  -1
M  END
>  <CHROM.1>
-31.37050972,23.82341643,159.50350041,44.62112823,146.06001520,-1.30192586
0.36439594,-0.77526412

>  <Name>
ligand

>  <RI>
0

>  <Rbt.Current_Directory>
/home/itssahil/PROJECTS/Mol_Feturizer/Test_systems_manuscript/rnas/4yb0

>  <Rbt.Executable>
rbdock ($Id: //depot/dev/client3/rdock/2013.1/src/exe/rbdock.cxx#4 $)

>  <Rbt.Library>
libRbt.so (2013.1, Build901 2013/11/27)

>  <Rbt.Parameter_File>
/export/apps/rDock/src/rDock_2013.1_src/data/scripts/dock_solv.prm

>  <Rbt.Receptor>
prm/pocket_docking_6.prm

>  <SCORE>
-17.6109

>  <SCORE.INTER>
-18.503

>  <SCORE.INTER.CONST>
1

>  <SCORE.INTER.POLAR>
0

>  <SCORE.INTER.ROT>
2

>  <SCORE.INTER.SOLV>
19.5649

>  <SCORE.INTER.VDW>
-23.7903

>  <SCORE.INTER.norm>
-0.402239

>  <SCORE.INTRA>
0.892078

>  <SCORE.INTRA.DIHEDRAL>
0.0296574

>  <SCORE.INTRA.DIHEDRAL.0>
2.42188

>  <SCORE.INTRA.POLAR>
0

>  <SCORE.INTRA.POLAR.0>
0

>  <SCORE.INTRA.REPUL>
0

>  <SCORE.INTRA.REPUL.0>
0

>  <SCORE.INTRA.SOLV>
0.504991

>  <SCORE.INTRA.SOLV.lig_0>
-127.307

>  <SCORE.INTRA.VDW>
0.624754

>  <SCORE.INTRA.VDW.0>
-2.19936

>  <SCORE.INTRA.norm>
0.019393

>  <SCORE.RESTR>
0

>  <SCORE.RESTR.CAVITY>
0

>  <SCORE.RESTR.norm>
0

>  <SCORE.SYSTEM>
0

>  <SCORE.SYSTEM.CONST>
0

>  <SCORE.SYSTEM.DIHEDRAL>
0

>  <SCORE.SYSTEM.SOLV>
0

>  <SCORE.SYSTEM.norm>
0

>  <SCORE.heavy>
46

>  <SCORE.norm>
-0.382846

>  <RMSD>
5.550

$$$$
ligand
 OpenBabel02271912143D
libRbt.so/2013.1/901 2013/11/27
 46 52  0  0  0  0  0  0  0  0999 V2000
  161.3285   46.4709  147.8245 P   0  0  1  0  0  0  0  0  0  0  0  0
  160.8210   44.6615  142.4487 P   0  0  1  0  0  0  0  0  0  0  0  0
  160.0489   46.4967  148.6201 O   0  5  0  0  0  0  0  0  0  0  0  0
  162.6099   46.7232  148.5887 O   0  0  0  0  0  0  0  0  0  0  0  0
  162.6039   44.3464  146.8975 C   0  0  0  0  0  0  0  0  0  0  0  0
  161.3932   45.0818  147.0175 O   0  0  0  0  0  0  0  0  0  0  0  0
  162.4796   43.3180  145.7855 C   0  0  1  0  0  0  0  0  0  0  0  0
  162.2810   42.0451  146.3841 O   0  0  0  0  0  0  0  0  0  0  0  0
  161.3152   43.5231  144.8247 C   0  0  1  0  0  0  0  0  0  0  0  0
  161.7945   44.0608  143.6009 O   0  0  0  0  0  0  0  0  0  0  0  0
  160.8250   42.1172  144.5600 C   0  0  1  0  0  0  0  0  0  0  0  0
  161.5151   41.5726  143.4334 O   0  0  0  0  0  0  0  0  0  0  0  0
  161.2407   41.3114  145.7563 C   0  0  2  0  0  0  0  0  0  0  0  0
  158.1124   48.6174  144.9796 C   0  0  1  0  0  0  0  0  0  0  0  0
  159.7150   41.1855  150.7766 N   0  0  0  0  0  0  0  0  0  0  0  0
  160.9499   41.2770  150.2477 C   0  0  1  0  0  0  0  0  0  0  0  0
  158.8489   48.1745  146.2266 C   0  0  2  0  0  0  0  0  0  0  0  0
  162.0153   41.3534  151.0762 N   0  0  0  0  0  0  0  0  0  0  0  0
  159.2399   49.3536  146.9355 O   0  0  0  0  0  0  0  0  0  0  0  0
  160.0649   47.4163  145.7281 C   0  0  2  0  0  0  0  0  0  0  0  0
  161.1935   41.2942  148.9176 N   0  0  0  0  0  0  0  0  0  0  0  0
  161.1651   47.5393  146.6283 O   0  0  0  0  0  0  0  0  0  0  0  0
  160.1826   41.2184  148.0258 C   0  0  2  0  0  0  0  0  0  0  0  0
  160.3382   48.0882  144.3843 C   0  0  2  0  0  0  0  0  0  0  0  0
  159.1027   48.6597  143.9487 O   0  0  0  0  0  0  0  0  0  0  0  0
  158.8102   41.1149  148.5316 C   0  0  2  0  0  0  0  0  0  0  0  0
  160.8797   47.1600  143.2926 C   0  0  0  0  0  0  0  0  0  0  0  0
  160.1556   45.9348  143.1871 O   0  0  0  0  0  0  0  0  0  0  0  0
  158.6203   41.1021  150.0012 C   0  0  0  0  0  0  0  0  0  0  0  0
  157.4677   41.0181  150.4894 O   0  0  0  0  0  0  0  0  0  0  0  0
  158.0167   41.0495  147.4477 N   0  0  0  0  0  0  0  0  0  0  0  0
  158.8043   41.1079  146.3470 C   0  0  0  0  0  0  0  0  0  0  0  0
  160.0987   41.2098  146.6956 N   0  0  1  0  0  0  0  0  0  0  0  0
  154.9845   44.7320  146.6401 N   0  0  0  0  0  0  0  0  0  0  0  0
  161.7342   45.1457  141.3381 O   0  5  0  0  0  0  0  0  0  0  0  0
  155.8420   45.5005  147.3293 C   0  0  2  0  0  0  0  0  0  0  0  0
  155.9479   45.2785  148.6479 N   0  0  0  0  0  0  0  0  0  0  0  0
  159.7157   43.6726  142.1686 O   0  0  0  0  0  0  0  0  0  0  0  0
  156.5913   46.4772  146.7664 N   0  0  0  0  0  0  0  0  0  0  0  0
  156.5076   46.7329  145.4440 C   0  0  1  0  0  0  0  0  0  0  0  0
  155.5821   45.9204  144.6292 C   0  0  1  0  0  0  0  0  0  0  0  0
  154.7906   44.8760  145.3281 C   0  0  0  0  0  0  0  0  0  0  0  0
  153.9852   44.1327  144.7274 O   0  0  0  0  0  0  0  0  0  0  0  0
  155.6859   46.3760  143.3707 N   0  0  0  0  0  0  0  0  0  0  0  0
  156.6013   47.3845  143.3832 C   0  0  0  0  0  0  0  0  0  0  0  0
  157.0916   47.6023  144.6197 N   0  0  2  0  0  0  0  0  0  0  0  0
  1  3  1  1  0  0  0
  1  4  2  0  0  0  0
  1  6  1  0  0  0  0
  1 22  1  0  0  0  0
  2 28  1  0  0  0  0
  2 35  1  6  0  0  0
  2 38  2  0  0  0  0
  2 10  1  0  0  0  0
  5  6  1  0  0  0  0
  7  5  1  1  0  0  0
  7  8  1  0  0  0  0
  7  9  1  0  0  0  0
  9 10  1  6  0  0  0
  9 11  1  0  0  0  0
 11 12  1  6  0  0  0
 11 13  1  0  0  0  0
 13  8  1  1  0  0  0
 13 33  1  0  0  0  0
 14 46  1  0  0  0  0
 14 17  1  0  0  0  0
 14 25  1  6  0  0  0
 15 16  1  0  0  0  0
 15 29  1  0  0  0  0
 16 18  1  1  0  0  0
 16 21  1  0  0  0  0
 17 19  1  6  0  0  0
 17 20  1  0  0  0  0
 20 22  1  1  0  0  0
 20 24  1  0  0  0  0
 23 21  1  1  0  0  0
 23 26  1  0  0  0  0
 23 33  1  0  0  0  0
 24 25  1  6  0  0  0
 24 27  1  0  0  0  0
 26 29  1  1  0  0  0
 26 31  1  0  0  0  0
 27 28  1  0  0  0  0
 29 30  2  0  0  0  0
 31 32  1  0  0  0  0
 33 32  1  6  0  0  0
 34 36  1  0  0  0  0
 34 42  1  0  0  0  0
 36 37  1  1  0  0  0
 36 39  1  0  0  0  0
 40 39  1  1  0  0  0
 40 41  1  0  0  0  0
 40 46  1  0  0  0  0
 41 42  1  1  0  0  0
 41 44  1  0  0  0  0
 42 43  2  0  0  0  0
 44 45  1  0  0  0  0
 46 45  1  6  0  0  0
M  CHG  2   3  -1  35  -1
M  END
>  <CHROM.1>
-28.30238478,24.67638084,159.48614689,44.64469973,146.08273425,-1.28239098
0.38094619,-0.79428248

>  <Name>
ligand

>  <RI>
0

>  <Rbt.Current_Directory>
/home/itssahil/PROJECTS/Mol_Feturizer/Test_systems_manuscript/rnas/4yb0

>  <Rbt.Executable>
rbdock ($Id: //depot/dev/client3/rdock/2013.1/src/exe/rbdock.cxx#4 $)

>  <Rbt.Library>
libRbt.so (2013.1, Build901 2013/11/27)

>  <Rbt.Parameter_File>
/export/apps/rDock/src/rDock_2013.1_src/data/scripts/dock_solv.prm

>  <Rbt.Receptor>
prm/pocket_docking_7.prm

>  <SCORE>
-17.5413

>  <SCORE.INTER>
-18.3417

>  <SCORE.INTER.CONST>
1

>  <SCORE.INTER.POLAR>
0

>  <SCORE.INTER.ROT>
2

>  <SCORE.INTER.SOLV>
19.6727

>  <SCORE.INTER.VDW>
-23.7187

>  <SCORE.INTER.norm>
-0.398733

>  <SCORE.INTRA>
0.800426

>  <SCORE.INTRA.DIHEDRAL>
0.0300624

>  <SCORE.INTRA.DIHEDRAL.0>
2.42188

>  <SCORE.INTRA.POLAR>
0

>  <SCORE.INTRA.POLAR.0>
0

>  <SCORE.INTRA.REPUL>
0

>  <SCORE.INTRA.REPUL.0>
0

>  <SCORE.INTRA.SOLV>
0.45225

>  <SCORE.INTRA.SOLV.lig_0>
-127.307

>  <SCORE.INTRA.VDW>
0.55927

>  <SCORE.INTRA.VDW.0>
-2.19936

>  <SCORE.INTRA.norm>
0.0174006

>  <SCORE.RESTR>
0

>  <SCORE.RESTR.CAVITY>
0

>  <SCORE.RESTR.norm>
0

>  <SCORE.SYSTEM>
0

>  <SCORE.SYSTEM.CONST>
0

>  <SCORE.SYSTEM.DIHEDRAL>
0

>  <SCORE.SYSTEM.SOLV>
0

>  <SCORE.SYSTEM.norm>
0

>  <SCORE.heavy>
46

>  <SCORE.norm>
-0.381332

>  <RMSD>
5.560

$$$$
ligand
 OpenBabel02271912143D
libRbt.so/2013.1/901 2013/11/27
 46 52  0  0  0  0  0  0  0  0999 V2000
  161.3119   46.4033  147.8430 P   0  0  1  0  0  0  0  0  0  0  0  0
  160.8366   44.5478  142.4799 P   0  0  1  0  0  0  0  0  0  0  0  0
  160.0232   46.4612  148.6222 O   0  5  0  0  0  0  0  0  0  0  0  0
  162.5882   46.6396  148.6205 O   0  0  0  0  0  0  0  0  0  0  0  0
  162.5584   44.2458  146.9537 C   0  0  0  0  0  0  0  0  0  0  0  0
  161.3603   45.0049  147.0510 O   0  0  0  0  0  0  0  0  0  0  0  0
  162.4284   43.2084  145.8507 C   0  0  1  0  0  0  0  0  0  0  0  0
  162.1986   41.9458  146.4597 O   0  0  0  0  0  0  0  0  0  0  0  0
  161.2800   43.4252  144.8734 C   0  0  1  0  0  0  0  0  0  0  0  0
  161.7843   43.9410  143.6503 O   0  0  0  0  0  0  0  0  0  0  0  0
  160.7668   42.0260  144.6169 C   0  0  1  0  0  0  0  0  0  0  0  0
  161.4603   41.4569  143.5047 O   0  0  0  0  0  0  0  0  0  0  0  0
  161.1525   41.2250  145.8265 C   0  0  2  0  0  0  0  0  0  0  0  0
  158.1719   48.5797  144.9364 C   0  0  1  0  0  0  0  0  0  0  0  0
  159.5725   41.0012  150.8265 N   0  0  0  0  0  0  0  0  0  0  0  0
  160.8157   41.0411  150.3110 C   0  0  1  0  0  0  0  0  0  0  0  0
  158.8845   48.1362  146.1970 C   0  0  2  0  0  0  0  0  0  0  0  0
  161.8755   41.0253  151.1500 N   0  0  0  0  0  0  0  0  0  0  0  0
  159.2889   49.3151  146.8987 O   0  0  0  0  0  0  0  0  0  0  0  0
  160.0921   47.3502  145.7214 C   0  0  2  0  0  0  0  0  0  0  0  0
  161.0731   41.0936  148.9844 N   0  0  0  0  0  0  0  0  0  0  0  0
  161.1833   47.4621  146.6340 O   0  0  0  0  0  0  0  0  0  0  0  0
  160.0684   41.1091  148.0826 C   0  0  2  0  0  0  0  0  0  0  0  0
  160.3945   48.0029  144.3744 C   0  0  2  0  0  0  0  0  0  0  0  0
  159.1754   48.5928  143.9176 O   0  0  0  0  0  0  0  0  0  0  0  0
  158.6874   41.0660  148.5735 C   0  0  2  0  0  0  0  0  0  0  0  0
  160.9318   47.0534  143.2990 C   0  0  0  0  0  0  0  0  0  0  0  0
  160.1862   45.8409  143.1970 O   0  0  0  0  0  0  0  0  0  0  0  0
  158.4826   41.0097  150.0401 C   0  0  0  0  0  0  0  0  0  0  0  0
  157.3222   40.9741  150.5158 O   0  0  0  0  0  0  0  0  0  0  0  0
  157.9022   41.0866  147.4818 N   0  0  0  0  0  0  0  0  0  0  0  0
  158.7027   41.1404  146.3902 C   0  0  0  0  0  0  0  0  0  0  0  0
  159.9973   41.1547  146.7524 N   0  0  1  0  0  0  0  0  0  0  0  0
  155.0075   44.7179  146.5827 N   0  0  0  0  0  0  0  0  0  0  0  0
  161.7723   45.0033  141.3759 O   0  5  0  0  0  0  0  0  0  0  0  0
  155.8785   45.4700  147.2731 C   0  0  2  0  0  0  0  0  0  0  0  0
  155.9897   45.2352  148.5891 N   0  0  0  0  0  0  0  0  0  0  0  0
  159.7164   43.5768  142.1961 O   0  0  0  0  0  0  0  0  0  0  0  0
  156.6360   46.4425  146.7141 N   0  0  0  0  0  0  0  0  0  0  0  0
  156.5473   46.7108  145.3945 C   0  0  1  0  0  0  0  0  0  0  0  0
  155.6070   45.9166  144.5785 C   0  0  1  0  0  0  0  0  0  0  0  0
  154.8073   44.8757  145.2733 C   0  0  0  0  0  0  0  0  0  0  0  0
  153.9893   44.1475  144.6712 O   0  0  0  0  0  0  0  0  0  0  0  0
  155.7086   46.3818  143.3233 N   0  0  0  0  0  0  0  0  0  0  0  0
  156.6362   47.3791  143.3389 C   0  0  0  0  0  0  0  0  0  0  0  0
  157.1367   47.5802  144.5741 N   0  0  2  0  0  0  0  0  0  0  0  0
  1  3  1  1  0  0  0
  1  4  2  0  0  0  0
  1  6  1  0  0  0  0
  1 22  1  0  0  0  0
  2 28  1  0  0  0  0
  2 35  1  6  0  0  0
  2 38  2  0  0  0  0
  2 10  1  0  0  0  0
  5  6  1  0  0  0  0
  7  5  1  1  0  0  0
  7  8  1  0  0  0  0
  7  9  1  0  0  0  0
  9 10  1  6  0  0  0
  9 11  1  0  0  0  0
 11 12  1  6  0  0  0
 11 13  1  0  0  0  0
 13  8  1  1  0  0  0
 13 33  1  0  0  0  0
 14 46  1  0  0  0  0
 14 17  1  0  0  0  0
 14 25  1  6  0  0  0
 15 16  1  0  0  0  0
 15 29  1  0  0  0  0
 16 18  1  6  0  0  0
 16 21  1  0  0  0  0
 17 19  1  6  0  0  0
 17 20  1  0  0  0  0
 20 22  1  1  0  0  0
 20 24  1  0  0  0  0
 23 21  1  6  0  0  0
 23 26  1  0  0  0  0
 23 33  1  0  0  0  0
 24 25  1  6  0  0  0
 24 27  1  0  0  0  0
 26 29  1  6  0  0  0
 26 31  1  0  0  0  0
 27 28  1  0  0  0  0
 29 30  2  0  0  0  0
 31 32  1  0  0  0  0
 33 32  1  1  0  0  0
 34 36  1  0  0  0  0
 34 42  1  0  0  0  0
 36 37  1  1  0  0  0
 36 39  1  0  0  0  0
 40 39  1  1  0  0  0
 40 41  1  0  0  0  0
 40 46  1  0  0  0  0
 41 42  1  1  0  0  0
 41 44  1  0  0  0  0
 42 43  2  0  0  0  0
 44 45  1  0  0  0  0
 46 45  1  6  0  0  0
M  CHG  2   3  -1  35  -1
M  END
>  <CHROM.1>
-31.82279808,23.10621331,159.46420888,44.56855936,146.09523476,-1.31774605
0.37650599,-0.78107588

>  <Name>
ligand

>  <RI>
0

>  <Rbt.Current_Directory>
/home/itssahil/PROJECTS/Mol_Feturizer/Test_systems_manuscript/rnas/4yb0

>  <Rbt.Executable>
rbdock ($Id: //depot/dev/client3/rdock/2013.1/src/exe/rbdock.cxx#4 $)

>  <Rbt.Library>
libRbt.so (2013.1, Build901 2013/11/27)

>  <Rbt.Parameter_File>
/export/apps/rDock/src/rDock_2013.1_src/data/scripts/dock_solv.prm

>  <Rbt.Receptor>
prm/pocket_docking_8.prm

>  <SCORE>
-17.6738

>  <SCORE.INTER>
-18.6062

>  <SCORE.INTER.CONST>
1

>  <SCORE.INTER.POLAR>
0

>  <SCORE.INTER.ROT>
2

>  <SCORE.INTER.SOLV>
19.539

>  <SCORE.INTER.VDW>
-23.8505

>  <SCORE.INTER.norm>
-0.404484

>  <SCORE.INTRA>
0.932455

>  <SCORE.INTRA.DIHEDRAL>
0.0292504

>  <SCORE.INTRA.DIHEDRAL.0>
2.42188

>  <SCORE.INTRA.POLAR>
0

>  <SCORE.INTRA.POLAR.0>
0

>  <SCORE.INTRA.REPUL>
0

>  <SCORE.INTRA.REPUL.0>
0

>  <SCORE.INTRA.SOLV>
0.550823

>  <SCORE.INTRA.SOLV.lig_0>
-127.307

>  <SCORE.INTRA.VDW>
0.642418

>  <SCORE.INTRA.VDW.0>
-2.19936

>  <SCORE.INTRA.norm>
0.0202708

>  <SCORE.RESTR>
0

>  <SCORE.RESTR.CAVITY>
0

>  <SCORE.RESTR.norm>
0

>  <SCORE.SYSTEM>
0

>  <SCORE.SYSTEM.CONST>
0

>  <SCORE.SYSTEM.DIHEDRAL>
0

>  <SCORE.SYSTEM.SOLV>
0

>  <SCORE.SYSTEM.norm>
0

>  <SCORE.heavy>
46

>  <SCORE.norm>
-0.384213

>  <RMSD>
5.569

$$$$
ligand
 OpenBabel02271912143D
libRbt.so/2013.1/901 2013/11/27
 46 52  0  0  0  0  0  0  0  0999 V2000
  161.3138   46.4016  147.8383 P   0  0  1  0  0  0  0  0  0  0  0  0
  160.8126   44.5367  142.4809 P   0  0  1  0  0  0  0  0  0  0  0  0
  160.0297   46.4565  148.6251 O   0  5  0  0  0  0  0  0  0  0  0  0
  162.5941   46.6431  148.6079 O   0  0  0  0  0  0  0  0  0  0  0  0
  162.5619   44.2468  146.9447 C   0  0  0  0  0  0  0  0  0  0  0  0
  161.3620   45.0022  147.0481 O   0  0  0  0  0  0  0  0  0  0  0  0
  162.4287   43.2073  145.8440 C   0  0  1  0  0  0  0  0  0  0  0  0
  162.2066   41.9449  146.4563 O   0  0  0  0  0  0  0  0  0  0  0  0
  161.2739   43.4190  144.8733 C   0  0  1  0  0  0  0  0  0  0  0  0
  161.7692   43.9347  143.6464 O   0  0  0  0  0  0  0  0  0  0  0  0
  160.7636   42.0178  144.6219 C   0  0  1  0  0  0  0  0  0  0  0  0
  161.4523   41.4493  143.5064 O   0  0  0  0  0  0  0  0  0  0  0  0
  161.1591   41.2199  145.8303 C   0  0  2  0  0  0  0  0  0  0  0  0
  158.1497   48.5637  144.9473 C   0  0  1  0  0  0  0  0  0  0  0  0
  159.6089   41.0174  150.8406 N   0  0  0  0  0  0  0  0  0  0  0  0
  160.8489   41.0629  150.3178 C   0  0  1  0  0  0  0  0  0  0  0  0
  158.8712   48.1242  146.2042 C   0  0  2  0  0  0  0  0  0  0  0  0
  161.9134   41.0604  151.1508 N   0  0  0  0  0  0  0  0  0  0  0  0
  159.2760   49.3055  146.9018 O   0  0  0  0  0  0  0  0  0  0  0  0
  160.0784   47.3415  145.7226 C   0  0  2  0  0  0  0  0  0  0  0  0
  161.0984   41.1086  148.9894 N   0  0  0  0  0  0  0  0  0  0  0  0
  161.1747   47.4582  146.6285 O   0  0  0  0  0  0  0  0  0  0  0  0
  160.0885   41.1108  148.0933 C   0  0  2  0  0  0  0  0  0  0  0  0
  160.3707   47.9932  144.3729 C   0  0  2  0  0  0  0  0  0  0  0  0
  159.1470   48.5785  143.9225 O   0  0  0  0  0  0  0  0  0  0  0  0
  158.7107   41.0610  148.5922 C   0  0  2  0  0  0  0  0  0  0  0  0
  160.9046   47.0438  143.2958 C   0  0  0  0  0  0  0  0  0  0  0  0
  160.1623   45.8288  143.1999 O   0  0  0  0  0  0  0  0  0  0  0  0
  158.5145   41.0128  150.0603 C   0  0  0  0  0  0  0  0  0  0  0  0
  157.3571   40.9719  150.5428 O   0  0  0  0  0  0  0  0  0  0  0  0
  157.9193   41.0687  147.5048 N   0  0  0  0  0  0  0  0  0  0  0  0
  158.7132   41.1211  146.4084 C   0  0  0  0  0  0  0  0  0  0  0  0
  160.0096   41.1472  146.7632 N   0  0  1  0  0  0  0  0  0  0  0  0
  154.9646   44.7344  146.6295 N   0  0  0  0  0  0  0  0  0  0  0  0
  161.7402   44.9936  141.3706 O   0  5  0  0  0  0  0  0  0  0  0  0
  155.8314   45.4959  147.3148 C   0  0  2  0  0  0  0  0  0  0  0  0
  155.9315   45.2821  148.6352 N   0  0  0  0  0  0  0  0  0  0  0  0
  159.6938   43.5617  142.2051 O   0  0  0  0  0  0  0  0  0  0  0  0
  156.5953   46.4580  146.7465 N   0  0  0  0  0  0  0  0  0  0  0  0
  156.5178   46.7052  145.4220 C   0  0  1  0  0  0  0  0  0  0  0  0
  155.5827   45.8997  144.6112 C   0  0  1  0  0  0  0  0  0  0  0  0
  154.7754   44.8715  145.3161 C   0  0  0  0  0  0  0  0  0  0  0  0
  153.9609   44.1352  144.7191 O   0  0  0  0  0  0  0  0  0  0  0  0
  155.6954   46.3446  143.3496 N   0  0  0  0  0  0  0  0  0  0  0  0
  156.6247   47.3404  143.3568 C   0  0  0  0  0  0  0  0  0  0  0  0
  157.1155   47.5603  144.5926 N   0  0  2  0  0  0  0  0  0  0  0  0
  1  3  1  1  0  0  0
  1  4  2  0  0  0  0
  1  6  1  0  0  0  0
  1 22  1  0  0  0  0
  2 28  1  0  0  0  0
  2 35  1  6  0  0  0
  2 38  2  0  0  0  0
  2 10  1  0  0  0  0
  5  6  1  0  0  0  0
  7  5  1  1  0  0  0
  7  8  1  0  0  0  0
  7  9  1  0  0  0  0
  9 10  1  6  0  0  0
  9 11  1  0  0  0  0
 11 12  1  6  0  0  0
 11 13  1  0  0  0  0
 13  8  1  1  0  0  0
 13 33  1  0  0  0  0
 14 46  1  0  0  0  0
 14 17  1  0  0  0  0
 14 25  1  6  0  0  0
 15 16  1  0  0  0  0
 15 29  1  0  0  0  0
 16 18  1  6  0  0  0
 16 21  1  0  0  0  0
 17 19  1  6  0  0  0
 17 20  1  0  0  0  0
 20 22  1  1  0  0  0
 20 24  1  0  0  0  0
 23 21  1  6  0  0  0
 23 26  1  0  0  0  0
 23 33  1  0  0  0  0
 24 25  1  6  0  0  0
 24 27  1  0  0  0  0
 26 29  1  6  0  0  0
 26 31  1  0  0  0  0
 27 28  1  0  0  0  0
 29 30  2  0  0  0  0
 31 32  1  0  0  0  0
 33 32  1  1  0  0  0
 34 36  1  0  0  0  0
 34 42  1  0  0  0  0
 36 37  1  1  0  0  0
 36 39  1  0  0  0  0
 40 39  1  1  0  0  0
 40 41  1  0  0  0  0
 40 46  1  0  0  0  0
 41 42  1  1  0  0  0
 41 44  1  0  0  0  0
 42 43  2  0  0  0  0
 44 45  1  0  0  0  0
 46 45  1  6  0  0  0
M  CHG  2   3  -1  35  -1
M  END
>  <CHROM.1>
-31.44853018,24.30331061,159.45693907,44.56482463,146.10557206,-1.30471760
0.38275872,-0.78760521

>  <Name>
ligand

>  <RI>
0

>  <Rbt.Current_Directory>
/home/itssahil/PROJECTS/Mol_Feturizer/Test_systems_manuscript/rnas/4yb0

>  <Rbt.Executable>
rbdock ($Id: //depot/dev/client3/rdock/2013.1/src/exe/rbdock.cxx#4 $)

>  <Rbt.Library>
libRbt.so (2013.1, Build901 2013/11/27)

>  <Rbt.Parameter_File>
/export/apps/rDock/src/rDock_2013.1_src/data/scripts/dock_solv.prm

>  <Rbt.Receptor>
prm/pocket_docking_7.prm

>  <SCORE>
-17.5823

>  <SCORE.INTER>
-18.4698

>  <SCORE.INTER.CONST>
1

>  <SCORE.INTER.POLAR>
0

>  <SCORE.INTER.ROT>
2

>  <SCORE.INTER.SOLV>
19.9796

>  <SCORE.INTER.VDW>
-23.9064

>  <SCORE.INTER.norm>
-0.401516

>  <SCORE.INTRA>
0.887439

>  <SCORE.INTRA.DIHEDRAL>
0.0298611

>  <SCORE.INTRA.DIHEDRAL.0>
2.42188

>  <SCORE.INTRA.POLAR>
0

>  <SCORE.INTRA.POLAR.0>
0

>  <SCORE.INTRA.REPUL>
0

>  <SCORE.INTRA.REPUL.0>
0

>  <SCORE.INTRA.SOLV>
0.473442

>  <SCORE.INTRA.SOLV.lig_0>
-127.307

>  <SCORE.INTRA.VDW>
0.635787

>  <SCORE.INTRA.VDW.0>
-2.19936

>  <SCORE.INTRA.norm>
0.0192922

>  <SCORE.RESTR>
0

>  <SCORE.RESTR.CAVITY>
0

>  <SCORE.RESTR.norm>
0

>  <SCORE.SYSTEM>
0

>  <SCORE.SYSTEM.CONST>
0

>  <SCORE.SYSTEM.DIHEDRAL>
0

>  <SCORE.SYSTEM.SOLV>
0

>  <SCORE.SYSTEM.norm>
0

>  <SCORE.heavy>
46

>  <SCORE.norm>
-0.382224

>  <RMSD>
5.572

$$$$
ligand
 OpenBabel02271912143D
libRbt.so/2013.1/901 2013/11/27
 46 52  0  0  0  0  0  0  0  0999 V2000
  161.5657   47.4567  147.9712 P   0  0  1  0  0  0  0  0  0  0  0  0
  160.4099   47.0497  142.4098 P   0  0  1  0  0  0  0  0  0  0  0  0
  160.5356   46.8521  148.8901 O   0  5  0  0  0  0  0  0  0  0  0  0
  162.8630   47.9074  148.6063 O   0  0  0  0  0  0  0  0  0  0  0  0
  163.1416   46.1891  146.2656 C   0  0  0  0  0  0  0  0  0  0  0  0
  161.8321   46.4275  146.7650 O   0  0  0  0  0  0  0  0  0  0  0  0
  163.0647   45.5047  144.9107 C   0  0  1  0  0  0  0  0  0  0  0  0
  163.3612   44.1279  145.0963 O   0  0  0  0  0  0  0  0  0  0  0  0
  161.7077   45.5590  144.2206 C   0  0  1  0  0  0  0  0  0  0  0  0
  161.7394   46.5238  143.1791 O   0  0  0  0  0  0  0  0  0  0  0  0
  161.5784   44.1908  143.5895 C   0  0  1  0  0  0  0  0  0  0  0  0
  162.1272   44.2170  142.2704 O   0  0  0  0  0  0  0  0  0  0  0  0
  162.4522   43.2838  144.4065 C   0  0  2  0  0  0  0  0  0  0  0  0
  157.3398   49.0904  146.3848 C   0  0  1  0  0  0  0  0  0  0  0  0
  161.9452   41.7995  149.4151 N   0  0  0  0  0  0  0  0  0  0  0  0
  162.9342   42.4836  148.8093 C   0  0  1  0  0  0  0  0  0  0  0  0
  158.4247   48.6051  147.3233 C   0  0  2  0  0  0  0  0  0  0  0  0
  163.9973   42.8868  149.5404 N   0  0  0  0  0  0  0  0  0  0  0  0
  158.6212   49.6190  148.3129 O   0  0  0  0  0  0  0  0  0  0  0  0
  159.6624   48.4464  146.4601 C   0  0  2  0  0  0  0  0  0  0  0  0
  162.9304   42.7940  147.4931 N   0  0  0  0  0  0  0  0  0  0  0  0
  160.8557   48.6849  147.2053 O   0  0  0  0  0  0  0  0  0  0  0  0
  161.9058   42.4236  146.6957 C   0  0  2  0  0  0  0  0  0  0  0  0
  159.4380   49.4967  145.3745 C   0  0  2  0  0  0  0  0  0  0  0  0
  158.0286   49.7231  145.3030 O   0  0  0  0  0  0  0  0  0  0  0  0
  160.7941   41.6735  147.2884 C   0  0  2  0  0  0  0  0  0  0  0  0
  159.9611   49.1168  143.9858 C   0  0  0  0  0  0  0  0  0  0  0  0
  159.5982   47.7943  143.5913 O   0  0  0  0  0  0  0  0  0  0  0  0
  160.8672   41.3699  148.7371 C   0  0  0  0  0  0  0  0  0  0  0  0
  159.9426   40.7334  149.2974 O   0  0  0  0  0  0  0  0  0  0  0  0
  159.9298   41.4328  146.2865 N   0  0  0  0  0  0  0  0  0  0  0  0
  160.4365   41.9788  145.1550 C   0  0  0  0  0  0  0  0  0  0  0  0
  161.6175   42.5714  145.4028 N   0  0  1  0  0  0  0  0  0  0  0  0
  155.1823   44.4050  147.3997 N   0  0  0  0  0  0  0  0  0  0  0  0
  160.8873   48.0791  141.4025 O   0  5  0  0  0  0  0  0  0  0  0  0
  155.8320   45.2484  148.2167 C   0  0  2  0  0  0  0  0  0  0  0  0
  155.9743   44.8797  149.4985 N   0  0  0  0  0  0  0  0  0  0  0  0
  159.5867   45.8619  141.9744 O   0  0  0  0  0  0  0  0  0  0  0  0
  156.3397   46.4375  147.8160 N   0  0  0  0  0  0  0  0  0  0  0  0
  156.2111   46.8442  146.5357 C   0  0  1  0  0  0  0  0  0  0  0  0
  155.5066   45.9599  145.5857 C   0  0  1  0  0  0  0  0  0  0  0  0
  154.9723   44.6775  146.1108 C   0  0  0  0  0  0  0  0  0  0  0  0
  154.3666   43.8584  145.3867 O   0  0  0  0  0  0  0  0  0  0  0  0
  155.5136   46.5935  144.4022 N   0  0  0  0  0  0  0  0  0  0  0  0
  156.1702   47.7732  144.5824 C   0  0  0  0  0  0  0  0  0  0  0  0
  156.5853   47.9274  145.8553 N   0  0  2  0  0  0  0  0  0  0  0  0
  1  3  1  1  0  0  0
  1  4  2  0  0  0  0
  1  6  1  0  0  0  0
  1 22  1  0  0  0  0
  2 28  1  0  0  0  0
  2 35  1  6  0  0  0
  2 38  2  0  0  0  0
  2 10  1  0  0  0  0
  5  6  1  0  0  0  0
  7  5  1  1  0  0  0
  7  8  1  0  0  0  0
  7  9  1  0  0  0  0
  9 10  1  6  0  0  0
  9 11  1  0  0  0  0
 11 12  1  6  0  0  0
 11 13  1  0  0  0  0
 13  8  1  1  0  0  0
 13 33  1  0  0  0  0
 14 46  1  0  0  0  0
 14 17  1  0  0  0  0
 14 25  1  6  0  0  0
 15 16  1  0  0  0  0
 15 29  1  0  0  0  0
 16 18  1  6  0  0  0
 16 21  1  0  0  0  0
 17 19  1  1  0  0  0
 17 20  1  0  0  0  0
 20 22  1  1  0  0  0
 20 24  1  0  0  0  0
 23 21  1  6  0  0  0
 23 26  1  0  0  0  0
 23 33  1  0  0  0  0
 24 25  1  6  0  0  0
 24 27  1  0  0  0  0
 26 29  1  6  0  0  0
 26 31  1  0  0  0  0
 27 28  1  0  0  0  0
 29 30  2  0  0  0  0
 31 32  1  0  0  0  0
 33 32  1  1  0  0  0
 34 36  1  0  0  0  0
 34 42  1  0  0  0  0
 36 37  1  1  0  0  0
 36 39  1  0  0  0  0
 40 39  1  1  0  0  0
 40 41  1  0  0  0  0
 40 46  1  0  0  0  0
 41 42  1  1  0  0  0
 41 44  1  0  0  0  0
 42 43  2  0  0  0  0
 44 45  1  0  0  0  0
 46 45  1  6  0  0  0
M  CHG  2   3  -1  35  -1
M  END
>  <CHROM.1>
-18.28177716,40.40938470,159.86664431,45.72876622,146.03646594,-0.76482722
0.33919530,-0.67802443

>  <Name>
ligand

>  <RI>
0

>  <Rbt.Current_Directory>
/home/itssahil/PROJECTS/Mol_Feturizer/Test_systems_manuscript/rnas/4yb0

>  <Rbt.Executable>
rbdock ($Id: //depot/dev/client3/rdock/2013.1/src/exe/rbdock.cxx#4 $)

>  <Rbt.Library>
libRbt.so (2013.1, Build901 2013/11/27)

>  <Rbt.Parameter_File>
/export/apps/rDock/src/rDock_2013.1_src/data/scripts/dock_solv.prm

>  <Rbt.Receptor>
prm/pocket_docking_6.prm

>  <SCORE>
-19.6002

>  <SCORE.INTER>
-19.7447

>  <SCORE.INTER.CONST>
1

>  <SCORE.INTER.POLAR>
0

>  <SCORE.INTER.ROT>
2

>  <SCORE.INTER.SOLV>
17.9857

>  <SCORE.INTER.VDW>
-24.0917

>  <SCORE.INTER.norm>
-0.429232

>  <SCORE.INTRA>
0.144435

>  <SCORE.INTRA.DIHEDRAL>
0.0223876

>  <SCORE.INTRA.DIHEDRAL.0>
2.42188

>  <SCORE.INTRA.POLAR>
0

>  <SCORE.INTRA.POLAR.0>
0

>  <SCORE.INTRA.REPUL>
0

>  <SCORE.INTRA.REPUL.0>
0

>  <SCORE.INTRA.SOLV>
0.0718853

>  <SCORE.INTRA.SOLV.lig_0>
-127.307

>  <SCORE.INTRA.VDW>
0.0972983

>  <SCORE.INTRA.VDW.0>
-2.19936

>  <SCORE.INTRA.norm>
0.00313989

>  <SCORE.RESTR>
0

>  <SCORE.RESTR.CAVITY>
0

>  <SCORE.RESTR.norm>
0

>  <SCORE.SYSTEM>
0

>  <SCORE.SYSTEM.CONST>
0

>  <SCORE.SYSTEM.DIHEDRAL>
0

>  <SCORE.SYSTEM.SOLV>
0

>  <SCORE.SYSTEM.norm>
0

>  <SCORE.heavy>
46

>  <SCORE.norm>
-0.426092

>  <RMSD>
5.577

$$$$
ligand
 OpenBabel02271912143D
libRbt.so/2013.1/901 2013/11/27
 46 52  0  0  0  0  0  0  0  0999 V2000
  161.3546   46.4604  147.8747 P   0  0  1  0  0  0  0  0  0  0  0  0
  160.8561   44.6407  142.5015 P   0  0  1  0  0  0  0  0  0  0  0  0
  160.0737   46.4873  148.6682 O   0  5  0  0  0  0  0  0  0  0  0  0
  162.6347   46.7146  148.6405 O   0  0  0  0  0  0  0  0  0  0  0  0
  162.6320   44.3346  146.9538 C   0  0  0  0  0  0  0  0  0  0  0  0
  161.4209   45.0698  147.0705 O   0  0  0  0  0  0  0  0  0  0  0  0
  162.5097   43.3040  145.8435 C   0  0  1  0  0  0  0  0  0  0  0  0
  162.3106   42.0322  146.4442 O   0  0  0  0  0  0  0  0  0  0  0  0
  161.3469   43.5070  144.8805 C   0  0  1  0  0  0  0  0  0  0  0  0
  161.8279   44.0424  143.6564 O   0  0  0  0  0  0  0  0  0  0  0  0
  160.8575   42.1004  144.6177 C   0  0  1  0  0  0  0  0  0  0  0  0
  161.5495   41.5539  143.4932 O   0  0  0  0  0  0  0  0  0  0  0  0
  161.2715   41.2970  145.8162 C   0  0  2  0  0  0  0  0  0  0  0  0
  158.1424   48.6006  145.0207 C   0  0  1  0  0  0  0  0  0  0  0  0
  159.7215   41.3323  150.8304 N   0  0  0  0  0  0  0  0  0  0  0  0
  160.9557   41.4429  150.3036 C   0  0  1  0  0  0  0  0  0  0  0  0
  158.8769   48.1603  146.2697 C   0  0  2  0  0  0  0  0  0  0  0  0
  162.0130   41.5901  151.1328 N   0  0  0  0  0  0  0  0  0  0  0  0
  159.2665   49.3408  146.9769 O   0  0  0  0  0  0  0  0  0  0  0  0
  160.0939   47.4015  145.7745 C   0  0  2  0  0  0  0  0  0  0  0  0
  161.2064   41.4121  148.9751 N   0  0  0  0  0  0  0  0  0  0  0  0
  161.1928   47.5266  146.6762 O   0  0  0  0  0  0  0  0  0  0  0  0
  160.2038   41.2645  148.0829 C   0  0  2  0  0  0  0  0  0  0  0  0
  160.3692   48.0710  144.4299 C   0  0  2  0  0  0  0  0  0  0  0  0
  159.1342   48.6412  143.9913 O   0  0  0  0  0  0  0  0  0  0  0  0
  158.8328   41.1364  148.5865 C   0  0  2  0  0  0  0  0  0  0  0  0
  160.9127   47.1408  143.3408 C   0  0  0  0  0  0  0  0  0  0  0  0
  160.1892   45.9152  143.2365 O   0  0  0  0  0  0  0  0  0  0  0  0
  158.6348   41.1794  150.0545 C   0  0  0  0  0  0  0  0  0  0  0  0
  157.4827   41.0774  150.5406 O   0  0  0  0  0  0  0  0  0  0  0  0
  158.0483   40.9986  147.5028 N   0  0  0  0  0  0  0  0  0  0  0  0
  158.8399   41.0368  146.4041 C   0  0  0  0  0  0  0  0  0  0  0  0
  160.1281   41.1969  146.7539 N   0  0  1  0  0  0  0  0  0  0  0  0
  154.8885   44.8329  146.7102 N   0  0  0  0  0  0  0  0  0  0  0  0
  161.7709   45.1231  141.3914 O   0  5  0  0  0  0  0  0  0  0  0  0
  155.7276   45.6191  147.4020 C   0  0  2  0  0  0  0  0  0  0  0  0
  155.7743   45.4531  148.7322 N   0  0  0  0  0  0  0  0  0  0  0  0
  159.7515   43.6509  142.2215 O   0  0  0  0  0  0  0  0  0  0  0  0
  156.5148   46.5605  146.8305 N   0  0  0  0  0  0  0  0  0  0  0  0
  156.4909   46.7596  145.4959 C   0  0  1  0  0  0  0  0  0  0  0  0
  155.5885   45.9249  144.6778 C   0  0  1  0  0  0  0  0  0  0  0  0
  154.7525   44.9224  145.3861 C   0  0  0  0  0  0  0  0  0  0  0  0
  153.9620   44.1646  144.7837 O   0  0  0  0  0  0  0  0  0  0  0  0
  155.7524   46.3240  143.4065 N   0  0  0  0  0  0  0  0  0  0  0  0
  156.6816   47.3198  143.4151 C   0  0  0  0  0  0  0  0  0  0  0  0
  157.1224   47.5845  144.6610 N   0  0  2  0  0  0  0  0  0  0  0  0
  1  3  1  1  0  0  0
  1  4  2  0  0  0  0
  1  6  1  0  0  0  0
  1 22  1  0  0  0  0
  2 28  1  0  0  0  0
  2 35  1  6  0  0  0
  2 38  2  0  0  0  0
  2 10  1  0  0  0  0
  5  6  1  0  0  0  0
  7  5  1  1  0  0  0
  7  8  1  0  0  0  0
  7  9  1  0  0  0  0
  9 10  1  6  0  0  0
  9 11  1  0  0  0  0
 11 12  1  6  0  0  0
 11 13  1  0  0  0  0
 13  8  1  1  0  0  0
 13 33  1  0  0  0  0
 14 46  1  0  0  0  0
 14 17  1  0  0  0  0
 14 25  1  6  0  0  0
 15 16  1  0  0  0  0
 15 29  1  0  0  0  0
 16 18  1  1  0  0  0
 16 21  1  0  0  0  0
 17 19  1  6  0  0  0
 17 20  1  0  0  0  0
 20 22  1  1  0  0  0
 20 24  1  0  0  0  0
 23 21  1  1  0  0  0
 23 26  1  0  0  0  0
 23 33  1  0  0  0  0
 24 25  1  6  0  0  0
 24 27  1  0  0  0  0
 26 29  1  1  0  0  0
 26 31  1  0  0  0  0
 27 28  1  0  0  0  0
 29 30  2  0  0  0  0
 31 32  1  0  0  0  0
 33 32  1  6  0  0  0
 34 36  1  0  0  0  0
 34 42  1  0  0  0  0
 36 37  1  1  0  0  0
 36 39  1  0  0  0  0
 40 39  1  1  0  0  0
 40 41  1  0  0  0  0
 40 46  1  0  0  0  0
 41 42  1  1  0  0  0
 41 44  1  0  0  0  0
 42 43  2  0  0  0  0
 44 45  1  0  0  0  0
 46 45  1  6  0  0  0
M  CHG  2   3  -1  35  -1
M  END
>  <CHROM.1>
-25.29046119,28.11200416,159.50010116,44.65954393,146.13597996,-1.26049790
0.39275149,-0.80947598

>  <Name>
ligand

>  <RI>
0

>  <Rbt.Current_Directory>
/home/itssahil/PROJECTS/Mol_Feturizer/Test_systems_manuscript/rnas/4yb0

>  <Rbt.Executable>
rbdock ($Id: //depot/dev/client3/rdock/2013.1/src/exe/rbdock.cxx#4 $)

>  <Rbt.Library>
libRbt.so (2013.1, Build901 2013/11/27)

>  <Rbt.Parameter_File>
/export/apps/rDock/src/rDock_2013.1_src/data/scripts/dock_solv.prm

>  <Rbt.Receptor>
prm/pocket_docking_8.prm

>  <SCORE>
-17.0279

>  <SCORE.INTER>
-17.6242

>  <SCORE.INTER.CONST>
1

>  <SCORE.INTER.POLAR>
0

>  <SCORE.INTER.ROT>
2

>  <SCORE.INTER.SOLV>
20.6286

>  <SCORE.INTER.VDW>
-23.559

>  <SCORE.INTER.norm>
-0.383135

>  <SCORE.INTRA>
0.596277

>  <SCORE.INTRA.DIHEDRAL>
0.0304062

>  <SCORE.INTRA.DIHEDRAL.0>
2.42188

>  <SCORE.INTRA.POLAR>
0

>  <SCORE.INTRA.POLAR.0>
0

>  <SCORE.INTRA.REPUL>
0

>  <SCORE.INTRA.REPUL.0>
0

>  <SCORE.INTRA.SOLV>
0.218273

>  <SCORE.INTRA.SOLV.lig_0>
-127.307

>  <SCORE.INTRA.VDW>
0.471937

>  <SCORE.INTRA.VDW.0>
-2.19936

>  <SCORE.INTRA.norm>
0.0129625

>  <SCORE.RESTR>
0

>  <SCORE.RESTR.CAVITY>
0

>  <SCORE.RESTR.norm>
0

>  <SCORE.SYSTEM>
0

>  <SCORE.SYSTEM.CONST>
0

>  <SCORE.SYSTEM.DIHEDRAL>
0

>  <SCORE.SYSTEM.SOLV>
0

>  <SCORE.SYSTEM.norm>
0

>  <SCORE.heavy>
46

>  <SCORE.norm>
-0.370172

>  <RMSD>
5.581

$$$$
ligand
 OpenBabel02271912143D
libRbt.so/2013.1/901 2013/11/27
 46 52  0  0  0  0  0  0  0  0999 V2000
  161.3053   46.4312  147.8084 P   0  0  1  0  0  0  0  0  0  0  0  0
  160.7283   44.1569  142.6195 P   0  0  1  0  0  0  0  0  0  0  0  0
  160.0280   46.5758  148.5951 O   0  5  0  0  0  0  0  0  0  0  0  0
  162.5955   46.7060  148.5496 O   0  0  0  0  0  0  0  0  0  0  0  0
  162.5023   44.1861  147.0829 C   0  0  0  0  0  0  0  0  0  0  0  0
  161.3190   44.9726  147.1321 O   0  0  0  0  0  0  0  0  0  0  0  0
  162.3399   43.0654  146.0693 C   0  0  1  0  0  0  0  0  0  0  0  0
  162.0959   41.8607  146.7814 O   0  0  0  0  0  0  0  0  0  0  0  0
  161.1830   43.2236  145.0909 C   0  0  1  0  0  0  0  0  0  0  0  0
  161.6803   43.6294  143.8242 O   0  0  0  0  0  0  0  0  0  0  0  0
  160.6420   41.8180  144.9547 C   0  0  1  0  0  0  0  0  0  0  0  0
  161.3111   41.1480  143.8844 O   0  0  0  0  0  0  0  0  0  0  0  0
  161.0293   41.1106  146.2208 C   0  0  2  0  0  0  0  0  0  0  0  0
  158.1666   48.4229  144.7711 C   0  0  1  0  0  0  0  0  0  0  0  0
  158.7259   38.8431  150.3560 N   0  0  0  0  0  0  0  0  0  0  0  0
  159.8514   38.5067  149.6979 C   0  0  1  0  0  0  0  0  0  0  0  0
  158.8875   48.0697  146.0552 C   0  0  2  0  0  0  0  0  0  0  0  0
  160.5546   37.4276  150.1083 N   0  0  0  0  0  0  0  0  0  0  0  0
  159.3215   49.2939  146.6542 O   0  0  0  0  0  0  0  0  0  0  0  0
  160.0749   47.2257  145.6311 C   0  0  2  0  0  0  0  0  0  0  0  0
  160.3271   39.1911  148.6329 N   0  0  0  0  0  0  0  0  0  0  0  0
  161.1796   47.3908  146.5191 O   0  0  0  0  0  0  0  0  0  0  0  0
  159.6797   40.2779  148.1609 C   0  0  2  0  0  0  0  0  0  0  0  0
  160.3712   47.7616  144.2322 C   0  0  2  0  0  0  0  0  0  0  0  0
  159.1568   48.3350  143.7431 O   0  0  0  0  0  0  0  0  0  0  0  0
  158.4449   40.7011  148.8287 C   0  0  2  0  0  0  0  0  0  0  0  0
  160.8779   46.7183  143.2314 C   0  0  0  0  0  0  0  0  0  0  0  0
  160.1100   45.5156  143.2366 O   0  0  0  0  0  0  0  0  0  0  0  0
  157.9848   39.9027  149.9892 C   0  0  0  0  0  0  0  0  0  0  0  0
  156.9362   40.2209  150.6001 O   0  0  0  0  0  0  0  0  0  0  0  0
  158.0129   41.7863  148.1620 N   0  0  0  0  0  0  0  0  0  0  0  0
  158.8890   42.0396  147.1602 C   0  0  0  0  0  0  0  0  0  0  0  0
  159.8851   41.1367  147.1626 N   0  0  1  0  0  0  0  0  0  0  0  0
  155.0373   44.6866  146.7421 N   0  0  0  0  0  0  0  0  0  0  0  0
  161.6575   44.5042  141.4715 O   0  5  0  0  0  0  0  0  0  0  0  0
  155.9412   45.4648  147.3571 C   0  0  2  0  0  0  0  0  0  0  0  0
  156.1025   45.2984  148.6784 N   0  0  0  0  0  0  0  0  0  0  0  0
  159.5877   43.1870  142.4282 O   0  0  0  0  0  0  0  0  0  0  0  0
  156.6842   46.3985  146.7182 N   0  0  0  0  0  0  0  0  0  0  0  0
  156.5456   46.5978  145.3906 C   0  0  1  0  0  0  0  0  0  0  0  0
  155.5671   45.7718  144.6553 C   0  0  1  0  0  0  0  0  0  0  0  0
  154.7868   44.7774  145.4350 C   0  0  0  0  0  0  0  0  0  0  0  0
  153.9394   44.0271  144.9047 O   0  0  0  0  0  0  0  0  0  0  0  0
  155.6229   46.1692  143.3742 N   0  0  0  0  0  0  0  0  0  0  0  0
  156.5587   47.1562  143.3006 C   0  0  0  0  0  0  0  0  0  0  0  0
  157.1094   47.4166  144.5029 N   0  0  2  0  0  0  0  0  0  0  0  0
  1  3  1  1  0  0  0
  1  4  2  0  0  0  0
  1  6  1  0  0  0  0
  1 22  1  0  0  0  0
  2 28  1  0  0  0  0
  2 35  1  6  0  0  0
  2 38  2  0  0  0  0
  2 10  1  0  0  0  0
  5  6  1  0  0  0  0
  7  5  1  1  0  0  0
  7  8  1  0  0  0  0
  7  9  1  0  0  0  0
  9 10  1  6  0  0  0
  9 11  1  0  0  0  0
 11 12  1  6  0  0  0
 11 13  1  0  0  0  0
 13  8  1  1  0  0  0
 13 33  1  0  0  0  0
 14 46  1  0  0  0  0
 14 17  1  0  0  0  0
 14 25  1  6  0  0  0
 15 16  1  0  0  0  0
 15 29  1  0  0  0  0
 16 18  1  6  0  0  0
 16 21  1  0  0  0  0
 17 19  1  6  0  0  0
 17 20  1  0  0  0  0
 20 22  1  1  0  0  0
 20 24  1  0  0  0  0
 23 21  1  6  0  0  0
 23 26  1  0  0  0  0
 23 33  1  0  0  0  0
 24 25  1  6  0  0  0
 24 27  1  0  0  0  0
 26 29  1  6  0  0  0
 26 31  1  0  0  0  0
 27 28  1  0  0  0  0
 29 30  2  0  0  0  0
 31 32  1  0  0  0  0
 33 32  1  1  0  0  0
 34 36  1  0  0  0  0
 34 42  1  0  0  0  0
 36 37  1  1  0  0  0
 36 39  1  0  0  0  0
 40 39  1  1  0  0  0
 40 41  1  0  0  0  0
 40 46  1  0  0  0  0
 41 42  1  1  0  0  0
 41 44  1  0  0  0  0
 42 43  2  0  0  0  0
 44 45  1  0  0  0  0
 46 45  1  6  0  0  0
M  CHG  2   3  -1  35  -1
M  END
>  <CHROM.1>
-88.05242199,20.80862981,159.32717075,44.21690828,146.13876259,-1.67002619
-0.35374639,2.56746697

>  <Name>
ligand

>  <RI>
0

>  <Rbt.Current_Directory>
/home/itssahil/PROJECTS/Mol_Feturizer/Test_systems_manuscript/rnas/4yb0

>  <Rbt.Executable>
rbdock ($Id: //depot/dev/client3/rdock/2013.1/src/exe/rbdock.cxx#4 $)

>  <Rbt.Library>
libRbt.so (2013.1, Build901 2013/11/27)

>  <Rbt.Parameter_File>
/export/apps/rDock/src/rDock_2013.1_src/data/scripts/dock_solv.prm

>  <Rbt.Receptor>
prm/pocket_docking_5.prm

>  <SCORE>
-18.0521

>  <SCORE.INTER>
-19.1106

>  <SCORE.INTER.CONST>
1

>  <SCORE.INTER.POLAR>
0

>  <SCORE.INTER.ROT>
2

>  <SCORE.INTER.SOLV>
20.3994

>  <SCORE.INTER.VDW>
-24.4736

>  <SCORE.INTER.norm>
-0.415448

>  <SCORE.INTRA>
1.05854

>  <SCORE.INTRA.DIHEDRAL>
-0.0177084

>  <SCORE.INTRA.DIHEDRAL.0>
2.42188

>  <SCORE.INTRA.POLAR>
0

>  <SCORE.INTRA.POLAR.0>
0

>  <SCORE.INTRA.REPUL>
0

>  <SCORE.INTRA.REPUL.0>
0

>  <SCORE.INTRA.SOLV>
0.647993

>  <SCORE.INTRA.SOLV.lig_0>
-127.307

>  <SCORE.INTRA.VDW>
0.743398

>  <SCORE.INTRA.VDW.0>
-2.19936

>  <SCORE.INTRA.norm>
0.0230117

>  <SCORE.RESTR>
0

>  <SCORE.RESTR.CAVITY>
0

>  <SCORE.RESTR.norm>
0

>  <SCORE.SYSTEM>
0

>  <SCORE.SYSTEM.CONST>
0

>  <SCORE.SYSTEM.DIHEDRAL>
0

>  <SCORE.SYSTEM.SOLV>
0

>  <SCORE.SYSTEM.norm>
0

>  <SCORE.heavy>
46

>  <SCORE.norm>
-0.392436

>  <RMSD>
5.587

$$$$
ligand
 OpenBabel02271912143D
libRbt.so/2013.1/901 2013/11/27
 46 52  0  0  0  0  0  0  0  0999 V2000
  157.1075   47.7332  144.0138 P   0  0  1  0  0  0  0  0  0  0  0  0
  161.9219   47.4849  147.0453 P   0  0  1  0  0  0  0  0  0  0  0  0
  156.7341   46.4647  143.2909 O   0  5  0  0  0  0  0  0  0  0  0  0
  156.0757   48.8400  144.0227 O   0  0  0  0  0  0  0  0  0  0  0  0
  157.1810   48.1329  146.6280 C   0  0  0  0  0  0  0  0  0  0  0  0
  157.5641   47.3477  145.5064 O   0  0  0  0  0  0  0  0  0  0  0  0
  158.0503   47.7873  147.8258 C   0  0  1  0  0  0  0  0  0  0  0  0
  157.2894   46.9642  148.6983 O   0  0  0  0  0  0  0  0  0  0  0  0
  159.3251   47.0135  147.5142 C   0  0  1  0  0  0  0  0  0  0  0  0
  160.4426   47.8872  147.5800 O   0  0  0  0  0  0  0  0  0  0  0  0
  159.4293   46.0307  148.6587 C   0  0  1  0  0  0  0  0  0  0  0  0
  160.1767   46.6157  149.7270 O   0  0  0  0  0  0  0  0  0  0  0  0
  158.0270   45.8430  149.1604 C   0  0  2  0  0  0  0  0  0  0  0  0
  161.1268   46.2993  141.8153 C   0  0  1  0  0  0  0  0  0  0  0  0
  158.4534   40.6418  148.6014 N   0  0  0  0  0  0  0  0  0  0  0  0
  159.2369   41.5092  149.2699 C   0  0  1  0  0  0  0  0  0  0  0  0
  159.6585   46.5409  142.0967 C   0  0  2  0  0  0  0  0  0  0  0  0
  160.3225   41.0423  149.9262 N   0  0  0  0  0  0  0  0  0  0  0  0
  159.1208   47.2597  140.9831 O   0  0  0  0  0  0  0  0  0  0  0  0
  159.6239   47.3892  143.3541 C   0  0  2  0  0  0  0  0  0  0  0  0
  159.0022   42.8399  149.3230 N   0  0  0  0  0  0  0  0  0  0  0  0
  158.4905   48.2560  143.3711 O   0  0  0  0  0  0  0  0  0  0  0  0
  157.9402   43.3832  148.6906 C   0  0  2  0  0  0  0  0  0  0  0  0
  160.9399   48.1585  143.2632 C   0  0  2  0  0  0  0  0  0  0  0  0
  161.8172   47.3821  142.4445 O   0  0  0  0  0  0  0  0  0  0  0  0
  157.0443   42.4971  147.9409 C   0  0  2  0  0  0  0  0  0  0  0  0
  161.6197   48.4429  144.6063 C   0  0  0  0  0  0  0  0  0  0  0  0
  161.6782   47.3003  145.4591 O   0  0  0  0  0  0  0  0  0  0  0  0
  157.3645   41.0502  147.9276 C   0  0  0  0  0  0  0  0  0  0  0  0
  156.6307   40.2457  147.3045 O   0  0  0  0  0  0  0  0  0  0  0  0
  156.0915   43.2874  147.4151 N   0  0  0  0  0  0  0  0  0  0  0  0
  156.3486   44.5627  147.7929 C   0  0  0  0  0  0  0  0  0  0  0  0
  157.4539   44.6169  148.5563 N   0  0  1  0  0  0  0  0  0  0  0  0
  160.5842   41.0740  142.0142 N   0  0  0  0  0  0  0  0  0  0  0  0
  162.7984   48.7008  147.2805 O   0  5  0  0  0  0  0  0  0  0  0  0
  159.9813   41.9721  141.2200 C   0  0  2  0  0  0  0  0  0  0  0  0
  159.0980   41.5090  140.3230 N   0  0  0  0  0  0  0  0  0  0  0  0
  162.3010   46.1352  147.6047 O   0  0  0  0  0  0  0  0  0  0  0  0
  160.2212   43.3031  141.2772 N   0  0  0  0  0  0  0  0  0  0  0  0
  161.1070   43.8051  142.1630 C   0  0  1  0  0  0  0  0  0  0  0  0
  161.8036   42.8679  143.0668 C   0  0  1  0  0  0  0  0  0  0  0  0
  161.4885   41.4229  142.9308 C   0  0  0  0  0  0  0  0  0  0  0  0
  162.0197   40.5513  143.6519 O   0  0  0  0  0  0  0  0  0  0  0  0
  162.6190   43.6131  143.8298 N   0  0  0  0  0  0  0  0  0  0  0  0
  162.4507   44.9100  143.4490 C   0  0  0  0  0  0  0  0  0  0  0  0
  161.5512   45.0279  142.4522 N   0  0  2  0  0  0  0  0  0  0  0  0
  1  3  1  6  0  0  0
  1  4  2  0  0  0  0
  1  6  1  0  0  0  0
  1 22  1  0  0  0  0
  2 28  1  0  0  0  0
  2 35  1  1  0  0  0
  2 38  2  0  0  0  0
  2 10  1  0  0  0  0
  5  6  1  0  0  0  0
  7  5  1  6  0  0  0
  7  8  1  0  0  0  0
  7  9  1  0  0  0  0
  9 10  1  1  0  0  0
  9 11  1  0  0  0  0
 11 12  1  1  0  0  0
 11 13  1  0  0  0  0
 13  8  1  6  0  0  0
 13 33  1  0  0  0  0
 14 46  1  0  0  0  0
 14 17  1  0  0  0  0
 14 25  1  1  0  0  0
 15 16  1  0  0  0  0
 15 29  1  0  0  0  0
 16 18  1  6  0  0  0
 16 21  1  0  0  0  0
 17 19  1  6  0  0  0
 17 20  1  0  0  0  0
 20 22  1  6  0  0  0
 20 24  1  0  0  0  0
 23 21  1  6  0  0  0
 23 26  1  0  0  0  0
 23 33  1  0  0  0  0
 24 25  1  6  0  0  0
 24 27  1  0  0  0  0
 26 29  1  6  0  0  0
 26 31  1  0  0  0  0
 27 28  1  0  0  0  0
 29 30  2  0  0  0  0
 31 32  1  0  0  0  0
 33 32  1  1  0  0  0
 34 36  1  0  0  0  0
 34 42  1  0  0  0  0
 36 37  1  6  0  0  0
 36 39  1  0  0  0  0
 40 39  1  6  0  0  0
 40 41  1  0  0  0  0
 40 46  1  0  0  0  0
 41 42  1  6  0  0  0
 41 44  1  0  0  0  0
 42 43  2  0  0  0  0
 44 45  1  0  0  0  0
 46 45  1  1  0  0  0
M  CHG  2   3  -1  35  -1
M  END
>  <CHROM.1>
175.37344271,63.59187834,159.50802641,45.26816620,145.46360524,0.28971634
1.23660891,0.00779471

>  <Name>
ligand

>  <RI>
0

>  <Rbt.Current_Directory>
/home/itssahil/PROJECTS/Mol_Feturizer/Test_systems_manuscript/rnas/4yb0

>  <Rbt.Executable>
rbdock ($Id: //depot/dev/client3/rdock/2013.1/src/exe/rbdock.cxx#4 $)

>  <Rbt.Library>
libRbt.so (2013.1, Build901 2013/11/27)

>  <Rbt.Parameter_File>
/export/apps/rDock/src/rDock_2013.1_src/data/scripts/dock_solv.prm

>  <Rbt.Receptor>
prm/pocket_docking_7.prm

>  <SCORE>
-14.0778

>  <SCORE.INTER>
-14.1208

>  <SCORE.INTER.CONST>
1

>  <SCORE.INTER.POLAR>
0

>  <SCORE.INTER.ROT>
2

>  <SCORE.INTER.SOLV>
22.4321

>  <SCORE.INTER.VDW>
-21.8245

>  <SCORE.INTER.norm>
-0.306973

>  <SCORE.INTRA>
0.0430027

>  <SCORE.INTRA.DIHEDRAL>
-0.0341783

>  <SCORE.INTRA.DIHEDRAL.0>
2.42188

>  <SCORE.INTRA.POLAR>
0

>  <SCORE.INTRA.POLAR.0>
0

>  <SCORE.INTRA.REPUL>
0

>  <SCORE.INTRA.REPUL.0>
0

>  <SCORE.INTRA.SOLV>
0.00229605

>  <SCORE.INTRA.SOLV.lig_0>
-127.307

>  <SCORE.INTRA.VDW>
0.0589438

>  <SCORE.INTRA.VDW.0>
-2.19936

>  <SCORE.INTRA.norm>
0.000934841

>  <SCORE.RESTR>
0

>  <SCORE.RESTR.CAVITY>
0

>  <SCORE.RESTR.norm>
0

>  <SCORE.SYSTEM>
0

>  <SCORE.SYSTEM.CONST>
0

>  <SCORE.SYSTEM.DIHEDRAL>
0

>  <SCORE.SYSTEM.SOLV>
0

>  <SCORE.SYSTEM.norm>
0

>  <SCORE.heavy>
46

>  <SCORE.norm>
-0.306039

>  <RMSD>
5.587

$$$$
ligand
 OpenBabel02271912143D
libRbt.so/2013.1/901 2013/11/27
 46 52  0  0  0  0  0  0  0  0999 V2000
  158.3028   48.2422  149.3535 P   0  0  1  0  0  0  0  0  0  0  0  0
  159.9202   42.9183  148.1408 P   0  0  1  0  0  0  0  0  0  0  0  0
  158.3241   49.2031  148.1928 O   0  5  0  0  0  0  0  0  0  0  0  0
  157.6680   48.7371  150.6348 O   0  0  0  0  0  0  0  0  0  0  0  0
  156.7174   46.1496  149.6805 C   0  0  0  0  0  0  0  0  0  0  0  0
  157.6281   46.8689  148.8594 O   0  0  0  0  0  0  0  0  0  0  0  0
  156.5487   44.7341  149.1535 C   0  0  1  0  0  0  0  0  0  0  0  0
  155.3043   44.6643  148.4718 O   0  0  0  0  0  0  0  0  0  0  0  0
  157.6056   44.2703  148.1592 C   0  0  1  0  0  0  0  0  0  0  0  0
  158.5165   43.3927  148.8046 O   0  0  0  0  0  0  0  0  0  0  0  0
  156.8134   43.4672  147.1520 C   0  0  1  0  0  0  0  0  0  0  0  0
  156.7594   42.1000  147.5642 O   0  0  0  0  0  0  0  0  0  0  0  0
  155.4114   43.9989  147.2227 C   0  0  2  0  0  0  0  0  0  0  0  0
  162.5549   47.5680  147.2300 C   0  0  1  0  0  0  0  0  0  0  0  0
  152.3735   45.5552  143.2358 N   0  0  0  0  0  0  0  0  0  0  0  0
  152.2425   44.5037  144.0665 C   0  0  1  0  0  0  0  0  0  0  0  0
  161.3023   48.2504  147.7389 C   0  0  2  0  0  0  0  0  0  0  0  0
  151.1874   43.6728  143.9131 N   0  0  0  0  0  0  0  0  0  0  0  0
  161.7144   49.3405  148.5681 O   0  0  0  0  0  0  0  0  0  0  0  0
  160.5734   47.1982  148.5536 C   0  0  2  0  0  0  0  0  0  0  0  0
  153.1173   44.2219  145.0586 N   0  0  0  0  0  0  0  0  0  0  0  0
  159.8257   47.7842  149.6183 O   0  0  0  0  0  0  0  0  0  0  0  0
  154.1980   45.0023  145.2734 C   0  0  2  0  0  0  0  0  0  0  0  0
  161.7211   46.3286  149.0622 C   0  0  2  0  0  0  0  0  0  0  0  0
  162.8077   46.5030  148.1503 O   0  0  0  0  0  0  0  0  0  0  0  0
  154.4048   46.1650  144.4044 C   0  0  2  0  0  0  0  0  0  0  0  0
  161.3988   44.8361  149.1865 C   0  0  0  0  0  0  0  0  0  0  0  0
  160.7403   44.3061  148.0368 O   0  0  0  0  0  0  0  0  0  0  0  0
  153.4046   46.4111  143.3390 C   0  0  0  0  0  0  0  0  0  0  0  0
  153.5302   47.3930  142.5682 O   0  0  0  0  0  0  0  0  0  0  0  0
  155.5383   46.7514  144.8288 N   0  0  0  0  0  0  0  0  0  0  0  0
  156.0153   46.0347  145.8747 C   0  0  0  0  0  0  0  0  0  0  0  0
  155.2115   44.9901  146.1390 N   0  0  1  0  0  0  0  0  0  0  0  0
  161.4611   48.4838  142.1700 N   0  0  0  0  0  0  0  0  0  0  0  0
  160.5854   42.0174  149.1644 O   0  5  0  0  0  0  0  0  0  0  0  0
  161.6588   49.3477  143.1777 C   0  0  2  0  0  0  0  0  0  0  0  0
  161.5753   50.6562  142.8948 N   0  0  0  0  0  0  0  0  0  0  0  0
  159.6651   42.4371  146.7331 O   0  0  0  0  0  0  0  0  0  0  0  0
  161.9381   48.9675  144.4465 N   0  0  0  0  0  0  0  0  0  0  0  0
  162.0352   47.6603  144.7675 C   0  0  1  0  0  0  0  0  0  0  0  0
  161.8271   46.6587  143.7026 C   0  0  1  0  0  0  0  0  0  0  0  0
  161.5342   47.1621  142.3364 C   0  0  0  0  0  0  0  0  0  0  0  0
  161.3369   46.3960  141.3688 O   0  0  0  0  0  0  0  0  0  0  0  0
  161.9825   45.4560  144.2783 N   0  0  0  0  0  0  0  0  0  0  0  0
  162.2587   45.6737  145.5942 C   0  0  0  0  0  0  0  0  0  0  0  0
  162.2939   46.9883  145.8891 N   0  0  2  0  0  0  0  0  0  0  0  0
  1  3  1  6  0  0  0
  1  4  2  0  0  0  0
  1  6  1  0  0  0  0
  1 22  1  0  0  0  0
  2 28  1  0  0  0  0
  2 35  1  1  0  0  0
  2 38  2  0  0  0  0
  2 10  1  0  0  0  0
  5  6  1  0  0  0  0
  7  5  1  6  0  0  0
  7  8  1  0  0  0  0
  7  9  1  0  0  0  0
  9 10  1  1  0  0  0
  9 11  1  0  0  0  0
 11 12  1  1  0  0  0
 11 13  1  0  0  0  0
 13  8  1  1  0  0  0
 13 33  1  0  0  0  0
 14 46  1  0  0  0  0
 14 17  1  0  0  0  0
 14 25  1  1  0  0  0
 15 16  1  0  0  0  0
 15 29  1  0  0  0  0
 16 18  1  6  0  0  0
 16 21  1  0  0  0  0
 17 19  1  1  0  0  0
 17 20  1  0  0  0  0
 20 22  1  1  0  0  0
 20 24  1  0  0  0  0
 23 21  1  6  0  0  0
 23 26  1  0  0  0  0
 23 33  1  0  0  0  0
 24 25  1  6  0  0  0
 24 27  1  0  0  0  0
 26 29  1  6  0  0  0
 26 31  1  0  0  0  0
 27 28  1  0  0  0  0
 29 30  2  0  0  0  0
 31 32  1  0  0  0  0
 33 32  1  1  0  0  0
 34 36  1  0  0  0  0
 34 42  1  0  0  0  0
 36 37  1  6  0  0  0
 36 39  1  0  0  0  0
 40 39  1  6  0  0  0
 40 41  1  0  0  0  0
 40 46  1  0  0  0  0
 41 42  1  6  0  0  0
 41 44  1  0  0  0  0
 42 43  2  0  0  0  0
 44 45  1  0  0  0  0
 46 45  1  1  0  0  0
M  CHG  2   3  -1  35  -1
M  END
>  <CHROM.1>
-114.84300448,66.23089334,158.52559171,46.03177020,146.57817948,0.00788873
0.33167921,2.00362100

>  <Name>
ligand

>  <RI>
0

>  <Rbt.Current_Directory>
/home/itssahil/PROJECTS/Mol_Feturizer/Test_systems_manuscript/rnas/4yb0

>  <Rbt.Executable>
rbdock ($Id: //depot/dev/client3/rdock/2013.1/src/exe/rbdock.cxx#4 $)

>  <Rbt.Library>
libRbt.so (2013.1, Build901 2013/11/27)

>  <Rbt.Parameter_File>
/export/apps/rDock/src/rDock_2013.1_src/data/scripts/dock_solv.prm

>  <Rbt.Receptor>
prm/pocket_docking_8.prm

>  <SCORE>
-25.4627

>  <SCORE.INTER>
-25.3536

>  <SCORE.INTER.CONST>
1

>  <SCORE.INTER.POLAR>
0

>  <SCORE.INTER.ROT>
2

>  <SCORE.INTER.SOLV>
12.3873

>  <SCORE.INTER.VDW>
-25.9648

>  <SCORE.INTER.norm>
-0.551165

>  <SCORE.INTRA>
-0.109112

>  <SCORE.INTRA.DIHEDRAL>
-0.0379157

>  <SCORE.INTRA.DIHEDRAL.0>
2.42188

>  <SCORE.INTRA.POLAR>
0

>  <SCORE.INTRA.POLAR.0>
0

>  <SCORE.INTRA.REPUL>
0

>  <SCORE.INTRA.REPUL.0>
0

>  <SCORE.INTRA.SOLV>
-0.017775

>  <SCORE.INTRA.SOLV.lig_0>
-127.307

>  <SCORE.INTRA.VDW>
-0.0812662

>  <SCORE.INTRA.VDW.0>
-2.19936

>  <SCORE.INTRA.norm>
-0.00237199

>  <SCORE.RESTR>
0

>  <SCORE.RESTR.CAVITY>
0

>  <SCORE.RESTR.norm>
0

>  <SCORE.SYSTEM>
0

>  <SCORE.SYSTEM.CONST>
0

>  <SCORE.SYSTEM.DIHEDRAL>
0

>  <SCORE.SYSTEM.SOLV>
0

>  <SCORE.SYSTEM.norm>
0

>  <SCORE.heavy>
46

>  <SCORE.norm>
-0.553537

>  <RMSD>
5.589

$$$$
ligand
 OpenBabel02271912143D
libRbt.so/2013.1/901 2013/11/27
 46 52  0  0  0  0  0  0  0  0999 V2000
  161.3773   46.4398  147.8104 P   0  0  1  0  0  0  0  0  0  0  0  0
  160.7341   44.1288  142.6455 P   0  0  1  0  0  0  0  0  0  0  0  0
  160.1130   46.5731  148.6196 O   0  5  0  0  0  0  0  0  0  0  0  0
  162.6774   46.7349  148.5262 O   0  0  0  0  0  0  0  0  0  0  0  0
  162.5889   44.2057  147.0754 C   0  0  0  0  0  0  0  0  0  0  0  0
  161.3970   44.9777  147.1420 O   0  0  0  0  0  0  0  0  0  0  0  0
  162.4221   43.0773  146.0712 C   0  0  1  0  0  0  0  0  0  0  0  0
  162.2062   41.8737  146.7942 O   0  0  0  0  0  0  0  0  0  0  0  0
  161.2455   43.2154  145.1133 C   0  0  1  0  0  0  0  0  0  0  0  0
  161.7145   43.6201  143.8355 O   0  0  0  0  0  0  0  0  0  0  0  0
  160.7198   41.8025  144.9948 C   0  0  1  0  0  0  0  0  0  0  0  0
  161.3775   41.1347  143.9161 O   0  0  0  0  0  0  0  0  0  0  0  0
  161.1391   41.1072  146.2575 C   0  0  2  0  0  0  0  0  0  0  0  0
  158.1589   48.3749  144.8203 C   0  0  1  0  0  0  0  0  0  0  0  0
  158.7235   38.6184  150.1967 N   0  0  0  0  0  0  0  0  0  0  0  0
  159.8120   38.2664  149.4866 C   0  0  1  0  0  0  0  0  0  0  0  0
  158.9076   48.0381  146.0929 C   0  0  2  0  0  0  0  0  0  0  0  0
  160.4369   37.1031  149.7756 N   0  0  0  0  0  0  0  0  0  0  0  0
  159.3371   49.2710  146.6771 O   0  0  0  0  0  0  0  0  0  0  0  0
  160.0975   47.2065  145.6517 C   0  0  2  0  0  0  0  0  0  0  0  0
  160.3245   39.0158  148.4842 N   0  0  0  0  0  0  0  0  0  0  0  0
  161.2161   47.3904  146.5183 O   0  0  0  0  0  0  0  0  0  0  0  0
  159.7551   40.1887  148.1336 C   0  0  2  0  0  0  0  0  0  0  0  0
  160.3614   47.7379  144.2447 C   0  0  2  0  0  0  0  0  0  0  0  0
  159.1312   48.2934  143.7748 O   0  0  0  0  0  0  0  0  0  0  0  0
  158.5642   40.6338  148.8640 C   0  0  2  0  0  0  0  0  0  0  0  0
  160.8627   46.6954  143.2405 C   0  0  0  0  0  0  0  0  0  0  0  0
  160.1101   45.4832  143.2665 O   0  0  0  0  0  0  0  0  0  0  0  0
  158.0598   39.7608  149.9500 C   0  0  0  0  0  0  0  0  0  0  0  0
  157.0460   40.0936  150.6098 O   0  0  0  0  0  0  0  0  0  0  0  0
  158.2069   41.8086  148.3151 N   0  0  0  0  0  0  0  0  0  0  0  0
  159.0869   42.0942  147.3256 C   0  0  0  0  0  0  0  0  0  0  0  0
  160.0121   41.1245  147.2199 N   0  0  1  0  0  0  0  0  0  0  0  0
  155.0956   44.6284  146.8739 N   0  0  0  0  0  0  0  0  0  0  0  0
  161.6377   44.4810  141.4788 O   0  5  0  0  0  0  0  0  0  0  0  0
  155.9983   45.4237  147.4684 C   0  0  2  0  0  0  0  0  0  0  0  0
  156.1777   45.2748  148.7894 N   0  0  0  0  0  0  0  0  0  0  0  0
  159.6024   43.1437  142.4806 O   0  0  0  0  0  0  0  0  0  0  0  0
  156.7231   46.3578  146.8093 N   0  0  0  0  0  0  0  0  0  0  0  0
  156.5659   46.5398  145.4814 C   0  0  1  0  0  0  0  0  0  0  0  0
  155.5877   45.6944  144.7680 C   0  0  1  0  0  0  0  0  0  0  0  0
  154.8280   44.7009  145.5690 C   0  0  0  0  0  0  0  0  0  0  0  0
  153.9825   43.9352  145.0582 O   0  0  0  0  0  0  0  0  0  0  0  0
  155.6233   46.0772  143.4817 N   0  0  0  0  0  0  0  0  0  0  0  0
  156.5472   47.0733  143.3850 C   0  0  0  0  0  0  0  0  0  0  0  0
  157.1096   47.3541  144.5772 N   0  0  2  0  0  0  0  0  0  0  0  0
  1  3  1  1  0  0  0
  1  4  2  0  0  0  0
  1  6  1  0  0  0  0
  1 22  1  0  0  0  0
  2 28  1  0  0  0  0
  2 35  1  6  0  0  0
  2 38  2  0  0  0  0
  2 10  1  0  0  0  0
  5  6  1  0  0  0  0
  7  5  1  1  0  0  0
  7  8  1  0  0  0  0
  7  9  1  0  0  0  0
  9 10  1  6  0  0  0
  9 11  1  0  0  0  0
 11 12  1  6  0  0  0
 11 13  1  0  0  0  0
 13  8  1  1  0  0  0
 13 33  1  0  0  0  0
 14 46  1  0  0  0  0
 14 17  1  0  0  0  0
 14 25  1  6  0  0  0
 15 16  1  0  0  0  0
 15 29  1  0  0  0  0
 16 18  1  6  0  0  0
 16 21  1  0  0  0  0
 17 19  1  6  0  0  0
 17 20  1  0  0  0  0
 20 22  1  1  0  0  0
 20 24  1  0  0  0  0
 23 21  1  6  0  0  0
 23 26  1  0  0  0  0
 23 33  1  0  0  0  0
 24 25  1  6  0  0  0
 24 27  1  0  0  0  0
 26 29  1  6  0  0  0
 26 31  1  0  0  0  0
 27 28  1  0  0  0  0
 29 30  2  0  0  0  0
 31 32  1  0  0  0  0
 33 32  1  1  0  0  0
 34 36  1  0  0  0  0
 34 42  1  0  0  0  0
 36 37  1  1  0  0  0
 36 39  1  0  0  0  0
 40 39  1  1  0  0  0
 40 41  1  0  0  0  0
 40 46  1  0  0  0  0
 41 42  1  1  0  0  0
 41 44  1  0  0  0  0
 42 43  2  0  0  0  0
 44 45  1  0  0  0  0
 46 45  1  6  0  0  0
M  CHG  2   3  -1  35  -1
M  END
>  <CHROM.1>
-95.83743769,21.30917088,159.37143661,44.16979633,146.16296382,-1.66444307
-0.35782505,2.59745351

>  <Name>
ligand

>  <RI>
0

>  <Rbt.Current_Directory>
/home/itssahil/PROJECTS/Mol_Feturizer/Test_systems_manuscript/rnas/4yb0

>  <Rbt.Executable>
rbdock ($Id: //depot/dev/client3/rdock/2013.1/src/exe/rbdock.cxx#4 $)

>  <Rbt.Library>
libRbt.so (2013.1, Build901 2013/11/27)

>  <Rbt.Parameter_File>
/export/apps/rDock/src/rDock_2013.1_src/data/scripts/dock_solv.prm

>  <Rbt.Receptor>
prm/pocket_docking_8.prm

>  <SCORE>
-18.5647

>  <SCORE.INTER>
-19.4201

>  <SCORE.INTER.CONST>
1

>  <SCORE.INTER.POLAR>
0

>  <SCORE.INTER.ROT>
2

>  <SCORE.INTER.SOLV>
20.9578

>  <SCORE.INTER.VDW>
-24.866

>  <SCORE.INTER.norm>
-0.422176

>  <SCORE.INTRA>
0.855358

>  <SCORE.INTRA.DIHEDRAL>
-0.0162496

>  <SCORE.INTRA.DIHEDRAL.0>
2.42188

>  <SCORE.INTRA.POLAR>
0

>  <SCORE.INTRA.POLAR.0>
0

>  <SCORE.INTRA.REPUL>
0

>  <SCORE.INTRA.REPUL.0>
0

>  <SCORE.INTRA.SOLV>
0.609253

>  <SCORE.INTRA.SOLV.lig_0>
-127.307

>  <SCORE.INTRA.VDW>
0.558856

>  <SCORE.INTRA.VDW.0>
-2.19936

>  <SCORE.INTRA.norm>
0.0185947

>  <SCORE.RESTR>
0

>  <SCORE.RESTR.CAVITY>
0

>  <SCORE.RESTR.norm>
0

>  <SCORE.SYSTEM>
0

>  <SCORE.SYSTEM.CONST>
0

>  <SCORE.SYSTEM.DIHEDRAL>
0

>  <SCORE.SYSTEM.SOLV>
0

>  <SCORE.SYSTEM.norm>
0

>  <SCORE.heavy>
46

>  <SCORE.norm>
-0.403581

>  <RMSD>
5.591

$$$$
ligand
 OpenBabel02271912143D
libRbt.so/2013.1/901 2013/11/27
 46 52  0  0  0  0  0  0  0  0999 V2000
  161.3006   46.3968  147.8502 P   0  0  1  0  0  0  0  0  0  0  0  0
  160.7927   44.4977  142.5054 P   0  0  1  0  0  0  0  0  0  0  0  0
  160.0171   46.4591  148.6374 O   0  5  0  0  0  0  0  0  0  0  0  0
  162.5818   46.6411  148.6174 O   0  0  0  0  0  0  0  0  0  0  0  0
  162.5444   44.2340  146.9699 C   0  0  0  0  0  0  0  0  0  0  0  0
  161.3459   44.9922  147.0691 O   0  0  0  0  0  0  0  0  0  0  0  0
  162.4087   43.1876  145.8762 C   0  0  1  0  0  0  0  0  0  0  0  0
  162.1848   41.9296  146.4968 O   0  0  0  0  0  0  0  0  0  0  0  0
  161.2536   43.3949  144.9048 C   0  0  1  0  0  0  0  0  0  0  0  0
  161.7491   43.9017  143.6743 O   0  0  0  0  0  0  0  0  0  0  0  0
  160.7407   41.9930  144.6629 C   0  0  1  0  0  0  0  0  0  0  0  0
  161.4278   41.4160  143.5507 O   0  0  0  0  0  0  0  0  0  0  0  0
  161.1356   41.2023  145.8763 C   0  0  2  0  0  0  0  0  0  0  0  0
  158.1383   48.5454  144.9471 C   0  0  1  0  0  0  0  0  0  0  0  0
  159.5910   40.9441  150.8857 N   0  0  0  0  0  0  0  0  0  0  0  0
  160.8307   40.9723  150.3609 C   0  0  1  0  0  0  0  0  0  0  0  0
  158.8599   48.1129  146.2064 C   0  0  2  0  0  0  0  0  0  0  0  0
  161.8965   40.9321  151.1914 N   0  0  0  0  0  0  0  0  0  0  0  0
  159.2672   49.2980  146.8960 O   0  0  0  0  0  0  0  0  0  0  0  0
  160.0654   47.3249  145.7292 C   0  0  2  0  0  0  0  0  0  0  0  0
  161.0786   41.0362  149.0331 N   0  0  0  0  0  0  0  0  0  0  0  0
  161.1625   47.4457  146.6336 O   0  0  0  0  0  0  0  0  0  0  0  0
  160.0673   41.0761  148.1394 C   0  0  2  0  0  0  0  0  0  0  0  0
  160.3580   47.9673  144.3750 C   0  0  2  0  0  0  0  0  0  0  0  0
  159.1350   48.5517  143.9216 O   0  0  0  0  0  0  0  0  0  0  0  0
  158.6897   41.0469  148.6405 C   0  0  2  0  0  0  0  0  0  0  0  0
  160.8896   47.0099  143.3038 C   0  0  0  0  0  0  0  0  0  0  0  0
  160.1452   45.7956  143.2164 O   0  0  0  0  0  0  0  0  0  0  0  0
  158.4953   40.9768  150.1080 C   0  0  0  0  0  0  0  0  0  0  0  0
  157.3382   40.9522  150.5923 O   0  0  0  0  0  0  0  0  0  0  0  0
  157.8965   41.0909  147.5553 N   0  0  0  0  0  0  0  0  0  0  0  0
  158.6893   41.1458  146.4581 C   0  0  0  0  0  0  0  0  0  0  0  0
  159.9867   41.1377  146.8104 N   0  0  1  0  0  0  0  0  0  0  0  0
  155.0620   44.6260  146.6240 N   0  0  0  0  0  0  0  0  0  0  0  0
  161.7204   44.9457  141.3916 O   0  5  0  0  0  0  0  0  0  0  0  0
  155.9462   45.3755  147.3002 C   0  0  2  0  0  0  0  0  0  0  0  0
  156.0994   45.1206  148.6082 N   0  0  0  0  0  0  0  0  0  0  0  0
  159.6721   43.5229  142.2368 O   0  0  0  0  0  0  0  0  0  0  0  0
  156.6773   46.3645  146.7348 N   0  0  0  0  0  0  0  0  0  0  0  0
  156.5462   46.6531  145.4230 C   0  0  1  0  0  0  0  0  0  0  0  0
  155.5893   45.8628  144.6227 C   0  0  1  0  0  0  0  0  0  0  0  0
  154.8209   44.8029  145.3239 C   0  0  0  0  0  0  0  0  0  0  0  0
  153.9920   44.0763  144.7348 O   0  0  0  0  0  0  0  0  0  0  0  0
  155.6486   46.3492  143.3728 N   0  0  0  0  0  0  0  0  0  0  0  0
  156.5666   47.3554  143.3769 C   0  0  0  0  0  0  0  0  0  0  0  0
  157.1022   47.5415  144.5996 N   0  0  2  0  0  0  0  0  0  0  0  0
  1  3  1  1  0  0  0
  1  4  2  0  0  0  0
  1  6  1  0  0  0  0
  1 22  1  0  0  0  0
  2 28  1  0  0  0  0
  2 35  1  6  0  0  0
  2 38  2  0  0  0  0
  2 10  1  0  0  0  0
  5  6  1  0  0  0  0
  7  5  1  1  0  0  0
  7  8  1  0  0  0  0
  7  9  1  0  0  0  0
  9 10  1  6  0  0  0
  9 11  1  0  0  0  0
 11 12  1  6  0  0  0
 11 13  1  0  0  0  0
 13  8  1  1  0  0  0
 13 33  1  0  0  0  0
 14 46  1  0  0  0  0
 14 17  1  0  0  0  0
 14 25  1  6  0  0  0
 15 16  1  0  0  0  0
 15 29  1  0  0  0  0
 16 18  1  6  0  0  0
 16 21  1  0  0  0  0
 17 19  1  6  0  0  0
 17 20  1  0  0  0  0
 20 22  1  1  0  0  0
 20 24  1  0  0  0  0
 23 21  1  6  0  0  0
 23 26  1  0  0  0  0
 23 33  1  0  0  0  0
 24 25  1  6  0  0  0
 24 27  1  0  0  0  0
 26 29  1  6  0  0  0
 26 31  1  0  0  0  0
 27 28  1  0  0  0  0
 29 30  2  0  0  0  0
 31 32  1  0  0  0  0
 33 32  1  1  0  0  0
 34 36  1  0  0  0  0
 34 42  1  0  0  0  0
 36 37  1  1  0  0  0
 36 39  1  0  0  0  0
 40 39  1  1  0  0  0
 40 41  1  0  0  0  0
 40 46  1  0  0  0  0
 41 42  1  1  0  0  0
 41 44  1  0  0  0  0
 42 43  2  0  0  0  0
 44 45  1  0  0  0  0
 46 45  1  6  0  0  0
M  CHG  2   3  -1  35  -1
M  END
>  <CHROM.1>
-33.24477223,21.11152586,159.45221721,44.53039765,146.12683418,-1.32191158
0.37163784,-0.78391198

>  <Name>
ligand

>  <RI>
0

>  <Rbt.Current_Directory>
/home/itssahil/PROJECTS/Mol_Feturizer/Test_systems_manuscript/rnas/4yb0

>  <Rbt.Executable>
rbdock ($Id: //depot/dev/client3/rdock/2013.1/src/exe/rbdock.cxx#4 $)

>  <Rbt.Library>
libRbt.so (2013.1, Build901 2013/11/27)

>  <Rbt.Parameter_File>
/export/apps/rDock/src/rDock_2013.1_src/data/scripts/dock_solv.prm

>  <Rbt.Receptor>
prm/pocket_docking_6.prm

>  <SCORE>
-17.5529

>  <SCORE.INTER>
-18.5446

>  <SCORE.INTER.CONST>
1

>  <SCORE.INTER.POLAR>
0

>  <SCORE.INTER.ROT>
2

>  <SCORE.INTER.SOLV>
18.9489

>  <SCORE.INTER.VDW>
-23.6127

>  <SCORE.INTER.norm>
-0.403143

>  <SCORE.INTRA>
0.99163

>  <SCORE.INTRA.DIHEDRAL>
0.0278065

>  <SCORE.INTRA.DIHEDRAL.0>
2.42188

>  <SCORE.INTRA.POLAR>
0

>  <SCORE.INTRA.POLAR.0>
0

>  <SCORE.INTRA.REPUL>
0

>  <SCORE.INTRA.REPUL.0>
0

>  <SCORE.INTRA.SOLV>
0.673656

>  <SCORE.INTRA.SOLV.lig_0>
-127.307

>  <SCORE.INTRA.VDW>
0.640899

>  <SCORE.INTRA.VDW.0>
-2.19936

>  <SCORE.INTRA.norm>
0.0215572

>  <SCORE.RESTR>
0

>  <SCORE.RESTR.CAVITY>
0

>  <SCORE.RESTR.norm>
0

>  <SCORE.SYSTEM>
0

>  <SCORE.SYSTEM.CONST>
0

>  <SCORE.SYSTEM.DIHEDRAL>
0

>  <SCORE.SYSTEM.SOLV>
0

>  <SCORE.SYSTEM.norm>
0

>  <SCORE.heavy>
46

>  <SCORE.norm>
-0.381585

>  <RMSD>
5.592

$$$$
ligand
 OpenBabel02271912143D
libRbt.so/2013.1/901 2013/11/27
 46 52  0  0  0  0  0  0  0  0999 V2000
  161.3785   46.4233  147.8548 P   0  0  1  0  0  0  0  0  0  0  0  0
  160.7576   44.1305  142.6791 P   0  0  1  0  0  0  0  0  0  0  0  0
  160.1101   46.5576  148.6573 O   0  5  0  0  0  0  0  0  0  0  0  0
  162.6754   46.7125  148.5787 O   0  0  0  0  0  0  0  0  0  0  0  0
  162.5878   44.1881  147.1194 C   0  0  0  0  0  0  0  0  0  0  0  0
  161.3977   44.9633  147.1818 O   0  0  0  0  0  0  0  0  0  0  0  0
  162.4234   43.0633  146.1107 C   0  0  1  0  0  0  0  0  0  0  0  0
  162.2002   41.8581  146.8287 O   0  0  0  0  0  0  0  0  0  0  0  0
  161.2527   43.2079  145.1467 C   0  0  1  0  0  0  0  0  0  0  0  0
  161.7299   43.6152  143.8728 O   0  0  0  0  0  0  0  0  0  0  0  0
  160.7237   41.7968  145.0208 C   0  0  1  0  0  0  0  0  0  0  0  0
  161.3855   41.1306  143.9437 O   0  0  0  0  0  0  0  0  0  0  0  0
  161.1339   41.0963  146.2836 C   0  0  2  0  0  0  0  0  0  0  0  0
  158.1822   48.3770  144.8529 C   0  0  1  0  0  0  0  0  0  0  0  0
  158.6893   38.6018  150.2012 N   0  0  0  0  0  0  0  0  0  0  0  0
  159.7808   38.2491  149.4961 C   0  0  1  0  0  0  0  0  0  0  0  0
  158.9229   48.0340  146.1286 C   0  0  2  0  0  0  0  0  0  0  0  0
  160.4008   37.0831  149.7848 N   0  0  0  0  0  0  0  0  0  0  0  0
  159.3526   49.2639  146.7191 O   0  0  0  0  0  0  0  0  0  0  0  0
  160.1129   47.2004  145.6915 C   0  0  2  0  0  0  0  0  0  0  0  0
  160.3010   39.0001  148.4990 N   0  0  0  0  0  0  0  0  0  0  0  0
  161.2272   47.3785  146.5648 O   0  0  0  0  0  0  0  0  0  0  0  0
  159.7369   40.1758  148.1490 C   0  0  2  0  0  0  0  0  0  0  0  0
  160.3862   47.7356  144.2876 C   0  0  2  0  0  0  0  0  0  0  0  0
  159.1602   48.2960  143.8126 O   0  0  0  0  0  0  0  0  0  0  0  0
  158.5432   40.6220  148.8741 C   0  0  2  0  0  0  0  0  0  0  0  0
  160.8901   46.6948  143.2829 C   0  0  0  0  0  0  0  0  0  0  0  0
  160.1340   45.4847  143.3008 O   0  0  0  0  0  0  0  0  0  0  0  0
  158.0303   39.7469  149.9545 C   0  0  0  0  0  0  0  0  0  0  0  0
  157.0137   40.0805  150.6098 O   0  0  0  0  0  0  0  0  0  0  0  0
  158.1923   41.7995  148.3271 N   0  0  0  0  0  0  0  0  0  0  0  0
  159.0786   42.0858  147.3434 C   0  0  0  0  0  0  0  0  0  0  0  0
  160.0016   41.1138  147.2398 N   0  0  1  0  0  0  0  0  0  0  0  0
  155.1059   44.6241  146.8751 N   0  0  0  0  0  0  0  0  0  0  0  0
  161.6686   44.4838  141.5185 O   0  5  0  0  0  0  0  0  0  0  0  0
  156.0088   45.4137  147.4769 C   0  0  2  0  0  0  0  0  0  0  0  0
  156.1844   45.2562  148.7974 N   0  0  0  0  0  0  0  0  0  0  0  0
  159.6241   43.1491  142.5047 O   0  0  0  0  0  0  0  0  0  0  0  0
  156.7372   46.3504  146.8256 N   0  0  0  0  0  0  0  0  0  0  0  0
  156.5838   46.5411  145.4984 C   0  0  1  0  0  0  0  0  0  0  0  0
  155.6056   45.7023  144.7773 C   0  0  1  0  0  0  0  0  0  0  0  0
  154.8418   44.7054  145.5700 C   0  0  0  0  0  0  0  0  0  0  0  0
  153.9961   43.9446  145.0523 O   0  0  0  0  0  0  0  0  0  0  0  0
  155.6453   46.0930  143.4935 N   0  0  0  0  0  0  0  0  0  0  0  0
  156.5715   47.0878  143.4053 C   0  0  0  0  0  0  0  0  0  0  0  0
  157.1315   47.3599  144.6007 N   0  0  2  0  0  0  0  0  0  0  0  0
  1  3  1  1  0  0  0
  1  4  2  0  0  0  0
  1  6  1  0  0  0  0
  1 22  1  0  0  0  0
  2 28  1  0  0  0  0
  2 35  1  6  0  0  0
  2 38  2  0  0  0  0
  2 10  1  0  0  0  0
  5  6  1  0  0  0  0
  7  5  1  1  0  0  0
  7  8  1  0  0  0  0
  7  9  1  0  0  0  0
  9 10  1  6  0  0  0
  9 11  1  0  0  0  0
 11 12  1  6  0  0  0
 11 13  1  0  0  0  0
 13  8  1  1  0  0  0
 13 33  1  0  0  0  0
 14 46  1  0  0  0  0
 14 17  1  0  0  0  0
 14 25  1  6  0  0  0
 15 16  1  0  0  0  0
 15 29  1  0  0  0  0
 16 18  1  6  0  0  0
 16 21  1  0  0  0  0
 17 19  1  6  0  0  0
 17 20  1  0  0  0  0
 20 22  1  1  0  0  0
 20 24  1  0  0  0  0
 23 21  1  6  0  0  0
 23 26  1  0  0  0  0
 23 33  1  0  0  0  0
 24 25  1  6  0  0  0
 24 27  1  0  0  0  0
 26 29  1  6  0  0  0
 26 31  1  0  0  0  0
 27 28  1  0  0  0  0
 29 30  2  0  0  0  0
 31 32  1  0  0  0  0
 33 32  1  1  0  0  0
 34 36  1  0  0  0  0
 34 42  1  0  0  0  0
 36 37  1  1  0  0  0
 36 39  1  0  0  0  0
 40 39  1  1  0  0  0
 40 41  1  0  0  0  0
 40 46  1  0  0  0  0
 41 42  1  1  0  0  0
 41 44  1  0  0  0  0
 42 43  2  0  0  0  0
 44 45  1  0  0  0  0
 46 45  1  6  0  0  0
M  CHG  2   3  -1  35  -1
M  END
>  <CHROM.1>
-95.83962733,21.05689749,159.37641287,44.16328037,146.18869413,-1.65811186
-0.35368438,2.60263312

>  <Name>
ligand

>  <RI>
0

>  <Rbt.Current_Directory>
/home/itssahil/PROJECTS/Mol_Feturizer/Test_systems_manuscript/rnas/4yb0

>  <Rbt.Executable>
rbdock ($Id: //depot/dev/client3/rdock/2013.1/src/exe/rbdock.cxx#4 $)

>  <Rbt.Library>
libRbt.so (2013.1, Build901 2013/11/27)

>  <Rbt.Parameter_File>
/export/apps/rDock/src/rDock_2013.1_src/data/scripts/dock_solv.prm

>  <Rbt.Receptor>
prm/pocket_docking_8.prm

>  <SCORE>
-18.5282

>  <SCORE.INTER>
-19.3916

>  <SCORE.INTER.CONST>
1

>  <SCORE.INTER.POLAR>
0

>  <SCORE.INTER.ROT>
2

>  <SCORE.INTER.SOLV>
20.6486

>  <SCORE.INTER.VDW>
-24.7439

>  <SCORE.INTER.norm>
-0.421556

>  <SCORE.INTRA>
0.863375

>  <SCORE.INTRA.DIHEDRAL>
-0.0164164

>  <SCORE.INTRA.DIHEDRAL.0>
2.42188

>  <SCORE.INTRA.POLAR>
0

>  <SCORE.INTRA.POLAR.0>
0

>  <SCORE.INTRA.REPUL>
0

>  <SCORE.INTRA.REPUL.0>
0

>  <SCORE.INTRA.SOLV>
0.624586

>  <SCORE.INTRA.SOLV.lig_0>
-127.307

>  <SCORE.INTRA.VDW>
0.55929

>  <SCORE.INTRA.VDW.0>
-2.19936

>  <SCORE.INTRA.norm>
0.018769

>  <SCORE.RESTR>
0

>  <SCORE.RESTR.CAVITY>
0

>  <SCORE.RESTR.norm>
0

>  <SCORE.SYSTEM>
0

>  <SCORE.SYSTEM.CONST>
0

>  <SCORE.SYSTEM.DIHEDRAL>
0

>  <SCORE.SYSTEM.SOLV>
0

>  <SCORE.SYSTEM.norm>
0

>  <SCORE.heavy>
46

>  <SCORE.norm>
-0.402786

>  <RMSD>
5.595

$$$$
ligand
 OpenBabel02271912143D
libRbt.so/2013.1/901 2013/11/27
 46 52  0  0  0  0  0  0  0  0999 V2000
  159.4037   44.9191  150.8289 P   0  0  1  0  0  0  0  0  0  0  0  0
  161.2877   46.2573  145.6240 P   0  0  1  0  0  0  0  0  0  0  0  0
  157.9474   44.5400  150.9101 O   0  5  0  0  0  0  0  0  0  0  0  0
  160.2334   44.7035  152.0758 O   0  0  0  0  0  0  0  0  0  0  0  0
  161.3464   43.5917  149.6192 C   0  0  0  0  0  0  0  0  0  0  0  0
  160.0497   44.1716  149.5604 O   0  0  0  0  0  0  0  0  0  0  0  0
  161.8564   43.3152  148.2145 C   0  0  1  0  0  0  0  0  0  0  0  0
  161.7260   41.9227  147.9657 O   0  0  0  0  0  0  0  0  0  0  0  0
  161.1082   44.0206  147.0905 C   0  0  1  0  0  0  0  0  0  0  0  0
  161.8764   45.1186  146.6204 O   0  0  0  0  0  0  0  0  0  0  0  0
  161.0566   42.9800  145.9943 C   0  0  1  0  0  0  0  0  0  0  0  0
  162.2086   43.1065  145.1582 O   0  0  0  0  0  0  0  0  0  0  0  0
  161.1666   41.6540  146.6892 C   0  0  2  0  0  0  0  0  0  0  0  0
  157.0738   48.3065  148.3507 C   0  0  1  0  0  0  0  0  0  0  0  0
  157.9834   38.8826  149.8090 N   0  0  0  0  0  0  0  0  0  0  0  0
  159.2778   39.2173  149.9684 C   0  0  1  0  0  0  0  0  0  0  0  0
  157.3796   47.2550  149.3968 C   0  0  2  0  0  0  0  0  0  0  0  0
  159.9284   38.8134  151.0824 N   0  0  0  0  0  0  0  0  0  0  0  0
  157.2268   47.8690  150.6796 O   0  0  0  0  0  0  0  0  0  0  0  0
  158.8240   46.8572  149.1575 C   0  0  2  0  0  0  0  0  0  0  0  0
  159.9787   39.9415  149.0667 N   0  0  0  0  0  0  0  0  0  0  0  0
  159.4671   46.4630  150.3687 O   0  0  0  0  0  0  0  0  0  0  0  0
  159.4005   40.3787  147.9276 C   0  0  2  0  0  0  0  0  0  0  0  0
  159.4209   48.1363  148.5747 C   0  0  2  0  0  0  0  0  0  0  0  0
  158.3392   48.8735  148.0010 O   0  0  0  0  0  0  0  0  0  0  0  0
  157.9922   40.0493  147.6872 C   0  0  2  0  0  0  0  0  0  0  0  0
  160.5062   47.9220  147.5151 C   0  0  0  0  0  0  0  0  0  0  0  0
  160.1464   46.9538  146.5304 O   0  0  0  0  0  0  0  0  0  0  0  0
  157.2885   39.2527  148.7197 C   0  0  0  0  0  0  0  0  0  0  0  0
  156.0819   38.9444  148.5675 O   0  0  0  0  0  0  0  0  0  0  0  0
  157.6791   40.5939  146.4980 N   0  0  0  0  0  0  0  0  0  0  0  0
  158.7820   41.2177  146.0187 C   0  0  0  0  0  0  0  0  0  0  0  0
  159.8095   41.0883  146.8760 N   0  0  1  0  0  0  0  0  0  0  0  0
  156.3172   48.5278  143.1529 N   0  0  0  0  0  0  0  0  0  0  0  0
  162.4193   47.2422  145.3971 O   0  5  0  0  0  0  0  0  0  0  0  0
  156.9655   49.3769  143.9651 C   0  0  2  0  0  0  0  0  0  0  0  0
  157.5229   50.4617  143.4067 N   0  0  0  0  0  0  0  0  0  0  0  0
  160.5962   45.5887  144.4609 O   0  0  0  0  0  0  0  0  0  0  0  0
  157.0855   49.1919  145.3006 N   0  0  0  0  0  0  0  0  0  0  0  0
  156.5426   48.1097  145.8968 C   0  0  1  0  0  0  0  0  0  0  0  0
  155.8145   47.1372  145.0573 C   0  0  1  0  0  0  0  0  0  0  0  0
  155.7385   47.4120  143.5998 C   0  0  0  0  0  0  0  0  0  0  0  0
  155.1407   46.6539  142.8061 O   0  0  0  0  0  0  0  0  0  0  0  0
  155.3866   46.1694  145.8835 N   0  0  0  0  0  0  0  0  0  0  0  0
  155.8006   46.5007  147.1381 C   0  0  0  0  0  0  0  0  0  0  0  0
  156.4934   47.6568  147.1493 N   0  0  2  0  0  0  0  0  0  0  0  0
  1  3  1  1  0  0  0
  1  4  2  0  0  0  0
  1  6  1  0  0  0  0
  1 22  1  0  0  0  0
  2 28  1  0  0  0  0
  2 35  1  6  0  0  0
  2 38  2  0  0  0  0
  2 10  1  0  0  0  0
  5  6  1  0  0  0  0
  7  5  1  1  0  0  0
  7  8  1  0  0  0  0
  7  9  1  0  0  0  0
  9 10  1  6  0  0  0
  9 11  1  0  0  0  0
 11 12  1  6  0  0  0
 11 13  1  0  0  0  0
 13  8  1  1  0  0  0
 13 33  1  0  0  0  0
 14 46  1  0  0  0  0
 14 17  1  0  0  0  0
 14 25  1  6  0  0  0
 15 16  1  0  0  0  0
 15 29  1  0  0  0  0
 16 18  1  6  0  0  0
 16 21  1  0  0  0  0
 17 19  1  1  0  0  0
 17 20  1  0  0  0  0
 20 22  1  1  0  0  0
 20 24  1  0  0  0  0
 23 21  1  6  0  0  0
 23 26  1  0  0  0  0
 23 33  1  0  0  0  0
 24 25  1  6  0  0  0
 24 27  1  0  0  0  0
 26 29  1  6  0  0  0
 26 31  1  0  0  0  0
 27 28  1  0  0  0  0
 29 30  2  0  0  0  0
 31 32  1  0  0  0  0
 33 32  1  1  0  0  0
 34 36  1  0  0  0  0
 34 42  1  0  0  0  0
 36 37  1  6  0  0  0
 36 39  1  0  0  0  0
 40 39  1  6  0  0  0
 40 41  1  0  0  0  0
 40 46  1  0  0  0  0
 41 42  1  6  0  0  0
 41 44  1  0  0  0  0
 42 43  2  0  0  0  0
 44 45  1  0  0  0  0
 46 45  1  1  0  0  0
M  CHG  2   3  -1  35  -1
M  END
>  <CHROM.1>
-28.76860005,-153.78422900,158.95714784,44.80421188,147.47416589,-0.87153018
-1.21835845,0.24048329

>  <Name>
ligand

>  <RI>
0

>  <Rbt.Current_Directory>
/home/itssahil/PROJECTS/Mol_Feturizer/Test_systems_manuscript/rnas/4yb0

>  <Rbt.Executable>
rbdock ($Id: //depot/dev/client3/rdock/2013.1/src/exe/rbdock.cxx#4 $)

>  <Rbt.Library>
libRbt.so (2013.1, Build901 2013/11/27)

>  <Rbt.Parameter_File>
/export/apps/rDock/src/rDock_2013.1_src/data/scripts/dock_solv.prm

>  <Rbt.Receptor>
prm/pocket_docking_6.prm

>  <SCORE>
-14.0635

>  <SCORE.INTER>
-14.584

>  <SCORE.INTER.CONST>
1

>  <SCORE.INTER.POLAR>
0

>  <SCORE.INTER.ROT>
2

>  <SCORE.INTER.SOLV>
10.4697

>  <SCORE.INTER.VDW>
-18.1459

>  <SCORE.INTER.norm>
-0.317044

>  <SCORE.INTRA>
0.520584

>  <SCORE.INTRA.DIHEDRAL>
-0.0286117

>  <SCORE.INTRA.DIHEDRAL.0>
2.42188

>  <SCORE.INTRA.POLAR>
0

>  <SCORE.INTRA.POLAR.0>
0

>  <SCORE.INTRA.REPUL>
0

>  <SCORE.INTRA.REPUL.0>
0

>  <SCORE.INTRA.SOLV>
0.100892

>  <SCORE.INTRA.SOLV.lig_0>
-127.307

>  <SCORE.INTRA.VDW>
0.484444

>  <SCORE.INTRA.VDW.0>
-2.19936

>  <SCORE.INTRA.norm>
0.0113171

>  <SCORE.RESTR>
0

>  <SCORE.RESTR.CAVITY>
0

>  <SCORE.RESTR.norm>
0

>  <SCORE.SYSTEM>
0

>  <SCORE.SYSTEM.CONST>
0

>  <SCORE.SYSTEM.DIHEDRAL>
0

>  <SCORE.SYSTEM.SOLV>
0

>  <SCORE.SYSTEM.norm>
0

>  <SCORE.heavy>
46

>  <SCORE.norm>
-0.305727

>  <RMSD>
5.597

$$$$
ligand
 OpenBabel02271912143D
libRbt.so/2013.1/901 2013/11/27
 46 52  0  0  0  0  0  0  0  0999 V2000
  161.3454   46.4605  147.8441 P   0  0  1  0  0  0  0  0  0  0  0  0
  160.8786   44.5668  142.4937 P   0  0  1  0  0  0  0  0  0  0  0  0
  160.0599   46.4980  148.6296 O   0  5  0  0  0  0  0  0  0  0  0  0
  162.6210   46.7255  148.6137 O   0  0  0  0  0  0  0  0  0  0  0  0
  162.6286   44.3224  146.9600 C   0  0  0  0  0  0  0  0  0  0  0  0
  161.4166   45.0589  147.0595 O   0  0  0  0  0  0  0  0  0  0  0  0
  162.5129   43.2767  145.8633 C   0  0  1  0  0  0  0  0  0  0  0  0
  162.3105   42.0133  146.4803 O   0  0  0  0  0  0  0  0  0  0  0  0
  161.3557   43.4661  144.8908 C   0  0  1  0  0  0  0  0  0  0  0  0
  161.8438   43.9848  143.6623 O   0  0  0  0  0  0  0  0  0  0  0  0
  160.8680   42.0559  144.6446 C   0  0  1  0  0  0  0  0  0  0  0  0
  161.5667   41.4941  143.5318 O   0  0  0  0  0  0  0  0  0  0  0  0
  161.2752   41.2692  145.8564 C   0  0  2  0  0  0  0  0  0  0  0  0
  158.1495   48.5604  144.9422 C   0  0  1  0  0  0  0  0  0  0  0  0
  159.7097   41.2493  150.8659 N   0  0  0  0  0  0  0  0  0  0  0  0
  160.9482   41.3368  150.3449 C   0  0  1  0  0  0  0  0  0  0  0  0
  158.8769   48.1375  146.2014 C   0  0  2  0  0  0  0  0  0  0  0  0
  162.0063   41.4396  151.1799 N   0  0  0  0  0  0  0  0  0  0  0  0
  159.2622   49.3278  146.8946 O   0  0  0  0  0  0  0  0  0  0  0  0
  160.0969   47.3722  145.7238 C   0  0  2  0  0  0  0  0  0  0  0  0
  161.2025   41.3249  149.0167 N   0  0  0  0  0  0  0  0  0  0  0  0
  161.1904   47.5100  146.6301 O   0  0  0  0  0  0  0  0  0  0  0  0
  160.1993   41.2216  148.1190 C   0  0  2  0  0  0  0  0  0  0  0  0
  160.3799   48.0232  144.3717 C   0  0  2  0  0  0  0  0  0  0  0  0
  159.1474   48.5871  143.9181 O   0  0  0  0  0  0  0  0  0  0  0  0
  158.8237   41.1206  148.6161 C   0  0  2  0  0  0  0  0  0  0  0  0
  160.9299   47.0782  143.2987 C   0  0  0  0  0  0  0  0  0  0  0  0
  160.2072   45.8512  143.2071 O   0  0  0  0  0  0  0  0  0  0  0  0
  158.6219   41.1406  150.0840 C   0  0  0  0  0  0  0  0  0  0  0  0
  157.4659   41.0601  150.5648 O   0  0  0  0  0  0  0  0  0  0  0  0
  158.0394   41.0249  147.5277 N   0  0  0  0  0  0  0  0  0  0  0  0
  158.8355   41.0631  146.4322 C   0  0  0  0  0  0  0  0  0  0  0  0
  160.1263   41.1817  146.7887 N   0  0  1  0  0  0  0  0  0  0  0  0
  154.9320   44.7728  146.6567 N   0  0  0  0  0  0  0  0  0  0  0  0
  161.7998   45.0341  141.3824 O   0  5  0  0  0  0  0  0  0  0  0  0
  155.7731   45.5628  147.3417 C   0  0  2  0  0  0  0  0  0  0  0  0
  155.8329   45.3954  148.6712 N   0  0  0  0  0  0  0  0  0  0  0  0
  159.7758   43.5730  142.2209 O   0  0  0  0  0  0  0  0  0  0  0  0
  156.5498   46.5091  146.7643 N   0  0  0  0  0  0  0  0  0  0  0  0
  156.5126   46.7098  145.4302 C   0  0  1  0  0  0  0  0  0  0  0  0
  155.6073   45.8712  144.6193 C   0  0  1  0  0  0  0  0  0  0  0  0
  154.7833   44.8633  145.3340 C   0  0  0  0  0  0  0  0  0  0  0  0
  153.9914   44.1019  144.7380 O   0  0  0  0  0  0  0  0  0  0  0  0
  155.7573   46.2727  143.3471 N   0  0  0  0  0  0  0  0  0  0  0  0
  156.6810   47.2737  143.3485 C   0  0  0  0  0  0  0  0  0  0  0  0
  157.1318   47.5392  144.5906 N   0  0  2  0  0  0  0  0  0  0  0  0
  1  3  1  1  0  0  0
  1  4  2  0  0  0  0
  1  6  1  0  0  0  0
  1 22  1  0  0  0  0
  2 28  1  0  0  0  0
  2 35  1  6  0  0  0
  2 38  2  0  0  0  0
  2 10  1  0  0  0  0
  5  6  1  0  0  0  0
  7  5  1  1  0  0  0
  7  8  1  0  0  0  0
  7  9  1  0  0  0  0
  9 10  1  6  0  0  0
  9 11  1  0  0  0  0
 11 12  1  6  0  0  0
 11 13  1  0  0  0  0
 13  8  1  1  0  0  0
 13 33  1  0  0  0  0
 14 46  1  0  0  0  0
 14 17  1  0  0  0  0
 14 25  1  6  0  0  0
 15 16  1  0  0  0  0
 15 29  1  0  0  0  0
 16 18  1  1  0  0  0
 16 21  1  0  0  0  0
 17 19  1  6  0  0  0
 17 20  1  0  0  0  0
 20 22  1  1  0  0  0
 20 24  1  0  0  0  0
 23 21  1  1  0  0  0
 23 26  1  0  0  0  0
 23 33  1  0  0  0  0
 24 25  1  6  0  0  0
 24 27  1  0  0  0  0
 26 29  1  1  0  0  0
 26 31  1  0  0  0  0
 27 28  1  0  0  0  0
 29 30  2  0  0  0  0
 31 32  1  0  0  0  0
 33 32  1  6  0  0  0
 34 36  1  0  0  0  0
 34 42  1  0  0  0  0
 36 37  1  1  0  0  0
 36 39  1  0  0  0  0
 40 39  1  1  0  0  0
 40 41  1  0  0  0  0
 40 46  1  0  0  0  0
 41 42  1  1  0  0  0
 41 44  1  0  0  0  0
 42 43  2  0  0  0  0
 44 45  1  0  0  0  0
 46 45  1  6  0  0  0
M  CHG  2   3  -1  35  -1
M  END
>  <CHROM.1>
-27.74497831,26.85640198,159.50787994,44.61724982,146.11928453,-1.27537628
0.38236946,-0.81188273

>  <Name>
ligand

>  <RI>
0

>  <Rbt.Current_Directory>
/home/itssahil/PROJECTS/Mol_Feturizer/Test_systems_manuscript/rnas/4yb0

>  <Rbt.Executable>
rbdock ($Id: //depot/dev/client3/rdock/2013.1/src/exe/rbdock.cxx#4 $)

>  <Rbt.Library>
libRbt.so (2013.1, Build901 2013/11/27)

>  <Rbt.Parameter_File>
/export/apps/rDock/src/rDock_2013.1_src/data/scripts/dock_solv.prm

>  <Rbt.Receptor>
prm/pocket_docking_6.prm

>  <SCORE>
-17.2449

>  <SCORE.INTER>
-17.9287

>  <SCORE.INTER.CONST>
1

>  <SCORE.INTER.POLAR>
0

>  <SCORE.INTER.ROT>
2

>  <SCORE.INTER.SOLV>
20.3666

>  <SCORE.INTER.VDW>
-23.6747

>  <SCORE.INTER.norm>
-0.389754

>  <SCORE.INTRA>
0.683826

>  <SCORE.INTRA.DIHEDRAL>
0.030674

>  <SCORE.INTRA.DIHEDRAL.0>
2.42188

>  <SCORE.INTRA.POLAR>
0

>  <SCORE.INTRA.POLAR.0>
0

>  <SCORE.INTRA.REPUL>
0

>  <SCORE.INTRA.REPUL.0>
0

>  <SCORE.INTRA.SOLV>
0.304371

>  <SCORE.INTRA.SOLV.lig_0>
-127.307

>  <SCORE.INTRA.VDW>
0.516304

>  <SCORE.INTRA.VDW.0>
-2.19936

>  <SCORE.INTRA.norm>
0.0148658

>  <SCORE.RESTR>
0

>  <SCORE.RESTR.CAVITY>
0

>  <SCORE.RESTR.norm>
0

>  <SCORE.SYSTEM>
0

>  <SCORE.SYSTEM.CONST>
0

>  <SCORE.SYSTEM.DIHEDRAL>
0

>  <SCORE.SYSTEM.SOLV>
0

>  <SCORE.SYSTEM.norm>
0

>  <SCORE.heavy>
46

>  <SCORE.norm>
-0.374889

>  <RMSD>
5.598

$$$$
ligand
 OpenBabel02271912143D
libRbt.so/2013.1/901 2013/11/27
 46 52  0  0  0  0  0  0  0  0999 V2000
  161.3689   46.4682  147.7325 P   0  0  1  0  0  0  0  0  0  0  0  0
  160.7108   44.0742  142.6074 P   0  0  1  0  0  0  0  0  0  0  0  0
  160.1055   46.6227  148.5394 O   0  5  0  0  0  0  0  0  0  0  0  0
  162.6708   46.7676  148.4431 O   0  0  0  0  0  0  0  0  0  0  0  0
  162.5669   44.2148  147.0352 C   0  0  0  0  0  0  0  0  0  0  0  0
  161.3796   44.9949  147.0888 O   0  0  0  0  0  0  0  0  0  0  0  0
  162.3931   43.0706  146.0502 C   0  0  1  0  0  0  0  0  0  0  0  0
  162.1702   41.8807  146.7935 O   0  0  0  0  0  0  0  0  0  0  0  0
  161.2173   43.1996  145.0902 C   0  0  1  0  0  0  0  0  0  0  0  0
  161.6884   43.5798  143.8057 O   0  0  0  0  0  0  0  0  0  0  0  0
  160.6831   41.7880  144.9957 C   0  0  1  0  0  0  0  0  0  0  0  0
  161.3366   41.0982  143.9283 O   0  0  0  0  0  0  0  0  0  0  0  0
  161.0984   41.1116  146.2698 C   0  0  2  0  0  0  0  0  0  0  0  0
  158.1615   48.3718  144.7104 C   0  0  1  0  0  0  0  0  0  0  0  0
  158.6458   38.6846  150.2247 N   0  0  0  0  0  0  0  0  0  0  0  0
  159.7290   38.3120  149.5171 C   0  0  1  0  0  0  0  0  0  0  0  0
  158.9084   48.0520  145.9884 C   0  0  2  0  0  0  0  0  0  0  0  0
  160.3365   37.1414  149.8137 N   0  0  0  0  0  0  0  0  0  0  0  0
  159.3454   49.2920  146.5517 O   0  0  0  0  0  0  0  0  0  0  0  0
  160.0932   47.2059  145.5613 C   0  0  2  0  0  0  0  0  0  0  0  0
  160.2526   39.0471  148.5100 N   0  0  0  0  0  0  0  0  0  0  0  0
  161.2131   47.3978  146.4245 O   0  0  0  0  0  0  0  0  0  0  0  0
  159.7008   40.2260  148.1516 C   0  0  2  0  0  0  0  0  0  0  0  0
  160.3601   47.7120  144.1454 C   0  0  2  0  0  0  0  0  0  0  0  0
  159.1331   48.2668  143.6663 O   0  0  0  0  0  0  0  0  0  0  0  0
  158.5166   40.6935  148.8789 C   0  0  2  0  0  0  0  0  0  0  0  0
  160.8549   46.6496  143.1589 C   0  0  0  0  0  0  0  0  0  0  0  0
  160.0951   45.4426  143.2055 O   0  0  0  0  0  0  0  0  0  0  0  0
  157.9992   39.8352  149.9705 C   0  0  0  0  0  0  0  0  0  0  0  0
  156.9904   40.1873  150.6280 O   0  0  0  0  0  0  0  0  0  0  0  0
  158.1769   41.8699  148.3224 N   0  0  0  0  0  0  0  0  0  0  0  0
  159.0611   42.1360  147.3312 C   0  0  0  0  0  0  0  0  0  0  0  0
  159.9717   41.1519  147.2320 N   0  0  1  0  0  0  0  0  0  0  0  0
  155.0443   44.7103  146.8350 N   0  0  0  0  0  0  0  0  0  0  0  0
  161.6163   44.4012  141.4348 O   0  5  0  0  0  0  0  0  0  0  0  0
  155.9475   45.5144  147.4167 C   0  0  2  0  0  0  0  0  0  0  0  0
  156.1115   45.4013  148.7432 N   0  0  0  0  0  0  0  0  0  0  0  0
  159.5732   43.0933  142.4593 O   0  0  0  0  0  0  0  0  0  0  0  0
  156.6873   46.4235  146.7396 N   0  0  0  0  0  0  0  0  0  0  0  0
  156.5458   46.5693  145.4054 C   0  0  1  0  0  0  0  0  0  0  0  0
  155.5679   45.7124  144.7054 C   0  0  1  0  0  0  0  0  0  0  0  0
  154.7912   44.7482  145.5257 C   0  0  0  0  0  0  0  0  0  0  0  0
  153.9446   43.9755  145.0274 O   0  0  0  0  0  0  0  0  0  0  0  0
  155.6205   46.0585  143.4094 N   0  0  0  0  0  0  0  0  0  0  0  0
  156.5539   47.0438  143.2947 C   0  0  0  0  0  0  0  0  0  0  0  0
  157.1061   47.3533  144.4846 N   0  0  2  0  0  0  0  0  0  0  0  0
  1  3  1  1  0  0  0
  1  4  2  0  0  0  0
  1  6  1  0  0  0  0
  1 22  1  0  0  0  0
  2 28  1  0  0  0  0
  2 35  1  6  0  0  0
  2 38  2  0  0  0  0
  2 10  1  0  0  0  0
  5  6  1  0  0  0  0
  7  5  1  1  0  0  0
  7  8  1  0  0  0  0
  7  9  1  0  0  0  0
  9 10  1  6  0  0  0
  9 11  1  0  0  0  0
 11 12  1  6  0  0  0
 11 13  1  0  0  0  0
 13  8  1  1  0  0  0
 13 33  1  0  0  0  0
 14 46  1  0  0  0  0
 14 17  1  0  0  0  0
 14 25  1  6  0  0  0
 15 16  1  0  0  0  0
 15 29  1  0  0  0  0
 16 18  1  6  0  0  0
 16 21  1  0  0  0  0
 17 19  1  6  0  0  0
 17 20  1  0  0  0  0
 20 22  1  1  0  0  0
 20 24  1  0  0  0  0
 23 21  1  6  0  0  0
 23 26  1  0  0  0  0
 23 33  1  0  0  0  0
 24 25  1  6  0  0  0
 24 27  1  0  0  0  0
 26 29  1  6  0  0  0
 26 31  1  0  0  0  0
 27 28  1  0  0  0  0
 29 30  2  0  0  0  0
 31 32  1  0  0  0  0
 33 32  1  1  0  0  0
 34 36  1  0  0  0  0
 34 42  1  0  0  0  0
 36 37  1  1  0  0  0
 36 39  1  0  0  0  0
 40 39  1  1  0  0  0
 40 41  1  0  0  0  0
 40 46  1  0  0  0  0
 41 42  1  1  0  0  0
 41 44  1  0  0  0  0
 42 43  2  0  0  0  0
 44 45  1  0  0  0  0
 46 45  1  6  0  0  0
M  CHG  2   3  -1  35  -1
M  END
>  <CHROM.1>
-96.62118447,22.21663076,159.34313022,44.18402733,146.12179904,-1.65854488
-0.36318139,2.58674169

>  <Name>
ligand

>  <RI>
0

>  <Rbt.Current_Directory>
/home/itssahil/PROJECTS/Mol_Feturizer/Test_systems_manuscript/rnas/4yb0

>  <Rbt.Executable>
rbdock ($Id: //depot/dev/client3/rdock/2013.1/src/exe/rbdock.cxx#4 $)

>  <Rbt.Library>
libRbt.so (2013.1, Build901 2013/11/27)

>  <Rbt.Parameter_File>
/export/apps/rDock/src/rDock_2013.1_src/data/scripts/dock_solv.prm

>  <Rbt.Receptor>
prm/pocket_docking_6.prm

>  <SCORE>
-18.5371

>  <SCORE.INTER>
-19.347

>  <SCORE.INTER.CONST>
1

>  <SCORE.INTER.POLAR>
0

>  <SCORE.INTER.ROT>
2

>  <SCORE.INTER.SOLV>
21.1763

>  <SCORE.INTER.VDW>
-24.8901

>  <SCORE.INTER.norm>
-0.420586

>  <SCORE.INTRA>
0.809917

>  <SCORE.INTRA.DIHEDRAL>
-0.0153678

>  <SCORE.INTRA.DIHEDRAL.0>
2.42188

>  <SCORE.INTRA.POLAR>
0

>  <SCORE.INTRA.POLAR.0>
0

>  <SCORE.INTRA.REPUL>
0

>  <SCORE.INTRA.REPUL.0>
0

>  <SCORE.INTRA.SOLV>
0.552323

>  <SCORE.INTRA.SOLV.lig_0>
-127.307

>  <SCORE.INTRA.VDW>
0.54144

>  <SCORE.INTRA.VDW.0>
-2.19936

>  <SCORE.INTRA.norm>
0.0176069

>  <SCORE.RESTR>
0

>  <SCORE.RESTR.CAVITY>
0

>  <SCORE.RESTR.norm>
0

>  <SCORE.SYSTEM>
0

>  <SCORE.SYSTEM.CONST>
0

>  <SCORE.SYSTEM.DIHEDRAL>
0

>  <SCORE.SYSTEM.SOLV>
0

>  <SCORE.SYSTEM.norm>
0

>  <SCORE.heavy>
46

>  <SCORE.norm>
-0.402979

>  <RMSD>
5.598

$$$$
ligand
 OpenBabel02271912143D
libRbt.so/2013.1/901 2013/11/27
 46 52  0  0  0  0  0  0  0  0999 V2000
  161.3818   46.3772  147.8215 P   0  0  1  0  0  0  0  0  0  0  0  0
  160.7075   44.0756  142.6564 P   0  0  1  0  0  0  0  0  0  0  0  0
  160.1207   46.5192  148.6342 O   0  5  0  0  0  0  0  0  0  0  0  0
  162.6860   46.6620  148.5340 O   0  0  0  0  0  0  0  0  0  0  0  0
  162.5748   44.1349  147.0813 C   0  0  0  0  0  0  0  0  0  0  0  0
  161.3888   44.9156  147.1517 O   0  0  0  0  0  0  0  0  0  0  0  0
  162.3969   43.0086  146.0765 C   0  0  1  0  0  0  0  0  0  0  0  0
  162.1741   41.8060  146.7991 O   0  0  0  0  0  0  0  0  0  0  0  0
  161.2188   43.1563  145.1219 C   0  0  1  0  0  0  0  0  0  0  0  0
  161.6874   43.5586  143.8432 O   0  0  0  0  0  0  0  0  0  0  0  0
  160.6823   41.7474  145.0036 C   0  0  1  0  0  0  0  0  0  0  0  0
  161.3322   41.0758  143.9226 O   0  0  0  0  0  0  0  0  0  0  0  0
  161.0998   41.0479  146.2645 C   0  0  2  0  0  0  0  0  0  0  0  0
  158.1697   48.3388  144.8418 C   0  0  1  0  0  0  0  0  0  0  0  0
  158.7292   38.6196  150.2683 N   0  0  0  0  0  0  0  0  0  0  0  0
  159.8202   38.2656  149.5629 C   0  0  1  0  0  0  0  0  0  0  0  0
  158.9193   47.9953  146.1120 C   0  0  2  0  0  0  0  0  0  0  0  0
  160.4613   37.1177  149.8767 N   0  0  0  0  0  0  0  0  0  0  0  0
  159.3596   49.2245  146.6961 O   0  0  0  0  0  0  0  0  0  0  0  0
  160.1019   47.1553  145.6669 C   0  0  2  0  0  0  0  0  0  0  0  0
  160.3197   38.9982  148.5418 N   0  0  0  0  0  0  0  0  0  0  0  0
  161.2242   47.3302  146.5306 O   0  0  0  0  0  0  0  0  0  0  0  0
  159.7338   40.1551  148.1660 C   0  0  2  0  0  0  0  0  0  0  0  0
  160.3659   47.6860  144.2596 C   0  0  2  0  0  0  0  0  0  0  0  0
  159.1386   48.2510  143.7936 O   0  0  0  0  0  0  0  0  0  0  0  0
  158.5393   40.6013  148.8898 C   0  0  2  0  0  0  0  0  0  0  0  0
  160.8568   46.6407  143.2532 C   0  0  0  0  0  0  0  0  0  0  0  0
  160.0953   45.4341  143.2802 O   0  0  0  0  0  0  0  0  0  0  0  0
  158.0498   39.7471  149.9974 C   0  0  0  0  0  0  0  0  0  0  0  0
  157.0336   40.0818  150.6527 O   0  0  0  0  0  0  0  0  0  0  0  0
  158.1649   41.7582  148.3151 N   0  0  0  0  0  0  0  0  0  0  0  0
  159.0380   42.0324  147.3163 C   0  0  0  0  0  0  0  0  0  0  0  0
  159.9756   41.0727  147.2301 N   0  0  1  0  0  0  0  0  0  0  0  0
  155.0226   44.6740  146.9159 N   0  0  0  0  0  0  0  0  0  0  0  0
  161.6105   44.4222  141.4874 O   0  5  0  0  0  0  0  0  0  0  0  0
  155.9244   45.4704  147.5104 C   0  0  2  0  0  0  0  0  0  0  0  0
  156.0778   45.3471  148.8372 N   0  0  0  0  0  0  0  0  0  0  0  0
  159.5681   43.0991  142.4937 O   0  0  0  0  0  0  0  0  0  0  0  0
  156.6727   46.3816  146.8455 N   0  0  0  0  0  0  0  0  0  0  0  0
  156.5420   46.5376  145.5114 C   0  0  1  0  0  0  0  0  0  0  0  0
  155.5663   45.6894  144.7978 C   0  0  1  0  0  0  0  0  0  0  0  0
  154.7798   44.7223  145.6051 C   0  0  0  0  0  0  0  0  0  0  0  0
  153.9341   43.9564  145.0948 O   0  0  0  0  0  0  0  0  0  0  0  0
  155.6301   46.0446  143.5047 N   0  0  0  0  0  0  0  0  0  0  0  0
  156.5681   47.0272  143.4043 C   0  0  0  0  0  0  0  0  0  0  0  0
  157.1123   47.3260  144.6006 N   0  0  2  0  0  0  0  0  0  0  0  0
  1  3  1  1  0  0  0
  1  4  2  0  0  0  0
  1  6  1  0  0  0  0
  1 22  1  0  0  0  0
  2 28  1  0  0  0  0
  2 35  1  6  0  0  0
  2 38  2  0  0  0  0
  2 10  1  0  0  0  0
  5  6  1  0  0  0  0
  7  5  1  1  0  0  0
  7  8  1  0  0  0  0
  7  9  1  0  0  0  0
  9 10  1  6  0  0  0
  9 11  1  0  0  0  0
 11 12  1  6  0  0  0
 11 13  1  0  0  0  0
 13  8  1  1  0  0  0
 13 33  1  0  0  0  0
 14 46  1  0  0  0  0
 14 17  1  0  0  0  0
 14 25  1  6  0  0  0
 15 16  1  0  0  0  0
 15 29  1  0  0  0  0
 16 18  1  6  0  0  0
 16 21  1  0  0  0  0
 17 19  1  6  0  0  0
 17 20  1  0  0  0  0
 20 22  1  1  0  0  0
 20 24  1  0  0  0  0
 23 21  1  6  0  0  0
 23 26  1  0  0  0  0
 23 33  1  0  0  0  0
 24 25  1  6  0  0  0
 24 27  1  0  0  0  0
 26 29  1  6  0  0  0
 26 31  1  0  0  0  0
 27 28  1  0  0  0  0
 29 30  2  0  0  0  0
 31 32  1  0  0  0  0
 33 32  1  1  0  0  0
 34 36  1  0  0  0  0
 34 42  1  0  0  0  0
 36 37  1  1  0  0  0
 36 39  1  0  0  0  0
 40 39  1  1  0  0  0
 40 41  1  0  0  0  0
 40 46  1  0  0  0  0
 41 42  1  1  0  0  0
 41 44  1  0  0  0  0
 42 43  2  0  0  0  0
 44 45  1  0  0  0  0
 46 45  1  6  0  0  0
M  CHG  2   3  -1  35  -1
M  END
>  <CHROM.1>
-94.02215519,23.06559362,159.35371306,44.13526449,146.18574542,-1.67103526
-0.37093852,2.58992775

>  <Name>
ligand

>  <RI>
0

>  <Rbt.Current_Directory>
/home/itssahil/PROJECTS/Mol_Feturizer/Test_systems_manuscript/rnas/4yb0

>  <Rbt.Executable>
rbdock ($Id: //depot/dev/client3/rdock/2013.1/src/exe/rbdock.cxx#4 $)

>  <Rbt.Library>
libRbt.so (2013.1, Build901 2013/11/27)

>  <Rbt.Parameter_File>
/export/apps/rDock/src/rDock_2013.1_src/data/scripts/dock_solv.prm

>  <Rbt.Receptor>
prm/pocket_docking_8.prm

>  <SCORE>
-18.4522

>  <SCORE.INTER>
-19.2835

>  <SCORE.INTER.CONST>
1

>  <SCORE.INTER.POLAR>
0

>  <SCORE.INTER.ROT>
2

>  <SCORE.INTER.SOLV>
21.3928

>  <SCORE.INTER.VDW>
-24.9199

>  <SCORE.INTER.norm>
-0.419206

>  <SCORE.INTRA>
0.831243

>  <SCORE.INTRA.DIHEDRAL>
-0.0158123

>  <SCORE.INTRA.DIHEDRAL.0>
2.42188

>  <SCORE.INTRA.POLAR>
0

>  <SCORE.INTRA.POLAR.0>
0

>  <SCORE.INTRA.REPUL>
0

>  <SCORE.INTRA.REPUL.0>
0

>  <SCORE.INTRA.SOLV>
0.501312

>  <SCORE.INTRA.SOLV.lig_0>
-127.307

>  <SCORE.INTRA.VDW>
0.588493

>  <SCORE.INTRA.VDW.0>
-2.19936

>  <SCORE.INTRA.norm>
0.0180705

>  <SCORE.RESTR>
0

>  <SCORE.RESTR.CAVITY>
0

>  <SCORE.RESTR.norm>
0

>  <SCORE.SYSTEM>
0

>  <SCORE.SYSTEM.CONST>
0

>  <SCORE.SYSTEM.DIHEDRAL>
0

>  <SCORE.SYSTEM.SOLV>
0

>  <SCORE.SYSTEM.norm>
0

>  <SCORE.heavy>
46

>  <SCORE.norm>
-0.401135

>  <RMSD>
5.598

$$$$
ligand
 OpenBabel02271912143D
libRbt.so/2013.1/901 2013/11/27
 46 52  0  0  0  0  0  0  0  0999 V2000
  158.2585   48.2362  149.3259 P   0  0  1  0  0  0  0  0  0  0  0  0
  159.9761   42.9500  148.0862 P   0  0  1  0  0  0  0  0  0  0  0  0
  158.2530   49.2009  148.1682 O   0  5  0  0  0  0  0  0  0  0  0  0
  157.6218   48.7141  150.6127 O   0  0  0  0  0  0  0  0  0  0  0  0
  156.7180   46.1108  149.6560 C   0  0  0  0  0  0  0  0  0  0  0  0
  157.6088   46.8510  148.8316 O   0  0  0  0  0  0  0  0  0  0  0  0
  156.5748   44.6938  149.1255 C   0  0  1  0  0  0  0  0  0  0  0  0
  155.3279   44.6008  148.4513 O   0  0  0  0  0  0  0  0  0  0  0  0
  157.6347   44.2546  148.1232 C   0  0  1  0  0  0  0  0  0  0  0  0
  158.5673   43.3937  148.7602 O   0  0  0  0  0  0  0  0  0  0  0  0
  156.8527   43.4387  147.1183 C   0  0  1  0  0  0  0  0  0  0  0  0
  156.8290   42.0695  147.5265 O   0  0  0  0  0  0  0  0  0  0  0  0
  155.4407   43.9416  147.1994 C   0  0  2  0  0  0  0  0  0  0  0  0
  162.5101   47.6551  147.1740 C   0  0  1  0  0  0  0  0  0  0  0  0
  152.3202   45.4771  143.2685 N   0  0  0  0  0  0  0  0  0  0  0  0
  152.2121   44.4242  144.1008 C   0  0  1  0  0  0  0  0  0  0  0  0
  161.2471   48.3103  147.6929 C   0  0  2  0  0  0  0  0  0  0  0  0
  151.1607   43.5854  143.9656 N   0  0  0  0  0  0  0  0  0  0  0  0
  161.6422   49.4061  148.5230 O   0  0  0  0  0  0  0  0  0  0  0  0
  160.5448   47.2410  148.5087 C   0  0  2  0  0  0  0  0  0  0  0  0
  153.1066   44.1484  145.0768 N   0  0  0  0  0  0  0  0  0  0  0  0
  159.7920   47.8084  149.5799 O   0  0  0  0  0  0  0  0  0  0  0  0
  154.1850   44.9368  145.2728 C   0  0  2  0  0  0  0  0  0  0  0  0
  161.7131   46.3933  149.0073 C   0  0  2  0  0  0  0  0  0  0  0  0
  162.7903   46.5927  148.0893 O   0  0  0  0  0  0  0  0  0  0  0  0
  154.3674   46.1016  144.4011 C   0  0  2  0  0  0  0  0  0  0  0  0
  161.4219   44.8943  149.1289 C   0  0  0  0  0  0  0  0  0  0  0  0
  160.7672   44.3545  147.9816 O   0  0  0  0  0  0  0  0  0  0  0  0
  153.3466   46.3407  143.3538 C   0  0  0  0  0  0  0  0  0  0  0  0
  153.4508   47.3240  142.5816 O   0  0  0  0  0  0  0  0  0  0  0  0
  155.5038   46.6964  144.8055 N   0  0  0  0  0  0  0  0  0  0  0  0
  156.0049   45.9827  145.8423 C   0  0  0  0  0  0  0  0  0  0  0  0
  155.2139   44.9318  146.1201 N   0  0  1  0  0  0  0  0  0  0  0  0
  161.4274   48.5669  142.1110 N   0  0  0  0  0  0  0  0  0  0  0  0
  160.6658   42.0596  149.1028 O   0  5  0  0  0  0  0  0  0  0  0  0
  161.6221   49.4316  143.1186 C   0  0  2  0  0  0  0  0  0  0  0  0
  161.5385   50.7399  142.8346 N   0  0  0  0  0  0  0  0  0  0  0  0
  159.7221   42.4681  146.6785 O   0  0  0  0  0  0  0  0  0  0  0  0
  161.8988   49.0524  144.3882 N   0  0  0  0  0  0  0  0  0  0  0  0
  161.9960   47.7455  144.7103 C   0  0  1  0  0  0  0  0  0  0  0  0
  161.7910   46.7431  143.6455 C   0  0  1  0  0  0  0  0  0  0  0  0
  161.5009   47.2454  142.2783 C   0  0  0  0  0  0  0  0  0  0  0  0
  161.3064   46.4785  141.3109 O   0  0  0  0  0  0  0  0  0  0  0  0
  161.9459   45.5408  144.2224 N   0  0  0  0  0  0  0  0  0  0  0  0
  162.2189   45.7595  145.5388 C   0  0  0  0  0  0  0  0  0  0  0  0
  162.2525   47.0744  145.8329 N   0  0  2  0  0  0  0  0  0  0  0  0
  1  3  1  6  0  0  0
  1  4  2  0  0  0  0
  1  6  1  0  0  0  0
  1 22  1  0  0  0  0
  2 28  1  0  0  0  0
  2 35  1  1  0  0  0
  2 38  2  0  0  0  0
  2 10  1  0  0  0  0
  5  6  1  0  0  0  0
  7  5  1  6  0  0  0
  7  8  1  0  0  0  0
  7  9  1  0  0  0  0
  9 10  1  1  0  0  0
  9 11  1  0  0  0  0
 11 12  1  1  0  0  0
 11 13  1  0  0  0  0
 13  8  1  1  0  0  0
 13 33  1  0  0  0  0
 14 46  1  0  0  0  0
 14 17  1  0  0  0  0
 14 25  1  1  0  0  0
 15 16  1  0  0  0  0
 15 29  1  0  0  0  0
 16 18  1  6  0  0  0
 16 21  1  0  0  0  0
 17 19  1  1  0  0  0
 17 20  1  0  0  0  0
 20 22  1  1  0  0  0
 20 24  1  0  0  0  0
 23 21  1  6  0  0  0
 23 26  1  0  0  0  0
 23 33  1  0  0  0  0
 24 25  1  6  0  0  0
 24 27  1  0  0  0  0
 26 29  1  6  0  0  0
 26 31  1  0  0  0  0
 27 28  1  0  0  0  0
 29 30  2  0  0  0  0
 31 32  1  0  0  0  0
 33 32  1  1  0  0  0
 34 36  1  0  0  0  0
 34 42  1  0  0  0  0
 36 37  1  6  0  0  0
 36 39  1  0  0  0  0
 40 39  1  6  0  0  0
 40 41  1  0  0  0  0
 40 46  1  0  0  0  0
 41 42  1  6  0  0  0
 41 44  1  0  0  0  0
 42 43  2  0  0  0  0
 44 45  1  0  0  0  0
 46 45  1  1  0  0  0
M  CHG  2   3  -1  35  -1
M  END
>  <CHROM.1>
-113.84247544,67.47733897,158.51258044,46.04279883,146.54428691,-0.01629416
0.34226600,2.01115860

>  <Name>
ligand

>  <RI>
0

>  <Rbt.Current_Directory>
/home/itssahil/PROJECTS/Mol_Feturizer/Test_systems_manuscript/rnas/4yb0

>  <Rbt.Executable>
rbdock ($Id: //depot/dev/client3/rdock/2013.1/src/exe/rbdock.cxx#4 $)

>  <Rbt.Library>
libRbt.so (2013.1, Build901 2013/11/27)

>  <Rbt.Parameter_File>
/export/apps/rDock/src/rDock_2013.1_src/data/scripts/dock_solv.prm

>  <Rbt.Receptor>
prm/pocket_docking_6.prm

>  <SCORE>
-25.4188

>  <SCORE.INTER>
-25.3129

>  <SCORE.INTER.CONST>
1

>  <SCORE.INTER.POLAR>
0

>  <SCORE.INTER.ROT>
2

>  <SCORE.INTER.SOLV>
12.212

>  <SCORE.INTER.VDW>
-25.8793

>  <SCORE.INTER.norm>
-0.550281

>  <SCORE.INTRA>
-0.105903

>  <SCORE.INTRA.DIHEDRAL>
-0.0408874

>  <SCORE.INTRA.DIHEDRAL.0>
2.42188

>  <SCORE.INTRA.POLAR>
0

>  <SCORE.INTRA.POLAR.0>
0

>  <SCORE.INTRA.REPUL>
0

>  <SCORE.INTRA.REPUL.0>
0

>  <SCORE.INTRA.SOLV>
-0.0182433

>  <SCORE.INTRA.SOLV.lig_0>
-127.307

>  <SCORE.INTRA.VDW>
-0.076338

>  <SCORE.INTRA.VDW.0>
-2.19936

>  <SCORE.INTRA.norm>
-0.00230225

>  <SCORE.RESTR>
0

>  <SCORE.RESTR.CAVITY>
0

>  <SCORE.RESTR.norm>
0

>  <SCORE.SYSTEM>
0

>  <SCORE.SYSTEM.CONST>
0

>  <SCORE.SYSTEM.DIHEDRAL>
0

>  <SCORE.SYSTEM.SOLV>
0

>  <SCORE.SYSTEM.norm>
0

>  <SCORE.heavy>
46

>  <SCORE.norm>
-0.552583

>  <RMSD>
5.599

$$$$
ligand
 OpenBabel02271912143D
libRbt.so/2013.1/901 2013/11/27
 46 52  0  0  0  0  0  0  0  0999 V2000
  157.1004   48.1314  143.7300 P   0  0  1  0  0  0  0  0  0  0  0  0
  161.8216   48.0301  146.9128 P   0  0  1  0  0  0  0  0  0  0  0  0
  156.7129   46.8143  143.1085 O   0  5  0  0  0  0  0  0  0  0  0  0
  156.0990   49.2597  143.6128 O   0  0  0  0  0  0  0  0  0  0  0  0
  157.1131   48.7551  146.3010 C   0  0  0  0  0  0  0  0  0  0  0  0
  157.5054   47.8662  145.2632 O   0  0  0  0  0  0  0  0  0  0  0  0
  157.9397   48.4940  147.5494 C   0  0  1  0  0  0  0  0  0  0  0  0
  157.1332   47.7687  148.4667 O   0  0  0  0  0  0  0  0  0  0  0  0
  159.2012   47.6651  147.3435 C   0  0  1  0  0  0  0  0  0  0  0  0
  160.3397   48.5135  147.3668 O   0  0  0  0  0  0  0  0  0  0  0  0
  159.2475   46.7833  148.5712 C   0  0  1  0  0  0  0  0  0  0  0  0
  159.9809   47.4406  149.6067 O   0  0  0  0  0  0  0  0  0  0  0  0
  157.8275   46.6743  149.0455 C   0  0  2  0  0  0  0  0  0  0  0  0
  161.1383   46.4137  141.7834 C   0  0  1  0  0  0  0  0  0  0  0  0
  158.7194   41.7072  147.6039 N   0  0  0  0  0  0  0  0  0  0  0  0
  159.5752   42.6499  148.0419 C   0  0  1  0  0  0  0  0  0  0  0  0
  159.6698   46.7147  141.9993 C   0  0  2  0  0  0  0  0  0  0  0  0
  160.8870   42.3442  148.1559 N   0  0  0  0  0  0  0  0  0  0  0  0
  159.1824   47.3468  140.8124 O   0  0  0  0  0  0  0  0  0  0  0  0
  159.6237   47.6699  143.1773 C   0  0  2  0  0  0  0  0  0  0  0  0
  159.1973   43.9044  148.3768 N   0  0  0  0  0  0  0  0  0  0  0  0
  158.5141   48.5623  143.0858 O   0  0  0  0  0  0  0  0  0  0  0  0
  157.9057   44.2875  148.2868 C   0  0  2  0  0  0  0  0  0  0  0  0
  160.9620   48.3959  143.0593 C   0  0  2  0  0  0  0  0  0  0  0  0
  161.8401   47.5299  142.3370 O   0  0  0  0  0  0  0  0  0  0  0  0
  156.9182   43.3117  147.8151 C   0  0  2  0  0  0  0  0  0  0  0  0
  161.6121   48.7794  144.3923 C   0  0  0  0  0  0  0  0  0  0  0  0
  161.6166   47.7142  145.3420 O   0  0  0  0  0  0  0  0  0  0  0  0
  157.4058   41.9564  147.4666 C   0  0  0  0  0  0  0  0  0  0  0  0
  156.6044   41.0809  147.0603 O   0  0  0  0  0  0  0  0  0  0  0  0
  155.7336   43.9486  147.8170 N   0  0  0  0  0  0  0  0  0  0  0  0
  155.9388   45.2151  148.2516 C   0  0  0  0  0  0  0  0  0  0  0  0
  157.2383   45.4147  148.5327 N   0  0  1  0  0  0  0  0  0  0  0  0
  160.5961   41.2096  142.2946 N   0  0  0  0  0  0  0  0  0  0  0  0
  162.7238   49.2401  147.0681 O   0  5  0  0  0  0  0  0  0  0  0  0
  160.0604   42.0461  141.3923 C   0  0  2  0  0  0  0  0  0  0  0  0
  159.2580   41.5150  140.4577 N   0  0  0  0  0  0  0  0  0  0  0  0
  162.1488   46.7254  147.5976 O   0  0  0  0  0  0  0  0  0  0  0  0
  160.2906   43.3799  141.3779 N   0  0  0  0  0  0  0  0  0  0  0  0
  161.0964   43.9490  142.2989 C   0  0  1  0  0  0  0  0  0  0  0  0
  161.7163   43.0819  143.3209 C   0  0  1  0  0  0  0  0  0  0  0  0
  161.4181   41.6283  143.2583 C   0  0  0  0  0  0  0  0  0  0  0  0
  161.8886   40.8127  144.0801 O   0  0  0  0  0  0  0  0  0  0  0  0
  162.4615   43.8846  144.0971 N   0  0  0  0  0  0  0  0  0  0  0  0
  162.3225   45.1509  143.6150 C   0  0  0  0  0  0  0  0  0  0  0  0
  161.5107   45.1926  142.5399 N   0  0  2  0  0  0  0  0  0  0  0  0
  1  3  1  6  0  0  0
  1  4  2  0  0  0  0
  1  6  1  0  0  0  0
  1 22  1  0  0  0  0
  2 28  1  0  0  0  0
  2 35  1  1  0  0  0
  2 38  2  0  0  0  0
  2 10  1  0  0  0  0
  5  6  1  0  0  0  0
  7  5  1  6  0  0  0
  7  8  1  0  0  0  0
  7  9  1  0  0  0  0
  9 10  1  1  0  0  0
  9 11  1  0  0  0  0
 11 12  1  1  0  0  0
 11 13  1  0  0  0  0
 13  8  1  6  0  0  0
 13 33  1  0  0  0  0
 14 46  1  0  0  0  0
 14 17  1  0  0  0  0
 14 25  1  1  0  0  0
 15 16  1  0  0  0  0
 15 29  1  0  0  0  0
 16 18  1  6  0  0  0
 16 21  1  0  0  0  0
 17 19  1  6  0  0  0
 17 20  1  0  0  0  0
 20 22  1  6  0  0  0
 20 24  1  0  0  0  0
 23 21  1  6  0  0  0
 23 26  1  0  0  0  0
 23 33  1  0  0  0  0
 24 25  1  1  0  0  0
 24 27  1  0  0  0  0
 26 29  1  6  0  0  0
 26 31  1  0  0  0  0
 27 28  1  0  0  0  0
 29 30  2  0  0  0  0
 31 32  1  0  0  0  0
 33 32  1  1  0  0  0
 34 36  1  0  0  0  0
 34 42  1  0  0  0  0
 36 37  1  6  0  0  0
 36 39  1  0  0  0  0
 40 39  1  6  0  0  0
 40 41  1  0  0  0  0
 40 46  1  0  0  0  0
 41 42  1  6  0  0  0
 41 44  1  0  0  0  0
 42 43  2  0  0  0  0
 44 45  1  0  0  0  0
 46 45  1  1  0  0  0
M  CHG  2   3  -1  35  -1
M  END
>  <CHROM.1>
145.63738660,67.44513521,159.47356815,45.76992506,145.29787266,-2.61220328
-1.17241837,3.11584677

>  <Name>
ligand

>  <RI>
0

>  <Rbt.Current_Directory>
/home/itssahil/PROJECTS/Mol_Feturizer/Test_systems_manuscript/rnas/4yb0

>  <Rbt.Executable>
rbdock ($Id: //depot/dev/client3/rdock/2013.1/src/exe/rbdock.cxx#4 $)

>  <Rbt.Library>
libRbt.so (2013.1, Build901 2013/11/27)

>  <Rbt.Parameter_File>
/export/apps/rDock/src/rDock_2013.1_src/data/scripts/dock_solv.prm

>  <Rbt.Receptor>
prm/pocket_docking_5.prm

>  <SCORE>
-13.7689

>  <SCORE.INTER>
-14.1855

>  <SCORE.INTER.CONST>
1

>  <SCORE.INTER.POLAR>
0

>  <SCORE.INTER.ROT>
2

>  <SCORE.INTER.SOLV>
21.8328

>  <SCORE.INTER.VDW>
-21.6679

>  <SCORE.INTER.norm>
-0.308381

>  <SCORE.INTRA>
0.416666

>  <SCORE.INTRA.DIHEDRAL>
-0.0562079

>  <SCORE.INTRA.DIHEDRAL.0>
2.42188

>  <SCORE.INTRA.POLAR>
0

>  <SCORE.INTRA.POLAR.0>
0

>  <SCORE.INTRA.REPUL>
0

>  <SCORE.INTRA.REPUL.0>
0

>  <SCORE.INTRA.SOLV>
0.0154556

>  <SCORE.INTRA.SOLV.lig_0>
-127.307

>  <SCORE.INTRA.VDW>
0.437042

>  <SCORE.INTRA.VDW.0>
-2.19936

>  <SCORE.INTRA.norm>
0.00905795

>  <SCORE.RESTR>
0

>  <SCORE.RESTR.CAVITY>
0

>  <SCORE.RESTR.norm>
0

>  <SCORE.SYSTEM>
0

>  <SCORE.SYSTEM.CONST>
0

>  <SCORE.SYSTEM.DIHEDRAL>
0

>  <SCORE.SYSTEM.SOLV>
0

>  <SCORE.SYSTEM.norm>
0

>  <SCORE.heavy>
46

>  <SCORE.norm>
-0.299323

>  <RMSD>
5.601

$$$$
ligand
 OpenBabel02271912143D
libRbt.so/2013.1/901 2013/11/27
 46 52  0  0  0  0  0  0  0  0999 V2000
  161.6690   47.4642  147.8965 P   0  0  1  0  0  0  0  0  0  0  0  0
  160.2359   47.0303  142.4021 P   0  0  1  0  0  0  0  0  0  0  0  0
  160.6881   46.8611  148.8687 O   0  5  0  0  0  0  0  0  0  0  0  0
  162.9954   47.9209  148.4637 O   0  0  0  0  0  0  0  0  0  0  0  0
  163.1604   46.1931  146.1191 C   0  0  0  0  0  0  0  0  0  0  0  0
  161.8771   46.4304  146.6828 O   0  0  0  0  0  0  0  0  0  0  0  0
  163.0173   45.5027  144.7728 C   0  0  1  0  0  0  0  0  0  0  0  0
  163.3264   44.1274  144.9490 O   0  0  0  0  0  0  0  0  0  0  0  0
  161.6271   45.5506  144.1516 C   0  0  1  0  0  0  0  0  0  0  0  0
  161.6038   46.5109  143.1057 O   0  0  0  0  0  0  0  0  0  0  0  0
  161.4699   44.1793  143.5336 C   0  0  1  0  0  0  0  0  0  0  0  0
  161.9515   44.2012  142.1884 O   0  0  0  0  0  0  0  0  0  0  0  0
  162.3861   43.2781  144.3094 C   0  0  2  0  0  0  0  0  0  0  0  0
  157.3642   49.0807  146.5181 C   0  0  1  0  0  0  0  0  0  0  0  0
  162.1153   41.8506  149.3527 N   0  0  0  0  0  0  0  0  0  0  0  0
  163.0683   42.5392  148.6965 C   0  0  1  0  0  0  0  0  0  0  0  0
  158.4964   48.6021  147.4028 C   0  0  2  0  0  0  0  0  0  0  0  0
  164.1567   42.9646  149.3758 N   0  0  0  0  0  0  0  0  0  0  0  0
  158.7397   49.6208  148.3769 O   0  0  0  0  0  0  0  0  0  0  0  0
  159.6894   48.4427  146.4790 C   0  0  2  0  0  0  0  0  0  0  0  0
  163.0036   42.8330  147.3780 N   0  0  0  0  0  0  0  0  0  0  0  0
  160.9181   48.6873  147.1622 O   0  0  0  0  0  0  0  0  0  0  0  0
  161.9503   42.4399  146.6302 C   0  0  2  0  0  0  0  0  0  0  0  0
  159.4079   49.4878  145.4017 C   0  0  2  0  0  0  0  0  0  0  0  0
  157.9961   49.7104  145.4003 O   0  0  0  0  0  0  0  0  0  0  0  0
  160.8751   41.6837  147.2797 C   0  0  2  0  0  0  0  0  0  0  0  0
  159.8614   49.1031  143.9900 C   0  0  0  0  0  0  0  0  0  0  0  0
  159.4826   47.7780  143.6199 O   0  0  0  0  0  0  0  0  0  0  0  0
  161.0146   41.3992  148.7273 C   0  0  0  0  0  0  0  0  0  0  0  0
  160.1234   40.7584  149.3348 O   0  0  0  0  0  0  0  0  0  0  0  0
  159.9714   41.4197  146.3192 N   0  0  0  0  0  0  0  0  0  0  0  0
  160.4216   41.9577  145.1602 C   0  0  0  0  0  0  0  0  0  0  0  0
  161.6045   42.5680  145.3494 N   0  0  1  0  0  0  0  0  0  0  0  0
  155.1235   44.4754  147.7048 N   0  0  0  0  0  0  0  0  0  0  0  0
  160.6592   48.0564  141.3678 O   0  5  0  0  0  0  0  0  0  0  0  0
  155.7907   45.3354  148.4897 C   0  0  2  0  0  0  0  0  0  0  0  0
  155.9294   45.0105  149.7837 N   0  0  0  0  0  0  0  0  0  0  0  0
  159.3949   45.8386  142.0138 O   0  0  0  0  0  0  0  0  0  0  0  0
  156.3191   46.4998  148.0456 N   0  0  0  0  0  0  0  0  0  0  0  0
  156.1949   46.8625  146.7517 C   0  0  1  0  0  0  0  0  0  0  0  0
  155.4718   45.9579  145.8355 C   0  0  1  0  0  0  0  0  0  0  0  0
  154.9154   44.7053  146.4073 C   0  0  0  0  0  0  0  0  0  0  0  0
  154.2928   43.8720  145.7143 O   0  0  0  0  0  0  0  0  0  0  0  0
  155.4875   46.5483  144.6299 N   0  0  0  0  0  0  0  0  0  0  0  0
  156.1661   47.7214  144.7663 C   0  0  0  0  0  0  0  0  0  0  0  0
  156.5872   47.9136  146.0321 N   0  0  2  0  0  0  0  0  0  0  0  0
  1  3  1  1  0  0  0
  1  4  2  0  0  0  0
  1  6  1  0  0  0  0
  1 22  1  0  0  0  0
  2 28  1  0  0  0  0
  2 35  1  6  0  0  0
  2 38  2  0  0  0  0
  2 10  1  0  0  0  0
  5  6  1  0  0  0  0
  7  5  1  1  0  0  0
  7  8  1  0  0  0  0
  7  9  1  0  0  0  0
  9 10  1  6  0  0  0
  9 11  1  0  0  0  0
 11 12  1  6  0  0  0
 11 13  1  0  0  0  0
 13  8  1  1  0  0  0
 13 33  1  0  0  0  0
 14 46  1  0  0  0  0
 14 17  1  0  0  0  0
 14 25  1  6  0  0  0
 15 16  1  0  0  0  0
 15 29  1  0  0  0  0
 16 18  1  6  0  0  0
 16 21  1  0  0  0  0
 17 19  1  1  0  0  0
 17 20  1  0  0  0  0
 20 22  1  1  0  0  0
 20 24  1  0  0  0  0
 23 21  1  6  0  0  0
 23 26  1  0  0  0  0
 23 33  1  0  0  0  0
 24 25  1  6  0  0  0
 24 27  1  0  0  0  0
 26 29  1  6  0  0  0
 26 31  1  0  0  0  0
 27 28  1  0  0  0  0
 29 30  2  0  0  0  0
 31 32  1  0  0  0  0
 33 32  1  1  0  0  0
 34 36  1  0  0  0  0
 34 42  1  0  0  0  0
 36 37  1  1  0  0  0
 36 39  1  0  0  0  0
 40 39  1  1  0  0  0
 40 41  1  0  0  0  0
 40 46  1  0  0  0  0
 41 42  1  1  0  0  0
 41 44  1  0  0  0  0
 42 43  2  0  0  0  0
 44 45  1  0  0  0  0
 46 45  1  6  0  0  0
M  CHG  2   3  -1  35  -1
M  END
>  <CHROM.1>
-17.44260491,43.92476494,159.86079773,45.73650589,146.06305030,-0.68626312
0.37922140,-0.70084278

>  <Name>
ligand

>  <RI>
0

>  <Rbt.Current_Directory>
/home/itssahil/PROJECTS/Mol_Feturizer/Test_systems_manuscript/rnas/4yb0

>  <Rbt.Executable>
rbdock ($Id: //depot/dev/client3/rdock/2013.1/src/exe/rbdock.cxx#4 $)

>  <Rbt.Library>
libRbt.so (2013.1, Build901 2013/11/27)

>  <Rbt.Parameter_File>
/export/apps/rDock/src/rDock_2013.1_src/data/scripts/dock_solv.prm

>  <Rbt.Receptor>
prm/pocket_docking_7.prm

>  <SCORE>
-19.8382

>  <SCORE.INTER>
-19.9124

>  <SCORE.INTER.CONST>
1

>  <SCORE.INTER.POLAR>
0

>  <SCORE.INTER.ROT>
2

>  <SCORE.INTER.SOLV>
19.4339

>  <SCORE.INTER.VDW>
-24.6862

>  <SCORE.INTER.norm>
-0.432877

>  <SCORE.INTRA>
0.0741389

>  <SCORE.INTRA.DIHEDRAL>
0.0184073

>  <SCORE.INTRA.DIHEDRAL.0>
2.42188

>  <SCORE.INTRA.POLAR>
0

>  <SCORE.INTRA.POLAR.0>
0

>  <SCORE.INTRA.REPUL>
0

>  <SCORE.INTRA.REPUL.0>
0

>  <SCORE.INTRA.SOLV>
0.0772538

>  <SCORE.INTRA.SOLV.lig_0>
-127.307

>  <SCORE.INTRA.VDW>
0.0263084

>  <SCORE.INTRA.VDW.0>
-2.19936

>  <SCORE.INTRA.norm>
0.00161172

>  <SCORE.RESTR>
0

>  <SCORE.RESTR.CAVITY>
0

>  <SCORE.RESTR.norm>
0

>  <SCORE.SYSTEM>
0

>  <SCORE.SYSTEM.CONST>
0

>  <SCORE.SYSTEM.DIHEDRAL>
0

>  <SCORE.SYSTEM.SOLV>
0

>  <SCORE.SYSTEM.norm>
0

>  <SCORE.heavy>
46

>  <SCORE.norm>
-0.431266

>  <RMSD>
5.606

$$$$
ligand
 OpenBabel02271912143D
libRbt.so/2013.1/901 2013/11/27
 46 52  0  0  0  0  0  0  0  0999 V2000
  161.3927   46.4140  147.8688 P   0  0  1  0  0  0  0  0  0  0  0  0
  160.7661   44.1211  142.6938 P   0  0  1  0  0  0  0  0  0  0  0  0
  160.1231   46.5615  148.6671 O   0  5  0  0  0  0  0  0  0  0  0  0
  162.6900   46.6915  148.5965 O   0  0  0  0  0  0  0  0  0  0  0  0
  162.5828   44.1664  147.1399 C   0  0  0  0  0  0  0  0  0  0  0  0
  161.4000   44.9530  147.1976 O   0  0  0  0  0  0  0  0  0  0  0  0
  162.4107   43.0420  146.1319 C   0  0  1  0  0  0  0  0  0  0  0  0
  162.1736   41.8399  146.8507 O   0  0  0  0  0  0  0  0  0  0  0  0
  161.2445   43.1967  145.1641 C   0  0  1  0  0  0  0  0  0  0  0  0
  161.7297   43.5979  143.8913 O   0  0  0  0  0  0  0  0  0  0  0  0
  160.7023   41.7906  145.0381 C   0  0  1  0  0  0  0  0  0  0  0  0
  161.3611   41.1168  143.9639 O   0  0  0  0  0  0  0  0  0  0  0  0
  161.1017   41.0877  146.3030 C   0  0  2  0  0  0  0  0  0  0  0  0
  158.2250   48.3948  144.8545 C   0  0  1  0  0  0  0  0  0  0  0  0
  158.6528   38.6492  150.2530 N   0  0  0  0  0  0  0  0  0  0  0  0
  159.7473   38.2883  149.5567 C   0  0  1  0  0  0  0  0  0  0  0  0
  158.9582   48.0463  146.1329 C   0  0  2  0  0  0  0  0  0  0  0  0
  160.3697   37.1289  149.8658 N   0  0  0  0  0  0  0  0  0  0  0  0
  159.3979   49.2726  146.7234 O   0  0  0  0  0  0  0  0  0  0  0  0
  160.1415   47.2007  145.7005 C   0  0  2  0  0  0  0  0  0  0  0  0
  160.2682   39.0249  148.5493 N   0  0  0  0  0  0  0  0  0  0  0  0
  161.2547   47.3691  146.5773 O   0  0  0  0  0  0  0  0  0  0  0  0
  159.7019   40.1932  148.1789 C   0  0  2  0  0  0  0  0  0  0  0  0
  160.4244   47.7315  144.2969 C   0  0  2  0  0  0  0  0  0  0  0  0
  159.2054   48.3032  143.8174 O   0  0  0  0  0  0  0  0  0  0  0  0
  158.5049   40.6475  148.8934 C   0  0  2  0  0  0  0  0  0  0  0  0
  160.9215   46.6847  143.2951 C   0  0  0  0  0  0  0  0  0  0  0  0
  160.1537   45.4820  143.3120 O   0  0  0  0  0  0  0  0  0  0  0  0
  157.9913   39.7884  149.9862 C   0  0  0  0  0  0  0  0  0  0  0  0
  156.9719   40.1295  150.6331 O   0  0  0  0  0  0  0  0  0  0  0  0
  158.1523   41.8151  148.3266 N   0  0  0  0  0  0  0  0  0  0  0  0
  159.0407   42.0882  147.3410 C   0  0  0  0  0  0  0  0  0  0  0  0
  159.9666   41.1173  147.2556 N   0  0  1  0  0  0  0  0  0  0  0  0
  155.1365   44.6444  146.8628 N   0  0  0  0  0  0  0  0  0  0  0  0
  161.6843   44.4643  141.5357 O   0  5  0  0  0  0  0  0  0  0  0  0
  156.0491   45.4219  147.4656 C   0  0  2  0  0  0  0  0  0  0  0  0
  156.2330   45.2505  148.7832 N   0  0  0  0  0  0  0  0  0  0  0  0
  159.6238   43.1505  142.5170 O   0  0  0  0  0  0  0  0  0  0  0  0
  156.7795   46.3597  146.8180 N   0  0  0  0  0  0  0  0  0  0  0  0
  156.6182   46.5641  145.4939 C   0  0  1  0  0  0  0  0  0  0  0  0
  155.6289   45.7391  144.7717 C   0  0  1  0  0  0  0  0  0  0  0  0
  154.8637   44.7401  145.5604 C   0  0  0  0  0  0  0  0  0  0  0  0
  154.0090   43.9903  145.0415 O   0  0  0  0  0  0  0  0  0  0  0  0
  155.6624   46.1419  143.4915 N   0  0  0  0  0  0  0  0  0  0  0  0
  156.5949   47.1309  143.4062 C   0  0  0  0  0  0  0  0  0  0  0  0
  157.1653   47.3876  144.6001 N   0  0  2  0  0  0  0  0  0  0  0  0
  1  3  1  1  0  0  0
  1  4  2  0  0  0  0
  1  6  1  0  0  0  0
  1 22  1  0  0  0  0
  2 28  1  0  0  0  0
  2 35  1  6  0  0  0
  2 38  2  0  0  0  0
  2 10  1  0  0  0  0
  5  6  1  0  0  0  0
  7  5  1  1  0  0  0
  7  8  1  0  0  0  0
  7  9  1  0  0  0  0
  9 10  1  6  0  0  0
  9 11  1  0  0  0  0
 11 12  1  6  0  0  0
 11 13  1  0  0  0  0
 13  8  1  1  0  0  0
 13 33  1  0  0  0  0
 14 46  1  0  0  0  0
 14 17  1  0  0  0  0
 14 25  1  6  0  0  0
 15 16  1  0  0  0  0
 15 29  1  0  0  0  0
 16 18  1  6  0  0  0
 16 21  1  0  0  0  0
 17 19  1  6  0  0  0
 17 20  1  0  0  0  0
 20 22  1  1  0  0  0
 20 24  1  0  0  0  0
 23 21  1  6  0  0  0
 23 26  1  0  0  0  0
 23 33  1  0  0  0  0
 24 25  1  6  0  0  0
 24 27  1  0  0  0  0
 26 29  1  6  0  0  0
 26 31  1  0  0  0  0
 27 28  1  0  0  0  0
 29 30  2  0  0  0  0
 31 32  1  0  0  0  0
 33 32  1  1  0  0  0
 34 36  1  0  0  0  0
 34 42  1  0  0  0  0
 36 37  1  1  0  0  0
 36 39  1  0  0  0  0
 40 39  1  1  0  0  0
 40 41  1  0  0  0  0
 40 46  1  0  0  0  0
 41 42  1  1  0  0  0
 41 44  1  0  0  0  0
 42 43  2  0  0  0  0
 44 45  1  0  0  0  0
 46 45  1  6  0  0  0
M  CHG  2   3  -1  35  -1
M  END
>  <CHROM.1>
-94.73172057,20.19240902,159.38100165,44.17116532,146.20206905,-1.64948273
-0.35405076,2.59905841

>  <Name>
ligand

>  <RI>
0

>  <Rbt.Current_Directory>
/home/itssahil/PROJECTS/Mol_Feturizer/Test_systems_manuscript/rnas/4yb0

>  <Rbt.Executable>
rbdock ($Id: //depot/dev/client3/rdock/2013.1/src/exe/rbdock.cxx#4 $)

>  <Rbt.Library>
libRbt.so (2013.1, Build901 2013/11/27)

>  <Rbt.Parameter_File>
/export/apps/rDock/src/rDock_2013.1_src/data/scripts/dock_solv.prm

>  <Rbt.Receptor>
prm/pocket_docking_8.prm

>  <SCORE>
-18.534

>  <SCORE.INTER>
-19.41

>  <SCORE.INTER.CONST>
1

>  <SCORE.INTER.POLAR>
0

>  <SCORE.INTER.ROT>
2

>  <SCORE.INTER.SOLV>
19.8543

>  <SCORE.INTER.VDW>
-24.4914

>  <SCORE.INTER.norm>
-0.421956

>  <SCORE.INTRA>
0.876028

>  <SCORE.INTRA.DIHEDRAL>
-0.0174143

>  <SCORE.INTRA.DIHEDRAL.0>
2.42188

>  <SCORE.INTRA.POLAR>
0

>  <SCORE.INTRA.POLAR.0>
0

>  <SCORE.INTRA.REPUL>
0

>  <SCORE.INTRA.REPUL.0>
0

>  <SCORE.INTRA.SOLV>
0.713713

>  <SCORE.INTRA.SOLV.lig_0>
-127.307

>  <SCORE.INTRA.VDW>
0.527879

>  <SCORE.INTRA.VDW.0>
-2.19936

>  <SCORE.INTRA.norm>
0.0190441

>  <SCORE.RESTR>
0

>  <SCORE.RESTR.CAVITY>
0

>  <SCORE.RESTR.norm>
0

>  <SCORE.SYSTEM>
0

>  <SCORE.SYSTEM.CONST>
0

>  <SCORE.SYSTEM.DIHEDRAL>
0

>  <SCORE.SYSTEM.SOLV>
0

>  <SCORE.SYSTEM.norm>
0

>  <SCORE.heavy>
46

>  <SCORE.norm>
-0.402912

>  <RMSD>
5.612

$$$$
ligand
 OpenBabel02271912143D
libRbt.so/2013.1/901 2013/11/27
 46 52  0  0  0  0  0  0  0  0999 V2000
  158.1934   48.3065  149.3608 P   0  0  1  0  0  0  0  0  0  0  0  0
  159.8995   43.0244  148.0883 P   0  0  1  0  0  0  0  0  0  0  0  0
  158.1851   49.2771  148.2080 O   0  5  0  0  0  0  0  0  0  0  0  0
  157.5619   48.7787  150.6523 O   0  0  0  0  0  0  0  0  0  0  0  0
  156.6512   46.1815  149.6856 C   0  0  0  0  0  0  0  0  0  0  0  0
  157.5400   46.9247  148.8618 O   0  0  0  0  0  0  0  0  0  0  0  0
  156.5043   44.7674  149.1485 C   0  0  1  0  0  0  0  0  0  0  0  0
  155.2548   44.6794  148.4783 O   0  0  0  0  0  0  0  0  0  0  0  0
  157.5600   44.3319  148.1402 C   0  0  1  0  0  0  0  0  0  0  0  0
  158.4936   43.4665  148.7695 O   0  0  0  0  0  0  0  0  0  0  0  0
  156.7734   43.5221  147.1340 C   0  0  1  0  0  0  0  0  0  0  0  0
  156.7493   42.1508  147.5353 O   0  0  0  0  0  0  0  0  0  0  0  0
  155.3623   44.0264  147.2226 C   0  0  2  0  0  0  0  0  0  0  0  0
  162.4365   47.7307  147.1909 C   0  0  1  0  0  0  0  0  0  0  0  0
  152.3045   45.5079  143.2224 N   0  0  0  0  0  0  0  0  0  0  0  0
  152.2083   44.4413  144.0385 C   0  0  1  0  0  0  0  0  0  0  0  0
  161.1763   48.3849  147.7176 C   0  0  2  0  0  0  0  0  0  0  0  0
  151.1900   43.5698  143.8632 N   0  0  0  0  0  0  0  0  0  0  0  0
  161.5757   49.4759  148.5518 O   0  0  0  0  0  0  0  0  0  0  0  0
  160.4755   47.3124  148.5304 C   0  0  2  0  0  0  0  0  0  0  0  0
  153.0836   44.1829  145.0365 N   0  0  0  0  0  0  0  0  0  0  0  0
  159.7272   47.8754  149.6071 O   0  0  0  0  0  0  0  0  0  0  0  0
  154.1289   45.0041  145.2728 C   0  0  2  0  0  0  0  0  0  0  0  0
  161.6443   46.4607  149.0206 C   0  0  2  0  0  0  0  0  0  0  0  0
  162.7185   46.6633  148.0998 O   0  0  0  0  0  0  0  0  0  0  0  0
  154.2967   46.1854  144.4206 C   0  0  2  0  0  0  0  0  0  0  0  0
  161.3516   44.9615  149.1356 C   0  0  0  0  0  0  0  0  0  0  0  0
  160.6921   44.4283  147.9880 O   0  0  0  0  0  0  0  0  0  0  0  0
  153.2984   46.4040  143.3474 C   0  0  0  0  0  0  0  0  0  0  0  0
  153.3914   47.4000  142.5904 O   0  0  0  0  0  0  0  0  0  0  0  0
  155.4006   46.8124  144.8647 N   0  0  0  0  0  0  0  0  0  0  0  0
  155.8958   46.1025  145.9067 C   0  0  0  0  0  0  0  0  0  0  0  0
  155.1330   45.0224  146.1492 N   0  0  1  0  0  0  0  0  0  0  0  0
  161.5548   48.6692  142.0939 N   0  0  0  0  0  0  0  0  0  0  0  0
  160.5917   42.1280  149.0979 O   0  5  0  0  0  0  0  0  0  0  0  0
  161.7843   49.5274  143.0998 C   0  0  2  0  0  0  0  0  0  0  0  0
  161.8017   50.8355  142.8038 N   0  0  0  0  0  0  0  0  0  0  0  0
  159.6398   42.5499  146.6791 O   0  0  0  0  0  0  0  0  0  0  0  0
  161.9998   49.1415  144.3792 N   0  0  0  0  0  0  0  0  0  0  0  0
  161.9950   47.8341  144.7137 C   0  0  1  0  0  0  0  0  0  0  0  0
  161.7469   46.8388  143.6514 C   0  0  1  0  0  0  0  0  0  0  0  0
  161.5294   47.3475  142.2731 C   0  0  0  0  0  0  0  0  0  0  0  0
  161.3061   46.5872  141.3066 O   0  0  0  0  0  0  0  0  0  0  0  0
  161.8005   45.6340  144.2413 N   0  0  0  0  0  0  0  0  0  0  0  0
  162.0538   45.8452  145.5628 C   0  0  0  0  0  0  0  0  0  0  0  0
  162.1734   47.1571  145.8478 N   0  0  2  0  0  0  0  0  0  0  0  0
  1  3  1  6  0  0  0
  1  4  2  0  0  0  0
  1  6  1  0  0  0  0
  1 22  1  0  0  0  0
  2 28  1  0  0  0  0
  2 35  1  1  0  0  0
  2 38  2  0  0  0  0
  2 10  1  0  0  0  0
  5  6  1  0  0  0  0
  7  5  1  6  0  0  0
  7  8  1  0  0  0  0
  7  9  1  0  0  0  0
  9 10  1  1  0  0  0
  9 11  1  0  0  0  0
 11 12  1  1  0  0  0
 11 13  1  0  0  0  0
 13  8  1  1  0  0  0
 13 33  1  0  0  0  0
 14 46  1  0  0  0  0
 14 17  1  0  0  0  0
 14 25  1  1  0  0  0
 15 16  1  0  0  0  0
 15 29  1  0  0  0  0
 16 18  1  6  0  0  0
 16 21  1  0  0  0  0
 17 19  1  1  0  0  0
 17 20  1  0  0  0  0
 20 22  1  1  0  0  0
 20 24  1  0  0  0  0
 23 21  1  6  0  0  0
 23 26  1  0  0  0  0
 23 33  1  0  0  0  0
 24 25  1  6  0  0  0
 24 27  1  0  0  0  0
 26 29  1  6  0  0  0
 26 31  1  0  0  0  0
 27 28  1  0  0  0  0
 29 30  2  0  0  0  0
 31 32  1  0  0  0  0
 33 32  1  1  0  0  0
 34 36  1  0  0  0  0
 34 42  1  0  0  0  0
 36 37  1  6  0  0  0
 36 39  1  0  0  0  0
 40 39  1  6  0  0  0
 40 41  1  0  0  0  0
 40 46  1  0  0  0  0
 41 42  1  6  0  0  0
 41 44  1  0  0  0  0
 42 43  2  0  0  0  0
 44 45  1  0  0  0  0
 46 45  1  1  0  0  0
M  CHG  2   3  -1  35  -1
M  END
>  <CHROM.1>
-116.58578919,71.91191870,158.46648055,46.11836975,146.55296417,-0.02968783
0.34814064,1.99214110

>  <Name>
ligand

>  <RI>
0

>  <Rbt.Current_Directory>
/home/itssahil/PROJECTS/Mol_Feturizer/Test_systems_manuscript/rnas/4yb0

>  <Rbt.Executable>
rbdock ($Id: //depot/dev/client3/rdock/2013.1/src/exe/rbdock.cxx#4 $)

>  <Rbt.Library>
libRbt.so (2013.1, Build901 2013/11/27)

>  <Rbt.Parameter_File>
/export/apps/rDock/src/rDock_2013.1_src/data/scripts/dock_solv.prm

>  <Rbt.Receptor>
prm/pocket_docking_6.prm

>  <SCORE>
-25.3776

>  <SCORE.INTER>
-25.1758

>  <SCORE.INTER.CONST>
1

>  <SCORE.INTER.POLAR>
0

>  <SCORE.INTER.ROT>
2

>  <SCORE.INTER.SOLV>
12.7416

>  <SCORE.INTER.VDW>
-25.9644

>  <SCORE.INTER.norm>
-0.547299

>  <SCORE.INTRA>
-0.201826

>  <SCORE.INTRA.DIHEDRAL>
-0.0436844

>  <SCORE.INTRA.DIHEDRAL.0>
2.42188

>  <SCORE.INTRA.POLAR>
0

>  <SCORE.INTRA.POLAR.0>
0

>  <SCORE.INTRA.REPUL>
0

>  <SCORE.INTRA.REPUL.0>
0

>  <SCORE.INTRA.SOLV>
-0.0206717

>  <SCORE.INTRA.SOLV.lig_0>
-127.307

>  <SCORE.INTRA.VDW>
-0.169648

>  <SCORE.INTRA.VDW.0>
-2.19936

>  <SCORE.INTRA.norm>
-0.00438752

>  <SCORE.RESTR>
0

>  <SCORE.RESTR.CAVITY>
0

>  <SCORE.RESTR.norm>
0

>  <SCORE.SYSTEM>
0

>  <SCORE.SYSTEM.CONST>
0

>  <SCORE.SYSTEM.DIHEDRAL>
0

>  <SCORE.SYSTEM.SOLV>
0

>  <SCORE.SYSTEM.norm>
0

>  <SCORE.heavy>
46

>  <SCORE.norm>
-0.551687

>  <RMSD>
5.649

$$$$
ligand
 OpenBabel02271912143D
libRbt.so/2013.1/901 2013/11/27
 46 52  0  0  0  0  0  0  0  0999 V2000
  156.8223   46.3921  145.7264 P   0  0  1  0  0  0  0  0  0  0  0  0
  162.0126   45.5783  147.9239 P   0  0  1  0  0  0  0  0  0  0  0  0
  156.3609   45.3375  144.7538 O   0  5  0  0  0  0  0  0  0  0  0  0
  155.7942   47.4142  146.1599 O   0  0  0  0  0  0  0  0  0  0  0  0
  157.2554   46.1086  148.3209 C   0  0  0  0  0  0  0  0  0  0  0  0
  157.4843   45.6555  146.9930 O   0  0  0  0  0  0  0  0  0  0  0  0
  158.2849   45.5041  149.2613 C   0  0  1  0  0  0  0  0  0  0  0  0
  157.6581   44.4524  149.9818 O   0  0  0  0  0  0  0  0  0  0  0  0
  159.5093   44.8917  148.5930 C   0  0  1  0  0  0  0  0  0  0  0  0
  160.6192   45.7660  148.7358 O   0  0  0  0  0  0  0  0  0  0  0  0
  159.7782   43.6529  149.4175 C   0  0  1  0  0  0  0  0  0  0  0  0
  160.6626   43.9748  150.4927 O   0  0  0  0  0  0  0  0  0  0  0  0
  158.4604   43.2827  150.0338 C   0  0  2  0  0  0  0  0  0  0  0  0
  160.5071   45.7452  142.7184 C   0  0  1  0  0  0  0  0  0  0  0  0
  156.8004   38.3077  149.8323 N   0  0  0  0  0  0  0  0  0  0  0  0
  157.4089   38.9791  150.8283 C   0  0  1  0  0  0  0  0  0  0  0  0
  159.0905   45.8433  143.2448 C   0  0  2  0  0  0  0  0  0  0  0  0
  157.6657   38.3389  151.9909 N   0  0  0  0  0  0  0  0  0  0  0  0
  158.3985   46.8007  142.4383 O   0  0  0  0  0  0  0  0  0  0  0  0
  159.2250   46.3373  144.6731 C   0  0  2  0  0  0  0  0  0  0  0  0
  157.7876   40.2739  150.7341 N   0  0  0  0  0  0  0  0  0  0  0  0
  158.0991   47.1213  145.0651 O   0  0  0  0  0  0  0  0  0  0  0  0
  157.5692   40.9805  149.6045 C   0  0  2  0  0  0  0  0  0  0  0  0
  160.5104   47.1596  144.6126 C   0  0  2  0  0  0  0  0  0  0  0  0
  161.2708   46.6581  143.5112 O   0  0  0  0  0  0  0  0  0  0  0  0
  156.9117   40.3116  148.4775 C   0  0  2  0  0  0  0  0  0  0  0  0
  161.3680   47.1177  145.8811 C   0  0  0  0  0  0  0  0  0  0  0  0
  161.5523   45.7977  146.3911 O   0  0  0  0  0  0  0  0  0  0  0  0
  156.5248   38.8920  148.6537 C   0  0  0  0  0  0  0  0  0  0  0  0
  155.9568   38.2711  147.7233 O   0  0  0  0  0  0  0  0  0  0  0  0
  156.8260   41.2287  147.4975 N   0  0  0  0  0  0  0  0  0  0  0  0
  157.3748   42.3809  147.9519 C   0  0  0  0  0  0  0  0  0  0  0  0
  157.8174   42.2299  149.2123 N   0  0  1  0  0  0  0  0  0  0  0  0
  159.8669   40.6005  141.8466 N   0  0  0  0  0  0  0  0  0  0  0  0
  162.9049   46.7291  148.3499 O   0  5  0  0  0  0  0  0  0  0  0  0
  159.1295   41.6420  141.4314 C   0  0  2  0  0  0  0  0  0  0  0  0
  158.0554   41.3752  140.6735 N   0  0  0  0  0  0  0  0  0  0  0  0
  162.4750   44.1477  148.0569 O   0  0  0  0  0  0  0  0  0  0  0  0
  159.4157   42.9301  141.7330 N   0  0  0  0  0  0  0  0  0  0  0  0
  160.4909   43.2374  142.4885 C   0  0  1  0  0  0  0  0  0  0  0  0
  161.3430   42.1350  142.9778 C   0  0  1  0  0  0  0  0  0  0  0  0
  160.9625   40.7521  142.5925 C   0  0  0  0  0  0  0  0  0  0  0  0
  161.6147   39.7515  142.9604 O   0  0  0  0  0  0  0  0  0  0  0  0
  162.3295   42.7054  143.6876 N   0  0  0  0  0  0  0  0  0  0  0  0
  162.1194   44.0508  143.6574 C   0  0  0  0  0  0  0  0  0  0  0  0
  161.0245   44.3721  142.9400 N   0  0  2  0  0  0  0  0  0  0  0  0
  1  3  1  6  0  0  0
  1  4  2  0  0  0  0
  1  6  1  0  0  0  0
  1 22  1  0  0  0  0
  2 28  1  0  0  0  0
  2 35  1  1  0  0  0
  2 38  2  0  0  0  0
  2 10  1  0  0  0  0
  5  6  1  0  0  0  0
  7  5  1  6  0  0  0
  7  8  1  0  0  0  0
  7  9  1  0  0  0  0
  9 10  1  1  0  0  0
  9 11  1  0  0  0  0
 11 12  1  1  0  0  0
 11 13  1  0  0  0  0
 13  8  1  6  0  0  0
 13 33  1  0  0  0  0
 14 46  1  0  0  0  0
 14 17  1  0  0  0  0
 14 25  1  1  0  0  0
 15 16  1  0  0  0  0
 15 29  1  0  0  0  0
 16 18  1  6  0  0  0
 16 21  1  0  0  0  0
 17 19  1  6  0  0  0
 17 20  1  0  0  0  0
 20 22  1  6  0  0  0
 20 24  1  0  0  0  0
 23 21  1  6  0  0  0
 23 26  1  0  0  0  0
 23 33  1  0  0  0  0
 24 25  1  6  0  0  0
 24 27  1  0  0  0  0
 26 29  1  6  0  0  0
 26 31  1  0  0  0  0
 27 28  1  0  0  0  0
 29 30  2  0  0  0  0
 31 32  1  0  0  0  0
 33 32  1  1  0  0  0
 34 36  1  0  0  0  0
 34 42  1  0  0  0  0
 36 37  1  6  0  0  0
 36 39  1  0  0  0  0
 40 39  1  6  0  0  0
 40 41  1  0  0  0  0
 40 46  1  0  0  0  0
 41 42  1  6  0  0  0
 41 44  1  0  0  0  0
 42 43  2  0  0  0  0
 44 45  1  0  0  0  0
 46 45  1  1  0  0  0
M  CHG  2   3  -1  35  -1
M  END
>  <CHROM.1>
-129.69312753,57.92247040,159.17732629,43.72708431,146.36726157,-0.23358360
1.23573380,0.85774430

>  <Name>
ligand

>  <RI>
0

>  <Rbt.Current_Directory>
/home/itssahil/PROJECTS/Mol_Feturizer/Test_systems_manuscript/rnas/4yb0

>  <Rbt.Executable>
rbdock ($Id: //depot/dev/client3/rdock/2013.1/src/exe/rbdock.cxx#4 $)

>  <Rbt.Library>
libRbt.so (2013.1, Build901 2013/11/27)

>  <Rbt.Parameter_File>
/export/apps/rDock/src/rDock_2013.1_src/data/scripts/dock_solv.prm

>  <Rbt.Receptor>
prm/pocket_docking_6.prm

>  <SCORE>
-16.6249

>  <SCORE.INTER>
-16.4461

>  <SCORE.INTER.CONST>
1

>  <SCORE.INTER.POLAR>
0

>  <SCORE.INTER.ROT>
2

>  <SCORE.INTER.SOLV>
22.393

>  <SCORE.INTER.VDW>
-23.3617

>  <SCORE.INTER.norm>
-0.357523

>  <SCORE.INTRA>
-0.17883

>  <SCORE.INTRA.DIHEDRAL>
-0.00786746

>  <SCORE.INTRA.DIHEDRAL.0>
2.42188

>  <SCORE.INTRA.POLAR>
0

>  <SCORE.INTRA.POLAR.0>
0

>  <SCORE.INTRA.REPUL>
0

>  <SCORE.INTRA.REPUL.0>
0

>  <SCORE.INTRA.SOLV>
-0.0139703

>  <SCORE.INTRA.SOLV.lig_0>
-127.307

>  <SCORE.INTRA.VDW>
-0.167911

>  <SCORE.INTRA.VDW.0>
-2.19936

>  <SCORE.INTRA.norm>
-0.00388761

>  <SCORE.RESTR>
0

>  <SCORE.RESTR.CAVITY>
0

>  <SCORE.RESTR.norm>
0

>  <SCORE.SYSTEM>
0

>  <SCORE.SYSTEM.CONST>
0

>  <SCORE.SYSTEM.DIHEDRAL>
0

>  <SCORE.SYSTEM.SOLV>
0

>  <SCORE.SYSTEM.norm>
0

>  <SCORE.heavy>
46

>  <SCORE.norm>
-0.361411

>  <RMSD>
5.659

$$$$
ligand
 OpenBabel02271912143D
libRbt.so/2013.1/901 2013/11/27
 46 52  0  0  0  0  0  0  0  0999 V2000
  159.5719   46.4539  143.3678 P   0  0  1  0  0  0  0  0  0  0  0  0
  161.8175   46.8266  148.5879 P   0  0  1  0  0  0  0  0  0  0  0  0
  158.8460   45.1677  143.0680 O   0  5  0  0  0  0  0  0  0  0  0  0
  159.4449   47.5611  142.3443 O   0  0  0  0  0  0  0  0  0  0  0  0
  158.8755   48.3279  145.1006 C   0  0  0  0  0  0  0  0  0  0  0  0
  159.1276   46.9553  144.8294 O   0  0  0  0  0  0  0  0  0  0  0  0
  158.8662   48.5682  146.6012 C   0  0  1  0  0  0  0  0  0  0  0  0
  157.5138   48.6918  147.0182 O   0  0  0  0  0  0  0  0  0  0  0  0
  159.4740   47.4591  147.4505 C   0  0  1  0  0  0  0  0  0  0  0  0
  160.7649   47.8501  147.8946 O   0  0  0  0  0  0  0  0  0  0  0  0
  158.5616   47.3974  148.6550 C   0  0  1  0  0  0  0  0  0  0  0  0
  159.0421   48.2848  149.6667 O   0  0  0  0  0  0  0  0  0  0  0  0
  157.2412   47.9404  148.1911 C   0  0  2  0  0  0  0  0  0  0  0  0
  162.5166   42.9639  144.8486 C   0  0  1  0  0  0  0  0  0  0  0  0
  154.2986   45.7126  144.4596 N   0  0  0  0  0  0  0  0  0  0  0  0
  155.0210   46.8485  144.4313 C   0  0  1  0  0  0  0  0  0  0  0  0
  161.4752   43.7101  144.0410 C   0  0  2  0  0  0  0  0  0  0  0  0
  155.0420   47.5855  143.2982 N   0  0  0  0  0  0  0  0  0  0  0  0
  161.9083   43.7103  142.6779 O   0  0  0  0  0  0  0  0  0  0  0  0
  161.4631   45.1192  144.6037 C   0  0  2  0  0  0  0  0  0  0  0  0
  155.7353   47.3060  145.4845 N   0  0  0  0  0  0  0  0  0  0  0  0
  161.1220   46.0797  143.6051 O   0  0  0  0  0  0  0  0  0  0  0  0
  155.7619   46.6283  146.6519 C   0  0  2  0  0  0  0  0  0  0  0  0
  162.8983   45.2834  145.0989 C   0  0  2  0  0  0  0  0  0  0  0  0
  163.4035   43.9695  145.3460 O   0  0  0  0  0  0  0  0  0  0  0  0
  154.9959   45.3824  146.7548 C   0  0  2  0  0  0  0  0  0  0  0  0
  163.0551   46.1326  146.3642 C   0  0  0  0  0  0  0  0  0  0  0  0
  162.1274   45.7862  147.3917 O   0  0  0  0  0  0  0  0  0  0  0  0
  154.2375   44.9432  145.5599 C   0  0  0  0  0  0  0  0  0  0  0  0
  153.5669   43.8833  145.5906 O   0  0  0  0  0  0  0  0  0  0  0  0
  155.1914   44.9260  148.0048 N   0  0  0  0  0  0  0  0  0  0  0  0
  156.0087   45.7956  148.6460 C   0  0  0  0  0  0  0  0  0  0  0  0
  156.3490   46.8120  147.8344 N   0  0  1  0  0  0  0  0  0  0  0  0
  162.6233   41.9653  150.0089 N   0  0  0  0  0  0  0  0  0  0  0  0
  163.0638   47.6408  148.8807 O   0  5  0  0  0  0  0  0  0  0  0  0
  163.4596   42.6970  149.2565 C   0  0  2  0  0  0  0  0  0  0  0  0
  164.4952   43.2830  149.8758 N   0  0  0  0  0  0  0  0  0  0  0  0
  161.1160   46.0607  149.6830 O   0  0  0  0  0  0  0  0  0  0  0  0
  163.3084   42.8726  147.9229 N   0  0  0  0  0  0  0  0  0  0  0  0
  162.2758   42.3029  147.2667 C   0  0  1  0  0  0  0  0  0  0  0  0
  161.3198   41.4838  148.0385 C   0  0  1  0  0  0  0  0  0  0  0  0
  161.5546   41.3509  149.4990 C   0  0  0  0  0  0  0  0  0  0  0  0
  160.8069   40.6753  150.2382 O   0  0  0  0  0  0  0  0  0  0  0  0
  160.4020   41.0463  147.1619 N   0  0  0  0  0  0  0  0  0  0  0  0
  160.7476   41.5386  145.9399 C   0  0  0  0  0  0  0  0  0  0  0  0
  161.8639   42.2915  145.9992 N   0  0  2  0  0  0  0  0  0  0  0  0
  1  3  1  6  0  0  0
  1  4  2  0  0  0  0
  1  6  1  0  0  0  0
  1 22  1  0  0  0  0
  2 28  1  0  0  0  0
  2 35  1  1  0  0  0
  2 38  2  0  0  0  0
  2 10  1  0  0  0  0
  5  6  1  0  0  0  0
  7  5  1  6  0  0  0
  7  8  1  0  0  0  0
  7  9  1  0  0  0  0
  9 10  1  1  0  0  0
  9 11  1  0  0  0  0
 11 12  1  1  0  0  0
 11 13  1  0  0  0  0
 13  8  1  6  0  0  0
 13 33  1  0  0  0  0
 14 46  1  0  0  0  0
 14 17  1  0  0  0  0
 14 25  1  1  0  0  0
 15 16  1  0  0  0  0
 15 29  1  0  0  0  0
 16 18  1  1  0  0  0
 16 21  1  0  0  0  0
 17 19  1  6  0  0  0
 17 20  1  0  0  0  0
 20 22  1  6  0  0  0
 20 24  1  0  0  0  0
 23 21  1  1  0  0  0
 23 26  1  0  0  0  0
 23 33  1  0  0  0  0
 24 25  1  1  0  0  0
 24 27  1  0  0  0  0
 26 29  1  1  0  0  0
 26 31  1  0  0  0  0
 27 28  1  0  0  0  0
 29 30  2  0  0  0  0
 31 32  1  0  0  0  0
 33 32  1  6  0  0  0
 34 36  1  0  0  0  0
 34 42  1  0  0  0  0
 36 37  1  1  0  0  0
 36 39  1  0  0  0  0
 40 39  1  1  0  0  0
 40 41  1  0  0  0  0
 40 46  1  0  0  0  0
 41 42  1  1  0  0  0
 41 44  1  0  0  0  0
 42 43  2  0  0  0  0
 44 45  1  0  0  0  0
 46 45  1  6  0  0  0
M  CHG  2   3  -1  35  -1
M  END
>  <CHROM.1>
-7.87191324,-133.03202232,159.71541811,45.37127718,146.53617692,-2.78223880
-0.44904849,1.67702924

>  <Name>
ligand

>  <RI>
0

>  <Rbt.Current_Directory>
/home/itssahil/PROJECTS/Mol_Feturizer/Test_systems_manuscript/rnas/4yb0

>  <Rbt.Executable>
rbdock ($Id: //depot/dev/client3/rdock/2013.1/src/exe/rbdock.cxx#4 $)

>  <Rbt.Library>
libRbt.so (2013.1, Build901 2013/11/27)

>  <Rbt.Parameter_File>
/export/apps/rDock/src/rDock_2013.1_src/data/scripts/dock_solv.prm

>  <Rbt.Receptor>
prm/pocket_docking_7.prm

>  <SCORE>
-21.8892

>  <SCORE.INTER>
-21.1095

>  <SCORE.INTER.CONST>
1

>  <SCORE.INTER.POLAR>
0

>  <SCORE.INTER.ROT>
2

>  <SCORE.INTER.SOLV>
18.1956

>  <SCORE.INTER.VDW>
-25.0715

>  <SCORE.INTER.norm>
-0.458902

>  <SCORE.INTRA>
-0.779718

>  <SCORE.INTRA.DIHEDRAL>
-0.0306455

>  <SCORE.INTRA.DIHEDRAL.0>
2.42188

>  <SCORE.INTRA.POLAR>
0

>  <SCORE.INTRA.POLAR.0>
0

>  <SCORE.INTRA.REPUL>
0

>  <SCORE.INTRA.REPUL.0>
0

>  <SCORE.INTRA.SOLV>
0.796241

>  <SCORE.INTRA.SOLV.lig_0>
-127.307

>  <SCORE.INTRA.VDW>
-1.16252

>  <SCORE.INTRA.VDW.0>
-2.19936

>  <SCORE.INTRA.norm>
-0.0169504

>  <SCORE.RESTR>
0

>  <SCORE.RESTR.CAVITY>
0

>  <SCORE.RESTR.norm>
0

>  <SCORE.SYSTEM>
0

>  <SCORE.SYSTEM.CONST>
0

>  <SCORE.SYSTEM.DIHEDRAL>
0

>  <SCORE.SYSTEM.SOLV>
0

>  <SCORE.SYSTEM.norm>
0

>  <SCORE.heavy>
46

>  <SCORE.norm>
-0.475853

>  <RMSD>
5.667

$$$$
ligand
 OpenBabel02271912143D
libRbt.so/2013.1/901 2013/11/27
 46 52  0  0  0  0  0  0  0  0999 V2000
  160.7331   45.9139  150.4640 P   0  0  1  0  0  0  0  0  0  0  0  0
  158.6715   41.4868  147.5348 P   0  0  1  0  0  0  0  0  0  0  0  0
  161.4120   46.9750  149.6368 O   0  5  0  0  0  0  0  0  0  0  0  0
  160.4956   46.2372  151.9231 O   0  0  0  0  0  0  0  0  0  0  0  0
  158.1683   45.2650  150.4575 C   0  0  0  0  0  0  0  0  0  0  0  0
  159.3659   45.4977  149.7275 O   0  0  0  0  0  0  0  0  0  0  0  0
  157.1670   44.5205  149.5899 C   0  0  1  0  0  0  0  0  0  0  0  0
  156.1929   45.4532  149.1437 O   0  0  0  0  0  0  0  0  0  0  0  0
  157.7370   43.8677  148.3369 C   0  0  1  0  0  0  0  0  0  0  0  0
  157.8556   42.4672  148.5394 O   0  0  0  0  0  0  0  0  0  0  0  0
  156.6637   44.1029  147.2978 C   0  0  1  0  0  0  0  0  0  0  0  0
  155.7376   43.0147  147.3099 O   0  0  0  0  0  0  0  0  0  0  0  0
  155.9132   45.3184  147.7587 C   0  0  2  0  0  0  0  0  0  0  0  0
  163.6926   43.5310  147.5303 C   0  0  1  0  0  0  0  0  0  0  0  0
  155.5786   48.3618  143.4957 N   0  0  0  0  0  0  0  0  0  0  0  0
  154.8934   47.2499  143.8232 C   0  0  1  0  0  0  0  0  0  0  0  0
  163.1324   44.6200  148.4212 C   0  0  2  0  0  0  0  0  0  0  0  0
  153.9539   46.7824  142.9711 N   0  0  0  0  0  0  0  0  0  0  0  0
  164.1019   44.8822  149.4396 O   0  0  0  0  0  0  0  0  0  0  0  0
  161.8651   44.0385  149.0194 C   0  0  2  0  0  0  0  0  0  0  0  0
  155.0931   46.5597  144.9689 N   0  0  0  0  0  0  0  0  0  0  0  0
  161.6081   44.5675  150.3195 O   0  0  0  0  0  0  0  0  0  0  0  0
  156.0158   46.9610  145.8691 C   0  0  2  0  0  0  0  0  0  0  0  0
  162.1781   42.5442  149.0538 C   0  0  2  0  0  0  0  0  0  0  0  0
  163.1711   42.3065  148.0537 O   0  0  0  0  0  0  0  0  0  0  0  0
  156.8009   48.1643  145.5767 C   0  0  2  0  0  0  0  0  0  0  0  0
  160.9789   41.6240  148.8056 C   0  0  0  0  0  0  0  0  0  0  0  0
  160.1883   42.0211  147.6860 O   0  0  0  0  0  0  0  0  0  0  0  0
  156.5268   48.8688  144.3021 C   0  0  0  0  0  0  0  0  0  0  0  0
  157.1668   49.9052  144.0019 O   0  0  0  0  0  0  0  0  0  0  0  0
  157.6342   48.3290  146.6195 N   0  0  0  0  0  0  0  0  0  0  0  0
  157.4053   47.3269  147.5019 C   0  0  0  0  0  0  0  0  0  0  0  0
  156.4365   46.5110  147.0511 N   0  0  1  0  0  0  0  0  0  0  0  0
  162.0611   46.9034  143.8422 N   0  0  0  0  0  0  0  0  0  0  0  0
  158.5676   40.0951  148.1302 O   0  5  0  0  0  0  0  0  0  0  0  0
  162.4956   47.1370  145.0902 C   0  0  2  0  0  0  0  0  0  0  0  0
  162.5380   48.4133  145.5007 N   0  0  0  0  0  0  0  0  0  0  0  0
  158.2358   41.7578  146.1154 O   0  0  0  0  0  0  0  0  0  0  0  0
  162.8911   46.1610  145.9407 N   0  0  0  0  0  0  0  0  0  0  0  0
  162.8673   44.8662  145.5610 C   0  0  1  0  0  0  0  0  0  0  0  0
  162.3979   44.5428  144.1988 C   0  0  1  0  0  0  0  0  0  0  0  0
  161.9915   45.6747  143.3274 C   0  0  0  0  0  0  0  0  0  0  0  0
  161.5748   45.5054  142.1613 O   0  0  0  0  0  0  0  0  0  0  0  0
  162.4782   43.2082  144.0775 N   0  0  0  0  0  0  0  0  0  0  0  0
  162.9507   42.7255  145.2603 C   0  0  0  0  0  0  0  0  0  0  0  0
  163.1869   43.7127  146.1470 N   0  0  2  0  0  0  0  0  0  0  0  0
  1  3  1  6  0  0  0
  1  4  2  0  0  0  0
  1  6  1  0  0  0  0
  1 22  1  0  0  0  0
  2 28  1  0  0  0  0
  2 35  1  1  0  0  0
  2 38  2  0  0  0  0
  2 10  1  0  0  0  0
  5  6  1  0  0  0  0
  7  5  1  6  0  0  0
  7  8  1  0  0  0  0
  7  9  1  0  0  0  0
  9 10  1  1  0  0  0
  9 11  1  0  0  0  0
 11 12  1  1  0  0  0
 11 13  1  0  0  0  0
 13  8  1  1  0  0  0
 13 33  1  0  0  0  0
 14 46  1  0  0  0  0
 14 17  1  0  0  0  0
 14 25  1  1  0  0  0
 15 16  1  0  0  0  0
 15 29  1  0  0  0  0
 16 18  1  6  0  0  0
 16 21  1  0  0  0  0
 17 19  1  1  0  0  0
 17 20  1  0  0  0  0
 20 22  1  1  0  0  0
 20 24  1  0  0  0  0
 23 21  1  6  0  0  0
 23 26  1  0  0  0  0
 23 33  1  0  0  0  0
 24 25  1  6  0  0  0
 24 27  1  0  0  0  0
 26 29  1  6  0  0  0
 26 31  1  0  0  0  0
 27 28  1  0  0  0  0
 29 30  2  0  0  0  0
 31 32  1  0  0  0  0
 33 32  1  1  0  0  0
 34 36  1  0  0  0  0
 34 42  1  0  0  0  0
 36 37  1  6  0  0  0
 36 39  1  0  0  0  0
 40 39  1  6  0  0  0
 40 41  1  0  0  0  0
 40 46  1  0  0  0  0
 41 42  1  6  0  0  0
 41 44  1  0  0  0  0
 42 43  2  0  0  0  0
 44 45  1  0  0  0  0
 46 45  1  1  0  0  0
M  CHG  2   3  -1  35  -1
M  END
>  <CHROM.1>
-157.10755695,30.34562256,159.55308116,45.00206285,147.09196992,0.64309709
-0.15684434,2.21133560

>  <Name>
ligand

>  <RI>
0

>  <Rbt.Current_Directory>
/home/itssahil/PROJECTS/Mol_Feturizer/Test_systems_manuscript/rnas/4yb0

>  <Rbt.Executable>
rbdock ($Id: //depot/dev/client3/rdock/2013.1/src/exe/rbdock.cxx#4 $)

>  <Rbt.Library>
libRbt.so (2013.1, Build901 2013/11/27)

>  <Rbt.Parameter_File>
/export/apps/rDock/src/rDock_2013.1_src/data/scripts/dock_solv.prm

>  <Rbt.Receptor>
prm/pocket_docking_6.prm

>  <SCORE>
-16.1332

>  <SCORE.INTER>
-16.7651

>  <SCORE.INTER.CONST>
1

>  <SCORE.INTER.POLAR>
0

>  <SCORE.INTER.ROT>
2

>  <SCORE.INTER.SOLV>
21.8722

>  <SCORE.INTER.VDW>
-23.4008

>  <SCORE.INTER.norm>
-0.364458

>  <SCORE.INTRA>
0.18729

>  <SCORE.INTRA.DIHEDRAL>
0.0293123

>  <SCORE.INTRA.DIHEDRAL.0>
2.42188

>  <SCORE.INTRA.POLAR>
0

>  <SCORE.INTRA.POLAR.0>
0

>  <SCORE.INTRA.REPUL>
0

>  <SCORE.INTRA.REPUL.0>
0

>  <SCORE.INTRA.SOLV>
0.0223107

>  <SCORE.INTRA.SOLV.lig_0>
-127.307

>  <SCORE.INTRA.VDW>
0.161478

>  <SCORE.INTRA.VDW.0>
-2.19936

>  <SCORE.INTRA.norm>
0.00407151

>  <SCORE.RESTR>
0.444601

>  <SCORE.RESTR.CAVITY>
0.444601

>  <SCORE.RESTR.norm>
0.00966524

>  <SCORE.SYSTEM>
0

>  <SCORE.SYSTEM.CONST>
0

>  <SCORE.SYSTEM.DIHEDRAL>
0

>  <SCORE.SYSTEM.SOLV>
0

>  <SCORE.SYSTEM.norm>
0

>  <SCORE.heavy>
46

>  <SCORE.norm>
-0.350721

>  <RMSD>
5.671

$$$$
ligand
 OpenBabel02271912143D
libRbt.so/2013.1/901 2013/11/27
 46 52  0  0  0  0  0  0  0  0999 V2000
  160.2430   47.0203  144.4600 P   0  0  1  0  0  0  0  0  0  0  0  0
  161.1786   46.1037  150.0022 P   0  0  1  0  0  0  0  0  0  0  0  0
  159.6451   45.8604  143.7062 O   0  5  0  0  0  0  0  0  0  0  0  0
  160.3307   48.3385  143.7222 O   0  0  0  0  0  0  0  0  0  0  0  0
  159.1040   48.4586  146.3662 C   0  0  0  0  0  0  0  0  0  0  0  0
  159.4516   47.1802  145.8504 O   0  0  0  0  0  0  0  0  0  0  0  0
  158.7332   48.3432  147.8355 C   0  0  1  0  0  0  0  0  0  0  0  0
  157.3177   48.4050  147.9377 O   0  0  0  0  0  0  0  0  0  0  0  0
  159.1538   47.0500  148.5222 C   0  0  1  0  0  0  0  0  0  0  0  0
  160.2914   47.2900  149.3375 O   0  0  0  0  0  0  0  0  0  0  0  0
  157.9845   46.7359  149.4283 C   0  0  1  0  0  0  0  0  0  0  0  0
  158.1869   47.3493  150.7029 O   0  0  0  0  0  0  0  0  0  0  0  0
  156.7966   47.4094  148.8048 C   0  0  2  0  0  0  0  0  0  0  0  0
  162.8508   43.1990  145.7410 C   0  0  1  0  0  0  0  0  0  0  0  0
  154.8690   46.2041  144.0742 N   0  0  0  0  0  0  0  0  0  0  0  0
  155.5434   47.2953  144.4834 C   0  0  1  0  0  0  0  0  0  0  0  0
  162.0094   44.1420  144.9066 C   0  0  2  0  0  0  0  0  0  0  0  0
  155.8043   48.2784  143.5930 N   0  0  0  0  0  0  0  0  0  0  0  0
  162.7526   44.4470  143.7232 O   0  0  0  0  0  0  0  0  0  0  0  0
  161.8249   45.3812  145.7625 C   0  0  2  0  0  0  0  0  0  0  0  0
  155.9797   47.4721  145.7512 N   0  0  0  0  0  0  0  0  0  0  0  0
  161.7028   46.5571  144.9634 O   0  0  0  0  0  0  0  0  0  0  0  0
  155.7553   46.5372  146.6991 C   0  0  2  0  0  0  0  0  0  0  0  0
  163.0970   45.3847  146.6073 C   0  0  2  0  0  0  0  0  0  0  0  0
  163.5662   44.0354  146.6540 O   0  0  0  0  0  0  0  0  0  0  0  0
  155.0246   45.3226  146.3242 C   0  0  2  0  0  0  0  0  0  0  0  0
  162.9261   45.9113  148.0357 C   0  0  0  0  0  0  0  0  0  0  0  0
  161.7918   45.3618  148.7049 O   0  0  0  0  0  0  0  0  0  0  0  0
  154.5777   45.1983  144.9168 C   0  0  0  0  0  0  0  0  0  0  0  0
  153.9509   44.1790  144.5398 O   0  0  0  0  0  0  0  0  0  0  0  0
  154.9385   44.5789  147.4414 N   0  0  0  0  0  0  0  0  0  0  0  0
  155.5579   45.2506  148.4415 C   0  0  0  0  0  0  0  0  0  0  0  0
  156.0462   46.4208  147.9946 N   0  0  1  0  0  0  0  0  0  0  0  0
  161.7204   41.0774  150.4163 N   0  0  0  0  0  0  0  0  0  0  0  0
  162.2968   46.7914  150.7627 O   0  5  0  0  0  0  0  0  0  0  0  0
  162.6842   41.9472  150.0764 C   0  0  2  0  0  0  0  0  0  0  0  0
  163.5076   42.3676  151.0483 N   0  0  0  0  0  0  0  0  0  0  0  0
  160.2597   45.1242  150.6911 O   0  0  0  0  0  0  0  0  0  0  0  0
  162.8602   42.4166  148.8191 N   0  0  0  0  0  0  0  0  0  0  0  0
  162.0481   42.0203  147.8167 C   0  0  1  0  0  0  0  0  0  0  0  0
  160.9675   41.0625  148.1259 C   0  0  1  0  0  0  0  0  0  0  0  0
  160.8391   40.6054  149.5331 C   0  0  0  0  0  0  0  0  0  0  0  0
  159.9618   39.7921  149.8952 O   0  0  0  0  0  0  0  0  0  0  0  0
  160.3152   40.8426  146.9733 N   0  0  0  0  0  0  0  0  0  0  0  0
  160.9307   41.5896  146.0150 C   0  0  0  0  0  0  0  0  0  0  0  0
  161.9636   42.2961  146.5155 N   0  0  2  0  0  0  0  0  0  0  0  0
  1  3  1  6  0  0  0
  1  4  2  0  0  0  0
  1  6  1  0  0  0  0
  1 22  1  0  0  0  0
  2 28  1  0  0  0  0
  2 35  1  1  0  0  0
  2 38  2  0  0  0  0
  2 10  1  0  0  0  0
  5  6  1  0  0  0  0
  7  5  1  6  0  0  0
  7  8  1  0  0  0  0
  7  9  1  0  0  0  0
  9 10  1  1  0  0  0
  9 11  1  0  0  0  0
 11 12  1  1  0  0  0
 11 13  1  0  0  0  0
 13  8  1  6  0  0  0
 13 33  1  0  0  0  0
 14 46  1  0  0  0  0
 14 17  1  0  0  0  0
 14 25  1  1  0  0  0
 15 16  1  0  0  0  0
 15 29  1  0  0  0  0
 16 18  1  1  0  0  0
 16 21  1  0  0  0  0
 17 19  1  6  0  0  0
 17 20  1  0  0  0  0
 20 22  1  6  0  0  0
 20 24  1  0  0  0  0
 23 21  1  1  0  0  0
 23 26  1  0  0  0  0
 23 33  1  0  0  0  0
 24 25  1  1  0  0  0
 24 27  1  0  0  0  0
 26 29  1  1  0  0  0
 26 31  1  0  0  0  0
 27 28  1  0  0  0  0
 29 30  2  0  0  0  0
 31 32  1  0  0  0  0
 33 32  1  6  0  0  0
 34 36  1  0  0  0  0
 34 42  1  0  0  0  0
 36 37  1  1  0  0  0
 36 39  1  0  0  0  0
 40 39  1  1  0  0  0
 40 41  1  0  0  0  0
 40 46  1  0  0  0  0
 41 42  1  1  0  0  0
 41 44  1  0  0  0  0
 42 43  2  0  0  0  0
 44 45  1  0  0  0  0
 46 45  1  6  0  0  0
M  CHG  2   3  -1  35  -1
M  END
>  <CHROM.1>
-8.21759100,-131.65329851,159.65717581,45.23305267,147.23286717,-2.53152730
-0.38272970,2.01189458

>  <Name>
ligand

>  <RI>
0

>  <Rbt.Current_Directory>
/home/itssahil/PROJECTS/Mol_Feturizer/Test_systems_manuscript/rnas/4yb0

>  <Rbt.Executable>
rbdock ($Id: //depot/dev/client3/rdock/2013.1/src/exe/rbdock.cxx#4 $)

>  <Rbt.Library>
libRbt.so (2013.1, Build901 2013/11/27)

>  <Rbt.Parameter_File>
/export/apps/rDock/src/rDock_2013.1_src/data/scripts/dock_solv.prm

>  <Rbt.Receptor>
prm/pocket_docking_7.prm

>  <SCORE>
-20.8364

>  <SCORE.INTER>
-20.1621

>  <SCORE.INTER.CONST>
1

>  <SCORE.INTER.POLAR>
0

>  <SCORE.INTER.ROT>
2

>  <SCORE.INTER.SOLV>
12.0095

>  <SCORE.INTER.VDW>
-22.3779

>  <SCORE.INTER.norm>
-0.438306

>  <SCORE.INTRA>
-0.674348

>  <SCORE.INTRA.DIHEDRAL>
-0.0285059

>  <SCORE.INTRA.DIHEDRAL.0>
2.42188

>  <SCORE.INTRA.POLAR>
0

>  <SCORE.INTRA.POLAR.0>
0

>  <SCORE.INTRA.REPUL>
0

>  <SCORE.INTRA.REPUL.0>
0

>  <SCORE.INTRA.SOLV>
1.14435

>  <SCORE.INTRA.SOLV.lig_0>
-127.307

>  <SCORE.INTRA.VDW>
-1.23227

>  <SCORE.INTRA.VDW.0>
-2.19936

>  <SCORE.INTRA.norm>
-0.0146597

>  <SCORE.RESTR>
0

>  <SCORE.RESTR.CAVITY>
0

>  <SCORE.RESTR.norm>
0

>  <SCORE.SYSTEM>
0

>  <SCORE.SYSTEM.CONST>
0

>  <SCORE.SYSTEM.DIHEDRAL>
0

>  <SCORE.SYSTEM.SOLV>
0

>  <SCORE.SYSTEM.norm>
0

>  <SCORE.heavy>
46

>  <SCORE.norm>
-0.452966

>  <RMSD>
5.712

$$$$
ligand
 OpenBabel02271912143D
libRbt.so/2013.1/901 2013/11/27
 46 52  0  0  0  0  0  0  0  0999 V2000
  160.3359   43.1837  142.3685 P   0  0  1  0  0  0  0  0  0  0  0  0
  161.5210   46.5309  146.8208 P   0  0  1  0  0  0  0  0  0  0  0  0
  159.2695   42.1460  142.6073 O   0  5  0  0  0  0  0  0  0  0  0  0
  160.8126   43.3536  140.9425 O   0  0  0  0  0  0  0  0  0  0  0  0
  160.0386   45.8119  142.3091 C   0  0  0  0  0  0  0  0  0  0  0  0
  159.8294   44.5792  142.9857 O   0  0  0  0  0  0  0  0  0  0  0  0
  159.8285   46.9730  143.2669 C   0  0  1  0  0  0  0  0  0  0  0  0
  158.5571   47.5443  142.9929 O   0  0  0  0  0  0  0  0  0  0  0  0
  159.8240   46.6140  144.7474 C   0  0  1  0  0  0  0  0  0  0  0  0
  161.0585   46.9966  145.3358 O   0  0  0  0  0  0  0  0  0  0  0  0
  158.7373   47.4959  145.3204 C   0  0  1  0  0  0  0  0  0  0  0  0
  159.3003   48.7415  145.7371 O   0  0  0  0  0  0  0  0  0  0  0  0
  157.8142   47.7968  144.1756 C   0  0  2  0  0  0  0  0  0  0  0  0
  161.4933   41.1167  146.5437 C   0  0  1  0  0  0  0  0  0  0  0  0
  154.8850   44.6171  147.1516 N   0  0  0  0  0  0  0  0  0  0  0  0
  155.9604   45.3601  147.4747 C   0  0  1  0  0  0  0  0  0  0  0  0
  160.9636   41.3005  145.1369 C   0  0  2  0  0  0  0  0  0  0  0  0
  156.4167   45.3366  148.7469 N   0  0  0  0  0  0  0  0  0  0  0  0
  161.6207   40.3426  144.3024 O   0  0  0  0  0  0  0  0  0  0  0  0
  161.3493   42.7141  144.7430 C   0  0  2  0  0  0  0  0  0  0  0  0
  156.6242   46.1380  146.5899 N   0  0  0  0  0  0  0  0  0  0  0  0
  161.5730   42.8245  143.3380 O   0  0  0  0  0  0  0  0  0  0  0  0
  156.2320   46.2121  145.3000 C   0  0  2  0  0  0  0  0  0  0  0  0
  162.6247   42.9400  145.5519 C   0  0  2  0  0  0  0  0  0  0  0  0
  162.5685   42.0511  146.6697 O   0  0  0  0  0  0  0  0  0  0  0  0
  155.0680   45.4272  144.8770 C   0  0  2  0  0  0  0  0  0  0  0  0
  162.8296   44.3727  146.0539 C   0  0  0  0  0  0  0  0  0  0  0  0
  161.6609   44.9303  146.6536 O   0  0  0  0  0  0  0  0  0  0  0  0
  154.3909   44.5981  145.9018 C   0  0  0  0  0  0  0  0  0  0  0  0
  153.3884   43.9086  145.5962 O   0  0  0  0  0  0  0  0  0  0  0  0
  154.9046   45.6787  143.5659 N   0  0  0  0  0  0  0  0  0  0  0  0
  155.8715   46.5462  143.1814 C   0  0  0  0  0  0  0  0  0  0  0  0
  156.6631   46.8641  144.2205 N   0  0  1  0  0  0  0  0  0  0  0  0
  158.3472   39.4728  150.4215 N   0  0  0  0  0  0  0  0  0  0  0  0
  162.8953   47.1348  147.0411 O   0  5  0  0  0  0  0  0  0  0  0  0
  159.2723   38.7997  149.7201 C   0  0  2  0  0  0  0  0  0  0  0  0
  159.4567   37.5060  150.0229 N   0  0  0  0  0  0  0  0  0  0  0  0
  160.3958   46.7874  147.7936 O   0  0  0  0  0  0  0  0  0  0  0  0
  160.0200   39.3564  148.7386 N   0  0  0  0  0  0  0  0  0  0  0  0
  159.8661   40.6563  148.4099 C   0  0  1  0  0  0  0  0  0  0  0  0
  158.8625   41.4521  149.1447 C   0  0  1  0  0  0  0  0  0  0  0  0
  158.0921   40.7654  150.2128 C   0  0  0  0  0  0  0  0  0  0  0  0
  157.2169   41.3493  150.8875 O   0  0  0  0  0  0  0  0  0  0  0  0
  158.9150   42.6925  148.6341 N   0  0  0  0  0  0  0  0  0  0  0  0
  159.8636   42.6843  147.6568 C   0  0  0  0  0  0  0  0  0  0  0  0
  160.4355   41.4713  147.5222 N   0  0  2  0  0  0  0  0  0  0  0  0
  1  3  1  1  0  0  0
  1  4  2  0  0  0  0
  1  6  1  0  0  0  0
  1 22  1  0  0  0  0
  2 28  1  0  0  0  0
  2 35  1  1  0  0  0
  2 38  2  0  0  0  0
  2 10  1  0  0  0  0
  5  6  1  0  0  0  0
  7  5  1  6  0  0  0
  7  8  1  0  0  0  0
  7  9  1  0  0  0  0
  9 10  1  1  0  0  0
  9 11  1  0  0  0  0
 11 12  1  6  0  0  0
 11 13  1  0  0  0  0
 13  8  1  6  0  0  0
 13 33  1  0  0  0  0
 14 46  1  0  0  0  0
 14 17  1  0  0  0  0
 14 25  1  1  0  0  0
 15 16  1  0  0  0  0
 15 29  1  0  0  0  0
 16 18  1  6  0  0  0
 16 21  1  0  0  0  0
 17 19  1  6  0  0  0
 17 20  1  0  0  0  0
 20 22  1  6  0  0  0
 20 24  1  0  0  0  0
 23 21  1  6  0  0  0
 23 26  1  0  0  0  0
 23 33  1  0  0  0  0
 24 25  1  1  0  0  0
 24 27  1  0  0  0  0
 26 29  1  6  0  0  0
 26 31  1  0  0  0  0
 27 28  1  0  0  0  0
 29 30  2  0  0  0  0
 31 32  1  0  0  0  0
 33 32  1  1  0  0  0
 34 36  1  0  0  0  0
 34 42  1  0  0  0  0
 36 37  1  1  0  0  0
 36 39  1  0  0  0  0
 40 39  1  1  0  0  0
 40 41  1  0  0  0  0
 40 46  1  0  0  0  0
 41 42  1  1  0  0  0
 41 44  1  0  0  0  0
 42 43  2  0  0  0  0
 44 45  1  0  0  0  0
 46 45  1  6  0  0  0
M  CHG  2   3  -1  35  -1
M  END
>  <CHROM.1>
137.86515469,117.05816440,159.24675770,44.01912117,145.90359322,-1.73040678
-0.40585881,2.43199029

>  <Name>
ligand

>  <RI>
0

>  <Rbt.Current_Directory>
/home/itssahil/PROJECTS/Mol_Feturizer/Test_systems_manuscript/rnas/4yb0

>  <Rbt.Executable>
rbdock ($Id: //depot/dev/client3/rdock/2013.1/src/exe/rbdock.cxx#4 $)

>  <Rbt.Library>
libRbt.so (2013.1, Build901 2013/11/27)

>  <Rbt.Parameter_File>
/export/apps/rDock/src/rDock_2013.1_src/data/scripts/dock_solv.prm

>  <Rbt.Receptor>
prm/pocket_docking_6.prm

>  <SCORE>
-20.7964

>  <SCORE.INTER>
-21.3267

>  <SCORE.INTER.CONST>
1

>  <SCORE.INTER.POLAR>
0

>  <SCORE.INTER.ROT>
2

>  <SCORE.INTER.SOLV>
21.3572

>  <SCORE.INTER.VDW>
-26.2702

>  <SCORE.INTER.norm>
-0.463623

>  <SCORE.INTRA>
0.53025

>  <SCORE.INTRA.DIHEDRAL>
-0.0438855

>  <SCORE.INTRA.DIHEDRAL.0>
2.42188

>  <SCORE.INTRA.POLAR>
0

>  <SCORE.INTRA.POLAR.0>
0

>  <SCORE.INTRA.REPUL>
0

>  <SCORE.INTRA.REPUL.0>
0

>  <SCORE.INTRA.SOLV>
0.604433

>  <SCORE.INTRA.SOLV.lig_0>
-127.307

>  <SCORE.INTRA.VDW>
0.249977

>  <SCORE.INTRA.VDW.0>
-2.19936

>  <SCORE.INTRA.norm>
0.0115272

>  <SCORE.RESTR>
0

>  <SCORE.RESTR.CAVITY>
0

>  <SCORE.RESTR.norm>
0

>  <SCORE.SYSTEM>
0

>  <SCORE.SYSTEM.CONST>
0

>  <SCORE.SYSTEM.DIHEDRAL>
0

>  <SCORE.SYSTEM.SOLV>
0

>  <SCORE.SYSTEM.norm>
0

>  <SCORE.heavy>
46

>  <SCORE.norm>
-0.452096

>  <RMSD>
5.715

$$$$
ligand
 OpenBabel02271912143D
libRbt.so/2013.1/901 2013/11/27
 46 52  0  0  0  0  0  0  0  0999 V2000
  156.8545   46.2894  145.9438 P   0  0  1  0  0  0  0  0  0  0  0  0
  161.9831   45.4155  148.2599 P   0  0  1  0  0  0  0  0  0  0  0  0
  156.4251   45.2676  144.9227 O   0  5  0  0  0  0  0  0  0  0  0  0
  155.8105   47.2929  146.3826 O   0  0  0  0  0  0  0  0  0  0  0  0
  157.2144   45.9178  148.5384 C   0  0  0  0  0  0  0  0  0  0  0  0
  157.4830   45.5115  147.2028 O   0  0  0  0  0  0  0  0  0  0  0  0
  158.2191   45.2842  149.4865 C   0  0  1  0  0  0  0  0  0  0  0  0
  157.5760   44.2065  150.1521 O   0  0  0  0  0  0  0  0  0  0  0  0
  159.4644   44.6988  148.8329 C   0  0  1  0  0  0  0  0  0  0  0  0
  160.5663   45.5709  149.0375 O   0  0  0  0  0  0  0  0  0  0  0  0
  159.7145   43.4330  149.6217 C   0  0  1  0  0  0  0  0  0  0  0  0
  160.5666   43.7203  150.7323 O   0  0  0  0  0  0  0  0  0  0  0  0
  158.3811   43.0380  150.1869 C   0  0  2  0  0  0  0  0  0  0  0  0
  160.6262   45.7574  143.0222 C   0  0  1  0  0  0  0  0  0  0  0  0
  156.5689   38.1256  149.8245 N   0  0  0  0  0  0  0  0  0  0  0  0
  157.1232   38.7705  150.8684 C   0  0  1  0  0  0  0  0  0  0  0  0
  159.1947   45.8332  143.5108 C   0  0  2  0  0  0  0  0  0  0  0  0
  157.2687   38.1164  152.0424 N   0  0  0  0  0  0  0  0  0  0  0  0
  158.5223   46.8158  142.7183 O   0  0  0  0  0  0  0  0  0  0  0  0
  159.2865   46.2780  144.9585 C   0  0  2  0  0  0  0  0  0  0  0  0
  157.5529   40.0516  150.8125 N   0  0  0  0  0  0  0  0  0  0  0  0
  158.1468   47.0447  145.3449 O   0  0  0  0  0  0  0  0  0  0  0  0
  157.4453   40.7706  149.6748 C   0  0  2  0  0  0  0  0  0  0  0  0
  160.5698   47.1057  144.9632 C   0  0  2  0  0  0  0  0  0  0  0  0
  161.3633   46.6447  143.8675 O   0  0  0  0  0  0  0  0  0  0  0  0
  156.8523   40.1306  148.4965 C   0  0  2  0  0  0  0  0  0  0  0  0
  161.3911   47.0225  146.2537 C   0  0  0  0  0  0  0  0  0  0  0  0
  161.5659   45.6863  146.7230 O   0  0  0  0  0  0  0  0  0  0  0  0
  156.4040   38.7247  148.6327 C   0  0  0  0  0  0  0  0  0  0  0  0
  155.8868   38.1284  147.6575 O   0  0  0  0  0  0  0  0  0  0  0  0
  156.8731   41.0546  147.5194 N   0  0  0  0  0  0  0  0  0  0  0  0
  157.4256   42.1846  148.0223 C   0  0  0  0  0  0  0  0  0  0  0  0
  157.7659   42.0123  149.3115 N   0  0  1  0  0  0  0  0  0  0  0  0
  160.0744   40.6520  141.8962 N   0  0  0  0  0  0  0  0  0  0  0  0
  162.8584   46.5534  148.7506 O   0  5  0  0  0  0  0  0  0  0  0  0
  159.3513   41.7063  141.4881 C   0  0  2  0  0  0  0  0  0  0  0  0
  158.3205   41.4665  140.6639 N   0  0  0  0  0  0  0  0  0  0  0  0
  162.4470   43.9824  148.3568 O   0  0  0  0  0  0  0  0  0  0  0  0
  159.6108   42.9817  141.8599 N   0  0  0  0  0  0  0  0  0  0  0  0
  160.6424   43.2620  142.6835 C   0  0  1  0  0  0  0  0  0  0  0  0
  161.4766   42.1444  143.1689 C   0  0  1  0  0  0  0  0  0  0  0  0
  161.1281   40.7774  142.7046 C   0  0  0  0  0  0  0  0  0  0  0  0
  161.7682   39.7654  143.0628 O   0  0  0  0  0  0  0  0  0  0  0  0
  162.4199   42.6890  143.9537 N   0  0  0  0  0  0  0  0  0  0  0  0
  162.2008   44.0332  143.9707 C   0  0  0  0  0  0  0  0  0  0  0  0
  161.1424   44.3790  143.2112 N   0  0  2  0  0  0  0  0  0  0  0  0
  1  3  1  6  0  0  0
  1  4  2  0  0  0  0
  1  6  1  0  0  0  0
  1 22  1  0  0  0  0
  2 28  1  0  0  0  0
  2 35  1  1  0  0  0
  2 38  2  0  0  0  0
  2 10  1  0  0  0  0
  5  6  1  0  0  0  0
  7  5  1  6  0  0  0
  7  8  1  0  0  0  0
  7  9  1  0  0  0  0
  9 10  1  1  0  0  0
  9 11  1  0  0  0  0
 11 12  1  1  0  0  0
 11 13  1  0  0  0  0
 13  8  1  6  0  0  0
 13 33  1  0  0  0  0
 14 46  1  0  0  0  0
 14 17  1  0  0  0  0
 14 25  1  1  0  0  0
 15 16  1  0  0  0  0
 15 29  1  0  0  0  0
 16 18  1  6  0  0  0
 16 21  1  0  0  0  0
 17 19  1  6  0  0  0
 17 20  1  0  0  0  0
 20 22  1  6  0  0  0
 20 24  1  0  0  0  0
 23 21  1  6  0  0  0
 23 26  1  0  0  0  0
 23 33  1  0  0  0  0
 24 25  1  6  0  0  0
 24 27  1  0  0  0  0
 26 29  1  6  0  0  0
 26 31  1  0  0  0  0
 27 28  1  0  0  0  0
 29 30  2  0  0  0  0
 31 32  1  0  0  0  0
 33 32  1  1  0  0  0
 34 36  1  0  0  0  0
 34 42  1  0  0  0  0
 36 37  1  6  0  0  0
 36 39  1  0  0  0  0
 40 39  1  6  0  0  0
 40 41  1  0  0  0  0
 40 46  1  0  0  0  0
 41 42  1  6  0  0  0
 41 44  1  0  0  0  0
 42 43  2  0  0  0  0
 44 45  1  0  0  0  0
 46 45  1  1  0  0  0
M  CHG  2   3  -1  35  -1
M  END
>  <CHROM.1>
-125.84111284,59.40236655,159.18597932,43.61789062,146.55956153,-0.19270444
1.20133406,0.83720467

>  <Name>
ligand

>  <RI>
0

>  <Rbt.Current_Directory>
/home/itssahil/PROJECTS/Mol_Feturizer/Test_systems_manuscript/rnas/4yb0

>  <Rbt.Executable>
rbdock ($Id: //depot/dev/client3/rdock/2013.1/src/exe/rbdock.cxx#4 $)

>  <Rbt.Library>
libRbt.so (2013.1, Build901 2013/11/27)

>  <Rbt.Parameter_File>
/export/apps/rDock/src/rDock_2013.1_src/data/scripts/dock_solv.prm

>  <Rbt.Receptor>
prm/pocket_docking_6.prm

>  <SCORE>
-16.5485

>  <SCORE.INTER>
-16.385

>  <SCORE.INTER.CONST>
1

>  <SCORE.INTER.POLAR>
0

>  <SCORE.INTER.ROT>
2

>  <SCORE.INTER.SOLV>
21.3152

>  <SCORE.INTER.VDW>
-22.9618

>  <SCORE.INTER.norm>
-0.356197

>  <SCORE.INTRA>
-0.17352

>  <SCORE.INTRA.DIHEDRAL>
-0.0143916

>  <SCORE.INTRA.DIHEDRAL.0>
2.42188

>  <SCORE.INTRA.POLAR>
0

>  <SCORE.INTRA.POLAR.0>
0

>  <SCORE.INTRA.REPUL>
0

>  <SCORE.INTRA.REPUL.0>
0

>  <SCORE.INTRA.SOLV>
-0.0152312

>  <SCORE.INTRA.SOLV.lig_0>
-127.307

>  <SCORE.INTRA.VDW>
-0.158708

>  <SCORE.INTRA.VDW.0>
-2.19936

>  <SCORE.INTRA.norm>
-0.00377217

>  <SCORE.RESTR>
0.0100405

>  <SCORE.RESTR.CAVITY>
0.0100405

>  <SCORE.RESTR.norm>
0.000218272

>  <SCORE.SYSTEM>
0

>  <SCORE.SYSTEM.CONST>
0

>  <SCORE.SYSTEM.DIHEDRAL>
0

>  <SCORE.SYSTEM.SOLV>
0

>  <SCORE.SYSTEM.norm>
0

>  <SCORE.heavy>
46

>  <SCORE.norm>
-0.359751

>  <RMSD>
5.715

$$$$
ligand
 OpenBabel02271912143D
libRbt.so/2013.1/901 2013/11/27
 46 52  0  0  0  0  0  0  0  0999 V2000
  160.3510   43.1862  142.3847 P   0  0  1  0  0  0  0  0  0  0  0  0
  161.5224   46.4998  146.8656 P   0  0  1  0  0  0  0  0  0  0  0  0
  159.2817   42.1488  142.6115 O   0  5  0  0  0  0  0  0  0  0  0  0
  160.8341   43.3654  140.9620 O   0  0  0  0  0  0  0  0  0  0  0  0
  160.0584   45.8153  142.3425 C   0  0  0  0  0  0  0  0  0  0  0  0
  159.8442   44.5783  143.0095 O   0  0  0  0  0  0  0  0  0  0  0  0
  159.8462   46.9700  143.3076 C   0  0  1  0  0  0  0  0  0  0  0  0
  158.5770   47.5454  143.0322 O   0  0  0  0  0  0  0  0  0  0  0  0
  159.8346   46.6005  144.7855 C   0  0  1  0  0  0  0  0  0  0  0  0
  161.0672   46.9768  145.3819 O   0  0  0  0  0  0  0  0  0  0  0  0
  158.7470   47.4803  145.3601 C   0  0  1  0  0  0  0  0  0  0  0  0
  159.3103   48.7219  145.7880 O   0  0  0  0  0  0  0  0  0  0  0  0
  157.8293   47.7908  144.2134 C   0  0  2  0  0  0  0  0  0  0  0  0
  161.4867   41.0878  146.5501 C   0  0  1  0  0  0  0  0  0  0  0  0
  154.8845   44.5920  147.1532 N   0  0  0  0  0  0  0  0  0  0  0  0
  155.9601   45.3304  147.4861 C   0  0  1  0  0  0  0  0  0  0  0  0
  160.9634   41.2824  145.1424 C   0  0  2  0  0  0  0  0  0  0  0  0
  156.4120   45.2957  148.7596 N   0  0  0  0  0  0  0  0  0  0  0  0
  161.6225   40.3293  144.3040 O   0  0  0  0  0  0  0  0  0  0  0  0
  161.3532   42.6981  144.7601 C   0  0  2  0  0  0  0  0  0  0  0  0
  156.6282   46.1144  146.6099 N   0  0  0  0  0  0  0  0  0  0  0  0
  161.5832   42.8181  143.3570 O   0  0  0  0  0  0  0  0  0  0  0  0
  156.2405   46.1998  145.3194 C   0  0  2  0  0  0  0  0  0  0  0  0
  162.6255   42.9161  145.5761 C   0  0  2  0  0  0  0  0  0  0  0  0
  162.5629   42.0194  146.6873 O   0  0  0  0  0  0  0  0  0  0  0  0
  155.0766   45.4205  144.8860 C   0  0  2  0  0  0  0  0  0  0  0  0
  162.8307   44.3449  146.0891 C   0  0  0  0  0  0  0  0  0  0  0  0
  161.6603   44.9002  146.6877 O   0  0  0  0  0  0  0  0  0  0  0  0
  154.3946   44.5842  145.9016 C   0  0  0  0  0  0  0  0  0  0  0  0
  153.3919   43.8990  145.5870 O   0  0  0  0  0  0  0  0  0  0  0  0
  154.9182   45.6830  143.5765 N   0  0  0  0  0  0  0  0  0  0  0  0
  155.8878   46.5519  143.2024 C   0  0  0  0  0  0  0  0  0  0  0  0
  156.6764   46.8599  144.2467 N   0  0  1  0  0  0  0  0  0  0  0  0
  158.3757   39.4413  150.4551 N   0  0  0  0  0  0  0  0  0  0  0  0
  162.8968   47.0998  147.0961 O   0  5  0  0  0  0  0  0  0  0  0  0
  159.3102   38.7747  149.7600 C   0  0  2  0  0  0  0  0  0  0  0  0
  159.5162   37.4881  150.0785 N   0  0  0  0  0  0  0  0  0  0  0  0
  160.3935   46.7514  147.8353 O   0  0  0  0  0  0  0  0  0  0  0  0
  160.0467   39.3313  148.7700 N   0  0  0  0  0  0  0  0  0  0  0  0
  159.8710   40.6243  148.4255 C   0  0  1  0  0  0  0  0  0  0  0  0
  158.8561   41.4127  149.1527 C   0  0  1  0  0  0  0  0  0  0  0  0
  158.0992   40.7270  150.2310 C   0  0  0  0  0  0  0  0  0  0  0  0
  157.2160   41.3050  150.9003 O   0  0  0  0  0  0  0  0  0  0  0  0
  158.8874   42.6474  148.6266 N   0  0  0  0  0  0  0  0  0  0  0  0
  159.8340   42.6424  147.6473 C   0  0  0  0  0  0  0  0  0  0  0  0
  160.4252   41.4373  147.5265 N   0  0  2  0  0  0  0  0  0  0  0  0
  1  3  1  1  0  0  0
  1  4  2  0  0  0  0
  1  6  1  0  0  0  0
  1 22  1  0  0  0  0
  2 28  1  0  0  0  0
  2 35  1  1  0  0  0
  2 38  2  0  0  0  0
  2 10  1  0  0  0  0
  5  6  1  0  0  0  0
  7  5  1  6  0  0  0
  7  8  1  0  0  0  0
  7  9  1  0  0  0  0
  9 10  1  1  0  0  0
  9 11  1  0  0  0  0
 11 12  1  6  0  0  0
 11 13  1  0  0  0  0
 13  8  1  6  0  0  0
 13 33  1  0  0  0  0
 14 46  1  0  0  0  0
 14 17  1  0  0  0  0
 14 25  1  1  0  0  0
 15 16  1  0  0  0  0
 15 29  1  0  0  0  0
 16 18  1  6  0  0  0
 16 21  1  0  0  0  0
 17 19  1  6  0  0  0
 17 20  1  0  0  0  0
 20 22  1  6  0  0  0
 20 24  1  0  0  0  0
 23 21  1  6  0  0  0
 23 26  1  0  0  0  0
 23 33  1  0  0  0  0
 24 25  1  1  0  0  0
 24 27  1  0  0  0  0
 26 29  1  6  0  0  0
 26 31  1  0  0  0  0
 27 28  1  0  0  0  0
 29 30  2  0  0  0  0
 31 32  1  0  0  0  0
 33 32  1  1  0  0  0
 34 36  1  0  0  0  0
 34 42  1  0  0  0  0
 36 37  1  1  0  0  0
 36 39  1  0  0  0  0
 40 39  1  1  0  0  0
 40 41  1  0  0  0  0
 40 46  1  0  0  0  0
 41 42  1  1  0  0  0
 41 44  1  0  0  0  0
 42 43  2  0  0  0  0
 44 45  1  0  0  0  0
 46 45  1  6  0  0  0
M  CHG  2   3  -1  35  -1
M  END
>  <CHROM.1>
137.78084210,118.62282370,159.25416439,44.00031722,145.92645967,-1.73355400
-0.40573946,2.43181637

>  <Name>
ligand

>  <RI>
0

>  <Rbt.Current_Directory>
/home/itssahil/PROJECTS/Mol_Feturizer/Test_systems_manuscript/rnas/4yb0

>  <Rbt.Executable>
rbdock ($Id: //depot/dev/client3/rdock/2013.1/src/exe/rbdock.cxx#4 $)

>  <Rbt.Library>
libRbt.so (2013.1, Build901 2013/11/27)

>  <Rbt.Parameter_File>
/export/apps/rDock/src/rDock_2013.1_src/data/scripts/dock_solv.prm

>  <Rbt.Receptor>
prm/pocket_docking_7.prm

>  <SCORE>
-20.8329

>  <SCORE.INTER>
-21.3806

>  <SCORE.INTER.CONST>
1

>  <SCORE.INTER.POLAR>
0

>  <SCORE.INTER.ROT>
2

>  <SCORE.INTER.SOLV>
21.2018

>  <SCORE.INTER.VDW>
-26.2544

>  <SCORE.INTER.norm>
-0.464797

>  <SCORE.INTRA>
0.547711

>  <SCORE.INTRA.DIHEDRAL>
-0.0413716

>  <SCORE.INTRA.DIHEDRAL.0>
2.42188

>  <SCORE.INTRA.POLAR>
0

>  <SCORE.INTRA.POLAR.0>
0

>  <SCORE.INTRA.REPUL>
0

>  <SCORE.INTRA.REPUL.0>
0

>  <SCORE.INTRA.SOLV>
0.619682

>  <SCORE.INTRA.SOLV.lig_0>
-127.307

>  <SCORE.INTRA.VDW>
0.258556

>  <SCORE.INTRA.VDW.0>
-2.19936

>  <SCORE.INTRA.norm>
0.0119068

>  <SCORE.RESTR>
0

>  <SCORE.RESTR.CAVITY>
0

>  <SCORE.RESTR.norm>
0

>  <SCORE.SYSTEM>
0

>  <SCORE.SYSTEM.CONST>
0

>  <SCORE.SYSTEM.DIHEDRAL>
0

>  <SCORE.SYSTEM.SOLV>
0

>  <SCORE.SYSTEM.norm>
0

>  <SCORE.heavy>
46

>  <SCORE.norm>
-0.45289

>  <RMSD>
5.718

$$$$
ligand
 OpenBabel02271912143D
libRbt.so/2013.1/901 2013/11/27
 46 52  0  0  0  0  0  0  0  0999 V2000
  160.3928   43.2384  142.3876 P   0  0  1  0  0  0  0  0  0  0  0  0
  161.5130   46.5599  146.8757 P   0  0  1  0  0  0  0  0  0  0  0  0
  159.3241   42.1984  142.6053 O   0  5  0  0  0  0  0  0  0  0  0  0
  160.8890   43.4173  140.9693 O   0  0  0  0  0  0  0  0  0  0  0  0
  160.0939   45.8666  142.3397 C   0  0  0  0  0  0  0  0  0  0  0  0
  159.8765   44.6298  143.0060 O   0  0  0  0  0  0  0  0  0  0  0  0
  159.8695   47.0218  143.3014 C   0  0  1  0  0  0  0  0  0  0  0  0
  158.6015   47.5937  143.0132 O   0  0  0  0  0  0  0  0  0  0  0  0
  159.8448   46.6540  144.7796 C   0  0  1  0  0  0  0  0  0  0  0  0
  161.0707   47.0340  145.3873 O   0  0  0  0  0  0  0  0  0  0  0  0
  158.7495   47.5316  145.3428 C   0  0  1  0  0  0  0  0  0  0  0  0
  159.3055   48.7751  145.7746 O   0  0  0  0  0  0  0  0  0  0  0  0
  157.8420   47.8385  144.1871 C   0  0  2  0  0  0  0  0  0  0  0  0
  161.4941   41.1474  146.5660 C   0  0  1  0  0  0  0  0  0  0  0  0
  154.8566   44.6613  147.1093 N   0  0  0  0  0  0  0  0  0  0  0  0
  155.9244   45.4061  147.4527 C   0  0  1  0  0  0  0  0  0  0  0  0
  160.9838   41.3392  145.1531 C   0  0  2  0  0  0  0  0  0  0  0  0
  156.3548   45.3857  148.7340 N   0  0  0  0  0  0  0  0  0  0  0  0
  161.6533   40.3868  144.3221 O   0  0  0  0  0  0  0  0  0  0  0  0
  161.3736   42.7554  144.7730 C   0  0  2  0  0  0  0  0  0  0  0  0
  156.6051   46.1831  146.5800 N   0  0  0  0  0  0  0  0  0  0  0  0
  161.6166   42.8745  143.3720 O   0  0  0  0  0  0  0  0  0  0  0  0
  156.2391   46.2542  145.2823 C   0  0  2  0  0  0  0  0  0  0  0  0
  162.6374   42.9776  145.6009 C   0  0  2  0  0  0  0  0  0  0  0  0
  162.5666   42.0820  146.7124 O   0  0  0  0  0  0  0  0  0  0  0  0
  155.0848   45.4672  144.8372 C   0  0  2  0  0  0  0  0  0  0  0  0
  162.8341   44.4075  146.1142 C   0  0  0  0  0  0  0  0  0  0  0  0
  161.6567   44.9604  146.7010 O   0  0  0  0  0  0  0  0  0  0  0  0
  154.3880   44.6393  145.8497 C   0  0  0  0  0  0  0  0  0  0  0  0
  153.3926   43.9481  145.5253 O   0  0  0  0  0  0  0  0  0  0  0  0
  154.9478   45.7159  143.5226 N   0  0  0  0  0  0  0  0  0  0  0  0
  155.9213   46.5837  143.1561 C   0  0  0  0  0  0  0  0  0  0  0  0
  156.6913   46.9046  144.2104 N   0  0  1  0  0  0  0  0  0  0  0  0
  158.3772   39.5077  150.4690 N   0  0  0  0  0  0  0  0  0  0  0  0
  162.8836   47.1636  147.1187 O   0  5  0  0  0  0  0  0  0  0  0  0
  159.3236   38.8443  149.7871 C   0  0  2  0  0  0  0  0  0  0  0  0
  159.5423   37.5637  150.1208 N   0  0  0  0  0  0  0  0  0  0  0  0
  160.3742   46.8096  147.8343 O   0  0  0  0  0  0  0  0  0  0  0  0
  160.0601   39.3986  148.7958 N   0  0  0  0  0  0  0  0  0  0  0  0
  159.8719   40.6857  148.4361 C   0  0  1  0  0  0  0  0  0  0  0  0
  158.8434   41.4703  149.1483 C   0  0  1  0  0  0  0  0  0  0  0  0
  158.0875   40.7876  150.2292 C   0  0  0  0  0  0  0  0  0  0  0  0
  157.1934   41.3626  150.8866 O   0  0  0  0  0  0  0  0  0  0  0  0
  158.8640   42.6995  148.6090 N   0  0  0  0  0  0  0  0  0  0  0  0
  159.8168   42.6948  147.6358 C   0  0  0  0  0  0  0  0  0  0  0  0
  160.4225   41.4952  147.5319 N   0  0  2  0  0  0  0  0  0  0  0  0
  1  3  1  1  0  0  0
  1  4  2  0  0  0  0
  1  6  1  0  0  0  0
  1 22  1  0  0  0  0
  2 28  1  0  0  0  0
  2 35  1  1  0  0  0
  2 38  2  0  0  0  0
  2 10  1  0  0  0  0
  5  6  1  0  0  0  0
  7  5  1  6  0  0  0
  7  8  1  0  0  0  0
  7  9  1  0  0  0  0
  9 10  1  1  0  0  0
  9 11  1  0  0  0  0
 11 12  1  6  0  0  0
 11 13  1  0  0  0  0
 13  8  1  6  0  0  0
 13 33  1  0  0  0  0
 14 46  1  0  0  0  0
 14 17  1  0  0  0  0
 14 25  1  1  0  0  0
 15 16  1  0  0  0  0
 15 29  1  0  0  0  0
 16 18  1  6  0  0  0
 16 21  1  0  0  0  0
 17 19  1  6  0  0  0
 17 20  1  0  0  0  0
 20 22  1  6  0  0  0
 20 24  1  0  0  0  0
 23 21  1  6  0  0  0
 23 26  1  0  0  0  0
 23 33  1  0  0  0  0
 24 25  1  1  0  0  0
 24 27  1  0  0  0  0
 26 29  1  6  0  0  0
 26 31  1  0  0  0  0
 27 28  1  0  0  0  0
 29 30  2  0  0  0  0
 31 32  1  0  0  0  0
 33 32  1  1  0  0  0
 34 36  1  0  0  0  0
 34 42  1  0  0  0  0
 36 37  1  1  0  0  0
 36 39  1  0  0  0  0
 40 39  1  1  0  0  0
 40 41  1  0  0  0  0
 40 46  1  0  0  0  0
 41 42  1  1  0  0  0
 41 44  1  0  0  0  0
 42 43  2  0  0  0  0
 44 45  1  0  0  0  0
 46 45  1  6  0  0  0
M  CHG  2   3  -1  35  -1
M  END
>  <CHROM.1>
138.45103364,119.39914336,159.26084621,44.05746325,145.92143222,-1.73568790
-0.40033758,2.42781979

>  <Name>
ligand

>  <RI>
0

>  <Rbt.Current_Directory>
/home/itssahil/PROJECTS/Mol_Feturizer/Test_systems_manuscript/rnas/4yb0

>  <Rbt.Executable>
rbdock ($Id: //depot/dev/client3/rdock/2013.1/src/exe/rbdock.cxx#4 $)

>  <Rbt.Library>
libRbt.so (2013.1, Build901 2013/11/27)

>  <Rbt.Parameter_File>
/export/apps/rDock/src/rDock_2013.1_src/data/scripts/dock_solv.prm

>  <Rbt.Receptor>
prm/pocket_docking_6.prm

>  <SCORE>
-20.8012

>  <SCORE.INTER>
-21.3285

>  <SCORE.INTER.CONST>
1

>  <SCORE.INTER.POLAR>
0

>  <SCORE.INTER.ROT>
2

>  <SCORE.INTER.SOLV>
21.1411

>  <SCORE.INTER.VDW>
-26.1993

>  <SCORE.INTER.norm>
-0.463662

>  <SCORE.INTRA>
0.52729

>  <SCORE.INTRA.DIHEDRAL>
-0.0406314

>  <SCORE.INTRA.DIHEDRAL.0>
2.42188

>  <SCORE.INTRA.POLAR>
0

>  <SCORE.INTRA.POLAR.0>
0

>  <SCORE.INTRA.REPUL>
0

>  <SCORE.INTRA.REPUL.0>
0

>  <SCORE.INTRA.SOLV>
0.541589

>  <SCORE.INTRA.SOLV.lig_0>
-127.307

>  <SCORE.INTRA.VDW>
0.276811

>  <SCORE.INTRA.VDW.0>
-2.19936

>  <SCORE.INTRA.norm>
0.0114628

>  <SCORE.RESTR>
0

>  <SCORE.RESTR.CAVITY>
0

>  <SCORE.RESTR.norm>
0

>  <SCORE.SYSTEM>
0

>  <SCORE.SYSTEM.CONST>
0

>  <SCORE.SYSTEM.DIHEDRAL>
0

>  <SCORE.SYSTEM.SOLV>
0

>  <SCORE.SYSTEM.norm>
0

>  <SCORE.heavy>
46

>  <SCORE.norm>
-0.452199

>  <RMSD>
5.722

$$$$
ligand
 OpenBabel02271912143D
libRbt.so/2013.1/901 2013/11/27
 46 52  0  0  0  0  0  0  0  0999 V2000
  160.4025   43.2669  142.4262 P   0  0  1  0  0  0  0  0  0  0  0  0
  161.4906   46.5483  146.9516 P   0  0  1  0  0  0  0  0  0  0  0  0
  159.3367   42.2209  142.6290 O   0  5  0  0  0  0  0  0  0  0  0  0
  160.9043   43.4615  141.0120 O   0  0  0  0  0  0  0  0  0  0  0  0
  160.0941   45.8944  142.4027 C   0  0  0  0  0  0  0  0  0  0  0  0
  159.8783   44.6503  143.0559 O   0  0  0  0  0  0  0  0  0  0  0  0
  159.8612   47.0392  143.3747 C   0  0  1  0  0  0  0  0  0  0  0  0
  158.5924   47.6093  143.0864 O   0  0  0  0  0  0  0  0  0  0  0  0
  159.8313   46.6569  144.8490 C   0  0  1  0  0  0  0  0  0  0  0  0
  161.0531   47.0354  145.4658 O   0  0  0  0  0  0  0  0  0  0  0  0
  158.7303   47.5249  145.4159 C   0  0  1  0  0  0  0  0  0  0  0  0
  159.2798   48.7661  145.8623 O   0  0  0  0  0  0  0  0  0  0  0  0
  157.8268   47.8398  144.2592 C   0  0  2  0  0  0  0  0  0  0  0  0
  161.4931   41.1391  146.5888 C   0  0  1  0  0  0  0  0  0  0  0  0
  154.8220   44.6456  147.1428 N   0  0  0  0  0  0  0  0  0  0  0  0
  155.8832   45.3938  147.4992 C   0  0  1  0  0  0  0  0  0  0  0  0
  160.9882   41.3429  145.1756 C   0  0  2  0  0  0  0  0  0  0  0  0
  156.2997   45.3725  148.7850 N   0  0  0  0  0  0  0  0  0  0  0  0
  161.6649   40.4011  144.3383 O   0  0  0  0  0  0  0  0  0  0  0  0
  161.3745   42.7642  144.8111 C   0  0  2  0  0  0  0  0  0  0  0  0
  156.5704   46.1751  146.6354 N   0  0  0  0  0  0  0  0  0  0  0  0
  161.6233   42.8978  143.4124 O   0  0  0  0  0  0  0  0  0  0  0  0
  156.2181   46.2473  145.3340 C   0  0  2  0  0  0  0  0  0  0  0  0
  162.6339   42.9828  145.6467 C   0  0  2  0  0  0  0  0  0  0  0  0
  162.5615   42.0761  146.7491 O   0  0  0  0  0  0  0  0  0  0  0  0
  155.0717   45.4568  144.8749 C   0  0  2  0  0  0  0  0  0  0  0  0
  162.8230   44.4083  146.1749 C   0  0  0  0  0  0  0  0  0  0  0  0
  161.6409   44.9512  146.7618 O   0  0  0  0  0  0  0  0  0  0  0  0
  154.3671   44.6244  145.8782 C   0  0  0  0  0  0  0  0  0  0  0  0
  153.3779   43.9300  145.5416 O   0  0  0  0  0  0  0  0  0  0  0  0
  154.9480   45.7076  143.5594 N   0  0  0  0  0  0  0  0  0  0  0  0
  155.9221   46.5798  143.2051 C   0  0  0  0  0  0  0  0  0  0  0  0
  156.6794   46.9016  144.2683 N   0  0  1  0  0  0  0  0  0  0  0  0
  158.4207   39.4729  150.5159 N   0  0  0  0  0  0  0  0  0  0  0  0
  162.8578   47.1546  147.2065 O   0  5  0  0  0  0  0  0  0  0  0  0
  159.3802   38.8233  149.8390 C   0  0  2  0  0  0  0  0  0  0  0  0
  159.6277   37.5514  150.1859 N   0  0  0  0  0  0  0  0  0  0  0  0
  160.3466   46.7845  147.9075 O   0  0  0  0  0  0  0  0  0  0  0  0
  160.1023   39.3831  148.8402 N   0  0  0  0  0  0  0  0  0  0  0  0
  159.8851   40.6618  148.4673 C   0  0  1  0  0  0  0  0  0  0  0  0
  158.8409   41.4310  149.1733 C   0  0  1  0  0  0  0  0  0  0  0  0
  158.1023   40.7435  150.2630 C   0  0  0  0  0  0  0  0  0  0  0  0
  157.1971   41.3056  150.9162 O   0  0  0  0  0  0  0  0  0  0  0  0
  158.8333   42.6546  148.6209 N   0  0  0  0  0  0  0  0  0  0  0  0
  159.7841   42.6605  147.6457 C   0  0  0  0  0  0  0  0  0  0  0  0
  160.4160   41.4735  147.5532 N   0  0  2  0  0  0  0  0  0  0  0  0
  1  3  1  1  0  0  0
  1  4  2  0  0  0  0
  1  6  1  0  0  0  0
  1 22  1  0  0  0  0
  2 28  1  0  0  0  0
  2 35  1  1  0  0  0
  2 38  2  0  0  0  0
  2 10  1  0  0  0  0
  5  6  1  0  0  0  0
  7  5  1  6  0  0  0
  7  8  1  0  0  0  0
  7  9  1  0  0  0  0
  9 10  1  1  0  0  0
  9 11  1  0  0  0  0
 11 12  1  6  0  0  0
 11 13  1  0  0  0  0
 13  8  1  6  0  0  0
 13 33  1  0  0  0  0
 14 46  1  0  0  0  0
 14 17  1  0  0  0  0
 14 25  1  1  0  0  0
 15 16  1  0  0  0  0
 15 29  1  0  0  0  0
 16 18  1  6  0  0  0
 16 21  1  0  0  0  0
 17 19  1  6  0  0  0
 17 20  1  0  0  0  0
 20 22  1  6  0  0  0
 20 24  1  0  0  0  0
 23 21  1  6  0  0  0
 23 26  1  0  0  0  0
 23 33  1  0  0  0  0
 24 25  1  1  0  0  0
 24 27  1  0  0  0  0
 26 29  1  6  0  0  0
 26 31  1  0  0  0  0
 27 28  1  0  0  0  0
 29 30  2  0  0  0  0
 31 32  1  0  0  0  0
 33 32  1  1  0  0  0
 34 36  1  0  0  0  0
 34 42  1  0  0  0  0
 36 37  1  1  0  0  0
 36 39  1  0  0  0  0
 40 39  1  1  0  0  0
 40 41  1  0  0  0  0
 40 46  1  0  0  0  0
 41 42  1  1  0  0  0
 41 44  1  0  0  0  0
 42 43  2  0  0  0  0
 44 45  1  0  0  0  0
 46 45  1  6  0  0  0
M  CHG  2   3  -1  35  -1
M  END
>  <CHROM.1>
139.03170007,121.01892304,159.25600791,44.05210726,145.96936236,-1.74621651
-0.39891851,2.42802773

>  <Name>
ligand

>  <RI>
0

>  <Rbt.Current_Directory>
/home/itssahil/PROJECTS/Mol_Feturizer/Test_systems_manuscript/rnas/4yb0

>  <Rbt.Executable>
rbdock ($Id: //depot/dev/client3/rdock/2013.1/src/exe/rbdock.cxx#4 $)

>  <Rbt.Library>
libRbt.so (2013.1, Build901 2013/11/27)

>  <Rbt.Parameter_File>
/export/apps/rDock/src/rDock_2013.1_src/data/scripts/dock_solv.prm

>  <Rbt.Receptor>
prm/pocket_docking_8.prm

>  <SCORE>
-20.8236

>  <SCORE.INTER>
-21.3259

>  <SCORE.INTER.CONST>
1

>  <SCORE.INTER.POLAR>
0

>  <SCORE.INTER.ROT>
2

>  <SCORE.INTER.SOLV>
21.1633

>  <SCORE.INTER.VDW>
-26.205

>  <SCORE.INTER.norm>
-0.463606

>  <SCORE.INTRA>
0.502283

>  <SCORE.INTRA.DIHEDRAL>
-0.0384831

>  <SCORE.INTRA.DIHEDRAL.0>
2.42188

>  <SCORE.INTRA.POLAR>
0

>  <SCORE.INTRA.POLAR.0>
0

>  <SCORE.INTRA.REPUL>
0

>  <SCORE.INTRA.REPUL.0>
0

>  <SCORE.INTRA.SOLV>
0.475427

>  <SCORE.INTRA.SOLV.lig_0>
-127.307

>  <SCORE.INTRA.VDW>
0.283811

>  <SCORE.INTRA.VDW.0>
-2.19936

>  <SCORE.INTRA.norm>
0.0109192

>  <SCORE.RESTR>
0

>  <SCORE.RESTR.CAVITY>
0

>  <SCORE.RESTR.norm>
0

>  <SCORE.SYSTEM>
0

>  <SCORE.SYSTEM.CONST>
0

>  <SCORE.SYSTEM.DIHEDRAL>
0

>  <SCORE.SYSTEM.SOLV>
0

>  <SCORE.SYSTEM.norm>
0

>  <SCORE.heavy>
46

>  <SCORE.norm>
-0.452687

>  <RMSD>
5.724

$$$$
ligand
 OpenBabel02271912143D
libRbt.so/2013.1/901 2013/11/27
 46 52  0  0  0  0  0  0  0  0999 V2000
  160.3807   43.2081  142.3741 P   0  0  1  0  0  0  0  0  0  0  0  0
  161.5418   46.5017  146.8724 P   0  0  1  0  0  0  0  0  0  0  0  0
  159.3052   42.1750  142.5914 O   0  5  0  0  0  0  0  0  0  0  0  0
  160.8730   43.3895  140.9548 O   0  0  0  0  0  0  0  0  0  0  0  0
  160.1009   45.8386  142.3387 C   0  0  0  0  0  0  0  0  0  0  0  0
  159.8769   44.6005  143.0005 O   0  0  0  0  0  0  0  0  0  0  0  0
  159.8885   46.9912  143.3063 C   0  0  1  0  0  0  0  0  0  0  0  0
  158.6237   47.5736  143.0253 O   0  0  0  0  0  0  0  0  0  0  0  0
  159.8665   46.6171  144.7829 C   0  0  1  0  0  0  0  0  0  0  0  0
  161.0974   46.9856  145.3876 O   0  0  0  0  0  0  0  0  0  0  0  0
  158.7798   47.5002  145.3540 C   0  0  1  0  0  0  0  0  0  0  0  0
  159.3465   48.7378  145.7891 O   0  0  0  0  0  0  0  0  0  0  0  0
  157.8703   47.8188  144.2030 C   0  0  2  0  0  0  0  0  0  0  0  0
  161.4821   41.0909  146.5393 C   0  0  1  0  0  0  0  0  0  0  0  0
  154.8743   44.6486  147.1220 N   0  0  0  0  0  0  0  0  0  0  0  0
  155.9490   45.3839  147.4646 C   0  0  1  0  0  0  0  0  0  0  0  0
  160.9680   41.2926  145.1292 C   0  0  2  0  0  0  0  0  0  0  0  0
  156.3847   45.3537  148.7438 N   0  0  0  0  0  0  0  0  0  0  0  0
  161.6274   40.3390  144.2916 O   0  0  0  0  0  0  0  0  0  0  0  0
  161.3668   42.7076  144.7538 C   0  0  2  0  0  0  0  0  0  0  0  0
  156.6317   46.1603  146.5928 N   0  0  0  0  0  0  0  0  0  0  0  0
  161.6055   42.8309  143.3524 O   0  0  0  0  0  0  0  0  0  0  0  0
  156.2605   46.2407  145.2971 C   0  0  2  0  0  0  0  0  0  0  0  0
  162.6353   42.9169  145.5779 C   0  0  2  0  0  0  0  0  0  0  0  0
  162.5620   42.0170  146.6858 O   0  0  0  0  0  0  0  0  0  0  0  0
  155.0986   45.4644  144.8531 C   0  0  2  0  0  0  0  0  0  0  0  0
  162.8443   44.3431  146.0966 C   0  0  0  0  0  0  0  0  0  0  0  0
  161.6731   44.9021  146.6902 O   0  0  0  0  0  0  0  0  0  0  0  0
  154.4001   44.6366  145.8644 C   0  0  0  0  0  0  0  0  0  0  0  0
  153.3983   43.9543  145.5407 O   0  0  0  0  0  0  0  0  0  0  0  0
  154.9578   45.7209  143.5404 N   0  0  0  0  0  0  0  0  0  0  0  0
  155.9360   46.5834  143.1740 C   0  0  0  0  0  0  0  0  0  0  0  0
  156.7129   46.8933  144.2266 N   0  0  1  0  0  0  0  0  0  0  0  0
  158.4250   39.4802  150.5012 N   0  0  0  0  0  0  0  0  0  0  0  0
  162.9176   47.0944  147.1128 O   0  5  0  0  0  0  0  0  0  0  0  0
  159.3719   38.8165  149.8202 C   0  0  2  0  0  0  0  0  0  0  0  0
  159.6087   37.5440  150.1724 N   0  0  0  0  0  0  0  0  0  0  0  0
  160.4084   46.7556  147.8363 O   0  0  0  0  0  0  0  0  0  0  0  0
  160.0915   39.3628  148.8123 N   0  0  0  0  0  0  0  0  0  0  0  0
  159.8848   40.6416  148.4338 C   0  0  1  0  0  0  0  0  0  0  0  0
  158.8548   41.4260  149.1439 C   0  0  1  0  0  0  0  0  0  0  0  0
  158.1181   40.7526  150.2437 C   0  0  0  0  0  0  0  0  0  0  0  0
  157.2244   41.3281  150.9011 O   0  0  0  0  0  0  0  0  0  0  0  0
  158.8557   42.6464  148.5845 N   0  0  0  0  0  0  0  0  0  0  0  0
  159.7984   42.6365  147.6014 C   0  0  0  0  0  0  0  0  0  0  0  0
  160.4167   41.4424  147.5107 N   0  0  2  0  0  0  0  0  0  0  0  0
  1  3  1  1  0  0  0
  1  4  2  0  0  0  0
  1  6  1  0  0  0  0
  1 22  1  0  0  0  0
  2 28  1  0  0  0  0
  2 35  1  1  0  0  0
  2 38  2  0  0  0  0
  2 10  1  0  0  0  0
  5  6  1  0  0  0  0
  7  5  1  6  0  0  0
  7  8  1  0  0  0  0
  7  9  1  0  0  0  0
  9 10  1  1  0  0  0
  9 11  1  0  0  0  0
 11 12  1  6  0  0  0
 11 13  1  0  0  0  0
 13  8  1  6  0  0  0
 13 33  1  0  0  0  0
 14 46  1  0  0  0  0
 14 17  1  0  0  0  0
 14 25  1  1  0  0  0
 15 16  1  0  0  0  0
 15 29  1  0  0  0  0
 16 18  1  6  0  0  0
 16 21  1  0  0  0  0
 17 19  1  6  0  0  0
 17 20  1  0  0  0  0
 20 22  1  6  0  0  0
 20 24  1  0  0  0  0
 23 21  1  6  0  0  0
 23 26  1  0  0  0  0
 23 33  1  0  0  0  0
 24 25  1  1  0  0  0
 24 27  1  0  0  0  0
 26 29  1  6  0  0  0
 26 31  1  0  0  0  0
 27 28  1  0  0  0  0
 29 30  2  0  0  0  0
 31 32  1  0  0  0  0
 33 32  1  1  0  0  0
 34 36  1  0  0  0  0
 34 42  1  0  0  0  0
 36 37  1  1  0  0  0
 36 39  1  0  0  0  0
 40 39  1  1  0  0  0
 40 41  1  0  0  0  0
 40 46  1  0  0  0  0
 41 42  1  1  0  0  0
 41 44  1  0  0  0  0
 42 43  2  0  0  0  0
 44 45  1  0  0  0  0
 46 45  1  6  0  0  0
M  CHG  2   3  -1  35  -1
M  END
>  <CHROM.1>
138.39599176,121.04372242,159.27429700,44.02228253,145.92157335,-1.74042581
-0.41016187,2.42388044

>  <Name>
ligand

>  <RI>
0

>  <Rbt.Current_Directory>
/home/itssahil/PROJECTS/Mol_Feturizer/Test_systems_manuscript/rnas/4yb0

>  <Rbt.Executable>
rbdock ($Id: //depot/dev/client3/rdock/2013.1/src/exe/rbdock.cxx#4 $)

>  <Rbt.Library>
libRbt.so (2013.1, Build901 2013/11/27)

>  <Rbt.Parameter_File>
/export/apps/rDock/src/rDock_2013.1_src/data/scripts/dock_solv.prm

>  <Rbt.Receptor>
prm/pocket_docking_6.prm

>  <SCORE>
-20.8366

>  <SCORE.INTER>
-21.3823

>  <SCORE.INTER.CONST>
1

>  <SCORE.INTER.POLAR>
0

>  <SCORE.INTER.ROT>
2

>  <SCORE.INTER.SOLV>
21.1234

>  <SCORE.INTER.VDW>
-26.2293

>  <SCORE.INTER.norm>
-0.464833

>  <SCORE.INTRA>
0.545681

>  <SCORE.INTRA.DIHEDRAL>
-0.0380073

>  <SCORE.INTRA.DIHEDRAL.0>
2.42188

>  <SCORE.INTRA.POLAR>
0

>  <SCORE.INTRA.POLAR.0>
0

>  <SCORE.INTRA.REPUL>
0

>  <SCORE.INTRA.REPUL.0>
0

>  <SCORE.INTRA.SOLV>
0.552938

>  <SCORE.INTRA.SOLV.lig_0>
-127.307

>  <SCORE.INTRA.VDW>
0.288216

>  <SCORE.INTRA.VDW.0>
-2.19936

>  <SCORE.INTRA.norm>
0.0118626

>  <SCORE.RESTR>
0

>  <SCORE.RESTR.CAVITY>
0

>  <SCORE.RESTR.norm>
0

>  <SCORE.SYSTEM>
0

>  <SCORE.SYSTEM.CONST>
0

>  <SCORE.SYSTEM.DIHEDRAL>
0

>  <SCORE.SYSTEM.SOLV>
0

>  <SCORE.SYSTEM.norm>
0

>  <SCORE.heavy>
46

>  <SCORE.norm>
-0.45297

>  <RMSD>
5.728

$$$$
ligand
 OpenBabel02271912143D
libRbt.so/2013.1/901 2013/11/27
 46 52  0  0  0  0  0  0  0  0999 V2000
  160.3927   43.2168  142.3923 P   0  0  1  0  0  0  0  0  0  0  0  0
  161.5366   46.5198  146.8881 P   0  0  1  0  0  0  0  0  0  0  0  0
  159.3165   42.1841  142.6076 O   0  5  0  0  0  0  0  0  0  0  0  0
  160.8903   43.3953  140.9745 O   0  0  0  0  0  0  0  0  0  0  0  0
  160.1128   45.8472  142.3504 C   0  0  0  0  0  0  0  0  0  0  0  0
  159.8864   44.6104  143.0139 O   0  0  0  0  0  0  0  0  0  0  0  0
  159.8967   47.0018  143.3148 C   0  0  1  0  0  0  0  0  0  0  0  0
  158.6329   47.5835  143.0278 O   0  0  0  0  0  0  0  0  0  0  0  0
  159.8692   46.6308  144.7921 C   0  0  1  0  0  0  0  0  0  0  0  0
  161.0978   47.0006  145.4007 O   0  0  0  0  0  0  0  0  0  0  0  0
  158.7803   47.5150  145.3572 C   0  0  1  0  0  0  0  0  0  0  0  0
  159.3452   48.7535  145.7919 O   0  0  0  0  0  0  0  0  0  0  0  0
  157.8751   47.8311  144.2022 C   0  0  2  0  0  0  0  0  0  0  0  0
  161.4786   41.1084  146.5659 C   0  0  1  0  0  0  0  0  0  0  0  0
  154.9032   44.6228  147.1042 N   0  0  0  0  0  0  0  0  0  0  0  0
  155.9810   45.3532  147.4473 C   0  0  1  0  0  0  0  0  0  0  0  0
  160.9697   41.3071  145.1535 C   0  0  2  0  0  0  0  0  0  0  0  0
  156.4277   45.3059  148.7223 N   0  0  0  0  0  0  0  0  0  0  0  0
  161.6324   40.3518  144.3204 O   0  0  0  0  0  0  0  0  0  0  0  0
  161.3698   42.7213  144.7767 C   0  0  2  0  0  0  0  0  0  0  0  0
  156.6564   46.1411  146.5802 N   0  0  0  0  0  0  0  0  0  0  0  0
  161.6138   42.8418  143.3759 O   0  0  0  0  0  0  0  0  0  0  0  0
  156.2743   46.2388  145.2889 C   0  0  2  0  0  0  0  0  0  0  0  0
  162.6352   42.9325  145.6051 C   0  0  2  0  0  0  0  0  0  0  0  0
  162.5578   42.0348  146.7146 O   0  0  0  0  0  0  0  0  0  0  0  0
  155.1084   45.4687  144.8445 C   0  0  2  0  0  0  0  0  0  0  0  0
  162.8421   44.3597  146.1217 C   0  0  0  0  0  0  0  0  0  0  0  0
  161.6687   44.9198  146.7097 O   0  0  0  0  0  0  0  0  0  0  0  0
  154.4183   44.6275  145.8506 C   0  0  0  0  0  0  0  0  0  0  0  0
  153.4136   43.9497  145.5265 O   0  0  0  0  0  0  0  0  0  0  0  0
  154.9564   45.7426  143.5366 N   0  0  0  0  0  0  0  0  0  0  0  0
  155.9317   46.6098  143.1734 C   0  0  0  0  0  0  0  0  0  0  0  0
  156.7176   46.9055  144.2233 N   0  0  1  0  0  0  0  0  0  0  0  0
  158.4204   39.5114  150.5326 N   0  0  0  0  0  0  0  0  0  0  0  0
  162.9115   47.1131  147.1325 O   0  5  0  0  0  0  0  0  0  0  0  0
  159.3717   38.8473  149.8582 C   0  0  2  0  0  0  0  0  0  0  0  0
  159.6135   37.5784  150.2199 N   0  0  0  0  0  0  0  0  0  0  0  0
  160.3996   46.7756  147.8472 O   0  0  0  0  0  0  0  0  0  0  0  0
  160.0910   39.3898  148.8480 N   0  0  0  0  0  0  0  0  0  0  0  0
  159.8793   40.6650  148.4601 C   0  0  1  0  0  0  0  0  0  0  0  0
  158.8442   41.4496  149.1626 C   0  0  1  0  0  0  0  0  0  0  0  0
  158.1082   40.7806  150.2655 C   0  0  0  0  0  0  0  0  0  0  0  0
  157.2105   41.3566  150.9169 O   0  0  0  0  0  0  0  0  0  0  0  0
  158.8407   42.6660  148.5947 N   0  0  0  0  0  0  0  0  0  0  0  0
  159.7856   42.6536  147.6137 C   0  0  0  0  0  0  0  0  0  0  0  0
  160.4095   41.4617  147.5326 N   0  0  2  0  0  0  0  0  0  0  0  0
  1  3  1  1  0  0  0
  1  4  2  0  0  0  0
  1  6  1  0  0  0  0
  1 22  1  0  0  0  0
  2 28  1  0  0  0  0
  2 35  1  1  0  0  0
  2 38  2  0  0  0  0
  2 10  1  0  0  0  0
  5  6  1  0  0  0  0
  7  5  1  6  0  0  0
  7  8  1  0  0  0  0
  7  9  1  0  0  0  0
  9 10  1  1  0  0  0
  9 11  1  0  0  0  0
 11 12  1  6  0  0  0
 11 13  1  0  0  0  0
 13  8  1  6  0  0  0
 13 33  1  0  0  0  0
 14 46  1  0  0  0  0
 14 17  1  0  0  0  0
 14 25  1  1  0  0  0
 15 16  1  0  0  0  0
 15 29  1  0  0  0  0
 16 18  1  6  0  0  0
 16 21  1  0  0  0  0
 17 19  1  6  0  0  0
 17 20  1  0  0  0  0
 20 22  1  6  0  0  0
 20 24  1  0  0  0  0
 23 21  1  6  0  0  0
 23 26  1  0  0  0  0
 23 33  1  0  0  0  0
 24 25  1  1  0  0  0
 24 27  1  0  0  0  0
 26 29  1  6  0  0  0
 26 31  1  0  0  0  0
 27 28  1  0  0  0  0
 29 30  2  0  0  0  0
 31 32  1  0  0  0  0
 33 32  1  1  0  0  0
 34 36  1  0  0  0  0
 34 42  1  0  0  0  0
 36 37  1  1  0  0  0
 36 39  1  0  0  0  0
 40 39  1  1  0  0  0
 40 41  1  0  0  0  0
 40 46  1  0  0  0  0
 41 42  1  1  0  0  0
 41 44  1  0  0  0  0
 42 43  2  0  0  0  0
 44 45  1  0  0  0  0
 46 45  1  6  0  0  0
M  CHG  2   3  -1  35  -1
M  END
>  <CHROM.1>
137.26640217,121.43648520,159.27815896,44.03408146,145.93395151,-1.73508190
-0.40388797,2.42092082

>  <Name>
ligand

>  <RI>
0

>  <Rbt.Current_Directory>
/home/itssahil/PROJECTS/Mol_Feturizer/Test_systems_manuscript/rnas/4yb0

>  <Rbt.Executable>
rbdock ($Id: //depot/dev/client3/rdock/2013.1/src/exe/rbdock.cxx#4 $)

>  <Rbt.Library>
libRbt.so (2013.1, Build901 2013/11/27)

>  <Rbt.Parameter_File>
/export/apps/rDock/src/rDock_2013.1_src/data/scripts/dock_solv.prm

>  <Rbt.Receptor>
prm/pocket_docking_6.prm

>  <SCORE>
-20.788

>  <SCORE.INTER>
-21.3773

>  <SCORE.INTER.CONST>
1

>  <SCORE.INTER.POLAR>
0

>  <SCORE.INTER.ROT>
2

>  <SCORE.INTER.SOLV>
20.6646

>  <SCORE.INTER.VDW>
-26.0731

>  <SCORE.INTER.norm>
-0.464724

>  <SCORE.INTRA>
0.589343

>  <SCORE.INTRA.DIHEDRAL>
-0.0365652

>  <SCORE.INTRA.DIHEDRAL.0>
2.42188

>  <SCORE.INTRA.POLAR>
0

>  <SCORE.INTRA.POLAR.0>
0

>  <SCORE.INTRA.REPUL>
0

>  <SCORE.INTRA.REPUL.0>
0

>  <SCORE.INTRA.SOLV>
0.688879

>  <SCORE.INTRA.SOLV.lig_0>
-127.307

>  <SCORE.INTRA.VDW>
0.263186

>  <SCORE.INTRA.VDW.0>
-2.19936

>  <SCORE.INTRA.norm>
0.0128118

>  <SCORE.RESTR>
0

>  <SCORE.RESTR.CAVITY>
0

>  <SCORE.RESTR.norm>
0

>  <SCORE.SYSTEM>
0

>  <SCORE.SYSTEM.CONST>
0

>  <SCORE.SYSTEM.DIHEDRAL>
0

>  <SCORE.SYSTEM.SOLV>
0

>  <SCORE.SYSTEM.norm>
0

>  <SCORE.heavy>
46

>  <SCORE.norm>
-0.451913

>  <RMSD>
5.739

$$$$
ligand
 OpenBabel02271912143D
libRbt.so/2013.1/901 2013/11/27
 46 52  0  0  0  0  0  0  0  0999 V2000
  160.3877   43.2120  142.4108 P   0  0  1  0  0  0  0  0  0  0  0  0
  161.5201   46.5466  146.8861 P   0  0  1  0  0  0  0  0  0  0  0  0
  159.3128   42.1791  142.6314 O   0  5  0  0  0  0  0  0  0  0  0  0
  160.8871   43.3818  140.9925 O   0  0  0  0  0  0  0  0  0  0  0  0
  160.1039   45.8417  142.3510 C   0  0  0  0  0  0  0  0  0  0  0  0
  159.8784   44.6090  143.0224 O   0  0  0  0  0  0  0  0  0  0  0  0
  159.8847   47.0023  143.3074 C   0  0  1  0  0  0  0  0  0  0  0  0
  158.6204   47.5801  143.0147 O   0  0  0  0  0  0  0  0  0  0  0  0
  159.8556   46.6410  144.7870 C   0  0  1  0  0  0  0  0  0  0  0  0
  161.0827   47.0168  145.3949 O   0  0  0  0  0  0  0  0  0  0  0  0
  158.7645   47.5273  145.3447 C   0  0  1  0  0  0  0  0  0  0  0  0
  159.3269   48.7695  145.7720 O   0  0  0  0  0  0  0  0  0  0  0  0
  157.8605   47.8343  144.1863 C   0  0  2  0  0  0  0  0  0  0  0  0
  161.4708   41.1330  146.5999 C   0  0  1  0  0  0  0  0  0  0  0  0
  154.8959   44.6326  147.1029 N   0  0  0  0  0  0  0  0  0  0  0  0
  155.9729   45.3659  147.4423 C   0  0  1  0  0  0  0  0  0  0  0  0
  160.9637   41.3215  145.1854 C   0  0  2  0  0  0  0  0  0  0  0  0
  156.4208   45.3241  148.7171 N   0  0  0  0  0  0  0  0  0  0  0  0
  161.6290   40.3617  144.3596 O   0  0  0  0  0  0  0  0  0  0  0  0
  161.3622   42.7338  144.7998 C   0  0  2  0  0  0  0  0  0  0  0  0
  156.6464   46.1515  146.5717 N   0  0  0  0  0  0  0  0  0  0  0  0
  161.6080   42.8454  143.3986 O   0  0  0  0  0  0  0  0  0  0  0  0
  156.2630   46.2438  145.2804 C   0  0  2  0  0  0  0  0  0  0  0  0
  162.6260   42.9524  145.6286 C   0  0  2  0  0  0  0  0  0  0  0  0
  162.5484   42.0621  146.7439 O   0  0  0  0  0  0  0  0  0  0  0  0
  155.0978   45.4704  144.8399 C   0  0  2  0  0  0  0  0  0  0  0  0
  162.8300   44.3834  146.1360 C   0  0  0  0  0  0  0  0  0  0  0  0
  161.6549   44.9456  146.7186 O   0  0  0  0  0  0  0  0  0  0  0  0
  154.4099   44.6319  145.8498 C   0  0  0  0  0  0  0  0  0  0  0  0
  153.4059   43.9515  145.5291 O   0  0  0  0  0  0  0  0  0  0  0  0
  154.9443   45.7392  143.5311 N   0  0  0  0  0  0  0  0  0  0  0  0
  155.9180   46.6064  143.1638 C   0  0  0  0  0  0  0  0  0  0  0  0
  156.7044   46.9072  144.2119 N   0  0  1  0  0  0  0  0  0  0  0  0
  158.3533   39.5340  150.5194 N   0  0  0  0  0  0  0  0  0  0  0  0
  162.8937   47.1435  147.1285 O   0  5  0  0  0  0  0  0  0  0  0  0
  159.2990   38.8632  149.8437 C   0  0  2  0  0  0  0  0  0  0  0  0
  159.5165   37.5857  150.1898 N   0  0  0  0  0  0  0  0  0  0  0  0
  160.3813   46.8070  147.8419 O   0  0  0  0  0  0  0  0  0  0  0  0
  160.0357   39.4072  148.8469 N   0  0  0  0  0  0  0  0  0  0  0  0
  159.8486   40.6909  148.4748 C   0  0  1  0  0  0  0  0  0  0  0  0
  158.8210   41.4833  149.1796 C   0  0  1  0  0  0  0  0  0  0  0  0
  158.0647   40.8118  150.2672 C   0  0  0  0  0  0  0  0  0  0  0  0
  157.1713   41.3939  150.9192 O   0  0  0  0  0  0  0  0  0  0  0  0
  158.8425   42.7072  148.6284 N   0  0  0  0  0  0  0  0  0  0  0  0
  159.7952   42.6922  147.6551 C   0  0  0  0  0  0  0  0  0  0  0  0
  160.3998   41.4912  147.5626 N   0  0  2  0  0  0  0  0  0  0  0  0
  1  3  1  1  0  0  0
  1  4  2  0  0  0  0
  1  6  1  0  0  0  0
  1 22  1  0  0  0  0
  2 28  1  0  0  0  0
  2 35  1  1  0  0  0
  2 38  2  0  0  0  0
  2 10  1  0  0  0  0
  5  6  1  0  0  0  0
  7  5  1  6  0  0  0
  7  8  1  0  0  0  0
  7  9  1  0  0  0  0
  9 10  1  1  0  0  0
  9 11  1  0  0  0  0
 11 12  1  6  0  0  0
 11 13  1  0  0  0  0
 13  8  1  6  0  0  0
 13 33  1  0  0  0  0
 14 46  1  0  0  0  0
 14 17  1  0  0  0  0
 14 25  1  1  0  0  0
 15 16  1  0  0  0  0
 15 29  1  0  0  0  0
 16 18  1  6  0  0  0
 16 21  1  0  0  0  0
 17 19  1  6  0  0  0
 17 20  1  0  0  0  0
 20 22  1  6  0  0  0
 20 24  1  0  0  0  0
 23 21  1  6  0  0  0
 23 26  1  0  0  0  0
 23 33  1  0  0  0  0
 24 25  1  1  0  0  0
 24 27  1  0  0  0  0
 26 29  1  6  0  0  0
 26 31  1  0  0  0  0
 27 28  1  0  0  0  0
 29 30  2  0  0  0  0
 31 32  1  0  0  0  0
 33 32  1  1  0  0  0
 34 36  1  0  0  0  0
 34 42  1  0  0  0  0
 36 37  1  1  0  0  0
 36 39  1  0  0  0  0
 40 39  1  1  0  0  0
 40 41  1  0  0  0  0
 40 46  1  0  0  0  0
 41 42  1  1  0  0  0
 41 44  1  0  0  0  0
 42 43  2  0  0  0  0
 44 45  1  0  0  0  0
 46 45  1  6  0  0  0
M  CHG  2   3  -1  35  -1
M  END
>  <CHROM.1>
137.05282841,119.82142727,159.26145350,44.04763146,145.93922900,-1.72625016
-0.39862420,2.42367350

>  <Name>
ligand

>  <RI>
0

>  <Rbt.Current_Directory>
/home/itssahil/PROJECTS/Mol_Feturizer/Test_systems_manuscript/rnas/4yb0

>  <Rbt.Executable>
rbdock ($Id: //depot/dev/client3/rdock/2013.1/src/exe/rbdock.cxx#4 $)

>  <Rbt.Library>
libRbt.so (2013.1, Build901 2013/11/27)

>  <Rbt.Parameter_File>
/export/apps/rDock/src/rDock_2013.1_src/data/scripts/dock_solv.prm

>  <Rbt.Receptor>
prm/pocket_docking_6.prm

>  <SCORE>
-20.7786

>  <SCORE.INTER>
-21.3666

>  <SCORE.INTER.CONST>
1

>  <SCORE.INTER.POLAR>
0

>  <SCORE.INTER.ROT>
2

>  <SCORE.INTER.SOLV>
20.5499

>  <SCORE.INTER.VDW>
-26.0277

>  <SCORE.INTER.norm>
-0.464492

>  <SCORE.INTRA>
0.588024

>  <SCORE.INTRA.DIHEDRAL>
-0.0389383

>  <SCORE.INTRA.DIHEDRAL.0>
2.42188

>  <SCORE.INTRA.POLAR>
0

>  <SCORE.INTRA.POLAR.0>
0

>  <SCORE.INTRA.REPUL>
0

>  <SCORE.INTRA.REPUL.0>
0

>  <SCORE.INTRA.SOLV>
0.709444

>  <SCORE.INTRA.SOLV.lig_0>
-127.307

>  <SCORE.INTRA.VDW>
0.252771

>  <SCORE.INTRA.VDW.0>
-2.19936

>  <SCORE.INTRA.norm>
0.0127831

>  <SCORE.RESTR>
0

>  <SCORE.RESTR.CAVITY>
0

>  <SCORE.RESTR.norm>
0

>  <SCORE.SYSTEM>
0

>  <SCORE.SYSTEM.CONST>
0

>  <SCORE.SYSTEM.DIHEDRAL>
0

>  <SCORE.SYSTEM.SOLV>
0

>  <SCORE.SYSTEM.norm>
0

>  <SCORE.heavy>
46

>  <SCORE.norm>
-0.451709

>  <RMSD>
5.740

$$$$
ligand
 OpenBabel02271912143D
libRbt.so/2013.1/901 2013/11/27
 46 52  0  0  0  0  0  0  0  0999 V2000
  160.0631   42.8017  142.4894 P   0  0  1  0  0  0  0  0  0  0  0  0
  161.8398   46.8929  146.0300 P   0  0  1  0  0  0  0  0  0  0  0  0
  159.0789   41.8230  143.0764 O   0  5  0  0  0  0  0  0  0  0  0  0
  160.3027   42.7137  140.9979 O   0  0  0  0  0  0  0  0  0  0  0  0
  159.6831   45.3766  142.0151 C   0  0  0  0  0  0  0  0  0  0  0  0
  159.6200   44.2850  142.9237 O   0  0  0  0  0  0  0  0  0  0  0  0
  159.5934   46.6904  142.7738 C   0  0  1  0  0  0  0  0  0  0  0  0
  158.2785   47.2027  142.6116 O   0  0  0  0  0  0  0  0  0  0  0  0
  159.8340   46.6024  144.2756 C   0  0  1  0  0  0  0  0  0  0  0  0
  161.1344   47.0848  144.5803 O   0  0  0  0  0  0  0  0  0  0  0  0
  158.8265   47.5722  144.8512 C   0  0  1  0  0  0  0  0  0  0  0  0
  159.4115   48.8725  144.9449 O   0  0  0  0  0  0  0  0  0  0  0  0
  157.7252   47.6626  143.8352 C   0  0  2  0  0  0  0  0  0  0  0  0
  161.9276   41.5167  146.7222 C   0  0  1  0  0  0  0  0  0  0  0  0
  155.2989   45.1978  147.7829 N   0  0  0  0  0  0  0  0  0  0  0  0
  156.3770   46.0043  147.7963 C   0  0  1  0  0  0  0  0  0  0  0  0
  161.1765   41.4452  145.4091 C   0  0  2  0  0  0  0  0  0  0  0  0
  156.9846   46.2691  148.9744 N   0  0  0  0  0  0  0  0  0  0  0  0
  161.7210   40.3536  144.6622 O   0  0  0  0  0  0  0  0  0  0  0  0
  161.4533   42.7656  144.7147 C   0  0  2  0  0  0  0  0  0  0  0  0
  156.8992   46.5719  146.6855 N   0  0  0  0  0  0  0  0  0  0  0  0
  161.4482   42.6227  143.2949 O   0  0  0  0  0  0  0  0  0  0  0  0
  156.3511   46.3531  145.4711 C   0  0  2  0  0  0  0  0  0  0  0  0
  162.8335   43.1335  145.2547 C   0  0  2  0  0  0  0  0  0  0  0  0
  162.9813   42.4591  146.5062 O   0  0  0  0  0  0  0  0  0  0  0  0
  155.1746   45.4828  145.3815 C   0  0  2  0  0  0  0  0  0  0  0  0
  163.0732   44.6330  145.4559 C   0  0  0  0  0  0  0  0  0  0  0  0
  161.9984   45.2884  146.1280 O   0  0  0  0  0  0  0  0  0  0  0  0
  154.6581   44.8964  146.6406 C   0  0  0  0  0  0  0  0  0  0  0  0
  153.6523   44.1466  146.6232 O   0  0  0  0  0  0  0  0  0  0  0  0
  154.8443   45.4344  144.0786 N   0  0  0  0  0  0  0  0  0  0  0  0
  155.7244   46.2036  143.3938 C   0  0  0  0  0  0  0  0  0  0  0  0
  156.6236   46.7525  144.2290 N   0  0  1  0  0  0  0  0  0  0  0  0
  157.3891   40.9665  149.3178 N   0  0  0  0  0  0  0  0  0  0  0  0
  163.2133   47.5273  145.9158 O   0  5  0  0  0  0  0  0  0  0  0  0
  157.9173   40.2153  148.3393 C   0  0  2  0  0  0  0  0  0  0  0  0
  157.2133   39.1491  147.9307 N   0  0  0  0  0  0  0  0  0  0  0  0
  160.8759   47.3190  147.1105 O   0  0  0  0  0  0  0  0  0  0  0  0
  159.1107   40.4759  147.7560 N   0  0  0  0  0  0  0  0  0  0  0  0
  159.8494   41.5364  148.1445 C   0  0  1  0  0  0  0  0  0  0  0  0
  159.3224   42.4037  149.2173 C   0  0  1  0  0  0  0  0  0  0  0  0
  158.0096   42.0403  149.8092 C   0  0  0  0  0  0  0  0  0  0  0  0
  157.4758   42.7129  150.7173 O   0  0  0  0  0  0  0  0  0  0  0  0
  160.2394   43.3646  149.4121 N   0  0  0  0  0  0  0  0  0  0  0  0
  161.2563   43.1324  148.5362 C   0  0  0  0  0  0  0  0  0  0  0  0
  161.0282   42.0403  147.7801 N   0  0  2  0  0  0  0  0  0  0  0  0
  1  3  1  1  0  0  0
  1  4  2  0  0  0  0
  1  6  1  0  0  0  0
  1 22  1  0  0  0  0
  2 28  1  0  0  0  0
  2 35  1  1  0  0  0
  2 38  2  0  0  0  0
  2 10  1  0  0  0  0
  5  6  1  0  0  0  0
  7  5  1  1  0  0  0
  7  8  1  0  0  0  0
  7  9  1  0  0  0  0
  9 10  1  6  0  0  0
  9 11  1  0  0  0  0
 11 12  1  6  0  0  0
 11 13  1  0  0  0  0
 13  8  1  6  0  0  0
 13 33  1  0  0  0  0
 14 46  1  0  0  0  0
 14 17  1  0  0  0  0
 14 25  1  6  0  0  0
 15 16  1  0  0  0  0
 15 29  1  0  0  0  0
 16 18  1  6  0  0  0
 16 21  1  0  0  0  0
 17 19  1  6  0  0  0
 17 20  1  0  0  0  0
 20 22  1  6  0  0  0
 20 24  1  0  0  0  0
 23 21  1  6  0  0  0
 23 26  1  0  0  0  0
 23 33  1  0  0  0  0
 24 25  1  1  0  0  0
 24 27  1  0  0  0  0
 26 29  1  6  0  0  0
 26 31  1  0  0  0  0
 27 28  1  0  0  0  0
 29 30  2  0  0  0  0
 31 32  1  0  0  0  0
 33 32  1  1  0  0  0
 34 36  1  0  0  0  0
 34 42  1  0  0  0  0
 36 37  1  1  0  0  0
 36 39  1  0  0  0  0
 40 39  1  1  0  0  0
 40 41  1  0  0  0  0
 40 46  1  0  0  0  0
 41 42  1  1  0  0  0
 41 44  1  0  0  0  0
 42 43  2  0  0  0  0
 44 45  1  0  0  0  0
 46 45  1  6  0  0  0
M  CHG  2   3  -1  35  -1
M  END
>  <CHROM.1>
141.15934893,56.31348218,159.28446014,44.31208247,145.73771901,-1.54885996
-0.42716853,2.44974737

>  <Name>
ligand

>  <RI>
0

>  <Rbt.Current_Directory>
/home/itssahil/PROJECTS/Mol_Feturizer/Test_systems_manuscript/rnas/4yb0

>  <Rbt.Executable>
rbdock ($Id: //depot/dev/client3/rdock/2013.1/src/exe/rbdock.cxx#4 $)

>  <Rbt.Library>
libRbt.so (2013.1, Build901 2013/11/27)

>  <Rbt.Parameter_File>
/export/apps/rDock/src/rDock_2013.1_src/data/scripts/dock_solv.prm

>  <Rbt.Receptor>
prm/pocket_docking_3.prm

>  <SCORE>
-13.4302

>  <SCORE.INTER>
-16.0427

>  <SCORE.INTER.CONST>
1

>  <SCORE.INTER.POLAR>
0

>  <SCORE.INTER.ROT>
2

>  <SCORE.INTER.SOLV>
26.5412

>  <SCORE.INTER.VDW>
-24.4755

>  <SCORE.INTER.norm>
-0.348754

>  <SCORE.INTRA>
0.602259

>  <SCORE.INTRA.DIHEDRAL>
-0.0371577

>  <SCORE.INTRA.DIHEDRAL.0>
2.42188

>  <SCORE.INTRA.POLAR>
0

>  <SCORE.INTRA.POLAR.0>
0

>  <SCORE.INTRA.REPUL>
0

>  <SCORE.INTRA.REPUL.0>
0

>  <SCORE.INTRA.SOLV>
0.488177

>  <SCORE.INTRA.SOLV.lig_0>
-127.307

>  <SCORE.INTRA.VDW>
0.376749

>  <SCORE.INTRA.VDW.0>
-2.19936

>  <SCORE.INTRA.norm>
0.0130926

>  <SCORE.RESTR>
2.01024

>  <SCORE.RESTR.CAVITY>
2.01024

>  <SCORE.RESTR.norm>
0.0437009

>  <SCORE.SYSTEM>
0

>  <SCORE.SYSTEM.CONST>
0

>  <SCORE.SYSTEM.DIHEDRAL>
0

>  <SCORE.SYSTEM.SOLV>
0

>  <SCORE.SYSTEM.norm>
0

>  <SCORE.heavy>
46

>  <SCORE.norm>
-0.291961

>  <RMSD>
5.750

$$$$
ligand
 OpenBabel02271912143D
libRbt.so/2013.1/901 2013/11/27
 46 52  0  0  0  0  0  0  0  0999 V2000
  157.8943   48.6519  149.2015 P   0  0  1  0  0  0  0  0  0  0  0  0
  159.9432   43.4427  148.1543 P   0  0  1  0  0  0  0  0  0  0  0  0
  157.8206   49.5683  148.0074 O   0  5  0  0  0  0  0  0  0  0  0  0
  157.2347   49.1378  150.4737 O   0  0  0  0  0  0  0  0  0  0  0  0
  156.4959   46.4464  149.6254 C   0  0  0  0  0  0  0  0  0  0  0  0
  157.3328   47.2095  148.7662 O   0  0  0  0  0  0  0  0  0  0  0  0
  156.4418   45.0034  149.1513 C   0  0  1  0  0  0  0  0  0  0  0  0
  155.2000   44.8041  148.4908 O   0  0  0  0  0  0  0  0  0  0  0  0
  157.5226   44.5944  148.1587 C   0  0  1  0  0  0  0  0  0  0  0  0
  158.5121   43.8209  148.8214 O   0  0  0  0  0  0  0  0  0  0  0  0
  156.7898   43.6913  147.1922 C   0  0  1  0  0  0  0  0  0  0  0  0
  156.8567   42.3403  147.6532 O   0  0  0  0  0  0  0  0  0  0  0  0
  155.3487   44.1051  147.2645 C   0  0  2  0  0  0  0  0  0  0  0  0
  162.1634   48.2617  147.0413 C   0  0  1  0  0  0  0  0  0  0  0  0
  152.0801   45.3190  143.3415 N   0  0  0  0  0  0  0  0  0  0  0  0
  152.0395   44.2992  144.2198 C   0  0  1  0  0  0  0  0  0  0  0  0
  160.8635   48.8541  147.5441 C   0  0  2  0  0  0  0  0  0  0  0  0
  151.0274   43.4064  144.1434 N   0  0  0  0  0  0  0  0  0  0  0  0
  161.1912   50.0046  148.3281 O   0  0  0  0  0  0  0  0  0  0  0  0
  160.2359   47.7746  148.4060 C   0  0  2  0  0  0  0  0  0  0  0  0
  152.9656   44.1088  145.1868 N   0  0  0  0  0  0  0  0  0  0  0  0
  159.4535   48.3339  149.4601 O   0  0  0  0  0  0  0  0  0  0  0  0
  154.0083   44.9552  145.3255 C   0  0  2  0  0  0  0  0  0  0  0  0
  161.4589   47.0240  148.9281 C   0  0  2  0  0  0  0  0  0  0  0  0
  162.5163   47.2561  147.9949 O   0  0  0  0  0  0  0  0  0  0  0  0
  154.1169   46.0883  144.4014 C   0  0  2  0  0  0  0  0  0  0  0  0
  161.2658   45.5152  149.1099 C   0  0  0  0  0  0  0  0  0  0  0  0
  160.6414   44.8899  147.9893 O   0  0  0  0  0  0  0  0  0  0  0  0
  153.0650   46.2332  143.3676 C   0  0  0  0  0  0  0  0  0  0  0  0
  153.1063   47.1858  142.5523 O   0  0  0  0  0  0  0  0  0  0  0  0
  155.2311   46.7533  144.7552 N   0  0  0  0  0  0  0  0  0  0  0  0
  155.7866   46.1098  145.8100 C   0  0  0  0  0  0  0  0  0  0  0  0
  155.0529   45.0357  146.1495 N   0  0  1  0  0  0  0  0  0  0  0  0
  161.5710   48.9022  141.8571 N   0  0  0  0  0  0  0  0  0  0  0  0
  160.6942   42.6390  149.1993 O   0  5  0  0  0  0  0  0  0  0  0  0
  161.7936   49.8134  142.8168 C   0  0  2  0  0  0  0  0  0  0  0  0
  161.8882   51.0972  142.4397 N   0  0  0  0  0  0  0  0  0  0  0  0
  159.7136   42.8907  146.7684 O   0  0  0  0  0  0  0  0  0  0  0  0
  161.9293   49.5031  144.1274 N   0  0  0  0  0  0  0  0  0  0  0  0
  161.8455   48.2220  144.5434 C   0  0  1  0  0  0  0  0  0  0  0  0
  161.6004   47.1712  143.5352 C   0  0  1  0  0  0  0  0  0  0  0  0
  161.4734   47.5977  142.1182 C   0  0  0  0  0  0  0  0  0  0  0  0
  161.2597   46.7864  141.1918 O   0  0  0  0  0  0  0  0  0  0  0  0
  161.5676   46.0067  144.2022 N   0  0  0  0  0  0  0  0  0  0  0  0
  161.7678   46.2926  145.5188 C   0  0  0  0  0  0  0  0  0  0  0  0
  161.9370   47.6136  145.7257 N   0  0  2  0  0  0  0  0  0  0  0  0
  1  3  1  6  0  0  0
  1  4  2  0  0  0  0
  1  6  1  0  0  0  0
  1 22  1  0  0  0  0
  2 28  1  0  0  0  0
  2 35  1  1  0  0  0
  2 38  2  0  0  0  0
  2 10  1  0  0  0  0
  5  6  1  0  0  0  0
  7  5  1  6  0  0  0
  7  8  1  0  0  0  0
  7  9  1  0  0  0  0
  9 10  1  1  0  0  0
  9 11  1  0  0  0  0
 11 12  1  1  0  0  0
 11 13  1  0  0  0  0
 13  8  1  1  0  0  0
 13 33  1  0  0  0  0
 14 46  1  0  0  0  0
 14 17  1  0  0  0  0
 14 25  1  1  0  0  0
 15 16  1  0  0  0  0
 15 29  1  0  0  0  0
 16 18  1  6  0  0  0
 16 21  1  0  0  0  0
 17 19  1  1  0  0  0
 17 20  1  0  0  0  0
 20 22  1  1  0  0  0
 20 24  1  0  0  0  0
 23 21  1  6  0  0  0
 23 26  1  0  0  0  0
 23 33  1  0  0  0  0
 24 25  1  6  0  0  0
 24 27  1  0  0  0  0
 26 29  1  6  0  0  0
 26 31  1  0  0  0  0
 27 28  1  0  0  0  0
 29 30  2  0  0  0  0
 31 32  1  0  0  0  0
 33 32  1  1  0  0  0
 34 36  1  0  0  0  0
 34 42  1  0  0  0  0
 36 37  1  6  0  0  0
 36 39  1  0  0  0  0
 40 39  1  6  0  0  0
 40 41  1  0  0  0  0
 40 46  1  0  0  0  0
 41 42  1  6  0  0  0
 41 44  1  0  0  0  0
 42 43  2  0  0  0  0
 44 45  1  0  0  0  0
 46 45  1  1  0  0  0
M  CHG  2   3  -1  35  -1
M  END
>  <CHROM.1>
-112.55708371,79.11421919,158.33376373,46.37631055,146.49869470,-0.09696459
0.38448026,1.94459249

>  <Name>
ligand

>  <RI>
0

>  <Rbt.Current_Directory>
/home/itssahil/PROJECTS/Mol_Feturizer/Test_systems_manuscript/rnas/4yb0

>  <Rbt.Executable>
rbdock ($Id: //depot/dev/client3/rdock/2013.1/src/exe/rbdock.cxx#4 $)

>  <Rbt.Library>
libRbt.so (2013.1, Build901 2013/11/27)

>  <Rbt.Parameter_File>
/export/apps/rDock/src/rDock_2013.1_src/data/scripts/dock_solv.prm

>  <Rbt.Receptor>
prm/pocket_docking_8.prm

>  <SCORE>
-25.6856

>  <SCORE.INTER>
-25.4919

>  <SCORE.INTER.CONST>
1

>  <SCORE.INTER.POLAR>
0

>  <SCORE.INTER.ROT>
2

>  <SCORE.INTER.SOLV>
12.4464

>  <SCORE.INTER.VDW>
-26.0767

>  <SCORE.INTER.norm>
-0.554171

>  <SCORE.INTRA>
-0.193666

>  <SCORE.INTRA.DIHEDRAL>
-0.0558748

>  <SCORE.INTRA.DIHEDRAL.0>
2.42188

>  <SCORE.INTRA.POLAR>
0

>  <SCORE.INTRA.POLAR.0>
0

>  <SCORE.INTRA.REPUL>
0

>  <SCORE.INTRA.REPUL.0>
0

>  <SCORE.INTRA.SOLV>
-0.023208

>  <SCORE.INTRA.SOLV.lig_0>
-127.307

>  <SCORE.INTRA.VDW>
-0.154125

>  <SCORE.INTRA.VDW.0>
-2.19936

>  <SCORE.INTRA.norm>
-0.00421013

>  <SCORE.RESTR>
0

>  <SCORE.RESTR.CAVITY>
0

>  <SCORE.RESTR.norm>
0

>  <SCORE.SYSTEM>
0

>  <SCORE.SYSTEM.CONST>
0

>  <SCORE.SYSTEM.DIHEDRAL>
0

>  <SCORE.SYSTEM.SOLV>
0

>  <SCORE.SYSTEM.norm>
0

>  <SCORE.heavy>
46

>  <SCORE.norm>
-0.558382

>  <RMSD>
5.761

$$$$
ligand
 OpenBabel02271912143D
libRbt.so/2013.1/901 2013/11/27
 46 52  0  0  0  0  0  0  0  0999 V2000
  160.5262   43.4272  142.5560 P   0  0  1  0  0  0  0  0  0  0  0  0
  161.2088   46.4486  147.3347 P   0  0  1  0  0  0  0  0  0  0  0  0
  159.4185   42.4060  142.5911 O   0  5  0  0  0  0  0  0  0  0  0  0
  161.1807   43.6751  141.2145 O   0  0  0  0  0  0  0  0  0  0  0  0
  160.2890   46.0610  142.6364 C   0  0  0  0  0  0  0  0  0  0  0  0
  159.9732   44.7937  143.1980 O   0  0  0  0  0  0  0  0  0  0  0  0
  159.9830   47.1636  143.6366 C   0  0  1  0  0  0  0  0  0  0  0  0
  158.7671   47.7859  143.2464 O   0  0  0  0  0  0  0  0  0  0  0  0
  159.7864   46.7108  145.0778 C   0  0  1  0  0  0  0  0  0  0  0  0
  160.9447   47.0209  145.8385 O   0  0  0  0  0  0  0  0  0  0  0  0
  158.6537   47.5836  145.5699 C   0  0  1  0  0  0  0  0  0  0  0  0
  159.1839   48.7840  146.1355 O   0  0  0  0  0  0  0  0  0  0  0  0
  157.8870   47.9823  144.3425 C   0  0  2  0  0  0  0  0  0  0  0  0
  161.1122   41.0660  146.6943 C   0  0  1  0  0  0  0  0  0  0  0  0
  154.6366   44.5908  146.6834 N   0  0  0  0  0  0  0  0  0  0  0  0
  155.6886   45.2681  147.1812 C   0  0  1  0  0  0  0  0  0  0  0  0
  160.7663   41.3540  145.2483 C   0  0  2  0  0  0  0  0  0  0  0  0
  156.0215   45.1016  148.4807 N   0  0  0  0  0  0  0  0  0  0  0  0
  161.5042   40.4339  144.4392 O   0  0  0  0  0  0  0  0  0  0  0  0
  161.2253   42.7789  145.0007 C   0  0  2  0  0  0  0  0  0  0  0  0
  156.4461   46.1154  146.4483 N   0  0  0  0  0  0  0  0  0  0  0  0
  161.6250   42.9730  143.6447 O   0  0  0  0  0  0  0  0  0  0  0  0
  156.1794   46.3322  145.1426 C   0  0  2  0  0  0  0  0  0  0  0  0
  162.3935   42.9176  145.9743 C   0  0  2  0  0  0  0  0  0  0  0  0
  162.1809   41.9607  147.0145 O   0  0  0  0  0  0  0  0  0  0  0  0
  155.0481   45.6260  144.5333 C   0  0  2  0  0  0  0  0  0  0  0  0
  162.5614   44.3090  146.5927 C   0  0  0  0  0  0  0  0  0  0  0  0
  161.3378   44.8588  147.0793 O   0  0  0  0  0  0  0  0  0  0  0  0
  154.2632   44.7138  145.3981 C   0  0  0  0  0  0  0  0  0  0  0  0
  153.2830   44.0859  144.9302 O   0  0  0  0  0  0  0  0  0  0  0  0
  155.0141   46.0155  143.2465 N   0  0  0  0  0  0  0  0  0  0  0  0
  156.0272   46.8923  143.0466 C   0  0  0  0  0  0  0  0  0  0  0  0
  156.7217   47.0806  144.1822 N   0  0  1  0  0  0  0  0  0  0  0  0
  159.3876   43.3563  151.1009 N   0  0  0  0  0  0  0  0  0  0  0  0
  162.5560   46.9993  147.7632 O   0  5  0  0  0  0  0  0  0  0  0  0
  160.6308   43.2777  150.6017 C   0  0  2  0  0  0  0  0  0  0  0  0
  161.6154   43.8609  151.3014 N   0  0  0  0  0  0  0  0  0  0  0  0
  159.9758   46.6729  148.1760 O   0  0  0  0  0  0  0  0  0  0  0  0
  160.9336   42.6507  149.4409 N   0  0  0  0  0  0  0  0  0  0  0  0
  159.9687   42.0575  148.7072 C   0  0  1  0  0  0  0  0  0  0  0  0
  158.5788   42.1079  149.2034 C   0  0  1  0  0  0  0  0  0  0  0  0
  158.3330   42.8242  150.4810 C   0  0  0  0  0  0  0  0  0  0  0  0
  157.1942   42.9178  150.9874 O   0  0  0  0  0  0  0  0  0  0  0  0
  157.8298   41.4583  148.2983 N   0  0  0  0  0  0  0  0  0  0  0  0
  158.6702   41.0275  147.3168 C   0  0  0  0  0  0  0  0  0  0  0  0
  159.9473   41.3860  147.5561 N   0  0  2  0  0  0  0  0  0  0  0  0
  1  3  1  6  0  0  0
  1  4  2  0  0  0  0
  1  6  1  0  0  0  0
  1 22  1  0  0  0  0
  2 28  1  0  0  0  0
  2 35  1  1  0  0  0
  2 38  2  0  0  0  0
  2 10  1  0  0  0  0
  5  6  1  0  0  0  0
  7  5  1  6  0  0  0
  7  8  1  0  0  0  0
  7  9  1  0  0  0  0
  9 10  1  1  0  0  0
  9 11  1  0  0  0  0
 11 12  1  6  0  0  0
 11 13  1  0  0  0  0
 13  8  1  6  0  0  0
 13 33  1  0  0  0  0
 14 46  1  0  0  0  0
 14 17  1  0  0  0  0
 14 25  1  1  0  0  0
 15 16  1  0  0  0  0
 15 29  1  0  0  0  0
 16 18  1  6  0  0  0
 16 21  1  0  0  0  0
 17 19  1  6  0  0  0
 17 20  1  0  0  0  0
 20 22  1  6  0  0  0
 20 24  1  0  0  0  0
 23 21  1  6  0  0  0
 23 26  1  0  0  0  0
 23 33  1  0  0  0  0
 24 25  1  1  0  0  0
 24 27  1  0  0  0  0
 26 29  1  6  0  0  0
 26 31  1  0  0  0  0
 27 28  1  0  0  0  0
 29 30  2  0  0  0  0
 31 32  1  0  0  0  0
 33 32  1  1  0  0  0
 34 36  1  0  0  0  0
 34 42  1  0  0  0  0
 36 37  1  6  0  0  0
 36 39  1  0  0  0  0
 40 39  1  6  0  0  0
 40 41  1  0  0  0  0
 40 46  1  0  0  0  0
 41 42  1  6  0  0  0
 41 44  1  0  0  0  0
 42 43  2  0  0  0  0
 44 45  1  0  0  0  0
 46 45  1  1  0  0  0
M  CHG  2   3  -1  35  -1
M  END
>  <CHROM.1>
135.03943825,-134.83017586,159.23815914,44.49789374,146.09113588,-2.12540900
-0.43452866,1.94078267

>  <Name>
ligand

>  <RI>
0

>  <Rbt.Current_Directory>
/home/itssahil/PROJECTS/Mol_Feturizer/Test_systems_manuscript/rnas/4yb0

>  <Rbt.Executable>
rbdock ($Id: //depot/dev/client3/rdock/2013.1/src/exe/rbdock.cxx#4 $)

>  <Rbt.Library>
libRbt.so (2013.1, Build901 2013/11/27)

>  <Rbt.Parameter_File>
/export/apps/rDock/src/rDock_2013.1_src/data/scripts/dock_solv.prm

>  <Rbt.Receptor>
prm/pocket_docking_5.prm

>  <SCORE>
-19.7762

>  <SCORE.INTER>
-20.3415

>  <SCORE.INTER.CONST>
1

>  <SCORE.INTER.POLAR>
0

>  <SCORE.INTER.ROT>
2

>  <SCORE.INTER.SOLV>
19.9383

>  <SCORE.INTER.VDW>
-25.1404

>  <SCORE.INTER.norm>
-0.442206

>  <SCORE.INTRA>
0.549802

>  <SCORE.INTRA.DIHEDRAL>
-0.0582888

>  <SCORE.INTRA.DIHEDRAL.0>
2.42188

>  <SCORE.INTRA.POLAR>
0

>  <SCORE.INTRA.POLAR.0>
0

>  <SCORE.INTRA.REPUL>
0

>  <SCORE.INTRA.REPUL.0>
0

>  <SCORE.INTRA.SOLV>
1.52859

>  <SCORE.INTRA.SOLV.lig_0>
-127.307

>  <SCORE.INTRA.VDW>
-0.185348

>  <SCORE.INTRA.VDW.0>
-2.19936

>  <SCORE.INTRA.norm>
0.0119522

>  <SCORE.RESTR>
0.0154466

>  <SCORE.RESTR.CAVITY>
0.0154466

>  <SCORE.RESTR.norm>
0.000335795

>  <SCORE.SYSTEM>
0

>  <SCORE.SYSTEM.CONST>
0

>  <SCORE.SYSTEM.DIHEDRAL>
0

>  <SCORE.SYSTEM.SOLV>
0

>  <SCORE.SYSTEM.norm>
0

>  <SCORE.heavy>
46

>  <SCORE.norm>
-0.429918

>  <RMSD>
5.762

$$$$
ligand
 OpenBabel02271912143D
libRbt.so/2013.1/901 2013/11/27
 46 52  0  0  0  0  0  0  0  0999 V2000
  160.5181   43.4436  142.5837 P   0  0  1  0  0  0  0  0  0  0  0  0
  161.1954   46.4662  147.3624 P   0  0  1  0  0  0  0  0  0  0  0  0
  159.4125   42.4203  142.6189 O   0  5  0  0  0  0  0  0  0  0  0  0
  161.1721   43.6928  141.2421 O   0  0  0  0  0  0  0  0  0  0  0  0
  160.2760   46.0769  142.6642 C   0  0  0  0  0  0  0  0  0  0  0  0
  159.9627   44.8090  143.2258 O   0  0  0  0  0  0  0  0  0  0  0  0
  159.9680   47.1790  143.6644 C   0  0  1  0  0  0  0  0  0  0  0  0
  158.7509   47.7990  143.2743 O   0  0  0  0  0  0  0  0  0  0  0  0
  159.7723   46.7258  145.1056 C   0  0  1  0  0  0  0  0  0  0  0  0
  160.9301   47.0381  145.8662 O   0  0  0  0  0  0  0  0  0  0  0  0
  158.6381   47.5964  145.5979 C   0  0  1  0  0  0  0  0  0  0  0  0
  159.1660   48.7979  146.1633 O   0  0  0  0  0  0  0  0  0  0  0  0
  157.8704   47.9937  144.3705 C   0  0  2  0  0  0  0  0  0  0  0  0
  161.1090   41.0835  146.7220 C   0  0  1  0  0  0  0  0  0  0  0  0
  154.6071   44.6200  146.7190 N   0  0  0  0  0  0  0  0  0  0  0  0
  155.6552   45.3023  147.2178 C   0  0  1  0  0  0  0  0  0  0  0  0
  160.7624   41.3709  145.2760 C   0  0  2  0  0  0  0  0  0  0  0  0
  155.9797   45.1474  148.5209 N   0  0  0  0  0  0  0  0  0  0  0  0
  161.5020   40.4522  144.4668 O   0  0  0  0  0  0  0  0  0  0  0  0
  161.2187   42.7966  145.0284 C   0  0  2  0  0  0  0  0  0  0  0  0
  156.4169   46.1439  146.4828 N   0  0  0  0  0  0  0  0  0  0  0  0
  161.6180   42.9915  143.6724 O   0  0  0  0  0  0  0  0  0  0  0  0
  156.1587   46.3493  145.1735 C   0  0  2  0  0  0  0  0  0  0  0  0
  162.3867   42.9375  146.0019 C   0  0  2  0  0  0  0  0  0  0  0  0
  162.1760   41.9802  147.0421 O   0  0  0  0  0  0  0  0  0  0  0  0
  155.0320   45.6370  144.5629 C   0  0  2  0  0  0  0  0  0  0  0  0
  162.5521   44.3293  146.6202 C   0  0  0  0  0  0  0  0  0  0  0  0
  161.3274   44.8767  147.1070 O   0  0  0  0  0  0  0  0  0  0  0  0
  154.2420   44.7317  145.4303 C   0  0  0  0  0  0  0  0  0  0  0  0
  153.2654   44.0991  144.9613 O   0  0  0  0  0  0  0  0  0  0  0  0
  155.0062   46.0153  143.2725 N   0  0  0  0  0  0  0  0  0  0  0  0
  156.0200   46.8911  143.0717 C   0  0  0  0  0  0  0  0  0  0  0  0
  156.7069   47.0897  144.2103 N   0  0  1  0  0  0  0  0  0  0  0  0
  159.3754   43.4018  151.1104 N   0  0  0  0  0  0  0  0  0  0  0  0
  162.5416   47.0195  147.7908 O   0  5  0  0  0  0  0  0  0  0  0  0
  160.6178   43.3297  150.6083 C   0  0  2  0  0  0  0  0  0  0  0  0
  161.5989   43.9290  151.2994 N   0  0  0  0  0  0  0  0  0  0  0  0
  159.9621   46.6882  148.2038 O   0  0  0  0  0  0  0  0  0  0  0  0
  160.9233   42.6940  149.4530 N   0  0  0  0  0  0  0  0  0  0  0  0
  159.9619   42.0844  148.7281 C   0  0  1  0  0  0  0  0  0  0  0  0
  158.5730   42.1269  149.2278 C   0  0  1  0  0  0  0  0  0  0  0  0
  158.3241   42.8537  150.4988 C   0  0  0  0  0  0  0  0  0  0  0  0
  157.1859   42.9418  151.0075 O   0  0  0  0  0  0  0  0  0  0  0  0
  157.8276   41.4613  148.3314 N   0  0  0  0  0  0  0  0  0  0  0  0
  158.6693   41.0285  147.3518 C   0  0  0  0  0  0  0  0  0  0  0  0
  159.9435   41.4013  147.5839 N   0  0  2  0  0  0  0  0  0  0  0  0
  1  3  1  6  0  0  0
  1  4  2  0  0  0  0
  1  6  1  0  0  0  0
  1 22  1  0  0  0  0
  2 28  1  0  0  0  0
  2 35  1  1  0  0  0
  2 38  2  0  0  0  0
  2 10  1  0  0  0  0
  5  6  1  0  0  0  0
  7  5  1  6  0  0  0
  7  8  1  0  0  0  0
  7  9  1  0  0  0  0
  9 10  1  1  0  0  0
  9 11  1  0  0  0  0
 11 12  1  6  0  0  0
 11 13  1  0  0  0  0
 13  8  1  6  0  0  0
 13 33  1  0  0  0  0
 14 46  1  0  0  0  0
 14 17  1  0  0  0  0
 14 25  1  1  0  0  0
 15 16  1  0  0  0  0
 15 29  1  0  0  0  0
 16 18  1  6  0  0  0
 16 21  1  0  0  0  0
 17 19  1  6  0  0  0
 17 20  1  0  0  0  0
 20 22  1  6  0  0  0
 20 24  1  0  0  0  0
 23 21  1  6  0  0  0
 23 26  1  0  0  0  0
 23 33  1  0  0  0  0
 24 25  1  1  0  0  0
 24 27  1  0  0  0  0
 26 29  1  6  0  0  0
 26 31  1  0  0  0  0
 27 28  1  0  0  0  0
 29 30  2  0  0  0  0
 31 32  1  0  0  0  0
 33 32  1  1  0  0  0
 34 36  1  0  0  0  0
 34 42  1  0  0  0  0
 36 37  1  6  0  0  0
 36 39  1  0  0  0  0
 40 39  1  6  0  0  0
 40 41  1  0  0  0  0
 40 46  1  0  0  0  0
 41 42  1  6  0  0  0
 41 44  1  0  0  0  0
 42 43  2  0  0  0  0
 44 45  1  0  0  0  0
 46 45  1  1  0  0  0
M  CHG  2   3  -1  35  -1
M  END
>  <CHROM.1>
135.66831428,-134.09779208,159.22571203,44.51786626,146.11777175,-2.13756199
-0.43518723,1.93729174

>  <Name>
ligand

>  <RI>
0

>  <Rbt.Current_Directory>
/home/itssahil/PROJECTS/Mol_Feturizer/Test_systems_manuscript/rnas/4yb0

>  <Rbt.Executable>
rbdock ($Id: //depot/dev/client3/rdock/2013.1/src/exe/rbdock.cxx#4 $)

>  <Rbt.Library>
libRbt.so (2013.1, Build901 2013/11/27)

>  <Rbt.Parameter_File>
/export/apps/rDock/src/rDock_2013.1_src/data/scripts/dock_solv.prm

>  <Rbt.Receptor>
prm/pocket_docking_5.prm

>  <SCORE>
-19.7927

>  <SCORE.INTER>
-20.3146

>  <SCORE.INTER.CONST>
1

>  <SCORE.INTER.POLAR>
0

>  <SCORE.INTER.ROT>
2

>  <SCORE.INTER.SOLV>
20.1124

>  <SCORE.INTER.VDW>
-25.1805

>  <SCORE.INTER.norm>
-0.441621

>  <SCORE.INTRA>
0.521854

>  <SCORE.INTRA.DIHEDRAL>
-0.0579649

>  <SCORE.INTRA.DIHEDRAL.0>
2.42188

>  <SCORE.INTRA.POLAR>
0

>  <SCORE.INTRA.POLAR.0>
0

>  <SCORE.INTRA.REPUL>
0

>  <SCORE.INTRA.REPUL.0>
0

>  <SCORE.INTRA.SOLV>
1.54643

>  <SCORE.INTRA.SOLV.lig_0>
-127.307

>  <SCORE.INTRA.VDW>
-0.222376

>  <SCORE.INTRA.VDW.0>
-2.19936

>  <SCORE.INTRA.norm>
0.0113447

>  <SCORE.RESTR>
0

>  <SCORE.RESTR.CAVITY>
0

>  <SCORE.RESTR.norm>
0

>  <SCORE.SYSTEM>
0

>  <SCORE.SYSTEM.CONST>
0

>  <SCORE.SYSTEM.DIHEDRAL>
0

>  <SCORE.SYSTEM.SOLV>
0

>  <SCORE.SYSTEM.norm>
0

>  <SCORE.heavy>
46

>  <SCORE.norm>
-0.430276

>  <RMSD>
5.767

$$$$
ligand
 OpenBabel02271912143D
libRbt.so/2013.1/901 2013/11/27
 46 52  0  0  0  0  0  0  0  0999 V2000
  160.4986   43.3506  142.4501 P   0  0  1  0  0  0  0  0  0  0  0  0
  161.3593   46.3855  147.1914 P   0  0  1  0  0  0  0  0  0  0  0  0
  159.3815   42.3417  142.5238 O   0  5  0  0  0  0  0  0  0  0  0  0
  161.1146   43.5853  141.0881 O   0  0  0  0  0  0  0  0  0  0  0  0
  160.2926   45.9871  142.5251 C   0  0  0  0  0  0  0  0  0  0  0  0
  159.9804   44.7259  143.1021 O   0  0  0  0  0  0  0  0  0  0  0  0
  160.0293   47.0975  143.5289 C   0  0  1  0  0  0  0  0  0  0  0  0
  158.8089   47.7314  143.1729 O   0  0  0  0  0  0  0  0  0  0  0  0
  159.8717   46.6533  144.9775 C   0  0  1  0  0  0  0  0  0  0  0  0
  161.0560   46.9541  145.7011 O   0  0  0  0  0  0  0  0  0  0  0  0
  158.7641   47.5407  145.4997 C   0  0  1  0  0  0  0  0  0  0  0  0
  159.3243   48.7377  146.0431 O   0  0  0  0  0  0  0  0  0  0  0  0
  157.9647   47.9424  144.2943 C   0  0  2  0  0  0  0  0  0  0  0  0
  161.1847   41.0015  146.5799 C   0  0  1  0  0  0  0  0  0  0  0  0
  154.7516   44.5959  146.7487 N   0  0  0  0  0  0  0  0  0  0  0  0
  155.8256   45.2636  147.2109 C   0  0  1  0  0  0  0  0  0  0  0  0
  160.7981   41.2869  145.1438 C   0  0  2  0  0  0  0  0  0  0  0  0
  156.1967   45.0987  148.5002 N   0  0  0  0  0  0  0  0  0  0  0  0
  161.5010   40.3551  144.3170 O   0  0  0  0  0  0  0  0  0  0  0  0
  161.2648   42.7055  144.8755 C   0  0  2  0  0  0  0  0  0  0  0  0
  156.5693   46.0997  146.4515 N   0  0  0  0  0  0  0  0  0  0  0  0
  161.6251   42.8891  143.5071 O   0  0  0  0  0  0  0  0  0  0  0  0
  156.2648   46.3142  145.1537 C   0  0  2  0  0  0  0  0  0  0  0  0
  162.4636   42.8357  145.8125 C   0  0  2  0  0  0  0  0  0  0  0  0
  162.2724   41.8858  146.8632 O   0  0  0  0  0  0  0  0  0  0  0  0
  155.1077   45.6180  144.5825 C   0  0  2  0  0  0  0  0  0  0  0  0
  162.6654   44.2279  146.4187 C   0  0  0  0  0  0  0  0  0  0  0  0
  161.4631   44.7932  146.9398 O   0  0  0  0  0  0  0  0  0  0  0  0
  154.3401   44.7179  145.4750 C   0  0  0  0  0  0  0  0  0  0  0  0
  153.3392   44.0989  145.0401 O   0  0  0  0  0  0  0  0  0  0  0  0
  155.0383   46.0027  143.2957 N   0  0  0  0  0  0  0  0  0  0  0  0
  156.0542   46.8676  143.0609 C   0  0  0  0  0  0  0  0  0  0  0  0
  156.7853   47.0528  144.1738 N   0  0  1  0  0  0  0  0  0  0  0  0
  159.6160   43.3559  151.0109 N   0  0  0  0  0  0  0  0  0  0  0  0
  162.7248   46.9233  147.5760 O   0  5  0  0  0  0  0  0  0  0  0  0
  160.8417   43.2648  150.4723 C   0  0  2  0  0  0  0  0  0  0  0  0
  161.8514   43.8519  151.1320 N   0  0  0  0  0  0  0  0  0  0  0  0
  160.1550   46.6271  148.0686 O   0  0  0  0  0  0  0  0  0  0  0  0
  161.1035   42.6217  149.3103 N   0  0  0  0  0  0  0  0  0  0  0  0
  160.1124   42.0240  148.6163 C   0  0  1  0  0  0  0  0  0  0  0  0
  158.7397   42.0875  149.1571 C   0  0  1  0  0  0  0  0  0  0  0  0
  158.5392   42.8212  150.4327 C   0  0  0  0  0  0  0  0  0  0  0  0
  157.4181   42.9268  150.9749 O   0  0  0  0  0  0  0  0  0  0  0  0
  157.9585   41.4303  148.2853 N   0  0  0  0  0  0  0  0  0  0  0  0
  158.7644   40.9830  147.2824 C   0  0  0  0  0  0  0  0  0  0  0  0
  160.0502   41.3381  147.4753 N   0  0  2  0  0  0  0  0  0  0  0  0
  1  3  1  6  0  0  0
  1  4  2  0  0  0  0
  1  6  1  0  0  0  0
  1 22  1  0  0  0  0
  2 28  1  0  0  0  0
  2 35  1  1  0  0  0
  2 38  2  0  0  0  0
  2 10  1  0  0  0  0
  5  6  1  0  0  0  0
  7  5  1  6  0  0  0
  7  8  1  0  0  0  0
  7  9  1  0  0  0  0
  9 10  1  1  0  0  0
  9 11  1  0  0  0  0
 11 12  1  6  0  0  0
 11 13  1  0  0  0  0
 13  8  1  6  0  0  0
 13 33  1  0  0  0  0
 14 46  1  0  0  0  0
 14 17  1  0  0  0  0
 14 25  1  1  0  0  0
 15 16  1  0  0  0  0
 15 29  1  0  0  0  0
 16 18  1  6  0  0  0
 16 21  1  0  0  0  0
 17 19  1  6  0  0  0
 17 20  1  0  0  0  0
 20 22  1  6  0  0  0
 20 24  1  0  0  0  0
 23 21  1  6  0  0  0
 23 26  1  0  0  0  0
 23 33  1  0  0  0  0
 24 25  1  1  0  0  0
 24 27  1  0  0  0  0
 26 29  1  6  0  0  0
 26 31  1  0  0  0  0
 27 28  1  0  0  0  0
 29 30  2  0  0  0  0
 31 32  1  0  0  0  0
 33 32  1  1  0  0  0
 34 36  1  0  0  0  0
 34 42  1  0  0  0  0
 36 37  1  6  0  0  0
 36 39  1  0  0  0  0
 40 39  1  6  0  0  0
 40 41  1  0  0  0  0
 40 46  1  0  0  0  0
 41 42  1  6  0  0  0
 41 44  1  0  0  0  0
 42 43  2  0  0  0  0
 44 45  1  0  0  0  0
 46 45  1  1  0  0  0
M  CHG  2   3  -1  35  -1
M  END
>  <CHROM.1>
135.00447200,-134.23058222,159.33026852,44.45374835,146.01594869,-2.15680401
-0.45604170,1.92264198

>  <Name>
ligand

>  <RI>
0

>  <Rbt.Current_Directory>
/home/itssahil/PROJECTS/Mol_Feturizer/Test_systems_manuscript/rnas/4yb0

>  <Rbt.Executable>
rbdock ($Id: //depot/dev/client3/rdock/2013.1/src/exe/rbdock.cxx#4 $)

>  <Rbt.Library>
libRbt.so (2013.1, Build901 2013/11/27)

>  <Rbt.Parameter_File>
/export/apps/rDock/src/rDock_2013.1_src/data/scripts/dock_solv.prm

>  <Rbt.Receptor>
prm/pocket_docking_8.prm

>  <SCORE>
-20.2216

>  <SCORE.INTER>
-20.7851

>  <SCORE.INTER.CONST>
1

>  <SCORE.INTER.POLAR>
0

>  <SCORE.INTER.ROT>
2

>  <SCORE.INTER.SOLV>
19.453

>  <SCORE.INTER.VDW>
-25.2744

>  <SCORE.INTER.norm>
-0.451851

>  <SCORE.INTRA>
0.563522

>  <SCORE.INTRA.DIHEDRAL>
-0.0575588

>  <SCORE.INTRA.DIHEDRAL.0>
2.42188

>  <SCORE.INTRA.POLAR>
0

>  <SCORE.INTRA.POLAR.0>
0

>  <SCORE.INTRA.REPUL>
0

>  <SCORE.INTRA.REPUL.0>
0

>  <SCORE.INTRA.SOLV>
1.6152

>  <SCORE.INTRA.SOLV.lig_0>
-127.307

>  <SCORE.INTRA.VDW>
-0.215298

>  <SCORE.INTRA.VDW.0>
-2.19936

>  <SCORE.INTRA.norm>
0.0122505

>  <SCORE.RESTR>
0

>  <SCORE.RESTR.CAVITY>
0

>  <SCORE.RESTR.norm>
0

>  <SCORE.SYSTEM>
0

>  <SCORE.SYSTEM.CONST>
0

>  <SCORE.SYSTEM.DIHEDRAL>
0

>  <SCORE.SYSTEM.SOLV>
0

>  <SCORE.SYSTEM.norm>
0

>  <SCORE.heavy>
46

>  <SCORE.norm>
-0.4396

>  <RMSD>
5.773

$$$$
ligand
 OpenBabel02271912143D
libRbt.so/2013.1/901 2013/11/27
 46 52  0  0  0  0  0  0  0  0999 V2000
  160.5013   43.3352  142.4426 P   0  0  1  0  0  0  0  0  0  0  0  0
  161.3886   46.3763  147.1749 P   0  0  1  0  0  0  0  0  0  0  0  0
  159.3819   42.3294  142.5225 O   0  5  0  0  0  0  0  0  0  0  0  0
  161.1125   43.5658  141.0777 O   0  0  0  0  0  0  0  0  0  0  0  0
  160.3025   45.9724  142.5137 C   0  0  0  0  0  0  0  0  0  0  0  0
  159.9892   44.7130  143.0941 O   0  0  0  0  0  0  0  0  0  0  0  0
  160.0460   47.0852  143.5164 C   0  0  1  0  0  0  0  0  0  0  0  0
  158.8258   47.7216  143.1641 O   0  0  0  0  0  0  0  0  0  0  0  0
  159.8930   46.6440  144.9665 C   0  0  1  0  0  0  0  0  0  0  0  0
  161.0809   46.9430  145.6849 O   0  0  0  0  0  0  0  0  0  0  0  0
  158.7898   47.5352  145.4914 C   0  0  1  0  0  0  0  0  0  0  0  0
  159.3552   48.7318  146.0304 O   0  0  0  0  0  0  0  0  0  0  0  0
  157.9867   47.9368  144.2885 C   0  0  2  0  0  0  0  0  0  0  0  0
  161.1978   40.9918  146.5739 C   0  0  1  0  0  0  0  0  0  0  0  0
  154.7635   44.6174  146.7663 N   0  0  0  0  0  0  0  0  0  0  0  0
  155.8396   45.2850  147.2238 C   0  0  1  0  0  0  0  0  0  0  0  0
  160.8062   41.2756  145.1388 C   0  0  2  0  0  0  0  0  0  0  0  0
  156.2103   45.1278  148.5142 N   0  0  0  0  0  0  0  0  0  0  0  0
  161.5033   40.3405  144.3109 O   0  0  0  0  0  0  0  0  0  0  0  0
  161.2755   42.6924  144.8661 C   0  0  2  0  0  0  0  0  0  0  0  0
  156.5858   46.1134  146.4585 N   0  0  0  0  0  0  0  0  0  0  0  0
  161.6309   42.8727  143.4959 O   0  0  0  0  0  0  0  0  0  0  0  0
  156.2818   46.3199  145.1593 C   0  0  2  0  0  0  0  0  0  0  0  0
  162.4783   42.8212  145.7981 C   0  0  2  0  0  0  0  0  0  0  0  0
  162.2888   41.8737  146.8513 O   0  0  0  0  0  0  0  0  0  0  0  0
  155.1225   45.6234  144.5931 C   0  0  2  0  0  0  0  0  0  0  0  0
  162.6861   44.2140  146.4010 C   0  0  0  0  0  0  0  0  0  0  0  0
  161.4874   44.7834  146.9258 O   0  0  0  0  0  0  0  0  0  0  0  0
  154.3522   44.7318  145.4918 C   0  0  0  0  0  0  0  0  0  0  0  0
  153.3493   44.1130  145.0614 O   0  0  0  0  0  0  0  0  0  0  0  0
  155.0541   45.9994  143.3036 N   0  0  0  0  0  0  0  0  0  0  0  0
  156.0727   46.8594  143.0627 C   0  0  0  0  0  0  0  0  0  0  0  0
  156.8045   47.0501  144.1743 N   0  0  1  0  0  0  0  0  0  0  0  0
  159.6685   43.2548  151.0658 N   0  0  0  0  0  0  0  0  0  0  0  0
  162.7571   46.9112  147.5532 O   0  5  0  0  0  0  0  0  0  0  0  0
  160.8944   43.1457  150.5310 C   0  0  2  0  0  0  0  0  0  0  0  0
  161.9161   43.6842  151.2133 N   0  0  0  0  0  0  0  0  0  0  0  0
  160.1885   46.6227  148.0565 O   0  0  0  0  0  0  0  0  0  0  0  0
  161.1452   42.5308  149.3515 N   0  0  0  0  0  0  0  0  0  0  0  0
  160.1420   41.9822  148.6347 C   0  0  1  0  0  0  0  0  0  0  0  0
  158.7685   42.0678  149.1700 C   0  0  1  0  0  0  0  0  0  0  0  0
  158.5807   42.7681  150.4661 C   0  0  0  0  0  0  0  0  0  0  0  0
  157.4597   42.8887  151.0054 O   0  0  0  0  0  0  0  0  0  0  0  0
  157.9745   41.4591  148.2747 N   0  0  0  0  0  0  0  0  0  0  0  0
  158.7736   41.0198  147.2630 C   0  0  0  0  0  0  0  0  0  0  0  0
  160.0676   41.3329  147.4731 N   0  0  2  0  0  0  0  0  0  0  0  0
  1  3  1  6  0  0  0
  1  4  2  0  0  0  0
  1  6  1  0  0  0  0
  1 22  1  0  0  0  0
  2 28  1  0  0  0  0
  2 35  1  1  0  0  0
  2 38  2  0  0  0  0
  2 10  1  0  0  0  0
  5  6  1  0  0  0  0
  7  5  1  6  0  0  0
  7  8  1  0  0  0  0
  7  9  1  0  0  0  0
  9 10  1  1  0  0  0
  9 11  1  0  0  0  0
 11 12  1  6  0  0  0
 11 13  1  0  0  0  0
 13  8  1  6  0  0  0
 13 33  1  0  0  0  0
 14 46  1  0  0  0  0
 14 17  1  0  0  0  0
 14 25  1  1  0  0  0
 15 16  1  0  0  0  0
 15 29  1  0  0  0  0
 16 18  1  6  0  0  0
 16 21  1  0  0  0  0
 17 19  1  6  0  0  0
 17 20  1  0  0  0  0
 20 22  1  6  0  0  0
 20 24  1  0  0  0  0
 23 21  1  6  0  0  0
 23 26  1  0  0  0  0
 23 33  1  0  0  0  0
 24 25  1  1  0  0  0
 24 27  1  0  0  0  0
 26 29  1  6  0  0  0
 26 31  1  0  0  0  0
 27 28  1  0  0  0  0
 29 30  2  0  0  0  0
 31 32  1  0  0  0  0
 33 32  1  1  0  0  0
 34 36  1  0  0  0  0
 34 42  1  0  0  0  0
 36 37  1  6  0  0  0
 36 39  1  0  0  0  0
 40 39  1  6  0  0  0
 40 41  1  0  0  0  0
 40 46  1  0  0  0  0
 41 42  1  6  0  0  0
 41 44  1  0  0  0  0
 42 43  2  0  0  0  0
 44 45  1  0  0  0  0
 46 45  1  1  0  0  0
M  CHG  2   3  -1  35  -1
M  END
>  <CHROM.1>
135.37342703,-136.62908548,159.35048772,44.43803804,146.01795286,-2.14581551
-0.45845668,1.92653360

>  <Name>
ligand

>  <RI>
0

>  <Rbt.Current_Directory>
/home/itssahil/PROJECTS/Mol_Feturizer/Test_systems_manuscript/rnas/4yb0

>  <Rbt.Executable>
rbdock ($Id: //depot/dev/client3/rdock/2013.1/src/exe/rbdock.cxx#4 $)

>  <Rbt.Library>
libRbt.so (2013.1, Build901 2013/11/27)

>  <Rbt.Parameter_File>
/export/apps/rDock/src/rDock_2013.1_src/data/scripts/dock_solv.prm

>  <Rbt.Receptor>
prm/pocket_docking_7.prm

>  <SCORE>
-20.2291

>  <SCORE.INTER>
-20.8334

>  <SCORE.INTER.CONST>
1

>  <SCORE.INTER.POLAR>
0

>  <SCORE.INTER.ROT>
2

>  <SCORE.INTER.SOLV>
19.4725

>  <SCORE.INTER.VDW>
-25.3131

>  <SCORE.INTER.norm>
-0.4529

>  <SCORE.INTRA>
0.604329

>  <SCORE.INTRA.DIHEDRAL>
-0.0605502

>  <SCORE.INTRA.DIHEDRAL.0>
2.42188

>  <SCORE.INTRA.POLAR>
0

>  <SCORE.INTRA.POLAR.0>
0

>  <SCORE.INTRA.REPUL>
0

>  <SCORE.INTRA.REPUL.0>
0

>  <SCORE.INTRA.SOLV>
1.40275

>  <SCORE.INTRA.SOLV.lig_0>
-127.307

>  <SCORE.INTRA.VDW>
-0.066769

>  <SCORE.INTRA.VDW.0>
-2.19936

>  <SCORE.INTRA.norm>
0.0131376

>  <SCORE.RESTR>
0

>  <SCORE.RESTR.CAVITY>
0

>  <SCORE.RESTR.norm>
0

>  <SCORE.SYSTEM>
0

>  <SCORE.SYSTEM.CONST>
0

>  <SCORE.SYSTEM.DIHEDRAL>
0

>  <SCORE.SYSTEM.SOLV>
0

>  <SCORE.SYSTEM.norm>
0

>  <SCORE.heavy>
46

>  <SCORE.norm>
-0.439762

>  <RMSD>
5.793

$$$$
ligand
 OpenBabel02271912143D
libRbt.so/2013.1/901 2013/11/27
 46 52  0  0  0  0  0  0  0  0999 V2000
  159.9982   43.8859  147.7717 P   0  0  1  0  0  0  0  0  0  0  0  0
  157.4025   48.8643  148.7245 P   0  0  1  0  0  0  0  0  0  0  0  0
  159.7058   43.2509  146.4366 O   0  5  0  0  0  0  0  0  0  0  0  0
  161.0882   43.2472  148.6045 O   0  0  0  0  0  0  0  0  0  0  0  0
  161.3209   46.1308  148.2301 C   0  0  0  0  0  0  0  0  0  0  0  0
  160.2845   45.4501  147.5347 O   0  0  0  0  0  0  0  0  0  0  0  0
  161.1191   47.6333  148.1230 C   0  0  1  0  0  0  0  0  0  0  0  0
  162.0379   48.1328  147.1616 O   0  0  0  0  0  0  0  0  0  0  0  0
  159.7372   48.0821  147.6648 C   0  0  1  0  0  0  0  0  0  0  0  0
  158.9964   48.5601  148.7781 O   0  0  0  0  0  0  0  0  0  0  0  0
  160.0309   49.2557  146.7573 C   0  0  1  0  0  0  0  0  0  0  0  0
  160.0477   50.4620  147.5232 O   0  0  0  0  0  0  0  0  0  0  0  0
  161.4289   49.0394  146.2551 C   0  0  2  0  0  0  0  0  0  0  0  0
  155.2284   44.1127  147.2799 C   0  0  1  0  0  0  0  0  0  0  0  0
  159.9732   49.5529  141.2387 N   0  0  0  0  0  0  0  0  0  0  0  0
  159.8387   50.4054  142.2722 C   0  0  1  0  0  0  0  0  0  0  0  0
  156.6553   43.6161  147.1748 C   0  0  2  0  0  0  0  0  0  0  0  0
  159.2465   51.6025  142.0634 N   0  0  0  0  0  0  0  0  0  0  0  0
  156.6917   42.2961  147.7243 O   0  0  0  0  0  0  0  0  0  0  0  0
  157.4778   44.5739  148.0163 C   0  0  2  0  0  0  0  0  0  0  0  0
  160.2636   50.1318  143.5265 N   0  0  0  0  0  0  0  0  0  0  0  0
  158.6110   43.9256  148.5922 O   0  0  0  0  0  0  0  0  0  0  0  0
  160.8616   48.9563  143.8158 C   0  0  2  0  0  0  0  0  0  0  0  0
  156.4709   45.0259  149.0717 C   0  0  2  0  0  0  0  0  0  0  0  0
  155.1705   44.8444  148.5072 O   0  0  0  0  0  0  0  0  0  0  0  0
  161.0398   47.9785  142.7378 C   0  0  2  0  0  0  0  0  0  0  0  0
  156.6239   46.4779  149.5351 C   0  0  0  0  0  0  0  0  0  0  0  0
  156.7792   47.3985  148.4557 O   0  0  0  0  0  0  0  0  0  0  0  0
  160.5494   48.3480  141.3891 C   0  0  0  0  0  0  0  0  0  0  0  0
  160.6783   47.5509  140.4289 O   0  0  0  0  0  0  0  0  0  0  0  0
  161.6457   46.9149  143.2949 N   0  0  0  0  0  0  0  0  0  0  0  0
  161.8415   47.1836  144.6082 C   0  0  0  0  0  0  0  0  0  0  0  0
  161.3726   48.4053  144.9166 N   0  0  1  0  0  0  0  0  0  0  0  0
  152.0893   45.2947  143.2319 N   0  0  0  0  0  0  0  0  0  0  0  0
  157.0163   49.3267  150.1169 O   0  5  0  0  0  0  0  0  0  0  0  0
  152.0132   44.2863  144.1140 C   0  0  2  0  0  0  0  0  0  0  0  0
  150.9941   43.4244  143.9804 N   0  0  0  0  0  0  0  0  0  0  0  0
  157.1004   49.7131  147.5135 O   0  0  0  0  0  0  0  0  0  0  0  0
  152.9003   44.1022  145.1197 N   0  0  0  0  0  0  0  0  0  0  0  0
  153.9351   44.9519  145.2886 C   0  0  1  0  0  0  0  0  0  0  0  0
  154.0753   46.0826  144.3492 C   0  0  1  0  0  0  0  0  0  0  0  0
  153.0528   46.2162  143.2804 C   0  0  0  0  0  0  0  0  0  0  0  0
  153.0862   47.1345  142.4333 O   0  0  0  0  0  0  0  0  0  0  0  0
  155.1645   46.7646  144.7375 N   0  0  0  0  0  0  0  0  0  0  0  0
  155.6751   46.1207  145.8237 C   0  0  0  0  0  0  0  0  0  0  0  0
  154.9421   45.0399  146.1572 N   0  0  2  0  0  0  0  0  0  0  0  0
  1  3  1  6  0  0  0
  1  4  2  0  0  0  0
  1  6  1  0  0  0  0
  1 22  1  0  0  0  0
  2 28  1  0  0  0  0
  2 35  1  1  0  0  0
  2 38  2  0  0  0  0
  2 10  1  0  0  0  0
  5  6  1  0  0  0  0
  7  5  1  6  0  0  0
  7  8  1  0  0  0  0
  7  9  1  0  0  0  0
  9 10  1  1  0  0  0
  9 11  1  0  0  0  0
 11 12  1  1  0  0  0
 11 13  1  0  0  0  0
 13  8  1  1  0  0  0
 13 33  1  0  0  0  0
 14 46  1  0  0  0  0
 14 17  1  0  0  0  0
 14 25  1  1  0  0  0
 15 16  1  0  0  0  0
 15 29  1  0  0  0  0
 16 18  1  1  0  0  0
 16 21  1  0  0  0  0
 17 19  1  1  0  0  0
 17 20  1  0  0  0  0
 20 22  1  1  0  0  0
 20 24  1  0  0  0  0
 23 21  1  1  0  0  0
 23 26  1  0  0  0  0
 23 33  1  0  0  0  0
 24 25  1  6  0  0  0
 24 27  1  0  0  0  0
 26 29  1  1  0  0  0
 26 31  1  0  0  0  0
 27 28  1  0  0  0  0
 29 30  2  0  0  0  0
 31 32  1  0  0  0  0
 33 32  1  6  0  0  0
 34 36  1  0  0  0  0
 34 42  1  0  0  0  0
 36 37  1  1  0  0  0
 36 39  1  0  0  0  0
 40 39  1  1  0  0  0
 40 41  1  0  0  0  0
 40 46  1  0  0  0  0
 41 42  1  1  0  0  0
 41 44  1  0  0  0  0
 42 43  2  0  0  0  0
 44 45  1  0  0  0  0
 46 45  1  6  0  0  0
M  CHG  2   3  -1  35  -1
M  END
>  <CHROM.1>
179.69426863,126.10117988,157.94707172,46.70134239,146.09034045,-0.31993888
0.42529314,2.06674710

>  <Name>
ligand

>  <RI>
0

>  <Rbt.Current_Directory>
/home/itssahil/PROJECTS/Mol_Feturizer/Test_systems_manuscript/rnas/4yb0

>  <Rbt.Executable>
rbdock ($Id: //depot/dev/client3/rdock/2013.1/src/exe/rbdock.cxx#4 $)

>  <Rbt.Library>
libRbt.so (2013.1, Build901 2013/11/27)

>  <Rbt.Parameter_File>
/export/apps/rDock/src/rDock_2013.1_src/data/scripts/dock_solv.prm

>  <Rbt.Receptor>
prm/pocket_docking_6.prm

>  <SCORE>
-24.2838

>  <SCORE.INTER>
-24.2177

>  <SCORE.INTER.CONST>
1

>  <SCORE.INTER.POLAR>
0

>  <SCORE.INTER.ROT>
2

>  <SCORE.INTER.SOLV>
14.3356

>  <SCORE.INTER.VDW>
-25.857

>  <SCORE.INTER.norm>
-0.526471

>  <SCORE.INTRA>
-0.066105

>  <SCORE.INTRA.DIHEDRAL>
-0.0125211

>  <SCORE.INTRA.DIHEDRAL.0>
2.42188

>  <SCORE.INTRA.POLAR>
0

>  <SCORE.INTRA.POLAR.0>
0

>  <SCORE.INTRA.REPUL>
0

>  <SCORE.INTRA.REPUL.0>
0

>  <SCORE.INTRA.SOLV>
-0.0120377

>  <SCORE.INTRA.SOLV.lig_0>
-127.307

>  <SCORE.INTRA.VDW>
-0.0538256

>  <SCORE.INTRA.VDW.0>
-2.19936

>  <SCORE.INTRA.norm>
-0.00143707

>  <SCORE.RESTR>
0

>  <SCORE.RESTR.CAVITY>
0

>  <SCORE.RESTR.norm>
0

>  <SCORE.SYSTEM>
0

>  <SCORE.SYSTEM.CONST>
0

>  <SCORE.SYSTEM.DIHEDRAL>
0

>  <SCORE.SYSTEM.SOLV>
0

>  <SCORE.SYSTEM.norm>
0

>  <SCORE.heavy>
46

>  <SCORE.norm>
-0.527908

>  <RMSD>
5.805

$$$$
ligand
 OpenBabel02271912143D
libRbt.so/2013.1/901 2013/11/27
 46 52  0  0  0  0  0  0  0  0999 V2000
  160.5053   43.3955  142.5321 P   0  0  1  0  0  0  0  0  0  0  0  0
  161.2858   46.5113  147.2346 P   0  0  1  0  0  0  0  0  0  0  0  0
  159.4018   42.3723  142.6120 O   0  5  0  0  0  0  0  0  0  0  0  0
  161.1289   43.6188  141.1717 O   0  0  0  0  0  0  0  0  0  0  0  0
  160.2622   46.0297  142.5666 C   0  0  0  0  0  0  0  0  0  0  0  0
  159.9629   44.7728  143.1597 O   0  0  0  0  0  0  0  0  0  0  0  0
  159.9754   47.1509  143.5517 C   0  0  1  0  0  0  0  0  0  0  0  0
  158.7492   47.7624  143.1769 O   0  0  0  0  0  0  0  0  0  0  0  0
  159.8125   46.7258  145.0055 C   0  0  1  0  0  0  0  0  0  0  0  0
  160.9866   47.0537  145.7339 O   0  0  0  0  0  0  0  0  0  0  0  0
  158.6885   47.6052  145.5059 C   0  0  1  0  0  0  0  0  0  0  0  0
  159.2277   48.8178  146.0359 O   0  0  0  0  0  0  0  0  0  0  0  0
  157.8933   47.9779  144.2885 C   0  0  2  0  0  0  0  0  0  0  0  0
  161.1909   41.1171  146.7014 C   0  0  1  0  0  0  0  0  0  0  0  0
  154.7098   44.6202  146.7660 N   0  0  0  0  0  0  0  0  0  0  0  0
  155.7710   45.3092  147.2265 C   0  0  1  0  0  0  0  0  0  0  0  0
  160.8118   41.3759  145.2582 C   0  0  2  0  0  0  0  0  0  0  0  0
  156.1351   45.1671  148.5205 N   0  0  0  0  0  0  0  0  0  0  0  0
  161.5342   40.4421  144.4508 O   0  0  0  0  0  0  0  0  0  0  0  0
  161.2610   42.7968  144.9727 C   0  0  2  0  0  0  0  0  0  0  0  0
  156.5084   46.1452  146.4609 N   0  0  0  0  0  0  0  0  0  0  0  0
  161.6297   42.9654  143.6046 O   0  0  0  0  0  0  0  0  0  0  0  0
  156.2102   46.3378  145.1582 C   0  0  2  0  0  0  0  0  0  0  0  0
  162.4503   42.9574  145.9170 C   0  0  2  0  0  0  0  0  0  0  0  0
  162.2639   42.0205  146.9801 O   0  0  0  0  0  0  0  0  0  0  0  0
  155.0671   45.6177  144.5886 C   0  0  2  0  0  0  0  0  0  0  0  0
  162.6279   44.3611  146.5042 C   0  0  0  0  0  0  0  0  0  0  0  0
  161.4138   44.9171  147.0074 O   0  0  0  0  0  0  0  0  0  0  0  0
  154.3058   44.7190  145.4879 C   0  0  0  0  0  0  0  0  0  0  0  0
  153.3168   44.0802  145.0546 O   0  0  0  0  0  0  0  0  0  0  0  0
  155.0016   45.9838  143.2961 N   0  0  0  0  0  0  0  0  0  0  0  0
  156.0069   46.8597  143.0566 C   0  0  0  0  0  0  0  0  0  0  0  0
  156.7274   47.0702  144.1719 N   0  0  1  0  0  0  0  0  0  0  0  0
  159.5639   43.4578  151.1186 N   0  0  0  0  0  0  0  0  0  0  0  0
  162.6407   47.0737  147.6219 O   0  5  0  0  0  0  0  0  0  0  0  0
  160.7966   43.3684  150.5958 C   0  0  2  0  0  0  0  0  0  0  0  0
  161.7975   43.9536  151.2705 N   0  0  0  0  0  0  0  0  0  0  0  0
  160.0714   46.7489  148.0988 O   0  0  0  0  0  0  0  0  0  0  0  0
  161.0737   42.7289  149.4354 N   0  0  0  0  0  0  0  0  0  0  0  0
  160.0918   42.1332  148.7267 C   0  0  1  0  0  0  0  0  0  0  0  0
  158.7122   42.1950  149.2496 C   0  0  1  0  0  0  0  0  0  0  0  0
  158.4949   42.9248  150.5247 C   0  0  0  0  0  0  0  0  0  0  0  0
  157.3667   43.0287  151.0524 O   0  0  0  0  0  0  0  0  0  0  0  0
  157.9426   41.5403  148.3656 N   0  0  0  0  0  0  0  0  0  0  0  0
  158.7616   41.0962  147.3721 C   0  0  0  0  0  0  0  0  0  0  0  0
  160.0447   41.4508  147.5828 N   0  0  2  0  0  0  0  0  0  0  0  0
  1  3  1  6  0  0  0
  1  4  2  0  0  0  0
  1  6  1  0  0  0  0
  1 22  1  0  0  0  0
  2 28  1  0  0  0  0
  2 35  1  1  0  0  0
  2 38  2  0  0  0  0
  2 10  1  0  0  0  0
  5  6  1  0  0  0  0
  7  5  1  6  0  0  0
  7  8  1  0  0  0  0
  7  9  1  0  0  0  0
  9 10  1  1  0  0  0
  9 11  1  0  0  0  0
 11 12  1  6  0  0  0
 11 13  1  0  0  0  0
 13  8  1  6  0  0  0
 13 33  1  0  0  0  0
 14 46  1  0  0  0  0
 14 17  1  0  0  0  0
 14 25  1  1  0  0  0
 15 16  1  0  0  0  0
 15 29  1  0  0  0  0
 16 18  1  6  0  0  0
 16 21  1  0  0  0  0
 17 19  1  6  0  0  0
 17 20  1  0  0  0  0
 20 22  1  6  0  0  0
 20 24  1  0  0  0  0
 23 21  1  6  0  0  0
 23 26  1  0  0  0  0
 23 33  1  0  0  0  0
 24 25  1  1  0  0  0
 24 27  1  0  0  0  0
 26 29  1  6  0  0  0
 26 31  1  0  0  0  0
 27 28  1  0  0  0  0
 29 30  2  0  0  0  0
 31 32  1  0  0  0  0
 33 32  1  1  0  0  0
 34 36  1  0  0  0  0
 34 42  1  0  0  0  0
 36 37  1  6  0  0  0
 36 39  1  0  0  0  0
 40 39  1  6  0  0  0
 40 41  1  0  0  0  0
 40 46  1  0  0  0  0
 41 42  1  6  0  0  0
 41 44  1  0  0  0  0
 42 43  2  0  0  0  0
 44 45  1  0  0  0  0
 46 45  1  1  0  0  0
M  CHG  2   3  -1  35  -1
M  END
>  <CHROM.1>
134.92778763,-135.55448331,159.29460335,44.52790474,146.07565317,-2.14344254
-0.43873412,1.91345660

>  <Name>
ligand

>  <RI>
0

>  <Rbt.Current_Directory>
/home/itssahil/PROJECTS/Mol_Feturizer/Test_systems_manuscript/rnas/4yb0

>  <Rbt.Executable>
rbdock ($Id: //depot/dev/client3/rdock/2013.1/src/exe/rbdock.cxx#4 $)

>  <Rbt.Library>
libRbt.so (2013.1, Build901 2013/11/27)

>  <Rbt.Parameter_File>
/export/apps/rDock/src/rDock_2013.1_src/data/scripts/dock_solv.prm

>  <Rbt.Receptor>
prm/pocket_docking_8.prm

>  <SCORE>
-20.1163

>  <SCORE.INTER>
-20.6929

>  <SCORE.INTER.CONST>
1

>  <SCORE.INTER.POLAR>
0

>  <SCORE.INTER.ROT>
2

>  <SCORE.INTER.SOLV>
19.3658

>  <SCORE.INTER.VDW>
-25.1839

>  <SCORE.INTER.norm>
-0.449845

>  <SCORE.INTRA>
0.576618

>  <SCORE.INTRA.DIHEDRAL>
-0.0590107

>  <SCORE.INTRA.DIHEDRAL.0>
2.42188

>  <SCORE.INTRA.POLAR>
0

>  <SCORE.INTRA.POLAR.0>
0

>  <SCORE.INTRA.REPUL>
0

>  <SCORE.INTRA.REPUL.0>
0

>  <SCORE.INTRA.SOLV>
1.51178

>  <SCORE.INTRA.SOLV.lig_0>
-127.307

>  <SCORE.INTRA.VDW>
-0.149768

>  <SCORE.INTRA.VDW.0>
-2.19936

>  <SCORE.INTRA.norm>
0.0125352

>  <SCORE.RESTR>
0

>  <SCORE.RESTR.CAVITY>
0

>  <SCORE.RESTR.norm>
0

>  <SCORE.SYSTEM>
0

>  <SCORE.SYSTEM.CONST>
0

>  <SCORE.SYSTEM.DIHEDRAL>
0

>  <SCORE.SYSTEM.SOLV>
0

>  <SCORE.SYSTEM.norm>
0

>  <SCORE.heavy>
46

>  <SCORE.norm>
-0.43731

>  <RMSD>
5.818

$$$$
ligand
 OpenBabel02271912143D
libRbt.so/2013.1/901 2013/11/27
 46 52  0  0  0  0  0  0  0  0999 V2000
  161.6129   46.3820  147.3937 P   0  0  1  0  0  0  0  0  0  0  0  0
  160.6106   43.7904  142.4228 P   0  0  1  0  0  0  0  0  0  0  0  0
  160.3955   46.6407  148.2434 O   0  5  0  0  0  0  0  0  0  0  0  0
  162.9582   46.6445  148.0347 O   0  0  0  0  0  0  0  0  0  0  0  0
  162.6627   44.0381  146.7584 C   0  0  0  0  0  0  0  0  0  0  0  0
  161.5203   44.8818  146.8227 O   0  0  0  0  0  0  0  0  0  0  0  0
  162.3879   42.8601  145.8383 C   0  0  1  0  0  0  0  0  0  0  0  0
  162.1371   41.7197  146.6473 O   0  0  0  0  0  0  0  0  0  0  0  0
  161.1794   43.0066  144.9224 C   0  0  1  0  0  0  0  0  0  0  0  0
  161.6130   43.3011  143.6026 O   0  0  0  0  0  0  0  0  0  0  0  0
  160.5702   41.6225  144.9188 C   0  0  1  0  0  0  0  0  0  0  0  0
  161.1405   40.8501  143.8604 O   0  0  0  0  0  0  0  0  0  0  0  0
  161.0056   40.9850  146.2062 C   0  0  2  0  0  0  0  0  0  0  0  0
  158.3783   48.3105  144.4168 C   0  0  1  0  0  0  0  0  0  0  0  0
  159.7326   42.5407  151.0545 N   0  0  0  0  0  0  0  0  0  0  0  0
  160.9247   42.5420  150.4285 C   0  0  1  0  0  0  0  0  0  0  0  0
  159.1629   48.0114  145.6771 C   0  0  2  0  0  0  0  0  0  0  0  0
  162.0118   43.0025  151.0868 N   0  0  0  0  0  0  0  0  0  0  0  0
  159.6868   49.2513  146.1609 O   0  0  0  0  0  0  0  0  0  0  0  0
  160.2832   47.0846  145.2434 C   0  0  2  0  0  0  0  0  0  0  0  0
  161.1042   42.1011  149.1627 N   0  0  0  0  0  0  0  0  0  0  0  0
  161.4480   47.2567  146.0495 O   0  0  0  0  0  0  0  0  0  0  0  0
  160.0682   41.6230  148.4408 C   0  0  2  0  0  0  0  0  0  0  0  0
  160.5135   47.5093  143.7948 C   0  0  2  0  0  0  0  0  0  0  0  0
  159.2968   48.1056  143.3401 O   0  0  0  0  0  0  0  0  0  0  0  0
  158.7399   41.5904  149.0608 C   0  0  2  0  0  0  0  0  0  0  0  0
  160.9100   46.3774  142.8417 C   0  0  0  0  0  0  0  0  0  0  0  0
  160.0923   45.2160  142.9782 O   0  0  0  0  0  0  0  0  0  0  0  0
  158.6196   42.0903  150.4506 C   0  0  0  0  0  0  0  0  0  0  0  0
  157.5065   42.0884  151.0293 O   0  0  0  0  0  0  0  0  0  0  0  0
  157.9099   41.0719  148.1383 N   0  0  0  0  0  0  0  0  0  0  0  0
  158.6355   40.7984  147.0274 C   0  0  0  0  0  0  0  0  0  0  0  0
  159.9254   41.1299  147.2108 N   0  0  1  0  0  0  0  0  0  0  0  0
  155.2739   44.8112  146.8158 N   0  0  0  0  0  0  0  0  0  0  0  0
  161.4796   44.0140  141.1994 O   0  5  0  0  0  0  0  0  0  0  0  0
  156.2553   45.5770  147.3171 C   0  0  2  0  0  0  0  0  0  0  0  0
  156.5172   45.4657  148.6279 N   0  0  0  0  0  0  0  0  0  0  0  0
  159.4190   42.8654  142.3696 O   0  0  0  0  0  0  0  0  0  0  0  0
  156.9803   46.4464  146.5749 N   0  0  0  0  0  0  0  0  0  0  0  0
  156.7418   46.5892  145.2543 C   0  0  1  0  0  0  0  0  0  0  0  0
  155.6744   45.7733  144.6416 C   0  0  1  0  0  0  0  0  0  0  0  0
  154.9212   44.8517  145.5299 C   0  0  0  0  0  0  0  0  0  0  0  0
  154.0041   44.1152  145.1071 O   0  0  0  0  0  0  0  0  0  0  0  0
  155.6411   46.1076  143.3418 N   0  0  0  0  0  0  0  0  0  0  0  0
  156.6065   47.0480  143.1445 C   0  0  0  0  0  0  0  0  0  0  0  0
  157.2634   47.3401  144.2846 N   0  0  2  0  0  0  0  0  0  0  0  0
  1  3  1  1  0  0  0
  1  4  2  0  0  0  0
  1  6  1  0  0  0  0
  1 22  1  0  0  0  0
  2 28  1  0  0  0  0
  2 35  1  6  0  0  0
  2 38  2  0  0  0  0
  2 10  1  0  0  0  0
  5  6  1  0  0  0  0
  7  5  1  1  0  0  0
  7  8  1  0  0  0  0
  7  9  1  0  0  0  0
  9 10  1  6  0  0  0
  9 11  1  0  0  0  0
 11 12  1  6  0  0  0
 11 13  1  0  0  0  0
 13  8  1  1  0  0  0
 13 33  1  0  0  0  0
 14 46  1  0  0  0  0
 14 17  1  0  0  0  0
 14 25  1  6  0  0  0
 15 16  1  0  0  0  0
 15 29  1  0  0  0  0
 16 18  1  1  0  0  0
 16 21  1  0  0  0  0
 17 19  1  6  0  0  0
 17 20  1  0  0  0  0
 20 22  1  1  0  0  0
 20 24  1  0  0  0  0
 23 21  1  1  0  0  0
 23 26  1  0  0  0  0
 23 33  1  0  0  0  0
 24 25  1  6  0  0  0
 24 27  1  0  0  0  0
 26 29  1  1  0  0  0
 26 31  1  0  0  0  0
 27 28  1  0  0  0  0
 29 30  2  0  0  0  0
 31 32  1  0  0  0  0
 33 32  1  6  0  0  0
 34 36  1  0  0  0  0
 34 42  1  0  0  0  0
 36 37  1  1  0  0  0
 36 39  1  0  0  0  0
 40 39  1  1  0  0  0
 40 41  1  0  0  0  0
 40 46  1  0  0  0  0
 41 42  1  1  0  0  0
 41 44  1  0  0  0  0
 42 43  2  0  0  0  0
 44 45  1  0  0  0  0
 46 45  1  6  0  0  0
M  CHG  2   3  -1  35  -1
M  END
>  <CHROM.1>
-12.80943195,19.17099360,159.53765179,44.52276329,146.05143117,-1.30003265
0.48795342,-0.99597384

>  <Name>
ligand

>  <RI>
0

>  <Rbt.Current_Directory>
/home/itssahil/PROJECTS/Mol_Feturizer/Test_systems_manuscript/rnas/4yb0

>  <Rbt.Executable>
rbdock ($Id: //depot/dev/client3/rdock/2013.1/src/exe/rbdock.cxx#4 $)

>  <Rbt.Library>
libRbt.so (2013.1, Build901 2013/11/27)

>  <Rbt.Parameter_File>
/export/apps/rDock/src/rDock_2013.1_src/data/scripts/dock_solv.prm

>  <Rbt.Receptor>
prm/pocket_docking_5.prm

>  <SCORE>
-16.0935

>  <SCORE.INTER>
-16.69

>  <SCORE.INTER.CONST>
1

>  <SCORE.INTER.POLAR>
0

>  <SCORE.INTER.ROT>
2

>  <SCORE.INTER.SOLV>
17.9419

>  <SCORE.INTER.VDW>
-22.0406

>  <SCORE.INTER.norm>
-0.362826

>  <SCORE.INTRA>
0.541475

>  <SCORE.INTRA.DIHEDRAL>
0.0184584

>  <SCORE.INTRA.DIHEDRAL.0>
2.42188

>  <SCORE.INTRA.POLAR>
0

>  <SCORE.INTRA.POLAR.0>
0

>  <SCORE.INTRA.REPUL>
0

>  <SCORE.INTRA.REPUL.0>
0

>  <SCORE.INTRA.SOLV>
1.07778

>  <SCORE.INTRA.SOLV.lig_0>
-127.307

>  <SCORE.INTRA.VDW>
-0.00664361

>  <SCORE.INTRA.VDW.0>
-2.19936

>  <SCORE.INTRA.norm>
0.0117712

>  <SCORE.RESTR>
0.0550188

>  <SCORE.RESTR.CAVITY>
0.0550188

>  <SCORE.RESTR.norm>
0.00119606

>  <SCORE.SYSTEM>
0

>  <SCORE.SYSTEM.CONST>
0

>  <SCORE.SYSTEM.DIHEDRAL>
0

>  <SCORE.SYSTEM.SOLV>
0

>  <SCORE.SYSTEM.norm>
0

>  <SCORE.heavy>
46

>  <SCORE.norm>
-0.349859

>  <RMSD>
5.828

$$$$
ligand
 OpenBabel02271912143D
libRbt.so/2013.1/901 2013/11/27
 46 52  0  0  0  0  0  0  0  0999 V2000
  160.5313   43.3498  142.3970 P   0  0  1  0  0  0  0  0  0  0  0  0
  161.5287   46.4126  147.0932 P   0  0  1  0  0  0  0  0  0  0  0  0
  159.4082   42.3506  142.5048 O   0  5  0  0  0  0  0  0  0  0  0  0
  161.1165   43.5693  141.0190 O   0  0  0  0  0  0  0  0  0  0  0  0
  160.3482   45.9884  142.4568 C   0  0  0  0  0  0  0  0  0  0  0  0
  160.0397   44.7341  143.0505 O   0  0  0  0  0  0  0  0  0  0  0  0
  160.1177   47.1083  143.4580 C   0  0  1  0  0  0  0  0  0  0  0  0
  158.8942   47.7495  143.1263 O   0  0  0  0  0  0  0  0  0  0  0  0
  159.9911   46.6761  144.9133 C   0  0  1  0  0  0  0  0  0  0  0  0
  161.1946   46.9726  145.6063 O   0  0  0  0  0  0  0  0  0  0  0  0
  158.9033   47.5764  145.4549 C   0  0  1  0  0  0  0  0  0  0  0  0
  159.4858   48.7728  145.9757 O   0  0  0  0  0  0  0  0  0  0  0  0
  158.0787   47.9756  144.2658 C   0  0  2  0  0  0  0  0  0  0  0  0
  161.2967   41.0259  146.5271 C   0  0  1  0  0  0  0  0  0  0  0  0
  154.8212   44.7749  146.8523 N   0  0  0  0  0  0  0  0  0  0  0  0
  155.9013   45.4500  147.2887 C   0  0  1  0  0  0  0  0  0  0  0  0
  160.8783   41.3037  145.0984 C   0  0  2  0  0  0  0  0  0  0  0  0
  156.2668   45.3372  148.5852 N   0  0  0  0  0  0  0  0  0  0  0  0
  161.5538   40.3602  144.2622 O   0  0  0  0  0  0  0  0  0  0  0  0
  161.3498   42.7164  144.8083 C   0  0  2  0  0  0  0  0  0  0  0  0
  156.6565   46.2440  146.4962 N   0  0  0  0  0  0  0  0  0  0  0  0
  161.6789   42.8870  143.4304 O   0  0  0  0  0  0  0  0  0  0  0  0
  156.3582   46.4054  145.1893 C   0  0  2  0  0  0  0  0  0  0  0  0
  162.5715   42.8437  145.7156 C   0  0  2  0  0  0  0  0  0  0  0  0
  162.3978   41.9033  146.7777 O   0  0  0  0  0  0  0  0  0  0  0  0
  155.1949   45.6979  144.6451 C   0  0  2  0  0  0  0  0  0  0  0  0
  162.7988   44.2388  146.3063 C   0  0  0  0  0  0  0  0  0  0  0  0
  161.6138   44.8177  146.8513 O   0  0  0  0  0  0  0  0  0  0  0  0
  154.4147   44.8460  145.5732 C   0  0  0  0  0  0  0  0  0  0  0  0
  153.4081   44.2199  145.1623 O   0  0  0  0  0  0  0  0  0  0  0  0
  155.1335   46.0271  143.3425 N   0  0  0  0  0  0  0  0  0  0  0  0
  156.1597   46.8696  143.0738 C   0  0  0  0  0  0  0  0  0  0  0  0
  156.8897   47.0948  144.1800 N   0  0  1  0  0  0  0  0  0  0  0  0
  159.8643   43.3549  151.0172 N   0  0  0  0  0  0  0  0  0  0  0  0
  162.9073   46.9420  147.4413 O   0  5  0  0  0  0  0  0  0  0  0  0
  161.0780   43.2403  150.4563 C   0  0  2  0  0  0  0  0  0  0  0  0
  162.1135   43.7917  151.1067 N   0  0  0  0  0  0  0  0  0  0  0  0
  160.3476   46.6706  147.9970 O   0  0  0  0  0  0  0  0  0  0  0  0
  161.3034   42.6077  149.2811 N   0  0  0  0  0  0  0  0  0  0  0  0
  160.2856   42.0457  148.5959 C   0  0  1  0  0  0  0  0  0  0  0  0
  158.9244   42.1365  149.1611 C   0  0  1  0  0  0  0  0  0  0  0  0
  158.7645   42.8564  150.4502 C   0  0  0  0  0  0  0  0  0  0  0  0
  157.6557   42.9828  151.0130 O   0  0  0  0  0  0  0  0  0  0  0  0
  158.1119   41.5122  148.2937 N   0  0  0  0  0  0  0  0  0  0  0  0
  158.8888   41.0591  147.2709 C   0  0  0  0  0  0  0  0  0  0  0  0
  160.1865   41.3784  147.4465 N   0  0  2  0  0  0  0  0  0  0  0  0
  1  3  1  6  0  0  0
  1  4  2  0  0  0  0
  1  6  1  0  0  0  0
  1 22  1  0  0  0  0
  2 28  1  0  0  0  0
  2 35  1  1  0  0  0
  2 38  2  0  0  0  0
  2 10  1  0  0  0  0
  5  6  1  0  0  0  0
  7  5  1  6  0  0  0
  7  8  1  0  0  0  0
  7  9  1  0  0  0  0
  9 10  1  1  0  0  0
  9 11  1  0  0  0  0
 11 12  1  6  0  0  0
 11 13  1  0  0  0  0
 13  8  1  6  0  0  0
 13 33  1  0  0  0  0
 14 46  1  0  0  0  0
 14 17  1  0  0  0  0
 14 25  1  1  0  0  0
 15 16  1  0  0  0  0
 15 29  1  0  0  0  0
 16 18  1  6  0  0  0
 16 21  1  0  0  0  0
 17 19  1  6  0  0  0
 17 20  1  0  0  0  0
 20 22  1  6  0  0  0
 20 24  1  0  0  0  0
 23 21  1  6  0  0  0
 23 26  1  0  0  0  0
 23 33  1  0  0  0  0
 24 25  1  1  0  0  0
 24 27  1  0  0  0  0
 26 29  1  6  0  0  0
 26 31  1  0  0  0  0
 27 28  1  0  0  0  0
 29 30  2  0  0  0  0
 31 32  1  0  0  0  0
 33 32  1  1  0  0  0
 34 36  1  0  0  0  0
 34 42  1  0  0  0  0
 36 37  1  6  0  0  0
 36 39  1  0  0  0  0
 40 39  1  6  0  0  0
 40 41  1  0  0  0  0
 40 46  1  0  0  0  0
 41 42  1  6  0  0  0
 41 44  1  0  0  0  0
 42 43  2  0  0  0  0
 44 45  1  0  0  0  0
 46 45  1  1  0  0  0
M  CHG  2   3  -1  35  -1
M  END
>  <CHROM.1>
137.58001563,-135.88549076,159.44980304,44.49210851,145.98887086,-2.19109366
-0.47664501,1.90626446

>  <Name>
ligand

>  <RI>
0

>  <Rbt.Current_Directory>
/home/itssahil/PROJECTS/Mol_Feturizer/Test_systems_manuscript/rnas/4yb0

>  <Rbt.Executable>
rbdock ($Id: //depot/dev/client3/rdock/2013.1/src/exe/rbdock.cxx#4 $)

>  <Rbt.Library>
libRbt.so (2013.1, Build901 2013/11/27)

>  <Rbt.Parameter_File>
/export/apps/rDock/src/rDock_2013.1_src/data/scripts/dock_solv.prm

>  <Rbt.Receptor>
prm/pocket_docking_7.prm

>  <SCORE>
-20.143

>  <SCORE.INTER>
-20.5776

>  <SCORE.INTER.CONST>
1

>  <SCORE.INTER.POLAR>
0

>  <SCORE.INTER.ROT>
2

>  <SCORE.INTER.SOLV>
19.7295

>  <SCORE.INTER.VDW>
-25.2282

>  <SCORE.INTER.norm>
-0.447339

>  <SCORE.INTRA>
0.43459

>  <SCORE.INTRA.DIHEDRAL>
-0.0615151

>  <SCORE.INTRA.DIHEDRAL.0>
2.42188

>  <SCORE.INTRA.POLAR>
0

>  <SCORE.INTRA.POLAR.0>
0

>  <SCORE.INTRA.REPUL>
0

>  <SCORE.INTRA.REPUL.0>
0

>  <SCORE.INTRA.SOLV>
1.10974

>  <SCORE.INTRA.SOLV.lig_0>
-127.307

>  <SCORE.INTRA.VDW>
-0.0895229

>  <SCORE.INTRA.VDW.0>
-2.19936

>  <SCORE.INTRA.norm>
0.00944762

>  <SCORE.RESTR>
0

>  <SCORE.RESTR.CAVITY>
0

>  <SCORE.RESTR.norm>
0

>  <SCORE.SYSTEM>
0

>  <SCORE.SYSTEM.CONST>
0

>  <SCORE.SYSTEM.DIHEDRAL>
0

>  <SCORE.SYSTEM.SOLV>
0

>  <SCORE.SYSTEM.norm>
0

>  <SCORE.heavy>
46

>  <SCORE.norm>
-0.437891

>  <RMSD>
5.836

$$$$
ligand
 OpenBabel02271912143D
libRbt.so/2013.1/901 2013/11/27
 46 52  0  0  0  0  0  0  0  0999 V2000
  161.6471   46.3659  147.3494 P   0  0  1  0  0  0  0  0  0  0  0  0
  160.5915   43.7656  142.3941 P   0  0  1  0  0  0  0  0  0  0  0  0
  160.4375   46.6361  148.2067 O   0  5  0  0  0  0  0  0  0  0  0  0
  162.9986   46.6207  147.9802 O   0  0  0  0  0  0  0  0  0  0  0  0
  162.6755   44.0125  146.7145 C   0  0  0  0  0  0  0  0  0  0  0  0
  161.5397   44.8646  146.7840 O   0  0  0  0  0  0  0  0  0  0  0  0
  162.3859   42.8335  145.8002 C   0  0  1  0  0  0  0  0  0  0  0  0
  162.1326   41.6975  146.6146 O   0  0  0  0  0  0  0  0  0  0  0  0
  161.1721   42.9858  144.8922 C   0  0  1  0  0  0  0  0  0  0  0  0
  161.5986   43.2728  143.5684 O   0  0  0  0  0  0  0  0  0  0  0  0
  160.5530   41.6061  144.8973 C   0  0  1  0  0  0  0  0  0  0  0  0
  161.1103   40.8262  143.8375 O   0  0  0  0  0  0  0  0  0  0  0  0
  160.9927   40.9697  146.1838 C   0  0  2  0  0  0  0  0  0  0  0  0
  158.4056   48.3081  144.3888 C   0  0  1  0  0  0  0  0  0  0  0  0
  159.7643   42.5526  151.0348 N   0  0  0  0  0  0  0  0  0  0  0  0
  160.9519   42.5437  150.4003 C   0  0  1  0  0  0  0  0  0  0  0  0
  159.1969   48.0073  145.6446 C   0  0  2  0  0  0  0  0  0  0  0  0
  162.0466   42.9995  151.0491 N   0  0  0  0  0  0  0  0  0  0  0  0
  159.7330   49.2450  146.1206 O   0  0  0  0  0  0  0  0  0  0  0  0
  160.3074   47.0711  145.2061 C   0  0  2  0  0  0  0  0  0  0  0  0
  161.1196   42.0966  149.1351 N   0  0  0  0  0  0  0  0  0  0  0  0
  161.4790   47.2374  146.0035 O   0  0  0  0  0  0  0  0  0  0  0  0
  160.0754   41.6225  148.4224 C   0  0  2  0  0  0  0  0  0  0  0  0
  160.5307   47.4895  143.7545 C   0  0  2  0  0  0  0  0  0  0  0  0
  159.3152   48.0931  143.3063 O   0  0  0  0  0  0  0  0  0  0  0  0
  158.7513   41.6011  149.0518 C   0  0  2  0  0  0  0  0  0  0  0  0
  160.9124   46.3517  142.8025 C   0  0  0  0  0  0  0  0  0  0  0  0
  160.0873   45.1966  142.9484 O   0  0  0  0  0  0  0  0  0  0  0  0
  158.6441   42.1071  150.4405 C   0  0  0  0  0  0  0  0  0  0  0  0
  157.5351   42.1148  151.0270 O   0  0  0  0  0  0  0  0  0  0  0  0
  157.9114   41.0843  148.1372 N   0  0  0  0  0  0  0  0  0  0  0  0
  158.6273   40.8018  147.0224 C   0  0  0  0  0  0  0  0  0  0  0  0
  159.9207   41.1255  147.1953 N   0  0  1  0  0  0  0  0  0  0  0  0
  155.4311   44.6846  146.7679 N   0  0  0  0  0  0  0  0  0  0  0  0
  161.4535   43.9789  141.1639 O   0  5  0  0  0  0  0  0  0  0  0  0
  156.4406   45.4234  147.2537 C   0  0  2  0  0  0  0  0  0  0  0  0
  156.7745   45.2431  148.5402 N   0  0  0  0  0  0  0  0  0  0  0  0
  159.3930   42.8491  142.3521 O   0  0  0  0  0  0  0  0  0  0  0  0
  157.1253   46.3314  146.5195 N   0  0  0  0  0  0  0  0  0  0  0  0
  156.8142   46.5438  145.2236 C   0  0  1  0  0  0  0  0  0  0  0  0
  155.7126   45.7608  144.6287 C   0  0  1  0  0  0  0  0  0  0  0  0
  155.0078   44.7929  145.5074 C   0  0  0  0  0  0  0  0  0  0  0  0
  154.0670   44.0793  145.0978 O   0  0  0  0  0  0  0  0  0  0  0  0
  155.6081   46.1633  143.3523 N   0  0  0  0  0  0  0  0  0  0  0  0
  156.5631   47.1136  143.1518 C   0  0  0  0  0  0  0  0  0  0  0  0
  157.2830   47.3453  144.2674 N   0  0  2  0  0  0  0  0  0  0  0  0
  1  3  1  1  0  0  0
  1  4  2  0  0  0  0
  1  6  1  0  0  0  0
  1 22  1  0  0  0  0
  2 28  1  0  0  0  0
  2 35  1  6  0  0  0
  2 38  2  0  0  0  0
  2 10  1  0  0  0  0
  5  6  1  0  0  0  0
  7  5  1  1  0  0  0
  7  8  1  0  0  0  0
  7  9  1  0  0  0  0
  9 10  1  6  0  0  0
  9 11  1  0  0  0  0
 11 12  1  6  0  0  0
 11 13  1  0  0  0  0
 13  8  1  1  0  0  0
 13 33  1  0  0  0  0
 14 46  1  0  0  0  0
 14 17  1  0  0  0  0
 14 25  1  6  0  0  0
 15 16  1  0  0  0  0
 15 29  1  0  0  0  0
 16 18  1  1  0  0  0
 16 21  1  0  0  0  0
 17 19  1  6  0  0  0
 17 20  1  0  0  0  0
 20 22  1  1  0  0  0
 20 24  1  0  0  0  0
 23 21  1  1  0  0  0
 23 26  1  0  0  0  0
 23 33  1  0  0  0  0
 24 25  1  6  0  0  0
 24 27  1  0  0  0  0
 26 29  1  1  0  0  0
 26 31  1  0  0  0  0
 27 28  1  0  0  0  0
 29 30  2  0  0  0  0
 31 32  1  0  0  0  0
 33 32  1  6  0  0  0
 34 36  1  0  0  0  0
 34 42  1  0  0  0  0
 36 37  1  1  0  0  0
 36 39  1  0  0  0  0
 40 39  1  1  0  0  0
 40 41  1  0  0  0  0
 40 46  1  0  0  0  0
 41 42  1  1  0  0  0
 41 44  1  0  0  0  0
 42 43  2  0  0  0  0
 44 45  1  0  0  0  0
 46 45  1  6  0  0  0
M  CHG  2   3  -1  35  -1
M  END
>  <CHROM.1>
-12.75476375,14.89830548,159.56417993,44.50080419,146.02173158,-1.31547964
0.48221517,-0.99495856

>  <Name>
ligand

>  <RI>
0

>  <Rbt.Current_Directory>
/home/itssahil/PROJECTS/Mol_Feturizer/Test_systems_manuscript/rnas/4yb0

>  <Rbt.Executable>
rbdock ($Id: //depot/dev/client3/rdock/2013.1/src/exe/rbdock.cxx#4 $)

>  <Rbt.Library>
libRbt.so (2013.1, Build901 2013/11/27)

>  <Rbt.Parameter_File>
/export/apps/rDock/src/rDock_2013.1_src/data/scripts/dock_solv.prm

>  <Rbt.Receptor>
prm/pocket_docking_5.prm

>  <SCORE>
-15.9134

>  <SCORE.INTER>
-16.6931

>  <SCORE.INTER.CONST>
1

>  <SCORE.INTER.POLAR>
0

>  <SCORE.INTER.ROT>
2

>  <SCORE.INTER.SOLV>
17.1964

>  <SCORE.INTER.VDW>
-21.7942

>  <SCORE.INTER.norm>
-0.362894

>  <SCORE.INTRA>
0.759314

>  <SCORE.INTRA.DIHEDRAL>
0.0143303

>  <SCORE.INTRA.DIHEDRAL.0>
2.42188

>  <SCORE.INTRA.POLAR>
0

>  <SCORE.INTRA.POLAR.0>
0

>  <SCORE.INTRA.REPUL>
0

>  <SCORE.INTRA.REPUL.0>
0

>  <SCORE.INTRA.SOLV>
1.52919

>  <SCORE.INTRA.SOLV.lig_0>
-127.307

>  <SCORE.INTRA.VDW>
-0.0124441

>  <SCORE.INTRA.VDW.0>
-2.19936

>  <SCORE.INTRA.norm>
0.0165068

>  <SCORE.RESTR>
0.0204039

>  <SCORE.RESTR.CAVITY>
0.0204039

>  <SCORE.RESTR.norm>
0.000443563

>  <SCORE.SYSTEM>
0

>  <SCORE.SYSTEM.CONST>
0

>  <SCORE.SYSTEM.DIHEDRAL>
0

>  <SCORE.SYSTEM.SOLV>
0

>  <SCORE.SYSTEM.norm>
0

>  <SCORE.heavy>
46

>  <SCORE.norm>
-0.345943

>  <RMSD>
5.839

$$$$
ligand
 OpenBabel02271912143D
libRbt.so/2013.1/901 2013/11/27
 46 52  0  0  0  0  0  0  0  0999 V2000
  156.8017   45.8591  146.4040 P   0  0  1  0  0  0  0  0  0  0  0  0
  161.8559   44.9160  148.8527 P   0  0  1  0  0  0  0  0  0  0  0  0
  156.4201   44.8876  145.3170 O   0  5  0  0  0  0  0  0  0  0  0  0
  155.7314   46.8284  146.8566 O   0  0  0  0  0  0  0  0  0  0  0  0
  157.0749   45.3570  148.9872 C   0  0  0  0  0  0  0  0  0  0  0  0
  157.3947   45.0231  147.6428 O   0  0  0  0  0  0  0  0  0  0  0  0
  158.0530   44.6848  149.9365 C   0  0  1  0  0  0  0  0  0  0  0  0
  157.3996   43.5678  150.5225 O   0  0  0  0  0  0  0  0  0  0  0  0
  159.3271   44.1462  149.2982 C   0  0  1  0  0  0  0  0  0  0  0  0
  160.4111   45.0171  149.5865 O   0  0  0  0  0  0  0  0  0  0  0  0
  159.5640   42.8437  150.0292 C   0  0  1  0  0  0  0  0  0  0  0  0
  160.3734   43.0812  151.1826 O   0  0  0  0  0  0  0  0  0  0  0  0
  158.2163   42.4070  150.5256 C   0  0  2  0  0  0  0  0  0  0  0  0
  160.6791   45.5160  143.5947 C   0  0  1  0  0  0  0  0  0  0  0  0
  155.9129   37.7257  149.9539 N   0  0  0  0  0  0  0  0  0  0  0  0
  156.3500   38.3470  151.0656 C   0  0  1  0  0  0  0  0  0  0  0  0
  159.2307   45.5525  144.0354 C   0  0  2  0  0  0  0  0  0  0  0  0
  156.2073   37.7321  152.2609 N   0  0  0  0  0  0  0  0  0  0  0  0
  158.5751   46.5683  143.2712 O   0  0  0  0  0  0  0  0  0  0  0  0
  159.2666   45.9225  145.5065 C   0  0  2  0  0  0  0  0  0  0  0  0
  156.9351   39.5662  151.0590 N   0  0  0  0  0  0  0  0  0  0  0  0
  158.1053   46.6570  145.8911 O   0  0  0  0  0  0  0  0  0  0  0  0
  157.1165   40.2428  149.9048 C   0  0  2  0  0  0  0  0  0  0  0  0
  160.5394   46.7612  145.5994 C   0  0  2  0  0  0  0  0  0  0  0  0
  161.3760   46.3654  144.5102 O   0  0  0  0  0  0  0  0  0  0  0  0
  156.6656   39.6249  148.6539 C   0  0  2  0  0  0  0  0  0  0  0  0
  161.3159   46.6191  146.9122 C   0  0  0  0  0  0  0  0  0  0  0  0
  161.4896   45.2621  147.3180 O   0  0  0  0  0  0  0  0  0  0  0  0
  156.0331   38.2875  148.7388 C   0  0  0  0  0  0  0  0  0  0  0  0
  155.6260   37.7131  147.7004 O   0  0  0  0  0  0  0  0  0  0  0  0
  156.9690   40.4971  147.6760 N   0  0  0  0  0  0  0  0  0  0  0  0
  157.5580   41.5765  148.2445 C   0  0  0  0  0  0  0  0  0  0  0  0
  157.6440   41.4222  149.5772 N   0  0  1  0  0  0  0  0  0  0  0  0
  160.2924   40.4883  142.1083 N   0  0  0  0  0  0  0  0  0  0  0  0
  162.7003   46.0354  149.4322 O   0  5  0  0  0  0  0  0  0  0  0  0
  159.5815   41.5578  141.7190 C   0  0  2  0  0  0  0  0  0  0  0  0
  158.6142   41.3594  140.8111 N   0  0  0  0  0  0  0  0  0  0  0  0
  162.3326   43.4844  148.8921 O   0  0  0  0  0  0  0  0  0  0  0  0
  159.7932   42.8095  142.1889 N   0  0  0  0  0  0  0  0  0  0  0  0
  160.7608   43.0483  143.0989 C   0  0  1  0  0  0  0  0  0  0  0  0
  161.5782   41.9119  143.5689 C   0  0  1  0  0  0  0  0  0  0  0  0
  161.2857   40.5738  142.9948 C   0  0  0  0  0  0  0  0  0  0  0  0
  161.9165   39.5487  143.3313 O   0  0  0  0  0  0  0  0  0  0  0  0
  162.4558   42.4159  144.4509 N   0  0  0  0  0  0  0  0  0  0  0  0
  162.2134   43.7534  144.5386 C   0  0  0  0  0  0  0  0  0  0  0  0
  161.2043   44.1348  143.7307 N   0  0  2  0  0  0  0  0  0  0  0  0
  1  3  1  6  0  0  0
  1  4  2  0  0  0  0
  1  6  1  0  0  0  0
  1 22  1  0  0  0  0
  2 28  1  0  0  0  0
  2 35  1  1  0  0  0
  2 38  2  0  0  0  0
  2 10  1  0  0  0  0
  5  6  1  0  0  0  0
  7  5  1  6  0  0  0
  7  8  1  0  0  0  0
  7  9  1  0  0  0  0
  9 10  1  1  0  0  0
  9 11  1  0  0  0  0
 11 12  1  1  0  0  0
 11 13  1  0  0  0  0
 13  8  1  6  0  0  0
 13 33  1  0  0  0  0
 14 46  1  0  0  0  0
 14 17  1  0  0  0  0
 14 25  1  1  0  0  0
 15 16  1  0  0  0  0
 15 29  1  0  0  0  0
 16 18  1  6  0  0  0
 16 21  1  0  0  0  0
 17 19  1  6  0  0  0
 17 20  1  0  0  0  0
 20 22  1  6  0  0  0
 20 24  1  0  0  0  0
 23 21  1  6  0  0  0
 23 26  1  0  0  0  0
 23 33  1  0  0  0  0
 24 25  1  6  0  0  0
 24 27  1  0  0  0  0
 26 29  1  6  0  0  0
 26 31  1  0  0  0  0
 27 28  1  0  0  0  0
 29 30  2  0  0  0  0
 31 32  1  0  0  0  0
 33 32  1  1  0  0  0
 34 36  1  0  0  0  0
 34 42  1  0  0  0  0
 36 37  1  6  0  0  0
 36 39  1  0  0  0  0
 40 39  1  6  0  0  0
 40 41  1  0  0  0  0
 40 46  1  0  0  0  0
 41 42  1  6  0  0  0
 41 44  1  0  0  0  0
 42 43  2  0  0  0  0
 44 45  1  0  0  0  0
 46 45  1  1  0  0  0
M  CHG  2   3  -1  35  -1
M  END
>  <CHROM.1>
-113.74698260,61.51351391,159.08696885,43.20828411,146.96662502,-0.19258483
1.12707042,0.85917524

>  <Name>
ligand

>  <RI>
0

>  <Rbt.Current_Directory>
/home/itssahil/PROJECTS/Mol_Feturizer/Test_systems_manuscript/rnas/4yb0

>  <Rbt.Executable>
rbdock ($Id: //depot/dev/client3/rdock/2013.1/src/exe/rbdock.cxx#4 $)

>  <Rbt.Library>
libRbt.so (2013.1, Build901 2013/11/27)

>  <Rbt.Parameter_File>
/export/apps/rDock/src/rDock_2013.1_src/data/scripts/dock_solv.prm

>  <Rbt.Receptor>
prm/pocket_docking_8.prm

>  <SCORE>
-17.1142

>  <SCORE.INTER>
-17.0415

>  <SCORE.INTER.CONST>
1

>  <SCORE.INTER.POLAR>
0

>  <SCORE.INTER.ROT>
2

>  <SCORE.INTER.SOLV>
22.3795

>  <SCORE.INTER.VDW>
-23.7542

>  <SCORE.INTER.norm>
-0.370468

>  <SCORE.INTRA>
-0.0726913

>  <SCORE.INTRA.DIHEDRAL>
-0.0319664

>  <SCORE.INTRA.DIHEDRAL.0>
2.42188

>  <SCORE.INTRA.POLAR>
0

>  <SCORE.INTRA.POLAR.0>
0

>  <SCORE.INTRA.REPUL>
0

>  <SCORE.INTRA.REPUL.0>
0

>  <SCORE.INTRA.SOLV>
-0.0153069

>  <SCORE.INTRA.SOLV.lig_0>
-127.307

>  <SCORE.INTRA.VDW>
-0.0490546

>  <SCORE.INTRA.VDW.0>
-2.19936

>  <SCORE.INTRA.norm>
-0.00158024

>  <SCORE.RESTR>
0

>  <SCORE.RESTR.CAVITY>
0

>  <SCORE.RESTR.norm>
0

>  <SCORE.SYSTEM>
0

>  <SCORE.SYSTEM.CONST>
0

>  <SCORE.SYSTEM.DIHEDRAL>
0

>  <SCORE.SYSTEM.SOLV>
0

>  <SCORE.SYSTEM.norm>
0

>  <SCORE.heavy>
46

>  <SCORE.norm>
-0.372048

>  <RMSD>
5.847

$$$$
ligand
 OpenBabel02271912143D
libRbt.so/2013.1/901 2013/11/27
 46 52  0  0  0  0  0  0  0  0999 V2000
  161.2692   45.8550  150.5730 P   0  0  1  0  0  0  0  0  0  0  0  0
  161.7880   47.9624  145.3079 P   0  0  1  0  0  0  0  0  0  0  0  0
  159.9700   45.1472  150.8594 O   0  5  0  0  0  0  0  0  0  0  0  0
  162.3501   45.7457  151.6263 O   0  0  0  0  0  0  0  0  0  0  0  0
  163.1789   45.0995  148.9051 C   0  0  0  0  0  0  0  0  0  0  0  0
  161.8023   45.3693  149.1359 O   0  0  0  0  0  0  0  0  0  0  0  0
  163.4556   45.0497  147.4115 C   0  0  1  0  0  0  0  0  0  0  0  0
  163.5779   43.6861  147.0324 O   0  0  0  0  0  0  0  0  0  0  0  0
  162.3727   45.6440  146.5200 C   0  0  1  0  0  0  0  0  0  0  0  0
  162.7853   46.9200  146.0528 O   0  0  0  0  0  0  0  0  0  0  0  0
  162.3327   44.7015  145.3381 C   0  0  1  0  0  0  0  0  0  0  0  0
  163.2484   45.1488  144.3365 O   0  0  0  0  0  0  0  0  0  0  0  0
  162.8530   43.3893  145.8488 C   0  0  2  0  0  0  0  0  0  0  0  0
  157.8414   48.7879  148.9321 C   0  0  1  0  0  0  0  0  0  0  0  0
  160.4821   40.6035  149.6124 N   0  0  0  0  0  0  0  0  0  0  0  0
  161.6196   41.3229  149.6523 C   0  0  1  0  0  0  0  0  0  0  0  0
  158.5589   47.7618  149.7840 C   0  0  2  0  0  0  0  0  0  0  0  0
  162.3164   41.3864  150.8089 N   0  0  0  0  0  0  0  0  0  0  0  0
  158.5295   48.2299  151.1353 O   0  0  0  0  0  0  0  0  0  0  0  0
  159.9810   47.7241  149.2567 C   0  0  2  0  0  0  0  0  0  0  0  0
  162.1171   41.9936  148.5886 N   0  0  0  0  0  0  0  0  0  0  0  0
  160.9141   47.4013  150.2870 O   0  0  0  0  0  0  0  0  0  0  0  0
  161.4809   41.9761  147.3978 C   0  0  2  0  0  0  0  0  0  0  0  0
  160.1695   49.1448  148.7291 C   0  0  2  0  0  0  0  0  0  0  0  0
  158.8663   49.6538  148.4371 O   0  0  0  0  0  0  0  0  0  0  0  0
  160.2359   41.2106  147.2812 C   0  0  2  0  0  0  0  0  0  0  0  0
  161.0506   49.2623  147.4815 C   0  0  0  0  0  0  0  0  0  0  0  0
  160.7214   48.3112  146.4699 O   0  0  0  0  0  0  0  0  0  0  0  0
  159.7516   40.5014  148.4889 C   0  0  0  0  0  0  0  0  0  0  0  0
  158.6904   39.8335  148.4472 O   0  0  0  0  0  0  0  0  0  0  0  0
  159.8247   41.3579  146.0092 N   0  0  0  0  0  0  0  0  0  0  0  0
  160.7199   42.1464  145.3674 C   0  0  0  0  0  0  0  0  0  0  0  0
  161.7086   42.5154  146.2003 N   0  0  1  0  0  0  0  0  0  0  0  0
  156.4374   44.2296  146.7212 N   0  0  0  0  0  0  0  0  0  0  0  0
  162.6196   49.1943  145.0034 O   0  5  0  0  0  0  0  0  0  0  0  0
  157.0570   44.4653  147.8880 C   0  0  2  0  0  0  0  0  0  0  0  0
  157.3854   43.4031  148.6385 N   0  0  0  0  0  0  0  0  0  0  0  0
  161.0430   47.2389  144.2125 O   0  0  0  0  0  0  0  0  0  0  0  0
  157.3584   45.7054  148.3390 N   0  0  0  0  0  0  0  0  0  0  0  0
  157.0387   46.7978  147.6139 C   0  0  1  0  0  0  0  0  0  0  0  0
  156.3560   46.6055  146.3188 C   0  0  1  0  0  0  0  0  0  0  0  0
  156.0541   45.2118  145.9038 C   0  0  0  0  0  0  0  0  0  0  0  0
  155.4849   44.9434  144.8240 O   0  0  0  0  0  0  0  0  0  0  0  0
  156.1509   47.8320  145.8130 N   0  0  0  0  0  0  0  0  0  0  0  0
  156.6637   48.7247  146.7048 C   0  0  0  0  0  0  0  0  0  0  0  0
  157.1918   48.1110  147.7823 N   0  0  2  0  0  0  0  0  0  0  0  0
  1  3  1  1  0  0  0
  1  4  2  0  0  0  0
  1  6  1  0  0  0  0
  1 22  1  0  0  0  0
  2 28  1  0  0  0  0
  2 35  1  6  0  0  0
  2 38  2  0  0  0  0
  2 10  1  0  0  0  0
  5  6  1  0  0  0  0
  7  5  1  1  0  0  0
  7  8  1  0  0  0  0
  7  9  1  0  0  0  0
  9 10  1  6  0  0  0
  9 11  1  0  0  0  0
 11 12  1  6  0  0  0
 11 13  1  0  0  0  0
 13  8  1  1  0  0  0
 13 33  1  0  0  0  0
 14 46  1  0  0  0  0
 14 17  1  0  0  0  0
 14 25  1  6  0  0  0
 15 16  1  0  0  0  0
 15 29  1  0  0  0  0
 16 18  1  6  0  0  0
 16 21  1  0  0  0  0
 17 19  1  1  0  0  0
 17 20  1  0  0  0  0
 20 22  1  1  0  0  0
 20 24  1  0  0  0  0
 23 21  1  6  0  0  0
 23 26  1  0  0  0  0
 23 33  1  0  0  0  0
 24 25  1  6  0  0  0
 24 27  1  0  0  0  0
 26 29  1  6  0  0  0
 26 31  1  0  0  0  0
 27 28  1  0  0  0  0
 29 30  2  0  0  0  0
 31 32  1  0  0  0  0
 33 32  1  1  0  0  0
 34 36  1  0  0  0  0
 34 42  1  0  0  0  0
 36 37  1  1  0  0  0
 36 39  1  0  0  0  0
 40 39  1  1  0  0  0
 40 41  1  0  0  0  0
 40 46  1  0  0  0  0
 41 42  1  1  0  0  0
 41 44  1  0  0  0  0
 42 43  2  0  0  0  0
 44 45  1  0  0  0  0
 46 45  1  6  0  0  0
M  CHG  2   3  -1  35  -1
M  END
>  <CHROM.1>
-6.83814881,10.97999994,160.20535273,45.43450184,147.70163758,-1.20492932
0.09271731,-0.15681474

>  <Name>
ligand

>  <RI>
0

>  <Rbt.Current_Directory>
/home/itssahil/PROJECTS/Mol_Feturizer/Test_systems_manuscript/rnas/4yb0

>  <Rbt.Executable>
rbdock ($Id: //depot/dev/client3/rdock/2013.1/src/exe/rbdock.cxx#4 $)

>  <Rbt.Library>
libRbt.so (2013.1, Build901 2013/11/27)

>  <Rbt.Parameter_File>
/export/apps/rDock/src/rDock_2013.1_src/data/scripts/dock_solv.prm

>  <Rbt.Receptor>
prm/pocket_docking_8.prm

>  <SCORE>
-12.6594

>  <SCORE.INTER>
-13.4882

>  <SCORE.INTER.CONST>
1

>  <SCORE.INTER.POLAR>
0

>  <SCORE.INTER.ROT>
2

>  <SCORE.INTER.SOLV>
8.33799

>  <SCORE.INTER.VDW>
-16.7048

>  <SCORE.INTER.norm>
-0.293221

>  <SCORE.INTRA>
0.828797

>  <SCORE.INTRA.DIHEDRAL>
0.00354784

>  <SCORE.INTRA.DIHEDRAL.0>
2.42188

>  <SCORE.INTRA.POLAR>
0

>  <SCORE.INTRA.POLAR.0>
0

>  <SCORE.INTRA.REPUL>
0

>  <SCORE.INTRA.REPUL.0>
0

>  <SCORE.INTRA.SOLV>
2.83655

>  <SCORE.INTRA.SOLV.lig_0>
-127.307

>  <SCORE.INTRA.VDW>
-0.591251

>  <SCORE.INTRA.VDW.0>
-2.19936

>  <SCORE.INTRA.norm>
0.0180173

>  <SCORE.RESTR>
0

>  <SCORE.RESTR.CAVITY>
0

>  <SCORE.RESTR.norm>
0

>  <SCORE.SYSTEM>
0

>  <SCORE.SYSTEM.CONST>
0

>  <SCORE.SYSTEM.DIHEDRAL>
0

>  <SCORE.SYSTEM.SOLV>
0

>  <SCORE.SYSTEM.norm>
0

>  <SCORE.heavy>
46

>  <SCORE.norm>
-0.275204

>  <RMSD>
5.847

$$$$
ligand
 OpenBabel02271912143D
libRbt.so/2013.1/901 2013/11/27
 46 52  0  0  0  0  0  0  0  0999 V2000
  156.7590   45.7894  146.4681 P   0  0  1  0  0  0  0  0  0  0  0  0
  161.7788   44.7982  148.9680 P   0  0  1  0  0  0  0  0  0  0  0  0
  156.3949   44.8422  145.3540 O   0  5  0  0  0  0  0  0  0  0  0  0
  155.6806   46.7467  146.9269 O   0  0  0  0  0  0  0  0  0  0  0  0
  156.9957   45.2293  149.0429 C   0  0  0  0  0  0  0  0  0  0  0  0
  157.3354   44.9264  147.6961 O   0  0  0  0  0  0  0  0  0  0  0  0
  157.9611   44.5371  149.9909 C   0  0  1  0  0  0  0  0  0  0  0  0
  157.3011   43.4063  150.5419 O   0  0  0  0  0  0  0  0  0  0  0  0
  159.2452   44.0150  149.3592 C   0  0  1  0  0  0  0  0  0  0  0  0
  160.3234   44.8806  149.6828 O   0  0  0  0  0  0  0  0  0  0  0  0
  159.4738   42.6966  150.0639 C   0  0  1  0  0  0  0  0  0  0  0  0
  160.2660   42.9090  151.2340 O   0  0  0  0  0  0  0  0  0  0  0  0
  158.1198   42.2468  150.5306 C   0  0  2  0  0  0  0  0  0  0  0  0
  160.6773   45.5155  143.7084 C   0  0  1  0  0  0  0  0  0  0  0  0
  155.8362   37.5750  149.8195 N   0  0  0  0  0  0  0  0  0  0  0  0
  156.2565   38.1714  150.9512 C   0  0  1  0  0  0  0  0  0  0  0  0
  159.2226   45.5399  144.1287 C   0  0  2  0  0  0  0  0  0  0  0  0
  156.0989   37.5287  152.1299 N   0  0  0  0  0  0  0  0  0  0  0  0
  158.5764   46.5718  143.3782 O   0  0  0  0  0  0  0  0  0  0  0  0
  159.2366   45.8765  145.6081 C   0  0  2  0  0  0  0  0  0  0  0  0
  156.8385   39.3917  150.9808 N   0  0  0  0  0  0  0  0  0  0  0  0
  158.0685   46.6005  145.9923 O   0  0  0  0  0  0  0  0  0  0  0  0
  157.0339   40.0951  149.8450 C   0  0  2  0  0  0  0  0  0  0  0  0
  160.5064   46.7147  145.7384 C   0  0  2  0  0  0  0  0  0  0  0  0
  161.3594   46.3449  144.6529 O   0  0  0  0  0  0  0  0  0  0  0  0
  156.6018   39.5053  148.5741 C   0  0  2  0  0  0  0  0  0  0  0  0
  161.2641   46.5441  147.0588 C   0  0  0  0  0  0  0  0  0  0  0  0
  161.4342   45.1784  147.4363 O   0  0  0  0  0  0  0  0  0  0  0  0
  155.9715   38.1649  148.6195 C   0  0  0  0  0  0  0  0  0  0  0  0
  155.5802   37.6138  147.5625 O   0  0  0  0  0  0  0  0  0  0  0  0
  156.9164   40.4005  147.6209 N   0  0  0  0  0  0  0  0  0  0  0  0
  157.4949   41.4678  148.2221 C   0  0  0  0  0  0  0  0  0  0  0  0
  157.5630   41.2829  149.5520 N   0  0  1  0  0  0  0  0  0  0  0  0
  160.4020   40.5458  142.0159 N   0  0  0  0  0  0  0  0  0  0  0  0
  162.6128   45.9054  149.5848 O   0  5  0  0  0  0  0  0  0  0  0  0
  159.7065   41.6264  141.6292 C   0  0  2  0  0  0  0  0  0  0  0  0
  158.7907   41.4584  140.6636 N   0  0  0  0  0  0  0  0  0  0  0  0
  162.2575   43.3668  148.9819 O   0  0  0  0  0  0  0  0  0  0  0  0
  159.8849   42.8603  142.1564 N   0  0  0  0  0  0  0  0  0  0  0  0
  160.8006   43.0685  143.1256 C   0  0  1  0  0  0  0  0  0  0  0  0
  161.5985   41.9186  143.5962 C   0  0  1  0  0  0  0  0  0  0  0  0
  161.3455   40.6019  142.9574 C   0  0  0  0  0  0  0  0  0  0  0  0
  161.9637   39.5674  143.2888 O   0  0  0  0  0  0  0  0  0  0  0  0
  162.4244   42.3925  144.5425 N   0  0  0  0  0  0  0  0  0  0  0  0
  162.1694   43.7247  144.6670 C   0  0  0  0  0  0  0  0  0  0  0  0
  161.2028   44.1322  143.8207 N   0  0  2  0  0  0  0  0  0  0  0  0
  1  3  1  6  0  0  0
  1  4  2  0  0  0  0
  1  6  1  0  0  0  0
  1 22  1  0  0  0  0
  2 28  1  0  0  0  0
  2 35  1  1  0  0  0
  2 38  2  0  0  0  0
  2 10  1  0  0  0  0
  5  6  1  0  0  0  0
  7  5  1  6  0  0  0
  7  8  1  0  0  0  0
  7  9  1  0  0  0  0
  9 10  1  1  0  0  0
  9 11  1  0  0  0  0
 11 12  1  1  0  0  0
 11 13  1  0  0  0  0
 13  8  1  6  0  0  0
 13 33  1  0  0  0  0
 14 46  1  0  0  0  0
 14 17  1  0  0  0  0
 14 25  1  1  0  0  0
 15 16  1  0  0  0  0
 15 29  1  0  0  0  0
 16 18  1  6  0  0  0
 16 21  1  0  0  0  0
 17 19  1  6  0  0  0
 17 20  1  0  0  0  0
 20 22  1  6  0  0  0
 20 24  1  0  0  0  0
 23 21  1  6  0  0  0
 23 26  1  0  0  0  0
 23 33  1  0  0  0  0
 24 25  1  6  0  0  0
 24 27  1  0  0  0  0
 26 29  1  6  0  0  0
 26 31  1  0  0  0  0
 27 28  1  0  0  0  0
 29 30  2  0  0  0  0
 31 32  1  0  0  0  0
 33 32  1  1  0  0  0
 34 36  1  0  0  0  0
 34 42  1  0  0  0  0
 36 37  1  6  0  0  0
 36 39  1  0  0  0  0
 40 39  1  6  0  0  0
 40 41  1  0  0  0  0
 40 46  1  0  0  0  0
 41 42  1  6  0  0  0
 41 44  1  0  0  0  0
 42 43  2  0  0  0  0
 44 45  1  0  0  0  0
 46 45  1  1  0  0  0
M  CHG  2   3  -1  35  -1
M  END
>  <CHROM.1>
-113.81546575,63.93921430,159.04966298,43.13212769,146.99417552,-0.16548419
1.11895128,0.84126309

>  <Name>
ligand

>  <RI>
0

>  <Rbt.Current_Directory>
/home/itssahil/PROJECTS/Mol_Feturizer/Test_systems_manuscript/rnas/4yb0

>  <Rbt.Executable>
rbdock ($Id: //depot/dev/client3/rdock/2013.1/src/exe/rbdock.cxx#4 $)

>  <Rbt.Library>
libRbt.so (2013.1, Build901 2013/11/27)

>  <Rbt.Parameter_File>
/export/apps/rDock/src/rDock_2013.1_src/data/scripts/dock_solv.prm

>  <Rbt.Receptor>
prm/pocket_docking_8.prm

>  <SCORE>
-16.9813

>  <SCORE.INTER>
-16.9049

>  <SCORE.INTER.CONST>
1

>  <SCORE.INTER.POLAR>
0

>  <SCORE.INTER.ROT>
2

>  <SCORE.INTER.SOLV>
22.4952

>  <SCORE.INTER.VDW>
-23.7016

>  <SCORE.INTER.norm>
-0.367497

>  <SCORE.INTRA>
-0.0764613

>  <SCORE.INTRA.DIHEDRAL>
-0.0356488

>  <SCORE.INTRA.DIHEDRAL.0>
2.42188

>  <SCORE.INTRA.POLAR>
0

>  <SCORE.INTRA.POLAR.0>
0

>  <SCORE.INTRA.REPUL>
0

>  <SCORE.INTRA.REPUL.0>
0

>  <SCORE.INTRA.SOLV>
-0.0165199

>  <SCORE.INTRA.SOLV.lig_0>
-127.307

>  <SCORE.INTRA.VDW>
-0.0503769

>  <SCORE.INTRA.VDW.0>
-2.19936

>  <SCORE.INTRA.norm>
-0.0016622

>  <SCORE.RESTR>
0

>  <SCORE.RESTR.CAVITY>
0

>  <SCORE.RESTR.norm>
0

>  <SCORE.SYSTEM>
0

>  <SCORE.SYSTEM.CONST>
0

>  <SCORE.SYSTEM.DIHEDRAL>
0

>  <SCORE.SYSTEM.SOLV>
0

>  <SCORE.SYSTEM.norm>
0

>  <SCORE.heavy>
46

>  <SCORE.norm>
-0.369159

>  <RMSD>
5.857

$$$$
ligand
 OpenBabel02271912143D
libRbt.so/2013.1/901 2013/11/27
 46 52  0  0  0  0  0  0  0  0999 V2000
  160.4838   43.3454  142.5449 P   0  0  1  0  0  0  0  0  0  0  0  0
  161.2688   46.3601  147.3121 P   0  0  1  0  0  0  0  0  0  0  0  0
  159.3871   42.3136  142.6073 O   0  5  0  0  0  0  0  0  0  0  0  0
  161.0990   43.6030  141.1867 O   0  0  0  0  0  0  0  0  0  0  0  0
  160.2244   45.9765  142.6396 C   0  0  0  0  0  0  0  0  0  0  0  0
  159.9359   44.7048  143.2058 O   0  0  0  0  0  0  0  0  0  0  0  0
  159.9356   47.0736  143.6510 C   0  0  1  0  0  0  0  0  0  0  0  0
  158.7037   47.6854  143.2961 O   0  0  0  0  0  0  0  0  0  0  0  0
  159.7828   46.6150  145.0957 C   0  0  1  0  0  0  0  0  0  0  0  0
  160.9585   46.9340  145.8253 O   0  0  0  0  0  0  0  0  0  0  0  0
  158.6559   47.4758  145.6212 C   0  0  1  0  0  0  0  0  0  0  0  0
  159.1901   48.6796  146.1755 O   0  0  0  0  0  0  0  0  0  0  0  0
  157.8521   47.8706  144.4164 C   0  0  2  0  0  0  0  0  0  0  0  0
  161.2050   40.9787  146.6587 C   0  0  1  0  0  0  0  0  0  0  0  0
  154.6873   44.4565  146.8401 N   0  0  0  0  0  0  0  0  0  0  0  0
  155.7445   45.1440  147.3116 C   0  0  1  0  0  0  0  0  0  0  0  0
  160.8169   41.2673  145.2235 C   0  0  2  0  0  0  0  0  0  0  0  0
  156.1093   44.9836  148.6033 N   0  0  0  0  0  0  0  0  0  0  0  0
  161.5409   40.3564  144.3918 O   0  0  0  0  0  0  0  0  0  0  0  0
  161.2556   42.6970  144.9677 C   0  0  2  0  0  0  0  0  0  0  0  0
  156.4773   45.9962  146.5594 N   0  0  0  0  0  0  0  0  0  0  0  0
  161.6163   42.8985  143.6018 O   0  0  0  0  0  0  0  0  0  0  0  0
  156.1782   46.2076  145.2598 C   0  0  2  0  0  0  0  0  0  0  0  0
  162.4488   42.8441  145.9094 C   0  0  2  0  0  0  0  0  0  0  0  0
  162.2737   41.8825  146.9521 O   0  0  0  0  0  0  0  0  0  0  0  0
  155.0392   45.4901  144.6787 C   0  0  2  0  0  0  0  0  0  0  0  0
  162.6205   44.2354  146.5270 C   0  0  0  0  0  0  0  0  0  0  0  0
  161.4056   44.7723  147.0485 O   0  0  0  0  0  0  0  0  0  0  0  0
  154.2828   44.5731  145.5636 C   0  0  0  0  0  0  0  0  0  0  0  0
  153.2975   43.9356  145.1201 O   0  0  0  0  0  0  0  0  0  0  0  0
  154.9718   45.8761  143.3922 N   0  0  0  0  0  0  0  0  0  0  0  0
  155.9722   46.7613  143.1667 C   0  0  0  0  0  0  0  0  0  0  0  0
  156.6914   46.9583  144.2853 N   0  0  1  0  0  0  0  0  0  0  0  0
  159.3802   41.1255  151.5868 N   0  0  0  0  0  0  0  0  0  0  0  0
  162.6221   46.9223  147.7051 O   0  5  0  0  0  0  0  0  0  0  0  0
  160.5902   40.7707  151.1274 C   0  0  2  0  0  0  0  0  0  0  0  0
  161.5062   40.3894  152.0300 N   0  0  0  0  0  0  0  0  0  0  0  0
  160.0573   46.5706  148.1874 O   0  0  0  0  0  0  0  0  0  0  0  0
  160.9268   40.7827  149.8163 N   0  0  0  0  0  0  0  0  0  0  0  0
  160.0333   41.1653  148.8801 C   0  0  1  0  0  0  0  0  0  0  0  0
  158.6826   41.5670  149.3215 C   0  0  1  0  0  0  0  0  0  0  0  0
  158.4001   41.5337  150.7791 C   0  0  0  0  0  0  0  0  0  0  0  0
  157.2871   41.8489  151.2525 O   0  0  0  0  0  0  0  0  0  0  0  0
  158.0053   41.9011  148.2116 N   0  0  0  0  0  0  0  0  0  0  0  0
  158.8488   41.7216  147.1574 C   0  0  0  0  0  0  0  0  0  0  0  0
  160.0611   41.2853  147.5530 N   0  0  2  0  0  0  0  0  0  0  0  0
  1  3  1  6  0  0  0
  1  4  2  0  0  0  0
  1  6  1  0  0  0  0
  1 22  1  0  0  0  0
  2 28  1  0  0  0  0
  2 35  1  1  0  0  0
  2 38  2  0  0  0  0
  2 10  1  0  0  0  0
  5  6  1  0  0  0  0
  7  5  1  6  0  0  0
  7  8  1  0  0  0  0
  7  9  1  0  0  0  0
  9 10  1  1  0  0  0
  9 11  1  0  0  0  0
 11 12  1  6  0  0  0
 11 13  1  0  0  0  0
 13  8  1  6  0  0  0
 13 33  1  0  0  0  0
 14 46  1  0  0  0  0
 14 17  1  0  0  0  0
 14 25  1  1  0  0  0
 15 16  1  0  0  0  0
 15 29  1  0  0  0  0
 16 18  1  6  0  0  0
 16 21  1  0  0  0  0
 17 19  1  6  0  0  0
 17 20  1  0  0  0  0
 20 22  1  6  0  0  0
 20 24  1  0  0  0  0
 23 21  1  6  0  0  0
 23 26  1  0  0  0  0
 23 33  1  0  0  0  0
 24 25  1  1  0  0  0
 24 27  1  0  0  0  0
 26 29  1  6  0  0  0
 26 31  1  0  0  0  0
 27 28  1  0  0  0  0
 29 30  2  0  0  0  0
 31 32  1  0  0  0  0
 33 32  1  1  0  0  0
 34 36  1  0  0  0  0
 34 42  1  0  0  0  0
 36 37  1  1  0  0  0
 36 39  1  0  0  0  0
 40 39  1  1  0  0  0
 40 41  1  0  0  0  0
 40 46  1  0  0  0  0
 41 42  1  1  0  0  0
 41 44  1  0  0  0  0
 42 43  2  0  0  0  0
 44 45  1  0  0  0  0
 46 45  1  6  0  0  0
M  CHG  2   3  -1  35  -1
M  END
>  <CHROM.1>
135.41226702,-179.43745040,159.25975917,44.16515612,146.16840118,-1.93152205
-0.40461664,2.14847912

>  <Name>
ligand

>  <RI>
0

>  <Rbt.Current_Directory>
/home/itssahil/PROJECTS/Mol_Feturizer/Test_systems_manuscript/rnas/4yb0

>  <Rbt.Executable>
rbdock ($Id: //depot/dev/client3/rdock/2013.1/src/exe/rbdock.cxx#4 $)

>  <Rbt.Library>
libRbt.so (2013.1, Build901 2013/11/27)

>  <Rbt.Parameter_File>
/export/apps/rDock/src/rDock_2013.1_src/data/scripts/dock_solv.prm

>  <Rbt.Receptor>
prm/pocket_docking_5.prm

>  <SCORE>
-19.4363

>  <SCORE.INTER>
-20.7728

>  <SCORE.INTER.CONST>
1

>  <SCORE.INTER.POLAR>
0

>  <SCORE.INTER.ROT>
2

>  <SCORE.INTER.SOLV>
20.0637

>  <SCORE.INTER.VDW>
-25.4698

>  <SCORE.INTER.norm>
-0.451583

>  <SCORE.INTRA>
1.33342

>  <SCORE.INTRA.DIHEDRAL>
-0.0397602

>  <SCORE.INTRA.DIHEDRAL.0>
2.42188

>  <SCORE.INTRA.POLAR>
0

>  <SCORE.INTRA.POLAR.0>
0

>  <SCORE.INTRA.REPUL>
0

>  <SCORE.INTRA.REPUL.0>
0

>  <SCORE.INTRA.SOLV>
0.795091

>  <SCORE.INTRA.SOLV.lig_0>
-127.307

>  <SCORE.INTRA.VDW>
0.955757

>  <SCORE.INTRA.VDW.0>
-2.19936

>  <SCORE.INTRA.norm>
0.0289874

>  <SCORE.RESTR>
0.00310089

>  <SCORE.RESTR.CAVITY>
0.00310089

>  <SCORE.RESTR.norm>
6.74107e-05

>  <SCORE.SYSTEM>
0

>  <SCORE.SYSTEM.CONST>
0

>  <SCORE.SYSTEM.DIHEDRAL>
0

>  <SCORE.SYSTEM.SOLV>
0

>  <SCORE.SYSTEM.norm>
0

>  <SCORE.heavy>
46

>  <SCORE.norm>
-0.422528

>  <RMSD>
5.860

$$$$
ligand
 OpenBabel02271912143D
libRbt.so/2013.1/901 2013/11/27
 46 52  0  0  0  0  0  0  0  0999 V2000
  160.4160   43.2971  142.4282 P   0  0  1  0  0  0  0  0  0  0  0  0
  161.2689   46.4898  147.0662 P   0  0  1  0  0  0  0  0  0  0  0  0
  159.3287   42.2607  142.5495 O   0  5  0  0  0  0  0  0  0  0  0  0
  161.0030   43.5092  141.0498 O   0  0  0  0  0  0  0  0  0  0  0  0
  160.1380   45.9281  142.4320 C   0  0  0  0  0  0  0  0  0  0  0  0
  159.8704   44.6760  143.0497 O   0  0  0  0  0  0  0  0  0  0  0  0
  159.8603   47.0593  143.4081 C   0  0  1  0  0  0  0  0  0  0  0  0
  158.6171   47.6491  143.0552 O   0  0  0  0  0  0  0  0  0  0  0  0
  159.7387   46.6529  144.8713 C   0  0  1  0  0  0  0  0  0  0  0  0
  160.9257   47.0067  145.5658 O   0  0  0  0  0  0  0  0  0  0  0  0
  158.6155   47.5244  145.3869 C   0  0  1  0  0  0  0  0  0  0  0  0
  159.1509   48.7514  145.8865 O   0  0  0  0  0  0  0  0  0  0  0  0
  157.7857   47.8691  144.1844 C   0  0  2  0  0  0  0  0  0  0  0  0
  161.2342   41.0877  146.6107 C   0  0  1  0  0  0  0  0  0  0  0  0
  154.7288   44.4820  146.7784 N   0  0  0  0  0  0  0  0  0  0  0  0
  155.7940   45.1885  147.2018 C   0  0  1  0  0  0  0  0  0  0  0  0
  160.8165   41.3209  145.1738 C   0  0  2  0  0  0  0  0  0  0  0  0
  156.2001   45.0592  148.4847 N   0  0  0  0  0  0  0  0  0  0  0  0
  161.5315   40.3852  144.3619 O   0  0  0  0  0  0  0  0  0  0  0  0
  161.2391   42.7433  144.8575 C   0  0  2  0  0  0  0  0  0  0  0  0
  156.4952   46.0302  146.4090 N   0  0  0  0  0  0  0  0  0  0  0  0
  161.5720   42.8973  143.4785 O   0  0  0  0  0  0  0  0  0  0  0  0
  156.1540   46.2109  145.1152 C   0  0  2  0  0  0  0  0  0  0  0  0
  162.4489   42.9332  145.7699 C   0  0  2  0  0  0  0  0  0  0  0  0
  162.3013   42.0091  146.8502 O   0  0  0  0  0  0  0  0  0  0  0  0
  155.0040   45.4714  144.5855 C   0  0  2  0  0  0  0  0  0  0  0  0
  162.6218   44.3473  146.3329 C   0  0  0  0  0  0  0  0  0  0  0  0
  161.4129   44.8943  146.8581 O   0  0  0  0  0  0  0  0  0  0  0  0
  154.2838   44.5675  145.5131 C   0  0  0  0  0  0  0  0  0  0  0  0
  153.2910   43.9123  145.1143 O   0  0  0  0  0  0  0  0  0  0  0  0
  154.8931   45.8289  143.2937 N   0  0  0  0  0  0  0  0  0  0  0  0
  155.8780   46.7173  143.0181 C   0  0  0  0  0  0  0  0  0  0  0  0
  156.6297   46.9446  144.1093 N   0  0  1  0  0  0  0  0  0  0  0  0
  159.3152   40.9305  151.5025 N   0  0  0  0  0  0  0  0  0  0  0  0
  162.6251   47.0755  147.4121 O   0  5  0  0  0  0  0  0  0  0  0  0
  160.4945   40.5021  151.0266 C   0  0  2  0  0  0  0  0  0  0  0  0
  161.3460   39.9424  151.8990 N   0  0  0  0  0  0  0  0  0  0  0  0
  160.0728   46.7236  147.9566 O   0  0  0  0  0  0  0  0  0  0  0  0
  160.8621   40.6095  149.7283 N   0  0  0  0  0  0  0  0  0  0  0  0
  160.0339   41.1716  148.8230 C   0  0  1  0  0  0  0  0  0  0  0  0
  158.7196   41.6625  149.2838 C   0  0  1  0  0  0  0  0  0  0  0  0
  158.4002   41.5140  150.7266 C   0  0  0  0  0  0  0  0  0  0  0  0
  157.3131   41.8921  151.2137 O   0  0  0  0  0  0  0  0  0  0  0  0
  158.1058   42.1718  148.2039 N   0  0  0  0  0  0  0  0  0  0  0  0
  158.9524   42.0127  147.1489 C   0  0  0  0  0  0  0  0  0  0  0  0
  160.1054   41.4188  147.5153 N   0  0  2  0  0  0  0  0  0  0  0  0
  1  3  1  6  0  0  0
  1  4  2  0  0  0  0
  1  6  1  0  0  0  0
  1 22  1  0  0  0  0
  2 28  1  0  0  0  0
  2 35  1  1  0  0  0
  2 38  2  0  0  0  0
  2 10  1  0  0  0  0
  5  6  1  0  0  0  0
  7  5  1  6  0  0  0
  7  8  1  0  0  0  0
  7  9  1  0  0  0  0
  9 10  1  1  0  0  0
  9 11  1  0  0  0  0
 11 12  1  6  0  0  0
 11 13  1  0  0  0  0
 13  8  1  6  0  0  0
 13 33  1  0  0  0  0
 14 46  1  0  0  0  0
 14 17  1  0  0  0  0
 14 25  1  1  0  0  0
 15 16  1  0  0  0  0
 15 29  1  0  0  0  0
 16 18  1  6  0  0  0
 16 21  1  0  0  0  0
 17 19  1  6  0  0  0
 17 20  1  0  0  0  0
 20 22  1  6  0  0  0
 20 24  1  0  0  0  0
 23 21  1  6  0  0  0
 23 26  1  0  0  0  0
 23 33  1  0  0  0  0
 24 25  1  1  0  0  0
 24 27  1  0  0  0  0
 26 29  1  6  0  0  0
 26 31  1  0  0  0  0
 27 28  1  0  0  0  0
 29 30  2  0  0  0  0
 31 32  1  0  0  0  0
 33 32  1  1  0  0  0
 34 36  1  0  0  0  0
 34 42  1  0  0  0  0
 36 37  1  1  0  0  0
 36 39  1  0  0  0  0
 40 39  1  1  0  0  0
 40 41  1  0  0  0  0
 40 46  1  0  0  0  0
 41 42  1  1  0  0  0
 41 44  1  0  0  0  0
 42 43  2  0  0  0  0
 44 45  1  0  0  0  0
 46 45  1  6  0  0  0
M  CHG  2   3  -1  35  -1
M  END
>  <CHROM.1>
134.31468098,170.33057166,159.23851896,44.18441371,146.03423510,-1.90395536
-0.39897265,2.16643968

>  <Name>
ligand

>  <RI>
0

>  <Rbt.Current_Directory>
/home/itssahil/PROJECTS/Mol_Feturizer/Test_systems_manuscript/rnas/4yb0

>  <Rbt.Executable>
rbdock ($Id: //depot/dev/client3/rdock/2013.1/src/exe/rbdock.cxx#4 $)

>  <Rbt.Library>
libRbt.so (2013.1, Build901 2013/11/27)

>  <Rbt.Parameter_File>
/export/apps/rDock/src/rDock_2013.1_src/data/scripts/dock_solv.prm

>  <Rbt.Receptor>
prm/pocket_docking_5.prm

>  <SCORE>
-19.3746

>  <SCORE.INTER>
-20.7497

>  <SCORE.INTER.CONST>
1

>  <SCORE.INTER.POLAR>
0

>  <SCORE.INTER.ROT>
2

>  <SCORE.INTER.SOLV>
20.0087

>  <SCORE.INTER.VDW>
-25.436

>  <SCORE.INTER.norm>
-0.451081

>  <SCORE.INTRA>
1.37204

>  <SCORE.INTRA.DIHEDRAL>
-0.0232543

>  <SCORE.INTRA.DIHEDRAL.0>
2.42188

>  <SCORE.INTRA.POLAR>
0

>  <SCORE.INTRA.POLAR.0>
0

>  <SCORE.INTRA.REPUL>
0

>  <SCORE.INTRA.REPUL.0>
0

>  <SCORE.INTRA.SOLV>
0.949433

>  <SCORE.INTRA.SOLV.lig_0>
-127.307

>  <SCORE.INTRA.VDW>
0.90895

>  <SCORE.INTRA.VDW.0>
-2.19936

>  <SCORE.INTRA.norm>
0.0298269

>  <SCORE.RESTR>
0.00307202

>  <SCORE.RESTR.CAVITY>
0.00307202

>  <SCORE.RESTR.norm>
6.67831e-05

>  <SCORE.SYSTEM>
0

>  <SCORE.SYSTEM.CONST>
0

>  <SCORE.SYSTEM.DIHEDRAL>
0

>  <SCORE.SYSTEM.SOLV>
0

>  <SCORE.SYSTEM.norm>
0

>  <SCORE.heavy>
46

>  <SCORE.norm>
-0.421187

>  <RMSD>
5.869

$$$$
ligand
 OpenBabel02271912143D
libRbt.so/2013.1/901 2013/11/27
 46 52  0  0  0  0  0  0  0  0999 V2000
  160.3677   43.1925  142.5766 P   0  0  1  0  0  0  0  0  0  0  0  0
  161.6945   47.1120  146.4892 P   0  0  1  0  0  0  0  0  0  0  0  0
  159.3545   42.1648  143.0107 O   0  5  0  0  0  0  0  0  0  0  0  0
  160.7531   43.1922  141.1134 O   0  0  0  0  0  0  0  0  0  0  0  0
  159.9747   45.7824  142.2061 C   0  0  0  0  0  0  0  0  0  0  0  0
  159.8495   44.6409  143.0442 O   0  0  0  0  0  0  0  0  0  0  0  0
  159.7806   47.0500  143.0218 C   0  0  1  0  0  0  0  0  0  0  0  0
  158.4759   47.5465  142.7588 O   0  0  0  0  0  0  0  0  0  0  0  0
  159.8762   46.8830  144.5330 C   0  0  1  0  0  0  0  0  0  0  0  0
  161.1290   47.3714  144.9896 O   0  0  0  0  0  0  0  0  0  0  0  0
  158.7948   47.8006  145.0580 C   0  0  1  0  0  0  0  0  0  0  0  0
  159.3370   49.1042  145.2784 O   0  0  0  0  0  0  0  0  0  0  0  0
  157.7956   47.9273  143.9449 C   0  0  2  0  0  0  0  0  0  0  0  0
  161.8418   41.7080  146.8972 C   0  0  1  0  0  0  0  0  0  0  0  0
  155.0970   45.1528  147.4898 N   0  0  0  0  0  0  0  0  0  0  0  0
  156.1545   45.9704  147.6510 C   0  0  1  0  0  0  0  0  0  0  0  0
  161.2238   41.6961  145.5147 C   0  0  2  0  0  0  0  0  0  0  0  0
  156.6567   46.1578  148.8920 N   0  0  0  0  0  0  0  0  0  0  0  0
  161.8640   40.6579  144.7675 O   0  0  0  0  0  0  0  0  0  0  0  0
  161.5354   43.0579  144.9227 C   0  0  2  0  0  0  0  0  0  0  0  0
  156.7564   46.6234  146.6311 N   0  0  0  0  0  0  0  0  0  0  0  0
  161.6717   42.9943  143.5037 O   0  0  0  0  0  0  0  0  0  0  0  0
  156.3156   46.4853  145.3624 C   0  0  2  0  0  0  0  0  0  0  0  0
  162.8475   43.4203  145.6148 C   0  0  2  0  0  0  0  0  0  0  0  0
  162.8889   42.6801  146.8367 O   0  0  0  0  0  0  0  0  0  0  0  0
  155.1676   45.6081  145.1125 C   0  0  2  0  0  0  0  0  0  0  0  0
  163.0310   44.9105  145.9188 C   0  0  0  0  0  0  0  0  0  0  0  0
  161.8807   45.5076  146.5161 O   0  0  0  0  0  0  0  0  0  0  0  0
  154.5595   44.9258  146.2790 C   0  0  0  0  0  0  0  0  0  0  0  0
  153.5733   44.1659  146.1239 O   0  0  0  0  0  0  0  0  0  0  0  0
  154.9480   45.6493  143.7863 N   0  0  0  0  0  0  0  0  0  0  0  0
  155.8670   46.4774  143.2343 C   0  0  0  0  0  0  0  0  0  0  0  0
  156.6828   46.9766  144.1791 N   0  0  1  0  0  0  0  0  0  0  0  0
  157.8875   40.3440  150.0817 N   0  0  0  0  0  0  0  0  0  0  0  0
  163.0572   47.7767  146.5448 O   0  5  0  0  0  0  0  0  0  0  0  0
  158.6400   39.5849  149.2704 C   0  0  2  0  0  0  0  0  0  0  0  0
  158.3784   38.2697  149.2367 N   0  0  0  0  0  0  0  0  0  0  0  0
  160.6203   47.4594  147.4910 O   0  0  0  0  0  0  0  0  0  0  0  0
  159.6383   40.0750  148.4987 N   0  0  0  0  0  0  0  0  0  0  0  0
  159.9338   41.3917  148.5103 C   0  0  1  0  0  0  0  0  0  0  0  0
  159.1408   42.2814  149.3822 C   0  0  1  0  0  0  0  0  0  0  0  0
  158.0705   41.6599  150.2031 C   0  0  0  0  0  0  0  0  0  0  0  0
  157.3408   42.3271  150.9676 O   0  0  0  0  0  0  0  0  0  0  0  0
  159.6353   43.5177  149.2117 N   0  0  0  0  0  0  0  0  0  0  0  0
  160.6488   43.4233  148.3067 C   0  0  0  0  0  0  0  0  0  0  0  0
  160.8317   42.1553  147.8881 N   0  0  2  0  0  0  0  0  0  0  0  0
  1  3  1  1  0  0  0
  1  4  2  0  0  0  0
  1  6  1  0  0  0  0
  1 22  1  0  0  0  0
  2 28  1  0  0  0  0
  2 35  1  1  0  0  0
  2 38  2  0  0  0  0
  2 10  1  0  0  0  0
  5  6  1  0  0  0  0
  7  5  1  6  0  0  0
  7  8  1  0  0  0  0
  7  9  1  0  0  0  0
  9 10  1  1  0  0  0
  9 11  1  0  0  0  0
 11 12  1  6  0  0  0
 11 13  1  0  0  0  0
 13  8  1  6  0  0  0
 13 33  1  0  0  0  0
 14 46  1  0  0  0  0
 14 17  1  0  0  0  0
 14 25  1  6  0  0  0
 15 16  1  0  0  0  0
 15 29  1  0  0  0  0
 16 18  1  6  0  0  0
 16 21  1  0  0  0  0
 17 19  1  6  0  0  0
 17 20  1  0  0  0  0
 20 22  1  6  0  0  0
 20 24  1  0  0  0  0
 23 21  1  6  0  0  0
 23 26  1  0  0  0  0
 23 33  1  0  0  0  0
 24 25  1  1  0  0  0
 24 27  1  0  0  0  0
 26 29  1  6  0  0  0
 26 31  1  0  0  0  0
 27 28  1  0  0  0  0
 29 30  2  0  0  0  0
 31 32  1  0  0  0  0
 33 32  1  1  0  0  0
 34 36  1  0  0  0  0
 34 42  1  0  0  0  0
 36 37  1  1  0  0  0
 36 39  1  0  0  0  0
 40 39  1  1  0  0  0
 40 41  1  0  0  0  0
 40 46  1  0  0  0  0
 41 42  1  1  0  0  0
 41 44  1  0  0  0  0
 42 43  2  0  0  0  0
 44 45  1  0  0  0  0
 46 45  1  6  0  0  0
M  CHG  2   3  -1  35  -1
M  END
>  <CHROM.1>
139.88728995,85.98056749,159.33305580,44.43536019,145.92608922,-1.64828420
-0.38624567,2.43698332

>  <Name>
ligand

>  <RI>
0

>  <Rbt.Current_Directory>
/home/itssahil/PROJECTS/Mol_Feturizer/Test_systems_manuscript/rnas/4yb0

>  <Rbt.Executable>
rbdock ($Id: //depot/dev/client3/rdock/2013.1/src/exe/rbdock.cxx#4 $)

>  <Rbt.Library>
libRbt.so (2013.1, Build901 2013/11/27)

>  <Rbt.Parameter_File>
/export/apps/rDock/src/rDock_2013.1_src/data/scripts/dock_solv.prm

>  <Rbt.Receptor>
prm/pocket_docking_7.prm

>  <SCORE>
-19.4282

>  <SCORE.INTER>
-19.7656

>  <SCORE.INTER.CONST>
1

>  <SCORE.INTER.POLAR>
0

>  <SCORE.INTER.ROT>
2

>  <SCORE.INTER.SOLV>
20.4682

>  <SCORE.INTER.VDW>
-24.9331

>  <SCORE.INTER.norm>
-0.429687

>  <SCORE.INTRA>
0.337406

>  <SCORE.INTRA.DIHEDRAL>
-0.0709541

>  <SCORE.INTRA.DIHEDRAL.0>
2.42188

>  <SCORE.INTRA.POLAR>
0

>  <SCORE.INTRA.POLAR.0>
0

>  <SCORE.INTRA.REPUL>
0

>  <SCORE.INTRA.REPUL.0>
0

>  <SCORE.INTRA.SOLV>
0.176673

>  <SCORE.INTRA.SOLV.lig_0>
-127.307

>  <SCORE.INTRA.VDW>
0.284546

>  <SCORE.INTRA.VDW.0>
-2.19936

>  <SCORE.INTRA.norm>
0.00733491

>  <SCORE.RESTR>
0

>  <SCORE.RESTR.CAVITY>
0

>  <SCORE.RESTR.norm>
0

>  <SCORE.SYSTEM>
0

>  <SCORE.SYSTEM.CONST>
0

>  <SCORE.SYSTEM.DIHEDRAL>
0

>  <SCORE.SYSTEM.SOLV>
0

>  <SCORE.SYSTEM.norm>
0

>  <SCORE.heavy>
46

>  <SCORE.norm>
-0.422352

>  <RMSD>
5.869

$$$$
ligand
 OpenBabel02271912143D
libRbt.so/2013.1/901 2013/11/27
 46 52  0  0  0  0  0  0  0  0999 V2000
  160.0283   43.9657  147.7147 P   0  0  1  0  0  0  0  0  0  0  0  0
  157.3836   48.9139  148.6907 P   0  0  1  0  0  0  0  0  0  0  0  0
  159.7266   43.3243  146.3848 O   0  5  0  0  0  0  0  0  0  0  0  0
  161.1367   43.3424  148.5348 O   0  0  0  0  0  0  0  0  0  0  0  0
  161.3288   46.2278  148.1515 C   0  0  0  0  0  0  0  0  0  0  0  0
  160.2921   45.5329  147.4709 O   0  0  0  0  0  0  0  0  0  0  0  0
  161.1071   47.7275  148.0440 C   0  0  1  0  0  0  0  0  0  0  0  0
  162.0072   48.2362  147.0699 O   0  0  0  0  0  0  0  0  0  0  0  0
  159.7140   48.1582  147.6027 C   0  0  1  0  0  0  0  0  0  0  0  0
  158.9817   48.6294  148.7244 O   0  0  0  0  0  0  0  0  0  0  0  0
  159.9815   49.3333  146.6891 C   0  0  1  0  0  0  0  0  0  0  0  0
  159.9932   50.5414  147.4523 O   0  0  0  0  0  0  0  0  0  0  0  0
  161.3754   49.1332  146.1694 C   0  0  2  0  0  0  0  0  0  0  0  0
  155.2501   44.1326  147.2839 C   0  0  1  0  0  0  0  0  0  0  0  0
  160.3201   49.7826  141.0693 N   0  0  0  0  0  0  0  0  0  0  0  0
  160.2477   50.6598  142.0883 C   0  0  1  0  0  0  0  0  0  0  0  0
  156.6815   43.6535  147.1615 C   0  0  2  0  0  0  0  0  0  0  0  0
  159.8495   51.9270  141.8371 N   0  0  0  0  0  0  0  0  0  0  0  0
  156.7413   42.3352  147.7131 O   0  0  0  0  0  0  0  0  0  0  0  0
  157.5029   44.6232  147.9904 C   0  0  2  0  0  0  0  0  0  0  0  0
  160.5506   50.3449  143.3681 N   0  0  0  0  0  0  0  0  0  0  0  0
  158.6514   43.9901  148.5530 O   0  0  0  0  0  0  0  0  0  0  0  0
  160.9527   49.0994  143.6998 C   0  0  2  0  0  0  0  0  0  0  0  0
  156.5041   45.0650  149.0578 C   0  0  2  0  0  0  0  0  0  0  0  0
  155.1989   44.8663  148.5104 O   0  0  0  0  0  0  0  0  0  0  0  0
  161.0527   48.0913  142.6397 C   0  0  2  0  0  0  0  0  0  0  0  0
  156.6451   46.5198  149.5161 C   0  0  0  0  0  0  0  0  0  0  0  0
  156.7751   47.4398  148.4330 O   0  0  0  0  0  0  0  0  0  0  0  0
  160.7049   48.5092  141.2612 C   0  0  0  0  0  0  0  0  0  0  0  0
  160.7752   47.6887  140.3148 O   0  0  0  0  0  0  0  0  0  0  0  0
  161.4625   46.9590  143.2387 N   0  0  0  0  0  0  0  0  0  0  0  0
  161.6144   47.2148  144.5604 C   0  0  0  0  0  0  0  0  0  0  0  0
  161.3098   48.4955  144.8330 N   0  0  1  0  0  0  0  0  0  0  0  0
  152.0252   45.2862  143.2955 N   0  0  0  0  0  0  0  0  0  0  0  0
  157.0096   49.3744  150.0871 O   0  5  0  0  0  0  0  0  0  0  0  0
  151.9704   44.2816  144.1836 C   0  0  2  0  0  0  0  0  0  0  0  0
  150.9516   43.4158  144.0747 N   0  0  0  0  0  0  0  0  0  0  0  0
  157.0555   49.7562  147.4820 O   0  0  0  0  0  0  0  0  0  0  0  0
  152.8784   44.1049  145.1718 N   0  0  0  0  0  0  0  0  0  0  0  0
  153.9137   44.9586  145.3156 C   0  0  1  0  0  0  0  0  0  0  0  0
  154.0310   46.0854  144.3685 C   0  0  1  0  0  0  0  0  0  0  0  0
  152.9865   46.2108  143.3202 C   0  0  0  0  0  0  0  0  0  0  0  0
  152.9996   47.1254  142.4685 O   0  0  0  0  0  0  0  0  0  0  0  0
  155.1257   46.7726  144.7314 N   0  0  0  0  0  0  0  0  0  0  0  0
  155.6605   46.1353  145.8098 C   0  0  0  0  0  0  0  0  0  0  0  0
  154.9379   45.0538  146.1631 N   0  0  2  0  0  0  0  0  0  0  0  0
  1  3  1  6  0  0  0
  1  4  2  0  0  0  0
  1  6  1  0  0  0  0
  1 22  1  0  0  0  0
  2 28  1  0  0  0  0
  2 35  1  1  0  0  0
  2 38  2  0  0  0  0
  2 10  1  0  0  0  0
  5  6  1  0  0  0  0
  7  5  1  6  0  0  0
  7  8  1  0  0  0  0
  7  9  1  0  0  0  0
  9 10  1  1  0  0  0
  9 11  1  0  0  0  0
 11 12  1  1  0  0  0
 11 13  1  0  0  0  0
 13  8  1  1  0  0  0
 13 33  1  0  0  0  0
 14 46  1  0  0  0  0
 14 17  1  0  0  0  0
 14 25  1  1  0  0  0
 15 16  1  0  0  0  0
 15 29  1  0  0  0  0
 16 18  1  1  0  0  0
 16 21  1  0  0  0  0
 17 19  1  1  0  0  0
 17 20  1  0  0  0  0
 20 22  1  1  0  0  0
 20 24  1  0  0  0  0
 23 21  1  1  0  0  0
 23 26  1  0  0  0  0
 23 33  1  0  0  0  0
 24 25  1  6  0  0  0
 24 27  1  0  0  0  0
 26 29  1  1  0  0  0
 26 31  1  0  0  0  0
 27 28  1  0  0  0  0
 29 30  2  0  0  0  0
 31 32  1  0  0  0  0
 33 32  1  6  0  0  0
 34 36  1  0  0  0  0
 34 42  1  0  0  0  0
 36 37  1  1  0  0  0
 36 39  1  0  0  0  0
 40 39  1  1  0  0  0
 40 41  1  0  0  0  0
 40 46  1  0  0  0  0
 41 42  1  1  0  0  0
 41 44  1  0  0  0  0
 42 43  2  0  0  0  0
 44 45  1  0  0  0  0
 46 45  1  6  0  0  0
M  CHG  2   3  -1  35  -1
M  END
>  <CHROM.1>
-170.28002616,126.79560255,157.97014083,46.77193452,146.04550294,-0.39413932
0.42685821,2.05888965

>  <Name>
ligand

>  <RI>
0

>  <Rbt.Current_Directory>
/home/itssahil/PROJECTS/Mol_Feturizer/Test_systems_manuscript/rnas/4yb0

>  <Rbt.Executable>
rbdock ($Id: //depot/dev/client3/rdock/2013.1/src/exe/rbdock.cxx#4 $)

>  <Rbt.Library>
libRbt.so (2013.1, Build901 2013/11/27)

>  <Rbt.Parameter_File>
/export/apps/rDock/src/rDock_2013.1_src/data/scripts/dock_solv.prm

>  <Rbt.Receptor>
prm/pocket_docking_8.prm

>  <SCORE>
-24.6252

>  <SCORE.INTER>
-24.4658

>  <SCORE.INTER.CONST>
1

>  <SCORE.INTER.POLAR>
0

>  <SCORE.INTER.ROT>
2

>  <SCORE.INTER.SOLV>
14.1484

>  <SCORE.INTER.VDW>
-25.96

>  <SCORE.INTER.norm>
-0.531866

>  <SCORE.INTRA>
-0.159308

>  <SCORE.INTRA.DIHEDRAL>
7.80369e-05

>  <SCORE.INTRA.DIHEDRAL.0>
2.42188

>  <SCORE.INTRA.POLAR>
0

>  <SCORE.INTRA.POLAR.0>
0

>  <SCORE.INTRA.REPUL>
0

>  <SCORE.INTRA.REPUL.0>
0

>  <SCORE.INTRA.SOLV>
-0.0169451

>  <SCORE.INTRA.SOLV.lig_0>
-127.307

>  <SCORE.INTRA.VDW>
-0.150875

>  <SCORE.INTRA.VDW.0>
-2.19936

>  <SCORE.INTRA.norm>
-0.00346322

>  <SCORE.RESTR>
0

>  <SCORE.RESTR.CAVITY>
0

>  <SCORE.RESTR.norm>
0

>  <SCORE.SYSTEM>
0

>  <SCORE.SYSTEM.CONST>
0

>  <SCORE.SYSTEM.DIHEDRAL>
0

>  <SCORE.SYSTEM.SOLV>
0

>  <SCORE.SYSTEM.norm>
0

>  <SCORE.heavy>
46

>  <SCORE.norm>
-0.535329

>  <RMSD>
5.870

$$$$
ligand
 OpenBabel02271912143D
libRbt.so/2013.1/901 2013/11/27
 46 52  0  0  0  0  0  0  0  0999 V2000
  160.3537   43.1868  142.5693 P   0  0  1  0  0  0  0  0  0  0  0  0
  161.6592   47.0973  146.4980 P   0  0  1  0  0  0  0  0  0  0  0  0
  159.3378   42.1584  142.9953 O   0  5  0  0  0  0  0  0  0  0  0  0
  160.7473   43.1896  141.1083 O   0  0  0  0  0  0  0  0  0  0  0  0
  159.9634   45.7777  142.2023 C   0  0  0  0  0  0  0  0  0  0  0  0
  159.8332   44.6343  143.0372 O   0  0  0  0  0  0  0  0  0  0  0  0
  159.7650   47.0435  143.0196 C   0  0  1  0  0  0  0  0  0  0  0  0
  158.4619   47.5409  142.7503 O   0  0  0  0  0  0  0  0  0  0  0  0
  159.8519   46.8731  144.5310 C   0  0  1  0  0  0  0  0  0  0  0  0
  161.1022   47.3602  144.9958 O   0  0  0  0  0  0  0  0  0  0  0  0
  158.7678   47.7898  145.0518 C   0  0  1  0  0  0  0  0  0  0  0  0
  159.3091   49.0928  145.2782 O   0  0  0  0  0  0  0  0  0  0  0  0
  157.7750   47.9192  143.9334 C   0  0  2  0  0  0  0  0  0  0  0  0
  161.8028   41.6924  146.8949 C   0  0  1  0  0  0  0  0  0  0  0  0
  155.0315   45.1669  147.4611 N   0  0  0  0  0  0  0  0  0  0  0  0
  156.0852   45.9877  147.6309 C   0  0  1  0  0  0  0  0  0  0  0  0
  161.1927   41.6837  145.5089 C   0  0  2  0  0  0  0  0  0  0  0  0
  156.5695   46.1854  148.8774 N   0  0  0  0  0  0  0  0  0  0  0  0
  161.8368   40.6471  144.7630 O   0  0  0  0  0  0  0  0  0  0  0  0
  161.5080   43.0467  144.9217 C   0  0  2  0  0  0  0  0  0  0  0  0
  156.7003   46.6340  146.6146 N   0  0  0  0  0  0  0  0  0  0  0  0
  161.6523   42.9862  143.5033 O   0  0  0  0  0  0  0  0  0  0  0  0
  156.2777   46.4854  145.3409 C   0  0  2  0  0  0  0  0  0  0  0  0
  162.8163   43.4073  145.6220 C   0  0  2  0  0  0  0  0  0  0  0  0
  162.8505   42.6644  146.8425 O   0  0  0  0  0  0  0  0  0  0  0  0
  155.1349   45.6042  145.0816 C   0  0  2  0  0  0  0  0  0  0  0  0
  162.9983   44.8968  145.9303 C   0  0  0  0  0  0  0  0  0  0  0  0
  161.8449   45.4928  146.5224 O   0  0  0  0  0  0  0  0  0  0  0  0
  154.5115   44.9297  146.2446 C   0  0  0  0  0  0  0  0  0  0  0  0
  153.5289   44.1668  146.0815 O   0  0  0  0  0  0  0  0  0  0  0  0
  154.9338   45.6348  143.7522 N   0  0  0  0  0  0  0  0  0  0  0  0
  155.8591   46.4604  143.2068 C   0  0  0  0  0  0  0  0  0  0  0  0
  156.6607   46.9683  144.1591 N   0  0  1  0  0  0  0  0  0  0  0  0
  157.9490   40.2977  150.1874 N   0  0  0  0  0  0  0  0  0  0  0  0
  163.0217   47.7615  146.5628 O   0  5  0  0  0  0  0  0  0  0  0  0
  158.7225   39.5377  149.3969 C   0  0  2  0  0  0  0  0  0  0  0  0
  158.5159   38.2126  149.4201 N   0  0  0  0  0  0  0  0  0  0  0  0
  160.5794   47.4428  147.4945 O   0  0  0  0  0  0  0  0  0  0  0  0
  159.6898   40.0366  148.5920 N   0  0  0  0  0  0  0  0  0  0  0  0
  159.9300   41.3638  148.5462 C   0  0  1  0  0  0  0  0  0  0  0  0
  159.1112   42.2549  149.3925 C   0  0  1  0  0  0  0  0  0  0  0  0
  158.0781   41.6239  150.2528 C   0  0  0  0  0  0  0  0  0  0  0  0
  157.3307   42.2911  151.0000 O   0  0  0  0  0  0  0  0  0  0  0  0
  159.5513   43.5027  149.1652 N   0  0  0  0  0  0  0  0  0  0  0  0
  160.5566   43.4132  148.2505 C   0  0  0  0  0  0  0  0  0  0  0  0
  160.7873   42.1377  147.8811 N   0  0  2  0  0  0  0  0  0  0  0  0
  1  3  1  1  0  0  0
  1  4  2  0  0  0  0
  1  6  1  0  0  0  0
  1 22  1  0  0  0  0
  2 28  1  0  0  0  0
  2 35  1  1  0  0  0
  2 38  2  0  0  0  0
  2 10  1  0  0  0  0
  5  6  1  0  0  0  0
  7  5  1  6  0  0  0
  7  8  1  0  0  0  0
  7  9  1  0  0  0  0
  9 10  1  1  0  0  0
  9 11  1  0  0  0  0
 11 12  1  6  0  0  0
 11 13  1  0  0  0  0
 13  8  1  6  0  0  0
 13 33  1  0  0  0  0
 14 46  1  0  0  0  0
 14 17  1  0  0  0  0
 14 25  1  6  0  0  0
 15 16  1  0  0  0  0
 15 29  1  0  0  0  0
 16 18  1  6  0  0  0
 16 21  1  0  0  0  0
 17 19  1  6  0  0  0
 17 20  1  0  0  0  0
 20 22  1  6  0  0  0
 20 24  1  0  0  0  0
 23 21  1  6  0  0  0
 23 26  1  0  0  0  0
 23 33  1  0  0  0  0
 24 25  1  1  0  0  0
 24 27  1  0  0  0  0
 26 29  1  6  0  0  0
 26 31  1  0  0  0  0
 27 28  1  0  0  0  0
 29 30  2  0  0  0  0
 31 32  1  0  0  0  0
 33 32  1  1  0  0  0
 34 36  1  0  0  0  0
 34 42  1  0  0  0  0
 36 37  1  1  0  0  0
 36 39  1  0  0  0  0
 40 39  1  1  0  0  0
 40 41  1  0  0  0  0
 40 46  1  0  0  0  0
 41 42  1  1  0  0  0
 41 44  1  0  0  0  0
 42 43  2  0  0  0  0
 44 45  1  0  0  0  0
 46 45  1  6  0  0  0
M  CHG  2   3  -1  35  -1
M  END
>  <CHROM.1>
140.63849576,89.58663988,159.31062977,44.42300506,145.93060639,-1.66701914
-0.39134900,2.42507333

>  <Name>
ligand

>  <RI>
0

>  <Rbt.Current_Directory>
/home/itssahil/PROJECTS/Mol_Feturizer/Test_systems_manuscript/rnas/4yb0

>  <Rbt.Executable>
rbdock ($Id: //depot/dev/client3/rdock/2013.1/src/exe/rbdock.cxx#4 $)

>  <Rbt.Library>
libRbt.so (2013.1, Build901 2013/11/27)

>  <Rbt.Parameter_File>
/export/apps/rDock/src/rDock_2013.1_src/data/scripts/dock_solv.prm

>  <Rbt.Receptor>
prm/pocket_docking_8.prm

>  <SCORE>
-19.4258

>  <SCORE.INTER>
-19.7515

>  <SCORE.INTER.CONST>
1

>  <SCORE.INTER.POLAR>
0

>  <SCORE.INTER.ROT>
2

>  <SCORE.INTER.SOLV>
20.5758

>  <SCORE.INTER.VDW>
-24.9596

>  <SCORE.INTER.norm>
-0.42938

>  <SCORE.INTRA>
0.3257

>  <SCORE.INTRA.DIHEDRAL>
-0.0719201

>  <SCORE.INTRA.DIHEDRAL.0>
2.42188

>  <SCORE.INTRA.POLAR>
0

>  <SCORE.INTRA.POLAR.0>
0

>  <SCORE.INTRA.REPUL>
0

>  <SCORE.INTRA.REPUL.0>
0

>  <SCORE.INTRA.SOLV>
0.131133

>  <SCORE.INTRA.SOLV.lig_0>
-127.307

>  <SCORE.INTRA.VDW>
0.296094

>  <SCORE.INTRA.VDW.0>
-2.19936

>  <SCORE.INTRA.norm>
0.00708044

>  <SCORE.RESTR>
0

>  <SCORE.RESTR.CAVITY>
0

>  <SCORE.RESTR.norm>
0

>  <SCORE.SYSTEM>
0

>  <SCORE.SYSTEM.CONST>
0

>  <SCORE.SYSTEM.DIHEDRAL>
0

>  <SCORE.SYSTEM.SOLV>
0

>  <SCORE.SYSTEM.norm>
0

>  <SCORE.heavy>
46

>  <SCORE.norm>
-0.422299

>  <RMSD>
5.877

$$$$
ligand
 OpenBabel02271912143D
libRbt.so/2013.1/901 2013/11/27
 46 52  0  0  0  0  0  0  0  0999 V2000
  160.5145   43.2989  142.4296 P   0  0  1  0  0  0  0  0  0  0  0  0
  161.4865   46.4121  147.0980 P   0  0  1  0  0  0  0  0  0  0  0  0
  159.4092   42.2818  142.5510 O   0  5  0  0  0  0  0  0  0  0  0  0
  161.0882   43.5184  141.0467 O   0  0  0  0  0  0  0  0  0  0  0  0
  160.2871   45.9345  142.4716 C   0  0  0  0  0  0  0  0  0  0  0  0
  160.0033   44.6794  143.0761 O   0  0  0  0  0  0  0  0  0  0  0  0
  160.0433   47.0575  143.4661 C   0  0  1  0  0  0  0  0  0  0  0  0
  158.8074   47.6755  143.1369 O   0  0  0  0  0  0  0  0  0  0  0  0
  159.9323   46.6338  144.9252 C   0  0  1  0  0  0  0  0  0  0  0  0
  161.1345   46.9556  145.6091 O   0  0  0  0  0  0  0  0  0  0  0  0
  158.8326   47.5194  145.4666 C   0  0  1  0  0  0  0  0  0  0  0  0
  159.3976   48.7293  145.9755 O   0  0  0  0  0  0  0  0  0  0  0  0
  157.9946   47.8961  144.2794 C   0  0  2  0  0  0  0  0  0  0  0  0
  161.3425   41.0182  146.5717 C   0  0  1  0  0  0  0  0  0  0  0  0
  154.8233   44.6380  146.9014 N   0  0  0  0  0  0  0  0  0  0  0  0
  155.8965   45.3317  147.3257 C   0  0  1  0  0  0  0  0  0  0  0  0
  160.9114   41.2786  145.1434 C   0  0  2  0  0  0  0  0  0  0  0  0
  156.2788   45.2247  148.6179 N   0  0  0  0  0  0  0  0  0  0  0  0
  161.5981   40.3406  144.3102 O   0  0  0  0  0  0  0  0  0  0  0  0
  161.3573   42.6970  144.8406 C   0  0  2  0  0  0  0  0  0  0  0  0
  156.6286   46.1390  146.5250 N   0  0  0  0  0  0  0  0  0  0  0  0
  161.6757   42.8631  143.4596 O   0  0  0  0  0  0  0  0  0  0  0  0
  156.3124   46.2957  145.2218 C   0  0  2  0  0  0  0  0  0  0  0  0
  162.5818   42.8515  145.7399 C   0  0  2  0  0  0  0  0  0  0  0  0
  162.4300   41.9160  146.8097 O   0  0  0  0  0  0  0  0  0  0  0  0
  155.1555   45.5683  144.6905 C   0  0  2  0  0  0  0  0  0  0  0  0
  162.7887   44.2544  146.3193 C   0  0  0  0  0  0  0  0  0  0  0  0
  161.5972   44.8172  146.8670 O   0  0  0  0  0  0  0  0  0  0  0  0
  154.4009   44.7025  145.6270 C   0  0  0  0  0  0  0  0  0  0  0  0
  153.4008   44.0592  145.2274 O   0  0  0  0  0  0  0  0  0  0  0  0
  155.0733   45.8969  143.3890 N   0  0  0  0  0  0  0  0  0  0  0  0
  156.0816   46.7573  143.1090 C   0  0  0  0  0  0  0  0  0  0  0  0
  156.8202   46.9947  144.2069 N   0  0  1  0  0  0  0  0  0  0  0  0
  159.8420   41.8584  151.5395 N   0  0  0  0  0  0  0  0  0  0  0  0
  162.8578   46.9672  147.4343 O   0  5  0  0  0  0  0  0  0  0  0  0
  161.0527   41.5566  151.0457 C   0  0  2  0  0  0  0  0  0  0  0  0
  162.0651   41.4437  151.9183 N   0  0  0  0  0  0  0  0  0  0  0  0
  160.3063   46.6566  148.0067 O   0  0  0  0  0  0  0  0  0  0  0  0
  161.2983   41.3673  149.7281 N   0  0  0  0  0  0  0  0  0  0  0  0
  160.3059   41.4779  148.8203 C   0  0  1  0  0  0  0  0  0  0  0  0
  158.9489   41.8074  149.3005 C   0  0  1  0  0  0  0  0  0  0  0  0
  158.7690   42.0081  150.7610 C   0  0  0  0  0  0  0  0  0  0  0  0
  157.6600   42.2840  151.2671 O   0  0  0  0  0  0  0  0  0  0  0  0
  158.1649   41.8621  148.2122 N   0  0  0  0  0  0  0  0  0  0  0  0
  158.9526   41.5854  147.1359 C   0  0  0  0  0  0  0  0  0  0  0  0
  160.2317   41.3585  147.4949 N   0  0  2  0  0  0  0  0  0  0  0  0
  1  3  1  6  0  0  0
  1  4  2  0  0  0  0
  1  6  1  0  0  0  0
  1 22  1  0  0  0  0
  2 28  1  0  0  0  0
  2 35  1  1  0  0  0
  2 38  2  0  0  0  0
  2 10  1  0  0  0  0
  5  6  1  0  0  0  0
  7  5  1  6  0  0  0
  7  8  1  0  0  0  0
  7  9  1  0  0  0  0
  9 10  1  1  0  0  0
  9 11  1  0  0  0  0
 11 12  1  6  0  0  0
 11 13  1  0  0  0  0
 13  8  1  6  0  0  0
 13 33  1  0  0  0  0
 14 46  1  0  0  0  0
 14 17  1  0  0  0  0
 14 25  1  1  0  0  0
 15 16  1  0  0  0  0
 15 29  1  0  0  0  0
 16 18  1  6  0  0  0
 16 21  1  0  0  0  0
 17 19  1  6  0  0  0
 17 20  1  0  0  0  0
 20 22  1  6  0  0  0
 20 24  1  0  0  0  0
 23 21  1  6  0  0  0
 23 26  1  0  0  0  0
 23 33  1  0  0  0  0
 24 25  1  1  0  0  0
 24 27  1  0  0  0  0
 26 29  1  6  0  0  0
 26 31  1  0  0  0  0
 27 28  1  0  0  0  0
 29 30  2  0  0  0  0
 31 32  1  0  0  0  0
 33 32  1  1  0  0  0
 34 36  1  0  0  0  0
 34 42  1  0  0  0  0
 36 37  1  6  0  0  0
 36 39  1  0  0  0  0
 40 39  1  6  0  0  0
 40 41  1  0  0  0  0
 40 46  1  0  0  0  0
 41 42  1  6  0  0  0
 41 44  1  0  0  0  0
 42 43  2  0  0  0  0
 44 45  1  0  0  0  0
 46 45  1  1  0  0  0
M  CHG  2   3  -1  35  -1
M  END
>  <CHROM.1>
137.02747805,-167.76635675,159.42987929,44.28315152,146.07151805,-2.01696472
-0.44217670,2.04532141

>  <Name>
ligand

>  <RI>
0

>  <Rbt.Current_Directory>
/home/itssahil/PROJECTS/Mol_Feturizer/Test_systems_manuscript/rnas/4yb0

>  <Rbt.Executable>
rbdock ($Id: //depot/dev/client3/rdock/2013.1/src/exe/rbdock.cxx#4 $)

>  <Rbt.Library>
libRbt.so (2013.1, Build901 2013/11/27)

>  <Rbt.Parameter_File>
/export/apps/rDock/src/rDock_2013.1_src/data/scripts/dock_solv.prm

>  <Rbt.Receptor>
prm/pocket_docking_6.prm

>  <SCORE>
-19.783

>  <SCORE.INTER>
-21.006

>  <SCORE.INTER.CONST>
1

>  <SCORE.INTER.POLAR>
0

>  <SCORE.INTER.ROT>
2

>  <SCORE.INTER.SOLV>
19.4863

>  <SCORE.INTER.VDW>
-25.4328

>  <SCORE.INTER.norm>
-0.456652

>  <SCORE.INTRA>
1.223

>  <SCORE.INTRA.DIHEDRAL>
-0.0579851

>  <SCORE.INTRA.DIHEDRAL.0>
2.42188

>  <SCORE.INTRA.POLAR>
0

>  <SCORE.INTRA.POLAR.0>
0

>  <SCORE.INTRA.REPUL>
0

>  <SCORE.INTRA.REPUL.0>
0

>  <SCORE.INTRA.SOLV>
0.603642

>  <SCORE.INTRA.SOLV.lig_0>
-127.307

>  <SCORE.INTRA.VDW>
0.950173

>  <SCORE.INTRA.VDW.0>
-2.19936

>  <SCORE.INTRA.norm>
0.026587

>  <SCORE.RESTR>
0

>  <SCORE.RESTR.CAVITY>
0

>  <SCORE.RESTR.norm>
0

>  <SCORE.SYSTEM>
0

>  <SCORE.SYSTEM.CONST>
0

>  <SCORE.SYSTEM.DIHEDRAL>
0

>  <SCORE.SYSTEM.SOLV>
0

>  <SCORE.SYSTEM.norm>
0

>  <SCORE.heavy>
46

>  <SCORE.norm>
-0.430065

>  <RMSD>
5.934

$$$$
ligand
 OpenBabel02271912143D
libRbt.so/2013.1/901 2013/11/27
 46 52  0  0  0  0  0  0  0  0999 V2000
  160.3698   43.1898  142.5937 P   0  0  1  0  0  0  0  0  0  0  0  0
  161.7010   47.2019  146.4097 P   0  0  1  0  0  0  0  0  0  0  0  0
  159.3637   42.1677  143.0565 O   0  5  0  0  0  0  0  0  0  0  0  0
  160.7469   43.1582  141.1287 O   0  0  0  0  0  0  0  0  0  0  0  0
  159.9631   45.7690  142.1674 C   0  0  0  0  0  0  0  0  0  0  0  0
  159.8477   44.6461  143.0316 O   0  0  0  0  0  0  0  0  0  0  0  0
  159.7680   47.0538  142.9555 C   0  0  1  0  0  0  0  0  0  0  0  0
  158.4596   47.5385  142.6889 O   0  0  0  0  0  0  0  0  0  0  0  0
  159.8728   46.9211  144.4695 C   0  0  1  0  0  0  0  0  0  0  0  0
  161.1259   47.4251  144.9079 O   0  0  0  0  0  0  0  0  0  0  0  0
  158.7903   47.8456  144.9799 C   0  0  1  0  0  0  0  0  0  0  0  0
  159.3279   49.1561  145.1680 O   0  0  0  0  0  0  0  0  0  0  0  0
  157.7843   47.9429  143.8700 C   0  0  2  0  0  0  0  0  0  0  0  0
  161.8748   41.8091  146.9380 C   0  0  1  0  0  0  0  0  0  0  0  0
  155.1737   45.1693  147.4809 N   0  0  0  0  0  0  0  0  0  0  0  0
  156.2355   45.9862  147.6158 C   0  0  1  0  0  0  0  0  0  0  0  0
  161.2491   41.7635  145.5597 C   0  0  2  0  0  0  0  0  0  0  0  0
  156.7688   46.1729  148.8438 N   0  0  0  0  0  0  0  0  0  0  0  0
  161.8897   40.7116  144.8323 O   0  0  0  0  0  0  0  0  0  0  0  0
  161.5513   43.1130  144.9355 C   0  0  2  0  0  0  0  0  0  0  0  0
  156.8120   46.6391  146.5813 N   0  0  0  0  0  0  0  0  0  0  0  0
  161.6799   43.0181  143.5175 O   0  0  0  0  0  0  0  0  0  0  0  0
  156.3394   46.5016  145.3240 C   0  0  2  0  0  0  0  0  0  0  0  0
  162.8656   43.4966  145.6117 C   0  0  2  0  0  0  0  0  0  0  0  0
  162.9172   42.7842  146.8497 O   0  0  0  0  0  0  0  0  0  0  0  0
  155.1849   45.6252  145.1028 C   0  0  2  0  0  0  0  0  0  0  0  0
  163.0441   44.9940  145.8812 C   0  0  0  0  0  0  0  0  0  0  0  0
  161.8946   45.5994  146.4715 O   0  0  0  0  0  0  0  0  0  0  0  0
  154.6058   44.9430  146.2840 C   0  0  0  0  0  0  0  0  0  0  0  0
  153.6155   44.1838  146.1536 O   0  0  0  0  0  0  0  0  0  0  0  0
  154.9321   45.6668  143.7825 N   0  0  0  0  0  0  0  0  0  0  0  0
  155.8375   46.4944  143.2077 C   0  0  0  0  0  0  0  0  0  0  0  0
  156.6771   46.9929  144.1319 N   0  0  1  0  0  0  0  0  0  0  0  0
  157.9889   40.4910  150.2243 N   0  0  0  0  0  0  0  0  0  0  0  0
  163.0610   47.8736  146.4426 O   0  5  0  0  0  0  0  0  0  0  0  0
  158.7464   39.7162  149.4327 C   0  0  2  0  0  0  0  0  0  0  0  0
  158.5109   38.3958  149.4527 N   0  0  0  0  0  0  0  0  0  0  0  0
  160.6310   47.5671  147.4096 O   0  0  0  0  0  0  0  0  0  0  0  0
  159.7248   40.1958  148.6297 N   0  0  0  0  0  0  0  0  0  0  0  0
  159.9939   41.5176  148.5871 C   0  0  1  0  0  0  0  0  0  0  0  0
  159.1940   42.4243  149.4348 C   0  0  1  0  0  0  0  0  0  0  0  0
  158.1467   41.8139  150.2929 C   0  0  0  0  0  0  0  0  0  0  0  0
  157.4133   42.4955  151.0410 O   0  0  0  0  0  0  0  0  0  0  0  0
  159.6612   43.6627  149.2107 N   0  0  0  0  0  0  0  0  0  0  0  0
  160.6651   43.5535  148.2966 C   0  0  0  0  0  0  0  0  0  0  0  0
  160.8683   42.2742  147.9244 N   0  0  2  0  0  0  0  0  0  0  0  0
  1  3  1  1  0  0  0
  1  4  2  0  0  0  0
  1  6  1  0  0  0  0
  1 22  1  0  0  0  0
  2 28  1  0  0  0  0
  2 35  1  1  0  0  0
  2 38  2  0  0  0  0
  2 10  1  0  0  0  0
  5  6  1  0  0  0  0
  7  5  1  6  0  0  0
  7  8  1  0  0  0  0
  7  9  1  0  0  0  0
  9 10  1  1  0  0  0
  9 11  1  0  0  0  0
 11 12  1  6  0  0  0
 11 13  1  0  0  0  0
 13  8  1  6  0  0  0
 13 33  1  0  0  0  0
 14 46  1  0  0  0  0
 14 17  1  0  0  0  0
 14 25  1  6  0  0  0
 15 16  1  0  0  0  0
 15 29  1  0  0  0  0
 16 18  1  6  0  0  0
 16 21  1  0  0  0  0
 17 19  1  6  0  0  0
 17 20  1  0  0  0  0
 20 22  1  6  0  0  0
 20 24  1  0  0  0  0
 23 21  1  6  0  0  0
 23 26  1  0  0  0  0
 23 33  1  0  0  0  0
 24 25  1  1  0  0  0
 24 27  1  0  0  0  0
 26 29  1  6  0  0  0
 26 31  1  0  0  0  0
 27 28  1  0  0  0  0
 29 30  2  0  0  0  0
 31 32  1  0  0  0  0
 33 32  1  1  0  0  0
 34 36  1  0  0  0  0
 34 42  1  0  0  0  0
 36 37  1  1  0  0  0
 36 39  1  0  0  0  0
 40 39  1  1  0  0  0
 40 41  1  0  0  0  0
 40 46  1  0  0  0  0
 41 42  1  1  0  0  0
 41 44  1  0  0  0  0
 42 43  2  0  0  0  0
 44 45  1  0  0  0  0
 46 45  1  6  0  0  0
M  CHG  2   3  -1  35  -1
M  END
>  <CHROM.1>
138.15059260,87.31739290,159.35932205,44.49472067,145.92454235,-1.65353511
-0.38357789,2.40562242

>  <Name>
ligand

>  <RI>
0

>  <Rbt.Current_Directory>
/home/itssahil/PROJECTS/Mol_Feturizer/Test_systems_manuscript/rnas/4yb0

>  <Rbt.Executable>
rbdock ($Id: //depot/dev/client3/rdock/2013.1/src/exe/rbdock.cxx#4 $)

>  <Rbt.Library>
libRbt.so (2013.1, Build901 2013/11/27)

>  <Rbt.Parameter_File>
/export/apps/rDock/src/rDock_2013.1_src/data/scripts/dock_solv.prm

>  <Rbt.Receptor>
prm/pocket_docking_4.prm

>  <SCORE>
-19.2194

>  <SCORE.INTER>
-19.6475

>  <SCORE.INTER.CONST>
1

>  <SCORE.INTER.POLAR>
0

>  <SCORE.INTER.ROT>
2

>  <SCORE.INTER.SOLV>
19.3953

>  <SCORE.INTER.VDW>
-24.4968

>  <SCORE.INTER.norm>
-0.427119

>  <SCORE.INTRA>
0.423787

>  <SCORE.INTRA.DIHEDRAL>
-0.0701022

>  <SCORE.INTRA.DIHEDRAL.0>
2.42188

>  <SCORE.INTRA.POLAR>
0

>  <SCORE.INTRA.POLAR.0>
0

>  <SCORE.INTRA.REPUL>
0

>  <SCORE.INTRA.REPUL.0>
0

>  <SCORE.INTRA.SOLV>
0.399228

>  <SCORE.INTRA.SOLV.lig_0>
-127.307

>  <SCORE.INTRA.VDW>
0.259224

>  <SCORE.INTRA.VDW.0>
-2.19936

>  <SCORE.INTRA.norm>
0.00921277

>  <SCORE.RESTR>
0.0042321

>  <SCORE.RESTR.CAVITY>
0.0042321

>  <SCORE.RESTR.norm>
9.20022e-05

>  <SCORE.SYSTEM>
0

>  <SCORE.SYSTEM.CONST>
0

>  <SCORE.SYSTEM.DIHEDRAL>
0

>  <SCORE.SYSTEM.SOLV>
0

>  <SCORE.SYSTEM.norm>
0

>  <SCORE.heavy>
46

>  <SCORE.norm>
-0.417814

>  <RMSD>
5.939

$$$$
ligand
 OpenBabel02271912143D
libRbt.so/2013.1/901 2013/11/27
 46 52  0  0  0  0  0  0  0  0999 V2000
  162.0568   46.7720  146.6839 P   0  0  1  0  0  0  0  0  0  0  0  0
  160.5181   43.4435  142.3268 P   0  0  1  0  0  0  0  0  0  0  0  0
  160.9495   47.1384  147.6382 O   0  5  0  0  0  0  0  0  0  0  0  0
  163.4630   47.1483  147.0967 O   0  0  0  0  0  0  0  0  0  0  0  0
  163.0968   44.3747  146.2705 C   0  0  0  0  0  0  0  0  0  0  0  0
  161.9436   45.2015  146.3585 O   0  0  0  0  0  0  0  0  0  0  0  0
  162.7474   43.0672  145.5792 C   0  0  1  0  0  0  0  0  0  0  0  0
  162.6412   42.0587  146.5740 O   0  0  0  0  0  0  0  0  0  0  0  0
  161.4277   43.0555  144.8183 C   0  0  1  0  0  0  0  0  0  0  0  0
  161.6790   43.1532  143.4241 O   0  0  0  0  0  0  0  0  0  0  0  0
  160.8709   41.6780  145.0998 C   0  0  1  0  0  0  0  0  0  0  0  0
  161.3276   40.7628  144.1019 O   0  0  0  0  0  0  0  0  0  0  0  0
  161.4885   41.2492  146.3990 C   0  0  2  0  0  0  0  0  0  0  0  0
  158.4045   48.1800  143.9048 C   0  0  1  0  0  0  0  0  0  0  0  0
  158.7915   39.2688  150.4426 N   0  0  0  0  0  0  0  0  0  0  0  0
  159.6152   38.6602  149.5685 C   0  0  1  0  0  0  0  0  0  0  0  0
  159.3533   48.0866  145.0815 C   0  0  2  0  0  0  0  0  0  0  0  0
  159.8328   37.3313  149.6870 N   0  0  0  0  0  0  0  0  0  0  0  0
  159.8918   49.3930  145.3032 O   0  0  0  0  0  0  0  0  0  0  0  0
  160.4403   47.1214  144.6466 C   0  0  2  0  0  0  0  0  0  0  0  0
  160.2455   39.3065  148.5617 N   0  0  0  0  0  0  0  0  0  0  0  0
  161.6918   47.4307  145.2583 O   0  0  0  0  0  0  0  0  0  0  0  0
  160.0767   40.6331  148.3754 C   0  0  2  0  0  0  0  0  0  0  0  0
  160.4693   47.3254  143.1335 C   0  0  2  0  0  0  0  0  0  0  0  0
  159.1847   47.8280  142.7591 O   0  0  0  0  0  0  0  0  0  0  0  0
  159.1912   41.3605  149.2900 C   0  0  2  0  0  0  0  0  0  0  0  0
  160.7795   46.0683  142.3149 C   0  0  0  0  0  0  0  0  0  0  0  0
  160.0262   44.9289  142.7281 O   0  0  0  0  0  0  0  0  0  0  0  0
  158.5349   40.5861  150.3697 C   0  0  0  0  0  0  0  0  0  0  0  0
  157.7693   41.1579  151.1826 O   0  0  0  0  0  0  0  0  0  0  0  0
  159.2007   42.6412  148.8793 N   0  0  0  0  0  0  0  0  0  0  0  0
  160.0178   42.7304  147.8025 C   0  0  0  0  0  0  0  0  0  0  0  0
  160.5410   41.5284  147.5040 N   0  0  1  0  0  0  0  0  0  0  0  0
  155.9892   44.7660  147.0905 N   0  0  0  0  0  0  0  0  0  0  0  0
  161.2157   43.4922  140.9804 O   0  5  0  0  0  0  0  0  0  0  0  0
  157.0326   45.5755  147.3290 C   0  0  2  0  0  0  0  0  0  0  0  0
  157.5725   45.5420  148.5565 N   0  0  0  0  0  0  0  0  0  0  0  0
  159.3619   42.5037  142.5680 O   0  0  0  0  0  0  0  0  0  0  0  0
  157.5563   46.4148  146.4050 N   0  0  0  0  0  0  0  0  0  0  0  0
  157.0362   46.4797  145.1614 C   0  0  1  0  0  0  0  0  0  0  0  0
  155.8864   45.6124  144.8353 C   0  0  1  0  0  0  0  0  0  0  0  0
  155.3682   44.7286  145.9105 C   0  0  0  0  0  0  0  0  0  0  0  0
  154.4036   43.9539  145.7332 O   0  0  0  0  0  0  0  0  0  0  0  0
  155.5658   45.8731  143.5580 N   0  0  0  0  0  0  0  0  0  0  0  0
  156.4387   46.8178  143.1099 C   0  0  0  0  0  0  0  0  0  0  0  0
  157.3159   47.1844  144.0652 N   0  0  2  0  0  0  0  0  0  0  0  0
  1  3  1  1  0  0  0
  1  4  2  0  0  0  0
  1  6  1  0  0  0  0
  1 22  1  0  0  0  0
  2 28  1  0  0  0  0
  2 35  1  6  0  0  0
  2 38  2  0  0  0  0
  2 10  1  0  0  0  0
  5  6  1  0  0  0  0
  7  5  1  1  0  0  0
  7  8  1  0  0  0  0
  7  9  1  0  0  0  0
  9 10  1  6  0  0  0
  9 11  1  0  0  0  0
 11 12  1  6  0  0  0
 11 13  1  0  0  0  0
 13  8  1  1  0  0  0
 13 33  1  0  0  0  0
 14 46  1  0  0  0  0
 14 17  1  0  0  0  0
 14 25  1  6  0  0  0
 15 16  1  0  0  0  0
 15 29  1  0  0  0  0
 16 18  1  6  0  0  0
 16 21  1  0  0  0  0
 17 19  1  6  0  0  0
 17 20  1  0  0  0  0
 20 22  1  1  0  0  0
 20 24  1  0  0  0  0
 23 21  1  6  0  0  0
 23 26  1  0  0  0  0
 23 33  1  0  0  0  0
 24 25  1  6  0  0  0
 24 27  1  0  0  0  0
 26 29  1  6  0  0  0
 26 31  1  0  0  0  0
 27 28  1  0  0  0  0
 29 30  2  0  0  0  0
 31 32  1  0  0  0  0
 33 32  1  1  0  0  0
 34 36  1  0  0  0  0
 34 42  1  0  0  0  0
 36 37  1  1  0  0  0
 36 39  1  0  0  0  0
 40 39  1  1  0  0  0
 40 41  1  0  0  0  0
 40 46  1  0  0  0  0
 41 42  1  1  0  0  0
 41 44  1  0  0  0  0
 42 43  2  0  0  0  0
 44 45  1  0  0  0  0
 46 45  1  6  0  0  0
M  CHG  2   3  -1  35  -1
M  END
>  <CHROM.1>
-121.21703304,11.73303787,159.70105133,44.20997787,145.83636596,-1.60482413
-0.44226272,2.48720694

>  <Name>
ligand

>  <RI>
0

>  <Rbt.Current_Directory>
/home/itssahil/PROJECTS/Mol_Feturizer/Test_systems_manuscript/rnas/4yb0

>  <Rbt.Executable>
rbdock ($Id: //depot/dev/client3/rdock/2013.1/src/exe/rbdock.cxx#4 $)

>  <Rbt.Library>
libRbt.so (2013.1, Build901 2013/11/27)

>  <Rbt.Parameter_File>
/export/apps/rDock/src/rDock_2013.1_src/data/scripts/dock_solv.prm

>  <Rbt.Receptor>
prm/pocket_docking_5.prm

>  <SCORE>
-16.764

>  <SCORE.INTER>
-17.6958

>  <SCORE.INTER.CONST>
1

>  <SCORE.INTER.POLAR>
0

>  <SCORE.INTER.ROT>
2

>  <SCORE.INTER.SOLV>
18.6693

>  <SCORE.INTER.VDW>
-22.9536

>  <SCORE.INTER.norm>
-0.384691

>  <SCORE.INTRA>
0.93174

>  <SCORE.INTRA.DIHEDRAL>
-0.00202566

>  <SCORE.INTRA.DIHEDRAL.0>
2.42188

>  <SCORE.INTRA.POLAR>
0

>  <SCORE.INTRA.POLAR.0>
0

>  <SCORE.INTRA.REPUL>
0

>  <SCORE.INTRA.REPUL.0>
0

>  <SCORE.INTRA.SOLV>
1.87108

>  <SCORE.INTRA.SOLV.lig_0>
-127.307

>  <SCORE.INTRA.VDW>
-0.00278789

>  <SCORE.INTRA.VDW.0>
-2.19936

>  <SCORE.INTRA.norm>
0.0202552

>  <SCORE.RESTR>
0

>  <SCORE.RESTR.CAVITY>
0

>  <SCORE.RESTR.norm>
0

>  <SCORE.SYSTEM>
0

>  <SCORE.SYSTEM.CONST>
0

>  <SCORE.SYSTEM.DIHEDRAL>
0

>  <SCORE.SYSTEM.SOLV>
0

>  <SCORE.SYSTEM.norm>
0

>  <SCORE.heavy>
46

>  <SCORE.norm>
-0.364435

>  <RMSD>
6.008

$$$$
ligand
 OpenBabel02271912143D
libRbt.so/2013.1/901 2013/11/27
 46 52  0  0  0  0  0  0  0  0999 V2000
  160.3725   43.2152  142.5892 P   0  0  1  0  0  0  0  0  0  0  0  0
  161.6827   47.2290  146.4107 P   0  0  1  0  0  0  0  0  0  0  0  0
  159.3679   42.1902  143.0489 O   0  5  0  0  0  0  0  0  0  0  0  0
  160.7535   43.1855  141.1251 O   0  0  0  0  0  0  0  0  0  0  0  0
  159.9598   45.7935  142.1632 C   0  0  0  0  0  0  0  0  0  0  0  0
  159.8453   44.6699  143.0265 O   0  0  0  0  0  0  0  0  0  0  0  0
  159.7591   47.0774  142.9514 C   0  0  1  0  0  0  0  0  0  0  0  0
  158.4501   47.5586  142.6816 O   0  0  0  0  0  0  0  0  0  0  0  0
  159.8603   46.9442  144.4656 C   0  0  1  0  0  0  0  0  0  0  0  0
  161.1109   47.4514  144.9075 O   0  0  0  0  0  0  0  0  0  0  0  0
  158.7739   47.8654  144.9737 C   0  0  1  0  0  0  0  0  0  0  0  0
  159.3075   49.1774  145.1638 O   0  0  0  0  0  0  0  0  0  0  0  0
  157.7706   47.9605  143.8612 C   0  0  2  0  0  0  0  0  0  0  0  0
  161.8699   41.8365  146.9367 C   0  0  1  0  0  0  0  0  0  0  0  0
  155.1471   45.1915  147.4662 N   0  0  0  0  0  0  0  0  0  0  0  0
  156.2048   46.0130  147.6047 C   0  0  1  0  0  0  0  0  0  0  0  0
  161.2479   41.7898  145.5567 C   0  0  2  0  0  0  0  0  0  0  0  0
  156.7294   46.2067  148.8354 N   0  0  0  0  0  0  0  0  0  0  0  0
  161.8933   40.7401  144.8305 O   0  0  0  0  0  0  0  0  0  0  0  0
  161.5480   43.1405  144.9340 C   0  0  2  0  0  0  0  0  0  0  0  0
  156.7856   46.6639  146.5713 N   0  0  0  0  0  0  0  0  0  0  0  0
  161.6806   43.0466  143.5164 O   0  0  0  0  0  0  0  0  0  0  0  0
  156.3217   46.5196  145.3115 C   0  0  2  0  0  0  0  0  0  0  0  0
  162.8595   43.5273  145.6139 C   0  0  2  0  0  0  0  0  0  0  0  0
  162.9098   42.8144  146.8517 O   0  0  0  0  0  0  0  0  0  0  0  0
  155.1721   45.6379  145.0863 C   0  0  2  0  0  0  0  0  0  0  0  0
  163.0332   45.0251  145.8846 C   0  0  0  0  0  0  0  0  0  0  0  0
  161.8805   45.6270  146.4722 O   0  0  0  0  0  0  0  0  0  0  0  0
  154.5878   44.9582  146.2665 C   0  0  0  0  0  0  0  0  0  0  0  0
  153.6013   44.1947  146.1327 O   0  0  0  0  0  0  0  0  0  0  0  0
  154.9277   45.6732  143.7643 N   0  0  0  0  0  0  0  0  0  0  0  0
  155.8337   46.5020  143.1921 C   0  0  0  0  0  0  0  0  0  0  0  0
  156.6654   47.0074  144.1197 N   0  0  1  0  0  0  0  0  0  0  0  0
  158.2856   40.4844  150.5370 N   0  0  0  0  0  0  0  0  0  0  0  0
  163.0408   47.9044  146.4475 O   0  5  0  0  0  0  0  0  0  0  0  0
  159.0900   39.7115  149.7911 C   0  0  2  0  0  0  0  0  0  0  0  0
  159.0001   38.3837  149.9588 N   0  0  0  0  0  0  0  0  0  0  0  0
  160.6090   47.5908  147.4080 O   0  0  0  0  0  0  0  0  0  0  0  0
  159.9775   40.2006  148.8937 N   0  0  0  0  0  0  0  0  0  0  0  0
  160.0997   41.5309  148.7018 C   0  0  1  0  0  0  0  0  0  0  0  0
  159.2411   42.4358  149.4920 C   0  0  1  0  0  0  0  0  0  0  0  0
  158.3017   41.8162  150.4612 C   0  0  0  0  0  0  0  0  0  0  0  0
  157.5296   42.4947  151.1721 O   0  0  0  0  0  0  0  0  0  0  0  0
  159.5620   43.6846  149.1182 N   0  0  0  0  0  0  0  0  0  0  0  0
  160.5341   43.5822  148.1696 C   0  0  0  0  0  0  0  0  0  0  0  0
  160.8596   42.2982  147.9207 N   0  0  2  0  0  0  0  0  0  0  0  0
  1  3  1  1  0  0  0
  1  4  2  0  0  0  0
  1  6  1  0  0  0  0
  1 22  1  0  0  0  0
  2 28  1  0  0  0  0
  2 35  1  1  0  0  0
  2 38  2  0  0  0  0
  2 10  1  0  0  0  0
  5  6  1  0  0  0  0
  7  5  1  6  0  0  0
  7  8  1  0  0  0  0
  7  9  1  0  0  0  0
  9 10  1  1  0  0  0
  9 11  1  0  0  0  0
 11 12  1  6  0  0  0
 11 13  1  0  0  0  0
 13  8  1  6  0  0  0
 13 33  1  0  0  0  0
 14 46  1  0  0  0  0
 14 17  1  0  0  0  0
 14 25  1  6  0  0  0
 15 16  1  0  0  0  0
 15 29  1  0  0  0  0
 16 18  1  6  0  0  0
 16 21  1  0  0  0  0
 17 19  1  6  0  0  0
 17 20  1  0  0  0  0
 20 22  1  6  0  0  0
 20 24  1  0  0  0  0
 23 21  1  6  0  0  0
 23 26  1  0  0  0  0
 23 33  1  0  0  0  0
 24 25  1  1  0  0  0
 24 27  1  0  0  0  0
 26 29  1  6  0  0  0
 26 31  1  0  0  0  0
 27 28  1  0  0  0  0
 29 30  2  0  0  0  0
 31 32  1  0  0  0  0
 33 32  1  1  0  0  0
 34 36  1  0  0  0  0
 34 42  1  0  0  0  0
 36 37  1  1  0  0  0
 36 39  1  0  0  0  0
 40 39  1  1  0  0  0
 40 41  1  0  0  0  0
 40 46  1  0  0  0  0
 41 42  1  1  0  0  0
 41 44  1  0  0  0  0
 42 43  2  0  0  0  0
 44 45  1  0  0  0  0
 46 45  1  6  0  0  0
M  CHG  2   3  -1  35  -1
M  END
>  <CHROM.1>
138.49892639,96.26386419,159.38190911,44.51469207,145.95374444,-1.70269717
-0.39669530,2.36443376

>  <Name>
ligand

>  <RI>
0

>  <Rbt.Current_Directory>
/home/itssahil/PROJECTS/Mol_Feturizer/Test_systems_manuscript/rnas/4yb0

>  <Rbt.Executable>
rbdock ($Id: //depot/dev/client3/rdock/2013.1/src/exe/rbdock.cxx#4 $)

>  <Rbt.Library>
libRbt.so (2013.1, Build901 2013/11/27)

>  <Rbt.Parameter_File>
/export/apps/rDock/src/rDock_2013.1_src/data/scripts/dock_solv.prm

>  <Rbt.Receptor>
prm/pocket_docking_4.prm

>  <SCORE>
-19.2467

>  <SCORE.INTER>
-19.6669

>  <SCORE.INTER.CONST>
1

>  <SCORE.INTER.POLAR>
0

>  <SCORE.INTER.ROT>
2

>  <SCORE.INTER.SOLV>
18.6273

>  <SCORE.INTER.VDW>
-24.2537

>  <SCORE.INTER.norm>
-0.42754

>  <SCORE.INTRA>
0.403712

>  <SCORE.INTRA.DIHEDRAL>
-0.068686

>  <SCORE.INTRA.DIHEDRAL.0>
2.42188

>  <SCORE.INTRA.POLAR>
0

>  <SCORE.INTRA.POLAR.0>
0

>  <SCORE.INTRA.REPUL>
0

>  <SCORE.INTRA.REPUL.0>
0

>  <SCORE.INTRA.SOLV>
0.428738

>  <SCORE.INTRA.SOLV.lig_0>
-127.307

>  <SCORE.INTRA.VDW>
0.223686

>  <SCORE.INTRA.VDW.0>
-2.19936

>  <SCORE.INTRA.norm>
0.00877635

>  <SCORE.RESTR>
0.0164013

>  <SCORE.RESTR.CAVITY>
0.0164013

>  <SCORE.RESTR.norm>
0.00035655

>  <SCORE.SYSTEM>
0

>  <SCORE.SYSTEM.CONST>
0

>  <SCORE.SYSTEM.DIHEDRAL>
0

>  <SCORE.SYSTEM.SOLV>
0

>  <SCORE.SYSTEM.norm>
0

>  <SCORE.heavy>
46

>  <SCORE.norm>
-0.418408

>  <RMSD>
6.012

$$$$
ligand
 OpenBabel02271912143D
libRbt.so/2013.1/901 2013/11/27
 46 52  0  0  0  0  0  0  0  0999 V2000
  161.7398   47.4992  145.9795 P   0  0  1  0  0  0  0  0  0  0  0  0
  160.2131   42.7458  143.2399 P   0  0  1  0  0  0  0  0  0  0  0  0
  160.7341   48.0232  146.9719 O   0  5  0  0  0  0  0  0  0  0  0  0
  163.1001   48.1621  145.9750 O   0  0  0  0  0  0  0  0  0  0  0  0
  163.1234   45.2490  146.1268 C   0  0  0  0  0  0  0  0  0  0  0  0
  161.8653   45.9089  146.1799 O   0  0  0  0  0  0  0  0  0  0  0  0
  162.9190   43.7533  145.9515 C   0  0  1  0  0  0  0  0  0  0  0  0
  163.1405   43.1292  147.2083 O   0  0  0  0  0  0  0  0  0  0  0  0
  161.5272   43.3259  145.5031 C   0  0  1  0  0  0  0  0  0  0  0  0
  161.5532   42.9835  144.1252 O   0  0  0  0  0  0  0  0  0  0  0  0
  161.2737   42.0635  146.2961 C   0  0  1  0  0  0  0  0  0  0  0  0
  161.7389   40.9317  145.5580 O   0  0  0  0  0  0  0  0  0  0  0  0
  162.1392   42.1720  147.5179 C   0  0  2  0  0  0  0  0  0  0  0  0
  157.5321   47.4382  143.6696 C   0  0  1  0  0  0  0  0  0  0  0  0
  157.9645   41.3878  150.6007 N   0  0  0  0  0  0  0  0  0  0  0  0
  158.4332   40.6552  149.5728 C   0  0  1  0  0  0  0  0  0  0  0  0
  158.6417   47.8602  144.6099 C   0  0  2  0  0  0  0  0  0  0  0  0
  157.7803   39.5253  149.2201 N   0  0  0  0  0  0  0  0  0  0  0  0
  158.9627   49.2217  144.3111 O   0  0  0  0  0  0  0  0  0  0  0  0
  159.8103   46.9473  144.2889 C   0  0  2  0  0  0  0  0  0  0  0  0
  159.5324   40.9874  148.8586 N   0  0  0  0  0  0  0  0  0  0  0  0
  161.0607   47.5947  144.5204 O   0  0  0  0  0  0  0  0  0  0  0  0
  160.2368   42.1025  149.1473 C   0  0  2  0  0  0  0  0  0  0  0  0
  159.5837   46.6371  142.8109 C   0  0  2  0  0  0  0  0  0  0  0  0
  158.1894   46.8236  142.5582 O   0  0  0  0  0  0  0  0  0  0  0  0
  159.7824   42.9496  150.2544 C   0  0  2  0  0  0  0  0  0  0  0  0
  159.9937   45.2275  142.3732 C   0  0  0  0  0  0  0  0  0  0  0  0
  159.5252   44.2073  143.2542 O   0  0  0  0  0  0  0  0  0  0  0  0
  158.5702   42.5221  150.9919 C   0  0  0  0  0  0  0  0  0  0  0  0
  158.1381   43.2073  151.9499 O   0  0  0  0  0  0  0  0  0  0  0  0
  160.6475   43.9774  150.3176 N   0  0  0  0  0  0  0  0  0  0  0  0
  161.5737   43.8068  149.3438 C   0  0  0  0  0  0  0  0  0  0  0  0
  161.3262   42.6844  148.6463 N   0  0  1  0  0  0  0  0  0  0  0  0
  152.7889   45.1914  143.9717 N   0  0  0  0  0  0  0  0  0  0  0  0
  160.6891   42.4286  141.8347 O   0  5  0  0  0  0  0  0  0  0  0  0
  153.2324   46.1586  143.1540 C   0  0  2  0  0  0  0  0  0  0  0  0
  152.3659   46.6565  142.2592 N   0  0  0  0  0  0  0  0  0  0  0  0
  159.2919   41.8051  143.9779 O   0  0  0  0  0  0  0  0  0  0  0  0
  154.4948   46.6460  143.1858 N   0  0  0  0  0  0  0  0  0  0  0  0
  155.3957   46.1659  144.0686 C   0  0  1  0  0  0  0  0  0  0  0  0
  154.9689   45.1003  144.9975 C   0  0  1  0  0  0  0  0  0  0  0  0
  153.5690   44.6166  144.8886 C   0  0  0  0  0  0  0  0  0  0  0  0
  153.1099   43.7230  145.6321 O   0  0  0  0  0  0  0  0  0  0  0  0
  156.0393   44.8045  145.7518 N   0  0  0  0  0  0  0  0  0  0  0  0
  157.0548   45.6150  145.3429 C   0  0  0  0  0  0  0  0  0  0  0  0
  156.6749   46.4268  144.3363 N   0  0  2  0  0  0  0  0  0  0  0  0
  1  3  1  1  0  0  0
  1  4  2  0  0  0  0
  1  6  1  0  0  0  0
  1 22  1  0  0  0  0
  2 28  1  0  0  0  0
  2 35  1  6  0  0  0
  2 38  2  0  0  0  0
  2 10  1  0  0  0  0
  5  6  1  0  0  0  0
  7  5  1  1  0  0  0
  7  8  1  0  0  0  0
  7  9  1  0  0  0  0
  9 10  1  6  0  0  0
  9 11  1  0  0  0  0
 11 12  1  6  0  0  0
 11 13  1  0  0  0  0
 13  8  1  6  0  0  0
 13 33  1  0  0  0  0
 14 46  1  0  0  0  0
 14 17  1  0  0  0  0
 14 25  1  6  0  0  0
 15 16  1  0  0  0  0
 15 29  1  0  0  0  0
 16 18  1  6  0  0  0
 16 21  1  0  0  0  0
 17 19  1  6  0  0  0
 17 20  1  0  0  0  0
 20 22  1  6  0  0  0
 20 24  1  0  0  0  0
 23 21  1  6  0  0  0
 23 26  1  0  0  0  0
 23 33  1  0  0  0  0
 24 25  1  1  0  0  0
 24 27  1  0  0  0  0
 26 29  1  6  0  0  0
 26 31  1  0  0  0  0
 27 28  1  0  0  0  0
 29 30  2  0  0  0  0
 31 32  1  0  0  0  0
 33 32  1  1  0  0  0
 34 36  1  0  0  0  0
 34 42  1  0  0  0  0
 36 37  1  6  0  0  0
 36 39  1  0  0  0  0
 40 39  1  6  0  0  0
 40 41  1  0  0  0  0
 40 46  1  0  0  0  0
 41 42  1  6  0  0  0
 41 44  1  0  0  0  0
 42 43  2  0  0  0  0
 44 45  1  0  0  0  0
 46 45  1  1  0  0  0
M  CHG  2   3  -1  35  -1
M  END
>  <CHROM.1>
174.90625457,154.63636715,159.13658280,44.55682648,145.78088396,-0.83711738
-0.09589541,-0.84771741

>  <Name>
ligand

>  <RI>
0

>  <Rbt.Current_Directory>
/home/itssahil/PROJECTS/Mol_Feturizer/Test_systems_manuscript/rnas/4yb0

>  <Rbt.Executable>
rbdock ($Id: //depot/dev/client3/rdock/2013.1/src/exe/rbdock.cxx#4 $)

>  <Rbt.Library>
libRbt.so (2013.1, Build901 2013/11/27)

>  <Rbt.Parameter_File>
/export/apps/rDock/src/rDock_2013.1_src/data/scripts/dock_solv.prm

>  <Rbt.Receptor>
prm/pocket_docking_6.prm

>  <SCORE>
-17.9621

>  <SCORE.INTER>
-18.4152

>  <SCORE.INTER.CONST>
1

>  <SCORE.INTER.POLAR>
0

>  <SCORE.INTER.ROT>
2

>  <SCORE.INTER.SOLV>
28.3419

>  <SCORE.INTER.VDW>
-26.6574

>  <SCORE.INTER.norm>
-0.40033

>  <SCORE.INTRA>
0.453037

>  <SCORE.INTRA.DIHEDRAL>
0.000636381

>  <SCORE.INTRA.DIHEDRAL.0>
2.42188

>  <SCORE.INTRA.POLAR>
0

>  <SCORE.INTRA.POLAR.0>
0

>  <SCORE.INTRA.REPUL>
0

>  <SCORE.INTRA.REPUL.0>
0

>  <SCORE.INTRA.SOLV>
0.00801431

>  <SCORE.INTRA.SOLV.lig_0>
-127.307

>  <SCORE.INTRA.VDW>
0.448711

>  <SCORE.INTRA.VDW.0>
-2.19936

>  <SCORE.INTRA.norm>
0.00984862

>  <SCORE.RESTR>
0

>  <SCORE.RESTR.CAVITY>
0

>  <SCORE.RESTR.norm>
0

>  <SCORE.SYSTEM>
0

>  <SCORE.SYSTEM.CONST>
0

>  <SCORE.SYSTEM.DIHEDRAL>
0

>  <SCORE.SYSTEM.SOLV>
0

>  <SCORE.SYSTEM.norm>
0

>  <SCORE.heavy>
46

>  <SCORE.norm>
-0.390481

>  <RMSD>
6.099

$$$$
ligand
 OpenBabel02271912143D
libRbt.so/2013.1/901 2013/11/27
 46 52  0  0  0  0  0  0  0  0999 V2000
  157.0899   49.0838  148.7539 P   0  0  1  0  0  0  0  0  0  0  0  0
  160.2371   44.5287  147.4207 P   0  0  1  0  0  0  0  0  0  0  0  0
  156.5695   49.8740  147.5810 O   0  5  0  0  0  0  0  0  0  0  0  0
  156.5556   49.4601  150.1187 O   0  0  0  0  0  0  0  0  0  0  0  0
  156.4240   46.6219  149.4576 C   0  0  0  0  0  0  0  0  0  0  0  0
  156.8658   47.5212  148.4490 O   0  0  0  0  0  0  0  0  0  0  0  0
  156.6744   45.1878  149.0215 C   0  0  1  0  0  0  0  0  0  0  0  0
  155.4354   44.6331  148.6028 O   0  0  0  0  0  0  0  0  0  0  0  0
  157.6362   45.0121  147.8532 C   0  0  1  0  0  0  0  0  0  0  0  0
  158.8950   44.5638  148.3337 O   0  0  0  0  0  0  0  0  0  0  0  0
  157.0140   43.8919  147.0500 C   0  0  1  0  0  0  0  0  0  0  0  0
  157.5166   42.6356  147.5096 O   0  0  0  0  0  0  0  0  0  0  0  0
  155.5499   43.9218  147.3798 C   0  0  2  0  0  0  0  0  0  0  0  0
  160.8678   49.6799  145.8528 C   0  0  1  0  0  0  0  0  0  0  0  0
  155.8209   47.7113  143.7585 N   0  0  0  0  0  0  0  0  0  0  0  0
  156.7529   47.2720  144.6253 C   0  0  1  0  0  0  0  0  0  0  0  0
  159.5646   49.9453  146.5772 C   0  0  2  0  0  0  0  0  0  0  0  0
  157.9761   47.8475  144.6220 N   0  0  0  0  0  0  0  0  0  0  0  0
  159.7052   51.1877  147.2719 O   0  0  0  0  0  0  0  0  0  0  0  0
  159.4060   48.7956  147.5545 C   0  0  2  0  0  0  0  0  0  0  0  0
  156.5358   46.2769  145.5150 N   0  0  0  0  0  0  0  0  0  0  0  0
  158.6979   49.1972  148.7264 O   0  0  0  0  0  0  0  0  0  0  0  0
  155.3394   45.6548  145.5822 C   0  0  2  0  0  0  0  0  0  0  0  0
  160.8559   48.4212  147.8537 C   0  0  2  0  0  0  0  0  0  0  0  0
  161.6351   48.8611  146.7393 O   0  0  0  0  0  0  0  0  0  0  0  0
  154.2761   46.0834  144.6681 C   0  0  2  0  0  0  0  0  0  0  0  0
  161.1056   46.9282  148.0886 C   0  0  0  0  0  0  0  0  0  0  0  0
  160.4857   46.0944  147.1105 O   0  0  0  0  0  0  0  0  0  0  0  0
  154.5871   47.1795  143.7206 C   0  0  0  0  0  0  0  0  0  0  0  0
  153.7158   47.5845  142.9138 O   0  0  0  0  0  0  0  0  0  0  0  0
  153.2093   45.3142  144.9495 N   0  0  0  0  0  0  0  0  0  0  0  0
  153.5542   44.4680  145.9495 C   0  0  0  0  0  0  0  0  0  0  0  0
  154.8287   44.6732  146.3252 N   0  0  1  0  0  0  0  0  0  0  0  0
  159.3825   49.8438  140.8125 N   0  0  0  0  0  0  0  0  0  0  0  0
  161.3441   44.0133  148.3212 O   0  5  0  0  0  0  0  0  0  0  0  0
  159.5377   50.8412  141.6967 C   0  0  2  0  0  0  0  0  0  0  0  0
  159.2876   52.0885  141.2711 N   0  0  0  0  0  0  0  0  0  0  0  0
  159.9261   43.8514  146.1082 O   0  0  0  0  0  0  0  0  0  0  0  0
  159.9325   50.6522  142.9776 N   0  0  0  0  0  0  0  0  0  0  0  0
  160.1982   49.4124  143.4398 C   0  0  1  0  0  0  0  0  0  0  0  0
  160.0451   48.2710  142.5155 C   0  0  1  0  0  0  0  0  0  0  0  0
  159.6170   48.5682  141.1248 C   0  0  0  0  0  0  0  0  0  0  0  0
  159.4532   47.6722  140.2691 O   0  0  0  0  0  0  0  0  0  0  0  0
  160.3715   47.1719  143.2139 N   0  0  0  0  0  0  0  0  0  0  0  0
  160.6971   47.5781  144.4725 C   0  0  0  0  0  0  0  0  0  0  0  0
  160.5976   48.9151  144.6101 N   0  0  2  0  0  0  0  0  0  0  0  0
  1  3  1  6  0  0  0
  1  4  2  0  0  0  0
  1  6  1  0  0  0  0
  1 22  1  0  0  0  0
  2 28  1  0  0  0  0
  2 35  1  1  0  0  0
  2 38  2  0  0  0  0
  2 10  1  0  0  0  0
  5  6  1  0  0  0  0
  7  5  1  6  0  0  0
  7  8  1  0  0  0  0
  7  9  1  0  0  0  0
  9 10  1  1  0  0  0
  9 11  1  0  0  0  0
 11 12  1  1  0  0  0
 11 13  1  0  0  0  0
 13  8  1  1  0  0  0
 13 33  1  0  0  0  0
 14 46  1  0  0  0  0
 14 17  1  0  0  0  0
 14 25  1  1  0  0  0
 15 16  1  0  0  0  0
 15 29  1  0  0  0  0
 16 18  1  1  0  0  0
 16 21  1  0  0  0  0
 17 19  1  1  0  0  0
 17 20  1  0  0  0  0
 20 22  1  1  0  0  0
 20 24  1  0  0  0  0
 23 21  1  1  0  0  0
 23 26  1  0  0  0  0
 23 33  1  0  0  0  0
 24 25  1  6  0  0  0
 24 27  1  0  0  0  0
 26 29  1  1  0  0  0
 26 31  1  0  0  0  0
 27 28  1  0  0  0  0
 29 30  2  0  0  0  0
 31 32  1  0  0  0  0
 33 32  1  6  0  0  0
 34 36  1  0  0  0  0
 34 42  1  0  0  0  0
 36 37  1  6  0  0  0
 36 39  1  0  0  0  0
 40 39  1  6  0  0  0
 40 41  1  0  0  0  0
 40 46  1  0  0  0  0
 41 42  1  6  0  0  0
 41 44  1  0  0  0  0
 42 43  2  0  0  0  0
 44 45  1  0  0  0  0
 46 45  1  1  0  0  0
M  CHG  2   3  -1  35  -1
M  END
>  <CHROM.1>
86.68871100,82.17342963,158.13595098,47.24203101,146.00437580,-2.05251931
-0.50936293,-1.07879643

>  <Name>
ligand

>  <RI>
0

>  <Rbt.Current_Directory>
/home/itssahil/PROJECTS/Mol_Feturizer/Test_systems_manuscript/rnas/4yb0

>  <Rbt.Executable>
rbdock ($Id: //depot/dev/client3/rdock/2013.1/src/exe/rbdock.cxx#4 $)

>  <Rbt.Library>
libRbt.so (2013.1, Build901 2013/11/27)

>  <Rbt.Parameter_File>
/export/apps/rDock/src/rDock_2013.1_src/data/scripts/dock_solv.prm

>  <Rbt.Receptor>
prm/pocket_docking_7.prm

>  <SCORE>
-16.9413

>  <SCORE.INTER>
-19.8455

>  <SCORE.INTER.CONST>
1

>  <SCORE.INTER.POLAR>
0

>  <SCORE.INTER.ROT>
2

>  <SCORE.INTER.SOLV>
12.2884

>  <SCORE.INTER.VDW>
-22.2598

>  <SCORE.INTER.norm>
-0.431424

>  <SCORE.INTRA>
2.90419

>  <SCORE.INTRA.DIHEDRAL>
-0.0272689

>  <SCORE.INTRA.DIHEDRAL.0>
2.42188

>  <SCORE.INTRA.POLAR>
0

>  <SCORE.INTRA.POLAR.0>
0

>  <SCORE.INTRA.REPUL>
0

>  <SCORE.INTRA.REPUL.0>
0

>  <SCORE.INTRA.SOLV>
9.84347

>  <SCORE.INTRA.SOLV.lig_0>
-127.307

>  <SCORE.INTRA.VDW>
-2.00391

>  <SCORE.INTRA.VDW.0>
-2.19936

>  <SCORE.INTRA.norm>
0.0631345

>  <SCORE.RESTR>
0

>  <SCORE.RESTR.CAVITY>
0

>  <SCORE.RESTR.norm>
0

>  <SCORE.SYSTEM>
0

>  <SCORE.SYSTEM.CONST>
0

>  <SCORE.SYSTEM.DIHEDRAL>
0

>  <SCORE.SYSTEM.SOLV>
0

>  <SCORE.SYSTEM.norm>
0

>  <SCORE.heavy>
46

>  <SCORE.norm>
-0.368289

>  <RMSD>
6.250

$$$$
ligand
 OpenBabel02271912143D
libRbt.so/2013.1/901 2013/11/27
 46 52  0  0  0  0  0  0  0  0999 V2000
  160.2480   43.0772  143.7779 P   0  0  1  0  0  0  0  0  0  0  0  0
  161.0055   48.1395  146.2739 P   0  0  1  0  0  0  0  0  0  0  0  0
  159.5021   42.0578  144.5998 O   0  5  0  0  0  0  0  0  0  0  0  0
  160.5221   42.7180  142.3338 O   0  0  0  0  0  0  0  0  0  0  0  0
  159.3031   45.3324  142.7678 C   0  0  0  0  0  0  0  0  0  0  0  0
  159.4755   44.4824  143.8943 O   0  0  0  0  0  0  0  0  0  0  0  0
  158.9086   46.7272  143.2246 C   0  0  1  0  0  0  0  0  0  0  0  0
  157.5143   46.8844  143.0028 O   0  0  0  0  0  0  0  0  0  0  0  0
  159.1418   47.0288  144.6995 C   0  0  1  0  0  0  0  0  0  0  0  0
  160.2953   47.8443  144.8440 O   0  0  0  0  0  0  0  0  0  0  0  0
  157.9334   47.8517  145.0863 C   0  0  1  0  0  0  0  0  0  0  0  0
  158.2084   49.2376  144.8728 O   0  0  0  0  0  0  0  0  0  0  0  0
  156.8544   47.4675  144.1159 C   0  0  2  0  0  0  0  0  0  0  0  0
  162.2951   43.2072  148.1181 C   0  0  1  0  0  0  0  0  0  0  0  0
  152.2128   45.0214  143.9807 N   0  0  0  0  0  0  0  0  0  0  0  0
  152.7001   46.0005  143.1953 C   0  0  1  0  0  0  0  0  0  0  0  0
  161.5979   42.6820  146.8805 C   0  0  2  0  0  0  0  0  0  0  0  0
  151.9325   46.4808  142.1916 N   0  0  0  0  0  0  0  0  0  0  0  0
  162.3852   41.6023  146.3703 O   0  0  0  0  0  0  0  0  0  0  0  0
  161.5792   43.8442  145.9053 C   0  0  2  0  0  0  0  0  0  0  0  0
  153.9285   46.5435  143.3537 N   0  0  0  0  0  0  0  0  0  0  0  0
  161.6263   43.3941  144.5520 O   0  0  0  0  0  0  0  0  0  0  0  0
  154.7532   46.1201  144.3353 C   0  0  2  0  0  0  0  0  0  0  0  0
  162.8330   44.6207  146.3012 C   0  0  2  0  0  0  0  0  0  0  0  0
  163.1117   44.2896  147.6634 O   0  0  0  0  0  0  0  0  0  0  0  0
  154.2867   45.0564  145.2302 C   0  0  2  0  0  0  0  0  0  0  0  0
  162.7252   46.1424  146.1617 C   0  0  0  0  0  0  0  0  0  0  0  0
  161.5209   46.6730  146.7136 O   0  0  0  0  0  0  0  0  0  0  0  0
  152.9295   44.5094  144.9959 C   0  0  0  0  0  0  0  0  0  0  0  0
  152.4803   43.5961  145.7294 O   0  0  0  0  0  0  0  0  0  0  0  0
  155.2865   44.8372  146.1025 N   0  0  0  0  0  0  0  0  0  0  0  0
  156.3027   45.6792  145.7964 C   0  0  0  0  0  0  0  0  0  0  0  0
  155.9814   46.4444  144.7387 N   0  0  1  0  0  0  0  0  0  0  0  0
  158.1642   42.1604  151.1966 N   0  0  0  0  0  0  0  0  0  0  0  0
  162.2018   49.0231  145.9740 O   0  5  0  0  0  0  0  0  0  0  0  0
  158.8905   41.3393  150.4226 C   0  0  2  0  0  0  0  0  0  0  0  0
  158.5453   40.0433  150.4025 N   0  0  0  0  0  0  0  0  0  0  0  0
  159.9553   48.5673  147.2700 O   0  0  0  0  0  0  0  0  0  0  0  0
  159.9419   41.7496  149.6752 N   0  0  0  0  0  0  0  0  0  0  0  0
  160.3217   43.0446  149.6743 C   0  0  1  0  0  0  0  0  0  0  0  0
  159.5615   43.9996  150.5053 C   0  0  1  0  0  0  0  0  0  0  0  0
  158.4283   43.4638  151.3018 C   0  0  0  0  0  0  0  0  0  0  0  0
  157.7202   44.1908  152.0313 O   0  0  0  0  0  0  0  0  0  0  0  0
  160.1403   45.1982  150.3302 N   0  0  0  0  0  0  0  0  0  0  0  0
  161.1730   45.0218  149.4598 C   0  0  0  0  0  0  0  0  0  0  0  0
  161.2860   43.7370  149.0685 N   0  0  2  0  0  0  0  0  0  0  0  0
  1  3  1  1  0  0  0
  1  4  2  0  0  0  0
  1  6  1  0  0  0  0
  1 22  1  0  0  0  0
  2 28  1  0  0  0  0
  2 35  1  6  0  0  0
  2 38  2  0  0  0  0
  2 10  1  0  0  0  0
  5  6  1  0  0  0  0
  7  5  1  1  0  0  0
  7  8  1  0  0  0  0
  7  9  1  0  0  0  0
  9 10  1  6  0  0  0
  9 11  1  0  0  0  0
 11 12  1  6  0  0  0
 11 13  1  0  0  0  0
 13  8  1  6  0  0  0
 13 33  1  0  0  0  0
 14 46  1  0  0  0  0
 14 17  1  0  0  0  0
 14 25  1  6  0  0  0
 15 16  1  0  0  0  0
 15 29  1  0  0  0  0
 16 18  1  1  0  0  0
 16 21  1  0  0  0  0
 17 19  1  6  0  0  0
 17 20  1  0  0  0  0
 20 22  1  6  0  0  0
 20 24  1  0  0  0  0
 23 21  1  1  0  0  0
 23 26  1  0  0  0  0
 23 33  1  0  0  0  0
 24 25  1  1  0  0  0
 24 27  1  0  0  0  0
 26 29  1  1  0  0  0
 26 31  1  0  0  0  0
 27 28  1  0  0  0  0
 29 30  2  0  0  0  0
 31 32  1  0  0  0  0
 33 32  1  6  0  0  0
 34 36  1  0  0  0  0
 34 42  1  0  0  0  0
 36 37  1  1  0  0  0
 36 39  1  0  0  0  0
 40 39  1  1  0  0  0
 40 41  1  0  0  0  0
 40 46  1  0  0  0  0
 41 42  1  1  0  0  0
 41 44  1  0  0  0  0
 42 43  2  0  0  0  0
 44 45  1  0  0  0  0
 46 45  1  6  0  0  0
M  CHG  2   3  -1  35  -1
M  END
>  <CHROM.1>
-82.86476343,63.12977579,158.82350833,44.99662937,146.17138088,-0.66136881
-0.13285935,-0.92328812

>  <Name>
ligand

>  <RI>
0

>  <Rbt.Current_Directory>
/home/itssahil/PROJECTS/Mol_Feturizer/Test_systems_manuscript/rnas/4yb0

>  <Rbt.Executable>
rbdock ($Id: //depot/dev/client3/rdock/2013.1/src/exe/rbdock.cxx#4 $)

>  <Rbt.Library>
libRbt.so (2013.1, Build901 2013/11/27)

>  <Rbt.Parameter_File>
/export/apps/rDock/src/rDock_2013.1_src/data/scripts/dock_solv.prm

>  <Rbt.Receptor>
prm/pocket_docking_8.prm

>  <SCORE>
-15.908

>  <SCORE.INTER>
-16.4264

>  <SCORE.INTER.CONST>
1

>  <SCORE.INTER.POLAR>
0

>  <SCORE.INTER.ROT>
2

>  <SCORE.INTER.SOLV>
23.3931

>  <SCORE.INTER.VDW>
-23.682

>  <SCORE.INTER.norm>
-0.357096

>  <SCORE.INTRA>
0.518433

>  <SCORE.INTRA.DIHEDRAL>
-0.0490184

>  <SCORE.INTRA.DIHEDRAL.0>
2.42188

>  <SCORE.INTRA.POLAR>
0

>  <SCORE.INTRA.POLAR.0>
0

>  <SCORE.INTRA.REPUL>
0

>  <SCORE.INTRA.REPUL.0>
0

>  <SCORE.INTRA.SOLV>
0.0075002

>  <SCORE.INTRA.SOLV.lig_0>
-127.307

>  <SCORE.INTRA.VDW>
0.539192

>  <SCORE.INTRA.VDW.0>
-2.19936

>  <SCORE.INTRA.norm>
0.0112703

>  <SCORE.RESTR>
0

>  <SCORE.RESTR.CAVITY>
0

>  <SCORE.RESTR.norm>
0

>  <SCORE.SYSTEM>
0

>  <SCORE.SYSTEM.CONST>
0

>  <SCORE.SYSTEM.DIHEDRAL>
0

>  <SCORE.SYSTEM.SOLV>
0

>  <SCORE.SYSTEM.norm>
0

>  <SCORE.heavy>
46

>  <SCORE.norm>
-0.345825

>  <RMSD>
6.313

$$$$
ligand
 OpenBabel02271912143D
libRbt.so/2013.1/901 2013/11/27
 46 52  0  0  0  0  0  0  0  0999 V2000
  162.5036   45.7661  146.4893 P   0  0  1  0  0  0  0  0  0  0  0  0
  160.6072   42.7724  142.0315 P   0  0  1  0  0  0  0  0  0  0  0  0
  161.5294   46.7664  147.0561 O   0  5  0  0  0  0  0  0  0  0  0  0
  163.7707   45.5266  147.2810 O   0  0  0  0  0  0  0  0  0  0  0  0
  162.2978   43.1286  146.5131 C   0  0  0  0  0  0  0  0  0  0  0  0
  161.7151   44.3914  146.2183 O   0  0  0  0  0  0  0  0  0  0  0  0
  161.5264   42.0234  145.8109 C   0  0  1  0  0  0  0  0  0  0  0  0
  160.7082   41.3771  146.7757 O   0  0  0  0  0  0  0  0  0  0  0  0
  160.5928   42.4767  144.6957 C   0  0  1  0  0  0  0  0  0  0  0  0
  161.1801   42.1907  143.4348 O   0  0  0  0  0  0  0  0  0  0  0  0
  159.3836   41.5842  144.8638 C   0  0  1  0  0  0  0  0  0  0  0  0
  159.5532   40.3956  144.0888 O   0  0  0  0  0  0  0  0  0  0  0  0
  159.3853   41.1674  146.3059 C   0  0  2  0  0  0  0  0  0  0  0  0
  160.7851   48.1502  142.6936 C   0  0  1  0  0  0  0  0  0  0  0  0
  158.8636   44.4936  150.3322 N   0  0  0  0  0  0  0  0  0  0  0  0
  159.9416   43.8068  149.9090 C   0  0  1  0  0  0  0  0  0  0  0  0
  161.2579   47.8515  144.1010 C   0  0  2  0  0  0  0  0  0  0  0  0
  161.1105   43.9441  150.5740 N   0  0  0  0  0  0  0  0  0  0  0  0
  162.2981   48.7829  144.4109 O   0  0  0  0  0  0  0  0  0  0  0  0
  161.7990   46.4348  144.0516 C   0  0  2  0  0  0  0  0  0  0  0  0
  159.9254   42.9726  148.8447 N   0  0  0  0  0  0  0  0  0  0  0  0
  162.8565   46.2443  144.9906 O   0  0  0  0  0  0  0  0  0  0  0  0
  158.7955   42.7797  148.1312 C   0  0  2  0  0  0  0  0  0  0  0  0
  162.2800   46.3210  142.6068 C   0  0  2  0  0  0  0  0  0  0  0  0
  161.5371   47.2768  141.8470 O   0  0  0  0  0  0  0  0  0  0  0  0
  157.5816   43.4949  148.5369 C   0  0  2  0  0  0  0  0  0  0  0  0
  162.1167   44.9349  141.9755 C   0  0  0  0  0  0  0  0  0  0  0  0
  160.8285   44.3636  142.2003 O   0  0  0  0  0  0  0  0  0  0  0  0
  157.6751   44.3921  149.7127 C   0  0  0  0  0  0  0  0  0  0  0  0
  156.6683   45.0311  150.1024 O   0  0  0  0  0  0  0  0  0  0  0  0
  156.6213   43.1206  147.6730 N   0  0  0  0  0  0  0  0  0  0  0  0
  157.1665   42.2478  146.7920 C   0  0  0  0  0  0  0  0  0  0  0  0
  158.4668   42.0466  147.0677 N   0  0  1  0  0  0  0  0  0  0  0  0
  156.5208   46.1329  145.0140 N   0  0  0  0  0  0  0  0  0  0  0  0
  161.5337   42.2485  140.9503 O   0  5  0  0  0  0  0  0  0  0  0  0
  157.7626   46.3022  145.4937 C   0  0  2  0  0  0  0  0  0  0  0  0
  157.9958   45.9119  146.7556 N   0  0  0  0  0  0  0  0  0  0  0  0
  159.1194   42.5274  141.9639 O   0  0  0  0  0  0  0  0  0  0  0  0
  158.7752   46.8436  144.7769 N   0  0  0  0  0  0  0  0  0  0  0  0
  158.5768   47.2526  143.5062 C   0  0  1  0  0  0  0  0  0  0  0  0
  157.2313   47.0925  142.9193 C   0  0  1  0  0  0  0  0  0  0  0  0
  156.1755   46.4981  143.7782 C   0  0  0  0  0  0  0  0  0  0  0  0
  155.0074   46.3154  143.3731 O   0  0  0  0  0  0  0  0  0  0  0  0
  157.3036   47.5757  141.6689 N   0  0  0  0  0  0  0  0  0  0  0  0
  158.5836   47.9995  141.4759 C   0  0  0  0  0  0  0  0  0  0  0  0
  159.3456   47.8109  142.5715 N   0  0  2  0  0  0  0  0  0  0  0  0
  1  3  1  1  0  0  0
  1  4  2  0  0  0  0
  1  6  1  0  0  0  0
  1 22  1  0  0  0  0
  2 28  1  0  0  0  0
  2 35  1  6  0  0  0
  2 38  2  0  0  0  0
  2 10  1  0  0  0  0
  5  6  1  0  0  0  0
  7  5  1  1  0  0  0
  7  8  1  0  0  0  0
  7  9  1  0  0  0  0
  9 10  1  6  0  0  0
  9 11  1  0  0  0  0
 11 12  1  6  0  0  0
 11 13  1  0  0  0  0
 13  8  1  1  0  0  0
 13 33  1  0  0  0  0
 14 46  1  0  0  0  0
 14 17  1  0  0  0  0
 14 25  1  6  0  0  0
 15 16  1  0  0  0  0
 15 29  1  0  0  0  0
 16 18  1  1  0  0  0
 16 21  1  0  0  0  0
 17 19  1  6  0  0  0
 17 20  1  0  0  0  0
 20 22  1  1  0  0  0
 20 24  1  0  0  0  0
 23 21  1  1  0  0  0
 23 26  1  0  0  0  0
 23 33  1  0  0  0  0
 24 25  1  6  0  0  0
 24 27  1  0  0  0  0
 26 29  1  1  0  0  0
 26 31  1  0  0  0  0
 27 28  1  0  0  0  0
 29 30  2  0  0  0  0
 31 32  1  0  0  0  0
 33 32  1  6  0  0  0
 34 36  1  0  0  0  0
 34 42  1  0  0  0  0
 36 37  1  1  0  0  0
 36 39  1  0  0  0  0
 40 39  1  1  0  0  0
 40 41  1  0  0  0  0
 40 46  1  0  0  0  0
 41 42  1  1  0  0  0
 41 44  1  0  0  0  0
 42 43  2  0  0  0  0
 44 45  1  0  0  0  0
 46 45  1  6  0  0  0
M  CHG  2   3  -1  35  -1
M  END
>  <CHROM.1>
-8.08260817,-3.84388943,159.88941215,44.71249070,145.17961877,-1.79895304
0.72794812,-0.97172661

>  <Name>
ligand

>  <RI>
0

>  <Rbt.Current_Directory>
/home/itssahil/PROJECTS/Mol_Feturizer/Test_systems_manuscript/rnas/4yb0

>  <Rbt.Executable>
rbdock ($Id: //depot/dev/client3/rdock/2013.1/src/exe/rbdock.cxx#4 $)

>  <Rbt.Library>
libRbt.so (2013.1, Build901 2013/11/27)

>  <Rbt.Parameter_File>
/export/apps/rDock/src/rDock_2013.1_src/data/scripts/dock_solv.prm

>  <Rbt.Receptor>
prm/pocket_docking_5.prm

>  <SCORE>
-11.0513

>  <SCORE.INTER>
-12.4545

>  <SCORE.INTER.CONST>
1

>  <SCORE.INTER.POLAR>
0

>  <SCORE.INTER.ROT>
2

>  <SCORE.INTER.SOLV>
20.6646

>  <SCORE.INTER.VDW>
-20.1245

>  <SCORE.INTER.norm>
-0.270749

>  <SCORE.INTRA>
1.3447

>  <SCORE.INTRA.DIHEDRAL>
-0.0173187

>  <SCORE.INTRA.DIHEDRAL.0>
2.42188

>  <SCORE.INTRA.POLAR>
0

>  <SCORE.INTRA.POLAR.0>
0

>  <SCORE.INTRA.REPUL>
0

>  <SCORE.INTRA.REPUL.0>
0

>  <SCORE.INTRA.SOLV>
5.6877

>  <SCORE.INTRA.SOLV.lig_0>
-127.307

>  <SCORE.INTRA.VDW>
-1.49049

>  <SCORE.INTRA.VDW.0>
-2.19936

>  <SCORE.INTRA.norm>
0.0292327

>  <SCORE.RESTR>
0.0584238

>  <SCORE.RESTR.CAVITY>
0.0584238

>  <SCORE.RESTR.norm>
0.00127008

>  <SCORE.SYSTEM>
0

>  <SCORE.SYSTEM.CONST>
0

>  <SCORE.SYSTEM.DIHEDRAL>
0

>  <SCORE.SYSTEM.SOLV>
0

>  <SCORE.SYSTEM.norm>
0

>  <SCORE.heavy>
46

>  <SCORE.norm>
-0.240247

>  <RMSD>
6.374

$$$$
ligand
 OpenBabel02271912143D
libRbt.so/2013.1/901 2013/11/27
 46 52  0  0  0  0  0  0  0  0999 V2000
  161.2522   49.3445  146.8184 P   0  0  1  0  0  0  0  0  0  0  0  0
  157.8780   44.8737  147.8472 P   0  0  1  0  0  0  0  0  0  0  0  0
  162.3334   49.1145  145.7940 O   0  5  0  0  0  0  0  0  0  0  0  0
  161.0571   50.7676  147.2938 O   0  0  0  0  0  0  0  0  0  0  0  0
  158.6381   49.3948  146.4145 C   0  0  0  0  0  0  0  0  0  0  0  0
  159.8810   48.7240  146.2528 O   0  0  0  0  0  0  0  0  0  0  0  0
  157.4905   48.4333  146.1533 C   0  0  1  0  0  0  0  0  0  0  0  0
  156.9702   48.7107  144.8609 O   0  0  0  0  0  0  0  0  0  0  0  0
  157.8555   46.9542  146.1570 C   0  0  1  0  0  0  0  0  0  0  0  0
  157.4254   46.3589  147.3724 O   0  0  0  0  0  0  0  0  0  0  0  0
  157.0208   46.3825  145.0330 C   0  0  1  0  0  0  0  0  0  0  0  0
  155.7551   45.9585  145.5430 O   0  0  0  0  0  0  0  0  0  0  0  0
  156.7531   47.5302  144.1032 C   0  0  2  0  0  0  0  0  0  0  0  0
  163.2877   45.1724  148.0411 C   0  0  1  0  0  0  0  0  0  0  0  0
  158.7465   50.0587  139.9583 N   0  0  0  0  0  0  0  0  0  0  0  0
  157.7646   50.4214  140.8053 C   0  0  1  0  0  0  0  0  0  0  0  0
  163.1198   46.5808  147.5103 C   0  0  2  0  0  0  0  0  0  0  0  0
  157.1477   51.6106  140.6251 N   0  0  0  0  0  0  0  0  0  0  0  0
  164.0467   47.4161  148.2095 O   0  0  0  0  0  0  0  0  0  0  0  0
  161.6900   46.9674  147.8399 C   0  0  2  0  0  0  0  0  0  0  0  0
  157.3491   49.6553  141.8394 N   0  0  0  0  0  0  0  0  0  0  0  0
  161.5648   48.3709  148.0648 O   0  0  0  0  0  0  0  0  0  0  0  0
  157.9133   48.4531  142.0830 C   0  0  2  0  0  0  0  0  0  0  0  0
  161.4157   46.1519  149.1015 C   0  0  2  0  0  0  0  0  0  0  0  0
  162.3108   45.0379  149.0768 O   0  0  0  0  0  0  0  0  0  0  0  0
  158.9886   47.9932  141.1987 C   0  0  2  0  0  0  0  0  0  0  0  0
  159.9779   45.6433  149.2458 C   0  0  0  0  0  0  0  0  0  0  0  0
  159.4709   45.0466  148.0528 O   0  0  0  0  0  0  0  0  0  0  0  0
  159.3909   48.8863  140.0867 C   0  0  0  0  0  0  0  0  0  0  0  0
  160.3073   48.5446  139.3009 O   0  0  0  0  0  0  0  0  0  0  0  0
  159.3585   46.7845  141.6580 N   0  0  0  0  0  0  0  0  0  0  0  0
  158.5945   46.4943  142.7385 C   0  0  0  0  0  0  0  0  0  0  0  0
  157.7319   47.4942  142.9909 N   0  0  1  0  0  0  0  0  0  0  0  0
  160.8372   40.7193  146.6985 N   0  0  0  0  0  0  0  0  0  0  0  0
  157.2196   44.6449  149.1948 O   0  5  0  0  0  0  0  0  0  0  0  0
  160.8782   41.3568  147.8786 C   0  0  2  0  0  0  0  0  0  0  0  0
  160.2027   40.8095  148.9001 N   0  0  0  0  0  0  0  0  0  0  0  0
  157.6716   43.9049  146.7083 O   0  0  0  0  0  0  0  0  0  0  0  0
  161.5555   42.5108  148.0836 N   0  0  0  0  0  0  0  0  0  0  0  0
  162.2421   43.0934  147.0784 C   0  0  1  0  0  0  0  0  0  0  0  0
  162.2373   42.4401  145.7541 C   0  0  1  0  0  0  0  0  0  0  0  0
  161.4610   41.1818  145.6137 C   0  0  0  0  0  0  0  0  0  0  0  0
  161.3990   40.5503  144.5370 O   0  0  0  0  0  0  0  0  0  0  0  0
  162.9785   43.2153  144.9467 N   0  0  0  0  0  0  0  0  0  0  0  0
  163.4206   44.2652  145.6935 C   0  0  0  0  0  0  0  0  0  0  0  0
  162.9805   44.1972  146.9655 N   0  0  2  0  0  0  0  0  0  0  0  0
  1  3  1  6  0  0  0
  1  4  2  0  0  0  0
  1  6  1  0  0  0  0
  1 22  1  0  0  0  0
  2 28  1  0  0  0  0
  2 35  1  1  0  0  0
  2 38  2  0  0  0  0
  2 10  1  0  0  0  0
  5  6  1  0  0  0  0
  7  5  1  6  0  0  0
  7  8  1  0  0  0  0
  7  9  1  0  0  0  0
  9 10  1  1  0  0  0
  9 11  1  0  0  0  0
 11 12  1  1  0  0  0
 11 13  1  0  0  0  0
 13  8  1  1  0  0  0
 13 33  1  0  0  0  0
 14 46  1  0  0  0  0
 14 17  1  0  0  0  0
 14 25  1  1  0  0  0
 15 16  1  0  0  0  0
 15 29  1  0  0  0  0
 16 18  1  6  0  0  0
 16 21  1  0  0  0  0
 17 19  1  1  0  0  0
 17 20  1  0  0  0  0
 20 22  1  1  0  0  0
 20 24  1  0  0  0  0
 23 21  1  6  0  0  0
 23 26  1  0  0  0  0
 23 33  1  0  0  0  0
 24 25  1  6  0  0  0
 24 27  1  0  0  0  0
 26 29  1  6  0  0  0
 26 31  1  0  0  0  0
 27 28  1  0  0  0  0
 29 30  2  0  0  0  0
 31 32  1  0  0  0  0
 33 32  1  1  0  0  0
 34 36  1  0  0  0  0
 34 42  1  0  0  0  0
 36 37  1  6  0  0  0
 36 39  1  0  0  0  0
 40 39  1  6  0  0  0
 40 41  1  0  0  0  0
 40 46  1  0  0  0  0
 41 42  1  6  0  0  0
 41 44  1  0  0  0  0
 42 43  2  0  0  0  0
 44 45  1  0  0  0  0
 46 45  1  1  0  0  0
M  CHG  2   3  -1  35  -1
M  END
>  <CHROM.1>
-54.92807934,-135.46500145,159.87263686,46.34174277,145.72809236,-2.33519755
1.04255567,3.07795123

>  <Name>
ligand

>  <RI>
0

>  <Rbt.Current_Directory>
/home/itssahil/PROJECTS/Mol_Feturizer/Test_systems_manuscript/rnas/4yb0

>  <Rbt.Executable>
rbdock ($Id: //depot/dev/client3/rdock/2013.1/src/exe/rbdock.cxx#4 $)

>  <Rbt.Library>
libRbt.so (2013.1, Build901 2013/11/27)

>  <Rbt.Parameter_File>
/export/apps/rDock/src/rDock_2013.1_src/data/scripts/dock_solv.prm

>  <Rbt.Receptor>
prm/pocket_docking_7.prm

>  <SCORE>
-15.2037

>  <SCORE.INTER>
-15.3416

>  <SCORE.INTER.CONST>
1

>  <SCORE.INTER.POLAR>
0

>  <SCORE.INTER.ROT>
2

>  <SCORE.INTER.SOLV>
12.6914

>  <SCORE.INTER.VDW>
-19.3915

>  <SCORE.INTER.norm>
-0.333513

>  <SCORE.INTRA>
0.137905

>  <SCORE.INTRA.DIHEDRAL>
-0.0375223

>  <SCORE.INTRA.DIHEDRAL.0>
2.42188

>  <SCORE.INTRA.POLAR>
0

>  <SCORE.INTRA.POLAR.0>
0

>  <SCORE.INTRA.REPUL>
0

>  <SCORE.INTRA.REPUL.0>
0

>  <SCORE.INTRA.SOLV>
0.0663237

>  <SCORE.INTRA.SOLV.lig_0>
-127.307

>  <SCORE.INTRA.VDW>
0.123504

>  <SCORE.INTRA.VDW.0>
-2.19936

>  <SCORE.INTRA.norm>
0.00299794

>  <SCORE.RESTR>
0

>  <SCORE.RESTR.CAVITY>
0

>  <SCORE.RESTR.norm>
0

>  <SCORE.SYSTEM>
0

>  <SCORE.SYSTEM.CONST>
0

>  <SCORE.SYSTEM.DIHEDRAL>
0

>  <SCORE.SYSTEM.SOLV>
0

>  <SCORE.SYSTEM.norm>
0

>  <SCORE.heavy>
46

>  <SCORE.norm>
-0.330515

>  <RMSD>
6.379

$$$$
ligand
 OpenBabel02271912143D
libRbt.so/2013.1/901 2013/11/27
 46 52  0  0  0  0  0  0  0  0999 V2000
  161.9013   44.9338  150.8481 P   0  0  1  0  0  0  0  0  0  0  0  0
  158.1680   43.2082  146.9091 P   0  0  1  0  0  0  0  0  0  0  0  0
  162.9491   45.9024  150.3634 O   0  5  0  0  0  0  0  0  0  0  0  0
  161.8328   44.6965  152.3410 O   0  0  0  0  0  0  0  0  0  0  0  0
  159.2973   45.3521  151.0562 C   0  0  0  0  0  0  0  0  0  0  0  0
  160.4769   45.3973  150.2640 O   0  0  0  0  0  0  0  0  0  0  0  0
  158.0694   45.4590  150.1670 C   0  0  1  0  0  0  0  0  0  0  0  0
  157.5624   46.7816  150.2749 O   0  0  0  0  0  0  0  0  0  0  0  0
  158.3069   45.2137  148.6824 C   0  0  1  0  0  0  0  0  0  0  0  0
  157.8392   43.9197  148.3310 O   0  0  0  0  0  0  0  0  0  0  0  0
  157.4159   46.2338  148.0097 C   0  0  1  0  0  0  0  0  0  0  0  0
  156.1235   45.6674  147.7840 O   0  0  0  0  0  0  0  0  0  0  0  0
  157.2382   47.3387  149.0103 C   0  0  2  0  0  0  0  0  0  0  0  0
  163.5850   43.0411  146.7704 C   0  0  1  0  0  0  0  0  0  0  0  0
  159.2901   50.4587  145.3222 N   0  0  0  0  0  0  0  0  0  0  0  0
  158.3645   49.4863  145.2185 C   0  0  1  0  0  0  0  0  0  0  0  0
  163.5328   43.7942  148.0834 C   0  0  2  0  0  0  0  0  0  0  0  0
  157.8323   49.2126  144.0065 N   0  0  0  0  0  0  0  0  0  0  0  0
  164.5342   43.2357  148.9384 O   0  0  0  0  0  0  0  0  0  0  0  0
  162.1445   43.5381  148.6393 C   0  0  2  0  0  0  0  0  0  0  0  0
  157.9303   48.7532  146.2687 N   0  0  0  0  0  0  0  0  0  0  0  0
  162.1415   43.5444  150.0662 O   0  0  0  0  0  0  0  0  0  0  0  0
  158.4163   48.9642  147.5106 C   0  0  2  0  0  0  0  0  0  0  0  0
  161.8136   42.1621  148.0657 C   0  0  2  0  0  0  0  0  0  0  0  0
  162.6101   42.0017  146.8899 O   0  0  0  0  0  0  0  0  0  0  0  0
  159.4294   50.0075  147.6972 C   0  0  2  0  0  0  0  0  0  0  0  0
  160.3391   41.9436  147.7123 C   0  0  0  0  0  0  0  0  0  0  0  0
  159.7717   43.0262  146.9758 O   0  0  0  0  0  0  0  0  0  0  0  0
  159.8564   50.7703  146.5006 C   0  0  0  0  0  0  0  0  0  0  0  0
  160.7182   51.6764  146.6024 O   0  0  0  0  0  0  0  0  0  0  0  0
  159.7363   50.0001  149.0066 N   0  0  0  0  0  0  0  0  0  0  0  0
  158.9889   49.0431  149.6073 C   0  0  0  0  0  0  0  0  0  0  0  0
  158.1998   48.4260  148.7107 N   0  0  1  0  0  0  0  0  0  0  0  0
  161.4065   43.4798  142.0061 N   0  0  0  0  0  0  0  0  0  0  0  0
  157.5053   41.8443  146.9590 O   0  5  0  0  0  0  0  0  0  0  0  0
  161.6009   42.3913  142.7665 C   0  0  2  0  0  0  0  0  0  0  0  0
  161.1899   41.2129  142.2748 N   0  0  0  0  0  0  0  0  0  0  0  0
  157.8688   44.1757  145.7898 O   0  0  0  0  0  0  0  0  0  0  0  0
  162.1799   42.4255  143.9895 N   0  0  0  0  0  0  0  0  0  0  0  0
  162.6011   43.5933  144.5189 C   0  0  1  0  0  0  0  0  0  0  0  0
  162.4166   44.8283  143.7307 C   0  0  1  0  0  0  0  0  0  0  0  0
  161.7639   44.7023  142.4027 C   0  0  0  0  0  0  0  0  0  0  0  0
  161.5677   45.6863  141.6574 O   0  0  0  0  0  0  0  0  0  0  0  0
  162.9080   45.8305  144.4766 N   0  0  0  0  0  0  0  0  0  0  0  0
  163.3699   45.2803  145.6338 C   0  0  0  0  0  0  0  0  0  0  0  0
  163.1856   43.9455  145.6638 N   0  0  2  0  0  0  0  0  0  0  0  0
  1  3  1  6  0  0  0
  1  4  2  0  0  0  0
  1  6  1  0  0  0  0
  1 22  1  0  0  0  0
  2 28  1  0  0  0  0
  2 35  1  6  0  0  0
  2 38  2  0  0  0  0
  2 10  1  0  0  0  0
  5  6  1  0  0  0  0
  7  5  1  1  0  0  0
  7  8  1  0  0  0  0
  7  9  1  0  0  0  0
  9 10  1  6  0  0  0
  9 11  1  0  0  0  0
 11 12  1  1  0  0  0
 11 13  1  0  0  0  0
 13  8  1  1  0  0  0
 13 33  1  0  0  0  0
 14 46  1  0  0  0  0
 14 17  1  0  0  0  0
 14 25  1  1  0  0  0
 15 16  1  0  0  0  0
 15 29  1  0  0  0  0
 16 18  1  6  0  0  0
 16 21  1  0  0  0  0
 17 19  1  1  0  0  0
 17 20  1  0  0  0  0
 20 22  1  1  0  0  0
 20 24  1  0  0  0  0
 23 21  1  6  0  0  0
 23 26  1  0  0  0  0
 23 33  1  0  0  0  0
 24 25  1  6  0  0  0
 24 27  1  0  0  0  0
 26 29  1  6  0  0  0
 26 31  1  0  0  0  0
 27 28  1  0  0  0  0
 29 30  2  0  0  0  0
 31 32  1  0  0  0  0
 33 32  1  1  0  0  0
 34 36  1  0  0  0  0
 34 42  1  0  0  0  0
 36 37  1  1  0  0  0
 36 39  1  0  0  0  0
 40 39  1  1  0  0  0
 40 41  1  0  0  0  0
 40 46  1  0  0  0  0
 41 42  1  1  0  0  0
 41 44  1  0  0  0  0
 42 43  2  0  0  0  0
 44 45  1  0  0  0  0
 46 45  1  6  0  0  0
M  CHG  2   3  -1  35  -1
M  END
>  <CHROM.1>
163.28067413,-151.04446036,160.31888022,45.36122612,147.21634105,-2.83860204
1.06507800,-1.39814875

>  <Name>
ligand

>  <RI>
0

>  <Rbt.Current_Directory>
/home/itssahil/PROJECTS/Mol_Feturizer/Test_systems_manuscript/rnas/4yb0

>  <Rbt.Executable>
rbdock ($Id: //depot/dev/client3/rdock/2013.1/src/exe/rbdock.cxx#4 $)

>  <Rbt.Library>
libRbt.so (2013.1, Build901 2013/11/27)

>  <Rbt.Parameter_File>
/export/apps/rDock/src/rDock_2013.1_src/data/scripts/dock_solv.prm

>  <Rbt.Receptor>
prm/pocket_docking_8.prm

>  <SCORE>
-12.0207

>  <SCORE.INTER>
-12.3948

>  <SCORE.INTER.CONST>
1

>  <SCORE.INTER.POLAR>
0

>  <SCORE.INTER.ROT>
2

>  <SCORE.INTER.SOLV>
15.6985

>  <SCORE.INTER.VDW>
-18.4294

>  <SCORE.INTER.norm>
-0.269453

>  <SCORE.INTRA>
0.374137

>  <SCORE.INTRA.DIHEDRAL>
-0.0697832

>  <SCORE.INTRA.DIHEDRAL.0>
2.42188

>  <SCORE.INTRA.POLAR>
0

>  <SCORE.INTRA.POLAR.0>
0

>  <SCORE.INTRA.REPUL>
0

>  <SCORE.INTRA.REPUL.0>
0

>  <SCORE.INTRA.SOLV>
0.0604703

>  <SCORE.INTRA.SOLV.lig_0>
-127.307

>  <SCORE.INTRA.VDW>
0.378794

>  <SCORE.INTRA.VDW.0>
-2.19936

>  <SCORE.INTRA.norm>
0.00813342

>  <SCORE.RESTR>
0

>  <SCORE.RESTR.CAVITY>
0

>  <SCORE.RESTR.norm>
0

>  <SCORE.SYSTEM>
0

>  <SCORE.SYSTEM.CONST>
0

>  <SCORE.SYSTEM.DIHEDRAL>
0

>  <SCORE.SYSTEM.SOLV>
0

>  <SCORE.SYSTEM.norm>
0

>  <SCORE.heavy>
46

>  <SCORE.norm>
-0.26132

>  <RMSD>
6.390

$$$$
ligand
 OpenBabel02271912143D
libRbt.so/2013.1/901 2013/11/27
 46 52  0  0  0  0  0  0  0  0999 V2000
  159.7898   45.9590  150.8376 P   0  0  1  0  0  0  0  0  0  0  0  0
  158.3877   41.4715  147.6240 P   0  0  1  0  0  0  0  0  0  0  0  0
  160.7254   46.9481  150.1915 O   0  5  0  0  0  0  0  0  0  0  0  0
  159.1760   46.3664  152.1593 O   0  0  0  0  0  0  0  0  0  0  0  0
  157.2961   45.4128  150.1429 C   0  0  0  0  0  0  0  0  0  0  0  0
  158.6592   45.5598  149.7665 O   0  0  0  0  0  0  0  0  0  0  0  0
  156.5356   44.6647  149.0604 C   0  0  1  0  0  0  0  0  0  0  0  0
  155.7729   45.6110  148.3251 O   0  0  0  0  0  0  0  0  0  0  0  0
  157.3943   43.9259  148.0417 C   0  0  1  0  0  0  0  0  0  0  0  0
  157.3788   42.5341  148.3232 O   0  0  0  0  0  0  0  0  0  0  0  0
  156.6635   44.1494  146.7368 C   0  0  1  0  0  0  0  0  0  0  0  0
  155.7143   43.1009  146.5328 O   0  0  0  0  0  0  0  0  0  0  0  0
  155.8797   45.4160  146.9233 C   0  0  2  0  0  0  0  0  0  0  0  0
  163.3150   43.3119  148.9375 C   0  0  1  0  0  0  0  0  0  0  0  0
  159.6768   46.8855  143.6113 N   0  0  0  0  0  0  0  0  0  0  0  0
  159.2275   45.6555  143.9245 C   0  0  1  0  0  0  0  0  0  0  0  0
  162.5886   44.4670  149.5945 C   0  0  2  0  0  0  0  0  0  0  0  0
  159.7930   44.5794  143.3331 N   0  0  0  0  0  0  0  0  0  0  0  0
  163.2516   44.7429  150.8315 O   0  0  0  0  0  0  0  0  0  0  0  0
  161.1766   43.9679  149.8386 C   0  0  2  0  0  0  0  0  0  0  0  0
  158.2318   45.4270  144.8106 N   0  0  0  0  0  0  0  0  0  0  0  0
  160.5988   44.5732  150.9943 O   0  0  0  0  0  0  0  0  0  0  0  0
  157.6194   46.4493  145.4452 C   0  0  2  0  0  0  0  0  0  0  0  0
  161.3892   42.4662  150.0165 C   0  0  2  0  0  0  0  0  0  0  0  0
  162.6058   42.1379  149.3421 O   0  0  0  0  0  0  0  0  0  0  0  0
  158.0592   47.8173  145.1536 C   0  0  2  0  0  0  0  0  0  0  0  0
  160.2585   41.5826  149.4803 C   0  0  0  0  0  0  0  0  0  0  0  0
  159.8298   41.9524  148.1704 O   0  0  0  0  0  0  0  0  0  0  0  0
  159.1554   47.9904  144.1716 C   0  0  0  0  0  0  0  0  0  0  0  0
  159.5697   49.1386  143.8819 O   0  0  0  0  0  0  0  0  0  0  0  0
  157.2980   48.6243  145.9140 N   0  0  0  0  0  0  0  0  0  0  0  0
  156.4462   47.8486  146.6267 C   0  0  0  0  0  0  0  0  0  0  0  0
  156.6399   46.5487  146.3437 N   0  0  1  0  0  0  0  0  0  0  0  0
  162.9438   46.5512  144.8136 N   0  0  0  0  0  0  0  0  0  0  0  0
  158.0507   40.1177  148.2204 O   0  5  0  0  0  0  0  0  0  0  0  0
  163.0284   46.8316  146.1232 C   0  0  2  0  0  0  0  0  0  0  0  0
  163.0224   48.1247  146.4796 N   0  0  0  0  0  0  0  0  0  0  0  0
  158.3757   41.6858  146.1300 O   0  0  0  0  0  0  0  0  0  0  0  0
  163.1221   45.8860  147.0872 N   0  0  0  0  0  0  0  0  0  0  0  0
  163.1365   44.5753  146.7662 C   0  0  1  0  0  0  0  0  0  0  0  0
  163.0452   44.2007  145.3408 C   0  0  1  0  0  0  0  0  0  0  0  0
  162.9549   45.3012  144.3476 C   0  0  0  0  0  0  0  0  0  0  0  0
  162.8681   45.0886  143.1191 O   0  0  0  0  0  0  0  0  0  0  0  0
  163.0860   42.8595  145.2983 N   0  0  0  0  0  0  0  0  0  0  0  0
  163.1877   42.4203  146.5836 C   0  0  0  0  0  0  0  0  0  0  0  0
  163.2211   43.4418  147.4622 N   0  0  2  0  0  0  0  0  0  0  0  0
  1  3  1  6  0  0  0
  1  4  2  0  0  0  0
  1  6  1  0  0  0  0
  1 22  1  0  0  0  0
  2 28  1  0  0  0  0
  2 35  1  1  0  0  0
  2 38  2  0  0  0  0
  2 10  1  0  0  0  0
  5  6  1  0  0  0  0
  7  5  1  1  0  0  0
  7  8  1  0  0  0  0
  7  9  1  0  0  0  0
  9 10  1  1  0  0  0
  9 11  1  0  0  0  0
 11 12  1  1  0  0  0
 11 13  1  0  0  0  0
 13  8  1  1  0  0  0
 13 33  1  0  0  0  0
 14 46  1  0  0  0  0
 14 17  1  0  0  0  0
 14 25  1  1  0  0  0
 15 16  1  0  0  0  0
 15 29  1  0  0  0  0
 16 18  1  1  0  0  0
 16 21  1  0  0  0  0
 17 19  1  1  0  0  0
 17 20  1  0  0  0  0
 20 22  1  1  0  0  0
 20 24  1  0  0  0  0
 23 21  1  1  0  0  0
 23 26  1  0  0  0  0
 23 33  1  0  0  0  0
 24 25  1  6  0  0  0
 24 27  1  0  0  0  0
 26 29  1  1  0  0  0
 26 31  1  0  0  0  0
 27 28  1  0  0  0  0
 29 30  2  0  0  0  0
 31 32  1  0  0  0  0
 33 32  1  6  0  0  0
 34 36  1  0  0  0  0
 34 42  1  0  0  0  0
 36 37  1  6  0  0  0
 36 39  1  0  0  0  0
 40 39  1  6  0  0  0
 40 41  1  0  0  0  0
 40 46  1  0  0  0  0
 41 42  1  6  0  0  0
 41 44  1  0  0  0  0
 42 43  2  0  0  0  0
 44 45  1  0  0  0  0
 46 45  1  1  0  0  0
M  CHG  2   3  -1  35  -1
M  END
>  <CHROM.1>
135.06647751,30.33415890,159.84308399,44.77307390,147.41534168,1.36439809
-0.11580263,2.16827826

>  <Name>
ligand

>  <RI>
0

>  <Rbt.Current_Directory>
/home/itssahil/PROJECTS/Mol_Feturizer/Test_systems_manuscript/rnas/4yb0

>  <Rbt.Executable>
rbdock ($Id: //depot/dev/client3/rdock/2013.1/src/exe/rbdock.cxx#4 $)

>  <Rbt.Library>
libRbt.so (2013.1, Build901 2013/11/27)

>  <Rbt.Parameter_File>
/export/apps/rDock/src/rDock_2013.1_src/data/scripts/dock_solv.prm

>  <Rbt.Receptor>
prm/pocket_docking_7.prm

>  <SCORE>
-14.5181

>  <SCORE.INTER>
-15.5955

>  <SCORE.INTER.CONST>
1

>  <SCORE.INTER.POLAR>
0

>  <SCORE.INTER.ROT>
2

>  <SCORE.INTER.SOLV>
14.4102

>  <SCORE.INTER.VDW>
-20.1338

>  <SCORE.INTER.norm>
-0.339033

>  <SCORE.INTRA>
1.07748

>  <SCORE.INTRA.DIHEDRAL>
-0.00778174

>  <SCORE.INTRA.DIHEDRAL.0>
2.42188

>  <SCORE.INTRA.POLAR>
0

>  <SCORE.INTRA.POLAR.0>
0

>  <SCORE.INTRA.REPUL>
0

>  <SCORE.INTRA.REPUL.0>
0

>  <SCORE.INTRA.SOLV>
2.54058

>  <SCORE.INTRA.SOLV.lig_0>
-127.307

>  <SCORE.INTRA.VDW>
-0.188922

>  <SCORE.INTRA.VDW.0>
-2.19936

>  <SCORE.INTRA.norm>
0.0234234

>  <SCORE.RESTR>
0

>  <SCORE.RESTR.CAVITY>
0

>  <SCORE.RESTR.norm>
0

>  <SCORE.SYSTEM>
0

>  <SCORE.SYSTEM.CONST>
0

>  <SCORE.SYSTEM.DIHEDRAL>
0

>  <SCORE.SYSTEM.SOLV>
0

>  <SCORE.SYSTEM.norm>
0

>  <SCORE.heavy>
46

>  <SCORE.norm>
-0.31561

>  <RMSD>
6.478

$$$$
ligand
 OpenBabel02271912143D
libRbt.so/2013.1/901 2013/11/27
 46 52  0  0  0  0  0  0  0  0999 V2000
  156.9395   48.9806  149.0661 P   0  0  1  0  0  0  0  0  0  0  0  0
  160.3935   44.8375  147.2397 P   0  0  1  0  0  0  0  0  0  0  0  0
  156.3242   49.8310  147.9848 O   0  5  0  0  0  0  0  0  0  0  0  0
  156.4180   49.1849  150.4717 O   0  0  0  0  0  0  0  0  0  0  0  0
  156.4899   46.4185  149.5489 C   0  0  0  0  0  0  0  0  0  0  0  0
  156.8297   47.4398  148.6201 O   0  0  0  0  0  0  0  0  0  0  0  0
  156.8389   45.0557  148.9739 C   0  0  1  0  0  0  0  0  0  0  0  0
  155.6355   44.4437  148.5322 O   0  0  0  0  0  0  0  0  0  0  0  0
  157.7766   45.0669  147.7732 C   0  0  1  0  0  0  0  0  0  0  0  0
  159.0803   44.6795  148.1814 O   0  0  0  0  0  0  0  0  0  0  0  0
  157.2207   43.9790  146.8819 C   0  0  1  0  0  0  0  0  0  0  0  0
  157.8337   42.7305  147.2097 O   0  0  0  0  0  0  0  0  0  0  0  0
  155.7691   43.8599  147.2454 C   0  0  2  0  0  0  0  0  0  0  0  0
  160.5715   50.1455  146.1512 C   0  0  1  0  0  0  0  0  0  0  0  0
  155.8158   46.9429  142.9981 N   0  0  0  0  0  0  0  0  0  0  0  0
  156.8359   46.3735  143.6674 C   0  0  1  0  0  0  0  0  0  0  0  0
  159.2736   50.2366  146.9262 C   0  0  2  0  0  0  0  0  0  0  0  0
  158.1007   46.5813  143.2378 N   0  0  0  0  0  0  0  0  0  0  0  0
  159.3367   51.4169  147.7316 O   0  0  0  0  0  0  0  0  0  0  0  0
  159.2345   48.9925  147.7938 C   0  0  2  0  0  0  0  0  0  0  0  0
  156.6703   45.5969  144.7620 N   0  0  0  0  0  0  0  0  0  0  0  0
  158.5321   49.2257  149.0138 O   0  0  0  0  0  0  0  0  0  0  0  0
  155.4386   45.3451  145.2544 C   0  0  2  0  0  0  0  0  0  0  0  0
  160.7176   48.7106  148.0243 C   0  0  2  0  0  0  0  0  0  0  0  0
  161.4266   49.3130  146.9393 O   0  0  0  0  0  0  0  0  0  0  0  0
  154.2803   45.9349  144.5760 C   0  0  2  0  0  0  0  0  0  0  0  0
  161.0904   47.2274  148.1117 C   0  0  0  0  0  0  0  0  0  0  0  0
  160.5092   46.4400  147.0731 O   0  0  0  0  0  0  0  0  0  0  0  0
  154.5390   46.7746  143.3826 C   0  0  0  0  0  0  0  0  0  0  0  0
  153.5850   47.3019  142.7614 O   0  0  0  0  0  0  0  0  0  0  0  0
  153.1985   45.5338  145.2671 N   0  0  0  0  0  0  0  0  0  0  0  0
  153.6207   44.7565  146.2932 C   0  0  0  0  0  0  0  0  0  0  0  0
  154.9604   44.6446  146.2826 N   0  0  1  0  0  0  0  0  0  0  0  0
  158.0867   50.3032  141.5211 N   0  0  0  0  0  0  0  0  0  0  0  0
  161.5636   44.3323  148.0628 O   0  5  0  0  0  0  0  0  0  0  0  0
  158.0709   51.1804  142.5365 C   0  0  2  0  0  0  0  0  0  0  0  0
  157.3199   52.2821  142.3893 N   0  0  0  0  0  0  0  0  0  0  0  0
  160.0978   44.2613  145.8763 O   0  0  0  0  0  0  0  0  0  0  0  0
  158.7693   51.0112  143.6836 N   0  0  0  0  0  0  0  0  0  0  0  0
  159.5397   49.9181  143.8652 C   0  0  1  0  0  0  0  0  0  0  0  0
  159.5988   48.9136  142.7844 C   0  0  1  0  0  0  0  0  0  0  0  0
  158.8092   49.1822  141.5556 C   0  0  0  0  0  0  0  0  0  0  0  0
  158.7880   48.3919  140.5876 O   0  0  0  0  0  0  0  0  0  0  0  0
  160.4261   47.9463  143.2113 N   0  0  0  0  0  0  0  0  0  0  0  0
  160.8502   48.3015  144.4560 C   0  0  0  0  0  0  0  0  0  0  0  0
  160.3255   49.4793  144.8482 N   0  0  2  0  0  0  0  0  0  0  0  0
  1  3  1  6  0  0  0
  1  4  2  0  0  0  0
  1  6  1  0  0  0  0
  1 22  1  0  0  0  0
  2 28  1  0  0  0  0
  2 35  1  1  0  0  0
  2 38  2  0  0  0  0
  2 10  1  0  0  0  0
  5  6  1  0  0  0  0
  7  5  1  6  0  0  0
  7  8  1  0  0  0  0
  7  9  1  0  0  0  0
  9 10  1  1  0  0  0
  9 11  1  0  0  0  0
 11 12  1  1  0  0  0
 11 13  1  0  0  0  0
 13  8  1  1  0  0  0
 13 33  1  0  0  0  0
 14 46  1  0  0  0  0
 14 17  1  0  0  0  0
 14 25  1  1  0  0  0
 15 16  1  0  0  0  0
 15 29  1  0  0  0  0
 16 18  1  1  0  0  0
 16 21  1  0  0  0  0
 17 19  1  1  0  0  0
 17 20  1  0  0  0  0
 20 22  1  1  0  0  0
 20 24  1  0  0  0  0
 23 21  1  1  0  0  0
 23 26  1  0  0  0  0
 23 33  1  0  0  0  0
 24 25  1  6  0  0  0
 24 27  1  0  0  0  0
 26 29  1  1  0  0  0
 26 31  1  0  0  0  0
 27 28  1  0  0  0  0
 29 30  2  0  0  0  0
 31 32  1  0  0  0  0
 33 32  1  6  0  0  0
 34 36  1  0  0  0  0
 34 42  1  0  0  0  0
 36 37  1  6  0  0  0
 36 39  1  0  0  0  0
 40 39  1  6  0  0  0
 40 41  1  0  0  0  0
 40 46  1  0  0  0  0
 41 42  1  6  0  0  0
 41 44  1  0  0  0  0
 42 43  2  0  0  0  0
 44 45  1  0  0  0  0
 46 45  1  1  0  0  0
M  CHG  2   3  -1  35  -1
M  END
>  <CHROM.1>
115.42920831,62.62829550,157.97259004,47.34009035,146.06134742,-1.88881403
-0.69494937,-0.97845631

>  <Name>
ligand

>  <RI>
0

>  <Rbt.Current_Directory>
/home/itssahil/PROJECTS/Mol_Feturizer/Test_systems_manuscript/rnas/4yb0

>  <Rbt.Executable>
rbdock ($Id: //depot/dev/client3/rdock/2013.1/src/exe/rbdock.cxx#4 $)

>  <Rbt.Library>
libRbt.so (2013.1, Build901 2013/11/27)

>  <Rbt.Parameter_File>
/export/apps/rDock/src/rDock_2013.1_src/data/scripts/dock_solv.prm

>  <Rbt.Receptor>
prm/pocket_docking_7.prm

>  <SCORE>
-17.7795

>  <SCORE.INTER>
-20.2569

>  <SCORE.INTER.CONST>
1

>  <SCORE.INTER.POLAR>
0

>  <SCORE.INTER.ROT>
2

>  <SCORE.INTER.SOLV>
16.2381

>  <SCORE.INTER.VDW>
-23.8506

>  <SCORE.INTER.norm>
-0.440367

>  <SCORE.INTRA>
2.47738

>  <SCORE.INTRA.DIHEDRAL>
-0.0209045

>  <SCORE.INTRA.DIHEDRAL.0>
2.42188

>  <SCORE.INTRA.POLAR>
0

>  <SCORE.INTRA.POLAR.0>
0

>  <SCORE.INTRA.REPUL>
0

>  <SCORE.INTRA.REPUL.0>
0

>  <SCORE.INTRA.SOLV>
5.40968

>  <SCORE.INTRA.SOLV.lig_0>
-127.307

>  <SCORE.INTRA.VDW>
-0.217005

>  <SCORE.INTRA.VDW.0>
-2.19936

>  <SCORE.INTRA.norm>
0.0538562

>  <SCORE.RESTR>
0

>  <SCORE.RESTR.CAVITY>
0

>  <SCORE.RESTR.norm>
0

>  <SCORE.SYSTEM>
0

>  <SCORE.SYSTEM.CONST>
0

>  <SCORE.SYSTEM.DIHEDRAL>
0

>  <SCORE.SYSTEM.SOLV>
0

>  <SCORE.SYSTEM.norm>
0

>  <SCORE.heavy>
46

>  <SCORE.norm>
-0.386511

>  <RMSD>
6.523

$$$$
ligand
 OpenBabel02271912143D
libRbt.so/2013.1/901 2013/11/27
 46 52  0  0  0  0  0  0  0  0999 V2000
  159.3006   47.6451  148.0085 P   0  0  1  0  0  0  0  0  0  0  0  0
  154.6624   44.9976  146.0313 P   0  0  1  0  0  0  0  0  0  0  0  0
  160.6097   46.9591  147.7142 O   0  5  0  0  0  0  0  0  0  0  0  0
  159.3791   49.0355  148.6002 O   0  0  0  0  0  0  0  0  0  0  0  0
  157.6416   48.7574  146.2735 C   0  0  0  0  0  0  0  0  0  0  0  0
  158.4103   47.6290  146.6698 O   0  0  0  0  0  0  0  0  0  0  0  0
  156.6174   48.3476  145.2281 C   0  0  1  0  0  0  0  0  0  0  0  0
  157.0895   48.7762  143.9587 O   0  0  0  0  0  0  0  0  0  0  0  0
  156.3635   46.8506  145.1048 C   0  0  1  0  0  0  0  0  0  0  0  0
  155.1297   46.5223  145.7264 O   0  0  0  0  0  0  0  0  0  0  0  0
  156.2094   46.6408  143.6152 C   0  0  1  0  0  0  0  0  0  0  0  0
  154.8365   46.7922  143.2489 O   0  0  0  0  0  0  0  0  0  0  0  0
  156.9595   47.7684  142.9677 C   0  0  2  0  0  0  0  0  0  0  0  0
  158.6119   43.0434  149.1895 C   0  0  1  0  0  0  0  0  0  0  0  0
  161.2763   48.7158  140.1368 N   0  0  0  0  0  0  0  0  0  0  0  0
  160.1303   49.4163  140.2311 C   0  0  1  0  0  0  0  0  0  0  0  0
  159.2932   44.3791  148.9769 C   0  0  2  0  0  0  0  0  0  0  0  0
  159.9954   50.5547  139.5148 N   0  0  0  0  0  0  0  0  0  0  0  0
  159.8557   44.7781  150.2300 O   0  0  0  0  0  0  0  0  0  0  0  0
  158.1901   45.3308  148.5530 C   0  0  2  0  0  0  0  0  0  0  0  0
  159.0884   49.0431  141.0084 N   0  0  0  0  0  0  0  0  0  0  0  0
  158.4592   46.6670  148.9752 O   0  0  0  0  0  0  0  0  0  0  0  0
  159.1450   47.9169  141.7510 C   0  0  2  0  0  0  0  0  0  0  0  0
  156.9659   44.7392  149.2483 C   0  0  2  0  0  0  0  0  0  0  0  0
  157.2446   43.3550  149.4698 O   0  0  0  0  0  0  0  0  0  0  0  0
  160.3635   47.1032  141.6956 C   0  0  2  0  0  0  0  0  0  0  0  0
  155.6513   44.8737  148.4736 C   0  0  0  0  0  0  0  0  0  0  0  0
  155.7683   44.5039  147.1003 O   0  0  0  0  0  0  0  0  0  0  0  0
  161.4638   47.5749  140.8221 C   0  0  0  0  0  0  0  0  0  0  0  0
  162.5303   46.9196  140.7386 O   0  0  0  0  0  0  0  0  0  0  0  0
  160.1505   46.0559  142.5120 N   0  0  0  0  0  0  0  0  0  0  0  0
  158.9117   46.1844  143.0450 C   0  0  0  0  0  0  0  0  0  0  0  0
  158.3132   47.2985  142.5890 N   0  0  1  0  0  0  0  0  0  0  0  0
  161.0995   42.1779  144.6398 N   0  0  0  0  0  0  0  0  0  0  0  0
  153.3127   45.1011  146.7165 O   0  5  0  0  0  0  0  0  0  0  0  0
  161.3722   43.0576  145.6159 C   0  0  2  0  0  0  0  0  0  0  0  0
  162.4352   43.8580  145.4467 N   0  0  0  0  0  0  0  0  0  0  0  0
  154.8372   44.1667  144.7834 O   0  0  0  0  0  0  0  0  0  0  0  0
  160.6390   43.1715  146.7480 N   0  0  0  0  0  0  0  0  0  0  0  0
  159.5659   42.3798  146.9553 C   0  0  1  0  0  0  0  0  0  0  0  0
  159.2123   41.3908  145.9173 C   0  0  1  0  0  0  0  0  0  0  0  0
  160.0756   41.3257  144.7106 C   0  0  0  0  0  0  0  0  0  0  0  0
  159.8572   40.5278  143.7737 O   0  0  0  0  0  0  0  0  0  0  0  0
  158.1276   40.7406  146.3676 N   0  0  0  0  0  0  0  0  0  0  0  0
  157.8155   41.2735  147.5817 C   0  0  0  0  0  0  0  0  0  0  0  0
  158.6737   42.2502  147.9369 N   0  0  2  0  0  0  0  0  0  0  0  0
  1  3  1  6  0  0  0
  1  4  2  0  0  0  0
  1  6  1  0  0  0  0
  1 22  1  0  0  0  0
  2 28  1  0  0  0  0
  2 35  1  1  0  0  0
  2 38  2  0  0  0  0
  2 10  1  0  0  0  0
  5  6  1  0  0  0  0
  7  5  1  1  0  0  0
  7  8  1  0  0  0  0
  7  9  1  0  0  0  0
  9 10  1  1  0  0  0
  9 11  1  0  0  0  0
 11 12  1  1  0  0  0
 11 13  1  0  0  0  0
 13  8  1  1  0  0  0
 13 33  1  0  0  0  0
 14 46  1  0  0  0  0
 14 17  1  0  0  0  0
 14 25  1  6  0  0  0
 15 16  1  0  0  0  0
 15 29  1  0  0  0  0
 16 18  1  6  0  0  0
 16 21  1  0  0  0  0
 17 19  1  1  0  0  0
 17 20  1  0  0  0  0
 20 22  1  1  0  0  0
 20 24  1  0  0  0  0
 23 21  1  6  0  0  0
 23 26  1  0  0  0  0
 23 33  1  0  0  0  0
 24 25  1  6  0  0  0
 24 27  1  0  0  0  0
 26 29  1  6  0  0  0
 26 31  1  0  0  0  0
 27 28  1  0  0  0  0
 29 30  2  0  0  0  0
 31 32  1  0  0  0  0
 33 32  1  1  0  0  0
 34 36  1  0  0  0  0
 34 42  1  0  0  0  0
 36 37  1  1  0  0  0
 36 39  1  0  0  0  0
 40 39  1  1  0  0  0
 40 41  1  0  0  0  0
 40 46  1  0  0  0  0
 41 42  1  1  0  0  0
 41 44  1  0  0  0  0
 42 43  2  0  0  0  0
 44 45  1  0  0  0  0
 46 45  1  6  0  0  0
M  CHG  2   3  -1  35  -1
M  END
>  <CHROM.1>
-79.95753930,24.05646230,158.37724244,45.64652334,145.47030421,1.84994400
-0.63211876,2.35557410

>  <Name>
ligand

>  <RI>
0

>  <Rbt.Current_Directory>
/home/itssahil/PROJECTS/Mol_Feturizer/Test_systems_manuscript/rnas/4yb0

>  <Rbt.Executable>
rbdock ($Id: //depot/dev/client3/rdock/2013.1/src/exe/rbdock.cxx#4 $)

>  <Rbt.Library>
libRbt.so (2013.1, Build901 2013/11/27)

>  <Rbt.Parameter_File>
/export/apps/rDock/src/rDock_2013.1_src/data/scripts/dock_solv.prm

>  <Rbt.Receptor>
prm/pocket_docking_6.prm

>  <SCORE>
-18.1863

>  <SCORE.INTER>
-19.2569

>  <SCORE.INTER.CONST>
1

>  <SCORE.INTER.POLAR>
0

>  <SCORE.INTER.ROT>
2

>  <SCORE.INTER.SOLV>
26.1524

>  <SCORE.INTER.VDW>
-26.4887

>  <SCORE.INTER.norm>
-0.418627

>  <SCORE.INTRA>
1.07058

>  <SCORE.INTRA.DIHEDRAL>
-0.0130646

>  <SCORE.INTRA.DIHEDRAL.0>
2.42188

>  <SCORE.INTRA.POLAR>
0

>  <SCORE.INTRA.POLAR.0>
0

>  <SCORE.INTRA.REPUL>
0

>  <SCORE.INTRA.REPUL.0>
0

>  <SCORE.INTRA.SOLV>
0.452331

>  <SCORE.INTRA.SOLV.lig_0>
-127.307

>  <SCORE.INTRA.VDW>
0.85095

>  <SCORE.INTRA.VDW.0>
-2.19936

>  <SCORE.INTRA.norm>
0.0232736

>  <SCORE.RESTR>
0

>  <SCORE.RESTR.CAVITY>
0

>  <SCORE.RESTR.norm>
0

>  <SCORE.SYSTEM>
0

>  <SCORE.SYSTEM.CONST>
0

>  <SCORE.SYSTEM.DIHEDRAL>
0

>  <SCORE.SYSTEM.SOLV>
0

>  <SCORE.SYSTEM.norm>
0

>  <SCORE.heavy>
46

>  <SCORE.norm>
-0.395354

>  <RMSD>
6.617

$$$$
ligand
 OpenBabel02271912143D
libRbt.so/2013.1/901 2013/11/27
 46 52  0  0  0  0  0  0  0  0999 V2000
  161.7492   48.2900  145.7762 P   0  0  1  0  0  0  0  0  0  0  0  0
  160.2906   43.5870  142.9152 P   0  0  1  0  0  0  0  0  0  0  0  0
  160.8063   48.6914  146.8812 O   0  5  0  0  0  0  0  0  0  0  0  0
  163.0574   49.0456  145.6902 O   0  0  0  0  0  0  0  0  0  0  0  0
  163.2836   46.1373  145.6735 C   0  0  0  0  0  0  0  0  0  0  0  0
  161.9954   46.7042  145.8741 O   0  0  0  0  0  0  0  0  0  0  0  0
  163.1616   44.6418  145.4321 C   0  0  1  0  0  0  0  0  0  0  0  0
  163.5370   43.9716  146.6270 O   0  0  0  0  0  0  0  0  0  0  0  0
  161.7654   44.1417  145.0839 C   0  0  1  0  0  0  0  0  0  0  0  0
  161.6876   43.8723  143.6918 O   0  0  0  0  0  0  0  0  0  0  0  0
  161.6679   42.8259  145.8229 C   0  0  1  0  0  0  0  0  0  0  0  0
  162.1363   41.7684  144.9837 O   0  0  0  0  0  0  0  0  0  0  0  0
  162.6324   42.9324  146.9683 C   0  0  2  0  0  0  0  0  0  0  0  0
  157.3610   48.0530  143.8445 C   0  0  1  0  0  0  0  0  0  0  0  0
  159.6336   41.3347  150.9684 N   0  0  0  0  0  0  0  0  0  0  0  0
  160.1552   40.6357  149.9426 C   0  0  1  0  0  0  0  0  0  0  0  0
  158.5221   48.5031  144.7063 C   0  0  2  0  0  0  0  0  0  0  0  0
  159.9135   39.3081  149.8622 N   0  0  0  0  0  0  0  0  0  0  0  0
  158.7253   49.8970  144.4584 O   0  0  0  0  0  0  0  0  0  0  0  0
  159.7133   47.6914  144.2327 C   0  0  2  0  0  0  0  0  0  0  0  0
  160.9153   41.1897  148.9710 N   0  0  0  0  0  0  0  0  0  0  0  0
  160.9349   48.4119  144.3901 O   0  0  0  0  0  0  0  0  0  0  0  0
  161.1985   42.5098  148.9793 C   0  0  2  0  0  0  0  0  0  0  0  0
  159.3733   47.4417  142.7650 C   0  0  2  0  0  0  0  0  0  0  0  0
  157.9526   47.5430  142.6465 O   0  0  0  0  0  0  0  0  0  0  0  0
  160.6614   43.3334  150.0670 C   0  0  2  0  0  0  0  0  0  0  0  0
  159.8323   46.0882  142.2136 C   0  0  0  0  0  0  0  0  0  0  0  0
  159.5134   44.9944  143.0728 O   0  0  0  0  0  0  0  0  0  0  0  0
  159.8371   42.6571  151.0962 C   0  0  0  0  0  0  0  0  0  0  0  0
  159.3544   43.3123  152.0510 O   0  0  0  0  0  0  0  0  0  0  0  0
  161.0849   44.5876  149.8299 N   0  0  0  0  0  0  0  0  0  0  0  0
  161.8273   44.5726  148.6968 C   0  0  0  0  0  0  0  0  0  0  0  0
  161.8944   43.3288  148.1909 N   0  0  1  0  0  0  0  0  0  0  0  0
  156.0268   45.8161  148.4110 N   0  0  0  0  0  0  0  0  0  0  0  0
  160.6559   43.3756  141.4579 O   0  5  0  0  0  0  0  0  0  0  0  0
  156.7529   46.9192  148.1729 C   0  0  2  0  0  0  0  0  0  0  0  0
  157.2301   47.5857  149.2347 N   0  0  0  0  0  0  0  0  0  0  0  0
  159.5036   42.5481  143.6765 O   0  0  0  0  0  0  0  0  0  0  0  0
  157.0195   47.3869  146.9310 N   0  0  0  0  0  0  0  0  0  0  0  0
  156.5518   46.7460  145.8393 C   0  0  1  0  0  0  0  0  0  0  0  0
  155.7462   45.5239  146.0342 C   0  0  1  0  0  0  0  0  0  0  0  0
  155.4931   45.0857  147.4305 C   0  0  0  0  0  0  0  0  0  0  0  0
  154.8286   44.0622  147.7007 O   0  0  0  0  0  0  0  0  0  0  0  0
  155.4072   45.0942  144.8084 N   0  0  0  0  0  0  0  0  0  0  0  0
  155.9544   45.9628  143.9132 C   0  0  0  0  0  0  0  0  0  0  0  0
  156.6358   46.9517  144.5251 N   0  0  2  0  0  0  0  0  0  0  0  0
  1  3  1  1  0  0  0
  1  4  2  0  0  0  0
  1  6  1  0  0  0  0
  1 22  1  0  0  0  0
  2 28  1  0  0  0  0
  2 35  1  6  0  0  0
  2 38  2  0  0  0  0
  2 10  1  0  0  0  0
  5  6  1  0  0  0  0
  7  5  1  1  0  0  0
  7  8  1  0  0  0  0
  7  9  1  0  0  0  0
  9 10  1  6  0  0  0
  9 11  1  0  0  0  0
 11 12  1  6  0  0  0
 11 13  1  0  0  0  0
 13  8  1  6  0  0  0
 13 33  1  0  0  0  0
 14 46  1  0  0  0  0
 14 17  1  0  0  0  0
 14 25  1  6  0  0  0
 15 16  1  0  0  0  0
 15 29  1  0  0  0  0
 16 18  1  6  0  0  0
 16 21  1  0  0  0  0
 17 19  1  6  0  0  0
 17 20  1  0  0  0  0
 20 22  1  6  0  0  0
 20 24  1  0  0  0  0
 23 21  1  6  0  0  0
 23 26  1  0  0  0  0
 23 33  1  0  0  0  0
 24 25  1  1  0  0  0
 24 27  1  0  0  0  0
 26 29  1  6  0  0  0
 26 31  1  0  0  0  0
 27 28  1  0  0  0  0
 29 30  2  0  0  0  0
 31 32  1  0  0  0  0
 33 32  1  1  0  0  0
 34 36  1  0  0  0  0
 34 42  1  0  0  0  0
 36 37  1  1  0  0  0
 36 39  1  0  0  0  0
 40 39  1  1  0  0  0
 40 41  1  0  0  0  0
 40 46  1  0  0  0  0
 41 42  1  1  0  0  0
 41 44  1  0  0  0  0
 42 43  2  0  0  0  0
 44 45  1  0  0  0  0
 46 45  1  6  0  0  0
M  CHG  2   3  -1  35  -1
M  END
>  <CHROM.1>
-163.61382765,28.09271686,159.77454148,45.18435189,146.13961998,-1.79259027
-0.44726728,2.23430041

>  <Name>
ligand

>  <RI>
0

>  <Rbt.Current_Directory>
/home/itssahil/PROJECTS/Mol_Feturizer/Test_systems_manuscript/rnas/4yb0

>  <Rbt.Executable>
rbdock ($Id: //depot/dev/client3/rdock/2013.1/src/exe/rbdock.cxx#4 $)

>  <Rbt.Library>
libRbt.so (2013.1, Build901 2013/11/27)

>  <Rbt.Parameter_File>
/export/apps/rDock/src/rDock_2013.1_src/data/scripts/dock_solv.prm

>  <Rbt.Receptor>
prm/pocket_docking_7.prm

>  <SCORE>
-14.3724

>  <SCORE.INTER>
-14.6509

>  <SCORE.INTER.CONST>
1

>  <SCORE.INTER.POLAR>
0

>  <SCORE.INTER.ROT>
2

>  <SCORE.INTER.SOLV>
17.2346

>  <SCORE.INTER.VDW>
-20.4455

>  <SCORE.INTER.norm>
-0.318497

>  <SCORE.INTRA>
0.278447

>  <SCORE.INTRA.DIHEDRAL>
0.0251221

>  <SCORE.INTRA.DIHEDRAL.0>
2.42188

>  <SCORE.INTRA.POLAR>
0

>  <SCORE.INTRA.POLAR.0>
0

>  <SCORE.INTRA.REPUL>
0

>  <SCORE.INTRA.REPUL.0>
0

>  <SCORE.INTRA.SOLV>
0.157867

>  <SCORE.INTRA.SOLV.lig_0>
-127.307

>  <SCORE.INTRA.VDW>
0.186953

>  <SCORE.INTRA.VDW.0>
-2.19936

>  <SCORE.INTRA.norm>
0.00605319

>  <SCORE.RESTR>
0

>  <SCORE.RESTR.CAVITY>
0

>  <SCORE.RESTR.norm>
0

>  <SCORE.SYSTEM>
0

>  <SCORE.SYSTEM.CONST>
0

>  <SCORE.SYSTEM.DIHEDRAL>
0

>  <SCORE.SYSTEM.SOLV>
0

>  <SCORE.SYSTEM.norm>
0

>  <SCORE.heavy>
46

>  <SCORE.norm>
-0.312444

>  <RMSD>
6.638

$$$$
ligand
 OpenBabel02271912143D
libRbt.so/2013.1/901 2013/11/27
 46 52  0  0  0  0  0  0  0  0999 V2000
  161.7248   48.2918  145.7771 P   0  0  1  0  0  0  0  0  0  0  0  0
  160.2590   43.5839  142.9278 P   0  0  1  0  0  0  0  0  0  0  0  0
  160.7845   48.6953  146.8836 O   0  5  0  0  0  0  0  0  0  0  0  0
  163.0329   49.0469  145.6868 O   0  0  0  0  0  0  0  0  0  0  0  0
  163.2586   46.1386  145.6748 C   0  0  0  0  0  0  0  0  0  0  0  0
  161.9710   46.7061  145.8773 O   0  0  0  0  0  0  0  0  0  0  0  0
  163.1359   44.6427  145.4363 C   0  0  1  0  0  0  0  0  0  0  0  0
  163.5138   43.9745  146.6316 O   0  0  0  0  0  0  0  0  0  0  0  0
  161.7388   44.1422  145.0921 C   0  0  1  0  0  0  0  0  0  0  0  0
  161.6578   43.8704  143.7007 O   0  0  0  0  0  0  0  0  0  0  0  0
  161.6428   42.8278  145.8338 C   0  0  1  0  0  0  0  0  0  0  0  0
  162.1091   41.7687  144.9954 O   0  0  0  0  0  0  0  0  0  0  0  0
  162.6099   42.9361  146.9767 C   0  0  2  0  0  0  0  0  0  0  0  0
  157.3321   48.0520  143.8557 C   0  0  1  0  0  0  0  0  0  0  0  0
  159.7048   41.3308  151.0425 N   0  0  0  0  0  0  0  0  0  0  0  0
  160.2347   40.6273  150.0241 C   0  0  1  0  0  0  0  0  0  0  0  0
  158.4953   48.5034  144.7141 C   0  0  2  0  0  0  0  0  0  0  0  0
  160.0309   39.2920  149.9720 N   0  0  0  0  0  0  0  0  0  0  0  0
  158.6982   49.8969  144.4633 O   0  0  0  0  0  0  0  0  0  0  0  0
  159.6853   47.6907  144.2393 C   0  0  2  0  0  0  0  0  0  0  0  0
  160.9672   41.1840  149.0329 N   0  0  0  0  0  0  0  0  0  0  0  0
  160.9073   48.4113  144.3927 O   0  0  0  0  0  0  0  0  0  0  0  0
  161.2120   42.5116  149.0126 C   0  0  2  0  0  0  0  0  0  0  0  0
  159.3419   47.4384  142.7729 C   0  0  2  0  0  0  0  0  0  0  0  0
  157.9210   47.5398  142.6574 O   0  0  0  0  0  0  0  0  0  0  0  0
  160.6636   43.3403  150.0907 C   0  0  2  0  0  0  0  0  0  0  0  0
  159.7995   46.0839  142.2228 C   0  0  0  0  0  0  0  0  0  0  0  0
  159.4824   44.9916  143.0847 O   0  0  0  0  0  0  0  0  0  0  0  0
  159.8712   42.6607  151.1425 C   0  0  0  0  0  0  0  0  0  0  0  0
  159.3806   43.3203  152.0902 O   0  0  0  0  0  0  0  0  0  0  0  0
  161.0477   44.6015  149.8245 N   0  0  0  0  0  0  0  0  0  0  0  0
  161.7772   44.5858  148.6831 C   0  0  0  0  0  0  0  0  0  0  0  0
  161.8747   43.3348  148.2003 N   0  0  1  0  0  0  0  0  0  0  0  0
  156.0017   45.8276  148.4296 N   0  0  0  0  0  0  0  0  0  0  0  0
  160.6210   43.3698  141.4701 O   0  5  0  0  0  0  0  0  0  0  0  0
  156.7266   46.9308  148.1878 C   0  0  2  0  0  0  0  0  0  0  0  0
  157.2034   47.6011  149.2474 N   0  0  0  0  0  0  0  0  0  0  0  0
  159.4736   42.5464  143.6927 O   0  0  0  0  0  0  0  0  0  0  0  0
  156.9924   47.3950  146.9444 N   0  0  0  0  0  0  0  0  0  0  0  0
  156.5250   46.7502  145.8548 C   0  0  1  0  0  0  0  0  0  0  0  0
  155.7207   45.5279  146.0538 C   0  0  1  0  0  0  0  0  0  0  0  0
  155.4685   45.0937  147.4514 C   0  0  0  0  0  0  0  0  0  0  0  0
  154.8051   44.0704  147.7250 O   0  0  0  0  0  0  0  0  0  0  0  0
  155.3818   45.0941  144.8293 N   0  0  0  0  0  0  0  0  0  0  0  0
  155.9278   45.9606  143.9313 C   0  0  0  0  0  0  0  0  0  0  0  0
  156.6083   46.9520  144.5400 N   0  0  2  0  0  0  0  0  0  0  0  0
  1  3  1  1  0  0  0
  1  4  2  0  0  0  0
  1  6  1  0  0  0  0
  1 22  1  0  0  0  0
  2 28  1  0  0  0  0
  2 35  1  6  0  0  0
  2 38  2  0  0  0  0
  2 10  1  0  0  0  0
  5  6  1  0  0  0  0
  7  5  1  1  0  0  0
  7  8  1  0  0  0  0
  7  9  1  0  0  0  0
  9 10  1  6  0  0  0
  9 11  1  0  0  0  0
 11 12  1  6  0  0  0
 11 13  1  0  0  0  0
 13  8  1  6  0  0  0
 13 33  1  0  0  0  0
 14 46  1  0  0  0  0
 14 17  1  0  0  0  0
 14 25  1  6  0  0  0
 15 16  1  0  0  0  0
 15 29  1  0  0  0  0
 16 18  1  6  0  0  0
 16 21  1  0  0  0  0
 17 19  1  6  0  0  0
 17 20  1  0  0  0  0
 20 22  1  6  0  0  0
 20 24  1  0  0  0  0
 23 21  1  6  0  0  0
 23 26  1  0  0  0  0
 23 33  1  0  0  0  0
 24 25  1  1  0  0  0
 24 27  1  0  0  0  0
 26 29  1  6  0  0  0
 26 31  1  0  0  0  0
 27 28  1  0  0  0  0
 29 30  2  0  0  0  0
 31 32  1  0  0  0  0
 33 32  1  1  0  0  0
 34 36  1  0  0  0  0
 34 42  1  0  0  0  0
 36 37  1  1  0  0  0
 36 39  1  0  0  0  0
 40 39  1  1  0  0  0
 40 41  1  0  0  0  0
 40 46  1  0  0  0  0
 41 42  1  1  0  0  0
 41 44  1  0  0  0  0
 42 43  2  0  0  0  0
 44 45  1  0  0  0  0
 46 45  1  6  0  0  0
M  CHG  2   3  -1  35  -1
M  END
>  <CHROM.1>
-161.59087991,28.24409735,159.75903792,45.18587136,146.15664537,-1.80667980
-0.45228892,2.22444737

>  <Name>
ligand

>  <RI>
0

>  <Rbt.Current_Directory>
/home/itssahil/PROJECTS/Mol_Feturizer/Test_systems_manuscript/rnas/4yb0

>  <Rbt.Executable>
rbdock ($Id: //depot/dev/client3/rdock/2013.1/src/exe/rbdock.cxx#4 $)

>  <Rbt.Library>
libRbt.so (2013.1, Build901 2013/11/27)

>  <Rbt.Parameter_File>
/export/apps/rDock/src/rDock_2013.1_src/data/scripts/dock_solv.prm

>  <Rbt.Receptor>
prm/pocket_docking_8.prm

>  <SCORE>
-14.3969

>  <SCORE.INTER>
-14.6624

>  <SCORE.INTER.CONST>
1

>  <SCORE.INTER.POLAR>
0

>  <SCORE.INTER.ROT>
2

>  <SCORE.INTER.SOLV>
17.2058

>  <SCORE.INTER.VDW>
-20.4436

>  <SCORE.INTER.norm>
-0.318748

>  <SCORE.INTRA>
0.25641

>  <SCORE.INTRA.DIHEDRAL>
0.0266619

>  <SCORE.INTRA.DIHEDRAL.0>
2.42188

>  <SCORE.INTRA.POLAR>
0

>  <SCORE.INTRA.POLAR.0>
0

>  <SCORE.INTRA.REPUL>
0

>  <SCORE.INTRA.REPUL.0>
0

>  <SCORE.INTRA.SOLV>
0.146303

>  <SCORE.INTRA.SOLV.lig_0>
-127.307

>  <SCORE.INTRA.VDW>
0.169927

>  <SCORE.INTRA.VDW.0>
-2.19936

>  <SCORE.INTRA.norm>
0.00557412

>  <SCORE.RESTR>
0.00905753

>  <SCORE.RESTR.CAVITY>
0.00905753

>  <SCORE.RESTR.norm>
0.000196903

>  <SCORE.SYSTEM>
0

>  <SCORE.SYSTEM.CONST>
0

>  <SCORE.SYSTEM.DIHEDRAL>
0

>  <SCORE.SYSTEM.SOLV>
0

>  <SCORE.SYSTEM.norm>
0

>  <SCORE.heavy>
46

>  <SCORE.norm>
-0.312977

>  <RMSD>
6.653

$$$$
ligand
 OpenBabel02271912143D
libRbt.so/2013.1/901 2013/11/27
 46 52  0  0  0  0  0  0  0  0999 V2000
  161.8340   48.2898  145.5910 P   0  0  1  0  0  0  0  0  0  0  0  0
  160.2672   43.5448  142.8595 P   0  0  1  0  0  0  0  0  0  0  0  0
  160.9206   48.7221  146.7090 O   0  5  0  0  0  0  0  0  0  0  0  0
  163.1467   49.0309  145.4598 O   0  0  0  0  0  0  0  0  0  0  0  0
  163.3461   46.1209  145.4966 C   0  0  0  0  0  0  0  0  0  0  0  0
  162.0680   46.7039  145.7152 O   0  0  0  0  0  0  0  0  0  0  0  0
  163.2050   44.6221  145.2882 C   0  0  1  0  0  0  0  0  0  0  0  0
  163.6016   43.9723  146.4875 O   0  0  0  0  0  0  0  0  0  0  0  0
  161.7966   44.1285  144.9822 C   0  0  1  0  0  0  0  0  0  0  0  0
  161.6843   43.8322  143.5979 O   0  0  0  0  0  0  0  0  0  0  0  0
  161.7042   42.8287  145.7496 C   0  0  1  0  0  0  0  0  0  0  0  0
  162.1435   41.7502  144.9214 O   0  0  0  0  0  0  0  0  0  0  0  0
  162.6958   42.9487  146.8702 C   0  0  2  0  0  0  0  0  0  0  0  0
  157.4005   48.0562  143.7653 C   0  0  1  0  0  0  0  0  0  0  0  0
  159.7722   41.4605  150.9671 N   0  0  0  0  0  0  0  0  0  0  0  0
  160.2632   40.7364  149.9436 C   0  0  1  0  0  0  0  0  0  0  0  0
  158.5852   48.5123  144.5911 C   0  0  2  0  0  0  0  0  0  0  0  0
  160.0061   39.4102  149.8945 N   0  0  0  0  0  0  0  0  0  0  0  0
  158.7953   49.8990  144.3106 O   0  0  0  0  0  0  0  0  0  0  0  0
  159.7577   47.6800  144.1068 C   0  0  2  0  0  0  0  0  0  0  0  0
  161.0067   41.2634  148.9445 N   0  0  0  0  0  0  0  0  0  0  0  0
  160.9891   48.3917  144.2217 O   0  0  0  0  0  0  0  0  0  0  0  0
  161.3036   42.5803  148.9209 C   0  0  2  0  0  0  0  0  0  0  0  0
  159.3817   47.4043  142.6527 C   0  0  2  0  0  0  0  0  0  0  0  0
  157.9596   47.5168  142.5647 O   0  0  0  0  0  0  0  0  0  0  0  0
  160.7998   43.4304  150.0041 C   0  0  2  0  0  0  0  0  0  0  0  0
  159.8156   46.0358  142.1183 C   0  0  0  0  0  0  0  0  0  0  0  0
  159.5066   44.9624  143.0064 O   0  0  0  0  0  0  0  0  0  0  0  0
  159.9921   42.7829  151.0645 C   0  0  0  0  0  0  0  0  0  0  0  0
  159.5380   43.4615  152.0170 O   0  0  0  0  0  0  0  0  0  0  0  0
  161.2307   44.6752  149.7331 N   0  0  0  0  0  0  0  0  0  0  0  0
  161.9470   44.6305  148.5842 C   0  0  0  0  0  0  0  0  0  0  0  0
  161.9898   43.3765  148.1012 N   0  0  1  0  0  0  0  0  0  0  0  0
  156.0874   45.9680  148.4078 N   0  0  0  0  0  0  0  0  0  0  0  0
  160.5968   43.3009  141.3987 O   0  5  0  0  0  0  0  0  0  0  0  0
  156.8088   47.0651  148.1309 C   0  0  2  0  0  0  0  0  0  0  0  0
  157.2867   47.7683  149.1685 N   0  0  0  0  0  0  0  0  0  0  0  0
  159.4886   42.5288  143.6593 O   0  0  0  0  0  0  0  0  0  0  0  0
  157.0703   47.4921  146.8733 N   0  0  0  0  0  0  0  0  0  0  0  0
  156.6017   46.8136  145.8050 C   0  0  1  0  0  0  0  0  0  0  0  0
  155.8011   45.5958  146.0429 C   0  0  1  0  0  0  0  0  0  0  0  0
  155.5536   45.2035  147.4538 C   0  0  0  0  0  0  0  0  0  0  0  0
  154.8935   44.1873  147.7599 O   0  0  0  0  0  0  0  0  0  0  0  0
  155.4601   45.1244  144.8331 N   0  0  0  0  0  0  0  0  0  0  0  0
  156.0016   45.9646  143.9078 C   0  0  0  0  0  0  0  0  0  0  0  0
  156.6812   46.9756  144.4845 N   0  0  2  0  0  0  0  0  0  0  0  0
  1  3  1  1  0  0  0
  1  4  2  0  0  0  0
  1  6  1  0  0  0  0
  1 22  1  0  0  0  0
  2 28  1  0  0  0  0
  2 35  1  6  0  0  0
  2 38  2  0  0  0  0
  2 10  1  0  0  0  0
  5  6  1  0  0  0  0
  7  5  1  1  0  0  0
  7  8  1  0  0  0  0
  7  9  1  0  0  0  0
  9 10  1  6  0  0  0
  9 11  1  0  0  0  0
 11 12  1  6  0  0  0
 11 13  1  0  0  0  0
 13  8  1  6  0  0  0
 13 33  1  0  0  0  0
 14 46  1  0  0  0  0
 14 17  1  0  0  0  0
 14 25  1  6  0  0  0
 15 16  1  0  0  0  0
 15 29  1  0  0  0  0
 16 18  1  6  0  0  0
 16 21  1  0  0  0  0
 17 19  1  6  0  0  0
 17 20  1  0  0  0  0
 20 22  1  6  0  0  0
 20 24  1  0  0  0  0
 23 21  1  6  0  0  0
 23 26  1  0  0  0  0
 23 33  1  0  0  0  0
 24 25  1  1  0  0  0
 24 27  1  0  0  0  0
 26 29  1  6  0  0  0
 26 31  1  0  0  0  0
 27 28  1  0  0  0  0
 29 30  2  0  0  0  0
 31 32  1  0  0  0  0
 33 32  1  1  0  0  0
 34 36  1  0  0  0  0
 34 42  1  0  0  0  0
 36 37  1  1  0  0  0
 36 39  1  0  0  0  0
 40 39  1  1  0  0  0
 40 41  1  0  0  0  0
 40 46  1  0  0  0  0
 41 42  1  1  0  0  0
 41 44  1  0  0  0  0
 42 43  2  0  0  0  0
 44 45  1  0  0  0  0
 46 45  1  6  0  0  0
M  CHG  2   3  -1  35  -1
M  END
>  <CHROM.1>
-163.69641493,29.65527045,159.83278207,45.21587551,146.06202117,-1.81186109
-0.47254008,2.20811715

>  <Name>
ligand

>  <RI>
0

>  <Rbt.Current_Directory>
/home/itssahil/PROJECTS/Mol_Feturizer/Test_systems_manuscript/rnas/4yb0

>  <Rbt.Executable>
rbdock ($Id: //depot/dev/client3/rdock/2013.1/src/exe/rbdock.cxx#4 $)

>  <Rbt.Library>
libRbt.so (2013.1, Build901 2013/11/27)

>  <Rbt.Parameter_File>
/export/apps/rDock/src/rDock_2013.1_src/data/scripts/dock_solv.prm

>  <Rbt.Receptor>
prm/pocket_docking_7.prm

>  <SCORE>
-14.2734

>  <SCORE.INTER>
-14.5093

>  <SCORE.INTER.CONST>
1

>  <SCORE.INTER.POLAR>
0

>  <SCORE.INTER.ROT>
2

>  <SCORE.INTER.SOLV>
17.8469

>  <SCORE.INTER.VDW>
-20.5552

>  <SCORE.INTER.norm>
-0.31542

>  <SCORE.INTRA>
0.235907

>  <SCORE.INTRA.DIHEDRAL>
0.0251374

>  <SCORE.INTRA.DIHEDRAL.0>
2.42188

>  <SCORE.INTRA.POLAR>
0

>  <SCORE.INTRA.POLAR.0>
0

>  <SCORE.INTRA.REPUL>
0

>  <SCORE.INTRA.REPUL.0>
0

>  <SCORE.INTRA.SOLV>
0.0446957

>  <SCORE.INTRA.SOLV.lig_0>
-127.307

>  <SCORE.INTRA.VDW>
0.20099

>  <SCORE.INTRA.VDW.0>
-2.19936

>  <SCORE.INTRA.norm>
0.00512841

>  <SCORE.RESTR>
0

>  <SCORE.RESTR.CAVITY>
0

>  <SCORE.RESTR.norm>
0

>  <SCORE.SYSTEM>
0

>  <SCORE.SYSTEM.CONST>
0

>  <SCORE.SYSTEM.DIHEDRAL>
0

>  <SCORE.SYSTEM.SOLV>
0

>  <SCORE.SYSTEM.norm>
0

>  <SCORE.heavy>
46

>  <SCORE.norm>
-0.310292

>  <RMSD>
6.677

$$$$
ligand
 OpenBabel02271912143D
libRbt.so/2013.1/901 2013/11/27
 46 52  0  0  0  0  0  0  0  0999 V2000
  159.6846   43.2683  148.6091 P   0  0  1  0  0  0  0  0  0  0  0  0
  157.3401   48.3914  149.4381 P   0  0  1  0  0  0  0  0  0  0  0  0
  159.7642   42.8201  147.1724 O   0  5  0  0  0  0  0  0  0  0  0  0
  160.4105   42.4175  149.6284 O   0  0  0  0  0  0  0  0  0  0  0  0
  160.9829   45.2757  149.7423 C   0  0  0  0  0  0  0  0  0  0  0  0
  160.1572   44.8031  148.6858 O   0  0  0  0  0  0  0  0  0  0  0  0
  160.9478   46.7943  149.7900 C   0  0  1  0  0  0  0  0  0  0  0  0
  162.1548   47.2800  149.2199 O   0  0  0  0  0  0  0  0  0  0  0  0
  159.8147   47.4525  149.0131 C   0  0  1  0  0  0  0  0  0  0  0  0
  158.8102   47.8938  149.9147 O   0  0  0  0  0  0  0  0  0  0  0  0
  160.4677   48.6728  148.4037 C   0  0  1  0  0  0  0  0  0  0  0  0
  160.3481   49.7791  149.3003 O   0  0  0  0  0  0  0  0  0  0  0  0
  161.9296   48.3452  148.3093 C   0  0  2  0  0  0  0  0  0  0  0  0
  155.3307   44.1184  146.7746 C   0  0  1  0  0  0  0  0  0  0  0  0
  163.5019   44.3172  145.3345 N   0  0  0  0  0  0  0  0  0  0  0  0
  163.3415   44.3989  146.6689 C   0  0  1  0  0  0  0  0  0  0  0  0
  156.6752   43.4680  147.0254 C   0  0  2  0  0  0  0  0  0  0  0  0
  163.6062   43.3135  147.4299 N   0  0  0  0  0  0  0  0  0  0  0  0
  156.4328   42.1019  147.3728 O   0  0  0  0  0  0  0  0  0  0  0  0
  157.2760   44.2241  148.1957 C   0  0  2  0  0  0  0  0  0  0  0  0
  162.9283   45.5187  147.3045 N   0  0  0  0  0  0  0  0  0  0  0  0
  158.1208   43.3861  148.9833 O   0  0  0  0  0  0  0  0  0  0  0  0
  162.6473   46.6448  146.6145 C   0  0  2  0  0  0  0  0  0  0  0  0
  156.0348   44.6779  148.9609 C   0  0  2  0  0  0  0  0  0  0  0  0
  154.9597   44.7158  148.0199 O   0  0  0  0  0  0  0  0  0  0  0  0
  162.8018   46.6284  145.1565 C   0  0  2  0  0  0  0  0  0  0  0  0
  156.1572   46.0428  149.6453 C   0  0  0  0  0  0  0  0  0  0  0  0
  156.7110   47.0485  148.7977 O   0  0  0  0  0  0  0  0  0  0  0  0
  163.2582   45.3656  144.5296 C   0  0  0  0  0  0  0  0  0  0  0  0
  163.4049   45.2939  143.2857 O   0  0  0  0  0  0  0  0  0  0  0  0
  162.4670   47.8598  144.7317 N   0  0  0  0  0  0  0  0  0  0  0  0
  162.1266   48.5991  145.8146 C   0  0  0  0  0  0  0  0  0  0  0  0
  162.2344   47.8698  146.9389 N   0  0  1  0  0  0  0  0  0  0  0  0
  158.5515   46.6489  143.4792 N   0  0  0  0  0  0  0  0  0  0  0  0
  156.5851   48.7447  150.7058 O   0  5  0  0  0  0  0  0  0  0  0  0
  158.8011   45.6245  144.3093 C   0  0  2  0  0  0  0  0  0  0  0  0
  160.0514   45.1391  144.3328 N   0  0  0  0  0  0  0  0  0  0  0  0
  157.4945   49.3955  148.3218 O   0  0  0  0  0  0  0  0  0  0  0  0
  157.8646   45.0632  145.1094 N   0  0  0  0  0  0  0  0  0  0  0  0
  156.5952   45.5214  145.1089 C   0  0  1  0  0  0  0  0  0  0  0  0
  156.2563   46.6488  144.2175 C   0  0  1  0  0  0  0  0  0  0  0  0
  157.3415   47.1991  143.3660 C   0  0  0  0  0  0  0  0  0  0  0  0
  157.1579   48.1560  142.5831 O   0  0  0  0  0  0  0  0  0  0  0  0
  154.9508   46.9001  144.4043 N   0  0  0  0  0  0  0  0  0  0  0  0
  154.5012   46.0148  145.3368 C   0  0  0  0  0  0  0  0  0  0  0  0
  155.4794   45.1884  145.7573 N   0  0  2  0  0  0  0  0  0  0  0  0
  1  3  1  6  0  0  0
  1  4  2  0  0  0  0
  1  6  1  0  0  0  0
  1 22  1  0  0  0  0
  2 28  1  0  0  0  0
  2 35  1  1  0  0  0
  2 38  2  0  0  0  0
  2 10  1  0  0  0  0
  5  6  1  0  0  0  0
  7  5  1  6  0  0  0
  7  8  1  0  0  0  0
  7  9  1  0  0  0  0
  9 10  1  1  0  0  0
  9 11  1  0  0  0  0
 11 12  1  1  0  0  0
 11 13  1  0  0  0  0
 13  8  1  1  0  0  0
 13 33  1  0  0  0  0
 14 46  1  0  0  0  0
 14 17  1  0  0  0  0
 14 25  1  1  0  0  0
 15 16  1  0  0  0  0
 15 29  1  0  0  0  0
 16 18  1  1  0  0  0
 16 21  1  0  0  0  0
 17 19  1  1  0  0  0
 17 20  1  0  0  0  0
 20 22  1  1  0  0  0
 20 24  1  0  0  0  0
 23 21  1  1  0  0  0
 23 26  1  0  0  0  0
 23 33  1  0  0  0  0
 24 25  1  6  0  0  0
 24 27  1  0  0  0  0
 26 29  1  1  0  0  0
 26 31  1  0  0  0  0
 27 28  1  0  0  0  0
 29 30  2  0  0  0  0
 31 32  1  0  0  0  0
 33 32  1  6  0  0  0
 34 36  1  0  0  0  0
 34 42  1  0  0  0  0
 36 37  1  6  0  0  0
 36 39  1  0  0  0  0
 40 39  1  6  0  0  0
 40 41  1  0  0  0  0
 40 46  1  0  0  0  0
 41 42  1  6  0  0  0
 41 44  1  0  0  0  0
 42 43  2  0  0  0  0
 44 45  1  0  0  0  0
 46 45  1  1  0  0  0
M  CHG  2   3  -1  35  -1
M  END
>  <CHROM.1>
0.18489871,2.25230350,159.16386326,45.96355802,147.17957849,-0.11946068,0.04168309
1.31552116

>  <Name>
ligand

>  <RI>
0

>  <Rbt.Current_Directory>
/home/itssahil/PROJECTS/Mol_Feturizer/Test_systems_manuscript/rnas/4yb0

>  <Rbt.Executable>
rbdock ($Id: //depot/dev/client3/rdock/2013.1/src/exe/rbdock.cxx#4 $)

>  <Rbt.Library>
libRbt.so (2013.1, Build901 2013/11/27)

>  <Rbt.Parameter_File>
/export/apps/rDock/src/rDock_2013.1_src/data/scripts/dock_solv.prm

>  <Rbt.Receptor>
prm/pocket_docking_8.prm

>  <SCORE>
-16.8163

>  <SCORE.INTER>
-19.1068

>  <SCORE.INTER.CONST>
1

>  <SCORE.INTER.POLAR>
0

>  <SCORE.INTER.ROT>
2

>  <SCORE.INTER.SOLV>
15.6712

>  <SCORE.INTER.VDW>
-22.895

>  <SCORE.INTER.norm>
-0.415366

>  <SCORE.INTRA>
2.29055

>  <SCORE.INTRA.DIHEDRAL>
-0.0173517

>  <SCORE.INTRA.DIHEDRAL.0>
2.42188

>  <SCORE.INTRA.POLAR>
0

>  <SCORE.INTRA.POLAR.0>
0

>  <SCORE.INTRA.REPUL>
0

>  <SCORE.INTRA.REPUL.0>
0

>  <SCORE.INTRA.SOLV>
7.8805

>  <SCORE.INTRA.SOLV.lig_0>
-127.307

>  <SCORE.INTRA.VDW>
-1.64102

>  <SCORE.INTRA.VDW.0>
-2.19936

>  <SCORE.INTRA.norm>
0.0497947

>  <SCORE.RESTR>
0

>  <SCORE.RESTR.CAVITY>
0

>  <SCORE.RESTR.norm>
0

>  <SCORE.SYSTEM>
0

>  <SCORE.SYSTEM.CONST>
0

>  <SCORE.SYSTEM.DIHEDRAL>
0

>  <SCORE.SYSTEM.SOLV>
0

>  <SCORE.SYSTEM.norm>
0

>  <SCORE.heavy>
46

>  <SCORE.norm>
-0.365572

>  <RMSD>
6.698

$$$$
ligand
 OpenBabel02271912143D
libRbt.so/2013.1/901 2013/11/27
 46 52  0  0  0  0  0  0  0  0999 V2000
  159.9015   45.6410  151.1152 P   0  0  1  0  0  0  0  0  0  0  0  0
  158.5214   41.4413  147.5252 P   0  0  1  0  0  0  0  0  0  0  0  0
  160.8285   46.6893  150.5559 O   0  5  0  0  0  0  0  0  0  0  0  0
  159.2886   45.9271  152.4688 O   0  0  0  0  0  0  0  0  0  0  0  0
  157.4098   45.1398  150.3809 C   0  0  0  0  0  0  0  0  0  0  0  0
  158.7707   45.3288  150.0158 O   0  0  0  0  0  0  0  0  0  0  0  0
  156.6514   44.4837  149.2389 C   0  0  1  0  0  0  0  0  0  0  0  0
  155.8802   45.4851  148.5907 O   0  0  0  0  0  0  0  0  0  0  0  0
  157.5123   43.8428  148.1577 C   0  0  1  0  0  0  0  0  0  0  0  0
  157.5071   42.4317  148.3166 O   0  0  0  0  0  0  0  0  0  0  0  0
  156.7764   44.1741  146.8788 C   0  0  1  0  0  0  0  0  0  0  0  0
  155.8338   43.1407  146.5862 O   0  0  0  0  0  0  0  0  0  0  0  0
  155.9844   45.4140  147.1769 C   0  0  2  0  0  0  0  0  0  0  0  0
  163.4396   43.1950  148.9837 C   0  0  1  0  0  0  0  0  0  0  0  0
  159.8207   47.1830  144.0624 N   0  0  0  0  0  0  0  0  0  0  0  0
  159.3880   45.9261  144.2767 C   0  0  1  0  0  0  0  0  0  0  0  0
  162.7070   44.2831  149.7406 C   0  0  2  0  0  0  0  0  0  0  0  0
  159.9853   44.9053  143.6221 N   0  0  0  0  0  0  0  0  0  0  0  0
  163.3715   44.4546  150.9955 O   0  0  0  0  0  0  0  0  0  0  0  0
  161.2992   43.7546  149.9432 C   0  0  2  0  0  0  0  0  0  0  0  0
  158.3787   45.6174  145.1222 N   0  0  0  0  0  0  0  0  0  0  0  0
  160.7205   44.2526  151.1486 O   0  0  0  0  0  0  0  0  0  0  0  0
  157.7345   46.5807  145.8150 C   0  0  2  0  0  0  0  0  0  0  0  0
  161.5226   42.2446  149.9888 C   0  0  2  0  0  0  0  0  0  0  0  0
  162.7396   41.9851  149.2857 O   0  0  0  0  0  0  0  0  0  0  0  0
  158.1547   47.9734  145.6320 C   0  0  2  0  0  0  0  0  0  0  0  0
  160.3965   41.4032  149.3800 C   0  0  0  0  0  0  0  0  0  0  0  0
  159.9616   41.8829  148.1083 O   0  0  0  0  0  0  0  0  0  0  0  0
  159.2675   48.2355  144.6890 C   0  0  0  0  0  0  0  0  0  0  0  0
  159.6663   49.4085  144.4916 O   0  0  0  0  0  0  0  0  0  0  0  0
  157.3633   48.7104  146.4316 N   0  0  0  0  0  0  0  0  0  0  0  0
  156.5116   47.8709  147.0681 C   0  0  0  0  0  0  0  0  0  0  0  0
  156.7352   46.5983  146.6968 N   0  0  1  0  0  0  0  0  0  0  0  0
  163.2462   46.7820  145.1452 N   0  0  0  0  0  0  0  0  0  0  0  0
  158.1954   40.0383  148.0018 O   0  5  0  0  0  0  0  0  0  0  0  0
  163.3616   46.9468  146.4720 C   0  0  2  0  0  0  0  0  0  0  0  0
  163.4451   48.2036  146.9334 N   0  0  0  0  0  0  0  0  0  0  0  0
  158.5038   41.7851  146.0556 O   0  0  0  0  0  0  0  0  0  0  0  0
  163.4012   45.9205  147.3538 N   0  0  0  0  0  0  0  0  0  0  0  0
  163.3252   44.6428  146.9262 C   0  0  1  0  0  0  0  0  0  0  0  0
  163.1958   44.3943  145.4763 C   0  0  1  0  0  0  0  0  0  0  0  0
  163.1697   45.5769  144.5782 C   0  0  0  0  0  0  0  0  0  0  0  0
  163.0573   45.4728  143.3378 O   0  0  0  0  0  0  0  0  0  0  0  0
  163.1467   43.0615  145.3235 N   0  0  0  0  0  0  0  0  0  0  0  0
  163.2310   42.5116  146.5667 C   0  0  0  0  0  0  0  0  0  0  0  0
  163.3407   43.4524  147.5255 N   0  0  2  0  0  0  0  0  0  0  0  0
  1  3  1  6  0  0  0
  1  4  2  0  0  0  0
  1  6  1  0  0  0  0
  1 22  1  0  0  0  0
  2 28  1  0  0  0  0
  2 35  1  1  0  0  0
  2 38  2  0  0  0  0
  2 10  1  0  0  0  0
  5  6  1  0  0  0  0
  7  5  1  1  0  0  0
  7  8  1  0  0  0  0
  7  9  1  0  0  0  0
  9 10  1  1  0  0  0
  9 11  1  0  0  0  0
 11 12  1  1  0  0  0
 11 13  1  0  0  0  0
 13  8  1  1  0  0  0
 13 33  1  0  0  0  0
 14 46  1  0  0  0  0
 14 17  1  0  0  0  0
 14 25  1  6  0  0  0
 15 16  1  0  0  0  0
 15 29  1  0  0  0  0
 16 18  1  1  0  0  0
 16 21  1  0  0  0  0
 17 19  1  1  0  0  0
 17 20  1  0  0  0  0
 20 22  1  1  0  0  0
 20 24  1  0  0  0  0
 23 21  1  1  0  0  0
 23 26  1  0  0  0  0
 23 33  1  0  0  0  0
 24 25  1  6  0  0  0
 24 27  1  0  0  0  0
 26 29  1  1  0  0  0
 26 31  1  0  0  0  0
 27 28  1  0  0  0  0
 29 30  2  0  0  0  0
 31 32  1  0  0  0  0
 33 32  1  6  0  0  0
 34 36  1  0  0  0  0
 34 42  1  0  0  0  0
 36 37  1  6  0  0  0
 36 39  1  0  0  0  0
 40 39  1  6  0  0  0
 40 41  1  0  0  0  0
 40 46  1  0  0  0  0
 41 42  1  6  0  0  0
 41 44  1  0  0  0  0
 42 43  2  0  0  0  0
 44 45  1  0  0  0  0
 46 45  1  1  0  0  0
M  CHG  2   3  -1  35  -1
M  END
>  <CHROM.1>
133.33556637,34.57424167,159.98291660,44.75788236,147.60792531,1.68894116
-0.10156555,2.26548129

>  <Name>
ligand

>  <RI>
0

>  <Rbt.Current_Directory>
/home/itssahil/PROJECTS/Mol_Feturizer/Test_systems_manuscript/rnas/4yb0

>  <Rbt.Executable>
rbdock ($Id: //depot/dev/client3/rdock/2013.1/src/exe/rbdock.cxx#4 $)

>  <Rbt.Library>
libRbt.so (2013.1, Build901 2013/11/27)

>  <Rbt.Parameter_File>
/export/apps/rDock/src/rDock_2013.1_src/data/scripts/dock_solv.prm

>  <Rbt.Receptor>
prm/pocket_docking_7.prm

>  <SCORE>
-14.4877

>  <SCORE.INTER>
-15.6806

>  <SCORE.INTER.CONST>
1

>  <SCORE.INTER.POLAR>
0

>  <SCORE.INTER.ROT>
2

>  <SCORE.INTER.SOLV>
12.8156

>  <SCORE.INTER.VDW>
-19.659

>  <SCORE.INTER.norm>
-0.340883

>  <SCORE.INTRA>
1.19292

>  <SCORE.INTRA.DIHEDRAL>
-0.00725043

>  <SCORE.INTRA.DIHEDRAL.0>
2.42188

>  <SCORE.INTRA.POLAR>
0

>  <SCORE.INTRA.POLAR.0>
0

>  <SCORE.INTRA.REPUL>
0

>  <SCORE.INTRA.REPUL.0>
0

>  <SCORE.INTRA.SOLV>
2.65593

>  <SCORE.INTRA.SOLV.lig_0>
-127.307

>  <SCORE.INTRA.VDW>
-0.131424

>  <SCORE.INTRA.VDW.0>
-2.19936

>  <SCORE.INTRA.norm>
0.025933

>  <SCORE.RESTR>
0

>  <SCORE.RESTR.CAVITY>
0

>  <SCORE.RESTR.norm>
0

>  <SCORE.SYSTEM>
0

>  <SCORE.SYSTEM.CONST>
0

>  <SCORE.SYSTEM.DIHEDRAL>
0

>  <SCORE.SYSTEM.SOLV>
0

>  <SCORE.SYSTEM.norm>
0

>  <SCORE.heavy>
46

>  <SCORE.norm>
-0.31495

>  <RMSD>
6.705

$$$$
ligand
 OpenBabel02271912143D
libRbt.so/2013.1/901 2013/11/27
 46 52  0  0  0  0  0  0  0  0999 V2000
  156.7569   44.9939  146.0016 P   0  0  1  0  0  0  0  0  0  0  0  0
  160.2712   44.4763  150.4527 P   0  0  1  0  0  0  0  0  0  0  0  0
  157.3478   45.6632  144.7875 O   0  5  0  0  0  0  0  0  0  0  0  0
  155.3930   44.3607  145.8331 O   0  0  0  0  0  0  0  0  0  0  0  0
  157.4299   42.6537  147.0358 C   0  0  0  0  0  0  0  0  0  0  0  0
  157.8274   43.9349  146.5652 O   0  0  0  0  0  0  0  0  0  0  0  0
  158.5477   42.0314  147.8562 C   0  0  1  0  0  0  0  0  0  0  0  0
  159.1888   41.0507  147.0530 O   0  0  0  0  0  0  0  0  0  0  0  0
  159.6412   42.9883  148.3139 C   0  0  1  0  0  0  0  0  0  0  0  0
  159.4675   43.2890  149.6908 O   0  0  0  0  0  0  0  0  0  0  0  0
  160.9066   42.1734  148.1672 C   0  0  1  0  0  0  0  0  0  0  0  0
  161.1672   41.4688  149.3828 O   0  0  0  0  0  0  0  0  0  0  0  0
  160.6038   41.1399  147.1214 C   0  0  2  0  0  0  0  0  0  0  0  0
  158.9418   48.9316  147.6644 C   0  0  1  0  0  0  0  0  0  0  0  0
  159.8762   41.2054  141.9240 N   0  0  0  0  0  0  0  0  0  0  0  0
  159.1556   40.6098  142.8930 C   0  0  1  0  0  0  0  0  0  0  0  0
  158.1800   47.9977  146.7474 C   0  0  2  0  0  0  0  0  0  0  0  0
  158.0571   39.8995  142.5521 N   0  0  0  0  0  0  0  0  0  0  0  0
  156.9421   48.6346  146.4186 O   0  0  0  0  0  0  0  0  0  0  0  0
  157.9403   46.7404  147.5620 C   0  0  2  0  0  0  0  0  0  0  0  0
  159.4702   40.6770  144.2065 N   0  0  0  0  0  0  0  0  0  0  0  0
  156.7274   46.0921  147.1816 O   0  0  0  0  0  0  0  0  0  0  0  0
  160.5540   41.3643  144.6262 C   0  0  2  0  0  0  0  0  0  0  0  0
  157.8840   47.2833  148.9882 C   0  0  2  0  0  0  0  0  0  0  0  0
  158.6115   48.5135  148.9916 O   0  0  0  0  0  0  0  0  0  0  0  0
  161.3864   42.0373  143.6242 C   0  0  2  0  0  0  0  0  0  0  0  0
  158.4586   46.3521  150.0604 C   0  0  0  0  0  0  0  0  0  0  0  0
  159.7251   45.7995  149.7041 O   0  0  0  0  0  0  0  0  0  0  0  0
  160.9796   41.9199  142.2041 C   0  0  0  0  0  0  0  0  0  0  0  0
  161.6534   42.4779  141.3049 O   0  0  0  0  0  0  0  0  0  0  0  0
  162.3836   42.6303  144.3046 N   0  0  0  0  0  0  0  0  0  0  0  0
  162.2082   42.3658  145.6216 C   0  0  0  0  0  0  0  0  0  0  0  0
  161.1129   41.6095  145.8111 N   0  0  1  0  0  0  0  0  0  0  0  0
  163.1024   49.8632  144.5889 N   0  0  0  0  0  0  0  0  0  0  0  0
  159.7728   44.4683  151.8857 O   0  5  0  0  0  0  0  0  0  0  0  0
  161.8215   50.2346  144.4396 C   0  0  2  0  0  0  0  0  0  0  0  0
  161.5106   50.9576  143.3533 N   0  0  0  0  0  0  0  0  0  0  0  0
  161.7435   44.3564  150.1427 O   0  0  0  0  0  0  0  0  0  0  0  0
  160.8433   49.9226  145.3217 N   0  0  0  0  0  0  0  0  0  0  0  0
  161.1193   49.2015  146.4285 C   0  0  1  0  0  0  0  0  0  0  0  0
  162.5113   48.7610  146.6502 C   0  0  1  0  0  0  0  0  0  0  0  0
  163.5239   49.1548  145.6378 C   0  0  0  0  0  0  0  0  0  0  0  0
  164.7264   48.8269  145.7312 O   0  0  0  0  0  0  0  0  0  0  0  0
  162.5128   48.0781  147.8060 N   0  0  0  0  0  0  0  0  0  0  0  0
  161.2337   48.0789  148.2742 C   0  0  0  0  0  0  0  0  0  0  0  0
  160.3999   48.7511  147.4560 N   0  0  2  0  0  0  0  0  0  0  0  0
  1  3  1  6  0  0  0
  1  4  2  0  0  0  0
  1  6  1  0  0  0  0
  1 22  1  0  0  0  0
  2 28  1  0  0  0  0
  2 35  1  1  0  0  0
  2 38  2  0  0  0  0
  2 10  1  0  0  0  0
  5  6  1  0  0  0  0
  7  5  1  6  0  0  0
  7  8  1  0  0  0  0
  7  9  1  0  0  0  0
  9 10  1  1  0  0  0
  9 11  1  0  0  0  0
 11 12  1  1  0  0  0
 11 13  1  0  0  0  0
 13  8  1  6  0  0  0
 13 33  1  0  0  0  0
 14 46  1  0  0  0  0
 14 17  1  0  0  0  0
 14 25  1  1  0  0  0
 15 16  1  0  0  0  0
 15 29  1  0  0  0  0
 16 18  1  6  0  0  0
 16 21  1  0  0  0  0
 17 19  1  1  0  0  0
 17 20  1  0  0  0  0
 20 22  1  6  0  0  0
 20 24  1  0  0  0  0
 23 21  1  6  0  0  0
 23 26  1  0  0  0  0
 23 33  1  0  0  0  0
 24 25  1  6  0  0  0
 24 27  1  0  0  0  0
 26 29  1  6  0  0  0
 26 31  1  0  0  0  0
 27 28  1  0  0  0  0
 29 30  2  0  0  0  0
 31 32  1  0  0  0  0
 33 32  1  1  0  0  0
 34 36  1  0  0  0  0
 34 42  1  0  0  0  0
 36 37  1  1  0  0  0
 36 39  1  0  0  0  0
 40 39  1  1  0  0  0
 40 41  1  0  0  0  0
 40 46  1  0  0  0  0
 41 42  1  1  0  0  0
 41 44  1  0  0  0  0
 42 43  2  0  0  0  0
 44 45  1  0  0  0  0
 46 45  1  6  0  0  0
M  CHG  2   3  -1  35  -1
M  END
>  <CHROM.1>
-31.06952209,75.70025195,159.85720304,45.05668486,146.64141609,1.92652154
-1.15147232,-2.55802279

>  <Name>
ligand

>  <RI>
0

>  <Rbt.Current_Directory>
/home/itssahil/PROJECTS/Mol_Feturizer/Test_systems_manuscript/rnas/4yb0

>  <Rbt.Executable>
rbdock ($Id: //depot/dev/client3/rdock/2013.1/src/exe/rbdock.cxx#4 $)

>  <Rbt.Library>
libRbt.so (2013.1, Build901 2013/11/27)

>  <Rbt.Parameter_File>
/export/apps/rDock/src/rDock_2013.1_src/data/scripts/dock_solv.prm

>  <Rbt.Receptor>
prm/pocket_docking_8.prm

>  <SCORE>
-13.4563

>  <SCORE.INTER>
-13.5889

>  <SCORE.INTER.CONST>
1

>  <SCORE.INTER.POLAR>
0

>  <SCORE.INTER.ROT>
2

>  <SCORE.INTER.SOLV>
26.124

>  <SCORE.INTER.VDW>
-22.7006

>  <SCORE.INTER.norm>
-0.29541

>  <SCORE.INTRA>
0.132566

>  <SCORE.INTRA.DIHEDRAL>
-0.0215799

>  <SCORE.INTRA.DIHEDRAL.0>
2.42188

>  <SCORE.INTRA.POLAR>
0

>  <SCORE.INTRA.POLAR.0>
0

>  <SCORE.INTRA.REPUL>
0

>  <SCORE.INTRA.REPUL.0>
0

>  <SCORE.INTRA.SOLV>
0.0422982

>  <SCORE.INTRA.SOLV.lig_0>
-127.307

>  <SCORE.INTRA.VDW>
0.122207

>  <SCORE.INTRA.VDW.0>
-2.19936

>  <SCORE.INTRA.norm>
0.00288186

>  <SCORE.RESTR>
0

>  <SCORE.RESTR.CAVITY>
0

>  <SCORE.RESTR.norm>
0

>  <SCORE.SYSTEM>
0

>  <SCORE.SYSTEM.CONST>
0

>  <SCORE.SYSTEM.DIHEDRAL>
0

>  <SCORE.SYSTEM.SOLV>
0

>  <SCORE.SYSTEM.norm>
0

>  <SCORE.heavy>
46

>  <SCORE.norm>
-0.292528

>  <RMSD>
6.879

$$$$
ligand
 OpenBabel02271912143D
libRbt.so/2013.1/901 2013/11/27
 46 52  0  0  0  0  0  0  0  0999 V2000
  160.0207   48.1083  149.0776 P   0  0  1  0  0  0  0  0  0  0  0  0
  155.8832   44.6115  147.3214 P   0  0  1  0  0  0  0  0  0  0  0  0
  161.4247   47.5990  148.8760 O   0  5  0  0  0  0  0  0  0  0  0  0
  159.8763   49.5477  149.5213 O   0  0  0  0  0  0  0  0  0  0  0  0
  158.2692   48.7786  147.2115 C   0  0  0  0  0  0  0  0  0  0  0  0
  159.1830   47.8237  147.7351 O   0  0  0  0  0  0  0  0  0  0  0  0
  157.3481   48.1166  146.2000 C   0  0  1  0  0  0  0  0  0  0  0  0
  157.7900   48.4797  144.8996 O   0  0  0  0  0  0  0  0  0  0  0  0
  157.3207   46.5938  146.2307 C   0  0  1  0  0  0  0  0  0  0  0  0
  156.1303   46.1499  146.8652 O   0  0  0  0  0  0  0  0  0  0  0  0
  157.2438   46.2132  144.7691 C   0  0  1  0  0  0  0  0  0  0  0  0
  155.8752   46.1200  144.3690 O   0  0  0  0  0  0  0  0  0  0  0  0
  157.8392   47.3685  144.0180 C   0  0  2  0  0  0  0  0  0  0  0  0
  159.9803   43.5994  150.7245 C   0  0  1  0  0  0  0  0  0  0  0  0
  161.2242   43.9595  141.9043 N   0  0  0  0  0  0  0  0  0  0  0  0
  159.8860   43.8853  142.0340 C   0  0  1  0  0  0  0  0  0  0  0  0
  160.4641   44.9932  150.3830 C   0  0  2  0  0  0  0  0  0  0  0  0
  159.2408   42.7918  141.5702 N   0  0  0  0  0  0  0  0  0  0  0  0
  160.9240   45.5969  151.5954 O   0  0  0  0  0  0  0  0  0  0  0  0
  159.2464   45.7216  149.8456 C   0  0  2  0  0  0  0  0  0  0  0  0
  159.1368   44.8515  142.6119 N   0  0  0  0  0  0  0  0  0  0  0  0
  159.3035   47.1189  150.1292 O   0  0  0  0  0  0  0  0  0  0  0  0
  159.7078   45.9722  143.1026 C   0  0  2  0  0  0  0  0  0  0  0  0
  158.1021   45.0278  150.5811 C   0  0  2  0  0  0  0  0  0  0  0  0
  158.5742   43.7303  150.9506 O   0  0  0  0  0  0  0  0  0  0  0  0
  161.1627   46.1196  142.9969 C   0  0  2  0  0  0  0  0  0  0  0  0
  156.8057   44.8852  149.7775 C   0  0  0  0  0  0  0  0  0  0  0  0
  157.0170   44.3995  148.4524 O   0  0  0  0  0  0  0  0  0  0  0  0
  161.9181   45.0203  142.3512 C   0  0  0  0  0  0  0  0  0  0  0  0
  163.1647   45.0946  142.2313 O   0  0  0  0  0  0  0  0  0  0  0  0
  161.4599   47.3043  143.5600 N   0  0  0  0  0  0  0  0  0  0  0  0
  160.3042   47.8680  143.9862 C   0  0  0  0  0  0  0  0  0  0  0  0
  159.2581   47.0698  143.7105 N   0  0  1  0  0  0  0  0  0  0  0  0
  162.0031   43.0358  145.9050 N   0  0  0  0  0  0  0  0  0  0  0  0
  154.5130   44.5816  147.9723 O   0  5  0  0  0  0  0  0  0  0  0  0
  162.0210   44.0962  146.7272 C   0  0  2  0  0  0  0  0  0  0  0  0
  162.6413   45.2036  146.2934 N   0  0  0  0  0  0  0  0  0  0  0  0
  156.2155   43.6936  146.1702 O   0  0  0  0  0  0  0  0  0  0  0  0
  161.4549   44.1005  147.9567 N   0  0  0  0  0  0  0  0  0  0  0  0
  160.8270   43.0033  148.4289 C   0  0  1  0  0  0  0  0  0  0  0  0
  160.7717   41.8025  147.5711 C   0  0  1  0  0  0  0  0  0  0  0  0
  161.4265   41.8804  146.2404 C   0  0  0  0  0  0  0  0  0  0  0  0
  161.4299   40.9214  145.4390 O   0  0  0  0  0  0  0  0  0  0  0  0
  160.1072   40.8684  148.2698 N   0  0  0  0  0  0  0  0  0  0  0  0
  159.7649   41.4279  149.4635 C   0  0  0  0  0  0  0  0  0  0  0  0
  160.1955   42.7012  149.5631 N   0  0  2  0  0  0  0  0  0  0  0  0
  1  3  1  6  0  0  0
  1  4  2  0  0  0  0
  1  6  1  0  0  0  0
  1 22  1  0  0  0  0
  2 28  1  0  0  0  0
  2 35  1  1  0  0  0
  2 38  2  0  0  0  0
  2 10  1  0  0  0  0
  5  6  1  0  0  0  0
  7  5  1  1  0  0  0
  7  8  1  0  0  0  0
  7  9  1  0  0  0  0
  9 10  1  1  0  0  0
  9 11  1  0  0  0  0
 11 12  1  6  0  0  0
 11 13  1  0  0  0  0
 13  8  1  1  0  0  0
 13 33  1  0  0  0  0
 14 46  1  0  0  0  0
 14 17  1  0  0  0  0
 14 25  1  6  0  0  0
 15 16  1  0  0  0  0
 15 29  1  0  0  0  0
 16 18  1  1  0  0  0
 16 21  1  0  0  0  0
 17 19  1  1  0  0  0
 17 20  1  0  0  0  0
 20 22  1  1  0  0  0
 20 24  1  0  0  0  0
 23 21  1  1  0  0  0
 23 26  1  0  0  0  0
 23 33  1  0  0  0  0
 24 25  1  6  0  0  0
 24 27  1  0  0  0  0
 26 29  1  1  0  0  0
 26 31  1  0  0  0  0
 27 28  1  0  0  0  0
 29 30  2  0  0  0  0
 31 32  1  0  0  0  0
 33 32  1  6  0  0  0
 34 36  1  0  0  0  0
 34 42  1  0  0  0  0
 36 37  1  1  0  0  0
 36 39  1  0  0  0  0
 40 39  1  1  0  0  0
 40 41  1  0  0  0  0
 40 46  1  0  0  0  0
 41 42  1  1  0  0  0
 41 44  1  0  0  0  0
 42 43  2  0  0  0  0
 44 45  1  0  0  0  0
 46 45  1  6  0  0  0
M  CHG  2   3  -1  35  -1
M  END
>  <CHROM.1>
168.17742014,5.96751658,159.31058445,45.27699896,146.78295666,1.92033058
-0.90553188,1.82131185

>  <Name>
ligand

>  <RI>
0

>  <Rbt.Current_Directory>
/home/itssahil/PROJECTS/Mol_Feturizer/Test_systems_manuscript/rnas/4yb0

>  <Rbt.Executable>
rbdock ($Id: //depot/dev/client3/rdock/2013.1/src/exe/rbdock.cxx#4 $)

>  <Rbt.Library>
libRbt.so (2013.1, Build901 2013/11/27)

>  <Rbt.Parameter_File>
/export/apps/rDock/src/rDock_2013.1_src/data/scripts/dock_solv.prm

>  <Rbt.Receptor>
prm/pocket_docking_6.prm

>  <SCORE>
-9.23522

>  <SCORE.INTER>
-10.0305

>  <SCORE.INTER.CONST>
1

>  <SCORE.INTER.POLAR>
0

>  <SCORE.INTER.ROT>
2

>  <SCORE.INTER.SOLV>
26.0356

>  <SCORE.INTER.VDW>
-20.2989

>  <SCORE.INTER.norm>
-0.218054

>  <SCORE.INTRA>
0.795251

>  <SCORE.INTRA.DIHEDRAL>
-0.0255541

>  <SCORE.INTRA.DIHEDRAL.0>
2.42188

>  <SCORE.INTRA.POLAR>
0

>  <SCORE.INTRA.POLAR.0>
0

>  <SCORE.INTRA.REPUL>
0

>  <SCORE.INTRA.REPUL.0>
0

>  <SCORE.INTRA.SOLV>
2.11409

>  <SCORE.INTRA.SOLV.lig_0>
-127.307

>  <SCORE.INTRA.VDW>
-0.249015

>  <SCORE.INTRA.VDW.0>
-2.19936

>  <SCORE.INTRA.norm>
0.0172881

>  <SCORE.RESTR>
0

>  <SCORE.RESTR.CAVITY>
0

>  <SCORE.RESTR.norm>
0

>  <SCORE.SYSTEM>
0

>  <SCORE.SYSTEM.CONST>
0

>  <SCORE.SYSTEM.DIHEDRAL>
0

>  <SCORE.SYSTEM.SOLV>
0

>  <SCORE.SYSTEM.norm>
0

>  <SCORE.heavy>
46

>  <SCORE.norm>
-0.200766

>  <RMSD>
6.888

$$$$
ligand
 OpenBabel02271912143D
libRbt.so/2013.1/901 2013/11/27
 46 52  0  0  0  0  0  0  0  0999 V2000
  160.6034   45.3469  148.5543 P   0  0  1  0  0  0  0  0  0  0  0  0
  156.8817   49.6572  148.5888 P   0  0  1  0  0  0  0  0  0  0  0  0
  160.4950   44.4103  147.3786 O   0  5  0  0  0  0  0  0  0  0  0  0
  161.7983   45.1614  149.4639 O   0  0  0  0  0  0  0  0  0  0  0  0
  161.3459   47.8860  148.5251 C   0  0  0  0  0  0  0  0  0  0  0  0
  160.5140   46.8561  148.0071 O   0  0  0  0  0  0  0  0  0  0  0  0
  160.7948   49.2466  148.1317 C   0  0  1  0  0  0  0  0  0  0  0  0
  161.5863   49.7496  147.0647 O   0  0  0  0  0  0  0  0  0  0  0  0
  159.3547   49.2564  147.6351 C   0  0  1  0  0  0  0  0  0  0  0  0
  158.5010   49.7554  148.6543 O   0  0  0  0  0  0  0  0  0  0  0  0
  159.3778   50.2634  146.5071 C   0  0  1  0  0  0  0  0  0  0  0  0
  159.0933   51.5661  147.0210 O   0  0  0  0  0  0  0  0  0  0  0  0
  160.7962   50.2893  146.0163 C   0  0  2  0  0  0  0  0  0  0  0  0
  155.9263   44.3374  148.1672 C   0  0  1  0  0  0  0  0  0  0  0  0
  162.6319   49.7803  141.1257 N   0  0  0  0  0  0  0  0  0  0  0  0
  162.7005   50.8242  141.9734 C   0  0  1  0  0  0  0  0  0  0  0  0
  157.4319   44.1817  148.1198 C   0  0  2  0  0  0  0  0  0  0  0  0
  163.3259   51.9543  141.5744 N   0  0  0  0  0  0  0  0  0  0  0  0
  157.7708   43.0428  148.9159 O   0  0  0  0  0  0  0  0  0  0  0  0
  157.9876   45.4535  148.7330 C   0  0  2  0  0  0  0  0  0  0  0  0
  162.1711   50.8122  143.2177 N   0  0  0  0  0  0  0  0  0  0  0  0
  159.2315   45.2183  149.3914 O   0  0  0  0  0  0  0  0  0  0  0  0
  161.5280   49.7221  143.6879 C   0  0  2  0  0  0  0  0  0  0  0  0
  156.8827   45.8534  149.7084 C   0  0  2  0  0  0  0  0  0  0  0  0
  155.6733   45.2619  149.2286 O   0  0  0  0  0  0  0  0  0  0  0  0
  161.4139   48.5479  142.8173 C   0  0  2  0  0  0  0  0  0  0  0  0
  156.6777   47.3625  149.8736 C   0  0  0  0  0  0  0  0  0  0  0  0
  156.6297   48.0622  148.6308 O   0  0  0  0  0  0  0  0  0  0  0  0
  162.0186   48.6341  141.4671 C   0  0  0  0  0  0  0  0  0  0  0  0
  161.9534   47.6583  140.6813 O   0  0  0  0  0  0  0  0  0  0  0  0
  160.7342   47.6255  143.5216 N   0  0  0  0  0  0  0  0  0  0  0  0
  160.4403   48.1554  144.7332 C   0  0  0  0  0  0  0  0  0  0  0  0
  160.9170   49.4087  144.8302 N   0  0  1  0  0  0  0  0  0  0  0  0
  157.2031   46.1797  143.4119 N   0  0  0  0  0  0  0  0  0  0  0  0
  156.3710   50.2803  149.8744 O   0  5  0  0  0  0  0  0  0  0  0  0
  157.9845   45.6634  144.3730 C   0  0  2  0  0  0  0  0  0  0  0  0
  159.3001   45.5850  144.1237 N   0  0  0  0  0  0  0  0  0  0  0  0
  156.4090   50.1545  147.2443 O   0  0  0  0  0  0  0  0  0  0  0  0
  157.5150   45.2208  145.5630 N   0  0  0  0  0  0  0  0  0  0  0  0
  156.1969   45.2788  145.8472 C   0  0  1  0  0  0  0  0  0  0  0  0
  155.2836   45.8380  144.8304 C   0  0  1  0  0  0  0  0  0  0  0  0
  155.8808   46.2916  143.5485 C   0  0  0  0  0  0  0  0  0  0  0  0
  155.1942   46.7844  142.6278 O   0  0  0  0  0  0  0  0  0  0  0  0
  154.0494   45.7756  145.3549 N   0  0  0  0  0  0  0  0  0  0  0  0
  154.1685   45.2309  146.5976 C   0  0  0  0  0  0  0  0  0  0  0  0
  155.4486   44.9304  146.8935 N   0  0  2  0  0  0  0  0  0  0  0  0
  1  3  1  6  0  0  0
  1  4  2  0  0  0  0
  1  6  1  0  0  0  0
  1 22  1  0  0  0  0
  2 28  1  0  0  0  0
  2 35  1  1  0  0  0
  2 38  2  0  0  0  0
  2 10  1  0  0  0  0
  5  6  1  0  0  0  0
  7  5  1  6  0  0  0
  7  8  1  0  0  0  0
  7  9  1  0  0  0  0
  9 10  1  1  0  0  0
  9 11  1  0  0  0  0
 11 12  1  1  0  0  0
 11 13  1  0  0  0  0
 13  8  1  1  0  0  0
 13 33  1  0  0  0  0
 14 46  1  0  0  0  0
 14 17  1  0  0  0  0
 14 25  1  1  0  0  0
 15 16  1  0  0  0  0
 15 29  1  0  0  0  0
 16 18  1  6  0  0  0
 16 21  1  0  0  0  0
 17 19  1  1  0  0  0
 17 20  1  0  0  0  0
 20 22  1  1  0  0  0
 20 24  1  0  0  0  0
 23 21  1  6  0  0  0
 23 26  1  0  0  0  0
 23 33  1  0  0  0  0
 24 25  1  6  0  0  0
 24 27  1  0  0  0  0
 26 29  1  6  0  0  0
 26 31  1  0  0  0  0
 27 28  1  0  0  0  0
 29 30  2  0  0  0  0
 31 32  1  0  0  0  0
 33 32  1  1  0  0  0
 34 36  1  0  0  0  0
 34 42  1  0  0  0  0
 36 37  1  6  0  0  0
 36 39  1  0  0  0  0
 40 39  1  6  0  0  0
 40 41  1  0  0  0  0
 40 46  1  0  0  0  0
 41 42  1  6  0  0  0
 41 44  1  0  0  0  0
 42 43  2  0  0  0  0
 44 45  1  0  0  0  0
 46 45  1  1  0  0  0
M  CHG  2   3  -1  35  -1
M  END
>  <CHROM.1>
-111.38899351,0.28325536,158.82391980,47.49188235,146.35425232,-2.54100566
-0.74549444,-1.71034485

>  <Name>
ligand

>  <RI>
0

>  <Rbt.Current_Directory>
/home/itssahil/PROJECTS/Mol_Feturizer/Test_systems_manuscript/rnas/4yb0

>  <Rbt.Executable>
rbdock ($Id: //depot/dev/client3/rdock/2013.1/src/exe/rbdock.cxx#4 $)

>  <Rbt.Library>
libRbt.so (2013.1, Build901 2013/11/27)

>  <Rbt.Parameter_File>
/export/apps/rDock/src/rDock_2013.1_src/data/scripts/dock_solv.prm

>  <Rbt.Receptor>
prm/pocket_docking_7.prm

>  <SCORE>
-16.5671

>  <SCORE.INTER>
-18.4199

>  <SCORE.INTER.CONST>
1

>  <SCORE.INTER.POLAR>
0

>  <SCORE.INTER.ROT>
2

>  <SCORE.INTER.SOLV>
15.614

>  <SCORE.INTER.VDW>
-22.4179

>  <SCORE.INTER.norm>
-0.400433

>  <SCORE.INTRA>
1.85278

>  <SCORE.INTRA.DIHEDRAL>
-0.0302346

>  <SCORE.INTRA.DIHEDRAL.0>
2.42188

>  <SCORE.INTRA.POLAR>
0

>  <SCORE.INTRA.POLAR.0>
0

>  <SCORE.INTRA.REPUL>
0

>  <SCORE.INTRA.REPUL.0>
0

>  <SCORE.INTRA.SOLV>
3.74693

>  <SCORE.INTRA.SOLV.lig_0>
-127.307

>  <SCORE.INTRA.VDW>
-0.00556495

>  <SCORE.INTRA.VDW.0>
-2.19936

>  <SCORE.INTRA.norm>
0.0402779

>  <SCORE.RESTR>
0

>  <SCORE.RESTR.CAVITY>
0

>  <SCORE.RESTR.norm>
0

>  <SCORE.SYSTEM>
0

>  <SCORE.SYSTEM.CONST>
0

>  <SCORE.SYSTEM.DIHEDRAL>
0

>  <SCORE.SYSTEM.SOLV>
0

>  <SCORE.SYSTEM.norm>
0

>  <SCORE.heavy>
46

>  <SCORE.norm>
-0.360155

>  <RMSD>
6.902

$$$$
ligand
 OpenBabel02271912143D
libRbt.so/2013.1/901 2013/11/27
 46 52  0  0  0  0  0  0  0  0999 V2000
  157.8511   46.6322  143.6441 P   0  0  1  0  0  0  0  0  0  0  0  0
  158.7809   48.7810  148.8353 P   0  0  1  0  0  0  0  0  0  0  0  0
  158.7465   45.4856  143.2506 O   0  5  0  0  0  0  0  0  0  0  0  0
  156.6933   46.9394  142.7196 O   0  0  0  0  0  0  0  0  0  0  0  0
  156.0066   46.6554  145.5405 C   0  0  0  0  0  0  0  0  0  0  0  0
  157.3466   46.3846  145.1504 O   0  0  0  0  0  0  0  0  0  0  0  0
  155.9081   46.7144  147.0560 C   0  0  1  0  0  0  0  0  0  0  0  0
  155.3279   45.4984  147.5063 O   0  0  0  0  0  0  0  0  0  0  0  0
  157.2311   46.8554  147.7979 C   0  0  1  0  0  0  0  0  0  0  0  0
  157.3854   48.1928  148.2497 O   0  0  0  0  0  0  0  0  0  0  0  0
  157.0521   45.9681  149.0093 C   0  0  1  0  0  0  0  0  0  0  0  0
  156.4952   46.7288  150.0831 O   0  0  0  0  0  0  0  0  0  0  0  0
  156.0213   44.9499  148.6167 C   0  0  2  0  0  0  0  0  0  0  0  0
  162.2958   48.0518  144.7727 C   0  0  1  0  0  0  0  0  0  0  0  0
  159.3845   41.1353  149.9146 N   0  0  0  0  0  0  0  0  0  0  0  0
  158.9776   42.2089  150.6180 C   0  0  1  0  0  0  0  0  0  0  0  0
  161.1513   47.3728  144.0498 C   0  0  2  0  0  0  0  0  0  0  0  0
  159.4672   42.4025  151.8631 N   0  0  0  0  0  0  0  0  0  0  0  0
  161.1962   47.7946  142.6838 O   0  0  0  0  0  0  0  0  0  0  0  0
  159.8912   47.8759  144.7289 C   0  0  2  0  0  0  0  0  0  0  0  0
  158.0977   43.1213  150.1466 N   0  0  0  0  0  0  0  0  0  0  0  0
  158.7917   47.9295  143.8209 O   0  0  0  0  0  0  0  0  0  0  0  0
  157.5667   42.9996  148.9112 C   0  0  2  0  0  0  0  0  0  0  0  0
  160.3131   49.2625  145.2100 C   0  0  2  0  0  0  0  0  0  0  0  0
  161.7365   49.2411  145.3366 O   0  0  0  0  0  0  0  0  0  0  0  0
  157.9667   41.8542  148.0879 C   0  0  2  0  0  0  0  0  0  0  0  0
  159.6929   49.7048  146.5391 C   0  0  0  0  0  0  0  0  0  0  0  0
  159.7567   48.7002  147.5505 O   0  0  0  0  0  0  0  0  0  0  0  0
  158.9346   40.8955  148.6710 C   0  0  0  0  0  0  0  0  0  0  0  0
  159.3097   39.8958  148.0123 O   0  0  0  0  0  0  0  0  0  0  0  0
  157.3036   41.9808  146.9247 N   0  0  0  0  0  0  0  0  0  0  0  0
  156.5457   43.1015  146.9935 C   0  0  0  0  0  0  0  0  0  0  0  0
  156.7042   43.7081  148.1828 N   0  0  1  0  0  0  0  0  0  0  0  0
  162.9575   43.1442  146.5377 N   0  0  0  0  0  0  0  0  0  0  0  0
  158.5144   50.2360  149.1728 O   0  5  0  0  0  0  0  0  0  0  0  0
  162.4555   43.5789  145.3716 C   0  0  2  0  0  0  0  0  0  0  0  0
  162.0492   42.6528  144.4904 N   0  0  0  0  0  0  0  0  0  0  0  0
  159.3222   47.8299  149.8749 O   0  0  0  0  0  0  0  0  0  0  0  0
  162.3447   44.8879  145.0452 N   0  0  0  0  0  0  0  0  0  0  0  0
  162.7479   45.8477  145.9040 C   0  0  1  0  0  0  0  0  0  0  0  0
  163.3090   45.4340  147.2058 C   0  0  1  0  0  0  0  0  0  0  0  0
  163.4034   43.9773  147.4793 C   0  0  0  0  0  0  0  0  0  0  0  0
  163.8576   43.5260  148.5527 O   0  0  0  0  0  0  0  0  0  0  0  0
  163.6310   46.5638  147.8555 N   0  0  0  0  0  0  0  0  0  0  0  0
  163.2980   47.6037  147.0414 C   0  0  0  0  0  0  0  0  0  0  0  0
  162.7734   47.1799  145.8745 N   0  0  2  0  0  0  0  0  0  0  0  0
  1  3  1  6  0  0  0
  1  4  2  0  0  0  0
  1  6  1  0  0  0  0
  1 22  1  0  0  0  0
  2 28  1  0  0  0  0
  2 35  1  1  0  0  0
  2 38  2  0  0  0  0
  2 10  1  0  0  0  0
  5  6  1  0  0  0  0
  7  5  1  6  0  0  0
  7  8  1  0  0  0  0
  7  9  1  0  0  0  0
  9 10  1  1  0  0  0
  9 11  1  0  0  0  0
 11 12  1  1  0  0  0
 11 13  1  0  0  0  0
 13  8  1  6  0  0  0
 13 33  1  0  0  0  0
 14 46  1  0  0  0  0
 14 17  1  0  0  0  0
 14 25  1  1  0  0  0
 15 16  1  0  0  0  0
 15 29  1  0  0  0  0
 16 18  1  6  0  0  0
 16 21  1  0  0  0  0
 17 19  1  6  0  0  0
 17 20  1  0  0  0  0
 20 22  1  6  0  0  0
 20 24  1  0  0  0  0
 23 21  1  6  0  0  0
 23 26  1  0  0  0  0
 23 33  1  0  0  0  0
 24 25  1  1  0  0  0
 24 27  1  0  0  0  0
 26 29  1  6  0  0  0
 26 31  1  0  0  0  0
 27 28  1  0  0  0  0
 29 30  2  0  0  0  0
 31 32  1  0  0  0  0
 33 32  1  1  0  0  0
 34 36  1  0  0  0  0
 34 42  1  0  0  0  0
 36 37  1  6  0  0  0
 36 39  1  0  0  0  0
 40 39  1  6  0  0  0
 40 41  1  0  0  0  0
 40 46  1  0  0  0  0
 41 42  1  6  0  0  0
 41 44  1  0  0  0  0
 42 43  2  0  0  0  0
 44 45  1  0  0  0  0
 46 45  1  1  0  0  0
M  CHG  2   3  -1  35  -1
M  END
>  <CHROM.1>
172.28525176,30.40948890,159.38614982,45.78669938,146.90955513,1.29538323
0.34095760,-0.52703792

>  <Name>
ligand

>  <RI>
0

>  <Rbt.Current_Directory>
/home/itssahil/PROJECTS/Mol_Feturizer/Test_systems_manuscript/rnas/4yb0

>  <Rbt.Executable>
rbdock ($Id: //depot/dev/client3/rdock/2013.1/src/exe/rbdock.cxx#4 $)

>  <Rbt.Library>
libRbt.so (2013.1, Build901 2013/11/27)

>  <Rbt.Parameter_File>
/export/apps/rDock/src/rDock_2013.1_src/data/scripts/dock_solv.prm

>  <Rbt.Receptor>
prm/pocket_docking_6.prm

>  <SCORE>
-12.6868

>  <SCORE.INTER>
-13.1395

>  <SCORE.INTER.CONST>
1

>  <SCORE.INTER.POLAR>
0

>  <SCORE.INTER.ROT>
2

>  <SCORE.INTER.SOLV>
15.9476

>  <SCORE.INTER.VDW>
-19.0089

>  <SCORE.INTER.norm>
-0.285642

>  <SCORE.INTRA>
0.452663

>  <SCORE.INTRA.DIHEDRAL>
-0.00126485

>  <SCORE.INTRA.DIHEDRAL.0>
2.42188

>  <SCORE.INTRA.POLAR>
0

>  <SCORE.INTRA.POLAR.0>
0

>  <SCORE.INTRA.REPUL>
0

>  <SCORE.INTRA.REPUL.0>
0

>  <SCORE.INTRA.SOLV>
0.0354898

>  <SCORE.INTRA.SOLV.lig_0>
-127.307

>  <SCORE.INTRA.VDW>
0.435551

>  <SCORE.INTRA.VDW.0>
-2.19936

>  <SCORE.INTRA.norm>
0.0098405

>  <SCORE.RESTR>
0

>  <SCORE.RESTR.CAVITY>
0

>  <SCORE.RESTR.norm>
0

>  <SCORE.SYSTEM>
0

>  <SCORE.SYSTEM.CONST>
0

>  <SCORE.SYSTEM.DIHEDRAL>
0

>  <SCORE.SYSTEM.SOLV>
0

>  <SCORE.SYSTEM.norm>
0

>  <SCORE.heavy>
46

>  <SCORE.norm>
-0.275801

>  <RMSD>
7.054

$$$$
ligand
 OpenBabel02271912143D
libRbt.so/2013.1/901 2013/11/27
 46 52  0  0  0  0  0  0  0  0999 V2000
  159.1502   41.9893  146.1292 P   0  0  1  0  0  0  0  0  0  0  0  0
  159.5294   46.2593  149.8780 P   0  0  1  0  0  0  0  0  0  0  0  0
  158.0531   40.9914  146.3968 O   0  5  0  0  0  0  0  0  0  0  0  0
  159.8769   41.8634  144.8080 O   0  0  0  0  0  0  0  0  0  0  0  0
  158.8812   44.5305  145.4439 C   0  0  0  0  0  0  0  0  0  0  0  0
  158.5475   43.4668  146.3262 O   0  0  0  0  0  0  0  0  0  0  0  0
  158.5075   45.8632  146.0716 C   0  0  1  0  0  0  0  0  0  0  0  0
  157.3092   46.3172  145.4586 O   0  0  0  0  0  0  0  0  0  0  0  0
  158.2344   45.8330  147.5700 C   0  0  1  0  0  0  0  0  0  0  0  0
  159.3445   46.3765  148.2693 O   0  0  0  0  0  0  0  0  0  0  0  0
  157.0666   46.7796  147.7345 C   0  0  1  0  0  0  0  0  0  0  0  0
  157.5513   48.1046  147.9611 O   0  0  0  0  0  0  0  0  0  0  0  0
  156.3664   46.7934  146.4067 C   0  0  2  0  0  0  0  0  0  0  0  0
  159.5257   40.9157  150.7929 C   0  0  1  0  0  0  0  0  0  0  0  0
  152.1592   44.9178  143.8911 N   0  0  0  0  0  0  0  0  0  0  0  0
  153.0392   45.8671  143.5205 C   0  0  1  0  0  0  0  0  0  0  0  0
  159.2592   40.7724  149.3090 C   0  0  2  0  0  0  0  0  0  0  0  0
  152.8813   46.4786  142.3254 N   0  0  0  0  0  0  0  0  0  0  0  0
  160.0514   39.6801  148.8344 O   0  0  0  0  0  0  0  0  0  0  0  0
  159.7165   42.0799  148.6898 C   0  0  2  0  0  0  0  0  0  0  0  0
  154.0860   46.2545  144.2842 N   0  0  0  0  0  0  0  0  0  0  0  0
  160.1904   41.8916  147.3570 O   0  0  0  0  0  0  0  0  0  0  0  0
  154.3091   45.6936  145.4919 C   0  0  2  0  0  0  0  0  0  0  0  0
  160.8263   42.5197  149.6422 C   0  0  2  0  0  0  0  0  0  0  0  0
  160.5652   41.8921  150.8994 O   0  0  0  0  0  0  0  0  0  0  0  0
  153.3885   44.6531  145.9605 C   0  0  2  0  0  0  0  0  0  0  0  0
  160.9443   44.0333  149.8464 C   0  0  0  0  0  0  0  0  0  0  0  0
  159.6894   44.6663  150.0929 O   0  0  0  0  0  0  0  0  0  0  0  0
  152.2645   44.2803  145.0697 C   0  0  0  0  0  0  0  0  0  0  0  0
  151.4478   43.3942  145.4187 O   0  0  0  0  0  0  0  0  0  0  0  0
  153.8338   44.2792  147.1733 N   0  0  0  0  0  0  0  0  0  0  0  0
  154.9391   45.0089  147.4578 C   0  0  0  0  0  0  0  0  0  0  0  0
  155.2216   45.8531  146.4503 N   0  0  1  0  0  0  0  0  0  0  0  0
  155.1886   39.7927  153.5434 N   0  0  0  0  0  0  0  0  0  0  0  0
  160.8444   46.9441  150.2004 O   0  5  0  0  0  0  0  0  0  0  0  0
  156.1472   38.9774  153.0773 C   0  0  2  0  0  0  0  0  0  0  0  0
  156.0199   37.6663  153.3307 N   0  0  0  0  0  0  0  0  0  0  0  0
  158.2485   46.6808  150.5562 O   0  0  0  0  0  0  0  0  0  0  0  0
  157.2225   39.4088  152.3775 N   0  0  0  0  0  0  0  0  0  0  0  0
  157.3869   40.7209  152.1081 C   0  0  1  0  0  0  0  0  0  0  0  0
  156.3652   41.6703  152.5931 C   0  0  1  0  0  0  0  0  0  0  0  0
  155.2224   41.1138  153.3611 C   0  0  0  0  0  0  0  0  0  0  0  0
  154.3035   41.8329  153.8090 O   0  0  0  0  0  0  0  0  0  0  0  0
  156.7658   42.8904  152.2015 N   0  0  0  0  0  0  0  0  0  0  0  0
  157.9354   42.7298  151.5221 C   0  0  0  0  0  0  0  0  0  0  0  0
  158.3106   41.4365  151.4670 N   0  0  2  0  0  0  0  0  0  0  0  0
  1  3  1  1  0  0  0
  1  4  2  0  0  0  0
  1  6  1  0  0  0  0
  1 22  1  0  0  0  0
  2 28  1  0  0  0  0
  2 35  1  1  0  0  0
  2 38  2  0  0  0  0
  2 10  1  0  0  0  0
  5  6  1  0  0  0  0
  7  5  1  6  0  0  0
  7  8  1  0  0  0  0
  7  9  1  0  0  0  0
  9 10  1  1  0  0  0
  9 11  1  0  0  0  0
 11 12  1  6  0  0  0
 11 13  1  0  0  0  0
 13  8  1  6  0  0  0
 13 33  1  0  0  0  0
 14 46  1  0  0  0  0
 14 17  1  0  0  0  0
 14 25  1  6  0  0  0
 15 16  1  0  0  0  0
 15 29  1  0  0  0  0
 16 18  1  1  0  0  0
 16 21  1  0  0  0  0
 17 19  1  6  0  0  0
 17 20  1  0  0  0  0
 20 22  1  6  0  0  0
 20 24  1  0  0  0  0
 23 21  1  1  0  0  0
 23 26  1  0  0  0  0
 23 33  1  0  0  0  0
 24 25  1  1  0  0  0
 24 27  1  0  0  0  0
 26 29  1  1  0  0  0
 26 31  1  0  0  0  0
 27 28  1  0  0  0  0
 29 30  2  0  0  0  0
 31 32  1  0  0  0  0
 33 32  1  6  0  0  0
 34 36  1  0  0  0  0
 34 42  1  0  0  0  0
 36 37  1  1  0  0  0
 36 39  1  0  0  0  0
 40 39  1  1  0  0  0
 40 41  1  0  0  0  0
 40 46  1  0  0  0  0
 41 42  1  1  0  0  0
 41 44  1  0  0  0  0
 42 43  2  0  0  0  0
 44 45  1  0  0  0  0
 46 45  1  6  0  0  0
M  CHG  2   3  -1  35  -1
M  END
>  <CHROM.1>
-70.85409753,97.51163044,157.30383329,43.57773310,148.45709356,-1.94768884
0.23710366,2.26934975

>  <Name>
ligand

>  <RI>
0

>  <Rbt.Current_Directory>
/home/itssahil/PROJECTS/Mol_Feturizer/Test_systems_manuscript/rnas/4yb0

>  <Rbt.Executable>
rbdock ($Id: //depot/dev/client3/rdock/2013.1/src/exe/rbdock.cxx#4 $)

>  <Rbt.Library>
libRbt.so (2013.1, Build901 2013/11/27)

>  <Rbt.Parameter_File>
/export/apps/rDock/src/rDock_2013.1_src/data/scripts/dock_solv.prm

>  <Rbt.Receptor>
prm/pocket_docking_8.prm

>  <SCORE>
-21.9828

>  <SCORE.INTER>
-22.4363

>  <SCORE.INTER.CONST>
1

>  <SCORE.INTER.POLAR>
0

>  <SCORE.INTER.ROT>
2

>  <SCORE.INTER.SOLV>
24.7703

>  <SCORE.INTER.VDW>
-28.1477

>  <SCORE.INTER.norm>
-0.487746

>  <SCORE.INTRA>
0.453546

>  <SCORE.INTRA.DIHEDRAL>
-0.0620297

>  <SCORE.INTRA.DIHEDRAL.0>
2.42188

>  <SCORE.INTRA.POLAR>
0

>  <SCORE.INTRA.POLAR.0>
0

>  <SCORE.INTRA.REPUL>
0

>  <SCORE.INTRA.REPUL.0>
0

>  <SCORE.INTRA.SOLV>
0.0109773

>  <SCORE.INTRA.SOLV.lig_0>
-127.307

>  <SCORE.INTRA.VDW>
0.479072

>  <SCORE.INTRA.VDW.0>
-2.19936

>  <SCORE.INTRA.norm>
0.00985969

>  <SCORE.RESTR>
0

>  <SCORE.RESTR.CAVITY>
0

>  <SCORE.RESTR.norm>
0

>  <SCORE.SYSTEM>
0

>  <SCORE.SYSTEM.CONST>
0

>  <SCORE.SYSTEM.DIHEDRAL>
0

>  <SCORE.SYSTEM.SOLV>
0

>  <SCORE.SYSTEM.norm>
0

>  <SCORE.heavy>
46

>  <SCORE.norm>
-0.477886

>  <RMSD>
7.186

$$$$
ligand
 OpenBabel02271912143D
libRbt.so/2013.1/901 2013/11/27
 46 52  0  0  0  0  0  0  0  0999 V2000
  157.8267   46.6865  143.6209 P   0  0  1  0  0  0  0  0  0  0  0  0
  158.6813   48.8413  148.8226 P   0  0  1  0  0  0  0  0  0  0  0  0
  158.7816   45.5955  143.2097 O   0  5  0  0  0  0  0  0  0  0  0  0
  156.6450   46.9355  142.7093 O   0  0  0  0  0  0  0  0  0  0  0  0
  156.0012   46.5899  145.5334 C   0  0  0  0  0  0  0  0  0  0  0  0
  157.3507   46.3984  145.1294 O   0  0  0  0  0  0  0  0  0  0  0  0
  155.9134   46.6307  147.0501 C   0  0  1  0  0  0  0  0  0  0  0  0
  155.4068   45.3803  147.4948 O   0  0  0  0  0  0  0  0  0  0  0  0
  157.2331   46.8401  147.7818 C   0  0  1  0  0  0  0  0  0  0  0  0
  157.3160   48.1802  148.2440 O   0  0  0  0  0  0  0  0  0  0  0  0
  157.1155   45.9341  148.9869 C   0  0  1  0  0  0  0  0  0  0  0  0
  156.5264   46.6533  150.0721 O   0  0  0  0  0  0  0  0  0  0  0  0
  156.1401   44.8626  148.5943 C   0  0  2  0  0  0  0  0  0  0  0  0
  162.1945   48.3452  144.7234 C   0  0  1  0  0  0  0  0  0  0  0  0
  160.2882   41.7485  149.3957 N   0  0  0  0  0  0  0  0  0  0  0  0
  159.8971   42.8576  150.0513 C   0  0  1  0  0  0  0  0  0  0  0  0
  161.0835   47.6088  144.0045 C   0  0  2  0  0  0  0  0  0  0  0  0
  160.6374   43.3009  151.0919 N   0  0  0  0  0  0  0  0  0  0  0  0
  161.0920   48.0437  142.6420 O   0  0  0  0  0  0  0  0  0  0  0  0
  159.8033   48.0343  144.6989 C   0  0  2  0  0  0  0  0  0  0  0  0
  158.7936   43.5681  149.7254 N   0  0  0  0  0  0  0  0  0  0  0  0
  158.6943   48.0334  143.8010 O   0  0  0  0  0  0  0  0  0  0  0  0
  158.0045   43.1916  148.6965 C   0  0  2  0  0  0  0  0  0  0  0  0
  160.1508   49.4385  145.1885 C   0  0  2  0  0  0  0  0  0  0  0  0
  161.5743   49.4963  145.3026 O   0  0  0  0  0  0  0  0  0  0  0  0
  158.3714   41.9927  147.9363 C   0  0  2  0  0  0  0  0  0  0  0  0
  159.5189   49.8341  146.5267 C   0  0  0  0  0  0  0  0  0  0  0  0
  159.6484   48.8264  147.5287 O   0  0  0  0  0  0  0  0  0  0  0  0
  159.5938   41.2651  148.3513 C   0  0  0  0  0  0  0  0  0  0  0  0
  159.9534   40.2313  147.7383 O   0  0  0  0  0  0  0  0  0  0  0  0
  157.4335   41.8540  146.9824 N   0  0  0  0  0  0  0  0  0  0  0  0
  156.5446   42.8673  147.1173 C   0  0  0  0  0  0  0  0  0  0  0  0
  156.8880   43.6650  148.1436 N   0  0  1  0  0  0  0  0  0  0  0  0
  163.1155   43.4675  146.4547 N   0  0  0  0  0  0  0  0  0  0  0  0
  158.3364   50.2761  149.1751 O   0  5  0  0  0  0  0  0  0  0  0  0
  162.5746   43.8826  145.2989 C   0  0  2  0  0  0  0  0  0  0  0  0
  162.1982   42.9417  144.4200 N   0  0  0  0  0  0  0  0  0  0  0  0
  159.2849   47.9138  149.8490 O   0  0  0  0  0  0  0  0  0  0  0  0
  162.3969   45.1862  144.9804 N   0  0  0  0  0  0  0  0  0  0  0  0
  162.7683   46.1605  145.8371 C   0  0  1  0  0  0  0  0  0  0  0  0
  163.3694   45.7688  147.1278 C   0  0  1  0  0  0  0  0  0  0  0  0
  163.5368   44.3171  147.3930 C   0  0  0  0  0  0  0  0  0  0  0  0
  164.0292   43.8836  148.4568 O   0  0  0  0  0  0  0  0  0  0  0  0
  163.6482   46.9100  147.7775 N   0  0  0  0  0  0  0  0  0  0  0  0
  163.2534   47.9362  146.9736 C   0  0  0  0  0  0  0  0  0  0  0  0
  162.7305   47.4926  145.8133 N   0  0  2  0  0  0  0  0  0  0  0  0
  1  3  1  6  0  0  0
  1  4  2  0  0  0  0
  1  6  1  0  0  0  0
  1 22  1  0  0  0  0
  2 28  1  0  0  0  0
  2 35  1  1  0  0  0
  2 38  2  0  0  0  0
  2 10  1  0  0  0  0
  5  6  1  0  0  0  0
  7  5  1  6  0  0  0
  7  8  1  0  0  0  0
  7  9  1  0  0  0  0
  9 10  1  1  0  0  0
  9 11  1  0  0  0  0
 11 12  1  1  0  0  0
 11 13  1  0  0  0  0
 13  8  1  6  0  0  0
 13 33  1  0  0  0  0
 14 46  1  0  0  0  0
 14 17  1  0  0  0  0
 14 25  1  1  0  0  0
 15 16  1  0  0  0  0
 15 29  1  0  0  0  0
 16 18  1  6  0  0  0
 16 21  1  0  0  0  0
 17 19  1  6  0  0  0
 17 20  1  0  0  0  0
 20 22  1  6  0  0  0
 20 24  1  0  0  0  0
 23 21  1  6  0  0  0
 23 26  1  0  0  0  0
 23 33  1  0  0  0  0
 24 25  1  1  0  0  0
 24 27  1  0  0  0  0
 26 29  1  6  0  0  0
 26 31  1  0  0  0  0
 27 28  1  0  0  0  0
 29 30  2  0  0  0  0
 31 32  1  0  0  0  0
 33 32  1  1  0  0  0
 34 36  1  0  0  0  0
 34 42  1  0  0  0  0
 36 37  1  6  0  0  0
 36 39  1  0  0  0  0
 40 39  1  6  0  0  0
 40 41  1  0  0  0  0
 40 46  1  0  0  0  0
 41 42  1  6  0  0  0
 41 44  1  0  0  0  0
 42 43  2  0  0  0  0
 44 45  1  0  0  0  0
 46 45  1  1  0  0  0
M  CHG  2   3  -1  35  -1
M  END
>  <CHROM.1>
154.94781991,29.69582464,159.49466222,45.95798513,146.82011011,1.45427474
0.28885022,-0.52561462

>  <Name>
ligand

>  <RI>
0

>  <Rbt.Current_Directory>
/home/itssahil/PROJECTS/Mol_Feturizer/Test_systems_manuscript/rnas/4yb0

>  <Rbt.Executable>
rbdock ($Id: //depot/dev/client3/rdock/2013.1/src/exe/rbdock.cxx#4 $)

>  <Rbt.Library>
libRbt.so (2013.1, Build901 2013/11/27)

>  <Rbt.Parameter_File>
/export/apps/rDock/src/rDock_2013.1_src/data/scripts/dock_solv.prm

>  <Rbt.Receptor>
prm/pocket_docking_6.prm

>  <SCORE>
-12.1224

>  <SCORE.INTER>
-12.5911

>  <SCORE.INTER.CONST>
1

>  <SCORE.INTER.POLAR>
0

>  <SCORE.INTER.ROT>
2

>  <SCORE.INTER.SOLV>
16.3612

>  <SCORE.INTER.VDW>
-18.7811

>  <SCORE.INTER.norm>
-0.273719

>  <SCORE.INTRA>
0.468715

>  <SCORE.INTRA.DIHEDRAL>
-0.0140686

>  <SCORE.INTRA.DIHEDRAL.0>
2.42188

>  <SCORE.INTRA.POLAR>
0

>  <SCORE.INTRA.POLAR.0>
0

>  <SCORE.INTRA.REPUL>
0

>  <SCORE.INTRA.REPUL.0>
0

>  <SCORE.INTRA.SOLV>
0.0631298

>  <SCORE.INTRA.SOLV.lig_0>
-127.307

>  <SCORE.INTRA.VDW>
0.444185

>  <SCORE.INTRA.VDW.0>
-2.19936

>  <SCORE.INTRA.norm>
0.0101895

>  <SCORE.RESTR>
0

>  <SCORE.RESTR.CAVITY>
0

>  <SCORE.RESTR.norm>
0

>  <SCORE.SYSTEM>
0

>  <SCORE.SYSTEM.CONST>
0

>  <SCORE.SYSTEM.DIHEDRAL>
0

>  <SCORE.SYSTEM.SOLV>
0

>  <SCORE.SYSTEM.norm>
0

>  <SCORE.heavy>
46

>  <SCORE.norm>
-0.26353

>  <RMSD>
7.199

$$$$
ligand
 OpenBabel02271912143D
libRbt.so/2013.1/901 2013/11/27
 46 52  0  0  0  0  0  0  0  0999 V2000
  157.0490   46.6873  143.5337 P   0  0  1  0  0  0  0  0  0  0  0  0
  158.1305   48.6507  148.7688 P   0  0  1  0  0  0  0  0  0  0  0  0
  158.1093   45.7900  142.9494 O   0  5  0  0  0  0  0  0  0  0  0  0
  155.7495   46.7943  142.7659 O   0  0  0  0  0  0  0  0  0  0  0  0
  155.4829   46.1885  145.6069 C   0  0  0  0  0  0  0  0  0  0  0  0
  156.7928   46.2405  145.0568 O   0  0  0  0  0  0  0  0  0  0  0  0
  155.5580   46.1277  147.1236 C   0  0  1  0  0  0  0  0  0  0  0  0
  155.3027   44.7886  147.5230 O   0  0  0  0  0  0  0  0  0  0  0  0
  156.9023   46.5050  147.7330 C   0  0  1  0  0  0  0  0  0  0  0  0
  156.8280   47.8123  148.2824 O   0  0  0  0  0  0  0  0  0  0  0  0
  157.0598   45.5245  148.8734 C   0  0  1  0  0  0  0  0  0  0  0  0
  156.4904   46.0760  150.0624 O   0  0  0  0  0  0  0  0  0  0  0  0
  156.2240   44.3340  148.5023 C   0  0  2  0  0  0  0  0  0  0  0  0
  161.2033   48.9629  144.3133 C   0  0  1  0  0  0  0  0  0  0  0  0
  161.0851   42.3947  148.1079 N   0  0  0  0  0  0  0  0  0  0  0  0
  160.6269   43.4506  148.8065 C   0  0  1  0  0  0  0  0  0  0  0  0
  160.1467   48.0993  143.6566 C   0  0  2  0  0  0  0  0  0  0  0  0
  161.4950   44.1742  149.5482 N   0  0  0  0  0  0  0  0  0  0  0  0
  159.9373   48.6071  142.3360 O   0  0  0  0  0  0  0  0  0  0  0  0
  158.9008   48.2724  144.5052 C   0  0  2  0  0  0  0  0  0  0  0  0
  159.3317   43.8394  148.8091 N   0  0  0  0  0  0  0  0  0  0  0  0
  157.7129   48.1440  143.7252 O   0  0  0  0  0  0  0  0  0  0  0  0
  158.4047   43.1701  148.0910 C   0  0  2  0  0  0  0  0  0  0  0  0
  159.0794   49.6839  145.0601 C   0  0  2  0  0  0  0  0  0  0  0  0
  160.4808   49.9639  145.0351 O   0  0  0  0  0  0  0  0  0  0  0  0
  158.8336   42.0097  147.3041 C   0  0  2  0  0  0  0  0  0  0  0  0
  158.5459   49.8952  146.4804 C   0  0  0  0  0  0  0  0  0  0  0  0
  158.9393   48.8659  147.3871 O   0  0  0  0  0  0  0  0  0  0  0  0
  160.2686   41.6427  147.3501 C   0  0  0  0  0  0  0  0  0  0  0  0
  160.6907   40.6571  146.6986 O   0  0  0  0  0  0  0  0  0  0  0  0
  157.7296   41.5438  146.6935 N   0  0  0  0  0  0  0  0  0  0  0  0
  156.6869   42.3294  147.0553 C   0  0  0  0  0  0  0  0  0  0  0  0
  157.0932   43.3004  147.8917 N   0  0  1  0  0  0  0  0  0  0  0  0
  162.7193   44.1541  145.8017 N   0  0  0  0  0  0  0  0  0  0  0  0
  157.6095   49.9886  149.2593 O   0  5  0  0  0  0  0  0  0  0  0  0
  161.9503   44.5329  144.7692 C   0  0  2  0  0  0  0  0  0  0  0  0
  161.4752   43.5688  143.9666 N   0  0  0  0  0  0  0  0  0  0  0  0
  158.9796   47.7755  149.6583 O   0  0  0  0  0  0  0  0  0  0  0  0
  161.6390   45.8225  144.5005 N   0  0  0  0  0  0  0  0  0  0  0  0
  162.1030   46.8197  145.2826 C   0  0  1  0  0  0  0  0  0  0  0  0
  162.9545   46.4682  146.4367 C   0  0  1  0  0  0  0  0  0  0  0  0
  163.2548   45.0300  146.6536 C   0  0  0  0  0  0  0  0  0  0  0  0
  163.9603   44.6296  147.6045 O   0  0  0  0  0  0  0  0  0  0  0  0
  163.2795   47.6257  147.0339 N   0  0  0  0  0  0  0  0  0  0  0  0
  162.6822   48.6242  146.3258 C   0  0  0  0  0  0  0  0  0  0  0  0
  161.9815   48.1469  145.2780 N   0  0  2  0  0  0  0  0  0  0  0  0
  1  3  1  6  0  0  0
  1  4  2  0  0  0  0
  1  6  1  0  0  0  0
  1 22  1  0  0  0  0
  2 28  1  0  0  0  0
  2 35  1  1  0  0  0
  2 38  2  0  0  0  0
  2 10  1  0  0  0  0
  5  6  1  0  0  0  0
  7  5  1  6  0  0  0
  7  8  1  0  0  0  0
  7  9  1  0  0  0  0
  9 10  1  1  0  0  0
  9 11  1  0  0  0  0
 11 12  1  1  0  0  0
 11 13  1  0  0  0  0
 13  8  1  6  0  0  0
 13 33  1  0  0  0  0
 14 46  1  0  0  0  0
 14 17  1  0  0  0  0
 14 25  1  1  0  0  0
 15 16  1  0  0  0  0
 15 29  1  0  0  0  0
 16 18  1  6  0  0  0
 16 21  1  0  0  0  0
 17 19  1  6  0  0  0
 17 20  1  0  0  0  0
 20 22  1  6  0  0  0
 20 24  1  0  0  0  0
 23 21  1  6  0  0  0
 23 26  1  0  0  0  0
 23 33  1  0  0  0  0
 24 25  1  1  0  0  0
 24 27  1  0  0  0  0
 26 29  1  6  0  0  0
 26 31  1  0  0  0  0
 27 28  1  0  0  0  0
 29 30  2  0  0  0  0
 31 32  1  0  0  0  0
 33 32  1  1  0  0  0
 34 36  1  0  0  0  0
 34 42  1  0  0  0  0
 36 37  1  6  0  0  0
 36 39  1  0  0  0  0
 40 39  1  6  0  0  0
 40 41  1  0  0  0  0
 40 46  1  0  0  0  0
 41 42  1  6  0  0  0
 41 44  1  0  0  0  0
 42 43  2  0  0  0  0
 44 45  1  0  0  0  0
 46 45  1  1  0  0  0
M  CHG  2   3  -1  35  -1
M  END
>  <CHROM.1>
139.66797126,21.61858257,159.14035502,46.10503568,146.45255389,1.71661819
0.25765995,-0.45801295

>  <Name>
ligand

>  <RI>
0

>  <Rbt.Current_Directory>
/home/itssahil/PROJECTS/Mol_Feturizer/Test_systems_manuscript/rnas/4yb0

>  <Rbt.Executable>
rbdock ($Id: //depot/dev/client3/rdock/2013.1/src/exe/rbdock.cxx#4 $)

>  <Rbt.Library>
libRbt.so (2013.1, Build901 2013/11/27)

>  <Rbt.Parameter_File>
/export/apps/rDock/src/rDock_2013.1_src/data/scripts/dock_solv.prm

>  <Rbt.Receptor>
prm/pocket_docking_5.prm

>  <SCORE>
-9.16051

>  <SCORE.INTER>
-10.3899

>  <SCORE.INTER.CONST>
1

>  <SCORE.INTER.POLAR>
0

>  <SCORE.INTER.ROT>
2

>  <SCORE.INTER.SOLV>
15.9371

>  <SCORE.INTER.VDW>
-17.1723

>  <SCORE.INTER.norm>
-0.225868

>  <SCORE.INTRA>
1.11272

>  <SCORE.INTRA.DIHEDRAL>
-0.013747

>  <SCORE.INTRA.DIHEDRAL.0>
2.42188

>  <SCORE.INTRA.POLAR>
0

>  <SCORE.INTRA.POLAR.0>
0

>  <SCORE.INTRA.REPUL>
0

>  <SCORE.INTRA.REPUL.0>
0

>  <SCORE.INTRA.SOLV>
2.95994

>  <SCORE.INTRA.SOLV.lig_0>
-127.307

>  <SCORE.INTRA.VDW>
-0.360378

>  <SCORE.INTRA.VDW.0>
-2.19936

>  <SCORE.INTRA.norm>
0.0241895

>  <SCORE.RESTR>
0.116715

>  <SCORE.RESTR.CAVITY>
0.116715

>  <SCORE.RESTR.norm>
0.00253727

>  <SCORE.SYSTEM>
0

>  <SCORE.SYSTEM.CONST>
0

>  <SCORE.SYSTEM.DIHEDRAL>
0

>  <SCORE.SYSTEM.SOLV>
0

>  <SCORE.SYSTEM.norm>
0

>  <SCORE.heavy>
46

>  <SCORE.norm>
-0.199142

>  <RMSD>
7.204

$$$$
ligand
 OpenBabel02271912143D
libRbt.so/2013.1/901 2013/11/27
 46 52  0  0  0  0  0  0  0  0999 V2000
  162.0678   45.3389  144.5056 P   0  0  1  0  0  0  0  0  0  0  0  0
  160.5181   50.8186  144.4576 P   0  0  1  0  0  0  0  0  0  0  0  0
  161.5479   44.5316  145.6672 O   0  5  0  0  0  0  0  0  0  0  0  0
  162.7537   44.5714  143.3965 O   0  0  0  0  0  0  0  0  0  0  0  0
  160.6638   46.4174  142.5397 C   0  0  0  0  0  0  0  0  0  0  0  0
  160.8624   46.2374  143.9358 O   0  0  0  0  0  0  0  0  0  0  0  0
  159.7342   47.5944  142.2942 C   0  0  1  0  0  0  0  0  0  0  0  0
  158.4519   47.0803  141.9635 O   0  0  0  0  0  0  0  0  0  0  0  0
  159.5258   48.5286  143.4794 C   0  0  1  0  0  0  0  0  0  0  0  0
  160.2774   49.7181  143.2883 O   0  0  0  0  0  0  0  0  0  0  0  0
  158.0578   48.8820  143.3956 C   0  0  1  0  0  0  0  0  0  0  0  0
  157.8906   50.0487  142.5877 O   0  0  0  0  0  0  0  0  0  0  0  0
  157.4092   47.7460  142.6593 C   0  0  2  0  0  0  0  0  0  0  0  0
  162.9560   48.0043  148.3981 C   0  0  1  0  0  0  0  0  0  0  0  0
  153.1000   45.1651  144.1814 N   0  0  0  0  0  0  0  0  0  0  0  0
  153.2806   46.0254  143.1614 C   0  0  1  0  0  0  0  0  0  0  0  0
  162.7628   46.7965  147.5051 C   0  0  2  0  0  0  0  0  0  0  0  0
  152.2344   46.3202  142.3578 N   0  0  0  0  0  0  0  0  0  0  0  0
  163.9580   46.0141  147.5771 O   0  0  0  0  0  0  0  0  0  0  0  0
  162.5672   47.3558  146.1083 C   0  0  2  0  0  0  0  0  0  0  0  0
  154.4621   46.6244  142.8896 N   0  0  0  0  0  0  0  0  0  0  0  0
  163.0560   46.4596  145.1113 O   0  0  0  0  0  0  0  0  0  0  0  0
  155.5529   46.3841  143.6483 C   0  0  2  0  0  0  0  0  0  0  0  0
  163.3692   48.6542  146.1631 C   0  0  2  0  0  0  0  0  0  0  0  0
  163.4396   49.0392  147.5377 O   0  0  0  0  0  0  0  0  0  0  0  0
  155.4285   45.4579  144.7781 C   0  0  2  0  0  0  0  0  0  0  0  0
  162.7894   49.8104  145.3422 C   0  0  0  0  0  0  0  0  0  0  0  0
  161.3875   49.9907  145.5384 O   0  0  0  0  0  0  0  0  0  0  0  0
  154.1029   44.8392  145.0148 C   0  0  0  0  0  0  0  0  0  0  0  0
  153.9399   44.0371  145.9655 O   0  0  0  0  0  0  0  0  0  0  0  0
  156.6423   45.4077  145.3552 N   0  0  0  0  0  0  0  0  0  0  0  0
  157.4712   46.2234  144.6603 C   0  0  0  0  0  0  0  0  0  0  0  0
  156.8175   46.8051  143.6397 N   0  0  1  0  0  0  0  0  0  0  0  0
  159.1512   47.0443  151.8966 N   0  0  0  0  0  0  0  0  0  0  0  0
  161.3827   51.9028  143.8421 O   0  5  0  0  0  0  0  0  0  0  0  0
  160.3022   46.3906  151.6758 C   0  0  2  0  0  0  0  0  0  0  0  0
  160.5631   45.3227  152.4444 N   0  0  0  0  0  0  0  0  0  0  0  0
  159.1953   51.1539  145.1025 O   0  0  0  0  0  0  0  0  0  0  0  0
  161.2010   46.7542  150.7312 N   0  0  0  0  0  0  0  0  0  0  0  0
  160.9751   47.8260  149.9429 C   0  0  1  0  0  0  0  0  0  0  0  0
  159.7249   48.5878  150.1354 C   0  0  1  0  0  0  0  0  0  0  0  0
  158.7984   48.1262  151.2004 C   0  0  0  0  0  0  0  0  0  0  0  0
  157.7132   48.6990  151.4378 O   0  0  0  0  0  0  0  0  0  0  0  0
  159.7509   49.5901  149.2426 N   0  0  0  0  0  0  0  0  0  0  0  0
  160.9121   49.4720  148.5405 C   0  0  0  0  0  0  0  0  0  0  0  0
  161.6466   48.4218  148.9578 N   0  0  2  0  0  0  0  0  0  0  0  0
  1  3  1  1  0  0  0
  1  4  2  0  0  0  0
  1  6  1  0  0  0  0
  1 22  1  0  0  0  0
  2 28  1  0  0  0  0
  2 35  1  6  0  0  0
  2 38  2  0  0  0  0
  2 10  1  0  0  0  0
  5  6  1  0  0  0  0
  7  5  1  1  0  0  0
  7  8  1  0  0  0  0
  7  9  1  0  0  0  0
  9 10  1  6  0  0  0
  9 11  1  0  0  0  0
 11 12  1  6  0  0  0
 11 13  1  0  0  0  0
 13  8  1  1  0  0  0
 13 33  1  0  0  0  0
 14 46  1  0  0  0  0
 14 17  1  0  0  0  0
 14 25  1  6  0  0  0
 15 16  1  0  0  0  0
 15 29  1  0  0  0  0
 16 18  1  1  0  0  0
 16 21  1  0  0  0  0
 17 19  1  6  0  0  0
 17 20  1  0  0  0  0
 20 22  1  6  0  0  0
 20 24  1  0  0  0  0
 23 21  1  1  0  0  0
 23 26  1  0  0  0  0
 23 33  1  0  0  0  0
 24 25  1  1  0  0  0
 24 27  1  0  0  0  0
 26 29  1  1  0  0  0
 26 31  1  0  0  0  0
 27 28  1  0  0  0  0
 29 30  2  0  0  0  0
 31 32  1  0  0  0  0
 33 32  1  6  0  0  0
 34 36  1  0  0  0  0
 34 42  1  0  0  0  0
 36 37  1  1  0  0  0
 36 39  1  0  0  0  0
 40 39  1  1  0  0  0
 40 41  1  0  0  0  0
 40 46  1  0  0  0  0
 41 42  1  1  0  0  0
 41 44  1  0  0  0  0
 42 43  2  0  0  0  0
 44 45  1  0  0  0  0
 46 45  1  6  0  0  0
M  CHG  2   3  -1  35  -1
M  END
>  <CHROM.1>
-118.35253588,75.85363641,159.53038252,47.49623697,145.82950753,-0.64090801
-0.33164020,-1.42052055

>  <Name>
ligand

>  <RI>
0

>  <Rbt.Current_Directory>
/home/itssahil/PROJECTS/Mol_Feturizer/Test_systems_manuscript/rnas/4yb0

>  <Rbt.Executable>
rbdock ($Id: //depot/dev/client3/rdock/2013.1/src/exe/rbdock.cxx#4 $)

>  <Rbt.Library>
libRbt.so (2013.1, Build901 2013/11/27)

>  <Rbt.Parameter_File>
/export/apps/rDock/src/rDock_2013.1_src/data/scripts/dock_solv.prm

>  <Rbt.Receptor>
prm/pocket_docking_8.prm

>  <SCORE>
-15.875

>  <SCORE.INTER>
-15.6275

>  <SCORE.INTER.CONST>
1

>  <SCORE.INTER.POLAR>
0

>  <SCORE.INTER.ROT>
2

>  <SCORE.INTER.SOLV>
18.9273

>  <SCORE.INTER.VDW>
-21.6607

>  <SCORE.INTER.norm>
-0.339728

>  <SCORE.INTRA>
-0.247518

>  <SCORE.INTRA.DIHEDRAL>
-0.0461

>  <SCORE.INTRA.DIHEDRAL.0>
2.42188

>  <SCORE.INTRA.POLAR>
0

>  <SCORE.INTRA.POLAR.0>
0

>  <SCORE.INTRA.REPUL>
0

>  <SCORE.INTRA.REPUL.0>
0

>  <SCORE.INTRA.SOLV>
-0.0226357

>  <SCORE.INTRA.SOLV.lig_0>
-127.307

>  <SCORE.INTRA.VDW>
-0.213151

>  <SCORE.INTRA.VDW.0>
-2.19936

>  <SCORE.INTRA.norm>
-0.00538083

>  <SCORE.RESTR>
0

>  <SCORE.RESTR.CAVITY>
0

>  <SCORE.RESTR.norm>
0

>  <SCORE.SYSTEM>
0

>  <SCORE.SYSTEM.CONST>
0

>  <SCORE.SYSTEM.DIHEDRAL>
0

>  <SCORE.SYSTEM.SOLV>
0

>  <SCORE.SYSTEM.norm>
0

>  <SCORE.heavy>
46

>  <SCORE.norm>
-0.345109

>  <RMSD>
7.455

$$$$
ligand
 OpenBabel02271912143D
libRbt.so/2013.1/901 2013/11/27
 46 52  0  0  0  0  0  0  0  0999 V2000
  159.0739   44.5091  150.5506 P   0  0  1  0  0  0  0  0  0  0  0  0
  156.2004   45.4787  145.7305 P   0  0  1  0  0  0  0  0  0  0  0  0
  160.5375   44.1944  150.3770 O   0  5  0  0  0  0  0  0  0  0  0  0
  158.5896   44.7336  151.9664 O   0  0  0  0  0  0  0  0  0  0  0  0
  157.8497   46.7991  150.0440 C   0  0  0  0  0  0  0  0  0  0  0  0
  158.7102   45.7565  149.6037 O   0  0  0  0  0  0  0  0  0  0  0  0
  157.3701   47.6145  148.8546 C   0  0  1  0  0  0  0  0  0  0  0  0
  158.1051   48.8299  148.8298 O   0  0  0  0  0  0  0  0  0  0  0  0
  157.5688   46.9688  147.4891 C   0  0  1  0  0  0  0  0  0  0  0  0
  156.3292   46.4646  147.0140 O   0  0  0  0  0  0  0  0  0  0  0  0
  157.9734   48.1283  146.6066 C   0  0  1  0  0  0  0  0  0  0  0  0
  156.8080   48.7240  146.0329 O   0  0  0  0  0  0  0  0  0  0  0  0
  158.5747   49.1486  147.5289 C   0  0  2  0  0  0  0  0  0  0  0  0
  159.2545   41.2053  147.0726 C   0  0  1  0  0  0  0  0  0  0  0  0
  162.9704   49.6381  144.7031 N   0  0  0  0  0  0  0  0  0  0  0  0
  161.6877   49.8545  144.3556 C   0  0  1  0  0  0  0  0  0  0  0  0
  159.5964   41.9818  148.3270 C   0  0  2  0  0  0  0  0  0  0  0  0
  161.4080   50.2651  143.0985 N   0  0  0  0  0  0  0  0  0  0  0  0
  159.5913   41.0575  149.4185 O   0  0  0  0  0  0  0  0  0  0  0  0
  158.4872   43.0055  148.4816 C   0  0  2  0  0  0  0  0  0  0  0  0
  160.6455   49.6805  145.1997 N   0  0  0  0  0  0  0  0  0  0  0  0
  158.2458   43.3142  149.8536 O   0  0  0  0  0  0  0  0  0  0  0  0
  160.8428   49.2690  146.4704 C   0  0  2  0  0  0  0  0  0  0  0  0
  157.3005   42.2996  147.8293 C   0  0  2  0  0  0  0  0  0  0  0  0
  157.8400   41.3436  146.9141 O   0  0  0  0  0  0  0  0  0  0  0  0
  162.2155   49.0123  146.9171 C   0  0  2  0  0  0  0  0  0  0  0  0
  156.3269   43.2193  147.0858 C   0  0  0  0  0  0  0  0  0  0  0  0
  156.9809   44.1558  146.2305 O   0  0  0  0  0  0  0  0  0  0  0  0
  163.3065   49.2248  145.9370 C   0  0  0  0  0  0  0  0  0  0  0  0
  164.5003   49.0231  146.2658 O   0  0  0  0  0  0  0  0  0  0  0  0
  162.1230   48.6160  148.1990 N   0  0  0  0  0  0  0  0  0  0  0  0
  160.8135   48.6196  148.5459 C   0  0  0  0  0  0  0  0  0  0  0  0
  160.0504   49.0114  147.5108 N   0  0  1  0  0  0  0  0  0  0  0  0
  163.1224   44.3306  145.3668 N   0  0  0  0  0  0  0  0  0  0  0  0
  154.7226   45.1661  145.5878 O   0  5  0  0  0  0  0  0  0  0  0  0
  162.8057   43.9568  146.6161 C   0  0  2  0  0  0  0  0  0  0  0  0
  163.5680   44.4287  147.6139 N   0  0  0  0  0  0  0  0  0  0  0  0
  156.9854   46.0589  144.5792 O   0  0  0  0  0  0  0  0  0  0  0  0
  161.7716   43.1354  146.9130 N   0  0  0  0  0  0  0  0  0  0  0  0
  160.9862   42.6370  145.9352 C   0  0  1  0  0  0  0  0  0  0  0  0
  161.2820   43.0118  144.5379 C   0  0  1  0  0  0  0  0  0  0  0  0
  162.4406   43.9099  144.3000 C   0  0  0  0  0  0  0  0  0  0  0  0
  162.7693   44.2895  143.1555 O   0  0  0  0  0  0  0  0  0  0  0  0
  160.3699   42.3863  143.7769 N   0  0  0  0  0  0  0  0  0  0  0  0
  159.5619   41.6814  144.6168 C   0  0  0  0  0  0  0  0  0  0  0  0
  159.9287   41.8264  145.9056 N   0  0  2  0  0  0  0  0  0  0  0  0
  1  3  1  6  0  0  0
  1  4  2  0  0  0  0
  1  6  1  0  0  0  0
  1 22  1  0  0  0  0
  2 28  1  0  0  0  0
  2 35  1  6  0  0  0
  2 38  2  0  0  0  0
  2 10  1  0  0  0  0
  5  6  1  0  0  0  0
  7  5  1  1  0  0  0
  7  8  1  0  0  0  0
  7  9  1  0  0  0  0
  9 10  1  6  0  0  0
  9 11  1  0  0  0  0
 11 12  1  1  0  0  0
 11 13  1  0  0  0  0
 13  8  1  1  0  0  0
 13 33  1  0  0  0  0
 14 46  1  0  0  0  0
 14 17  1  0  0  0  0
 14 25  1  6  0  0  0
 15 16  1  0  0  0  0
 15 29  1  0  0  0  0
 16 18  1  6  0  0  0
 16 21  1  0  0  0  0
 17 19  1  1  0  0  0
 17 20  1  0  0  0  0
 20 22  1  1  0  0  0
 20 24  1  0  0  0  0
 23 21  1  6  0  0  0
 23 26  1  0  0  0  0
 23 33  1  0  0  0  0
 24 25  1  6  0  0  0
 24 27  1  0  0  0  0
 26 29  1  6  0  0  0
 26 31  1  0  0  0  0
 27 28  1  0  0  0  0
 29 30  2  0  0  0  0
 31 32  1  0  0  0  0
 33 32  1  1  0  0  0
 34 36  1  0  0  0  0
 34 42  1  0  0  0  0
 36 37  1  6  0  0  0
 36 39  1  0  0  0  0
 40 39  1  6  0  0  0
 40 41  1  0  0  0  0
 40 46  1  0  0  0  0
 41 42  1  6  0  0  0
 41 44  1  0  0  0  0
 42 43  2  0  0  0  0
 44 45  1  0  0  0  0
 46 45  1  1  0  0  0
M  CHG  2   3  -1  35  -1
M  END
>  <CHROM.1>
-177.82223702,20.22399181,159.55444065,45.55290063,147.02211226,2.10841935
-0.53495485,3.11307014

>  <Name>
ligand

>  <RI>
0

>  <Rbt.Current_Directory>
/home/itssahil/PROJECTS/Mol_Feturizer/Test_systems_manuscript/rnas/4yb0

>  <Rbt.Executable>
rbdock ($Id: //depot/dev/client3/rdock/2013.1/src/exe/rbdock.cxx#4 $)

>  <Rbt.Library>
libRbt.so (2013.1, Build901 2013/11/27)

>  <Rbt.Parameter_File>
/export/apps/rDock/src/rDock_2013.1_src/data/scripts/dock_solv.prm

>  <Rbt.Receptor>
prm/pocket_docking_6.prm

>  <SCORE>
-12.7611

>  <SCORE.INTER>
-13.4633

>  <SCORE.INTER.CONST>
1

>  <SCORE.INTER.POLAR>
0

>  <SCORE.INTER.ROT>
2

>  <SCORE.INTER.SOLV>
15.348

>  <SCORE.INTER.VDW>
-19.0249

>  <SCORE.INTER.norm>
-0.292681

>  <SCORE.INTRA>
0.688836

>  <SCORE.INTRA.DIHEDRAL>
0.00685624

>  <SCORE.INTRA.DIHEDRAL.0>
2.42188

>  <SCORE.INTRA.POLAR>
0

>  <SCORE.INTRA.POLAR.0>
0

>  <SCORE.INTRA.REPUL>
0

>  <SCORE.INTRA.REPUL.0>
0

>  <SCORE.INTRA.SOLV>
0.680021

>  <SCORE.INTRA.SOLV.lig_0>
-127.307

>  <SCORE.INTRA.VDW>
0.345397

>  <SCORE.INTRA.VDW.0>
-2.19936

>  <SCORE.INTRA.norm>
0.0149747

>  <SCORE.RESTR>
0.0134018

>  <SCORE.RESTR.CAVITY>
0.0134018

>  <SCORE.RESTR.norm>
0.000291343

>  <SCORE.SYSTEM>
0

>  <SCORE.SYSTEM.CONST>
0

>  <SCORE.SYSTEM.DIHEDRAL>
0

>  <SCORE.SYSTEM.SOLV>
0

>  <SCORE.SYSTEM.norm>
0

>  <SCORE.heavy>
46

>  <SCORE.norm>
-0.277415

>  <RMSD>
7.463

$$$$
ligand
 OpenBabel02271912143D
libRbt.so/2013.1/901 2013/11/27
 46 52  0  0  0  0  0  0  0  0999 V2000
  158.4427   48.2404  150.2036 P   0  0  1  0  0  0  0  0  0  0  0  0
  155.6466   45.6155  145.9938 P   0  0  1  0  0  0  0  0  0  0  0  0
  159.9272   47.9848  150.2496 O   0  5  0  0  0  0  0  0  0  0  0  0
  157.9070   49.3079  151.1326 O   0  0  0  0  0  0  0  0  0  0  0  0
  157.0926   49.5482  148.3418 C   0  0  0  0  0  0  0  0  0  0  0  0
  158.0279   48.5316  148.6777 O   0  0  0  0  0  0  0  0  0  0  0  0
  156.5956   49.3481  146.9196 C   0  0  1  0  0  0  0  0  0  0  0  0
  157.2539   50.2923  146.0871 O   0  0  0  0  0  0  0  0  0  0  0  0
  156.8711   47.9788  146.3112 C   0  0  1  0  0  0  0  0  0  0  0  0
  155.6787   47.2076  146.3102 O   0  0  0  0  0  0  0  0  0  0  0  0
  157.2266   48.2960  144.8760 C   0  0  1  0  0  0  0  0  0  0  0  0
  156.0424   48.2911  144.0761 O   0  0  0  0  0  0  0  0  0  0  0  0
  157.7379   49.7073  144.8878 C   0  0  2  0  0  0  0  0  0  0  0  0
  158.9233   43.4855  149.7511 C   0  0  1  0  0  0  0  0  0  0  0  0
  162.0234   47.1108  146.4498 N   0  0  0  0  0  0  0  0  0  0  0  0
  160.7208   46.8100  146.6100 C   0  0  1  0  0  0  0  0  0  0  0  0
  159.1819   44.9151  150.1788 C   0  0  2  0  0  0  0  0  0  0  0  0
  160.3842   45.6764  147.2651 N   0  0  0  0  0  0  0  0  0  0  0  0
  159.2047   44.9377  151.6087 O   0  0  0  0  0  0  0  0  0  0  0  0
  158.0073   45.7137  149.6451 C   0  0  2  0  0  0  0  0  0  0  0  0
  159.7128   47.5862  146.1513 N   0  0  0  0  0  0  0  0  0  0  0  0
  157.7099   46.8314  150.4808 O   0  0  0  0  0  0  0  0  0  0  0  0
  159.9676   48.7356  145.4903 C   0  0  2  0  0  0  0  0  0  0  0  0
  156.8851   44.6781  149.6420 C   0  0  2  0  0  0  0  0  0  0  0  0
  157.5077   43.3936  149.5698 O   0  0  0  0  0  0  0  0  0  0  0  0
  161.3651   49.1267  145.2808 C   0  0  2  0  0  0  0  0  0  0  0  0
  155.8766   44.8172  148.4973 C   0  0  0  0  0  0  0  0  0  0  0  0
  156.4941   45.0010  147.2240 O   0  0  0  0  0  0  0  0  0  0  0  0
  162.4159   48.2265  145.8113 C   0  0  0  0  0  0  0  0  0  0  0  0
  163.6284   48.5103  145.6583 O   0  0  0  0  0  0  0  0  0  0  0  0
  161.3302   50.2936  144.6131 N   0  0  0  0  0  0  0  0  0  0  0  0
  160.0317   50.6218  144.4095 C   0  0  0  0  0  0  0  0  0  0  0  0
  159.2192   49.6880  144.9341 N   0  0  1  0  0  0  0  0  0  0  0  0
  163.4401   42.6024  147.2103 N   0  0  0  0  0  0  0  0  0  0  0  0
  154.1956   45.1912  146.1220 O   0  5  0  0  0  0  0  0  0  0  0  0
  163.2118   42.7916  148.5191 C   0  0  2  0  0  0  0  0  0  0  0  0
  164.2703   42.7565  149.3422 N   0  0  0  0  0  0  0  0  0  0  0  0
  156.4249   45.3457  144.7290 O   0  0  0  0  0  0  0  0  0  0  0  0
  161.9820   43.0091  149.0412 N   0  0  0  0  0  0  0  0  0  0  0  0
  160.8931   43.0459  148.2448 C   0  0  1  0  0  0  0  0  0  0  0  0
  161.0778   42.8457  146.7935 C   0  0  1  0  0  0  0  0  0  0  0  0
  162.4596   42.6037  146.3058 C   0  0  0  0  0  0  0  0  0  0  0  0
  162.7213   42.4287  145.0962 O   0  0  0  0  0  0  0  0  0  0  0  0
  159.8563   42.9231  146.2420 N   0  0  0  0  0  0  0  0  0  0  0  0
  158.9739   43.1581  147.2527 C   0  0  0  0  0  0  0  0  0  0  0  0
  159.5889   43.2290  148.4499 N   0  0  2  0  0  0  0  0  0  0  0  0
  1  3  1  1  0  0  0
  1  4  2  0  0  0  0
  1  6  1  0  0  0  0
  1 22  1  0  0  0  0
  2 28  1  0  0  0  0
  2 35  1  6  0  0  0
  2 38  2  0  0  0  0
  2 10  1  0  0  0  0
  5  6  1  0  0  0  0
  7  5  1  1  0  0  0
  7  8  1  0  0  0  0
  7  9  1  0  0  0  0
  9 10  1  6  0  0  0
  9 11  1  0  0  0  0
 11 12  1  6  0  0  0
 11 13  1  0  0  0  0
 13  8  1  1  0  0  0
 13 33  1  0  0  0  0
 14 46  1  0  0  0  0
 14 17  1  0  0  0  0
 14 25  1  6  0  0  0
 15 16  1  0  0  0  0
 15 29  1  0  0  0  0
 16 18  1  1  0  0  0
 16 21  1  0  0  0  0
 17 19  1  1  0  0  0
 17 20  1  0  0  0  0
 20 22  1  1  0  0  0
 20 24  1  0  0  0  0
 23 21  1  1  0  0  0
 23 26  1  0  0  0  0
 23 33  1  0  0  0  0
 24 25  1  6  0  0  0
 24 27  1  0  0  0  0
 26 29  1  1  0  0  0
 26 31  1  0  0  0  0
 27 28  1  0  0  0  0
 29 30  2  0  0  0  0
 31 32  1  0  0  0  0
 33 32  1  6  0  0  0
 34 36  1  0  0  0  0
 34 42  1  0  0  0  0
 36 37  1  1  0  0  0
 36 39  1  0  0  0  0
 40 39  1  1  0  0  0
 40 41  1  0  0  0  0
 40 46  1  0  0  0  0
 41 42  1  1  0  0  0
 41 44  1  0  0  0  0
 42 43  2  0  0  0  0
 44 45  1  0  0  0  0
 46 45  1  6  0  0  0
M  CHG  2   3  -1  35  -1
M  END
>  <CHROM.1>
86.03556247,75.15026857,159.02557750,46.32761674,147.39132094,2.25755844
0.29441009,-0.55715567

>  <Name>
ligand

>  <RI>
0

>  <Rbt.Current_Directory>
/home/itssahil/PROJECTS/Mol_Feturizer/Test_systems_manuscript/rnas/4yb0

>  <Rbt.Executable>
rbdock ($Id: //depot/dev/client3/rdock/2013.1/src/exe/rbdock.cxx#4 $)

>  <Rbt.Library>
libRbt.so (2013.1, Build901 2013/11/27)

>  <Rbt.Parameter_File>
/export/apps/rDock/src/rDock_2013.1_src/data/scripts/dock_solv.prm

>  <Rbt.Receptor>
prm/pocket_docking_8.prm

>  <SCORE>
-10.9668

>  <SCORE.INTER>
-13.8497

>  <SCORE.INTER.CONST>
1

>  <SCORE.INTER.POLAR>
0

>  <SCORE.INTER.ROT>
2

>  <SCORE.INTER.SOLV>
15.7992

>  <SCORE.INTER.VDW>
-19.4328

>  <SCORE.INTER.norm>
-0.30108

>  <SCORE.INTRA>
2.8829

>  <SCORE.INTRA.DIHEDRAL>
-0.0215205

>  <SCORE.INTRA.DIHEDRAL.0>
2.42188

>  <SCORE.INTRA.POLAR>
0

>  <SCORE.INTRA.POLAR.0>
0

>  <SCORE.INTRA.REPUL>
0

>  <SCORE.INTRA.REPUL.0>
0

>  <SCORE.INTRA.SOLV>
10.1729

>  <SCORE.INTRA.SOLV.lig_0>
-127.307

>  <SCORE.INTRA.VDW>
-2.19278

>  <SCORE.INTRA.VDW.0>
-2.19936

>  <SCORE.INTRA.norm>
0.0626717

>  <SCORE.RESTR>
0

>  <SCORE.RESTR.CAVITY>
0

>  <SCORE.RESTR.norm>
0

>  <SCORE.SYSTEM>
0

>  <SCORE.SYSTEM.CONST>
0

>  <SCORE.SYSTEM.DIHEDRAL>
0

>  <SCORE.SYSTEM.SOLV>
0

>  <SCORE.SYSTEM.norm>
0

>  <SCORE.heavy>
46

>  <SCORE.norm>
-0.238408

>  <RMSD>
7.673

$$$$
ligand
 OpenBabel02271912143D
libRbt.so/2013.1/901 2013/11/27
 46 52  0  0  0  0  0  0  0  0999 V2000
  163.6101   46.0827  147.8783 P   0  0  1  0  0  0  0  0  0  0  0  0
  161.1345   42.0909  144.6583 P   0  0  1  0  0  0  0  0  0  0  0  0
  162.6820   47.1348  148.4285 O   0  5  0  0  0  0  0  0  0  0  0  0
  165.0293   46.0856  148.4032 O   0  0  0  0  0  0  0  0  0  0  0  0
  163.6649   43.5086  148.4869 C   0  0  0  0  0  0  0  0  0  0  0  0
  162.9170   44.6454  148.0753 O   0  0  0  0  0  0  0  0  0  0  0  0
  162.8746   42.2395  148.2136 C   0  0  1  0  0  0  0  0  0  0  0  0
  162.3363   41.7830  149.4464 O   0  0  0  0  0  0  0  0  0  0  0  0
  161.6938   42.3898  147.2628 C   0  0  1  0  0  0  0  0  0  0  0  0
  162.0351   41.8616  145.9896 O   0  0  0  0  0  0  0  0  0  0  0  0
  160.6350   41.4986  147.8725 C   0  0  1  0  0  0  0  0  0  0  0  0
  160.7544   40.1781  147.3396 O   0  0  0  0  0  0  0  0  0  0  0  0
  160.9713   41.4108  149.3328 C   0  0  2  0  0  0  0  0  0  0  0  0
  160.9327   47.4844  144.1485 C   0  0  1  0  0  0  0  0  0  0  0  0
  160.7920   44.8148  153.3237 N   0  0  0  0  0  0  0  0  0  0  0  0
  161.7922   44.0127  152.9125 C   0  0  1  0  0  0  0  0  0  0  0  0
  161.7097   47.5268  145.4477 C   0  0  2  0  0  0  0  0  0  0  0  0
  162.9665   44.0315  153.5817 N   0  0  0  0  0  0  0  0  0  0  0  0
  162.6982   48.5531  145.3232 O   0  0  0  0  0  0  0  0  0  0  0  0
  162.3613   46.1622  145.5718 C   0  0  2  0  0  0  0  0  0  0  0  0
  161.6912   43.1741  151.8564 N   0  0  0  0  0  0  0  0  0  0  0  0
  163.6017   46.2350  146.2733 O   0  0  0  0  0  0  0  0  0  0  0  0
  160.5499   43.0954  151.1393 C   0  0  2  0  0  0  0  0  0  0  0  0
  162.5450   45.7560  144.1112 C   0  0  2  0  0  0  0  0  0  0  0  0
  161.5750   46.4834  143.3544 O   0  0  0  0  0  0  0  0  0  0  0  0
  159.4177   43.9401  151.5321 C   0  0  2  0  0  0  0  0  0  0  0  0
  162.3884   44.2585  143.8293 C   0  0  0  0  0  0  0  0  0  0  0  0
  161.2336   43.6890  144.4445 O   0  0  0  0  0  0  0  0  0  0  0  0
  159.6018   44.8343  152.6994 C   0  0  0  0  0  0  0  0  0  0  0  0
  158.6674   45.5809  153.0779 O   0  0  0  0  0  0  0  0  0  0  0  0
  158.4261   43.6614  150.6672 N   0  0  0  0  0  0  0  0  0  0  0  0
  158.8785   42.7264  149.7974 C   0  0  0  0  0  0  0  0  0  0  0  0
  160.1489   42.3906  150.0815 N   0  0  1  0  0  0  0  0  0  0  0  0
  155.8128   48.4989  143.5197 N   0  0  0  0  0  0  0  0  0  0  0  0
  161.8657   41.3870  143.5305 O   0  5  0  0  0  0  0  0  0  0  0  0
  156.8846   49.1735  143.0758 C   0  0  2  0  0  0  0  0  0  0  0  0
  156.6614   50.2826  142.3552 N   0  0  0  0  0  0  0  0  0  0  0  0
  159.6945   41.7650  144.9719 O   0  0  0  0  0  0  0  0  0  0  0  0
  158.1613   48.7918  143.3136 N   0  0  0  0  0  0  0  0  0  0  0  0
  158.4246   47.6788  144.0300 C   0  0  1  0  0  0  0  0  0  0  0  0
  157.2874   46.8922  144.5481 C   0  0  1  0  0  0  0  0  0  0  0  0
  155.9192   47.3766  144.2330 C   0  0  0  0  0  0  0  0  0  0  0  0
  154.8921   46.7854  144.6298 O   0  0  0  0  0  0  0  0  0  0  0  0
  157.8172   45.8508  145.2092 N   0  0  0  0  0  0  0  0  0  0  0  0
  159.1715   45.9687  145.1244 C   0  0  0  0  0  0  0  0  0  0  0  0
  159.5376   47.0570  144.4187 N   0  0  2  0  0  0  0  0  0  0  0  0
  1  3  1  1  0  0  0
  1  4  2  0  0  0  0
  1  6  1  0  0  0  0
  1 22  1  0  0  0  0
  2 28  1  0  0  0  0
  2 35  1  6  0  0  0
  2 38  2  0  0  0  0
  2 10  1  0  0  0  0
  5  6  1  0  0  0  0
  7  5  1  1  0  0  0
  7  8  1  0  0  0  0
  7  9  1  0  0  0  0
  9 10  1  6  0  0  0
  9 11  1  0  0  0  0
 11 12  1  6  0  0  0
 11 13  1  0  0  0  0
 13  8  1  6  0  0  0
 13 33  1  0  0  0  0
 14 46  1  0  0  0  0
 14 17  1  0  0  0  0
 14 25  1  6  0  0  0
 15 16  1  0  0  0  0
 15 29  1  0  0  0  0
 16 18  1  1  0  0  0
 16 21  1  0  0  0  0
 17 19  1  6  0  0  0
 17 20  1  0  0  0  0
 20 22  1  6  0  0  0
 20 24  1  0  0  0  0
 23 21  1  1  0  0  0
 23 26  1  0  0  0  0
 23 33  1  0  0  0  0
 24 25  1  6  0  0  0
 24 27  1  0  0  0  0
 26 29  1  1  0  0  0
 26 31  1  0  0  0  0
 27 28  1  0  0  0  0
 29 30  2  0  0  0  0
 31 32  1  0  0  0  0
 33 32  1  6  0  0  0
 34 36  1  0  0  0  0
 34 42  1  0  0  0  0
 36 37  1  6  0  0  0
 36 39  1  0  0  0  0
 40 39  1  6  0  0  0
 40 41  1  0  0  0  0
 40 46  1  0  0  0  0
 41 42  1  6  0  0  0
 41 44  1  0  0  0  0
 42 43  2  0  0  0  0
 44 45  1  0  0  0  0
 46 45  1  1  0  0  0
M  CHG  2   3  -1  35  -1
M  END
>  <CHROM.1>
-28.20244460,128.05751966,160.69788708,44.85702865,147.04263267,-1.08791738
0.71920172,-1.37285097

>  <Name>
ligand

>  <RI>
0

>  <Rbt.Current_Directory>
/home/itssahil/PROJECTS/Mol_Feturizer/Test_systems_manuscript/rnas/4yb0

>  <Rbt.Executable>
rbdock ($Id: //depot/dev/client3/rdock/2013.1/src/exe/rbdock.cxx#4 $)

>  <Rbt.Library>
libRbt.so (2013.1, Build901 2013/11/27)

>  <Rbt.Parameter_File>
/export/apps/rDock/src/rDock_2013.1_src/data/scripts/dock_solv.prm

>  <Rbt.Receptor>
prm/pocket_docking_8.prm

>  <SCORE>
-11.0931

>  <SCORE.INTER>
-11.2339

>  <SCORE.INTER.CONST>
1

>  <SCORE.INTER.POLAR>
0

>  <SCORE.INTER.ROT>
2

>  <SCORE.INTER.SOLV>
18.8515

>  <SCORE.INTER.VDW>
-18.7064

>  <SCORE.INTER.norm>
-0.244215

>  <SCORE.INTRA>
0.139933

>  <SCORE.INTRA.DIHEDRAL>
0.0139638

>  <SCORE.INTRA.DIHEDRAL.0>
2.42188

>  <SCORE.INTRA.POLAR>
0

>  <SCORE.INTRA.POLAR.0>
0

>  <SCORE.INTRA.REPUL>
0

>  <SCORE.INTRA.REPUL.0>
0

>  <SCORE.INTRA.SOLV>
0.039503

>  <SCORE.INTRA.SOLV.lig_0>
-127.307

>  <SCORE.INTRA.VDW>
0.113199

>  <SCORE.INTRA.VDW.0>
-2.19936

>  <SCORE.INTRA.norm>
0.00304202

>  <SCORE.RESTR>
0.0008153

>  <SCORE.RESTR.CAVITY>
0.0008153

>  <SCORE.RESTR.norm>
1.77239e-05

>  <SCORE.SYSTEM>
0

>  <SCORE.SYSTEM.CONST>
0

>  <SCORE.SYSTEM.DIHEDRAL>
0

>  <SCORE.SYSTEM.SOLV>
0

>  <SCORE.SYSTEM.norm>
0

>  <SCORE.heavy>
46

>  <SCORE.norm>
-0.241155

>  <RMSD>
7.699

$$$$
ligand
 OpenBabel02271912143D
libRbt.so/2013.1/901 2013/11/27
 46 52  0  0  0  0  0  0  0  0999 V2000
  156.6527   46.1351  145.4066 P   0  0  1  0  0  0  0  0  0  0  0  0
  161.0395   42.5256  145.8048 P   0  0  1  0  0  0  0  0  0  0  0  0
  156.6039   47.2100  146.4617 O   0  5  0  0  0  0  0  0  0  0  0  0
  155.6701   46.2595  144.2626 O   0  0  0  0  0  0  0  0  0  0  0  0
  158.4518   45.8438  143.4888 C   0  0  0  0  0  0  0  0  0  0  0  0
  158.1640   46.0234  144.8694 O   0  0  0  0  0  0  0  0  0  0  0  0
  159.8890   45.3818  143.3132 C   0  0  1  0  0  0  0  0  0  0  0  0
  160.6579   46.4938  142.8770 O   0  0  0  0  0  0  0  0  0  0  0  0
  160.5719   44.8587  144.5705 C   0  0  1  0  0  0  0  0  0  0  0  0
  160.6315   43.4406  144.5272 O   0  0  0  0  0  0  0  0  0  0  0  0
  161.9822   45.3918  144.4531 C   0  0  1  0  0  0  0  0  0  0  0  0
  162.7950   44.4485  143.7521 O   0  0  0  0  0  0  0  0  0  0  0  0
  161.8830   46.6117  143.5839 C   0  0  2  0  0  0  0  0  0  0  0  0
  157.3727   43.8562  149.5698 C   0  0  1  0  0  0  0  0  0  0  0  0
  159.1787   50.9236  144.8648 N   0  0  0  0  0  0  0  0  0  0  0  0
  158.9183   49.9793  143.9409 C   0  0  1  0  0  0  0  0  0  0  0  0
  156.8603   44.8607  148.5589 C   0  0  2  0  0  0  0  0  0  0  0  0
  157.8027   50.0894  143.1855 N   0  0  0  0  0  0  0  0  0  0  0  0
  155.4313   44.8315  148.6115 O   0  0  0  0  0  0  0  0  0  0  0  0
  157.3610   44.3691  147.2136 C   0  0  2  0  0  0  0  0  0  0  0  0
  159.7188   48.9126  143.7167 N   0  0  0  0  0  0  0  0  0  0  0  0
  156.4658   44.7220  146.1600 O   0  0  0  0  0  0  0  0  0  0  0  0
  160.8526   48.7341  144.4278 C   0  0  2  0  0  0  0  0  0  0  0  0
  157.4370   42.8590  147.4274 C   0  0  2  0  0  0  0  0  0  0  0  0
  157.5757   42.6468  148.8340 O   0  0  0  0  0  0  0  0  0  0  0  0
  161.1999   49.7256  145.4507 C   0  0  2  0  0  0  0  0  0  0  0  0
  158.5836   42.1564  146.6937 C   0  0  0  0  0  0  0  0  0  0  0  0
  159.8368   42.8228  146.8414 O   0  0  0  0  0  0  0  0  0  0  0  0
  160.2750   50.8677  145.6404 C   0  0  0  0  0  0  0  0  0  0  0  0
  160.5211   51.7444  146.5035 O   0  0  0  0  0  0  0  0  0  0  0  0
  162.3597   49.3128  145.9922 N   0  0  0  0  0  0  0  0  0  0  0  0
  162.7238   48.1620  145.3772 C   0  0  0  0  0  0  0  0  0  0  0  0
  161.8204   47.8178  144.4430 N   0  0  1  0  0  0  0  0  0  0  0  0
  160.1653   47.8377  151.5664 N   0  0  0  0  0  0  0  0  0  0  0  0
  160.9531   41.0857  145.3348 O   0  5  0  0  0  0  0  0  0  0  0  0
  158.8827   47.7980  151.1737 C   0  0  2  0  0  0  0  0  0  0  0  0
  158.1651   48.9250  151.2928 N   0  0  0  0  0  0  0  0  0  0  0  0
  162.3084   43.0670  146.4172 O   0  0  0  0  0  0  0  0  0  0  0  0
  158.2861   46.6904  150.6741 N   0  0  0  0  0  0  0  0  0  0  0  0
  158.9748   45.5370  150.5446 C   0  0  1  0  0  0  0  0  0  0  0  0
  160.3921   45.5155  150.9585 C   0  0  1  0  0  0  0  0  0  0  0  0
  160.9654   46.7719  151.5049 C   0  0  0  0  0  0  0  0  0  0  0  0
  162.1554   46.8582  151.8771 O   0  0  0  0  0  0  0  0  0  0  0  0
  160.8332   44.2676  150.7343 N   0  0  0  0  0  0  0  0  0  0  0  0
  159.7903   43.5601  150.2176 C   0  0  0  0  0  0  0  0  0  0  0  0
  158.6786   44.3139  150.1058 N   0  0  2  0  0  0  0  0  0  0  0  0
  1  3  1  1  0  0  0
  1  4  2  0  0  0  0
  1  6  1  0  0  0  0
  1 22  1  0  0  0  0
  2 28  1  0  0  0  0
  2 35  1  6  0  0  0
  2 38  2  0  0  0  0
  2 10  1  0  0  0  0
  5  6  1  0  0  0  0
  7  5  1  1  0  0  0
  7  8  1  0  0  0  0
  7  9  1  0  0  0  0
  9 10  1  6  0  0  0
  9 11  1  0  0  0  0
 11 12  1  6  0  0  0
 11 13  1  0  0  0  0
 13  8  1  1  0  0  0
 13 33  1  0  0  0  0
 14 46  1  0  0  0  0
 14 17  1  0  0  0  0
 14 25  1  6  0  0  0
 15 16  1  0  0  0  0
 15 29  1  0  0  0  0
 16 18  1  6  0  0  0
 16 21  1  0  0  0  0
 17 19  1  6  0  0  0
 17 20  1  0  0  0  0
 20 22  1  6  0  0  0
 20 24  1  0  0  0  0
 23 21  1  6  0  0  0
 23 26  1  0  0  0  0
 23 33  1  0  0  0  0
 24 25  1  1  0  0  0
 24 27  1  0  0  0  0
 26 29  1  6  0  0  0
 26 31  1  0  0  0  0
 27 28  1  0  0  0  0
 29 30  2  0  0  0  0
 31 32  1  0  0  0  0
 33 32  1  1  0  0  0
 34 36  1  0  0  0  0
 34 42  1  0  0  0  0
 36 37  1  1  0  0  0
 36 39  1  0  0  0  0
 40 39  1  1  0  0  0
 40 41  1  0  0  0  0
 40 46  1  0  0  0  0
 41 42  1  1  0  0  0
 41 44  1  0  0  0  0
 42 43  2  0  0  0  0
 44 45  1  0  0  0  0
 46 45  1  6  0  0  0
M  CHG  2   3  -1  35  -1
M  END
>  <CHROM.1>
-8.00326621,47.20067782,159.45542563,45.97434480,146.70107397,-0.26054807
-1.38471981,-2.78525052

>  <Name>
ligand

>  <RI>
0

>  <Rbt.Current_Directory>
/home/itssahil/PROJECTS/Mol_Feturizer/Test_systems_manuscript/rnas/4yb0

>  <Rbt.Executable>
rbdock ($Id: //depot/dev/client3/rdock/2013.1/src/exe/rbdock.cxx#4 $)

>  <Rbt.Library>
libRbt.so (2013.1, Build901 2013/11/27)

>  <Rbt.Parameter_File>
/export/apps/rDock/src/rDock_2013.1_src/data/scripts/dock_solv.prm

>  <Rbt.Receptor>
prm/pocket_docking_8.prm

>  <SCORE>
-9.61347

>  <SCORE.INTER>
-9.44887

>  <SCORE.INTER.CONST>
1

>  <SCORE.INTER.POLAR>
0

>  <SCORE.INTER.ROT>
2

>  <SCORE.INTER.SOLV>
15.0909

>  <SCORE.INTER.VDW>
-16.2629

>  <SCORE.INTER.norm>
-0.20541

>  <SCORE.INTRA>
-0.164607

>  <SCORE.INTRA.DIHEDRAL>
0.0059006

>  <SCORE.INTRA.DIHEDRAL.0>
2.42188

>  <SCORE.INTRA.POLAR>
0

>  <SCORE.INTRA.POLAR.0>
0

>  <SCORE.INTRA.REPUL>
0

>  <SCORE.INTRA.REPUL.0>
0

>  <SCORE.INTRA.SOLV>
0.516195

>  <SCORE.INTRA.SOLV.lig_0>
-127.307

>  <SCORE.INTRA.VDW>
-0.425654

>  <SCORE.INTRA.VDW.0>
-2.19936

>  <SCORE.INTRA.norm>
-0.00357841

>  <SCORE.RESTR>
0

>  <SCORE.RESTR.CAVITY>
0

>  <SCORE.RESTR.norm>
0

>  <SCORE.SYSTEM>
0

>  <SCORE.SYSTEM.CONST>
0

>  <SCORE.SYSTEM.DIHEDRAL>
0

>  <SCORE.SYSTEM.SOLV>
0

>  <SCORE.SYSTEM.norm>
0

>  <SCORE.heavy>
46

>  <SCORE.norm>
-0.208989

>  <RMSD>
7.723

$$$$
ligand
 OpenBabel02271912143D
libRbt.so/2013.1/901 2013/11/27
 46 52  0  0  0  0  0  0  0  0999 V2000
  156.5135   46.2063  145.2395 P   0  0  1  0  0  0  0  0  0  0  0  0
  160.9626   42.7140  145.9028 P   0  0  1  0  0  0  0  0  0  0  0  0
  156.4421   47.3527  146.2151 O   0  5  0  0  0  0  0  0  0  0  0  0
  155.5325   46.2312  144.0876 O   0  0  0  0  0  0  0  0  0  0  0  0
  158.3237   45.8115  143.3509 C   0  0  0  0  0  0  0  0  0  0  0  0
  158.0283   46.0839  144.7146 O   0  0  0  0  0  0  0  0  0  0  0  0
  159.7694   45.3641  143.2115 C   0  0  1  0  0  0  0  0  0  0  0  0
  160.5198   46.4559  142.6986 O   0  0  0  0  0  0  0  0  0  0  0  0
  160.4575   44.9444  144.5042 C   0  0  1  0  0  0  0  0  0  0  0  0
  160.5425   43.5281  144.5623 O   0  0  0  0  0  0  0  0  0  0  0  0
  161.8584   45.4931  144.3519 C   0  0  1  0  0  0  0  0  0  0  0  0
  162.6902   44.5169  143.7216 O   0  0  0  0  0  0  0  0  0  0  0  0
  161.7404   46.6459  143.3977 C   0  0  2  0  0  0  0  0  0  0  0  0
  157.2604   44.2433  149.5561 C   0  0  1  0  0  0  0  0  0  0  0  0
  161.7755   51.8906  143.2025 N   0  0  0  0  0  0  0  0  0  0  0  0
  161.9081   50.9853  142.2147 C   0  0  1  0  0  0  0  0  0  0  0  0
  156.7335   45.1638  148.4751 C   0  0  2  0  0  0  0  0  0  0  0  0
  162.0798   51.4182  140.9457 N   0  0  0  0  0  0  0  0  0  0  0  0
  155.3051   45.1128  148.5268 O   0  0  0  0  0  0  0  0  0  0  0  0
  157.2472   44.5867  147.1693 C   0  0  2  0  0  0  0  0  0  0  0  0
  161.8827   49.6486  142.4181 N   0  0  0  0  0  0  0  0  0  0  0  0
  156.3493   44.8474  146.0913 O   0  0  0  0  0  0  0  0  0  0  0  0
  161.7185   49.1381  143.6572 C   0  0  2  0  0  0  0  0  0  0  0  0
  157.3494   43.0972  147.4904 C   0  0  2  0  0  0  0  0  0  0  0  0
  157.4874   42.9884  148.9088 O   0  0  0  0  0  0  0  0  0  0  0  0
  161.5694   50.0668  144.7820 C   0  0  2  0  0  0  0  0  0  0  0  0
  158.5107   42.3649  146.8108 C   0  0  0  0  0  0  0  0  0  0  0  0
  159.7514   43.0626  146.9132 O   0  0  0  0  0  0  0  0  0  0  0  0
  161.6071   51.5176  144.4828 C   0  0  0  0  0  0  0  0  0  0  0  0
  161.4817   52.3574  145.4063 O   0  0  0  0  0  0  0  0  0  0  0  0
  161.4298   49.3034  145.8805 N   0  0  0  0  0  0  0  0  0  0  0  0
  161.4818   48.0048  145.4984 C   0  0  0  0  0  0  0  0  0  0  0  0
  161.6535   47.9089  144.1685 N   0  0  1  0  0  0  0  0  0  0  0  0
  160.0149   48.4306  151.1424 N   0  0  0  0  0  0  0  0  0  0  0  0
  160.9033   41.2429  145.5364 O   0  5  0  0  0  0  0  0  0  0  0  0
  158.7396   48.3440  150.7336 C   0  0  2  0  0  0  0  0  0  0  0  0
  158.0196   49.4755  150.7124 N   0  0  0  0  0  0  0  0  0  0  0  0
  162.2197   43.3204  146.4774 O   0  0  0  0  0  0  0  0  0  0  0  0
  158.1526   47.1858  150.3511 N   0  0  0  0  0  0  0  0  0  0  0  0
  158.8440   46.0269  150.3644 C   0  0  1  0  0  0  0  0  0  0  0  0
  160.2536   46.0555  150.8035 C   0  0  1  0  0  0  0  0  0  0  0  0
  160.8163   47.3667  151.2154 C   0  0  0  0  0  0  0  0  0  0  0  0
  161.9994   47.4971  151.5969 O   0  0  0  0  0  0  0  0  0  0  0  0
  160.6991   44.7913  150.7289 N   0  0  0  0  0  0  0  0  0  0  0  0
  159.6660   44.0277  150.2764 C   0  0  0  0  0  0  0  0  0  0  0  0
  158.5562   44.7615  150.0606 N   0  0  2  0  0  0  0  0  0  0  0  0
  1  3  1  1  0  0  0
  1  4  2  0  0  0  0
  1  6  1  0  0  0  0
  1 22  1  0  0  0  0
  2 28  1  0  0  0  0
  2 35  1  6  0  0  0
  2 38  2  0  0  0  0
  2 10  1  0  0  0  0
  5  6  1  0  0  0  0
  7  5  1  1  0  0  0
  7  8  1  0  0  0  0
  7  9  1  0  0  0  0
  9 10  1  6  0  0  0
  9 11  1  0  0  0  0
 11 12  1  6  0  0  0
 11 13  1  0  0  0  0
 13  8  1  1  0  0  0
 13 33  1  0  0  0  0
 14 46  1  0  0  0  0
 14 17  1  0  0  0  0
 14 25  1  6  0  0  0
 15 16  1  0  0  0  0
 15 29  1  0  0  0  0
 16 18  1  1  0  0  0
 16 21  1  0  0  0  0
 17 19  1  6  0  0  0
 17 20  1  0  0  0  0
 20 22  1  6  0  0  0
 20 24  1  0  0  0  0
 23 21  1  1  0  0  0
 23 26  1  0  0  0  0
 23 33  1  0  0  0  0
 24 25  1  1  0  0  0
 24 27  1  0  0  0  0
 26 29  1  1  0  0  0
 26 31  1  0  0  0  0
 27 28  1  0  0  0  0
 29 30  2  0  0  0  0
 31 32  1  0  0  0  0
 33 32  1  6  0  0  0
 34 36  1  0  0  0  0
 34 42  1  0  0  0  0
 36 37  1  1  0  0  0
 36 39  1  0  0  0  0
 40 39  1  1  0  0  0
 40 41  1  0  0  0  0
 40 46  1  0  0  0  0
 41 42  1  1  0  0  0
 41 44  1  0  0  0  0
 42 43  2  0  0  0  0
 44 45  1  0  0  0  0
 46 45  1  6  0  0  0
M  CHG  2   3  -1  35  -1
M  END
>  <CHROM.1>
-74.15296602,44.50382318,159.62522045,46.28981214,146.40703059,3.00630109
1.17948496,0.86303288

>  <Name>
ligand

>  <RI>
0

>  <Rbt.Current_Directory>
/home/itssahil/PROJECTS/Mol_Feturizer/Test_systems_manuscript/rnas/4yb0

>  <Rbt.Executable>
rbdock ($Id: //depot/dev/client3/rdock/2013.1/src/exe/rbdock.cxx#4 $)

>  <Rbt.Library>
libRbt.so (2013.1, Build901 2013/11/27)

>  <Rbt.Parameter_File>
/export/apps/rDock/src/rDock_2013.1_src/data/scripts/dock_solv.prm

>  <Rbt.Receptor>
prm/pocket_docking_7.prm

>  <SCORE>
-8.98824

>  <SCORE.INTER>
-9.81214

>  <SCORE.INTER.CONST>
1

>  <SCORE.INTER.POLAR>
0

>  <SCORE.INTER.ROT>
2

>  <SCORE.INTER.SOLV>
14.6217

>  <SCORE.INTER.VDW>
-16.3487

>  <SCORE.INTER.norm>
-0.213307

>  <SCORE.INTRA>
0.823896

>  <SCORE.INTRA.DIHEDRAL>
-0.0164036

>  <SCORE.INTRA.DIHEDRAL.0>
2.42188

>  <SCORE.INTRA.POLAR>
0

>  <SCORE.INTRA.POLAR.0>
0

>  <SCORE.INTRA.REPUL>
0

>  <SCORE.INTRA.REPUL.0>
0

>  <SCORE.INTRA.SOLV>
0.0238679

>  <SCORE.INTRA.SOLV.lig_0>
-127.307

>  <SCORE.INTRA.VDW>
0.820164

>  <SCORE.INTRA.VDW.0>
-2.19936

>  <SCORE.INTRA.norm>
0.0179108

>  <SCORE.RESTR>
0

>  <SCORE.RESTR.CAVITY>
0

>  <SCORE.RESTR.norm>
0

>  <SCORE.SYSTEM>
0

>  <SCORE.SYSTEM.CONST>
0

>  <SCORE.SYSTEM.DIHEDRAL>
0

>  <SCORE.SYSTEM.SOLV>
0

>  <SCORE.SYSTEM.norm>
0

>  <SCORE.heavy>
46

>  <SCORE.norm>
-0.195397

>  <RMSD>
7.820

$$$$
ligand
 OpenBabel02271912143D
libRbt.so/2013.1/901 2013/11/27
 46 52  0  0  0  0  0  0  0  0999 V2000
  157.6244   42.0730  147.4815 P   0  0  1  0  0  0  0  0  0  0  0  0
  159.4139   45.8882  143.6510 P   0  0  1  0  0  0  0  0  0  0  0  0
  158.3461   42.0995  148.8042 O   0  5  0  0  0  0  0  0  0  0  0  0
  156.3935   41.1972  147.3956 O   0  0  0  0  0  0  0  0  0  0  0  0
  156.0481   43.9424  146.4714 C   0  0  0  0  0  0  0  0  0  0  0  0
  157.2945   43.5881  147.0562 O   0  0  0  0  0  0  0  0  0  0  0  0
  156.1499   45.3116  145.8198 C   0  0  1  0  0  0  0  0  0  0  0  0
  155.5163   46.2531  146.6742 O   0  0  0  0  0  0  0  0  0  0  0  0
  157.5643   45.8291  145.5903 C   0  0  1  0  0  0  0  0  0  0  0  0
  157.9046   45.6973  144.2179 O   0  0  0  0  0  0  0  0  0  0  0  0
  157.4557   47.3037  145.9077 C   0  0  1  0  0  0  0  0  0  0  0  0
  157.1171   48.0260  144.7221 O   0  0  0  0  0  0  0  0  0  0  0  0
  156.2889   47.4317  146.8435 C   0  0  2  0  0  0  0  0  0  0  0  0
  162.2937   42.1887  146.3735 C   0  0  1  0  0  0  0  0  0  0  0  0
  157.2502   50.4296  151.0429 N   0  0  0  0  0  0  0  0  0  0  0  0
  156.7690   50.7640  149.8307 C   0  0  1  0  0  0  0  0  0  0  0  0
  161.0057   41.8887  147.1113 C   0  0  2  0  0  0  0  0  0  0  0  0
  156.4606   52.0560  149.5800 N   0  0  0  0  0  0  0  0  0  0  0  0
  160.9167   40.4688  147.2592 O   0  0  0  0  0  0  0  0  0  0  0  0
  159.8976   42.4083  146.2144 C   0  0  2  0  0  0  0  0  0  0  0  0
  156.5753   49.8730  148.8320 N   0  0  0  0  0  0  0  0  0  0  0  0
  158.7018   41.6438  146.3616 O   0  0  0  0  0  0  0  0  0  0  0  0
  156.8626   48.5649  149.0035 C   0  0  2  0  0  0  0  0  0  0  0  0
  160.5105   42.2625  144.8233 C   0  0  2  0  0  0  0  0  0  0  0  0
  161.9296   42.2745  144.9932 O   0  0  0  0  0  0  0  0  0  0  0  0
  157.3924   48.1294  150.2994 C   0  0  2  0  0  0  0  0  0  0  0  0
  160.1111   43.3499  143.8209 C   0  0  0  0  0  0  0  0  0  0  0  0
  160.2053   44.6693  144.3563 O   0  0  0  0  0  0  0  0  0  0  0  0
  157.5780   49.1618  151.3462 C   0  0  0  0  0  0  0  0  0  0  0  0
  158.0253   48.8452  152.4747 O   0  0  0  0  0  0  0  0  0  0  0  0
  157.5923   46.8036  150.1946 N   0  0  0  0  0  0  0  0  0  0  0  0
  157.2234   46.4208  148.9485 C   0  0  0  0  0  0  0  0  0  0  0  0
  156.7866   47.4758  148.2389 N   0  0  1  0  0  0  0  0  0  0  0  0
  165.4490   44.7972  149.6717 N   0  0  0  0  0  0  0  0  0  0  0  0
  159.3358   45.6382  142.1566 O   0  5  0  0  0  0  0  0  0  0  0  0
  165.2240   43.4791  149.5576 C   0  0  2  0  0  0  0  0  0  0  0  0
  165.8864   42.6649  150.3929 N   0  0  0  0  0  0  0  0  0  0  0  0
  159.9882   47.1743  144.1935 O   0  0  0  0  0  0  0  0  0  0  0  0
  164.3762   42.9395  148.6509 N   0  0  0  0  0  0  0  0  0  0  0  0
  163.6966   43.7268  147.7908 C   0  0  1  0  0  0  0  0  0  0  0  0
  163.8995   45.1875  147.8661 C   0  0  1  0  0  0  0  0  0  0  0  0
  164.8548   45.6949  148.8838 C   0  0  0  0  0  0  0  0  0  0  0  0
  165.0913   46.9133  149.0310 O   0  0  0  0  0  0  0  0  0  0  0  0
  163.1230   45.7273  146.9133 N   0  0  0  0  0  0  0  0  0  0  0  0
  162.4785   44.7009  146.2917 C   0  0  0  0  0  0  0  0  0  0  0  0
  162.8208   43.5052  146.8109 N   0  0  2  0  0  0  0  0  0  0  0  0
  1  3  1  1  0  0  0
  1  4  2  0  0  0  0
  1  6  1  0  0  0  0
  1 22  1  0  0  0  0
  2 28  1  0  0  0  0
  2 35  1  6  0  0  0
  2 38  2  0  0  0  0
  2 10  1  0  0  0  0
  5  6  1  0  0  0  0
  7  5  1  1  0  0  0
  7  8  1  0  0  0  0
  7  9  1  0  0  0  0
  9 10  1  6  0  0  0
  9 11  1  0  0  0  0
 11 12  1  6  0  0  0
 11 13  1  0  0  0  0
 13  8  1  1  0  0  0
 13 33  1  0  0  0  0
 14 46  1  0  0  0  0
 14 17  1  0  0  0  0
 14 25  1  6  0  0  0
 15 16  1  0  0  0  0
 15 29  1  0  0  0  0
 16 18  1  6  0  0  0
 16 21  1  0  0  0  0
 17 19  1  6  0  0  0
 17 20  1  0  0  0  0
 20 22  1  6  0  0  0
 20 24  1  0  0  0  0
 23 21  1  6  0  0  0
 23 26  1  0  0  0  0
 23 33  1  0  0  0  0
 24 25  1  1  0  0  0
 24 27  1  0  0  0  0
 26 29  1  6  0  0  0
 26 31  1  0  0  0  0
 27 28  1  0  0  0  0
 29 30  2  0  0  0  0
 31 32  1  0  0  0  0
 33 32  1  1  0  0  0
 34 36  1  0  0  0  0
 34 42  1  0  0  0  0
 36 37  1  6  0  0  0
 36 39  1  0  0  0  0
 40 39  1  6  0  0  0
 40 41  1  0  0  0  0
 40 46  1  0  0  0  0
 41 42  1  6  0  0  0
 41 44  1  0  0  0  0
 42 43  2  0  0  0  0
 44 45  1  0  0  0  0
 46 45  1  1  0  0  0
M  CHG  2   3  -1  35  -1
M  END
>  <CHROM.1>
-140.22098360,92.57379249,159.54002347,45.23404732,147.22679773,0.65743281
0.39930724,-2.42429850

>  <Name>
ligand

>  <RI>
0

>  <Rbt.Current_Directory>
/home/itssahil/PROJECTS/Mol_Feturizer/Test_systems_manuscript/rnas/4yb0

>  <Rbt.Executable>
rbdock ($Id: //depot/dev/client3/rdock/2013.1/src/exe/rbdock.cxx#4 $)

>  <Rbt.Library>
libRbt.so (2013.1, Build901 2013/11/27)

>  <Rbt.Parameter_File>
/export/apps/rDock/src/rDock_2013.1_src/data/scripts/dock_solv.prm

>  <Rbt.Receptor>
prm/pocket_docking_8.prm

>  <SCORE>
-19.4728

>  <SCORE.INTER>
-19.0371

>  <SCORE.INTER.CONST>
1

>  <SCORE.INTER.POLAR>
0

>  <SCORE.INTER.ROT>
2

>  <SCORE.INTER.SOLV>
21.5634

>  <SCORE.INTER.VDW>
-24.8125

>  <SCORE.INTER.norm>
-0.41385

>  <SCORE.INTRA>
-0.435917

>  <SCORE.INTRA.DIHEDRAL>
-0.0313702

>  <SCORE.INTRA.DIHEDRAL.0>
2.42188

>  <SCORE.INTRA.POLAR>
0

>  <SCORE.INTRA.POLAR.0>
0

>  <SCORE.INTRA.REPUL>
0

>  <SCORE.INTRA.REPUL.0>
0

>  <SCORE.INTRA.SOLV>
-0.0221321

>  <SCORE.INTRA.SOLV.lig_0>
-127.307

>  <SCORE.INTRA.VDW>
-0.409166

>  <SCORE.INTRA.VDW.0>
-2.19936

>  <SCORE.INTRA.norm>
-0.00947647

>  <SCORE.RESTR>
0.000166337

>  <SCORE.RESTR.CAVITY>
0.000166337

>  <SCORE.RESTR.norm>
3.61603e-06

>  <SCORE.SYSTEM>
0

>  <SCORE.SYSTEM.CONST>
0

>  <SCORE.SYSTEM.DIHEDRAL>
0

>  <SCORE.SYSTEM.SOLV>
0

>  <SCORE.SYSTEM.norm>
0

>  <SCORE.heavy>
46

>  <SCORE.norm>
-0.423323

>  <RMSD>
7.841

$$$$
ligand
 OpenBabel02271912143D
libRbt.so/2013.1/901 2013/11/27
 46 52  0  0  0  0  0  0  0  0999 V2000
  159.7435   43.0637  146.5289 P   0  0  1  0  0  0  0  0  0  0  0  0
  160.7815   45.5361  151.5529 P   0  0  1  0  0  0  0  0  0  0  0  0
  159.0881   43.9467  145.4984 O   0  5  0  0  0  0  0  0  0  0  0  0
  160.2318   41.7122  146.0550 O   0  0  0  0  0  0  0  0  0  0  0  0
  162.1779   43.3015  147.5370 C   0  0  0  0  0  0  0  0  0  0  0  0
  160.9245   43.8985  147.2313 O   0  0  0  0  0  0  0  0  0  0  0  0
  162.9395   44.1687  148.5258 C   0  0  1  0  0  0  0  0  0  0  0  0
  163.9461   44.8707  147.8102 O   0  0  0  0  0  0  0  0  0  0  0  0
  162.1141   45.2262  149.2477 C   0  0  1  0  0  0  0  0  0  0  0  0
  161.8526   44.8027  150.5776 O   0  0  0  0  0  0  0  0  0  0  0  0
  163.0435   46.4177  149.3084 C   0  0  1  0  0  0  0  0  0  0  0  0
  163.8180   46.3614  150.5080 O   0  0  0  0  0  0  0  0  0  0  0  0
  163.9997   46.2442  148.1643 C   0  0  2  0  0  0  0  0  0  0  0  0
  156.1097   45.2036  148.8225 C   0  0  1  0  0  0  0  0  0  0  0  0
  164.5780   50.6750  145.4113 N   0  0  0  0  0  0  0  0  0  0  0  0
  165.2263   50.2466  146.5109 C   0  0  1  0  0  0  0  0  0  0  0  0
  156.9267   44.5652  147.7187 C   0  0  2  0  0  0  0  0  0  0  0  0
  166.1923   51.0244  147.0487 N   0  0  0  0  0  0  0  0  0  0  0  0
  156.1583   43.4819  147.1879 O   0  0  0  0  0  0  0  0  0  0  0  0
  158.1856   44.0539  148.3939 C   0  0  2  0  0  0  0  0  0  0  0  0
  164.9638   49.0689  147.1215 N   0  0  0  0  0  0  0  0  0  0  0  0
  158.6955   42.8916  147.7418 O   0  0  0  0  0  0  0  0  0  0  0  0
  164.0111   48.2382  146.6469 C   0  0  2  0  0  0  0  0  0  0  0  0
  157.6968   43.7562  149.8097 C   0  0  2  0  0  0  0  0  0  0  0  0
  156.5455   44.5738  150.0303 O   0  0  0  0  0  0  0  0  0  0  0  0
  163.2633   48.6419  145.4521 C   0  0  2  0  0  0  0  0  0  0  0  0
  158.7219   44.0151  150.9181 C   0  0  0  0  0  0  0  0  0  0  0  0
  159.3823   45.2737  150.7896 O   0  0  0  0  0  0  0  0  0  0  0  0
  163.6060   49.9458  144.8369 C   0  0  0  0  0  0  0  0  0  0  0  0
  163.0001   50.3402  143.8115 O   0  0  0  0  0  0  0  0  0  0  0  0
  162.3892   47.6499  145.2057 N   0  0  0  0  0  0  0  0  0  0  0  0
  162.5599   46.6956  146.1520 C   0  0  0  0  0  0  0  0  0  0  0  0
  163.5310   47.0495  147.0117 N   0  0  1  0  0  0  0  0  0  0  0  0
  157.2993   49.5987  146.1948 N   0  0  0  0  0  0  0  0  0  0  0  0
  160.7972   44.7571  152.8548 O   0  5  0  0  0  0  0  0  0  0  0  0
  157.0460   48.3635  145.7356 C   0  0  2  0  0  0  0  0  0  0  0  0
  157.0909   48.1767  144.4081 N   0  0  0  0  0  0  0  0  0  0  0  0
  161.0338   47.0241  151.5360 O   0  0  0  0  0  0  0  0  0  0  0  0
  156.7479   47.3133  146.5359 N   0  0  0  0  0  0  0  0  0  0  0  0
  156.6884   47.4643  147.8757 C   0  0  1  0  0  0  0  0  0  0  0  0
  156.9584   48.8002  148.4441 C   0  0  1  0  0  0  0  0  0  0  0  0
  157.2682   49.8990  147.4942 C   0  0  0  0  0  0  0  0  0  0  0  0
  157.5166   51.0631  147.8755 O   0  0  0  0  0  0  0  0  0  0  0  0
  156.8304   48.6784  149.7749 N   0  0  0  0  0  0  0  0  0  0  0  0
  156.5134   47.3786  150.0302 C   0  0  0  0  0  0  0  0  0  0  0  0
  156.4249   46.6517  148.8987 N   0  0  2  0  0  0  0  0  0  0  0  0
  1  3  1  6  0  0  0
  1  4  2  0  0  0  0
  1  6  1  0  0  0  0
  1 22  1  0  0  0  0
  2 28  1  0  0  0  0
  2 35  1  1  0  0  0
  2 38  2  0  0  0  0
  2 10  1  0  0  0  0
  5  6  1  0  0  0  0
  7  5  1  6  0  0  0
  7  8  1  0  0  0  0
  7  9  1  0  0  0  0
  9 10  1  1  0  0  0
  9 11  1  0  0  0  0
 11 12  1  1  0  0  0
 11 13  1  0  0  0  0
 13  8  1  6  0  0  0
 13 33  1  0  0  0  0
 14 46  1  0  0  0  0
 14 17  1  0  0  0  0
 14 25  1  1  0  0  0
 15 16  1  0  0  0  0
 15 29  1  0  0  0  0
 16 18  1  1  0  0  0
 16 21  1  0  0  0  0
 17 19  1  1  0  0  0
 17 20  1  0  0  0  0
 20 22  1  6  0  0  0
 20 24  1  0  0  0  0
 23 21  1  1  0  0  0
 23 26  1  0  0  0  0
 23 33  1  0  0  0  0
 24 25  1  1  0  0  0
 24 27  1  0  0  0  0
 26 29  1  1  0  0  0
 26 31  1  0  0  0  0
 27 28  1  0  0  0  0
 29 30  2  0  0  0  0
 31 32  1  0  0  0  0
 33 32  1  6  0  0  0
 34 36  1  0  0  0  0
 34 42  1  0  0  0  0
 36 37  1  6  0  0  0
 36 39  1  0  0  0  0
 40 39  1  6  0  0  0
 40 41  1  0  0  0  0
 40 46  1  0  0  0  0
 41 42  1  6  0  0  0
 41 44  1  0  0  0  0
 42 43  2  0  0  0  0
 44 45  1  0  0  0  0
 46 45  1  1  0  0  0
M  CHG  2   3  -1  35  -1
M  END
>  <CHROM.1>
-143.89122831,36.32820763,160.31310220,46.36414726,147.99046808,-2.53137118
-0.01778192,-0.55613388

>  <Name>
ligand

>  <RI>
0

>  <Rbt.Current_Directory>
/home/itssahil/PROJECTS/Mol_Feturizer/Test_systems_manuscript/rnas/4yb0

>  <Rbt.Executable>
rbdock ($Id: //depot/dev/client3/rdock/2013.1/src/exe/rbdock.cxx#4 $)

>  <Rbt.Library>
libRbt.so (2013.1, Build901 2013/11/27)

>  <Rbt.Parameter_File>
/export/apps/rDock/src/rDock_2013.1_src/data/scripts/dock_solv.prm

>  <Rbt.Receptor>
prm/pocket_docking_8.prm

>  <SCORE>
-15.1455

>  <SCORE.INTER>
-15.1803

>  <SCORE.INTER.CONST>
1

>  <SCORE.INTER.POLAR>
0

>  <SCORE.INTER.ROT>
2

>  <SCORE.INTER.SOLV>
8.25218

>  <SCORE.INTER.VDW>
-17.8042

>  <SCORE.INTER.norm>
-0.330006

>  <SCORE.INTRA>
0.0347272

>  <SCORE.INTRA.DIHEDRAL>
0.0281539

>  <SCORE.INTRA.DIHEDRAL.0>
2.42188

>  <SCORE.INTRA.POLAR>
0

>  <SCORE.INTRA.POLAR.0>
0

>  <SCORE.INTRA.REPUL>
0

>  <SCORE.INTRA.REPUL.0>
0

>  <SCORE.INTRA.SOLV>
0.00203877

>  <SCORE.INTRA.SOLV.lig_0>
-127.307

>  <SCORE.INTRA.VDW>
0.0196309

>  <SCORE.INTRA.VDW.0>
-2.19936

>  <SCORE.INTRA.norm>
0.000754939

>  <SCORE.RESTR>
0

>  <SCORE.RESTR.CAVITY>
0

>  <SCORE.RESTR.norm>
0

>  <SCORE.SYSTEM>
0

>  <SCORE.SYSTEM.CONST>
0

>  <SCORE.SYSTEM.DIHEDRAL>
0

>  <SCORE.SYSTEM.SOLV>
0

>  <SCORE.SYSTEM.norm>
0

>  <SCORE.heavy>
46

>  <SCORE.norm>
-0.329251

>  <RMSD>
7.844

$$$$
ligand
 OpenBabel02271912143D
libRbt.so/2013.1/901 2013/11/27
 46 52  0  0  0  0  0  0  0  0999 V2000
  157.6300   42.0934  147.4913 P   0  0  1  0  0  0  0  0  0  0  0  0
  159.4251   45.8998  143.6546 P   0  0  1  0  0  0  0  0  0  0  0  0
  158.3504   42.1223  148.8146 O   0  5  0  0  0  0  0  0  0  0  0  0
  156.3989   41.2178  147.4059 O   0  0  0  0  0  0  0  0  0  0  0  0
  156.0555   43.9612  146.4756 C   0  0  0  0  0  0  0  0  0  0  0  0
  157.3012   43.6077  147.0624 O   0  0  0  0  0  0  0  0  0  0  0  0
  156.1586   45.3290  145.8213 C   0  0  1  0  0  0  0  0  0  0  0  0
  155.5245   46.2726  146.6730 O   0  0  0  0  0  0  0  0  0  0  0  0
  157.5734   45.8455  145.5921 C   0  0  1  0  0  0  0  0  0  0  0  0
  157.9151   45.7107  144.2204 O   0  0  0  0  0  0  0  0  0  0  0  0
  157.4651   47.3208  145.9063 C   0  0  1  0  0  0  0  0  0  0  0  0
  157.1281   48.0408  144.7188 O   0  0  0  0  0  0  0  0  0  0  0  0
  156.2974   47.4512  146.8406 C   0  0  2  0  0  0  0  0  0  0  0  0
  162.3006   42.2049  146.3878 C   0  0  1  0  0  0  0  0  0  0  0  0
  157.1838   50.4431  151.0608 N   0  0  0  0  0  0  0  0  0  0  0  0
  156.6946   50.7738  149.8507 C   0  0  1  0  0  0  0  0  0  0  0  0
  161.0117   41.9069  147.1249 C   0  0  2  0  0  0  0  0  0  0  0  0
  156.3544   52.0595  149.6088 N   0  0  0  0  0  0  0  0  0  0  0  0
  160.9220   40.4874  147.2757 O   0  0  0  0  0  0  0  0  0  0  0  0
  159.9047   42.4251  146.2258 C   0  0  2  0  0  0  0  0  0  0  0  0
  156.5231   49.8852  148.8458 N   0  0  0  0  0  0  0  0  0  0  0  0
  158.7084   41.6614  146.3734 O   0  0  0  0  0  0  0  0  0  0  0  0
  156.8427   48.5835  149.0085 C   0  0  2  0  0  0  0  0  0  0  0  0
  160.5190   42.2761  144.8356 C   0  0  2  0  0  0  0  0  0  0  0  0
  161.9379   42.2879  145.0069 O   0  0  0  0  0  0  0  0  0  0  0  0
  157.3829   48.1524  150.3015 C   0  0  2  0  0  0  0  0  0  0  0  0
  160.1211   43.3615  143.8305 C   0  0  0  0  0  0  0  0  0  0  0  0
  160.2152   44.6820  144.3633 O   0  0  0  0  0  0  0  0  0  0  0  0
  157.5427   49.1818  151.3554 C   0  0  0  0  0  0  0  0  0  0  0  0
  157.9976   48.8686  152.4819 O   0  0  0  0  0  0  0  0  0  0  0  0
  157.6156   46.8326  150.1877 N   0  0  0  0  0  0  0  0  0  0  0  0
  157.2564   46.4494  148.9390 C   0  0  0  0  0  0  0  0  0  0  0  0
  156.7937   47.4981  148.2364 N   0  0  1  0  0  0  0  0  0  0  0  0
  165.3618   44.8304  149.7602 N   0  0  0  0  0  0  0  0  0  0  0  0
  159.3484   45.6467  142.1606 O   0  5  0  0  0  0  0  0  0  0  0  0
  165.1243   43.5134  149.6596 C   0  0  2  0  0  0  0  0  0  0  0  0
  165.7438   42.7056  150.5331 N   0  0  0  0  0  0  0  0  0  0  0  0
  159.9993   47.1868  144.1950 O   0  0  0  0  0  0  0  0  0  0  0  0
  164.3045   42.9689  148.7303 N   0  0  0  0  0  0  0  0  0  0  0  0
  163.6684   43.7496  147.8318 C   0  0  1  0  0  0  0  0  0  0  0  0
  163.8874   45.2087  147.8904 C   0  0  1  0  0  0  0  0  0  0  0  0
  164.8098   45.7217  148.9353 C   0  0  0  0  0  0  0  0  0  0  0  0
  165.0564   46.9394  149.0710 O   0  0  0  0  0  0  0  0  0  0  0  0
  163.1547   45.7417  146.8997 N   0  0  0  0  0  0  0  0  0  0  0  0
  162.5210   44.7128  146.2712 C   0  0  0  0  0  0  0  0  0  0  0  0
  162.8277   43.5220  146.8230 N   0  0  2  0  0  0  0  0  0  0  0  0
  1  3  1  1  0  0  0
  1  4  2  0  0  0  0
  1  6  1  0  0  0  0
  1 22  1  0  0  0  0
  2 28  1  0  0  0  0
  2 35  1  6  0  0  0
  2 38  2  0  0  0  0
  2 10  1  0  0  0  0
  5  6  1  0  0  0  0
  7  5  1  1  0  0  0
  7  8  1  0  0  0  0
  7  9  1  0  0  0  0
  9 10  1  6  0  0  0
  9 11  1  0  0  0  0
 11 12  1  6  0  0  0
 11 13  1  0  0  0  0
 13  8  1  1  0  0  0
 13 33  1  0  0  0  0
 14 46  1  0  0  0  0
 14 17  1  0  0  0  0
 14 25  1  6  0  0  0
 15 16  1  0  0  0  0
 15 29  1  0  0  0  0
 16 18  1  6  0  0  0
 16 21  1  0  0  0  0
 17 19  1  6  0  0  0
 17 20  1  0  0  0  0
 20 22  1  6  0  0  0
 20 24  1  0  0  0  0
 23 21  1  6  0  0  0
 23 26  1  0  0  0  0
 23 33  1  0  0  0  0
 24 25  1  1  0  0  0
 24 27  1  0  0  0  0
 26 29  1  6  0  0  0
 26 31  1  0  0  0  0
 27 28  1  0  0  0  0
 29 30  2  0  0  0  0
 31 32  1  0  0  0  0
 33 32  1  1  0  0  0
 34 36  1  0  0  0  0
 34 42  1  0  0  0  0
 36 37  1  6  0  0  0
 36 39  1  0  0  0  0
 40 39  1  6  0  0  0
 40 41  1  0  0  0  0
 40 46  1  0  0  0  0
 41 42  1  6  0  0  0
 41 44  1  0  0  0  0
 42 43  2  0  0  0  0
 44 45  1  0  0  0  0
 46 45  1  1  0  0  0
M  CHG  2   3  -1  35  -1
M  END
>  <CHROM.1>
-138.69208830,90.17777520,159.52942177,45.25275221,147.24301526,0.65911983
0.41109575,-2.41198882

>  <Name>
ligand

>  <RI>
0

>  <Rbt.Current_Directory>
/home/itssahil/PROJECTS/Mol_Feturizer/Test_systems_manuscript/rnas/4yb0

>  <Rbt.Executable>
rbdock ($Id: //depot/dev/client3/rdock/2013.1/src/exe/rbdock.cxx#4 $)

>  <Rbt.Library>
libRbt.so (2013.1, Build901 2013/11/27)

>  <Rbt.Parameter_File>
/export/apps/rDock/src/rDock_2013.1_src/data/scripts/dock_solv.prm

>  <Rbt.Receptor>
prm/pocket_docking_8.prm

>  <SCORE>
-19.5275

>  <SCORE.INTER>
-19.0778

>  <SCORE.INTER.CONST>
1

>  <SCORE.INTER.POLAR>
0

>  <SCORE.INTER.ROT>
2

>  <SCORE.INTER.SOLV>
21.5415

>  <SCORE.INTER.VDW>
-24.8324

>  <SCORE.INTER.norm>
-0.414736

>  <SCORE.INTRA>
-0.449879

>  <SCORE.INTRA.DIHEDRAL>
-0.0326684

>  <SCORE.INTRA.DIHEDRAL.0>
2.42188

>  <SCORE.INTRA.POLAR>
0

>  <SCORE.INTRA.POLAR.0>
0

>  <SCORE.INTRA.REPUL>
0

>  <SCORE.INTRA.REPUL.0>
0

>  <SCORE.INTRA.SOLV>
-0.0245281

>  <SCORE.INTRA.SOLV.lig_0>
-127.307

>  <SCORE.INTRA.VDW>
-0.42128

>  <SCORE.INTRA.VDW.0>
-2.19936

>  <SCORE.INTRA.norm>
-0.00977997

>  <SCORE.RESTR>
0.000234671

>  <SCORE.RESTR.CAVITY>
0.000234671

>  <SCORE.RESTR.norm>
5.10154e-06

>  <SCORE.SYSTEM>
0

>  <SCORE.SYSTEM.CONST>
0

>  <SCORE.SYSTEM.DIHEDRAL>
0

>  <SCORE.SYSTEM.SOLV>
0

>  <SCORE.SYSTEM.norm>
0

>  <SCORE.heavy>
46

>  <SCORE.norm>
-0.424511

>  <RMSD>
7.847

$$$$
ligand
 OpenBabel02271912143D
libRbt.so/2013.1/901 2013/11/27
 46 52  0  0  0  0  0  0  0  0999 V2000
  157.6520   42.0749  147.5068 P   0  0  1  0  0  0  0  0  0  0  0  0
  159.4211   45.8970  143.6737 P   0  0  1  0  0  0  0  0  0  0  0  0
  158.3842   42.0956  148.8238 O   0  5  0  0  0  0  0  0  0  0  0  0
  156.4182   41.2025  147.4280 O   0  0  0  0  0  0  0  0  0  0  0  0
  156.0726   43.9513  146.5148 C   0  0  0  0  0  0  0  0  0  0  0  0
  157.3227   43.5921  147.0886 O   0  0  0  0  0  0  0  0  0  0  0  0
  156.1729   45.3222  145.8665 C   0  0  1  0  0  0  0  0  0  0  0  0
  155.5484   46.2628  146.7286 O   0  0  0  0  0  0  0  0  0  0  0  0
  157.5867   45.8368  145.6273 C   0  0  1  0  0  0  0  0  0  0  0  0
  157.9158   45.7083  144.2519 O   0  0  0  0  0  0  0  0  0  0  0  0
  157.4844   47.3107  145.9500 C   0  0  1  0  0  0  0  0  0  0  0  0
  157.1384   48.0375  144.7693 O   0  0  0  0  0  0  0  0  0  0  0  0
  156.3254   47.4389  146.8953 C   0  0  2  0  0  0  0  0  0  0  0  0
  162.3128   42.1820  146.3623 C   0  0  1  0  0  0  0  0  0  0  0  0
  157.2533   50.4067  151.1235 N   0  0  0  0  0  0  0  0  0  0  0  0
  156.7538   50.7446  149.9197 C   0  0  1  0  0  0  0  0  0  0  0  0
  161.0298   41.8831  147.1093 C   0  0  2  0  0  0  0  0  0  0  0  0
  156.4131   52.0320  149.6878 N   0  0  0  0  0  0  0  0  0  0  0  0
  160.9384   40.4630  147.2537 O   0  0  0  0  0  0  0  0  0  0  0  0
  159.9160   42.4082  146.2228 C   0  0  2  0  0  0  0  0  0  0  0  0
  156.5722   49.8616  148.9116 N   0  0  0  0  0  0  0  0  0  0  0  0
  158.7194   41.6463  146.3771 O   0  0  0  0  0  0  0  0  0  0  0  0
  156.8914   48.5587  149.0643 C   0  0  2  0  0  0  0  0  0  0  0  0
  160.5176   42.2651  144.8265 C   0  0  2  0  0  0  0  0  0  0  0  0
  161.9379   42.2729  144.9852 O   0  0  0  0  0  0  0  0  0  0  0  0
  157.4427   48.1199  150.3502 C   0  0  2  0  0  0  0  0  0  0  0  0
  160.1131   43.3564  143.8305 C   0  0  0  0  0  0  0  0  0  0  0  0
  160.2148   44.6740  144.3691 O   0  0  0  0  0  0  0  0  0  0  0  0
  157.6132   49.1434  151.4081 C   0  0  0  0  0  0  0  0  0  0  0  0
  158.0778   48.8235  152.5287 O   0  0  0  0  0  0  0  0  0  0  0  0
  157.6725   46.8004  150.2271 N   0  0  0  0  0  0  0  0  0  0  0  0
  157.3017   46.4245  148.9796 C   0  0  0  0  0  0  0  0  0  0  0  0
  156.8342   47.4775  148.2869 N   0  0  1  0  0  0  0  0  0  0  0  0
  165.3334   44.7945  149.7810 N   0  0  0  0  0  0  0  0  0  0  0  0
  159.3306   45.6518  142.1792 O   0  5  0  0  0  0  0  0  0  0  0  0
  165.0819   43.4799  149.6846 C   0  0  2  0  0  0  0  0  0  0  0  0
  165.6727   42.6709  150.5767 N   0  0  0  0  0  0  0  0  0  0  0  0
  160.0030   47.1800  144.2155 O   0  0  0  0  0  0  0  0  0  0  0  0
  164.2755   42.9386  148.7417 N   0  0  0  0  0  0  0  0  0  0  0  0
  163.6684   43.7204  147.8244 C   0  0  1  0  0  0  0  0  0  0  0  0
  163.9039   45.1772  147.8775 C   0  0  1  0  0  0  0  0  0  0  0  0
  164.8101   45.6865  148.9383 C   0  0  0  0  0  0  0  0  0  0  0  0
  165.0687   46.9021  149.0708 O   0  0  0  0  0  0  0  0  0  0  0  0
  163.1991   45.7118  146.8677 N   0  0  0  0  0  0  0  0  0  0  0  0
  162.5664   44.6862  146.2329 C   0  0  0  0  0  0  0  0  0  0  0  0
  162.8466   43.4958  146.7995 N   0  0  2  0  0  0  0  0  0  0  0  0
  1  3  1  1  0  0  0
  1  4  2  0  0  0  0
  1  6  1  0  0  0  0
  1 22  1  0  0  0  0
  2 28  1  0  0  0  0
  2 35  1  6  0  0  0
  2 38  2  0  0  0  0
  2 10  1  0  0  0  0
  5  6  1  0  0  0  0
  7  5  1  1  0  0  0
  7  8  1  0  0  0  0
  7  9  1  0  0  0  0
  9 10  1  6  0  0  0
  9 11  1  0  0  0  0
 11 12  1  6  0  0  0
 11 13  1  0  0  0  0
 13  8  1  1  0  0  0
 13 33  1  0  0  0  0
 14 46  1  0  0  0  0
 14 17  1  0  0  0  0
 14 25  1  6  0  0  0
 15 16  1  0  0  0  0
 15 29  1  0  0  0  0
 16 18  1  6  0  0  0
 16 21  1  0  0  0  0
 17 19  1  6  0  0  0
 17 20  1  0  0  0  0
 20 22  1  6  0  0  0
 20 24  1  0  0  0  0
 23 21  1  6  0  0  0
 23 26  1  0  0  0  0
 23 33  1  0  0  0  0
 24 25  1  1  0  0  0
 24 27  1  0  0  0  0
 26 29  1  6  0  0  0
 26 31  1  0  0  0  0
 27 28  1  0  0  0  0
 29 30  2  0  0  0  0
 31 32  1  0  0  0  0
 33 32  1  1  0  0  0
 34 36  1  0  0  0  0
 34 42  1  0  0  0  0
 36 37  1  6  0  0  0
 36 39  1  0  0  0  0
 40 39  1  6  0  0  0
 40 41  1  0  0  0  0
 40 46  1  0  0  0  0
 41 42  1  6  0  0  0
 41 44  1  0  0  0  0
 42 43  2  0  0  0  0
 44 45  1  0  0  0  0
 46 45  1  1  0  0  0
M  CHG  2   3  -1  35  -1
M  END
>  <CHROM.1>
-138.63840880,88.22113502,159.54739765,45.23258103,147.26436819,0.67264579
0.41457200,-2.40456978

>  <Name>
ligand

>  <RI>
0

>  <Rbt.Current_Directory>
/home/itssahil/PROJECTS/Mol_Feturizer/Test_systems_manuscript/rnas/4yb0

>  <Rbt.Executable>
rbdock ($Id: //depot/dev/client3/rdock/2013.1/src/exe/rbdock.cxx#4 $)

>  <Rbt.Library>
libRbt.so (2013.1, Build901 2013/11/27)

>  <Rbt.Parameter_File>
/export/apps/rDock/src/rDock_2013.1_src/data/scripts/dock_solv.prm

>  <Rbt.Receptor>
prm/pocket_docking_8.prm

>  <SCORE>
-19.343

>  <SCORE.INTER>
-18.8997

>  <SCORE.INTER.CONST>
1

>  <SCORE.INTER.POLAR>
0

>  <SCORE.INTER.ROT>
2

>  <SCORE.INTER.SOLV>
21.3143

>  <SCORE.INTER.VDW>
-24.6379

>  <SCORE.INTER.norm>
-0.410863

>  <SCORE.INTRA>
-0.443291

>  <SCORE.INTRA.DIHEDRAL>
-0.0326534

>  <SCORE.INTRA.DIHEDRAL.0>
2.42188

>  <SCORE.INTRA.POLAR>
0

>  <SCORE.INTRA.POLAR.0>
0

>  <SCORE.INTRA.REPUL>
0

>  <SCORE.INTRA.REPUL.0>
0

>  <SCORE.INTRA.SOLV>
-0.0248109

>  <SCORE.INTRA.SOLV.lig_0>
-127.307

>  <SCORE.INTRA.VDW>
-0.414559

>  <SCORE.INTRA.VDW.0>
-2.19936

>  <SCORE.INTRA.norm>
-0.00963677

>  <SCORE.RESTR>
0

>  <SCORE.RESTR.CAVITY>
0

>  <SCORE.RESTR.norm>
0

>  <SCORE.SYSTEM>
0

>  <SCORE.SYSTEM.CONST>
0

>  <SCORE.SYSTEM.DIHEDRAL>
0

>  <SCORE.SYSTEM.SOLV>
0

>  <SCORE.SYSTEM.norm>
0

>  <SCORE.heavy>
46

>  <SCORE.norm>
-0.4205

>  <RMSD>
7.855

$$$$
ligand
 OpenBabel02271912143D
libRbt.so/2013.1/901 2013/11/27
 46 52  0  0  0  0  0  0  0  0999 V2000
  160.7824   47.0435  145.5443 P   0  0  1  0  0  0  0  0  0  0  0  0
  155.2810   45.5908  145.7809 P   0  0  1  0  0  0  0  0  0  0  0  0
  161.2785   47.8809  146.6948 O   0  5  0  0  0  0  0  0  0  0  0  0
  161.8277   46.5185  144.5845 O   0  0  0  0  0  0  0  0  0  0  0  0
  159.9626   44.5292  145.6208 C   0  0  0  0  0  0  0  0  0  0  0  0
  159.8834   45.8506  146.1393 O   0  0  0  0  0  0  0  0  0  0  0  0
  158.7596   43.7194  146.0754 C   0  0  1  0  0  0  0  0  0  0  0  0
  159.1797   42.8603  147.1259 O   0  0  0  0  0  0  0  0  0  0  0  0
  157.5914   44.5267  146.6269 C   0  0  1  0  0  0  0  0  0  0  0  0
  156.5569   44.5945  145.6564 O   0  0  0  0  0  0  0  0  0  0  0  0
  157.0967   43.6863  147.7827 C   0  0  1  0  0  0  0  0  0  0  0  0
  156.1022   42.7709  147.3191 O   0  0  0  0  0  0  0  0  0  0  0  0
  158.2747   42.8648  148.2194 C   0  0  2  0  0  0  0  0  0  0  0  0
  157.5165   50.5208  146.0797 C   0  0  1  0  0  0  0  0  0  0  0  0
  161.6640   42.3615  152.1951 N   0  0  0  0  0  0  0  0  0  0  0  0
  161.2676   41.4623  151.2746 C   0  0  1  0  0  0  0  0  0  0  0  0
  158.8474   49.7984  146.0648 C   0  0  2  0  0  0  0  0  0  0  0  0
  161.7795   40.2119  151.3147 N   0  0  0  0  0  0  0  0  0  0  0  0
  159.7309   50.5440  145.2227 O   0  0  0  0  0  0  0  0  0  0  0  0
  158.5579   48.4334  145.4691 C   0  0  2  0  0  0  0  0  0  0  0  0
  160.3722   41.7371  150.2990 N   0  0  0  0  0  0  0  0  0  0  0  0
  159.6838   47.9224  144.7569 O   0  0  0  0  0  0  0  0  0  0  0  0
  159.8136   42.9618  150.1946 C   0  0  2  0  0  0  0  0  0  0  0  0
  157.3744   48.7249  144.5490 C   0  0  2  0  0  0  0  0  0  0  0  0
  156.7349   49.8979  145.0569 O   0  0  0  0  0  0  0  0  0  0  0  0
  160.1982   43.9909  151.1656 C   0  0  2  0  0  0  0  0  0  0  0  0
  156.3457   47.5954  144.4369 C   0  0  0  0  0  0  0  0  0  0  0  0
  155.9716   47.0490  145.7010 O   0  0  0  0  0  0  0  0  0  0  0  0
  161.1849   43.6172  152.2061 C   0  0  0  0  0  0  0  0  0  0  0  0
  161.5523   44.4588  153.0609 O   0  0  0  0  0  0  0  0  0  0  0  0
  159.4996   45.0927  150.8385 N   0  0  0  0  0  0  0  0  0  0  0  0
  158.7383   44.8009  149.7566 C   0  0  0  0  0  0  0  0  0  0  0  0
  158.9287   43.5265  149.3732 N   0  0  1  0  0  0  0  0  0  0  0  0
  157.7999   48.3719  150.8692 N   0  0  0  0  0  0  0  0  0  0  0  0
  154.4462   45.3616  144.5349 O   0  5  0  0  0  0  0  0  0  0  0  0
  158.6939   48.3644  149.8684 C   0  0  2  0  0  0  0  0  0  0  0  0
  159.8526   47.7226  150.0800 N   0  0  0  0  0  0  0  0  0  0  0  0
  154.6760   45.4518  147.1566 O   0  0  0  0  0  0  0  0  0  0  0  0
  158.4870   48.9678  148.6745 N   0  0  0  0  0  0  0  0  0  0  0  0
  157.3358   49.6273  148.4273 C   0  0  1  0  0  0  0  0  0  0  0  0
  156.3102   49.6713  149.4889 C   0  0  1  0  0  0  0  0  0  0  0  0
  156.6224   48.9911  150.7717 C   0  0  0  0  0  0  0  0  0  0  0  0
  155.8190   48.9663  151.7288 O   0  0  0  0  0  0  0  0  0  0  0  0
  155.2840   50.3819  148.9947 N   0  0  0  0  0  0  0  0  0  0  0  0
  155.6246   50.7515  147.7288 C   0  0  0  0  0  0  0  0  0  0  0  0
  156.8498   50.3053  147.3879 N   0  0  2  0  0  0  0  0  0  0  0  0
  1  3  1  1  0  0  0
  1  4  2  0  0  0  0
  1  6  1  0  0  0  0
  1 22  1  0  0  0  0
  2 28  1  0  0  0  0
  2 35  1  6  0  0  0
  2 38  2  0  0  0  0
  2 10  1  0  0  0  0
  5  6  1  0  0  0  0
  7  5  1  1  0  0  0
  7  8  1  0  0  0  0
  7  9  1  0  0  0  0
  9 10  1  6  0  0  0
  9 11  1  0  0  0  0
 11 12  1  6  0  0  0
 11 13  1  0  0  0  0
 13  8  1  6  0  0  0
 13 33  1  0  0  0  0
 14 46  1  0  0  0  0
 14 17  1  0  0  0  0
 14 25  1  6  0  0  0
 15 16  1  0  0  0  0
 15 29  1  0  0  0  0
 16 18  1  1  0  0  0
 16 21  1  0  0  0  0
 17 19  1  6  0  0  0
 17 20  1  0  0  0  0
 20 22  1  6  0  0  0
 20 24  1  0  0  0  0
 23 21  1  1  0  0  0
 23 26  1  0  0  0  0
 23 33  1  0  0  0  0
 24 25  1  1  0  0  0
 24 27  1  0  0  0  0
 26 29  1  1  0  0  0
 26 31  1  0  0  0  0
 27 28  1  0  0  0  0
 29 30  2  0  0  0  0
 31 32  1  0  0  0  0
 33 32  1  6  0  0  0
 34 36  1  0  0  0  0
 34 42  1  0  0  0  0
 36 37  1  1  0  0  0
 36 39  1  0  0  0  0
 40 39  1  1  0  0  0
 40 41  1  0  0  0  0
 40 46  1  0  0  0  0
 41 42  1  1  0  0  0
 41 44  1  0  0  0  0
 42 43  2  0  0  0  0
 44 45  1  0  0  0  0
 46 45  1  6  0  0  0
M  CHG  2   3  -1  35  -1
M  END
>  <CHROM.1>
-79.78716612,2.17082294,158.36335636,46.30589893,147.78775141,3.01739901
-1.14984227,0.80773504

>  <Name>
ligand

>  <RI>
0

>  <Rbt.Current_Directory>
/home/itssahil/PROJECTS/Mol_Feturizer/Test_systems_manuscript/rnas/4yb0

>  <Rbt.Executable>
rbdock ($Id: //depot/dev/client3/rdock/2013.1/src/exe/rbdock.cxx#4 $)

>  <Rbt.Library>
libRbt.so (2013.1, Build901 2013/11/27)

>  <Rbt.Parameter_File>
/export/apps/rDock/src/rDock_2013.1_src/data/scripts/dock_solv.prm

>  <Rbt.Receptor>
prm/pocket_docking_7.prm

>  <SCORE>
-9.37199

>  <SCORE.INTER>
-11.1802

>  <SCORE.INTER.CONST>
1

>  <SCORE.INTER.POLAR>
0

>  <SCORE.INTER.ROT>
2

>  <SCORE.INTER.SOLV>
16.3451

>  <SCORE.INTER.VDW>
-17.8352

>  <SCORE.INTER.norm>
-0.243049

>  <SCORE.INTRA>
1.80825

>  <SCORE.INTRA.DIHEDRAL>
-0.0376276

>  <SCORE.INTRA.DIHEDRAL.0>
2.42188

>  <SCORE.INTRA.POLAR>
0

>  <SCORE.INTRA.POLAR.0>
0

>  <SCORE.INTRA.REPUL>
0

>  <SCORE.INTRA.REPUL.0>
0

>  <SCORE.INTRA.SOLV>
3.30671

>  <SCORE.INTRA.SOLV.lig_0>
-127.307

>  <SCORE.INTRA.VDW>
0.173705

>  <SCORE.INTRA.VDW.0>
-2.19936

>  <SCORE.INTRA.norm>
0.0393097

>  <SCORE.RESTR>
0

>  <SCORE.RESTR.CAVITY>
0

>  <SCORE.RESTR.norm>
0

>  <SCORE.SYSTEM>
0

>  <SCORE.SYSTEM.CONST>
0

>  <SCORE.SYSTEM.DIHEDRAL>
0

>  <SCORE.SYSTEM.SOLV>
0

>  <SCORE.SYSTEM.norm>
0

>  <SCORE.heavy>
46

>  <SCORE.norm>
-0.203739

>  <RMSD>
8.024

$$$$
ligand
 OpenBabel02271912143D
libRbt.so/2013.1/901 2013/11/27
 46 52  0  0  0  0  0  0  0  0999 V2000
  159.4348   45.7635  144.0392 P   0  0  1  0  0  0  0  0  0  0  0  0
  157.5948   41.9885  147.8856 P   0  0  1  0  0  0  0  0  0  0  0  0
  160.0602   47.0112  144.6077 O   0  5  0  0  0  0  0  0  0  0  0  0
  159.5532   45.5638  142.5439 O   0  0  0  0  0  0  0  0  0  0  0  0
  160.3628   43.2901  144.1823 C   0  0  0  0  0  0  0  0  0  0  0  0
  160.0114   44.4976  144.8454 O   0  0  0  0  0  0  0  0  0  0  0  0
  160.4938   42.1617  145.1919 C   0  0  1  0  0  0  0  0  0  0  0  0
  161.8774   41.9270  145.4118 O   0  0  0  0  0  0  0  0  0  0  0  0
  159.8840   42.4287  146.5622 C   0  0  1  0  0  0  0  0  0  0  0  0
  158.6536   41.7300  146.6822 O   0  0  0  0  0  0  0  0  0  0  0  0
  160.8751   41.8018  147.5170 C   0  0  1  0  0  0  0  0  0  0  0  0
  160.5214   40.4366  147.7477 O   0  0  0  0  0  0  0  0  0  0  0  0
  162.1886   41.7944  146.7903 C   0  0  2  0  0  0  0  0  0  0  0  0
  156.4030   47.2591  147.4473 C   0  0  1  0  0  0  0  0  0  0  0  0
  166.0386   43.5818  149.8772 N   0  0  0  0  0  0  0  0  0  0  0  0
  165.5249   42.3426  149.7612 C   0  0  1  0  0  0  0  0  0  0  0  0
  157.4261   47.2856  146.3311 C   0  0  2  0  0  0  0  0  0  0  0  0
  166.0285   41.3485  150.5263 N   0  0  0  0  0  0  0  0  0  0  0  0
  156.8972   48.1033  145.2836 O   0  0  0  0  0  0  0  0  0  0  0  0
  157.5615   45.8448  145.8749 C   0  0  2  0  0  0  0  0  0  0  0  0
  164.5181   42.0274  148.9151 N   0  0  0  0  0  0  0  0  0  0  0  0
  157.8863   45.7622  144.4879 O   0  0  0  0  0  0  0  0  0  0  0  0
  163.9600   42.9655  148.1204 C   0  0  2  0  0  0  0  0  0  0  0  0
  156.1777   45.2760  146.1806 C   0  0  2  0  0  0  0  0  0  0  0  0
  155.6148   46.0892  147.2124 O   0  0  0  0  0  0  0  0  0  0  0  0
  164.4691   44.3384  148.1955 C   0  0  2  0  0  0  0  0  0  0  0  0
  156.1623   43.8102  146.6257 C   0  0  0  0  0  0  0  0  0  0  0  0
  157.1392   43.5160  147.6234 O   0  0  0  0  0  0  0  0  0  0  0  0
  165.5739   44.6090  149.1455 C   0  0  0  0  0  0  0  0  0  0  0  0
  166.0502   45.7650  149.2490 O   0  0  0  0  0  0  0  0  0  0  0  0
  163.7438   45.0542  147.3178 N   0  0  0  0  0  0  0  0  0  0  0  0
  162.8526   44.2196  146.7308 C   0  0  0  0  0  0  0  0  0  0  0  0
  162.9848   42.9712  147.2119 N   0  0  1  0  0  0  0  0  0  0  0  0
  157.8830   49.5691  151.9319 N   0  0  0  0  0  0  0  0  0  0  0  0
  156.4229   41.0623  147.6199 O   0  5  0  0  0  0  0  0  0  0  0  0
  157.1910   50.0665  150.8953 C   0  0  2  0  0  0  0  0  0  0  0  0
  156.7947   51.3456  150.9740 N   0  0  0  0  0  0  0  0  0  0  0  0
  158.3266   41.9550  149.2053 O   0  0  0  0  0  0  0  0  0  0  0  0
  156.8751   49.3487  149.7919 N   0  0  0  0  0  0  0  0  0  0  0  0
  157.2522   48.0578  149.6797 C   0  0  1  0  0  0  0  0  0  0  0  0
  158.0179   47.4514  150.7871 C   0  0  1  0  0  0  0  0  0  0  0  0
  158.3136   48.3069  151.9646 C   0  0  0  0  0  0  0  0  0  0  0  0
  158.9596   47.8895  152.9497 O   0  0  0  0  0  0  0  0  0  0  0  0
  158.2577   46.1797  150.4299 N   0  0  0  0  0  0  0  0  0  0  0  0
  157.6993   45.9960  149.2012 C   0  0  0  0  0  0  0  0  0  0  0  0
  157.0957   47.1141  148.7517 N   0  0  2  0  0  0  0  0  0  0  0  0
  1  3  1  1  0  0  0
  1  4  2  0  0  0  0
  1  6  1  0  0  0  0
  1 22  1  0  0  0  0
  2 28  1  0  0  0  0
  2 35  1  6  0  0  0
  2 38  2  0  0  0  0
  2 10  1  0  0  0  0
  5  6  1  0  0  0  0
  7  5  1  6  0  0  0
  7  8  1  0  0  0  0
  7  9  1  0  0  0  0
  9 10  1  6  0  0  0
  9 11  1  0  0  0  0
 11 12  1  6  0  0  0
 11 13  1  0  0  0  0
 13  8  1  6  0  0  0
 13 33  1  0  0  0  0
 14 46  1  0  0  0  0
 14 17  1  0  0  0  0
 14 25  1  6  0  0  0
 15 16  1  0  0  0  0
 15 29  1  0  0  0  0
 16 18  1  1  0  0  0
 16 21  1  0  0  0  0
 17 19  1  6  0  0  0
 17 20  1  0  0  0  0
 20 22  1  6  0  0  0
 20 24  1  0  0  0  0
 23 21  1  1  0  0  0
 23 26  1  0  0  0  0
 23 33  1  0  0  0  0
 24 25  1  1  0  0  0
 24 27  1  0  0  0  0
 26 29  1  1  0  0  0
 26 31  1  0  0  0  0
 27 28  1  0  0  0  0
 29 30  2  0  0  0  0
 31 32  1  0  0  0  0
 33 32  1  6  0  0  0
 34 36  1  0  0  0  0
 34 42  1  0  0  0  0
 36 37  1  1  0  0  0
 36 39  1  0  0  0  0
 40 39  1  1  0  0  0
 40 41  1  0  0  0  0
 40 46  1  0  0  0  0
 41 42  1  1  0  0  0
 41 44  1  0  0  0  0
 42 43  2  0  0  0  0
 44 45  1  0  0  0  0
 46 45  1  6  0  0  0
M  CHG  2   3  -1  35  -1
M  END
>  <CHROM.1>
-145.77514904,107.06660499,159.73953913,44.83865646,147.66550476,2.63795500
-0.44449924,0.82645834

>  <Name>
ligand

>  <RI>
0

>  <Rbt.Current_Directory>
/home/itssahil/PROJECTS/Mol_Feturizer/Test_systems_manuscript/rnas/4yb0

>  <Rbt.Executable>
rbdock ($Id: //depot/dev/client3/rdock/2013.1/src/exe/rbdock.cxx#4 $)

>  <Rbt.Library>
libRbt.so (2013.1, Build901 2013/11/27)

>  <Rbt.Parameter_File>
/export/apps/rDock/src/rDock_2013.1_src/data/scripts/dock_solv.prm

>  <Rbt.Receptor>
prm/pocket_docking_8.prm

>  <SCORE>
-19.1829

>  <SCORE.INTER>
-18.7427

>  <SCORE.INTER.CONST>
1

>  <SCORE.INTER.POLAR>
0

>  <SCORE.INTER.ROT>
2

>  <SCORE.INTER.SOLV>
20.1299

>  <SCORE.INTER.VDW>
-24.1384

>  <SCORE.INTER.norm>
-0.40745

>  <SCORE.INTRA>
-0.44024

>  <SCORE.INTRA.DIHEDRAL>
-0.0176684

>  <SCORE.INTRA.DIHEDRAL.0>
2.42188

>  <SCORE.INTRA.POLAR>
0

>  <SCORE.INTRA.POLAR.0>
0

>  <SCORE.INTRA.REPUL>
0

>  <SCORE.INTRA.REPUL.0>
0

>  <SCORE.INTRA.SOLV>
-0.0232196

>  <SCORE.INTRA.SOLV.lig_0>
-127.307

>  <SCORE.INTRA.VDW>
-0.419796

>  <SCORE.INTRA.VDW.0>
-2.19936

>  <SCORE.INTRA.norm>
-0.00957044

>  <SCORE.RESTR>
0

>  <SCORE.RESTR.CAVITY>
0

>  <SCORE.RESTR.norm>
0

>  <SCORE.SYSTEM>
0

>  <SCORE.SYSTEM.CONST>
0

>  <SCORE.SYSTEM.DIHEDRAL>
0

>  <SCORE.SYSTEM.SOLV>
0

>  <SCORE.SYSTEM.norm>
0

>  <SCORE.heavy>
46

>  <SCORE.norm>
-0.41702

>  <RMSD>
8.027

$$$$
ligand
 OpenBabel02271912143D
libRbt.so/2013.1/901 2013/11/27
 46 52  0  0  0  0  0  0  0  0999 V2000
  156.9791   43.9182  147.0630 P   0  0  1  0  0  0  0  0  0  0  0  0
  160.8407   44.4856  142.9160 P   0  0  1  0  0  0  0  0  0  0  0  0
  157.4710   44.2390  148.4509 O   0  5  0  0  0  0  0  0  0  0  0  0
  155.4918   43.6892  146.9043 O   0  0  0  0  0  0  0  0  0  0  0  0
  156.6756   45.5920  145.0368 C   0  0  0  0  0  0  0  0  0  0  0  0
  157.5040   45.0635  146.0642 O   0  0  0  0  0  0  0  0  0  0  0  0
  157.5213   46.3429  144.0216 C   0  0  1  0  0  0  0  0  0  0  0  0
  157.3612   47.7342  144.2593 O   0  0  0  0  0  0  0  0  0  0  0  0
  159.0190   46.0703  144.0804 C   0  0  1  0  0  0  0  0  0  0  0  0
  159.3901   45.2082  143.0148 O   0  0  0  0  0  0  0  0  0  0  0  0
  159.6345   47.4274  143.8227 C   0  0  1  0  0  0  0  0  0  0  0  0
  159.8336   47.6051  142.4189 O   0  0  0  0  0  0  0  0  0  0  0  0
  158.5991   48.4286  144.2457 C   0  0  2  0  0  0  0  0  0  0  0  0
  161.1590   41.5970  147.4927 C   0  0  1  0  0  0  0  0  0  0  0  0
  158.4839   52.4352  147.6339 N   0  0  0  0  0  0  0  0  0  0  0  0
  158.1101   52.3816  146.3415 C   0  0  1  0  0  0  0  0  0  0  0  0
  159.8252   42.2192  147.8491 C   0  0  2  0  0  0  0  0  0  0  0  0
  157.6167   53.4945  145.7537 N   0  0  0  0  0  0  0  0  0  0  0  0
  159.0185   41.1961  148.4393 O   0  0  0  0  0  0  0  0  0  0  0  0
  159.2317   42.6816  146.5315 C   0  0  2  0  0  0  0  0  0  0  0  0
  158.2025   51.2660  145.5827 N   0  0  0  0  0  0  0  0  0  0  0  0
  157.8058   42.6317  146.5522 O   0  0  0  0  0  0  0  0  0  0  0  0
  158.6881   50.1157  146.0963 C   0  0  2  0  0  0  0  0  0  0  0  0
  159.8315   41.6883  145.5388 C   0  0  2  0  0  0  0  0  0  0  0  0
  161.0364   41.1926  146.1264 O   0  0  0  0  0  0  0  0  0  0  0  0
  159.1162   50.1017  147.4986 C   0  0  2  0  0  0  0  0  0  0  0  0
  160.1428   42.2630  144.1533 C   0  0  0  0  0  0  0  0  0  0  0  0
  160.8308   43.5121  144.2050 O   0  0  0  0  0  0  0  0  0  0  0  0
  158.9852   51.3614  148.2680 C   0  0  0  0  0  0  0  0  0  0  0  0
  159.3335   51.4061  149.4724 O   0  0  0  0  0  0  0  0  0  0  0  0
  159.5547   48.8539  147.7427 N   0  0  0  0  0  0  0  0  0  0  0  0
  159.4193   48.1314  146.6048 C   0  0  0  0  0  0  0  0  0  0  0  0
  158.9000   48.8881  145.6223 N   0  0  1  0  0  0  0  0  0  0  0  0
  165.5057   43.2035  149.9752 N   0  0  0  0  0  0  0  0  0  0  0  0
  160.8064   43.6463  141.6526 O   0  5  0  0  0  0  0  0  0  0  0  0
  164.7528   42.1113  150.1780 C   0  0  2  0  0  0  0  0  0  0  0  0
  165.1320   41.2721  151.1532 N   0  0  0  0  0  0  0  0  0  0  0  0
  161.9229   45.5147  143.1347 O   0  0  0  0  0  0  0  0  0  0  0  0
  163.6475   41.8184  149.4536 N   0  0  0  0  0  0  0  0  0  0  0  0
  163.2385   42.6363  148.4611 C   0  0  1  0  0  0  0  0  0  0  0  0
  164.0243   43.8564  148.1885 C   0  0  1  0  0  0  0  0  0  0  0  0
  165.2283   44.0968  149.0241 C   0  0  0  0  0  0  0  0  0  0  0  0
  165.9557   45.1024  148.8761 O   0  0  0  0  0  0  0  0  0  0  0  0
  163.4151   44.4787  147.1668 N   0  0  0  0  0  0  0  0  0  0  0  0
  162.3340   43.7242  146.8246 C   0  0  0  0  0  0  0  0  0  0  0  0
  162.2272   42.6222  147.5931 N   0  0  2  0  0  0  0  0  0  0  0  0
  1  3  1  1  0  0  0
  1  4  2  0  0  0  0
  1  6  1  0  0  0  0
  1 22  1  0  0  0  0
  2 28  1  0  0  0  0
  2 35  1  6  0  0  0
  2 38  2  0  0  0  0
  2 10  1  0  0  0  0
  5  6  1  0  0  0  0
  7  5  1  1  0  0  0
  7  8  1  0  0  0  0
  7  9  1  0  0  0  0
  9 10  1  6  0  0  0
  9 11  1  0  0  0  0
 11 12  1  6  0  0  0
 11 13  1  0  0  0  0
 13  8  1  1  0  0  0
 13 33  1  0  0  0  0
 14 46  1  0  0  0  0
 14 17  1  0  0  0  0
 14 25  1  6  0  0  0
 15 16  1  0  0  0  0
 15 29  1  0  0  0  0
 16 18  1  6  0  0  0
 16 21  1  0  0  0  0
 17 19  1  6  0  0  0
 17 20  1  0  0  0  0
 20 22  1  1  0  0  0
 20 24  1  0  0  0  0
 23 21  1  6  0  0  0
 23 26  1  0  0  0  0
 23 33  1  0  0  0  0
 24 25  1  1  0  0  0
 24 27  1  0  0  0  0
 26 29  1  6  0  0  0
 26 31  1  0  0  0  0
 27 28  1  0  0  0  0
 29 30  2  0  0  0  0
 31 32  1  0  0  0  0
 33 32  1  1  0  0  0
 34 36  1  0  0  0  0
 34 42  1  0  0  0  0
 36 37  1  6  0  0  0
 36 39  1  0  0  0  0
 40 39  1  6  0  0  0
 40 41  1  0  0  0  0
 40 46  1  0  0  0  0
 41 42  1  6  0  0  0
 41 44  1  0  0  0  0
 42 43  2  0  0  0  0
 44 45  1  0  0  0  0
 46 45  1  1  0  0  0
M  CHG  2   3  -1  35  -1
M  END
>  <CHROM.1>
-99.11551320,114.29845975,160.09612585,45.46786853,146.33499726,2.29081373
-0.73956810,0.26113253

>  <Name>
ligand

>  <RI>
0

>  <Rbt.Current_Directory>
/home/itssahil/PROJECTS/Mol_Feturizer/Test_systems_manuscript/rnas/4yb0

>  <Rbt.Executable>
rbdock ($Id: //depot/dev/client3/rdock/2013.1/src/exe/rbdock.cxx#4 $)

>  <Rbt.Library>
libRbt.so (2013.1, Build901 2013/11/27)

>  <Rbt.Parameter_File>
/export/apps/rDock/src/rDock_2013.1_src/data/scripts/dock_solv.prm

>  <Rbt.Receptor>
prm/pocket_docking_8.prm

>  <SCORE>
-12.8102

>  <SCORE.INTER>
-12.8295

>  <SCORE.INTER.CONST>
1

>  <SCORE.INTER.POLAR>
0

>  <SCORE.INTER.ROT>
2

>  <SCORE.INTER.SOLV>
14.7893

>  <SCORE.INTER.VDW>
-18.4161

>  <SCORE.INTER.norm>
-0.278902

>  <SCORE.INTRA>
0.0193018

>  <SCORE.INTRA.DIHEDRAL>
-0.0501065

>  <SCORE.INTRA.DIHEDRAL.0>
2.42188

>  <SCORE.INTRA.POLAR>
0

>  <SCORE.INTRA.POLAR.0>
0

>  <SCORE.INTRA.REPUL>
0

>  <SCORE.INTRA.REPUL.0>
0

>  <SCORE.INTRA.SOLV>
-0.0240741

>  <SCORE.INTRA.SOLV.lig_0>
-127.307

>  <SCORE.INTRA.VDW>
0.0563921

>  <SCORE.INTRA.VDW.0>
-2.19936

>  <SCORE.INTRA.norm>
0.000419605

>  <SCORE.RESTR>
0

>  <SCORE.RESTR.CAVITY>
0

>  <SCORE.RESTR.norm>
0

>  <SCORE.SYSTEM>
0

>  <SCORE.SYSTEM.CONST>
0

>  <SCORE.SYSTEM.DIHEDRAL>
0

>  <SCORE.SYSTEM.SOLV>
0

>  <SCORE.SYSTEM.norm>
0

>  <SCORE.heavy>
46

>  <SCORE.norm>
-0.278482

>  <RMSD>
8.028

$$$$
ligand
 OpenBabel02271912143D
libRbt.so/2013.1/901 2013/11/27
 46 52  0  0  0  0  0  0  0  0999 V2000
  159.8752   41.6517  149.5581 P   0  0  1  0  0  0  0  0  0  0  0  0
  160.7154   44.5988  144.7581 P   0  0  1  0  0  0  0  0  0  0  0  0
  160.0429   42.4357  150.8342 O   0  5  0  0  0  0  0  0  0  0  0  0
  159.3099   40.2541  149.6875 O   0  0  0  0  0  0  0  0  0  0  0  0
  158.0022   41.9597  147.7151 C   0  0  0  0  0  0  0  0  0  0  0  0
  159.0127   42.5382  148.5308 O   0  0  0  0  0  0  0  0  0  0  0  0
  157.6345   42.9119  146.5891 C   0  0  1  0  0  0  0  0  0  0  0  0
  156.3978   43.5273  146.9202 O   0  0  0  0  0  0  0  0  0  0  0  0
  158.6201   44.0456  146.3359 C   0  0  1  0  0  0  0  0  0  0  0  0
  159.3904   43.7595  145.1778 O   0  0  0  0  0  0  0  0  0  0  0  0
  157.7271   45.2261  146.0262 C   0  0  1  0  0  0  0  0  0  0  0  0
  157.4735   45.2802  144.6209 O   0  0  0  0  0  0  0  0  0  0  0  0
  156.4161   44.9284  146.6939 C   0  0  2  0  0  0  0  0  0  0  0  0
  163.9997   44.0519  149.0366 C   0  0  1  0  0  0  0  0  0  0  0  0
  156.9608   49.4812  149.2477 N   0  0  0  0  0  0  0  0  0  0  0  0
  157.1093   49.1975  147.9399 C   0  0  1  0  0  0  0  0  0  0  0  0
  162.8554   43.2973  149.6804 C   0  0  2  0  0  0  0  0  0  0  0  0
  157.4505   50.1894  147.0872 N   0  0  0  0  0  0  0  0  0  0  0  0
  163.4149   42.1758  150.3696 O   0  0  0  0  0  0  0  0  0  0  0  0
  161.9768   42.8408  148.5308 C   0  0  2  0  0  0  0  0  0  0  0  0
  156.9383   47.9610  147.4196 N   0  0  0  0  0  0  0  0  0  0  0  0
  161.3143   41.6135  148.8322 O   0  0  0  0  0  0  0  0  0  0  0  0
  156.6005   46.9174  148.2068 C   0  0  2  0  0  0  0  0  0  0  0  0
  162.9834   42.6911  147.3923 C   0  0  2  0  0  0  0  0  0  0  0  0
  164.0900   43.5402  147.7042 O   0  0  0  0  0  0  0  0  0  0  0  0
  156.4237   47.1534  149.6431 C   0  0  2  0  0  0  0  0  0  0  0  0
  162.4482   43.0468  146.0017 C   0  0  0  0  0  0  0  0  0  0  0  0
  161.7279   44.2784  145.9753 O   0  0  0  0  0  0  0  0  0  0  0  0
  156.6273   48.5341  150.1412 C   0  0  0  0  0  0  0  0  0  0  0  0
  156.4865   48.7939  151.3605 O   0  0  0  0  0  0  0  0  0  0  0  0
  156.1011   45.9633  150.1801 N   0  0  0  0  0  0  0  0  0  0  0  0
  156.0706   45.0472  149.1825 C   0  0  0  0  0  0  0  0  0  0  0  0
  156.3686   45.6207  148.0036 N   0  0  1  0  0  0  0  0  0  0  0  0
  160.7543   47.8990  150.5548 N   0  0  0  0  0  0  0  0  0  0  0  0
  161.2366   43.9530  143.4880 O   0  5  0  0  0  0  0  0  0  0  0  0
  160.7414   46.5920  150.8591 C   0  0  2  0  0  0  0  0  0  0  0  0
  159.7689   46.1573  151.6743 N   0  0  0  0  0  0  0  0  0  0  0  0
  160.4030   46.0747  144.8062 O   0  0  0  0  0  0  0  0  0  0  0  0
  161.6515   45.7052  150.3927 N   0  0  0  0  0  0  0  0  0  0  0  0
  162.6470   46.1068  149.5748 C   0  0  1  0  0  0  0  0  0  0  0  0
  162.7159   47.5338  149.2012 C   0  0  1  0  0  0  0  0  0  0  0  0
  161.6833   48.4402  149.7650 C   0  0  0  0  0  0  0  0  0  0  0  0
  161.6515   49.6623  149.5050 O   0  0  0  0  0  0  0  0  0  0  0  0
  163.7842   47.6640  148.3987 N   0  0  0  0  0  0  0  0  0  0  0  0
  164.3413   46.4279  148.2685 C   0  0  0  0  0  0  0  0  0  0  0  0
  163.6668   45.4966  148.9716 N   0  0  2  0  0  0  0  0  0  0  0  0
  1  3  1  1  0  0  0
  1  4  2  0  0  0  0
  1  6  1  0  0  0  0
  1 22  1  0  0  0  0
  2 28  1  0  0  0  0
  2 35  1  6  0  0  0
  2 38  2  0  0  0  0
  2 10  1  0  0  0  0
  5  6  1  0  0  0  0
  7  5  1  1  0  0  0
  7  8  1  0  0  0  0
  7  9  1  0  0  0  0
  9 10  1  6  0  0  0
  9 11  1  0  0  0  0
 11 12  1  6  0  0  0
 11 13  1  0  0  0  0
 13  8  1  1  0  0  0
 13 33  1  0  0  0  0
 14 46  1  0  0  0  0
 14 17  1  0  0  0  0
 14 25  1  6  0  0  0
 15 16  1  0  0  0  0
 15 29  1  0  0  0  0
 16 18  1  1  0  0  0
 16 21  1  0  0  0  0
 17 19  1  6  0  0  0
 17 20  1  0  0  0  0
 20 22  1  1  0  0  0
 20 24  1  0  0  0  0
 23 21  1  1  0  0  0
 23 26  1  0  0  0  0
 23 33  1  0  0  0  0
 24 25  1  1  0  0  0
 24 27  1  0  0  0  0
 26 29  1  1  0  0  0
 26 31  1  0  0  0  0
 27 28  1  0  0  0  0
 29 30  2  0  0  0  0
 31 32  1  0  0  0  0
 33 32  1  6  0  0  0
 34 36  1  0  0  0  0
 34 42  1  0  0  0  0
 36 37  1  1  0  0  0
 36 39  1  0  0  0  0
 40 39  1  1  0  0  0
 40 41  1  0  0  0  0
 40 46  1  0  0  0  0
 41 42  1  1  0  0  0
 41 44  1  0  0  0  0
 42 43  2  0  0  0  0
 44 45  1  0  0  0  0
 46 45  1  6  0  0  0
M  CHG  2   3  -1  35  -1
M  END
>  <CHROM.1>
167.67026547,10.85593218,159.90020200,45.09355465,148.17850025,0.69478633
0.28614861,-2.68345608

>  <Name>
ligand

>  <RI>
0

>  <Rbt.Current_Directory>
/home/itssahil/PROJECTS/Mol_Feturizer/Test_systems_manuscript/rnas/4yb0

>  <Rbt.Executable>
rbdock ($Id: //depot/dev/client3/rdock/2013.1/src/exe/rbdock.cxx#4 $)

>  <Rbt.Library>
libRbt.so (2013.1, Build901 2013/11/27)

>  <Rbt.Parameter_File>
/export/apps/rDock/src/rDock_2013.1_src/data/scripts/dock_solv.prm

>  <Rbt.Receptor>
prm/pocket_docking_7.prm

>  <SCORE>
-13.3242

>  <SCORE.INTER>
-14.002

>  <SCORE.INTER.CONST>
1

>  <SCORE.INTER.POLAR>
0

>  <SCORE.INTER.ROT>
2

>  <SCORE.INTER.SOLV>
7.47855

>  <SCORE.INTER.VDW>
-16.7608

>  <SCORE.INTER.norm>
-0.30439

>  <SCORE.INTRA>
0.677802

>  <SCORE.INTRA.DIHEDRAL>
-0.0191843

>  <SCORE.INTRA.DIHEDRAL.0>
2.42188

>  <SCORE.INTRA.POLAR>
0

>  <SCORE.INTRA.POLAR.0>
0

>  <SCORE.INTRA.REPUL>
0

>  <SCORE.INTRA.REPUL.0>
0

>  <SCORE.INTRA.SOLV>
1.27133

>  <SCORE.INTRA.SOLV.lig_0>
-127.307

>  <SCORE.INTRA.VDW>
0.0517307

>  <SCORE.INTRA.VDW.0>
-2.19936

>  <SCORE.INTRA.norm>
0.0147348

>  <SCORE.RESTR>
0

>  <SCORE.RESTR.CAVITY>
0

>  <SCORE.RESTR.norm>
0

>  <SCORE.SYSTEM>
0

>  <SCORE.SYSTEM.CONST>
0

>  <SCORE.SYSTEM.DIHEDRAL>
0

>  <SCORE.SYSTEM.SOLV>
0

>  <SCORE.SYSTEM.norm>
0

>  <SCORE.heavy>
46

>  <SCORE.norm>
-0.289655

>  <RMSD>
8.077

$$$$
ligand
 OpenBabel02271912143D
libRbt.so/2013.1/901 2013/11/27
 46 52  0  0  0  0  0  0  0  0999 V2000
  160.8499   42.1262  144.8736 P   0  0  1  0  0  0  0  0  0  0  0  0
  157.0586   46.2424  145.9292 P   0  0  1  0  0  0  0  0  0  0  0  0
  162.2530   42.4045  145.3478 O   0  5  0  0  0  0  0  0  0  0  0  0
  160.5670   40.7280  144.3692 O   0  0  0  0  0  0  0  0  0  0  0  0
  158.6947   41.7471  146.3606 C   0  0  0  0  0  0  0  0  0  0  0  0
  159.8296   42.5429  146.0443 O   0  0  0  0  0  0  0  0  0  0  0  0
  157.7154   42.5492  147.2016 C   0  0  1  0  0  0  0  0  0  0  0  0
  157.8415   42.1216  148.5504 O   0  0  0  0  0  0  0  0  0  0  0  0
  157.9344   44.0568  147.2105 C   0  0  1  0  0  0  0  0  0  0  0  0
  156.9699   44.6847  146.3786 O   0  0  0  0  0  0  0  0  0  0  0  0
  157.6443   44.4465  148.6426 C   0  0  1  0  0  0  0  0  0  0  0  0
  156.2568   44.7580  148.7834 O   0  0  0  0  0  0  0  0  0  0  0  0
  157.8980   43.2117  149.4577 C   0  0  2  0  0  0  0  0  0  0  0  0
  161.8309   46.5815  143.3796 C   0  0  1  0  0  0  0  0  0  0  0  0
  160.9619   45.2496  153.2001 N   0  0  0  0  0  0  0  0  0  0  0  0
  159.6527   45.4421  152.9511 C   0  0  1  0  0  0  0  0  0  0  0  0
  162.0161   45.1286  143.7647 C   0  0  2  0  0  0  0  0  0  0  0  0
  158.9484   46.2768  153.7477 N   0  0  0  0  0  0  0  0  0  0  0  0
  162.5955   44.4578  142.6421 O   0  0  0  0  0  0  0  0  0  0  0  0
  160.6198   44.6052  144.0444 C   0  0  2  0  0  0  0  0  0  0  0  0
  158.9898   44.8445  151.9352 N   0  0  0  0  0  0  0  0  0  0  0  0
  160.5086   43.2165  143.7360 O   0  0  0  0  0  0  0  0  0  0  0  0
  159.6242   44.0001  151.0941 C   0  0  2  0  0  0  0  0  0  0  0  0
  159.7584   45.4725  143.1291 C   0  0  2  0  0  0  0  0  0  0  0  0
  160.4900   46.6771  142.8919 O   0  0  0  0  0  0  0  0  0  0  0  0
  161.0525   43.7449  151.3050 C   0  0  2  0  0  0  0  0  0  0  0  0
  158.3727   45.8216  143.6811 C   0  0  0  0  0  0  0  0  0  0  0  0
  158.4042   46.2688  145.0359 O   0  0  0  0  0  0  0  0  0  0  0  0
  161.7121   44.4349  152.4386 C   0  0  0  0  0  0  0  0  0  0  0  0
  162.9319   44.2513  152.6675 O   0  0  0  0  0  0  0  0  0  0  0  0
  161.4253   42.8872  150.3386 N   0  0  0  0  0  0  0  0  0  0  0  0
  160.3382   42.6137  149.5780 C   0  0  0  0  0  0  0  0  0  0  0  0
  159.2624   43.2797  150.0326 N   0  0  1  0  0  0  0  0  0  0  0  0
  159.8594   50.5536  146.2033 N   0  0  0  0  0  0  0  0  0  0  0  0
  155.8577   46.4905  145.0357 O   0  5  0  0  0  0  0  0  0  0  0  0
  159.4126   50.0027  145.0641 C   0  0  2  0  0  0  0  0  0  0  0  0
  158.2927   50.5120  144.5294 N   0  0  0  0  0  0  0  0  0  0  0  0
  157.3082   47.0965  147.1483 O   0  0  0  0  0  0  0  0  0  0  0  0
  160.0267   48.9705  144.4399 N   0  0  0  0  0  0  0  0  0  0  0  0
  161.1522   48.4289  144.9509 C   0  0  1  0  0  0  0  0  0  0  0  0
  161.6959   48.9914  146.2033 C   0  0  1  0  0  0  0  0  0  0  0  0
  160.9545   50.1168  146.8274 C   0  0  0  0  0  0  0  0  0  0  0  0
  161.3357   50.6652  147.8838 O   0  0  0  0  0  0  0  0  0  0  0  0
  162.7969   48.2794  146.4916 N   0  0  0  0  0  0  0  0  0  0  0  0
  162.9437   47.3507  145.5061 C   0  0  0  0  0  0  0  0  0  0  0  0
  161.9621   47.4351  144.5864 N   0  0  2  0  0  0  0  0  0  0  0  0
  1  3  1  1  0  0  0
  1  4  2  0  0  0  0
  1  6  1  0  0  0  0
  1 22  1  0  0  0  0
  2 28  1  0  0  0  0
  2 35  1  6  0  0  0
  2 38  2  0  0  0  0
  2 10  1  0  0  0  0
  5  6  1  0  0  0  0
  7  5  1  6  0  0  0
  7  8  1  0  0  0  0
  7  9  1  0  0  0  0
  9 10  1  6  0  0  0
  9 11  1  0  0  0  0
 11 12  1  6  0  0  0
 11 13  1  0  0  0  0
 13  8  1  6  0  0  0
 13 33  1  0  0  0  0
 14 46  1  0  0  0  0
 14 17  1  0  0  0  0
 14 25  1  1  0  0  0
 15 16  1  0  0  0  0
 15 29  1  0  0  0  0
 16 18  1  6  0  0  0
 16 21  1  0  0  0  0
 17 19  1  6  0  0  0
 17 20  1  0  0  0  0
 20 22  1  6  0  0  0
 20 24  1  0  0  0  0
 23 21  1  6  0  0  0
 23 26  1  0  0  0  0
 23 33  1  0  0  0  0
 24 25  1  1  0  0  0
 24 27  1  0  0  0  0
 26 29  1  6  0  0  0
 26 31  1  0  0  0  0
 27 28  1  0  0  0  0
 29 30  2  0  0  0  0
 31 32  1  0  0  0  0
 33 32  1  1  0  0  0
 34 36  1  0  0  0  0
 34 42  1  0  0  0  0
 36 37  1  1  0  0  0
 36 39  1  0  0  0  0
 40 39  1  1  0  0  0
 40 41  1  0  0  0  0
 40 46  1  0  0  0  0
 41 42  1  1  0  0  0
 41 44  1  0  0  0  0
 42 43  2  0  0  0  0
 44 45  1  0  0  0  0
 46 45  1  6  0  0  0
M  CHG  2   3  -1  35  -1
M  END
>  <CHROM.1>
-166.54522673,-133.52084201,159.79765927,45.35915856,146.92728534,0.55865831
-1.49693361,-2.18289262

>  <Name>
ligand

>  <RI>
0

>  <Rbt.Current_Directory>
/home/itssahil/PROJECTS/Mol_Feturizer/Test_systems_manuscript/rnas/4yb0

>  <Rbt.Executable>
rbdock ($Id: //depot/dev/client3/rdock/2013.1/src/exe/rbdock.cxx#4 $)

>  <Rbt.Library>
libRbt.so (2013.1, Build901 2013/11/27)

>  <Rbt.Parameter_File>
/export/apps/rDock/src/rDock_2013.1_src/data/scripts/dock_solv.prm

>  <Rbt.Receptor>
prm/pocket_docking_8.prm

>  <SCORE>
-8.81639

>  <SCORE.INTER>
-8.20188

>  <SCORE.INTER.CONST>
1

>  <SCORE.INTER.POLAR>
0

>  <SCORE.INTER.ROT>
2

>  <SCORE.INTER.SOLV>
15.1456

>  <SCORE.INTER.VDW>
-15.4498

>  <SCORE.INTER.norm>
-0.178302

>  <SCORE.INTRA>
-0.614514

>  <SCORE.INTRA.DIHEDRAL>
-0.026341

>  <SCORE.INTRA.DIHEDRAL.0>
2.42188

>  <SCORE.INTRA.POLAR>
0

>  <SCORE.INTRA.POLAR.0>
0

>  <SCORE.INTRA.REPUL>
0

>  <SCORE.INTRA.REPUL.0>
0

>  <SCORE.INTRA.SOLV>
0.197263

>  <SCORE.INTRA.SOLV.lig_0>
-127.307

>  <SCORE.INTRA.VDW>
-0.699975

>  <SCORE.INTRA.VDW.0>
-2.19936

>  <SCORE.INTRA.norm>
-0.013359

>  <SCORE.RESTR>
0

>  <SCORE.RESTR.CAVITY>
0

>  <SCORE.RESTR.norm>
0

>  <SCORE.SYSTEM>
0

>  <SCORE.SYSTEM.CONST>
0

>  <SCORE.SYSTEM.DIHEDRAL>
0

>  <SCORE.SYSTEM.SOLV>
0

>  <SCORE.SYSTEM.norm>
0

>  <SCORE.heavy>
46

>  <SCORE.norm>
-0.191661

>  <RMSD>
8.092

$$$$
ligand
 OpenBabel02271912143D
libRbt.so/2013.1/901 2013/11/27
 46 52  0  0  0  0  0  0  0  0999 V2000
  155.9575   46.4944  144.2074 P   0  0  1  0  0  0  0  0  0  0  0  0
  157.2839   47.5277  149.6484 P   0  0  1  0  0  0  0  0  0  0  0  0
  157.1315   46.3451  143.2743 O   0  5  0  0  0  0  0  0  0  0  0  0
  154.5946   46.1525  143.6461 O   0  0  0  0  0  0  0  0  0  0  0  0
  155.2607   44.8832  146.1867 C   0  0  0  0  0  0  0  0  0  0  0  0
  156.2659   45.6566  145.5446 O   0  0  0  0  0  0  0  0  0  0  0  0
  155.6980   44.5318  147.5992 C   0  0  1  0  0  0  0  0  0  0  0  0
  156.1230   43.1763  147.6033 O   0  0  0  0  0  0  0  0  0  0  0  0
  156.8623   45.3449  148.1506 C   0  0  1  0  0  0  0  0  0  0  0  0
  156.3768   46.3111  149.0711 O   0  0  0  0  0  0  0  0  0  0  0  0
  157.6699   44.3254  148.9221 C   0  0  1  0  0  0  0  0  0  0  0  0
  157.2101   44.2726  150.2740 O   0  0  0  0  0  0  0  0  0  0  0  0
  157.3466   42.9979  148.3002 C   0  0  2  0  0  0  0  0  0  0  0  0
  158.8409   50.2026  145.1973 C   0  0  1  0  0  0  0  0  0  0  0  0
  162.2497   43.9017  146.6603 N   0  0  0  0  0  0  0  0  0  0  0  0
  161.5523   44.4690  147.6626 C   0  0  1  0  0  0  0  0  0  0  0  0
  158.1218   49.1160  144.4255 C   0  0  2  0  0  0  0  0  0  0  0  0
  162.1400   45.4298  148.4101 N   0  0  0  0  0  0  0  0  0  0  0  0
  157.4246   49.7455  143.3469 O   0  0  0  0  0  0  0  0  0  0  0  0
  157.1471   48.4996  145.4115 C   0  0  2  0  0  0  0  0  0  0  0  0
  160.2788   44.1333  147.9701 N   0  0  0  0  0  0  0  0  0  0  0  0
  155.9777   48.0101  144.7565 O   0  0  0  0  0  0  0  0  0  0  0  0
  159.6222   43.1852  147.2680 C   0  0  2  0  0  0  0  0  0  0  0  0
  156.8420   49.6713  146.3420 C   0  0  2  0  0  0  0  0  0  0  0  0
  157.9523   50.5673  146.2568 O   0  0  0  0  0  0  0  0  0  0  0  0
  160.3208   42.5260  146.1602 C   0  0  2  0  0  0  0  0  0  0  0  0
  156.6083   49.2923  147.8078 C   0  0  0  0  0  0  0  0  0  0  0  0
  157.5906   48.3919  148.3185 O   0  0  0  0  0  0  0  0  0  0  0  0
  161.7146   42.9454  145.8821 C   0  0  0  0  0  0  0  0  0  0  0  0
  162.3610   42.4129  144.9480 O   0  0  0  0  0  0  0  0  0  0  0  0
  159.4478   41.6452  145.6397 N   0  0  0  0  0  0  0  0  0  0  0  0
  158.2957   41.7279  146.3476 C   0  0  0  0  0  0  0  0  0  0  0  0
  158.4032   42.6488  147.3212 N   0  0  1  0  0  0  0  0  0  0  0  0
  164.0934   50.0414  145.0462 N   0  0  0  0  0  0  0  0  0  0  0  0
  156.3793   48.3259  150.5684 O   0  5  0  0  0  0  0  0  0  0  0  0
  163.2315   50.7335  144.2853 C   0  0  2  0  0  0  0  0  0  0  0  0
  163.7461   51.5192  143.3276 N   0  0  0  0  0  0  0  0  0  0  0  0
  158.5989   46.9747  150.1416 O   0  0  0  0  0  0  0  0  0  0  0  0
  161.8876   50.6807  144.4384 N   0  0  0  0  0  0  0  0  0  0  0  0
  161.3339   49.9056  145.3945 C   0  0  1  0  0  0  0  0  0  0  0  0
  162.2294   49.1175  146.2649 C   0  0  1  0  0  0  0  0  0  0  0  0
  163.6914   49.2413  146.0351 C   0  0  0  0  0  0  0  0  0  0  0  0
  164.5312   48.6118  146.7138 O   0  0  0  0  0  0  0  0  0  0  0  0
  161.4368   48.4504  147.1187 N   0  0  0  0  0  0  0  0  0  0  0  0
  160.1510   48.7803  146.8137 C   0  0  0  0  0  0  0  0  0  0  0  0
  160.0860   49.6510  145.7870 N   0  0  2  0  0  0  0  0  0  0  0  0
  1  3  1  6  0  0  0
  1  4  2  0  0  0  0
  1  6  1  0  0  0  0
  1 22  1  0  0  0  0
  2 28  1  0  0  0  0
  2 35  1  1  0  0  0
  2 38  2  0  0  0  0
  2 10  1  0  0  0  0
  5  6  1  0  0  0  0
  7  5  1  6  0  0  0
  7  8  1  0  0  0  0
  7  9  1  0  0  0  0
  9 10  1  1  0  0  0
  9 11  1  0  0  0  0
 11 12  1  1  0  0  0
 11 13  1  0  0  0  0
 13  8  1  6  0  0  0
 13 33  1  0  0  0  0
 14 46  1  0  0  0  0
 14 17  1  0  0  0  0
 14 25  1  1  0  0  0
 15 16  1  0  0  0  0
 15 29  1  0  0  0  0
 16 18  1  6  0  0  0
 16 21  1  0  0  0  0
 17 19  1  6  0  0  0
 17 20  1  0  0  0  0
 20 22  1  6  0  0  0
 20 24  1  0  0  0  0
 23 21  1  6  0  0  0
 23 26  1  0  0  0  0
 23 33  1  0  0  0  0
 24 25  1  1  0  0  0
 24 27  1  0  0  0  0
 26 29  1  6  0  0  0
 26 31  1  0  0  0  0
 27 28  1  0  0  0  0
 29 30  2  0  0  0  0
 31 32  1  0  0  0  0
 33 32  1  1  0  0  0
 34 36  1  0  0  0  0
 34 42  1  0  0  0  0
 36 37  1  1  0  0  0
 36 39  1  0  0  0  0
 40 39  1  1  0  0  0
 40 41  1  0  0  0  0
 40 46  1  0  0  0  0
 41 42  1  1  0  0  0
 41 44  1  0  0  0  0
 42 43  2  0  0  0  0
 44 45  1  0  0  0  0
 46 45  1  6  0  0  0
M  CHG  2   3  -1  35  -1
M  END
>  <CHROM.1>
133.70237319,107.86849647,158.86790488,46.73797823,146.56756078,2.23530266
-0.10746205,2.84679639

>  <Name>
ligand

>  <RI>
0

>  <Rbt.Current_Directory>
/home/itssahil/PROJECTS/Mol_Feturizer/Test_systems_manuscript/rnas/4yb0

>  <Rbt.Executable>
rbdock ($Id: //depot/dev/client3/rdock/2013.1/src/exe/rbdock.cxx#4 $)

>  <Rbt.Library>
libRbt.so (2013.1, Build901 2013/11/27)

>  <Rbt.Parameter_File>
/export/apps/rDock/src/rDock_2013.1_src/data/scripts/dock_solv.prm

>  <Rbt.Receptor>
prm/pocket_docking_8.prm

>  <SCORE>
-15.551

>  <SCORE.INTER>
-16.1741

>  <SCORE.INTER.CONST>
1

>  <SCORE.INTER.POLAR>
0

>  <SCORE.INTER.ROT>
2

>  <SCORE.INTER.SOLV>
21.4938

>  <SCORE.INTER.VDW>
-22.8807

>  <SCORE.INTER.norm>
-0.351612

>  <SCORE.INTRA>
0.623134

>  <SCORE.INTRA.DIHEDRAL>
-0.0537987

>  <SCORE.INTRA.DIHEDRAL.0>
2.42188

>  <SCORE.INTRA.POLAR>
0

>  <SCORE.INTRA.POLAR.0>
0

>  <SCORE.INTRA.REPUL>
0

>  <SCORE.INTRA.REPUL.0>
0

>  <SCORE.INTRA.SOLV>
1.03922

>  <SCORE.INTRA.SOLV.lig_0>
-127.307

>  <SCORE.INTRA.VDW>
0.130426

>  <SCORE.INTRA.VDW.0>
-2.19936

>  <SCORE.INTRA.norm>
0.0135464

>  <SCORE.RESTR>
0

>  <SCORE.RESTR.CAVITY>
0

>  <SCORE.RESTR.norm>
0

>  <SCORE.SYSTEM>
0

>  <SCORE.SYSTEM.CONST>
0

>  <SCORE.SYSTEM.DIHEDRAL>
0

>  <SCORE.SYSTEM.SOLV>
0

>  <SCORE.SYSTEM.norm>
0

>  <SCORE.heavy>
46

>  <SCORE.norm>
-0.338065

>  <RMSD>
8.127

$$$$
ligand
 OpenBabel02271912143D
libRbt.so/2013.1/901 2013/11/27
 46 52  0  0  0  0  0  0  0  0999 V2000
  157.2585   47.6720  149.6674 P   0  0  1  0  0  0  0  0  0  0  0  0
  155.9226   46.4288  144.2729 P   0  0  1  0  0  0  0  0  0  0  0  0
  158.5943   47.1556  150.1366 O   0  5  0  0  0  0  0  0  0  0  0  0
  156.5315   48.6204  150.5956 O   0  0  0  0  0  0  0  0  0  0  0  0
  156.8038   49.5266  147.8362 C   0  0  0  0  0  0  0  0  0  0  0  0
  157.4513   48.3165  148.2070 O   0  0  0  0  0  0  0  0  0  0  0  0
  156.8350   49.6912  146.3257 C   0  0  1  0  0  0  0  0  0  0  0  0
  157.8378   50.6460  146.0083 O   0  0  0  0  0  0  0  0  0  0  0  0
  157.1757   48.4360  145.5324 C   0  0  1  0  0  0  0  0  0  0  0  0
  155.9943   47.9008  144.9542 O   0  0  0  0  0  0  0  0  0  0  0  0
  158.0531   48.9531  144.4145 C   0  0  1  0  0  0  0  0  0  0  0  0
  157.2418   49.3085  143.2931 O   0  0  0  0  0  0  0  0  0  0  0  0
  158.6613   50.2242  144.9320 C   0  0  2  0  0  0  0  0  0  0  0  0
  157.4021   43.0810  148.2722 C   0  0  1  0  0  0  0  0  0  0  0  0
  163.8311   50.5667  144.0935 N   0  0  0  0  0  0  0  0  0  0  0  0
  162.7996   50.9537  143.3193 C   0  0  1  0  0  0  0  0  0  0  0  0
  157.6279   44.3350  149.0906 C   0  0  2  0  0  0  0  0  0  0  0  0
  163.0557   51.5301  142.1237 N   0  0  0  0  0  0  0  0  0  0  0  0
  157.1366   44.0807  150.4096 O   0  0  0  0  0  0  0  0  0  0  0  0
  156.8084   45.4142  148.4082 C   0  0  2  0  0  0  0  0  0  0  0  0
  161.5028   50.7956  143.6688 N   0  0  0  0  0  0  0  0  0  0  0  0
  156.3409   46.3870  149.3416 O   0  0  0  0  0  0  0  0  0  0  0  0
  161.1656   50.2254  144.8453 C   0  0  2  0  0  0  0  0  0  0  0  0
  155.6669   44.6116  147.7878 C   0  0  2  0  0  0  0  0  0  0  0  0
  156.1450   43.2753  147.6187 O   0  0  0  0  0  0  0  0  0  0  0  0
  162.2388   49.7781  145.7386 C   0  0  2  0  0  0  0  0  0  0  0  0
  155.1568   45.1409  146.4438 C   0  0  0  0  0  0  0  0  0  0  0  0
  156.2060   45.4523  145.5281 O   0  0  0  0  0  0  0  0  0  0  0  0
  163.6357   49.9844  145.2890 C   0  0  0  0  0  0  0  0  0  0  0  0
  164.5935   49.6234  146.0144 O   0  0  0  0  0  0  0  0  0  0  0  0
  161.6318   49.2519  146.8172 N   0  0  0  0  0  0  0  0  0  0  0  0
  160.2931   49.3532  146.6365 C   0  0  0  0  0  0  0  0  0  0  0  0
  160.0172   49.9365  145.4570 N   0  0  1  0  0  0  0  0  0  0  0  0
  161.8473   45.0571  146.2790 N   0  0  0  0  0  0  0  0  0  0  0  0
  154.4886   46.2494  143.8108 O   0  5  0  0  0  0  0  0  0  0  0  0
  161.1168   45.4681  147.3269 C   0  0  2  0  0  0  0  0  0  0  0  0
  161.5519   46.5443  147.9990 N   0  0  0  0  0  0  0  0  0  0  0  0
  157.0736   46.2722  143.3091 O   0  0  0  0  0  0  0  0  0  0  0  0
  159.9806   44.8555  147.7345 N   0  0  0  0  0  0  0  0  0  0  0  0
  159.5152   43.7672  147.0862 C   0  0  1  0  0  0  0  0  0  0  0  0
  160.2738   43.2652  145.9230 C   0  0  1  0  0  0  0  0  0  0  0  0
  161.5145   43.9910  145.5493 C   0  0  0  0  0  0  0  0  0  0  0  0
  162.2231   43.6490  144.5782 O   0  0  0  0  0  0  0  0  0  0  0  0
  159.6090   42.1892  145.4730 N   0  0  0  0  0  0  0  0  0  0  0  0
  158.5205   42.0256  146.2754 C   0  0  0  0  0  0  0  0  0  0  0  0
  158.4630   42.9639  147.2412 N   0  0  2  0  0  0  0  0  0  0  0  0
  1  3  1  1  0  0  0
  1  4  2  0  0  0  0
  1  6  1  0  0  0  0
  1 22  1  0  0  0  0
  2 28  1  0  0  0  0
  2 35  1  6  0  0  0
  2 38  2  0  0  0  0
  2 10  1  0  0  0  0
  5  6  1  0  0  0  0
  7  5  1  1  0  0  0
  7  8  1  0  0  0  0
  7  9  1  0  0  0  0
  9 10  1  6  0  0  0
  9 11  1  0  0  0  0
 11 12  1  6  0  0  0
 11 13  1  0  0  0  0
 13  8  1  1  0  0  0
 13 33  1  0  0  0  0
 14 46  1  0  0  0  0
 14 17  1  0  0  0  0
 14 25  1  6  0  0  0
 15 16  1  0  0  0  0
 15 29  1  0  0  0  0
 16 18  1  6  0  0  0
 16 21  1  0  0  0  0
 17 19  1  1  0  0  0
 17 20  1  0  0  0  0
 20 22  1  1  0  0  0
 20 24  1  0  0  0  0
 23 21  1  6  0  0  0
 23 26  1  0  0  0  0
 23 33  1  0  0  0  0
 24 25  1  6  0  0  0
 24 27  1  0  0  0  0
 26 29  1  6  0  0  0
 26 31  1  0  0  0  0
 27 28  1  0  0  0  0
 29 30  2  0  0  0  0
 31 32  1  0  0  0  0
 33 32  1  1  0  0  0
 34 36  1  0  0  0  0
 34 42  1  0  0  0  0
 36 37  1  1  0  0  0
 36 39  1  0  0  0  0
 40 39  1  1  0  0  0
 40 41  1  0  0  0  0
 40 46  1  0  0  0  0
 41 42  1  1  0  0  0
 41 44  1  0  0  0  0
 42 43  2  0  0  0  0
 44 45  1  0  0  0  0
 46 45  1  6  0  0  0
M  CHG  2   3  -1  35  -1
M  END
>  <CHROM.1>
-140.87822418,4.17312215,158.77978418,47.02444083,146.39694500,2.26812086
-0.23012747,2.80609893

>  <Name>
ligand

>  <RI>
0

>  <Rbt.Current_Directory>
/home/itssahil/PROJECTS/Mol_Feturizer/Test_systems_manuscript/rnas/4yb0

>  <Rbt.Executable>
rbdock ($Id: //depot/dev/client3/rdock/2013.1/src/exe/rbdock.cxx#4 $)

>  <Rbt.Library>
libRbt.so (2013.1, Build901 2013/11/27)

>  <Rbt.Parameter_File>
/export/apps/rDock/src/rDock_2013.1_src/data/scripts/dock_solv.prm

>  <Rbt.Receptor>
prm/pocket_docking_8.prm

>  <SCORE>
-14.4869

>  <SCORE.INTER>
-15.4521

>  <SCORE.INTER.CONST>
1

>  <SCORE.INTER.POLAR>
0

>  <SCORE.INTER.ROT>
2

>  <SCORE.INTER.SOLV>
20.2508

>  <SCORE.INTER.VDW>
-21.985

>  <SCORE.INTER.norm>
-0.335916

>  <SCORE.INTRA>
0.96522

>  <SCORE.INTRA.DIHEDRAL>
0.00592552

>  <SCORE.INTRA.DIHEDRAL.0>
2.42188

>  <SCORE.INTRA.POLAR>
0

>  <SCORE.INTRA.POLAR.0>
0

>  <SCORE.INTRA.REPUL>
0

>  <SCORE.INTRA.REPUL.0>
0

>  <SCORE.INTRA.SOLV>
2.81706

>  <SCORE.INTRA.SOLV.lig_0>
-127.307

>  <SCORE.INTRA.VDW>
-0.446271

>  <SCORE.INTRA.VDW.0>
-2.19936

>  <SCORE.INTRA.norm>
0.020983

>  <SCORE.RESTR>
0

>  <SCORE.RESTR.CAVITY>
0

>  <SCORE.RESTR.norm>
0

>  <SCORE.SYSTEM>
0

>  <SCORE.SYSTEM.CONST>
0

>  <SCORE.SYSTEM.DIHEDRAL>
0

>  <SCORE.SYSTEM.SOLV>
0

>  <SCORE.SYSTEM.norm>
0

>  <SCORE.heavy>
46

>  <SCORE.norm>
-0.314933

>  <RMSD>
8.141

$$$$
ligand
 OpenBabel02271912143D
libRbt.so/2013.1/901 2013/11/27
 46 52  0  0  0  0  0  0  0  0999 V2000
  160.5632   44.5769  142.8568 P   0  0  1  0  0  0  0  0  0  0  0  0
  157.0512   44.0185  147.3048 P   0  0  1  0  0  0  0  0  0  0  0  0
  161.7094   45.5348  143.0561 O   0  5  0  0  0  0  0  0  0  0  0  0
  160.5929   43.7322  141.6017 O   0  0  0  0  0  0  0  0  0  0  0  0
  160.1614   42.2705  144.0890 C   0  0  0  0  0  0  0  0  0  0  0  0
  160.4344   43.6631  144.1734 O   0  0  0  0  0  0  0  0  0  0  0  0
  159.7079   41.7467  145.4417 C   0  0  1  0  0  0  0  0  0  0  0  0
  160.7965   41.0498  146.0307 O   0  0  0  0  0  0  0  0  0  0  0  0
  159.2844   42.8064  146.4510 C   0  0  1  0  0  0  0  0  0  0  0  0
  157.8677   42.8403  146.5424 O   0  0  0  0  0  0  0  0  0  0  0  0
  159.8271   42.2816  147.7614 C   0  0  1  0  0  0  0  0  0  0  0  0
  158.8477   41.4510  148.3881 O   0  0  0  0  0  0  0  0  0  0  0  0
  160.9809   41.3938  147.3954 C   0  0  2  0  0  0  0  0  0  0  0  0
  158.5947   48.5336  144.7314 C   0  0  1  0  0  0  0  0  0  0  0  0
  164.8098   42.9860  150.6126 N   0  0  0  0  0  0  0  0  0  0  0  0
  163.7120   42.2499  150.8690 C   0  0  1  0  0  0  0  0  0  0  0  0
  159.5181   47.6341  143.9365 C   0  0  2  0  0  0  0  0  0  0  0  0
  163.4928   41.8145  152.1299 N   0  0  0  0  0  0  0  0  0  0  0  0
  159.4733   48.0691  142.5747 O   0  0  0  0  0  0  0  0  0  0  0  0
  158.9394   46.2385  144.0766 C   0  0  2  0  0  0  0  0  0  0  0  0
  162.7993   41.9168  149.9283 N   0  0  0  0  0  0  0  0  0  0  0  0
  159.2046   45.4424  142.9225 O   0  0  0  0  0  0  0  0  0  0  0  0
  162.9457   42.3166  148.6470 C   0  0  2  0  0  0  0  0  0  0  0  0
  157.4494   46.5212  144.2552 C   0  0  2  0  0  0  0  0  0  0  0  0
  157.3392   47.8500  144.7700 O   0  0  0  0  0  0  0  0  0  0  0  0
  164.1184   43.1237  148.2960 C   0  0  2  0  0  0  0  0  0  0  0  0
  156.7123   45.5542  145.1870 C   0  0  0  0  0  0  0  0  0  0  0  0
  157.4045   45.3178  146.4124 O   0  0  0  0  0  0  0  0  0  0  0  0
  165.0758   43.4493  149.3793 C   0  0  0  0  0  0  0  0  0  0  0  0
  166.0981   44.1344  149.1352 O   0  0  0  0  0  0  0  0  0  0  0  0
  164.0127   43.3835  146.9806 N   0  0  0  0  0  0  0  0  0  0  0  0
  162.8793   42.7966  146.5267 C   0  0  0  0  0  0  0  0  0  0  0  0
  162.2438   42.1585  147.5250 N   0  0  1  0  0  0  0  0  0  0  0  0
  161.0289   51.5887  148.2497 N   0  0  0  0  0  0  0  0  0  0  0  0
  155.5805   43.6827  147.1425 O   0  5  0  0  0  0  0  0  0  0  0  0
  160.6972   51.8412  146.9741 C   0  0  2  0  0  0  0  0  0  0  0  0
  161.0154   53.0471  146.4803 N   0  0  0  0  0  0  0  0  0  0  0  0
  157.6518   44.2325  148.6728 O   0  0  0  0  0  0  0  0  0  0  0  0
  160.0627   50.9518  146.1749 N   0  0  0  0  0  0  0  0  0  0  0  0
  159.7221   49.7310  146.6386 C   0  0  1  0  0  0  0  0  0  0  0  0
  160.0606   49.3911  148.0352 C   0  0  1  0  0  0  0  0  0  0  0  0
  160.7482   50.4285  148.8454 C   0  0  0  0  0  0  0  0  0  0  0  0
  161.0820   50.2367  150.0345 O   0  0  0  0  0  0  0  0  0  0  0  0
  159.6135   48.1419  148.2398 N   0  0  0  0  0  0  0  0  0  0  0  0
  159.0466   47.7226  147.0745 C   0  0  0  0  0  0  0  0  0  0  0  0
  159.1070   48.6697  146.1174 N   0  0  2  0  0  0  0  0  0  0  0  0
  1  3  1  1  0  0  0
  1  4  2  0  0  0  0
  1  6  1  0  0  0  0
  1 22  1  0  0  0  0
  2 28  1  0  0  0  0
  2 35  1  1  0  0  0
  2 38  2  0  0  0  0
  2 10  1  0  0  0  0
  5  6  1  0  0  0  0
  7  5  1  6  0  0  0
  7  8  1  0  0  0  0
  7  9  1  0  0  0  0
  9 10  1  1  0  0  0
  9 11  1  0  0  0  0
 11 12  1  6  0  0  0
 11 13  1  0  0  0  0
 13  8  1  6  0  0  0
 13 33  1  0  0  0  0
 14 46  1  0  0  0  0
 14 17  1  0  0  0  0
 14 25  1  1  0  0  0
 15 16  1  0  0  0  0
 15 29  1  0  0  0  0
 16 18  1  1  0  0  0
 16 21  1  0  0  0  0
 17 19  1  6  0  0  0
 17 20  1  0  0  0  0
 20 22  1  6  0  0  0
 20 24  1  0  0  0  0
 23 21  1  1  0  0  0
 23 26  1  0  0  0  0
 23 33  1  0  0  0  0
 24 25  1  1  0  0  0
 24 27  1  0  0  0  0
 26 29  1  1  0  0  0
 26 31  1  0  0  0  0
 27 28  1  0  0  0  0
 29 30  2  0  0  0  0
 31 32  1  0  0  0  0
 33 32  1  6  0  0  0
 34 36  1  0  0  0  0
 34 42  1  0  0  0  0
 36 37  1  1  0  0  0
 36 39  1  0  0  0  0
 40 39  1  1  0  0  0
 40 41  1  0  0  0  0
 40 46  1  0  0  0  0
 41 42  1  1  0  0  0
 41 44  1  0  0  0  0
 42 43  2  0  0  0  0
 44 45  1  0  0  0  0
 46 45  1  6  0  0  0
M  CHG  2   3  -1  35  -1
M  END
>  <CHROM.1>
-159.32093085,105.12055531,160.28954245,45.30488303,146.56414973,2.14320670
-0.83250682,0.10042081

>  <Name>
ligand

>  <RI>
0

>  <Rbt.Current_Directory>
/home/itssahil/PROJECTS/Mol_Feturizer/Test_systems_manuscript/rnas/4yb0

>  <Rbt.Executable>
rbdock ($Id: //depot/dev/client3/rdock/2013.1/src/exe/rbdock.cxx#4 $)

>  <Rbt.Library>
libRbt.so (2013.1, Build901 2013/11/27)

>  <Rbt.Parameter_File>
/export/apps/rDock/src/rDock_2013.1_src/data/scripts/dock_solv.prm

>  <Rbt.Receptor>
prm/pocket_docking_8.prm

>  <SCORE>
-13.6409

>  <SCORE.INTER>
-13.2545

>  <SCORE.INTER.CONST>
1

>  <SCORE.INTER.POLAR>
0

>  <SCORE.INTER.ROT>
2

>  <SCORE.INTER.SOLV>
14.3669

>  <SCORE.INTER.VDW>
-18.5586

>  <SCORE.INTER.norm>
-0.288141

>  <SCORE.INTRA>
-0.386444

>  <SCORE.INTRA.DIHEDRAL>
-0.0224265

>  <SCORE.INTRA.DIHEDRAL.0>
2.42188

>  <SCORE.INTRA.POLAR>
0

>  <SCORE.INTRA.POLAR.0>
0

>  <SCORE.INTRA.REPUL>
0

>  <SCORE.INTRA.REPUL.0>
0

>  <SCORE.INTRA.SOLV>
-0.0171201

>  <SCORE.INTRA.SOLV.lig_0>
-127.307

>  <SCORE.INTRA.VDW>
-0.36667

>  <SCORE.INTRA.VDW.0>
-2.19936

>  <SCORE.INTRA.norm>
-0.00840095

>  <SCORE.RESTR>
0

>  <SCORE.RESTR.CAVITY>
0

>  <SCORE.RESTR.norm>
0

>  <SCORE.SYSTEM>
0

>  <SCORE.SYSTEM.CONST>
0

>  <SCORE.SYSTEM.DIHEDRAL>
0

>  <SCORE.SYSTEM.SOLV>
0

>  <SCORE.SYSTEM.norm>
0

>  <SCORE.heavy>
46

>  <SCORE.norm>
-0.296542

>  <RMSD>
8.252

$$$$
ligand
 OpenBabel02271912143D
libRbt.so/2013.1/901 2013/11/27
 46 52  0  0  0  0  0  0  0  0999 V2000
  160.3290   44.3739  142.8000 P   0  0  1  0  0  0  0  0  0  0  0  0
  156.9623   44.1231  147.3863 P   0  0  1  0  0  0  0  0  0  0  0  0
  161.4764   45.3462  142.8944 O   0  5  0  0  0  0  0  0  0  0  0  0
  160.3228   43.4425  141.6075 O   0  0  0  0  0  0  0  0  0  0  0  0
  159.9772   42.1595  144.2044 C   0  0  0  0  0  0  0  0  0  0  0  0
  160.2462   43.5553  144.1814 O   0  0  0  0  0  0  0  0  0  0  0  0
  159.5692   41.7316  145.6045 C   0  0  1  0  0  0  0  0  0  0  0  0
  160.6792   41.0807  146.2062 O   0  0  0  0  0  0  0  0  0  0  0  0
  159.1730   42.8590  146.5494 C   0  0  1  0  0  0  0  0  0  0  0  0
  157.7598   42.8960  146.6833 O   0  0  0  0  0  0  0  0  0  0  0  0
  159.7594   42.4296  147.8755 C   0  0  1  0  0  0  0  0  0  0  0  0
  158.8042   41.6431  148.5904 O   0  0  0  0  0  0  0  0  0  0  0  0
  160.9051   41.5209  147.5365 C   0  0  2  0  0  0  0  0  0  0  0  0
  158.4025   48.4485  144.4523 C   0  0  1  0  0  0  0  0  0  0  0  0
  164.6986   43.5532  150.5408 N   0  0  0  0  0  0  0  0  0  0  0  0
  163.5964   42.8613  150.8860 C   0  0  1  0  0  0  0  0  0  0  0  0
  159.3044   47.4972  143.6939 C   0  0  2  0  0  0  0  0  0  0  0  0
  163.3613   42.6096  152.1932 N   0  0  0  0  0  0  0  0  0  0  0  0
  159.2144   47.8347  142.3069 O   0  0  0  0  0  0  0  0  0  0  0  0
  158.7369   46.1137  143.9507 C   0  0  2  0  0  0  0  0  0  0  0  0
  162.6943   42.3981  149.9912 N   0  0  0  0  0  0  0  0  0  0  0  0
  158.9691   45.2386  142.8478 O   0  0  0  0  0  0  0  0  0  0  0  0
  162.8568   42.6117  148.6679 C   0  0  2  0  0  0  0  0  0  0  0  0
  157.2520   46.4047  144.1563 C   0  0  2  0  0  0  0  0  0  0  0  0
  157.1520   47.7663  144.5792 O   0  0  0  0  0  0  0  0  0  0  0  0
  164.0352   43.3604  148.2200 C   0  0  2  0  0  0  0  0  0  0  0  0
  156.5494   45.5044  145.1772 C   0  0  0  0  0  0  0  0  0  0  0  0
  157.2811   45.3569  146.3935 O   0  0  0  0  0  0  0  0  0  0  0  0
  164.9802   43.8364  149.2574 C   0  0  0  0  0  0  0  0  0  0  0  0
  166.0067   44.4795  148.9308 O   0  0  0  0  0  0  0  0  0  0  0  0
  163.9457   43.4306  146.8799 N   0  0  0  0  0  0  0  0  0  0  0  0
  162.8166   42.7854  146.5003 C   0  0  0  0  0  0  0  0  0  0  0  0
  162.1680   42.2960  147.5714 N   0  0  1  0  0  0  0  0  0  0  0  0
  162.3426   50.4215  147.3195 N   0  0  0  0  0  0  0  0  0  0  0  0
  155.4888   43.7732  147.2952 O   0  5  0  0  0  0  0  0  0  0  0  0
  162.1697   50.4076  145.9888 C   0  0  2  0  0  0  0  0  0  0  0  0
  163.1240   50.9750  145.2360 N   0  0  0  0  0  0  0  0  0  0  0  0
  157.6050   44.4349  148.7159 O   0  0  0  0  0  0  0  0  0  0  0  0
  161.0924   49.8601  145.3790 N   0  0  0  0  0  0  0  0  0  0  0  0
  160.1098   49.2852  146.1038 C   0  0  1  0  0  0  0  0  0  0  0  0
  160.2413   49.2670  147.5745 C   0  0  1  0  0  0  0  0  0  0  0  0
  161.4504   49.8983  148.1620 C   0  0  0  0  0  0  0  0  0  0  0  0
  161.6573   49.9296  149.3942 O   0  0  0  0  0  0  0  0  0  0  0  0
  159.1446   48.6522  148.0451 N   0  0  0  0  0  0  0  0  0  0  0  0
  158.3862   48.3047  146.9684 C   0  0  0  0  0  0  0  0  0  0  0  0
  158.9578   48.6836  145.8082 N   0  0  2  0  0  0  0  0  0  0  0  0
  1  3  1  6  0  0  0
  1  4  2  0  0  0  0
  1  6  1  0  0  0  0
  1 22  1  0  0  0  0
  2 28  1  0  0  0  0
  2 35  1  1  0  0  0
  2 38  2  0  0  0  0
  2 10  1  0  0  0  0
  5  6  1  0  0  0  0
  7  5  1  6  0  0  0
  7  8  1  0  0  0  0
  7  9  1  0  0  0  0
  9 10  1  1  0  0  0
  9 11  1  0  0  0  0
 11 12  1  1  0  0  0
 11 13  1  0  0  0  0
 13  8  1  6  0  0  0
 13 33  1  0  0  0  0
 14 46  1  0  0  0  0
 14 17  1  0  0  0  0
 14 25  1  1  0  0  0
 15 16  1  0  0  0  0
 15 29  1  0  0  0  0
 16 18  1  1  0  0  0
 16 21  1  0  0  0  0
 17 19  1  6  0  0  0
 17 20  1  0  0  0  0
 20 22  1  6  0  0  0
 20 24  1  0  0  0  0
 23 21  1  1  0  0  0
 23 26  1  0  0  0  0
 23 33  1  0  0  0  0
 24 25  1  1  0  0  0
 24 27  1  0  0  0  0
 26 29  1  1  0  0  0
 26 31  1  0  0  0  0
 27 28  1  0  0  0  0
 29 30  2  0  0  0  0
 31 32  1  0  0  0  0
 33 32  1  6  0  0  0
 34 36  1  0  0  0  0
 34 42  1  0  0  0  0
 36 37  1  1  0  0  0
 36 39  1  0  0  0  0
 40 39  1  1  0  0  0
 40 41  1  0  0  0  0
 40 46  1  0  0  0  0
 41 42  1  1  0  0  0
 41 44  1  0  0  0  0
 42 43  2  0  0  0  0
 44 45  1  0  0  0  0
 46 45  1  6  0  0  0
M  CHG  2   3  -1  35  -1
M  END
>  <CHROM.1>
-164.15085139,64.95792166,160.30911849,45.23895215,146.41936825,2.23771436
-0.71333086,-0.19388691

>  <Name>
ligand

>  <RI>
0

>  <Rbt.Current_Directory>
/home/itssahil/PROJECTS/Mol_Feturizer/Test_systems_manuscript/rnas/4yb0

>  <Rbt.Executable>
rbdock ($Id: //depot/dev/client3/rdock/2013.1/src/exe/rbdock.cxx#4 $)

>  <Rbt.Library>
libRbt.so (2013.1, Build901 2013/11/27)

>  <Rbt.Parameter_File>
/export/apps/rDock/src/rDock_2013.1_src/data/scripts/dock_solv.prm

>  <Rbt.Receptor>
prm/pocket_docking_8.prm

>  <SCORE>
-13.6846

>  <SCORE.INTER>
-13.5116

>  <SCORE.INTER.CONST>
1

>  <SCORE.INTER.POLAR>
0

>  <SCORE.INTER.ROT>
2

>  <SCORE.INTER.SOLV>
15.1314

>  <SCORE.INTER.VDW>
-18.9849

>  <SCORE.INTER.norm>
-0.293731

>  <SCORE.INTRA>
-0.172999

>  <SCORE.INTRA.DIHEDRAL>
-0.0137455

>  <SCORE.INTRA.DIHEDRAL.0>
2.42188

>  <SCORE.INTRA.POLAR>
0

>  <SCORE.INTRA.POLAR.0>
0

>  <SCORE.INTRA.REPUL>
0

>  <SCORE.INTRA.REPUL.0>
0

>  <SCORE.INTRA.SOLV>
-0.00801425

>  <SCORE.INTRA.SOLV.lig_0>
-127.307

>  <SCORE.INTRA.VDW>
-0.162119

>  <SCORE.INTRA.VDW.0>
-2.19936

>  <SCORE.INTRA.norm>
-0.00376084

>  <SCORE.RESTR>
0

>  <SCORE.RESTR.CAVITY>
0

>  <SCORE.RESTR.norm>
0

>  <SCORE.SYSTEM>
0

>  <SCORE.SYSTEM.CONST>
0

>  <SCORE.SYSTEM.DIHEDRAL>
0

>  <SCORE.SYSTEM.SOLV>
0

>  <SCORE.SYSTEM.norm>
0

>  <SCORE.heavy>
46

>  <SCORE.norm>
-0.297492

>  <RMSD>
8.257

$$$$
ligand
 OpenBabel02271912143D
libRbt.so/2013.1/901 2013/11/27
 46 52  0  0  0  0  0  0  0  0999 V2000
  157.1670   47.7192  149.7665 P   0  0  1  0  0  0  0  0  0  0  0  0
  156.0243   46.4194  144.3410 P   0  0  1  0  0  0  0  0  0  0  0  0
  158.5096   47.2572  150.2716 O   0  5  0  0  0  0  0  0  0  0  0  0
  156.3784   48.6384  150.6736 O   0  0  0  0  0  0  0  0  0  0  0  0
  156.6866   49.5527  147.9207 C   0  0  0  0  0  0  0  0  0  0  0  0
  157.3721   48.3698  148.3106 O   0  0  0  0  0  0  0  0  0  0  0  0
  156.7510   49.7173  146.4112 C   0  0  1  0  0  0  0  0  0  0  0  0
  157.7227   50.7113  146.1185 O   0  0  0  0  0  0  0  0  0  0  0  0
  157.1624   48.4762  145.6294 C   0  0  1  0  0  0  0  0  0  0  0  0
  156.0190   47.8936  145.0213 O   0  0  0  0  0  0  0  0  0  0  0  0
  158.0475   49.0272  144.5340 C   0  0  1  0  0  0  0  0  0  0  0  0
  157.2524   49.3490  143.3911 O   0  0  0  0  0  0  0  0  0  0  0  0
  158.5905   50.3221  145.0649 C   0  0  2  0  0  0  0  0  0  0  0  0
  157.5312   43.1366  148.3838 C   0  0  1  0  0  0  0  0  0  0  0  0
  163.7578   50.9731  144.4156 N   0  0  0  0  0  0  0  0  0  0  0  0
  162.7320   51.3312  143.6203 C   0  0  1  0  0  0  0  0  0  0  0  0
  157.6850   44.3993  149.2057 C   0  0  2  0  0  0  0  0  0  0  0  0
  162.9944   51.9631  142.4545 N   0  0  0  0  0  0  0  0  0  0  0  0
  157.1697   44.1265  150.5118 O   0  0  0  0  0  0  0  0  0  0  0  0
  156.8410   45.4443  148.5000 C   0  0  2  0  0  0  0  0  0  0  0  0
  161.4353   51.0910  143.9197 N   0  0  0  0  0  0  0  0  0  0  0  0
  156.3106   46.3982  149.4191 O   0  0  0  0  0  0  0  0  0  0  0  0
  161.0924   50.4616  145.0639 C   0  0  2  0  0  0  0  0  0  0  0  0
  155.7493   44.5961  147.8513 C   0  0  2  0  0  0  0  0  0  0  0  0
  156.2849   43.2799  147.6972 O   0  0  0  0  0  0  0  0  0  0  0  0
  162.1592   50.0412  145.9776 C   0  0  2  0  0  0  0  0  0  0  0  0
  155.2539   45.1035  146.4935 C   0  0  0  0  0  0  0  0  0  0  0  0
  156.3135   45.4560  145.6050 O   0  0  0  0  0  0  0  0  0  0  0  0
  163.5564   50.3386  145.5833 C   0  0  0  0  0  0  0  0  0  0  0  0
  164.5088   50.0042  146.3283 O   0  0  0  0  0  0  0  0  0  0  0  0
  161.5477   49.4447  147.0164 N   0  0  0  0  0  0  0  0  0  0  0  0
  160.2119   49.4800  146.7936 C   0  0  0  0  0  0  0  0  0  0  0  0
  159.9425   50.0894  145.6259 N   0  0  1  0  0  0  0  0  0  0  0  0
  162.6358   42.2584  147.4843 N   0  0  0  0  0  0  0  0  0  0  0  0
  154.6113   46.1823  143.8419 O   0  5  0  0  0  0  0  0  0  0  0  0
  161.9452   42.2178  148.6342 C   0  0  2  0  0  0  0  0  0  0  0  0
  162.6216   41.9079  149.7503 N   0  0  0  0  0  0  0  0  0  0  0  0
  157.2056   46.3084  143.4081 O   0  0  0  0  0  0  0  0  0  0  0  0
  160.6175   42.4670  148.7199 N   0  0  0  0  0  0  0  0  0  0  0  0
  159.9030   42.7767  147.6176 C   0  0  1  0  0  0  0  0  0  0  0  0
  160.6056   42.8388  146.3203 C   0  0  1  0  0  0  0  0  0  0  0  0
  162.0608   42.5421  146.3144 C   0  0  0  0  0  0  0  0  0  0  0  0
  162.7461   42.5739  145.2697 O   0  0  0  0  0  0  0  0  0  0  0  0
  159.6787   43.1560  145.4025 N   0  0  0  0  0  0  0  0  0  0  0  0
  158.4930   43.2901  146.0593 C   0  0  0  0  0  0  0  0  0  0  0  0
  158.6226   43.0614  147.3812 N   0  0  2  0  0  0  0  0  0  0  0  0
  1  3  1  1  0  0  0
  1  4  2  0  0  0  0
  1  6  1  0  0  0  0
  1 22  1  0  0  0  0
  2 28  1  0  0  0  0
  2 35  1  6  0  0  0
  2 38  2  0  0  0  0
  2 10  1  0  0  0  0
  5  6  1  0  0  0  0
  7  5  1  1  0  0  0
  7  8  1  0  0  0  0
  7  9  1  0  0  0  0
  9 10  1  6  0  0  0
  9 11  1  0  0  0  0
 11 12  1  6  0  0  0
 11 13  1  0  0  0  0
 13  8  1  1  0  0  0
 13 33  1  0  0  0  0
 14 46  1  0  0  0  0
 14 17  1  0  0  0  0
 14 25  1  6  0  0  0
 15 16  1  0  0  0  0
 15 29  1  0  0  0  0
 16 18  1  6  0  0  0
 16 21  1  0  0  0  0
 17 19  1  1  0  0  0
 17 20  1  0  0  0  0
 20 22  1  1  0  0  0
 20 24  1  0  0  0  0
 23 21  1  6  0  0  0
 23 26  1  0  0  0  0
 23 33  1  0  0  0  0
 24 25  1  6  0  0  0
 24 27  1  0  0  0  0
 26 29  1  6  0  0  0
 26 31  1  0  0  0  0
 27 28  1  0  0  0  0
 29 30  2  0  0  0  0
 31 32  1  0  0  0  0
 33 32  1  1  0  0  0
 34 36  1  0  0  0  0
 34 42  1  0  0  0  0
 36 37  1  6  0  0  0
 36 39  1  0  0  0  0
 40 39  1  6  0  0  0
 40 41  1  0  0  0  0
 40 46  1  0  0  0  0
 41 42  1  6  0  0  0
 41 44  1  0  0  0  0
 42 43  2  0  0  0  0
 44 45  1  0  0  0  0
 46 45  1  1  0  0  0
M  CHG  2   3  -1  35  -1
M  END
>  <CHROM.1>
-138.60795812,73.43501803,158.87382827,46.81177553,146.65152215,1.89945759
-0.14983477,2.75627635

>  <Name>
ligand

>  <RI>
0

>  <Rbt.Current_Directory>
/home/itssahil/PROJECTS/Mol_Feturizer/Test_systems_manuscript/rnas/4yb0

>  <Rbt.Executable>
rbdock ($Id: //depot/dev/client3/rdock/2013.1/src/exe/rbdock.cxx#4 $)

>  <Rbt.Library>
libRbt.so (2013.1, Build901 2013/11/27)

>  <Rbt.Parameter_File>
/export/apps/rDock/src/rDock_2013.1_src/data/scripts/dock_solv.prm

>  <Rbt.Receptor>
prm/pocket_docking_7.prm

>  <SCORE>
-17.8536

>  <SCORE.INTER>
-17.4865

>  <SCORE.INTER.CONST>
1

>  <SCORE.INTER.POLAR>
0

>  <SCORE.INTER.ROT>
2

>  <SCORE.INTER.SOLV>
20.7344

>  <SCORE.INTER.VDW>
-23.5025

>  <SCORE.INTER.norm>
-0.380141

>  <SCORE.INTRA>
-0.367067

>  <SCORE.INTRA.DIHEDRAL>
-0.0227107

>  <SCORE.INTRA.DIHEDRAL.0>
2.42188

>  <SCORE.INTRA.POLAR>
0

>  <SCORE.INTRA.POLAR.0>
0

>  <SCORE.INTRA.REPUL>
0

>  <SCORE.INTRA.REPUL.0>
0

>  <SCORE.INTRA.SOLV>
-0.0198205

>  <SCORE.INTRA.SOLV.lig_0>
-127.307

>  <SCORE.INTRA.VDW>
-0.345801

>  <SCORE.INTRA.VDW.0>
-2.19936

>  <SCORE.INTRA.norm>
-0.00797971

>  <SCORE.RESTR>
0

>  <SCORE.RESTR.CAVITY>
0

>  <SCORE.RESTR.norm>
0

>  <SCORE.SYSTEM>
0

>  <SCORE.SYSTEM.CONST>
0

>  <SCORE.SYSTEM.DIHEDRAL>
0

>  <SCORE.SYSTEM.SOLV>
0

>  <SCORE.SYSTEM.norm>
0

>  <SCORE.heavy>
46

>  <SCORE.norm>
-0.388121

>  <RMSD>
8.317

$$$$
ligand
 OpenBabel02271912143D
libRbt.so/2013.1/901 2013/11/27
 46 52  0  0  0  0  0  0  0  0999 V2000
  156.4211   46.6366  144.3944 P   0  0  1  0  0  0  0  0  0  0  0  0
  160.9224   43.7372  146.3341 P   0  0  1  0  0  0  0  0  0  0  0  0
  155.9085   47.7196  145.3085 O   0  5  0  0  0  0  0  0  0  0  0  0
  155.8266   46.5822  143.0040 O   0  0  0  0  0  0  0  0  0  0  0  0
  158.7411   46.5678  143.1247 C   0  0  0  0  0  0  0  0  0  0  0  0
  158.0248   46.7386  144.3407 O   0  0  0  0  0  0  0  0  0  0  0  0
  160.2120   46.3220  143.4179 C   0  0  1  0  0  0  0  0  0  0  0  0
  160.9199   47.5247  143.1531 O   0  0  0  0  0  0  0  0  0  0  0  0
  160.5432   45.9405  144.8551 C   0  0  1  0  0  0  0  0  0  0  0  0
  160.8038   44.5467  144.9317 O   0  0  0  0  0  0  0  0  0  0  0  0
  161.8367   46.6757  145.1256 C   0  0  1  0  0  0  0  0  0  0  0  0
  162.9439   45.8466  144.7667 O   0  0  0  0  0  0  0  0  0  0  0  0
  161.8436   47.8435  144.1825 C   0  0  2  0  0  0  0  0  0  0  0  0
  156.1382   44.6019  148.7331 C   0  0  1  0  0  0  0  0  0  0  0  0
  163.0825   52.5629  146.1162 N   0  0  0  0  0  0  0  0  0  0  0  0
  163.8521   51.6539  145.4882 C   0  0  1  0  0  0  0  0  0  0  0  0
  155.8278   45.4913  147.5472 C   0  0  2  0  0  0  0  0  0  0  0  0
  165.1602   51.9282  145.2861 N   0  0  0  0  0  0  0  0  0  0  0  0
  154.4684   45.2497  147.1740 O   0  0  0  0  0  0  0  0  0  0  0  0
  156.7762   45.0450  146.4502 C   0  0  2  0  0  0  0  0  0  0  0  0
  163.3900   50.4634  145.0433 N   0  0  0  0  0  0  0  0  0  0  0  0
  156.2058   45.2319  145.1556 O   0  0  0  0  0  0  0  0  0  0  0  0
  162.0964   50.1147  145.2105 C   0  0  2  0  0  0  0  0  0  0  0  0
  156.9863   43.5695  146.7829 C   0  0  2  0  0  0  0  0  0  0  0  0
  156.7170   43.4177  148.1783 O   0  0  0  0  0  0  0  0  0  0  0  0
  161.2003   51.0566  145.8884 C   0  0  2  0  0  0  0  0  0  0  0  0
  158.3857   43.0276  146.4752 C   0  0  0  0  0  0  0  0  0  0  0  0
  159.4324   43.8779  146.9419 O   0  0  0  0  0  0  0  0  0  0  0  0
  161.7772   52.3418  146.3483 C   0  0  0  0  0  0  0  0  0  0  0  0
  161.0558   53.1863  146.9317 O   0  0  0  0  0  0  0  0  0  0  0  0
  159.9935   50.4640  145.9241 N   0  0  0  0  0  0  0  0  0  0  0  0
  160.1019   49.2547  145.3233 C   0  0  0  0  0  0  0  0  0  0  0  0
  161.3601   49.0489  144.8967 N   0  0  1  0  0  0  0  0  0  0  0  0
  159.2027   44.2493  152.9901 N   0  0  0  0  0  0  0  0  0  0  0  0
  161.1783   42.2887  145.9624 O   0  5  0  0  0  0  0  0  0  0  0  0
  158.3554   43.3520  152.4630 C   0  0  2  0  0  0  0  0  0  0  0  0
  158.2430   42.1689  153.0851 N   0  0  0  0  0  0  0  0  0  0  0  0
  161.8591   44.4786  147.2566 O   0  0  0  0  0  0  0  0  0  0  0  0
  157.6224   43.5788  151.3479 N   0  0  0  0  0  0  0  0  0  0  0  0
  157.7131   44.7550  150.6923 C   0  0  1  0  0  0  0  0  0  0  0  0
  158.6281   45.7855  151.2228 C   0  0  1  0  0  0  0  0  0  0  0  0
  159.4019   45.4507  152.4455 C   0  0  0  0  0  0  0  0  0  0  0  0
  160.1973   46.2560  152.9754 O   0  0  0  0  0  0  0  0  0  0  0  0
  158.5341   46.8379  150.3946 N   0  0  0  0  0  0  0  0  0  0  0  0
  157.6342   46.5079  149.4269 C   0  0  0  0  0  0  0  0  0  0  0  0
  157.1444   45.2642  149.5998 N   0  0  2  0  0  0  0  0  0  0  0  0
  1  3  1  1  0  0  0
  1  4  2  0  0  0  0
  1  6  1  0  0  0  0
  1 22  1  0  0  0  0
  2 28  1  0  0  0  0
  2 35  1  6  0  0  0
  2 38  2  0  0  0  0
  2 10  1  0  0  0  0
  5  6  1  0  0  0  0
  7  5  1  1  0  0  0
  7  8  1  0  0  0  0
  7  9  1  0  0  0  0
  9 10  1  6  0  0  0
  9 11  1  0  0  0  0
 11 12  1  6  0  0  0
 11 13  1  0  0  0  0
 13  8  1  6  0  0  0
 13 33  1  0  0  0  0
 14 46  1  0  0  0  0
 14 17  1  0  0  0  0
 14 25  1  6  0  0  0
 15 16  1  0  0  0  0
 15 29  1  0  0  0  0
 16 18  1  1  0  0  0
 16 21  1  0  0  0  0
 17 19  1  6  0  0  0
 17 20  1  0  0  0  0
 20 22  1  6  0  0  0
 20 24  1  0  0  0  0
 23 21  1  1  0  0  0
 23 26  1  0  0  0  0
 23 33  1  0  0  0  0
 24 25  1  1  0  0  0
 24 27  1  0  0  0  0
 26 29  1  1  0  0  0
 26 31  1  0  0  0  0
 27 28  1  0  0  0  0
 29 30  2  0  0  0  0
 31 32  1  0  0  0  0
 33 32  1  6  0  0  0
 34 36  1  0  0  0  0
 34 42  1  0  0  0  0
 36 37  1  6  0  0  0
 36 39  1  0  0  0  0
 40 39  1  6  0  0  0
 40 41  1  0  0  0  0
 40 46  1  0  0  0  0
 41 42  1  6  0  0  0
 41 44  1  0  0  0  0
 42 43  2  0  0  0  0
 44 45  1  0  0  0  0
 46 45  1  1  0  0  0
M  CHG  2   3  -1  35  -1
M  END
>  <CHROM.1>
-132.84759777,-176.11376484,159.38001574,46.50399447,146.86767614,0.78997508
-0.81305315,-1.29195720

>  <Name>
ligand

>  <RI>
0

>  <Rbt.Current_Directory>
/home/itssahil/PROJECTS/Mol_Feturizer/Test_systems_manuscript/rnas/4yb0

>  <Rbt.Executable>
rbdock ($Id: //depot/dev/client3/rdock/2013.1/src/exe/rbdock.cxx#4 $)

>  <Rbt.Library>
libRbt.so (2013.1, Build901 2013/11/27)

>  <Rbt.Parameter_File>
/export/apps/rDock/src/rDock_2013.1_src/data/scripts/dock_solv.prm

>  <Rbt.Receptor>
prm/pocket_docking_8.prm

>  <SCORE>
-11.1959

>  <SCORE.INTER>
-11.6236

>  <SCORE.INTER.CONST>
1

>  <SCORE.INTER.POLAR>
0

>  <SCORE.INTER.ROT>
2

>  <SCORE.INTER.SOLV>
14.3506

>  <SCORE.INTER.VDW>
-17.466

>  <SCORE.INTER.norm>
-0.252688

>  <SCORE.INTRA>
0.427793

>  <SCORE.INTRA.DIHEDRAL>
-0.014092

>  <SCORE.INTRA.DIHEDRAL.0>
2.42188

>  <SCORE.INTRA.POLAR>
0

>  <SCORE.INTRA.POLAR.0>
0

>  <SCORE.INTRA.REPUL>
0

>  <SCORE.INTRA.REPUL.0>
0

>  <SCORE.INTRA.SOLV>
0.0217

>  <SCORE.INTRA.SOLV.lig_0>
-127.307

>  <SCORE.INTRA.VDW>
0.423989

>  <SCORE.INTRA.VDW.0>
-2.19936

>  <SCORE.INTRA.norm>
0.00929985

>  <SCORE.RESTR>
0

>  <SCORE.RESTR.CAVITY>
0

>  <SCORE.RESTR.norm>
0

>  <SCORE.SYSTEM>
0

>  <SCORE.SYSTEM.CONST>
0

>  <SCORE.SYSTEM.DIHEDRAL>
0

>  <SCORE.SYSTEM.SOLV>
0

>  <SCORE.SYSTEM.norm>
0

>  <SCORE.heavy>
46

>  <SCORE.norm>
-0.243388

>  <RMSD>
8.334

$$$$
ligand
 OpenBabel02271912143D
libRbt.so/2013.1/901 2013/11/27
 46 52  0  0  0  0  0  0  0  0999 V2000
  157.6123   45.6524  147.1521 P   0  0  1  0  0  0  0  0  0  0  0  0
  160.4031   41.4903  144.4465 P   0  0  1  0  0  0  0  0  0  0  0  0
  158.3241   46.2371  148.3448 O   0  5  0  0  0  0  0  0  0  0  0  0
  156.3584   46.3636  146.6922 O   0  0  0  0  0  0  0  0  0  0  0  0
  158.3282   45.8191  144.6106 C   0  0  0  0  0  0  0  0  0  0  0  0
  158.6736   45.5049  145.9533 O   0  0  0  0  0  0  0  0  0  0  0  0
  159.3539   45.2276  143.6578 C   0  0  1  0  0  0  0  0  0  0  0  0
  160.2044   46.2779  143.2202 O   0  0  0  0  0  0  0  0  0  0  0  0
  160.2655   44.1602  144.2499 C   0  0  1  0  0  0  0  0  0  0  0  0
  159.8466   42.8765  143.8103 O   0  0  0  0  0  0  0  0  0  0  0  0
  161.6089   44.4563  143.6219 C   0  0  1  0  0  0  0  0  0  0  0  0
  161.7370   43.7301  142.3979 O   0  0  0  0  0  0  0  0  0  0  0  0
  161.5755   45.9133  143.2622 C   0  0  2  0  0  0  0  0  0  0  0  0
  159.1239   41.8757  149.7007 C   0  0  1  0  0  0  0  0  0  0  0  0
  162.0798   50.5953  145.5798 N   0  0  0  0  0  0  0  0  0  0  0  0
  161.3258   50.2255  144.5273 C   0  0  1  0  0  0  0  0  0  0  0  0
  158.6095   43.2591  149.3616 C   0  0  2  0  0  0  0  0  0  0  0  0
  160.5487   51.1494  143.9191 N   0  0  0  0  0  0  0  0  0  0  0  0
  157.3859   43.4492  150.0774 O   0  0  0  0  0  0  0  0  0  0  0  0
  158.3619   43.2408  147.8648 C   0  0  2  0  0  0  0  0  0  0  0  0
  161.3005   48.9676  144.0316 N   0  0  0  0  0  0  0  0  0  0  0  0
  157.2917   44.1110  147.4995 O   0  0  0  0  0  0  0  0  0  0  0  0
  162.0512   47.9895  144.5820 C   0  0  2  0  0  0  0  0  0  0  0  0
  158.0277   41.7729  147.6088 C   0  0  2  0  0  0  0  0  0  0  0  0
  158.6266   41.0217  148.6670 O   0  0  0  0  0  0  0  0  0  0  0  0
  162.8987   48.3216  145.7315 C   0  0  2  0  0  0  0  0  0  0  0  0
  158.5085   41.2230  146.2623 C   0  0  0  0  0  0  0  0  0  0  0  0
  159.8619   41.5655  145.9667 O   0  0  0  0  0  0  0  0  0  0  0  0
  162.8746   49.7205  146.2197 C   0  0  0  0  0  0  0  0  0  0  0  0
  163.5778   50.0600  147.2017 O   0  0  0  0  0  0  0  0  0  0  0  0
  163.5311   47.1839  146.0702 N   0  0  0  0  0  0  0  0  0  0  0  0
  163.1267   46.2099  145.2198 C   0  0  0  0  0  0  0  0  0  0  0  0
  162.2411   46.6942  144.3317 N   0  0  1  0  0  0  0  0  0  0  0  0
  163.6050   40.2906  151.9468 N   0  0  0  0  0  0  0  0  0  0  0  0
  159.6851   40.3734  143.7125 O   0  5  0  0  0  0  0  0  0  0  0  0
  162.3332   40.0640  152.3101 C   0  0  2  0  0  0  0  0  0  0  0  0
  162.1275   39.3224  153.4087 N   0  0  0  0  0  0  0  0  0  0  0  0
  161.9107   41.5398  144.5003 O   0  0  0  0  0  0  0  0  0  0  0  0
  161.2638   40.5379  151.6290 N   0  0  0  0  0  0  0  0  0  0  0  0
  161.4317   41.2830  150.5164 C   0  0  1  0  0  0  0  0  0  0  0  0
  162.8081   41.5690  150.0643 C   0  0  1  0  0  0  0  0  0  0  0  0
  163.9236   41.0027  150.8646 C   0  0  0  0  0  0  0  0  0  0  0  0
  165.1230   41.1921  150.5687 O   0  0  0  0  0  0  0  0  0  0  0  0
  162.6946   42.3112  148.9514 N   0  0  0  0  0  0  0  0  0  0  0  0
  161.3638   42.4868  148.7202 C   0  0  0  0  0  0  0  0  0  0  0  0
  160.6071   41.8719  149.6507 N   0  0  2  0  0  0  0  0  0  0  0  0
  1  3  1  1  0  0  0
  1  4  2  0  0  0  0
  1  6  1  0  0  0  0
  1 22  1  0  0  0  0
  2 28  1  0  0  0  0
  2 35  1  6  0  0  0
  2 38  2  0  0  0  0
  2 10  1  0  0  0  0
  5  6  1  0  0  0  0
  7  5  1  1  0  0  0
  7  8  1  0  0  0  0
  7  9  1  0  0  0  0
  9 10  1  6  0  0  0
  9 11  1  0  0  0  0
 11 12  1  6  0  0  0
 11 13  1  0  0  0  0
 13  8  1  1  0  0  0
 13 33  1  0  0  0  0
 14 46  1  0  0  0  0
 14 17  1  0  0  0  0
 14 25  1  6  0  0  0
 15 16  1  0  0  0  0
 15 29  1  0  0  0  0
 16 18  1  6  0  0  0
 16 21  1  0  0  0  0
 17 19  1  1  0  0  0
 17 20  1  0  0  0  0
 20 22  1  1  0  0  0
 20 24  1  0  0  0  0
 23 21  1  6  0  0  0
 23 26  1  0  0  0  0
 23 33  1  0  0  0  0
 24 25  1  1  0  0  0
 24 27  1  0  0  0  0
 26 29  1  6  0  0  0
 26 31  1  0  0  0  0
 27 28  1  0  0  0  0
 29 30  2  0  0  0  0
 31 32  1  0  0  0  0
 33 32  1  1  0  0  0
 34 36  1  0  0  0  0
 34 42  1  0  0  0  0
 36 37  1  6  0  0  0
 36 39  1  0  0  0  0
 40 39  1  6  0  0  0
 40 41  1  0  0  0  0
 40 46  1  0  0  0  0
 41 42  1  6  0  0  0
 41 44  1  0  0  0  0
 42 43  2  0  0  0  0
 44 45  1  0  0  0  0
 46 45  1  1  0  0  0
M  CHG  2   3  -1  35  -1
M  END
>  <CHROM.1>
-42.38349330,137.76873723,160.59248292,44.20220729,146.82779575,1.60131766
-0.76594647,-0.65048524

>  <Name>
ligand

>  <RI>
0

>  <Rbt.Current_Directory>
/home/itssahil/PROJECTS/Mol_Feturizer/Test_systems_manuscript/rnas/4yb0

>  <Rbt.Executable>
rbdock ($Id: //depot/dev/client3/rdock/2013.1/src/exe/rbdock.cxx#4 $)

>  <Rbt.Library>
libRbt.so (2013.1, Build901 2013/11/27)

>  <Rbt.Parameter_File>
/export/apps/rDock/src/rDock_2013.1_src/data/scripts/dock_solv.prm

>  <Rbt.Receptor>
prm/pocket_docking_7.prm

>  <SCORE>
-11.1068

>  <SCORE.INTER>
-11.6502

>  <SCORE.INTER.CONST>
1

>  <SCORE.INTER.POLAR>
0

>  <SCORE.INTER.ROT>
2

>  <SCORE.INTER.SOLV>
12.1942

>  <SCORE.INTER.VDW>
-16.7649

>  <SCORE.INTER.norm>
-0.253265

>  <SCORE.INTRA>
0.543407

>  <SCORE.INTRA.DIHEDRAL>
0.0206529

>  <SCORE.INTRA.DIHEDRAL.0>
2.42188

>  <SCORE.INTRA.POLAR>
0

>  <SCORE.INTRA.POLAR.0>
0

>  <SCORE.INTRA.REPUL>
0

>  <SCORE.INTRA.REPUL.0>
0

>  <SCORE.INTRA.SOLV>
0.0260867

>  <SCORE.INTRA.SOLV.lig_0>
-127.307

>  <SCORE.INTRA.VDW>
0.520037

>  <SCORE.INTRA.VDW.0>
-2.19936

>  <SCORE.INTRA.norm>
0.0118132

>  <SCORE.RESTR>
0

>  <SCORE.RESTR.CAVITY>
0

>  <SCORE.RESTR.norm>
0

>  <SCORE.SYSTEM>
0

>  <SCORE.SYSTEM.CONST>
0

>  <SCORE.SYSTEM.DIHEDRAL>
0

>  <SCORE.SYSTEM.SOLV>
0

>  <SCORE.SYSTEM.norm>
0

>  <SCORE.heavy>
46

>  <SCORE.norm>
-0.241452

>  <RMSD>
8.572

$$$$
ligand
 OpenBabel02271912143D
libRbt.so/2013.1/901 2013/11/27
 46 52  0  0  0  0  0  0  0  0999 V2000
  157.8282   45.5475  147.4417 P   0  0  1  0  0  0  0  0  0  0  0  0
  160.4716   41.7784  144.0895 P   0  0  1  0  0  0  0  0  0  0  0  0
  158.6657   46.1174  148.5574 O   0  5  0  0  0  0  0  0  0  0  0  0
  156.4738   46.1830  147.2149 O   0  0  0  0  0  0  0  0  0  0  0  0
  158.1481   45.9144  144.8412 C   0  0  0  0  0  0  0  0  0  0  0  0
  158.7088   45.5523  146.0965 O   0  0  0  0  0  0  0  0  0  0  0  0
  159.0607   45.4605  143.7139 C   0  0  1  0  0  0  0  0  0  0  0  0
  159.7623   46.5977  143.2316 O   0  0  0  0  0  0  0  0  0  0  0  0
  160.1215   44.4360  144.0960 C   0  0  1  0  0  0  0  0  0  0  0  0
  159.7324   43.1506  143.6347 O   0  0  0  0  0  0  0  0  0  0  0  0
  161.3338   44.8721  143.3041 C   0  0  1  0  0  0  0  0  0  0  0  0
  161.3300   44.2291  142.0280 O   0  0  0  0  0  0  0  0  0  0  0  0
  161.1466   46.3401  143.0525 C   0  0  2  0  0  0  0  0  0  0  0  0
  159.9576   41.7621  149.4864 C   0  0  1  0  0  0  0  0  0  0  0  0
  162.3543   51.0912  144.9272 N   0  0  0  0  0  0  0  0  0  0  0  0
  161.5734   50.7422  143.8873 C   0  0  1  0  0  0  0  0  0  0  0  0
  159.3040   43.1179  149.3188 C   0  0  2  0  0  0  0  0  0  0  0  0
  160.9701   51.7121  143.1643 N   0  0  0  0  0  0  0  0  0  0  0  0
  158.1891   43.1703  150.2132 O   0  0  0  0  0  0  0  0  0  0  0  0
  158.8403   43.1655  147.8749 C   0  0  2  0  0  0  0  0  0  0  0  0
  161.3548   49.4609  143.5141 N   0  0  0  0  0  0  0  0  0  0  0  0
  157.6701   43.9684  147.7261 O   0  0  0  0  0  0  0  0  0  0  0  0
  161.9245   48.4362  144.1838 C   0  0  2  0  0  0  0  0  0  0  0  0
  158.5747   41.6929  147.5704 C   0  0  2  0  0  0  0  0  0  0  0  0
  159.3737   40.9320  148.4789 O   0  0  0  0  0  0  0  0  0  0  0  0
  162.7895   48.7430  145.3273 C   0  0  2  0  0  0  0  0  0  0  0  0
  158.8886   41.2600  146.1349 C   0  0  0  0  0  0  0  0  0  0  0  0
  160.1566   41.7241  145.6729 O   0  0  0  0  0  0  0  0  0  0  0  0
  162.9823   50.1699  145.6776 C   0  0  0  0  0  0  0  0  0  0  0  0
  163.7098   50.4902  146.6483 O   0  0  0  0  0  0  0  0  0  0  0  0
  163.2211   47.5591  145.7973 N   0  0  0  0  0  0  0  0  0  0  0  0
  162.6824   46.5814  145.0297 C   0  0  0  0  0  0  0  0  0  0  0  0
  161.9068   47.1087  144.0664 N   0  0  1  0  0  0  0  0  0  0  0  0
  164.8336   41.0743  151.3272 N   0  0  0  0  0  0  0  0  0  0  0  0
  159.7325   40.6522  143.3915 O   0  5  0  0  0  0  0  0  0  0  0  0
  163.6509   40.8176  151.9068 C   0  0  2  0  0  0  0  0  0  0  0  0
  163.6687   40.3044  153.1460 N   0  0  0  0  0  0  0  0  0  0  0  0
  161.9635   41.9430  143.9306 O   0  0  0  0  0  0  0  0  0  0  0  0
  162.4583   41.0448  151.3082 N   0  0  0  0  0  0  0  0  0  0  0  0
  162.4010   41.5552  150.0602 C   0  0  1  0  0  0  0  0  0  0  0  0
  163.6691   41.8606  149.3679 C   0  0  1  0  0  0  0  0  0  0  0  0
  164.9324   41.5719  150.0934 C   0  0  0  0  0  0  0  0  0  0  0  0
  166.0565   41.8001  149.5968 O   0  0  0  0  0  0  0  0  0  0  0  0
  163.3347   42.3435  148.1607 N   0  0  0  0  0  0  0  0  0  0  0  0
  161.9743   42.3504  148.0941 C   0  0  0  0  0  0  0  0  0  0  0  0
  161.4137   41.8777  149.2249 N   0  0  2  0  0  0  0  0  0  0  0  0
  1  3  1  1  0  0  0
  1  4  2  0  0  0  0
  1  6  1  0  0  0  0
  1 22  1  0  0  0  0
  2 28  1  0  0  0  0
  2 35  1  6  0  0  0
  2 38  2  0  0  0  0
  2 10  1  0  0  0  0
  5  6  1  0  0  0  0
  7  5  1  1  0  0  0
  7  8  1  0  0  0  0
  7  9  1  0  0  0  0
  9 10  1  6  0  0  0
  9 11  1  0  0  0  0
 11 12  1  6  0  0  0
 11 13  1  0  0  0  0
 13  8  1  1  0  0  0
 13 33  1  0  0  0  0
 14 46  1  0  0  0  0
 14 17  1  0  0  0  0
 14 25  1  6  0  0  0
 15 16  1  0  0  0  0
 15 29  1  0  0  0  0
 16 18  1  6  0  0  0
 16 21  1  0  0  0  0
 17 19  1  1  0  0  0
 17 20  1  0  0  0  0
 20 22  1  1  0  0  0
 20 24  1  0  0  0  0
 23 21  1  6  0  0  0
 23 26  1  0  0  0  0
 23 33  1  0  0  0  0
 24 25  1  1  0  0  0
 24 27  1  0  0  0  0
 26 29  1  6  0  0  0
 26 31  1  0  0  0  0
 27 28  1  0  0  0  0
 29 30  2  0  0  0  0
 31 32  1  0  0  0  0
 33 32  1  1  0  0  0
 34 36  1  0  0  0  0
 34 42  1  0  0  0  0
 36 37  1  6  0  0  0
 36 39  1  0  0  0  0
 40 39  1  6  0  0  0
 40 41  1  0  0  0  0
 40 46  1  0  0  0  0
 41 42  1  6  0  0  0
 41 44  1  0  0  0  0
 42 43  2  0  0  0  0
 44 45  1  0  0  0  0
 46 45  1  1  0  0  0
M  CHG  2   3  -1  35  -1
M  END
>  <CHROM.1>
-61.63365840,122.49497926,160.89811515,44.44954822,146.56607350,1.70290233
-0.67857739,-0.58179748

>  <Name>
ligand

>  <RI>
0

>  <Rbt.Current_Directory>
/home/itssahil/PROJECTS/Mol_Feturizer/Test_systems_manuscript/rnas/4yb0

>  <Rbt.Executable>
rbdock ($Id: //depot/dev/client3/rdock/2013.1/src/exe/rbdock.cxx#4 $)

>  <Rbt.Library>
libRbt.so (2013.1, Build901 2013/11/27)

>  <Rbt.Parameter_File>
/export/apps/rDock/src/rDock_2013.1_src/data/scripts/dock_solv.prm

>  <Rbt.Receptor>
prm/pocket_docking_8.prm

>  <SCORE>
-11.5952

>  <SCORE.INTER>
-12.1173

>  <SCORE.INTER.CONST>
1

>  <SCORE.INTER.POLAR>
0

>  <SCORE.INTER.ROT>
2

>  <SCORE.INTER.SOLV>
10.6483

>  <SCORE.INTER.VDW>
-16.561

>  <SCORE.INTER.norm>
-0.26342

>  <SCORE.INTRA>
0.522123

>  <SCORE.INTRA.DIHEDRAL>
-0.0195982

>  <SCORE.INTRA.DIHEDRAL.0>
2.42188

>  <SCORE.INTRA.POLAR>
0

>  <SCORE.INTRA.POLAR.0>
0

>  <SCORE.INTRA.REPUL>
0

>  <SCORE.INTRA.REPUL.0>
0

>  <SCORE.INTRA.SOLV>
0.00986282

>  <SCORE.INTRA.SOLV.lig_0>
-127.307

>  <SCORE.INTRA.VDW>
0.526991

>  <SCORE.INTRA.VDW.0>
-2.19936

>  <SCORE.INTRA.norm>
0.0113505

>  <SCORE.RESTR>
0

>  <SCORE.RESTR.CAVITY>
0

>  <SCORE.RESTR.norm>
0

>  <SCORE.SYSTEM>
0

>  <SCORE.SYSTEM.CONST>
0

>  <SCORE.SYSTEM.DIHEDRAL>
0

>  <SCORE.SYSTEM.SOLV>
0

>  <SCORE.SYSTEM.norm>
0

>  <SCORE.heavy>
46

>  <SCORE.norm>
-0.252069

>  <RMSD>
8.718

$$$$
ligand
 OpenBabel02271912143D
libRbt.so/2013.1/901 2013/11/27
 46 52  0  0  0  0  0  0  0  0999 V2000
  161.2432   43.1229  142.6602 P   0  0  1  0  0  0  0  0  0  0  0  0
  157.4216   45.4502  146.1830 P   0  0  1  0  0  0  0  0  0  0  0  0
  162.6626   43.5940  142.8458 O   0  5  0  0  0  0  0  0  0  0  0  0
  161.0311   41.9558  141.7208 O   0  0  0  0  0  0  0  0  0  0  0  0
  159.7884   41.6955  144.3471 C   0  0  0  0  0  0  0  0  0  0  0  0
  160.6159   42.8271  144.1107 O   0  0  0  0  0  0  0  0  0  0  0  0
  159.0301   41.8695  145.6526 C   0  0  1  0  0  0  0  0  0  0  0  0
  159.6604   41.0632  146.6378 O   0  0  0  0  0  0  0  0  0  0  0  0
  159.0016   43.2850  146.2151 C   0  0  1  0  0  0  0  0  0  0  0  0
  157.7308   43.8703  145.9722 O   0  0  0  0  0  0  0  0  0  0  0  0
  159.1446   43.0746  147.7058 C   0  0  1  0  0  0  0  0  0  0  0  0
  157.8512   42.9320  148.2965 O   0  0  0  0  0  0  0  0  0  0  0  0
  159.8430   41.7553  147.8635 C   0  0  2  0  0  0  0  0  0  0  0  0
  160.9669   47.9094  142.9005 C   0  0  1  0  0  0  0  0  0  0  0  0
  163.8246   41.8362  151.2821 N   0  0  0  0  0  0  0  0  0  0  0  0
  162.5196   41.5684  151.4772 C   0  0  1  0  0  0  0  0  0  0  0  0
  161.4933   46.5198  142.6080 C   0  0  2  0  0  0  0  0  0  0  0  0
  162.0908   41.2626  152.7222 N   0  0  0  0  0  0  0  0  0  0  0  0
  161.7659   46.4506  141.2056 O   0  0  0  0  0  0  0  0  0  0  0  0
  160.3680   45.5751  142.9864 C   0  0  2  0  0  0  0  0  0  0  0  0
  161.5966   41.5900  150.4891 N   0  0  0  0  0  0  0  0  0  0  0  0
  160.3791   44.3970  142.1813 O   0  0  0  0  0  0  0  0  0  0  0  0
  161.9457   41.8899  149.2198 C   0  0  2  0  0  0  0  0  0  0  0  0
  159.1281   46.4323  142.7412 C   0  0  2  0  0  0  0  0  0  0  0  0
  159.5426   47.7966  142.8387 O   0  0  0  0  0  0  0  0  0  0  0  0
  163.3513   42.1942  148.9345 C   0  0  2  0  0  0  0  0  0  0  0  0
  157.9666   46.1854  143.7090 C   0  0  0  0  0  0  0  0  0  0  0  0
  158.3743   46.1400  145.0758 O   0  0  0  0  0  0  0  0  0  0  0  0
  164.3058   42.1507  150.0672 C   0  0  0  0  0  0  0  0  0  0  0  0
  165.5212   42.3996  149.8802 O   0  0  0  0  0  0  0  0  0  0  0  0
  163.4163   42.4583  147.6173 N   0  0  0  0  0  0  0  0  0  0  0  0
  162.1696   42.3334  147.1023 C   0  0  0  0  0  0  0  0  0  0  0  0
  161.2925   41.9925  148.0625 N   0  0  1  0  0  0  0  0  0  0  0  0
  163.7773   51.1712  145.9171 N   0  0  0  0  0  0  0  0  0  0  0  0
  155.9697   45.6498  145.7906 O   0  5  0  0  0  0  0  0  0  0  0  0
  163.6570   51.1232  144.5814 C   0  0  2  0  0  0  0  0  0  0  0  0
  164.3405   52.0294  143.8667 N   0  0  0  0  0  0  0  0  0  0  0  0
  157.9240   45.8767  147.5409 O   0  0  0  0  0  0  0  0  0  0  0  0
  162.8872   50.2198  143.9305 N   0  0  0  0  0  0  0  0  0  0  0  0
  162.1812   49.2965  144.6163 C   0  0  1  0  0  0  0  0  0  0  0  0
  162.2719   49.2958  146.0901 C   0  0  1  0  0  0  0  0  0  0  0  0
  163.1319   50.3275  146.7240 C   0  0  0  0  0  0  0  0  0  0  0  0
  163.2794   50.4069  147.9626 O   0  0  0  0  0  0  0  0  0  0  0  0
  161.4822   48.2979  146.5177 N   0  0  0  0  0  0  0  0  0  0  0  0
  160.9424   47.7120  145.4130 C   0  0  0  0  0  0  0  0  0  0  0  0
  161.3551   48.3073  144.2764 N   0  0  2  0  0  0  0  0  0  0  0  0
  1  3  1  1  0  0  0
  1  4  2  0  0  0  0
  1  6  1  0  0  0  0
  1 22  1  0  0  0  0
  2 28  1  0  0  0  0
  2 35  1  6  0  0  0
  2 38  2  0  0  0  0
  2 10  1  0  0  0  0
  5  6  1  0  0  0  0
  7  5  1  6  0  0  0
  7  8  1  0  0  0  0
  7  9  1  0  0  0  0
  9 10  1  1  0  0  0
  9 11  1  0  0  0  0
 11 12  1  1  0  0  0
 11 13  1  0  0  0  0
 13  8  1  6  0  0  0
 13 33  1  0  0  0  0
 14 46  1  0  0  0  0
 14 17  1  0  0  0  0
 14 25  1  1  0  0  0
 15 16  1  0  0  0  0
 15 29  1  0  0  0  0
 16 18  1  1  0  0  0
 16 21  1  0  0  0  0
 17 19  1  6  0  0  0
 17 20  1  0  0  0  0
 20 22  1  6  0  0  0
 20 24  1  0  0  0  0
 23 21  1  1  0  0  0
 23 26  1  0  0  0  0
 23 33  1  0  0  0  0
 24 25  1  1  0  0  0
 24 27  1  0  0  0  0
 26 29  1  1  0  0  0
 26 31  1  0  0  0  0
 27 28  1  0  0  0  0
 29 30  2  0  0  0  0
 31 32  1  0  0  0  0
 33 32  1  6  0  0  0
 34 36  1  0  0  0  0
 34 42  1  0  0  0  0
 36 37  1  1  0  0  0
 36 39  1  0  0  0  0
 40 39  1  1  0  0  0
 40 41  1  0  0  0  0
 40 46  1  0  0  0  0
 41 42  1  1  0  0  0
 41 44  1  0  0  0  0
 42 43  2  0  0  0  0
 44 45  1  0  0  0  0
 46 45  1  6  0  0  0
M  CHG  2   3  -1  35  -1
M  END
>  <CHROM.1>
-139.91641028,114.63486195,160.93438096,45.04186770,145.86870279,1.54304920
-0.85409973,-0.64510255

>  <Name>
ligand

>  <RI>
0

>  <Rbt.Current_Directory>
/home/itssahil/PROJECTS/Mol_Feturizer/Test_systems_manuscript/rnas/4yb0

>  <Rbt.Executable>
rbdock ($Id: //depot/dev/client3/rdock/2013.1/src/exe/rbdock.cxx#4 $)

>  <Rbt.Library>
libRbt.so (2013.1, Build901 2013/11/27)

>  <Rbt.Parameter_File>
/export/apps/rDock/src/rDock_2013.1_src/data/scripts/dock_solv.prm

>  <Rbt.Receptor>
prm/pocket_docking_7.prm

>  <SCORE>
-13.4024

>  <SCORE.INTER>
-13.0049

>  <SCORE.INTER.CONST>
1

>  <SCORE.INTER.POLAR>
0

>  <SCORE.INTER.ROT>
2

>  <SCORE.INTER.SOLV>
15.836

>  <SCORE.INTER.VDW>
-18.8819

>  <SCORE.INTER.norm>
-0.282714

>  <SCORE.INTRA>
-0.412046

>  <SCORE.INTRA.DIHEDRAL>
-0.00946445

>  <SCORE.INTRA.DIHEDRAL.0>
2.42188

>  <SCORE.INTRA.POLAR>
0

>  <SCORE.INTRA.POLAR.0>
0

>  <SCORE.INTRA.REPUL>
0

>  <SCORE.INTRA.REPUL.0>
0

>  <SCORE.INTRA.SOLV>
-0.0285906

>  <SCORE.INTRA.SOLV.lig_0>
-127.307

>  <SCORE.INTRA.VDW>
-0.393019

>  <SCORE.INTRA.VDW.0>
-2.19936

>  <SCORE.INTRA.norm>
-0.00895753

>  <SCORE.RESTR>
0.0145444

>  <SCORE.RESTR.CAVITY>
0.0145444

>  <SCORE.RESTR.norm>
0.000316183

>  <SCORE.SYSTEM>
0

>  <SCORE.SYSTEM.CONST>
0

>  <SCORE.SYSTEM.DIHEDRAL>
0

>  <SCORE.SYSTEM.SOLV>
0

>  <SCORE.SYSTEM.norm>
0

>  <SCORE.heavy>
46

>  <SCORE.norm>
-0.291356

>  <RMSD>
8.724

$$$$
