1mwl
 OpenBabel11021811403D
libRbt.so/2013.1/901 2013/11/27
 34 36  0  0  0  0  0  0  0  0999 V2000
   -8.9086    6.3074   20.2837 C   0  0  2  0  0  0  0  0  0  0  0  0
  -10.0264    6.9857   20.7726 O   0  0  0  0  0  0  0  0  0  0  0  0
   -9.0370    4.8215   20.7228 C   0  0  2  0  0  0  0  0  0  0  0  0
  -10.2781    4.2447   20.1969 N   0  3  0  0  0  0  0  0  0  0  0  0
   -8.9638    4.6992   22.2730 C   0  0  1  0  0  0  0  0  0  0  0  0
   -9.0495    3.4027   22.6625 O   0  0  0  0  0  0  0  0  0  0  0  0
   -7.6223    5.3393   22.7612 C   0  0  2  0  0  0  0  0  0  0  0  0
   -7.5162    5.2345   24.1965 O   0  0  0  0  0  0  0  0  0  0  0  0
   -7.5922    6.8352   22.2972 C   0  0  2  0  0  0  0  0  0  0  0  0
   -7.7096    6.9187   20.8246 O   0  0  0  0  0  0  0  0  0  0  0  0
   -6.3202    7.5991   22.6826 C   0  0  2  0  0  0  0  0  0  0  0  0
   -6.4826    8.9511   22.4016 O   0  0  0  0  0  0  0  0  0  0  0  0
   -5.0697    7.1449   21.9078 C   0  0  0  0  0  0  0  0  0  0  0  0
  -12.9877    9.7081   19.3309 C   0  0  2  0  0  0  0  0  0  0  0  0
  -13.6136   10.8838   18.6740 N   0  3  0  0  0  0  0  0  0  0  0  0
  -12.0934   10.1558   20.5250 C   0  0  0  0  0  0  0  0  0  0  0  0
  -11.4215    8.9063   21.2014 C   0  0  2  0  0  0  0  0  0  0  0  0
  -10.5706    9.3700   22.3580 N   0  3  0  0  0  0  0  0  0  0  0  0
  -10.5758    8.1310   20.1337 C   0  0  2  0  0  0  0  0  0  0  0  0
  -11.4930    7.6927   18.9660 C   0  0  2  0  0  0  0  0  0  0  0  0
  -10.7170    7.0280   17.9984 O   0  0  0  0  0  0  0  0  0  0  0  0
  -12.1358    8.9383   18.2993 C   0  0  1  0  0  0  0  0  0  0  0  0
  -12.9696    8.5135   17.2312 O   0  0  0  0  0  0  0  0  0  0  0  0
  -12.8540    9.1569   15.9921 C   0  0  2  0  0  0  0  0  0  0  0  0
  -14.2668    9.2471   15.3848 C   0  0  2  0  0  0  0  0  0  0  0  0
  -15.0872   10.0133   16.2407 O   0  0  0  0  0  0  0  0  0  0  0  0
  -14.8429    7.8007   15.2088 C   0  0  1  0  0  0  0  0  0  0  0  0
  -16.2186    7.8013   14.6542 N   0  3  0  0  0  0  0  0  0  0  0  0
  -17.2137    8.1070   15.7136 C   0  0  0  0  0  0  0  0  0  0  0  0
  -13.8902    6.9772   14.2754 C   0  0  2  0  0  0  0  0  0  0  0  0
  -13.7997    7.6112   12.9857 O   0  0  0  0  0  0  0  0  0  0  0  0
  -14.3692    5.6232   14.0648 C   0  0  0  0  0  0  0  0  0  0  0  0
  -12.4436    6.9706   14.8588 C   0  0  0  0  0  0  0  0  0  0  0  0
  -11.9717    8.3713   15.1124 O   0  0  0  0  0  0  0  0  0  0  0  0
  1  2  1  1  0  0  0
  1  3  1  0  0  0  0
  1 10  1  0  0  0  0
  3  4  1  1  0  0  0
  3  5  1  0  0  0  0
  5  6  1  6  0  0  0
  5  7  1  0  0  0  0
  7  8  1  1  0  0  0
  7  9  1  0  0  0  0
  9 10  1  6  0  0  0
  9 11  1  0  0  0  0
 11 12  1  6  0  0  0
 11 13  1  0  0  0  0
 14 15  1  6  0  0  0
 14 16  1  0  0  0  0
 14 22  1  0  0  0  0
 16 17  1  0  0  0  0
 17 18  1  1  0  0  0
 17 19  1  0  0  0  0
 19  2  1  1  0  0  0
 19 20  1  0  0  0  0
 20 21  1  6  0  0  0
 20 22  1  0  0  0  0
 22 23  1  6  0  0  0
 24 23  1  1  0  0  0
 24 25  1  0  0  0  0
 24 34  1  0  0  0  0
 25 26  1  1  0  0  0
 25 27  1  0  0  0  0
 27 28  1  6  0  0  0
 27 30  1  0  0  0  0
 28 29  1  0  0  0  0
 30 31  1  6  0  0  0
 30 32  1  0  0  0  0
 30 33  1  0  0  0  0
 33 34  1  0  0  0  0
M  CHG  4   4   1  15   1  18   1  28   1
M  END
>  <CHROM.1>
-151.24004887,-159.03562555,59.25129050,71.21341010,-68.05997408,-171.20921091
-71.82443661,57.30948383,42.90417325,-58.14891568,107.58300312,-143.58410119
104.39331765,40.64951734,56.47258265,-11.18131825,7.51876596,18.91989722
-0.18334948,0.81519631,-2.63556693

>  <Name>
1mwl

>  <RI>
0

>  <Rbt.Current_Directory>
/home/itssahil/PROJECTS/Mol_Feturizer/New_Systems/rnas/1mwl

>  <Rbt.Executable>
rbdock ($Id: //depot/dev/client3/rdock/2013.1/src/exe/rbdock.cxx#4 $)

>  <Rbt.Library>
libRbt.so (2013.1, Build901 2013/11/27)

>  <Rbt.Parameter_File>
/export/apps/rDock/src/rDock_2013.1_src/data/scripts/dock_solv.prm

>  <Rbt.Receptor>
prm/pocket_docking_3.prm

>  <SCORE>
-85.6499

>  <SCORE.INTER>
-72.0766

>  <SCORE.INTER.CONST>
1

>  <SCORE.INTER.POLAR>
-10.5109

>  <SCORE.INTER.ROT>
6

>  <SCORE.INTER.SOLV>
25.6877

>  <SCORE.INTER.VDW>
-29.1773

>  <SCORE.INTER.norm>
-2.1199

>  <SCORE.INTRA>
-13.5733

>  <SCORE.INTRA.DIHEDRAL>
-15.8937

>  <SCORE.INTRA.DIHEDRAL.0>
42.0816

>  <SCORE.INTRA.POLAR>
-0.850893

>  <SCORE.INTRA.POLAR.0>
-0.254682

>  <SCORE.INTRA.REPUL>
0

>  <SCORE.INTRA.REPUL.0>
0

>  <SCORE.INTRA.SOLV>
-0.141857

>  <SCORE.INTRA.SOLV.lig_0>
-109.803

>  <SCORE.INTRA.VDW>
-2.66251

>  <SCORE.INTRA.VDW.0>
0.32176

>  <SCORE.INTRA.norm>
-0.399216

>  <SCORE.RESTR>
0

>  <SCORE.RESTR.CAVITY>
0

>  <SCORE.RESTR.norm>
0

>  <SCORE.SYSTEM>
0

>  <SCORE.SYSTEM.CONST>
0

>  <SCORE.SYSTEM.DIHEDRAL>
0

>  <SCORE.SYSTEM.SOLV>
0

>  <SCORE.SYSTEM.norm>
0

>  <SCORE.heavy>
34

>  <SCORE.norm>
-2.51911

>  <RMSD>
0.164

$$$$
1mwl
 OpenBabel11021811403D
libRbt.so/2013.1/901 2013/11/27
 34 36  0  0  0  0  0  0  0  0999 V2000
   -8.9619    6.2469   20.3028 C   0  0  2  0  0  0  0  0  0  0  0  0
  -10.0869    6.9346   20.7612 O   0  0  0  0  0  0  0  0  0  0  0  0
   -9.0730    4.7818   20.8108 C   0  0  2  0  0  0  0  0  0  0  0  0
  -10.3079    4.1671   20.3143 N   0  3  0  0  0  0  0  0  0  0  0  0
   -8.9969    4.7327   22.3650 C   0  0  1  0  0  0  0  0  0  0  0  0
   -9.0676    3.4548   22.8146 O   0  0  0  0  0  0  0  0  0  0  0  0
   -7.6624    5.4099   22.8209 C   0  0  2  0  0  0  0  0  0  0  0  0
   -7.5537    5.3734   24.2593 O   0  0  0  0  0  0  0  0  0  0  0  0
   -7.6497    6.8828   22.2876 C   0  0  2  0  0  0  0  0  0  0  0  0
   -7.7693    6.8963   20.8129 O   0  0  0  0  0  0  0  0  0  0  0  0
   -6.3861    7.6781   22.6351 C   0  0  2  0  0  0  0  0  0  0  0  0
   -6.5551    9.0091   22.2698 O   0  0  0  0  0  0  0  0  0  0  0  0
   -5.1261    7.1860   21.8998 C   0  0  0  0  0  0  0  0  0  0  0  0
  -13.0078    9.6345   19.1999 C   0  0  2  0  0  0  0  0  0  0  0  0
  -13.6154   10.8047   18.5164 N   0  3  0  0  0  0  0  0  0  0  0  0
  -12.1629   10.0907   20.4263 C   0  0  0  0  0  0  0  0  0  0  0  0
  -11.5096    8.8472   21.1312 C   0  0  2  0  0  0  0  0  0  0  0  0
  -10.7068    9.3190   22.3185 N   0  3  0  0  0  0  0  0  0  0  0  0
  -10.6185    8.0749   20.0988 C   0  0  2  0  0  0  0  0  0  0  0  0
  -11.4874    7.6280   18.8978 C   0  0  2  0  0  0  0  0  0  0  0  0
  -10.6705    6.9661   17.9625 O   0  0  0  0  0  0  0  0  0  0  0  0
  -12.1120    8.8679   18.2037 C   0  0  1  0  0  0  0  0  0  0  0  0
  -12.9013    8.4352   17.1054 O   0  0  0  0  0  0  0  0  0  0  0  0
  -12.8116    9.1368   15.8961 C   0  0  2  0  0  0  0  0  0  0  0  0
  -14.2357    9.2472   15.3193 C   0  0  2  0  0  0  0  0  0  0  0  0
  -15.0442    9.9674   16.2249 O   0  0  0  0  0  0  0  0  0  0  0  0
  -14.8076    7.8073   15.0857 C   0  0  1  0  0  0  0  0  0  0  0  0
  -16.1932    7.8258   14.5566 N   0  3  0  0  0  0  0  0  0  0  0  0
  -17.1811    7.7923   15.6652 C   0  0  0  0  0  0  0  0  0  0  0  0
  -13.8679    7.0341   14.0976 C   0  0  2  0  0  0  0  0  0  0  0  0
  -13.8042    7.7286   12.8378 O   0  0  0  0  0  0  0  0  0  0  0  0
  -14.3439    5.6887   13.8321 C   0  0  0  0  0  0  0  0  0  0  0  0
  -12.4109    7.0086   14.6540 C   0  0  0  0  0  0  0  0  0  0  0  0
  -11.9415    8.3986   14.9647 O   0  0  0  0  0  0  0  0  0  0  0  0
  1  2  1  1  0  0  0
  1  3  1  0  0  0  0
  1 10  1  0  0  0  0
  3  4  1  1  0  0  0
  3  5  1  0  0  0  0
  5  6  1  6  0  0  0
  5  7  1  0  0  0  0
  7  8  1  1  0  0  0
  7  9  1  0  0  0  0
  9 10  1  6  0  0  0
  9 11  1  0  0  0  0
 11 12  1  6  0  0  0
 11 13  1  0  0  0  0
 14 15  1  6  0  0  0
 14 16  1  0  0  0  0
 14 22  1  0  0  0  0
 16 17  1  0  0  0  0
 17 18  1  1  0  0  0
 17 19  1  0  0  0  0
 19  2  1  1  0  0  0
 19 20  1  0  0  0  0
 20 21  1  6  0  0  0
 20 22  1  0  0  0  0
 22 23  1  6  0  0  0
 24 23  1  1  0  0  0
 24 25  1  0  0  0  0
 24 34  1  0  0  0  0
 25 26  1  1  0  0  0
 25 27  1  0  0  0  0
 27 28  1  6  0  0  0
 27 30  1  0  0  0  0
 28 29  1  0  0  0  0
 30 31  1  6  0  0  0
 30 32  1  0  0  0  0
 30 33  1  0  0  0  0
 33 34  1  0  0  0  0
M  CHG  4   4   1  15   1  18   1  28   1
M  END
>  <CHROM.1>
-153.78926202,-160.31130185,-53.98603303,64.50221023,60.85174103,-172.25925834
69.29481589,174.37917024,165.49970183,178.66014924,103.13103507,-139.63571058
113.97777911,28.90848618,-178.19882755,-11.19914445,7.49904472,18.86699521
-0.19319897,0.83305090,-2.63769116

>  <Name>
1mwl

>  <RI>
0

>  <Rbt.Current_Directory>
/home/itssahil/PROJECTS/Mol_Feturizer/New_Systems/rnas/1mwl

>  <Rbt.Executable>
rbdock ($Id: //depot/dev/client3/rdock/2013.1/src/exe/rbdock.cxx#4 $)

>  <Rbt.Library>
libRbt.so (2013.1, Build901 2013/11/27)

>  <Rbt.Parameter_File>
/export/apps/rDock/src/rDock_2013.1_src/data/scripts/dock_solv.prm

>  <Rbt.Receptor>
prm/pocket_docking_2.prm

>  <SCORE>
-82.9883

>  <SCORE.INTER>
-68.7458

>  <SCORE.INTER.CONST>
1

>  <SCORE.INTER.POLAR>
-9.7393

>  <SCORE.INTER.ROT>
6

>  <SCORE.INTER.SOLV>
26.1733

>  <SCORE.INTER.VDW>
-29.6907

>  <SCORE.INTER.norm>
-2.02194

>  <SCORE.INTRA>
-14.2424

>  <SCORE.INTRA.DIHEDRAL>
-15.6345

>  <SCORE.INTRA.DIHEDRAL.0>
42.0816

>  <SCORE.INTRA.POLAR>
-0.921688

>  <SCORE.INTRA.POLAR.0>
-0.254682

>  <SCORE.INTRA.REPUL>
0

>  <SCORE.INTRA.REPUL.0>
0

>  <SCORE.INTRA.SOLV>
0.310616

>  <SCORE.INTRA.SOLV.lig_0>
-109.803

>  <SCORE.INTRA.VDW>
-3.44677

>  <SCORE.INTRA.VDW.0>
0.32176

>  <SCORE.INTRA.norm>
-0.418895

>  <SCORE.RESTR>
0

>  <SCORE.RESTR.CAVITY>
0

>  <SCORE.RESTR.norm>
0

>  <SCORE.SYSTEM>
0

>  <SCORE.SYSTEM.CONST>
0

>  <SCORE.SYSTEM.DIHEDRAL>
0

>  <SCORE.SYSTEM.SOLV>
0

>  <SCORE.SYSTEM.norm>
0

>  <SCORE.heavy>
34

>  <SCORE.norm>
-2.44083

>  <RMSD>
0.186

$$$$
1mwl
 OpenBabel11021811403D
libRbt.so/2013.1/901 2013/11/27
 34 36  0  0  0  0  0  0  0  0999 V2000
   -8.9642    6.2860   20.2983 C   0  0  2  0  0  0  0  0  0  0  0  0
  -10.1065    6.9535   20.7434 O   0  0  0  0  0  0  0  0  0  0  0  0
   -9.0806    4.8060   20.7596 C   0  0  2  0  0  0  0  0  0  0  0  0
  -10.2965    4.1992   20.2092 N   0  3  0  0  0  0  0  0  0  0  0  0
   -9.0495    4.7115   22.3132 C   0  0  1  0  0  0  0  0  0  0  0  0
   -9.1249    3.4205   22.7229 O   0  0  0  0  0  0  0  0  0  0  0  0
   -7.7333    5.3825   22.8277 C   0  0  2  0  0  0  0  0  0  0  0  0
   -7.6664    5.3041   24.2670 O   0  0  0  0  0  0  0  0  0  0  0  0
   -7.7146    6.8705   22.3385 C   0  0  2  0  0  0  0  0  0  0  0  0
   -7.7913    6.9268   20.8619 O   0  0  0  0  0  0  0  0  0  0  0  0
   -6.4669    7.6624   22.7460 C   0  0  2  0  0  0  0  0  0  0  0  0
   -6.6374    9.0040   22.4230 O   0  0  0  0  0  0  0  0  0  0  0  0
   -5.1845    7.2055   22.0269 C   0  0  0  0  0  0  0  0  0  0  0  0
  -12.9792    9.7765   19.3157 C   0  0  2  0  0  0  0  0  0  0  0  0
  -13.5674   10.9727   18.6612 N   0  3  0  0  0  0  0  0  0  0  0  0
  -12.0631   10.1936   20.5042 C   0  0  0  0  0  0  0  0  0  0  0  0
  -11.4313    8.9221   21.1781 C   0  0  2  0  0  0  0  0  0  0  0  0
  -10.5582    9.3567   22.3294 N   0  3  0  0  0  0  0  0  0  0  0  0
  -10.6192    8.1168   20.1065 C   0  0  2  0  0  0  0  0  0  0  0  0
  -11.5579    7.7098   18.9444 C   0  0  2  0  0  0  0  0  0  0  0  0
  -10.8111    7.0176   17.9732 O   0  0  0  0  0  0  0  0  0  0  0  0
  -12.1606    8.9765   18.2801 C   0  0  1  0  0  0  0  0  0  0  0  0
  -13.0148    8.5802   17.2172 O   0  0  0  0  0  0  0  0  0  0  0  0
  -12.8792    9.2133   15.9748 C   0  0  2  0  0  0  0  0  0  0  0  0
  -14.2856    9.3217   15.3557 C   0  0  2  0  0  0  0  0  0  0  0  0
  -15.1005   10.1065   16.1999 O   0  0  0  0  0  0  0  0  0  0  0  0
  -14.8831    7.8834   15.1846 C   0  0  1  0  0  0  0  0  0  0  0  0
  -16.2542    7.9020   14.6190 N   0  3  0  0  0  0  0  0  0  0  0  0
  -17.2705    7.8021   15.6975 C   0  0  0  0  0  0  0  0  0  0  0  0
  -13.9362    7.0387   14.2643 C   0  0  2  0  0  0  0  0  0  0  0  0
  -13.8255    7.6626   12.9712 O   0  0  0  0  0  0  0  0  0  0  0  0
  -14.4349    5.6910   14.0588 C   0  0  0  0  0  0  0  0  0  0  0  0
  -12.4945    7.0132   14.8593 C   0  0  0  0  0  0  0  0  0  0  0  0
  -12.0025    8.4079   15.1074 O   0  0  0  0  0  0  0  0  0  0  0  0
  1  2  1  1  0  0  0
  1  3  1  0  0  0  0
  1 10  1  0  0  0  0
  3  4  1  1  0  0  0
  3  5  1  0  0  0  0
  5  6  1  6  0  0  0
  5  7  1  0  0  0  0
  7  8  1  1  0  0  0
  7  9  1  0  0  0  0
  9 10  1  6  0  0  0
  9 11  1  0  0  0  0
 11 12  1  6  0  0  0
 11 13  1  0  0  0  0
 14 15  1  6  0  0  0
 14 16  1  0  0  0  0
 14 22  1  0  0  0  0
 16 17  1  0  0  0  0
 17 18  1  1  0  0  0
 17 19  1  0  0  0  0
 19  2  1  1  0  0  0
 19 20  1  0  0  0  0
 20 21  1  6  0  0  0
 20 22  1  0  0  0  0
 22 23  1  6  0  0  0
 24 23  1  1  0  0  0
 24 25  1  0  0  0  0
 24 34  1  0  0  0  0
 25 26  1  1  0  0  0
 25 27  1  0  0  0  0
 27 28  1  6  0  0  0
 27 30  1  0  0  0  0
 28 29  1  0  0  0  0
 30 31  1  6  0  0  0
 30 32  1  0  0  0  0
 30 33  1  0  0  0  0
 33 34  1  0  0  0  0
M  CHG  4   4   1  15   1  18   1  28   1
M  END
>  <CHROM.1>
-154.36750414,-154.77711383,71.43509630,64.37802552,60.24128178,-171.87531906
-72.27932944,-59.88118836,162.60292113,-61.53528966,107.90696794,-145.09295209
107.99576899,22.84255781,55.57263446,-11.23383994,7.54235688,18.92348364
-0.13580088,0.83331343,-2.70271735

>  <Name>
1mwl

>  <RI>
0

>  <Rbt.Current_Directory>
/home/itssahil/PROJECTS/Mol_Feturizer/New_Systems/rnas/1mwl

>  <Rbt.Executable>
rbdock ($Id: //depot/dev/client3/rdock/2013.1/src/exe/rbdock.cxx#4 $)

>  <Rbt.Library>
libRbt.so (2013.1, Build901 2013/11/27)

>  <Rbt.Parameter_File>
/export/apps/rDock/src/rDock_2013.1_src/data/scripts/dock_solv.prm

>  <Rbt.Receptor>
prm/pocket_docking_2.prm

>  <SCORE>
-83.9119

>  <SCORE.INTER>
-70.4934

>  <SCORE.INTER.CONST>
1

>  <SCORE.INTER.POLAR>
-9.89755

>  <SCORE.INTER.ROT>
6

>  <SCORE.INTER.SOLV>
26.0031

>  <SCORE.INTER.VDW>
-30.2714

>  <SCORE.INTER.norm>
-2.07333

>  <SCORE.INTRA>
-13.4186

>  <SCORE.INTRA.DIHEDRAL>
-14.3893

>  <SCORE.INTRA.DIHEDRAL.0>
42.0816

>  <SCORE.INTRA.POLAR>
-0.941732

>  <SCORE.INTRA.POLAR.0>
-0.254682

>  <SCORE.INTRA.REPUL>
0

>  <SCORE.INTRA.REPUL.0>
0

>  <SCORE.INTRA.SOLV>
0.416874

>  <SCORE.INTRA.SOLV.lig_0>
-109.803

>  <SCORE.INTRA.VDW>
-3.2305

>  <SCORE.INTRA.VDW.0>
0.32176

>  <SCORE.INTRA.norm>
-0.394664

>  <SCORE.RESTR>
0

>  <SCORE.RESTR.CAVITY>
0

>  <SCORE.RESTR.norm>
0

>  <SCORE.SYSTEM>
0

>  <SCORE.SYSTEM.CONST>
0

>  <SCORE.SYSTEM.DIHEDRAL>
0

>  <SCORE.SYSTEM.SOLV>
0

>  <SCORE.SYSTEM.norm>
0

>  <SCORE.heavy>
34

>  <SCORE.norm>
-2.468

>  <RMSD>
0.189

$$$$
1mwl
 OpenBabel11021811403D
libRbt.so/2013.1/901 2013/11/27
 34 36  0  0  0  0  0  0  0  0999 V2000
   -8.9457    6.2126   20.2860 C   0  0  2  0  0  0  0  0  0  0  0  0
  -10.0970    6.8737   20.7174 O   0  0  0  0  0  0  0  0  0  0  0  0
   -9.0457    4.7390   20.7711 C   0  0  2  0  0  0  0  0  0  0  0  0
  -10.2529    4.1090   20.2278 N   0  3  0  0  0  0  0  0  0  0  0  0
   -9.0176    4.6702   22.3261 C   0  0  1  0  0  0  0  0  0  0  0  0
   -9.0787    3.3852   22.7566 O   0  0  0  0  0  0  0  0  0  0  0  0
   -7.7107    5.3651   22.8327 C   0  0  2  0  0  0  0  0  0  0  0  0
   -7.6466    5.3109   24.2733 O   0  0  0  0  0  0  0  0  0  0  0  0
   -7.7084    6.8451   22.3194 C   0  0  2  0  0  0  0  0  0  0  0  0
   -7.7820    6.8764   20.8419 O   0  0  0  0  0  0  0  0  0  0  0  0
   -6.4712    7.6582   22.7169 C   0  0  2  0  0  0  0  0  0  0  0  0
   -6.6469    8.9878   22.3500 O   0  0  0  0  0  0  0  0  0  0  0  0
   -5.1770    7.1883   22.0281 C   0  0  0  0  0  0  0  0  0  0  0  0
  -12.9899    9.6233   19.1908 C   0  0  2  0  0  0  0  0  0  0  0  0
  -13.5854   10.8061   18.5187 N   0  3  0  0  0  0  0  0  0  0  0  0
  -12.1319   10.0598   20.4153 C   0  0  0  0  0  0  0  0  0  0  0  0
  -11.4916    8.8028   21.1083 C   0  0  2  0  0  0  0  0  0  0  0  0
  -10.6757    9.2558   22.2940 N   0  3  0  0  0  0  0  0  0  0  0  0
  -10.6169    8.0254   20.0656 C   0  0  2  0  0  0  0  0  0  0  0  0
  -11.4986    7.5984   18.8667 C   0  0  2  0  0  0  0  0  0  0  0  0
  -10.6961    6.9317   17.9224 O   0  0  0  0  0  0  0  0  0  0  0  0
  -12.1102    8.8513   18.1845 C   0  0  1  0  0  0  0  0  0  0  0  0
  -12.9116    8.4367   17.0879 O   0  0  0  0  0  0  0  0  0  0  0  0
  -12.8272    9.1517   15.8861 C   0  0  2  0  0  0  0  0  0  0  0  0
  -14.2540    9.2692   15.3174 C   0  0  2  0  0  0  0  0  0  0  0  0
  -15.0577    9.9797   16.2349 O   0  0  0  0  0  0  0  0  0  0  0  0
  -14.8278    7.8323   15.0704 C   0  0  1  0  0  0  0  0  0  0  0  0
  -16.2159    7.8576   14.5482 N   0  3  0  0  0  0  0  0  0  0  0  0
  -17.1984    7.7670   15.6584 C   0  0  0  0  0  0  0  0  0  0  0  0
  -13.8933    7.0698   14.0693 C   0  0  2  0  0  0  0  0  0  0  0  0
  -13.8351    7.7783   12.8170 O   0  0  0  0  0  0  0  0  0  0  0  0
  -14.3714    5.7277   13.7910 C   0  0  0  0  0  0  0  0  0  0  0  0
  -12.4337    7.0373   14.6184 C   0  0  0  0  0  0  0  0  0  0  0  0
  -11.9620    8.4235   14.9424 O   0  0  0  0  0  0  0  0  0  0  0  0
  1  2  1  1  0  0  0
  1  3  1  0  0  0  0
  1 10  1  0  0  0  0
  3  4  1  1  0  0  0
  3  5  1  0  0  0  0
  5  6  1  6  0  0  0
  5  7  1  0  0  0  0
  7  8  1  1  0  0  0
  7  9  1  0  0  0  0
  9 10  1  6  0  0  0
  9 11  1  0  0  0  0
 11 12  1  6  0  0  0
 11 13  1  0  0  0  0
 14 15  1  6  0  0  0
 14 16  1  0  0  0  0
 14 22  1  0  0  0  0
 16 17  1  0  0  0  0
 17 18  1  1  0  0  0
 17 19  1  0  0  0  0
 19  2  1  1  0  0  0
 19 20  1  0  0  0  0
 20 21  1  6  0  0  0
 20 22  1  0  0  0  0
 22 23  1  6  0  0  0
 24 23  1  1  0  0  0
 24 25  1  0  0  0  0
 24 34  1  0  0  0  0
 25 26  1  1  0  0  0
 25 27  1  0  0  0  0
 27 28  1  6  0  0  0
 27 30  1  0  0  0  0
 28 29  1  0  0  0  0
 30 31  1  6  0  0  0
 30 32  1  0  0  0  0
 30 33  1  0  0  0  0
 33 34  1  0  0  0  0
M  CHG  4   4   1  15   1  18   1  28   1
M  END
>  <CHROM.1>
-154.79370330,-157.06254136,-177.30762885,71.48457094,66.57318460,-172.94039607
-71.51233843,-61.89422401,164.06721442,-55.89974207,102.62169613,-140.04449491
112.04733919,27.04062572,178.34928068,-11.21018441,7.48405888,18.85625537
-0.17374171,0.84048978,-2.65748684

>  <Name>
1mwl

>  <RI>
0

>  <Rbt.Current_Directory>
/home/itssahil/PROJECTS/Mol_Feturizer/New_Systems/rnas/1mwl

>  <Rbt.Executable>
rbdock ($Id: //depot/dev/client3/rdock/2013.1/src/exe/rbdock.cxx#4 $)

>  <Rbt.Library>
libRbt.so (2013.1, Build901 2013/11/27)

>  <Rbt.Parameter_File>
/export/apps/rDock/src/rDock_2013.1_src/data/scripts/dock_solv.prm

>  <Rbt.Receptor>
prm/pocket_docking_7.prm

>  <SCORE>
-87.8156

>  <SCORE.INTER>
-75.1689

>  <SCORE.INTER.CONST>
1

>  <SCORE.INTER.POLAR>
-10.749

>  <SCORE.INTER.ROT>
6

>  <SCORE.INTER.SOLV>
26.3209

>  <SCORE.INTER.VDW>
-30.6562

>  <SCORE.INTER.norm>
-2.21085

>  <SCORE.INTRA>
-12.6467

>  <SCORE.INTRA.DIHEDRAL>
-14.4581

>  <SCORE.INTRA.DIHEDRAL.0>
42.0816

>  <SCORE.INTRA.POLAR>
-0.913266

>  <SCORE.INTRA.POLAR.0>
-0.254682

>  <SCORE.INTRA.REPUL>
0

>  <SCORE.INTRA.REPUL.0>
0

>  <SCORE.INTRA.SOLV>
0.450443

>  <SCORE.INTRA.SOLV.lig_0>
-109.803

>  <SCORE.INTRA.VDW>
-2.53782

>  <SCORE.INTRA.VDW.0>
0.32176

>  <SCORE.INTRA.norm>
-0.371963

>  <SCORE.RESTR>
0

>  <SCORE.RESTR.CAVITY>
0

>  <SCORE.RESTR.norm>
0

>  <SCORE.SYSTEM>
0

>  <SCORE.SYSTEM.CONST>
0

>  <SCORE.SYSTEM.DIHEDRAL>
0

>  <SCORE.SYSTEM.SOLV>
0

>  <SCORE.SYSTEM.norm>
0

>  <SCORE.heavy>
34

>  <SCORE.norm>
-2.58281

>  <RMSD>
0.208

$$$$
1mwl
 OpenBabel11021811403D
libRbt.so/2013.1/901 2013/11/27
 34 36  0  0  0  0  0  0  0  0999 V2000
   -8.8647    6.2493   20.1562 C   0  0  2  0  0  0  0  0  0  0  0  0
  -10.0164    6.8679   20.6456 O   0  0  0  0  0  0  0  0  0  0  0  0
   -8.9566    4.7405   20.5197 C   0  0  2  0  0  0  0  0  0  0  0  0
  -10.1640    4.1519   19.9322 N   0  3  0  0  0  0  0  0  0  0  0  0
   -8.9205    4.5449   22.0637 C   0  0  1  0  0  0  0  0  0  0  0  0
   -8.9745    3.2288   22.3879 O   0  0  0  0  0  0  0  0  0  0  0  0
   -7.6139    5.2016   22.6195 C   0  0  2  0  0  0  0  0  0  0  0  0
   -7.5425    5.0301   24.0505 O   0  0  0  0  0  0  0  0  0  0  0  0
   -7.6198    6.7186   22.2289 C   0  0  2  0  0  0  0  0  0  0  0  0
   -7.7008    6.8703   20.7592 O   0  0  0  0  0  0  0  0  0  0  0  0
   -6.3839    7.5018   22.6859 C   0  0  2  0  0  0  0  0  0  0  0  0
   -6.5712    8.8575   22.4401 O   0  0  0  0  0  0  0  0  0  0  0  0
   -5.0935    7.1038   21.9464 C   0  0  0  0  0  0  0  0  0  0  0  0
  -12.9948    9.6593   19.3819 C   0  0  2  0  0  0  0  0  0  0  0  0
  -13.6295   10.8598   18.7807 N   0  3  0  0  0  0  0  0  0  0  0  0
  -12.0580   10.0629   20.5590 C   0  0  0  0  0  0  0  0  0  0  0  0
  -11.3774    8.7877   21.1761 C   0  0  2  0  0  0  0  0  0  0  0  0
  -10.4850    9.2088   22.3176 N   0  3  0  0  0  0  0  0  0  0  0  0
  -10.5744    8.0368   20.0590 C   0  0  2  0  0  0  0  0  0  0  0  0
  -11.5332    7.6420   18.9092 C   0  0  2  0  0  0  0  0  0  0  0  0
  -10.7955    6.9993   17.8978 O   0  0  0  0  0  0  0  0  0  0  0  0
  -12.1844    8.9128   18.3009 C   0  0  1  0  0  0  0  0  0  0  0  0
  -13.0564    8.5278   17.2483 O   0  0  0  0  0  0  0  0  0  0  0  0
  -12.9303    9.1621   16.0056 C   0  0  2  0  0  0  0  0  0  0  0  0
  -14.3313    9.2101   15.3671 C   0  0  2  0  0  0  0  0  0  0  0  0
  -15.1895    9.9629   16.1973 O   0  0  0  0  0  0  0  0  0  0  0  0
  -14.8662    7.7477   15.1932 C   0  0  1  0  0  0  0  0  0  0  0  0
  -16.2291    7.7075   14.6091 N   0  3  0  0  0  0  0  0  0  0  0  0
  -17.2577    7.9407   15.6549 C   0  0  0  0  0  0  0  0  0  0  0  0
  -13.8726    6.9401   14.2890 C   0  0  2  0  0  0  0  0  0  0  0  0
  -13.7702    7.5640   12.9953 O   0  0  0  0  0  0  0  0  0  0  0  0
  -14.3121    5.5722   14.0818 C   0  0  0  0  0  0  0  0  0  0  0  0
  -12.4394    6.9764   14.9036 C   0  0  0  0  0  0  0  0  0  0  0  0
  -12.0091    8.3911   15.1532 O   0  0  0  0  0  0  0  0  0  0  0  0
  1  2  1  1  0  0  0
  1  3  1  0  0  0  0
  1 10  1  0  0  0  0
  3  4  1  1  0  0  0
  3  5  1  0  0  0  0
  5  6  1  6  0  0  0
  5  7  1  0  0  0  0
  7  8  1  1  0  0  0
  7  9  1  0  0  0  0
  9 10  1  6  0  0  0
  9 11  1  0  0  0  0
 11 12  1  6  0  0  0
 11 13  1  0  0  0  0
 14 15  1  6  0  0  0
 14 16  1  0  0  0  0
 14 22  1  0  0  0  0
 16 17  1  0  0  0  0
 17 18  1  1  0  0  0
 17 19  1  0  0  0  0
 19  2  1  1  0  0  0
 19 20  1  0  0  0  0
 20 21  1  6  0  0  0
 20 22  1  0  0  0  0
 22 23  1  6  0  0  0
 24 23  1  1  0  0  0
 24 25  1  0  0  0  0
 24 34  1  0  0  0  0
 25 26  1  1  0  0  0
 25 27  1  0  0  0  0
 27 28  1  6  0  0  0
 27 30  1  0  0  0  0
 28 29  1  0  0  0  0
 30 31  1  6  0  0  0
 30 32  1  0  0  0  0
 30 33  1  0  0  0  0
 33 34  1  0  0  0  0
M  CHG  4   4   1  15   1  18   1  28   1
M  END
>  <CHROM.1>
-152.18307327,-154.30198523,-51.18987916,-161.78506450,-79.19223781,-172.44023951
-70.74374475,-55.10613906,42.89975285,69.89210851,110.65048294,-148.45881616
99.17322053,38.25353073,-61.11498326,-11.19262457,7.43889802,18.87238771
-0.18222508,0.80705914,-2.62571747

>  <Name>
1mwl

>  <RI>
0

>  <Rbt.Current_Directory>
/home/itssahil/PROJECTS/Mol_Feturizer/New_Systems/rnas/1mwl

>  <Rbt.Executable>
rbdock ($Id: //depot/dev/client3/rdock/2013.1/src/exe/rbdock.cxx#4 $)

>  <Rbt.Library>
libRbt.so (2013.1, Build901 2013/11/27)

>  <Rbt.Parameter_File>
/export/apps/rDock/src/rDock_2013.1_src/data/scripts/dock_solv.prm

>  <Rbt.Receptor>
prm/pocket_docking_3.prm

>  <SCORE>
-89.3532

>  <SCORE.INTER>
-76.8948

>  <SCORE.INTER.CONST>
1

>  <SCORE.INTER.POLAR>
-11.1674

>  <SCORE.INTER.ROT>
6

>  <SCORE.INTER.SOLV>
25.2714

>  <SCORE.INTER.VDW>
-30.0623

>  <SCORE.INTER.norm>
-2.26161

>  <SCORE.INTRA>
-12.4584

>  <SCORE.INTRA.DIHEDRAL>
-13.6886

>  <SCORE.INTRA.DIHEDRAL.0>
42.0816

>  <SCORE.INTRA.POLAR>
-0.856953

>  <SCORE.INTRA.POLAR.0>
-0.254682

>  <SCORE.INTRA.REPUL>
0

>  <SCORE.INTRA.REPUL.0>
0

>  <SCORE.INTRA.SOLV>
1.06581

>  <SCORE.INTRA.SOLV.lig_0>
-109.803

>  <SCORE.INTRA.VDW>
-3.23332

>  <SCORE.INTRA.VDW.0>
0.32176

>  <SCORE.INTRA.norm>
-0.366423

>  <SCORE.RESTR>
0

>  <SCORE.RESTR.CAVITY>
0

>  <SCORE.RESTR.norm>
0

>  <SCORE.SYSTEM>
0

>  <SCORE.SYSTEM.CONST>
0

>  <SCORE.SYSTEM.DIHEDRAL>
0

>  <SCORE.SYSTEM.SOLV>
0

>  <SCORE.SYSTEM.norm>
0

>  <SCORE.heavy>
34

>  <SCORE.norm>
-2.62803

>  <RMSD>
0.220

$$$$
1mwl
 OpenBabel11021811403D
libRbt.so/2013.1/901 2013/11/27
 34 36  0  0  0  0  0  0  0  0999 V2000
   -8.8151    6.2185   20.1334 C   0  0  2  0  0  0  0  0  0  0  0  0
   -9.9770    6.8362   20.5994 O   0  0  0  0  0  0  0  0  0  0  0  0
   -8.9014    4.7146   20.5177 C   0  0  2  0  0  0  0  0  0  0  0  0
  -10.0974    4.1091   19.9240 N   0  3  0  0  0  0  0  0  0  0  0  0
   -8.8832    4.5417   22.0647 C   0  0  1  0  0  0  0  0  0  0  0  0
   -8.9324    3.2301   22.4075 O   0  0  0  0  0  0  0  0  0  0  0  0
   -7.5880    5.2155   22.6269 C   0  0  2  0  0  0  0  0  0  0  0  0
   -7.5333    5.0653   24.0610 O   0  0  0  0  0  0  0  0  0  0  0  0
   -7.5994    6.7266   22.2141 C   0  0  2  0  0  0  0  0  0  0  0  0
   -7.6630    6.8563   20.7415 O   0  0  0  0  0  0  0  0  0  0  0  0
   -6.3745    7.5249   22.6749 C   0  0  2  0  0  0  0  0  0  0  0  0
   -6.5419    8.8671   22.3528 O   0  0  0  0  0  0  0  0  0  0  0  0
   -5.0614    7.0812   22.0045 C   0  0  0  0  0  0  0  0  0  0  0  0
  -12.9211    9.6550   19.3161 C   0  0  2  0  0  0  0  0  0  0  0  0
  -13.5410   10.8593   18.7073 N   0  3  0  0  0  0  0  0  0  0  0  0
  -11.9808   10.0543   20.4919 C   0  0  0  0  0  0  0  0  0  0  0  0
  -11.3159    8.7748   21.1171 C   0  0  2  0  0  0  0  0  0  0  0  0
  -10.4199    9.1921   22.2572 N   0  3  0  0  0  0  0  0  0  0  0  0
  -10.5206    8.0081   20.0054 C   0  0  2  0  0  0  0  0  0  0  0  0
  -11.4827    7.6179   18.8568 C   0  0  2  0  0  0  0  0  0  0  0  0
  -10.7516    6.9608   17.8500 O   0  0  0  0  0  0  0  0  0  0  0  0
  -12.1184    8.8928   18.2404 C   0  0  1  0  0  0  0  0  0  0  0  0
  -12.9937    8.5118   17.1891 O   0  0  0  0  0  0  0  0  0  0  0  0
  -12.8879    9.1682   15.9559 C   0  0  2  0  0  0  0  0  0  0  0  0
  -14.2968    9.2141   15.3347 C   0  0  2  0  0  0  0  0  0  0  0  0
  -15.1519    9.9449   16.1875 O   0  0  0  0  0  0  0  0  0  0  0  0
  -14.8205    7.7500   15.1422 C   0  0  1  0  0  0  0  0  0  0  0  0
  -16.1897    7.7072   14.5734 N   0  3  0  0  0  0  0  0  0  0  0  0
  -17.2101    7.7531   15.6518 C   0  0  0  0  0  0  0  0  0  0  0  0
  -13.8304    6.9670   14.2129 C   0  0  2  0  0  0  0  0  0  0  0  0
  -13.7489    7.6135   12.9288 O   0  0  0  0  0  0  0  0  0  0  0  0
  -14.2601    5.5988   13.9876 C   0  0  0  0  0  0  0  0  0  0  0  0
  -12.3904    7.0060   14.8113 C   0  0  0  0  0  0  0  0  0  0  0  0
  -11.9700    8.4202   15.0799 O   0  0  0  0  0  0  0  0  0  0  0  0
  1  2  1  1  0  0  0
  1  3  1  0  0  0  0
  1 10  1  0  0  0  0
  3  4  1  1  0  0  0
  3  5  1  0  0  0  0
  5  6  1  6  0  0  0
  5  7  1  0  0  0  0
  7  8  1  1  0  0  0
  7  9  1  0  0  0  0
  9 10  1  6  0  0  0
  9 11  1  0  0  0  0
 11 12  1  6  0  0  0
 11 13  1  0  0  0  0
 14 15  1  6  0  0  0
 14 16  1  0  0  0  0
 14 22  1  0  0  0  0
 16 17  1  0  0  0  0
 17 18  1  1  0  0  0
 17 19  1  0  0  0  0
 19  2  1  1  0  0  0
 19 20  1  0  0  0  0
 20 21  1  6  0  0  0
 20 22  1  0  0  0  0
 22 23  1  6  0  0  0
 24 23  1  1  0  0  0
 24 25  1  0  0  0  0
 24 34  1  0  0  0  0
 25 26  1  1  0  0  0
 25 27  1  0  0  0  0
 27 28  1  6  0  0  0
 27 30  1  0  0  0  0
 28 29  1  0  0  0  0
 30 31  1  6  0  0  0
 30 32  1  0  0  0  0
 30 33  1  0  0  0  0
 33 34  1  0  0  0  0
M  CHG  4   4   1  15   1  18   1  28   1
M  END
>  <CHROM.1>
-153.48538612,-152.81504882,-169.88436651,-160.04695614,-72.13145497,-175.09510698
-66.67356540,-176.07242916,47.96665673,-59.32632013,108.58444189,-148.07532480
107.23198210,31.60463558,-57.02864560,-11.14686219,7.43356920,18.83283801
-0.16718239,0.81453780,-2.65005418

>  <Name>
1mwl

>  <RI>
0

>  <Rbt.Current_Directory>
/home/itssahil/PROJECTS/Mol_Feturizer/New_Systems/rnas/1mwl

>  <Rbt.Executable>
rbdock ($Id: //depot/dev/client3/rdock/2013.1/src/exe/rbdock.cxx#4 $)

>  <Rbt.Library>
libRbt.so (2013.1, Build901 2013/11/27)

>  <Rbt.Parameter_File>
/export/apps/rDock/src/rDock_2013.1_src/data/scripts/dock_solv.prm

>  <Rbt.Receptor>
prm/pocket_docking_6.prm

>  <SCORE>
-89.829

>  <SCORE.INTER>
-76.4086

>  <SCORE.INTER.CONST>
1

>  <SCORE.INTER.POLAR>
-10.9154

>  <SCORE.INTER.ROT>
6

>  <SCORE.INTER.SOLV>
25.8093

>  <SCORE.INTER.VDW>
-30.7576

>  <SCORE.INTER.norm>
-2.24731

>  <SCORE.INTRA>
-13.4446

>  <SCORE.INTRA.DIHEDRAL>
-13.854

>  <SCORE.INTRA.DIHEDRAL.0>
42.0816

>  <SCORE.INTRA.POLAR>
-0.93998

>  <SCORE.INTRA.POLAR.0>
-0.254682

>  <SCORE.INTRA.REPUL>
0

>  <SCORE.INTRA.REPUL.0>
0

>  <SCORE.INTRA.SOLV>
0.85638

>  <SCORE.INTRA.SOLV.lig_0>
-109.803

>  <SCORE.INTRA.VDW>
-3.74982

>  <SCORE.INTRA.VDW.0>
0.32176

>  <SCORE.INTRA.norm>
-0.395429

>  <SCORE.RESTR>
0.0241854

>  <SCORE.RESTR.CAVITY>
0.0241854

>  <SCORE.RESTR.norm>
0.000711336

>  <SCORE.SYSTEM>
0

>  <SCORE.SYSTEM.CONST>
0

>  <SCORE.SYSTEM.DIHEDRAL>
0

>  <SCORE.SYSTEM.SOLV>
0

>  <SCORE.SYSTEM.norm>
0

>  <SCORE.heavy>
34

>  <SCORE.norm>
-2.64203

>  <RMSD>
0.229

$$$$
1mwl
 OpenBabel11021811403D
libRbt.so/2013.1/901 2013/11/27
 34 36  0  0  0  0  0  0  0  0999 V2000
   -8.8076    6.2212   20.1953 C   0  0  2  0  0  0  0  0  0  0  0  0
   -9.9578    6.8558   20.6675 O   0  0  0  0  0  0  0  0  0  0  0  0
   -8.9032    4.7231   20.5996 C   0  0  2  0  0  0  0  0  0  0  0  0
  -10.1120    4.1217   20.0283 N   0  3  0  0  0  0  0  0  0  0  0  0
   -8.8677    4.5696   22.1484 C   0  0  1  0  0  0  0  0  0  0  0  0
   -8.9250    3.2629   22.5084 O   0  0  0  0  0  0  0  0  0  0  0  0
   -7.5594    5.2380   22.6862 C   0  0  2  0  0  0  0  0  0  0  0  0
   -7.4885    5.1053   24.1214 O   0  0  0  0  0  0  0  0  0  0  0  0
   -7.5616    6.7438   22.2545 C   0  0  2  0  0  0  0  0  0  0  0  0
   -7.6421    6.8556   20.7813 O   0  0  0  0  0  0  0  0  0  0  0  0
   -6.3237    7.5361   22.6902 C   0  0  2  0  0  0  0  0  0  0  0  0
   -6.4954    8.8807   22.3805 O   0  0  0  0  0  0  0  0  0  0  0  0
   -5.0286    7.0932   21.9853 C   0  0  0  0  0  0  0  0  0  0  0  0
  -12.9083    9.6403   19.3257 C   0  0  2  0  0  0  0  0  0  0  0  0
  -13.5302   10.8356   18.7013 N   0  3  0  0  0  0  0  0  0  0  0  0
  -11.9895   10.0545   20.5132 C   0  0  0  0  0  0  0  0  0  0  0  0
  -11.3221    8.7845   21.1550 C   0  0  2  0  0  0  0  0  0  0  0  0
  -10.4472    9.2160   22.3060 N   0  3  0  0  0  0  0  0  0  0  0  0
  -10.5033    8.0195   20.0593 C   0  0  2  0  0  0  0  0  0  0  0  0
  -11.4445    7.6144   18.8986 C   0  0  2  0  0  0  0  0  0  0  0  0
  -10.6924    6.9589   17.9063 O   0  0  0  0  0  0  0  0  0  0  0  0
  -12.0826    8.8801   18.2660 C   0  0  1  0  0  0  0  0  0  0  0  0
  -12.9386    8.4855   17.2039 O   0  0  0  0  0  0  0  0  0  0  0  0
  -12.8526    9.1677   15.9832 C   0  0  2  0  0  0  0  0  0  0  0  0
  -14.2761    9.2533   15.4006 C   0  0  2  0  0  0  0  0  0  0  0  0
  -15.0948    9.9800   16.2918 O   0  0  0  0  0  0  0  0  0  0  0  0
  -14.8321    7.8037   15.1896 C   0  0  1  0  0  0  0  0  0  0  0  0
  -16.2162    7.7988   14.6564 N   0  3  0  0  0  0  0  0  0  0  0  0
  -17.2054    7.6911   15.7590 C   0  0  0  0  0  0  0  0  0  0  0  0
  -13.8814    7.0242   14.2172 C   0  0  2  0  0  0  0  0  0  0  0  0
  -13.8211    7.6980   12.9462 O   0  0  0  0  0  0  0  0  0  0  0  0
  -14.3424    5.6695   13.9730 C   0  0  0  0  0  0  0  0  0  0  0  0
  -12.4258    7.0234   14.7781 C   0  0  0  0  0  0  0  0  0  0  0  0
  -11.9720    8.4232   15.0668 O   0  0  0  0  0  0  0  0  0  0  0  0
  1  2  1  1  0  0  0
  1  3  1  0  0  0  0
  1 10  1  0  0  0  0
  3  4  1  1  0  0  0
  3  5  1  0  0  0  0
  5  6  1  6  0  0  0
  5  7  1  0  0  0  0
  7  8  1  1  0  0  0
  7  9  1  0  0  0  0
  9 10  1  6  0  0  0
  9 11  1  0  0  0  0
 11 12  1  6  0  0  0
 11 13  1  0  0  0  0
 14 15  1  6  0  0  0
 14 16  1  0  0  0  0
 14 22  1  0  0  0  0
 16 17  1  0  0  0  0
 17 18  1  1  0  0  0
 17 19  1  0  0  0  0
 19  2  1  1  0  0  0
 19 20  1  0  0  0  0
 20 21  1  6  0  0  0
 20 22  1  0  0  0  0
 22 23  1  6  0  0  0
 24 23  1  1  0  0  0
 24 25  1  0  0  0  0
 24 34  1  0  0  0  0
 25 26  1  1  0  0  0
 25 27  1  0  0  0  0
 27 28  1  6  0  0  0
 27 30  1  0  0  0  0
 28 29  1  0  0  0  0
 30 31  1  6  0  0  0
 30 32  1  0  0  0  0
 30 33  1  0  0  0  0
 33 34  1  0  0  0  0
M  CHG  4   4   1  15   1  18   1  28   1
M  END
>  <CHROM.1>
-152.99952354,-154.97118097,-166.75310900,-157.38048500,-72.83786836,-173.75230076
-69.61726709,179.42756226,-72.21869881,-62.51531800,106.39331868,-144.39518988
171.26593980,25.50631544,-58.74457827,-11.13903274,7.44967349,18.87533821
-0.16136298,0.81429391,-2.65739836

>  <Name>
1mwl

>  <RI>
0

>  <Rbt.Current_Directory>
/home/itssahil/PROJECTS/Mol_Feturizer/New_Systems/rnas/1mwl

>  <Rbt.Executable>
rbdock ($Id: //depot/dev/client3/rdock/2013.1/src/exe/rbdock.cxx#4 $)

>  <Rbt.Library>
libRbt.so (2013.1, Build901 2013/11/27)

>  <Rbt.Parameter_File>
/export/apps/rDock/src/rDock_2013.1_src/data/scripts/dock_solv.prm

>  <Rbt.Receptor>
prm/pocket_docking_4.prm

>  <SCORE>
-87.595

>  <SCORE.INTER>
-72.4009

>  <SCORE.INTER.CONST>
1

>  <SCORE.INTER.POLAR>
-10.0407

>  <SCORE.INTER.ROT>
6

>  <SCORE.INTER.SOLV>
25.9196

>  <SCORE.INTER.VDW>
-31.0383

>  <SCORE.INTER.norm>
-2.12944

>  <SCORE.INTRA>
-15.1941

>  <SCORE.INTRA.DIHEDRAL>
-18.2885

>  <SCORE.INTRA.DIHEDRAL.0>
42.0816

>  <SCORE.INTRA.POLAR>
-0.954313

>  <SCORE.INTRA.POLAR.0>
-0.254682

>  <SCORE.INTRA.REPUL>
0

>  <SCORE.INTRA.REPUL.0>
0

>  <SCORE.INTRA.SOLV>
1.0535

>  <SCORE.INTRA.SOLV.lig_0>
-109.803

>  <SCORE.INTRA.VDW>
-3.33193

>  <SCORE.INTRA.VDW.0>
0.32176

>  <SCORE.INTRA.norm>
-0.446885

>  <SCORE.RESTR>
0

>  <SCORE.RESTR.CAVITY>
0

>  <SCORE.RESTR.norm>
0

>  <SCORE.SYSTEM>
0

>  <SCORE.SYSTEM.CONST>
0

>  <SCORE.SYSTEM.DIHEDRAL>
0

>  <SCORE.SYSTEM.SOLV>
0

>  <SCORE.SYSTEM.norm>
0

>  <SCORE.heavy>
34

>  <SCORE.norm>
-2.57632

>  <RMSD>
0.240

$$$$
1mwl
 OpenBabel11021811403D
libRbt.so/2013.1/901 2013/11/27
 34 36  0  0  0  0  0  0  0  0999 V2000
   -8.8306    6.2226   20.2091 C   0  0  2  0  0  0  0  0  0  0  0  0
   -9.9744    6.8706   20.6788 O   0  0  0  0  0  0  0  0  0  0  0  0
   -8.9409    4.7274   20.6204 C   0  0  2  0  0  0  0  0  0  0  0  0
  -10.1558    4.1353   20.0522 N   0  3  0  0  0  0  0  0  0  0  0  0
   -8.9063    4.5806   22.1699 C   0  0  1  0  0  0  0  0  0  0  0  0
   -8.9763    3.2762   22.5358 O   0  0  0  0  0  0  0  0  0  0  0  0
   -7.5913    5.2384   22.7042 C   0  0  2  0  0  0  0  0  0  0  0  0
   -7.5212    5.1117   24.1399 O   0  0  0  0  0  0  0  0  0  0  0  0
   -7.5788    6.7422   22.2655 C   0  0  2  0  0  0  0  0  0  0  0  0
   -7.6588    6.8481   20.7918 O   0  0  0  0  0  0  0  0  0  0  0  0
   -6.3330    7.5242   22.6972 C   0  0  2  0  0  0  0  0  0  0  0  0
   -6.5257    8.8805   22.4593 O   0  0  0  0  0  0  0  0  0  0  0  0
   -5.0593    7.1283   21.9282 C   0  0  0  0  0  0  0  0  0  0  0  0
  -12.9240    9.6127   19.2505 C   0  0  2  0  0  0  0  0  0  0  0  0
  -13.5444   10.7994   18.6085 N   0  3  0  0  0  0  0  0  0  0  0  0
  -12.0477   10.0391   20.4655 C   0  0  0  0  0  0  0  0  0  0  0  0
  -11.3813    8.7783   21.1263 C   0  0  2  0  0  0  0  0  0  0  0  0
  -10.5479    9.2214   22.3036 N   0  3  0  0  0  0  0  0  0  0  0  0
  -10.5184    8.0268   20.0553 C   0  0  2  0  0  0  0  0  0  0  0  0
  -11.4181    7.6092   18.8664 C   0  0  2  0  0  0  0  0  0  0  0  0
  -10.6267    6.9661   17.8968 O   0  0  0  0  0  0  0  0  0  0  0  0
  -12.0555    8.8660   18.2157 C   0  0  1  0  0  0  0  0  0  0  0  0
  -12.8731    8.4601   17.1280 O   0  0  0  0  0  0  0  0  0  0  0  0
  -12.8079    9.1858   15.9314 C   0  0  2  0  0  0  0  0  0  0  0  0
  -14.2396    9.2825   15.3712 C   0  0  2  0  0  0  0  0  0  0  0  0
  -15.0507    9.9716   16.2984 O   0  0  0  0  0  0  0  0  0  0  0  0
  -14.7893    7.8377   15.1160 C   0  0  1  0  0  0  0  0  0  0  0  0
  -16.1804    7.8424   14.6013 N   0  3  0  0  0  0  0  0  0  0  0  0
  -17.1553    7.9326   15.7183 C   0  0  0  0  0  0  0  0  0  0  0  0
  -13.8470    7.0996   14.1039 C   0  0  2  0  0  0  0  0  0  0  0  0
  -13.8081    7.8186   12.8570 O   0  0  0  0  0  0  0  0  0  0  0  0
  -14.3028    5.7514   13.8177 C   0  0  0  0  0  0  0  0  0  0  0  0
  -12.3840    7.0886   14.6450 C   0  0  0  0  0  0  0  0  0  0  0  0
  -11.9351    8.4803   14.9774 O   0  0  0  0  0  0  0  0  0  0  0  0
  1  2  1  1  0  0  0
  1  3  1  0  0  0  0
  1 10  1  0  0  0  0
  3  4  1  1  0  0  0
  3  5  1  0  0  0  0
  5  6  1  6  0  0  0
  5  7  1  0  0  0  0
  7  8  1  1  0  0  0
  7  9  1  0  0  0  0
  9 10  1  6  0  0  0
  9 11  1  0  0  0  0
 11 12  1  6  0  0  0
 11 13  1  0  0  0  0
 14 15  1  6  0  0  0
 14 16  1  0  0  0  0
 14 22  1  0  0  0  0
 16 17  1  0  0  0  0
 17 18  1  1  0  0  0
 17 19  1  0  0  0  0
 19  2  1  1  0  0  0
 19 20  1  0  0  0  0
 20 21  1  6  0  0  0
 20 22  1  0  0  0  0
 22 23  1  6  0  0  0
 24 23  1  1  0  0  0
 24 25  1  0  0  0  0
 24 34  1  0  0  0  0
 25 26  1  1  0  0  0
 25 27  1  0  0  0  0
 27 28  1  6  0  0  0
 27 30  1  0  0  0  0
 28 29  1  0  0  0  0
 30 31  1  6  0  0  0
 30 32  1  0  0  0  0
 30 33  1  0  0  0  0
 33 34  1  0  0  0  0
M  CHG  4   4   1  15   1  18   1  28   1
M  END
>  <CHROM.1>
-152.16577779,-157.58663610,50.30825294,-56.58683466,-68.91551491,-169.99501872
-70.65690958,62.62459335,-73.49160211,-177.82948680,103.32226712,-141.14870886
111.97219603,35.58166702,-179.13423076,-11.13989076,7.46903331,18.84170122
-0.18658440,0.82432033,-2.62135069

>  <Name>
1mwl

>  <RI>
0

>  <Rbt.Current_Directory>
/home/itssahil/PROJECTS/Mol_Feturizer/New_Systems/rnas/1mwl

>  <Rbt.Executable>
rbdock ($Id: //depot/dev/client3/rdock/2013.1/src/exe/rbdock.cxx#4 $)

>  <Rbt.Library>
libRbt.so (2013.1, Build901 2013/11/27)

>  <Rbt.Parameter_File>
/export/apps/rDock/src/rDock_2013.1_src/data/scripts/dock_solv.prm

>  <Rbt.Receptor>
prm/pocket_docking_2.prm

>  <SCORE>
-89.867

>  <SCORE.INTER>
-77.0877

>  <SCORE.INTER.CONST>
1

>  <SCORE.INTER.POLAR>
-11.1698

>  <SCORE.INTER.ROT>
6

>  <SCORE.INTER.SOLV>
26.3191

>  <SCORE.INTER.VDW>
-30.5322

>  <SCORE.INTER.norm>
-2.26728

>  <SCORE.INTRA>
-12.7793

>  <SCORE.INTRA.DIHEDRAL>
-15.2348

>  <SCORE.INTRA.DIHEDRAL.0>
42.0816

>  <SCORE.INTRA.POLAR>
-0.91606

>  <SCORE.INTRA.POLAR.0>
-0.254682

>  <SCORE.INTRA.REPUL>
0

>  <SCORE.INTRA.REPUL.0>
0

>  <SCORE.INTRA.SOLV>
0.644288

>  <SCORE.INTRA.SOLV.lig_0>
-109.803

>  <SCORE.INTRA.VDW>
-2.36947

>  <SCORE.INTRA.VDW.0>
0.32176

>  <SCORE.INTRA.norm>
-0.375863

>  <SCORE.RESTR>
0

>  <SCORE.RESTR.CAVITY>
0

>  <SCORE.RESTR.norm>
0

>  <SCORE.SYSTEM>
0

>  <SCORE.SYSTEM.CONST>
0

>  <SCORE.SYSTEM.DIHEDRAL>
0

>  <SCORE.SYSTEM.SOLV>
0

>  <SCORE.SYSTEM.norm>
0

>  <SCORE.heavy>
34

>  <SCORE.norm>
-2.64315

>  <RMSD>
0.242

$$$$
1mwl
 OpenBabel11021811403D
libRbt.so/2013.1/901 2013/11/27
 34 36  0  0  0  0  0  0  0  0999 V2000
   -9.0103    6.1851   20.2221 C   0  0  2  0  0  0  0  0  0  0  0  0
  -10.1125    6.8881   20.7115 O   0  0  0  0  0  0  0  0  0  0  0  0
   -9.1394    4.7160   20.7140 C   0  0  2  0  0  0  0  0  0  0  0  0
  -10.3955    4.1313   20.2347 N   0  3  0  0  0  0  0  0  0  0  0  0
   -9.0336    4.6456   22.2656 C   0  0  1  0  0  0  0  0  0  0  0  0
   -9.1198    3.3636   22.7006 O   0  0  0  0  0  0  0  0  0  0  0  0
   -7.6775    5.2915   22.7030 C   0  0  2  0  0  0  0  0  0  0  0  0
   -7.5411    5.2344   24.1384 O   0  0  0  0  0  0  0  0  0  0  0  0
   -7.6470    6.7706   22.1880 C   0  0  2  0  0  0  0  0  0  0  0  0
   -7.7956    6.8052   20.7163 O   0  0  0  0  0  0  0  0  0  0  0  0
   -6.3618    7.5373   22.5199 C   0  0  2  0  0  0  0  0  0  0  0  0
   -6.5299    8.8848   22.2214 O   0  0  0  0  0  0  0  0  0  0  0  0
   -5.1374    7.0666   21.7138 C   0  0  0  0  0  0  0  0  0  0  0  0
  -12.9795    9.7280   19.3061 C   0  0  2  0  0  0  0  0  0  0  0  0
  -13.5651   10.9314   18.6626 N   0  3  0  0  0  0  0  0  0  0  0  0
  -12.0660   10.1320   20.5012 C   0  0  0  0  0  0  0  0  0  0  0  0
  -11.4369    8.8530   21.1634 C   0  0  2  0  0  0  0  0  0  0  0  0
  -10.5664    9.2750   22.3213 N   0  3  0  0  0  0  0  0  0  0  0  0
  -10.6228    8.0583   20.0854 C   0  0  2  0  0  0  0  0  0  0  0  0
  -11.5588    7.6642   18.9168 C   0  0  2  0  0  0  0  0  0  0  0  0
  -10.8100    6.9815   17.9403 O   0  0  0  0  0  0  0  0  0  0  0  0
  -12.1589    8.9382   18.2642 C   0  0  1  0  0  0  0  0  0  0  0  0
  -13.0106    8.5536   17.1951 O   0  0  0  0  0  0  0  0  0  0  0  0
  -12.9508    9.2751   15.9957 C   0  0  2  0  0  0  0  0  0  0  0  0
  -14.3717    9.3023   15.4015 C   0  0  2  0  0  0  0  0  0  0  0  0
  -15.2356    9.9580   16.3051 O   0  0  0  0  0  0  0  0  0  0  0  0
  -14.8479    7.8322   15.1429 C   0  0  1  0  0  0  0  0  0  0  0  0
  -16.2252    7.7696   14.5958 N   0  3  0  0  0  0  0  0  0  0  0  0
  -17.2290    7.8069   15.6899 C   0  0  0  0  0  0  0  0  0  0  0  0
  -13.8487    7.1332   14.1579 C   0  0  2  0  0  0  0  0  0  0  0  0
  -13.8137    7.8466   12.9076 O   0  0  0  0  0  0  0  0  0  0  0  0
  -14.2348    5.7638   13.8698 C   0  0  0  0  0  0  0  0  0  0  0  0
  -12.4000    7.1930   14.7332 C   0  0  0  0  0  0  0  0  0  0  0  0
  -12.0240    8.6058   15.0669 O   0  0  0  0  0  0  0  0  0  0  0  0
  1  2  1  1  0  0  0
  1  3  1  0  0  0  0
  1 10  1  0  0  0  0
  3  4  1  1  0  0  0
  3  5  1  0  0  0  0
  5  6  1  6  0  0  0
  5  7  1  0  0  0  0
  7  8  1  1  0  0  0
  7  9  1  0  0  0  0
  9 10  1  6  0  0  0
  9 11  1  0  0  0  0
 11 12  1  6  0  0  0
 11 13  1  0  0  0  0
 14 15  1  6  0  0  0
 14 16  1  0  0  0  0
 14 22  1  0  0  0  0
 16 17  1  0  0  0  0
 17 18  1  1  0  0  0
 17 19  1  0  0  0  0
 19  2  1  1  0  0  0
 19 20  1  0  0  0  0
 20 21  1  6  0  0  0
 20 22  1  0  0  0  0
 22 23  1  6  0  0  0
 24 23  1  1  0  0  0
 24 25  1  0  0  0  0
 24 34  1  0  0  0  0
 25 26  1  1  0  0  0
 25 27  1  0  0  0  0
 27 28  1  6  0  0  0
 27 30  1  0  0  0  0
 28 29  1  0  0  0  0
 30 31  1  6  0  0  0
 30 32  1  0  0  0  0
 30 33  1  0  0  0  0
 33 34  1  0  0  0  0
M  CHG  4   4   1  15   1  18   1  28   1
M  END
>  <CHROM.1>
-154.77219239,-158.16635933,-175.58730825,71.11292849,-69.88627386,-170.04305918
175.82323038,-172.91952573,-74.01937107,178.81356778,102.53300618,-146.13359259
-72.78111217,35.01820557,-63.02577738,-11.22493065,7.50150137,18.86723098
-0.15475958,0.82562440,-2.66143402

>  <Name>
1mwl

>  <RI>
0

>  <Rbt.Current_Directory>
/home/itssahil/PROJECTS/Mol_Feturizer/New_Systems/rnas/1mwl

>  <Rbt.Executable>
rbdock ($Id: //depot/dev/client3/rdock/2013.1/src/exe/rbdock.cxx#4 $)

>  <Rbt.Library>
libRbt.so (2013.1, Build901 2013/11/27)

>  <Rbt.Parameter_File>
/export/apps/rDock/src/rDock_2013.1_src/data/scripts/dock_solv.prm

>  <Rbt.Receptor>
prm/pocket_docking_2.prm

>  <SCORE>
-75.0068

>  <SCORE.INTER>
-60.2462

>  <SCORE.INTER.CONST>
1

>  <SCORE.INTER.POLAR>
-8.34232

>  <SCORE.INTER.ROT>
6

>  <SCORE.INTER.SOLV>
25.996

>  <SCORE.INTER.VDW>
-28.6217

>  <SCORE.INTER.norm>
-1.77195

>  <SCORE.INTRA>
-14.7606

>  <SCORE.INTRA.DIHEDRAL>
-22.7716

>  <SCORE.INTRA.DIHEDRAL.0>
42.0816

>  <SCORE.INTRA.POLAR>
-0.23946

>  <SCORE.INTRA.POLAR.0>
-0.254682

>  <SCORE.INTRA.REPUL>
0

>  <SCORE.INTRA.REPUL.0>
0

>  <SCORE.INTRA.SOLV>
0.267636

>  <SCORE.INTRA.SOLV.lig_0>
-109.803

>  <SCORE.INTRA.VDW>
-2.69446

>  <SCORE.INTRA.VDW.0>
0.32176

>  <SCORE.INTRA.norm>
-0.434136

>  <SCORE.RESTR>
0

>  <SCORE.RESTR.CAVITY>
0

>  <SCORE.RESTR.norm>
0

>  <SCORE.SYSTEM>
0

>  <SCORE.SYSTEM.CONST>
0

>  <SCORE.SYSTEM.DIHEDRAL>
0

>  <SCORE.SYSTEM.SOLV>
0

>  <SCORE.SYSTEM.norm>
0

>  <SCORE.heavy>
34

>  <SCORE.norm>
-2.20608

>  <RMSD>
0.244

$$$$
1mwl
 OpenBabel11021811403D
libRbt.so/2013.1/901 2013/11/27
 34 36  0  0  0  0  0  0  0  0999 V2000
   -8.8224    6.1547   20.2154 C   0  0  2  0  0  0  0  0  0  0  0  0
   -9.9755    6.7824   20.6900 O   0  0  0  0  0  0  0  0  0  0  0  0
   -8.8639    4.6778   20.6989 C   0  0  2  0  0  0  0  0  0  0  0  0
  -10.0718    4.0155   20.1970 N   0  3  0  0  0  0  0  0  0  0  0  0
   -8.7782    4.6062   22.2517 C   0  0  1  0  0  0  0  0  0  0  0  0
   -8.7880    3.3190   22.6798 O   0  0  0  0  0  0  0  0  0  0  0  0
   -7.4738    5.3361   22.7136 C   0  0  2  0  0  0  0  0  0  0  0  0
   -7.3567    5.2804   24.1507 O   0  0  0  0  0  0  0  0  0  0  0  0
   -7.5311    6.8168   22.2054 C   0  0  2  0  0  0  0  0  0  0  0  0
   -7.6584    6.8495   20.7316 O   0  0  0  0  0  0  0  0  0  0  0  0
   -6.3036    7.6632   22.5612 C   0  0  2  0  0  0  0  0  0  0  0  0
   -6.5474    8.9961   22.2493 O   0  0  0  0  0  0  0  0  0  0  0  0
   -5.0341    7.2645   21.7867 C   0  0  0  0  0  0  0  0  0  0  0  0
  -12.8958    9.6421   19.4438 C   0  0  2  0  0  0  0  0  0  0  0  0
  -13.5064   10.8555   18.8435 N   0  3  0  0  0  0  0  0  0  0  0  0
  -11.9371   10.0271   20.6094 C   0  0  0  0  0  0  0  0  0  0  0  0
  -11.2824    8.7380   21.2254 C   0  0  2  0  0  0  0  0  0  0  0  0
  -10.3681    9.1415   22.3558 N   0  3  0  0  0  0  0  0  0  0  0  0
  -10.5100    7.9623   20.1037 C   0  0  2  0  0  0  0  0  0  0  0  0
  -11.4901    7.5867   18.9656 C   0  0  2  0  0  0  0  0  0  0  0  0
  -10.7793    6.9213   17.9497 O   0  0  0  0  0  0  0  0  0  0  0  0
  -12.1156    8.8708   18.3580 C   0  0  1  0  0  0  0  0  0  0  0  0
  -13.0077    8.5031   17.3162 O   0  0  0  0  0  0  0  0  0  0  0  0
  -12.8885    9.1397   16.0739 C   0  0  2  0  0  0  0  0  0  0  0  0
  -14.2988    9.2218   15.4597 C   0  0  2  0  0  0  0  0  0  0  0  0
  -15.1257    9.9901   16.3073 O   0  0  0  0  0  0  0  0  0  0  0  0
  -14.8692    7.7725   15.2893 C   0  0  1  0  0  0  0  0  0  0  0  0
  -16.2424    7.7653   14.7284 N   0  3  0  0  0  0  0  0  0  0  0  0
  -17.2462    8.0368   15.7889 C   0  0  0  0  0  0  0  0  0  0  0  0
  -13.9095    6.9468   14.3651 C   0  0  2  0  0  0  0  0  0  0  0  0
  -13.8151    7.5737   13.0722 O   0  0  0  0  0  0  0  0  0  0  0  0
  -14.3831    5.5899   14.1601 C   0  0  0  0  0  0  0  0  0  0  0  0
  -12.4656    6.9483   14.9553 C   0  0  0  0  0  0  0  0  0  0  0  0
  -11.9995    8.3520   15.2029 O   0  0  0  0  0  0  0  0  0  0  0  0
  1  2  1  1  0  0  0
  1  3  1  0  0  0  0
  1 10  1  0  0  0  0
  3  4  1  1  0  0  0
  3  5  1  0  0  0  0
  5  6  1  6  0  0  0
  5  7  1  0  0  0  0
  7  8  1  1  0  0  0
  7  9  1  0  0  0  0
  9 10  1  6  0  0  0
  9 11  1  0  0  0  0
 11 12  1  6  0  0  0
 11 13  1  0  0  0  0
 14 15  1  6  0  0  0
 14 16  1  0  0  0  0
 14 22  1  0  0  0  0
 16 17  1  0  0  0  0
 17 18  1  1  0  0  0
 17 19  1  0  0  0  0
 19  2  1  1  0  0  0
 19 20  1  0  0  0  0
 20 21  1  6  0  0  0
 20 22  1  0  0  0  0
 22 23  1  6  0  0  0
 24 23  1  1  0  0  0
 24 25  1  0  0  0  0
 24 34  1  0  0  0  0
 25 26  1  1  0  0  0
 25 27  1  0  0  0  0
 27 28  1  6  0  0  0
 27 30  1  0  0  0  0
 28 29  1  0  0  0  0
 30 31  1  6  0  0  0
 30 32  1  0  0  0  0
 30 33  1  0  0  0  0
 33 34  1  0  0  0  0
M  CHG  4   4   1  15   1  18   1  28   1
M  END
>  <CHROM.1>
-158.24642106,-152.38795166,-34.56027950,-90.56825124,-68.43137877,-170.82318477
62.03458107,-54.72504468,-67.86363557,-61.00102520,109.92154598,-148.02442036
101.78589618,39.08880540,62.44670587,-11.13389180,7.45623130,18.93878383
-0.15367298,0.80384377,-2.66620105

>  <Name>
1mwl

>  <RI>
0

>  <Rbt.Current_Directory>
/home/itssahil/PROJECTS/Mol_Feturizer/New_Systems/rnas/1mwl

>  <Rbt.Executable>
rbdock ($Id: //depot/dev/client3/rdock/2013.1/src/exe/rbdock.cxx#4 $)

>  <Rbt.Library>
libRbt.so (2013.1, Build901 2013/11/27)

>  <Rbt.Parameter_File>
/export/apps/rDock/src/rDock_2013.1_src/data/scripts/dock_solv.prm

>  <Rbt.Receptor>
prm/pocket_docking_3.prm

>  <SCORE>
-83.0887

>  <SCORE.INTER>
-69.298

>  <SCORE.INTER.CONST>
1

>  <SCORE.INTER.POLAR>
-9.71668

>  <SCORE.INTER.ROT>
6

>  <SCORE.INTER.SOLV>
25.361

>  <SCORE.INTER.VDW>
-29.8634

>  <SCORE.INTER.norm>
-2.03818

>  <SCORE.INTRA>
-13.7906

>  <SCORE.INTRA.DIHEDRAL>
-13.3762

>  <SCORE.INTRA.DIHEDRAL.0>
42.0816

>  <SCORE.INTRA.POLAR>
-0.948621

>  <SCORE.INTRA.POLAR.0>
-0.254682

>  <SCORE.INTRA.REPUL>
0.004985

>  <SCORE.INTRA.REPUL.0>
0

>  <SCORE.INTRA.SOLV>
0.677174

>  <SCORE.INTRA.SOLV.lig_0>
-109.803

>  <SCORE.INTRA.VDW>
-4.24073

>  <SCORE.INTRA.VDW.0>
0.32176

>  <SCORE.INTRA.norm>
-0.405606

>  <SCORE.RESTR>
0

>  <SCORE.RESTR.CAVITY>
0

>  <SCORE.RESTR.norm>
0

>  <SCORE.SYSTEM>
0

>  <SCORE.SYSTEM.CONST>
0

>  <SCORE.SYSTEM.DIHEDRAL>
0

>  <SCORE.SYSTEM.SOLV>
0

>  <SCORE.SYSTEM.norm>
0

>  <SCORE.heavy>
34

>  <SCORE.norm>
-2.44378

>  <RMSD>
0.263

$$$$
1mwl
 OpenBabel11021811403D
libRbt.so/2013.1/901 2013/11/27
 34 36  0  0  0  0  0  0  0  0999 V2000
   -8.8463    6.1637   20.1249 C   0  0  2  0  0  0  0  0  0  0  0  0
  -10.0012    6.7899   20.5968 O   0  0  0  0  0  0  0  0  0  0  0  0
   -8.9229    4.6687   20.5444 C   0  0  2  0  0  0  0  0  0  0  0  0
  -10.1278    4.0480   19.9853 N   0  3  0  0  0  0  0  0  0  0  0  0
   -8.8777    4.5308   22.0944 C   0  0  1  0  0  0  0  0  0  0  0  0
   -8.9184    3.2272   22.4675 O   0  0  0  0  0  0  0  0  0  0  0  0
   -7.5744    5.2192   22.6188 C   0  0  2  0  0  0  0  0  0  0  0  0
   -7.4946    5.1015   24.0548 O   0  0  0  0  0  0  0  0  0  0  0  0
   -7.5958    6.7205   22.1723 C   0  0  2  0  0  0  0  0  0  0  0  0
   -7.6851    6.8169   20.6985 O   0  0  0  0  0  0  0  0  0  0  0  0
   -6.3648    7.5310   22.5937 C   0  0  2  0  0  0  0  0  0  0  0  0
   -6.5812    8.8799   22.3353 O   0  0  0  0  0  0  0  0  0  0  0  0
   -5.0831    7.1463   21.8323 C   0  0  0  0  0  0  0  0  0  0  0  0
  -12.9612    9.5486   19.2231 C   0  0  2  0  0  0  0  0  0  0  0  0
  -13.5862   10.7444   18.6027 N   0  3  0  0  0  0  0  0  0  0  0  0
  -12.0821    9.9568   20.4423 C   0  0  0  0  0  0  0  0  0  0  0  0
  -11.4109    8.6868   21.0801 C   0  0  2  0  0  0  0  0  0  0  0  0
  -10.5749    9.1122   22.2620 N   0  3  0  0  0  0  0  0  0  0  0  0
  -10.5497    7.9550   19.9941 C   0  0  2  0  0  0  0  0  0  0  0  0
  -11.4521    7.5551   18.8013 C   0  0  2  0  0  0  0  0  0  0  0  0
  -10.6623    6.9299   17.8187 O   0  0  0  0  0  0  0  0  0  0  0  0
  -12.0943    8.8211   18.1735 C   0  0  1  0  0  0  0  0  0  0  0  0
  -12.9144    8.4314   17.0816 O   0  0  0  0  0  0  0  0  0  0  0  0
  -12.8491    9.1725   15.8945 C   0  0  2  0  0  0  0  0  0  0  0  0
  -14.2830    9.2908   15.3444 C   0  0  2  0  0  0  0  0  0  0  0  0
  -15.0819    9.9751   16.2857 O   0  0  0  0  0  0  0  0  0  0  0  0
  -14.8485    7.8550   15.0730 C   0  0  1  0  0  0  0  0  0  0  0  0
  -16.2425    7.8803   14.5670 N   0  3  0  0  0  0  0  0  0  0  0  0
  -17.2115    7.8986   15.6924 C   0  0  0  0  0  0  0  0  0  0  0  0
  -13.9195    7.1215   14.0454 C   0  0  2  0  0  0  0  0  0  0  0  0
  -13.8809    7.8570   12.8081 O   0  0  0  0  0  0  0  0  0  0  0  0
  -14.3902    5.7818   13.7438 C   0  0  0  0  0  0  0  0  0  0  0  0
  -12.4535    7.0889   14.5775 C   0  0  0  0  0  0  0  0  0  0  0  0
  -11.9890    8.4716   14.9258 O   0  0  0  0  0  0  0  0  0  0  0  0
  1  2  1  1  0  0  0
  1  3  1  0  0  0  0
  1 10  1  0  0  0  0
  3  4  1  1  0  0  0
  3  5  1  0  0  0  0
  5  6  1  6  0  0  0
  5  7  1  0  0  0  0
  7  8  1  1  0  0  0
  7  9  1  0  0  0  0
  9 10  1  6  0  0  0
  9 11  1  0  0  0  0
 11 12  1  6  0  0  0
 11 13  1  0  0  0  0
 14 15  1  6  0  0  0
 14 16  1  0  0  0  0
 14 22  1  0  0  0  0
 16 17  1  0  0  0  0
 17 18  1  1  0  0  0
 17 19  1  0  0  0  0
 19  2  1  1  0  0  0
 19 20  1  0  0  0  0
 20 21  1  6  0  0  0
 20 22  1  0  0  0  0
 22 23  1  6  0  0  0
 24 23  1  1  0  0  0
 24 25  1  0  0  0  0
 24 34  1  0  0  0  0
 25 26  1  1  0  0  0
 25 27  1  0  0  0  0
 27 28  1  6  0  0  0
 27 30  1  0  0  0  0
 28 29  1  0  0  0  0
 30 31  1  6  0  0  0
 30 32  1  0  0  0  0
 30 33  1  0  0  0  0
 33 34  1  0  0  0  0
M  CHG  4   4   1  15   1  18   1  28   1
M  END
>  <CHROM.1>
-154.13581330,-156.61316423,-171.96270400,-155.69405613,-71.49751283,-170.68546473
65.44828994,60.22985082,165.56838226,179.45445750,103.66305384,-140.64637017
109.23739729,32.84608296,-179.38102936,-11.17013160,7.44150865,18.78757723
-0.19151139,0.81918328,-2.60697836

>  <Name>
1mwl

>  <RI>
0

>  <Rbt.Current_Directory>
/home/itssahil/PROJECTS/Mol_Feturizer/New_Systems/rnas/1mwl

>  <Rbt.Executable>
rbdock ($Id: //depot/dev/client3/rdock/2013.1/src/exe/rbdock.cxx#4 $)

>  <Rbt.Library>
libRbt.so (2013.1, Build901 2013/11/27)

>  <Rbt.Parameter_File>
/export/apps/rDock/src/rDock_2013.1_src/data/scripts/dock_solv.prm

>  <Rbt.Receptor>
prm/pocket_docking_4.prm

>  <SCORE>
-89.0315

>  <SCORE.INTER>
-75.8956

>  <SCORE.INTER.CONST>
1

>  <SCORE.INTER.POLAR>
-10.9249

>  <SCORE.INTER.ROT>
6

>  <SCORE.INTER.SOLV>
26.3941

>  <SCORE.INTER.VDW>
-30.5789

>  <SCORE.INTER.norm>
-2.23222

>  <SCORE.INTRA>
-13.1359

>  <SCORE.INTRA.DIHEDRAL>
-13.0558

>  <SCORE.INTRA.DIHEDRAL.0>
42.0816

>  <SCORE.INTRA.POLAR>
-0.930903

>  <SCORE.INTRA.POLAR.0>
-0.254682

>  <SCORE.INTRA.REPUL>
0

>  <SCORE.INTRA.REPUL.0>
0

>  <SCORE.INTRA.SOLV>
0.590017

>  <SCORE.INTRA.SOLV.lig_0>
-109.803

>  <SCORE.INTRA.VDW>
-3.73789

>  <SCORE.INTRA.VDW.0>
0.32176

>  <SCORE.INTRA.norm>
-0.386349

>  <SCORE.RESTR>
0

>  <SCORE.RESTR.CAVITY>
0

>  <SCORE.RESTR.norm>
0

>  <SCORE.SYSTEM>
0

>  <SCORE.SYSTEM.CONST>
0

>  <SCORE.SYSTEM.DIHEDRAL>
0

>  <SCORE.SYSTEM.SOLV>
0

>  <SCORE.SYSTEM.norm>
0

>  <SCORE.heavy>
34

>  <SCORE.norm>
-2.61857

>  <RMSD>
0.282

$$$$
1mwl
 OpenBabel11021811403D
libRbt.so/2013.1/901 2013/11/27
 34 36  0  0  0  0  0  0  0  0999 V2000
   -9.0045    6.2747   20.2336 C   0  0  2  0  0  0  0  0  0  0  0  0
  -10.0933    6.9836   20.7440 O   0  0  0  0  0  0  0  0  0  0  0  0
   -9.1322    4.8062   20.7277 C   0  0  2  0  0  0  0  0  0  0  0  0
  -10.4005    4.2284   20.2725 N   0  3  0  0  0  0  0  0  0  0  0  0
   -8.9971    4.7349   22.2770 C   0  0  1  0  0  0  0  0  0  0  0  0
   -9.0820    3.4533   22.7135 O   0  0  0  0  0  0  0  0  0  0  0  0
   -7.6294    5.3733   22.6885 C   0  0  2  0  0  0  0  0  0  0  0  0
   -7.4659    5.3152   24.1210 O   0  0  0  0  0  0  0  0  0  0  0  0
   -7.6007    6.8523   22.1731 C   0  0  2  0  0  0  0  0  0  0  0  0
   -7.7772    6.8880   20.7044 O   0  0  0  0  0  0  0  0  0  0  0  0
   -6.3051    7.6119   22.4804 C   0  0  2  0  0  0  0  0  0  0  0  0
   -6.4535    8.9503   22.1340 O   0  0  0  0  0  0  0  0  0  0  0  0
   -5.0863    7.0957   21.6941 C   0  0  0  0  0  0  0  0  0  0  0  0
  -13.0049    9.7695   19.3225 C   0  0  2  0  0  0  0  0  0  0  0  0
  -13.6092   10.9629   18.6773 N   0  3  0  0  0  0  0  0  0  0  0  0
  -12.1096   10.1883   20.5262 C   0  0  0  0  0  0  0  0  0  0  0  0
  -11.4605    8.9203   21.1902 C   0  0  2  0  0  0  0  0  0  0  0  0
  -10.6082    9.3563   22.3564 N   0  3  0  0  0  0  0  0  0  0  0  0
  -10.6217    8.1452   20.1169 C   0  0  2  0  0  0  0  0  0  0  0  0
  -11.5399    7.7357   18.9395 C   0  0  2  0  0  0  0  0  0  0  0  0
  -10.7696    7.0710   17.9674 O   0  0  0  0  0  0  0  0  0  0  0  0
  -12.1600    8.9994   18.2853 C   0  0  1  0  0  0  0  0  0  0  0  0
  -12.9950    8.6008   17.2081 O   0  0  0  0  0  0  0  0  0  0  0  0
  -12.9806    9.3600   16.0307 C   0  0  2  0  0  0  0  0  0  0  0  0
  -14.4105    9.3509   15.4578 C   0  0  2  0  0  0  0  0  0  0  0  0
  -15.2846    9.9456   16.3932 O   0  0  0  0  0  0  0  0  0  0  0  0
  -14.8349    7.8722   15.1608 C   0  0  1  0  0  0  0  0  0  0  0  0
  -16.2170    7.7737   14.6316 N   0  3  0  0  0  0  0  0  0  0  0  0
  -17.2105    7.8685   15.7316 C   0  0  0  0  0  0  0  0  0  0  0  0
  -13.8253    7.2418   14.1408 C   0  0  2  0  0  0  0  0  0  0  0  0
  -13.8362    7.9934   12.9127 O   0  0  0  0  0  0  0  0  0  0  0  0
  -14.1639    5.8680   13.8163 C   0  0  0  0  0  0  0  0  0  0  0  0
  -12.3713    7.3394   14.6971 C   0  0  0  0  0  0  0  0  0  0  0  0
  -12.0436    8.7548   15.0688 O   0  0  0  0  0  0  0  0  0  0  0  0
  1  2  1  1  0  0  0
  1  3  1  0  0  0  0
  1 10  1  0  0  0  0
  3  4  1  1  0  0  0
  3  5  1  0  0  0  0
  5  6  1  6  0  0  0
  5  7  1  0  0  0  0
  7  8  1  1  0  0  0
  7  9  1  0  0  0  0
  9 10  1  6  0  0  0
  9 11  1  0  0  0  0
 11 12  1  6  0  0  0
 11 13  1  0  0  0  0
 14 15  1  6  0  0  0
 14 16  1  0  0  0  0
 14 22  1  0  0  0  0
 16 17  1  0  0  0  0
 17 18  1  1  0  0  0
 17 19  1  0  0  0  0
 19  2  1  1  0  0  0
 19 20  1  0  0  0  0
 20 21  1  6  0  0  0
 20 22  1  0  0  0  0
 22 23  1  6  0  0  0
 24 23  1  1  0  0  0
 24 25  1  0  0  0  0
 24 34  1  0  0  0  0
 25 26  1  1  0  0  0
 25 27  1  0  0  0  0
 27 28  1  6  0  0  0
 27 30  1  0  0  0  0
 28 29  1  0  0  0  0
 30 31  1  6  0  0  0
 30 32  1  0  0  0  0
 30 33  1  0  0  0  0
 33 34  1  0  0  0  0
M  CHG  4   4   1  15   1  18   1  28   1
M  END
>  <CHROM.1>
-153.79398417,-160.68763503,-46.10698380,66.75590638,-64.47646198,-172.46064704
174.77480104,64.09981752,-72.74646471,176.38875286,99.91442268,-145.00707339
-71.33354709,40.35170442,-64.24527507,-11.21411062,7.57624346,18.87682432
-0.17839858,0.81696587,-2.62706151

>  <Name>
1mwl

>  <RI>
0

>  <Rbt.Current_Directory>
/home/itssahil/PROJECTS/Mol_Feturizer/New_Systems/rnas/1mwl

>  <Rbt.Executable>
rbdock ($Id: //depot/dev/client3/rdock/2013.1/src/exe/rbdock.cxx#4 $)

>  <Rbt.Library>
libRbt.so (2013.1, Build901 2013/11/27)

>  <Rbt.Parameter_File>
/export/apps/rDock/src/rDock_2013.1_src/data/scripts/dock_solv.prm

>  <Rbt.Receptor>
prm/pocket_docking_2.prm

>  <SCORE>
-75.0364

>  <SCORE.INTER>
-59.5694

>  <SCORE.INTER.CONST>
1

>  <SCORE.INTER.POLAR>
-8.25038

>  <SCORE.INTER.ROT>
6

>  <SCORE.INTER.SOLV>
26.1614

>  <SCORE.INTER.VDW>
-28.5321

>  <SCORE.INTER.norm>
-1.75204

>  <SCORE.INTRA>
-15.467

>  <SCORE.INTRA.DIHEDRAL>
-24.3494

>  <SCORE.INTRA.DIHEDRAL.0>
42.0816

>  <SCORE.INTRA.POLAR>
-0.252245

>  <SCORE.INTRA.POLAR.0>
-0.254682

>  <SCORE.INTRA.REPUL>
0

>  <SCORE.INTRA.REPUL.0>
0

>  <SCORE.INTRA.SOLV>
0.116278

>  <SCORE.INTRA.SOLV.lig_0>
-109.803

>  <SCORE.INTRA.VDW>
-2.49282

>  <SCORE.INTRA.VDW.0>
0.32176

>  <SCORE.INTRA.norm>
-0.454912

>  <SCORE.RESTR>
0

>  <SCORE.RESTR.CAVITY>
0

>  <SCORE.RESTR.norm>
0

>  <SCORE.SYSTEM>
0

>  <SCORE.SYSTEM.CONST>
0

>  <SCORE.SYSTEM.DIHEDRAL>
0

>  <SCORE.SYSTEM.SOLV>
0

>  <SCORE.SYSTEM.norm>
0

>  <SCORE.heavy>
34

>  <SCORE.norm>
-2.20695

>  <RMSD>
0.299

$$$$
1mwl
 OpenBabel11021811403D
libRbt.so/2013.1/901 2013/11/27
 34 36  0  0  0  0  0  0  0  0999 V2000
   -8.8843    6.1440   20.0335 C   0  0  2  0  0  0  0  0  0  0  0  0
  -10.0888    6.7276   20.4298 O   0  0  0  0  0  0  0  0  0  0  0  0
   -8.9200    4.6548   20.4784 C   0  0  2  0  0  0  0  0  0  0  0  0
  -10.0650    3.9724   19.8678 N   0  3  0  0  0  0  0  0  0  0  0  0
   -8.9539    4.5467   22.0311 C   0  0  1  0  0  0  0  0  0  0  0  0
   -8.9594    3.2494   22.4276 O   0  0  0  0  0  0  0  0  0  0  0  0
   -7.7117    5.3004   22.6110 C   0  0  2  0  0  0  0  0  0  0  0  0
   -7.7057    5.2120   24.0512 O   0  0  0  0  0  0  0  0  0  0  0  0
   -7.7725    6.7912   22.1337 C   0  0  2  0  0  0  0  0  0  0  0  0
   -7.7851    6.8573   20.6556 O   0  0  0  0  0  0  0  0  0  0  0  0
   -6.6019    7.6619   22.6044 C   0  0  2  0  0  0  0  0  0  0  0  0
   -6.7525    8.9541   22.1137 O   0  0  0  0  0  0  0  0  0  0  0  0
   -5.2295    7.1700   22.1096 C   0  0  0  0  0  0  0  0  0  0  0  0
  -12.9644    9.6210   19.1576 C   0  0  2  0  0  0  0  0  0  0  0  0
  -13.5555   10.8412   18.5516 N   0  3  0  0  0  0  0  0  0  0  0  0
  -12.0110    9.9954   20.3310 C   0  0  0  0  0  0  0  0  0  0  0  0
  -11.3768    8.6990   20.9532 C   0  0  2  0  0  0  0  0  0  0  0  0
  -10.4672    9.0924   22.0909 N   0  3  0  0  0  0  0  0  0  0  0  0
  -10.6044    7.9134   19.8384 C   0  0  2  0  0  0  0  0  0  0  0  0
  -11.5794    7.5487   18.6924 C   0  0  2  0  0  0  0  0  0  0  0  0
  -10.8680    6.8742   17.6829 O   0  0  0  0  0  0  0  0  0  0  0  0
  -12.1844    8.8397   18.0788 C   0  0  1  0  0  0  0  0  0  0  0  0
  -13.0721    8.4820   17.0298 O   0  0  0  0  0  0  0  0  0  0  0  0
  -12.9650    9.1489   15.8025 C   0  0  2  0  0  0  0  0  0  0  0  0
  -14.3849    9.2720   15.2181 C   0  0  2  0  0  0  0  0  0  0  0  0
  -15.1815   10.0322   16.1013 O   0  0  0  0  0  0  0  0  0  0  0  0
  -14.9847    7.8379   15.0212 C   0  0  1  0  0  0  0  0  0  0  0  0
  -16.3681    7.8698   14.4870 N   0  3  0  0  0  0  0  0  0  0  0  0
  -17.3598    7.7323   15.5841 C   0  0  0  0  0  0  0  0  0  0  0  0
  -14.0577    7.0201   14.0573 C   0  0  2  0  0  0  0  0  0  0  0  0
  -13.9765    7.6791   12.7796 O   0  0  0  0  0  0  0  0  0  0  0  0
  -14.5596    5.6777   13.8264 C   0  0  0  0  0  0  0  0  0  0  0  0
  -12.6031    6.9807   14.6192 C   0  0  0  0  0  0  0  0  0  0  0  0
  -12.1071    8.3689   14.8942 O   0  0  0  0  0  0  0  0  0  0  0  0
  1  2  1  1  0  0  0
  1  3  1  0  0  0  0
  1 10  1  0  0  0  0
  3  4  1  6  0  0  0
  3  5  1  0  0  0  0
  5  6  1  6  0  0  0
  5  7  1  0  0  0  0
  7  8  1  1  0  0  0
  7  9  1  0  0  0  0
  9 10  1  6  0  0  0
  9 11  1  0  0  0  0
 11 12  1  6  0  0  0
 11 13  1  0  0  0  0
 14 15  1  6  0  0  0
 14 16  1  0  0  0  0
 14 22  1  0  0  0  0
 16 17  1  0  0  0  0
 17 18  1  1  0  0  0
 17 19  1  0  0  0  0
 19  2  1  1  0  0  0
 19 20  1  0  0  0  0
 20 21  1  6  0  0  0
 20 22  1  0  0  0  0
 22 23  1  6  0  0  0
 24 23  1  1  0  0  0
 24 25  1  0  0  0  0
 24 34  1  0  0  0  0
 25 26  1  1  0  0  0
 25 27  1  0  0  0  0
 27 28  1  6  0  0  0
 27 30  1  0  0  0  0
 28 29  1  0  0  0  0
 30 31  1  6  0  0  0
 30 32  1  0  0  0  0
 30 33  1  0  0  0  0
 33 34  1  0  0  0  0
M  CHG  4   4   1  15   1  18   1  28   1
M  END
>  <CHROM.1>
-158.82800854,-147.24345566,59.80989718,-161.95547646,57.90217687,179.41148258
57.02528537,55.91200089,176.05375527,178.52007950,107.75366292,-145.82504578
105.81692834,22.56991318,54.04706939,-11.26133021,7.43484741,18.72174979
-0.12823023,0.82669964,-2.70317397

>  <Name>
1mwl

>  <RI>
0

>  <Rbt.Current_Directory>
/home/itssahil/PROJECTS/Mol_Feturizer/New_Systems/rnas/1mwl

>  <Rbt.Executable>
rbdock ($Id: //depot/dev/client3/rdock/2013.1/src/exe/rbdock.cxx#4 $)

>  <Rbt.Library>
libRbt.so (2013.1, Build901 2013/11/27)

>  <Rbt.Parameter_File>
/export/apps/rDock/src/rDock_2013.1_src/data/scripts/dock_solv.prm

>  <Rbt.Receptor>
prm/pocket_docking_5.prm

>  <SCORE>
-81.3244

>  <SCORE.INTER>
-67.5399

>  <SCORE.INTER.CONST>
1

>  <SCORE.INTER.POLAR>
-9.19124

>  <SCORE.INTER.ROT>
6

>  <SCORE.INTER.SOLV>
26.1833

>  <SCORE.INTER.VDW>
-30.7169

>  <SCORE.INTER.norm>
-1.98647

>  <SCORE.INTRA>
-13.7845

>  <SCORE.INTRA.DIHEDRAL>
-14.5287

>  <SCORE.INTRA.DIHEDRAL.0>
42.0816

>  <SCORE.INTRA.POLAR>
-0.814434

>  <SCORE.INTRA.POLAR.0>
-0.254682

>  <SCORE.INTRA.REPUL>
0.0213061

>  <SCORE.INTRA.REPUL.0>
0

>  <SCORE.INTRA.SOLV>
1.55748

>  <SCORE.INTRA.SOLV.lig_0>
-109.803

>  <SCORE.INTRA.VDW>
-4.63637

>  <SCORE.INTRA.VDW.0>
0.32176

>  <SCORE.INTRA.norm>
-0.405427

>  <SCORE.RESTR>
0

>  <SCORE.RESTR.CAVITY>
0

>  <SCORE.RESTR.norm>
0

>  <SCORE.SYSTEM>
0

>  <SCORE.SYSTEM.CONST>
0

>  <SCORE.SYSTEM.DIHEDRAL>
0

>  <SCORE.SYSTEM.SOLV>
0

>  <SCORE.SYSTEM.norm>
0

>  <SCORE.heavy>
34

>  <SCORE.norm>
-2.39189

>  <RMSD>
0.299

$$$$
1mwl
 OpenBabel11021811403D
libRbt.so/2013.1/901 2013/11/27
 34 36  0  0  0  0  0  0  0  0999 V2000
   -8.8122    6.2223   20.0868 C   0  0  2  0  0  0  0  0  0  0  0  0
   -9.9867    6.8332   20.5296 O   0  0  0  0  0  0  0  0  0  0  0  0
   -8.9043    4.7148   20.4551 C   0  0  2  0  0  0  0  0  0  0  0  0
  -10.0839    4.1122   19.8266 N   0  3  0  0  0  0  0  0  0  0  0  0
   -8.9239    4.5277   22.0005 C   0  0  1  0  0  0  0  0  0  0  0  0
   -8.9785    3.2129   22.3299 O   0  0  0  0  0  0  0  0  0  0  0  0
   -7.6446    5.1990   22.6006 C   0  0  2  0  0  0  0  0  0  0  0  0
   -7.6249    5.0358   24.0342 O   0  0  0  0  0  0  0  0  0  0  0  0
   -7.6493    6.7138   22.2015 C   0  0  2  0  0  0  0  0  0  0  0  0
   -7.6769    6.8570   20.7290 O   0  0  0  0  0  0  0  0  0  0  0  0
   -6.4380    7.5105   22.6996 C   0  0  2  0  0  0  0  0  0  0  0  0
   -6.6105    8.8583   22.4048 O   0  0  0  0  0  0  0  0  0  0  0  0
   -5.1111    7.0914   22.0407 C   0  0  0  0  0  0  0  0  0  0  0  0
  -12.9248    9.6214   19.1684 C   0  0  2  0  0  0  0  0  0  0  0  0
  -13.5408   10.8204   18.5452 N   0  3  0  0  0  0  0  0  0  0  0  0
  -12.0248   10.0277   20.3729 C   0  0  0  0  0  0  0  0  0  0  0  0
  -11.3634    8.7540   21.0135 C   0  0  2  0  0  0  0  0  0  0  0  0
  -10.5067    9.1778   22.1810 N   0  3  0  0  0  0  0  0  0  0  0  0
  -10.5264    8.0007   19.9235 C   0  0  2  0  0  0  0  0  0  0  0  0
  -11.4492    7.6032   18.7456 C   0  0  2  0  0  0  0  0  0  0  0  0
  -10.6807    6.9584   17.7588 O   0  0  0  0  0  0  0  0  0  0  0  0
  -12.0815    8.8726   18.1145 C   0  0  1  0  0  0  0  0  0  0  0  0
  -12.9206    8.4850   17.0365 O   0  0  0  0  0  0  0  0  0  0  0  0
  -12.8662    9.2201   15.8451 C   0  0  2  0  0  0  0  0  0  0  0  0
  -14.3019    9.3152   15.2950 C   0  0  2  0  0  0  0  0  0  0  0  0
  -15.1097    9.9938   16.2328 O   0  0  0  0  0  0  0  0  0  0  0  0
  -14.8474    7.8701   15.0323 C   0  0  1  0  0  0  0  0  0  0  0  0
  -16.2418    7.8730   14.5268 N   0  3  0  0  0  0  0  0  0  0  0  0
  -17.2104    7.8343   15.6521 C   0  0  0  0  0  0  0  0  0  0  0  0
  -13.9087    7.1436   14.0085 C   0  0  2  0  0  0  0  0  0  0  0  0
  -13.8809    7.8724   12.7669 O   0  0  0  0  0  0  0  0  0  0  0  0
  -14.3609    5.7958   13.7149 C   0  0  0  0  0  0  0  0  0  0  0  0
  -12.4422    7.1346   14.5399 C   0  0  0  0  0  0  0  0  0  0  0  0
  -11.9968    8.5256   14.8800 O   0  0  0  0  0  0  0  0  0  0  0  0
  1  2  1  1  0  0  0
  1  3  1  0  0  0  0
  1 10  1  0  0  0  0
  3  4  1  6  0  0  0
  3  5  1  0  0  0  0
  5  6  1  6  0  0  0
  5  7  1  0  0  0  0
  7  8  1  1  0  0  0
  7  9  1  0  0  0  0
  9 10  1  6  0  0  0
  9 11  1  0  0  0  0
 11 12  1  6  0  0  0
 11 13  1  0  0  0  0
 14 15  1  6  0  0  0
 14 16  1  0  0  0  0
 14 22  1  0  0  0  0
 16 17  1  0  0  0  0
 17 18  1  1  0  0  0
 17 19  1  0  0  0  0
 19  2  1  1  0  0  0
 19 20  1  0  0  0  0
 20 21  1  6  0  0  0
 20 22  1  0  0  0  0
 22 23  1  6  0  0  0
 24 23  1  1  0  0  0
 24 25  1  0  0  0  0
 24 34  1  0  0  0  0
 25 26  1  1  0  0  0
 25 27  1  0  0  0  0
 27 28  1  6  0  0  0
 27 30  1  0  0  0  0
 28 29  1  0  0  0  0
 30 31  1  6  0  0  0
 30 32  1  0  0  0  0
 30 33  1  0  0  0  0
 33 34  1  0  0  0  0
M  CHG  4   4   1  15   1  18   1  28   1
M  END
>  <CHROM.1>
-152.74865225,-153.56084491,-175.49799660,-164.95074205,-69.71467677,-174.14423983
-66.23977588,-178.96943426,-72.15680826,-177.02112167,103.25584446,-142.16860735
111.99280217,30.77847805,-178.61034549,-11.17225780,7.46437357,18.74639309
-0.17276099,0.82655991,-2.63354837

>  <Name>
1mwl

>  <RI>
0

>  <Rbt.Current_Directory>
/home/itssahil/PROJECTS/Mol_Feturizer/New_Systems/rnas/1mwl

>  <Rbt.Executable>
rbdock ($Id: //depot/dev/client3/rdock/2013.1/src/exe/rbdock.cxx#4 $)

>  <Rbt.Library>
libRbt.so (2013.1, Build901 2013/11/27)

>  <Rbt.Parameter_File>
/export/apps/rDock/src/rDock_2013.1_src/data/scripts/dock_solv.prm

>  <Rbt.Receptor>
prm/pocket_docking_3.prm

>  <SCORE>
-92.7407

>  <SCORE.INTER>
-79.7804

>  <SCORE.INTER.CONST>
1

>  <SCORE.INTER.POLAR>
-11.5195

>  <SCORE.INTER.ROT>
6

>  <SCORE.INTER.SOLV>
26.6992

>  <SCORE.INTER.VDW>
-31.2882

>  <SCORE.INTER.norm>
-2.34648

>  <SCORE.INTRA>
-12.9604

>  <SCORE.INTRA.DIHEDRAL>
-14.1132

>  <SCORE.INTRA.DIHEDRAL.0>
42.0816

>  <SCORE.INTRA.POLAR>
-0.922573

>  <SCORE.INTRA.POLAR.0>
-0.254682

>  <SCORE.INTRA.REPUL>
0

>  <SCORE.INTRA.REPUL.0>
0

>  <SCORE.INTRA.SOLV>
0.693564

>  <SCORE.INTRA.SOLV.lig_0>
-109.803

>  <SCORE.INTRA.VDW>
-3.11382

>  <SCORE.INTRA.VDW.0>
0.32176

>  <SCORE.INTRA.norm>
-0.381187

>  <SCORE.RESTR>
0

>  <SCORE.RESTR.CAVITY>
0

>  <SCORE.RESTR.norm>
0

>  <SCORE.SYSTEM>
0

>  <SCORE.SYSTEM.CONST>
0

>  <SCORE.SYSTEM.DIHEDRAL>
0

>  <SCORE.SYSTEM.SOLV>
0

>  <SCORE.SYSTEM.norm>
0

>  <SCORE.heavy>
34

>  <SCORE.norm>
-2.72767

>  <RMSD>
0.301

$$$$
1mwl
 OpenBabel11021811403D
libRbt.so/2013.1/901 2013/11/27
 34 36  0  0  0  0  0  0  0  0999 V2000
   -8.8197    6.1289   20.1532 C   0  0  2  0  0  0  0  0  0  0  0  0
   -9.9892    6.7528   20.5911 O   0  0  0  0  0  0  0  0  0  0  0  0
   -8.8699    4.6528   20.6386 C   0  0  2  0  0  0  0  0  0  0  0  0
  -10.0593    3.9845   20.1018 N   0  3  0  0  0  0  0  0  0  0  0  0
   -8.8310    4.5850   22.1934 C   0  0  1  0  0  0  0  0  0  0  0  0
   -8.8487    3.2987   22.6240 O   0  0  0  0  0  0  0  0  0  0  0  0
   -7.5442    5.3213   22.6930 C   0  0  2  0  0  0  0  0  0  0  0  0
   -7.4705    5.2692   24.1332 O   0  0  0  0  0  0  0  0  0  0  0  0
   -7.5921    6.8006   22.1799 C   0  0  2  0  0  0  0  0  0  0  0  0
   -7.6747    6.8295   20.7028 O   0  0  0  0  0  0  0  0  0  0  0  0
   -6.3793    7.6528   22.5708 C   0  0  2  0  0  0  0  0  0  0  0  0
   -6.5988    8.9759   22.2037 O   0  0  0  0  0  0  0  0  0  0  0  0
   -5.0742    7.2235   21.8760 C   0  0  0  0  0  0  0  0  0  0  0  0
  -12.9181    9.5101   19.1495 C   0  0  2  0  0  0  0  0  0  0  0  0
  -13.5293   10.7025   18.5093 N   0  3  0  0  0  0  0  0  0  0  0  0
  -12.0554    9.9259   20.3778 C   0  0  0  0  0  0  0  0  0  0  0  0
  -11.3985    8.6592   21.0367 C   0  0  2  0  0  0  0  0  0  0  0  0
  -10.5783    9.0920   22.2269 N   0  3  0  0  0  0  0  0  0  0  0  0
  -10.5243    7.9145   19.9701 C   0  0  2  0  0  0  0  0  0  0  0  0
  -11.4106    7.5073   18.7677 C   0  0  2  0  0  0  0  0  0  0  0  0
  -10.6089    6.8704   17.8024 O   0  0  0  0  0  0  0  0  0  0  0  0
  -12.0386    8.7700   18.1192 C   0  0  1  0  0  0  0  0  0  0  0  0
  -12.8440    8.3736   17.0189 O   0  0  0  0  0  0  0  0  0  0  0  0
  -12.7968    9.1343   15.8434 C   0  0  2  0  0  0  0  0  0  0  0  0
  -14.2408    9.2754   15.3261 C   0  0  2  0  0  0  0  0  0  0  0  0
  -15.0128    9.9510   16.2958 O   0  0  0  0  0  0  0  0  0  0  0  0
  -14.8259    7.8498   15.0427 C   0  0  1  0  0  0  0  0  0  0  0  0
  -16.2300    7.8968   14.5670 N   0  3  0  0  0  0  0  0  0  0  0  0
  -17.1764    7.7616   15.7038 C   0  0  0  0  0  0  0  0  0  0  0  0
  -13.9261    7.1253   13.9832 C   0  0  2  0  0  0  0  0  0  0  0  0
  -13.9067    7.8814   12.7579 O   0  0  0  0  0  0  0  0  0  0  0  0
  -14.4162    5.7955   13.6691 C   0  0  0  0  0  0  0  0  0  0  0  0
  -12.4496    7.0699   14.4832 C   0  0  0  0  0  0  0  0  0  0  0  0
  -11.9643    8.4419   14.8448 O   0  0  0  0  0  0  0  0  0  0  0  0
  1  2  1  1  0  0  0
  1  3  1  0  0  0  0
  1 10  1  0  0  0  0
  3  4  1  1  0  0  0
  3  5  1  0  0  0  0
  5  6  1  6  0  0  0
  5  7  1  0  0  0  0
  7  8  1  1  0  0  0
  7  9  1  0  0  0  0
  9 10  1  6  0  0  0
  9 11  1  0  0  0  0
 11 12  1  6  0  0  0
 11 13  1  0  0  0  0
 14 15  1  6  0  0  0
 14 16  1  0  0  0  0
 14 22  1  0  0  0  0
 16 17  1  0  0  0  0
 17 18  1  1  0  0  0
 17 19  1  0  0  0  0
 19  2  1  1  0  0  0
 19 20  1  0  0  0  0
 20 21  1  6  0  0  0
 20 22  1  0  0  0  0
 22 23  1  6  0  0  0
 24 23  1  1  0  0  0
 24 25  1  0  0  0  0
 24 34  1  0  0  0  0
 25 26  1  1  0  0  0
 25 27  1  0  0  0  0
 27 28  1  6  0  0  0
 27 30  1  0  0  0  0
 28 29  1  0  0  0  0
 30 31  1  6  0  0  0
 30 32  1  0  0  0  0
 30 33  1  0  0  0  0
 33 34  1  0  0  0  0
M  CHG  4   4   1  15   1  18   1  28   1
M  END
>  <CHROM.1>
-157.00552141,-155.69879638,-171.43953581,-94.88612032,-178.07018539,-173.00587965
-71.40260157,-64.20278783,-76.31821378,179.59276284,101.24953535,-138.04261024
114.08100064,26.91240849,-179.17620796,-11.13990648,7.44098081,18.77129867
-0.17232501,0.82635538,-2.64579587

>  <Name>
1mwl

>  <RI>
0

>  <Rbt.Current_Directory>
/home/itssahil/PROJECTS/Mol_Feturizer/New_Systems/rnas/1mwl

>  <Rbt.Executable>
rbdock ($Id: //depot/dev/client3/rdock/2013.1/src/exe/rbdock.cxx#4 $)

>  <Rbt.Library>
libRbt.so (2013.1, Build901 2013/11/27)

>  <Rbt.Parameter_File>
/export/apps/rDock/src/rDock_2013.1_src/data/scripts/dock_solv.prm

>  <Rbt.Receptor>
prm/pocket_docking_2.prm

>  <SCORE>
-87.8466

>  <SCORE.INTER>
-76.9834

>  <SCORE.INTER.CONST>
1

>  <SCORE.INTER.POLAR>
-11.0208

>  <SCORE.INTER.ROT>
6

>  <SCORE.INTER.SOLV>
26.8207

>  <SCORE.INTER.VDW>
-31.1264

>  <SCORE.INTER.norm>
-2.26422

>  <SCORE.INTRA>
-10.8632

>  <SCORE.INTRA.DIHEDRAL>
-10.5327

>  <SCORE.INTRA.DIHEDRAL.0>
42.0816

>  <SCORE.INTRA.POLAR>
-0.931601

>  <SCORE.INTRA.POLAR.0>
-0.254682

>  <SCORE.INTRA.REPUL>
0

>  <SCORE.INTRA.REPUL.0>
0

>  <SCORE.INTRA.SOLV>
0.741324

>  <SCORE.INTRA.SOLV.lig_0>
-109.803

>  <SCORE.INTRA.VDW>
-2.8

>  <SCORE.INTRA.VDW.0>
0.32176

>  <SCORE.INTRA.norm>
-0.319505

>  <SCORE.RESTR>
0

>  <SCORE.RESTR.CAVITY>
0

>  <SCORE.RESTR.norm>
0

>  <SCORE.SYSTEM>
0

>  <SCORE.SYSTEM.CONST>
0

>  <SCORE.SYSTEM.DIHEDRAL>
0

>  <SCORE.SYSTEM.SOLV>
0

>  <SCORE.SYSTEM.norm>
0

>  <SCORE.heavy>
34

>  <SCORE.norm>
-2.58372

>  <RMSD>
0.303

$$$$
1mwl
 OpenBabel11021811403D
libRbt.so/2013.1/901 2013/11/27
 34 36  0  0  0  0  0  0  0  0999 V2000
   -9.0258    6.1878   20.1916 C   0  0  2  0  0  0  0  0  0  0  0  0
  -10.1598    6.8628   20.6467 O   0  0  0  0  0  0  0  0  0  0  0  0
   -9.1281    4.7183   20.6888 C   0  0  2  0  0  0  0  0  0  0  0  0
  -10.3542    4.0967   20.1793 N   0  3  0  0  0  0  0  0  0  0  0  0
   -9.0625    4.6592   22.2430 C   0  0  1  0  0  0  0  0  0  0  0  0
   -9.1254    3.3776   22.6834 O   0  0  0  0  0  0  0  0  0  0  0  0
   -7.7369    5.3444   22.7129 C   0  0  2  0  0  0  0  0  0  0  0  0
   -7.6380    5.2988   24.1518 O   0  0  0  0  0  0  0  0  0  0  0  0
   -7.7330    6.8210   22.1899 C   0  0  2  0  0  0  0  0  0  0  0  0
   -7.8424    6.8437   20.7145 O   0  0  0  0  0  0  0  0  0  0  0  0
   -6.4786    7.6245   22.5517 C   0  0  2  0  0  0  0  0  0  0  0  0
   -6.6436    8.9498   22.1648 O   0  0  0  0  0  0  0  0  0  0  0  0
   -5.2028    7.1258   21.8488 C   0  0  0  0  0  0  0  0  0  0  0  0
  -12.9943    9.7623   19.2985 C   0  0  2  0  0  0  0  0  0  0  0  0
  -13.5679   10.9758   18.6629 N   0  3  0  0  0  0  0  0  0  0  0  0
  -12.0407   10.1511   20.4670 C   0  0  0  0  0  0  0  0  0  0  0  0
  -11.4250    8.8612   21.1206 C   0  0  2  0  0  0  0  0  0  0  0  0
  -10.5149    9.2688   22.2529 N   0  3  0  0  0  0  0  0  0  0  0  0
  -10.6583    8.0414   20.0269 C   0  0  2  0  0  0  0  0  0  0  0  0
  -11.6335    7.6631   18.8854 C   0  0  2  0  0  0  0  0  0  0  0  0
  -10.9269    6.9573   17.8941 O   0  0  0  0  0  0  0  0  0  0  0  0
  -12.2201    8.9474   18.2407 C   0  0  1  0  0  0  0  0  0  0  0  0
  -13.1083    8.5772   17.1964 O   0  0  0  0  0  0  0  0  0  0  0  0
  -12.7326    8.8360   15.8718 C   0  0  2  0  0  0  0  0  0  0  0  0
  -14.0189    8.8690   15.0249 C   0  0  2  0  0  0  0  0  0  0  0  0
  -14.8508    9.9093   15.4923 O   0  0  0  0  0  0  0  0  0  0  0  0
  -14.7427    7.4839   15.1371 C   0  0  1  0  0  0  0  0  0  0  0  0
  -16.0117    7.4429   14.3702 N   0  3  0  0  0  0  0  0  0  0  0  0
  -17.1587    7.8365   15.2278 C   0  0  0  0  0  0  0  0  0  0  0  0
  -13.7771    6.3562   14.6343 C   0  0  2  0  0  0  0  0  0  0  0  0
  -13.4199    6.5939   13.2598 O   0  0  0  0  0  0  0  0  0  0  0  0
  -14.3890    5.0418   14.7065 C   0  0  0  0  0  0  0  0  0  0  0  0
  -12.4435    6.3937   15.4427 C   0  0  0  0  0  0  0  0  0  0  0  0
  -11.8390    7.7653   15.3978 O   0  0  0  0  0  0  0  0  0  0  0  0
  1  2  1  1  0  0  0
  1  3  1  0  0  0  0
  1 10  1  0  0  0  0
  3  4  1  1  0  0  0
  3  5  1  0  0  0  0
  5  6  1  6  0  0  0
  5  7  1  0  0  0  0
  7  8  1  1  0  0  0
  7  9  1  0  0  0  0
  9 10  1  6  0  0  0
  9 11  1  0  0  0  0
 11 12  1  6  0  0  0
 11 13  1  0  0  0  0
 14 15  1  6  0  0  0
 14 16  1  0  0  0  0
 14 22  1  0  0  0  0
 16 17  1  0  0  0  0
 17 18  1  1  0  0  0
 17 19  1  0  0  0  0
 19  2  1  1  0  0  0
 19 20  1  0  0  0  0
 20 21  1  6  0  0  0
 20 22  1  0  0  0  0
 22 23  1  6  0  0  0
 24 23  1  1  0  0  0
 24 25  1  0  0  0  0
 24 34  1  0  0  0  0
 25 26  1  1  0  0  0
 25 27  1  0  0  0  0
 27 28  1  6  0  0  0
 27 30  1  0  0  0  0
 28 29  1  0  0  0  0
 30 31  1  6  0  0  0
 30 32  1  0  0  0  0
 30 33  1  0  0  0  0
 33 34  1  0  0  0  0
M  CHG  4   4   1  15   1  18   1  28   1
M  END
>  <CHROM.1>
-156.97132709,-153.17173100,-172.80691763,71.57499392,62.55856482,-173.70318587
171.27065385,54.41130776,-72.22413777,68.90546742,129.53959029,-158.18867466
167.41408364,28.13899771,-61.70993709,-11.19538287,7.33700351,18.87127212
-0.13732819,0.82712711,-2.74551804

>  <Name>
1mwl

>  <RI>
0

>  <Rbt.Current_Directory>
/home/itssahil/PROJECTS/Mol_Feturizer/New_Systems/rnas/1mwl

>  <Rbt.Executable>
rbdock ($Id: //depot/dev/client3/rdock/2013.1/src/exe/rbdock.cxx#4 $)

>  <Rbt.Library>
libRbt.so (2013.1, Build901 2013/11/27)

>  <Rbt.Parameter_File>
/export/apps/rDock/src/rDock_2013.1_src/data/scripts/dock_solv.prm

>  <Rbt.Receptor>
prm/pocket_docking_5.prm

>  <SCORE>
-73.9234

>  <SCORE.INTER>
-60.0381

>  <SCORE.INTER.CONST>
1

>  <SCORE.INTER.POLAR>
-8.71683

>  <SCORE.INTER.ROT>
6

>  <SCORE.INTER.SOLV>
25.1562

>  <SCORE.INTER.VDW>
-26.9547

>  <SCORE.INTER.norm>
-1.76583

>  <SCORE.INTRA>
-14.0382

>  <SCORE.INTRA.DIHEDRAL>
-22.9497

>  <SCORE.INTRA.DIHEDRAL.0>
42.0816

>  <SCORE.INTRA.POLAR>
0.236662

>  <SCORE.INTRA.POLAR.0>
-0.254682

>  <SCORE.INTRA.REPUL>
0

>  <SCORE.INTRA.REPUL.0>
0

>  <SCORE.INTRA.SOLV>
0.301702

>  <SCORE.INTRA.SOLV.lig_0>
-109.803

>  <SCORE.INTRA.VDW>
-3.51884

>  <SCORE.INTRA.VDW.0>
0.32176

>  <SCORE.INTRA.norm>
-0.412889

>  <SCORE.RESTR>
0.152923

>  <SCORE.RESTR.CAVITY>
0.152923

>  <SCORE.RESTR.norm>
0.00449773

>  <SCORE.SYSTEM>
0

>  <SCORE.SYSTEM.CONST>
0

>  <SCORE.SYSTEM.DIHEDRAL>
0

>  <SCORE.SYSTEM.SOLV>
0

>  <SCORE.SYSTEM.norm>
0

>  <SCORE.heavy>
34

>  <SCORE.norm>
-2.17422

>  <RMSD>
0.306

$$$$
1mwl
 OpenBabel11021811403D
libRbt.so/2013.1/901 2013/11/27
 34 36  0  0  0  0  0  0  0  0999 V2000
   -8.9501    6.3069   20.2498 C   0  0  2  0  0  0  0  0  0  0  0  0
  -10.0870    6.9813   20.6985 O   0  0  0  0  0  0  0  0  0  0  0  0
   -9.0805    4.8244   20.6992 C   0  0  2  0  0  0  0  0  0  0  0  0
  -10.3010    4.2331   20.1423 N   0  3  0  0  0  0  0  0  0  0  0  0
   -9.0527    4.7174   22.2521 C   0  0  1  0  0  0  0  0  0  0  0  0
   -9.1403    3.4240   22.6514 O   0  0  0  0  0  0  0  0  0  0  0  0
   -7.7311    5.3724   22.7737 C   0  0  2  0  0  0  0  0  0  0  0  0
   -7.6671    5.2820   24.2125 O   0  0  0  0  0  0  0  0  0  0  0  0
   -7.6983    6.8640   22.2963 C   0  0  2  0  0  0  0  0  0  0  0  0
   -7.7723    6.9326   20.8201 O   0  0  0  0  0  0  0  0  0  0  0  0
   -6.4440    7.6412   22.7119 C   0  0  2  0  0  0  0  0  0  0  0  0
   -6.5951    8.9840   22.3840 O   0  0  0  0  0  0  0  0  0  0  0  0
   -5.1617    7.1663   22.0045 C   0  0  0  0  0  0  0  0  0  0  0  0
  -13.0014    9.6708   19.1074 C   0  0  2  0  0  0  0  0  0  0  0  0
  -13.6063   10.8447   18.4281 N   0  3  0  0  0  0  0  0  0  0  0  0
  -12.1942   10.1165   20.3627 C   0  0  0  0  0  0  0  0  0  0  0  0
  -11.5432    8.8694   21.0635 C   0  0  2  0  0  0  0  0  0  0  0  0
  -10.7773    9.3310   22.2788 N   0  3  0  0  0  0  0  0  0  0  0  0
  -10.6161    8.1259   20.0417 C   0  0  2  0  0  0  0  0  0  0  0  0
  -11.4481    7.6887   18.8113 C   0  0  2  0  0  0  0  0  0  0  0  0
  -10.5991    7.0530   17.8866 O   0  0  0  0  0  0  0  0  0  0  0  0
  -12.0706    8.9324   18.1221 C   0  0  1  0  0  0  0  0  0  0  0  0
  -12.8259    8.5087   16.9967 O   0  0  0  0  0  0  0  0  0  0  0  0
  -12.8433    9.3206   15.8552 C   0  0  2  0  0  0  0  0  0  0  0  0
  -14.2997    9.3872   15.3578 C   0  0  2  0  0  0  0  0  0  0  0  0
  -15.1030    9.9675   16.3631 O   0  0  0  0  0  0  0  0  0  0  0  0
  -14.7923    7.9392   15.0178 C   0  0  1  0  0  0  0  0  0  0  0  0
  -16.2022    7.9128   14.5575 N   0  3  0  0  0  0  0  0  0  0  0  0
  -17.1300    7.7756   15.7092 C   0  0  0  0  0  0  0  0  0  0  0  0
  -13.8594    7.3225   13.9195 C   0  0  2  0  0  0  0  0  0  0  0  0
  -13.9048    8.1302   12.7283 O   0  0  0  0  0  0  0  0  0  0  0  0
  -14.2640    5.9777   13.5522 C   0  0  0  0  0  0  0  0  0  0  0  0
  -12.3765    7.3444   14.4030 C   0  0  0  0  0  0  0  0  0  0  0  0
  -11.9789    8.7289   14.8197 O   0  0  0  0  0  0  0  0  0  0  0  0
  1  2  1  1  0  0  0
  1  3  1  0  0  0  0
  1 10  1  0  0  0  0
  3  4  1  1  0  0  0
  3  5  1  0  0  0  0
  5  6  1  6  0  0  0
  5  7  1  0  0  0  0
  7  8  1  1  0  0  0
  7  9  1  0  0  0  0
  9 10  1  6  0  0  0
  9 11  1  0  0  0  0
 11 12  1  6  0  0  0
 11 13  1  0  0  0  0
 14 15  1  6  0  0  0
 14 16  1  0  0  0  0
 14 22  1  0  0  0  0
 16 17  1  0  0  0  0
 17 18  1  1  0  0  0
 17 19  1  0  0  0  0
 19  2  1  1  0  0  0
 19 20  1  0  0  0  0
 20 21  1  6  0  0  0
 20 22  1  0  0  0  0
 22 23  1  6  0  0  0
 24 23  1  1  0  0  0
 24 25  1  0  0  0  0
 24 34  1  0  0  0  0
 25 26  1  1  0  0  0
 25 27  1  0  0  0  0
 27 28  1  6  0  0  0
 27 30  1  0  0  0  0
 28 29  1  0  0  0  0
 30 31  1  6  0  0  0
 30 32  1  0  0  0  0
 30 33  1  0  0  0  0
 33 34  1  0  0  0  0
M  CHG  4   4   1  15   1  18   1  28   1
M  END
>  <CHROM.1>
-152.02460674,-161.01756796,56.35063031,70.72742535,63.19284250,-172.62005759
-71.20968049,-63.64965225,42.83806350,179.98320948,95.41295260,-135.98840755
170.95023206,31.47362779,176.52897146,-11.21382896,7.57387306,18.80374314
-0.19154193,0.84372286,-2.62058301

>  <Name>
1mwl

>  <RI>
0

>  <Rbt.Current_Directory>
/home/itssahil/PROJECTS/Mol_Feturizer/New_Systems/rnas/1mwl

>  <Rbt.Executable>
rbdock ($Id: //depot/dev/client3/rdock/2013.1/src/exe/rbdock.cxx#4 $)

>  <Rbt.Library>
libRbt.so (2013.1, Build901 2013/11/27)

>  <Rbt.Parameter_File>
/export/apps/rDock/src/rDock_2013.1_src/data/scripts/dock_solv.prm

>  <Rbt.Receptor>
prm/pocket_docking_2.prm

>  <SCORE>
-86.643

>  <SCORE.INTER>
-71.1047

>  <SCORE.INTER.CONST>
1

>  <SCORE.INTER.POLAR>
-9.72476

>  <SCORE.INTER.ROT>
6

>  <SCORE.INTER.SOLV>
26.6699

>  <SCORE.INTER.VDW>
-31.4773

>  <SCORE.INTER.norm>
-2.09132

>  <SCORE.INTRA>
-15.5387

>  <SCORE.INTRA.DIHEDRAL>
-22.2864

>  <SCORE.INTRA.DIHEDRAL.0>
42.0816

>  <SCORE.INTRA.POLAR>
-0.913447

>  <SCORE.INTRA.POLAR.0>
-0.254682

>  <SCORE.INTRA.REPUL>
0

>  <SCORE.INTRA.REPUL.0>
0

>  <SCORE.INTRA.SOLV>
0.647211

>  <SCORE.INTRA.SOLV.lig_0>
-109.803

>  <SCORE.INTRA.VDW>
-1.61342

>  <SCORE.INTRA.VDW.0>
0.32176

>  <SCORE.INTRA.norm>
-0.457021

>  <SCORE.RESTR>
0.000487345

>  <SCORE.RESTR.CAVITY>
0.000487345

>  <SCORE.RESTR.norm>
1.43337e-05

>  <SCORE.SYSTEM>
0

>  <SCORE.SYSTEM.CONST>
0

>  <SCORE.SYSTEM.DIHEDRAL>
0

>  <SCORE.SYSTEM.SOLV>
0

>  <SCORE.SYSTEM.norm>
0

>  <SCORE.heavy>
34

>  <SCORE.norm>
-2.54832

>  <RMSD>
0.330

$$$$
1mwl
 OpenBabel11021811403D
libRbt.so/2013.1/901 2013/11/27
 34 36  0  0  0  0  0  0  0  0999 V2000
   -8.8258    6.1177   20.1719 C   0  0  2  0  0  0  0  0  0  0  0  0
  -10.0108    6.7325   20.5797 O   0  0  0  0  0  0  0  0  0  0  0  0
   -8.8794    4.6397   20.6511 C   0  0  2  0  0  0  0  0  0  0  0  0
  -10.0493    3.9655   20.0800 N   0  3  0  0  0  0  0  0  0  0  0  0
   -8.8824    4.5669   22.2061 C   0  0  1  0  0  0  0  0  0  0  0  0
   -8.9033    3.2791   22.6320 O   0  0  0  0  0  0  0  0  0  0  0  0
   -7.6146    5.3098   22.7429 C   0  0  2  0  0  0  0  0  0  0  0  0
   -7.5798    5.2534   24.1844 O   0  0  0  0  0  0  0  0  0  0  0  0
   -7.6582    6.7905   22.2334 C   0  0  2  0  0  0  0  0  0  0  0  0
   -7.7008    6.8239   20.7548 O   0  0  0  0  0  0  0  0  0  0  0  0
   -6.4622    7.6493   22.6599 C   0  0  2  0  0  0  0  0  0  0  0  0
   -6.6582    8.9628   22.2480 O   0  0  0  0  0  0  0  0  0  0  0  0
   -5.1269    7.1980   22.0405 C   0  0  0  0  0  0  0  0  0  0  0  0
  -12.9063    9.5107   19.1111 C   0  0  2  0  0  0  0  0  0  0  0  0
  -13.5030   10.7075   18.4653 N   0  3  0  0  0  0  0  0  0  0  0  0
  -12.0521    9.9203   20.3474 C   0  0  0  0  0  0  0  0  0  0  0  0
  -11.4105    8.6489   21.0123 C   0  0  2  0  0  0  0  0  0  0  0  0
  -10.5983    9.0759   22.2101 N   0  3  0  0  0  0  0  0  0  0  0  0
  -10.5318    7.8980   19.9538 C   0  0  2  0  0  0  0  0  0  0  0  0
  -11.4098    7.4971   18.7432 C   0  0  2  0  0  0  0  0  0  0  0  0
  -10.6037    6.8545   17.7855 O   0  0  0  0  0  0  0  0  0  0  0  0
  -12.0227    8.7643   18.0890 C   0  0  1  0  0  0  0  0  0  0  0  0
  -12.8206    8.3736   16.9812 O   0  0  0  0  0  0  0  0  0  0  0  0
  -12.8241    9.1826   15.8375 C   0  0  2  0  0  0  0  0  0  0  0  0
  -14.2792    9.2732   15.3402 C   0  0  2  0  0  0  0  0  0  0  0  0
  -15.0721    9.8702   16.3440 O   0  0  0  0  0  0  0  0  0  0  0  0
  -14.7971    7.8331   15.0042 C   0  0  1  0  0  0  0  0  0  0  0  0
  -16.2073    7.8301   14.5443 N   0  3  0  0  0  0  0  0  0  0  0  0
  -17.1348    7.6444   15.6894 C   0  0  0  0  0  0  0  0  0  0  0  0
  -13.8753    7.1973   13.9074 C   0  0  2  0  0  0  0  0  0  0  0  0
  -13.9069    8.0024   12.7140 O   0  0  0  0  0  0  0  0  0  0  0  0
  -14.3034    5.8587   13.5438 C   0  0  0  0  0  0  0  0  0  0  0  0
  -12.3922    7.1946   14.3906 C   0  0  0  0  0  0  0  0  0  0  0  0
  -11.9704    8.5731   14.8035 O   0  0  0  0  0  0  0  0  0  0  0  0
  1  2  1  1  0  0  0
  1  3  1  0  0  0  0
  1 10  1  0  0  0  0
  3  4  1  6  0  0  0
  3  5  1  0  0  0  0
  5  6  1  6  0  0  0
  5  7  1  0  0  0  0
  7  8  1  1  0  0  0
  7  9  1  0  0  0  0
  9 10  1  6  0  0  0
  9 11  1  0  0  0  0
 11 12  1  6  0  0  0
 11 13  1  0  0  0  0
 14 15  1  6  0  0  0
 14 16  1  0  0  0  0
 14 22  1  0  0  0  0
 16 17  1  0  0  0  0
 17 18  1  1  0  0  0
 17 19  1  0  0  0  0
 19  2  1  1  0  0  0
 19 20  1  0  0  0  0
 20 21  1  6  0  0  0
 20 22  1  0  0  0  0
 22 23  1  6  0  0  0
 24 23  1  1  0  0  0
 24 25  1  0  0  0  0
 24 34  1  0  0  0  0
 25 26  1  1  0  0  0
 25 27  1  0  0  0  0
 27 28  1  6  0  0  0
 27 30  1  0  0  0  0
 28 29  1  0  0  0  0
 30 31  1  6  0  0  0
 30 32  1  0  0  0  0
 30 33  1  0  0  0  0
 33 34  1  0  0  0  0
M  CHG  4   4   1  15   1  18   1  28   1
M  END
>  <CHROM.1>
-157.44176297,-154.20596796,69.19706003,-106.29049518,60.27348901,-175.16876209
-73.92920625,54.40033939,163.85901263,-61.26616199,97.11868691,-138.05924271
171.54137775,28.65923031,178.89844199,-11.15114306,7.43857236,18.76815968
-0.16364885,0.84058805,-2.65812972

>  <Name>
1mwl

>  <RI>
0

>  <Rbt.Current_Directory>
/home/itssahil/PROJECTS/Mol_Feturizer/New_Systems/rnas/1mwl

>  <Rbt.Executable>
rbdock ($Id: //depot/dev/client3/rdock/2013.1/src/exe/rbdock.cxx#4 $)

>  <Rbt.Library>
libRbt.so (2013.1, Build901 2013/11/27)

>  <Rbt.Parameter_File>
/export/apps/rDock/src/rDock_2013.1_src/data/scripts/dock_solv.prm

>  <Rbt.Receptor>
prm/pocket_docking_5.prm

>  <SCORE>
-87.5523

>  <SCORE.INTER>
-75.0557

>  <SCORE.INTER.CONST>
1

>  <SCORE.INTER.POLAR>
-10.276

>  <SCORE.INTER.ROT>
6

>  <SCORE.INTER.SOLV>
26.8357

>  <SCORE.INTER.VDW>
-32.3292

>  <SCORE.INTER.norm>
-2.20752

>  <SCORE.INTRA>
-12.6068

>  <SCORE.INTRA.DIHEDRAL>
-15.8604

>  <SCORE.INTRA.DIHEDRAL.0>
42.0816

>  <SCORE.INTRA.POLAR>
-0.933441

>  <SCORE.INTRA.POLAR.0>
-0.254682

>  <SCORE.INTRA.REPUL>
0

>  <SCORE.INTRA.REPUL.0>
0

>  <SCORE.INTRA.SOLV>
1.17353

>  <SCORE.INTRA.SOLV.lig_0>
-109.803

>  <SCORE.INTRA.VDW>
-2.08963

>  <SCORE.INTRA.VDW.0>
0.32176

>  <SCORE.INTRA.norm>
-0.370787

>  <SCORE.RESTR>
0.110112

>  <SCORE.RESTR.CAVITY>
0.110112

>  <SCORE.RESTR.norm>
0.00323859

>  <SCORE.SYSTEM>
0

>  <SCORE.SYSTEM.CONST>
0

>  <SCORE.SYSTEM.DIHEDRAL>
0

>  <SCORE.SYSTEM.SOLV>
0

>  <SCORE.SYSTEM.norm>
0

>  <SCORE.heavy>
34

>  <SCORE.norm>
-2.57507

>  <RMSD>
0.344

$$$$
1mwl
 OpenBabel11021811403D
libRbt.so/2013.1/901 2013/11/27
 34 36  0  0  0  0  0  0  0  0999 V2000
   -9.0081    6.2143   20.3149 C   0  0  2  0  0  0  0  0  0  0  0  0
  -10.0733    6.9586   20.8246 O   0  0  0  0  0  0  0  0  0  0  0  0
   -9.1475    4.7663   20.8633 C   0  0  2  0  0  0  0  0  0  0  0  0
  -10.4350    4.1942   20.4578 N   0  3  0  0  0  0  0  0  0  0  0  0
   -8.9773    4.7470   22.4107 C   0  0  1  0  0  0  0  0  0  0  0  0
   -9.0723    3.4830   22.8939 O   0  0  0  0  0  0  0  0  0  0  0  0
   -7.5904    5.3765   22.7680 C   0  0  2  0  0  0  0  0  0  0  0  0
   -7.3944    5.3657   24.1976 O   0  0  0  0  0  0  0  0  0  0  0  0
   -7.5504    6.8359   22.2002 C   0  0  2  0  0  0  0  0  0  0  0  0
   -7.7606    6.8232   20.7356 O   0  0  0  0  0  0  0  0  0  0  0  0
   -6.2361    7.5840   22.4509 C   0  0  2  0  0  0  0  0  0  0  0  0
   -5.5755    7.0195   23.5363 O   0  0  0  0  0  0  0  0  0  0  0  0
   -6.4294    9.0732   22.7908 C   0  0  0  0  0  0  0  0  0  0  0  0
  -12.9857    9.6964   19.3140 C   0  0  2  0  0  0  0  0  0  0  0  0
  -13.5901   10.8713   18.6360 N   0  3  0  0  0  0  0  0  0  0  0  0
  -12.1023   10.1478   20.5148 C   0  0  0  0  0  0  0  0  0  0  0  0
  -11.4529    8.8989   21.2138 C   0  0  2  0  0  0  0  0  0  0  0  0
  -10.6122    9.3663   22.3763 N   0  3  0  0  0  0  0  0  0  0  0  0
  -10.6018    8.1026   20.1659 C   0  0  2  0  0  0  0  0  0  0  0  0
  -11.5085    7.6611   18.9911 C   0  0  2  0  0  0  0  0  0  0  0  0
  -10.7272    6.9773   18.0413 O   0  0  0  0  0  0  0  0  0  0  0  0
  -12.1289    8.9060   18.3023 C   0  0  1  0  0  0  0  0  0  0  0  0
  -12.9532    8.4782   17.2281 O   0  0  0  0  0  0  0  0  0  0  0  0
  -12.8475    9.1376   15.9965 C   0  0  2  0  0  0  0  0  0  0  0  0
  -14.2595    9.2016   15.3841 C   0  0  2  0  0  0  0  0  0  0  0  0
  -15.1011    9.9390   16.2446 O   0  0  0  0  0  0  0  0  0  0  0  0
  -14.8010    7.7442   15.1899 C   0  0  1  0  0  0  0  0  0  0  0  0
  -16.1740    7.7188   14.6293 N   0  3  0  0  0  0  0  0  0  0  0  0
  -17.1859    7.8647   15.7068 C   0  0  0  0  0  0  0  0  0  0  0  0
  -13.8255    6.9533   14.2518 C   0  0  2  0  0  0  0  0  0  0  0  0
  -13.7445    7.6033   12.9695 O   0  0  0  0  0  0  0  0  0  0  0  0
  -14.2720    5.5908   14.0245 C   0  0  0  0  0  0  0  0  0  0  0  0
  -12.3815    6.9740   14.8415 C   0  0  0  0  0  0  0  0  0  0  0  0
  -11.9435    8.3824   15.1123 O   0  0  0  0  0  0  0  0  0  0  0  0
  1  2  1  1  0  0  0
  1  3  1  0  0  0  0
  1 10  1  0  0  0  0
  3  4  1  1  0  0  0
  3  5  1  0  0  0  0
  5  6  1  6  0  0  0
  5  7  1  0  0  0  0
  7  8  1  1  0  0  0
  7  9  1  0  0  0  0
  9 10  1  6  0  0  0
  9 11  1  0  0  0  0
 11 12  1  1  0  0  0
 11 13  1  0  0  0  0
 14 15  1  6  0  0  0
 14 16  1  0  0  0  0
 14 22  1  0  0  0  0
 16 17  1  0  0  0  0
 17 18  1  1  0  0  0
 17 19  1  0  0  0  0
 19  2  1  1  0  0  0
 19 20  1  0  0  0  0
 20 21  1  6  0  0  0
 20 22  1  0  0  0  0
 22 23  1  6  0  0  0
 24 23  1  1  0  0  0
 24 25  1  0  0  0  0
 24 34  1  0  0  0  0
 25 26  1  1  0  0  0
 25 27  1  0  0  0  0
 27 28  1  6  0  0  0
 27 30  1  0  0  0  0
 28 29  1  0  0  0  0
 30 31  1  6  0  0  0
 30 32  1  0  0  0  0
 30 33  1  0  0  0  0
 33 34  1  0  0  0  0
M  CHG  4   4   1  15   1  18   1  28   1
M  END
>  <CHROM.1>
-153.49154064,-163.09005101,67.17771196,62.46231544,59.03469017,-22.64700039
67.90644190,-55.68008174,165.91660034,-178.66212363,105.37961348,-143.91508870
106.86897053,35.42417188,-58.35423110,-11.19190707,7.47806125,18.99717356
-0.18051193,0.83675011,-2.65990310

>  <Name>
1mwl

>  <RI>
0

>  <Rbt.Current_Directory>
/home/itssahil/PROJECTS/Mol_Feturizer/New_Systems/rnas/1mwl

>  <Rbt.Executable>
rbdock ($Id: //depot/dev/client3/rdock/2013.1/src/exe/rbdock.cxx#4 $)

>  <Rbt.Library>
libRbt.so (2013.1, Build901 2013/11/27)

>  <Rbt.Parameter_File>
/export/apps/rDock/src/rDock_2013.1_src/data/scripts/dock_solv.prm

>  <Rbt.Receptor>
prm/pocket_docking_2.prm

>  <SCORE>
-77.2504

>  <SCORE.INTER>
-63.8946

>  <SCORE.INTER.CONST>
1

>  <SCORE.INTER.POLAR>
-8.78804

>  <SCORE.INTER.ROT>
6

>  <SCORE.INTER.SOLV>
23.6162

>  <SCORE.INTER.VDW>
-28.775

>  <SCORE.INTER.norm>
-1.87925

>  <SCORE.INTRA>
-13.3558

>  <SCORE.INTRA.DIHEDRAL>
-14.3916

>  <SCORE.INTRA.DIHEDRAL.0>
42.0816

>  <SCORE.INTRA.POLAR>
-0.927875

>  <SCORE.INTRA.POLAR.0>
-0.254682

>  <SCORE.INTRA.REPUL>
0

>  <SCORE.INTRA.REPUL.0>
0

>  <SCORE.INTRA.SOLV>
1.1977

>  <SCORE.INTRA.SOLV.lig_0>
-109.803

>  <SCORE.INTRA.VDW>
-3.60402

>  <SCORE.INTRA.VDW.0>
0.32176

>  <SCORE.INTRA.norm>
-0.392816

>  <SCORE.RESTR>
0

>  <SCORE.RESTR.CAVITY>
0

>  <SCORE.RESTR.norm>
0

>  <SCORE.SYSTEM>
0

>  <SCORE.SYSTEM.CONST>
0

>  <SCORE.SYSTEM.DIHEDRAL>
0

>  <SCORE.SYSTEM.SOLV>
0

>  <SCORE.SYSTEM.norm>
0

>  <SCORE.heavy>
34

>  <SCORE.norm>
-2.27207

>  <RMSD>
0.350

$$$$
1mwl
 OpenBabel11021811403D
libRbt.so/2013.1/901 2013/11/27
 34 36  0  0  0  0  0  0  0  0999 V2000
   -9.1271    6.1362   20.2405 C   0  0  2  0  0  0  0  0  0  0  0  0
  -10.1700    6.9064   20.7578 O   0  0  0  0  0  0  0  0  0  0  0  0
   -9.2056    4.7358   20.9111 C   0  0  2  0  0  0  0  0  0  0  0  0
  -10.5065    4.1171   20.6382 N   0  3  0  0  0  0  0  0  0  0  0  0
   -8.9357    4.8441   22.4405 C   0  0  1  0  0  0  0  0  0  0  0  0
   -8.9773    3.6224   23.0287 O   0  0  0  0  0  0  0  0  0  0  0  0
   -7.5398    5.5173   22.6544 C   0  0  2  0  0  0  0  0  0  0  0  0
   -7.2518    5.6249   24.0643 O   0  0  0  0  0  0  0  0  0  0  0  0
   -7.5618    6.9262   21.9701 C   0  0  2  0  0  0  0  0  0  0  0  0
   -7.8658    6.7922   20.5282 O   0  0  0  0  0  0  0  0  0  0  0  0
   -6.2473    7.7082   22.0731 C   0  0  2  0  0  0  0  0  0  0  0  0
   -5.1734    6.8461   21.8816 O   0  0  0  0  0  0  0  0  0  0  0  0
   -6.0295    8.3698   23.4461 C   0  0  0  0  0  0  0  0  0  0  0  0
  -13.0103    9.7498   19.3060 C   0  0  2  0  0  0  0  0  0  0  0  0
  -13.5852   10.9446   18.6373 N   0  3  0  0  0  0  0  0  0  0  0  0
  -12.0803   10.1711   20.4823 C   0  0  0  0  0  0  0  0  0  0  0  0
  -11.4629    8.9006   21.1712 C   0  0  2  0  0  0  0  0  0  0  0  0
  -10.5759    9.3395   22.3102 N   0  3  0  0  0  0  0  0  0  0  0  0
  -10.6698    8.0675   20.1067 C   0  0  2  0  0  0  0  0  0  0  0  0
  -11.6219    7.6570   18.9569 C   0  0  2  0  0  0  0  0  0  0  0  0
  -10.8917    6.9394   17.9915 O   0  0  0  0  0  0  0  0  0  0  0  0
  -12.2103    8.9224   18.2774 C   0  0  1  0  0  0  0  0  0  0  0  0
  -13.0772    8.5228   17.2260 O   0  0  0  0  0  0  0  0  0  0  0  0
  -12.9370    9.1314   15.9720 C   0  0  2  0  0  0  0  0  0  0  0  0
  -14.3340    9.1831   15.3248 C   0  0  2  0  0  0  0  0  0  0  0  0
  -15.1879    9.9617   16.1355 O   0  0  0  0  0  0  0  0  0  0  0  0
  -14.8848    7.7238   15.1763 C   0  0  1  0  0  0  0  0  0  0  0  0
  -16.2449    7.6879   14.5854 N   0  3  0  0  0  0  0  0  0  0  0  0
  -17.2810    7.8460   15.6378 C   0  0  0  0  0  0  0  0  0  0  0  0
  -13.8958    6.8875   14.2934 C   0  0  2  0  0  0  0  0  0  0  0  0
  -13.7792    7.4849   12.9884 O   0  0  0  0  0  0  0  0  0  0  0  0
  -14.3500    5.5210   14.1102 C   0  0  0  0  0  0  0  0  0  0  0  0
  -12.4656    6.9193   14.9152 C   0  0  0  0  0  0  0  0  0  0  0  0
  -12.0203    8.3335   15.1398 O   0  0  0  0  0  0  0  0  0  0  0  0
  1  2  1  1  0  0  0
  1  3  1  0  0  0  0
  1 10  1  0  0  0  0
  3  4  1  1  0  0  0
  3  5  1  0  0  0  0
  5  6  1  6  0  0  0
  5  7  1  0  0  0  0
  7  8  1  1  0  0  0
  7  9  1  0  0  0  0
  9 10  1  6  0  0  0
  9 11  1  0  0  0  0
 11 12  1  1  0  0  0
 11 13  1  0  0  0  0
 14 15  1  6  0  0  0
 14 16  1  0  0  0  0
 14 22  1  0  0  0  0
 16 17  1  0  0  0  0
 17 18  1  1  0  0  0
 17 19  1  0  0  0  0
 19  2  1  1  0  0  0
 19 20  1  0  0  0  0
 20 21  1  6  0  0  0
 20 22  1  0  0  0  0
 22 23  1  6  0  0  0
 24 23  1  1  0  0  0
 24 25  1  0  0  0  0
 24 34  1  0  0  0  0
 25 26  1  1  0  0  0
 25 27  1  0  0  0  0
 27 28  1  6  0  0  0
 27 30  1  0  0  0  0
 28 29  1  0  0  0  0
 30 31  1  6  0  0  0
 30 32  1  0  0  0  0
 30 33  1  0  0  0  0
 33 34  1  0  0  0  0
M  CHG  4   4   1  15   1  18   1  28   1
M  END
>  <CHROM.1>
-159.99320855,-161.59325144,69.70452767,66.04879079,170.06488870,40.67920113
-61.33173446,-56.13436630,166.22841609,72.13191140,108.15773454,-148.18627902
108.01599206,33.77305866,-58.63516176,-11.20637046,7.46020069,18.93152303
-0.20936154,0.80480642,-2.60836871

>  <Name>
1mwl

>  <RI>
0

>  <Rbt.Current_Directory>
/home/itssahil/PROJECTS/Mol_Feturizer/New_Systems/rnas/1mwl

>  <Rbt.Executable>
rbdock ($Id: //depot/dev/client3/rdock/2013.1/src/exe/rbdock.cxx#4 $)

>  <Rbt.Library>
libRbt.so (2013.1, Build901 2013/11/27)

>  <Rbt.Parameter_File>
/export/apps/rDock/src/rDock_2013.1_src/data/scripts/dock_solv.prm

>  <Rbt.Receptor>
prm/pocket_docking_3.prm

>  <SCORE>
-76.4837

>  <SCORE.INTER>
-62.5298

>  <SCORE.INTER.CONST>
1

>  <SCORE.INTER.POLAR>
-8.81088

>  <SCORE.INTER.ROT>
6

>  <SCORE.INTER.SOLV>
25.7161

>  <SCORE.INTER.VDW>
-28.489

>  <SCORE.INTER.norm>
-1.83911

>  <SCORE.INTRA>
-13.954

>  <SCORE.INTRA.DIHEDRAL>
-16.8839

>  <SCORE.INTRA.DIHEDRAL.0>
42.0816

>  <SCORE.INTRA.POLAR>
-0.93798

>  <SCORE.INTRA.POLAR.0>
-0.254682

>  <SCORE.INTRA.REPUL>
0

>  <SCORE.INTRA.REPUL.0>
0

>  <SCORE.INTRA.SOLV>
0.41617

>  <SCORE.INTRA.SOLV.lig_0>
-109.803

>  <SCORE.INTRA.VDW>
-2.53099

>  <SCORE.INTRA.VDW.0>
0.32176

>  <SCORE.INTRA.norm>
-0.410411

>  <SCORE.RESTR>
0

>  <SCORE.RESTR.CAVITY>
0

>  <SCORE.RESTR.norm>
0

>  <SCORE.SYSTEM>
0

>  <SCORE.SYSTEM.CONST>
0

>  <SCORE.SYSTEM.DIHEDRAL>
0

>  <SCORE.SYSTEM.SOLV>
0

>  <SCORE.SYSTEM.norm>
0

>  <SCORE.heavy>
34

>  <SCORE.norm>
-2.24952

>  <RMSD>
0.350

$$$$
1mwl
 OpenBabel11021811403D
libRbt.so/2013.1/901 2013/11/27
 34 36  0  0  0  0  0  0  0  0999 V2000
   -8.7833    6.1424   20.1282 C   0  0  2  0  0  0  0  0  0  0  0  0
   -9.9430    6.7755   20.5788 O   0  0  0  0  0  0  0  0  0  0  0  0
   -8.8818    4.6455   20.5361 C   0  0  2  0  0  0  0  0  0  0  0  0
  -10.0792    4.0388   19.9466 N   0  3  0  0  0  0  0  0  0  0  0  0
   -8.8719    4.4973   22.0857 C   0  0  1  0  0  0  0  0  0  0  0  0
   -8.9317    3.1917   22.4492 O   0  0  0  0  0  0  0  0  0  0  0  0
   -7.5746    5.1710   22.6431 C   0  0  2  0  0  0  0  0  0  0  0  0
   -7.5275    5.0435   24.0797 O   0  0  0  0  0  0  0  0  0  0  0  0
   -7.5736    6.6754   22.2062 C   0  0  2  0  0  0  0  0  0  0  0  0
   -7.6296    6.7819   20.7315 O   0  0  0  0  0  0  0  0  0  0  0  0
   -6.3453    7.4725   22.6599 C   0  0  2  0  0  0  0  0  0  0  0  0
   -6.5300    8.8206   22.3738 O   0  0  0  0  0  0  0  0  0  0  0  0
   -5.0435    7.0558   21.9512 C   0  0  0  0  0  0  0  0  0  0  0  0
  -12.8856    9.5080   19.1180 C   0  0  2  0  0  0  0  0  0  0  0  0
  -13.5027   10.6955   18.4743 N   0  3  0  0  0  0  0  0  0  0  0  0
  -12.0354    9.9305   20.3527 C   0  0  0  0  0  0  0  0  0  0  0  0
  -11.3721    8.6692   21.0155 C   0  0  2  0  0  0  0  0  0  0  0  0
  -10.5642    9.1083   22.2118 N   0  3  0  0  0  0  0  0  0  0  0  0
  -10.4839    7.9329   19.9547 C   0  0  2  0  0  0  0  0  0  0  0  0
  -11.3580    7.5187   18.7458 C   0  0  2  0  0  0  0  0  0  0  0  0
  -10.5439    6.8895   17.7859 O   0  0  0  0  0  0  0  0  0  0  0  0
  -11.9924    8.7763   18.0936 C   0  0  1  0  0  0  0  0  0  0  0  0
  -12.7865    8.3736   16.9874 O   0  0  0  0  0  0  0  0  0  0  0  0
  -12.7837    9.1686   15.8338 C   0  0  2  0  0  0  0  0  0  0  0  0
  -14.2416    9.2863   15.3504 C   0  0  2  0  0  0  0  0  0  0  0  0
  -15.0100    9.9133   16.3548 O   0  0  0  0  0  0  0  0  0  0  0  0
  -14.7955    7.8544   15.0376 C   0  0  1  0  0  0  0  0  0  0  0  0
  -16.2102    7.8780   14.5922 N   0  3  0  0  0  0  0  0  0  0  0  0
  -17.1286    7.6918   15.7445 C   0  0  0  0  0  0  0  0  0  0  0  0
  -13.9000    7.1845   13.9393 C   0  0  2  0  0  0  0  0  0  0  0  0
  -13.9259    7.9756   12.7364 O   0  0  0  0  0  0  0  0  0  0  0  0
  -14.3621    5.8517   13.5967 C   0  0  0  0  0  0  0  0  0  0  0  0
  -12.4123    7.1538   14.4072 C   0  0  0  0  0  0  0  0  0  0  0  0
  -11.9550    8.5272   14.7987 O   0  0  0  0  0  0  0  0  0  0  0  0
  1  2  1  1  0  0  0
  1  3  1  0  0  0  0
  1 10  1  0  0  0  0
  3  4  1  1  0  0  0
  3  5  1  0  0  0  0
  5  6  1  6  0  0  0
  5  7  1  0  0  0  0
  7  8  1  1  0  0  0
  7  9  1  0  0  0  0
  9 10  1  6  0  0  0
  9 11  1  0  0  0  0
 11 12  1  6  0  0  0
 11 13  1  0  0  0  0
 14 15  1  6  0  0  0
 14 16  1  0  0  0  0
 14 22  1  0  0  0  0
 16 17  1  0  0  0  0
 17 18  1  1  0  0  0
 17 19  1  0  0  0  0
 19  2  1  1  0  0  0
 19 20  1  0  0  0  0
 20 21  1  6  0  0  0
 20 22  1  0  0  0  0
 22 23  1  6  0  0  0
 24 23  1  1  0  0  0
 24 25  1  0  0  0  0
 24 34  1  0  0  0  0
 25 26  1  1  0  0  0
 25 27  1  0  0  0  0
 27 28  1  6  0  0  0
 27 30  1  0  0  0  0
 28 29  1  0  0  0  0
 30 31  1  6  0  0  0
 30 32  1  0  0  0  0
 30 33  1  0  0  0  0
 33 34  1  0  0  0  0
M  CHG  4   4   1  15   1  18   1  28   1
M  END
>  <CHROM.1>
-152.77413281,-157.35696038,169.87777326,-157.21589727,-73.29463663,-172.23312887
-69.62542332,174.23359771,165.17503067,-60.37502605,98.42466181,-136.59755229
177.27932440,27.17789083,179.24924213,-11.12231026,7.41868172,18.75484183
-0.17395831,0.82943848,-2.63065748

>  <Name>
1mwl

>  <RI>
0

>  <Rbt.Current_Directory>
/home/itssahil/PROJECTS/Mol_Feturizer/New_Systems/rnas/1mwl

>  <Rbt.Executable>
rbdock ($Id: //depot/dev/client3/rdock/2013.1/src/exe/rbdock.cxx#4 $)

>  <Rbt.Library>
libRbt.so (2013.1, Build901 2013/11/27)

>  <Rbt.Parameter_File>
/export/apps/rDock/src/rDock_2013.1_src/data/scripts/dock_solv.prm

>  <Rbt.Receptor>
prm/pocket_docking_8.prm

>  <SCORE>
-92.9086

>  <SCORE.INTER>
-78.8583

>  <SCORE.INTER.CONST>
1

>  <SCORE.INTER.POLAR>
-11.0588

>  <SCORE.INTER.ROT>
6

>  <SCORE.INTER.SOLV>
26.9192

>  <SCORE.INTER.VDW>
-32.2825

>  <SCORE.INTER.norm>
-2.31936

>  <SCORE.INTRA>
-14.0502

>  <SCORE.INTRA.DIHEDRAL>
-18.8861

>  <SCORE.INTRA.DIHEDRAL.0>
42.0816

>  <SCORE.INTRA.POLAR>
-0.911985

>  <SCORE.INTRA.POLAR.0>
-0.254682

>  <SCORE.INTRA.REPUL>
0

>  <SCORE.INTRA.REPUL.0>
0

>  <SCORE.INTRA.SOLV>
0.788598

>  <SCORE.INTRA.SOLV.lig_0>
-109.803

>  <SCORE.INTRA.VDW>
-1.90076

>  <SCORE.INTRA.VDW.0>
0.32176

>  <SCORE.INTRA.norm>
-0.413243

>  <SCORE.RESTR>
0

>  <SCORE.RESTR.CAVITY>
0

>  <SCORE.RESTR.norm>
0

>  <SCORE.SYSTEM>
0

>  <SCORE.SYSTEM.CONST>
0

>  <SCORE.SYSTEM.DIHEDRAL>
0

>  <SCORE.SYSTEM.SOLV>
0

>  <SCORE.SYSTEM.norm>
0

>  <SCORE.heavy>
34

>  <SCORE.norm>
-2.7326

>  <RMSD>
0.351

$$$$
1mwl
 OpenBabel11021811403D
libRbt.so/2013.1/901 2013/11/27
 34 36  0  0  0  0  0  0  0  0999 V2000
   -9.1435    5.9889   20.2591 C   0  0  2  0  0  0  0  0  0  0  0  0
  -10.1392    6.8146   20.7840 O   0  0  0  0  0  0  0  0  0  0  0  0
   -9.2482    4.6164   20.9817 C   0  0  2  0  0  0  0  0  0  0  0  0
  -10.5792    4.0372   20.7759 N   0  3  0  0  0  0  0  0  0  0  0  0
   -8.9202    4.7673   22.4960 C   0  0  1  0  0  0  0  0  0  0  0  0
   -8.9845    3.5690   23.1286 O   0  0  0  0  0  0  0  0  0  0  0  0
   -7.4944    5.3953   22.6376 C   0  0  2  0  0  0  0  0  0  0  0  0
   -7.1527    5.5408   24.0320 O   0  0  0  0  0  0  0  0  0  0  0  0
   -7.4904    6.7797   21.9045 C   0  0  2  0  0  0  0  0  0  0  0  0
   -7.8501    6.6074   20.4797 O   0  0  0  0  0  0  0  0  0  0  0  0
   -6.1459    7.5155   21.9343 C   0  0  2  0  0  0  0  0  0  0  0  0
   -5.1172    6.6032   22.1409 O   0  0  0  0  0  0  0  0  0  0  0  0
   -6.0358    8.5531   23.0664 C   0  0  0  0  0  0  0  0  0  0  0  0
  -12.9498    9.6274   19.2195 C   0  0  2  0  0  0  0  0  0  0  0  0
  -13.5108   10.8120   18.5212 N   0  3  0  0  0  0  0  0  0  0  0  0
  -12.0560   10.0664   20.4172 C   0  0  0  0  0  0  0  0  0  0  0  0
  -11.4527    8.8067   21.1378 C   0  0  2  0  0  0  0  0  0  0  0  0
  -10.6010    9.2626   22.2968 N   0  3  0  0  0  0  0  0  0  0  0  0
  -10.6254    7.9658   20.1059 C   0  0  2  0  0  0  0  0  0  0  0  0
  -11.5421    7.5379   18.9338 C   0  0  2  0  0  0  0  0  0  0  0  0
  -10.7811    6.8133   17.9979 O   0  0  0  0  0  0  0  0  0  0  0  0
  -12.1167    8.7928   18.2236 C   0  0  1  0  0  0  0  0  0  0  0  0
  -12.9510    8.3773   17.1523 O   0  0  0  0  0  0  0  0  0  0  0  0
  -12.8387    9.0339   15.9199 C   0  0  2  0  0  0  0  0  0  0  0  0
  -14.2586    9.1711   15.3385 C   0  0  2  0  0  0  0  0  0  0  0  0
  -15.0428    9.9479   16.2184 O   0  0  0  0  0  0  0  0  0  0  0  0
  -14.8775    7.7436   15.1536 C   0  0  1  0  0  0  0  0  0  0  0  0
  -16.2619    7.7895   14.6231 N   0  3  0  0  0  0  0  0  0  0  0  0
  -17.2425    7.9681   15.7242 C   0  0  0  0  0  0  0  0  0  0  0  0
  -13.9640    6.9069   14.1932 C   0  0  2  0  0  0  0  0  0  0  0  0
  -13.8779    7.5555   12.9105 O   0  0  0  0  0  0  0  0  0  0  0  0
  -14.4839    5.5695   13.9733 C   0  0  0  0  0  0  0  0  0  0  0  0
  -12.5084    6.8526   14.7513 C   0  0  0  0  0  0  0  0  0  0  0  0
  -11.9936    8.2362   15.0148 O   0  0  0  0  0  0  0  0  0  0  0  0
  1  2  1  1  0  0  0
  1  3  1  0  0  0  0
  1 10  1  0  0  0  0
  3  4  1  1  0  0  0
  3  5  1  0  0  0  0
  5  6  1  1  0  0  0
  5  7  1  0  0  0  0
  7  8  1  1  0  0  0
  7  9  1  0  0  0  0
  9 10  1  6  0  0  0
  9 11  1  0  0  0  0
 11 12  1  1  0  0  0
 11 13  1  0  0  0  0
 14 15  1  6  0  0  0
 14 16  1  0  0  0  0
 14 22  1  0  0  0  0
 16 17  1  0  0  0  0
 17 18  1  1  0  0  0
 17 19  1  0  0  0  0
 19  2  1  1  0  0  0
 19 20  1  0  0  0  0
 20 21  1  6  0  0  0
 20 22  1  0  0  0  0
 22 23  1  6  0  0  0
 24 23  1  1  0  0  0
 24 25  1  0  0  0  0
 24 34  1  0  0  0  0
 25 26  1  1  0  0  0
 25 27  1  0  0  0  0
 27 28  1  6  0  0  0
 27 30  1  0  0  0  0
 28 29  1  0  0  0  0
 30 31  1  6  0  0  0
 30 32  1  0  0  0  0
 30 33  1  0  0  0  0
 33 34  1  0  0  0  0
M  CHG  4   4   1  15   1  18   1  28   1
M  END
>  <CHROM.1>
-159.61939446,-166.35011754,74.30755603,64.46277574,68.17087995,22.92511494
174.42310802,55.10849350,-70.34433672,-52.48654243,103.97704582,-141.63967808
118.60411833,34.77880919,-175.68030935,-11.17568726,7.39166212,18.90429626
-0.18742570,0.81331414,-2.62572283

>  <Name>
1mwl

>  <RI>
0

>  <Rbt.Current_Directory>
/home/itssahil/PROJECTS/Mol_Feturizer/New_Systems/rnas/1mwl

>  <Rbt.Executable>
rbdock ($Id: //depot/dev/client3/rdock/2013.1/src/exe/rbdock.cxx#4 $)

>  <Rbt.Library>
libRbt.so (2013.1, Build901 2013/11/27)

>  <Rbt.Parameter_File>
/export/apps/rDock/src/rDock_2013.1_src/data/scripts/dock_solv.prm

>  <Rbt.Receptor>
prm/pocket_docking_2.prm

>  <SCORE>
-81.6574

>  <SCORE.INTER>
-68.4018

>  <SCORE.INTER.CONST>
1

>  <SCORE.INTER.POLAR>
-9.74016

>  <SCORE.INTER.ROT>
6

>  <SCORE.INTER.SOLV>
26.1727

>  <SCORE.INTER.VDW>
-29.4582

>  <SCORE.INTER.norm>
-2.01182

>  <SCORE.INTRA>
-13.2745

>  <SCORE.INTRA.DIHEDRAL>
-14.1741

>  <SCORE.INTRA.DIHEDRAL.0>
42.0816

>  <SCORE.INTRA.POLAR>
-0.958061

>  <SCORE.INTRA.POLAR.0>
-0.254682

>  <SCORE.INTRA.REPUL>
0

>  <SCORE.INTRA.REPUL.0>
0

>  <SCORE.INTRA.SOLV>
-0.247402

>  <SCORE.INTRA.SOLV.lig_0>
-109.803

>  <SCORE.INTRA.VDW>
-2.80636

>  <SCORE.INTRA.VDW.0>
0.32176

>  <SCORE.INTRA.norm>
-0.390428

>  <SCORE.RESTR>
0.0189745

>  <SCORE.RESTR.CAVITY>
0.0189745

>  <SCORE.RESTR.norm>
0.000558072

>  <SCORE.SYSTEM>
0

>  <SCORE.SYSTEM.CONST>
0

>  <SCORE.SYSTEM.DIHEDRAL>
0

>  <SCORE.SYSTEM.SOLV>
0

>  <SCORE.SYSTEM.norm>
0

>  <SCORE.heavy>
34

>  <SCORE.norm>
-2.40169

>  <RMSD>
0.361

$$$$
1mwl
 OpenBabel11021811403D
libRbt.so/2013.1/901 2013/11/27
 34 36  0  0  0  0  0  0  0  0999 V2000
   -9.0835    6.0255   20.2492 C   0  0  2  0  0  0  0  0  0  0  0  0
  -10.0892    6.8427   20.7681 O   0  0  0  0  0  0  0  0  0  0  0  0
   -9.1893    4.6478   20.9618 C   0  0  2  0  0  0  0  0  0  0  0  0
  -10.5149    4.0633   20.7372 N   0  3  0  0  0  0  0  0  0  0  0  0
   -8.8793    4.7906   22.4807 C   0  0  1  0  0  0  0  0  0  0  0  0
   -8.9446    3.5879   23.1048 O   0  0  0  0  0  0  0  0  0  0  0  0
   -7.4584    5.4249   22.6425 C   0  0  2  0  0  0  0  0  0  0  0  0
   -7.1332    5.5630   24.0416 O   0  0  0  0  0  0  0  0  0  0  0  0
   -7.4531    6.8139   21.9184 C   0  0  2  0  0  0  0  0  0  0  0  0
   -7.7959    6.6491   20.4884 O   0  0  0  0  0  0  0  0  0  0  0  0
   -6.1129    7.5564   21.9681 C   0  0  2  0  0  0  0  0  0  0  0  0
   -5.0730    6.6392   22.0719 O   0  0  0  0  0  0  0  0  0  0  0  0
   -5.9761    8.5017   23.1756 C   0  0  0  0  0  0  0  0  0  0  0  0
  -12.9420    9.5827   19.1515 C   0  0  2  0  0  0  0  0  0  0  0  0
  -13.5204   10.7519   18.4416 N   0  3  0  0  0  0  0  0  0  0  0  0
  -12.0795   10.0456   20.3630 C   0  0  0  0  0  0  0  0  0  0  0  0
  -11.4573    8.8023   21.0960 C   0  0  2  0  0  0  0  0  0  0  0  0
  -10.6366    9.2810   22.2682 N   0  3  0  0  0  0  0  0  0  0  0  0
  -10.5924    7.9806   20.0797 C   0  0  2  0  0  0  0  0  0  0  0  0
  -11.4786    7.5282   18.8934 C   0  0  2  0  0  0  0  0  0  0  0  0
  -10.6844    6.8213   17.9717 O   0  0  0  0  0  0  0  0  0  0  0  0
  -12.0720    8.7674   18.1712 C   0  0  1  0  0  0  0  0  0  0  0  0
  -12.8779    8.3297   17.0870 O   0  0  0  0  0  0  0  0  0  0  0  0
  -12.7810    9.0042   15.8630 C   0  0  2  0  0  0  0  0  0  0  0  0
  -14.2046    9.1215   15.2863 C   0  0  2  0  0  0  0  0  0  0  0  0
  -15.0016    9.8716   16.1777 O   0  0  0  0  0  0  0  0  0  0  0  0
  -14.7962    7.6849   15.0841 C   0  0  1  0  0  0  0  0  0  0  0  0
  -16.1824    7.7109   14.5570 N   0  3  0  0  0  0  0  0  0  0  0  0
  -17.1671    7.7786   15.6669 C   0  0  0  0  0  0  0  0  0  0  0  0
  -13.8689    6.8784   14.1111 C   0  0  2  0  0  0  0  0  0  0  0  0
  -13.7982    7.5451   12.8368 O   0  0  0  0  0  0  0  0  0  0  0  0
  -14.3635    5.5342   13.8750 C   0  0  0  0  0  0  0  0  0  0  0  0
  -12.4113    6.8450   14.6656 C   0  0  0  0  0  0  0  0  0  0  0  0
  -11.9227    8.2348   14.9460 O   0  0  0  0  0  0  0  0  0  0  0  0
  1  2  1  1  0  0  0
  1  3  1  0  0  0  0
  1 10  1  0  0  0  0
  3  4  1  1  0  0  0
  3  5  1  0  0  0  0
  5  6  1  1  0  0  0
  5  7  1  0  0  0  0
  7  8  1  1  0  0  0
  7  9  1  0  0  0  0
  9 10  1  6  0  0  0
  9 11  1  0  0  0  0
 11 12  1  1  0  0  0
 11 13  1  0  0  0  0
 14 15  1  6  0  0  0
 14 16  1  0  0  0  0
 14 22  1  0  0  0  0
 16 17  1  0  0  0  0
 17 18  1  1  0  0  0
 17 19  1  0  0  0  0
 19  2  1  1  0  0  0
 19 20  1  0  0  0  0
 20 21  1  6  0  0  0
 20 22  1  0  0  0  0
 22 23  1  6  0  0  0
 24 23  1  1  0  0  0
 24 25  1  0  0  0  0
 24 34  1  0  0  0  0
 25 26  1  1  0  0  0
 25 27  1  0  0  0  0
 27 28  1  6  0  0  0
 27 30  1  0  0  0  0
 28 29  1  0  0  0  0
 30 31  1  6  0  0  0
 30 32  1  0  0  0  0
 30 33  1  0  0  0  0
 33 34  1  0  0  0  0
M  CHG  4   4   1  15   1  18   1  28   1
M  END
>  <CHROM.1>
-158.31621102,-167.68091678,70.24122489,64.31741071,-55.74695138,27.70939421
-56.46593368,171.39894466,168.35731904,-174.45582362,102.70513155,-140.18170480
176.51888817,31.56757564,-54.50158246,-11.13690052,7.37857957,18.86882629
-0.22426060,0.81238695,-2.59104394

>  <Name>
1mwl

>  <RI>
0

>  <Rbt.Current_Directory>
/home/itssahil/PROJECTS/Mol_Feturizer/New_Systems/rnas/1mwl

>  <Rbt.Executable>
rbdock ($Id: //depot/dev/client3/rdock/2013.1/src/exe/rbdock.cxx#4 $)

>  <Rbt.Library>
libRbt.so (2013.1, Build901 2013/11/27)

>  <Rbt.Parameter_File>
/export/apps/rDock/src/rDock_2013.1_src/data/scripts/dock_solv.prm

>  <Rbt.Receptor>
prm/pocket_docking_5.prm

>  <SCORE>
-79.2299

>  <SCORE.INTER>
-62.6988

>  <SCORE.INTER.CONST>
1

>  <SCORE.INTER.POLAR>
-8.63234

>  <SCORE.INTER.ROT>
6

>  <SCORE.INTER.SOLV>
26.0949

>  <SCORE.INTER.VDW>
-29.323

>  <SCORE.INTER.norm>
-1.84408

>  <SCORE.INTRA>
-16.6993

>  <SCORE.INTRA.DIHEDRAL>
-21.9654

>  <SCORE.INTRA.DIHEDRAL.0>
42.0816

>  <SCORE.INTRA.POLAR>
-1.17038

>  <SCORE.INTRA.POLAR.0>
-0.254682

>  <SCORE.INTRA.REPUL>
0

>  <SCORE.INTRA.REPUL.0>
0

>  <SCORE.INTRA.SOLV>
0.577413

>  <SCORE.INTRA.SOLV.lig_0>
-109.803

>  <SCORE.INTRA.VDW>
-2.02601

>  <SCORE.INTRA.VDW.0>
0.32176

>  <SCORE.INTRA.norm>
-0.491155

>  <SCORE.RESTR>
0.16817

>  <SCORE.RESTR.CAVITY>
0.16817

>  <SCORE.RESTR.norm>
0.00494617

>  <SCORE.SYSTEM>
0

>  <SCORE.SYSTEM.CONST>
0

>  <SCORE.SYSTEM.DIHEDRAL>
0

>  <SCORE.SYSTEM.SOLV>
0

>  <SCORE.SYSTEM.norm>
0

>  <SCORE.heavy>
34

>  <SCORE.norm>
-2.33029

>  <RMSD>
0.364

$$$$
1mwl
 OpenBabel11021811403D
libRbt.so/2013.1/901 2013/11/27
 34 36  0  0  0  0  0  0  0  0999 V2000
   -9.0975    6.0702   20.2818 C   0  0  2  0  0  0  0  0  0  0  0  0
  -10.1163    6.8679   20.8057 O   0  0  0  0  0  0  0  0  0  0  0  0
   -9.1994    4.6771   20.9643 C   0  0  2  0  0  0  0  0  0  0  0  0
  -10.5172    4.0861   20.7121 N   0  3  0  0  0  0  0  0  0  0  0  0
   -8.9082    4.7908   22.4894 C   0  0  1  0  0  0  0  0  0  0  0  0
   -8.9702    3.5748   23.0876 O   0  0  0  0  0  0  0  0  0  0  0  0
   -7.4949    5.4337   22.6809 C   0  0  2  0  0  0  0  0  0  0  0  0
   -7.1871    5.5453   24.0863 O   0  0  0  0  0  0  0  0  0  0  0  0
   -7.4935    6.8375   21.9859 C   0  0  2  0  0  0  0  0  0  0  0  0
   -7.8183    6.6996   20.5490 O   0  0  0  0  0  0  0  0  0  0  0  0
   -6.1605    7.5901   22.0668 C   0  0  2  0  0  0  0  0  0  0  0  0
   -5.1084    6.7011   21.8767 O   0  0  0  0  0  0  0  0  0  0  0  0
   -5.9145    8.2641   23.4290 C   0  0  0  0  0  0  0  0  0  0  0  0
  -12.9911    9.6158   19.2426 C   0  0  2  0  0  0  0  0  0  0  0  0
  -13.5792   10.7886   18.5468 N   0  3  0  0  0  0  0  0  0  0  0  0
  -12.1123   10.0724   20.4447 C   0  0  0  0  0  0  0  0  0  0  0  0
  -11.4801    8.8253   21.1626 C   0  0  2  0  0  0  0  0  0  0  0  0
  -10.6436    9.2980   22.3261 N   0  3  0  0  0  0  0  0  0  0  0  0
  -10.6289    8.0092   20.1303 C   0  0  2  0  0  0  0  0  0  0  0  0
  -11.5310    7.5630   18.9537 C   0  0  2  0  0  0  0  0  0  0  0  0
  -10.7493    6.8611   18.0176 O   0  0  0  0  0  0  0  0  0  0  0  0
  -12.1344    8.8059   18.2463 C   0  0  1  0  0  0  0  0  0  0  0  0
  -12.9548    8.3737   17.1708 O   0  0  0  0  0  0  0  0  0  0  0  0
  -12.8500    9.0330   15.9391 C   0  0  2  0  0  0  0  0  0  0  0  0
  -14.2668    9.1230   15.3412 C   0  0  2  0  0  0  0  0  0  0  0  0
  -15.0863    9.8740   16.2113 O   0  0  0  0  0  0  0  0  0  0  0  0
  -14.8361    7.6757   15.1506 C   0  0  1  0  0  0  0  0  0  0  0  0
  -16.2150    7.6757   14.6041 N   0  3  0  0  0  0  0  0  0  0  0  0
  -17.2121    7.8580   15.6897 C   0  0  0  0  0  0  0  0  0  0  0  0
  -13.8844    6.8691   14.2016 C   0  0  2  0  0  0  0  0  0  0  0  0
  -13.8049    7.5195   12.9193 O   0  0  0  0  0  0  0  0  0  0  0  0
  -14.3574    5.5151   13.9770 C   0  0  0  0  0  0  0  0  0  0  0  0
  -12.4344    6.8632   14.7765 C   0  0  0  0  0  0  0  0  0  0  0  0
  -11.9686    8.2632   15.0446 O   0  0  0  0  0  0  0  0  0  0  0  0
  1  2  1  1  0  0  0
  1  3  1  0  0  0  0
  1 10  1  0  0  0  0
  3  4  1  1  0  0  0
  3  5  1  0  0  0  0
  5  6  1  6  0  0  0
  5  7  1  0  0  0  0
  7  8  1  1  0  0  0
  7  9  1  0  0  0  0
  9 10  1  6  0  0  0
  9 11  1  0  0  0  0
 11 12  1  1  0  0  0
 11 13  1  0  0  0  0
 14 15  1  6  0  0  0
 14 16  1  0  0  0  0
 14 22  1  0  0  0  0
 16 17  1  0  0  0  0
 17 18  1  1  0  0  0
 17 19  1  0  0  0  0
 19  2  1  1  0  0  0
 19 20  1  0  0  0  0
 20 21  1  6  0  0  0
 20 22  1  0  0  0  0
 22 23  1  6  0  0  0
 24 23  1  1  0  0  0
 24 25  1  0  0  0  0
 24 34  1  0  0  0  0
 25 26  1  1  0  0  0
 25 27  1  0  0  0  0
 27 28  1  6  0  0  0
 27 30  1  0  0  0  0
 28 29  1  0  0  0  0
 30 31  1  6  0  0  0
 30 32  1  0  0  0  0
 30 33  1  0  0  0  0
 33 34  1  0  0  0  0
M  CHG  4   4   1  15   1  18   1  28   1
M  END
>  <CHROM.1>
-157.79139327,-166.26017704,55.33452579,56.83750398,60.09224991,40.33244478
179.96061713,56.93672959,164.13865314,175.19370826,104.30847914,-142.45333649
113.35960019,36.25954540,65.67157753,-11.16356135,7.39217427,18.92243770
-0.23364826,0.80498766,-2.57184222

>  <Name>
1mwl

>  <RI>
0

>  <Rbt.Current_Directory>
/home/itssahil/PROJECTS/Mol_Feturizer/New_Systems/rnas/1mwl

>  <Rbt.Executable>
rbdock ($Id: //depot/dev/client3/rdock/2013.1/src/exe/rbdock.cxx#4 $)

>  <Rbt.Library>
libRbt.so (2013.1, Build901 2013/11/27)

>  <Rbt.Parameter_File>
/export/apps/rDock/src/rDock_2013.1_src/data/scripts/dock_solv.prm

>  <Rbt.Receptor>
prm/pocket_docking_3.prm

>  <SCORE>
-79.3689

>  <SCORE.INTER>
-64.0913

>  <SCORE.INTER.CONST>
1

>  <SCORE.INTER.POLAR>
-8.99645

>  <SCORE.INTER.ROT>
6

>  <SCORE.INTER.SOLV>
25.9349

>  <SCORE.INTER.VDW>
-28.9843

>  <SCORE.INTER.norm>
-1.88504

>  <SCORE.INTRA>
-15.2776

>  <SCORE.INTRA.DIHEDRAL>
-17.3737

>  <SCORE.INTRA.DIHEDRAL.0>
42.0816

>  <SCORE.INTRA.POLAR>
-0.913203

>  <SCORE.INTRA.POLAR.0>
-0.254682

>  <SCORE.INTRA.REPUL>
0

>  <SCORE.INTRA.REPUL.0>
0

>  <SCORE.INTRA.SOLV>
-0.301386

>  <SCORE.INTRA.SOLV.lig_0>
-109.803

>  <SCORE.INTRA.VDW>
-3.33517

>  <SCORE.INTRA.VDW.0>
0.32176

>  <SCORE.INTRA.norm>
-0.449341

>  <SCORE.RESTR>
0

>  <SCORE.RESTR.CAVITY>
0

>  <SCORE.RESTR.norm>
0

>  <SCORE.SYSTEM>
0

>  <SCORE.SYSTEM.CONST>
0

>  <SCORE.SYSTEM.DIHEDRAL>
0

>  <SCORE.SYSTEM.SOLV>
0

>  <SCORE.SYSTEM.norm>
0

>  <SCORE.heavy>
34

>  <SCORE.norm>
-2.33438

>  <RMSD>
0.373

$$$$
1mwl
 OpenBabel11021811403D
libRbt.so/2013.1/901 2013/11/27
 34 36  0  0  0  0  0  0  0  0999 V2000
   -8.9068    6.0371   20.1599 C   0  0  2  0  0  0  0  0  0  0  0  0
  -10.0149    6.7206   20.6635 O   0  0  0  0  0  0  0  0  0  0  0  0
   -8.9771    4.5789   20.6944 C   0  0  2  0  0  0  0  0  0  0  0  0
  -10.2285    3.9446   20.2690 N   0  3  0  0  0  0  0  0  0  0  0  0
   -8.8235    4.5543   22.2434 C   0  0  1  0  0  0  0  0  0  0  0  0
   -8.8582    3.2827   22.7147 O   0  0  0  0  0  0  0  0  0  0  0  0
   -7.4752    5.2514   22.6222 C   0  0  2  0  0  0  0  0  0  0  0  0
   -7.2949    5.2379   24.0539 O   0  0  0  0  0  0  0  0  0  0  0  0
   -7.5045    6.7161   22.0674 C   0  0  2  0  0  0  0  0  0  0  0  0
   -7.6973    6.7059   20.6004 O   0  0  0  0  0  0  0  0  0  0  0  0
   -6.2337    7.5290   22.3397 C   0  0  2  0  0  0  0  0  0  0  0  0
   -5.5261    6.9541   23.3895 O   0  0  0  0  0  0  0  0  0  0  0  0
   -6.5105    8.9860   22.7531 C   0  0  0  0  0  0  0  0  0  0  0  0
  -12.8878    9.6078   19.3714 C   0  0  2  0  0  0  0  0  0  0  0  0
  -13.4775   10.8260   18.7601 N   0  3  0  0  0  0  0  0  0  0  0  0
  -11.9407    9.9858   20.5487 C   0  0  0  0  0  0  0  0  0  0  0  0
  -11.3079    8.6914   21.1766 C   0  0  2  0  0  0  0  0  0  0  0  0
  -10.4044    9.0882   22.3180 N   0  3  0  0  0  0  0  0  0  0  0  0
  -10.5290    7.9046   20.0672 C   0  0  2  0  0  0  0  0  0  0  0  0
  -11.4979    7.5363   18.9171 C   0  0  2  0  0  0  0  0  0  0  0  0
  -10.7808    6.8607   17.9125 O   0  0  0  0  0  0  0  0  0  0  0  0
  -12.1015    8.8254   18.2981 C   0  0  1  0  0  0  0  0  0  0  0  0
  -12.9837    8.4644   17.2454 O   0  0  0  0  0  0  0  0  0  0  0  0
  -12.8669    9.1243   16.0152 C   0  0  2  0  0  0  0  0  0  0  0  0
  -14.2784    9.2182   15.4055 C   0  0  2  0  0  0  0  0  0  0  0  0
  -15.1034    9.9705   16.2692 O   0  0  0  0  0  0  0  0  0  0  0  0
  -14.8495    7.7724   15.2089 C   0  0  1  0  0  0  0  0  0  0  0  0
  -16.2237    7.7760   14.6508 N   0  3  0  0  0  0  0  0  0  0  0  0
  -17.2265    8.0113   15.7209 C   0  0  0  0  0  0  0  0  0  0  0  0
  -13.8918    6.9642   14.2673 C   0  0  2  0  0  0  0  0  0  0  0  0
  -13.7999    7.6153   12.9863 O   0  0  0  0  0  0  0  0  0  0  0  0
  -14.3660    5.6115   14.0377 C   0  0  0  0  0  0  0  0  0  0  0  0
  -12.4467    6.9544   14.8545 C   0  0  0  0  0  0  0  0  0  0  0  0
  -11.9798    8.3531   15.1276 O   0  0  0  0  0  0  0  0  0  0  0  0
  1  2  1  1  0  0  0
  1  3  1  0  0  0  0
  1 10  1  0  0  0  0
  3  4  1  1  0  0  0
  3  5  1  0  0  0  0
  5  6  1  6  0  0  0
  5  7  1  0  0  0  0
  7  8  1  1  0  0  0
  7  9  1  0  0  0  0
  9 10  1  6  0  0  0
  9 11  1  0  0  0  0
 11 12  1  1  0  0  0
 11 13  1  0  0  0  0
 14 15  1  6  0  0  0
 14 16  1  0  0  0  0
 14 22  1  0  0  0  0
 16 17  1  0  0  0  0
 17 18  1  1  0  0  0
 17 19  1  0  0  0  0
 19  2  1  1  0  0  0
 19 20  1  0  0  0  0
 20 21  1  6  0  0  0
 20 22  1  0  0  0  0
 22 23  1  6  0  0  0
 24 23  1  1  0  0  0
 24 25  1  0  0  0  0
 24 34  1  0  0  0  0
 25 26  1  1  0  0  0
 25 27  1  0  0  0  0
 27 28  1  6  0  0  0
 27 30  1  0  0  0  0
 28 29  1  0  0  0  0
 30 31  1  6  0  0  0
 30 32  1  0  0  0  0
 30 33  1  0  0  0  0
 33 34  1  0  0  0  0
M  CHG  4   4   1  15   1  18   1  28   1
M  END
>  <CHROM.1>
-158.68873976,-156.14120388,69.00459110,-104.49082530,-62.29366703,-19.99220137
172.21863427,66.09808760,52.68916638,68.00183137,108.06922853,-147.15529984
110.71995705,38.40450585,-173.46277612,-11.14713295,7.39355974,18.94665256
-0.15905394,0.82493053,-2.66300359

>  <Name>
1mwl

>  <RI>
0

>  <Rbt.Current_Directory>
/home/itssahil/PROJECTS/Mol_Feturizer/New_Systems/rnas/1mwl

>  <Rbt.Executable>
rbdock ($Id: //depot/dev/client3/rdock/2013.1/src/exe/rbdock.cxx#4 $)

>  <Rbt.Library>
libRbt.so (2013.1, Build901 2013/11/27)

>  <Rbt.Parameter_File>
/export/apps/rDock/src/rDock_2013.1_src/data/scripts/dock_solv.prm

>  <Rbt.Receptor>
prm/pocket_docking_2.prm

>  <SCORE>
-83.9835

>  <SCORE.INTER>
-74.4255

>  <SCORE.INTER.CONST>
1

>  <SCORE.INTER.POLAR>
-10.9124

>  <SCORE.INTER.ROT>
6

>  <SCORE.INTER.SOLV>
24.2941

>  <SCORE.INTER.VDW>
-28.9402

>  <SCORE.INTER.norm>
-2.18898

>  <SCORE.INTRA>
-9.60034

>  <SCORE.INTRA.DIHEDRAL>
-7.5929

>  <SCORE.INTRA.DIHEDRAL.0>
42.0816

>  <SCORE.INTRA.POLAR>
-0.933283

>  <SCORE.INTRA.POLAR.0>
-0.254682

>  <SCORE.INTRA.REPUL>
0

>  <SCORE.INTRA.REPUL.0>
0

>  <SCORE.INTRA.SOLV>
1.16559

>  <SCORE.INTRA.SOLV.lig_0>
-109.803

>  <SCORE.INTRA.VDW>
-3.21352

>  <SCORE.INTRA.VDW.0>
0.32176

>  <SCORE.INTRA.norm>
-0.282363

>  <SCORE.RESTR>
0.042302

>  <SCORE.RESTR.CAVITY>
0.042302

>  <SCORE.RESTR.norm>
0.00124418

>  <SCORE.SYSTEM>
0

>  <SCORE.SYSTEM.CONST>
0

>  <SCORE.SYSTEM.DIHEDRAL>
0

>  <SCORE.SYSTEM.SOLV>
0

>  <SCORE.SYSTEM.norm>
0

>  <SCORE.heavy>
34

>  <SCORE.norm>
-2.4701

>  <RMSD>
0.375

$$$$
1mwl
 OpenBabel11021811403D
libRbt.so/2013.1/901 2013/11/27
 34 36  0  0  0  0  0  0  0  0999 V2000
   -8.9104    6.1959   20.0688 C   0  0  2  0  0  0  0  0  0  0  0  0
  -10.0559    6.8406   20.5388 O   0  0  0  0  0  0  0  0  0  0  0  0
   -9.0203    4.6986   20.4725 C   0  0  2  0  0  0  0  0  0  0  0  0
  -10.2333    4.1082   19.8984 N   0  3  0  0  0  0  0  0  0  0  0  0
   -8.9894    4.5443   22.0213 C   0  0  1  0  0  0  0  0  0  0  0  0
   -9.0592    3.2381   22.3807 O   0  0  0  0  0  0  0  0  0  0  0  0
   -7.6764    5.2008   22.5621 C   0  0  2  0  0  0  0  0  0  0  0  0
   -7.6096    5.0671   23.9973 O   0  0  0  0  0  0  0  0  0  0  0  0
   -7.6642    6.7067   22.1308 C   0  0  2  0  0  0  0  0  0  0  0  0
   -7.7406    6.8196   20.6574 O   0  0  0  0  0  0  0  0  0  0  0  0
   -6.4202    7.4877   22.5693 C   0  0  2  0  0  0  0  0  0  0  0  0
   -6.5936    8.8390   22.2917 O   0  0  0  0  0  0  0  0  0  0  0  0
   -5.1341    7.0593   21.8394 C   0  0  0  0  0  0  0  0  0  0  0  0
  -12.9681    9.6561   19.1781 C   0  0  2  0  0  0  0  0  0  0  0  0
  -13.5727   10.8621   18.5572 N   0  3  0  0  0  0  0  0  0  0  0  0
  -12.0690   10.0512   20.3870 C   0  0  0  0  0  0  0  0  0  0  0  0
  -11.4196    8.7701   21.0251 C   0  0  2  0  0  0  0  0  0  0  0  0
  -10.5635    9.1831   22.1971 N   0  3  0  0  0  0  0  0  0  0  0  0
  -10.5846    8.0144   19.9351 C   0  0  2  0  0  0  0  0  0  0  0  0
  -11.5066    7.6282   18.7527 C   0  0  2  0  0  0  0  0  0  0  0  0
  -10.7397    6.9811   17.7662 O   0  0  0  0  0  0  0  0  0  0  0  0
  -12.1269    8.9047   18.1243 C   0  0  1  0  0  0  0  0  0  0  0  0
  -12.9654    8.5275   17.0420 O   0  0  0  0  0  0  0  0  0  0  0  0
  -12.9909    9.3364   15.8985 C   0  0  2  0  0  0  0  0  0  0  0  0
  -14.4450    9.3739   15.3915 C   0  0  2  0  0  0  0  0  0  0  0  0
  -15.2658    9.9409   16.3901 O   0  0  0  0  0  0  0  0  0  0  0  0
  -14.9076    7.9160   15.0517 C   0  0  1  0  0  0  0  0  0  0  0  0
  -16.3135    7.8616   14.5823 N   0  3  0  0  0  0  0  0  0  0  0  0
  -17.2410    7.6384   15.7208 C   0  0  0  0  0  0  0  0  0  0  0  0
  -13.9557    7.3149   13.9609 C   0  0  2  0  0  0  0  0  0  0  0  0
  -14.0089    8.1189   12.7675 O   0  0  0  0  0  0  0  0  0  0  0  0
  -14.3321    5.9618   13.5941 C   0  0  0  0  0  0  0  0  0  0  0  0
  -12.4768    7.3663   14.4540 C   0  0  0  0  0  0  0  0  0  0  0  0
  -12.1085    8.7591   14.8701 O   0  0  0  0  0  0  0  0  0  0  0  0
  1  2  1  1  0  0  0
  1  3  1  0  0  0  0
  1 10  1  0  0  0  0
  3  4  1  1  0  0  0
  3  5  1  0  0  0  0
  5  6  1  6  0  0  0
  5  7  1  0  0  0  0
  7  8  1  1  0  0  0
  7  9  1  0  0  0  0
  9 10  1  6  0  0  0
  9 11  1  0  0  0  0
 11 12  1  6  0  0  0
 11 13  1  0  0  0  0
 14 15  1  6  0  0  0
 14 16  1  0  0  0  0
 14 22  1  0  0  0  0
 16 17  1  0  0  0  0
 17 18  1  1  0  0  0
 17 19  1  0  0  0  0
 19  2  1  1  0  0  0
 19 20  1  0  0  0  0
 20 21  1  6  0  0  0
 20 22  1  0  0  0  0
 22 23  1  6  0  0  0
 24 23  1  1  0  0  0
 24 25  1  0  0  0  0
 24 34  1  0  0  0  0
 25 26  1  1  0  0  0
 25 27  1  0  0  0  0
 27 28  1  6  0  0  0
 27 30  1  0  0  0  0
 28 29  1  0  0  0  0
 30 31  1  6  0  0  0
 30 32  1  0  0  0  0
 30 33  1  0  0  0  0
 33 34  1  0  0  0  0
M  CHG  4   4   1  15   1  18   1  28   1
M  END
>  <CHROM.1>
-153.42795513,-155.85085878,-63.31352980,-161.95075582,-73.66402079,-172.19628842
169.26028015,61.54253422,-76.93822743,-178.22609083,97.56030305,-141.80601963
172.51202489,28.53151486,57.09224304,-11.23317981,7.50142920,18.74588360
-0.14109138,0.82632450,-2.66195659

>  <Name>
1mwl

>  <RI>
0

>  <Rbt.Current_Directory>
/home/itssahil/PROJECTS/Mol_Feturizer/New_Systems/rnas/1mwl

>  <Rbt.Executable>
rbdock ($Id: //depot/dev/client3/rdock/2013.1/src/exe/rbdock.cxx#4 $)

>  <Rbt.Library>
libRbt.so (2013.1, Build901 2013/11/27)

>  <Rbt.Parameter_File>
/export/apps/rDock/src/rDock_2013.1_src/data/scripts/dock_solv.prm

>  <Rbt.Receptor>
prm/pocket_docking_2.prm

>  <SCORE>
-83.21

>  <SCORE.INTER>
-66.7642

>  <SCORE.INTER.CONST>
1

>  <SCORE.INTER.POLAR>
-8.81446

>  <SCORE.INTER.ROT>
6

>  <SCORE.INTER.SOLV>
26.5804

>  <SCORE.INTER.VDW>
-31.5881

>  <SCORE.INTER.norm>
-1.96365

>  <SCORE.INTRA>
-16.4458

>  <SCORE.INTRA.DIHEDRAL>
-20.3482

>  <SCORE.INTRA.DIHEDRAL.0>
42.0816

>  <SCORE.INTRA.POLAR>
-0.916344

>  <SCORE.INTRA.POLAR.0>
-0.254682

>  <SCORE.INTRA.REPUL>
0

>  <SCORE.INTRA.REPUL.0>
0

>  <SCORE.INTRA.SOLV>
0.64012

>  <SCORE.INTRA.SOLV.lig_0>
-109.803

>  <SCORE.INTRA.VDW>
-3.47616

>  <SCORE.INTRA.VDW.0>
0.32176

>  <SCORE.INTRA.norm>
-0.4837

>  <SCORE.RESTR>
0

>  <SCORE.RESTR.CAVITY>
0

>  <SCORE.RESTR.norm>
0

>  <SCORE.SYSTEM>
0

>  <SCORE.SYSTEM.CONST>
0

>  <SCORE.SYSTEM.DIHEDRAL>
0

>  <SCORE.SYSTEM.SOLV>
0

>  <SCORE.SYSTEM.norm>
0

>  <SCORE.heavy>
34

>  <SCORE.norm>
-2.44735

>  <RMSD>
0.376

$$$$
1mwl
 OpenBabel11021811403D
libRbt.so/2013.1/901 2013/11/27
 34 36  0  0  0  0  0  0  0  0999 V2000
   -8.9229    6.0736   20.2712 C   0  0  2  0  0  0  0  0  0  0  0  0
  -10.0415    6.7767   20.7218 O   0  0  0  0  0  0  0  0  0  0  0  0
   -9.1477    4.5735   20.6120 C   0  0  2  0  0  0  0  0  0  0  0  0
  -10.3727    4.0875   19.9697 N   0  3  0  0  0  0  0  0  0  0  0  0
   -9.1900    4.3616   22.1537 C   0  0  1  0  0  0  0  0  0  0  0  0
   -9.3604    3.0509   22.4593 O   0  0  0  0  0  0  0  0  0  0  0  0
   -7.8595    4.9079   22.7692 C   0  0  2  0  0  0  0  0  0  0  0  0
   -7.8601    4.7183   24.1996 O   0  0  0  0  0  0  0  0  0  0  0  0
   -7.7304    6.4242   22.3974 C   0  0  2  0  0  0  0  0  0  0  0  0
   -7.7393    6.5953   20.9277 O   0  0  0  0  0  0  0  0  0  0  0  0
   -6.4564    7.1031   22.9129 C   0  0  2  0  0  0  0  0  0  0  0  0
   -6.7296    8.4274   23.2366 O   0  0  0  0  0  0  0  0  0  0  0  0
   -5.3152    7.1383   21.8800 C   0  0  0  0  0  0  0  0  0  0  0  0
  -12.8961    9.5618   19.1875 C   0  0  2  0  0  0  0  0  0  0  0  0
  -13.4754   10.7485   18.5081 N   0  3  0  0  0  0  0  0  0  0  0  0
  -12.0235    9.9944   20.4029 C   0  0  0  0  0  0  0  0  0  0  0  0
  -11.4005    8.7329   21.1034 C   0  0  2  0  0  0  0  0  0  0  0  0
  -10.5699    9.1824   22.2802 N   0  3  0  0  0  0  0  0  0  0  0  0
  -10.5455    7.9314   20.0627 C   0  0  2  0  0  0  0  0  0  0  0  0
  -11.4415    7.5088   18.8729 C   0  0  2  0  0  0  0  0  0  0  0  0
  -10.6563    6.8201   17.9299 O   0  0  0  0  0  0  0  0  0  0  0  0
  -12.0358    8.7658   18.1830 C   0  0  1  0  0  0  0  0  0  0  0  0
  -12.8507    8.3553   17.0949 O   0  0  0  0  0  0  0  0  0  0  0  0
  -12.8070    9.0955   15.9063 C   0  0  2  0  0  0  0  0  0  0  0  0
  -14.2450    9.1773   15.3600 C   0  0  2  0  0  0  0  0  0  0  0  0
  -15.0578    9.8436   16.3023 O   0  0  0  0  0  0  0  0  0  0  0  0
  -14.7756    7.7275   15.0929 C   0  0  1  0  0  0  0  0  0  0  0  0
  -16.1713    7.7174   14.5908 N   0  3  0  0  0  0  0  0  0  0  0  0
  -17.1371    7.6941   15.7189 C   0  0  0  0  0  0  0  0  0  0  0  0
  -13.8317    7.0151   14.0641 C   0  0  2  0  0  0  0  0  0  0  0  0
  -13.8147    7.7489   12.8253 O   0  0  0  0  0  0  0  0  0  0  0  0
  -14.2701    5.6637   13.7663 C   0  0  0  0  0  0  0  0  0  0  0  0
  -12.3639    7.0197   14.5920 C   0  0  0  0  0  0  0  0  0  0  0  0
  -11.9326    8.4140   14.9365 O   0  0  0  0  0  0  0  0  0  0  0  0
  1  2  1  1  0  0  0
  1  3  1  0  0  0  0
  1 10  1  0  0  0  0
  3  4  1  6  0  0  0
  3  5  1  0  0  0  0
  5  6  1  6  0  0  0
  5  7  1  0  0  0  0
  7  8  1  1  0  0  0
  7  9  1  0  0  0  0
  9 10  1  6  0  0  0
  9 11  1  0  0  0  0
 11 12  1  6  0  0  0
 11 13  1  0  0  0  0
 14 15  1  6  0  0  0
 14 16  1  0  0  0  0
 14 22  1  0  0  0  0
 16 17  1  0  0  0  0
 17 18  1  1  0  0  0
 17 19  1  0  0  0  0
 19  2  1  1  0  0  0
 19 20  1  0  0  0  0
 20 21  1  6  0  0  0
 20 22  1  0  0  0  0
 22 23  1  6  0  0  0
 24 23  1  1  0  0  0
 24 25  1  0  0  0  0
 24 34  1  0  0  0  0
 25 26  1  1  0  0  0
 25 27  1  0  0  0  0
 27 28  1  6  0  0  0
 27 30  1  0  0  0  0
 28 29  1  0  0  0  0
 30 31  1  6  0  0  0
 30 32  1  0  0  0  0
 30 33  1  0  0  0  0
 33 34  1  0  0  0  0
M  CHG  4   4   1  15   1  18   1  28   1
M  END
>  <CHROM.1>
-146.93572234,-158.63887913,96.84401630,-73.50189744,51.59890385,-146.06428330
63.49759789,-65.38954967,168.18309173,168.06337594,99.71335002,-140.75015516
172.35124682,32.01953260,-64.13019599,-11.22152852,7.31765699,18.86808954
-0.14321767,0.86054193,-2.67793326

>  <Name>
1mwl

>  <RI>
0

>  <Rbt.Current_Directory>
/home/itssahil/PROJECTS/Mol_Feturizer/New_Systems/rnas/1mwl

>  <Rbt.Executable>
rbdock ($Id: //depot/dev/client3/rdock/2013.1/src/exe/rbdock.cxx#4 $)

>  <Rbt.Library>
libRbt.so (2013.1, Build901 2013/11/27)

>  <Rbt.Parameter_File>
/export/apps/rDock/src/rDock_2013.1_src/data/scripts/dock_solv.prm

>  <Rbt.Receptor>
prm/pocket_docking_6.prm

>  <SCORE>
-74.1633

>  <SCORE.INTER>
-62.8829

>  <SCORE.INTER.CONST>
1

>  <SCORE.INTER.POLAR>
-8.44345

>  <SCORE.INTER.ROT>
6

>  <SCORE.INTER.SOLV>
24.9383

>  <SCORE.INTER.VDW>
-29.6899

>  <SCORE.INTER.norm>
-1.8495

>  <SCORE.INTRA>
-11.3074

>  <SCORE.INTRA.DIHEDRAL>
-15.2074

>  <SCORE.INTRA.DIHEDRAL.0>
42.0816

>  <SCORE.INTRA.POLAR>
-0.957581

>  <SCORE.INTRA.POLAR.0>
-0.254682

>  <SCORE.INTRA.REPUL>
0

>  <SCORE.INTRA.REPUL.0>
0

>  <SCORE.INTRA.SOLV>
1.71273

>  <SCORE.INTRA.SOLV.lig_0>
-109.803

>  <SCORE.INTRA.VDW>
-1.30431

>  <SCORE.INTRA.VDW.0>
0.32176

>  <SCORE.INTRA.norm>
-0.332571

>  <SCORE.RESTR>
0.0270763

>  <SCORE.RESTR.CAVITY>
0.0270763

>  <SCORE.RESTR.norm>
0.000796362

>  <SCORE.SYSTEM>
0

>  <SCORE.SYSTEM.CONST>
0

>  <SCORE.SYSTEM.DIHEDRAL>
0

>  <SCORE.SYSTEM.SOLV>
0

>  <SCORE.SYSTEM.norm>
0

>  <SCORE.heavy>
34

>  <SCORE.norm>
-2.18127

>  <RMSD>
0.382

$$$$
1mwl
 OpenBabel11021811403D
libRbt.so/2013.1/901 2013/11/27
 34 36  0  0  0  0  0  0  0  0999 V2000
   -9.0853    5.9621   20.2658 C   0  0  2  0  0  0  0  0  0  0  0  0
  -10.0995    6.7567   20.8030 O   0  0  0  0  0  0  0  0  0  0  0  0
   -9.1366    4.5882   20.9916 C   0  0  2  0  0  0  0  0  0  0  0  0
  -10.4512    3.9667   20.8045 N   0  3  0  0  0  0  0  0  0  0  0  0
   -8.7933    4.7521   22.5012 C   0  0  1  0  0  0  0  0  0  0  0  0
   -8.8110    3.5535   23.1361 O   0  0  0  0  0  0  0  0  0  0  0  0
   -7.3864    5.4253   22.6227 C   0  0  2  0  0  0  0  0  0  0  0  0
   -7.0308    5.5840   24.0122 O   0  0  0  0  0  0  0  0  0  0  0  0
   -7.4362    6.8078   21.8878 C   0  0  2  0  0  0  0  0  0  0  0  0
   -7.8094    6.6217   20.4681 O   0  0  0  0  0  0  0  0  0  0  0  0
   -6.1155    7.5860   21.8985 C   0  0  2  0  0  0  0  0  0  0  0  0
   -5.0626    6.7180   22.1656 O   0  0  0  0  0  0  0  0  0  0  0  0
   -6.0546    8.6825   22.9776 C   0  0  0  0  0  0  0  0  0  0  0  0
  -12.8984    9.6612   19.3925 C   0  0  2  0  0  0  0  0  0  0  0  0
  -13.4566   10.8701   18.7350 N   0  3  0  0  0  0  0  0  0  0  0  0
  -11.9489   10.0589   20.5614 C   0  0  0  0  0  0  0  0  0  0  0  0
  -11.3494    8.7734   21.2384 C   0  0  2  0  0  0  0  0  0  0  0  0
  -10.4430    9.1897   22.3705 N   0  3  0  0  0  0  0  0  0  0  0  0
  -10.5831    7.9302   20.1622 C   0  0  2  0  0  0  0  0  0  0  0  0
  -11.5542    7.5437   19.0200 C   0  0  2  0  0  0  0  0  0  0  0  0
  -10.8476    6.8168   18.0442 O   0  0  0  0  0  0  0  0  0  0  0  0
  -12.1247    8.8235   18.3522 C   0  0  1  0  0  0  0  0  0  0  0  0
  -13.0095    8.4457   17.3077 O   0  0  0  0  0  0  0  0  0  0  0  0
  -12.8753    9.0635   16.0575 C   0  0  2  0  0  0  0  0  0  0  0  0
  -14.2799    9.1479   15.4308 C   0  0  2  0  0  0  0  0  0  0  0  0
  -15.1074    9.9347   16.2607 O   0  0  0  0  0  0  0  0  0  0  0  0
  -14.8605    7.7008   15.2764 C   0  0  1  0  0  0  0  0  0  0  0  0
  -16.2292    7.6964   14.7047 N   0  3  0  0  0  0  0  0  0  0  0  0
  -17.2383    8.0025   15.7506 C   0  0  0  0  0  0  0  0  0  0  0  0
  -13.9001    6.8544   14.3719 C   0  0  2  0  0  0  0  0  0  0  0  0
  -13.7904    7.4620   13.0710 O   0  0  0  0  0  0  0  0  0  0  0  0
  -14.3828    5.4986   14.1824 C   0  0  0  0  0  0  0  0  0  0  0  0
  -12.4610    6.8531   14.9736 C   0  0  0  0  0  0  0  0  0  0  0  0
  -11.9857    8.2565   15.2050 O   0  0  0  0  0  0  0  0  0  0  0  0
  1  2  1  1  0  0  0
  1  3  1  0  0  0  0
  1 10  1  0  0  0  0
  3  4  1  1  0  0  0
  3  5  1  0  0  0  0
  5  6  1  6  0  0  0
  5  7  1  0  0  0  0
  7  8  1  1  0  0  0
  7  9  1  0  0  0  0
  9 10  1  6  0  0  0
  9 11  1  0  0  0  0
 11 12  1  1  0  0  0
 11 13  1  0  0  0  0
 14 15  1  6  0  0  0
 14 16  1  0  0  0  0
 14 22  1  0  0  0  0
 16 17  1  0  0  0  0
 17 18  1  1  0  0  0
 17 19  1  0  0  0  0
 19  2  1  1  0  0  0
 19 20  1  0  0  0  0
 20 21  1  6  0  0  0
 20 22  1  0  0  0  0
 22 23  1  6  0  0  0
 24 23  1  1  0  0  0
 24 25  1  0  0  0  0
 24 34  1  0  0  0  0
 25 26  1  1  0  0  0
 25 27  1  0  0  0  0
 27 28  1  6  0  0  0
 27 30  1  0  0  0  0
 28 29  1  0  0  0  0
 30 31  1  6  0  0  0
 30 32  1  0  0  0  0
 30 33  1  0  0  0  0
 33 34  1  0  0  0  0
M  CHG  4   4   1  15   1  18   1  28   1
M  END
>  <CHROM.1>
-162.98349607,-162.20250948,70.18278065,-77.42896765,-47.58712966,19.67236726
-57.49293823,-56.48290310,52.35455890,-57.99341982,107.76187654,-147.88003652
113.59882867,39.57942690,-54.68594001,-11.13722197,7.39315238,18.98253448
-0.16680959,0.80330613,-2.65280865

>  <Name>
1mwl

>  <RI>
0

>  <Rbt.Current_Directory>
/home/itssahil/PROJECTS/Mol_Feturizer/New_Systems/rnas/1mwl

>  <Rbt.Executable>
rbdock ($Id: //depot/dev/client3/rdock/2013.1/src/exe/rbdock.cxx#4 $)

>  <Rbt.Library>
libRbt.so (2013.1, Build901 2013/11/27)

>  <Rbt.Parameter_File>
/export/apps/rDock/src/rDock_2013.1_src/data/scripts/dock_solv.prm

>  <Rbt.Receptor>
prm/pocket_docking_2.prm

>  <SCORE>
-84.051

>  <SCORE.INTER>
-69.403

>  <SCORE.INTER.CONST>
1

>  <SCORE.INTER.POLAR>
-9.98638

>  <SCORE.INTER.ROT>
6

>  <SCORE.INTER.SOLV>
25.6228

>  <SCORE.INTER.VDW>
-29.1217

>  <SCORE.INTER.norm>
-2.04127

>  <SCORE.INTRA>
-14.6952

>  <SCORE.INTRA.DIHEDRAL>
-13.9545

>  <SCORE.INTRA.DIHEDRAL.0>
42.0816

>  <SCORE.INTRA.POLAR>
-1.41223

>  <SCORE.INTRA.POLAR.0>
-0.254682

>  <SCORE.INTRA.REPUL>
0

>  <SCORE.INTRA.REPUL.0>
0

>  <SCORE.INTRA.SOLV>
0.421724

>  <SCORE.INTRA.SOLV.lig_0>
-109.803

>  <SCORE.INTRA.VDW>
-3.1272

>  <SCORE.INTRA.VDW.0>
0.32176

>  <SCORE.INTRA.norm>
-0.432212

>  <SCORE.RESTR>
0.0471819

>  <SCORE.RESTR.CAVITY>
0.0471819

>  <SCORE.RESTR.norm>
0.0013877

>  <SCORE.SYSTEM>
0

>  <SCORE.SYSTEM.CONST>
0

>  <SCORE.SYSTEM.DIHEDRAL>
0

>  <SCORE.SYSTEM.SOLV>
0

>  <SCORE.SYSTEM.norm>
0

>  <SCORE.heavy>
34

>  <SCORE.norm>
-2.47209

>  <RMSD>
0.383

$$$$
1mwl
 OpenBabel11021811403D
libRbt.so/2013.1/901 2013/11/27
 34 36  0  0  0  0  0  0  0  0999 V2000
   -9.1578    5.9614   20.2109 C   0  0  2  0  0  0  0  0  0  0  0  0
  -10.1575    6.7632   20.7644 O   0  0  0  0  0  0  0  0  0  0  0  0
   -9.2126    4.5851   20.9318 C   0  0  2  0  0  0  0  0  0  0  0  0
  -10.5353    3.9767   20.7595 N   0  3  0  0  0  0  0  0  0  0  0  0
   -8.8482    4.7396   22.4375 C   0  0  1  0  0  0  0  0  0  0  0  0
   -8.8689    3.5387   23.0679 O   0  0  0  0  0  0  0  0  0  0  0  0
   -7.4336    5.3992   22.5433 C   0  0  2  0  0  0  0  0  0  0  0  0
   -7.0585    5.5489   23.9287 O   0  0  0  0  0  0  0  0  0  0  0  0
   -7.4799    6.7851   21.8146 C   0  0  2  0  0  0  0  0  0  0  0  0
   -7.8733    6.6083   20.3992 O   0  0  0  0  0  0  0  0  0  0  0  0
   -6.1520    7.5509   21.8112 C   0  0  2  0  0  0  0  0  0  0  0  0
   -5.0935    6.6532   21.8944 O   0  0  0  0  0  0  0  0  0  0  0  0
   -5.9935    8.5158   23.0004 C   0  0  0  0  0  0  0  0  0  0  0  0
  -12.9528    9.6784   19.3688 C   0  0  2  0  0  0  0  0  0  0  0  0
  -13.5090   10.8937   18.7215 N   0  3  0  0  0  0  0  0  0  0  0  0
  -12.0120   10.0643   20.5486 C   0  0  0  0  0  0  0  0  0  0  0  0
  -11.4145    8.7723   21.2147 C   0  0  2  0  0  0  0  0  0  0  0  0
  -10.5166    9.1772   22.3577 N   0  3  0  0  0  0  0  0  0  0  0  0
  -10.6391    7.9432   20.1340 C   0  0  2  0  0  0  0  0  0  0  0  0
  -11.6017    7.5680   18.9808 C   0  0  2  0  0  0  0  0  0  0  0  0
  -10.8870    6.8539   18.0014 O   0  0  0  0  0  0  0  0  0  0  0  0
  -12.1704    8.8543   18.3240 C   0  0  1  0  0  0  0  0  0  0  0  0
  -13.0472    8.4870   17.2692 O   0  0  0  0  0  0  0  0  0  0  0  0
  -12.9167    9.1313   16.0321 C   0  0  2  0  0  0  0  0  0  0  0  0
  -14.3194    9.2060   15.3998 C   0  0  2  0  0  0  0  0  0  0  0  0
  -15.1632    9.9633   16.2407 O   0  0  0  0  0  0  0  0  0  0  0  0
  -14.8763    7.7533   15.2141 C   0  0  1  0  0  0  0  0  0  0  0  0
  -16.2419    7.7388   14.6352 N   0  3  0  0  0  0  0  0  0  0  0  0
  -17.2683    7.8453   15.7035 C   0  0  0  0  0  0  0  0  0  0  0  0
  -13.8982    6.9401   14.2981 C   0  0  2  0  0  0  0  0  0  0  0  0
  -13.7918    7.5748   13.0100 O   0  0  0  0  0  0  0  0  0  0  0  0
  -14.3586    5.5808   14.0796 C   0  0  0  0  0  0  0  0  0  0  0  0
  -12.4622    6.9494   14.9072 C   0  0  0  0  0  0  0  0  0  0  0  0
  -12.0103    8.3552   15.1686 O   0  0  0  0  0  0  0  0  0  0  0  0
  1  2  1  1  0  0  0
  1  3  1  0  0  0  0
  1 10  1  0  0  0  0
  3  4  1  1  0  0  0
  3  5  1  0  0  0  0
  5  6  1  6  0  0  0
  5  7  1  0  0  0  0
  7  8  1  1  0  0  0
  7  9  1  0  0  0  0
  9 10  1  6  0  0  0
  9 11  1  0  0  0  0
 11 12  1  1  0  0  0
 11 13  1  0  0  0  0
 14 15  1  6  0  0  0
 14 16  1  0  0  0  0
 14 22  1  0  0  0  0
 16 17  1  0  0  0  0
 17 18  1  1  0  0  0
 17 19  1  0  0  0  0
 19  2  1  1  0  0  0
 19 20  1  0  0  0  0
 20 21  1  6  0  0  0
 20 22  1  0  0  0  0
 22 23  1  6  0  0  0
 24 23  1  1  0  0  0
 24 25  1  0  0  0  0
 24 34  1  0  0  0  0
 25 26  1  1  0  0  0
 25 27  1  0  0  0  0
 27 28  1  6  0  0  0
 27 30  1  0  0  0  0
 28 29  1  0  0  0  0
 30 31  1  6  0  0  0
 30 32  1  0  0  0  0
 30 33  1  0  0  0  0
 33 34  1  0  0  0  0
M  CHG  4   4   1  15   1  18   1  28   1
M  END
>  <CHROM.1>
-162.92587682,-163.61265757,-174.84369540,-78.89655224,-61.46684615,27.03216042
-58.59210467,-51.81343235,168.29706420,-56.80678093,106.98393432,-148.11384623
106.35906327,32.77761180,58.22997742,-11.17293935,7.40587536,18.92914491
-0.17959839,0.80263126,-2.62219057

>  <Name>
1mwl

>  <RI>
0

>  <Rbt.Current_Directory>
/home/itssahil/PROJECTS/Mol_Feturizer/New_Systems/rnas/1mwl

>  <Rbt.Executable>
rbdock ($Id: //depot/dev/client3/rdock/2013.1/src/exe/rbdock.cxx#4 $)

>  <Rbt.Library>
libRbt.so (2013.1, Build901 2013/11/27)

>  <Rbt.Parameter_File>
/export/apps/rDock/src/rDock_2013.1_src/data/scripts/dock_solv.prm

>  <Rbt.Receptor>
prm/pocket_docking_2.prm

>  <SCORE>
-84.2004

>  <SCORE.INTER>
-68.8928

>  <SCORE.INTER.CONST>
1

>  <SCORE.INTER.POLAR>
-10.0431

>  <SCORE.INTER.ROT>
6

>  <SCORE.INTER.SOLV>
26.5356

>  <SCORE.INTER.VDW>
-28.8966

>  <SCORE.INTER.norm>
-2.02626

>  <SCORE.INTRA>
-15.3125

>  <SCORE.INTRA.DIHEDRAL>
-15.8857

>  <SCORE.INTRA.DIHEDRAL.0>
42.0816

>  <SCORE.INTRA.POLAR>
-1.11214

>  <SCORE.INTRA.POLAR.0>
-0.254682

>  <SCORE.INTRA.REPUL>
0

>  <SCORE.INTRA.REPUL.0>
0

>  <SCORE.INTRA.SOLV>
-0.37263

>  <SCORE.INTRA.SOLV.lig_0>
-109.803

>  <SCORE.INTRA.VDW>
-3.40198

>  <SCORE.INTRA.VDW.0>
0.32176

>  <SCORE.INTRA.norm>
-0.450366

>  <SCORE.RESTR>
0.00483834

>  <SCORE.RESTR.CAVITY>
0.00483834

>  <SCORE.RESTR.norm>
0.000142304

>  <SCORE.SYSTEM>
0

>  <SCORE.SYSTEM.CONST>
0

>  <SCORE.SYSTEM.DIHEDRAL>
0

>  <SCORE.SYSTEM.SOLV>
0

>  <SCORE.SYSTEM.norm>
0

>  <SCORE.heavy>
34

>  <SCORE.norm>
-2.47648

>  <RMSD>
0.391

$$$$
1mwl
 OpenBabel11021811403D
libRbt.so/2013.1/901 2013/11/27
 34 36  0  0  0  0  0  0  0  0999 V2000
   -9.0200    5.9019   20.2257 C   0  0  2  0  0  0  0  0  0  0  0  0
  -10.0516    6.6814   20.7518 O   0  0  0  0  0  0  0  0  0  0  0  0
   -9.0719    4.5201   20.9362 C   0  0  2  0  0  0  0  0  0  0  0  0
  -10.3768    3.8884   20.7178 N   0  3  0  0  0  0  0  0  0  0  0  0
   -8.7587    4.6712   22.4536 C   0  0  1  0  0  0  0  0  0  0  0  0
   -8.7771    3.4659   23.0757 O   0  0  0  0  0  0  0  0  0  0  0  0
   -7.3608    5.3562   22.6088 C   0  0  2  0  0  0  0  0  0  0  0  0
   -7.0330    5.5035   24.0063 O   0  0  0  0  0  0  0  0  0  0  0  0
   -7.4098    6.7458   21.8874 C   0  0  2  0  0  0  0  0  0  0  0  0
   -7.7544    6.5712   20.4590 O   0  0  0  0  0  0  0  0  0  0  0  0
   -6.0970    7.5361   21.9312 C   0  0  2  0  0  0  0  0  0  0  0  0
   -5.0282    6.6604   22.0871 O   0  0  0  0  0  0  0  0  0  0  0  0
   -6.0145    8.5302   23.1039 C   0  0  0  0  0  0  0  0  0  0  0  0
  -12.8807    9.5388   19.3059 C   0  0  2  0  0  0  0  0  0  0  0  0
  -13.4507   10.7383   18.6413 N   0  3  0  0  0  0  0  0  0  0  0  0
  -11.9528    9.9522   20.4866 C   0  0  0  0  0  0  0  0  0  0  0  0
  -11.3405    8.6769   21.1712 C   0  0  2  0  0  0  0  0  0  0  0  0
  -10.4555    9.1082   22.3147 N   0  3  0  0  0  0  0  0  0  0  0  0
  -10.5466    7.8468   20.1049 C   0  0  2  0  0  0  0  0  0  0  0  0
  -11.4967    7.4442   18.9506 C   0  0  2  0  0  0  0  0  0  0  0  0
  -10.7658    6.7293   17.9838 O   0  0  0  0  0  0  0  0  0  0  0  0
  -12.0801    8.7143   18.2755 C   0  0  1  0  0  0  0  0  0  0  0  0
  -12.9451    8.3219   17.2199 O   0  0  0  0  0  0  0  0  0  0  0  0
  -12.8260    8.9636   15.9803 C   0  0  2  0  0  0  0  0  0  0  0  0
  -14.2374    9.0549   15.3699 C   0  0  2  0  0  0  0  0  0  0  0  0
  -15.0587    9.8232   16.2231 O   0  0  0  0  0  0  0  0  0  0  0  0
  -14.8150    7.6090   15.1944 C   0  0  1  0  0  0  0  0  0  0  0  0
  -16.1895    7.6107   14.6370 N   0  3  0  0  0  0  0  0  0  0  0  0
  -17.1862    7.9221   15.6932 C   0  0  0  0  0  0  0  0  0  0  0  0
  -13.8614    6.7831   14.2641 C   0  0  2  0  0  0  0  0  0  0  0  0
  -13.7673    7.4154   12.9738 O   0  0  0  0  0  0  0  0  0  0  0  0
  -14.3417    5.4294   14.0542 C   0  0  0  0  0  0  0  0  0  0  0  0
  -12.4160    6.7754   14.8507 C   0  0  0  0  0  0  0  0  0  0  0  0
  -11.9429    8.1757   15.1035 O   0  0  0  0  0  0  0  0  0  0  0  0
  1  2  1  1  0  0  0
  1  3  1  0  0  0  0
  1 10  1  0  0  0  0
  3  4  1  1  0  0  0
  3  5  1  0  0  0  0
  5  6  1  6  0  0  0
  5  7  1  0  0  0  0
  7  8  1  1  0  0  0
  7  9  1  0  0  0  0
  9 10  1  6  0  0  0
  9 11  1  0  0  0  0
 11 12  1  1  0  0  0
 11 13  1  0  0  0  0
 14 15  1  6  0  0  0
 14 16  1  0  0  0  0
 14 22  1  0  0  0  0
 16 17  1  0  0  0  0
 17 18  1  1  0  0  0
 17 19  1  0  0  0  0
 19  2  1  1  0  0  0
 19 20  1  0  0  0  0
 20 21  1  6  0  0  0
 20 22  1  0  0  0  0
 22 23  1  6  0  0  0
 24 23  1  1  0  0  0
 24 25  1  0  0  0  0
 24 34  1  0  0  0  0
 25 26  1  1  0  0  0
 25 27  1  0  0  0  0
 27 28  1  6  0  0  0
 27 30  1  0  0  0  0
 28 29  1  0  0  0  0
 30 31  1  6  0  0  0
 30 32  1  0  0  0  0
 30 33  1  0  0  0  0
 33 34  1  0  0  0  0
M  CHG  4   4   1  15   1  18   1  28   1
M  END
>  <CHROM.1>
-162.08623245,-162.37975096,59.66802730,-74.51552538,178.15484934,25.08405466
173.66628501,176.60272351,-68.01861355,-57.52731487,106.31683780,-145.81144566
116.31195976,40.77936105,-56.26310710,-11.09396180,7.30903002,18.92169212
-0.18829052,0.80223884,-2.62896340

>  <Name>
1mwl

>  <RI>
0

>  <Rbt.Current_Directory>
/home/itssahil/PROJECTS/Mol_Feturizer/New_Systems/rnas/1mwl

>  <Rbt.Executable>
rbdock ($Id: //depot/dev/client3/rdock/2013.1/src/exe/rbdock.cxx#4 $)

>  <Rbt.Library>
libRbt.so (2013.1, Build901 2013/11/27)

>  <Rbt.Parameter_File>
/export/apps/rDock/src/rDock_2013.1_src/data/scripts/dock_solv.prm

>  <Rbt.Receptor>
prm/pocket_docking_3.prm

>  <SCORE>
-80.8631

>  <SCORE.INTER>
-66.1216

>  <SCORE.INTER.CONST>
1

>  <SCORE.INTER.POLAR>
-9.30401

>  <SCORE.INTER.ROT>
6

>  <SCORE.INTER.SOLV>
25.7803

>  <SCORE.INTER.VDW>
-29.2611

>  <SCORE.INTER.norm>
-1.94475

>  <SCORE.INTRA>
-14.7415

>  <SCORE.INTRA.DIHEDRAL>
-15.5703

>  <SCORE.INTRA.DIHEDRAL.0>
42.0816

>  <SCORE.INTRA.POLAR>
-0.997251

>  <SCORE.INTRA.POLAR.0>
-0.254682

>  <SCORE.INTRA.REPUL>
0

>  <SCORE.INTRA.REPUL.0>
0

>  <SCORE.INTRA.SOLV>
0.466409

>  <SCORE.INTRA.SOLV.lig_0>
-109.803

>  <SCORE.INTRA.VDW>
-3.79889

>  <SCORE.INTRA.VDW.0>
0.32176

>  <SCORE.INTRA.norm>
-0.433574

>  <SCORE.RESTR>
0

>  <SCORE.RESTR.CAVITY>
0

>  <SCORE.RESTR.norm>
0

>  <SCORE.SYSTEM>
0

>  <SCORE.SYSTEM.CONST>
0

>  <SCORE.SYSTEM.DIHEDRAL>
0

>  <SCORE.SYSTEM.SOLV>
0

>  <SCORE.SYSTEM.norm>
0

>  <SCORE.heavy>
34

>  <SCORE.norm>
-2.37833

>  <RMSD>
0.395

$$$$
1mwl
 OpenBabel11021811403D
libRbt.so/2013.1/901 2013/11/27
 34 36  0  0  0  0  0  0  0  0999 V2000
   -8.8799    6.3780   20.1674 C   0  0  2  0  0  0  0  0  0  0  0  0
   -9.9749    7.0782   20.6765 O   0  0  0  0  0  0  0  0  0  0  0  0
   -9.1663    4.8621   20.3601 C   0  0  2  0  0  0  0  0  0  0  0  0
  -10.4025    4.4892   19.6656 N   0  3  0  0  0  0  0  0  0  0  0  0
   -9.2328    4.5044   21.8737 C   0  0  1  0  0  0  0  0  0  0  0  0
   -9.4571    3.1782   22.0500 O   0  0  0  0  0  0  0  0  0  0  0  0
   -7.8886    4.9358   22.5479 C   0  0  2  0  0  0  0  0  0  0  0  0
   -7.9114    4.6093   23.9533 O   0  0  0  0  0  0  0  0  0  0  0  0
   -7.6969    6.4745   22.3254 C   0  0  2  0  0  0  0  0  0  0  0  0
   -7.6839    6.7866   20.8791 O   0  0  0  0  0  0  0  0  0  0  0  0
   -6.4029    7.0495   22.9125 C   0  0  2  0  0  0  0  0  0  0  0  0
   -6.6226    8.3535   23.3424 O   0  0  0  0  0  0  0  0  0  0  0  0
   -5.2441    7.1184   21.9012 C   0  0  0  0  0  0  0  0  0  0  0  0
  -12.9970    9.6891   19.1567 C   0  0  2  0  0  0  0  0  0  0  0  0
  -13.6489   10.8377   18.4776 N   0  3  0  0  0  0  0  0  0  0  0  0
  -12.1395   10.1764   20.3621 C   0  0  0  0  0  0  0  0  0  0  0  0
  -11.4395    8.9558   21.0622 C   0  0  2  0  0  0  0  0  0  0  0  0
  -10.6253    9.4574   22.2293 N   0  3  0  0  0  0  0  0  0  0  0  0
  -10.5498    8.1991   20.0171 C   0  0  2  0  0  0  0  0  0  0  0  0
  -11.4309    7.7206   18.8374 C   0  0  2  0  0  0  0  0  0  0  0  0
  -10.6163    7.0732   17.8902 O   0  0  0  0  0  0  0  0  0  0  0  0
  -12.1019    8.9385   18.1477 C   0  0  1  0  0  0  0  0  0  0  0  0
  -12.9019    8.4771   17.0690 O   0  0  0  0  0  0  0  0  0  0  0  0
  -12.8278    9.1495   15.8422 C   0  0  2  0  0  0  0  0  0  0  0  0
  -14.2582    9.2395   15.2776 C   0  0  2  0  0  0  0  0  0  0  0  0
  -15.0608    9.9778   16.1739 O   0  0  0  0  0  0  0  0  0  0  0  0
  -14.8257    7.7918   15.0848 C   0  0  1  0  0  0  0  0  0  0  0  0
  -16.2167    7.7914   14.5698 N   0  3  0  0  0  0  0  0  0  0  0  0
  -17.1928    7.7501   15.6885 C   0  0  0  0  0  0  0  0  0  0  0  0
  -13.8925    6.9992   14.1060 C   0  0  2  0  0  0  0  0  0  0  0  0
  -13.8449    7.6632   12.8292 O   0  0  0  0  0  0  0  0  0  0  0  0
  -14.3649    5.6456   13.8781 C   0  0  0  0  0  0  0  0  0  0  0  0
  -12.4298    6.9937   14.6478 C   0  0  0  0  0  0  0  0  0  0  0  0
  -11.9638    8.3929   14.9200 O   0  0  0  0  0  0  0  0  0  0  0  0
  1  2  1  1  0  0  0
  1  3  1  0  0  0  0
  1 10  1  0  0  0  0
  3  4  1  1  0  0  0
  3  5  1  0  0  0  0
  5  6  1  6  0  0  0
  5  7  1  0  0  0  0
  7  8  1  1  0  0  0
  7  9  1  0  0  0  0
  9 10  1  6  0  0  0
  9 11  1  0  0  0  0
 11 12  1  6  0  0  0
 11 13  1  0  0  0  0
 14 15  1  6  0  0  0
 14 16  1  0  0  0  0
 14 22  1  0  0  0  0
 16 17  1  0  0  0  0
 17 18  1  1  0  0  0
 17 19  1  0  0  0  0
 19  2  1  1  0  0  0
 19 20  1  0  0  0  0
 20 21  1  6  0  0  0
 20 22  1  0  0  0  0
 22 23  1  6  0  0  0
 24 23  1  1  0  0  0
 24 25  1  0  0  0  0
 24 34  1  0  0  0  0
 25 26  1  1  0  0  0
 25 27  1  0  0  0  0
 27 28  1  6  0  0  0
 27 30  1  0  0  0  0
 28 29  1  0  0  0  0
 30 31  1  6  0  0  0
 30 32  1  0  0  0  0
 30 33  1  0  0  0  0
 33 34  1  0  0  0  0
M  CHG  4   4   1  15   1  18   1  28   1
M  END
>  <CHROM.1>
-137.34074523,-163.40322419,27.07321716,-53.00538132,-79.58374892,-146.96611394
65.68714633,56.00040191,-83.03265554,-63.00534301,104.84877823,-139.72907861
108.76877602,27.66393073,179.21618817,-11.24022477,7.43477706,18.79715671
-0.19485078,0.83538583,-2.61424950

>  <Name>
1mwl

>  <RI>
0

>  <Rbt.Current_Directory>
/home/itssahil/PROJECTS/Mol_Feturizer/New_Systems/rnas/1mwl

>  <Rbt.Executable>
rbdock ($Id: //depot/dev/client3/rdock/2013.1/src/exe/rbdock.cxx#4 $)

>  <Rbt.Library>
libRbt.so (2013.1, Build901 2013/11/27)

>  <Rbt.Parameter_File>
/export/apps/rDock/src/rDock_2013.1_src/data/scripts/dock_solv.prm

>  <Rbt.Receptor>
prm/pocket_docking_5.prm

>  <SCORE>
-86.4693

>  <SCORE.INTER>
-75.4963

>  <SCORE.INTER.CONST>
1

>  <SCORE.INTER.POLAR>
-10.958

>  <SCORE.INTER.ROT>
6

>  <SCORE.INTER.SOLV>
25.673

>  <SCORE.INTER.VDW>
-29.962

>  <SCORE.INTER.norm>
-2.22048

>  <SCORE.INTRA>
-11.1024

>  <SCORE.INTRA.DIHEDRAL>
-6.16384

>  <SCORE.INTRA.DIHEDRAL.0>
42.0816

>  <SCORE.INTRA.POLAR>
-1.97802

>  <SCORE.INTRA.POLAR.0>
-0.254682

>  <SCORE.INTRA.REPUL>
0

>  <SCORE.INTRA.REPUL.0>
0

>  <SCORE.INTRA.SOLV>
0.86297

>  <SCORE.INTRA.SOLV.lig_0>
-109.803

>  <SCORE.INTRA.VDW>
-1.72665

>  <SCORE.INTRA.VDW.0>
0.32176

>  <SCORE.INTRA.norm>
-0.32654

>  <SCORE.RESTR>
0.129315

>  <SCORE.RESTR.CAVITY>
0.129315

>  <SCORE.RESTR.norm>
0.0038034

>  <SCORE.SYSTEM>
0

>  <SCORE.SYSTEM.CONST>
0

>  <SCORE.SYSTEM.DIHEDRAL>
0

>  <SCORE.SYSTEM.SOLV>
0

>  <SCORE.SYSTEM.norm>
0

>  <SCORE.heavy>
34

>  <SCORE.norm>
-2.54322

>  <RMSD>
0.396

$$$$
1mwl
 OpenBabel11021811403D
libRbt.so/2013.1/901 2013/11/27
 34 36  0  0  0  0  0  0  0  0999 V2000
   -9.0847    6.0665   20.1971 C   0  0  2  0  0  0  0  0  0  0  0  0
  -10.1249    6.8367   20.7201 O   0  0  0  0  0  0  0  0  0  0  0  0
   -9.1842    4.6535   20.8378 C   0  0  2  0  0  0  0  0  0  0  0  0
  -10.4885    4.0541   20.5395 N   0  3  0  0  0  0  0  0  0  0  0  0
   -8.9284    4.7274   22.3717 C   0  0  1  0  0  0  0  0  0  0  0  0
   -8.9883    3.4943   22.9340 O   0  0  0  0  0  0  0  0  0  0  0  0
   -7.5279    5.3815   22.6130 C   0  0  2  0  0  0  0  0  0  0  0  0
   -7.2529    5.4570   24.0276 O   0  0  0  0  0  0  0  0  0  0  0  0
   -7.5288    6.8044   21.9579 C   0  0  2  0  0  0  0  0  0  0  0  0
   -7.8198    6.7033   20.5107 O   0  0  0  0  0  0  0  0  0  0  0  0
   -6.2075    7.5703   22.0899 C   0  0  2  0  0  0  0  0  0  0  0  0
   -5.1629    6.7886   21.6092 O   0  0  0  0  0  0  0  0  0  0  0  0
   -5.8448    7.9284   23.5427 C   0  0  0  0  0  0  0  0  0  0  0  0
  -12.9869    9.6403   19.2343 C   0  0  2  0  0  0  0  0  0  0  0  0
  -13.5700   10.8302   18.5639 N   0  3  0  0  0  0  0  0  0  0  0  0
  -12.0888   10.0683   20.4327 C   0  0  0  0  0  0  0  0  0  0  0  0
  -11.4622    8.8033   21.1236 C   0  0  2  0  0  0  0  0  0  0  0  0
  -10.6067    9.2485   22.2840 N   0  3  0  0  0  0  0  0  0  0  0  0
  -10.6326    7.9940   20.0686 C   0  0  2  0  0  0  0  0  0  0  0  0
  -11.5536    7.5762   18.8963 C   0  0  2  0  0  0  0  0  0  0  0  0
  -10.7910    6.8803   17.9401 O   0  0  0  0  0  0  0  0  0  0  0  0
  -12.1513    8.8365   18.2154 C   0  0  1  0  0  0  0  0  0  0  0  0
  -12.9892    8.4303   17.1433 O   0  0  0  0  0  0  0  0  0  0  0  0
  -12.8821    9.0986   15.9167 C   0  0  2  0  0  0  0  0  0  0  0  0
  -14.2992    9.2018   15.3216 C   0  0  2  0  0  0  0  0  0  0  0  0
  -15.1129    9.9508   16.1987 O   0  0  0  0  0  0  0  0  0  0  0  0
  -14.8774    7.7595   15.1203 C   0  0  1  0  0  0  0  0  0  0  0  0
  -16.2570    7.7720   14.5758 N   0  3  0  0  0  0  0  0  0  0  0  0
  -17.2571    7.7585   15.6738 C   0  0  0  0  0  0  0  0  0  0  0  0
  -13.9319    6.9546   14.1637 C   0  0  2  0  0  0  0  0  0  0  0  0
  -13.8502    7.6146   12.8865 O   0  0  0  0  0  0  0  0  0  0  0  0
  -14.4133    5.6054   13.9291 C   0  0  0  0  0  0  0  0  0  0  0  0
  -12.4812    6.9355   14.7365 C   0  0  0  0  0  0  0  0  0  0  0  0
  -12.0066    8.3305   15.0150 O   0  0  0  0  0  0  0  0  0  0  0  0
  1  2  1  1  0  0  0
  1  3  1  0  0  0  0
  1 10  1  0  0  0  0
  3  4  1  1  0  0  0
  3  5  1  0  0  0  0
  5  6  1  6  0  0  0
  5  7  1  0  0  0  0
  7  8  1  1  0  0  0
  7  9  1  0  0  0  0
  9 10  1  6  0  0  0
  9 11  1  0  0  0  0
 11 12  1  1  0  0  0
 11 13  1  0  0  0  0
 14 15  1  6  0  0  0
 14 16  1  0  0  0  0
 14 22  1  0  0  0  0
 16 17  1  0  0  0  0
 17 18  1  1  0  0  0
 17 19  1  0  0  0  0
 19  2  1  1  0  0  0
 19 20  1  0  0  0  0
 20 21  1  6  0  0  0
 20 22  1  0  0  0  0
 22 23  1  6  0  0  0
 24 23  1  1  0  0  0
 24 25  1  0  0  0  0
 24 34  1  0  0  0  0
 25 26  1  1  0  0  0
 25 27  1  0  0  0  0
 27 28  1  6  0  0  0
 27 30  1  0  0  0  0
 28 29  1  0  0  0  0
 30 31  1  6  0  0  0
 30 32  1  0  0  0  0
 30 33  1  0  0  0  0
 33 34  1  0  0  0  0
M  CHG  4   4   1  15   1  18   1  28   1
M  END
>  <CHROM.1>
-158.09091095,-163.61757048,80.82985981,58.05533557,-56.54082015,53.65186477
66.34987959,179.32226173,-75.42563679,-57.26086576,104.94293720,-143.33705945
102.34356530,28.26338900,178.70863542,-11.18231632,7.39711639,18.86770525
-0.23101224,0.80402880,-2.56083307

>  <Name>
1mwl

>  <RI>
0

>  <Rbt.Current_Directory>
/home/itssahil/PROJECTS/Mol_Feturizer/New_Systems/rnas/1mwl

>  <Rbt.Executable>
rbdock ($Id: //depot/dev/client3/rdock/2013.1/src/exe/rbdock.cxx#4 $)

>  <Rbt.Library>
libRbt.so (2013.1, Build901 2013/11/27)

>  <Rbt.Parameter_File>
/export/apps/rDock/src/rDock_2013.1_src/data/scripts/dock_solv.prm

>  <Rbt.Receptor>
prm/pocket_docking_5.prm

>  <SCORE>
-87.1902

>  <SCORE.INTER>
-72.2713

>  <SCORE.INTER.CONST>
1

>  <SCORE.INTER.POLAR>
-10.4609

>  <SCORE.INTER.ROT>
6

>  <SCORE.INTER.SOLV>
26.9006

>  <SCORE.INTER.VDW>
-29.8781

>  <SCORE.INTER.norm>
-2.12563

>  <SCORE.INTRA>
-15.1029

>  <SCORE.INTRA.DIHEDRAL>
-17.9727

>  <SCORE.INTRA.DIHEDRAL.0>
42.0816

>  <SCORE.INTRA.POLAR>
-0.818372

>  <SCORE.INTRA.POLAR.0>
-0.254682

>  <SCORE.INTRA.REPUL>
0

>  <SCORE.INTRA.REPUL.0>
0

>  <SCORE.INTRA.SOLV>
-0.339874

>  <SCORE.INTRA.SOLV.lig_0>
-109.803

>  <SCORE.INTRA.VDW>
-3.16416

>  <SCORE.INTRA.VDW.0>
0.32176

>  <SCORE.INTRA.norm>
-0.444203

>  <SCORE.RESTR>
0.184013

>  <SCORE.RESTR.CAVITY>
0.184013

>  <SCORE.RESTR.norm>
0.00541215

>  <SCORE.SYSTEM>
0

>  <SCORE.SYSTEM.CONST>
0

>  <SCORE.SYSTEM.DIHEDRAL>
0

>  <SCORE.SYSTEM.SOLV>
0

>  <SCORE.SYSTEM.norm>
0

>  <SCORE.heavy>
34

>  <SCORE.norm>
-2.56442

>  <RMSD>
0.401

$$$$
1mwl
 OpenBabel11021811403D
libRbt.so/2013.1/901 2013/11/27
 34 36  0  0  0  0  0  0  0  0999 V2000
   -9.1146    6.0942   20.2225 C   0  0  2  0  0  0  0  0  0  0  0  0
  -10.1333    6.8818   20.7617 O   0  0  0  0  0  0  0  0  0  0  0  0
   -9.2156    4.6889   20.8795 C   0  0  2  0  0  0  0  0  0  0  0  0
  -10.5334    4.1021   20.6176 N   0  3  0  0  0  0  0  0  0  0  0  0
   -8.9233    4.7747   22.4062 C   0  0  1  0  0  0  0  0  0  0  0  0
   -8.9844    3.5480   22.9821 O   0  0  0  0  0  0  0  0  0  0  0  0
   -7.5100    5.4145   22.6084 C   0  0  2  0  0  0  0  0  0  0  0  0
   -7.2013    5.5006   24.0154 O   0  0  0  0  0  0  0  0  0  0  0  0
   -7.5096    6.8308   21.9392 C   0  0  2  0  0  0  0  0  0  0  0  0
   -7.8354    6.7191   20.5002 O   0  0  0  0  0  0  0  0  0  0  0  0
   -6.1768    7.5823   22.0328 C   0  0  2  0  0  0  0  0  0  0  0  0
   -5.1517    6.7804   21.5434 O   0  0  0  0  0  0  0  0  0  0  0  0
   -5.7804    7.9578   23.4724 C   0  0  0  0  0  0  0  0  0  0  0  0
  -12.9847    9.7076   19.2976 C   0  0  2  0  0  0  0  0  0  0  0  0
  -13.5636   10.9022   18.6318 N   0  3  0  0  0  0  0  0  0  0  0  0
  -12.0749   10.1282   20.4897 C   0  0  0  0  0  0  0  0  0  0  0  0
  -11.4529    8.8583   21.1756 C   0  0  2  0  0  0  0  0  0  0  0  0
  -10.5859    9.2964   22.3301 N   0  3  0  0  0  0  0  0  0  0  0  0
  -10.6369    8.0433   20.1143 C   0  0  2  0  0  0  0  0  0  0  0  0
  -11.5693    7.6330   18.9483 C   0  0  2  0  0  0  0  0  0  0  0  0
  -10.8187    6.9320   17.9864 O   0  0  0  0  0  0  0  0  0  0  0  0
  -12.1623    8.8981   18.2723 C   0  0  1  0  0  0  0  0  0  0  0  0
  -13.0109    8.4988   17.2060 O   0  0  0  0  0  0  0  0  0  0  0  0
  -12.8917    9.1516   15.9722 C   0  0  2  0  0  0  0  0  0  0  0  0
  -14.3028    9.2467   15.3617 C   0  0  2  0  0  0  0  0  0  0  0  0
  -15.1255   10.0064   16.2212 O   0  0  0  0  0  0  0  0  0  0  0  0
  -14.8786    7.8018   15.1730 C   0  0  1  0  0  0  0  0  0  0  0  0
  -16.2527    7.8069   14.6146 N   0  3  0  0  0  0  0  0  0  0  0  0
  -17.2625    7.7014   15.6987 C   0  0  0  0  0  0  0  0  0  0  0  0
  -13.9234    6.9853   14.2360 C   0  0  2  0  0  0  0  0  0  0  0  0
  -13.8292    7.6292   12.9515 O   0  0  0  0  0  0  0  0  0  0  0  0
  -14.4020    5.6330   14.0136 C   0  0  0  0  0  0  0  0  0  0  0  0
  -12.4784    6.9740   14.8234 C   0  0  0  0  0  0  0  0  0  0  0  0
  -12.0070    8.3726   15.0890 O   0  0  0  0  0  0  0  0  0  0  0  0
  1  2  1  1  0  0  0
  1  3  1  0  0  0  0
  1 10  1  0  0  0  0
  3  4  1  1  0  0  0
  3  5  1  0  0  0  0
  5  6  1  6  0  0  0
  5  7  1  0  0  0  0
  7  8  1  1  0  0  0
  7  9  1  0  0  0  0
  9 10  1  6  0  0  0
  9 11  1  0  0  0  0
 11 12  1  1  0  0  0
 11 13  1  0  0  0  0
 14 15  1  6  0  0  0
 14 16  1  0  0  0  0
 14 22  1  0  0  0  0
 16 17  1  0  0  0  0
 17 18  1  1  0  0  0
 17 19  1  0  0  0  0
 19  2  1  1  0  0  0
 19 20  1  0  0  0  0
 20 21  1  6  0  0  0
 20 22  1  0  0  0  0
 22 23  1  6  0  0  0
 24 23  1  1  0  0  0
 24 25  1  0  0  0  0
 24 34  1  0  0  0  0
 25 26  1  1  0  0  0
 25 27  1  0  0  0  0
 27 28  1  6  0  0  0
 27 30  1  0  0  0  0
 28 29  1  0  0  0  0
 30 31  1  6  0  0  0
 30 32  1  0  0  0  0
 30 33  1  0  0  0  0
 33 34  1  0  0  0  0
M  CHG  4   4   1  15   1  18   1  28   1
M  END
>  <CHROM.1>
-158.48457230,-164.48245542,173.13895151,64.94006488,-54.37476675,53.29790364
66.10321845,-57.34424563,48.36663931,173.70831911,106.01318831,-144.76625898
108.60781791,23.91302750,53.49614861,-11.18410468,7.43712933,18.90353823
-0.21556936,0.80168485,-2.57609866

>  <Name>
1mwl

>  <RI>
0

>  <Rbt.Current_Directory>
/home/itssahil/PROJECTS/Mol_Feturizer/New_Systems/rnas/1mwl

>  <Rbt.Executable>
rbdock ($Id: //depot/dev/client3/rdock/2013.1/src/exe/rbdock.cxx#4 $)

>  <Rbt.Library>
libRbt.so (2013.1, Build901 2013/11/27)

>  <Rbt.Parameter_File>
/export/apps/rDock/src/rDock_2013.1_src/data/scripts/dock_solv.prm

>  <Rbt.Receptor>
prm/pocket_docking_5.prm

>  <SCORE>
-83.5799

>  <SCORE.INTER>
-67.6407

>  <SCORE.INTER.CONST>
1

>  <SCORE.INTER.POLAR>
-9.53353

>  <SCORE.INTER.ROT>
6

>  <SCORE.INTER.SOLV>
26.9426

>  <SCORE.INTER.VDW>
-29.8962

>  <SCORE.INTER.norm>
-1.98943

>  <SCORE.INTRA>
-16.1693

>  <SCORE.INTRA.DIHEDRAL>
-17.6313

>  <SCORE.INTRA.DIHEDRAL.0>
42.0816

>  <SCORE.INTRA.POLAR>
-0.911985

>  <SCORE.INTRA.POLAR.0>
-0.254682

>  <SCORE.INTRA.REPUL>
0

>  <SCORE.INTRA.REPUL.0>
0

>  <SCORE.INTRA.SOLV>
-0.461456

>  <SCORE.INTRA.SOLV.lig_0>
-109.803

>  <SCORE.INTRA.VDW>
-4.0222

>  <SCORE.INTRA.VDW.0>
0.32176

>  <SCORE.INTRA.norm>
-0.475568

>  <SCORE.RESTR>
0.230104

>  <SCORE.RESTR.CAVITY>
0.230104

>  <SCORE.RESTR.norm>
0.00676777

>  <SCORE.SYSTEM>
0

>  <SCORE.SYSTEM.CONST>
0

>  <SCORE.SYSTEM.DIHEDRAL>
0

>  <SCORE.SYSTEM.SOLV>
0

>  <SCORE.SYSTEM.norm>
0

>  <SCORE.heavy>
34

>  <SCORE.norm>
-2.45823

>  <RMSD>
0.412

$$$$
1mwl
 OpenBabel11021811403D
libRbt.so/2013.1/901 2013/11/27
 34 36  0  0  0  0  0  0  0  0999 V2000
   -8.9098    6.1739   20.0924 C   0  0  2  0  0  0  0  0  0  0  0  0
  -10.0496    6.8194   20.5747 O   0  0  0  0  0  0  0  0  0  0  0  0
   -9.0239    4.6736   20.4835 C   0  0  2  0  0  0  0  0  0  0  0  0
  -10.2428    4.0936   19.9114 N   0  3  0  0  0  0  0  0  0  0  0  0
   -8.9847    4.5055   22.0307 C   0  0  1  0  0  0  0  0  0  0  0  0
   -9.0581    3.1965   22.3790 O   0  0  0  0  0  0  0  0  0  0  0  0
   -7.6657    5.1514   22.5696 C   0  0  2  0  0  0  0  0  0  0  0  0
   -7.5912    5.0047   24.0032 O   0  0  0  0  0  0  0  0  0  0  0  0
   -7.6493    6.6610   22.1515 C   0  0  2  0  0  0  0  0  0  0  0  0
   -7.7338    6.7873   20.6797 O   0  0  0  0  0  0  0  0  0  0  0  0
   -6.3994    7.4327   22.5896 C   0  0  2  0  0  0  0  0  0  0  0  0
   -6.5881    8.7928   22.3709 O   0  0  0  0  0  0  0  0  0  0  0  0
   -5.1296    7.0429   21.8110 C   0  0  0  0  0  0  0  0  0  0  0  0
  -12.9490    9.6812   19.2849 C   0  0  2  0  0  0  0  0  0  0  0  0
  -13.5490   10.8986   18.6822 N   0  3  0  0  0  0  0  0  0  0  0  0
  -12.0217   10.0575   20.4785 C   0  0  0  0  0  0  0  0  0  0  0  0
  -11.3776    8.7643   21.0973 C   0  0  2  0  0  0  0  0  0  0  0  0
  -10.4939    9.1593   22.2548 N   0  3  0  0  0  0  0  0  0  0  0  0
  -10.5739    8.0035   19.9876 C   0  0  2  0  0  0  0  0  0  0  0  0
  -11.5233    7.6363   18.8210 C   0  0  2  0  0  0  0  0  0  0  0  0
  -10.7842    6.9845   17.8165 O   0  0  0  0  0  0  0  0  0  0  0  0
  -12.1383    8.9245   18.2113 C   0  0  1  0  0  0  0  0  0  0  0  0
  -13.0022    8.5645   17.1433 O   0  0  0  0  0  0  0  0  0  0  0  0
  -13.0631    9.3977   16.0187 C   0  0  2  0  0  0  0  0  0  0  0  0
  -14.5158    9.3772   15.5067 C   0  0  2  0  0  0  0  0  0  0  0  0
  -15.3659    9.8808   16.5148 O   0  0  0  0  0  0  0  0  0  0  0  0
  -14.9068    7.9071   15.1314 C   0  0  1  0  0  0  0  0  0  0  0  0
  -16.3072    7.7962   14.6551 N   0  3  0  0  0  0  0  0  0  0  0  0
  -17.2476    7.7018   15.8009 C   0  0  0  0  0  0  0  0  0  0  0  0
  -13.9239    7.3779   14.0309 C   0  0  2  0  0  0  0  0  0  0  0  0
  -14.0121    8.2061   12.8563 O   0  0  0  0  0  0  0  0  0  0  0  0
  -14.2338    6.0172   13.6314 C   0  0  0  0  0  0  0  0  0  0  0  0
  -12.4506    7.4887   14.5311 C   0  0  0  0  0  0  0  0  0  0  0  0
  -12.1509    8.8875   14.9808 O   0  0  0  0  0  0  0  0  0  0  0  0
  1  2  1  1  0  0  0
  1  3  1  0  0  0  0
  1 10  1  0  0  0  0
  3  4  1  1  0  0  0
  3  5  1  0  0  0  0
  5  6  1  6  0  0  0
  5  7  1  0  0  0  0
  7  8  1  1  0  0  0
  7  9  1  0  0  0  0
  9 10  1  6  0  0  0
  9 11  1  0  0  0  0
 11 12  1  6  0  0  0
 11 13  1  0  0  0  0
 14 15  1  6  0  0  0
 14 16  1  0  0  0  0
 14 22  1  0  0  0  0
 16 17  1  0  0  0  0
 17 18  1  1  0  0  0
 17 19  1  0  0  0  0
 19  2  1  1  0  0  0
 19 20  1  0  0  0  0
 20 21  1  6  0  0  0
 20 22  1  0  0  0  0
 22 23  1  6  0  0  0
 24 23  1  1  0  0  0
 24 25  1  0  0  0  0
 24 34  1  0  0  0  0
 25 26  1  1  0  0  0
 25 27  1  0  0  0  0
 27 28  1  6  0  0  0
 27 30  1  0  0  0  0
 28 29  1  0  0  0  0
 30 31  1  6  0  0  0
 30 32  1  0  0  0  0
 30 33  1  0  0  0  0
 33 34  1  0  0  0  0
M  CHG  4   4   1  15   1  18   1  28   1
M  END
>  <CHROM.1>
-153.66309206,-154.80249085,-169.96236963,-164.17636196,-72.24912894,-169.99730246
-72.72753095,65.01753935,46.40450360,-60.70707821,96.00910656,-144.70607056
-70.34138810,36.84163501,57.31978339,-11.22892293,7.50232270,18.80539843
-0.13481204,0.82248771,-2.65643181

>  <Name>
1mwl

>  <RI>
0

>  <Rbt.Current_Directory>
/home/itssahil/PROJECTS/Mol_Feturizer/New_Systems/rnas/1mwl

>  <Rbt.Executable>
rbdock ($Id: //depot/dev/client3/rdock/2013.1/src/exe/rbdock.cxx#4 $)

>  <Rbt.Library>
libRbt.so (2013.1, Build901 2013/11/27)

>  <Rbt.Parameter_File>
/export/apps/rDock/src/rDock_2013.1_src/data/scripts/dock_solv.prm

>  <Rbt.Receptor>
prm/pocket_docking_2.prm

>  <SCORE>
-85.676

>  <SCORE.INTER>
-71.6829

>  <SCORE.INTER.CONST>
1

>  <SCORE.INTER.POLAR>
-9.65809

>  <SCORE.INTER.ROT>
6

>  <SCORE.INTER.SOLV>
26.1099

>  <SCORE.INTER.VDW>
-31.8983

>  <SCORE.INTER.norm>
-2.10832

>  <SCORE.INTRA>
-13.993

>  <SCORE.INTRA.DIHEDRAL>
-21.6219

>  <SCORE.INTRA.DIHEDRAL.0>
42.0816

>  <SCORE.INTRA.POLAR>
-0.243684

>  <SCORE.INTRA.POLAR.0>
-0.254682

>  <SCORE.INTRA.REPUL>
0

>  <SCORE.INTRA.REPUL.0>
0

>  <SCORE.INTRA.SOLV>
0.384968

>  <SCORE.INTRA.SOLV.lig_0>
-109.803

>  <SCORE.INTRA.VDW>
-2.54604

>  <SCORE.INTRA.VDW.0>
0.32176

>  <SCORE.INTRA.norm>
-0.41156

>  <SCORE.RESTR>
0

>  <SCORE.RESTR.CAVITY>
0

>  <SCORE.RESTR.norm>
0

>  <SCORE.SYSTEM>
0

>  <SCORE.SYSTEM.CONST>
0

>  <SCORE.SYSTEM.DIHEDRAL>
0

>  <SCORE.SYSTEM.SOLV>
0

>  <SCORE.SYSTEM.norm>
0

>  <SCORE.heavy>
34

>  <SCORE.norm>
-2.51988

>  <RMSD>
0.415

$$$$
1mwl
 OpenBabel11021811403D
libRbt.so/2013.1/901 2013/11/27
 34 36  0  0  0  0  0  0  0  0999 V2000
   -9.0826    6.1256   20.2525 C   0  0  2  0  0  0  0  0  0  0  0  0
  -10.0969    6.9104   20.8037 O   0  0  0  0  0  0  0  0  0  0  0  0
   -9.1892    4.7119   20.8904 C   0  0  2  0  0  0  0  0  0  0  0  0
  -10.5100    4.1348   20.6221 N   0  3  0  0  0  0  0  0  0  0  0  0
   -8.8947    4.7756   22.4178 C   0  0  1  0  0  0  0  0  0  0  0  0
   -8.9607    3.5414   22.9770 O   0  0  0  0  0  0  0  0  0  0  0  0
   -7.4782    5.4060   22.6269 C   0  0  2  0  0  0  0  0  0  0  0  0
   -7.1674    5.4715   24.0345 O   0  0  0  0  0  0  0  0  0  0  0  0
   -7.4721    6.8313   21.9771 C   0  0  2  0  0  0  0  0  0  0  0  0
   -7.8001    6.7408   20.5371 O   0  0  0  0  0  0  0  0  0  0  0  0
   -6.1357    7.5753   22.0793 C   0  0  2  0  0  0  0  0  0  0  0  0
   -5.1214    6.7924   21.5395 O   0  0  0  0  0  0  0  0  0  0  0  0
   -5.7141    7.8897   23.5263 C   0  0  0  0  0  0  0  0  0  0  0  0
  -12.9909    9.6912   19.3369 C   0  0  2  0  0  0  0  0  0  0  0  0
  -13.5877   10.8778   18.6725 N   0  3  0  0  0  0  0  0  0  0  0  0
  -12.0932   10.1237   20.5339 C   0  0  0  0  0  0  0  0  0  0  0  0
  -11.4521    8.8625   21.2184 C   0  0  2  0  0  0  0  0  0  0  0  0
  -10.5973    9.3119   22.3777 N   0  3  0  0  0  0  0  0  0  0  0  0
  -10.6180    8.0651   20.1579 C   0  0  2  0  0  0  0  0  0  0  0  0
  -11.5385    7.6424   18.9869 C   0  0  2  0  0  0  0  0  0  0  0  0
  -10.7722    6.9574   18.0259 O   0  0  0  0  0  0  0  0  0  0  0  0
  -12.1507    8.8993   18.3124 C   0  0  1  0  0  0  0  0  0  0  0  0
  -12.9880    8.4887   17.2416 O   0  0  0  0  0  0  0  0  0  0  0  0
  -12.8725    9.1447   16.0091 C   0  0  2  0  0  0  0  0  0  0  0  0
  -14.2828    9.2250   15.3946 C   0  0  2  0  0  0  0  0  0  0  0  0
  -15.1165    9.9741   16.2528 O   0  0  0  0  0  0  0  0  0  0  0  0
  -14.8418    7.7741   15.2019 C   0  0  1  0  0  0  0  0  0  0  0  0
  -16.2143    7.7646   14.6395 N   0  3  0  0  0  0  0  0  0  0  0  0
  -17.2175    8.0654   15.6927 C   0  0  0  0  0  0  0  0  0  0  0  0
  -13.8748    6.9698   14.2665 C   0  0  2  0  0  0  0  0  0  0  0  0
  -13.7840    7.6167   12.9833 O   0  0  0  0  0  0  0  0  0  0  0  0
  -14.3376    5.6125   14.0407 C   0  0  0  0  0  0  0  0  0  0  0  0
  -12.4315    6.9737   14.8582 C   0  0  0  0  0  0  0  0  0  0  0  0
  -11.9766    8.3771   15.1273 O   0  0  0  0  0  0  0  0  0  0  0  0
  1  2  1  1  0  0  0
  1  3  1  0  0  0  0
  1 10  1  0  0  0  0
  3  4  1  1  0  0  0
  3  5  1  0  0  0  0
  5  6  1  6  0  0  0
  5  7  1  0  0  0  0
  7  8  1  1  0  0  0
  7  9  1  0  0  0  0
  9 10  1  6  0  0  0
  9 11  1  0  0  0  0
 11 12  1  1  0  0  0
 11 13  1  0  0  0  0
 14 15  1  6  0  0  0
 14 16  1  0  0  0  0
 14 22  1  0  0  0  0
 16 17  1  0  0  0  0
 17 18  1  1  0  0  0
 17 19  1  0  0  0  0
 19  2  1  1  0  0  0
 19 20  1  0  0  0  0
 20 21  1  6  0  0  0
 20 22  1  0  0  0  0
 22 23  1  6  0  0  0
 24 23  1  1  0  0  0
 24 25  1  0  0  0  0
 24 34  1  0  0  0  0
 25 26  1  1  0  0  0
 25 27  1  0  0  0  0
 27 28  1  6  0  0  0
 27 30  1  0  0  0  0
 28 29  1  0  0  0  0
 30 31  1  6  0  0  0
 30 32  1  0  0  0  0
 30 33  1  0  0  0  0
 33 34  1  0  0  0  0
M  CHG  4   4   1  15   1  18   1  28   1
M  END
>  <CHROM.1>
-156.94686463,-165.91138492,-54.61557600,67.55882615,-56.42294250,55.14340763
70.46571052,-177.45858447,170.15602778,-54.41782797,106.19588091,-144.52858124
109.08873719,41.31999909,-173.67117275,-11.15357820,7.44287582,18.93273656
-0.25614036,0.79147348,-2.51686627

>  <Name>
1mwl

>  <RI>
0

>  <Rbt.Current_Directory>
/home/itssahil/PROJECTS/Mol_Feturizer/New_Systems/rnas/1mwl

>  <Rbt.Executable>
rbdock ($Id: //depot/dev/client3/rdock/2013.1/src/exe/rbdock.cxx#4 $)

>  <Rbt.Library>
libRbt.so (2013.1, Build901 2013/11/27)

>  <Rbt.Parameter_File>
/export/apps/rDock/src/rDock_2013.1_src/data/scripts/dock_solv.prm

>  <Rbt.Receptor>
prm/pocket_docking_3.prm

>  <SCORE>
-87.2073

>  <SCORE.INTER>
-71.6083

>  <SCORE.INTER.CONST>
1

>  <SCORE.INTER.POLAR>
-10.3648

>  <SCORE.INTER.ROT>
6

>  <SCORE.INTER.SOLV>
26.8043

>  <SCORE.INTER.VDW>
-29.7243

>  <SCORE.INTER.norm>
-2.10613

>  <SCORE.INTRA>
-15.599

>  <SCORE.INTRA.DIHEDRAL>
-18.7198

>  <SCORE.INTRA.DIHEDRAL.0>
42.0816

>  <SCORE.INTRA.POLAR>
-0.920374

>  <SCORE.INTRA.POLAR.0>
-0.254682

>  <SCORE.INTRA.REPUL>
0

>  <SCORE.INTRA.REPUL.0>
0

>  <SCORE.INTRA.SOLV>
-0.733617

>  <SCORE.INTRA.SOLV.lig_0>
-109.803

>  <SCORE.INTRA.VDW>
-2.74303

>  <SCORE.INTRA.VDW.0>
0.32176

>  <SCORE.INTRA.norm>
-0.458795

>  <SCORE.RESTR>
0

>  <SCORE.RESTR.CAVITY>
0

>  <SCORE.RESTR.norm>
0

>  <SCORE.SYSTEM>
0

>  <SCORE.SYSTEM.CONST>
0

>  <SCORE.SYSTEM.DIHEDRAL>
0

>  <SCORE.SYSTEM.SOLV>
0

>  <SCORE.SYSTEM.norm>
0

>  <SCORE.heavy>
34

>  <SCORE.norm>
-2.56492

>  <RMSD>
0.418

$$$$
1mwl
 OpenBabel11021811403D
libRbt.so/2013.1/901 2013/11/27
 34 36  0  0  0  0  0  0  0  0999 V2000
   -8.8814    6.0062   20.2114 C   0  0  2  0  0  0  0  0  0  0  0  0
  -10.0204    6.6721   20.6673 O   0  0  0  0  0  0  0  0  0  0  0  0
   -9.0767    4.4928   20.5087 C   0  0  2  0  0  0  0  0  0  0  0  0
  -10.2830    3.9978   19.8385 N   0  3  0  0  0  0  0  0  0  0  0  0
   -9.1322    4.2379   22.0435 C   0  0  1  0  0  0  0  0  0  0  0  0
   -9.2769    2.9159   22.3113 O   0  0  0  0  0  0  0  0  0  0  0  0
   -7.8215    4.7962   22.6898 C   0  0  2  0  0  0  0  0  0  0  0  0
   -7.8345    4.5674   24.1145 O   0  0  0  0  0  0  0  0  0  0  0  0
   -7.7218    6.3245   22.3608 C   0  0  2  0  0  0  0  0  0  0  0  0
   -7.7174    6.5355   20.8963 O   0  0  0  0  0  0  0  0  0  0  0  0
   -6.4693    7.0168   22.9102 C   0  0  2  0  0  0  0  0  0  0  0  0
   -6.7701    8.3324   23.2449 O   0  0  0  0  0  0  0  0  0  0  0  0
   -5.3087    7.0834   21.9008 C   0  0  0  0  0  0  0  0  0  0  0  0
  -12.8446    9.6038   19.3678 C   0  0  2  0  0  0  0  0  0  0  0  0
  -13.4144   10.8271   18.7478 N   0  3  0  0  0  0  0  0  0  0  0  0
  -11.8792    9.9751   20.5323 C   0  0  0  0  0  0  0  0  0  0  0  0
  -11.2678    8.6749   21.1693 C   0  0  2  0  0  0  0  0  0  0  0  0
  -10.3460    9.0656   22.2982 N   0  3  0  0  0  0  0  0  0  0  0  0
  -10.5153    7.8598   20.0621 C   0  0  2  0  0  0  0  0  0  0  0  0
  -11.5019    7.4989   18.9248 C   0  0  2  0  0  0  0  0  0  0  0  0
  -10.8079    6.7975   17.9216 O   0  0  0  0  0  0  0  0  0  0  0  0
  -12.0843    8.7933   18.2965 C   0  0  1  0  0  0  0  0  0  0  0  0
  -12.9831    8.4390   17.2558 O   0  0  0  0  0  0  0  0  0  0  0  0
  -12.8665    9.0857   16.0185 C   0  0  2  0  0  0  0  0  0  0  0  0
  -14.2784    9.1752   15.4091 C   0  0  2  0  0  0  0  0  0  0  0  0
  -15.1014    9.9380   16.2655 O   0  0  0  0  0  0  0  0  0  0  0  0
  -14.8519    7.7284   15.2285 C   0  0  1  0  0  0  0  0  0  0  0  0
  -16.2267    7.7282   14.6716 N   0  3  0  0  0  0  0  0  0  0  0  0
  -17.2290    7.9632   15.7423 C   0  0  0  0  0  0  0  0  0  0  0  0
  -13.8964    6.9087   14.2946 C   0  0  2  0  0  0  0  0  0  0  0  0
  -13.8047    7.5460   13.0067 O   0  0  0  0  0  0  0  0  0  0  0  0
  -14.3730    5.5544   14.0799 C   0  0  0  0  0  0  0  0  0  0  0  0
  -12.4507    6.9029   14.8805 C   0  0  0  0  0  0  0  0  0  0  0  0
  -11.9815    8.3036   15.1383 O   0  0  0  0  0  0  0  0  0  0  0  0
  1  2  1  1  0  0  0
  1  3  1  0  0  0  0
  1 10  1  0  0  0  0
  3  4  1  6  0  0  0
  3  5  1  0  0  0  0
  5  6  1  6  0  0  0
  5  7  1  0  0  0  0
  7  8  1  1  0  0  0
  7  9  1  0  0  0  0
  9 10  1  6  0  0  0
  9 11  1  0  0  0  0
 11 12  1  6  0  0  0
 11 13  1  0  0  0  0
 14 15  1  6  0  0  0
 14 16  1  0  0  0  0
 14 22  1  0  0  0  0
 16 17  1  0  0  0  0
 17 18  1  1  0  0  0
 17 19  1  0  0  0  0
 19  2  1  1  0  0  0
 19 20  1  0  0  0  0
 20 21  1  6  0  0  0
 20 22  1  0  0  0  0
 22 23  1  6  0  0  0
 24 23  1  1  0  0  0
 24 25  1  0  0  0  0
 24 34  1  0  0  0  0
 25 26  1  1  0  0  0
 25 27  1  0  0  0  0
 27 28  1  6  0  0  0
 27 30  1  0  0  0  0
 28 29  1  0  0  0  0
 30 31  1  6  0  0  0
 30 32  1  0  0  0  0
 30 33  1  0  0  0  0
 33 34  1  0  0  0  0
M  CHG  4   4   1  15   1  18   1  28   1
M  END
>  <CHROM.1>
-149.21870411,-152.02419979,67.52873151,-65.31456352,177.40660126,-147.07717805
64.87243181,67.30080359,174.20969201,79.32138577,107.87115729,-148.23662310
108.87031476,37.84853702,-57.68863535,-11.21534865,7.27274928,18.91903491
-0.11844924,0.84249016,-2.68837211

>  <Name>
1mwl

>  <RI>
0

>  <Rbt.Current_Directory>
/home/itssahil/PROJECTS/Mol_Feturizer/New_Systems/rnas/1mwl

>  <Rbt.Executable>
rbdock ($Id: //depot/dev/client3/rdock/2013.1/src/exe/rbdock.cxx#4 $)

>  <Rbt.Library>
libRbt.so (2013.1, Build901 2013/11/27)

>  <Rbt.Parameter_File>
/export/apps/rDock/src/rDock_2013.1_src/data/scripts/dock_solv.prm

>  <Rbt.Receptor>
prm/pocket_docking_8.prm

>  <SCORE>
-78.2537

>  <SCORE.INTER>
-67.4524

>  <SCORE.INTER.CONST>
1

>  <SCORE.INTER.POLAR>
-9.30816

>  <SCORE.INTER.ROT>
6

>  <SCORE.INTER.SOLV>
24.3504

>  <SCORE.INTER.VDW>
-29.6578

>  <SCORE.INTER.norm>
-1.98389

>  <SCORE.INTRA>
-10.8013

>  <SCORE.INTRA.DIHEDRAL>
-11.4099

>  <SCORE.INTRA.DIHEDRAL.0>
42.0816

>  <SCORE.INTRA.POLAR>
-0.924637

>  <SCORE.INTRA.POLAR.0>
-0.254682

>  <SCORE.INTRA.REPUL>
0

>  <SCORE.INTRA.REPUL.0>
0

>  <SCORE.INTRA.SOLV>
2.07228

>  <SCORE.INTRA.SOLV.lig_0>
-109.803

>  <SCORE.INTRA.VDW>
-2.98873

>  <SCORE.INTRA.VDW.0>
0.32176

>  <SCORE.INTRA.norm>
-0.317685

>  <SCORE.RESTR>
0

>  <SCORE.RESTR.CAVITY>
0

>  <SCORE.RESTR.norm>
0

>  <SCORE.SYSTEM>
0

>  <SCORE.SYSTEM.CONST>
0

>  <SCORE.SYSTEM.DIHEDRAL>
0

>  <SCORE.SYSTEM.SOLV>
0

>  <SCORE.SYSTEM.norm>
0

>  <SCORE.heavy>
34

>  <SCORE.norm>
-2.30158

>  <RMSD>
0.419

$$$$
1mwl
 OpenBabel11021811403D
libRbt.so/2013.1/901 2013/11/27
 34 36  0  0  0  0  0  0  0  0999 V2000
   -8.8470    5.9464   20.1905 C   0  0  2  0  0  0  0  0  0  0  0  0
   -9.9619    6.6370   20.6688 O   0  0  0  0  0  0  0  0  0  0  0  0
   -8.9188    4.4993   20.7542 C   0  0  2  0  0  0  0  0  0  0  0  0
  -10.1643    3.8528   20.3296 N   0  3  0  0  0  0  0  0  0  0  0  0
   -8.7807    4.5071   22.3048 C   0  0  1  0  0  0  0  0  0  0  0  0
   -8.8167    3.2455   22.8020 O   0  0  0  0  0  0  0  0  0  0  0  0
   -7.4381    5.2157   22.6826 C   0  0  2  0  0  0  0  0  0  0  0  0
   -7.2721    5.2322   24.1160 O   0  0  0  0  0  0  0  0  0  0  0  0
   -7.4657    6.6685   22.0974 C   0  0  2  0  0  0  0  0  0  0  0  0
   -7.6438    6.6275   20.6291 O   0  0  0  0  0  0  0  0  0  0  0  0
   -6.1998    7.4905   22.3655 C   0  0  2  0  0  0  0  0  0  0  0  0
   -5.5721    7.0224   23.5145 O   0  0  0  0  0  0  0  0  0  0  0  0
   -6.4749    8.9865   22.6036 C   0  0  0  0  0  0  0  0  0  0  0  0
  -12.8425    9.4592   19.2558 C   0  0  2  0  0  0  0  0  0  0  0  0
  -13.4341   10.6575   18.6082 N   0  3  0  0  0  0  0  0  0  0  0  0
  -11.9289    9.8720   20.4478 C   0  0  0  0  0  0  0  0  0  0  0  0
  -11.2936    8.5984   21.1144 C   0  0  2  0  0  0  0  0  0  0  0  0
  -10.4230    9.0288   22.2692 N   0  3  0  0  0  0  0  0  0  0  0  0
  -10.4778    7.8025   20.0386 C   0  0  2  0  0  0  0  0  0  0  0  0
  -11.4140    7.3995   18.8731 C   0  0  2  0  0  0  0  0  0  0  0  0
  -10.6640    6.7158   17.8984 O   0  0  0  0  0  0  0  0  0  0  0  0
  -12.0203    8.6684   18.2160 C   0  0  1  0  0  0  0  0  0  0  0  0
  -12.8721    8.2758   17.1499 O   0  0  0  0  0  0  0  0  0  0  0  0
  -12.7955    8.9732   15.9373 C   0  0  2  0  0  0  0  0  0  0  0  0
  -14.2280    9.0975   15.3846 C   0  0  2  0  0  0  0  0  0  0  0  0
  -15.0131    9.8288   16.3019 O   0  0  0  0  0  0  0  0  0  0  0  0
  -14.8193    7.6632   15.1647 C   0  0  1  0  0  0  0  0  0  0  0  0
  -16.2134    7.6954   14.6594 N   0  3  0  0  0  0  0  0  0  0  0  0
  -17.1725    7.9136   15.7723 C   0  0  0  0  0  0  0  0  0  0  0  0
  -13.9051    6.8774   14.1629 C   0  0  2  0  0  0  0  0  0  0  0  0
  -13.8554    7.5679   12.9003 O   0  0  0  0  0  0  0  0  0  0  0  0
  -14.4000    5.5365   13.9093 C   0  0  0  0  0  0  0  0  0  0  0  0
  -12.4391    6.8376   14.6944 C   0  0  0  0  0  0  0  0  0  0  0  0
  -11.9495    8.2232   14.9932 O   0  0  0  0  0  0  0  0  0  0  0  0
  1  2  1  1  0  0  0
  1  3  1  0  0  0  0
  1 10  1  0  0  0  0
  3  4  1  1  0  0  0
  3  5  1  0  0  0  0
  5  6  1  6  0  0  0
  5  7  1  0  0  0  0
  7  8  1  1  0  0  0
  7  9  1  0  0  0  0
  9 10  1  6  0  0  0
  9 11  1  0  0  0  0
 11 12  1  1  0  0  0
 11 13  1  0  0  0  0
 14 15  1  6  0  0  0
 14 16  1  0  0  0  0
 14 22  1  0  0  0  0
 16 17  1  0  0  0  0
 17 18  1  1  0  0  0
 17 19  1  0  0  0  0
 19  2  1  1  0  0  0
 19 20  1  0  0  0  0
 20 21  1  6  0  0  0
 20 22  1  0  0  0  0
 22 23  1  6  0  0  0
 24 23  1  1  0  0  0
 24 25  1  0  0  0  0
 24 34  1  0  0  0  0
 25 26  1  1  0  0  0
 25 27  1  0  0  0  0
 27 28  1  6  0  0  0
 27 30  1  0  0  0  0
 28 29  1  0  0  0  0
 30 31  1  6  0  0  0
 30 32  1  0  0  0  0
 30 33  1  0  0  0  0
 33 34  1  0  0  0  0
M  CHG  4   4   1  15   1  18   1  28   1
M  END
>  <CHROM.1>
-158.30951099,-157.31495985,-177.07171767,-81.98028753,-62.84070295,-25.93032095
69.14031962,57.15272875,173.35942410,174.84626517,103.95714162,-142.15925513
112.19636127,38.76703964,176.99251059,-11.11305189,7.30360723,18.91746838
-0.15943651,0.83200149,-2.67593644

>  <Name>
1mwl

>  <RI>
0

>  <Rbt.Current_Directory>
/home/itssahil/PROJECTS/Mol_Feturizer/New_Systems/rnas/1mwl

>  <Rbt.Executable>
rbdock ($Id: //depot/dev/client3/rdock/2013.1/src/exe/rbdock.cxx#4 $)

>  <Rbt.Library>
libRbt.so (2013.1, Build901 2013/11/27)

>  <Rbt.Parameter_File>
/export/apps/rDock/src/rDock_2013.1_src/data/scripts/dock_solv.prm

>  <Rbt.Receptor>
prm/pocket_docking_6.prm

>  <SCORE>
-85.9952

>  <SCORE.INTER>
-73.532

>  <SCORE.INTER.CONST>
1

>  <SCORE.INTER.POLAR>
-10.6232

>  <SCORE.INTER.ROT>
6

>  <SCORE.INTER.SOLV>
24.0278

>  <SCORE.INTER.VDW>
-29.22

>  <SCORE.INTER.norm>
-2.16271

>  <SCORE.INTRA>
-12.4633

>  <SCORE.INTRA.DIHEDRAL>
-12.5635

>  <SCORE.INTRA.DIHEDRAL.0>
42.0816

>  <SCORE.INTRA.POLAR>
-0.9079

>  <SCORE.INTRA.POLAR.0>
-0.254682

>  <SCORE.INTRA.REPUL>
0

>  <SCORE.INTRA.REPUL.0>
0

>  <SCORE.INTRA.SOLV>
1.29282

>  <SCORE.INTRA.SOLV.lig_0>
-109.803

>  <SCORE.INTRA.VDW>
-3.74107

>  <SCORE.INTRA.VDW.0>
0.32176

>  <SCORE.INTRA.norm>
-0.366567

>  <SCORE.RESTR>
0

>  <SCORE.RESTR.CAVITY>
0

>  <SCORE.RESTR.norm>
0

>  <SCORE.SYSTEM>
0

>  <SCORE.SYSTEM.CONST>
0

>  <SCORE.SYSTEM.DIHEDRAL>
0

>  <SCORE.SYSTEM.SOLV>
0

>  <SCORE.SYSTEM.norm>
0

>  <SCORE.heavy>
34

>  <SCORE.norm>
-2.52927

>  <RMSD>
0.420

$$$$
1mwl
 OpenBabel11021811403D
libRbt.so/2013.1/901 2013/11/27
 34 36  0  0  0  0  0  0  0  0999 V2000
   -9.2115    5.9923   20.2293 C   0  0  2  0  0  0  0  0  0  0  0  0
  -10.1731    6.8380   20.7849 O   0  0  0  0  0  0  0  0  0  0  0  0
   -9.2889    4.6376   20.9879 C   0  0  2  0  0  0  0  0  0  0  0  0
  -10.6327    4.0649   20.8636 N   0  3  0  0  0  0  0  0  0  0  0  0
   -8.8830    4.8203   22.4797 C   0  0  1  0  0  0  0  0  0  0  0  0
   -8.9235    3.6373   23.1424 O   0  0  0  0  0  0  0  0  0  0  0  0
   -7.4474    5.4396   22.5341 C   0  0  2  0  0  0  0  0  0  0  0  0
   -7.0340    5.6140   23.9056 O   0  0  0  0  0  0  0  0  0  0  0  0
   -7.4710    6.8068   21.7698 C   0  0  2  0  0  0  0  0  0  0  0  0
   -7.9042    6.6050   20.3694 O   0  0  0  0  0  0  0  0  0  0  0  0
   -6.1216    7.5319   21.7141 C   0  0  2  0  0  0  0  0  0  0  0  0
   -5.1020    6.6090   21.5096 O   0  0  0  0  0  0  0  0  0  0  0  0
   -5.7704    8.2817   23.0122 C   0  0  0  0  0  0  0  0  0  0  0  0
  -12.9904    9.6684   19.2644 C   0  0  2  0  0  0  0  0  0  0  0  0
  -13.5545   10.8588   18.5789 N   0  3  0  0  0  0  0  0  0  0  0  0
  -12.0843   10.0973   20.4565 C   0  0  0  0  0  0  0  0  0  0  0  0
  -11.4778    8.8314   21.1635 C   0  0  2  0  0  0  0  0  0  0  0  0
  -10.6141    9.2777   22.3174 N   0  3  0  0  0  0  0  0  0  0  0  0
  -10.6625    7.9949   20.1186 C   0  0  2  0  0  0  0  0  0  0  0  0
  -11.5912    7.5769   18.9524 C   0  0  2  0  0  0  0  0  0  0  0  0
  -10.8410    6.8562   18.0049 O   0  0  0  0  0  0  0  0  0  0  0  0
  -12.1689    8.8378   18.2555 C   0  0  1  0  0  0  0  0  0  0  0  0
  -13.0143    8.4313   17.1895 O   0  0  0  0  0  0  0  0  0  0  0  0
  -12.8874    9.0718   15.9499 C   0  0  2  0  0  0  0  0  0  0  0  0
  -14.2927    9.1491   15.3238 C   0  0  2  0  0  0  0  0  0  0  0  0
  -15.1303    9.9114   16.1663 O   0  0  0  0  0  0  0  0  0  0  0  0
  -14.8550    7.6977   15.1447 C   0  0  1  0  0  0  0  0  0  0  0  0
  -16.2233    7.6858   14.5721 N   0  3  0  0  0  0  0  0  0  0  0  0
  -17.2435    7.8314   15.6416 C   0  0  0  0  0  0  0  0  0  0  0  0
  -13.8837    6.8788   14.2267 C   0  0  2  0  0  0  0  0  0  0  0  0
  -13.7811    7.5095   12.9363 O   0  0  0  0  0  0  0  0  0  0  0  0
  -14.3493    5.5203   14.0141 C   0  0  0  0  0  0  0  0  0  0  0  0
  -12.4449    6.8853   14.8292 C   0  0  0  0  0  0  0  0  0  0  0  0
  -11.9874    8.2904   15.0845 O   0  0  0  0  0  0  0  0  0  0  0  0
  1  2  1  1  0  0  0
  1  3  1  0  0  0  0
  1 10  1  0  0  0  0
  3  4  1  1  0  0  0
  3  5  1  0  0  0  0
  5  6  1  1  0  0  0
  5  7  1  0  0  0  0
  7  8  1  1  0  0  0
  7  9  1  0  0  0  0
  9 10  1  6  0  0  0
  9 11  1  0  0  0  0
 11 12  1  1  0  0  0
 11 13  1  0  0  0  0
 14 15  1  6  0  0  0
 14 16  1  0  0  0  0
 14 22  1  0  0  0  0
 16 17  1  0  0  0  0
 17 18  1  1  0  0  0
 17 19  1  0  0  0  0
 19  2  1  1  0  0  0
 19 20  1  0  0  0  0
 20 21  1  6  0  0  0
 20 22  1  0  0  0  0
 22 23  1  6  0  0  0
 24 23  1  1  0  0  0
 24 25  1  0  0  0  0
 24 34  1  0  0  0  0
 25 26  1  1  0  0  0
 25 27  1  0  0  0  0
 27 28  1  6  0  0  0
 27 30  1  0  0  0  0
 28 29  1  0  0  0  0
 30 31  1  6  0  0  0
 30 32  1  0  0  0  0
 30 33  1  0  0  0  0
 33 34  1  0  0  0  0
M  CHG  4   4   1  15   1  18   1  28   1
M  END
>  <CHROM.1>
-161.12190671,-168.18015878,-173.57430044,58.53641991,-61.77083398,39.61044132
126.57599748,59.01154936,-71.29452506,177.90286435,105.62947398,-145.52505220
114.68354487,34.14093053,-58.16132083,-11.17759313,7.39698928,18.87216279
-0.22973963,0.79288397,-2.56281523

>  <Name>
1mwl

>  <RI>
0

>  <Rbt.Current_Directory>
/home/itssahil/PROJECTS/Mol_Feturizer/New_Systems/rnas/1mwl

>  <Rbt.Executable>
rbdock ($Id: //depot/dev/client3/rdock/2013.1/src/exe/rbdock.cxx#4 $)

>  <Rbt.Library>
libRbt.so (2013.1, Build901 2013/11/27)

>  <Rbt.Parameter_File>
/export/apps/rDock/src/rDock_2013.1_src/data/scripts/dock_solv.prm

>  <Rbt.Receptor>
prm/pocket_docking_2.prm

>  <SCORE>
-84.3869

>  <SCORE.INTER>
-71.1871

>  <SCORE.INTER.CONST>
1

>  <SCORE.INTER.POLAR>
-10.631

>  <SCORE.INTER.ROT>
6

>  <SCORE.INTER.SOLV>
26.6939

>  <SCORE.INTER.VDW>
-28.5195

>  <SCORE.INTER.norm>
-2.09374

>  <SCORE.INTRA>
-13.3383

>  <SCORE.INTRA.DIHEDRAL>
-11.7924

>  <SCORE.INTRA.DIHEDRAL.0>
42.0816

>  <SCORE.INTRA.POLAR>
-0.924387

>  <SCORE.INTRA.POLAR.0>
-0.254682

>  <SCORE.INTRA.REPUL>
0

>  <SCORE.INTRA.REPUL.0>
0

>  <SCORE.INTRA.SOLV>
-0.350639

>  <SCORE.INTRA.SOLV.lig_0>
-109.803

>  <SCORE.INTRA.VDW>
-4.12387

>  <SCORE.INTRA.VDW.0>
0.32176

>  <SCORE.INTRA.norm>
-0.392303

>  <SCORE.RESTR>
0.138483

>  <SCORE.RESTR.CAVITY>
0.138483

>  <SCORE.RESTR.norm>
0.00407303

>  <SCORE.SYSTEM>
0

>  <SCORE.SYSTEM.CONST>
0

>  <SCORE.SYSTEM.DIHEDRAL>
0

>  <SCORE.SYSTEM.SOLV>
0

>  <SCORE.SYSTEM.norm>
0

>  <SCORE.heavy>
34

>  <SCORE.norm>
-2.48197

>  <RMSD>
0.421

$$$$
1mwl
 OpenBabel11021811403D
libRbt.so/2013.1/901 2013/11/27
 34 36  0  0  0  0  0  0  0  0999 V2000
   -8.9333    6.3583   20.2827 C   0  0  2  0  0  0  0  0  0  0  0  0
  -10.0936    6.9948   20.7268 O   0  0  0  0  0  0  0  0  0  0  0  0
   -9.1601    4.8266   20.4222 C   0  0  2  0  0  0  0  0  0  0  0  0
  -10.3251    4.4144   19.6333 N   0  3  0  0  0  0  0  0  0  0  0  0
   -9.3162    4.4293   21.9193 C   0  0  1  0  0  0  0  0  0  0  0  0
   -9.4890    3.0902   22.0510 O   0  0  0  0  0  0  0  0  0  0  0  0
   -8.0449    4.9052   22.6970 C   0  0  2  0  0  0  0  0  0  0  0  0
   -8.1512    4.5437   24.0899 O   0  0  0  0  0  0  0  0  0  0  0  0
   -7.9114    6.4561   22.5214 C   0  0  2  0  0  0  0  0  0  0  0  0
   -7.8112    6.8039   21.0867 O   0  0  0  0  0  0  0  0  0  0  0  0
   -6.6908    7.0754   23.2118 C   0  0  2  0  0  0  0  0  0  0  0  0
   -6.8252    8.4589   23.2482 O   0  0  0  0  0  0  0  0  0  0  0  0
   -5.3622    6.7902   22.4880 C   0  0  0  0  0  0  0  0  0  0  0  0
  -13.0814    9.6416   19.2015 C   0  0  2  0  0  0  0  0  0  0  0  0
  -13.7182   10.8009   18.5262 N   0  3  0  0  0  0  0  0  0  0  0  0
  -12.2313   10.1122   20.4187 C   0  0  0  0  0  0  0  0  0  0  0  0
  -11.5471    8.8804   21.1149 C   0  0  2  0  0  0  0  0  0  0  0  0
  -10.7398    9.3660   22.2935 N   0  3  0  0  0  0  0  0  0  0  0  0
  -10.6537    8.1256   20.0717 C   0  0  2  0  0  0  0  0  0  0  0  0
  -11.5276    7.6638   18.8800 C   0  0  2  0  0  0  0  0  0  0  0  0
  -10.7093    7.0179   17.9349 O   0  0  0  0  0  0  0  0  0  0  0  0
  -12.1829    8.8925   18.1944 C   0  0  1  0  0  0  0  0  0  0  0  0
  -12.9764    8.4463   17.1047 O   0  0  0  0  0  0  0  0  0  0  0  0
  -12.8782    9.1218   15.8813 C   0  0  2  0  0  0  0  0  0  0  0  0
  -14.2933    9.1908   15.2767 C   0  0  2  0  0  0  0  0  0  0  0  0
  -15.1321    9.9153   16.1508 O   0  0  0  0  0  0  0  0  0  0  0  0
  -14.8328    7.7350   15.0662 C   0  0  1  0  0  0  0  0  0  0  0  0
  -16.2086    7.7141   14.5122 N   0  3  0  0  0  0  0  0  0  0  0  0
  -17.2162    7.7993   15.6000 C   0  0  0  0  0  0  0  0  0  0  0  0
  -13.8604    6.9583   14.1132 C   0  0  2  0  0  0  0  0  0  0  0  0
  -13.7870    7.6250   12.8390 O   0  0  0  0  0  0  0  0  0  0  0  0
  -14.3053    5.5980   13.8704 C   0  0  0  0  0  0  0  0  0  0  0  0
  -12.4136    6.9743   14.6960 C   0  0  0  0  0  0  0  0  0  0  0  0
  -11.9770    8.3799   14.9829 O   0  0  0  0  0  0  0  0  0  0  0  0
  1  2  1  1  0  0  0
  1  3  1  0  0  0  0
  1 10  1  0  0  0  0
  3  4  1  6  0  0  0
  3  5  1  0  0  0  0
  5  6  1  6  0  0  0
  5  7  1  0  0  0  0
  7  8  1  1  0  0  0
  7  9  1  0  0  0  0
  9 10  1  6  0  0  0
  9 11  1  0  0  0  0
 11 12  1  6  0  0  0
 11 13  1  0  0  0  0
 14 15  1  6  0  0  0
 14 16  1  0  0  0  0
 14 22  1  0  0  0  0
 16 17  1  0  0  0  0
 17 18  1  1  0  0  0
 17 19  1  0  0  0  0
 19  2  1  1  0  0  0
 19 20  1  0  0  0  0
 20 21  1  6  0  0  0
 20 22  1  0  0  0  0
 22 23  1  6  0  0  0
 24 23  1  1  0  0  0
 24 25  1  0  0  0  0
 24 34  1  0  0  0  0
 25 26  1  1  0  0  0
 25 27  1  0  0  0  0
 27 28  1  6  0  0  0
 27 30  1  0  0  0  0
 28 29  1  0  0  0  0
 30 31  1  6  0  0  0
 30 32  1  0  0  0  0
 30 33  1  0  0  0  0
 33 34  1  0  0  0  0
M  CHG  4   4   1  15   1  18   1  28   1
M  END
>  <CHROM.1>
-139.02889747,-157.89498639,148.57521132,-177.55730680,-54.26184639,-166.87927726
174.34601529,176.20143652,-75.20375102,-58.37047917,105.34374374,-141.67025478
111.36066231,33.57589808,-56.77759485,-11.31238960,7.38765574,18.86195380
-0.21138377,0.85135407,-2.59691105

>  <Name>
1mwl

>  <RI>
0

>  <Rbt.Current_Directory>
/home/itssahil/PROJECTS/Mol_Feturizer/New_Systems/rnas/1mwl

>  <Rbt.Executable>
rbdock ($Id: //depot/dev/client3/rdock/2013.1/src/exe/rbdock.cxx#4 $)

>  <Rbt.Library>
libRbt.so (2013.1, Build901 2013/11/27)

>  <Rbt.Parameter_File>
/export/apps/rDock/src/rDock_2013.1_src/data/scripts/dock_solv.prm

>  <Rbt.Receptor>
prm/pocket_docking_2.prm

>  <SCORE>
-82.9182

>  <SCORE.INTER>
-68.2507

>  <SCORE.INTER.CONST>
1

>  <SCORE.INTER.POLAR>
-9.69583

>  <SCORE.INTER.ROT>
6

>  <SCORE.INTER.SOLV>
24.7724

>  <SCORE.INTER.VDW>
-29.0385

>  <SCORE.INTER.norm>
-2.00737

>  <SCORE.INTRA>
-14.6676

>  <SCORE.INTRA.DIHEDRAL>
-11.1049

>  <SCORE.INTRA.DIHEDRAL.0>
42.0816

>  <SCORE.INTRA.POLAR>
-1.98261

>  <SCORE.INTRA.POLAR.0>
-0.254682

>  <SCORE.INTRA.REPUL>
0

>  <SCORE.INTRA.REPUL.0>
0

>  <SCORE.INTRA.SOLV>
1.39558

>  <SCORE.INTRA.SOLV.lig_0>
-109.803

>  <SCORE.INTRA.VDW>
-3.07211

>  <SCORE.INTRA.VDW.0>
0.32176

>  <SCORE.INTRA.norm>
-0.431401

>  <SCORE.RESTR>
6.83538e-05

>  <SCORE.RESTR.CAVITY>
6.83538e-05

>  <SCORE.RESTR.norm>
2.01041e-06

>  <SCORE.SYSTEM>
0

>  <SCORE.SYSTEM.CONST>
0

>  <SCORE.SYSTEM.DIHEDRAL>
0

>  <SCORE.SYSTEM.SOLV>
0

>  <SCORE.SYSTEM.norm>
0

>  <SCORE.heavy>
34

>  <SCORE.norm>
-2.43877

>  <RMSD>
0.427

$$$$
1mwl
 OpenBabel11021811403D
libRbt.so/2013.1/901 2013/11/27
 34 36  0  0  0  0  0  0  0  0999 V2000
   -8.8889    6.0259   20.2089 C   0  0  2  0  0  0  0  0  0  0  0  0
  -10.0148    6.7072   20.6745 O   0  0  0  0  0  0  0  0  0  0  0  0
   -8.8947    4.6156   20.8629 C   0  0  2  0  0  0  0  0  0  0  0  0
  -10.1270    3.9019   20.5142 N   0  3  0  0  0  0  0  0  0  0  0  0
   -8.7169    4.7255   22.4056 C   0  0  1  0  0  0  0  0  0  0  0  0
   -8.6953    3.4971   22.9807 O   0  0  0  0  0  0  0  0  0  0  0  0
   -7.3910    5.5014   22.7010 C   0  0  2  0  0  0  0  0  0  0  0  0
   -7.1887    5.6136   24.1254 O   0  0  0  0  0  0  0  0  0  0  0  0
   -7.4853    6.9128   22.0279 C   0  0  2  0  0  0  0  0  0  0  0  0
   -7.6997    6.7736   20.5705 O   0  0  0  0  0  0  0  0  0  0  0  0
   -6.2428    7.7923   22.2091 C   0  0  2  0  0  0  0  0  0  0  0  0
   -5.1379    7.1637   21.6458 O   0  0  0  0  0  0  0  0  0  0  0  0
   -5.8839    8.0564   23.6828 C   0  0  0  0  0  0  0  0  0  0  0  0
  -12.8594    9.5997   19.3325 C   0  0  2  0  0  0  0  0  0  0  0  0
  -13.4375   10.8108   18.6965 N   0  3  0  0  0  0  0  0  0  0  0  0
  -11.9006    9.9927   20.4953 C   0  0  0  0  0  0  0  0  0  0  0  0
  -11.2802    8.7053   21.1493 C   0  0  2  0  0  0  0  0  0  0  0  0
  -10.3651    9.1169   22.2762 N   0  3  0  0  0  0  0  0  0  0  0  0
  -10.5178    7.8835   20.0540 C   0  0  2  0  0  0  0  0  0  0  0  0
  -11.4980    7.5011   18.9182 C   0  0  2  0  0  0  0  0  0  0  0  0
  -10.7952    6.7937   17.9253 O   0  0  0  0  0  0  0  0  0  0  0  0
  -12.0892    8.7830   18.2730 C   0  0  1  0  0  0  0  0  0  0  0  0
  -12.9820    8.4090   17.2340 O   0  0  0  0  0  0  0  0  0  0  0  0
  -12.8824    9.0585   15.9967 C   0  0  2  0  0  0  0  0  0  0  0  0
  -14.2999    9.1322   15.3982 C   0  0  2  0  0  0  0  0  0  0  0  0
  -15.1253    9.8842   16.2619 O   0  0  0  0  0  0  0  0  0  0  0  0
  -14.8577    7.6790   15.2200 C   0  0  1  0  0  0  0  0  0  0  0  0
  -16.2366    7.6633   14.6736 N   0  3  0  0  0  0  0  0  0  0  0  0
  -17.2257    7.9986   15.7296 C   0  0  0  0  0  0  0  0  0  0  0  0
  -13.8997    6.8717   14.2778 C   0  0  2  0  0  0  0  0  0  0  0  0
  -13.8254    7.5117   12.9901 O   0  0  0  0  0  0  0  0  0  0  0  0
  -14.3620    5.5122   14.0649 C   0  0  0  0  0  0  0  0  0  0  0  0
  -12.4497    6.8822   14.8527 C   0  0  0  0  0  0  0  0  0  0  0  0
  -11.9950    8.2881   15.1088 O   0  0  0  0  0  0  0  0  0  0  0  0
  1  2  1  1  0  0  0
  1  3  1  0  0  0  0
  1 10  1  0  0  0  0
  3  4  1  1  0  0  0
  3  5  1  0  0  0  0
  5  6  1  1  0  0  0
  5  7  1  0  0  0  0
  7  8  1  1  0  0  0
  7  9  1  0  0  0  0
  9 10  1  6  0  0  0
  9 11  1  0  0  0  0
 11 12  1  1  0  0  0
 11 13  1  0  0  0  0
 14 15  1  6  0  0  0
 14 16  1  0  0  0  0
 14 22  1  0  0  0  0
 16 17  1  0  0  0  0
 17 18  1  1  0  0  0
 17 19  1  0  0  0  0
 19  2  1  1  0  0  0
 19 20  1  0  0  0  0
 20 21  1  6  0  0  0
 20 22  1  0  0  0  0
 22 23  1  6  0  0  0
 24 23  1  1  0  0  0
 24 25  1  0  0  0  0
 24 34  1  0  0  0  0
 25 26  1  1  0  0  0
 25 27  1  0  0  0  0
 27 28  1  6  0  0  0
 27 30  1  0  0  0  0
 28 29  1  0  0  0  0
 30 31  1  6  0  0  0
 30 32  1  0  0  0  0
 30 33  1  0  0  0  0
 33 34  1  0  0  0  0
M  CHG  4   4   1  15   1  18   1  28   1
M  END
>  <CHROM.1>
-164.05107872,-153.73477436,-57.05960010,-77.69452350,153.63715203,60.47595608
98.58649136,-57.13520373,50.23181638,175.15841824,106.76897878,-147.54521467
109.46504092,42.63631179,57.28649695,-11.09350371,7.38738360,18.93138149
-0.20027490,0.79934154,-2.61649871

>  <Name>
1mwl

>  <RI>
0

>  <Rbt.Current_Directory>
/home/itssahil/PROJECTS/Mol_Feturizer/New_Systems/rnas/1mwl

>  <Rbt.Executable>
rbdock ($Id: //depot/dev/client3/rdock/2013.1/src/exe/rbdock.cxx#4 $)

>  <Rbt.Library>
libRbt.so (2013.1, Build901 2013/11/27)

>  <Rbt.Parameter_File>
/export/apps/rDock/src/rDock_2013.1_src/data/scripts/dock_solv.prm

>  <Rbt.Receptor>
prm/pocket_docking_5.prm

>  <SCORE>
-78.5113

>  <SCORE.INTER>
-67.9066

>  <SCORE.INTER.CONST>
1

>  <SCORE.INTER.POLAR>
-9.68219

>  <SCORE.INTER.ROT>
6

>  <SCORE.INTER.SOLV>
25.93

>  <SCORE.INTER.VDW>
-29.2405

>  <SCORE.INTER.norm>
-1.99725

>  <SCORE.INTRA>
-10.7808

>  <SCORE.INTRA.DIHEDRAL>
-10.2462

>  <SCORE.INTRA.DIHEDRAL.0>
42.0816

>  <SCORE.INTRA.POLAR>
-0.910389

>  <SCORE.INTRA.POLAR.0>
-0.254682

>  <SCORE.INTRA.REPUL>
0

>  <SCORE.INTRA.REPUL.0>
0

>  <SCORE.INTRA.SOLV>
0.177431

>  <SCORE.INTRA.SOLV.lig_0>
-109.803

>  <SCORE.INTRA.VDW>
-2.65109

>  <SCORE.INTRA.VDW.0>
0.32176

>  <SCORE.INTRA.norm>
-0.317082

>  <SCORE.RESTR>
0.176179

>  <SCORE.RESTR.CAVITY>
0.176179

>  <SCORE.RESTR.norm>
0.00518174

>  <SCORE.SYSTEM>
0

>  <SCORE.SYSTEM.CONST>
0

>  <SCORE.SYSTEM.DIHEDRAL>
0

>  <SCORE.SYSTEM.SOLV>
0

>  <SCORE.SYSTEM.norm>
0

>  <SCORE.heavy>
34

>  <SCORE.norm>
-2.30915

>  <RMSD>
0.432

$$$$
1mwl
 OpenBabel11021811403D
libRbt.so/2013.1/901 2013/11/27
 34 36  0  0  0  0  0  0  0  0999 V2000
   -8.9787    6.1531   20.1366 C   0  0  2  0  0  0  0  0  0  0  0  0
  -10.0541    6.8689   20.6655 O   0  0  0  0  0  0  0  0  0  0  0  0
   -9.1238    4.6789   20.6084 C   0  0  2  0  0  0  0  0  0  0  0  0
  -10.4030    4.1261   20.1528 N   0  3  0  0  0  0  0  0  0  0  0  0
   -8.9794    4.5812   22.1554 C   0  0  1  0  0  0  0  0  0  0  0  0
   -9.0794    3.2942   22.5722 O   0  0  0  0  0  0  0  0  0  0  0  0
   -7.6002    5.1939   22.5675 C   0  0  2  0  0  0  0  0  0  0  0  0
   -7.4280    5.1109   23.9977 O   0  0  0  0  0  0  0  0  0  0  0  0
   -7.5542    6.6804   22.0752 C   0  0  2  0  0  0  0  0  0  0  0  0
   -7.7399    6.7418   20.6086 O   0  0  0  0  0  0  0  0  0  0  0  0
   -6.2461    7.4169   22.3856 C   0  0  2  0  0  0  0  0  0  0  0  0
   -5.1713    6.6983   21.8740 O   0  0  0  0  0  0  0  0  0  0  0  0
   -5.9750    7.5841   23.8919 C   0  0  0  0  0  0  0  0  0  0  0  0
  -12.9731    9.6713   19.2923 C   0  0  2  0  0  0  0  0  0  0  0  0
  -13.5813   10.8680   18.6571 N   0  3  0  0  0  0  0  0  0  0  0  0
  -12.0553   10.0852   20.4807 C   0  0  0  0  0  0  0  0  0  0  0  0
  -11.4025    8.8136   21.1340 C   0  0  2  0  0  0  0  0  0  0  0  0
  -10.5282    9.2449   22.2857 N   0  3  0  0  0  0  0  0  0  0  0  0
  -10.5863    8.0334   20.0470 C   0  0  2  0  0  0  0  0  0  0  0  0
  -11.5265    7.6290   18.8853 C   0  0  2  0  0  0  0  0  0  0  0  0
  -10.7764    6.9597   17.9006 O   0  0  0  0  0  0  0  0  0  0  0  0
  -12.1502    8.8961   18.2413 C   0  0  1  0  0  0  0  0  0  0  0  0
  -13.0055    8.5022   17.1784 O   0  0  0  0  0  0  0  0  0  0  0  0
  -12.8906    9.1579   15.9457 C   0  0  2  0  0  0  0  0  0  0  0  0
  -14.3018    9.2415   15.3337 C   0  0  2  0  0  0  0  0  0  0  0  0
  -15.1321    9.9926   16.1932 O   0  0  0  0  0  0  0  0  0  0  0  0
  -14.8645    7.7919   15.1421 C   0  0  1  0  0  0  0  0  0  0  0  0
  -16.2380    7.7856   14.5821 N   0  3  0  0  0  0  0  0  0  0  0  0
  -17.2503    7.8059   15.6687 C   0  0  0  0  0  0  0  0  0  0  0  0
  -13.9011    6.9852   14.2050 C   0  0  2  0  0  0  0  0  0  0  0  0
  -13.8110    7.6318   12.9216 O   0  0  0  0  0  0  0  0  0  0  0  0
  -14.3675    5.6291   13.9801 C   0  0  0  0  0  0  0  0  0  0  0  0
  -12.4567    6.9858   14.7942 C   0  0  0  0  0  0  0  0  0  0  0  0
  -11.9980    8.3881   15.0624 O   0  0  0  0  0  0  0  0  0  0  0  0
  1  2  1  1  0  0  0
  1  3  1  0  0  0  0
  1 10  1  0  0  0  0
  3  4  1  1  0  0  0
  3  5  1  0  0  0  0
  5  6  1  6  0  0  0
  5  7  1  0  0  0  0
  7  8  1  1  0  0  0
  7  9  1  0  0  0  0
  9 10  1  6  0  0  0
  9 11  1  0  0  0  0
 11 12  1  1  0  0  0
 11 13  1  0  0  0  0
 14 15  1  6  0  0  0
 14 16  1  0  0  0  0
 14 22  1  0  0  0  0
 16 17  1  0  0  0  0
 17 18  1  1  0  0  0
 17 19  1  0  0  0  0
 19  2  1  1  0  0  0
 19 20  1  0  0  0  0
 20 21  1  6  0  0  0
 20 22  1  0  0  0  0
 22 23  1  6  0  0  0
 24 23  1  1  0  0  0
 24 25  1  0  0  0  0
 24 34  1  0  0  0  0
 25 26  1  1  0  0  0
 25 27  1  0  0  0  0
 27 28  1  6  0  0  0
 27 30  1  0  0  0  0
 28 29  1  0  0  0  0
 30 31  1  6  0  0  0
 30 32  1  0  0  0  0
 30 33  1  0  0  0  0
 33 34  1  0  0  0  0
M  CHG  4   4   1  15   1  18   1  28   1
M  END
>  <CHROM.1>
-152.58705382,-160.73604427,-179.17097107,-158.05798043,58.94225405,54.84726691
172.22713182,63.04375099,-73.69327100,-179.96987604,107.59058833,-145.54429580
106.34370648,29.53995233,-55.65872327,-11.18134255,7.37952455,18.87682802
-0.21127554,0.81096502,-2.56881348

>  <Name>
1mwl

>  <RI>
0

>  <Rbt.Current_Directory>
/home/itssahil/PROJECTS/Mol_Feturizer/New_Systems/rnas/1mwl

>  <Rbt.Executable>
rbdock ($Id: //depot/dev/client3/rdock/2013.1/src/exe/rbdock.cxx#4 $)

>  <Rbt.Library>
libRbt.so (2013.1, Build901 2013/11/27)

>  <Rbt.Parameter_File>
/export/apps/rDock/src/rDock_2013.1_src/data/scripts/dock_solv.prm

>  <Rbt.Receptor>
prm/pocket_docking_4.prm

>  <SCORE>
-80.7373

>  <SCORE.INTER>
-66.8498

>  <SCORE.INTER.CONST>
1

>  <SCORE.INTER.POLAR>
-9.34393

>  <SCORE.INTER.ROT>
6

>  <SCORE.INTER.SOLV>
26.3713

>  <SCORE.INTER.VDW>
-29.8105

>  <SCORE.INTER.norm>
-1.96617

>  <SCORE.INTRA>
-13.8875

>  <SCORE.INTRA.DIHEDRAL>
-15.0244

>  <SCORE.INTRA.DIHEDRAL.0>
42.0816

>  <SCORE.INTRA.POLAR>
-0.912924

>  <SCORE.INTRA.POLAR.0>
-0.254682

>  <SCORE.INTRA.REPUL>
0

>  <SCORE.INTRA.REPUL.0>
0

>  <SCORE.INTRA.SOLV>
0.533866

>  <SCORE.INTRA.SOLV.lig_0>
-109.803

>  <SCORE.INTRA.VDW>
-3.53829

>  <SCORE.INTRA.VDW.0>
0.32176

>  <SCORE.INTRA.norm>
-0.408456

>  <SCORE.RESTR>
0

>  <SCORE.RESTR.CAVITY>
0

>  <SCORE.RESTR.norm>
0

>  <SCORE.SYSTEM>
0

>  <SCORE.SYSTEM.CONST>
0

>  <SCORE.SYSTEM.DIHEDRAL>
0

>  <SCORE.SYSTEM.SOLV>
0

>  <SCORE.SYSTEM.norm>
0

>  <SCORE.heavy>
34

>  <SCORE.norm>
-2.37463

>  <RMSD>
0.437

$$$$
1mwl
 OpenBabel11021811403D
libRbt.so/2013.1/901 2013/11/27
 34 36  0  0  0  0  0  0  0  0999 V2000
   -8.9717    5.8745   20.2201 C   0  0  2  0  0  0  0  0  0  0  0  0
  -10.0194    6.6476   20.7235 O   0  0  0  0  0  0  0  0  0  0  0  0
   -9.0198    4.4986   20.9422 C   0  0  2  0  0  0  0  0  0  0  0  0
  -10.3145    3.8511   20.7100 N   0  3  0  0  0  0  0  0  0  0  0  0
   -8.7313    4.6667   22.4628 C   0  0  1  0  0  0  0  0  0  0  0  0
   -8.7463    3.4668   23.0955 O   0  0  0  0  0  0  0  0  0  0  0  0
   -7.3431    5.3679   22.6327 C   0  0  2  0  0  0  0  0  0  0  0  0
   -7.0381    5.5312   24.0336 O   0  0  0  0  0  0  0  0  0  0  0  0
   -7.3959    6.7504   21.8980 C   0  0  2  0  0  0  0  0  0  0  0  0
   -7.7170    6.5594   20.4663 O   0  0  0  0  0  0  0  0  0  0  0  0
   -6.0923    7.5550   21.9543 C   0  0  2  0  0  0  0  0  0  0  0  0
   -5.0066    6.6982   21.8119 O   0  0  0  0  0  0  0  0  0  0  0  0
   -5.8834    8.2980   23.2865 C   0  0  0  0  0  0  0  0  0  0  0  0
  -12.8453    9.4859   19.2342 C   0  0  2  0  0  0  0  0  0  0  0  0
  -13.4137   10.6773   18.5540 N   0  3  0  0  0  0  0  0  0  0  0  0
  -11.9226    9.9133   20.4140 C   0  0  0  0  0  0  0  0  0  0  0  0
  -11.3119    8.6463   21.1153 C   0  0  2  0  0  0  0  0  0  0  0  0
  -10.4320    9.0912   22.2575 N   0  3  0  0  0  0  0  0  0  0  0  0
  -10.5129    7.8052   20.0616 C   0  0  2  0  0  0  0  0  0  0  0  0
  -11.4578    7.3888   18.9079 C   0  0  2  0  0  0  0  0  0  0  0  0
  -10.7222    6.6639   17.9521 O   0  0  0  0  0  0  0  0  0  0  0  0
  -12.0396    8.6507   18.2164 C   0  0  1  0  0  0  0  0  0  0  0  0
  -12.8999    8.2457   17.1617 O   0  0  0  0  0  0  0  0  0  0  0  0
  -12.8058    8.9030   15.9281 C   0  0  2  0  0  0  0  0  0  0  0  0
  -14.2297    9.0059   15.3495 C   0  0  2  0  0  0  0  0  0  0  0  0
  -15.0302    9.7652   16.2300 O   0  0  0  0  0  0  0  0  0  0  0  0
  -14.8150    7.5638   15.1680 C   0  0  1  0  0  0  0  0  0  0  0  0
  -16.2012    7.5762   14.6403 N   0  3  0  0  0  0  0  0  0  0  0  0
  -17.1769    7.8416   15.7283 C   0  0  0  0  0  0  0  0  0  0  0  0
  -13.8839    6.7476   14.2068 C   0  0  2  0  0  0  0  0  0  0  0  0
  -13.8159    7.3962   12.9230 O   0  0  0  0  0  0  0  0  0  0  0  0
  -14.3726    5.3979   13.9899 C   0  0  0  0  0  0  0  0  0  0  0  0
  -12.4263    6.7285   14.7619 C   0  0  0  0  0  0  0  0  0  0  0  0
  -11.9439    8.1243   15.0224 O   0  0  0  0  0  0  0  0  0  0  0  0
  1  2  1  1  0  0  0
  1  3  1  0  0  0  0
  1 10  1  0  0  0  0
  3  4  1  1  0  0  0
  3  5  1  0  0  0  0
  5  6  1  1  0  0  0
  5  7  1  0  0  0  0
  7  8  1  1  0  0  0
  7  9  1  0  0  0  0
  9 10  1  6  0  0  0
  9 11  1  0  0  0  0
 11 12  1  1  0  0  0
 11 13  1  0  0  0  0
 14 15  1  6  0  0  0
 14 16  1  0  0  0  0
 14 22  1  0  0  0  0
 16 17  1  0  0  0  0
 17 18  1  1  0  0  0
 17 19  1  0  0  0  0
 19  2  1  1  0  0  0
 19 20  1  0  0  0  0
 20 21  1  6  0  0  0
 20 22  1  0  0  0  0
 22 23  1  6  0  0  0
 24 23  1  1  0  0  0
 24 25  1  0  0  0  0
 24 34  1  0  0  0  0
 25 26  1  1  0  0  0
 25 27  1  0  0  0  0
 27 28  1  6  0  0  0
 27 30  1  0  0  0  0
 28 29  1  0  0  0  0
 30 31  1  6  0  0  0
 30 32  1  0  0  0  0
 30 33  1  0  0  0  0
 33 34  1  0  0  0  0
M  CHG  4   4   1  15   1  18   1  28   1
M  END
>  <CHROM.1>
-162.37591505,-161.41100652,-62.97843044,-82.89777135,59.54256566,39.24172878
178.19584341,174.74811122,50.11288934,177.74877404,104.29437699,-143.86976936
116.20062735,39.30710135,-58.41747833,-11.07596600,7.26714174,18.89226509
-0.19275546,0.80241489,-2.62814586

>  <Name>
1mwl

>  <RI>
0

>  <Rbt.Current_Directory>
/home/itssahil/PROJECTS/Mol_Feturizer/New_Systems/rnas/1mwl

>  <Rbt.Executable>
rbdock ($Id: //depot/dev/client3/rdock/2013.1/src/exe/rbdock.cxx#4 $)

>  <Rbt.Library>
libRbt.so (2013.1, Build901 2013/11/27)

>  <Rbt.Parameter_File>
/export/apps/rDock/src/rDock_2013.1_src/data/scripts/dock_solv.prm

>  <Rbt.Receptor>
prm/pocket_docking_5.prm

>  <SCORE>
-81.1196

>  <SCORE.INTER>
-66.662

>  <SCORE.INTER.CONST>
1

>  <SCORE.INTER.POLAR>
-9.37126

>  <SCORE.INTER.ROT>
6

>  <SCORE.INTER.SOLV>
26.1086

>  <SCORE.INTER.VDW>
-29.5067

>  <SCORE.INTER.norm>
-1.96065

>  <SCORE.INTRA>
-14.6151

>  <SCORE.INTRA.DIHEDRAL>
-16.0273

>  <SCORE.INTRA.DIHEDRAL.0>
42.0816

>  <SCORE.INTRA.POLAR>
-0.911985

>  <SCORE.INTRA.POLAR.0>
-0.254682

>  <SCORE.INTRA.REPUL>
0

>  <SCORE.INTRA.REPUL.0>
0

>  <SCORE.INTRA.SOLV>
0.610219

>  <SCORE.INTRA.SOLV.lig_0>
-109.803

>  <SCORE.INTRA.VDW>
-3.80586

>  <SCORE.INTRA.VDW.0>
0.32176

>  <SCORE.INTRA.norm>
-0.429857

>  <SCORE.RESTR>
0.157505

>  <SCORE.RESTR.CAVITY>
0.157505

>  <SCORE.RESTR.norm>
0.0046325

>  <SCORE.SYSTEM>
0

>  <SCORE.SYSTEM.CONST>
0

>  <SCORE.SYSTEM.DIHEDRAL>
0

>  <SCORE.SYSTEM.SOLV>
0

>  <SCORE.SYSTEM.norm>
0

>  <SCORE.heavy>
34

>  <SCORE.norm>
-2.38587

>  <RMSD>
0.439

$$$$
1mwl
 OpenBabel11021811403D
libRbt.so/2013.1/901 2013/11/27
 34 36  0  0  0  0  0  0  0  0999 V2000
   -9.0688    5.8445   20.2320 C   0  0  2  0  0  0  0  0  0  0  0  0
  -10.1089    6.6211   20.7456 O   0  0  0  0  0  0  0  0  0  0  0  0
   -9.0813    4.4884   20.9921 C   0  0  2  0  0  0  0  0  0  0  0  0
  -10.3757    3.8226   20.8163 N   0  3  0  0  0  0  0  0  0  0  0  0
   -8.7495    4.7005   22.4982 C   0  0  1  0  0  0  0  0  0  0  0  0
   -8.7334    3.5182   23.1632 O   0  0  0  0  0  0  0  0  0  0  0  0
   -7.3641    5.4191   22.6075 C   0  0  2  0  0  0  0  0  0  0  0  0
   -7.0193    5.6234   23.9937 O   0  0  0  0  0  0  0  0  0  0  0  0
   -7.4528    6.7806   21.8378 C   0  0  2  0  0  0  0  0  0  0  0  0
   -7.8143    6.5476   20.4220 O   0  0  0  0  0  0  0  0  0  0  0  0
   -6.1564    7.5986   21.8333 C   0  0  2  0  0  0  0  0  0  0  0  0
   -5.0634    6.7437   21.7456 O   0  0  0  0  0  0  0  0  0  0  0  0
   -5.9496    8.4333   23.1104 C   0  0  0  0  0  0  0  0  0  0  0  0
  -12.8700    9.5672   19.3472 C   0  0  2  0  0  0  0  0  0  0  0  0
  -13.4126   10.7859   18.6946 N   0  3  0  0  0  0  0  0  0  0  0  0
  -11.9155    9.9479   20.5176 C   0  0  0  0  0  0  0  0  0  0  0  0
  -11.3326    8.6520   21.1893 C   0  0  2  0  0  0  0  0  0  0  0  0
  -10.4209    9.0520   22.3231 N   0  3  0  0  0  0  0  0  0  0  0  0
  -10.5773    7.8034   20.1097 C   0  0  2  0  0  0  0  0  0  0  0  0
  -11.5533    7.4341   18.9660 C   0  0  2  0  0  0  0  0  0  0  0  0
  -10.8562    6.7021   17.9871 O   0  0  0  0  0  0  0  0  0  0  0  0
  -12.1073    8.7239   18.3034 C   0  0  1  0  0  0  0  0  0  0  0  0
  -12.9968    8.3618   17.2574 O   0  0  0  0  0  0  0  0  0  0  0  0
  -12.9053    9.0378   16.0338 C   0  0  2  0  0  0  0  0  0  0  0  0
  -14.3224    9.0999   15.4332 C   0  0  2  0  0  0  0  0  0  0  0  0
  -15.1623    9.8203   16.3097 O   0  0  0  0  0  0  0  0  0  0  0  0
  -14.8554    7.6414   15.2242 C   0  0  1  0  0  0  0  0  0  0  0  0
  -16.2326    7.6138   14.6740 N   0  3  0  0  0  0  0  0  0  0  0  0
  -17.2319    7.8743   15.7415 C   0  0  0  0  0  0  0  0  0  0  0  0
  -13.8819    6.8696   14.2684 C   0  0  2  0  0  0  0  0  0  0  0  0
  -13.8154    7.5367   12.9940 O   0  0  0  0  0  0  0  0  0  0  0  0
  -14.3208    5.5071   14.0268 C   0  0  0  0  0  0  0  0  0  0  0  0
  -12.4336    6.8926   14.8471 C   0  0  0  0  0  0  0  0  0  0  0  0
  -12.0031    8.3004   15.1328 O   0  0  0  0  0  0  0  0  0  0  0  0
  1  2  1  1  0  0  0
  1  3  1  0  0  0  0
  1 10  1  0  0  0  0
  3  4  1  1  0  0  0
  3  5  1  0  0  0  0
  5  6  1  1  0  0  0
  5  7  1  0  0  0  0
  7  8  1  1  0  0  0
  7  9  1  0  0  0  0
  9 10  1  6  0  0  0
  9 11  1  0  0  0  0
 11 12  1  1  0  0  0
 11 13  1  0  0  0  0
 14 15  1  6  0  0  0
 14 16  1  0  0  0  0
 14 22  1  0  0  0  0
 16 17  1  0  0  0  0
 17 18  1  1  0  0  0
 17 19  1  0  0  0  0
 19  2  1  1  0  0  0
 19 20  1  0  0  0  0
 20 21  1  6  0  0  0
 20 22  1  0  0  0  0
 22 23  1  6  0  0  0
 24 23  1  1  0  0  0
 24 25  1  0  0  0  0
 24 34  1  0  0  0  0
 25 26  1  1  0  0  0
 25 27  1  0  0  0  0
 27 28  1  6  0  0  0
 27 30  1  0  0  0  0
 28 29  1  0  0  0  0
 30 31  1  6  0  0  0
 30 32  1  0  0  0  0
 30 33  1  0  0  0  0
 33 34  1  0  0  0  0
M  CHG  4   4   1  15   1  18   1  28   1
M  END
>  <CHROM.1>
-166.45253542,-159.58436958,65.62072814,-73.48758875,-51.81427632,36.42036518
-177.27427918,-179.65522430,174.80808520,-55.42833797,104.10667340,-147.92865647
-71.75624198,41.08312208,-53.25650013,-11.12130784,7.32686231,18.93487080
-0.18169846,0.79979963,-2.63172920

>  <Name>
1mwl

>  <RI>
0

>  <Rbt.Current_Directory>
/home/itssahil/PROJECTS/Mol_Feturizer/New_Systems/rnas/1mwl

>  <Rbt.Executable>
rbdock ($Id: //depot/dev/client3/rdock/2013.1/src/exe/rbdock.cxx#4 $)

>  <Rbt.Library>
libRbt.so (2013.1, Build901 2013/11/27)

>  <Rbt.Parameter_File>
/export/apps/rDock/src/rDock_2013.1_src/data/scripts/dock_solv.prm

>  <Rbt.Receptor>
prm/pocket_docking_2.prm

>  <SCORE>
-79.0423

>  <SCORE.INTER>
-63.4058

>  <SCORE.INTER.CONST>
1

>  <SCORE.INTER.POLAR>
-8.88693

>  <SCORE.INTER.ROT>
6

>  <SCORE.INTER.SOLV>
26.0956

>  <SCORE.INTER.VDW>
-28.946

>  <SCORE.INTER.norm>
-1.86488

>  <SCORE.INTRA>
-15.7615

>  <SCORE.INTRA.DIHEDRAL>
-24.242

>  <SCORE.INTRA.DIHEDRAL.0>
42.0816

>  <SCORE.INTRA.POLAR>
-0.17296

>  <SCORE.INTRA.POLAR.0>
-0.254682

>  <SCORE.INTRA.REPUL>
0

>  <SCORE.INTRA.REPUL.0>
0

>  <SCORE.INTRA.SOLV>
0.303934

>  <SCORE.INTRA.SOLV.lig_0>
-109.803

>  <SCORE.INTRA.VDW>
-3.20439

>  <SCORE.INTRA.VDW.0>
0.32176

>  <SCORE.INTRA.norm>
-0.463573

>  <SCORE.RESTR>
0.125029

>  <SCORE.RESTR.CAVITY>
0.125029

>  <SCORE.RESTR.norm>
0.00367732

>  <SCORE.SYSTEM>
0

>  <SCORE.SYSTEM.CONST>
0

>  <SCORE.SYSTEM.DIHEDRAL>
0

>  <SCORE.SYSTEM.SOLV>
0

>  <SCORE.SYSTEM.norm>
0

>  <SCORE.heavy>
34

>  <SCORE.norm>
-2.32477

>  <RMSD>
0.442

$$$$
1mwl
 OpenBabel11021811403D
libRbt.so/2013.1/901 2013/11/27
 34 36  0  0  0  0  0  0  0  0999 V2000
   -9.1680    5.9851   20.2545 C   0  0  2  0  0  0  0  0  0  0  0  0
  -10.1187    6.8392   20.8160 O   0  0  0  0  0  0  0  0  0  0  0  0
   -9.2586    4.6283   21.0079 C   0  0  2  0  0  0  0  0  0  0  0  0
  -10.6091    4.0711   20.8848 N   0  3  0  0  0  0  0  0  0  0  0  0
   -8.8468    4.8004   22.4994 C   0  0  1  0  0  0  0  0  0  0  0  0
   -8.8988    3.6153   23.1574 O   0  0  0  0  0  0  0  0  0  0  0  0
   -7.4042    5.4034   22.5523 C   0  0  2  0  0  0  0  0  0  0  0  0
   -6.9854    5.5676   23.9234 O   0  0  0  0  0  0  0  0  0  0  0  0
   -7.4145    6.7738   21.7936 C   0  0  2  0  0  0  0  0  0  0  0  0
   -7.8536    6.5826   20.3936 O   0  0  0  0  0  0  0  0  0  0  0  0
   -6.0573    7.4842   21.7373 C   0  0  2  0  0  0  0  0  0  0  0  0
   -5.0505    6.5530   21.5078 O   0  0  0  0  0  0  0  0  0  0  0  0
   -5.6853    8.2079   23.0442 C   0  0  0  0  0  0  0  0  0  0  0  0
  -12.9519    9.6477   19.2847 C   0  0  2  0  0  0  0  0  0  0  0  0
  -13.5227   10.8325   18.5949 N   0  3  0  0  0  0  0  0  0  0  0  0
  -12.0492   10.0859   20.4759 C   0  0  0  0  0  0  0  0  0  0  0  0
  -11.4356    8.8259   21.1874 C   0  0  2  0  0  0  0  0  0  0  0  0
  -10.5754    9.2810   22.3404 N   0  3  0  0  0  0  0  0  0  0  0  0
  -10.6146    7.9910   20.1457 C   0  0  2  0  0  0  0  0  0  0  0  0
  -11.5400    7.5637   18.9803 C   0  0  2  0  0  0  0  0  0  0  0  0
  -10.7847    6.8446   18.0355 O   0  0  0  0  0  0  0  0  0  0  0  0
  -12.1247    8.8189   18.2790 C   0  0  1  0  0  0  0  0  0  0  0  0
  -12.9669    8.4040   17.2136 O   0  0  0  0  0  0  0  0  0  0  0  0
  -12.8638    9.0613   15.9808 C   0  0  2  0  0  0  0  0  0  0  0  0
  -14.2781    9.1306   15.3744 C   0  0  2  0  0  0  0  0  0  0  0  0
  -15.1127    9.8728   16.2376 O   0  0  0  0  0  0  0  0  0  0  0  0
  -14.8267    7.6754   15.1844 C   0  0  1  0  0  0  0  0  0  0  0  0
  -16.2023    7.6552   14.6299 N   0  3  0  0  0  0  0  0  0  0  0  0
  -17.2102    7.7450   15.7171 C   0  0  0  0  0  0  0  0  0  0  0  0
  -13.8587    6.8791   14.2431 C   0  0  2  0  0  0  0  0  0  0  0  0
  -13.7805    7.5271   12.9596 O   0  0  0  0  0  0  0  0  0  0  0  0
  -14.3121    5.5183   14.0195 C   0  0  0  0  0  0  0  0  0  0  0  0
  -12.4122    6.8942   14.8265 C   0  0  0  0  0  0  0  0  0  0  0  0
  -11.9669    8.3011   15.0936 O   0  0  0  0  0  0  0  0  0  0  0  0
  1  2  1  1  0  0  0
  1  3  1  0  0  0  0
  1 10  1  0  0  0  0
  3  4  1  1  0  0  0
  3  5  1  0  0  0  0
  5  6  1  6  0  0  0
  5  7  1  0  0  0  0
  7  8  1  1  0  0  0
  7  9  1  0  0  0  0
  9 10  1  6  0  0  0
  9 11  1  0  0  0  0
 11 12  1  1  0  0  0
 11 13  1  0  0  0  0
 14 15  1  6  0  0  0
 14 16  1  0  0  0  0
 14 22  1  0  0  0  0
 16 17  1  0  0  0  0
 17 18  1  1  0  0  0
 17 19  1  0  0  0  0
 19  2  1  1  0  0  0
 19 20  1  0  0  0  0
 20 21  1  6  0  0  0
 20 22  1  0  0  0  0
 22 23  1  6  0  0  0
 24 23  1  1  0  0  0
 24 25  1  0  0  0  0
 24 34  1  0  0  0  0
 25 26  1  1  0  0  0
 25 27  1  0  0  0  0
 27 28  1  6  0  0  0
 27 30  1  0  0  0  0
 28 29  1  0  0  0  0
 30 31  1  6  0  0  0
 30 32  1  0  0  0  0
 30 33  1  0  0  0  0
 33 34  1  0  0  0  0
M  CHG  4   4   1  15   1  18   1  28   1
M  END
>  <CHROM.1>
-159.96030125,-169.28677777,177.37892214,-175.56612508,167.90170497,40.43225285
129.19433472,179.72382370,-70.29626993,-177.63591673,104.22263886,-144.66350755
113.66775151,32.85826250,60.61807267,-11.13447503,7.37985984,18.90133404
-0.23255787,0.78946096,-2.55495169

>  <Name>
1mwl

>  <RI>
0

>  <Rbt.Current_Directory>
/home/itssahil/PROJECTS/Mol_Feturizer/New_Systems/rnas/1mwl

>  <Rbt.Executable>
rbdock ($Id: //depot/dev/client3/rdock/2013.1/src/exe/rbdock.cxx#4 $)

>  <Rbt.Library>
libRbt.so (2013.1, Build901 2013/11/27)

>  <Rbt.Parameter_File>
/export/apps/rDock/src/rDock_2013.1_src/data/scripts/dock_solv.prm

>  <Rbt.Receptor>
prm/pocket_docking_4.prm

>  <SCORE>
-80.088

>  <SCORE.INTER>
-66.9986

>  <SCORE.INTER.CONST>
1

>  <SCORE.INTER.POLAR>
-9.88437

>  <SCORE.INTER.ROT>
6

>  <SCORE.INTER.SOLV>
26.9642

>  <SCORE.INTER.VDW>
-28.3059

>  <SCORE.INTER.norm>
-1.97055

>  <SCORE.INTRA>
-13.0894

>  <SCORE.INTRA.DIHEDRAL>
-11.3761

>  <SCORE.INTRA.DIHEDRAL.0>
42.0816

>  <SCORE.INTRA.POLAR>
-0.916286

>  <SCORE.INTRA.POLAR.0>
-0.254682

>  <SCORE.INTRA.REPUL>
0

>  <SCORE.INTRA.REPUL.0>
0

>  <SCORE.INTRA.SOLV>
-0.862991

>  <SCORE.INTRA.SOLV.lig_0>
-109.803

>  <SCORE.INTRA.VDW>
-3.8545

>  <SCORE.INTRA.VDW.0>
0.32176

>  <SCORE.INTRA.norm>
-0.384982

>  <SCORE.RESTR>
0

>  <SCORE.RESTR.CAVITY>
0

>  <SCORE.RESTR.norm>
0

>  <SCORE.SYSTEM>
0

>  <SCORE.SYSTEM.CONST>
0

>  <SCORE.SYSTEM.DIHEDRAL>
0

>  <SCORE.SYSTEM.SOLV>
0

>  <SCORE.SYSTEM.norm>
0

>  <SCORE.heavy>
34

>  <SCORE.norm>
-2.35553

>  <RMSD>
0.443

$$$$
1mwl
 OpenBabel11021811403D
libRbt.so/2013.1/901 2013/11/27
 34 36  0  0  0  0  0  0  0  0999 V2000
   -9.0197    5.9272   20.2386 C   0  0  2  0  0  0  0  0  0  0  0  0
  -10.0638    6.6920   20.7618 O   0  0  0  0  0  0  0  0  0  0  0  0
   -9.0605    4.5412   20.9416 C   0  0  2  0  0  0  0  0  0  0  0  0
  -10.3565    3.8957   20.7113 N   0  3  0  0  0  0  0  0  0  0  0  0
   -8.7592    4.6881   22.4619 C   0  0  1  0  0  0  0  0  0  0  0  0
   -8.7677    3.4794   23.0777 O   0  0  0  0  0  0  0  0  0  0  0  0
   -7.3703    5.3882   22.6299 C   0  0  2  0  0  0  0  0  0  0  0  0
   -7.0535    5.5321   24.0304 O   0  0  0  0  0  0  0  0  0  0  0  0
   -7.4305    6.7809   21.9154 C   0  0  2  0  0  0  0  0  0  0  0  0
   -7.7635    6.6098   20.4839 O   0  0  0  0  0  0  0  0  0  0  0  0
   -6.1273    7.5860   21.9720 C   0  0  2  0  0  0  0  0  0  0  0  0
   -5.0612    6.7788   21.5911 O   0  0  0  0  0  0  0  0  0  0  0  0
   -5.7884    8.1126   23.3785 C   0  0  0  0  0  0  0  0  0  0  0  0
  -12.8712    9.5966   19.3685 C   0  0  2  0  0  0  0  0  0  0  0  0
  -13.4326   10.8094   18.7209 N   0  3  0  0  0  0  0  0  0  0  0  0
  -11.9288    9.9872   20.5456 C   0  0  0  0  0  0  0  0  0  0  0  0
  -11.3258    8.6979   21.2121 C   0  0  2  0  0  0  0  0  0  0  0  0
  -10.4264    9.1072   22.3524 N   0  3  0  0  0  0  0  0  0  0  0  0
  -10.5505    7.8696   20.1308 C   0  0  2  0  0  0  0  0  0  0  0  0
  -11.5147    7.4898   18.9805 C   0  0  2  0  0  0  0  0  0  0  0  0
  -10.8001    6.7764   18.0004 O   0  0  0  0  0  0  0  0  0  0  0  0
  -12.0888    8.7735   18.3232 C   0  0  1  0  0  0  0  0  0  0  0  0
  -12.9670    8.4019   17.2710 O   0  0  0  0  0  0  0  0  0  0  0  0
  -12.8577    9.0621   16.0402 C   0  0  2  0  0  0  0  0  0  0  0  0
  -14.2726    9.1543   15.4382 C   0  0  2  0  0  0  0  0  0  0  0  0
  -15.0938    9.9055   16.3064 O   0  0  0  0  0  0  0  0  0  0  0  0
  -14.8430    7.7079   15.2445 C   0  0  1  0  0  0  0  0  0  0  0  0
  -16.2202    7.7099   14.6939 N   0  3  0  0  0  0  0  0  0  0  0  0
  -17.2175    7.9433   15.7696 C   0  0  0  0  0  0  0  0  0  0  0  0
  -13.8894    6.9009   14.2976 C   0  0  2  0  0  0  0  0  0  0  0  0
  -13.8053    7.5524   13.0163 O   0  0  0  0  0  0  0  0  0  0  0  0
  -14.3632    5.5477   14.0705 C   0  0  0  0  0  0  0  0  0  0  0  0
  -12.4411    6.8929   14.8769 C   0  0  0  0  0  0  0  0  0  0  0  0
  -11.9745    8.2921   15.1477 O   0  0  0  0  0  0  0  0  0  0  0  0
  1  2  1  1  0  0  0
  1  3  1  0  0  0  0
  1 10  1  0  0  0  0
  3  4  1  1  0  0  0
  3  5  1  0  0  0  0
  5  6  1  6  0  0  0
  5  7  1  0  0  0  0
  7  8  1  1  0  0  0
  7  9  1  0  0  0  0
  9 10  1  6  0  0  0
  9 11  1  0  0  0  0
 11 12  1  1  0  0  0
 11 13  1  0  0  0  0
 14 15  1  6  0  0  0
 14 16  1  0  0  0  0
 14 22  1  0  0  0  0
 16 17  1  0  0  0  0
 17 18  1  1  0  0  0
 17 19  1  0  0  0  0
 19  2  1  1  0  0  0
 19 20  1  0  0  0  0
 20 21  1  6  0  0  0
 20 22  1  0  0  0  0
 22 23  1  6  0  0  0
 24 23  1  1  0  0  0
 24 25  1  0  0  0  0
 24 34  1  0  0  0  0
 25 26  1  1  0  0  0
 25 27  1  0  0  0  0
 27 28  1  6  0  0  0
 27 30  1  0  0  0  0
 28 29  1  0  0  0  0
 30 31  1  6  0  0  0
 30 32  1  0  0  0  0
 30 33  1  0  0  0  0
 33 34  1  0  0  0  0
M  CHG  4   4   1  15   1  18   1  28   1
M  END
>  <CHROM.1>
-163.35183364,-160.48704130,-54.52814224,-76.44294005,-58.01043238,49.00562891
176.89683240,66.52132696,53.33187162,-57.15782360,105.81874887,-146.51227363
110.11054370,38.38675192,-176.07161445,-11.09974517,7.35283779,18.94814546
-0.20174696,0.79688442,-2.59498800

>  <Name>
1mwl

>  <RI>
0

>  <Rbt.Current_Directory>
/home/itssahil/PROJECTS/Mol_Feturizer/New_Systems/rnas/1mwl

>  <Rbt.Executable>
rbdock ($Id: //depot/dev/client3/rdock/2013.1/src/exe/rbdock.cxx#4 $)

>  <Rbt.Library>
libRbt.so (2013.1, Build901 2013/11/27)

>  <Rbt.Parameter_File>
/export/apps/rDock/src/rDock_2013.1_src/data/scripts/dock_solv.prm

>  <Rbt.Receptor>
prm/pocket_docking_7.prm

>  <SCORE>
-89.1449

>  <SCORE.INTER>
-73.4871

>  <SCORE.INTER.CONST>
1

>  <SCORE.INTER.POLAR>
-10.7763

>  <SCORE.INTER.ROT>
6

>  <SCORE.INTER.SOLV>
26.7529

>  <SCORE.INTER.VDW>
-29.588

>  <SCORE.INTER.norm>
-2.16139

>  <SCORE.INTRA>
-15.6578

>  <SCORE.INTRA.DIHEDRAL>
-18.5424

>  <SCORE.INTRA.DIHEDRAL.0>
42.0816

>  <SCORE.INTRA.POLAR>
-0.921033

>  <SCORE.INTRA.POLAR.0>
-0.254682

>  <SCORE.INTRA.REPUL>
0

>  <SCORE.INTRA.REPUL.0>
0

>  <SCORE.INTRA.SOLV>
-0.429912

>  <SCORE.INTRA.SOLV.lig_0>
-109.803

>  <SCORE.INTRA.VDW>
-3.04016

>  <SCORE.INTRA.VDW.0>
0.32176

>  <SCORE.INTRA.norm>
-0.460524

>  <SCORE.RESTR>
0

>  <SCORE.RESTR.CAVITY>
0

>  <SCORE.RESTR.norm>
0

>  <SCORE.SYSTEM>
0

>  <SCORE.SYSTEM.CONST>
0

>  <SCORE.SYSTEM.DIHEDRAL>
0

>  <SCORE.SYSTEM.SOLV>
0

>  <SCORE.SYSTEM.norm>
0

>  <SCORE.heavy>
34

>  <SCORE.norm>
-2.62191

>  <RMSD>
0.444

$$$$
1mwl
 OpenBabel11021811403D
libRbt.so/2013.1/901 2013/11/27
 34 36  0  0  0  0  0  0  0  0999 V2000
   -8.9065    6.3396   20.3082 C   0  0  2  0  0  0  0  0  0  0  0  0
  -10.0728    6.9763   20.7360 O   0  0  0  0  0  0  0  0  0  0  0  0
   -9.1375    4.8078   20.4396 C   0  0  2  0  0  0  0  0  0  0  0  0
  -10.2905    4.3996   19.6312 N   0  3  0  0  0  0  0  0  0  0  0  0
   -9.3176    4.4062   21.9328 C   0  0  1  0  0  0  0  0  0  0  0  0
   -9.4942    3.0670   22.0576 O   0  0  0  0  0  0  0  0  0  0  0  0
   -8.0581    4.8781   22.7318 C   0  0  2  0  0  0  0  0  0  0  0  0
   -8.1868    4.5125   24.1218 O   0  0  0  0  0  0  0  0  0  0  0  0
   -7.9198    6.4293   22.5631 C   0  0  2  0  0  0  0  0  0  0  0  0
   -7.7966    6.7813   21.1312 O   0  0  0  0  0  0  0  0  0  0  0  0
   -6.7095    7.0449   23.2744 C   0  0  2  0  0  0  0  0  0  0  0  0
   -6.8331    8.4296   23.2958 O   0  0  0  0  0  0  0  0  0  0  0  0
   -5.3679    6.7425   22.5823 C   0  0  0  0  0  0  0  0  0  0  0  0
  -13.0057    9.7151   19.2674 C   0  0  2  0  0  0  0  0  0  0  0  0
  -13.6192   10.8916   18.6004 N   0  3  0  0  0  0  0  0  0  0  0  0
  -12.1100   10.1633   20.4602 C   0  0  0  0  0  0  0  0  0  0  0  0
  -11.4511    8.9129   21.1474 C   0  0  2  0  0  0  0  0  0  0  0  0
  -10.5986    9.3773   22.3025 N   0  3  0  0  0  0  0  0  0  0  0  0
  -10.6102    8.1219   20.0874 C   0  0  2  0  0  0  0  0  0  0  0  0
  -11.5288    7.6834   18.9208 C   0  0  2  0  0  0  0  0  0  0  0  0
  -10.7568    7.0044   17.9601 O   0  0  0  0  0  0  0  0  0  0  0  0
  -12.1586    8.9299   18.2435 C   0  0  1  0  0  0  0  0  0  0  0  0
  -12.9939    8.5048   17.1766 O   0  0  0  0  0  0  0  0  0  0  0  0
  -12.9162    9.1812   15.9523 C   0  0  2  0  0  0  0  0  0  0  0  0
  -14.3356    9.2198   15.3549 C   0  0  2  0  0  0  0  0  0  0  0  0
  -15.1850    9.9271   16.2329 O   0  0  0  0  0  0  0  0  0  0  0  0
  -14.8452    7.7526   15.1482 C   0  0  1  0  0  0  0  0  0  0  0  0
  -16.2230    7.7022   14.6013 N   0  3  0  0  0  0  0  0  0  0  0  0
  -17.2268    7.7905   15.6925 C   0  0  0  0  0  0  0  0  0  0  0  0
  -13.8614    6.9960   14.1908 C   0  0  2  0  0  0  0  0  0  0  0  0
  -13.8087    7.6631   12.9158 O   0  0  0  0  0  0  0  0  0  0  0  0
  -14.2787    5.6264   13.9512 C   0  0  0  0  0  0  0  0  0  0  0  0
  -12.4123    7.0431   14.7661 C   0  0  0  0  0  0  0  0  0  0  0  0
  -12.0041    8.4579   15.0498 O   0  0  0  0  0  0  0  0  0  0  0  0
  1  2  1  1  0  0  0
  1  3  1  0  0  0  0
  1 10  1  0  0  0  0
  3  4  1  6  0  0  0
  3  5  1  0  0  0  0
  5  6  1  6  0  0  0
  5  7  1  0  0  0  0
  7  8  1  1  0  0  0
  7  9  1  0  0  0  0
  9 10  1  6  0  0  0
  9 11  1  0  0  0  0
 11 12  1  6  0  0  0
 11 13  1  0  0  0  0
 14 15  1  6  0  0  0
 14 16  1  0  0  0  0
 14 22  1  0  0  0  0
 16 17  1  0  0  0  0
 17 18  1  1  0  0  0
 17 19  1  0  0  0  0
 19  2  1  1  0  0  0
 19 20  1  0  0  0  0
 20 21  1  6  0  0  0
 20 22  1  0  0  0  0
 22 23  1  6  0  0  0
 24 23  1  1  0  0  0
 24 25  1  0  0  0  0
 24 34  1  0  0  0  0
 25 26  1  1  0  0  0
 25 27  1  0  0  0  0
 27 28  1  6  0  0  0
 27 30  1  0  0  0  0
 28 29  1  0  0  0  0
 30 31  1  6  0  0  0
 30 32  1  0  0  0  0
 30 33  1  0  0  0  0
 33 34  1  0  0  0  0
M  CHG  4   4   1  15   1  18   1  28   1
M  END
>  <CHROM.1>
-139.99211911,-154.44475586,144.02928805,-177.32207407,178.23786391,-167.73943756
175.16476059,59.23080714,44.19543801,-54.17071719,104.48367532,-144.55422671
-77.47980609,34.55436916,-57.01519298,-11.29824528,7.39483123,18.91506699
-0.17986877,0.85286354,-2.63067363

>  <Name>
1mwl

>  <RI>
0

>  <Rbt.Current_Directory>
/home/itssahil/PROJECTS/Mol_Feturizer/New_Systems/rnas/1mwl

>  <Rbt.Executable>
rbdock ($Id: //depot/dev/client3/rdock/2013.1/src/exe/rbdock.cxx#4 $)

>  <Rbt.Library>
libRbt.so (2013.1, Build901 2013/11/27)

>  <Rbt.Parameter_File>
/export/apps/rDock/src/rDock_2013.1_src/data/scripts/dock_solv.prm

>  <Rbt.Receptor>
prm/pocket_docking_7.prm

>  <SCORE>
-76.736

>  <SCORE.INTER>
-61.838

>  <SCORE.INTER.CONST>
1

>  <SCORE.INTER.POLAR>
-8.53554

>  <SCORE.INTER.ROT>
6

>  <SCORE.INTER.SOLV>
24.7582

>  <SCORE.INTER.VDW>
-28.6262

>  <SCORE.INTER.norm>
-1.81876

>  <SCORE.INTRA>
-14.898

>  <SCORE.INTRA.DIHEDRAL>
-16.4807

>  <SCORE.INTRA.DIHEDRAL.0>
42.0816

>  <SCORE.INTRA.POLAR>
-1.42958

>  <SCORE.INTRA.POLAR.0>
-0.254682

>  <SCORE.INTRA.REPUL>
0

>  <SCORE.INTRA.REPUL.0>
0

>  <SCORE.INTRA.SOLV>
1.43304

>  <SCORE.INTRA.SOLV.lig_0>
-109.803

>  <SCORE.INTRA.VDW>
-2.5136

>  <SCORE.INTRA.VDW.0>
0.32176

>  <SCORE.INTRA.norm>
-0.438177

>  <SCORE.RESTR>
0

>  <SCORE.RESTR.CAVITY>
0

>  <SCORE.RESTR.norm>
0

>  <SCORE.SYSTEM>
0

>  <SCORE.SYSTEM.CONST>
0

>  <SCORE.SYSTEM.DIHEDRAL>
0

>  <SCORE.SYSTEM.SOLV>
0

>  <SCORE.SYSTEM.norm>
0

>  <SCORE.heavy>
34

>  <SCORE.norm>
-2.25694

>  <RMSD>
0.454

$$$$
1mwl
 OpenBabel11021811403D
libRbt.so/2013.1/901 2013/11/27
 34 36  0  0  0  0  0  0  0  0999 V2000
   -9.1702    5.9753   20.2590 C   0  0  2  0  0  0  0  0  0  0  0  0
  -10.1210    6.8231   20.8297 O   0  0  0  0  0  0  0  0  0  0  0  0
   -9.2545    4.6132   21.0035 C   0  0  2  0  0  0  0  0  0  0  0  0
  -10.6040    4.0534   20.8815 N   0  3  0  0  0  0  0  0  0  0  0  0
   -8.8378    4.7762   22.4946 C   0  0  1  0  0  0  0  0  0  0  0  0
   -8.8843    3.5865   23.1448 O   0  0  0  0  0  0  0  0  0  0  0  0
   -7.3966    5.3826   22.5465 C   0  0  2  0  0  0  0  0  0  0  0  0
   -6.9732    5.5386   23.9171 O   0  0  0  0  0  0  0  0  0  0  0  0
   -7.4131    6.7581   21.7971 C   0  0  2  0  0  0  0  0  0  0  0  0
   -7.8568    6.5752   20.3975 O   0  0  0  0  0  0  0  0  0  0  0  0
   -6.0579    7.4723   21.7407 C   0  0  2  0  0  0  0  0  0  0  0  0
   -5.0473    6.5425   21.5226 O   0  0  0  0  0  0  0  0  0  0  0  0
   -5.6936    8.2074   23.0435 C   0  0  0  0  0  0  0  0  0  0  0  0
  -12.9441    9.6736   19.3587 C   0  0  2  0  0  0  0  0  0  0  0  0
  -13.5115   10.8692   18.6848 N   0  3  0  0  0  0  0  0  0  0  0  0
  -12.0183   10.0940   20.5386 C   0  0  0  0  0  0  0  0  0  0  0  0
  -11.4087    8.8227   21.2330 C   0  0  2  0  0  0  0  0  0  0  0  0
  -10.5257    9.2608   22.3754 N   0  3  0  0  0  0  0  0  0  0  0  0
  -10.6135    7.9846   20.1739 C   0  0  2  0  0  0  0  0  0  0  0  0
  -11.5616    7.5752   19.0204 C   0  0  2  0  0  0  0  0  0  0  0  0
  -10.8293    6.8531   18.0599 O   0  0  0  0  0  0  0  0  0  0  0  0
  -12.1422    8.8414   18.3355 C   0  0  1  0  0  0  0  0  0  0  0  0
  -13.0054    8.4428   17.2808 O   0  0  0  0  0  0  0  0  0  0  0  0
  -12.9062    9.0993   16.0472 C   0  0  2  0  0  0  0  0  0  0  0  0
  -14.3210    9.1595   15.4408 C   0  0  2  0  0  0  0  0  0  0  0  0
  -15.1600    9.8977   16.3032 O   0  0  0  0  0  0  0  0  0  0  0  0
  -14.8609    7.7007   15.2525 C   0  0  1  0  0  0  0  0  0  0  0  0
  -16.2363    7.6717   14.6981 N   0  3  0  0  0  0  0  0  0  0  0  0
  -17.2438    7.8133   15.7801 C   0  0  0  0  0  0  0  0  0  0  0  0
  -13.8882    6.9091   14.3121 C   0  0  2  0  0  0  0  0  0  0  0  0
  -13.8138    7.5561   13.0279 O   0  0  0  0  0  0  0  0  0  0  0  0
  -14.3334    5.5454   14.0901 C   0  0  0  0  0  0  0  0  0  0  0  0
  -12.4417    6.9336   14.8955 C   0  0  0  0  0  0  0  0  0  0  0  0
  -12.0048    8.3434   15.1609 O   0  0  0  0  0  0  0  0  0  0  0  0
  1  2  1  1  0  0  0
  1  3  1  0  0  0  0
  1 10  1  0  0  0  0
  3  4  1  1  0  0  0
  3  5  1  0  0  0  0
  5  6  1  6  0  0  0
  5  7  1  0  0  0  0
  7  8  1  1  0  0  0
  7  9  1  0  0  0  0
  9 10  1  6  0  0  0
  9 11  1  0  0  0  0
 11 12  1  1  0  0  0
 11 13  1  0  0  0  0
 14 15  1  6  0  0  0
 14 16  1  0  0  0  0
 14 22  1  0  0  0  0
 16 17  1  0  0  0  0
 17 18  1  1  0  0  0
 17 19  1  0  0  0  0
 19  2  1  1  0  0  0
 19 20  1  0  0  0  0
 20 21  1  6  0  0  0
 20 22  1  0  0  0  0
 22 23  1  6  0  0  0
 24 23  1  1  0  0  0
 24 25  1  0  0  0  0
 24 34  1  0  0  0  0
 25 26  1  1  0  0  0
 25 27  1  0  0  0  0
 27 28  1  6  0  0  0
 27 30  1  0  0  0  0
 28 29  1  0  0  0  0
 30 31  1  6  0  0  0
 30 32  1  0  0  0  0
 30 33  1  0  0  0  0
 33 34  1  0  0  0  0
M  CHG  4   4   1  15   1  18   1  28   1
M  END
>  <CHROM.1>
-160.53230133,-168.03326974,66.51589776,-174.07026552,171.14292718,39.48751880
131.48533151,-57.01314337,169.33176658,-179.63445312,104.71565388,-146.23152508
105.16976710,35.20465610,-53.89642872,-11.14689145,7.38649932,18.93781510
-0.21517028,0.78614434,-2.56936787

>  <Name>
1mwl

>  <RI>
0

>  <Rbt.Current_Directory>
/home/itssahil/PROJECTS/Mol_Feturizer/New_Systems/rnas/1mwl

>  <Rbt.Executable>
rbdock ($Id: //depot/dev/client3/rdock/2013.1/src/exe/rbdock.cxx#4 $)

>  <Rbt.Library>
libRbt.so (2013.1, Build901 2013/11/27)

>  <Rbt.Parameter_File>
/export/apps/rDock/src/rDock_2013.1_src/data/scripts/dock_solv.prm

>  <Rbt.Receptor>
prm/pocket_docking_4.prm

>  <SCORE>
-79.9487

>  <SCORE.INTER>
-66.8414

>  <SCORE.INTER.CONST>
1

>  <SCORE.INTER.POLAR>
-9.80943

>  <SCORE.INTER.ROT>
6

>  <SCORE.INTER.SOLV>
26.66

>  <SCORE.INTER.VDW>
-28.3495

>  <SCORE.INTER.norm>
-1.96592

>  <SCORE.INTRA>
-13.1073

>  <SCORE.INTRA.DIHEDRAL>
-12.6199

>  <SCORE.INTRA.DIHEDRAL.0>
42.0816

>  <SCORE.INTRA.POLAR>
-0.801626

>  <SCORE.INTRA.POLAR.0>
-0.254682

>  <SCORE.INTRA.REPUL>
0

>  <SCORE.INTRA.REPUL.0>
0

>  <SCORE.INTRA.SOLV>
-0.402186

>  <SCORE.INTRA.SOLV.lig_0>
-109.803

>  <SCORE.INTRA.VDW>
-3.87073

>  <SCORE.INTRA.VDW.0>
0.32176

>  <SCORE.INTRA.norm>
-0.385509

>  <SCORE.RESTR>
0

>  <SCORE.RESTR.CAVITY>
0

>  <SCORE.RESTR.norm>
0

>  <SCORE.SYSTEM>
0

>  <SCORE.SYSTEM.CONST>
0

>  <SCORE.SYSTEM.DIHEDRAL>
0

>  <SCORE.SYSTEM.SOLV>
0

>  <SCORE.SYSTEM.norm>
0

>  <SCORE.heavy>
34

>  <SCORE.norm>
-2.35143

>  <RMSD>
0.456

$$$$
1mwl
 OpenBabel11021811403D
libRbt.so/2013.1/901 2013/11/27
 34 36  0  0  0  0  0  0  0  0999 V2000
   -8.9376    5.9588   20.3400 C   0  0  2  0  0  0  0  0  0  0  0  0
  -10.0074    6.7199   20.8144 O   0  0  0  0  0  0  0  0  0  0  0  0
   -8.9619    4.6002   21.0953 C   0  0  2  0  0  0  0  0  0  0  0  0
  -10.2394    3.9179   20.8670 N   0  3  0  0  0  0  0  0  0  0  0  0
   -8.6924    4.8118   22.6139 C   0  0  1  0  0  0  0  0  0  0  0  0
   -8.6867    3.6277   23.2758 O   0  0  0  0  0  0  0  0  0  0  0  0
   -7.3221    5.5483   22.7796 C   0  0  2  0  0  0  0  0  0  0  0  0
   -7.0348    5.7526   24.1788 O   0  0  0  0  0  0  0  0  0  0  0  0
   -7.3987    6.9109   22.0106 C   0  0  2  0  0  0  0  0  0  0  0  0
   -7.7011    6.6778   20.5811 O   0  0  0  0  0  0  0  0  0  0  0  0
   -6.1141    7.7461   22.0594 C   0  0  2  0  0  0  0  0  0  0  0  0
   -5.0340    6.9678   21.6585 O   0  0  0  0  0  0  0  0  0  0  0  0
   -5.7709    8.2678   23.4667 C   0  0  0  0  0  0  0  0  0  0  0  0
  -12.8438    9.4944   19.2281 C   0  0  2  0  0  0  0  0  0  0  0  0
  -13.4154   10.6711   18.5253 N   0  3  0  0  0  0  0  0  0  0  0  0
  -11.9649    9.9456   20.4323 C   0  0  0  0  0  0  0  0  0  0  0  0
  -11.3501    8.6943   21.1578 C   0  0  2  0  0  0  0  0  0  0  0  0
  -10.5132    9.1619   22.3229 N   0  3  0  0  0  0  0  0  0  0  0  0
  -10.5039    7.8644   20.1323 C   0  0  2  0  0  0  0  0  0  0  0  0
  -11.4061    7.4239   18.9536 C   0  0  2  0  0  0  0  0  0  0  0  0
  -10.6285    6.7094   18.0236 O   0  0  0  0  0  0  0  0  0  0  0  0
  -11.9921    8.6708   18.2387 C   0  0  1  0  0  0  0  0  0  0  0  0
  -12.8128    8.2439   17.1614 O   0  0  0  0  0  0  0  0  0  0  0  0
  -12.6816    8.8843   15.9223 C   0  0  2  0  0  0  0  0  0  0  0  0
  -14.0991    9.0861   15.3542 C   0  0  2  0  0  0  0  0  0  0  0  0
  -14.8352    9.9074   16.2353 O   0  0  0  0  0  0  0  0  0  0  0  0
  -14.7889    7.6892   15.1878 C   0  0  1  0  0  0  0  0  0  0  0  0
  -16.1749    7.7984   14.6709 N   0  3  0  0  0  0  0  0  0  0  0  0
  -17.1252    8.1019   15.7713 C   0  0  0  0  0  0  0  0  0  0  0  0
  -13.9274    6.8011   14.2253 C   0  0  2  0  0  0  0  0  0  0  0  0
  -13.8233    7.4344   12.9363 O   0  0  0  0  0  0  0  0  0  0  0  0
  -14.5143    5.4890   14.0221 C   0  0  0  0  0  0  0  0  0  0  0  0
  -12.4704    6.6802   14.7691 C   0  0  0  0  0  0  0  0  0  0  0  0
  -11.8860    8.0391   15.0156 O   0  0  0  0  0  0  0  0  0  0  0  0
  1  2  1  1  0  0  0
  1  3  1  0  0  0  0
  1 10  1  0  0  0  0
  3  4  1  1  0  0  0
  3  5  1  0  0  0  0
  5  6  1  1  0  0  0
  5  7  1  0  0  0  0
  7  8  1  1  0  0  0
  7  9  1  0  0  0  0
  9 10  1  6  0  0  0
  9 11  1  0  0  0  0
 11 12  1  1  0  0  0
 11 13  1  0  0  0  0
 14 15  1  6  0  0  0
 14 16  1  0  0  0  0
 14 22  1  0  0  0  0
 16 17  1  0  0  0  0
 17 18  1  1  0  0  0
 17 19  1  0  0  0  0
 19  2  1  1  0  0  0
 19 20  1  0  0  0  0
 20 21  1  6  0  0  0
 20 22  1  0  0  0  0
 22 23  1  6  0  0  0
 24 23  1  1  0  0  0
 24 25  1  0  0  0  0
 24 34  1  0  0  0  0
 25 26  1  1  0  0  0
 25 27  1  0  0  0  0
 27 28  1  6  0  0  0
 27 30  1  0  0  0  0
 28 29  1  0  0  0  0
 30 31  1  6  0  0  0
 30 32  1  0  0  0  0
 30 33  1  0  0  0  0
 33 34  1  0  0  0  0
M  CHG  4   4   1  15   1  18   1  28   1
M  END
>  <CHROM.1>
-163.59337568,-161.98107683,-62.26487184,-74.63082759,58.84760586,52.24377473
66.81852870,-66.99094742,172.08515113,-56.10481790,105.20923833,-138.65056801
131.67022810,37.64911412,60.34198046,-11.04605446,7.35566356,18.94903704
-0.22312541,0.80507363,-2.59630745

>  <Name>
1mwl

>  <RI>
0

>  <Rbt.Current_Directory>
/home/itssahil/PROJECTS/Mol_Feturizer/New_Systems/rnas/1mwl

>  <Rbt.Executable>
rbdock ($Id: //depot/dev/client3/rdock/2013.1/src/exe/rbdock.cxx#4 $)

>  <Rbt.Library>
libRbt.so (2013.1, Build901 2013/11/27)

>  <Rbt.Parameter_File>
/export/apps/rDock/src/rDock_2013.1_src/data/scripts/dock_solv.prm

>  <Rbt.Receptor>
prm/pocket_docking_6.prm

>  <SCORE>
-81.902

>  <SCORE.INTER>
-66.0077

>  <SCORE.INTER.CONST>
1

>  <SCORE.INTER.POLAR>
-9.24183

>  <SCORE.INTER.ROT>
6

>  <SCORE.INTER.SOLV>
26.4742

>  <SCORE.INTER.VDW>
-29.6238

>  <SCORE.INTER.norm>
-1.9414

>  <SCORE.INTRA>
-15.9046

>  <SCORE.INTRA.DIHEDRAL>
-18.0157

>  <SCORE.INTRA.DIHEDRAL.0>
42.0816

>  <SCORE.INTRA.POLAR>
-0.912063

>  <SCORE.INTRA.POLAR.0>
-0.254682

>  <SCORE.INTRA.REPUL>
0

>  <SCORE.INTRA.REPUL.0>
0

>  <SCORE.INTRA.SOLV>
0.308592

>  <SCORE.INTRA.SOLV.lig_0>
-109.803

>  <SCORE.INTRA.VDW>
-3.95006

>  <SCORE.INTRA.VDW.0>
0.32176

>  <SCORE.INTRA.norm>
-0.467783

>  <SCORE.RESTR>
0.010332

>  <SCORE.RESTR.CAVITY>
0.010332

>  <SCORE.RESTR.norm>
0.000303882

>  <SCORE.SYSTEM>
0

>  <SCORE.SYSTEM.CONST>
0

>  <SCORE.SYSTEM.DIHEDRAL>
0

>  <SCORE.SYSTEM.SOLV>
0

>  <SCORE.SYSTEM.norm>
0

>  <SCORE.heavy>
34

>  <SCORE.norm>
-2.40888

>  <RMSD>
0.461

$$$$
1mwl
 OpenBabel11021811403D
libRbt.so/2013.1/901 2013/11/27
 34 36  0  0  0  0  0  0  0  0999 V2000
   -9.0992    5.9508   20.2867 C   0  0  2  0  0  0  0  0  0  0  0  0
  -10.0712    6.7932   20.8292 O   0  0  0  0  0  0  0  0  0  0  0  0
   -9.1754    4.5993   21.0511 C   0  0  2  0  0  0  0  0  0  0  0  0
  -10.5145    4.0177   20.9170 N   0  3  0  0  0  0  0  0  0  0  0  0
   -8.7847    4.7916   22.5458 C   0  0  1  0  0  0  0  0  0  0  0  0
   -8.8241    3.6116   23.2138 O   0  0  0  0  0  0  0  0  0  0  0  0
   -7.3535    5.4200   22.6105 C   0  0  2  0  0  0  0  0  0  0  0  0
   -6.9540    5.6035   23.9849 O   0  0  0  0  0  0  0  0  0  0  0  0
   -7.3782    6.7833   21.8394 C   0  0  2  0  0  0  0  0  0  0  0  0
   -7.7970    6.5722   20.4361 O   0  0  0  0  0  0  0  0  0  0  0  0
   -6.0328    7.5165   21.7929 C   0  0  2  0  0  0  0  0  0  0  0  0
   -5.0199    6.6171   21.4794 O   0  0  0  0  0  0  0  0  0  0  0  0
   -5.6361    8.1628   23.1328 C   0  0  0  0  0  0  0  0  0  0  0  0
  -12.8987    9.5903   19.2669 C   0  0  2  0  0  0  0  0  0  0  0  0
  -13.4669   10.7714   18.5686 N   0  3  0  0  0  0  0  0  0  0  0  0
  -12.0053   10.0348   20.4629 C   0  0  0  0  0  0  0  0  0  0  0  0
  -11.3944    8.7788   21.1835 C   0  0  2  0  0  0  0  0  0  0  0  0
  -10.5432    9.2400   22.3408 N   0  3  0  0  0  0  0  0  0  0  0  0
  -10.5644    7.9414   20.1509 C   0  0  2  0  0  0  0  0  0  0  0  0
  -11.4808    7.5078   18.9806 C   0  0  2  0  0  0  0  0  0  0  0  0
  -10.7175    6.7865   18.0441 O   0  0  0  0  0  0  0  0  0  0  0  0
  -12.0629    8.7592   18.2703 C   0  0  1  0  0  0  0  0  0  0  0  0
  -12.8968    8.3385   17.2007 O   0  0  0  0  0  0  0  0  0  0  0  0
  -12.8025    9.0064   15.9728 C   0  0  2  0  0  0  0  0  0  0  0  0
  -14.2281    9.1277   15.4022 C   0  0  2  0  0  0  0  0  0  0  0  0
  -15.0173    9.8861   16.2936 O   0  0  0  0  0  0  0  0  0  0  0  0
  -14.8276    7.6929   15.2101 C   0  0  1  0  0  0  0  0  0  0  0  0
  -16.2162    7.7230   14.6894 N   0  3  0  0  0  0  0  0  0  0  0  0
  -17.1833    7.9963   15.7829 C   0  0  0  0  0  0  0  0  0  0  0  0
  -13.9088    6.8771   14.2368 C   0  0  2  0  0  0  0  0  0  0  0  0
  -13.8409    7.5370   12.9588 O   0  0  0  0  0  0  0  0  0  0  0  0
  -14.4109    5.5341   14.0098 C   0  0  0  0  0  0  0  0  0  0  0  0
  -12.4488    6.8395   14.7846 C   0  0  0  0  0  0  0  0  0  0  0  0
  -11.9522    8.2282   15.0557 O   0  0  0  0  0  0  0  0  0  0  0  0
  1  2  1  1  0  0  0
  1  3  1  0  0  0  0
  1 10  1  0  0  0  0
  3  4  1  1  0  0  0
  3  5  1  0  0  0  0
  5  6  1  1  0  0  0
  5  7  1  0  0  0  0
  7  8  1  1  0  0  0
  7  9  1  0  0  0  0
  9 10  1  6  0  0  0
  9 11  1  0  0  0  0
 11 12  1  1  0  0  0
 11 13  1  0  0  0  0
 14 15  1  6  0  0  0
 14 16  1  0  0  0  0
 14 22  1  0  0  0  0
 16 17  1  0  0  0  0
 17 18  1  1  0  0  0
 17 19  1  0  0  0  0
 19  2  1  1  0  0  0
 19 20  1  0  0  0  0
 20 21  1  6  0  0  0
 20 22  1  0  0  0  0
 22 23  1  6  0  0  0
 24 23  1  1  0  0  0
 24 25  1  0  0  0  0
 24 34  1  0  0  0  0
 25 26  1  1  0  0  0
 25 27  1  0  0  0  0
 27 28  1  6  0  0  0
 27 30  1  0  0  0  0
 28 29  1  0  0  0  0
 30 31  1  6  0  0  0
 30 32  1  0  0  0  0
 30 33  1  0  0  0  0
 33 34  1  0  0  0  0
M  CHG  4   4   1  15   1  18   1  28   1
M  END
>  <CHROM.1>
-160.91339353,-168.22177041,-51.74722711,57.01116095,61.87872838,45.08845061
117.86964211,-64.07111248,-68.64727916,-56.61118878,103.13975203,-141.52601422
114.40998614,39.69137901,-178.48752193,-11.09621763,7.36227839,18.91654972
-0.23471256,0.78946365,-2.55047730

>  <Name>
1mwl

>  <RI>
0

>  <Rbt.Current_Directory>
/home/itssahil/PROJECTS/Mol_Feturizer/New_Systems/rnas/1mwl

>  <Rbt.Executable>
rbdock ($Id: //depot/dev/client3/rdock/2013.1/src/exe/rbdock.cxx#4 $)

>  <Rbt.Library>
libRbt.so (2013.1, Build901 2013/11/27)

>  <Rbt.Parameter_File>
/export/apps/rDock/src/rDock_2013.1_src/data/scripts/dock_solv.prm

>  <Rbt.Receptor>
prm/pocket_docking_3.prm

>  <SCORE>
-84.5759

>  <SCORE.INTER>
-71.7716

>  <SCORE.INTER.CONST>
1

>  <SCORE.INTER.POLAR>
-10.5894

>  <SCORE.INTER.ROT>
6

>  <SCORE.INTER.SOLV>
26.8448

>  <SCORE.INTER.VDW>
-29.098

>  <SCORE.INTER.norm>
-2.11093

>  <SCORE.INTRA>
-12.8044

>  <SCORE.INTRA.DIHEDRAL>
-12.276

>  <SCORE.INTRA.DIHEDRAL.0>
42.0816

>  <SCORE.INTRA.POLAR>
-0.93148

>  <SCORE.INTRA.POLAR.0>
-0.254682

>  <SCORE.INTRA.REPUL>
0

>  <SCORE.INTRA.REPUL.0>
0

>  <SCORE.INTRA.SOLV>
-0.598621

>  <SCORE.INTRA.SOLV.lig_0>
-109.803

>  <SCORE.INTRA.VDW>
-3.20003

>  <SCORE.INTRA.VDW.0>
0.32176

>  <SCORE.INTRA.norm>
-0.376599

>  <SCORE.RESTR>
0

>  <SCORE.RESTR.CAVITY>
0

>  <SCORE.RESTR.norm>
0

>  <SCORE.SYSTEM>
0

>  <SCORE.SYSTEM.CONST>
0

>  <SCORE.SYSTEM.DIHEDRAL>
0

>  <SCORE.SYSTEM.SOLV>
0

>  <SCORE.SYSTEM.norm>
0

>  <SCORE.heavy>
34

>  <SCORE.norm>
-2.48753

>  <RMSD>
0.462

$$$$
1mwl
 OpenBabel11021811403D
libRbt.so/2013.1/901 2013/11/27
 34 36  0  0  0  0  0  0  0  0999 V2000
   -9.0844    5.7827   20.1748 C   0  0  2  0  0  0  0  0  0  0  0  0
  -10.1066    6.5836   20.6871 O   0  0  0  0  0  0  0  0  0  0  0  0
   -9.1210    4.4325   20.9445 C   0  0  2  0  0  0  0  0  0  0  0  0
  -10.4292    3.7916   20.7787 N   0  3  0  0  0  0  0  0  0  0  0  0
   -8.7786    4.6484   22.4477 C   0  0  1  0  0  0  0  0  0  0  0  0
   -8.7835    3.4707   23.1210 O   0  0  0  0  0  0  0  0  0  0  0  0
   -7.3787    5.3398   22.5463 C   0  0  2  0  0  0  0  0  0  0  0  0
   -7.0241    5.5469   23.9296 O   0  0  0  0  0  0  0  0  0  0  0  0
   -7.4434    6.6973   21.7673 C   0  0  2  0  0  0  0  0  0  0  0  0
   -7.8154    6.4617   20.3547 O   0  0  0  0  0  0  0  0  0  0  0  0
   -6.1309    7.4892   21.7518 C   0  0  2  0  0  0  0  0  0  0  0  0
   -5.0605    6.6183   21.5812 O   0  0  0  0  0  0  0  0  0  0  0  0
   -5.8583    8.2567   23.0583 C   0  0  0  0  0  0  0  0  0  0  0  0
  -12.8735    9.4687   19.1771 C   0  0  2  0  0  0  0  0  0  0  0  0
  -13.4163   10.6735   18.4994 N   0  3  0  0  0  0  0  0  0  0  0  0
  -11.9680    9.8734   20.3781 C   0  0  0  0  0  0  0  0  0  0  0  0
  -11.3841    8.5923   21.0767 C   0  0  2  0  0  0  0  0  0  0  0  0
  -10.5205    9.0154   22.2395 N   0  3  0  0  0  0  0  0  0  0  0  0
  -10.5752    7.7535   20.0287 C   0  0  2  0  0  0  0  0  0  0  0  0
  -11.5033    7.3598   18.8537 C   0  0  2  0  0  0  0  0  0  0  0  0
  -10.7583    6.6369   17.9037 O   0  0  0  0  0  0  0  0  0  0  0  0
  -12.0585    8.6354   18.1652 C   0  0  1  0  0  0  0  0  0  0  0  0
  -12.9037    8.2511   17.0908 O   0  0  0  0  0  0  0  0  0  0  0  0
  -12.7937    8.9337   15.8723 C   0  0  2  0  0  0  0  0  0  0  0  0
  -14.2130    9.0704   15.2895 C   0  0  2  0  0  0  0  0  0  0  0  0
  -15.0065    9.8222   16.1827 O   0  0  0  0  0  0  0  0  0  0  0  0
  -14.8187    7.6416   15.0736 C   0  0  1  0  0  0  0  0  0  0  0  0
  -16.2019    7.6863   14.5400 N   0  3  0  0  0  0  0  0  0  0  0  0
  -17.1936    7.6910   15.6457 C   0  0  0  0  0  0  0  0  0  0  0  0
  -13.8951    6.8328   14.0991 C   0  0  2  0  0  0  0  0  0  0  0  0
  -13.8110    7.5082   12.8302 O   0  0  0  0  0  0  0  0  0  0  0  0
  -14.4026    5.4956   13.8504 C   0  0  0  0  0  0  0  0  0  0  0  0
  -12.4407    6.7798   14.6605 C   0  0  0  0  0  0  0  0  0  0  0  0
  -11.9389    8.1622   14.9538 O   0  0  0  0  0  0  0  0  0  0  0  0
  1  2  1  1  0  0  0
  1  3  1  0  0  0  0
  1 10  1  0  0  0  0
  3  4  1  1  0  0  0
  3  5  1  0  0  0  0
  5  6  1  1  0  0  0
  5  7  1  0  0  0  0
  7  8  1  1  0  0  0
  7  9  1  0  0  0  0
  9 10  1  6  0  0  0
  9 11  1  0  0  0  0
 11 12  1  1  0  0  0
 11 13  1  0  0  0  0
 14 15  1  6  0  0  0
 14 16  1  0  0  0  0
 14 22  1  0  0  0  0
 16 17  1  0  0  0  0
 17 18  1  1  0  0  0
 17 19  1  0  0  0  0
 19  2  1  1  0  0  0
 19 20  1  0  0  0  0
 20 21  1  6  0  0  0
 20 22  1  0  0  0  0
 22 23  1  6  0  0  0
 24 23  1  1  0  0  0
 24 25  1  0  0  0  0
 24 34  1  0  0  0  0
 25 26  1  1  0  0  0
 25 27  1  0  0  0  0
 27 28  1  6  0  0  0
 27 30  1  0  0  0  0
 28 29  1  0  0  0  0
 30 31  1  6  0  0  0
 30 32  1  0  0  0  0
 30 33  1  0  0  0  0
 33 34  1  0  0  0  0
M  CHG  4   4   1  15   1  18   1  28   1
M  END
>  <CHROM.1>
-164.93638583,-163.32694530,-49.52950168,-171.69450173,-58.17593532,40.13962847
121.47749990,-68.76192750,172.02567402,73.78247486,103.34723337,-142.80629181
173.96459523,28.88309533,-58.14656070,-11.10919141,7.25733727,18.82118090
-0.20058837,0.80691765,-2.60575644

>  <Name>
1mwl

>  <RI>
0

>  <Rbt.Current_Directory>
/home/itssahil/PROJECTS/Mol_Feturizer/New_Systems/rnas/1mwl

>  <Rbt.Executable>
rbdock ($Id: //depot/dev/client3/rdock/2013.1/src/exe/rbdock.cxx#4 $)

>  <Rbt.Library>
libRbt.so (2013.1, Build901 2013/11/27)

>  <Rbt.Parameter_File>
/export/apps/rDock/src/rDock_2013.1_src/data/scripts/dock_solv.prm

>  <Rbt.Receptor>
prm/pocket_docking_2.prm

>  <SCORE>
-81.1633

>  <SCORE.INTER>
-66.3186

>  <SCORE.INTER.CONST>
1

>  <SCORE.INTER.POLAR>
-9.49202

>  <SCORE.INTER.ROT>
6

>  <SCORE.INTER.SOLV>
26.9295

>  <SCORE.INTER.VDW>
-29.1488

>  <SCORE.INTER.norm>
-1.95055

>  <SCORE.INTRA>
-15.0197

>  <SCORE.INTRA.DIHEDRAL>
-16.4165

>  <SCORE.INTRA.DIHEDRAL.0>
42.0816

>  <SCORE.INTRA.POLAR>
-0.947813

>  <SCORE.INTRA.POLAR.0>
-0.254682

>  <SCORE.INTRA.REPUL>
0

>  <SCORE.INTRA.REPUL.0>
0

>  <SCORE.INTRA.SOLV>
0.451201

>  <SCORE.INTRA.SOLV.lig_0>
-109.803

>  <SCORE.INTRA.VDW>
-3.81452

>  <SCORE.INTRA.VDW.0>
0.32176

>  <SCORE.INTRA.norm>
-0.441757

>  <SCORE.RESTR>
0.174998

>  <SCORE.RESTR.CAVITY>
0.174998

>  <SCORE.RESTR.norm>
0.00514701

>  <SCORE.SYSTEM>
0

>  <SCORE.SYSTEM.CONST>
0

>  <SCORE.SYSTEM.DIHEDRAL>
0

>  <SCORE.SYSTEM.SOLV>
0

>  <SCORE.SYSTEM.norm>
0

>  <SCORE.heavy>
34

>  <SCORE.norm>
-2.38716

>  <RMSD>
0.469

$$$$
1mwl
 OpenBabel11021811403D
libRbt.so/2013.1/901 2013/11/27
 34 36  0  0  0  0  0  0  0  0999 V2000
   -8.9008    5.8523   20.2594 C   0  0  2  0  0  0  0  0  0  0  0  0
   -9.9489    6.6158   20.7763 O   0  0  0  0  0  0  0  0  0  0  0  0
   -8.9392    4.4690   20.9679 C   0  0  2  0  0  0  0  0  0  0  0  0
  -10.2324    3.8184   20.7364 N   0  3  0  0  0  0  0  0  0  0  0  0
   -8.6429    4.6231   22.4885 C   0  0  1  0  0  0  0  0  0  0  0  0
   -8.6494    3.4169   23.1092 O   0  0  0  0  0  0  0  0  0  0  0  0
   -7.2567    5.3284   22.6577 C   0  0  2  0  0  0  0  0  0  0  0  0
   -6.9446    5.4790   24.0585 O   0  0  0  0  0  0  0  0  0  0  0  0
   -7.3194    6.7180   21.9373 C   0  0  2  0  0  0  0  0  0  0  0  0
   -7.6476    6.5399   20.5055 O   0  0  0  0  0  0  0  0  0  0  0  0
   -6.0189    7.5275   21.9945 C   0  0  2  0  0  0  0  0  0  0  0  0
   -4.9317    6.6632   22.0593 O   0  0  0  0  0  0  0  0  0  0  0  0
   -5.9160    8.4428   23.2282 C   0  0  0  0  0  0  0  0  0  0  0  0
  -12.7501    9.5318   19.3944 C   0  0  2  0  0  0  0  0  0  0  0  0
  -13.3098   10.7438   18.7439 N   0  3  0  0  0  0  0  0  0  0  0  0
  -11.7900    9.9242   20.5564 C   0  0  0  0  0  0  0  0  0  0  0  0
  -11.1890    8.6355   21.2259 C   0  0  2  0  0  0  0  0  0  0  0  0
  -10.2722    9.0466   22.3515 N   0  3  0  0  0  0  0  0  0  0  0  0
  -10.4340    7.7922   20.1418 C   0  0  2  0  0  0  0  0  0  0  0  0
  -11.4155    7.4110   19.0067 C   0  0  2  0  0  0  0  0  0  0  0  0
  -10.7190    6.6839   18.0237 O   0  0  0  0  0  0  0  0  0  0  0  0
  -11.9874    8.6939   18.3462 C   0  0  1  0  0  0  0  0  0  0  0  0
  -12.8817    8.3210   17.3080 O   0  0  0  0  0  0  0  0  0  0  0  0
  -12.7652    8.9516   16.0624 C   0  0  2  0  0  0  0  0  0  0  0  0
  -14.1814    9.0635   15.4670 C   0  0  2  0  0  0  0  0  0  0  0  0
  -14.9794    9.8523   16.3235 O   0  0  0  0  0  0  0  0  0  0  0  0
  -14.7863    7.6269   15.3086 C   0  0  1  0  0  0  0  0  0  0  0  0
  -16.1668    7.6489   14.7663 N   0  3  0  0  0  0  0  0  0  0  0  0
  -17.1531    7.9085   15.8460 C   0  0  0  0  0  0  0  0  0  0  0  0
  -13.8579    6.7775   14.3739 C   0  0  2  0  0  0  0  0  0  0  0  0
  -13.7671    7.3987   13.0781 O   0  0  0  0  0  0  0  0  0  0  0  0
  -14.3644    5.4310   14.1793 C   0  0  0  0  0  0  0  0  0  0  0  0
  -12.4064    6.7483   14.9446 C   0  0  0  0  0  0  0  0  0  0  0  0
  -11.9058    8.1419   15.1818 O   0  0  0  0  0  0  0  0  0  0  0  0
  1  2  1  1  0  0  0
  1  3  1  0  0  0  0
  1 10  1  0  0  0  0
  3  4  1  1  0  0  0
  3  5  1  0  0  0  0
  5  6  1  1  0  0  0
  5  7  1  0  0  0  0
  7  8  1  1  0  0  0
  7  9  1  0  0  0  0
  9 10  1  6  0  0  0
  9 11  1  0  0  0  0
 11 12  1  1  0  0  0
 11 13  1  0  0  0  0
 14 15  1  6  0  0  0
 14 16  1  0  0  0  0
 14 22  1  0  0  0  0
 16 17  1  0  0  0  0
 17 18  1  1  0  0  0
 17 19  1  0  0  0  0
 19  2  1  1  0  0  0
 19 20  1  0  0  0  0
 20 21  1  6  0  0  0
 20 22  1  0  0  0  0
 22 23  1  6  0  0  0
 24 23  1  1  0  0  0
 24 25  1  0  0  0  0
 24 34  1  0  0  0  0
 25 26  1  1  0  0  0
 25 27  1  0  0  0  0
 27 28  1  6  0  0  0
 27 30  1  0  0  0  0
 28 29  1  0  0  0  0
 30 31  1  6  0  0  0
 30 32  1  0  0  0  0
 30 33  1  0  0  0  0
 33 34  1  0  0  0  0
M  CHG  4   4   1  15   1  18   1  28   1
M  END
>  <CHROM.1>
-163.60923819,-159.24758472,-60.58868741,-79.27854076,60.31600254,29.50389797
173.63794959,177.41567556,174.36898048,-60.19026587,107.07390161,-146.57557640
121.60025615,37.52720462,-55.92299315,-11.01099837,7.28172726,18.99149856
-0.15649740,0.79962706,-2.66324474

>  <Name>
1mwl

>  <RI>
0

>  <Rbt.Current_Directory>
/home/itssahil/PROJECTS/Mol_Feturizer/New_Systems/rnas/1mwl

>  <Rbt.Executable>
rbdock ($Id: //depot/dev/client3/rdock/2013.1/src/exe/rbdock.cxx#4 $)

>  <Rbt.Library>
libRbt.so (2013.1, Build901 2013/11/27)

>  <Rbt.Parameter_File>
/export/apps/rDock/src/rDock_2013.1_src/data/scripts/dock_solv.prm

>  <Rbt.Receptor>
prm/pocket_docking_3.prm

>  <SCORE>
-81.2748

>  <SCORE.INTER>
-66.7662

>  <SCORE.INTER.CONST>
1

>  <SCORE.INTER.POLAR>
-9.31212

>  <SCORE.INTER.ROT>
6

>  <SCORE.INTER.SOLV>
25.8739

>  <SCORE.INTER.VDW>
-29.695

>  <SCORE.INTER.norm>
-1.96371

>  <SCORE.INTRA>
-14.5086

>  <SCORE.INTRA.DIHEDRAL>
-15.0612

>  <SCORE.INTRA.DIHEDRAL.0>
42.0816

>  <SCORE.INTRA.POLAR>
-0.911985

>  <SCORE.INTRA.POLAR.0>
-0.254682

>  <SCORE.INTRA.REPUL>
0

>  <SCORE.INTRA.REPUL.0>
0

>  <SCORE.INTRA.SOLV>
0.751193

>  <SCORE.INTRA.SOLV.lig_0>
-109.803

>  <SCORE.INTRA.VDW>
-4.25282

>  <SCORE.INTRA.VDW.0>
0.32176

>  <SCORE.INTRA.norm>
-0.426723

>  <SCORE.RESTR>
0

>  <SCORE.RESTR.CAVITY>
0

>  <SCORE.RESTR.norm>
0

>  <SCORE.SYSTEM>
0

>  <SCORE.SYSTEM.CONST>
0

>  <SCORE.SYSTEM.DIHEDRAL>
0

>  <SCORE.SYSTEM.SOLV>
0

>  <SCORE.SYSTEM.norm>
0

>  <SCORE.heavy>
34

>  <SCORE.norm>
-2.39043

>  <RMSD>
0.469

$$$$
1mwl
 OpenBabel11021811403D
libRbt.so/2013.1/901 2013/11/27
 34 36  0  0  0  0  0  0  0  0999 V2000
   -8.8157    5.9860   20.1398 C   0  0  2  0  0  0  0  0  0  0  0  0
   -9.9296    6.6734   20.6251 O   0  0  0  0  0  0  0  0  0  0  0  0
   -8.9051    4.5254   20.6647 C   0  0  2  0  0  0  0  0  0  0  0  0
  -10.1516    3.9009   20.2111 N   0  3  0  0  0  0  0  0  0  0  0  0
   -8.7824    4.4916   22.2162 C   0  0  1  0  0  0  0  0  0  0  0  0
   -8.8338    3.2177   22.6798 O   0  0  0  0  0  0  0  0  0  0  0  0
   -7.4378    5.1787   22.6256 C   0  0  2  0  0  0  0  0  0  0  0  0
   -7.2861    5.1563   24.0604 O   0  0  0  0  0  0  0  0  0  0  0  0
   -7.4476    6.6464   22.0783 C   0  0  2  0  0  0  0  0  0  0  0  0
   -7.6114    6.6453   20.6078 O   0  0  0  0  0  0  0  0  0  0  0  0
   -6.1778    7.4503   22.3802 C   0  0  2  0  0  0  0  0  0  0  0  0
   -5.0661    6.7684   21.8980 O   0  0  0  0  0  0  0  0  0  0  0  0
   -5.9300    7.6701   23.8838 C   0  0  0  0  0  0  0  0  0  0  0  0
  -12.8288    9.4652   19.1898 C   0  0  2  0  0  0  0  0  0  0  0  0
  -13.4275   10.6613   18.5446 N   0  3  0  0  0  0  0  0  0  0  0  0
  -11.9446    9.8787   20.4035 C   0  0  0  0  0  0  0  0  0  0  0  0
  -11.3013    8.6078   21.0676 C   0  0  2  0  0  0  0  0  0  0  0  0
  -10.4598    9.0386   22.2436 N   0  3  0  0  0  0  0  0  0  0  0  0
  -10.4525    7.8377   19.9985 C   0  0  2  0  0  0  0  0  0  0  0  0
  -11.3598    7.4334   18.8109 C   0  0  2  0  0  0  0  0  0  0  0  0
  -10.5805    6.7734   17.8428 O   0  0  0  0  0  0  0  0  0  0  0  0
  -11.9743    8.6999   18.1569 C   0  0  1  0  0  0  0  0  0  0  0  0
  -12.7993    8.3062   17.0703 O   0  0  0  0  0  0  0  0  0  0  0  0
  -12.6606    8.9724   15.8457 C   0  0  2  0  0  0  0  0  0  0  0  0
  -14.0744    9.1838   15.2720 C   0  0  2  0  0  0  0  0  0  0  0  0
  -14.8180    9.9854   16.1648 O   0  0  0  0  0  0  0  0  0  0  0  0
  -14.7606    7.7895   15.0718 C   0  0  1  0  0  0  0  0  0  0  0  0
  -16.1432    7.9073   14.5477 N   0  3  0  0  0  0  0  0  0  0  0  0
  -17.1307    7.8887   15.6570 C   0  0  0  0  0  0  0  0  0  0  0  0
  -13.8910    6.9229   14.0972 C   0  0  2  0  0  0  0  0  0  0  0  0
  -13.7790    7.5830   12.8224 O   0  0  0  0  0  0  0  0  0  0  0  0
  -14.4742    5.6144   13.8627 C   0  0  0  0  0  0  0  0  0  0  0  0
  -12.4376    6.7930   14.6485 C   0  0  0  0  0  0  0  0  0  0  0  0
  -11.8572    8.1474   14.9273 O   0  0  0  0  0  0  0  0  0  0  0  0
  1  2  1  1  0  0  0
  1  3  1  0  0  0  0
  1 10  1  0  0  0  0
  3  4  1  1  0  0  0
  3  5  1  0  0  0  0
  5  6  1  6  0  0  0
  5  7  1  0  0  0  0
  7  8  1  1  0  0  0
  7  9  1  0  0  0  0
  9 10  1  6  0  0  0
  9 11  1  0  0  0  0
 11 12  1  1  0  0  0
 11 13  1  0  0  0  0
 14 15  1  6  0  0  0
 14 16  1  0  0  0  0
 14 22  1  0  0  0  0
 16 17  1  0  0  0  0
 17 18  1  1  0  0  0
 17 19  1  0  0  0  0
 19  2  1  1  0  0  0
 19 20  1  0  0  0  0
 20 21  1  6  0  0  0
 20 22  1  0  0  0  0
 22 23  1  6  0  0  0
 24 23  1  1  0  0  0
 24 25  1  0  0  0  0
 24 34  1  0  0  0  0
 25 26  1  1  0  0  0
 25 27  1  0  0  0  0
 27 28  1  6  0  0  0
 27 30  1  0  0  0  0
 28 29  1  0  0  0  0
 30 31  1  6  0  0  0
 30 32  1  0  0  0  0
 30 33  1  0  0  0  0
 33 34  1  0  0  0  0
M  CHG  4   4   1  15   1  18   1  28   1
M  END
>  <CHROM.1>
-156.46203743,-159.06226220,54.34367018,-142.05224456,-66.33882876,55.55777656
63.84734219,175.31491992,167.88419616,-57.31480807,107.31878563,-139.48295725
146.94796023,25.27615554,178.81844698,-11.04391280,7.28178565,18.83757045
-0.22779424,0.81628562,-2.55566176

>  <Name>
1mwl

>  <RI>
0

>  <Rbt.Current_Directory>
/home/itssahil/PROJECTS/Mol_Feturizer/New_Systems/rnas/1mwl

>  <Rbt.Executable>
rbdock ($Id: //depot/dev/client3/rdock/2013.1/src/exe/rbdock.cxx#4 $)

>  <Rbt.Library>
libRbt.so (2013.1, Build901 2013/11/27)

>  <Rbt.Parameter_File>
/export/apps/rDock/src/rDock_2013.1_src/data/scripts/dock_solv.prm

>  <Rbt.Receptor>
prm/pocket_docking_3.prm

>  <SCORE>
-88.0409

>  <SCORE.INTER>
-74.7893

>  <SCORE.INTER.CONST>
1

>  <SCORE.INTER.POLAR>
-10.764

>  <SCORE.INTER.ROT>
6

>  <SCORE.INTER.SOLV>
27.5893

>  <SCORE.INTER.VDW>
-30.776

>  <SCORE.INTER.norm>
-2.19969

>  <SCORE.INTRA>
-13.2516

>  <SCORE.INTRA.DIHEDRAL>
-13.4063

>  <SCORE.INTRA.DIHEDRAL.0>
42.0816

>  <SCORE.INTRA.POLAR>
-0.911985

>  <SCORE.INTRA.POLAR.0>
-0.254682

>  <SCORE.INTRA.REPUL>
0

>  <SCORE.INTRA.REPUL.0>
0

>  <SCORE.INTRA.SOLV>
0.345119

>  <SCORE.INTRA.SOLV.lig_0>
-109.803

>  <SCORE.INTRA.VDW>
-3.62028

>  <SCORE.INTRA.VDW.0>
0.32176

>  <SCORE.INTRA.norm>
-0.389753

>  <SCORE.RESTR>
0

>  <SCORE.RESTR.CAVITY>
0

>  <SCORE.RESTR.norm>
0

>  <SCORE.SYSTEM>
0

>  <SCORE.SYSTEM.CONST>
0

>  <SCORE.SYSTEM.DIHEDRAL>
0

>  <SCORE.SYSTEM.SOLV>
0

>  <SCORE.SYSTEM.norm>
0

>  <SCORE.heavy>
34

>  <SCORE.norm>
-2.58944

>  <RMSD>
0.481

$$$$
1mwl
 OpenBabel11021811403D
libRbt.so/2013.1/901 2013/11/27
 34 36  0  0  0  0  0  0  0  0999 V2000
   -8.9281    6.1975   20.1290 C   0  0  2  0  0  0  0  0  0  0  0  0
   -9.9909    6.9178   20.6769 O   0  0  0  0  0  0  0  0  0  0  0  0
   -9.1623    4.6969   20.4614 C   0  0  2  0  0  0  0  0  0  0  0  0
  -10.4449    4.2512   19.9084 N   0  3  0  0  0  0  0  0  0  0  0  0
   -9.0903    4.4577   21.9980 C   0  0  1  0  0  0  0  0  0  0  0  0
   -9.2684    3.1459   22.2942 O   0  0  0  0  0  0  0  0  0  0  0  0
   -7.7031    4.9618   22.5169 C   0  0  2  0  0  0  0  0  0  0  0  0
   -7.5976    4.7459   23.9398 O   0  0  0  0  0  0  0  0  0  0  0  0
   -7.5663    6.4813   22.1614 C   0  0  2  0  0  0  0  0  0  0  0  0
   -7.6848    6.6795   20.6999 O   0  0  0  0  0  0  0  0  0  0  0  0
   -6.2399    7.1211   22.5873 C   0  0  2  0  0  0  0  0  0  0  0  0
   -5.9514    6.7702   23.9014 O   0  0  0  0  0  0  0  0  0  0  0  0
   -6.2562    8.6600   22.5456 C   0  0  0  0  0  0  0  0  0  0  0  0
  -12.9625    9.6501   19.2759 C   0  0  2  0  0  0  0  0  0  0  0  0
  -13.5928   10.8335   18.6372 N   0  3  0  0  0  0  0  0  0  0  0  0
  -12.0714   10.0824   20.4779 C   0  0  0  0  0  0  0  0  0  0  0  0
  -11.3947    8.8252   21.1350 C   0  0  2  0  0  0  0  0  0  0  0  0
  -10.5471    9.2740   22.2998 N   0  3  0  0  0  0  0  0  0  0  0  0
  -10.5445    8.0708   20.0559 C   0  0  2  0  0  0  0  0  0  0  0  0
  -11.4587    7.6473   18.8803 C   0  0  2  0  0  0  0  0  0  0  0  0
  -10.6788    7.0016   17.9031 O   0  0  0  0  0  0  0  0  0  0  0  0
  -12.1062    8.9007   18.2329 C   0  0  1  0  0  0  0  0  0  0  0  0
  -12.9370    8.4894   17.1573 O   0  0  0  0  0  0  0  0  0  0  0  0
  -12.8683    9.1938   15.9482 C   0  0  2  0  0  0  0  0  0  0  0  0
  -14.2989    9.2834   15.3839 C   0  0  2  0  0  0  0  0  0  0  0  0
  -15.1103    9.9902   16.2975 O   0  0  0  0  0  0  0  0  0  0  0  0
  -14.8509    7.8353   15.1531 C   0  0  1  0  0  0  0  0  0  0  0  0
  -16.2411    7.8336   14.6361 N   0  3  0  0  0  0  0  0  0  0  0  0
  -17.2188    7.8894   15.7527 C   0  0  0  0  0  0  0  0  0  0  0  0
  -13.9083    7.0778   14.1558 C   0  0  2  0  0  0  0  0  0  0  0  0
  -13.8659    7.7748   12.8966 O   0  0  0  0  0  0  0  0  0  0  0  0
  -14.3661    5.7257   13.8925 C   0  0  0  0  0  0  0  0  0  0  0  0
  -12.4463    7.0736   14.6996 C   0  0  0  0  0  0  0  0  0  0  0  0
  -11.9953    8.4701   15.0083 O   0  0  0  0  0  0  0  0  0  0  0  0
  1  2  1  1  0  0  0
  1  3  1  0  0  0  0
  1 10  1  0  0  0  0
  3  4  1  1  0  0  0
  3  5  1  0  0  0  0
  5  6  1  6  0  0  0
  5  7  1  0  0  0  0
  7  8  1  1  0  0  0
  7  9  1  0  0  0  0
  9 10  1  6  0  0  0
  9 11  1  0  0  0  0
 11 12  1  1  0  0  0
 11 13  1  0  0  0  0
 14 15  1  6  0  0  0
 14 16  1  0  0  0  0
 14 22  1  0  0  0  0
 16 17  1  0  0  0  0
 17 18  1  1  0  0  0
 17 19  1  0  0  0  0
 19  2  1  1  0  0  0
 19 20  1  0  0  0  0
 20 21  1  6  0  0  0
 20 22  1  0  0  0  0
 22 23  1  6  0  0  0
 24 23  1  1  0  0  0
 24 25  1  0  0  0  0
 24 34  1  0  0  0  0
 25 26  1  1  0  0  0
 25 27  1  0  0  0  0
 27 28  1  6  0  0  0
 27 30  1  0  0  0  0
 28 29  1  0  0  0  0
 30 31  1  6  0  0  0
 30 32  1  0  0  0  0
 30 33  1  0  0  0  0
 33 34  1  0  0  0  0
M  CHG  4   4   1  15   1  18   1  28   1
M  END
>  <CHROM.1>
-144.82878158,-163.64344928,-175.81570825,-161.87545390,-70.80557072,-47.16575474
57.81552728,64.06404368,41.96282222,-176.30236643,104.59778312,-142.05737946
105.37708771,33.27077141,54.37745800,-11.22249195,7.40636653,18.88733782
-0.15473439,0.84198827,-2.64740041

>  <Name>
1mwl

>  <RI>
0

>  <Rbt.Current_Directory>
/home/itssahil/PROJECTS/Mol_Feturizer/New_Systems/rnas/1mwl

>  <Rbt.Executable>
rbdock ($Id: //depot/dev/client3/rdock/2013.1/src/exe/rbdock.cxx#4 $)

>  <Rbt.Library>
libRbt.so (2013.1, Build901 2013/11/27)

>  <Rbt.Parameter_File>
/export/apps/rDock/src/rDock_2013.1_src/data/scripts/dock_solv.prm

>  <Rbt.Receptor>
prm/pocket_docking_3.prm

>  <SCORE>
-85.0904

>  <SCORE.INTER>
-71.1538

>  <SCORE.INTER.CONST>
1

>  <SCORE.INTER.POLAR>
-10.1006

>  <SCORE.INTER.ROT>
6

>  <SCORE.INTER.SOLV>
24.2698

>  <SCORE.INTER.VDW>
-29.457

>  <SCORE.INTER.norm>
-2.09276

>  <SCORE.INTRA>
-13.9366

>  <SCORE.INTRA.DIHEDRAL>
-13.6742

>  <SCORE.INTRA.DIHEDRAL.0>
42.0816

>  <SCORE.INTRA.POLAR>
-1.07257

>  <SCORE.INTRA.POLAR.0>
-0.254682

>  <SCORE.INTRA.REPUL>
0

>  <SCORE.INTRA.REPUL.0>
0

>  <SCORE.INTRA.SOLV>
1.06379

>  <SCORE.INTRA.SOLV.lig_0>
-109.803

>  <SCORE.INTRA.VDW>
-3.98471

>  <SCORE.INTRA.VDW.0>
0.32176

>  <SCORE.INTRA.norm>
-0.409901

>  <SCORE.RESTR>
0

>  <SCORE.RESTR.CAVITY>
0

>  <SCORE.RESTR.norm>
0

>  <SCORE.SYSTEM>
0

>  <SCORE.SYSTEM.CONST>
0

>  <SCORE.SYSTEM.DIHEDRAL>
0

>  <SCORE.SYSTEM.SOLV>
0

>  <SCORE.SYSTEM.norm>
0

>  <SCORE.heavy>
34

>  <SCORE.norm>
-2.50266

>  <RMSD>
0.481

$$$$
1mwl
 OpenBabel11021811403D
libRbt.so/2013.1/901 2013/11/27
 34 36  0  0  0  0  0  0  0  0999 V2000
   -8.9419    5.8528   20.1157 C   0  0  2  0  0  0  0  0  0  0  0  0
  -10.0278    6.5858   20.5973 O   0  0  0  0  0  0  0  0  0  0  0  0
   -9.0076    4.4421   20.7658 C   0  0  2  0  0  0  0  0  0  0  0  0
  -10.2770    3.7898   20.4305 N   0  3  0  0  0  0  0  0  0  0  0  0
   -8.8057    4.5381   22.3064 C   0  0  1  0  0  0  0  0  0  0  0  0
   -8.8362    3.3081   22.8778 O   0  0  0  0  0  0  0  0  0  0  0  0
   -7.4404    5.2483   22.5875 C   0  0  2  0  0  0  0  0  0  0  0  0
   -7.2154    5.3457   24.0095 O   0  0  0  0  0  0  0  0  0  0  0  0
   -7.4748    6.6648   21.9196 C   0  0  2  0  0  0  0  0  0  0  0  0
   -7.7136    6.5411   20.4646 O   0  0  0  0  0  0  0  0  0  0  0  0
   -6.1893    7.4829   22.0877 C   0  0  2  0  0  0  0  0  0  0  0  0
   -5.0847    6.6755   21.8402 O   0  0  0  0  0  0  0  0  0  0  0  0
   -6.0000    8.0492   23.5068 C   0  0  0  0  0  0  0  0  0  0  0  0
  -12.8429    9.4278   19.0946 C   0  0  2  0  0  0  0  0  0  0  0  0
  -13.4053   10.6321   18.4322 N   0  3  0  0  0  0  0  0  0  0  0  0
  -11.9723    9.8303   20.3218 C   0  0  0  0  0  0  0  0  0  0  0  0
  -11.3672    8.5504   21.0044 C   0  0  2  0  0  0  0  0  0  0  0  0
  -10.5383    8.9708   22.1929 N   0  3  0  0  0  0  0  0  0  0  0  0
  -10.5154    7.7569   19.9550 C   0  0  2  0  0  0  0  0  0  0  0  0
  -11.4095    7.3643   18.7534 C   0  0  2  0  0  0  0  0  0  0  0  0
  -10.6266    6.6828   17.8032 O   0  0  0  0  0  0  0  0  0  0  0  0
  -11.9859    8.6393   18.0815 C   0  0  1  0  0  0  0  0  0  0  0  0
  -12.7993    8.2561   16.9824 O   0  0  0  0  0  0  0  0  0  0  0  0
  -12.7422    9.0166   15.8072 C   0  0  2  0  0  0  0  0  0  0  0  0
  -14.1845    9.1779   15.2908 C   0  0  2  0  0  0  0  0  0  0  0  0
  -14.9465    9.8635   16.2612 O   0  0  0  0  0  0  0  0  0  0  0  0
  -14.7893    7.7606   15.0071 C   0  0  1  0  0  0  0  0  0  0  0  0
  -16.1929    7.8272   14.5323 N   0  3  0  0  0  0  0  0  0  0  0  0
  -17.1397    7.7542   15.6744 C   0  0  0  0  0  0  0  0  0  0  0  0
  -13.9002    7.0243   13.9467 C   0  0  2  0  0  0  0  0  0  0  0  0
  -13.8710    7.7806   12.7218 O   0  0  0  0  0  0  0  0  0  0  0  0
  -14.4087    5.7015   13.6323 C   0  0  0  0  0  0  0  0  0  0  0  0
  -12.4243    6.9483   14.4458 C   0  0  0  0  0  0  0  0  0  0  0  0
  -11.9199    8.3133   14.8079 O   0  0  0  0  0  0  0  0  0  0  0  0
  1  2  1  1  0  0  0
  1  3  1  0  0  0  0
  1 10  1  0  0  0  0
  3  4  1  1  0  0  0
  3  5  1  0  0  0  0
  5  6  1  6  0  0  0
  5  7  1  0  0  0  0
  7  8  1  1  0  0  0
  7  9  1  0  0  0  0
  9 10  1  6  0  0  0
  9 11  1  0  0  0  0
 11 12  1  1  0  0  0
 11 13  1  0  0  0  0
 14 15  1  6  0  0  0
 14 16  1  0  0  0  0
 14 22  1  0  0  0  0
 16 17  1  0  0  0  0
 17 18  1  1  0  0  0
 17 19  1  0  0  0  0
 19  2  1  1  0  0  0
 19 20  1  0  0  0  0
 20 21  1  6  0  0  0
 20 22  1  0  0  0  0
 22 23  1  6  0  0  0
 24 23  1  1  0  0  0
 24 25  1  0  0  0  0
 24 34  1  0  0  0  0
 25 26  1  1  0  0  0
 25 27  1  0  0  0  0
 27 28  1  6  0  0  0
 27 30  1  0  0  0  0
 28 29  1  0  0  0  0
 30 31  1  6  0  0  0
 30 32  1  0  0  0  0
 30 33  1  0  0  0  0
 33 34  1  0  0  0  0
M  CHG  4   4   1  15   1  18   1  28   1
M  END
>  <CHROM.1>
-161.38676434,-160.82899863,-170.23586258,-72.99531235,-62.79402684,44.79359160
177.35497174,169.55612824,-71.73771563,178.88760300,99.62833098,-138.16428141
123.01002547,28.97600127,178.05489378,-11.08850696,7.28141734,18.77960714
-0.20899807,0.82283198,-2.58379590

>  <Name>
1mwl

>  <RI>
0

>  <Rbt.Current_Directory>
/home/itssahil/PROJECTS/Mol_Feturizer/New_Systems/rnas/1mwl

>  <Rbt.Executable>
rbdock ($Id: //depot/dev/client3/rdock/2013.1/src/exe/rbdock.cxx#4 $)

>  <Rbt.Library>
libRbt.so (2013.1, Build901 2013/11/27)

>  <Rbt.Parameter_File>
/export/apps/rDock/src/rDock_2013.1_src/data/scripts/dock_solv.prm

>  <Rbt.Receptor>
prm/pocket_docking_5.prm

>  <SCORE>
-87.7012

>  <SCORE.INTER>
-73.9707

>  <SCORE.INTER.CONST>
1

>  <SCORE.INTER.POLAR>
-10.6792

>  <SCORE.INTER.ROT>
6

>  <SCORE.INTER.SOLV>
27.442

>  <SCORE.INTER.VDW>
-30.4637

>  <SCORE.INTER.norm>
-2.17561

>  <SCORE.INTRA>
-13.8122

>  <SCORE.INTRA.DIHEDRAL>
-16.1887

>  <SCORE.INTRA.DIHEDRAL.0>
42.0816

>  <SCORE.INTRA.POLAR>
-0.937585

>  <SCORE.INTRA.POLAR.0>
-0.254682

>  <SCORE.INTRA.REPUL>
0

>  <SCORE.INTRA.REPUL.0>
0

>  <SCORE.INTRA.SOLV>
0.526945

>  <SCORE.INTRA.SOLV.lig_0>
-109.803

>  <SCORE.INTRA.VDW>
-2.79351

>  <SCORE.INTRA.VDW.0>
0.32176

>  <SCORE.INTRA.norm>
-0.40624

>  <SCORE.RESTR>
0.0816792

>  <SCORE.RESTR.CAVITY>
0.0816792

>  <SCORE.RESTR.norm>
0.00240233

>  <SCORE.SYSTEM>
0

>  <SCORE.SYSTEM.CONST>
0

>  <SCORE.SYSTEM.DIHEDRAL>
0

>  <SCORE.SYSTEM.SOLV>
0

>  <SCORE.SYSTEM.norm>
0

>  <SCORE.heavy>
34

>  <SCORE.norm>
-2.57945

>  <RMSD>
0.481

$$$$
1mwl
 OpenBabel11021811403D
libRbt.so/2013.1/901 2013/11/27
 34 36  0  0  0  0  0  0  0  0999 V2000
   -9.0883    5.8494   20.2712 C   0  0  2  0  0  0  0  0  0  0  0  0
  -10.0719    6.6911   20.7935 O   0  0  0  0  0  0  0  0  0  0  0  0
   -9.1412    4.5183   21.0725 C   0  0  2  0  0  0  0  0  0  0  0  0
  -10.4714    3.9125   20.9587 N   0  3  0  0  0  0  0  0  0  0  0  0
   -8.7494    4.7575   22.5601 C   0  0  1  0  0  0  0  0  0  0  0  0
   -8.7685    3.5958   23.2602 O   0  0  0  0  0  0  0  0  0  0  0  0
   -7.3280    5.4097   22.6030 C   0  0  2  0  0  0  0  0  0  0  0  0
   -6.9277    5.6370   23.9706 O   0  0  0  0  0  0  0  0  0  0  0  0
   -7.3763    6.7509   21.7950 C   0  0  2  0  0  0  0  0  0  0  0  0
   -7.7956    6.4949   20.3993 O   0  0  0  0  0  0  0  0  0  0  0  0
   -6.0427    7.5034   21.7241 C   0  0  2  0  0  0  0  0  0  0  0  0
   -5.0012    6.5966   21.5619 O   0  0  0  0  0  0  0  0  0  0  0  0
   -5.7199    8.3074   22.9968 C   0  0  0  0  0  0  0  0  0  0  0  0
  -12.8861    9.4652   19.1674 C   0  0  2  0  0  0  0  0  0  0  0  0
  -13.4480   10.6397   18.4532 N   0  3  0  0  0  0  0  0  0  0  0  0
  -12.0164    9.9204   20.3767 C   0  0  0  0  0  0  0  0  0  0  0  0
  -11.4117    8.6712   21.1144 C   0  0  2  0  0  0  0  0  0  0  0  0
  -10.5836    9.1428   22.2842 N   0  3  0  0  0  0  0  0  0  0  0  0
  -10.5591    7.8332   20.1009 C   0  0  2  0  0  0  0  0  0  0  0  0
  -11.4522    7.3890   18.9168 C   0  0  2  0  0  0  0  0  0  0  0  0
  -10.6687    6.6671   17.9975 O   0  0  0  0  0  0  0  0  0  0  0  0
  -12.0283    8.6336   18.1900 C   0  0  1  0  0  0  0  0  0  0  0  0
  -12.8409    8.2032   17.1079 O   0  0  0  0  0  0  0  0  0  0  0  0
  -12.7502    8.8848   15.8873 C   0  0  2  0  0  0  0  0  0  0  0  0
  -14.1762    9.0024   15.3168 C   0  0  2  0  0  0  0  0  0  0  0  0
  -14.9712    9.7459   16.2156 O   0  0  0  0  0  0  0  0  0  0  0  0
  -14.7658    7.5657   15.1089 C   0  0  1  0  0  0  0  0  0  0  0  0
  -16.1541    7.5919   14.5875 N   0  3  0  0  0  0  0  0  0  0  0  0
  -17.1311    7.7367   15.6967 C   0  0  0  0  0  0  0  0  0  0  0  0
  -13.8407    6.7666   14.1278 C   0  0  2  0  0  0  0  0  0  0  0  0
  -13.7764    7.4406   12.8569 O   0  0  0  0  0  0  0  0  0  0  0  0
  -14.3335    5.4227   13.8860 C   0  0  0  0  0  0  0  0  0  0  0  0
  -12.3809    6.7331   14.6763 C   0  0  0  0  0  0  0  0  0  0  0  0
  -11.8940    8.1222   14.9626 O   0  0  0  0  0  0  0  0  0  0  0  0
  1  2  1  1  0  0  0
  1  3  1  0  0  0  0
  1 10  1  0  0  0  0
  3  4  1  1  0  0  0
  3  5  1  0  0  0  0
  5  6  1  1  0  0  0
  5  7  1  0  0  0  0
  7  8  1  1  0  0  0
  7  9  1  0  0  0  0
  9 10  1  6  0  0  0
  9 11  1  0  0  0  0
 11 12  1  1  0  0  0
 11 13  1  0  0  0  0
 14 15  1  6  0  0  0
 14 16  1  0  0  0  0
 14 22  1  0  0  0  0
 16 17  1  0  0  0  0
 17 18  1  1  0  0  0
 17 19  1  0  0  0  0
 19  2  1  1  0  0  0
 19 20  1  0  0  0  0
 20 21  1  6  0  0  0
 20 22  1  0  0  0  0
 22 23  1  6  0  0  0
 24 23  1  1  0  0  0
 24 25  1  0  0  0  0
 24 34  1  0  0  0  0
 25 26  1  1  0  0  0
 25 27  1  0  0  0  0
 27 28  1  6  0  0  0
 27 30  1  0  0  0  0
 28 29  1  0  0  0  0
 30 31  1  6  0  0  0
 30 32  1  0  0  0  0
 30 33  1  0  0  0  0
 33 34  1  0  0  0  0
M  CHG  4   4   1  15   1  18   1  28   1
M  END
>  <CHROM.1>
-162.66456079,-168.38346443,68.83034865,-72.05061790,65.01324628,39.32694376
129.55427253,-71.37121159,-69.98822157,-53.88604836,101.72147455,-140.39286651
171.78424660,35.09708221,-55.64949491,-11.07494134,7.27434967,18.86134612
-0.23979462,0.79685735,-2.56459035

>  <Name>
1mwl

>  <RI>
0

>  <Rbt.Current_Directory>
/home/itssahil/PROJECTS/Mol_Feturizer/New_Systems/rnas/1mwl

>  <Rbt.Executable>
rbdock ($Id: //depot/dev/client3/rdock/2013.1/src/exe/rbdock.cxx#4 $)

>  <Rbt.Library>
libRbt.so (2013.1, Build901 2013/11/27)

>  <Rbt.Parameter_File>
/export/apps/rDock/src/rDock_2013.1_src/data/scripts/dock_solv.prm

>  <Rbt.Receptor>
prm/pocket_docking_5.prm

>  <SCORE>
-80.6091

>  <SCORE.INTER>
-66.1001

>  <SCORE.INTER.CONST>
1

>  <SCORE.INTER.POLAR>
-9.55392

>  <SCORE.INTER.ROT>
6

>  <SCORE.INTER.SOLV>
26.6416

>  <SCORE.INTER.VDW>
-28.7008

>  <SCORE.INTER.norm>
-1.94412

>  <SCORE.INTRA>
-14.6933

>  <SCORE.INTRA.DIHEDRAL>
-17.336

>  <SCORE.INTRA.DIHEDRAL.0>
42.0816

>  <SCORE.INTRA.POLAR>
-0.93369

>  <SCORE.INTRA.POLAR.0>
-0.254682

>  <SCORE.INTRA.REPUL>
0

>  <SCORE.INTRA.REPUL.0>
0

>  <SCORE.INTRA.SOLV>
0.484289

>  <SCORE.INTRA.SOLV.lig_0>
-109.803

>  <SCORE.INTRA.VDW>
-3.09289

>  <SCORE.INTRA.VDW.0>
0.32176

>  <SCORE.INTRA.norm>
-0.432156

>  <SCORE.RESTR>
0.184229

>  <SCORE.RESTR.CAVITY>
0.184229

>  <SCORE.RESTR.norm>
0.0054185

>  <SCORE.SYSTEM>
0

>  <SCORE.SYSTEM.CONST>
0

>  <SCORE.SYSTEM.DIHEDRAL>
0

>  <SCORE.SYSTEM.SOLV>
0

>  <SCORE.SYSTEM.norm>
0

>  <SCORE.heavy>
34

>  <SCORE.norm>
-2.37086

>  <RMSD>
0.482

$$$$
1mwl
 OpenBabel11021811403D
libRbt.so/2013.1/901 2013/11/27
 34 36  0  0  0  0  0  0  0  0999 V2000
   -8.8638    6.0327   20.1243 C   0  0  2  0  0  0  0  0  0  0  0  0
   -9.9969    6.6953   20.5993 O   0  0  0  0  0  0  0  0  0  0  0  0
   -8.9392    4.5633   20.6262 C   0  0  2  0  0  0  0  0  0  0  0  0
  -10.1672    3.9260   20.1412 N   0  3  0  0  0  0  0  0  0  0  0  0
   -8.8438    4.5084   22.1791 C   0  0  1  0  0  0  0  0  0  0  0  0
   -8.8832    3.2272   22.6232 O   0  0  0  0  0  0  0  0  0  0  0  0
   -7.5179    5.2104   22.6227 C   0  0  2  0  0  0  0  0  0  0  0  0
   -7.3914    5.1692   24.0595 O   0  0  0  0  0  0  0  0  0  0  0  0
   -7.5413    6.6857   22.0967 C   0  0  2  0  0  0  0  0  0  0  0  0
   -7.6787    6.7037   20.6236 O   0  0  0  0  0  0  0  0  0  0  0  0
   -6.2900    7.5048   22.4332 C   0  0  2  0  0  0  0  0  0  0  0  0
   -5.2196    7.0621   21.6641 O   0  0  0  0  0  0  0  0  0  0  0  0
   -5.8468    7.3783   23.9022 C   0  0  0  0  0  0  0  0  0  0  0  0
  -12.8491    9.6174   19.3400 C   0  0  2  0  0  0  0  0  0  0  0  0
  -13.4313   10.8403   18.7309 N   0  3  0  0  0  0  0  0  0  0  0  0
  -11.8744    9.9889   20.4967 C   0  0  0  0  0  0  0  0  0  0  0  0
  -11.2499    8.6892   21.1220 C   0  0  2  0  0  0  0  0  0  0  0  0
  -10.3193    9.0800   22.2436 N   0  3  0  0  0  0  0  0  0  0  0  0
  -10.5039    7.8829   20.0041 C   0  0  2  0  0  0  0  0  0  0  0  0
  -11.4997    7.5217   18.8749 C   0  0  2  0  0  0  0  0  0  0  0  0
  -10.8118    6.8282   17.8620 O   0  0  0  0  0  0  0  0  0  0  0  0
  -12.0950    8.8156   18.2579 C   0  0  1  0  0  0  0  0  0  0  0  0
  -13.0020    8.4610   17.2244 O   0  0  0  0  0  0  0  0  0  0  0  0
  -12.9012    9.1139   15.9890 C   0  0  2  0  0  0  0  0  0  0  0  0
  -14.3140    9.1657   15.3772 C   0  0  2  0  0  0  0  0  0  0  0  0
  -15.1595    9.9029   16.2341 O   0  0  0  0  0  0  0  0  0  0  0  0
  -14.8466    7.7039   15.1917 C   0  0  1  0  0  0  0  0  0  0  0  0
  -16.2198    7.6669   14.6323 N   0  3  0  0  0  0  0  0  0  0  0  0
  -17.2276    7.9277   15.6917 C   0  0  0  0  0  0  0  0  0  0  0  0
  -13.8668    6.9137   14.2575 C   0  0  2  0  0  0  0  0  0  0  0  0
  -13.7907    7.5568   12.9715 O   0  0  0  0  0  0  0  0  0  0  0  0
  -14.3051    5.5472   14.0383 C   0  0  0  0  0  0  0  0  0  0  0  0
  -12.4227    6.9466   14.8461 C   0  0  0  0  0  0  0  0  0  0  0  0
  -11.9931    8.3593   15.1085 O   0  0  0  0  0  0  0  0  0  0  0  0
  1  2  1  1  0  0  0
  1  3  1  0  0  0  0
  1 10  1  0  0  0  0
  3  4  1  1  0  0  0
  3  5  1  0  0  0  0
  5  6  1  6  0  0  0
  5  7  1  0  0  0  0
  7  8  1  1  0  0  0
  7  9  1  0  0  0  0
  9 10  1  6  0  0  0
  9 11  1  0  0  0  0
 11 12  1  6  0  0  0
 11 13  1  0  0  0  0
 14 15  1  6  0  0  0
 14 16  1  0  0  0  0
 14 22  1  0  0  0  0
 16 17  1  0  0  0  0
 17 18  1  1  0  0  0
 17 19  1  0  0  0  0
 19  2  1  1  0  0  0
 19 20  1  0  0  0  0
 20 21  1  6  0  0  0
 20 22  1  0  0  0  0
 22 23  1  6  0  0  0
 24 23  1  1  0  0  0
 24 25  1  0  0  0  0
 24 34  1  0  0  0  0
 25 26  1  1  0  0  0
 25 27  1  0  0  0  0
 27 28  1  6  0  0  0
 27 30  1  0  0  0  0
 28 29  1  0  0  0  0
 30 31  1  6  0  0  0
 30 32  1  0  0  0  0
 30 33  1  0  0  0  0
 33 34  1  0  0  0  0
M  CHG  4   4   1  15   1  18   1  28   1
M  END
>  <CHROM.1>
-158.38899236,-152.44447485,-159.62999091,-147.43853633,69.28289331,71.87226471
93.95066134,63.36931564,176.11217656,71.28753795,107.84282370,-149.68071984
-68.33643315,40.23016919,-53.53874884,-11.11399527,7.31610532,18.89512906
-0.18565757,0.80919113,-2.60601771

>  <Name>
1mwl

>  <RI>
0

>  <Rbt.Current_Directory>
/home/itssahil/PROJECTS/Mol_Feturizer/New_Systems/rnas/1mwl

>  <Rbt.Executable>
rbdock ($Id: //depot/dev/client3/rdock/2013.1/src/exe/rbdock.cxx#4 $)

>  <Rbt.Library>
libRbt.so (2013.1, Build901 2013/11/27)

>  <Rbt.Parameter_File>
/export/apps/rDock/src/rDock_2013.1_src/data/scripts/dock_solv.prm

>  <Rbt.Receptor>
prm/pocket_docking_5.prm

>  <SCORE>
-75.5978

>  <SCORE.INTER>
-66.4604

>  <SCORE.INTER.CONST>
1

>  <SCORE.INTER.POLAR>
-9.24256

>  <SCORE.INTER.ROT>
6

>  <SCORE.INTER.SOLV>
25.8505

>  <SCORE.INTER.VDW>
-29.7152

>  <SCORE.INTER.norm>
-1.95472

>  <SCORE.INTRA>
-9.28112

>  <SCORE.INTRA.DIHEDRAL>
-14.2224

>  <SCORE.INTRA.DIHEDRAL.0>
42.0816

>  <SCORE.INTRA.POLAR>
-0.14592

>  <SCORE.INTRA.POLAR.0>
-0.254682

>  <SCORE.INTRA.REPUL>
0

>  <SCORE.INTRA.REPUL.0>
0

>  <SCORE.INTRA.SOLV>
1.14183

>  <SCORE.INTRA.SOLV.lig_0>
-109.803

>  <SCORE.INTRA.VDW>
-2.2447

>  <SCORE.INTRA.VDW.0>
0.32176

>  <SCORE.INTRA.norm>
-0.272974

>  <SCORE.RESTR>
0.143641

>  <SCORE.RESTR.CAVITY>
0.143641

>  <SCORE.RESTR.norm>
0.00422473

>  <SCORE.SYSTEM>
0

>  <SCORE.SYSTEM.CONST>
0

>  <SCORE.SYSTEM.DIHEDRAL>
0

>  <SCORE.SYSTEM.SOLV>
0

>  <SCORE.SYSTEM.norm>
0

>  <SCORE.heavy>
34

>  <SCORE.norm>
-2.22347

>  <RMSD>
0.488

$$$$
1mwl
 OpenBabel11021811403D
libRbt.so/2013.1/901 2013/11/27
 34 36  0  0  0  0  0  0  0  0999 V2000
   -8.9755    6.1453   20.0714 C   0  0  2  0  0  0  0  0  0  0  0  0
  -10.0348    6.8759   20.6127 O   0  0  0  0  0  0  0  0  0  0  0  0
   -9.2060    4.6518   20.4362 C   0  0  2  0  0  0  0  0  0  0  0  0
  -10.4923    4.1939   19.9022 N   0  3  0  0  0  0  0  0  0  0  0  0
   -9.1220    4.4439   21.9767 C   0  0  1  0  0  0  0  0  0  0  0  0
   -9.2968    3.1384   22.3009 O   0  0  0  0  0  0  0  0  0  0  0  0
   -7.7315    4.9595   22.4747 C   0  0  2  0  0  0  0  0  0  0  0  0
   -7.6149    4.7728   23.9009 O   0  0  0  0  0  0  0  0  0  0  0  0
   -7.5986    6.4715   22.0873 C   0  0  2  0  0  0  0  0  0  0  0  0
   -7.7284    6.6398   20.6230 O   0  0  0  0  0  0  0  0  0  0  0  0
   -6.2697    7.1208   22.4900 C   0  0  2  0  0  0  0  0  0  0  0  0
   -5.9387    6.7446   23.7870 O   0  0  0  0  0  0  0  0  0  0  0  0
   -6.3086    8.6599   22.4842 C   0  0  0  0  0  0  0  0  0  0  0  0
  -12.9752    9.6173   19.1643 C   0  0  2  0  0  0  0  0  0  0  0  0
  -13.5915   10.8047   18.5196 N   0  3  0  0  0  0  0  0  0  0  0  0
  -12.1106   10.0420   20.3882 C   0  0  0  0  0  0  0  0  0  0  0  0
  -11.4484    8.7806   21.0520 C   0  0  2  0  0  0  0  0  0  0  0  0
  -10.6264    9.2219   22.2378 N   0  3  0  0  0  0  0  0  0  0  0  0
  -10.5748    8.0329   19.9870 C   0  0  2  0  0  0  0  0  0  0  0  0
  -11.4631    7.6169   18.7890 C   0  0  2  0  0  0  0  0  0  0  0  0
  -10.6620    6.9773   17.8251 O   0  0  0  0  0  0  0  0  0  0  0  0
  -12.0964    8.8744   18.1356 C   0  0  1  0  0  0  0  0  0  0  0  0
  -12.9035    8.4700   17.0395 O   0  0  0  0  0  0  0  0  0  0  0  0
  -12.8516    9.2171   15.8556 C   0  0  2  0  0  0  0  0  0  0  0  0
  -14.2881    9.3157   15.3082 C   0  0  2  0  0  0  0  0  0  0  0  0
  -15.0958    9.9835   16.2538 O   0  0  0  0  0  0  0  0  0  0  0  0
  -14.8319    7.8725   15.0316 C   0  0  1  0  0  0  0  0  0  0  0  0
  -16.2270    7.8784   14.5279 N   0  3  0  0  0  0  0  0  0  0  0  0
  -17.1938    7.8008   15.6528 C   0  0  0  0  0  0  0  0  0  0  0  0
  -13.8934    7.1578   13.9993 C   0  0  2  0  0  0  0  0  0  0  0  0
  -13.8683    7.8991   12.7651 O   0  0  0  0  0  0  0  0  0  0  0  0
  -14.3440    5.8123   13.6927 C   0  0  0  0  0  0  0  0  0  0  0  0
  -12.4262    7.1455   14.5289 C   0  0  0  0  0  0  0  0  0  0  0  0
  -11.9825    8.5336   14.8824 O   0  0  0  0  0  0  0  0  0  0  0  0
  1  2  1  1  0  0  0
  1  3  1  0  0  0  0
  1 10  1  0  0  0  0
  3  4  1  1  0  0  0
  3  5  1  0  0  0  0
  5  6  1  6  0  0  0
  5  7  1  0  0  0  0
  7  8  1  1  0  0  0
  7  9  1  0  0  0  0
  9 10  1  6  0  0  0
  9 11  1  0  0  0  0
 11 12  1  1  0  0  0
 11 13  1  0  0  0  0
 14 15  1  6  0  0  0
 14 16  1  0  0  0  0
 14 22  1  0  0  0  0
 16 17  1  0  0  0  0
 17 18  1  1  0  0  0
 17 19  1  0  0  0  0
 19  2  1  1  0  0  0
 19 20  1  0  0  0  0
 20 21  1  6  0  0  0
 20 22  1  0  0  0  0
 22 23  1  6  0  0  0
 24 23  1  1  0  0  0
 24 25  1  0  0  0  0
 24 34  1  0  0  0  0
 25 26  1  1  0  0  0
 25 27  1  0  0  0  0
 27 28  1  6  0  0  0
 27 30  1  0  0  0  0
 28 29  1  0  0  0  0
 30 31  1  6  0  0  0
 30 32  1  0  0  0  0
 30 33  1  0  0  0  0
 33 34  1  0  0  0  0
M  CHG  4   4   1  15   1  18   1  28   1
M  END
>  <CHROM.1>
-146.25318932,-164.80623490,67.63789677,-160.90012149,-70.19346575,-44.30901353
-52.44021529,-61.05138956,162.79525560,177.61742790,101.86078512,-140.10704755
111.88931034,29.69669022,177.31146280,-11.23599103,7.40189153,18.80174122
-0.16130058,0.85217930,-2.63903001

>  <Name>
1mwl

>  <RI>
0

>  <Rbt.Current_Directory>
/home/itssahil/PROJECTS/Mol_Feturizer/New_Systems/rnas/1mwl

>  <Rbt.Executable>
rbdock ($Id: //depot/dev/client3/rdock/2013.1/src/exe/rbdock.cxx#4 $)

>  <Rbt.Library>
libRbt.so (2013.1, Build901 2013/11/27)

>  <Rbt.Parameter_File>
/export/apps/rDock/src/rDock_2013.1_src/data/scripts/dock_solv.prm

>  <Rbt.Receptor>
prm/pocket_docking_2.prm

>  <SCORE>
-91.8672

>  <SCORE.INTER>
-79.7271

>  <SCORE.INTER.CONST>
1

>  <SCORE.INTER.POLAR>
-11.7369

>  <SCORE.INTER.ROT>
6

>  <SCORE.INTER.SOLV>
24.9657

>  <SCORE.INTER.VDW>
-29.9502

>  <SCORE.INTER.norm>
-2.34491

>  <SCORE.INTRA>
-12.3747

>  <SCORE.INTRA.DIHEDRAL>
-12.6554

>  <SCORE.INTRA.DIHEDRAL.0>
42.0816

>  <SCORE.INTRA.POLAR>
-0.90872

>  <SCORE.INTRA.POLAR.0>
-0.254682

>  <SCORE.INTRA.REPUL>
0

>  <SCORE.INTRA.REPUL.0>
0

>  <SCORE.INTRA.SOLV>
0.981282

>  <SCORE.INTRA.SOLV.lig_0>
-109.803

>  <SCORE.INTRA.VDW>
-3.44796

>  <SCORE.INTRA.VDW.0>
0.32176

>  <SCORE.INTRA.norm>
-0.36396

>  <SCORE.RESTR>
0.234506

>  <SCORE.RESTR.CAVITY>
0.234506

>  <SCORE.RESTR.norm>
0.00689724

>  <SCORE.SYSTEM>
0

>  <SCORE.SYSTEM.CONST>
0

>  <SCORE.SYSTEM.DIHEDRAL>
0

>  <SCORE.SYSTEM.SOLV>
0

>  <SCORE.SYSTEM.norm>
0

>  <SCORE.heavy>
34

>  <SCORE.norm>
-2.70198

>  <RMSD>
0.492

$$$$
1mwl
 OpenBabel11021811403D
libRbt.so/2013.1/901 2013/11/27
 34 36  0  0  0  0  0  0  0  0999 V2000
   -8.9441    6.0363   20.0845 C   0  0  2  0  0  0  0  0  0  0  0  0
  -10.0155    6.7627   20.6070 O   0  0  0  0  0  0  0  0  0  0  0  0
   -9.0883    4.5708   20.5828 C   0  0  2  0  0  0  0  0  0  0  0  0
  -10.3708    4.0118   20.1443 N   0  3  0  0  0  0  0  0  0  0  0  0
   -8.9351    4.4999   22.1304 C   0  0  1  0  0  0  0  0  0  0  0  0
   -9.0343    3.2205   22.5702 O   0  0  0  0  0  0  0  0  0  0  0  0
   -7.5527    5.1178   22.5238 C   0  0  2  0  0  0  0  0  0  0  0  0
   -7.3724    5.0595   23.9543 O   0  0  0  0  0  0  0  0  0  0  0  0
   -7.5077    6.5954   22.0054 C   0  0  2  0  0  0  0  0  0  0  0  0
   -7.7018    6.6314   20.5390 O   0  0  0  0  0  0  0  0  0  0  0  0
   -6.1969    7.3354   22.2954 C   0  0  2  0  0  0  0  0  0  0  0  0
   -5.1213    6.4752   22.1043 O   0  0  0  0  0  0  0  0  0  0  0  0
   -6.0861    7.8495   23.7424 C   0  0  0  0  0  0  0  0  0  0  0  0
  -12.9015    9.5667   19.1689 C   0  0  2  0  0  0  0  0  0  0  0  0
  -13.4943   10.7681   18.5281 N   0  3  0  0  0  0  0  0  0  0  0  0
  -12.0277    9.9703   20.3935 C   0  0  0  0  0  0  0  0  0  0  0  0
  -11.3905    8.6939   21.0530 C   0  0  2  0  0  0  0  0  0  0  0  0
  -10.5590    9.1152   22.2396 N   0  3  0  0  0  0  0  0  0  0  0  0
  -10.5327    7.9321   19.9852 C   0  0  2  0  0  0  0  0  0  0  0  0
  -11.4298    7.5376   18.7866 C   0  0  2  0  0  0  0  0  0  0  0  0
  -10.6423    6.8849   17.8201 O   0  0  0  0  0  0  0  0  0  0  0  0
  -12.0383    8.8094   18.1374 C   0  0  1  0  0  0  0  0  0  0  0  0
  -12.8540    8.4245   17.0406 O   0  0  0  0  0  0  0  0  0  0  0  0
  -12.8479    9.2199   15.8874 C   0  0  2  0  0  0  0  0  0  0  0  0
  -14.2984    9.3020   15.3751 C   0  0  2  0  0  0  0  0  0  0  0  0
  -15.1017    9.9094   16.3642 O   0  0  0  0  0  0  0  0  0  0  0  0
  -14.8107    7.8571   15.0514 C   0  0  1  0  0  0  0  0  0  0  0  0
  -16.2163    7.8461   14.5781 N   0  3  0  0  0  0  0  0  0  0  0  0
  -17.1559    7.7087   15.7202 C   0  0  0  0  0  0  0  0  0  0  0  0
  -13.8773    7.2100   13.9711 C   0  0  2  0  0  0  0  0  0  0  0  0
  -13.8989    8.0008   12.7679 O   0  0  0  0  0  0  0  0  0  0  0  0
  -14.2997    5.8664   13.6193 C   0  0  0  0  0  0  0  0  0  0  0  0
  -12.3989    7.2156   14.4683 C   0  0  0  0  0  0  0  0  0  0  0  0
  -11.9833    8.5997   14.8689 O   0  0  0  0  0  0  0  0  0  0  0  0
  1  2  1  1  0  0  0
  1  3  1  0  0  0  0
  1 10  1  0  0  0  0
  3  4  1  1  0  0  0
  3  5  1  0  0  0  0
  5  6  1  6  0  0  0
  5  7  1  0  0  0  0
  7  8  1  1  0  0  0
  7  9  1  0  0  0  0
  9 10  1  6  0  0  0
  9 11  1  0  0  0  0
 11 12  1  1  0  0  0
 11 13  1  0  0  0  0
 14 15  1  6  0  0  0
 14 16  1  0  0  0  0
 14 22  1  0  0  0  0
 16 17  1  0  0  0  0
 17 18  1  1  0  0  0
 17 19  1  0  0  0  0
 19  2  1  1  0  0  0
 19 20  1  0  0  0  0
 20 21  1  6  0  0  0
 20 22  1  0  0  0  0
 22 23  1  6  0  0  0
 24 23  1  1  0  0  0
 24 25  1  0  0  0  0
 24 34  1  0  0  0  0
 25 26  1  1  0  0  0
 25 27  1  0  0  0  0
 27 28  1  6  0  0  0
 27 30  1  0  0  0  0
 28 29  1  0  0  0  0
 30 31  1  6  0  0  0
 30 32  1  0  0  0  0
 30 33  1  0  0  0  0
 33 34  1  0  0  0  0
M  CHG  4   4   1  15   1  18   1  28   1
M  END
>  <CHROM.1>
-153.86639580,-162.74701069,-168.39522060,-155.64488570,170.31608270,39.90517311
170.23686151,59.49866940,47.54377668,178.52100767,98.09945072,-139.80626023
171.98555625,30.16849104,179.47327578,-11.13588461,7.36083730,18.80524305
-0.21991104,0.82080562,-2.54449236

>  <Name>
1mwl

>  <RI>
0

>  <Rbt.Current_Directory>
/home/itssahil/PROJECTS/Mol_Feturizer/New_Systems/rnas/1mwl

>  <Rbt.Executable>
rbdock ($Id: //depot/dev/client3/rdock/2013.1/src/exe/rbdock.cxx#4 $)

>  <Rbt.Library>
libRbt.so (2013.1, Build901 2013/11/27)

>  <Rbt.Parameter_File>
/export/apps/rDock/src/rDock_2013.1_src/data/scripts/dock_solv.prm

>  <Rbt.Receptor>
prm/pocket_docking_4.prm

>  <SCORE>
-82.3468

>  <SCORE.INTER>
-66.7432

>  <SCORE.INTER.CONST>
1

>  <SCORE.INTER.POLAR>
-9.15769

>  <SCORE.INTER.ROT>
6

>  <SCORE.INTER.SOLV>
27.1144

>  <SCORE.INTER.VDW>
-30.608

>  <SCORE.INTER.norm>
-1.96303

>  <SCORE.INTRA>
-15.6037

>  <SCORE.INTRA.DIHEDRAL>
-19.6606

>  <SCORE.INTRA.DIHEDRAL.0>
42.0816

>  <SCORE.INTRA.POLAR>
-0.946808

>  <SCORE.INTRA.POLAR.0>
-0.254682

>  <SCORE.INTRA.REPUL>
0

>  <SCORE.INTRA.REPUL.0>
0

>  <SCORE.INTRA.SOLV>
0.413045

>  <SCORE.INTRA.SOLV.lig_0>
-109.803

>  <SCORE.INTRA.VDW>
-2.76073

>  <SCORE.INTRA.VDW.0>
0.32176

>  <SCORE.INTRA.norm>
-0.458931

>  <SCORE.RESTR>
0

>  <SCORE.RESTR.CAVITY>
0

>  <SCORE.RESTR.norm>
0

>  <SCORE.SYSTEM>
0

>  <SCORE.SYSTEM.CONST>
0

>  <SCORE.SYSTEM.DIHEDRAL>
0

>  <SCORE.SYSTEM.SOLV>
0

>  <SCORE.SYSTEM.norm>
0

>  <SCORE.heavy>
34

>  <SCORE.norm>
-2.42197

>  <RMSD>
0.494

$$$$
1mwl
 OpenBabel11021811403D
libRbt.so/2013.1/901 2013/11/27
 34 36  0  0  0  0  0  0  0  0999 V2000
   -8.9621    5.7595   20.2127 C   0  0  2  0  0  0  0  0  0  0  0  0
   -9.9927    6.5501   20.7241 O   0  0  0  0  0  0  0  0  0  0  0  0
   -9.0071    4.3964   20.9589 C   0  0  2  0  0  0  0  0  0  0  0  0
  -10.3117    3.7565   20.7640 N   0  3  0  0  0  0  0  0  0  0  0  0
   -8.6862    4.5874   22.4703 C   0  0  1  0  0  0  0  0  0  0  0  0
   -8.6985    3.3985   23.1234 O   0  0  0  0  0  0  0  0  0  0  0  0
   -7.2890    5.2791   22.6001 C   0  0  2  0  0  0  0  0  0  0  0  0
   -6.9541    5.4632   23.9916 O   0  0  0  0  0  0  0  0  0  0  0  0
   -7.3450    6.6495   21.8433 C   0  0  2  0  0  0  0  0  0  0  0  0
   -7.6968    6.4373   20.4219 O   0  0  0  0  0  0  0  0  0  0  0  0
   -6.0338    7.4435   21.8596 C   0  0  2  0  0  0  0  0  0  0  0  0
   -4.9930    6.6202   22.2747 O   0  0  0  0  0  0  0  0  0  0  0  0
   -6.0495    8.6401   22.8282 C   0  0  0  0  0  0  0  0  0  0  0  0
  -12.7861    9.4131   19.2208 C   0  0  2  0  0  0  0  0  0  0  0  0
  -13.3403   10.6126   18.5430 N   0  3  0  0  0  0  0  0  0  0  0  0
  -11.8777    9.8266   20.4166 C   0  0  0  0  0  0  0  0  0  0  0  0
  -11.2819    8.5511   21.1153 C   0  0  2  0  0  0  0  0  0  0  0  0
  -10.4157    8.9826   22.2730 N   0  3  0  0  0  0  0  0  0  0  0  0
  -10.4723    7.7154   20.0653 C   0  0  2  0  0  0  0  0  0  0  0  0
  -11.4033    7.3128   18.8956 C   0  0  2  0  0  0  0  0  0  0  0  0
  -10.6579    6.5927   17.9438 O   0  0  0  0  0  0  0  0  0  0  0  0
  -11.9704    8.5830   18.2069 C   0  0  1  0  0  0  0  0  0  0  0  0
  -12.8180    8.1905   17.1374 O   0  0  0  0  0  0  0  0  0  0  0  0
  -12.8367    8.9710   15.9741 C   0  0  2  0  0  0  0  0  0  0  0  0
  -14.2965    9.0394   15.4871 C   0  0  2  0  0  0  0  0  0  0  0  0
  -15.0850    9.6557   16.4826 O   0  0  0  0  0  0  0  0  0  0  0  0
  -14.8072    7.5880   15.1912 C   0  0  1  0  0  0  0  0  0  0  0  0
  -16.2211    7.5641   14.7436 N   0  3  0  0  0  0  0  0  0  0  0  0
  -17.1409    7.4819   15.9068 C   0  0  0  0  0  0  0  0  0  0  0  0
  -13.8902    6.9315   14.1026 C   0  0  2  0  0  0  0  0  0  0  0  0
  -13.9374    7.7065   12.8900 O   0  0  0  0  0  0  0  0  0  0  0  0
  -14.3121    5.5814   13.7759 C   0  0  0  0  0  0  0  0  0  0  0  0
  -12.4031    6.9506   14.5731 C   0  0  0  0  0  0  0  0  0  0  0  0
  -11.9874    8.3418   14.9482 O   0  0  0  0  0  0  0  0  0  0  0  0
  1  2  1  1  0  0  0
  1  3  1  0  0  0  0
  1 10  1  0  0  0  0
  3  4  1  1  0  0  0
  3  5  1  0  0  0  0
  5  6  1  1  0  0  0
  5  7  1  0  0  0  0
  7  8  1  1  0  0  0
  7  9  1  0  0  0  0
  9 10  1  6  0  0  0
  9 11  1  0  0  0  0
 11 12  1  1  0  0  0
 11 13  1  0  0  0  0
 14 15  1  6  0  0  0
 14 16  1  0  0  0  0
 14 22  1  0  0  0  0
 16 17  1  0  0  0  0
 17 18  1  1  0  0  0
 17 19  1  0  0  0  0
 19  2  1  1  0  0  0
 19 20  1  0  0  0  0
 20 21  1  6  0  0  0
 20 22  1  0  0  0  0
 22 23  1  6  0  0  0
 24 23  1  1  0  0  0
 24 25  1  0  0  0  0
 24 34  1  0  0  0  0
 25 26  1  1  0  0  0
 25 27  1  0  0  0  0
 27 28  1  6  0  0  0
 27 30  1  0  0  0  0
 28 29  1  0  0  0  0
 30 31  1  6  0  0  0
 30 32  1  0  0  0  0
 30 33  1  0  0  0  0
 33 34  1  0  0  0  0
M  CHG  4   4   1  15   1  18   1  28   1
M  END
>  <CHROM.1>
-163.62424890,-162.92737178,-166.62889373,-81.22545691,-176.69532818,14.19275730
168.20553544,53.46127484,173.97590117,71.42027196,95.65223434,-140.68996585
166.57181803,32.02690266,57.60836217,-11.05499863,7.24586958,18.89573070
-0.13877165,0.81068130,-2.68876595

>  <Name>
1mwl

>  <RI>
0

>  <Rbt.Current_Directory>
/home/itssahil/PROJECTS/Mol_Feturizer/New_Systems/rnas/1mwl

>  <Rbt.Executable>
rbdock ($Id: //depot/dev/client3/rdock/2013.1/src/exe/rbdock.cxx#4 $)

>  <Rbt.Library>
libRbt.so (2013.1, Build901 2013/11/27)

>  <Rbt.Parameter_File>
/export/apps/rDock/src/rDock_2013.1_src/data/scripts/dock_solv.prm

>  <Rbt.Receptor>
prm/pocket_docking_3.prm

>  <SCORE>
-78.1413

>  <SCORE.INTER>
-62.0444

>  <SCORE.INTER.CONST>
1

>  <SCORE.INTER.POLAR>
-8.44056

>  <SCORE.INTER.ROT>
6

>  <SCORE.INTER.SOLV>
25.722

>  <SCORE.INTER.VDW>
-29.4017

>  <SCORE.INTER.norm>
-1.82484

>  <SCORE.INTRA>
-16.0969

>  <SCORE.INTRA.DIHEDRAL>
-18.4174

>  <SCORE.INTRA.DIHEDRAL.0>
42.0816

>  <SCORE.INTRA.POLAR>
-1.32816

>  <SCORE.INTRA.POLAR.0>
-0.254682

>  <SCORE.INTRA.REPUL>
0

>  <SCORE.INTRA.REPUL.0>
0

>  <SCORE.INTRA.SOLV>
0.937999

>  <SCORE.INTRA.SOLV.lig_0>
-109.803

>  <SCORE.INTRA.VDW>
-2.84142

>  <SCORE.INTRA.VDW.0>
0.32176

>  <SCORE.INTRA.norm>
-0.473438

>  <SCORE.RESTR>
0

>  <SCORE.RESTR.CAVITY>
0

>  <SCORE.RESTR.norm>
0

>  <SCORE.SYSTEM>
0

>  <SCORE.SYSTEM.CONST>
0

>  <SCORE.SYSTEM.DIHEDRAL>
0

>  <SCORE.SYSTEM.SOLV>
0

>  <SCORE.SYSTEM.norm>
0

>  <SCORE.heavy>
34

>  <SCORE.norm>
-2.29827

>  <RMSD>
0.504

$$$$
1mwl
 OpenBabel11021811403D
libRbt.so/2013.1/901 2013/11/27
 34 36  0  0  0  0  0  0  0  0999 V2000
   -8.9194    5.8998   20.2359 C   0  0  2  0  0  0  0  0  0  0  0  0
   -9.9667    6.6604   20.7587 O   0  0  0  0  0  0  0  0  0  0  0  0
   -8.9777    4.5009   20.9116 C   0  0  2  0  0  0  0  0  0  0  0  0
  -10.2738    3.8673   20.6506 N   0  3  0  0  0  0  0  0  0  0  0  0
   -8.6974    4.6171   22.4386 C   0  0  1  0  0  0  0  0  0  0  0  0
   -8.7213    3.3970   23.0310 O   0  0  0  0  0  0  0  0  0  0  0  0
   -7.3073    5.3060   22.6397 C   0  0  2  0  0  0  0  0  0  0  0  0
   -7.0099    5.4214   24.0470 O   0  0  0  0  0  0  0  0  0  0  0  0
   -7.3498    6.7124   21.9510 C   0  0  2  0  0  0  0  0  0  0  0  0
   -7.6632    6.5704   20.5120 O   0  0  0  0  0  0  0  0  0  0  0  0
   -6.0431    7.5088   22.0416 C   0  0  2  0  0  0  0  0  0  0  0  0
   -5.0064    6.7735   21.4779 O   0  0  0  0  0  0  0  0  0  0  0  0
   -5.6123    7.8246   23.4855 C   0  0  0  0  0  0  0  0  0  0  0  0
  -12.7852    9.5594   19.3761 C   0  0  2  0  0  0  0  0  0  0  0  0
  -13.3517   10.7697   18.7283 N   0  3  0  0  0  0  0  0  0  0  0  0
  -11.8341    9.9544   20.5446 C   0  0  0  0  0  0  0  0  0  0  0  0
  -11.2258    8.6677   21.2112 C   0  0  2  0  0  0  0  0  0  0  0  0
  -10.3180    9.0812   22.3433 N   0  3  0  0  0  0  0  0  0  0  0  0
  -10.4584    7.8356   20.1271 C   0  0  2  0  0  0  0  0  0  0  0  0
  -11.4311    7.4515   18.9854 C   0  0  2  0  0  0  0  0  0  0  0  0
  -10.7238    6.7347   18.0026 O   0  0  0  0  0  0  0  0  0  0  0  0
  -12.0104    8.7326   18.3279 C   0  0  1  0  0  0  0  0  0  0  0  0
  -12.8964    8.3571   17.2836 O   0  0  0  0  0  0  0  0  0  0  0  0
  -12.7852    9.0009   16.0443 C   0  0  2  0  0  0  0  0  0  0  0  0
  -14.2066    9.1421   15.4678 C   0  0  2  0  0  0  0  0  0  0  0  0
  -14.9817    9.9327   16.3435 O   0  0  0  0  0  0  0  0  0  0  0  0
  -14.8359    7.7171   15.2996 C   0  0  1  0  0  0  0  0  0  0  0  0
  -16.2223    7.7672   14.7747 N   0  3  0  0  0  0  0  0  0  0  0  0
  -17.2049    7.8288   15.8868 C   0  0  0  0  0  0  0  0  0  0  0  0
  -13.9323    6.8649   14.3434 C   0  0  2  0  0  0  0  0  0  0  0  0
  -13.8475    7.5004   13.0541 O   0  0  0  0  0  0  0  0  0  0  0  0
  -14.4622    5.5290   14.1389 C   0  0  0  0  0  0  0  0  0  0  0  0
  -12.4746    6.8062   14.8957 C   0  0  0  0  0  0  0  0  0  0  0  0
  -11.9494    8.1888   15.1435 O   0  0  0  0  0  0  0  0  0  0  0  0
  1  2  1  1  0  0  0
  1  3  1  0  0  0  0
  1 10  1  0  0  0  0
  3  4  1  1  0  0  0
  3  5  1  0  0  0  0
  5  6  1  6  0  0  0
  5  7  1  0  0  0  0
  7  8  1  1  0  0  0
  7  9  1  0  0  0  0
  9 10  1  6  0  0  0
  9 11  1  0  0  0  0
 11 12  1  1  0  0  0
 11 13  1  0  0  0  0
 14 15  1  6  0  0  0
 14 16  1  0  0  0  0
 14 22  1  0  0  0  0
 16 17  1  0  0  0  0
 17 18  1  1  0  0  0
 17 19  1  0  0  0  0
 19  2  1  1  0  0  0
 19 20  1  0  0  0  0
 20 21  1  6  0  0  0
 20 22  1  0  0  0  0
 22 23  1  6  0  0  0
 24 23  1  1  0  0  0
 24 25  1  0  0  0  0
 24 34  1  0  0  0  0
 25 26  1  1  0  0  0
 25 27  1  0  0  0  0
 27 28  1  6  0  0  0
 27 30  1  0  0  0  0
 28 29  1  0  0  0  0
 30 31  1  6  0  0  0
 30 32  1  0  0  0  0
 30 33  1  0  0  0  0
 33 34  1  0  0  0  0
M  CHG  4   4   1  15   1  18   1  28   1
M  END
>  <CHROM.1>
-161.85547835,-159.96807777,-166.75987772,-76.11864444,-54.94838543,57.68379907
172.78710882,-177.31671581,176.27088433,-177.31271476,106.62835822,-144.66413285
176.80639351,29.21532312,-50.29544221,-11.04788604,7.30147615,18.96158100
-0.17351928,0.79348588,-2.62587438

>  <Name>
1mwl

>  <RI>
0

>  <Rbt.Current_Directory>
/home/itssahil/PROJECTS/Mol_Feturizer/New_Systems/rnas/1mwl

>  <Rbt.Executable>
rbdock ($Id: //depot/dev/client3/rdock/2013.1/src/exe/rbdock.cxx#4 $)

>  <Rbt.Library>
libRbt.so (2013.1, Build901 2013/11/27)

>  <Rbt.Parameter_File>
/export/apps/rDock/src/rDock_2013.1_src/data/scripts/dock_solv.prm

>  <Rbt.Receptor>
prm/pocket_docking_4.prm

>  <SCORE>
-81.1162

>  <SCORE.INTER>
-63.7828

>  <SCORE.INTER.CONST>
1

>  <SCORE.INTER.POLAR>
-8.74765

>  <SCORE.INTER.ROT>
6

>  <SCORE.INTER.SOLV>
26.6463

>  <SCORE.INTER.VDW>
-29.8451

>  <SCORE.INTER.norm>
-1.87596

>  <SCORE.INTRA>
-17.3334

>  <SCORE.INTRA.DIHEDRAL>
-23.1612

>  <SCORE.INTRA.DIHEDRAL.0>
42.0816

>  <SCORE.INTRA.POLAR>
-0.956572

>  <SCORE.INTRA.POLAR.0>
-0.254682

>  <SCORE.INTRA.REPUL>
0

>  <SCORE.INTRA.REPUL.0>
0

>  <SCORE.INTRA.SOLV>
0.673222

>  <SCORE.INTRA.SOLV.lig_0>
-109.803

>  <SCORE.INTRA.VDW>
-2.83707

>  <SCORE.INTRA.VDW.0>
0.32176

>  <SCORE.INTRA.norm>
-0.509806

>  <SCORE.RESTR>
0

>  <SCORE.RESTR.CAVITY>
0

>  <SCORE.RESTR.norm>
0

>  <SCORE.SYSTEM>
0

>  <SCORE.SYSTEM.CONST>
0

>  <SCORE.SYSTEM.DIHEDRAL>
0

>  <SCORE.SYSTEM.SOLV>
0

>  <SCORE.SYSTEM.norm>
0

>  <SCORE.heavy>
34

>  <SCORE.norm>
-2.38577

>  <RMSD>
0.506

$$$$
1mwl
 OpenBabel11021811403D
libRbt.so/2013.1/901 2013/11/27
 34 36  0  0  0  0  0  0  0  0999 V2000
   -9.0414    6.1867   20.1309 C   0  0  2  0  0  0  0  0  0  0  0  0
  -10.0795    6.9418   20.6793 O   0  0  0  0  0  0  0  0  0  0  0  0
   -9.3023    4.6993   20.5002 C   0  0  2  0  0  0  0  0  0  0  0  0
  -10.6029    4.2695   19.9774 N   0  3  0  0  0  0  0  0  0  0  0  0
   -9.2106    4.4922   22.0404 C   0  0  1  0  0  0  0  0  0  0  0  0
   -9.4119    3.1914   22.3684 O   0  0  0  0  0  0  0  0  0  0  0  0
   -7.8048    4.9773   22.5262 C   0  0  2  0  0  0  0  0  0  0  0  0
   -7.6810    4.7903   23.9517 O   0  0  0  0  0  0  0  0  0  0  0  0
   -7.6412    6.4853   22.1349 C   0  0  2  0  0  0  0  0  0  0  0  0
   -7.7790    6.6540   20.6714 O   0  0  0  0  0  0  0  0  0  0  0  0
   -6.2948    7.1052   22.5257 C   0  0  2  0  0  0  0  0  0  0  0  0
   -5.9512    6.7059   23.8125 O   0  0  0  0  0  0  0  0  0  0  0  0
   -6.3059    8.6447   22.5405 C   0  0  0  0  0  0  0  0  0  0  0  0
  -13.0915    9.5680   19.1659 C   0  0  2  0  0  0  0  0  0  0  0  0
  -13.7391   10.7192   18.4870 N   0  3  0  0  0  0  0  0  0  0  0  0
  -12.2262   10.0526   20.3668 C   0  0  0  0  0  0  0  0  0  0  0  0
  -11.5309    8.8292   21.0668 C   0  0  2  0  0  0  0  0  0  0  0  0
  -10.7090    9.3283   22.2295 N   0  3  0  0  0  0  0  0  0  0  0  0
  -10.6501    8.0649   20.0198 C   0  0  2  0  0  0  0  0  0  0  0  0
  -11.5389    7.5892   18.8447 C   0  0  2  0  0  0  0  0  0  0  0  0
  -10.7321    6.9347   17.8956 O   0  0  0  0  0  0  0  0  0  0  0  0
  -12.2051    8.8098   18.1549 C   0  0  1  0  0  0  0  0  0  0  0  0
  -13.0123    8.3509   17.0805 O   0  0  0  0  0  0  0  0  0  0  0  0
  -12.6605    8.7135   15.7738 C   0  0  2  0  0  0  0  0  0  0  0  0
  -13.9618    8.8098   14.9550 C   0  0  2  0  0  0  0  0  0  0  0  0
  -14.7860    9.8084   15.5171 O   0  0  0  0  0  0  0  0  0  0  0  0
  -14.6823    7.4185   14.9712 C   0  0  1  0  0  0  0  0  0  0  0  0
  -15.9647    7.4348   14.2260 N   0  3  0  0  0  0  0  0  0  0  0  0
  -17.0918    7.7929   15.1246 C   0  0  0  0  0  0  0  0  0  0  0  0
  -13.7248    6.3358   14.3646 C   0  0  2  0  0  0  0  0  0  0  0  0
  -13.3924    6.6812   13.0068 O   0  0  0  0  0  0  0  0  0  0  0  0
  -14.3342    5.0184   14.3445 C   0  0  0  0  0  0  0  0  0  0  0  0
  -12.3771    6.3129   15.1496 C   0  0  0  0  0  0  0  0  0  0  0  0
  -11.7746    7.6852   15.2016 O   0  0  0  0  0  0  0  0  0  0  0  0
  1  2  1  1  0  0  0
  1  3  1  0  0  0  0
  1 10  1  0  0  0  0
  3  4  1  1  0  0  0
  3  5  1  0  0  0  0
  5  6  1  6  0  0  0
  5  7  1  0  0  0  0
  7  8  1  1  0  0  0
  7  9  1  0  0  0  0
  9 10  1  6  0  0  0
  9 11  1  0  0  0  0
 11 12  1  1  0  0  0
 11 13  1  0  0  0  0
 14 15  1  6  0  0  0
 14 16  1  0  0  0  0
 14 22  1  0  0  0  0
 16 17  1  0  0  0  0
 17 18  1  1  0  0  0
 17 19  1  0  0  0  0
 19  2  1  1  0  0  0
 19 20  1  0  0  0  0
 20 21  1  6  0  0  0
 20 22  1  0  0  0  0
 22 23  1  6  0  0  0
 24 23  1  1  0  0  0
 24 25  1  0  0  0  0
 24 34  1  0  0  0  0
 25 26  1  1  0  0  0
 25 27  1  0  0  0  0
 27 28  1  6  0  0  0
 27 30  1  0  0  0  0
 28 29  1  0  0  0  0
 30 31  1  6  0  0  0
 30 32  1  0  0  0  0
 30 33  1  0  0  0  0
 33 34  1  0  0  0  0
M  CHG  4   4   1  15   1  18   1  28   1
M  END
>  <CHROM.1>
-142.54772518,-167.21918409,71.76723676,-163.16857027,-68.94877089,-43.33153893
-51.75794383,-71.66360673,47.25101984,-54.98445970,124.59805335,-149.09882569
162.74217996,29.64341398,-57.32422095,-11.22124821,7.21312381,18.82911448
-0.20221714,0.85051115,-2.65707106

>  <Name>
1mwl

>  <RI>
0

>  <Rbt.Current_Directory>
/home/itssahil/PROJECTS/Mol_Feturizer/New_Systems/rnas/1mwl

>  <Rbt.Executable>
rbdock ($Id: //depot/dev/client3/rdock/2013.1/src/exe/rbdock.cxx#4 $)

>  <Rbt.Library>
libRbt.so (2013.1, Build901 2013/11/27)

>  <Rbt.Parameter_File>
/export/apps/rDock/src/rDock_2013.1_src/data/scripts/dock_solv.prm

>  <Rbt.Receptor>
prm/pocket_docking_2.prm

>  <SCORE>
-84.551

>  <SCORE.INTER>
-70.1469

>  <SCORE.INTER.CONST>
1

>  <SCORE.INTER.POLAR>
-10.7858

>  <SCORE.INTER.ROT>
6

>  <SCORE.INTER.SOLV>
23.6169

>  <SCORE.INTER.VDW>
-26.2841

>  <SCORE.INTER.norm>
-2.06314

>  <SCORE.INTRA>
-14.6172

>  <SCORE.INTRA.DIHEDRAL>
-17.9425

>  <SCORE.INTRA.DIHEDRAL.0>
42.0816

>  <SCORE.INTRA.POLAR>
-0.600541

>  <SCORE.INTRA.POLAR.0>
-0.254682

>  <SCORE.INTRA.REPUL>
0

>  <SCORE.INTRA.REPUL.0>
0

>  <SCORE.INTRA.SOLV>
0.4552

>  <SCORE.INTRA.SOLV.lig_0>
-109.803

>  <SCORE.INTRA.VDW>
-3.83169

>  <SCORE.INTRA.VDW.0>
0.32176

>  <SCORE.INTRA.norm>
-0.429918

>  <SCORE.RESTR>
0.213022

>  <SCORE.RESTR.CAVITY>
0.213022

>  <SCORE.RESTR.norm>
0.00626534

>  <SCORE.SYSTEM>
0

>  <SCORE.SYSTEM.CONST>
0

>  <SCORE.SYSTEM.DIHEDRAL>
0

>  <SCORE.SYSTEM.SOLV>
0

>  <SCORE.SYSTEM.norm>
0

>  <SCORE.heavy>
34

>  <SCORE.norm>
-2.4868

>  <RMSD>
0.509

$$$$
1mwl
 OpenBabel11021811403D
libRbt.so/2013.1/901 2013/11/27
 34 36  0  0  0  0  0  0  0  0999 V2000
   -9.2503    5.9381   20.2128 C   0  0  2  0  0  0  0  0  0  0  0  0
  -10.2037    6.7929   20.7687 O   0  0  0  0  0  0  0  0  0  0  0  0
   -9.3239    4.5922   20.9875 C   0  0  2  0  0  0  0  0  0  0  0  0
  -10.6706    4.0222   20.8834 N   0  3  0  0  0  0  0  0  0  0  0  0
   -8.9022    4.7904   22.4729 C   0  0  1  0  0  0  0  0  0  0  0  0
   -8.9393    3.6150   23.1492 O   0  0  0  0  0  0  0  0  0  0  0  0
   -7.4643    5.4059   22.5055 C   0  0  2  0  0  0  0  0  0  0  0  0
   -7.0363    5.5944   23.8706 O   0  0  0  0  0  0  0  0  0  0  0  0
   -7.4917    6.7645   21.7262 C   0  0  2  0  0  0  0  0  0  0  0  0
   -7.9398    6.5483   20.3327 O   0  0  0  0  0  0  0  0  0  0  0  0
   -6.1408    7.4849   21.6485 C   0  0  2  0  0  0  0  0  0  0  0  0
   -5.1250    6.5556   21.4535 O   0  0  0  0  0  0  0  0  0  0  0  0
   -5.7789    8.2565   22.9307 C   0  0  0  0  0  0  0  0  0  0  0  0
  -12.9828    9.6356   19.2017 C   0  0  2  0  0  0  0  0  0  0  0  0
  -13.5296   10.8350   18.5178 N   0  3  0  0  0  0  0  0  0  0  0  0
  -12.1200   10.0482   20.4311 C   0  0  0  0  0  0  0  0  0  0  0  0
  -11.5312    8.7732   21.1366 C   0  0  2  0  0  0  0  0  0  0  0  0
  -10.7096    9.2036   22.3268 N   0  3  0  0  0  0  0  0  0  0  0  0
  -10.6763    7.9587   20.1060 C   0  0  2  0  0  0  0  0  0  0  0  0
  -11.5626    7.5565   18.9019 C   0  0  2  0  0  0  0  0  0  0  0  0
  -10.7767    6.8559   17.9683 O   0  0  0  0  0  0  0  0  0  0  0  0
  -12.1230    8.8265   18.2073 C   0  0  1  0  0  0  0  0  0  0  0  0
  -12.9295    8.4345   17.1063 O   0  0  0  0  0  0  0  0  0  0  0  0
  -12.9575    9.2525   15.9693 C   0  0  2  0  0  0  0  0  0  0  0  0
  -14.4106    9.2847   15.4591 C   0  0  2  0  0  0  0  0  0  0  0  0
  -15.2375    9.8381   16.4603 O   0  0  0  0  0  0  0  0  0  0  0  0
  -14.8628    7.8266   15.1062 C   0  0  1  0  0  0  0  0  0  0  0  0
  -16.2673    7.7668   14.6330 N   0  3  0  0  0  0  0  0  0  0  0  0
  -17.2036    7.6278   15.7776 C   0  0  0  0  0  0  0  0  0  0  0  0
  -13.9045    7.2407   14.0129 C   0  0  2  0  0  0  0  0  0  0  0  0
  -13.9600    8.0541   12.8260 O   0  0  0  0  0  0  0  0  0  0  0  0
  -14.2711    5.8882   13.6341 C   0  0  0  0  0  0  0  0  0  0  0  0
  -12.4270    7.2977   14.5100 C   0  0  0  0  0  0  0  0  0  0  0  0
  -12.0689    8.6894   14.9384 O   0  0  0  0  0  0  0  0  0  0  0  0
  1  2  1  1  0  0  0
  1  3  1  0  0  0  0
  1 10  1  0  0  0  0
  3  4  1  1  0  0  0
  3  5  1  0  0  0  0
  5  6  1  1  0  0  0
  5  7  1  0  0  0  0
  7  8  1  1  0  0  0
  7  9  1  0  0  0  0
  9 10  1  6  0  0  0
  9 11  1  0  0  0  0
 11 12  1  1  0  0  0
 11 13  1  0  0  0  0
 14 15  1  6  0  0  0
 14 16  1  0  0  0  0
 14 22  1  0  0  0  0
 16 17  1  0  0  0  0
 17 18  1  1  0  0  0
 17 19  1  0  0  0  0
 19  2  1  1  0  0  0
 19 20  1  0  0  0  0
 20 21  1  6  0  0  0
 20 22  1  0  0  0  0
 22 23  1  6  0  0  0
 24 23  1  1  0  0  0
 24 25  1  0  0  0  0
 24 34  1  0  0  0  0
 25 26  1  1  0  0  0
 25 27  1  0  0  0  0
 27 28  1  6  0  0  0
 27 30  1  0  0  0  0
 28 29  1  0  0  0  0
 30 31  1  6  0  0  0
 30 32  1  0  0  0  0
 30 33  1  0  0  0  0
 33 34  1  0  0  0  0
M  CHG  4   4   1  15   1  18   1  28   1
M  END
>  <CHROM.1>
-162.45042705,-170.30044910,66.97037875,60.89931068,-59.65114763,39.18609040
131.90468588,-64.74632985,-73.57794996,-56.71004431,93.34431196,-140.18389366
170.68373006,32.67300049,55.58526611,-11.19618478,7.44368172,18.83798853
-0.24066189,0.79894020,-2.52112201

>  <Name>
1mwl

>  <RI>
0

>  <Rbt.Current_Directory>
/home/itssahil/PROJECTS/Mol_Feturizer/New_Systems/rnas/1mwl

>  <Rbt.Executable>
rbdock ($Id: //depot/dev/client3/rdock/2013.1/src/exe/rbdock.cxx#4 $)

>  <Rbt.Library>
libRbt.so (2013.1, Build901 2013/11/27)

>  <Rbt.Parameter_File>
/export/apps/rDock/src/rDock_2013.1_src/data/scripts/dock_solv.prm

>  <Rbt.Receptor>
prm/pocket_docking_2.prm

>  <SCORE>
-82.5832

>  <SCORE.INTER>
-66.4852

>  <SCORE.INTER.CONST>
1

>  <SCORE.INTER.POLAR>
-9.56744

>  <SCORE.INTER.ROT>
6

>  <SCORE.INTER.SOLV>
27.2702

>  <SCORE.INTER.VDW>
-29.1221

>  <SCORE.INTER.norm>
-1.95545

>  <SCORE.INTRA>
-16.2041

>  <SCORE.INTRA.DIHEDRAL>
-19.9681

>  <SCORE.INTRA.DIHEDRAL.0>
42.0816

>  <SCORE.INTRA.POLAR>
-0.926509

>  <SCORE.INTRA.POLAR.0>
-0.254682

>  <SCORE.INTRA.REPUL>
0

>  <SCORE.INTRA.REPUL.0>
0

>  <SCORE.INTRA.SOLV>
-0.353266

>  <SCORE.INTRA.SOLV.lig_0>
-109.803

>  <SCORE.INTRA.VDW>
-2.89333

>  <SCORE.INTRA.VDW.0>
0.32176

>  <SCORE.INTRA.norm>
-0.476592

>  <SCORE.RESTR>
0.106182

>  <SCORE.RESTR.CAVITY>
0.106182

>  <SCORE.RESTR.norm>
0.00312299

>  <SCORE.SYSTEM>
0

>  <SCORE.SYSTEM.CONST>
0

>  <SCORE.SYSTEM.DIHEDRAL>
0

>  <SCORE.SYSTEM.SOLV>
0

>  <SCORE.SYSTEM.norm>
0

>  <SCORE.heavy>
34

>  <SCORE.norm>
-2.42892

>  <RMSD>
0.522

$$$$
1mwl
 OpenBabel11021811403D
libRbt.so/2013.1/901 2013/11/27
 34 36  0  0  0  0  0  0  0  0999 V2000
   -9.1439    6.0417   19.9962 C   0  0  2  0  0  0  0  0  0  0  0  0
  -10.1881    6.7739   20.5638 O   0  0  0  0  0  0  0  0  0  0  0  0
   -9.2787    4.5755   20.4950 C   0  0  2  0  0  0  0  0  0  0  0  0
  -10.5819    4.0274   20.1066 N   0  3  0  0  0  0  0  0  0  0  0  0
   -9.0639    4.4979   22.0350 C   0  0  1  0  0  0  0  0  0  0  0  0
   -9.1548    3.2176   22.4741 O   0  0  0  0  0  0  0  0  0  0  0  0
   -7.6624    5.1044   22.3745 C   0  0  2  0  0  0  0  0  0  0  0  0
   -7.4251    5.0396   23.7964 O   0  0  0  0  0  0  0  0  0  0  0  0
   -7.6273    6.5835   21.8596 C   0  0  2  0  0  0  0  0  0  0  0  0
   -7.8800    6.6262   20.4024 O   0  0  0  0  0  0  0  0  0  0  0  0
   -6.3005    7.3130   22.0991 C   0  0  2  0  0  0  0  0  0  0  0  0
   -5.2562    6.5785   21.5483 O   0  0  0  0  0  0  0  0  0  0  0  0
   -5.9587    7.4981   23.5888 C   0  0  0  0  0  0  0  0  0  0  0  0
  -13.0108    9.7504   19.3671 C   0  0  2  0  0  0  0  0  0  0  0  0
  -13.5804   10.9934   18.7874 N   0  3  0  0  0  0  0  0  0  0  0  0
  -12.0396   10.0837   20.5383 C   0  0  0  0  0  0  0  0  0  0  0  0
  -11.4285    8.7632   21.1324 C   0  0  2  0  0  0  0  0  0  0  0  0
  -10.5010    9.1171   22.2687 N   0  3  0  0  0  0  0  0  0  0  0  0
  -10.6827    7.9807   19.9975 C   0  0  2  0  0  0  0  0  0  0  0  0
  -11.6751    7.6571   18.8540 C   0  0  2  0  0  0  0  0  0  0  0  0
  -10.9871    6.9852   17.8268 O   0  0  0  0  0  0  0  0  0  0  0  0
  -12.2571    8.9714   18.2682 C   0  0  1  0  0  0  0  0  0  0  0  0
  -13.1612    8.6512   17.2210 O   0  0  0  0  0  0  0  0  0  0  0  0
  -12.7801    8.9179   15.8996 C   0  0  2  0  0  0  0  0  0  0  0  0
  -14.0609    8.9358   15.0440 C   0  0  2  0  0  0  0  0  0  0  0  0
  -14.9097    9.9638   15.5081 O   0  0  0  0  0  0  0  0  0  0  0  0
  -14.7670    7.5410   15.1483 C   0  0  1  0  0  0  0  0  0  0  0  0
  -16.0301    7.4848   14.3728 N   0  3  0  0  0  0  0  0  0  0  0  0
  -17.1854    7.8816   15.2177 C   0  0  0  0  0  0  0  0  0  0  0  0
  -13.7831    6.4273   14.6497 C   0  0  2  0  0  0  0  0  0  0  0  0
  -13.4198    6.6729   13.2781 O   0  0  0  0  0  0  0  0  0  0  0  0
  -14.3779    5.1047   14.7148 C   0  0  0  0  0  0  0  0  0  0  0  0
  -12.4557    6.4807   15.4671 C   0  0  0  0  0  0  0  0  0  0  0  0
  -11.8692    7.8603   15.4293 O   0  0  0  0  0  0  0  0  0  0  0  0
  1  2  1  1  0  0  0
  1  3  1  0  0  0  0
  1 10  1  0  0  0  0
  3  4  1  1  0  0  0
  3  5  1  0  0  0  0
  5  6  1  6  0  0  0
  5  7  1  0  0  0  0
  7  8  1  1  0  0  0
  7  9  1  0  0  0  0
  9 10  1  6  0  0  0
  9 11  1  0  0  0  0
 11 12  1  6  0  0  0
 11 13  1  0  0  0  0
 14 15  1  6  0  0  0
 14 16  1  0  0  0  0
 14 22  1  0  0  0  0
 16 17  1  0  0  0  0
 17 18  1  1  0  0  0
 17 19  1  0  0  0  0
 19  2  1  1  0  0  0
 19 20  1  0  0  0  0
 20 21  1  6  0  0  0
 20 22  1  0  0  0  0
 22 23  1  6  0  0  0
 24 23  1  1  0  0  0
 24 25  1  0  0  0  0
 24 34  1  0  0  0  0
 25 26  1  1  0  0  0
 25 27  1  0  0  0  0
 27 28  1  6  0  0  0
 27 30  1  0  0  0  0
 28 29  1  0  0  0  0
 30 31  1  6  0  0  0
 30 32  1  0  0  0  0
 30 33  1  0  0  0  0
 33 34  1  0  0  0  0
M  CHG  4   4   1  15   1  18   1  28   1
M  END
>  <CHROM.1>
-156.66225191,-159.27364656,-55.50885239,-158.24785190,-64.73771727,54.87069276
63.75477854,-61.13062306,-70.95492757,74.42132059,131.66169374,-161.21248693
170.84334987,29.01785412,-63.50753358,-11.19234659,7.22621097,18.83502429
-0.17264887,0.80801370,-2.63278491

>  <Name>
1mwl

>  <RI>
0

>  <Rbt.Current_Directory>
/home/itssahil/PROJECTS/Mol_Feturizer/New_Systems/rnas/1mwl

>  <Rbt.Executable>
rbdock ($Id: //depot/dev/client3/rdock/2013.1/src/exe/rbdock.cxx#4 $)

>  <Rbt.Library>
libRbt.so (2013.1, Build901 2013/11/27)

>  <Rbt.Parameter_File>
/export/apps/rDock/src/rDock_2013.1_src/data/scripts/dock_solv.prm

>  <Rbt.Receptor>
prm/pocket_docking_2.prm

>  <SCORE>
-79.9543

>  <SCORE.INTER>
-65.4897

>  <SCORE.INTER.CONST>
1

>  <SCORE.INTER.POLAR>
-9.78778

>  <SCORE.INTER.ROT>
6

>  <SCORE.INTER.SOLV>
26.155

>  <SCORE.INTER.VDW>
-27.3522

>  <SCORE.INTER.norm>
-1.92617

>  <SCORE.INTRA>
-14.4902

>  <SCORE.INTRA.DIHEDRAL>
-23.5512

>  <SCORE.INTRA.DIHEDRAL.0>
42.0816

>  <SCORE.INTRA.POLAR>
0.248602

>  <SCORE.INTRA.POLAR.0>
-0.254682

>  <SCORE.INTRA.REPUL>
0

>  <SCORE.INTRA.REPUL.0>
0

>  <SCORE.INTRA.SOLV>
-0.475475

>  <SCORE.INTRA.SOLV.lig_0>
-109.803

>  <SCORE.INTRA.VDW>
-3.32207

>  <SCORE.INTRA.VDW.0>
0.32176

>  <SCORE.INTRA.norm>
-0.426181

>  <SCORE.RESTR>
0.0256093

>  <SCORE.RESTR.CAVITY>
0.0256093

>  <SCORE.RESTR.norm>
0.000753214

>  <SCORE.SYSTEM>
0

>  <SCORE.SYSTEM.CONST>
0

>  <SCORE.SYSTEM.DIHEDRAL>
0

>  <SCORE.SYSTEM.SOLV>
0

>  <SCORE.SYSTEM.norm>
0

>  <SCORE.heavy>
34

>  <SCORE.norm>
-2.3516

>  <RMSD>
0.531

$$$$
1mwl
 OpenBabel11021811403D
libRbt.so/2013.1/901 2013/11/27
 34 36  0  0  0  0  0  0  0  0999 V2000
   -9.1198    6.1339   20.0220 C   0  0  2  0  0  0  0  0  0  0  0  0
  -10.1572    6.8744   20.5913 O   0  0  0  0  0  0  0  0  0  0  0  0
   -9.3006    4.6569   20.4724 C   0  0  2  0  0  0  0  0  0  0  0  0
  -10.6085    4.1538   20.0415 N   0  3  0  0  0  0  0  0  0  0  0  0
   -9.1194    4.5271   22.0131 C   0  0  1  0  0  0  0  0  0  0  0  0
   -9.2505    3.2367   22.4105 O   0  0  0  0  0  0  0  0  0  0  0  0
   -7.7107    5.0877   22.3989 C   0  0  2  0  0  0  0  0  0  0  0  0
   -7.5044    4.9737   23.8225 O   0  0  0  0  0  0  0  0  0  0  0  0
   -7.6290    6.5804   21.9309 C   0  0  2  0  0  0  0  0  0  0  0  0
   -7.8506    6.6739   20.4709 O   0  0  0  0  0  0  0  0  0  0  0  0
   -6.2900    7.2688   22.2190 C   0  0  2  0  0  0  0  0  0  0  0  0
   -5.3181    6.7846   21.3506 O   0  0  0  0  0  0  0  0  0  0  0  0
   -5.7606    7.0166   23.6426 C   0  0  0  0  0  0  0  0  0  0  0  0
  -13.0622    9.7267   19.2934 C   0  0  2  0  0  0  0  0  0  0  0  0
  -13.6653   10.9375   18.6806 N   0  3  0  0  0  0  0  0  0  0  0  0
  -12.1214   10.1164   20.4720 C   0  0  0  0  0  0  0  0  0  0  0  0
  -11.4743    8.8299   21.1014 C   0  0  2  0  0  0  0  0  0  0  0  0
  -10.5774    9.2379   22.2441 N   0  3  0  0  0  0  0  0  0  0  0  0
  -10.6844    8.0519   19.9936 C   0  0  2  0  0  0  0  0  0  0  0  0
  -11.6471    7.6717   18.8422 C   0  0  2  0  0  0  0  0  0  0  0  0
  -10.9204    7.0042   17.8390 O   0  0  0  0  0  0  0  0  0  0  0  0
  -12.2650    8.9532   18.2216 C   0  0  1  0  0  0  0  0  0  0  0  0
  -13.1412    8.5814   17.1678 O   0  0  0  0  0  0  0  0  0  0  0  0
  -12.9870    9.1952   15.9180 C   0  0  2  0  0  0  0  0  0  0  0  0
  -14.3841    9.2949   15.2768 C   0  0  2  0  0  0  0  0  0  0  0  0
  -15.2107   10.0930   16.0969 O   0  0  0  0  0  0  0  0  0  0  0  0
  -14.9802    7.8545   15.1191 C   0  0  1  0  0  0  0  0  0  0  0  0
  -16.3429    7.8651   14.5334 N   0  3  0  0  0  0  0  0  0  0  0  0
  -17.3751    7.7941   15.5990 C   0  0  0  0  0  0  0  0  0  0  0  0
  -14.0206    6.9953   14.2258 C   0  0  2  0  0  0  0  0  0  0  0  0
  -13.8906    7.5991   12.9251 O   0  0  0  0  0  0  0  0  0  0  0  0
  -14.5173    5.6448   14.0338 C   0  0  0  0  0  0  0  0  0  0  0  0
  -12.5878    6.9781   14.8422 C   0  0  0  0  0  0  0  0  0  0  0  0
  -12.0984    8.3762   15.0760 O   0  0  0  0  0  0  0  0  0  0  0  0
  1  2  1  1  0  0  0
  1  3  1  0  0  0  0
  1 10  1  0  0  0  0
  3  4  1  1  0  0  0
  3  5  1  0  0  0  0
  5  6  1  6  0  0  0
  5  7  1  0  0  0  0
  7  8  1  1  0  0  0
  7  9  1  0  0  0  0
  9 10  1  6  0  0  0
  9 11  1  0  0  0  0
 11 12  1  6  0  0  0
 11 13  1  0  0  0  0
 14 15  1  6  0  0  0
 14 16  1  0  0  0  0
 14 22  1  0  0  0  0
 16 17  1  0  0  0  0
 17 18  1  1  0  0  0
 17 19  1  0  0  0  0
 19  2  1  1  0  0  0
 19 20  1  0  0  0  0
 20 21  1  6  0  0  0
 20 22  1  0  0  0  0
 22 23  1  6  0  0  0
 24 23  1  1  0  0  0
 24 25  1  0  0  0  0
 24 34  1  0  0  0  0
 25 26  1  1  0  0  0
 25 27  1  0  0  0  0
 27 28  1  6  0  0  0
 27 30  1  0  0  0  0
 28 29  1  0  0  0  0
 30 31  1  6  0  0  0
 30 32  1  0  0  0  0
 30 33  1  0  0  0  0
 33 34  1  0  0  0  0
M  CHG  4   4   1  15   1  18   1  28   1
M  END
>  <CHROM.1>
-151.32817244,-162.28916413,-64.56050724,-161.33883971,52.40068622,73.04985018
102.42300760,-174.18455730,163.71384281,-62.90260737,111.17737568,-147.71403246
100.56430601,23.33134599,59.07658631,-11.27876646,7.37068729,18.79422482
-0.18170378,0.80556733,-2.57796756

>  <Name>
1mwl

>  <RI>
0

>  <Rbt.Current_Directory>
/home/itssahil/PROJECTS/Mol_Feturizer/New_Systems/rnas/1mwl

>  <Rbt.Executable>
rbdock ($Id: //depot/dev/client3/rdock/2013.1/src/exe/rbdock.cxx#4 $)

>  <Rbt.Library>
libRbt.so (2013.1, Build901 2013/11/27)

>  <Rbt.Parameter_File>
/export/apps/rDock/src/rDock_2013.1_src/data/scripts/dock_solv.prm

>  <Rbt.Receptor>
prm/pocket_docking_2.prm

>  <SCORE>
-82.6488

>  <SCORE.INTER>
-72.4474

>  <SCORE.INTER.CONST>
1

>  <SCORE.INTER.POLAR>
-10.3571

>  <SCORE.INTER.ROT>
6

>  <SCORE.INTER.SOLV>
27.0449

>  <SCORE.INTER.VDW>
-30.3895

>  <SCORE.INTER.norm>
-2.13081

>  <SCORE.INTRA>
-10.251

>  <SCORE.INTRA.DIHEDRAL>
-9.44568

>  <SCORE.INTRA.DIHEDRAL.0>
42.0816

>  <SCORE.INTRA.POLAR>
-0.908052

>  <SCORE.INTRA.POLAR.0>
-0.254682

>  <SCORE.INTRA.REPUL>
0

>  <SCORE.INTRA.REPUL.0>
0

>  <SCORE.INTRA.SOLV>
-0.389577

>  <SCORE.INTRA.SOLV.lig_0>
-109.803

>  <SCORE.INTRA.VDW>
-2.24599

>  <SCORE.INTRA.VDW.0>
0.32176

>  <SCORE.INTRA.norm>
-0.3015

>  <SCORE.RESTR>
0.0496294

>  <SCORE.RESTR.CAVITY>
0.0496294

>  <SCORE.RESTR.norm>
0.00145969

>  <SCORE.SYSTEM>
0

>  <SCORE.SYSTEM.CONST>
0

>  <SCORE.SYSTEM.DIHEDRAL>
0

>  <SCORE.SYSTEM.SOLV>
0

>  <SCORE.SYSTEM.norm>
0

>  <SCORE.heavy>
34

>  <SCORE.norm>
-2.43085

>  <RMSD>
0.533

$$$$
1mwl
 OpenBabel11021811403D
libRbt.so/2013.1/901 2013/11/27
 34 36  0  0  0  0  0  0  0  0999 V2000
   -8.8889    5.9758   20.1087 C   0  0  2  0  0  0  0  0  0  0  0  0
   -9.9891    6.6803   20.6005 O   0  0  0  0  0  0  0  0  0  0  0  0
   -9.0702    4.4863   20.5156 C   0  0  2  0  0  0  0  0  0  0  0  0
  -10.3238    3.9614   19.9658 N   0  3  0  0  0  0  0  0  0  0  0  0
   -9.0173    4.3302   22.0636 C   0  0  1  0  0  0  0  0  0  0  0  0
   -9.1492    3.0294   22.4253 O   0  0  0  0  0  0  0  0  0  0  0  0
   -7.6609    4.9158   22.5781 C   0  0  2  0  0  0  0  0  0  0  0  0
   -7.5733    4.7783   24.0119 O   0  0  0  0  0  0  0  0  0  0  0  0
   -7.5771    6.4190   22.1456 C   0  0  2  0  0  0  0  0  0  0  0  0
   -7.6763    6.5363   20.6739 O   0  0  0  0  0  0  0  0  0  0  0  0
   -6.2851    7.1328   22.5591 C   0  0  2  0  0  0  0  0  0  0  0  0
   -5.9273    6.7456   23.8457 O   0  0  0  0  0  0  0  0  0  0  0  0
   -6.4107    8.6669   22.5898 C   0  0  0  0  0  0  0  0  0  0  0  0
  -12.8618    9.4875   19.1423 C   0  0  2  0  0  0  0  0  0  0  0  0
  -13.4488   10.6891   18.4966 N   0  3  0  0  0  0  0  0  0  0  0  0
  -11.9942    9.8912   20.3713 C   0  0  0  0  0  0  0  0  0  0  0  0
  -11.3630    8.6146   21.0361 C   0  0  2  0  0  0  0  0  0  0  0  0
  -10.5375    9.0360   22.2268 N   0  3  0  0  0  0  0  0  0  0  0  0
  -10.5006    7.8498   19.9742 C   0  0  2  0  0  0  0  0  0  0  0  0
  -11.3917    7.4552   18.7711 C   0  0  2  0  0  0  0  0  0  0  0  0
  -10.6000    6.7998   17.8100 O   0  0  0  0  0  0  0  0  0  0  0  0
  -11.9942    8.7273   18.1167 C   0  0  1  0  0  0  0  0  0  0  0  0
  -12.8044    8.3423   17.0159 O   0  0  0  0  0  0  0  0  0  0  0  0
  -12.8009    9.1436   15.8668 C   0  0  2  0  0  0  0  0  0  0  0  0
  -14.2546    9.2398   15.3663 C   0  0  2  0  0  0  0  0  0  0  0  0
  -15.0455    9.8483   16.3646 O   0  0  0  0  0  0  0  0  0  0  0  0
  -14.7808    7.8007   15.0391 C   0  0  1  0  0  0  0  0  0  0  0  0
  -16.1901    7.8032   14.5767 N   0  3  0  0  0  0  0  0  0  0  0  0
  -17.1227    7.6990   15.7279 C   0  0  0  0  0  0  0  0  0  0  0  0
  -13.8610    7.1518   13.9482 C   0  0  2  0  0  0  0  0  0  0  0  0
  -13.8856    7.9491   12.7494 O   0  0  0  0  0  0  0  0  0  0  0  0
  -14.2967    5.8135   13.5929 C   0  0  0  0  0  0  0  0  0  0  0  0
  -12.3787    7.1432   14.4340 C   0  0  0  0  0  0  0  0  0  0  0  0
  -11.9492    8.5219   14.8384 O   0  0  0  0  0  0  0  0  0  0  0  0
  1  2  1  1  0  0  0
  1  3  1  0  0  0  0
  1 10  1  0  0  0  0
  3  4  1  1  0  0  0
  3  5  1  0  0  0  0
  5  6  1  6  0  0  0
  5  7  1  0  0  0  0
  7  8  1  1  0  0  0
  7  9  1  0  0  0  0
  9 10  1  6  0  0  0
  9 11  1  0  0  0  0
 11 12  1  1  0  0  0
 11 13  1  0  0  0  0
 14 15  1  6  0  0  0
 14 16  1  0  0  0  0
 14 22  1  0  0  0  0
 16 17  1  0  0  0  0
 17 18  1  1  0  0  0
 17 19  1  0  0  0  0
 19  2  1  1  0  0  0
 19 20  1  0  0  0  0
 20 21  1  6  0  0  0
 20 22  1  0  0  0  0
 22 23  1  6  0  0  0
 24 23  1  1  0  0  0
 24 25  1  0  0  0  0
 24 34  1  0  0  0  0
 25 26  1  1  0  0  0
 25 27  1  0  0  0  0
 27 28  1  6  0  0  0
 27 30  1  0  0  0  0
 28 29  1  0  0  0  0
 30 31  1  6  0  0  0
 30 32  1  0  0  0  0
 30 33  1  0  0  0  0
 33 34  1  0  0  0  0
M  CHG  4   4   1  15   1  18   1  28   1
M  END
>  <CHROM.1>
-150.72519761,-160.61480245,80.43212007,-161.14710450,-73.38268768,-40.60951171
175.75000873,174.58150288,48.29935588,-177.35704070,97.45021203,-138.77065093
169.41796861,31.48289273,-179.60810857,-11.17026225,7.30687200,18.82414041
-0.14468589,0.86035811,-2.66295445

>  <Name>
1mwl

>  <RI>
0

>  <Rbt.Current_Directory>
/home/itssahil/PROJECTS/Mol_Feturizer/New_Systems/rnas/1mwl

>  <Rbt.Executable>
rbdock ($Id: //depot/dev/client3/rdock/2013.1/src/exe/rbdock.cxx#4 $)

>  <Rbt.Library>
libRbt.so (2013.1, Build901 2013/11/27)

>  <Rbt.Parameter_File>
/export/apps/rDock/src/rDock_2013.1_src/data/scripts/dock_solv.prm

>  <Rbt.Receptor>
prm/pocket_docking_3.prm

>  <SCORE>
-86.2159

>  <SCORE.INTER>
-71.5503

>  <SCORE.INTER.CONST>
1

>  <SCORE.INTER.POLAR>
-9.90934

>  <SCORE.INTER.ROT>
6

>  <SCORE.INTER.SOLV>
24.7967

>  <SCORE.INTER.VDW>
-30.5346

>  <SCORE.INTER.norm>
-2.10442

>  <SCORE.INTRA>
-14.6656

>  <SCORE.INTRA.DIHEDRAL>
-18.8522

>  <SCORE.INTRA.DIHEDRAL.0>
42.0816

>  <SCORE.INTRA.POLAR>
-0.987587

>  <SCORE.INTRA.POLAR.0>
-0.254682

>  <SCORE.INTRA.REPUL>
0

>  <SCORE.INTRA.REPUL.0>
0

>  <SCORE.INTRA.SOLV>
1.29653

>  <SCORE.INTRA.SOLV.lig_0>
-109.803

>  <SCORE.INTRA.VDW>
-2.52998

>  <SCORE.INTRA.VDW.0>
0.32176

>  <SCORE.INTRA.norm>
-0.431342

>  <SCORE.RESTR>
0

>  <SCORE.RESTR.CAVITY>
0

>  <SCORE.RESTR.norm>
0

>  <SCORE.SYSTEM>
0

>  <SCORE.SYSTEM.CONST>
0

>  <SCORE.SYSTEM.DIHEDRAL>
0

>  <SCORE.SYSTEM.SOLV>
0

>  <SCORE.SYSTEM.norm>
0

>  <SCORE.heavy>
34

>  <SCORE.norm>
-2.53576

>  <RMSD>
0.537

$$$$
1mwl
 OpenBabel11021811403D
libRbt.so/2013.1/901 2013/11/27
 34 36  0  0  0  0  0  0  0  0999 V2000
   -9.2901    5.9853   20.2278 C   0  0  2  0  0  0  0  0  0  0  0  0
  -10.2134    6.8572   20.8074 O   0  0  0  0  0  0  0  0  0  0  0  0
   -9.4029    4.6255   20.9729 C   0  0  2  0  0  0  0  0  0  0  0  0
  -10.7676    4.1009   20.8632 N   0  3  0  0  0  0  0  0  0  0  0  0
   -8.9686    4.7771   22.4602 C   0  0  1  0  0  0  0  0  0  0  0  0
   -9.0400    3.5888   23.1106 O   0  0  0  0  0  0  0  0  0  0  0  0
   -7.5117    5.3459   22.4990 C   0  0  2  0  0  0  0  0  0  0  0  0
   -7.0719    5.4903   23.8657 O   0  0  0  0  0  0  0  0  0  0  0  0
   -7.4994    6.7217   21.7500 C   0  0  2  0  0  0  0  0  0  0  0  0
   -7.9604    6.5509   20.3544 O   0  0  0  0  0  0  0  0  0  0  0  0
   -6.1267    7.4005   21.6813 C   0  0  2  0  0  0  0  0  0  0  0  0
   -5.2826    6.6674   20.8545 O   0  0  0  0  0  0  0  0  0  0  0  0
   -5.4177    7.4972   23.0445 C   0  0  0  0  0  0  0  0  0  0  0  0
  -13.0118    9.7067   19.2877 C   0  0  2  0  0  0  0  0  0  0  0  0
  -13.5675   10.9055   18.6099 N   0  3  0  0  0  0  0  0  0  0  0  0
  -12.1200   10.1208   20.4956 C   0  0  0  0  0  0  0  0  0  0  0  0
  -11.5222    8.8463   21.1944 C   0  0  2  0  0  0  0  0  0  0  0  0
  -10.6723    9.2783   22.3639 N   0  3  0  0  0  0  0  0  0  0  0  0
  -10.6945    8.0222   20.1493 C   0  0  2  0  0  0  0  0  0  0  0  0
  -11.6093    7.6187   18.9671 C   0  0  2  0  0  0  0  0  0  0  0  0
  -10.8478    6.9093   18.0200 O   0  0  0  0  0  0  0  0  0  0  0  0
  -12.1783    8.8881   18.2787 C   0  0  1  0  0  0  0  0  0  0  0  0
  -13.0110    8.4949   17.1977 O   0  0  0  0  0  0  0  0  0  0  0  0
  -12.8665    9.1478   15.9666 C   0  0  2  0  0  0  0  0  0  0  0  0
  -14.2706    9.2822   15.3475 C   0  0  2  0  0  0  0  0  0  0  0  0
  -15.0783   10.0611   16.2039 O   0  0  0  0  0  0  0  0  0  0  0  0
  -14.8834    7.8536   15.1507 C   0  0  1  0  0  0  0  0  0  0  0  0
  -16.2533    7.8968   14.5836 N   0  3  0  0  0  0  0  0  0  0  0  0
  -17.2685    7.9835   15.6643 C   0  0  0  0  0  0  0  0  0  0  0  0
  -13.9442    7.0147   14.2174 C   0  0  2  0  0  0  0  0  0  0  0  0
  -13.8247    7.6594   12.9354 O   0  0  0  0  0  0  0  0  0  0  0  0
  -14.4572    5.6762   13.9880 C   0  0  0  0  0  0  0  0  0  0  0  0
  -12.5039    6.9632   14.8140 C   0  0  0  0  0  0  0  0  0  0  0  0
  -11.9972    8.3480   15.0868 O   0  0  0  0  0  0  0  0  0  0  0  0
  1  2  1  1  0  0  0
  1  3  1  0  0  0  0
  1 10  1  0  0  0  0
  3  4  1  1  0  0  0
  3  5  1  0  0  0  0
  5  6  1  6  0  0  0
  5  7  1  0  0  0  0
  7  8  1  1  0  0  0
  7  9  1  0  0  0  0
  9 10  1  6  0  0  0
  9 11  1  0  0  0  0
 11 12  1  6  0  0  0
 11 13  1  0  0  0  0
 14 15  1  6  0  0  0
 14 16  1  0  0  0  0
 14 22  1  0  0  0  0
 16 17  1  0  0  0  0
 17 18  1  1  0  0  0
 17 19  1  0  0  0  0
 19  2  1  1  0  0  0
 19 20  1  0  0  0  0
 20 21  1  6  0  0  0
 20 22  1  0  0  0  0
 22 23  1  6  0  0  0
 24 23  1  1  0  0  0
 24 25  1  0  0  0  0
 24 34  1  0  0  0  0
 25 26  1  1  0  0  0
 25 27  1  0  0  0  0
 27 28  1  6  0  0  0
 27 30  1  0  0  0  0
 28 29  1  0  0  0  0
 30 31  1  6  0  0  0
 30 32  1  0  0  0  0
 30 33  1  0  0  0  0
 33 34  1  0  0  0  0
M  CHG  4   4   1  15   1  18   1  28   1
M  END
>  <CHROM.1>
-159.70084672,-171.16720417,56.91808153,-76.96706974,-57.06668942,68.43367673
169.26362910,-177.93735090,165.52459340,-56.87114745,105.79908827,-143.44484525
105.46971218,30.86155943,-179.26687867,-11.20682850,7.41580911,18.85874332
-0.26540256,0.78637215,-2.47703677

>  <Name>
1mwl

>  <RI>
0

>  <Rbt.Current_Directory>
/home/itssahil/PROJECTS/Mol_Feturizer/New_Systems/rnas/1mwl

>  <Rbt.Executable>
rbdock ($Id: //depot/dev/client3/rdock/2013.1/src/exe/rbdock.cxx#4 $)

>  <Rbt.Library>
libRbt.so (2013.1, Build901 2013/11/27)

>  <Rbt.Parameter_File>
/export/apps/rDock/src/rDock_2013.1_src/data/scripts/dock_solv.prm

>  <Rbt.Receptor>
prm/pocket_docking_2.prm

>  <SCORE>
-87.7503

>  <SCORE.INTER>
-74.0023

>  <SCORE.INTER.CONST>
1

>  <SCORE.INTER.POLAR>
-11.3036

>  <SCORE.INTER.ROT>
6

>  <SCORE.INTER.SOLV>
28.4088

>  <SCORE.INTER.VDW>
-28.726

>  <SCORE.INTER.norm>
-2.17654

>  <SCORE.INTRA>
-13.7698

>  <SCORE.INTRA.DIHEDRAL>
-18.0004

>  <SCORE.INTRA.DIHEDRAL.0>
42.0816

>  <SCORE.INTRA.POLAR>
-0.880627

>  <SCORE.INTRA.POLAR.0>
-0.254682

>  <SCORE.INTRA.REPUL>
0

>  <SCORE.INTRA.REPUL.0>
0

>  <SCORE.INTRA.SOLV>
-0.680202

>  <SCORE.INTRA.SOLV.lig_0>
-109.803

>  <SCORE.INTRA.VDW>
-1.4354

>  <SCORE.INTRA.VDW.0>
0.32176

>  <SCORE.INTRA.norm>
-0.404996

>  <SCORE.RESTR>
0.0218793

>  <SCORE.RESTR.CAVITY>
0.0218793

>  <SCORE.RESTR.norm>
0.000643508

>  <SCORE.SYSTEM>
0

>  <SCORE.SYSTEM.CONST>
0

>  <SCORE.SYSTEM.DIHEDRAL>
0

>  <SCORE.SYSTEM.SOLV>
0

>  <SCORE.SYSTEM.norm>
0

>  <SCORE.heavy>
34

>  <SCORE.norm>
-2.58089

>  <RMSD>
0.539

$$$$
1mwl
 OpenBabel11021811403D
libRbt.so/2013.1/901 2013/11/27
 34 36  0  0  0  0  0  0  0  0999 V2000
   -8.9137    6.0519   20.0548 C   0  0  2  0  0  0  0  0  0  0  0  0
  -10.0501    6.7126   20.5247 O   0  0  0  0  0  0  0  0  0  0  0  0
   -9.0035    4.5749   20.5317 C   0  0  2  0  0  0  0  0  0  0  0  0
  -10.2278    3.9520   20.0193 N   0  3  0  0  0  0  0  0  0  0  0  0
   -8.9301    4.4944   22.0847 C   0  0  1  0  0  0  0  0  0  0  0  0
   -8.9821    3.2064   22.5073 O   0  0  0  0  0  0  0  0  0  0  0  0
   -7.6071    5.1822   22.5580 C   0  0  2  0  0  0  0  0  0  0  0  0
   -7.5010    5.1171   23.9957 O   0  0  0  0  0  0  0  0  0  0  0  0
   -7.6157    6.6660   22.0558 C   0  0  2  0  0  0  0  0  0  0  0  0
   -7.7324    6.7086   20.5814 O   0  0  0  0  0  0  0  0  0  0  0  0
   -6.3652    7.4730   22.4230 C   0  0  2  0  0  0  0  0  0  0  0  0
   -5.2787    7.0139   21.6869 O   0  0  0  0  0  0  0  0  0  0  0  0
   -5.9651    7.3502   23.9046 C   0  0  0  0  0  0  0  0  0  0  0  0
  -12.9223    9.5670   19.1601 C   0  0  2  0  0  0  0  0  0  0  0  0
  -13.5099   10.7814   18.5392 N   0  3  0  0  0  0  0  0  0  0  0  0
  -12.0212    9.9490   20.3717 C   0  0  0  0  0  0  0  0  0  0  0  0
  -11.3899    8.6589   21.0100 C   0  0  2  0  0  0  0  0  0  0  0  0
  -10.5316    9.0595   22.1844 N   0  3  0  0  0  0  0  0  0  0  0  0
  -10.5621    7.8938   19.9211 C   0  0  2  0  0  0  0  0  0  0  0  0
  -11.4861    7.5209   18.7360 C   0  0  2  0  0  0  0  0  0  0  0  0
  -10.7252    6.8650   17.7506 O   0  0  0  0  0  0  0  0  0  0  0  0
  -12.0884    8.8059   18.1075 C   0  0  1  0  0  0  0  0  0  0  0  0
  -12.9290    8.4408   17.0228 O   0  0  0  0  0  0  0  0  0  0  0  0
  -12.9265    9.2404   15.8725 C   0  0  2  0  0  0  0  0  0  0  0  0
  -14.3755    9.3085   15.3541 C   0  0  2  0  0  0  0  0  0  0  0  0
  -15.1898    9.9035   16.3418 O   0  0  0  0  0  0  0  0  0  0  0  0
  -14.8705    7.8593   15.0229 C   0  0  1  0  0  0  0  0  0  0  0  0
  -16.2739    7.8346   14.5433 N   0  3  0  0  0  0  0  0  0  0  0  0
  -17.2164    7.6724   15.6797 C   0  0  0  0  0  0  0  0  0  0  0  0
  -13.9254    7.2263   13.9444 C   0  0  2  0  0  0  0  0  0  0  0  0
  -13.9504    8.0212   12.7441 O   0  0  0  0  0  0  0  0  0  0  0  0
  -14.3315    5.8795   13.5860 C   0  0  0  0  0  0  0  0  0  0  0  0
  -12.4493    7.2463   14.4483 C   0  0  0  0  0  0  0  0  0  0  0  0
  -12.0507    8.6334   14.8556 O   0  0  0  0  0  0  0  0  0  0  0  0
  1  2  1  1  0  0  0
  1  3  1  0  0  0  0
  1 10  1  0  0  0  0
  3  4  1  1  0  0  0
  3  5  1  0  0  0  0
  5  6  1  6  0  0  0
  5  7  1  0  0  0  0
  7  8  1  1  0  0  0
  7  9  1  0  0  0  0
  9 10  1  6  0  0  0
  9 11  1  0  0  0  0
 11 12  1  6  0  0  0
 11 13  1  0  0  0  0
 14 15  1  6  0  0  0
 14 16  1  0  0  0  0
 14 22  1  0  0  0  0
 16 17  1  0  0  0  0
 17 18  1  1  0  0  0
 17 19  1  0  0  0  0
 19  2  1  1  0  0  0
 19 20  1  0  0  0  0
 20 21  1  6  0  0  0
 20 22  1  0  0  0  0
 22 23  1  6  0  0  0
 24 23  1  1  0  0  0
 24 25  1  0  0  0  0
 24 34  1  0  0  0  0
 25 26  1  1  0  0  0
 25 27  1  0  0  0  0
 27 28  1  6  0  0  0
 27 30  1  0  0  0  0
 28 29  1  0  0  0  0
 30 31  1  6  0  0  0
 30 32  1  0  0  0  0
 30 33  1  0  0  0  0
 33 34  1  0  0  0  0
M  CHG  4   4   1  15   1  18   1  28   1
M  END
>  <CHROM.1>
-156.76092599,-156.00507957,65.75294459,-152.44408065,62.76148999,70.33367187
93.46428334,-61.15462542,45.92312899,64.83746570,98.48485094,-141.88880178
174.37884014,29.73550645,177.73802578,-11.17282346,7.36594807,18.77412225
-0.21115576,0.82298120,-2.55863693

>  <Name>
1mwl

>  <RI>
0

>  <Rbt.Current_Directory>
/home/itssahil/PROJECTS/Mol_Feturizer/New_Systems/rnas/1mwl

>  <Rbt.Executable>
rbdock ($Id: //depot/dev/client3/rdock/2013.1/src/exe/rbdock.cxx#4 $)

>  <Rbt.Library>
libRbt.so (2013.1, Build901 2013/11/27)

>  <Rbt.Parameter_File>
/export/apps/rDock/src/rDock_2013.1_src/data/scripts/dock_solv.prm

>  <Rbt.Receptor>
prm/pocket_docking_4.prm

>  <SCORE>
-85.4281

>  <SCORE.INTER>
-73.0926

>  <SCORE.INTER.CONST>
1

>  <SCORE.INTER.POLAR>
-10.2152

>  <SCORE.INTER.ROT>
6

>  <SCORE.INTER.SOLV>
27.0161

>  <SCORE.INTER.VDW>
-31.2831

>  <SCORE.INTER.norm>
-2.14978

>  <SCORE.INTRA>
-12.3356

>  <SCORE.INTRA.DIHEDRAL>
-16.4915

>  <SCORE.INTRA.DIHEDRAL.0>
42.0816

>  <SCORE.INTRA.POLAR>
-0.921855

>  <SCORE.INTRA.POLAR.0>
-0.254682

>  <SCORE.INTRA.REPUL>
0

>  <SCORE.INTRA.REPUL.0>
0

>  <SCORE.INTRA.SOLV>
1.09443

>  <SCORE.INTRA.SOLV.lig_0>
-109.803

>  <SCORE.INTRA.VDW>
-1.50274

>  <SCORE.INTRA.VDW.0>
0.32176

>  <SCORE.INTRA.norm>
-0.362811

>  <SCORE.RESTR>
0

>  <SCORE.RESTR.CAVITY>
0

>  <SCORE.RESTR.norm>
0

>  <SCORE.SYSTEM>
0

>  <SCORE.SYSTEM.CONST>
0

>  <SCORE.SYSTEM.DIHEDRAL>
0

>  <SCORE.SYSTEM.SOLV>
0

>  <SCORE.SYSTEM.norm>
0

>  <SCORE.heavy>
34

>  <SCORE.norm>
-2.51259

>  <RMSD>
0.547

$$$$
1mwl
 OpenBabel11021811403D
libRbt.so/2013.1/901 2013/11/27
 34 36  0  0  0  0  0  0  0  0999 V2000
   -8.9454    5.9532   20.0507 C   0  0  2  0  0  0  0  0  0  0  0  0
  -10.0340    6.6594   20.5654 O   0  0  0  0  0  0  0  0  0  0  0  0
   -9.0539    4.4904   20.5658 C   0  0  2  0  0  0  0  0  0  0  0  0
  -10.3226    3.8956   20.1344 N   0  3  0  0  0  0  0  0  0  0  0  0
   -8.8986    4.4410   22.1140 C   0  0  1  0  0  0  0  0  0  0  0  0
   -8.9666    3.1647   22.5685 O   0  0  0  0  0  0  0  0  0  0  0  0
   -7.5316    5.0968   22.4996 C   0  0  2  0  0  0  0  0  0  0  0  0
   -7.3495    5.0592   23.9306 O   0  0  0  0  0  0  0  0  0  0  0  0
   -7.5225    6.5689   21.9643 C   0  0  2  0  0  0  0  0  0  0  0  0
   -7.7178    6.5835   20.4977 O   0  0  0  0  0  0  0  0  0  0  0  0
   -6.2300    7.3438   22.2450 C   0  0  2  0  0  0  0  0  0  0  0  0
   -5.1312    6.5378   21.9684 O   0  0  0  0  0  0  0  0  0  0  0  0
   -6.0821    7.7855   23.7125 C   0  0  0  0  0  0  0  0  0  0  0  0
  -12.8801    9.5398   19.2007 C   0  0  2  0  0  0  0  0  0  0  0  0
  -13.4560   10.7634   18.5870 N   0  3  0  0  0  0  0  0  0  0  0  0
  -11.9916    9.9047   20.4269 C   0  0  0  0  0  0  0  0  0  0  0  0
  -11.3724    8.6051   21.0575 C   0  0  2  0  0  0  0  0  0  0  0  0
  -10.5261    8.9891   22.2463 N   0  3  0  0  0  0  0  0  0  0  0  0
  -10.5348    7.8493   19.9696 C   0  0  2  0  0  0  0  0  0  0  0  0
  -11.4464    7.4933   18.7698 C   0  0  2  0  0  0  0  0  0  0  0  0
  -10.6765    6.8459   17.7857 O   0  0  0  0  0  0  0  0  0  0  0  0
  -12.0368    8.7877   18.1491 C   0  0  1  0  0  0  0  0  0  0  0  0
  -12.8661    8.4381   17.0507 O   0  0  0  0  0  0  0  0  0  0  0  0
  -12.8864    9.2787   15.9302 C   0  0  2  0  0  0  0  0  0  0  0  0
  -14.3420    9.3476   15.4307 C   0  0  2  0  0  0  0  0  0  0  0  0
  -15.1519    9.8964   16.4482 O   0  0  0  0  0  0  0  0  0  0  0  0
  -14.8235    7.9053   15.0527 C   0  0  1  0  0  0  0  0  0  0  0  0
  -16.2319    7.8807   14.5881 N   0  3  0  0  0  0  0  0  0  0  0  0
  -17.1612    7.6995   15.7324 C   0  0  0  0  0  0  0  0  0  0  0  0
  -13.8833    7.3234   13.9415 C   0  0  2  0  0  0  0  0  0  0  0  0
  -13.9316    8.1608   12.7711 O   0  0  0  0  0  0  0  0  0  0  0  0
  -14.2774    5.9855   13.5390 C   0  0  0  0  0  0  0  0  0  0  0  0
  -12.4019    7.3434   14.4294 C   0  0  0  0  0  0  0  0  0  0  0  0
  -12.0152    8.7197   14.8823 O   0  0  0  0  0  0  0  0  0  0  0  0
  1  2  1  1  0  0  0
  1  3  1  0  0  0  0
  1 10  1  0  0  0  0
  3  4  1  1  0  0  0
  3  5  1  0  0  0  0
  5  6  1  6  0  0  0
  5  7  1  0  0  0  0
  7  8  1  1  0  0  0
  7  9  1  0  0  0  0
  9 10  1  6  0  0  0
  9 11  1  0  0  0  0
 11 12  1  1  0  0  0
 11 13  1  0  0  0  0
 14 15  1  6  0  0  0
 14 16  1  0  0  0  0
 14 22  1  0  0  0  0
 16 17  1  0  0  0  0
 17 18  1  1  0  0  0
 17 19  1  0  0  0  0
 19  2  1  1  0  0  0
 19 20  1  0  0  0  0
 20 21  1  6  0  0  0
 20 22  1  0  0  0  0
 22 23  1  6  0  0  0
 24 23  1  1  0  0  0
 24 25  1  0  0  0  0
 24 34  1  0  0  0  0
 25 26  1  1  0  0  0
 25 27  1  0  0  0  0
 27 28  1  6  0  0  0
 27 30  1  0  0  0  0
 28 29  1  0  0  0  0
 30 31  1  6  0  0  0
 30 32  1  0  0  0  0
 30 33  1  0  0  0  0
 33 34  1  0  0  0  0
M  CHG  4   4   1  15   1  18   1  28   1
M  END
>  <CHROM.1>
-157.31914460,-160.18490436,-178.52959668,-158.06672638,165.57163452,44.25948709
173.55597855,-59.97234168,-73.90450261,73.17184192,96.05544568,-140.70158712
-74.22987919,31.13592070,179.26982325,-11.13204498,7.34988703,18.80094231
-0.20776396,0.82213011,-2.54605568

>  <Name>
1mwl

>  <RI>
0

>  <Rbt.Current_Directory>
/home/itssahil/PROJECTS/Mol_Feturizer/New_Systems/rnas/1mwl

>  <Rbt.Executable>
rbdock ($Id: //depot/dev/client3/rdock/2013.1/src/exe/rbdock.cxx#4 $)

>  <Rbt.Library>
libRbt.so (2013.1, Build901 2013/11/27)

>  <Rbt.Parameter_File>
/export/apps/rDock/src/rDock_2013.1_src/data/scripts/dock_solv.prm

>  <Rbt.Receptor>
prm/pocket_docking_6.prm

>  <SCORE>
-78.6032

>  <SCORE.INTER>
-65.8104

>  <SCORE.INTER.CONST>
1

>  <SCORE.INTER.POLAR>
-9.01116

>  <SCORE.INTER.ROT>
6

>  <SCORE.INTER.SOLV>
27.4646

>  <SCORE.INTER.VDW>
-30.5913

>  <SCORE.INTER.norm>
-1.9356

>  <SCORE.INTRA>
-12.7929

>  <SCORE.INTRA.DIHEDRAL>
-19.8992

>  <SCORE.INTRA.DIHEDRAL.0>
42.0816

>  <SCORE.INTRA.POLAR>
-0.277315

>  <SCORE.INTRA.POLAR.0>
-0.254682

>  <SCORE.INTRA.REPUL>
0

>  <SCORE.INTRA.REPUL.0>
0

>  <SCORE.INTRA.SOLV>
0.672316

>  <SCORE.INTRA.SOLV.lig_0>
-109.803

>  <SCORE.INTRA.VDW>
-2.23654

>  <SCORE.INTRA.VDW.0>
0.32176

>  <SCORE.INTRA.norm>
-0.37626

>  <SCORE.RESTR>
0

>  <SCORE.RESTR.CAVITY>
0

>  <SCORE.RESTR.norm>
0

>  <SCORE.SYSTEM>
0

>  <SCORE.SYSTEM.CONST>
0

>  <SCORE.SYSTEM.DIHEDRAL>
0

>  <SCORE.SYSTEM.SOLV>
0

>  <SCORE.SYSTEM.norm>
0

>  <SCORE.heavy>
34

>  <SCORE.norm>
-2.31186

>  <RMSD>
0.547

$$$$
1mwl
 OpenBabel11021811403D
libRbt.so/2013.1/901 2013/11/27
 34 36  0  0  0  0  0  0  0  0999 V2000
   -9.2248    6.2198   20.1888 C   0  0  2  0  0  0  0  0  0  0  0  0
  -10.3736    6.8950   20.6049 O   0  0  0  0  0  0  0  0  0  0  0  0
   -9.4839    4.6989   20.3801 C   0  0  2  0  0  0  0  0  0  0  0  0
  -10.6538    4.2835   19.6003 N   0  3  0  0  0  0  0  0  0  0  0  0
   -9.6544    4.3570   21.8893 C   0  0  1  0  0  0  0  0  0  0  0  0
   -9.8554    3.0272   22.0663 O   0  0  0  0  0  0  0  0  0  0  0  0
   -8.3768    4.8335   22.6563 C   0  0  2  0  0  0  0  0  0  0  0  0
   -8.4964    4.5228   24.0603 O   0  0  0  0  0  0  0  0  0  0  0  0
   -8.2105    6.3743   22.4277 C   0  0  2  0  0  0  0  0  0  0  0  0
   -8.0972    6.6699   20.9824 O   0  0  0  0  0  0  0  0  0  0  0  0
   -6.9803    6.9920   23.1023 C   0  0  2  0  0  0  0  0  0  0  0  0
   -7.0439    8.3781   23.0131 O   0  0  0  0  0  0  0  0  0  0  0  0
   -5.6476    6.5788   22.4515 C   0  0  0  0  0  0  0  0  0  0  0  0
  -13.1547    9.8123   19.1857 C   0  0  2  0  0  0  0  0  0  0  0  0
  -13.7046   11.0278   18.5334 N   0  3  0  0  0  0  0  0  0  0  0  0
  -12.2225   10.1981   20.3724 C   0  0  0  0  0  0  0  0  0  0  0  0
  -11.6316    8.9059   21.0440 C   0  0  2  0  0  0  0  0  0  0  0  0
  -10.7420    9.3106   22.1935 N   0  3  0  0  0  0  0  0  0  0  0  0
  -10.8490    8.0750   19.9699 C   0  0  2  0  0  0  0  0  0  0  0  0
  -11.8032    7.7001   18.8098 C   0  0  2  0  0  0  0  0  0  0  0  0
  -11.0819    6.9843   17.8364 O   0  0  0  0  0  0  0  0  0  0  0  0
  -12.3653    8.9865   18.1477 C   0  0  1  0  0  0  0  0  0  0  0  0
  -13.2345    8.6194   17.0865 O   0  0  0  0  0  0  0  0  0  0  0  0
  -13.1720    9.3405   15.8870 C   0  0  2  0  0  0  0  0  0  0  0  0
  -14.5929    9.3730   15.2929 C   0  0  2  0  0  0  0  0  0  0  0  0
  -15.4541   10.0321   16.1965 O   0  0  0  0  0  0  0  0  0  0  0  0
  -15.0747    7.9047   15.0345 C   0  0  1  0  0  0  0  0  0  0  0  0
  -16.4522    7.8473   14.4876 N   0  3  0  0  0  0  0  0  0  0  0  0
  -17.4514    7.7660   15.5835 C   0  0  0  0  0  0  0  0  0  0  0  0
  -14.0783    7.2017   14.0496 C   0  0  2  0  0  0  0  0  0  0  0  0
  -14.0406    7.9148   12.7992 O   0  0  0  0  0  0  0  0  0  0  0  0
  -14.4697    5.8338   13.7617 C   0  0  0  0  0  0  0  0  0  0  0  0
  -12.6294    7.2561   14.6247 C   0  0  0  0  0  0  0  0  0  0  0  0
  -12.2479    8.6675   14.9582 O   0  0  0  0  0  0  0  0  0  0  0  0
  1  2  1  1  0  0  0
  1  3  1  0  0  0  0
  1 10  1  0  0  0  0
  3  4  1  6  0  0  0
  3  5  1  0  0  0  0
  5  6  1  6  0  0  0
  5  7  1  0  0  0  0
  7  8  1  1  0  0  0
  7  9  1  0  0  0  0
  9 10  1  6  0  0  0
  9 11  1  0  0  0  0
 11 12  1  6  0  0  0
 11 13  1  0  0  0  0
 14 15  1  6  0  0  0
 14 16  1  0  0  0  0
 14 22  1  0  0  0  0
 16 17  1  0  0  0  0
 17 18  1  1  0  0  0
 17 19  1  0  0  0  0
 19  2  1  1  0  0  0
 19 20  1  0  0  0  0
 20 21  1  6  0  0  0
 20 22  1  0  0  0  0
 22 23  1  6  0  0  0
 24 23  1  1  0  0  0
 24 25  1  0  0  0  0
 24 34  1  0  0  0  0
 25 26  1  1  0  0  0
 25 27  1  0  0  0  0
 27 28  1  6  0  0  0
 27 30  1  0  0  0  0
 28 29  1  0  0  0  0
 30 31  1  6  0  0  0
 30 32  1  0  0  0  0
 30 33  1  0  0  0  0
 33 34  1  0  0  0  0
M  CHG  4   4   1  15   1  18   1  28   1
M  END
>  <CHROM.1>
-144.06072888,-152.19127964,-173.01592536,-171.08761401,41.94253130,-170.72600737
-55.31642040,-59.94106604,-72.93051168,179.26364406,101.55689870,-147.18076100
98.11669773,29.95234154,-179.63629396,-11.55303473,7.42512166,18.80333743
-0.10701600,0.87504551,-2.69441168

>  <Name>
1mwl

>  <RI>
0

>  <Rbt.Current_Directory>
/home/itssahil/PROJECTS/Mol_Feturizer/New_Systems/rnas/1mwl

>  <Rbt.Executable>
rbdock ($Id: //depot/dev/client3/rdock/2013.1/src/exe/rbdock.cxx#4 $)

>  <Rbt.Library>
libRbt.so (2013.1, Build901 2013/11/27)

>  <Rbt.Parameter_File>
/export/apps/rDock/src/rDock_2013.1_src/data/scripts/dock_solv.prm

>  <Rbt.Receptor>
prm/pocket_docking_2.prm

>  <SCORE>
-82.8379

>  <SCORE.INTER>
-71.9564

>  <SCORE.INTER.CONST>
1

>  <SCORE.INTER.POLAR>
-10.4161

>  <SCORE.INTER.ROT>
6

>  <SCORE.INTER.SOLV>
25.3781

>  <SCORE.INTER.VDW>
-29.3101

>  <SCORE.INTER.norm>
-2.11637

>  <SCORE.INTRA>
-10.8815

>  <SCORE.INTRA.DIHEDRAL>
-14.6087

>  <SCORE.INTRA.DIHEDRAL.0>
42.0816

>  <SCORE.INTRA.POLAR>
-0.50684

>  <SCORE.INTRA.POLAR.0>
-0.254682

>  <SCORE.INTRA.REPUL>
0

>  <SCORE.INTRA.REPUL.0>
0

>  <SCORE.INTRA.SOLV>
0.951183

>  <SCORE.INTRA.SOLV.lig_0>
-109.803

>  <SCORE.INTRA.VDW>
-2.32943

>  <SCORE.INTRA.VDW.0>
0.32176

>  <SCORE.INTRA.norm>
-0.320043

>  <SCORE.RESTR>
0

>  <SCORE.RESTR.CAVITY>
0

>  <SCORE.RESTR.norm>
0

>  <SCORE.SYSTEM>
0

>  <SCORE.SYSTEM.CONST>
0

>  <SCORE.SYSTEM.DIHEDRAL>
0

>  <SCORE.SYSTEM.SOLV>
0

>  <SCORE.SYSTEM.norm>
0

>  <SCORE.heavy>
34

>  <SCORE.norm>
-2.43641

>  <RMSD>
0.596

$$$$
1mwl
 OpenBabel11021811403D
libRbt.so/2013.1/901 2013/11/27
 34 36  0  0  0  0  0  0  0  0999 V2000
   -8.9865    6.4641   20.0449 C   0  0  2  0  0  0  0  0  0  0  0  0
  -10.0579    7.1516   20.6175 O   0  0  0  0  0  0  0  0  0  0  0  0
   -9.2300    4.9463   20.2769 C   0  0  2  0  0  0  0  0  0  0  0  0
  -10.5028    4.5406   19.6729 N   0  3  0  0  0  0  0  0  0  0  0  0
   -9.1873    4.6098   21.7963 C   0  0  1  0  0  0  0  0  0  0  0  0
   -9.3736    3.2824   22.0051 O   0  0  0  0  0  0  0  0  0  0  0  0
   -7.8092    5.0755   22.3720 C   0  0  2  0  0  0  0  0  0  0  0  0
   -7.7309    4.7694   23.7800 O   0  0  0  0  0  0  0  0  0  0  0  0
   -7.6626    6.6140   22.1163 C   0  0  2  0  0  0  0  0  0  0  0  0
   -7.7532    6.9050   20.6684 O   0  0  0  0  0  0  0  0  0  0  0  0
   -6.3433    7.2212   22.6067 C   0  0  2  0  0  0  0  0  0  0  0  0
   -5.3335    6.9498   21.6901 O   0  0  0  0  0  0  0  0  0  0  0  0
   -5.8660    6.6518   23.9552 C   0  0  0  0  0  0  0  0  0  0  0  0
  -13.1827    9.7214   19.2425 C   0  0  2  0  0  0  0  0  0  0  0  0
  -13.8807   10.8673   18.6059 N   0  3  0  0  0  0  0  0  0  0  0  0
  -12.2982   10.2059   20.4294 C   0  0  0  0  0  0  0  0  0  0  0  0
  -11.5500    8.9888   21.0842 C   0  0  2  0  0  0  0  0  0  0  0  0
  -10.7102    9.4873   22.2343 N   0  3  0  0  0  0  0  0  0  0  0  0
  -10.6776    8.2712   19.9977 C   0  0  2  0  0  0  0  0  0  0  0  0
  -11.5852    7.7945   18.8375 C   0  0  2  0  0  0  0  0  0  0  0  0
  -10.7872    7.1825   17.8532 O   0  0  0  0  0  0  0  0  0  0  0  0
  -12.3041    9.0093   18.1920 C   0  0  1  0  0  0  0  0  0  0  0  0
  -13.1277    8.5497   17.1305 O   0  0  0  0  0  0  0  0  0  0  0  0
  -13.0191    9.1701   15.8791 C   0  0  2  0  0  0  0  0  0  0  0  0
  -14.4265    9.1976   15.2534 C   0  0  2  0  0  0  0  0  0  0  0  0
  -15.2839    9.9524   16.0827 O   0  0  0  0  0  0  0  0  0  0  0  0
  -14.9494    7.7283   15.1021 C   0  0  1  0  0  0  0  0  0  0  0  0
  -16.3172    7.6686   14.5315 N   0  3  0  0  0  0  0  0  0  0  0  0
  -17.3403    7.7921   15.6011 C   0  0  0  0  0  0  0  0  0  0  0  0
  -13.9568    6.9191   14.1982 C   0  0  2  0  0  0  0  0  0  0  0  0
  -13.8723    7.5283   12.8962 O   0  0  0  0  0  0  0  0  0  0  0  0
  -14.3855    5.5449   14.0115 C   0  0  0  0  0  0  0  0  0  0  0  0
  -12.5183    6.9760   14.7987 C   0  0  0  0  0  0  0  0  0  0  0  0
  -12.0989    8.3975   15.0272 O   0  0  0  0  0  0  0  0  0  0  0  0
  1  2  1  1  0  0  0
  1  3  1  0  0  0  0
  1 10  1  0  0  0  0
  3  4  1  1  0  0  0
  3  5  1  0  0  0  0
  5  6  1  6  0  0  0
  5  7  1  0  0  0  0
  7  8  1  1  0  0  0
  7  9  1  0  0  0  0
  9 10  1  6  0  0  0
  9 11  1  0  0  0  0
 11 12  1  6  0  0  0
 11 13  1  0  0  0  0
 14 15  1  6  0  0  0
 14 16  1  0  0  0  0
 14 22  1  0  0  0  0
 16 17  1  0  0  0  0
 17 18  1  1  0  0  0
 17 19  1  0  0  0  0
 19  2  1  1  0  0  0
 19 20  1  0  0  0  0
 20 21  1  6  0  0  0
 20 22  1  0  0  0  0
 22 23  1  6  0  0  0
 24 23  1  1  0  0  0
 24 25  1  0  0  0  0
 24 34  1  0  0  0  0
 25 26  1  1  0  0  0
 25 27  1  0  0  0  0
 27 28  1  6  0  0  0
 27 30  1  0  0  0  0
 28 29  1  0  0  0  0
 30 31  1  6  0  0  0
 30 32  1  0  0  0  0
 30 33  1  0  0  0  0
 33 34  1  0  0  0  0
M  CHG  4   4   1  15   1  18   1  28   1
M  END
>  <CHROM.1>
-138.82366360,-165.09259607,-87.76725767,-169.84424035,62.37896495,79.44377898
77.62447904,59.46748898,45.30465337,-59.49777752,110.51091785,-144.78913769
95.50707527,33.54778614,56.35699079,-11.29614290,7.41021939,18.78310900,-0.24776655
0.79429751,-2.50938355

>  <Name>
1mwl

>  <RI>
0

>  <Rbt.Current_Directory>
/home/itssahil/PROJECTS/Mol_Feturizer/New_Systems/rnas/1mwl

>  <Rbt.Executable>
rbdock ($Id: //depot/dev/client3/rdock/2013.1/src/exe/rbdock.cxx#4 $)

>  <Rbt.Library>
libRbt.so (2013.1, Build901 2013/11/27)

>  <Rbt.Parameter_File>
/export/apps/rDock/src/rDock_2013.1_src/data/scripts/dock_solv.prm

>  <Rbt.Receptor>
prm/pocket_docking_3.prm

>  <SCORE>
-82.5678

>  <SCORE.INTER>
-70.4928

>  <SCORE.INTER.CONST>
1

>  <SCORE.INTER.POLAR>
-10.5183

>  <SCORE.INTER.ROT>
6

>  <SCORE.INTER.SOLV>
25.9188

>  <SCORE.INTER.VDW>
-28.1736

>  <SCORE.INTER.norm>
-2.07332

>  <SCORE.INTRA>
-12.0751

>  <SCORE.INTRA.DIHEDRAL>
-12.5862

>  <SCORE.INTRA.DIHEDRAL.0>
42.0816

>  <SCORE.INTRA.POLAR>
-1.44033

>  <SCORE.INTRA.POLAR.0>
-0.254682

>  <SCORE.INTRA.REPUL>
0

>  <SCORE.INTRA.REPUL.0>
0

>  <SCORE.INTRA.SOLV>
0.325795

>  <SCORE.INTRA.SOLV.lig_0>
-109.803

>  <SCORE.INTRA.VDW>
-1.04769

>  <SCORE.INTRA.VDW.0>
0.32176

>  <SCORE.INTRA.norm>
-0.355149

>  <SCORE.RESTR>
0

>  <SCORE.RESTR.CAVITY>
0

>  <SCORE.RESTR.norm>
0

>  <SCORE.SYSTEM>
0

>  <SCORE.SYSTEM.CONST>
0

>  <SCORE.SYSTEM.DIHEDRAL>
0

>  <SCORE.SYSTEM.SOLV>
0

>  <SCORE.SYSTEM.norm>
0

>  <SCORE.heavy>
34

>  <SCORE.norm>
-2.42847

>  <RMSD>
0.603

$$$$
1mwl
 OpenBabel11021811403D
libRbt.so/2013.1/901 2013/11/27
 34 36  0  0  0  0  0  0  0  0999 V2000
   -8.7745    6.2241   20.4974 C   0  0  2  0  0  0  0  0  0  0  0  0
   -9.8649    6.9361   21.0000 O   0  0  0  0  0  0  0  0  0  0  0  0
   -8.8847    4.7674   21.0293 C   0  0  2  0  0  0  0  0  0  0  0  0
  -10.1518    4.1674   20.6006 N   0  3  0  0  0  0  0  0  0  0  0  0
   -8.7348    4.7363   22.5786 C   0  0  1  0  0  0  0  0  0  0  0  0
   -8.8043    3.4654   23.0478 O   0  0  0  0  0  0  0  0  0  0  0  0
   -7.3691    5.3966   22.9611 C   0  0  2  0  0  0  0  0  0  0  0  0
   -7.1921    5.3760   24.3931 O   0  0  0  0  0  0  0  0  0  0  0  0
   -7.3583    6.8624   22.4086 C   0  0  2  0  0  0  0  0  0  0  0  0
   -7.5485    6.8596   20.9413 O   0  0  0  0  0  0  0  0  0  0  0  0
   -6.0668    7.6407   22.6847 C   0  0  2  0  0  0  0  0  0  0  0  0
   -6.2641    8.9889   22.4077 O   0  0  0  0  0  0  0  0  0  0  0  0
   -4.8783    7.1913   21.8153 C   0  0  0  0  0  0  0  0  0  0  0  0
  -12.6809    9.8796   19.7093 C   0  0  2  0  0  0  0  0  0  0  0  0
  -13.2477   11.1043   19.0895 N   0  3  0  0  0  0  0  0  0  0  0  0
  -11.7068   10.2487   20.8673 C   0  0  0  0  0  0  0  0  0  0  0  0
  -11.0986    8.9469   21.5040 C   0  0  2  0  0  0  0  0  0  0  0  0
  -10.1683    9.3355   22.6266 N   0  3  0  0  0  0  0  0  0  0  0  0
  -10.3570    8.1249   20.3947 C   0  0  2  0  0  0  0  0  0  0  0  0
  -11.3521    7.7664   19.2640 C   0  0  2  0  0  0  0  0  0  0  0  0
  -10.6677    7.0587   18.2587 O   0  0  0  0  0  0  0  0  0  0  0  0
  -11.9311    9.0622   18.6357 C   0  0  1  0  0  0  0  0  0  0  0  0
  -12.8379    8.7101   17.6011 O   0  0  0  0  0  0  0  0  0  0  0  0
  -12.6870    9.3084   16.3434 C   0  0  2  0  0  0  0  0  0  0  0  0
  -14.0957    9.6509   15.8227 C   0  0  2  0  0  0  0  0  0  0  0  0
  -14.7048   10.5638   16.7105 O   0  0  0  0  0  0  0  0  0  0  0  0
  -14.9369    8.3335   15.7145 C   0  0  1  0  0  0  0  0  0  0  0  0
  -16.3223    8.5816   15.2461 N   0  3  0  0  0  0  0  0  0  0  0  0
  -17.2452    7.5334   15.7515 C   0  0  0  0  0  0  0  0  0  0  0  0
  -14.2136    7.3391   14.7425 C   0  0  2  0  0  0  0  0  0  0  0  0
  -14.0923    7.9322   13.4360 O   0  0  0  0  0  0  0  0  0  0  0  0
  -14.9450    6.0943   14.5918 C   0  0  0  0  0  0  0  0  0  0  0  0
  -12.7579    7.0723   15.2355 C   0  0  0  0  0  0  0  0  0  0  0  0
  -12.0222    8.3647   15.4284 O   0  0  0  0  0  0  0  0  0  0  0  0
  1  2  1  1  0  0  0
  1  3  1  0  0  0  0
  1 10  1  0  0  0  0
  3  4  1  1  0  0  0
  3  5  1  0  0  0  0
  5  6  1  6  0  0  0
  5  7  1  0  0  0  0
  7  8  1  1  0  0  0
  7  9  1  0  0  0  0
  9 10  1  6  0  0  0
  9 11  1  0  0  0  0
 11 12  1  6  0  0  0
 11 13  1  0  0  0  0
 14 15  1  6  0  0  0
 14 16  1  0  0  0  0
 14 22  1  0  0  0  0
 16 17  1  0  0  0  0
 17 18  1  1  0  0  0
 17 19  1  0  0  0  0
 19  2  1  1  0  0  0
 19 20  1  0  0  0  0
 20 21  1  6  0  0  0
 20 22  1  0  0  0  0
 22 23  1  6  0  0  0
 24 23  1  1  0  0  0
 24 25  1  0  0  0  0
 24 34  1  0  0  0  0
 25 26  1  1  0  0  0
 25 27  1  0  0  0  0
 27 28  1  6  0  0  0
 27 30  1  0  0  0  0
 28 29  1  0  0  0  0
 30 31  1  6  0  0  0
 30 32  1  0  0  0  0
 30 33  1  0  0  0  0
 33 34  1  0  0  0  0
M  CHG  4   4   1  15   1  18   1  28   1
M  END
>  <CHROM.1>
-157.84849911,-155.50713209,-174.85608622,67.31470096,-58.94958703,-167.70006822
64.60844707,-175.55041435,-65.92443474,-60.02133521,110.72813542,-138.94266655
141.05868500,-32.72836360,-51.91610776,-11.06287547,7.64139137,19.22175139
-0.00863603,0.80081898,-2.83195570

>  <Name>
1mwl

>  <RI>
0

>  <Rbt.Current_Directory>
/home/itssahil/PROJECTS/Mol_Feturizer/New_Systems/rnas/1mwl

>  <Rbt.Executable>
rbdock ($Id: //depot/dev/client3/rdock/2013.1/src/exe/rbdock.cxx#4 $)

>  <Rbt.Library>
libRbt.so (2013.1, Build901 2013/11/27)

>  <Rbt.Parameter_File>
/export/apps/rDock/src/rDock_2013.1_src/data/scripts/dock_solv.prm

>  <Rbt.Receptor>
prm/pocket_docking_4.prm

>  <SCORE>
-67.6469

>  <SCORE.INTER>
-55.2781

>  <SCORE.INTER.CONST>
1

>  <SCORE.INTER.POLAR>
-7.85749

>  <SCORE.INTER.ROT>
6

>  <SCORE.INTER.SOLV>
26.7921

>  <SCORE.INTER.VDW>
-27.1911

>  <SCORE.INTER.norm>
-1.62583

>  <SCORE.INTRA>
-12.3689

>  <SCORE.INTRA.DIHEDRAL>
-16.6069

>  <SCORE.INTRA.DIHEDRAL.0>
42.0816

>  <SCORE.INTRA.POLAR>
-0.919753

>  <SCORE.INTRA.POLAR.0>
-0.254682

>  <SCORE.INTRA.REPUL>
0.0306796

>  <SCORE.INTRA.REPUL.0>
0

>  <SCORE.INTRA.SOLV>
1.16437

>  <SCORE.INTRA.SOLV.lig_0>
-109.803

>  <SCORE.INTRA.VDW>
-1.67385

>  <SCORE.INTRA.VDW.0>
0.32176

>  <SCORE.INTRA.norm>
-0.36379

>  <SCORE.RESTR>
0

>  <SCORE.RESTR.CAVITY>
0

>  <SCORE.RESTR.norm>
0

>  <SCORE.SYSTEM>
0

>  <SCORE.SYSTEM.CONST>
0

>  <SCORE.SYSTEM.DIHEDRAL>
0

>  <SCORE.SYSTEM.SOLV>
0

>  <SCORE.SYSTEM.norm>
0

>  <SCORE.heavy>
34

>  <SCORE.norm>
-1.98962

>  <RMSD>
0.606

$$$$
1mwl
 OpenBabel11021811403D
libRbt.so/2013.1/901 2013/11/27
 34 36  0  0  0  0  0  0  0  0999 V2000
   -8.9038    6.1407   20.1343 C   0  0  2  0  0  0  0  0  0  0  0  0
  -10.0040    6.8390   20.6351 O   0  0  0  0  0  0  0  0  0  0  0  0
   -9.1278    4.6341   20.4457 C   0  0  2  0  0  0  0  0  0  0  0  0
  -10.3745    4.1706   19.8289 N   0  3  0  0  0  0  0  0  0  0  0  0
   -9.1254    4.3852   21.9824 C   0  0  1  0  0  0  0  0  0  0  0  0
   -9.2948    3.0685   22.2614 O   0  0  0  0  0  0  0  0  0  0  0  0
   -7.7737    4.9091   22.5706 C   0  0  2  0  0  0  0  0  0  0  0  0
   -7.7327    4.6849   23.9955 O   0  0  0  0  0  0  0  0  0  0  0  0
   -7.6462    6.4331   22.2316 C   0  0  2  0  0  0  0  0  0  0  0  0
   -7.6979    6.6397   20.7674 O   0  0  0  0  0  0  0  0  0  0  0  0
   -6.3531    7.0923   22.7248 C   0  0  2  0  0  0  0  0  0  0  0  0
   -5.5035    7.3204   21.6481 O   0  0  0  0  0  0  0  0  0  0  0  0
   -5.5617    6.2272   23.7227 C   0  0  0  0  0  0  0  0  0  0  0  0
  -12.9542    9.5270   19.1087 C   0  0  2  0  0  0  0  0  0  0  0  0
  -13.5746   10.7030   18.4471 N   0  3  0  0  0  0  0  0  0  0  0  0
  -12.1290    9.9676   20.3540 C   0  0  0  0  0  0  0  0  0  0  0  0
  -11.4619    8.7185   21.0359 C   0  0  2  0  0  0  0  0  0  0  0  0
  -10.6787    9.1751   22.2420 N   0  3  0  0  0  0  0  0  0  0  0  0
  -10.5481    7.9858   19.9945 C   0  0  2  0  0  0  0  0  0  0  0  0
  -11.3977    7.5535   18.7745 C   0  0  2  0  0  0  0  0  0  0  0  0
  -10.5609    6.9276   17.8321 O   0  0  0  0  0  0  0  0  0  0  0  0
  -12.0361    8.7992   18.1038 C   0  0  1  0  0  0  0  0  0  0  0  0
  -12.8075    8.3799   16.9876 O   0  0  0  0  0  0  0  0  0  0  0  0
  -12.7748    9.1534   15.8200 C   0  0  2  0  0  0  0  0  0  0  0  0
  -14.2209    9.2688   15.3018 C   0  0  2  0  0  0  0  0  0  0  0  0
  -15.0085    9.9178   16.2770 O   0  0  0  0  0  0  0  0  0  0  0  0
  -14.7748    7.8339   15.0030 C   0  0  1  0  0  0  0  0  0  0  0  0
  -16.1789    7.8557   14.5255 N   0  3  0  0  0  0  0  0  0  0  0  0
  -17.1250    7.7548   15.6660 C   0  0  0  0  0  0  0  0  0  0  0  0
  -13.8581    7.1397   13.9376 C   0  0  2  0  0  0  0  0  0  0  0  0
  -13.8532    7.9085   12.7201 O   0  0  0  0  0  0  0  0  0  0  0  0
  -14.3191    5.8029   13.6093 C   0  0  0  0  0  0  0  0  0  0  0  0
  -12.3815    7.1109   14.4394 C   0  0  0  0  0  0  0  0  0  0  0  0
  -11.9263    8.4892   14.8158 O   0  0  0  0  0  0  0  0  0  0  0  0
  1  2  1  1  0  0  0
  1  3  1  0  0  0  0
  1 10  1  0  0  0  0
  3  4  1  1  0  0  0
  3  5  1  0  0  0  0
  5  6  1  6  0  0  0
  5  7  1  0  0  0  0
  7  8  1  1  0  0  0
  7  9  1  0  0  0  0
  9 10  1  6  0  0  0
  9 11  1  0  0  0  0
 11 12  1  6  0  0  0
 11 13  1  0  0  0  0
 14 15  1  6  0  0  0
 14 16  1  0  0  0  0
 14 22  1  0  0  0  0
 16 17  1  0  0  0  0
 17 18  1  1  0  0  0
 17 19  1  0  0  0  0
 19  2  1  1  0  0  0
 19 20  1  0  0  0  0
 20 21  1  6  0  0  0
 20 22  1  0  0  0  0
 22 23  1  6  0  0  0
 24 23  1  1  0  0  0
 24 25  1  0  0  0  0
 24 34  1  0  0  0  0
 25 26  1  1  0  0  0
 25 27  1  0  0  0  0
 27 28  1  6  0  0  0
 27 30  1  0  0  0  0
 28 29  1  0  0  0  0
 30 31  1  6  0  0  0
 30 32  1  0  0  0  0
 30 33  1  0  0  0  0
 33 34  1  0  0  0  0
M  CHG  4   4   1  15   1  18   1  28   1
M  END
>  <CHROM.1>
-144.74763332,-163.65775612,58.68660850,-166.68966770,-74.80333374,106.03338254
-55.84942308,-67.11011231,161.82843375,-62.13298592,99.64920726,-136.61510068
118.35864490,29.65474245,176.26067350,-11.16708603,7.30418912,18.76539402
-0.22674996,0.83563579,-2.52302493

>  <Name>
1mwl

>  <RI>
0

>  <Rbt.Current_Directory>
/home/itssahil/PROJECTS/Mol_Feturizer/New_Systems/rnas/1mwl

>  <Rbt.Executable>
rbdock ($Id: //depot/dev/client3/rdock/2013.1/src/exe/rbdock.cxx#4 $)

>  <Rbt.Library>
libRbt.so (2013.1, Build901 2013/11/27)

>  <Rbt.Parameter_File>
/export/apps/rDock/src/rDock_2013.1_src/data/scripts/dock_solv.prm

>  <Rbt.Receptor>
prm/pocket_docking_4.prm

>  <SCORE>
-82.7925

>  <SCORE.INTER>
-77.6868

>  <SCORE.INTER.CONST>
1

>  <SCORE.INTER.POLAR>
-11

>  <SCORE.INTER.ROT>
6

>  <SCORE.INTER.SOLV>
27.0917

>  <SCORE.INTER.VDW>
-31.7551

>  <SCORE.INTER.norm>
-2.2849

>  <SCORE.INTRA>
-5.10576

>  <SCORE.INTRA.DIHEDRAL>
-8.31127

>  <SCORE.INTRA.DIHEDRAL.0>
42.0816

>  <SCORE.INTRA.POLAR>
-0.911985

>  <SCORE.INTRA.POLAR.0>
-0.254682

>  <SCORE.INTRA.REPUL>
0

>  <SCORE.INTRA.REPUL.0>
0

>  <SCORE.INTRA.SOLV>
0.670371

>  <SCORE.INTRA.SOLV.lig_0>
-109.803

>  <SCORE.INTRA.VDW>
1.81544

>  <SCORE.INTRA.VDW.0>
0.32176

>  <SCORE.INTRA.norm>
-0.150169

>  <SCORE.RESTR>
0

>  <SCORE.RESTR.CAVITY>
0

>  <SCORE.RESTR.norm>
0

>  <SCORE.SYSTEM>
0

>  <SCORE.SYSTEM.CONST>
0

>  <SCORE.SYSTEM.DIHEDRAL>
0

>  <SCORE.SYSTEM.SOLV>
0

>  <SCORE.SYSTEM.norm>
0

>  <SCORE.heavy>
34

>  <SCORE.norm>
-2.43507

>  <RMSD>
0.608

$$$$
1mwl
 OpenBabel11021811403D
libRbt.so/2013.1/901 2013/11/27
 34 36  0  0  0  0  0  0  0  0999 V2000
   -9.1023    6.3458   20.2867 C   0  0  2  0  0  0  0  0  0  0  0  0
  -10.2467    7.0188   20.7179 O   0  0  0  0  0  0  0  0  0  0  0  0
   -9.3297    4.8294   20.5431 C   0  0  2  0  0  0  0  0  0  0  0  0
  -10.5191    4.3676   19.8210 N   0  3  0  0  0  0  0  0  0  0  0  0
   -9.4421    4.5419   22.0690 C   0  0  1  0  0  0  0  0  0  0  0  0
   -9.6151    3.2167   22.3021 O   0  0  0  0  0  0  0  0  0  0  0  0
   -8.1465    5.0659   22.7722 C   0  0  2  0  0  0  0  0  0  0  0  0
   -8.2122    4.8063   24.1901 O   0  0  0  0  0  0  0  0  0  0  0  0
   -8.0134    6.5993   22.4812 C   0  0  2  0  0  0  0  0  0  0  0  0
   -7.9552    6.8422   21.0227 O   0  0  0  0  0  0  0  0  0  0  0  0
   -6.7708    7.2603   23.0885 C   0  0  2  0  0  0  0  0  0  0  0  0
   -6.8495    8.6395   22.9307 O   0  0  0  0  0  0  0  0  0  0  0  0
   -5.4528    6.8246   22.4224 C   0  0  0  0  0  0  0  0  0  0  0  0
  -13.2531    9.6253   19.1599 C   0  0  2  0  0  0  0  0  0  0  0  0
  -13.9001   10.7447   18.4293 N   0  3  0  0  0  0  0  0  0  0  0  0
  -12.3150   10.1673   20.2789 C   0  0  0  0  0  0  0  0  0  0  0  0
  -11.6214    8.9758   21.0335 C   0  0  2  0  0  0  0  0  0  0  0  0
  -10.7280    9.5308   22.1154 N   0  3  0  0  0  0  0  0  0  0  0  0
  -10.8167    8.1091   20.0051 C   0  0  2  0  0  0  0  0  0  0  0  0
  -11.7767    7.5787   18.9123 C   0  0  2  0  0  0  0  0  0  0  0  0
  -11.0378    6.8311   17.9768 O   0  0  0  0  0  0  0  0  0  0  0  0
  -12.4409    8.7671   18.1667 C   0  0  1  0  0  0  0  0  0  0  0  0
  -13.3138    8.2581   17.1690 O   0  0  0  0  0  0  0  0  0  0  0  0
  -12.9602    8.4167   15.8227 C   0  0  2  0  0  0  0  0  0  0  0  0
  -14.2595    8.6473   15.0279 C   0  0  2  0  0  0  0  0  0  0  0  0
  -14.8816    9.8250   15.4952 O   0  0  0  0  0  0  0  0  0  0  0  0
  -15.2010    7.4087   15.2134 C   0  0  1  0  0  0  0  0  0  0  0  0
  -16.4921    7.5654   14.5001 N   0  3  0  0  0  0  0  0  0  0  0  0
  -17.6081    7.7447   15.4637 C   0  0  0  0  0  0  0  0  0  0  0  0
  -14.4635    6.1211   14.7081 C   0  0  2  0  0  0  0  0  0  0  0  0
  -14.1339    6.2609   13.3134 O   0  0  0  0  0  0  0  0  0  0  0  0
  -15.2848    4.9321   14.8468 C   0  0  0  0  0  0  0  0  0  0  0  0
  -13.1076    5.9510   15.4602 C   0  0  0  0  0  0  0  0  0  0  0  0
  -12.2827    7.1983   15.3472 O   0  0  0  0  0  0  0  0  0  0  0  0
  1  2  1  1  0  0  0
  1  3  1  0  0  0  0
  1 10  1  0  0  0  0
  3  4  1  6  0  0  0
  3  5  1  0  0  0  0
  5  6  1  6  0  0  0
  5  7  1  0  0  0  0
  7  8  1  1  0  0  0
  7  9  1  0  0  0  0
  9 10  1  6  0  0  0
  9 11  1  0  0  0  0
 11 12  1  6  0  0  0
 11 13  1  0  0  0  0
 14 15  1  6  0  0  0
 14 16  1  0  0  0  0
 14 22  1  0  0  0  0
 16 17  1  0  0  0  0
 17 18  1  1  0  0  0
 17 19  1  0  0  0  0
 19  2  1  1  0  0  0
 19 20  1  0  0  0  0
 20 21  1  6  0  0  0
 20 22  1  0  0  0  0
 22 23  1  6  0  0  0
 24 23  1  1  0  0  0
 24 25  1  0  0  0  0
 24 34  1  0  0  0  0
 25 26  1  1  0  0  0
 25 27  1  0  0  0  0
 27 28  1  6  0  0  0
 27 30  1  0  0  0  0
 28 29  1  0  0  0  0
 30 31  1  6  0  0  0
 30 32  1  0  0  0  0
 30 33  1  0  0  0  0
 33 34  1  0  0  0  0
M  CHG  4   4   1  15   1  18   1  28   1
M  END
>  <CHROM.1>
-139.52815478,-155.20616834,26.74849845,61.27775730,-149.57647576,-171.71028410
177.47503379,-78.60438671,45.11408286,-162.75052446,129.83224568,-144.73627740
166.74172681,9.87999475,56.26600754,-11.51514439,7.20868299,18.91339188,-0.12595432
0.81811087,-2.78347880

>  <Name>
1mwl

>  <RI>
0

>  <Rbt.Current_Directory>
/home/itssahil/PROJECTS/Mol_Feturizer/New_Systems/rnas/1mwl

>  <Rbt.Executable>
rbdock ($Id: //depot/dev/client3/rdock/2013.1/src/exe/rbdock.cxx#4 $)

>  <Rbt.Library>
libRbt.so (2013.1, Build901 2013/11/27)

>  <Rbt.Parameter_File>
/export/apps/rDock/src/rDock_2013.1_src/data/scripts/dock_solv.prm

>  <Rbt.Receptor>
prm/pocket_docking_2.prm

>  <SCORE>
-70.437

>  <SCORE.INTER>
-56.7514

>  <SCORE.INTER.CONST>
1

>  <SCORE.INTER.POLAR>
-8.53529

>  <SCORE.INTER.ROT>
6

>  <SCORE.INTER.SOLV>
23.4981

>  <SCORE.INTER.VDW>
-24.816

>  <SCORE.INTER.norm>
-1.66916

>  <SCORE.INTRA>
-13.6856

>  <SCORE.INTRA.DIHEDRAL>
-9.61002

>  <SCORE.INTRA.DIHEDRAL.0>
42.0816

>  <SCORE.INTRA.POLAR>
-2.13908

>  <SCORE.INTRA.POLAR.0>
-0.254682

>  <SCORE.INTRA.REPUL>
0

>  <SCORE.INTRA.REPUL.0>
0

>  <SCORE.INTRA.SOLV>
0.315609

>  <SCORE.INTRA.SOLV.lig_0>
-109.803

>  <SCORE.INTRA.VDW>
-1.76557

>  <SCORE.INTRA.VDW.0>
0.32176

>  <SCORE.INTRA.norm>
-0.402519

>  <SCORE.RESTR>
0

>  <SCORE.RESTR.CAVITY>
0

>  <SCORE.RESTR.norm>
0

>  <SCORE.SYSTEM>
0

>  <SCORE.SYSTEM.CONST>
0

>  <SCORE.SYSTEM.DIHEDRAL>
0

>  <SCORE.SYSTEM.SOLV>
0

>  <SCORE.SYSTEM.norm>
0

>  <SCORE.heavy>
34

>  <SCORE.norm>
-2.07168

>  <RMSD>
0.617

$$$$
1mwl
 OpenBabel11021811403D
libRbt.so/2013.1/901 2013/11/27
 34 36  0  0  0  0  0  0  0  0999 V2000
   -9.0982    6.2218   20.1647 C   0  0  2  0  0  0  0  0  0  0  0  0
  -10.1763    6.9583   20.6585 O   0  0  0  0  0  0  0  0  0  0  0  0
   -9.3787    4.7237   20.4709 C   0  0  2  0  0  0  0  0  0  0  0  0
  -10.6365    4.3066   19.8436 N   0  3  0  0  0  0  0  0  0  0  0  0
   -9.3971    4.4719   22.0071 C   0  0  1  0  0  0  0  0  0  0  0  0
   -9.6160    3.1616   22.2819 O   0  0  0  0  0  0  0  0  0  0  0  0
   -8.0320    4.9455   22.6068 C   0  0  2  0  0  0  0  0  0  0  0  0
   -8.0102    4.7172   24.0315 O   0  0  0  0  0  0  0  0  0  0  0  0
   -7.8471    6.4647   22.2722 C   0  0  2  0  0  0  0  0  0  0  0  0
   -7.8800    6.6758   20.8080 O   0  0  0  0  0  0  0  0  0  0  0  0
   -6.5349    7.0758   22.7767 C   0  0  2  0  0  0  0  0  0  0  0  0
   -6.4193    6.8708   24.1471 O   0  0  0  0  0  0  0  0  0  0  0  0
   -6.4391    8.5969   22.5587 C   0  0  0  0  0  0  0  0  0  0  0  0
  -13.0516    9.7286   19.1363 C   0  0  2  0  0  0  0  0  0  0  0  0
  -13.6398   10.9135   18.4614 N   0  3  0  0  0  0  0  0  0  0  0  0
  -12.1805   10.1634   20.3521 C   0  0  0  0  0  0  0  0  0  0  0  0
  -11.5482    8.9040   21.0478 C   0  0  2  0  0  0  0  0  0  0  0  0
  -10.7192    9.3554   22.2250 N   0  3  0  0  0  0  0  0  0  0  0  0
  -10.6890    8.1116   20.0037 C   0  0  2  0  0  0  0  0  0  0  0  0
  -11.5835    7.6866   18.8136 C   0  0  2  0  0  0  0  0  0  0  0  0
  -10.7947    7.0063   17.8675 O   0  0  0  0  0  0  0  0  0  0  0  0
  -12.1872    8.9417   18.1283 C   0  0  1  0  0  0  0  0  0  0  0  0
  -13.0006    8.5290   17.0399 O   0  0  0  0  0  0  0  0  0  0  0  0
  -13.0403    9.3285   15.8901 C   0  0  2  0  0  0  0  0  0  0  0  0
  -14.4995    9.3567   15.3973 C   0  0  2  0  0  0  0  0  0  0  0  0
  -15.3124    9.9290   16.3995 O   0  0  0  0  0  0  0  0  0  0  0  0
  -14.9602    7.8945   15.0741 C   0  0  1  0  0  0  0  0  0  0  0  0
  -16.3706    7.8312   14.6192 N   0  3  0  0  0  0  0  0  0  0  0  0
  -17.2894    7.6598   15.7735 C   0  0  0  0  0  0  0  0  0  0  0  0
  -14.0171    7.2878   13.9788 C   0  0  2  0  0  0  0  0  0  0  0  0
  -14.0850    8.0818   12.7795 O   0  0  0  0  0  0  0  0  0  0  0  0
  -14.3922    5.9304   13.6268 C   0  0  0  0  0  0  0  0  0  0  0  0
  -12.5335    7.3484   14.4567 C   0  0  0  0  0  0  0  0  0  0  0  0
  -12.1661    8.7459   14.8577 O   0  0  0  0  0  0  0  0  0  0  0  0
  1  2  1  1  0  0  0
  1  3  1  0  0  0  0
  1 10  1  0  0  0  0
  3  4  1  1  0  0  0
  3  5  1  0  0  0  0
  5  6  1  6  0  0  0
  5  7  1  0  0  0  0
  7  8  1  1  0  0  0
  7  9  1  0  0  0  0
  9 10  1  6  0  0  0
  9 11  1  0  0  0  0
 11 12  1  1  0  0  0
 11 13  1  0  0  0  0
 14 15  1  6  0  0  0
 14 16  1  0  0  0  0
 14 22  1  0  0  0  0
 16 17  1  0  0  0  0
 17 18  1  1  0  0  0
 17 19  1  0  0  0  0
 19  2  1  1  0  0  0
 19 20  1  0  0  0  0
 20 21  1  6  0  0  0
 20 22  1  0  0  0  0
 22 23  1  6  0  0  0
 24 23  1  1  0  0  0
 24 25  1  0  0  0  0
 24 34  1  0  0  0  0
 25 26  1  1  0  0  0
 25 27  1  0  0  0  0
 27 28  1  6  0  0  0
 27 30  1  0  0  0  0
 28 29  1  0  0  0  0
 30 31  1  6  0  0  0
 30 32  1  0  0  0  0
 30 33  1  0  0  0  0
 33 34  1  0  0  0  0
M  CHG  4   4   1  15   1  18   1  28   1
M  END
>  <CHROM.1>
-143.59057616,-162.22194843,-64.20064779,-170.83366106,55.56317610,-55.53270491
49.59587597,-62.37292111,-73.72503037,-56.25598819,94.97927165,-139.72060362
169.31538262,30.43256840,55.75505614,-11.40453475,7.45974779,18.85551385
-0.10957972,0.87483761,-2.70745685

>  <Name>
1mwl

>  <RI>
0

>  <Rbt.Current_Directory>
/home/itssahil/PROJECTS/Mol_Feturizer/New_Systems/rnas/1mwl

>  <Rbt.Executable>
rbdock ($Id: //depot/dev/client3/rdock/2013.1/src/exe/rbdock.cxx#4 $)

>  <Rbt.Library>
libRbt.so (2013.1, Build901 2013/11/27)

>  <Rbt.Parameter_File>
/export/apps/rDock/src/rDock_2013.1_src/data/scripts/dock_solv.prm

>  <Rbt.Receptor>
prm/pocket_docking_3.prm

>  <SCORE>
-82.1947

>  <SCORE.INTER>
-63.5672

>  <SCORE.INTER.CONST>
1

>  <SCORE.INTER.POLAR>
-8.31476

>  <SCORE.INTER.ROT>
6

>  <SCORE.INTER.SOLV>
24.2962

>  <SCORE.INTER.VDW>
-30.361

>  <SCORE.INTER.norm>
-1.86962

>  <SCORE.INTRA>
-18.6275

>  <SCORE.INTRA.DIHEDRAL>
-21.7634

>  <SCORE.INTRA.DIHEDRAL.0>
42.0816

>  <SCORE.INTRA.POLAR>
-1.5938

>  <SCORE.INTRA.POLAR.0>
-0.254682

>  <SCORE.INTRA.REPUL>
0

>  <SCORE.INTRA.REPUL.0>
0

>  <SCORE.INTRA.SOLV>
1.42001

>  <SCORE.INTRA.SOLV.lig_0>
-109.803

>  <SCORE.INTRA.VDW>
-3.03689

>  <SCORE.INTRA.VDW.0>
0.32176

>  <SCORE.INTRA.norm>
-0.547868

>  <SCORE.RESTR>
0

>  <SCORE.RESTR.CAVITY>
0

>  <SCORE.RESTR.norm>
0

>  <SCORE.SYSTEM>
0

>  <SCORE.SYSTEM.CONST>
0

>  <SCORE.SYSTEM.DIHEDRAL>
0

>  <SCORE.SYSTEM.SOLV>
0

>  <SCORE.SYSTEM.norm>
0

>  <SCORE.heavy>
34

>  <SCORE.norm>
-2.41749

>  <RMSD>
0.623

$$$$
1mwl
 OpenBabel11021811403D
libRbt.so/2013.1/901 2013/11/27
 34 36  0  0  0  0  0  0  0  0999 V2000
   -8.9675    5.7234   19.8502 C   0  0  2  0  0  0  0  0  0  0  0  0
  -10.1014    6.3844   20.3255 O   0  0  0  0  0  0  0  0  0  0  0  0
   -9.0062    4.2728   20.4083 C   0  0  2  0  0  0  0  0  0  0  0  0
  -10.2332    3.5973   19.9752 N   0  3  0  0  0  0  0  0  0  0  0  0
   -8.8758    4.2782   21.9596 C   0  0  1  0  0  0  0  0  0  0  0  0
   -8.8830    3.0142   22.4519 O   0  0  0  0  0  0  0  0  0  0  0  0
   -7.5530    5.0184   22.3466 C   0  0  2  0  0  0  0  0  0  0  0  0
   -7.3945    5.0336   23.7808 O   0  0  0  0  0  0  0  0  0  0  0  0
   -7.6138    6.4723   21.7665 C   0  0  2  0  0  0  0  0  0  0  0  0
   -7.7837    6.4324   20.2972 O   0  0  0  0  0  0  0  0  0  0  0  0
   -6.3699    7.3243   22.0439 C   0  0  2  0  0  0  0  0  0  0  0  0
   -5.2416    6.6813   21.5473 O   0  0  0  0  0  0  0  0  0  0  0  0
   -6.1066    7.5616   23.5421 C   0  0  0  0  0  0  0  0  0  0  0  0
  -12.8582    9.4411   19.1784 C   0  0  2  0  0  0  0  0  0  0  0  0
  -13.4010   10.7034   18.6149 N   0  3  0  0  0  0  0  0  0  0  0  0
  -11.8706    9.7389   20.3454 C   0  0  0  0  0  0  0  0  0  0  0  0
  -11.2880    8.3980   20.9223 C   0  0  2  0  0  0  0  0  0  0  0  0
  -10.3438    8.7178   22.0550 N   0  3  0  0  0  0  0  0  0  0  0  0
  -10.5701    7.6085   19.7745 C   0  0  2  0  0  0  0  0  0  0  0  0
  -11.5785    7.3206   18.6354 C   0  0  2  0  0  0  0  0  0  0  0  0
  -10.9148    6.6419   17.5966 O   0  0  0  0  0  0  0  0  0  0  0  0
  -12.1319    8.6545   18.0665 C   0  0  1  0  0  0  0  0  0  0  0  0
  -13.0513    8.3669   17.0231 O   0  0  0  0  0  0  0  0  0  0  0  0
  -13.0851    9.2115   15.9059 C   0  0  2  0  0  0  0  0  0  0  0  0
  -14.5369    9.2398   15.3919 C   0  0  2  0  0  0  0  0  0  0  0  0
  -15.3729    9.7600   16.4034 O   0  0  0  0  0  0  0  0  0  0  0  0
  -14.9718    7.7857   15.0029 C   0  0  1  0  0  0  0  0  0  0  0  0
  -16.3741    7.7217   14.5239 N   0  3  0  0  0  0  0  0  0  0  0  0
  -17.3183    7.6373   15.6673 C   0  0  0  0  0  0  0  0  0  0  0  0
  -14.0038    7.2367   13.8991 C   0  0  2  0  0  0  0  0  0  0  0  0
  -14.0648    8.0775   12.7317 O   0  0  0  0  0  0  0  0  0  0  0  0
  -14.3542    5.8896   13.4870 C   0  0  0  0  0  0  0  0  0  0  0  0
  -12.5286    7.2981   14.4021 C   0  0  0  0  0  0  0  0  0  0  0  0
  -12.1872    8.6831   14.8647 O   0  0  0  0  0  0  0  0  0  0  0  0
  1  2  1  1  0  0  0
  1  3  1  0  0  0  0
  1 10  1  0  0  0  0
  3  4  1  1  0  0  0
  3  5  1  0  0  0  0
  5  6  1  6  0  0  0
  5  7  1  0  0  0  0
  7  8  1  1  0  0  0
  7  9  1  0  0  0  0
  9 10  1  6  0  0  0
  9 11  1  0  0  0  0
 11 12  1  1  0  0  0
 11 13  1  0  0  0  0
 14 15  1  6  0  0  0
 14 16  1  0  0  0  0
 14 22  1  0  0  0  0
 16 17  1  0  0  0  0
 17 18  1  1  0  0  0
 17 19  1  0  0  0  0
 19  2  1  1  0  0  0
 19 20  1  0  0  0  0
 20 21  1  6  0  0  0
 20 22  1  0  0  0  0
 22 23  1  6  0  0  0
 24 23  1  1  0  0  0
 24 25  1  0  0  0  0
 24 34  1  0  0  0  0
 25 26  1  1  0  0  0
 25 27  1  0  0  0  0
 27 28  1  6  0  0  0
 27 30  1  0  0  0  0
 28 29  1  0  0  0  0
 30 31  1  6  0  0  0
 30 32  1  0  0  0  0
 30 33  1  0  0  0  0
 33 34  1  0  0  0  0
M  CHG  4   4   1  15   1  18   1  28   1
M  END
>  <CHROM.1>
-164.40731781,-150.46222423,72.11845406,-153.19013231,-68.48693959,56.76259601
62.94903611,-60.51240869,-23.93833191,65.85880029,96.83498152,-147.73066779
-70.97211718,36.49613341,176.72522204,-11.20288204,7.21992968,18.67978602
-0.15791917,0.81537373,-2.60058269

>  <Name>
1mwl

>  <RI>
0

>  <Rbt.Current_Directory>
/home/itssahil/PROJECTS/Mol_Feturizer/New_Systems/rnas/1mwl

>  <Rbt.Executable>
rbdock ($Id: //depot/dev/client3/rdock/2013.1/src/exe/rbdock.cxx#4 $)

>  <Rbt.Library>
libRbt.so (2013.1, Build901 2013/11/27)

>  <Rbt.Parameter_File>
/export/apps/rDock/src/rDock_2013.1_src/data/scripts/dock_solv.prm

>  <Rbt.Receptor>
prm/pocket_docking_2.prm

>  <SCORE>
-77.8177

>  <SCORE.INTER>
-64.9054

>  <SCORE.INTER.CONST>
1

>  <SCORE.INTER.POLAR>
-8.64995

>  <SCORE.INTER.ROT>
6

>  <SCORE.INTER.SOLV>
26.9543

>  <SCORE.INTER.VDW>
-31.0218

>  <SCORE.INTER.norm>
-1.90898

>  <SCORE.INTRA>
-13.0293

>  <SCORE.INTRA.DIHEDRAL>
-20.3611

>  <SCORE.INTRA.DIHEDRAL.0>
42.0816

>  <SCORE.INTRA.POLAR>
-0.218252

>  <SCORE.INTRA.POLAR.0>
-0.254682

>  <SCORE.INTRA.REPUL>
0

>  <SCORE.INTRA.REPUL.0>
0

>  <SCORE.INTRA.SOLV>
0.661492

>  <SCORE.INTRA.SOLV.lig_0>
-109.803

>  <SCORE.INTRA.VDW>
-2.43743

>  <SCORE.INTRA.VDW.0>
0.32176

>  <SCORE.INTRA.norm>
-0.383215

>  <SCORE.RESTR>
0.116995

>  <SCORE.RESTR.CAVITY>
0.116995

>  <SCORE.RESTR.norm>
0.00344103

>  <SCORE.SYSTEM>
0

>  <SCORE.SYSTEM.CONST>
0

>  <SCORE.SYSTEM.DIHEDRAL>
0

>  <SCORE.SYSTEM.SOLV>
0

>  <SCORE.SYSTEM.norm>
0

>  <SCORE.heavy>
34

>  <SCORE.norm>
-2.28876

>  <RMSD>
0.657

$$$$
1mwl
 OpenBabel11021811403D
libRbt.so/2013.1/901 2013/11/27
 34 36  0  0  0  0  0  0  0  0999 V2000
   -8.9978    6.0724   20.0432 C   0  0  2  0  0  0  0  0  0  0  0  0
  -10.2173    6.6487   20.4030 O   0  0  0  0  0  0  0  0  0  0  0  0
   -9.1584    4.5307   20.1626 C   0  0  2  0  0  0  0  0  0  0  0  0
  -10.2413    4.0664   19.2901 N   0  3  0  0  0  0  0  0  0  0  0  0
   -9.4030    4.1176   21.6435 C   0  0  1  0  0  0  0  0  0  0  0  0
   -9.5187    2.7710   21.7594 O   0  0  0  0  0  0  0  0  0  0  0  0
   -8.2166    4.6509   22.5127 C   0  0  2  0  0  0  0  0  0  0  0  0
   -8.4059    4.2767   23.8934 O   0  0  0  0  0  0  0  0  0  0  0  0
   -8.1473    6.2075   22.3506 C   0  0  2  0  0  0  0  0  0  0  0  0
   -7.9605    6.5679   20.9277 O   0  0  0  0  0  0  0  0  0  0  0  0
   -7.0122    6.8819   23.1293 C   0  0  2  0  0  0  0  0  0  0  0  0
   -7.1443    8.2636   23.0472 O   0  0  0  0  0  0  0  0  0  0  0  0
   -5.6101    6.5499   22.5869 C   0  0  0  0  0  0  0  0  0  0  0  0
  -13.0181    9.6295   19.1662 C   0  0  2  0  0  0  0  0  0  0  0  0
  -13.5778   10.8715   18.5749 N   0  3  0  0  0  0  0  0  0  0  0  0
  -12.0553    9.9655   20.3435 C   0  0  0  0  0  0  0  0  0  0  0  0
  -11.4544    8.6460   20.9501 C   0  0  2  0  0  0  0  0  0  0  0  0
  -10.5349    9.0026   22.0921 N   0  3  0  0  0  0  0  0  0  0  0  0
  -10.7024    7.8543   19.8258 C   0  0  2  0  0  0  0  0  0  0  0  0
  -11.6865    7.5281   18.6760 C   0  0  2  0  0  0  0  0  0  0  0  0
  -10.9928    6.8477   17.6582 O   0  0  0  0  0  0  0  0  0  0  0  0
  -12.2584    8.8414   18.0780 C   0  0  1  0  0  0  0  0  0  0  0  0
  -13.1551    8.5189   17.0252 O   0  0  0  0  0  0  0  0  0  0  0  0
  -13.1571    9.3197   15.8757 C   0  0  2  0  0  0  0  0  0  0  0  0
  -14.5999    9.3510   15.3370 C   0  0  2  0  0  0  0  0  0  0  0  0
  -15.4432    9.9235   16.3135 O   0  0  0  0  0  0  0  0  0  0  0  0
  -15.0526    7.8899   14.9975 C   0  0  1  0  0  0  0  0  0  0  0  0
  -16.4480    7.8295   14.4982 N   0  3  0  0  0  0  0  0  0  0  0  0
  -17.4010    7.6309   15.6199 C   0  0  0  0  0  0  0  0  0  0  0  0
  -14.0763    7.2829   13.9320 C   0  0  2  0  0  0  0  0  0  0  0  0
  -14.1049    8.0784   12.7320 O   0  0  0  0  0  0  0  0  0  0  0  0
  -14.4423    5.9265   13.5667 C   0  0  0  0  0  0  0  0  0  0  0  0
  -12.6084    7.3404   14.4566 C   0  0  0  0  0  0  0  0  0  0  0  0
  -12.2517    8.7368   14.8707 O   0  0  0  0  0  0  0  0  0  0  0  0
  1  2  1  1  0  0  0
  1  3  1  0  0  0  0
  1 10  1  0  0  0  0
  3  4  1  6  0  0  0
  3  5  1  0  0  0  0
  5  6  1  6  0  0  0
  5  7  1  0  0  0  0
  7  8  1  1  0  0  0
  7  9  1  0  0  0  0
  9 10  1  6  0  0  0
  9 11  1  0  0  0  0
 11 12  1  6  0  0  0
 11 13  1  0  0  0  0
 14 15  1  6  0  0  0
 14 16  1  0  0  0  0
 14 22  1  0  0  0  0
 16 17  1  0  0  0  0
 17 18  1  1  0  0  0
 17 19  1  0  0  0  0
 19  2  1  1  0  0  0
 19 20  1  0  0  0  0
 20 21  1  6  0  0  0
 20 22  1  0  0  0  0
 22 23  1  6  0  0  0
 24 23  1  1  0  0  0
 24 25  1  0  0  0  0
 24 34  1  0  0  0  0
 25 26  1  1  0  0  0
 25 27  1  0  0  0  0
 27 28  1  6  0  0  0
 27 30  1  0  0  0  0
 28 29  1  0  0  0  0
 30 31  1  6  0  0  0
 30 32  1  0  0  0  0
 30 33  1  0  0  0  0
 33 34  1  0  0  0  0
M  CHG  4   4   1  15   1  18   1  28   1
M  END
>  <CHROM.1>
-147.30603072,-144.17485792,56.30387307,-170.82413151,-9.85561357,-172.71706574
-49.96731415,-179.76185304,49.35033784,-55.97085723,98.93313221,-147.02833166
176.10124028,29.29127420,175.35152710,-11.45006358,7.30895552,18.71749612
-0.11800472,0.86588459,-2.65691369

>  <Name>
1mwl

>  <RI>
0

>  <Rbt.Current_Directory>
/home/itssahil/PROJECTS/Mol_Feturizer/New_Systems/rnas/1mwl

>  <Rbt.Executable>
rbdock ($Id: //depot/dev/client3/rdock/2013.1/src/exe/rbdock.cxx#4 $)

>  <Rbt.Library>
libRbt.so (2013.1, Build901 2013/11/27)

>  <Rbt.Parameter_File>
/export/apps/rDock/src/rDock_2013.1_src/data/scripts/dock_solv.prm

>  <Rbt.Receptor>
prm/pocket_docking_5.prm

>  <SCORE>
-81.7412

>  <SCORE.INTER>
-70.2572

>  <SCORE.INTER.CONST>
1

>  <SCORE.INTER.POLAR>
-9.66382

>  <SCORE.INTER.ROT>
6

>  <SCORE.INTER.SOLV>
25.1948

>  <SCORE.INTER.VDW>
-30.6237

>  <SCORE.INTER.norm>
-2.06639

>  <SCORE.INTRA>
-11.4839

>  <SCORE.INTRA.DIHEDRAL>
-13.6202

>  <SCORE.INTRA.DIHEDRAL.0>
42.0816

>  <SCORE.INTRA.POLAR>
-0.951832

>  <SCORE.INTRA.POLAR.0>
-0.254682

>  <SCORE.INTRA.REPUL>
0

>  <SCORE.INTRA.REPUL.0>
0

>  <SCORE.INTRA.SOLV>
1.99673

>  <SCORE.INTRA.SOLV.lig_0>
-109.803

>  <SCORE.INTRA.VDW>
-2.43595

>  <SCORE.INTRA.VDW.0>
0.32176

>  <SCORE.INTRA.norm>
-0.337763

>  <SCORE.RESTR>
0

>  <SCORE.RESTR.CAVITY>
0

>  <SCORE.RESTR.norm>
0

>  <SCORE.SYSTEM>
0

>  <SCORE.SYSTEM.CONST>
0

>  <SCORE.SYSTEM.DIHEDRAL>
0

>  <SCORE.SYSTEM.SOLV>
0

>  <SCORE.SYSTEM.norm>
0

>  <SCORE.heavy>
34

>  <SCORE.norm>
-2.40415

>  <RMSD>
0.685

$$$$
1mwl
 OpenBabel11021811403D
libRbt.so/2013.1/901 2013/11/27
 34 36  0  0  0  0  0  0  0  0999 V2000
   -8.7397    5.9921   20.3301 C   0  0  2  0  0  0  0  0  0  0  0  0
   -9.7737    6.7399   20.8959 O   0  0  0  0  0  0  0  0  0  0  0  0
   -8.8263    4.5566   20.9207 C   0  0  2  0  0  0  0  0  0  0  0  0
  -10.1335    3.9646   20.6203 N   0  3  0  0  0  0  0  0  0  0  0  0
   -8.5479    4.5758   22.4523 C   0  0  1  0  0  0  0  0  0  0  0  0
   -8.5965    3.3231   22.9705 O   0  0  0  0  0  0  0  0  0  0  0  0
   -7.1455    5.2248   22.6964 C   0  0  2  0  0  0  0  0  0  0  0  0
   -6.8496    5.2501   24.1085 O   0  0  0  0  0  0  0  0  0  0  0  0
   -7.1595    6.6704   22.0931 C   0  0  2  0  0  0  0  0  0  0  0  0
   -7.4717    6.6208   20.6477 O   0  0  0  0  0  0  0  0  0  0  0  0
   -5.8382    7.4349   22.2332 C   0  0  2  0  0  0  0  0  0  0  0  0
   -4.8026    6.5396   22.4768 O   0  0  0  0  0  0  0  0  0  0  0  0
   -5.8262    8.4365   23.4023 C   0  0  0  0  0  0  0  0  0  0  0  0
  -12.5873    9.7164   19.6777 C   0  0  2  0  0  0  0  0  0  0  0  0
  -13.1536   10.9544   19.0843 N   0  3  0  0  0  0  0  0  0  0  0  0
  -11.6050   10.0605   20.8364 C   0  0  0  0  0  0  0  0  0  0  0  0
  -10.9974    8.7449   21.4450 C   0  0  2  0  0  0  0  0  0  0  0  0
  -10.0590    9.1094   22.5689 N   0  3  0  0  0  0  0  0  0  0  0  0
  -10.2653    7.9414   20.3159 C   0  0  2  0  0  0  0  0  0  0  0  0
  -11.2685    7.6075   19.1849 C   0  0  2  0  0  0  0  0  0  0  0  0
  -10.5926    6.9164   18.1622 O   0  0  0  0  0  0  0  0  0  0  0  0
  -11.8469    8.9168   18.5844 C   0  0  1  0  0  0  0  0  0  0  0  0
  -12.7611    8.5872   17.5490 O   0  0  0  0  0  0  0  0  0  0  0  0
  -12.5957    9.1833   16.2921 C   0  0  2  0  0  0  0  0  0  0  0  0
  -13.9943    9.5755   15.7792 C   0  0  2  0  0  0  0  0  0  0  0  0
  -14.5673   10.5064   16.6723 O   0  0  0  0  0  0  0  0  0  0  0  0
  -14.8809    8.2881   15.6717 C   0  0  1  0  0  0  0  0  0  0  0  0
  -16.2591    8.5850   15.2107 N   0  3  0  0  0  0  0  0  0  0  0  0
  -17.2333    7.6453   15.8223 C   0  0  0  0  0  0  0  0  0  0  0  0
  -14.1968    7.2720   14.6936 C   0  0  2  0  0  0  0  0  0  0  0  0
  -14.0614    7.8642   13.3881 O   0  0  0  0  0  0  0  0  0  0  0  0
  -14.9714    6.0535   14.5433 C   0  0  0  0  0  0  0  0  0  0  0  0
  -12.7489    6.9540   15.1788 C   0  0  0  0  0  0  0  0  0  0  0  0
  -11.9682    8.2198   15.3715 O   0  0  0  0  0  0  0  0  0  0  0  0
  1  2  1  1  0  0  0
  1  3  1  0  0  0  0
  1 10  1  0  0  0  0
  3  4  1  1  0  0  0
  3  5  1  0  0  0  0
  5  6  1  6  0  0  0
  5  7  1  0  0  0  0
  7  8  1  1  0  0  0
  7  9  1  0  0  0  0
  9 10  1  6  0  0  0
  9 11  1  0  0  0  0
 11 12  1  1  0  0  0
 11 13  1  0  0  0  0
 14 15  1  6  0  0  0
 14 16  1  0  0  0  0
 14 22  1  0  0  0  0
 16 17  1  0  0  0  0
 17 18  1  1  0  0  0
 17 19  1  0  0  0  0
 19  2  1  1  0  0  0
 19 20  1  0  0  0  0
 20 21  1  6  0  0  0
 20 22  1  0  0  0  0
 22 23  1  6  0  0  0
 24 23  1  1  0  0  0
 24 25  1  0  0  0  0
 24 34  1  0  0  0  0
 25 26  1  1  0  0  0
 25 27  1  0  0  0  0
 27 28  1  6  0  0  0
 27 30  1  0  0  0  0
 28 29  1  0  0  0  0
 30 31  1  6  0  0  0
 30 32  1  0  0  0  0
 30 33  1  0  0  0  0
 33 34  1  0  0  0  0
M  CHG  4   4   1  15   1  18   1  28   1
M  END
>  <CHROM.1>
-160.13442163,-159.35882869,-177.67491401,-88.69349194,178.93108340,19.01940851
164.70134447,-57.43095724,56.99767898,-58.33984925,112.29035088,-138.22990630
149.90033588,-27.31030306,-48.84107247,-10.94704793,7.46870722,19.18203793
-0.03803501,0.79043341,-2.76434502

>  <Name>
1mwl

>  <RI>
0

>  <Rbt.Current_Directory>
/home/itssahil/PROJECTS/Mol_Feturizer/New_Systems/rnas/1mwl

>  <Rbt.Executable>
rbdock ($Id: //depot/dev/client3/rdock/2013.1/src/exe/rbdock.cxx#4 $)

>  <Rbt.Library>
libRbt.so (2013.1, Build901 2013/11/27)

>  <Rbt.Parameter_File>
/export/apps/rDock/src/rDock_2013.1_src/data/scripts/dock_solv.prm

>  <Rbt.Receptor>
prm/pocket_docking_4.prm

>  <SCORE>
-68.4331

>  <SCORE.INTER>
-56.9275

>  <SCORE.INTER.CONST>
1

>  <SCORE.INTER.POLAR>
-7.86827

>  <SCORE.INTER.ROT>
6

>  <SCORE.INTER.SOLV>
27.4405

>  <SCORE.INTER.VDW>
-28.4709

>  <SCORE.INTER.norm>
-1.67434

>  <SCORE.INTRA>
-11.5056

>  <SCORE.INTRA.DIHEDRAL>
-10.7236

>  <SCORE.INTRA.DIHEDRAL.0>
42.0816

>  <SCORE.INTRA.POLAR>
-1.15508

>  <SCORE.INTRA.POLAR.0>
-0.254682

>  <SCORE.INTRA.REPUL>
0.0263546

>  <SCORE.INTRA.REPUL.0>
0

>  <SCORE.INTRA.SOLV>
1.38091

>  <SCORE.INTRA.SOLV.lig_0>
-109.803

>  <SCORE.INTRA.VDW>
-3.03875

>  <SCORE.INTRA.VDW.0>
0.32176

>  <SCORE.INTRA.norm>
-0.3384

>  <SCORE.RESTR>
0

>  <SCORE.RESTR.CAVITY>
0

>  <SCORE.RESTR.norm>
0

>  <SCORE.SYSTEM>
0

>  <SCORE.SYSTEM.CONST>
0

>  <SCORE.SYSTEM.DIHEDRAL>
0

>  <SCORE.SYSTEM.SOLV>
0

>  <SCORE.SYSTEM.norm>
0

>  <SCORE.heavy>
34

>  <SCORE.norm>
-2.01274

>  <RMSD>
0.687

$$$$
1mwl
 OpenBabel11021811403D
libRbt.so/2013.1/901 2013/11/27
 34 36  0  0  0  0  0  0  0  0999 V2000
   -9.0609    6.1350   20.0744 C   0  0  2  0  0  0  0  0  0  0  0  0
  -10.0880    6.8899   20.6434 O   0  0  0  0  0  0  0  0  0  0  0  0
   -9.3037    4.6499   20.4647 C   0  0  2  0  0  0  0  0  0  0  0  0
  -10.6155    4.2084   19.9812 N   0  3  0  0  0  0  0  0  0  0  0  0
   -9.1695    4.4581   22.0038 C   0  0  1  0  0  0  0  0  0  0  0  0
   -9.3549    3.1595   22.3493 O   0  0  0  0  0  0  0  0  0  0  0  0
   -7.7539    4.9550   22.4470 C   0  0  2  0  0  0  0  0  0  0  0  0
   -7.5908    4.7824   23.8703 O   0  0  0  0  0  0  0  0  0  0  0  0
   -7.6090    6.4600   22.0371 C   0  0  2  0  0  0  0  0  0  0  0  0
   -7.7870    6.6140   20.5763 O   0  0  0  0  0  0  0  0  0  0  0  0
   -6.2560    7.0907   22.3857 C   0  0  2  0  0  0  0  0  0  0  0  0
   -5.7675    6.5313   23.5612 O   0  0  0  0  0  0  0  0  0  0  0  0
   -6.3277    8.6094   22.6281 C   0  0  0  0  0  0  0  0  0  0  0  0
  -13.1897    9.4632   19.2229 C   0  0  2  0  0  0  0  0  0  0  0  0
  -13.8788   10.5891   18.5426 N   0  3  0  0  0  0  0  0  0  0  0  0
  -12.2508    9.9913   20.3479 C   0  0  0  0  0  0  0  0  0  0  0  0
  -11.5127    8.7939   21.0490 C   0  0  2  0  0  0  0  0  0  0  0  0
  -10.6195    9.3350   22.1380 N   0  3  0  0  0  0  0  0  0  0  0  0
  -10.6991    7.9883   19.9787 C   0  0  2  0  0  0  0  0  0  0  0  0
  -11.6598    7.4703   18.8806 C   0  0  2  0  0  0  0  0  0  0  0  0
  -10.9140    6.7784   17.9084 O   0  0  0  0  0  0  0  0  0  0  0  0
  -12.3683    8.6651   18.1880 C   0  0  1  0  0  0  0  0  0  0  0  0
  -13.2412    8.1675   17.1846 O   0  0  0  0  0  0  0  0  0  0  0  0
  -12.8499    8.2693   15.8432 C   0  0  2  0  0  0  0  0  0  0  0  0
  -14.1185    8.5352   15.0109 C   0  0  2  0  0  0  0  0  0  0  0  0
  -14.6958    9.7536   15.4288 O   0  0  0  0  0  0  0  0  0  0  0  0
  -15.1206    7.3471   15.2092 C   0  0  1  0  0  0  0  0  0  0  0  0
  -16.3863    7.5412   14.4607 N   0  3  0  0  0  0  0  0  0  0  0  0
  -17.5331    7.6868   15.3933 C   0  0  0  0  0  0  0  0  0  0  0  0
  -14.4323    6.0125   14.7593 C   0  0  2  0  0  0  0  0  0  0  0  0
  -14.0648    6.0952   13.3695 O   0  0  0  0  0  0  0  0  0  0  0  0
  -15.3108    4.8670   14.9123 C   0  0  0  0  0  0  0  0  0  0  0  0
  -13.1033    5.8032   15.5486 C   0  0  0  0  0  0  0  0  0  0  0  0
  -12.2190    7.0075   15.4197 O   0  0  0  0  0  0  0  0  0  0  0  0
  1  2  1  1  0  0  0
  1  3  1  0  0  0  0
  1 10  1  0  0  0  0
  3  4  1  1  0  0  0
  3  5  1  0  0  0  0
  5  6  1  6  0  0  0
  5  7  1  0  0  0  0
  7  8  1  1  0  0  0
  7  9  1  0  0  0  0
  9 10  1  6  0  0  0
  9 11  1  0  0  0  0
 11 12  1  1  0  0  0
 11 13  1  0  0  0  0
 14 15  1  6  0  0  0
 14 16  1  0  0  0  0
 14 22  1  0  0  0  0
 16 17  1  0  0  0  0
 17 18  1  1  0  0  0
 17 19  1  0  0  0  0
 19  2  1  1  0  0  0
 19 20  1  0  0  0  0
 20 21  1  6  0  0  0
 20 22  1  0  0  0  0
 22 23  1  6  0  0  0
 24 23  1  1  0  0  0
 24 25  1  0  0  0  0
 24 34  1  0  0  0  0
 25 26  1  1  0  0  0
 25 27  1  0  0  0  0
 27 28  1  6  0  0  0
 27 30  1  0  0  0  0
 28 29  1  0  0  0  0
 30 31  1  6  0  0  0
 30 32  1  0  0  0  0
 30 33  1  0  0  0  0
 33 34  1  0  0  0  0
M  CHG  4   4   1  15   1  18   1  28   1
M  END
>  <CHROM.1>
-141.34736683,-165.41617851,69.35597234,-161.61937738,-72.36430857,-33.22802658
168.79649050,161.87823215,43.60123941,-173.95781656,135.94266401,-144.76472081
168.83261973,5.13964180,-58.06533082,-11.38136843,7.07397841,18.88483407
-0.12016457,0.79807480,-2.77626554

>  <Name>
1mwl

>  <RI>
0

>  <Rbt.Current_Directory>
/home/itssahil/PROJECTS/Mol_Feturizer/New_Systems/rnas/1mwl

>  <Rbt.Executable>
rbdock ($Id: //depot/dev/client3/rdock/2013.1/src/exe/rbdock.cxx#4 $)

>  <Rbt.Library>
libRbt.so (2013.1, Build901 2013/11/27)

>  <Rbt.Parameter_File>
/export/apps/rDock/src/rDock_2013.1_src/data/scripts/dock_solv.prm

>  <Rbt.Receptor>
prm/pocket_docking_2.prm

>  <SCORE>
-76.4459

>  <SCORE.INTER>
-64.7

>  <SCORE.INTER.CONST>
1

>  <SCORE.INTER.POLAR>
-9.66415

>  <SCORE.INTER.ROT>
6

>  <SCORE.INTER.SOLV>
22.9159

>  <SCORE.INTER.VDW>
-26.1581

>  <SCORE.INTER.norm>
-1.90294

>  <SCORE.INTRA>
-11.7852

>  <SCORE.INTRA.DIHEDRAL>
-14.1695

>  <SCORE.INTRA.DIHEDRAL.0>
42.0816

>  <SCORE.INTRA.POLAR>
-0.707025

>  <SCORE.INTRA.POLAR.0>
-0.254682

>  <SCORE.INTRA.REPUL>
0

>  <SCORE.INTRA.REPUL.0>
0

>  <SCORE.INTRA.SOLV>
0.676086

>  <SCORE.INTRA.SOLV.lig_0>
-109.803

>  <SCORE.INTRA.VDW>
-2.63462

>  <SCORE.INTRA.VDW.0>
0.32176

>  <SCORE.INTRA.norm>
-0.346624

>  <SCORE.RESTR>
0.0393126

>  <SCORE.RESTR.CAVITY>
0.0393126

>  <SCORE.RESTR.norm>
0.00115625

>  <SCORE.SYSTEM>
0

>  <SCORE.SYSTEM.CONST>
0

>  <SCORE.SYSTEM.DIHEDRAL>
0

>  <SCORE.SYSTEM.SOLV>
0

>  <SCORE.SYSTEM.norm>
0

>  <SCORE.heavy>
34

>  <SCORE.norm>
-2.24841

>  <RMSD>
0.702

$$$$
1mwl
 OpenBabel11021811403D
libRbt.so/2013.1/901 2013/11/27
 34 36  0  0  0  0  0  0  0  0999 V2000
   -9.2931    6.0046   19.6878 C   0  0  2  0  0  0  0  0  0  0  0  0
  -10.4023    6.6641   20.2202 O   0  0  0  0  0  0  0  0  0  0  0  0
   -9.3727    4.5196   20.1411 C   0  0  2  0  0  0  0  0  0  0  0  0
  -10.6234    3.9147   19.6727 N   0  3  0  0  0  0  0  0  0  0  0  0
   -9.2306    4.4096   21.6874 C   0  0  1  0  0  0  0  0  0  0  0  0
   -9.2735    3.1143   22.0882 O   0  0  0  0  0  0  0  0  0  0  0  0
   -7.8825    5.0795   22.1135 C   0  0  2  0  0  0  0  0  0  0  0  0
   -7.7128    4.9868   23.5435 O   0  0  0  0  0  0  0  0  0  0  0  0
   -7.9024    6.5724   21.6396 C   0  0  2  0  0  0  0  0  0  0  0  0
   -8.0845    6.6433   20.1729 O   0  0  0  0  0  0  0  0  0  0  0  0
   -6.6306    7.3639   21.9651 C   0  0  2  0  0  0  0  0  0  0  0  0
   -5.5577    6.8401   21.2525 O   0  0  0  0  0  0  0  0  0  0  0  0
   -6.2312    7.3054   23.4508 C   0  0  0  0  0  0  0  0  0  0  0  0
  -13.1097    9.8615   19.3799 C   0  0  2  0  0  0  0  0  0  0  0  0
  -13.6436   11.1570   18.8879 N   0  3  0  0  0  0  0  0  0  0  0  0
  -12.0055   10.0932   20.4537 C   0  0  0  0  0  0  0  0  0  0  0  0
  -11.4344    8.7171   20.9543 C   0  0  2  0  0  0  0  0  0  0  0  0
  -10.3757    8.9733   21.9983 N   0  3  0  0  0  0  0  0  0  0  0  0
  -10.8631    7.9179   19.7331 C   0  0  2  0  0  0  0  0  0  0  0  0
  -11.9849    7.6966   18.6891 C   0  0  2  0  0  0  0  0  0  0  0  0
  -11.4523    7.0085   17.5833 O   0  0  0  0  0  0  0  0  0  0  0  0
  -12.5266    9.0642   18.1938 C   0  0  1  0  0  0  0  0  0  0  0  0
  -13.5510    8.8374   17.2368 O   0  0  0  0  0  0  0  0  0  0  0  0
  -13.4035    9.3801   15.9537 C   0  0  2  0  0  0  0  0  0  0  0  0
  -14.7873    9.3500   15.2776 C   0  0  2  0  0  0  0  0  0  0  0  0
  -15.6826   10.1437   16.0266 O   0  0  0  0  0  0  0  0  0  0  0  0
  -15.2882    7.8674   15.2000 C   0  0  1  0  0  0  0  0  0  0  0  0
  -16.6335    7.7543   14.5857 N   0  3  0  0  0  0  0  0  0  0  0  0
  -17.6752    7.5705   15.6283 C   0  0  0  0  0  0  0  0  0  0  0  0
  -14.2545    7.0167   14.3847 C   0  0  2  0  0  0  0  0  0  0  0  0
  -14.1292    7.5447   13.0509 O   0  0  0  0  0  0  0  0  0  0  0  0
  -14.6611    5.6279   14.2693 C   0  0  0  0  0  0  0  0  0  0  0  0
  -12.8396    7.1298   15.0315 C   0  0  0  0  0  0  0  0  0  0  0  0
  -12.4444    8.5681   15.1854 O   0  0  0  0  0  0  0  0  0  0  0  0
  1  2  1  1  0  0  0
  1  3  1  0  0  0  0
  1 10  1  0  0  0  0
  3  4  1  1  0  0  0
  3  5  1  0  0  0  0
  5  6  1  6  0  0  0
  5  7  1  0  0  0  0
  7  8  1  1  0  0  0
  7  9  1  0  0  0  0
  9 10  1  6  0  0  0
  9 11  1  0  0  0  0
 11 12  1  6  0  0  0
 11 13  1  0  0  0  0
 14 15  1  6  0  0  0
 14 16  1  0  0  0  0
 14 22  1  0  0  0  0
 16 17  1  0  0  0  0
 17 18  1  1  0  0  0
 17 19  1  0  0  0  0
 19  2  1  1  0  0  0
 19 20  1  0  0  0  0
 20 21  1  6  0  0  0
 20 22  1  0  0  0  0
 22 23  1  6  0  0  0
 24 23  1  1  0  0  0
 24 25  1  0  0  0  0
 24 34  1  0  0  0  0
 25 26  1  1  0  0  0
 25 27  1  0  0  0  0
 27 28  1  6  0  0  0
 27 30  1  0  0  0  0
 28 29  1  0  0  0  0
 30 31  1  6  0  0  0
 30 32  1  0  0  0  0
 30 33  1  0  0  0  0
 33 34  1  0  0  0  0
M  CHG  4   4   1  15   1  18   1  28   1
M  END
>  <CHROM.1>
-162.26746571,-146.06496244,-56.79276443,-165.74183235,64.72096698,65.53564533
134.04955084,179.37872744,-143.68759751,62.84265083,117.76889116,-163.60271779
81.39827133,18.59389637,62.50726881,-11.49359278,7.36389828,18.69135365,-0.07757137
0.78858625,-2.69630865

>  <Name>
1mwl

>  <RI>
0

>  <Rbt.Current_Directory>
/home/itssahil/PROJECTS/Mol_Feturizer/New_Systems/rnas/1mwl

>  <Rbt.Executable>
rbdock ($Id: //depot/dev/client3/rdock/2013.1/src/exe/rbdock.cxx#4 $)

>  <Rbt.Library>
libRbt.so (2013.1, Build901 2013/11/27)

>  <Rbt.Parameter_File>
/export/apps/rDock/src/rDock_2013.1_src/data/scripts/dock_solv.prm

>  <Rbt.Receptor>
prm/pocket_docking_3.prm

>  <SCORE>
-70.7385

>  <SCORE.INTER>
-62.4228

>  <SCORE.INTER.CONST>
1

>  <SCORE.INTER.POLAR>
-8.43878

>  <SCORE.INTER.ROT>
6

>  <SCORE.INTER.SOLV>
24.9324

>  <SCORE.INTER.VDW>
-29.3967

>  <SCORE.INTER.norm>
-1.83597

>  <SCORE.INTRA>
-8.31563

>  <SCORE.INTRA.DIHEDRAL>
-13.0455

>  <SCORE.INTRA.DIHEDRAL.0>
42.0816

>  <SCORE.INTRA.POLAR>
0.245671

>  <SCORE.INTRA.POLAR.0>
-0.254682

>  <SCORE.INTRA.REPUL>
0

>  <SCORE.INTRA.REPUL.0>
0

>  <SCORE.INTRA.SOLV>
0.116521

>  <SCORE.INTRA.SOLV.lig_0>
-109.803

>  <SCORE.INTRA.VDW>
-2.68641

>  <SCORE.INTRA.VDW.0>
0.32176

>  <SCORE.INTRA.norm>
-0.244577

>  <SCORE.RESTR>
0

>  <SCORE.RESTR.CAVITY>
0

>  <SCORE.RESTR.norm>
0

>  <SCORE.SYSTEM>
0

>  <SCORE.SYSTEM.CONST>
0

>  <SCORE.SYSTEM.DIHEDRAL>
0

>  <SCORE.SYSTEM.SOLV>
0

>  <SCORE.SYSTEM.norm>
0

>  <SCORE.heavy>
34

>  <SCORE.norm>
-2.08054

>  <RMSD>
0.706

$$$$
1mwl
 OpenBabel11021811403D
libRbt.so/2013.1/901 2013/11/27
 34 36  0  0  0  0  0  0  0  0999 V2000
   -9.0113    6.1730   20.0798 C   0  0  2  0  0  0  0  0  0  0  0  0
  -10.0165    6.9437   20.6667 O   0  0  0  0  0  0  0  0  0  0  0  0
   -9.4530    4.6852   20.1700 C   0  0  2  0  0  0  0  0  0  0  0  0
  -10.7343    4.4959   19.4831 N   0  3  0  0  0  0  0  0  0  0  0  0
   -9.5290    4.2246   21.6552 C   0  0  1  0  0  0  0  0  0  0  0  0
   -9.8892    2.9195   21.7411 O   0  0  0  0  0  0  0  0  0  0  0  0
   -8.1345    4.4620   22.3233 C   0  0  2  0  0  0  0  0  0  0  0  0
   -8.1658    4.0358   23.7016 O   0  0  0  0  0  0  0  0  0  0  0  0
   -7.7851    5.9846   22.2074 C   0  0  2  0  0  0  0  0  0  0  0  0
   -7.7658    6.4006   20.7876 O   0  0  0  0  0  0  0  0  0  0  0  0
   -6.4269    6.3763   22.8005 C   0  0  2  0  0  0  0  0  0  0  0  0
   -6.3841    6.0249   24.1451 O   0  0  0  0  0  0  0  0  0  0  0  0
   -6.1406    7.8878   22.7406 C   0  0  0  0  0  0  0  0  0  0  0  0
  -12.9493    9.7511   19.3339 C   0  0  2  0  0  0  0  0  0  0  0  0
  -13.5643   10.9476   18.7050 N   0  3  0  0  0  0  0  0  0  0  0  0
  -12.0097   10.1661   20.5048 C   0  0  0  0  0  0  0  0  0  0  0  0
  -11.3500    8.8946   21.1514 C   0  0  2  0  0  0  0  0  0  0  0  0
  -10.4545    9.3270   22.2862 N   0  3  0  0  0  0  0  0  0  0  0  0
  -10.5553    8.1078   20.0533 C   0  0  2  0  0  0  0  0  0  0  0  0
  -11.5168    7.7024   18.9094 C   0  0  2  0  0  0  0  0  0  0  0  0
  -10.7861    7.0271   17.9144 O   0  0  0  0  0  0  0  0  0  0  0  0
  -12.1473    8.9694   18.2717 C   0  0  1  0  0  0  0  0  0  0  0  0
  -13.0221    8.5746   17.2252 O   0  0  0  0  0  0  0  0  0  0  0  0
  -12.8988    9.1969   15.9761 C   0  0  2  0  0  0  0  0  0  0  0  0
  -14.3056    9.2625   15.3518 C   0  0  2  0  0  0  0  0  0  0  0  0
  -15.1428   10.0357   16.1847 O   0  0  0  0  0  0  0  0  0  0  0  0
  -14.8658    7.8076   15.1954 C   0  0  1  0  0  0  0  0  0  0  0  0
  -16.2351    7.7849   14.6258 N   0  3  0  0  0  0  0  0  0  0  0  0
  -17.2470    8.0717   15.6746 C   0  0  0  0  0  0  0  0  0  0  0  0
  -13.8948    6.9769   14.2874 C   0  0  2  0  0  0  0  0  0  0  0  0
  -13.7960    7.5887   12.9877 O   0  0  0  0  0  0  0  0  0  0  0  0
  -14.3586    5.6147   14.0959 C   0  0  0  0  0  0  0  0  0  0  0  0
  -12.4549    6.9949   14.8868 C   0  0  0  0  0  0  0  0  0  0  0  0
  -11.9993    8.4044   15.1204 O   0  0  0  0  0  0  0  0  0  0  0  0
  1  2  1  1  0  0  0
  1  3  1  0  0  0  0
  1 10  1  0  0  0  0
  3  4  1  1  0  0  0
  3  5  1  0  0  0  0
  5  6  1  6  0  0  0
  5  7  1  0  0  0  0
  7  8  1  1  0  0  0
  7  9  1  0  0  0  0
  9 10  1  6  0  0  0
  9 11  1  0  0  0  0
 11 12  1  1  0  0  0
 11 13  1  0  0  0  0
 14 15  1  6  0  0  0
 14 16  1  0  0  0  0
 14 22  1  0  0  0  0
 16 17  1  0  0  0  0
 17 18  1  1  0  0  0
 17 19  1  0  0  0  0
 19  2  1  1  0  0  0
 19 20  1  0  0  0  0
 20 21  1  6  0  0  0
 20 22  1  0  0  0  0
 22 23  1  6  0  0  0
 24 23  1  1  0  0  0
 24 25  1  0  0  0  0
 24 34  1  0  0  0  0
 25 26  1  1  0  0  0
 25 27  1  0  0  0  0
 27 28  1  6  0  0  0
 27 30  1  0  0  0  0
 28 29  1  0  0  0  0
 30 31  1  6  0  0  0
 30 32  1  0  0  0  0
 30 33  1  0  0  0  0
 33 34  1  0  0  0  0
M  CHG  4   4   1  15   1  18   1  28   1
M  END
>  <CHROM.1>
-132.22005449,-165.00494496,-78.19924091,-59.24174708,-168.93417962,-58.20326088
-56.25593209,-56.43481509,-70.42539317,-56.46496940,109.52692439,-147.44579867
111.56850815,39.46165462,63.61866811,-11.32964614,7.28579312,18.86930693
-0.10256072,0.86381960,-2.67031224

>  <Name>
1mwl

>  <RI>
0

>  <Rbt.Current_Directory>
/home/itssahil/PROJECTS/Mol_Feturizer/New_Systems/rnas/1mwl

>  <Rbt.Executable>
rbdock ($Id: //depot/dev/client3/rdock/2013.1/src/exe/rbdock.cxx#4 $)

>  <Rbt.Library>
libRbt.so (2013.1, Build901 2013/11/27)

>  <Rbt.Parameter_File>
/export/apps/rDock/src/rDock_2013.1_src/data/scripts/dock_solv.prm

>  <Rbt.Receptor>
prm/pocket_docking_2.prm

>  <SCORE>
-84.0441

>  <SCORE.INTER>
-66.5061

>  <SCORE.INTER.CONST>
1

>  <SCORE.INTER.POLAR>
-9.43163

>  <SCORE.INTER.ROT>
6

>  <SCORE.INTER.SOLV>
24.3395

>  <SCORE.INTER.VDW>
-28.6118

>  <SCORE.INTER.norm>
-1.95606

>  <SCORE.INTRA>
-17.5601

>  <SCORE.INTRA.DIHEDRAL>
-14.0202

>  <SCORE.INTRA.DIHEDRAL.0>
42.0816

>  <SCORE.INTRA.POLAR>
-2.20574

>  <SCORE.INTRA.POLAR.0>
-0.254682

>  <SCORE.INTRA.REPUL>
0

>  <SCORE.INTRA.REPUL.0>
0

>  <SCORE.INTRA.SOLV>
1.24482

>  <SCORE.INTRA.SOLV.lig_0>
-109.803

>  <SCORE.INTRA.VDW>
-3.67292

>  <SCORE.INTRA.VDW.0>
0.32176

>  <SCORE.INTRA.norm>
-0.516475

>  <SCORE.RESTR>
0.0221318

>  <SCORE.RESTR.CAVITY>
0.0221318

>  <SCORE.RESTR.norm>
0.000650936

>  <SCORE.SYSTEM>
0

>  <SCORE.SYSTEM.CONST>
0

>  <SCORE.SYSTEM.DIHEDRAL>
0

>  <SCORE.SYSTEM.SOLV>
0

>  <SCORE.SYSTEM.norm>
0

>  <SCORE.heavy>
34

>  <SCORE.norm>
-2.47189

>  <RMSD>
0.758

$$$$
1mwl
 OpenBabel11021811403D
libRbt.so/2013.1/901 2013/11/27
 34 36  0  0  0  0  0  0  0  0999 V2000
   -9.1251    6.0867   20.0982 C   0  0  2  0  0  0  0  0  0  0  0  0
  -10.0872    6.9127   20.6819 O   0  0  0  0  0  0  0  0  0  0  0  0
   -9.6157    4.6196   20.2528 C   0  0  2  0  0  0  0  0  0  0  0  0
  -10.9203    4.4521   19.6053 N   0  3  0  0  0  0  0  0  0  0  0  0
   -9.6687    4.2143   21.7549 C   0  0  1  0  0  0  0  0  0  0  0  0
  -10.0715    2.9267   21.8966 O   0  0  0  0  0  0  0  0  0  0  0  0
   -8.2497    4.4251   22.3790 C   0  0  2  0  0  0  0  0  0  0  0  0
   -8.2597    4.0489   23.7721 O   0  0  0  0  0  0  0  0  0  0  0  0
   -7.8509    5.9294   22.1999 C   0  0  2  0  0  0  0  0  0  0  0  0
   -7.8544    6.2944   20.7660 O   0  0  0  0  0  0  0  0  0  0  0  0
   -6.4648    6.2929   22.7444 C   0  0  2  0  0  0  0  0  0  0  0  0
   -6.4214    6.0522   24.1131 O   0  0  0  0  0  0  0  0  0  0  0  0
   -6.0978    7.7762   22.5557 C   0  0  0  0  0  0  0  0  0  0  0  0
  -13.0009    9.6538   19.1796 C   0  0  2  0  0  0  0  0  0  0  0  0
  -13.6056   10.8336   18.5105 N   0  3  0  0  0  0  0  0  0  0  0  0
  -12.1294   10.0953   20.3927 C   0  0  0  0  0  0  0  0  0  0  0  0
  -11.4795    8.8415   21.0824 C   0  0  2  0  0  0  0  0  0  0  0  0
  -10.6506    9.2994   22.2571 N   0  3  0  0  0  0  0  0  0  0  0  0
  -10.6160    8.0617   20.0323 C   0  0  2  0  0  0  0  0  0  0  0  0
  -11.5109    7.6296   18.8451 C   0  0  2  0  0  0  0  0  0  0  0  0
  -10.7186    6.9608   17.8937 O   0  0  0  0  0  0  0  0  0  0  0  0
  -12.1320    8.8794   18.1658 C   0  0  1  0  0  0  0  0  0  0  0  0
  -12.9454    8.4602   17.0799 O   0  0  0  0  0  0  0  0  0  0  0  0
  -12.8485    9.1482   15.8634 C   0  0  2  0  0  0  0  0  0  0  0  0
  -14.2708    9.2630   15.2831 C   0  0  2  0  0  0  0  0  0  0  0  0
  -15.0753    9.9990   16.1796 O   0  0  0  0  0  0  0  0  0  0  0  0
  -14.8531    7.8251   15.0639 C   0  0  1  0  0  0  0  0  0  0  0  0
  -16.2377    7.8484   14.5323 N   0  3  0  0  0  0  0  0  0  0  0  0
  -17.2274    7.7499   15.6354 C   0  0  0  0  0  0  0  0  0  0  0  0
  -13.9178    7.0344   14.0856 C   0  0  2  0  0  0  0  0  0  0  0  0
  -13.8468    7.7149   12.8186 O   0  0  0  0  0  0  0  0  0  0  0  0
  -14.4035    5.6898   13.8337 C   0  0  0  0  0  0  0  0  0  0  0  0
  -12.4619    7.0039   14.6447 C   0  0  0  0  0  0  0  0  0  0  0  0
  -11.9825    8.3935   14.9413 O   0  0  0  0  0  0  0  0  0  0  0  0
  1  2  1  1  0  0  0
  1  3  1  0  0  0  0
  1 10  1  0  0  0  0
  3  4  1  1  0  0  0
  3  5  1  0  0  0  0
  5  6  1  6  0  0  0
  5  7  1  0  0  0  0
  7  8  1  1  0  0  0
  7  9  1  0  0  0  0
  9 10  1  6  0  0  0
  9 11  1  0  0  0  0
 11 12  1  1  0  0  0
 11 13  1  0  0  0  0
 14 15  1  6  0  0  0
 14 16  1  0  0  0  0
 14 22  1  0  0  0  0
 16 17  1  0  0  0  0
 17 18  1  1  0  0  0
 17 19  1  0  0  0  0
 19  2  1  1  0  0  0
 19 20  1  0  0  0  0
 20 21  1  6  0  0  0
 20 22  1  0  0  0  0
 22 23  1  6  0  0  0
 24 23  1  1  0  0  0
 24 25  1  0  0  0  0
 24 34  1  0  0  0  0
 25 26  1  1  0  0  0
 25 27  1  0  0  0  0
 27 28  1  6  0  0  0
 27 30  1  0  0  0  0
 28 29  1  0  0  0  0
 30 31  1  6  0  0  0
 30 32  1  0  0  0  0
 30 33  1  0  0  0  0
 33 34  1  0  0  0  0
M  CHG  4   4   1  15   1  18   1  28   1
M  END
>  <CHROM.1>
-131.23819435,-171.04446434,58.60965424,179.22034606,-173.39409151,-61.25540216
-64.93414731,177.75785200,48.64555038,-177.51254478,104.37492332,-141.06276749
110.25583688,25.42737376,-178.89430259,-11.37762150,7.24152230,18.80946717
-0.10118531,0.88364167,-2.67962131

>  <Name>
1mwl

>  <RI>
0

>  <Rbt.Current_Directory>
/home/itssahil/PROJECTS/Mol_Feturizer/New_Systems/rnas/1mwl

>  <Rbt.Executable>
rbdock ($Id: //depot/dev/client3/rdock/2013.1/src/exe/rbdock.cxx#4 $)

>  <Rbt.Library>
libRbt.so (2013.1, Build901 2013/11/27)

>  <Rbt.Parameter_File>
/export/apps/rDock/src/rDock_2013.1_src/data/scripts/dock_solv.prm

>  <Rbt.Receptor>
prm/pocket_docking_2.prm

>  <SCORE>
-91.2134

>  <SCORE.INTER>
-76.9125

>  <SCORE.INTER.CONST>
1

>  <SCORE.INTER.POLAR>
-11.2093

>  <SCORE.INTER.ROT>
6

>  <SCORE.INTER.SOLV>
24.8795

>  <SCORE.INTER.VDW>
-29.8039

>  <SCORE.INTER.norm>
-2.26213

>  <SCORE.INTRA>
-14.3009

>  <SCORE.INTRA.DIHEDRAL>
-14.0493

>  <SCORE.INTRA.DIHEDRAL.0>
42.0816

>  <SCORE.INTRA.POLAR>
-1.41916

>  <SCORE.INTRA.POLAR.0>
-0.254682

>  <SCORE.INTRA.REPUL>
0

>  <SCORE.INTRA.REPUL.0>
0

>  <SCORE.INTRA.SOLV>
1.23364

>  <SCORE.INTRA.SOLV.lig_0>
-109.803

>  <SCORE.INTRA.VDW>
-3.06791

>  <SCORE.INTRA.VDW.0>
0.32176

>  <SCORE.INTRA.norm>
-0.420615

>  <SCORE.RESTR>
0

>  <SCORE.RESTR.CAVITY>
0

>  <SCORE.RESTR.norm>
0

>  <SCORE.SYSTEM>
0

>  <SCORE.SYSTEM.CONST>
0

>  <SCORE.SYSTEM.DIHEDRAL>
0

>  <SCORE.SYSTEM.SOLV>
0

>  <SCORE.SYSTEM.norm>
0

>  <SCORE.heavy>
34

>  <SCORE.norm>
-2.68275

>  <RMSD>
0.779

$$$$
1mwl
 OpenBabel11021811403D
libRbt.so/2013.1/901 2013/11/27
 34 36  0  0  0  0  0  0  0  0999 V2000
   -9.0557    6.0990   20.0487 C   0  0  2  0  0  0  0  0  0  0  0  0
  -10.0459    6.8913   20.6323 O   0  0  0  0  0  0  0  0  0  0  0  0
   -9.5161    4.6186   20.1640 C   0  0  2  0  0  0  0  0  0  0  0  0
  -10.8054    4.4364   19.4902 N   0  3  0  0  0  0  0  0  0  0  0  0
   -9.5861    4.1805   21.6562 C   0  0  1  0  0  0  0  0  0  0  0  0
   -9.9626    2.8817   21.7640 O   0  0  0  0  0  0  0  0  0  0  0  0
   -8.1831    4.4091   22.3097 C   0  0  2  0  0  0  0  0  0  0  0  0
   -8.2088    4.0033   23.6942 O   0  0  0  0  0  0  0  0  0  0  0  0
   -7.8148    5.9251   22.1689 C   0  0  2  0  0  0  0  0  0  0  0  0
   -7.8016    6.3203   20.7431 O   0  0  0  0  0  0  0  0  0  0  0  0
   -6.4467    6.3073   22.7454 C   0  0  2  0  0  0  0  0  0  0  0  0
   -6.4334    6.0713   24.1156 O   0  0  0  0  0  0  0  0  0  0  0  0
   -6.0933    7.7943   22.5606 C   0  0  0  0  0  0  0  0  0  0  0  0
  -12.9750    9.6429   19.1802 C   0  0  2  0  0  0  0  0  0  0  0  0
  -13.5864   10.8304   18.5311 N   0  3  0  0  0  0  0  0  0  0  0  0
  -12.1025   10.0691   20.3980 C   0  0  0  0  0  0  0  0  0  0  0  0
  -11.4455    8.8075   21.0663 C   0  0  2  0  0  0  0  0  0  0  0  0
  -10.6157    9.2505   22.2461 N   0  3  0  0  0  0  0  0  0  0  0  0
  -10.5812    8.0480   20.0021 C   0  0  2  0  0  0  0  0  0  0  0  0
  -11.4772    7.6307   18.8104 C   0  0  2  0  0  0  0  0  0  0  0  0
  -10.6843    6.9803   17.8468 O   0  0  0  0  0  0  0  0  0  0  0  0
  -12.1052    8.8884   18.1523 C   0  0  1  0  0  0  0  0  0  0  0  0
  -12.9195    8.4827   17.0619 O   0  0  0  0  0  0  0  0  0  0  0  0
  -12.8434    9.2027   15.8625 C   0  0  2  0  0  0  0  0  0  0  0  0
  -14.2741    9.3223   15.3040 C   0  0  2  0  0  0  0  0  0  0  0  0
  -15.0716   10.0289   16.2299 O   0  0  0  0  0  0  0  0  0  0  0  0
  -14.8494    7.8864   15.0551 C   0  0  1  0  0  0  0  0  0  0  0  0
  -16.2410    7.9135   14.5424 N   0  3  0  0  0  0  0  0  0  0  0  0
  -17.2157    7.8059   15.6579 C   0  0  0  0  0  0  0  0  0  0  0  0
  -13.9216    7.1281   14.0444 C   0  0  2  0  0  0  0  0  0  0  0  0
  -13.8721    7.8417   12.7947 O   0  0  0  0  0  0  0  0  0  0  0  0
  -14.4013    5.7871   13.7639 C   0  0  0  0  0  0  0  0  0  0  0  0
  -12.4582    7.0936   14.5834 C   0  0  0  0  0  0  0  0  0  0  0  0
  -11.9846    8.4785   14.9099 O   0  0  0  0  0  0  0  0  0  0  0  0
  1  2  1  1  0  0  0
  1  3  1  0  0  0  0
  1 10  1  0  0  0  0
  3  4  1  1  0  0  0
  3  5  1  0  0  0  0
  5  6  1  6  0  0  0
  5  7  1  0  0  0  0
  7  8  1  1  0  0  0
  7  9  1  0  0  0  0
  9 10  1  6  0  0  0
  9 11  1  0  0  0  0
 11 12  1  1  0  0  0
 11 13  1  0  0  0  0
 14 15  1  6  0  0  0
 14 16  1  0  0  0  0
 14 22  1  0  0  0  0
 16 17  1  0  0  0  0
 17 18  1  1  0  0  0
 17 19  1  0  0  0  0
 19  2  1  1  0  0  0
 19 20  1  0  0  0  0
 20 21  1  6  0  0  0
 20 22  1  0  0  0  0
 22 23  1  6  0  0  0
 24 23  1  1  0  0  0
 24 25  1  0  0  0  0
 24 34  1  0  0  0  0
 25 26  1  1  0  0  0
 25 27  1  0  0  0  0
 27 28  1  6  0  0  0
 27 30  1  0  0  0  0
 28 29  1  0  0  0  0
 30 31  1  6  0  0  0
 30 32  1  0  0  0  0
 30 33  1  0  0  0  0
 33 34  1  0  0  0  0
M  CHG  4   4   1  15   1  18   1  28   1
M  END
>  <CHROM.1>
-131.75588626,-169.26693201,-85.47716364,-175.75348944,-170.17632995,-62.80037912
-58.29230639,178.76427681,44.31730556,-57.63804124,103.41665018,-140.39233642
108.16838792,26.53170035,176.51172210,-11.34518001,7.26203945,18.78095661
-0.10860973,0.87941285,-2.65881209

>  <Name>
1mwl

>  <RI>
0

>  <Rbt.Current_Directory>
/home/itssahil/PROJECTS/Mol_Feturizer/New_Systems/rnas/1mwl

>  <Rbt.Executable>
rbdock ($Id: //depot/dev/client3/rdock/2013.1/src/exe/rbdock.cxx#4 $)

>  <Rbt.Library>
libRbt.so (2013.1, Build901 2013/11/27)

>  <Rbt.Parameter_File>
/export/apps/rDock/src/rDock_2013.1_src/data/scripts/dock_solv.prm

>  <Rbt.Receptor>
prm/pocket_docking_2.prm

>  <SCORE>
-94.2317

>  <SCORE.INTER>
-77.7206

>  <SCORE.INTER.CONST>
1

>  <SCORE.INTER.POLAR>
-11.1871

>  <SCORE.INTER.ROT>
6

>  <SCORE.INTER.SOLV>
25.2327

>  <SCORE.INTER.VDW>
-30.5343

>  <SCORE.INTER.norm>
-2.2859

>  <SCORE.INTRA>
-16.5272

>  <SCORE.INTRA.DIHEDRAL>
-12.4027

>  <SCORE.INTRA.DIHEDRAL.0>
42.0816

>  <SCORE.INTRA.POLAR>
-2.37731

>  <SCORE.INTRA.POLAR.0>
-0.254682

>  <SCORE.INTRA.REPUL>
0

>  <SCORE.INTRA.REPUL.0>
0

>  <SCORE.INTRA.SOLV>
1.19718

>  <SCORE.INTRA.SOLV.lig_0>
-109.803

>  <SCORE.INTRA.VDW>
-2.84152

>  <SCORE.INTRA.VDW.0>
0.32176

>  <SCORE.INTRA.norm>
-0.486093

>  <SCORE.RESTR>
0.01606

>  <SCORE.RESTR.CAVITY>
0.01606

>  <SCORE.RESTR.norm>
0.000472354

>  <SCORE.SYSTEM>
0

>  <SCORE.SYSTEM.CONST>
0

>  <SCORE.SYSTEM.DIHEDRAL>
0

>  <SCORE.SYSTEM.SOLV>
0

>  <SCORE.SYSTEM.norm>
0

>  <SCORE.heavy>
34

>  <SCORE.norm>
-2.77152

>  <RMSD>
0.793

$$$$
1mwl
 OpenBabel11021811403D
libRbt.so/2013.1/901 2013/11/27
 34 36  0  0  0  0  0  0  0  0999 V2000
   -8.9781    6.0317   19.9744 C   0  0  2  0  0  0  0  0  0  0  0  0
   -9.9757    6.8190   20.5517 O   0  0  0  0  0  0  0  0  0  0  0  0
   -9.4204    4.5474   20.1087 C   0  0  2  0  0  0  0  0  0  0  0  0
  -10.7095    4.3419   19.4413 N   0  3  0  0  0  0  0  0  0  0  0  0
   -9.4806    4.1262   21.6063 C   0  0  1  0  0  0  0  0  0  0  0  0
   -9.8413    2.8244   21.7306 O   0  0  0  0  0  0  0  0  0  0  0  0
   -8.0785    4.3791   22.2524 C   0  0  2  0  0  0  0  0  0  0  0  0
   -8.0950    3.9896   23.6418 O   0  0  0  0  0  0  0  0  0  0  0  0
   -7.7286    5.8977   22.0925 C   0  0  2  0  0  0  0  0  0  0  0  0
   -7.7245    6.2760   20.6621 O   0  0  0  0  0  0  0  0  0  0  0  0
   -6.3634    6.3029   22.6600 C   0  0  2  0  0  0  0  0  0  0  0  0
   -6.2831    5.9310   23.9974 O   0  0  0  0  0  0  0  0  0  0  0  0
   -6.1037    7.8198   22.6179 C   0  0  0  0  0  0  0  0  0  0  0  0
  -12.9098    9.5603   19.0903 C   0  0  2  0  0  0  0  0  0  0  0  0
  -13.5234   10.7447   18.4374 N   0  3  0  0  0  0  0  0  0  0  0  0
  -12.0388    9.9919   20.3072 C   0  0  0  0  0  0  0  0  0  0  0  0
  -11.3795    8.7335   20.9795 C   0  0  2  0  0  0  0  0  0  0  0  0
  -10.5512    9.1817   22.1584 N   0  3  0  0  0  0  0  0  0  0  0  0
  -10.5131    7.9728   19.9179 C   0  0  2  0  0  0  0  0  0  0  0  0
  -11.4076    7.5502   18.7270 C   0  0  2  0  0  0  0  0  0  0  0  0
  -10.6129    6.8987   17.7657 O   0  0  0  0  0  0  0  0  0  0  0  0
  -12.0380    8.8046   18.0649 C   0  0  1  0  0  0  0  0  0  0  0  0
  -12.8509    8.3942   16.9754 O   0  0  0  0  0  0  0  0  0  0  0  0
  -12.8024    9.1324   15.7857 C   0  0  2  0  0  0  0  0  0  0  0  0
  -14.2476    9.2771   15.2725 C   0  0  2  0  0  0  0  0  0  0  0  0
  -15.0086    9.9777   16.2330 O   0  0  0  0  0  0  0  0  0  0  0  0
  -14.8470    7.8519   15.0185 C   0  0  1  0  0  0  0  0  0  0  0  0
  -16.2529    7.9030   14.5486 N   0  3  0  0  0  0  0  0  0  0  0  0
  -17.1948    7.7402   15.6855 C   0  0  0  0  0  0  0  0  0  0  0  0
  -13.9589    7.0996   13.9686 C   0  0  2  0  0  0  0  0  0  0  0  0
  -13.9385    7.8325   12.7293 O   0  0  0  0  0  0  0  0  0  0  0  0
  -14.4626    5.7687   13.6817 C   0  0  0  0  0  0  0  0  0  0  0  0
  -12.4806    7.0399   14.4626 C   0  0  0  0  0  0  0  0  0  0  0  0
  -11.9811    8.4139   14.7963 O   0  0  0  0  0  0  0  0  0  0  0  0
  1  2  1  1  0  0  0
  1  3  1  0  0  0  0
  1 10  1  0  0  0  0
  3  4  1  1  0  0  0
  3  5  1  0  0  0  0
  5  6  1  6  0  0  0
  5  7  1  0  0  0  0
  7  8  1  1  0  0  0
  7  9  1  0  0  0  0
  9 10  1  6  0  0  0
  9 11  1  0  0  0  0
 11 12  1  1  0  0  0
 11 13  1  0  0  0  0
 14 15  1  6  0  0  0
 14 16  1  0  0  0  0
 14 22  1  0  0  0  0
 16 17  1  0  0  0  0
 17 18  1  1  0  0  0
 17 19  1  0  0  0  0
 19  2  1  1  0  0  0
 19 20  1  0  0  0  0
 20 21  1  6  0  0  0
 20 22  1  0  0  0  0
 22 23  1  6  0  0  0
 24 23  1  1  0  0  0
 24 25  1  0  0  0  0
 24 34  1  0  0  0  0
 25 26  1  1  0  0  0
 25 27  1  0  0  0  0
 27 28  1  6  0  0  0
 27 30  1  0  0  0  0
 28 29  1  0  0  0  0
 30 31  1  6  0  0  0
 30 32  1  0  0  0  0
 30 33  1  0  0  0  0
 33 34  1  0  0  0  0
M  CHG  4   4   1  15   1  18   1  28   1
M  END
>  <CHROM.1>
-132.68621640,-168.87558698,37.97242239,-178.85169025,-61.70623842,-55.46387050
-49.95166746,172.77312134,-75.88997303,-169.72979437,101.72859297,-137.95789600
115.19119409,24.52366700,177.62893221,-11.29805675,7.20425412,18.71591053
-0.10079087,0.87443967,-2.66774137

>  <Name>
1mwl

>  <RI>
0

>  <Rbt.Current_Directory>
/home/itssahil/PROJECTS/Mol_Feturizer/New_Systems/rnas/1mwl

>  <Rbt.Executable>
rbdock ($Id: //depot/dev/client3/rdock/2013.1/src/exe/rbdock.cxx#4 $)

>  <Rbt.Library>
libRbt.so (2013.1, Build901 2013/11/27)

>  <Rbt.Parameter_File>
/export/apps/rDock/src/rDock_2013.1_src/data/scripts/dock_solv.prm

>  <Rbt.Receptor>
prm/pocket_docking_5.prm

>  <SCORE>
-91.3353

>  <SCORE.INTER>
-78.1841

>  <SCORE.INTER.CONST>
1

>  <SCORE.INTER.POLAR>
-11.1456

>  <SCORE.INTER.ROT>
6

>  <SCORE.INTER.SOLV>
25.3808

>  <SCORE.INTER.VDW>
-31.031

>  <SCORE.INTER.norm>
-2.29953

>  <SCORE.INTRA>
-13.2096

>  <SCORE.INTRA.DIHEDRAL>
-11.3055

>  <SCORE.INTRA.DIHEDRAL.0>
42.0816

>  <SCORE.INTRA.POLAR>
-1.55292

>  <SCORE.INTRA.POLAR.0>
-0.254682

>  <SCORE.INTRA.REPUL>
0

>  <SCORE.INTRA.REPUL.0>
0

>  <SCORE.INTRA.SOLV>
1.56762

>  <SCORE.INTRA.SOLV.lig_0>
-109.803

>  <SCORE.INTRA.VDW>
-3.06079

>  <SCORE.INTRA.VDW.0>
0.32176

>  <SCORE.INTRA.norm>
-0.388519

>  <SCORE.RESTR>
0.0584228

>  <SCORE.RESTR.CAVITY>
0.0584228

>  <SCORE.RESTR.norm>
0.00171832

>  <SCORE.SYSTEM>
0

>  <SCORE.SYSTEM.CONST>
0

>  <SCORE.SYSTEM.DIHEDRAL>
0

>  <SCORE.SYSTEM.SOLV>
0

>  <SCORE.SYSTEM.norm>
0

>  <SCORE.heavy>
34

>  <SCORE.norm>
-2.68633

>  <RMSD>
0.797

$$$$
1mwl
 OpenBabel11021811403D
libRbt.so/2013.1/901 2013/11/27
 34 36  0  0  0  0  0  0  0  0999 V2000
   -9.4919    6.2711   19.7577 C   0  0  2  0  0  0  0  0  0  0  0  0
  -10.5053    6.9828   20.4021 O   0  0  0  0  0  0  0  0  0  0  0  0
   -9.6652    4.7723   20.1323 C   0  0  2  0  0  0  0  0  0  0  0  0
  -10.9897    4.2981   19.7196 N   0  3  0  0  0  0  0  0  0  0  0  0
   -9.4324    4.5572   21.6565 C   0  0  1  0  0  0  0  0  0  0  0  0
   -9.5567    3.2473   21.9867 O   0  0  0  0  0  0  0  0  0  0  0  0
   -8.0083    5.0907   22.0239 C   0  0  2  0  0  0  0  0  0  0  0  0
   -7.7542    4.8978   23.4312 O   0  0  0  0  0  0  0  0  0  0  0  0
   -7.9346    6.6067   21.6360 C   0  0  2  0  0  0  0  0  0  0  0  0
   -8.2053    6.7812   20.1919 O   0  0  0  0  0  0  0  0  0  0  0  0
   -6.5829    7.2735   21.9154 C   0  0  2  0  0  0  0  0  0  0  0  0
   -5.5894    6.6485   21.1699 O   0  0  0  0  0  0  0  0  0  0  0  0
   -6.1412    7.1792   23.3872 C   0  0  0  0  0  0  0  0  0  0  0  0
  -13.4251    9.9589   19.4655 C   0  0  2  0  0  0  0  0  0  0  0  0
  -14.0441   11.2038   18.9434 N   0  3  0  0  0  0  0  0  0  0  0  0
  -12.3595   10.2877   20.5527 C   0  0  0  0  0  0  0  0  0  0  0  0
  -11.6977    8.9654   21.0852 C   0  0  2  0  0  0  0  0  0  0  0  0
  -10.6786    9.3149   22.1416 N   0  3  0  0  0  0  0  0  0  0  0  0
  -11.0484    8.1916   19.8868 C   0  0  2  0  0  0  0  0  0  0  0  0
  -12.1329    7.8722   18.8289 C   0  0  2  0  0  0  0  0  0  0  0  0
  -11.5324    7.2081   17.7433 O   0  0  0  0  0  0  0  0  0  0  0  0
  -12.7649    9.1884   18.3022 C   0  0  1  0  0  0  0  0  0  0  0  0
  -13.7533    8.8721   17.3330 O   0  0  0  0  0  0  0  0  0  0  0  0
  -13.5498    9.2801   16.0083 C   0  0  2  0  0  0  0  0  0  0  0  0
  -14.9128    9.2235   15.2929 C   0  0  2  0  0  0  0  0  0  0  0  0
  -15.8041   10.1135   15.9302 O   0  0  0  0  0  0  0  0  0  0  0  0
  -15.4590    7.7558   15.3450 C   0  0  1  0  0  0  0  0  0  0  0  0
  -16.7881    7.6216   14.7005 N   0  3  0  0  0  0  0  0  0  0  0  0
  -17.8766    7.8543   15.6839 C   0  0  0  0  0  0  0  0  0  0  0  0
  -14.4293    6.7984   14.6520 C   0  0  2  0  0  0  0  0  0  0  0  0
  -14.2468    7.1874   13.2777 O   0  0  0  0  0  0  0  0  0  0  0  0
  -14.8770    5.4176   14.6604 C   0  0  0  0  0  0  0  0  0  0  0  0
  -13.0316    6.9337   15.3312 C   0  0  0  0  0  0  0  0  0  0  0  0
  -12.5948    8.3681   15.3558 O   0  0  0  0  0  0  0  0  0  0  0  0
  1  2  1  1  0  0  0
  1  3  1  0  0  0  0
  1 10  1  0  0  0  0
  3  4  1  1  0  0  0
  3  5  1  0  0  0  0
  5  6  1  6  0  0  0
  5  7  1  0  0  0  0
  7  8  1  1  0  0  0
  7  9  1  0  0  0  0
  9 10  1  6  0  0  0
  9 11  1  0  0  0  0
 11 12  1  6  0  0  0
 11 13  1  0  0  0  0
 14 15  1  6  0  0  0
 14 16  1  0  0  0  0
 14 22  1  0  0  0  0
 16 17  1  0  0  0  0
 17 18  1  1  0  0  0
 17 19  1  0  0  0  0
 19  2  1  1  0  0  0
 19 20  1  0  0  0  0
 20 21  1  6  0  0  0
 20 22  1  0  0  0  0
 22 23  1  6  0  0  0
 24 23  1  1  0  0  0
 24 25  1  0  0  0  0
 24 34  1  0  0  0  0
 25 26  1  1  0  0  0
 25 27  1  0  0  0  0
 27 28  1  6  0  0  0
 27 30  1  0  0  0  0
 28 29  1  0  0  0  0
 30 31  1  6  0  0  0
 30 32  1  0  0  0  0
 30 33  1  0  0  0  0
 33 34  1  0  0  0  0
M  CHG  4   4   1  15   1  18   1  28   1
M  END
>  <CHROM.1>
-151.17548523,-157.92272804,-59.46210262,-166.09635466,62.62481640,61.43058844
-179.98143171,-55.88828351,-78.39499195,-59.69087282,124.71360353,-162.24217649
73.83763779,30.33435037,-62.07965750,-11.66894506,7.40800774,18.76466297
-0.12240118,0.75687533,-2.63858148

>  <Name>
1mwl

>  <RI>
0

>  <Rbt.Current_Directory>
/home/itssahil/PROJECTS/Mol_Feturizer/New_Systems/rnas/1mwl

>  <Rbt.Executable>
rbdock ($Id: //depot/dev/client3/rdock/2013.1/src/exe/rbdock.cxx#4 $)

>  <Rbt.Library>
libRbt.so (2013.1, Build901 2013/11/27)

>  <Rbt.Parameter_File>
/export/apps/rDock/src/rDock_2013.1_src/data/scripts/dock_solv.prm

>  <Rbt.Receptor>
prm/pocket_docking_2.prm

>  <SCORE>
-77.473

>  <SCORE.INTER>
-64.0483

>  <SCORE.INTER.CONST>
1

>  <SCORE.INTER.POLAR>
-9.10115

>  <SCORE.INTER.ROT>
6

>  <SCORE.INTER.SOLV>
24.5202

>  <SCORE.INTER.VDW>
-28.1351

>  <SCORE.INTER.norm>
-1.88377

>  <SCORE.INTRA>
-13.4247

>  <SCORE.INTRA.DIHEDRAL>
-23.4861

>  <SCORE.INTRA.DIHEDRAL.0>
42.0816

>  <SCORE.INTRA.POLAR>
0.254682

>  <SCORE.INTRA.POLAR.0>
-0.254682

>  <SCORE.INTRA.REPUL>
0

>  <SCORE.INTRA.REPUL.0>
0

>  <SCORE.INTRA.SOLV>
-0.591716

>  <SCORE.INTRA.SOLV.lig_0>
-109.803

>  <SCORE.INTRA.VDW>
-2.25168

>  <SCORE.INTRA.VDW.0>
0.32176

>  <SCORE.INTRA.norm>
-0.394843

>  <SCORE.RESTR>
0

>  <SCORE.RESTR.CAVITY>
0

>  <SCORE.RESTR.norm>
0

>  <SCORE.SYSTEM>
0

>  <SCORE.SYSTEM.CONST>
0

>  <SCORE.SYSTEM.DIHEDRAL>
0

>  <SCORE.SYSTEM.SOLV>
0

>  <SCORE.SYSTEM.norm>
0

>  <SCORE.heavy>
34

>  <SCORE.norm>
-2.27862

>  <RMSD>
0.805

$$$$
1mwl
 OpenBabel11021811403D
libRbt.so/2013.1/901 2013/11/27
 34 36  0  0  0  0  0  0  0  0999 V2000
   -9.1244    6.0279   20.0953 C   0  0  2  0  0  0  0  0  0  0  0  0
  -10.0516    6.8813   20.6958 O   0  0  0  0  0  0  0  0  0  0  0  0
   -9.6532    4.5754   20.2612 C   0  0  2  0  0  0  0  0  0  0  0  0
  -10.9741    4.4443   19.6387 N   0  3  0  0  0  0  0  0  0  0  0  0
   -9.6893    4.1731   21.7647 C   0  0  1  0  0  0  0  0  0  0  0  0
  -10.1257    2.8976   21.9158 O   0  0  0  0  0  0  0  0  0  0  0  0
   -8.2534    4.3443   22.3616 C   0  0  2  0  0  0  0  0  0  0  0  0
   -8.2477    3.9698   23.7552 O   0  0  0  0  0  0  0  0  0  0  0  0
   -7.8156    5.8365   22.1728 C   0  0  2  0  0  0  0  0  0  0  0  0
   -7.8359    6.2001   20.7387 O   0  0  0  0  0  0  0  0  0  0  0  0
   -6.4098    6.1612   22.6905 C   0  0  2  0  0  0  0  0  0  0  0  0
   -6.4750    6.5116   24.0345 O   0  0  0  0  0  0  0  0  0  0  0  0
   -5.7450    7.3468   21.9676 C   0  0  0  0  0  0  0  0  0  0  0  0
  -12.9556    9.6374   19.2026 C   0  0  2  0  0  0  0  0  0  0  0  0
  -13.5564   10.8195   18.5338 N   0  3  0  0  0  0  0  0  0  0  0  0
  -12.0747   10.0764   20.4097 C   0  0  0  0  0  0  0  0  0  0  0  0
  -11.4291    8.8201   21.0990 C   0  0  2  0  0  0  0  0  0  0  0  0
  -10.5908    9.2756   22.2680 N   0  3  0  0  0  0  0  0  0  0  0  0
  -10.5765    8.0321   20.0462 C   0  0  2  0  0  0  0  0  0  0  0  0
  -11.4807    7.6028   18.8650 C   0  0  2  0  0  0  0  0  0  0  0  0
  -10.6980    6.9264   17.9111 O   0  0  0  0  0  0  0  0  0  0  0  0
  -12.0973    8.8549   18.1860 C   0  0  1  0  0  0  0  0  0  0  0  0
  -12.9195    8.4383   17.1057 O   0  0  0  0  0  0  0  0  0  0  0  0
  -12.8016    9.1015   15.8773 C   0  0  2  0  0  0  0  0  0  0  0  0
  -14.2216    9.2671   15.3037 C   0  0  2  0  0  0  0  0  0  0  0  0
  -14.9882   10.0511   16.1926 O   0  0  0  0  0  0  0  0  0  0  0  0
  -14.8658    7.8518   15.1119 C   0  0  1  0  0  0  0  0  0  0  0  0
  -16.2516    7.9251   14.5883 N   0  3  0  0  0  0  0  0  0  0  0  0
  -17.2390    7.7758   15.6877 C   0  0  0  0  0  0  0  0  0  0  0  0
  -13.9712    7.0062   14.1413 C   0  0  2  0  0  0  0  0  0  0  0  0
  -13.8799    7.6623   12.8628 O   0  0  0  0  0  0  0  0  0  0  0  0
  -14.5151    5.6795   13.9147 C   0  0  0  0  0  0  0  0  0  0  0  0
  -12.5142    6.9231   14.6921 C   0  0  0  0  0  0  0  0  0  0  0  0
  -11.9745    8.2958   14.9628 O   0  0  0  0  0  0  0  0  0  0  0  0
  1  2  1  1  0  0  0
  1  3  1  0  0  0  0
  1 10  1  0  0  0  0
  3  4  1  1  0  0  0
  3  5  1  0  0  0  0
  5  6  1  6  0  0  0
  5  7  1  0  0  0  0
  7  8  1  1  0  0  0
  7  9  1  0  0  0  0
  9 10  1  6  0  0  0
  9 11  1  0  0  0  0
 11 12  1  1  0  0  0
 11 13  1  0  0  0  0
 14 15  1  6  0  0  0
 14 16  1  0  0  0  0
 14 22  1  0  0  0  0
 16 17  1  0  0  0  0
 17 18  1  1  0  0  0
 17 19  1  0  0  0  0
 19  2  1  1  0  0  0
 19 20  1  0  0  0  0
 20 21  1  6  0  0  0
 20 22  1  0  0  0  0
 22 23  1  6  0  0  0
 24 23  1  1  0  0  0
 24 25  1  0  0  0  0
 24 34  1  0  0  0  0
 25 26  1  1  0  0  0
 25 27  1  0  0  0  0
 27 28  1  6  0  0  0
 27 30  1  0  0  0  0
 28 29  1  0  0  0  0
 30 31  1  6  0  0  0
 30 32  1  0  0  0  0
 30 33  1  0  0  0  0
 33 34  1  0  0  0  0
M  CHG  4   4   1  15   1  18   1  28   1
M  END
>  <CHROM.1>
-130.16974501,-172.78719685,156.18547153,63.85675657,174.56849550,-87.98286527
59.92673325,178.63420922,-76.87058243,-164.73682251,105.89891906,-140.03679070
124.35474423,20.82390539,175.61290068,-11.35836959,7.21054352,18.80335085
-0.07912778,0.87470706,-2.69630970

>  <Name>
1mwl

>  <RI>
0

>  <Rbt.Current_Directory>
/home/itssahil/PROJECTS/Mol_Feturizer/New_Systems/rnas/1mwl

>  <Rbt.Executable>
rbdock ($Id: //depot/dev/client3/rdock/2013.1/src/exe/rbdock.cxx#4 $)

>  <Rbt.Library>
libRbt.so (2013.1, Build901 2013/11/27)

>  <Rbt.Parameter_File>
/export/apps/rDock/src/rDock_2013.1_src/data/scripts/dock_solv.prm

>  <Rbt.Receptor>
prm/pocket_docking_2.prm

>  <SCORE>
-78.5433

>  <SCORE.INTER>
-68.2361

>  <SCORE.INTER.CONST>
1

>  <SCORE.INTER.POLAR>
-9.70808

>  <SCORE.INTER.ROT>
6

>  <SCORE.INTER.SOLV>
25.1094

>  <SCORE.INTER.VDW>
-29.1003

>  <SCORE.INTER.norm>
-2.00694

>  <SCORE.INTRA>
-10.3096

>  <SCORE.INTRA.DIHEDRAL>
-8.05252

>  <SCORE.INTRA.DIHEDRAL.0>
42.0816

>  <SCORE.INTRA.POLAR>
-1.57371

>  <SCORE.INTRA.POLAR.0>
-0.254682

>  <SCORE.INTRA.REPUL>
0

>  <SCORE.INTRA.REPUL.0>
0

>  <SCORE.INTRA.SOLV>
1.08592

>  <SCORE.INTRA.SOLV.lig_0>
-109.803

>  <SCORE.INTRA.VDW>
-1.47565

>  <SCORE.INTRA.VDW.0>
0.32176

>  <SCORE.INTRA.norm>
-0.303223

>  <SCORE.RESTR>
0.00242654

>  <SCORE.RESTR.CAVITY>
0.00242654

>  <SCORE.RESTR.norm>
7.13687e-05

>  <SCORE.SYSTEM>
0

>  <SCORE.SYSTEM.CONST>
0

>  <SCORE.SYSTEM.DIHEDRAL>
0

>  <SCORE.SYSTEM.SOLV>
0

>  <SCORE.SYSTEM.norm>
0

>  <SCORE.heavy>
34

>  <SCORE.norm>
-2.3101

>  <RMSD>
0.812

$$$$
1mwl
 OpenBabel11021811403D
libRbt.so/2013.1/901 2013/11/27
 34 36  0  0  0  0  0  0  0  0999 V2000
   -9.2296    6.0260   20.0832 C   0  0  2  0  0  0  0  0  0  0  0  0
  -10.0861    6.9210   20.7267 O   0  0  0  0  0  0  0  0  0  0  0  0
   -9.8107    4.5983   20.2858 C   0  0  2  0  0  0  0  0  0  0  0  0
  -11.1672    4.5220   19.7349 N   0  3  0  0  0  0  0  0  0  0  0  0
   -9.7842    4.2038   21.7916 C   0  0  1  0  0  0  0  0  0  0  0  0
  -10.2662    2.9489   21.9734 O   0  0  0  0  0  0  0  0  0  0  0  0
   -8.3126    4.3151   22.3107 C   0  0  2  0  0  0  0  0  0  0  0  0
   -8.2489    3.9461   23.7043 O   0  0  0  0  0  0  0  0  0  0  0  0
   -7.8218    5.7862   22.0898 C   0  0  2  0  0  0  0  0  0  0  0  0
   -7.9025    6.1449   20.6565 O   0  0  0  0  0  0  0  0  0  0  0  0
   -6.3778    6.0519   22.5305 C   0  0  2  0  0  0  0  0  0  0  0  0
   -6.2126    5.6605   23.8544 O   0  0  0  0  0  0  0  0  0  0  0  0
   -5.9770    7.5371   22.4668 C   0  0  0  0  0  0  0  0  0  0  0  0
  -12.9710    9.7484   19.3329 C   0  0  2  0  0  0  0  0  0  0  0  0
  -13.5651   10.9449   18.6843 N   0  3  0  0  0  0  0  0  0  0  0  0
  -12.0379   10.1653   20.5083 C   0  0  0  0  0  0  0  0  0  0  0  0
  -11.4002    8.8934   21.1758 C   0  0  2  0  0  0  0  0  0  0  0  0
  -10.5107    9.3279   22.3145 N   0  3  0  0  0  0  0  0  0  0  0  0
  -10.6045    8.0844   20.0947 C   0  0  2  0  0  0  0  0  0  0  0  0
  -11.5596    7.6777   18.9461 C   0  0  2  0  0  0  0  0  0  0  0  0
  -10.8276    6.9821   17.9661 O   0  0  0  0  0  0  0  0  0  0  0  0
  -12.1682    8.9448   18.2877 C   0  0  1  0  0  0  0  0  0  0  0  0
  -13.0375    8.5486   17.2371 O   0  0  0  0  0  0  0  0  0  0  0  0
  -12.9120    9.1739   15.9897 C   0  0  2  0  0  0  0  0  0  0  0  0
  -14.3174    9.2401   15.3625 C   0  0  2  0  0  0  0  0  0  0  0  0
  -15.1569   10.0108   16.1954 O   0  0  0  0  0  0  0  0  0  0  0  0
  -14.8763    7.7852   15.2015 C   0  0  1  0  0  0  0  0  0  0  0  0
  -16.2444    7.7629   14.6290 N   0  3  0  0  0  0  0  0  0  0  0  0
  -17.2613    8.0055   15.6840 C   0  0  0  0  0  0  0  0  0  0  0  0
  -13.9029    6.9572   14.2938 C   0  0  2  0  0  0  0  0  0  0  0  0
  -13.8017    7.5721   12.9956 O   0  0  0  0  0  0  0  0  0  0  0  0
  -14.3653    5.5952   14.0981 C   0  0  0  0  0  0  0  0  0  0  0  0
  -12.4642    6.9747   14.8963 C   0  0  0  0  0  0  0  0  0  0  0  0
  -12.0100    8.3839   15.1341 O   0  0  0  0  0  0  0  0  0  0  0  0
  1  2  1  1  0  0  0
  1  3  1  0  0  0  0
  1 10  1  0  0  0  0
  3  4  1  1  0  0  0
  3  5  1  0  0  0  0
  5  6  1  6  0  0  0
  5  7  1  0  0  0  0
  7  8  1  1  0  0  0
  7  9  1  0  0  0  0
  9 10  1  6  0  0  0
  9 11  1  0  0  0  0
 11 12  1  1  0  0  0
 11 13  1  0  0  0  0
 14 15  1  6  0  0  0
 14 16  1  0  0  0  0
 14 22  1  0  0  0  0
 16 17  1  0  0  0  0
 17 18  1  1  0  0  0
 17 19  1  0  0  0  0
 19  2  1  1  0  0  0
 19 20  1  0  0  0  0
 20 21  1  6  0  0  0
 20 22  1  0  0  0  0
 22 23  1  6  0  0  0
 24 23  1  1  0  0  0
 24 25  1  0  0  0  0
 24 34  1  0  0  0  0
 25 26  1  1  0  0  0
 25 27  1  0  0  0  0
 27 28  1  6  0  0  0
 27 30  1  0  0  0  0
 28 29  1  0  0  0  0
 30 31  1  6  0  0  0
 30 32  1  0  0  0  0
 30 33  1  0  0  0  0
 33 34  1  0  0  0  0
M  CHG  4   4   1  15   1  18   1  28   1
M  END
>  <CHROM.1>
-129.58141487,-174.52505992,-81.73731002,66.69877678,-165.30964523,-54.07634408
174.52161959,-176.30212786,167.37511479,-56.63209541,108.27495024,-147.23435745
105.73313203,37.72919186,-62.15056440,-11.39033383,7.21273473,18.86854486
-0.05550500,0.86858759,-2.70740260

>  <Name>
1mwl

>  <RI>
0

>  <Rbt.Current_Directory>
/home/itssahil/PROJECTS/Mol_Feturizer/New_Systems/rnas/1mwl

>  <Rbt.Executable>
rbdock ($Id: //depot/dev/client3/rdock/2013.1/src/exe/rbdock.cxx#4 $)

>  <Rbt.Library>
libRbt.so (2013.1, Build901 2013/11/27)

>  <Rbt.Parameter_File>
/export/apps/rDock/src/rDock_2013.1_src/data/scripts/dock_solv.prm

>  <Rbt.Receptor>
prm/pocket_docking_3.prm

>  <SCORE>
-83.1277

>  <SCORE.INTER>
-64.5396

>  <SCORE.INTER.CONST>
1

>  <SCORE.INTER.POLAR>
-8.73999

>  <SCORE.INTER.ROT>
6

>  <SCORE.INTER.SOLV>
24.3951

>  <SCORE.INTER.VDW>
-29.6248

>  <SCORE.INTER.norm>
-1.89822

>  <SCORE.INTRA>
-18.5881

>  <SCORE.INTRA.DIHEDRAL>
-14.0753

>  <SCORE.INTRA.DIHEDRAL.0>
42.0816

>  <SCORE.INTRA.POLAR>
-2.66992

>  <SCORE.INTRA.POLAR.0>
-0.254682

>  <SCORE.INTRA.REPUL>
0

>  <SCORE.INTRA.REPUL.0>
0

>  <SCORE.INTRA.SOLV>
1.10005

>  <SCORE.INTRA.SOLV.lig_0>
-109.803

>  <SCORE.INTRA.VDW>
-3.02273

>  <SCORE.INTRA.VDW.0>
0.32176

>  <SCORE.INTRA.norm>
-0.546708

>  <SCORE.RESTR>
0

>  <SCORE.RESTR.CAVITY>
0

>  <SCORE.RESTR.norm>
0

>  <SCORE.SYSTEM>
0

>  <SCORE.SYSTEM.CONST>
0

>  <SCORE.SYSTEM.DIHEDRAL>
0

>  <SCORE.SYSTEM.SOLV>
0

>  <SCORE.SYSTEM.norm>
0

>  <SCORE.heavy>
34

>  <SCORE.norm>
-2.44493

>  <RMSD>
0.828

$$$$
1mwl
 OpenBabel11021811403D
libRbt.so/2013.1/901 2013/11/27
 34 36  0  0  0  0  0  0  0  0999 V2000
   -8.9829    6.0252   19.9964 C   0  0  2  0  0  0  0  0  0  0  0  0
   -9.9966    6.8031   20.5584 O   0  0  0  0  0  0  0  0  0  0  0  0
   -9.4275    4.5388   20.0957 C   0  0  2  0  0  0  0  0  0  0  0  0
  -10.6978    4.3431   19.3903 N   0  3  0  0  0  0  0  0  0  0  0  0
   -9.5281    4.0945   21.5844 C   0  0  1  0  0  0  0  0  0  0  0  0
   -9.8909    2.7908   21.6787 O   0  0  0  0  0  0  0  0  0  0  0  0
   -8.1443    4.3380   22.2723 C   0  0  2  0  0  0  0  0  0  0  0  0
   -8.1983    3.9270   23.6545 O   0  0  0  0  0  0  0  0  0  0  0  0
   -7.7915    5.8590   22.1455 C   0  0  2  0  0  0  0  0  0  0  0  0
   -7.7487    6.2594   20.7217 O   0  0  0  0  0  0  0  0  0  0  0  0
   -6.4426    6.2560   22.7562 C   0  0  2  0  0  0  0  0  0  0  0  0
   -6.4645    6.0291   24.1278 O   0  0  0  0  0  0  0  0  0  0  0  0
   -6.0960    7.7446   22.5709 C   0  0  0  0  0  0  0  0  0  0  0  0
  -12.9001    9.5794   19.1019 C   0  0  2  0  0  0  0  0  0  0  0  0
  -13.5005   10.7711   18.4501 N   0  3  0  0  0  0  0  0  0  0  0  0
  -12.0222   10.0003   20.3176 C   0  0  0  0  0  0  0  0  0  0  0  0
  -11.3770    8.7340   20.9887 C   0  0  2  0  0  0  0  0  0  0  0  0
  -10.5417    9.1720   22.1665 N   0  3  0  0  0  0  0  0  0  0  0  0
  -10.5212    7.9633   19.9257 C   0  0  2  0  0  0  0  0  0  0  0  0
  -11.4224    7.5516   18.7359 C   0  0  2  0  0  0  0  0  0  0  0  0
  -10.6369    6.8909   17.7733 O   0  0  0  0  0  0  0  0  0  0  0  0
  -12.0387    8.8136   18.0750 C   0  0  1  0  0  0  0  0  0  0  0  0
  -12.8581    8.4130   16.9866 O   0  0  0  0  0  0  0  0  0  0  0  0
  -12.7861    9.1374   15.7896 C   0  0  2  0  0  0  0  0  0  0  0  0
  -14.2234    9.2970   15.2591 C   0  0  2  0  0  0  0  0  0  0  0  0
  -14.9847   10.0188   16.2035 O   0  0  0  0  0  0  0  0  0  0  0  0
  -14.8404    7.8778   15.0139 C   0  0  1  0  0  0  0  0  0  0  0  0
  -16.2403    7.9436   14.5281 N   0  3  0  0  0  0  0  0  0  0  0  0
  -17.1966    7.8199   15.6578 C   0  0  0  0  0  0  0  0  0  0  0  0
  -13.9519    7.1014   13.9820 C   0  0  2  0  0  0  0  0  0  0  0  0
  -13.9075    7.8204   12.7352 O   0  0  0  0  0  0  0  0  0  0  0  0
  -14.4714    5.7747   13.7040 C   0  0  0  0  0  0  0  0  0  0  0  0
  -12.4800    7.0262   14.4928 C   0  0  0  0  0  0  0  0  0  0  0  0
  -11.9645    8.3965   14.8172 O   0  0  0  0  0  0  0  0  0  0  0  0
  1  2  1  1  0  0  0
  1  3  1  0  0  0  0
  1 10  1  0  0  0  0
  3  4  1  1  0  0  0
  3  5  1  0  0  0  0
  5  6  1  6  0  0  0
  5  7  1  0  0  0  0
  7  8  1  1  0  0  0
  7  9  1  0  0  0  0
  9 10  1  6  0  0  0
  9 11  1  0  0  0  0
 11 12  1  1  0  0  0
 11 13  1  0  0  0  0
 14 15  1  6  0  0  0
 14 16  1  0  0  0  0
 14 22  1  0  0  0  0
 16 17  1  0  0  0  0
 17 18  1  1  0  0  0
 17 19  1  0  0  0  0
 19  2  1  1  0  0  0
 19 20  1  0  0  0  0
 20 21  1  6  0  0  0
 20 22  1  0  0  0  0
 22 23  1  6  0  0  0
 24 23  1  1  0  0  0
 24 25  1  0  0  0  0
 24 34  1  0  0  0  0
 25 26  1  1  0  0  0
 25 27  1  0  0  0  0
 27 28  1  6  0  0  0
 27 30  1  0  0  0  0
 28 29  1  0  0  0  0
 30 31  1  6  0  0  0
 30 32  1  0  0  0  0
 30 33  1  0  0  0  0
 33 34  1  0  0  0  0
M  CHG  4   4   1  15   1  18   1  28   1
M  END
>  <CHROM.1>
-132.42998406,-167.03127160,159.13962930,-179.99211052,-8.90797771,-63.45239135
47.62060998,-68.24938318,164.88546825,-165.79952439,102.77747581,-138.74102354
114.22491814,25.07198439,177.48192025,-11.31252330,7.19940707,18.72349039
-0.09026834,0.88305307,-2.67688469

>  <Name>
1mwl

>  <RI>
0

>  <Rbt.Current_Directory>
/home/itssahil/PROJECTS/Mol_Feturizer/New_Systems/rnas/1mwl

>  <Rbt.Executable>
rbdock ($Id: //depot/dev/client3/rdock/2013.1/src/exe/rbdock.cxx#4 $)

>  <Rbt.Library>
libRbt.so (2013.1, Build901 2013/11/27)

>  <Rbt.Parameter_File>
/export/apps/rDock/src/rDock_2013.1_src/data/scripts/dock_solv.prm

>  <Rbt.Receptor>
prm/pocket_docking_5.prm

>  <SCORE>
-89.2459

>  <SCORE.INTER>
-77.7254

>  <SCORE.INTER.CONST>
1

>  <SCORE.INTER.POLAR>
-11.1395

>  <SCORE.INTER.ROT>
6

>  <SCORE.INTER.SOLV>
25.3957

>  <SCORE.INTER.VDW>
-30.7504

>  <SCORE.INTER.norm>
-2.28604

>  <SCORE.INTRA>
-11.5871

>  <SCORE.INTRA.DIHEDRAL>
-3.81309

>  <SCORE.INTRA.DIHEDRAL.0>
42.0816

>  <SCORE.INTRA.POLAR>
-2.45791

>  <SCORE.INTRA.POLAR.0>
-0.254682

>  <SCORE.INTRA.REPUL>
0

>  <SCORE.INTRA.REPUL.0>
0

>  <SCORE.INTRA.SOLV>
1.52355

>  <SCORE.INTRA.SOLV.lig_0>
-109.803

>  <SCORE.INTRA.VDW>
-2.08538

>  <SCORE.INTRA.VDW.0>
0.32176

>  <SCORE.INTRA.norm>
-0.340796

>  <SCORE.RESTR>
0.0664718

>  <SCORE.RESTR.CAVITY>
0.0664718

>  <SCORE.RESTR.norm>
0.00195505

>  <SCORE.SYSTEM>
0

>  <SCORE.SYSTEM.CONST>
0

>  <SCORE.SYSTEM.DIHEDRAL>
0

>  <SCORE.SYSTEM.SOLV>
0

>  <SCORE.SYSTEM.norm>
0

>  <SCORE.heavy>
34

>  <SCORE.norm>
-2.62488

>  <RMSD>
0.828

$$$$
1mwl
 OpenBabel11021811403D
libRbt.so/2013.1/901 2013/11/27
 34 36  0  0  0  0  0  0  0  0999 V2000
   -9.2707    6.0427   20.0830 C   0  0  2  0  0  0  0  0  0  0  0  0
  -10.1434    6.9300   20.7152 O   0  0  0  0  0  0  0  0  0  0  0  0
   -9.8469    4.6109   20.2695 C   0  0  2  0  0  0  0  0  0  0  0  0
  -11.1932    4.5291   19.6948 N   0  3  0  0  0  0  0  0  0  0  0  0
   -9.8442    4.2101   21.7738 C   0  0  1  0  0  0  0  0  0  0  0  0
  -10.3220    2.9517   21.9420 O   0  0  0  0  0  0  0  0  0  0  0  0
   -8.3825    4.3277   22.3189 C   0  0  2  0  0  0  0  0  0  0  0  0
   -8.3409    3.9531   23.7118 O   0  0  0  0  0  0  0  0  0  0  0  0
   -7.8965    5.8025   22.1127 C   0  0  2  0  0  0  0  0  0  0  0  0
   -7.9545    6.1669   20.6798 O   0  0  0  0  0  0  0  0  0  0  0  0
   -6.4620    6.0747   22.5795 C   0  0  2  0  0  0  0  0  0  0  0  0
   -6.3576    5.8237   23.9431 O   0  0  0  0  0  0  0  0  0  0  0  0
   -6.0127    7.5328   22.3739 C   0  0  0  0  0  0  0  0  0  0  0  0
  -13.0144    9.7620   19.3020 C   0  0  2  0  0  0  0  0  0  0  0  0
  -13.6022   10.9596   18.6497 N   0  3  0  0  0  0  0  0  0  0  0  0
  -12.0892   10.1772   20.4842 C   0  0  0  0  0  0  0  0  0  0  0  0
  -11.4580    8.9041   21.1558 C   0  0  2  0  0  0  0  0  0  0  0  0
  -10.5760    9.3369   22.3010 N   0  3  0  0  0  0  0  0  0  0  0  0
  -10.6557    8.0944   20.0801 C   0  0  2  0  0  0  0  0  0  0  0  0
  -11.6032    7.6895   18.9244 C   0  0  2  0  0  0  0  0  0  0  0  0
  -10.8651    6.9933   17.9494 O   0  0  0  0  0  0  0  0  0  0  0  0
  -12.2053    8.9577   18.2623 C   0  0  1  0  0  0  0  0  0  0  0  0
  -13.0676    8.5632   17.2053 O   0  0  0  0  0  0  0  0  0  0  0  0
  -12.9336    9.1901   15.9596 C   0  0  2  0  0  0  0  0  0  0  0  0
  -14.3341    9.2540   15.3215 C   0  0  2  0  0  0  0  0  0  0  0  0
  -15.1818   10.0220   16.1486 O   0  0  0  0  0  0  0  0  0  0  0  0
  -14.8887    7.7981   15.1544 C   0  0  1  0  0  0  0  0  0  0  0  0
  -16.2522    7.7735   14.5711 N   0  3  0  0  0  0  0  0  0  0  0  0
  -17.2812    7.9391   15.6293 C   0  0  0  0  0  0  0  0  0  0  0  0
  -13.9063    6.9732   14.2535 C   0  0  2  0  0  0  0  0  0  0  0  0
  -13.7962    7.5898   12.9569 O   0  0  0  0  0  0  0  0  0  0  0  0
  -14.3643    5.6104   14.0526 C   0  0  0  0  0  0  0  0  0  0  0  0
  -12.4725    6.9931   14.8673 C   0  0  0  0  0  0  0  0  0  0  0  0
  -12.0232    8.4030   15.1103 O   0  0  0  0  0  0  0  0  0  0  0  0
  1  2  1  1  0  0  0
  1  3  1  0  0  0  0
  1 10  1  0  0  0  0
  3  4  1  1  0  0  0
  3  5  1  0  0  0  0
  5  6  1  6  0  0  0
  5  7  1  0  0  0  0
  7  8  1  1  0  0  0
  7  9  1  0  0  0  0
  9 10  1  6  0  0  0
  9 11  1  0  0  0  0
 11 12  1  1  0  0  0
 11 13  1  0  0  0  0
 14 15  1  6  0  0  0
 14 16  1  0  0  0  0
 14 22  1  0  0  0  0
 16 17  1  0  0  0  0
 17 18  1  1  0  0  0
 17 19  1  0  0  0  0
 19  2  1  1  0  0  0
 19 20  1  0  0  0  0
 20 21  1  6  0  0  0
 20 22  1  0  0  0  0
 22 23  1  6  0  0  0
 24 23  1  1  0  0  0
 24 25  1  0  0  0  0
 24 34  1  0  0  0  0
 25 26  1  1  0  0  0
 25 27  1  0  0  0  0
 27 28  1  6  0  0  0
 27 30  1  0  0  0  0
 28 29  1  0  0  0  0
 30 31  1  6  0  0  0
 30 32  1  0  0  0  0
 30 33  1  0  0  0  0
 33 34  1  0  0  0  0
M  CHG  4   4   1  15   1  18   1  28   1
M  END
>  <CHROM.1>
-129.69772059,-173.71975510,35.55997912,64.23938178,-169.53658814,-60.88434987
-58.93340176,67.78081185,168.89300561,-54.55361042,108.18310209,-147.38602003
103.09315207,34.65613033,61.69578059,-11.43250857,7.23085400,18.84956325
-0.05840234,0.87764754,-2.70908951

>  <Name>
1mwl

>  <RI>
0

>  <Rbt.Current_Directory>
/home/itssahil/PROJECTS/Mol_Feturizer/New_Systems/rnas/1mwl

>  <Rbt.Executable>
rbdock ($Id: //depot/dev/client3/rdock/2013.1/src/exe/rbdock.cxx#4 $)

>  <Rbt.Library>
libRbt.so (2013.1, Build901 2013/11/27)

>  <Rbt.Parameter_File>
/export/apps/rDock/src/rDock_2013.1_src/data/scripts/dock_solv.prm

>  <Rbt.Receptor>
prm/pocket_docking_2.prm

>  <SCORE>
-85.7268

>  <SCORE.INTER>
-67.4353

>  <SCORE.INTER.CONST>
1

>  <SCORE.INTER.POLAR>
-9.46508

>  <SCORE.INTER.ROT>
6

>  <SCORE.INTER.SOLV>
24.3575

>  <SCORE.INTER.VDW>
-29.1258

>  <SCORE.INTER.norm>
-1.98339

>  <SCORE.INTRA>
-18.3177

>  <SCORE.INTRA.DIHEDRAL>
-14.674

>  <SCORE.INTRA.DIHEDRAL.0>
42.0816

>  <SCORE.INTRA.POLAR>
-2.39085

>  <SCORE.INTRA.POLAR.0>
-0.254682

>  <SCORE.INTRA.REPUL>
0

>  <SCORE.INTRA.REPUL.0>
0

>  <SCORE.INTRA.SOLV>
0.56076

>  <SCORE.INTRA.SOLV.lig_0>
-109.803

>  <SCORE.INTRA.VDW>
-3.13219

>  <SCORE.INTRA.VDW.0>
0.32176

>  <SCORE.INTRA.norm>
-0.538756

>  <SCORE.RESTR>
0.0261855

>  <SCORE.RESTR.CAVITY>
0.0261855

>  <SCORE.RESTR.norm>
0.00077016

>  <SCORE.SYSTEM>
0

>  <SCORE.SYSTEM.CONST>
0

>  <SCORE.SYSTEM.DIHEDRAL>
0

>  <SCORE.SYSTEM.SOLV>
0

>  <SCORE.SYSTEM.norm>
0

>  <SCORE.heavy>
34

>  <SCORE.norm>
-2.52138

>  <RMSD>
0.839

$$$$
1mwl
 OpenBabel11021811403D
libRbt.so/2013.1/901 2013/11/27
 34 36  0  0  0  0  0  0  0  0999 V2000
   -9.0476    6.0596   20.4538 C   0  0  2  0  0  0  0  0  0  0  0  0
  -10.1007    6.8066   20.9843 O   0  0  0  0  0  0  0  0  0  0  0  0
   -9.1531    4.6240   21.0411 C   0  0  2  0  0  0  0  0  0  0  0  0
  -10.4490    4.0311   20.6965 N   0  3  0  0  0  0  0  0  0  0  0  0
   -8.9268    4.6433   22.5812 C   0  0  1  0  0  0  0  0  0  0  0  0
   -8.9920    3.3906   23.0975 O   0  0  0  0  0  0  0  0  0  0  0  0
   -7.5339    5.2933   22.8727 C   0  0  2  0  0  0  0  0  0  0  0  0
   -7.2861    5.3187   24.2941 O   0  0  0  0  0  0  0  0  0  0  0  0
   -7.5285    6.7390   22.2694 C   0  0  2  0  0  0  0  0  0  0  0  0
   -7.7915    6.6892   20.8142 O   0  0  0  0  0  0  0  0  0  0  0  0
   -6.2132    7.5044   22.4542 C   0  0  2  0  0  0  0  0  0  0  0  0
   -5.5586    7.0431   23.5908 O   0  0  0  0  0  0  0  0  0  0  0  0
   -6.4039    9.0193   22.6514 C   0  0  0  0  0  0  0  0  0  0  0  0
  -13.0349    9.6360   19.7019 C   0  0  2  0  0  0  0  0  0  0  0  0
  -13.6601   10.8063   19.0348 N   0  3  0  0  0  0  0  0  0  0  0  0
  -11.9689   10.0980   20.7392 C   0  0  0  0  0  0  0  0  0  0  0  0
  -11.3005    8.8523   21.4259 C   0  0  2  0  0  0  0  0  0  0  0  0
  -10.2811    9.3309   22.4301 N   0  3  0  0  0  0  0  0  0  0  0  0
  -10.6499    7.9422   20.3281 C   0  0  2  0  0  0  0  0  0  0  0  0
  -11.7347    7.4931   19.3189 C   0  0  2  0  0  0  0  0  0  0  0  0
  -11.1332    6.7054   18.3200 O   0  0  0  0  0  0  0  0  0  0  0  0
  -12.3733    8.7336   18.6386 C   0  0  1  0  0  0  0  0  0  0  0  0
  -13.3620    8.2986   17.7168 O   0  0  0  0  0  0  0  0  0  0  0  0
  -13.6897    9.1328   16.6400 C   0  0  2  0  0  0  0  0  0  0  0  0
  -15.1839    8.9218   16.3304 C   0  0  2  0  0  0  0  0  0  0  0  0
  -15.9443    9.2889   17.4615 O   0  0  0  0  0  0  0  0  0  0  0  0
  -15.4241    7.4180   15.9619 C   0  0  1  0  0  0  0  0  0  0  0  0
  -16.8498    7.1241   15.6773 N   0  3  0  0  0  0  0  0  0  0  0  0
  -17.4951    8.2673   14.9826 C   0  0  0  0  0  0  0  0  0  0  0  0
  -14.5428    7.0451   14.7203 C   0  0  2  0  0  0  0  0  0  0  0  0
  -14.9037    7.8713   13.5976 O   0  0  0  0  0  0  0  0  0  0  0  0
  -14.7213    5.6610   14.3205 C   0  0  0  0  0  0  0  0  0  0  0  0
  -13.0421    7.3484   15.0186 C   0  0  0  0  0  0  0  0  0  0  0  0
  -12.8716    8.7680   15.4708 O   0  0  0  0  0  0  0  0  0  0  0  0
  1  2  1  1  0  0  0
  1  3  1  0  0  0  0
  1 10  1  0  0  0  0
  3  4  1  1  0  0  0
  3  5  1  0  0  0  0
  5  6  1  6  0  0  0
  5  7  1  0  0  0  0
  7  8  1  1  0  0  0
  7  9  1  0  0  0  0
  9 10  1  6  0  0  0
  9 11  1  0  0  0  0
 11 12  1  1  0  0  0
 11 13  1  0  0  0  0
 14 15  1  6  0  0  0
 14 16  1  0  0  0  0
 14 22  1  0  0  0  0
 16 17  1  0  0  0  0
 17 18  1  1  0  0  0
 17 19  1  0  0  0  0
 19  2  1  1  0  0  0
 19 20  1  0  0  0  0
 20 21  1  6  0  0  0
 20 22  1  0  0  0  0
 22 23  1  6  0  0  0
 24 23  1  1  0  0  0
 24 25  1  0  0  0  0
 24 34  1  0  0  0  0
 25 26  1  1  0  0  0
 25 27  1  0  0  0  0
 27 28  1  6  0  0  0
 27 30  1  0  0  0  0
 28 29  1  0  0  0  0
 30 31  1  6  0  0  0
 30 32  1  0  0  0  0
 30 33  1  0  0  0  0
 33 34  1  0  0  0  0
M  CHG  4   4   1  15   1  18   1  28   1
M  END
>  <CHROM.1>
-154.49908669,-155.17181590,60.62962227,58.23935369,59.00509571,-27.35581169
68.18325418,71.07871634,-65.96694906,73.20697563,84.72552620,-147.23526121
-65.20679692,156.10199438,46.48810426,-11.44496083,7.39190140,19.30346834
-0.05336237,0.77133443,-2.81018650

>  <Name>
1mwl

>  <RI>
0

>  <Rbt.Current_Directory>
/home/itssahil/PROJECTS/Mol_Feturizer/New_Systems/rnas/1mwl

>  <Rbt.Executable>
rbdock ($Id: //depot/dev/client3/rdock/2013.1/src/exe/rbdock.cxx#4 $)

>  <Rbt.Library>
libRbt.so (2013.1, Build901 2013/11/27)

>  <Rbt.Parameter_File>
/export/apps/rDock/src/rDock_2013.1_src/data/scripts/dock_solv.prm

>  <Rbt.Receptor>
prm/pocket_docking_4.prm

>  <SCORE>
-56.0705

>  <SCORE.INTER>
-45.0049

>  <SCORE.INTER.CONST>
1

>  <SCORE.INTER.POLAR>
-5.61611

>  <SCORE.INTER.ROT>
6

>  <SCORE.INTER.SOLV>
19.3592

>  <SCORE.INTER.VDW>
-25.336

>  <SCORE.INTER.norm>
-1.32367

>  <SCORE.INTRA>
-11.0656

>  <SCORE.INTRA.DIHEDRAL>
-23.1244

>  <SCORE.INTRA.DIHEDRAL.0>
42.0816

>  <SCORE.INTRA.POLAR>
-0.11223

>  <SCORE.INTRA.POLAR.0>
-0.254682

>  <SCORE.INTRA.REPUL>
0

>  <SCORE.INTRA.REPUL.0>
0

>  <SCORE.INTRA.SOLV>
0.897946

>  <SCORE.INTRA.SOLV.lig_0>
-109.803

>  <SCORE.INTRA.VDW>
0.429207

>  <SCORE.INTRA.VDW.0>
0.32176

>  <SCORE.INTRA.norm>
-0.325458

>  <SCORE.RESTR>
0

>  <SCORE.RESTR.CAVITY>
0

>  <SCORE.RESTR.norm>
0

>  <SCORE.SYSTEM>
0

>  <SCORE.SYSTEM.CONST>
0

>  <SCORE.SYSTEM.DIHEDRAL>
0

>  <SCORE.SYSTEM.SOLV>
0

>  <SCORE.SYSTEM.norm>
0

>  <SCORE.heavy>
34

>  <SCORE.norm>
-1.64913

>  <RMSD>
0.845

$$$$
1mwl
 OpenBabel11021811403D
libRbt.so/2013.1/901 2013/11/27
 34 36  0  0  0  0  0  0  0  0999 V2000
   -9.0957    6.1089   19.9478 C   0  0  2  0  0  0  0  0  0  0  0  0
  -10.0622    6.9077   20.5613 O   0  0  0  0  0  0  0  0  0  0  0  0
   -9.5646    4.6320   20.0731 C   0  0  2  0  0  0  0  0  0  0  0  0
  -10.8741    4.4618   19.4362 N   0  3  0  0  0  0  0  0  0  0  0  0
   -9.5953    4.1909   21.5658 C   0  0  1  0  0  0  0  0  0  0  0  0
   -9.9790    2.8949   21.6815 O   0  0  0  0  0  0  0  0  0  0  0  0
   -8.1723    4.4066   22.1792 C   0  0  2  0  0  0  0  0  0  0  0  0
   -8.1615    3.9977   23.5630 O   0  0  0  0  0  0  0  0  0  0  0  0
   -7.7959    5.9199   22.0312 C   0  0  2  0  0  0  0  0  0  0  0  0
   -7.8204    6.3184   20.6064 O   0  0  0  0  0  0  0  0  0  0  0  0
   -6.4088    6.2897   22.5690 C   0  0  2  0  0  0  0  0  0  0  0  0
   -6.3292    5.9687   23.9195 O   0  0  0  0  0  0  0  0  0  0  0  0
   -6.0866    7.7915   22.4631 C   0  0  0  0  0  0  0  0  0  0  0  0
  -12.9954    9.6856   19.1687 C   0  0  2  0  0  0  0  0  0  0  0  0
  -13.6087   10.8844   18.5424 N   0  3  0  0  0  0  0  0  0  0  0  0
  -12.1172   10.0906   20.3897 C   0  0  0  0  0  0  0  0  0  0  0  0
  -11.4584    8.8173   21.0338 C   0  0  2  0  0  0  0  0  0  0  0  0
  -10.6231    9.2397   22.2172 N   0  3  0  0  0  0  0  0  0  0  0  0
  -10.5994    8.0753   19.9531 C   0  0  2  0  0  0  0  0  0  0  0  0
  -11.5008    7.6788   18.7584 C   0  0  2  0  0  0  0  0  0  0  0  0
  -10.7126    7.0443   17.7805 O   0  0  0  0  0  0  0  0  0  0  0  0
  -12.1307    8.9479   18.1244 C   0  0  1  0  0  0  0  0  0  0  0  0
  -12.9500    8.5613   17.0309 O   0  0  0  0  0  0  0  0  0  0  0  0
  -12.9928    9.3860   15.8991 C   0  0  2  0  0  0  0  0  0  0  0  0
  -14.4481    9.4031   15.3947 C   0  0  2  0  0  0  0  0  0  0  0  0
  -15.2779    9.9400   16.4026 O   0  0  0  0  0  0  0  0  0  0  0  0
  -14.8835    7.9417   15.0346 C   0  0  1  0  0  0  0  0  0  0  0  0
  -16.2890    7.8673   14.5665 N   0  3  0  0  0  0  0  0  0  0  0  0
  -17.2185    7.7037   15.7133 C   0  0  0  0  0  0  0  0  0  0  0  0
  -13.9223    7.3745   13.9340 C   0  0  2  0  0  0  0  0  0  0  0  0
  -13.9926    8.1944   12.7524 O   0  0  0  0  0  0  0  0  0  0  0  0
  -14.2735    6.0198   13.5483 C   0  0  0  0  0  0  0  0  0  0  0  0
  -12.4437    7.4469   14.4257 C   0  0  0  0  0  0  0  0  0  0  0  0
  -12.1013    8.8403   14.8613 O   0  0  0  0  0  0  0  0  0  0  0  0
  1  2  1  1  0  0  0
  1  3  1  0  0  0  0
  1 10  1  0  0  0  0
  3  4  1  1  0  0  0
  3  5  1  0  0  0  0
  5  6  1  6  0  0  0
  5  7  1  0  0  0  0
  7  8  1  1  0  0  0
  7  9  1  0  0  0  0
  9 10  1  6  0  0  0
  9 11  1  0  0  0  0
 11 12  1  1  0  0  0
 11 13  1  0  0  0  0
 14 15  1  6  0  0  0
 14 16  1  0  0  0  0
 14 22  1  0  0  0  0
 16 17  1  0  0  0  0
 17 18  1  1  0  0  0
 17 19  1  0  0  0  0
 19  2  1  1  0  0  0
 19 20  1  0  0  0  0
 20 21  1  6  0  0  0
 20 22  1  0  0  0  0
 22 23  1  6  0  0  0
 24 23  1  1  0  0  0
 24 25  1  0  0  0  0
 24 34  1  0  0  0  0
 25 26  1  1  0  0  0
 25 27  1  0  0  0  0
 27 28  1  6  0  0  0
 27 30  1  0  0  0  0
 28 29  1  0  0  0  0
 30 31  1  6  0  0  0
 30 32  1  0  0  0  0
 30 33  1  0  0  0  0
 33 34  1  0  0  0  0
M  CHG  4   4   1  15   1  18   1  28   1
M  END
>  <CHROM.1>
-132.19795331,-170.66596414,35.22897656,175.04482066,-174.34743709,-58.92865076
-59.35534410,-58.68177397,-79.13924031,-55.80266900,96.30079511,-140.98739651
-72.63704180,32.42863530,-175.75154937,-11.37166974,7.31545119,18.72498642
-0.09914722,0.87254181,-2.64933354

>  <Name>
1mwl

>  <RI>
0

>  <Rbt.Current_Directory>
/home/itssahil/PROJECTS/Mol_Feturizer/New_Systems/rnas/1mwl

>  <Rbt.Executable>
rbdock ($Id: //depot/dev/client3/rdock/2013.1/src/exe/rbdock.cxx#4 $)

>  <Rbt.Library>
libRbt.so (2013.1, Build901 2013/11/27)

>  <Rbt.Parameter_File>
/export/apps/rDock/src/rDock_2013.1_src/data/scripts/dock_solv.prm

>  <Rbt.Receptor>
prm/pocket_docking_3.prm

>  <SCORE>
-90.3355

>  <SCORE.INTER>
-73.2609

>  <SCORE.INTER.CONST>
1

>  <SCORE.INTER.POLAR>
-10.0228

>  <SCORE.INTER.ROT>
6

>  <SCORE.INTER.SOLV>
25.407

>  <SCORE.INTER.VDW>
-31.5004

>  <SCORE.INTER.norm>
-2.15473

>  <SCORE.INTRA>
-17.0746

>  <SCORE.INTRA.DIHEDRAL>
-20.1091

>  <SCORE.INTRA.DIHEDRAL.0>
42.0816

>  <SCORE.INTRA.POLAR>
-1.72388

>  <SCORE.INTRA.POLAR.0>
-0.254682

>  <SCORE.INTRA.REPUL>
0

>  <SCORE.INTRA.REPUL.0>
0

>  <SCORE.INTRA.SOLV>
1.11718

>  <SCORE.INTRA.SOLV.lig_0>
-109.803

>  <SCORE.INTRA.VDW>
-1.71745

>  <SCORE.INTRA.VDW.0>
0.32176

>  <SCORE.INTRA.norm>
-0.502194

>  <SCORE.RESTR>
0

>  <SCORE.RESTR.CAVITY>
0

>  <SCORE.RESTR.norm>
0

>  <SCORE.SYSTEM>
0

>  <SCORE.SYSTEM.CONST>
0

>  <SCORE.SYSTEM.DIHEDRAL>
0

>  <SCORE.SYSTEM.SOLV>
0

>  <SCORE.SYSTEM.norm>
0

>  <SCORE.heavy>
34

>  <SCORE.norm>
-2.65693

>  <RMSD>
0.847

$$$$
1mwl
 OpenBabel11021811403D
libRbt.so/2013.1/901 2013/11/27
 34 36  0  0  0  0  0  0  0  0999 V2000
   -9.1398    6.1071   19.8878 C   0  0  2  0  0  0  0  0  0  0  0  0
  -10.0925    6.9175   20.5076 O   0  0  0  0  0  0  0  0  0  0  0  0
   -9.6181    4.6347   20.0293 C   0  0  2  0  0  0  0  0  0  0  0  0
  -10.9367    4.4700   19.4099 N   0  3  0  0  0  0  0  0  0  0  0  0
   -9.6336    4.2042   21.5253 C   0  0  1  0  0  0  0  0  0  0  0  0
  -10.0256    2.9120   21.6549 O   0  0  0  0  0  0  0  0  0  0  0  0
   -8.2015    4.4133   22.1195 C   0  0  2  0  0  0  0  0  0  0  0  0
   -8.1766    4.0140   23.5059 O   0  0  0  0  0  0  0  0  0  0  0  0
   -7.8156    5.9227   21.9562 C   0  0  2  0  0  0  0  0  0  0  0  0
   -7.8548    6.3114   20.5291 O   0  0  0  0  0  0  0  0  0  0  0  0
   -6.4192    6.2856   22.4742 C   0  0  2  0  0  0  0  0  0  0  0  0
   -6.3050    5.9179   23.8102 O   0  0  0  0  0  0  0  0  0  0  0  0
   -6.1117    7.7930   22.4141 C   0  0  0  0  0  0  0  0  0  0  0  0
  -13.0103    9.7435   19.1811 C   0  0  2  0  0  0  0  0  0  0  0  0
  -13.6186   10.9463   18.5577 N   0  3  0  0  0  0  0  0  0  0  0  0
  -12.0748   10.1473   20.3592 C   0  0  0  0  0  0  0  0  0  0  0  0
  -11.4221    8.8692   20.9998 C   0  0  2  0  0  0  0  0  0  0  0  0
  -10.5305    9.2908   22.1418 N   0  3  0  0  0  0  0  0  0  0  0  0
  -10.6248    8.0875   19.8999 C   0  0  2  0  0  0  0  0  0  0  0  0
  -11.5823    7.6933   18.7488 C   0  0  2  0  0  0  0  0  0  0  0  0
  -10.8492    7.0226   17.7525 O   0  0  0  0  0  0  0  0  0  0  0  0
  -12.2058    8.9667   18.1171 C   0  0  1  0  0  0  0  0  0  0  0  0
  -13.0770    8.5820   17.0638 O   0  0  0  0  0  0  0  0  0  0  0  0
  -13.1406    9.3852   15.9177 C   0  0  2  0  0  0  0  0  0  0  0  0
  -14.5960    9.3564   15.4136 C   0  0  2  0  0  0  0  0  0  0  0  0
  -15.4392    9.8898   16.4122 O   0  0  0  0  0  0  0  0  0  0  0  0
  -14.9941    7.8783   15.0796 C   0  0  1  0  0  0  0  0  0  0  0  0
  -16.3972    7.7599   14.6134 N   0  3  0  0  0  0  0  0  0  0  0  0
  -17.3207    7.5783   15.7624 C   0  0  0  0  0  0  0  0  0  0  0  0
  -14.0187    7.3163   13.9888 C   0  0  2  0  0  0  0  0  0  0  0  0
  -14.1098    8.1132   12.7929 O   0  0  0  0  0  0  0  0  0  0  0  0
  -14.3354    5.9465   13.6272 C   0  0  0  0  0  0  0  0  0  0  0  0
  -12.5425    7.4349   14.4785 C   0  0  0  0  0  0  0  0  0  0  0  0
  -12.2356    8.8441   14.8893 O   0  0  0  0  0  0  0  0  0  0  0  0
  1  2  1  1  0  0  0
  1  3  1  0  0  0  0
  1 10  1  0  0  0  0
  3  4  1  1  0  0  0
  3  5  1  0  0  0  0
  5  6  1  6  0  0  0
  5  7  1  0  0  0  0
  7  8  1  1  0  0  0
  7  9  1  0  0  0  0
  9 10  1  6  0  0  0
  9 11  1  0  0  0  0
 11 12  1  1  0  0  0
 11 13  1  0  0  0  0
 14 15  1  6  0  0  0
 14 16  1  0  0  0  0
 14 22  1  0  0  0  0
 16 17  1  0  0  0  0
 17 18  1  1  0  0  0
 17 19  1  0  0  0  0
 19  2  1  1  0  0  0
 19 20  1  0  0  0  0
 20 21  1  6  0  0  0
 20 22  1  0  0  0  0
 22 23  1  6  0  0  0
 24 23  1  1  0  0  0
 24 25  1  0  0  0  0
 24 34  1  0  0  0  0
 25 26  1  1  0  0  0
 25 27  1  0  0  0  0
 27 28  1  6  0  0  0
 27 30  1  0  0  0  0
 28 29  1  0  0  0  0
 30 31  1  6  0  0  0
 30 32  1  0  0  0  0
 30 33  1  0  0  0  0
 33 34  1  0  0  0  0
M  CHG  4   4   1  15   1  18   1  28   1
M  END
>  <CHROM.1>
-132.43196371,-168.61832254,152.18018680,-171.71694801,-177.57189064,-56.25466645
-57.36872194,61.33504329,43.25106574,-59.83298167,96.54703461,-144.74361952
-76.60566629,31.81268910,62.55444430,-11.43067276,7.30947640,18.71153864
-0.05756694,0.85939025,-2.70272927

>  <Name>
1mwl

>  <RI>
0

>  <Rbt.Current_Directory>
/home/itssahil/PROJECTS/Mol_Feturizer/New_Systems/rnas/1mwl

>  <Rbt.Executable>
rbdock ($Id: //depot/dev/client3/rdock/2013.1/src/exe/rbdock.cxx#4 $)

>  <Rbt.Library>
libRbt.so (2013.1, Build901 2013/11/27)

>  <Rbt.Parameter_File>
/export/apps/rDock/src/rDock_2013.1_src/data/scripts/dock_solv.prm

>  <Rbt.Receptor>
prm/pocket_docking_5.prm

>  <SCORE>
-85.5673

>  <SCORE.INTER>
-67.2155

>  <SCORE.INTER.CONST>
1

>  <SCORE.INTER.POLAR>
-8.92304

>  <SCORE.INTER.ROT>
6

>  <SCORE.INTER.SOLV>
24.7826

>  <SCORE.INTER.VDW>
-30.9277

>  <SCORE.INTER.norm>
-1.97693

>  <SCORE.INTRA>
-18.3935

>  <SCORE.INTRA.DIHEDRAL>
-19.87

>  <SCORE.INTRA.DIHEDRAL.0>
42.0816

>  <SCORE.INTRA.POLAR>
-1.7767

>  <SCORE.INTRA.POLAR.0>
-0.254682

>  <SCORE.INTRA.REPUL>
0

>  <SCORE.INTRA.REPUL.0>
0

>  <SCORE.INTRA.SOLV>
1.00338

>  <SCORE.INTRA.SOLV.lig_0>
-109.803

>  <SCORE.INTRA.VDW>
-2.91944

>  <SCORE.INTRA.VDW.0>
0.32176

>  <SCORE.INTRA.norm>
-0.540986

>  <SCORE.RESTR>
0.041783

>  <SCORE.RESTR.CAVITY>
0.041783

>  <SCORE.RESTR.norm>
0.00122891

>  <SCORE.SYSTEM>
0

>  <SCORE.SYSTEM.CONST>
0

>  <SCORE.SYSTEM.DIHEDRAL>
0

>  <SCORE.SYSTEM.SOLV>
0

>  <SCORE.SYSTEM.norm>
0

>  <SCORE.heavy>
34

>  <SCORE.norm>
-2.51668

>  <RMSD>
0.858

$$$$
1mwl
 OpenBabel11021811403D
libRbt.so/2013.1/901 2013/11/27
 34 36  0  0  0  0  0  0  0  0999 V2000
   -9.0392    5.9846   19.9834 C   0  0  2  0  0  0  0  0  0  0  0  0
   -9.9719    6.8062   20.6189 O   0  0  0  0  0  0  0  0  0  0  0  0
   -9.5600    4.5234   20.0858 C   0  0  2  0  0  0  0  0  0  0  0  0
  -10.8794    4.4119   19.4564 N   0  3  0  0  0  0  0  0  0  0  0  0
   -9.5957    4.0565   21.5705 C   0  0  1  0  0  0  0  0  0  0  0  0
  -10.0250    2.7732   21.6659 O   0  0  0  0  0  0  0  0  0  0  0  0
   -8.1614    4.2098   22.1763 C   0  0  2  0  0  0  0  0  0  0  0  0
   -8.1553    3.7755   23.5525 O   0  0  0  0  0  0  0  0  0  0  0  0
   -7.7318    5.7111   22.0527 C   0  0  2  0  0  0  0  0  0  0  0  0
   -7.7524    6.1362   20.6355 O   0  0  0  0  0  0  0  0  0  0  0  0
   -6.3285    6.0210   22.5860 C   0  0  2  0  0  0  0  0  0  0  0  0
   -6.2897    5.8004   23.9582 O   0  0  0  0  0  0  0  0  0  0  0  0
   -5.8965    7.4832   22.3720 C   0  0  0  0  0  0  0  0  0  0  0  0
  -12.8895    9.6528   19.3367 C   0  0  2  0  0  0  0  0  0  0  0  0
  -13.4990   10.8588   18.7207 N   0  3  0  0  0  0  0  0  0  0  0  0
  -11.9294   10.0522   20.4963 C   0  0  0  0  0  0  0  0  0  0  0  0
  -11.2758    8.7706   21.1290 C   0  0  2  0  0  0  0  0  0  0  0  0
  -10.3600    9.1881   22.2531 N   0  3  0  0  0  0  0  0  0  0  0  0
  -10.5053    7.9789   20.0172 C   0  0  2  0  0  0  0  0  0  0  0  0
  -11.4869    7.5893   18.8851 C   0  0  2  0  0  0  0  0  0  0  0  0
  -10.7778    6.9094   17.8776 O   0  0  0  0  0  0  0  0  0  0  0  0
  -12.1112    8.8659   18.2608 C   0  0  1  0  0  0  0  0  0  0  0  0
  -13.0047    8.4855   17.2247 O   0  0  0  0  0  0  0  0  0  0  0  0
  -12.9038    9.1249   15.9823 C   0  0  2  0  0  0  0  0  0  0  0  0
  -14.3183    9.1797   15.3747 C   0  0  2  0  0  0  0  0  0  0  0  0
  -15.1559    9.9314   16.2267 O   0  0  0  0  0  0  0  0  0  0  0  0
  -14.8612    7.7197   15.2062 C   0  0  1  0  0  0  0  0  0  0  0  0
  -16.2365    7.6860   14.6518 N   0  3  0  0  0  0  0  0  0  0  0  0
  -17.2420    7.9037   15.7231 C   0  0  0  0  0  0  0  0  0  0  0  0
  -13.8899    6.9133   14.2770 C   0  0  2  0  0  0  0  0  0  0  0  0
  -13.8139    7.5425   12.9841 O   0  0  0  0  0  0  0  0  0  0  0  0
  -14.3380    5.5476   14.0734 C   0  0  0  0  0  0  0  0  0  0  0  0
  -12.4435    6.9427   14.8603 C   0  0  0  0  0  0  0  0  0  0  0  0
  -12.0037    8.3550   15.1066 O   0  0  0  0  0  0  0  0  0  0  0  0
  1  2  1  1  0  0  0
  1  3  1  0  0  0  0
  1 10  1  0  0  0  0
  3  4  1  1  0  0  0
  3  5  1  0  0  0  0
  5  6  1  6  0  0  0
  5  7  1  0  0  0  0
  7  8  1  1  0  0  0
  7  9  1  0  0  0  0
  9 10  1  6  0  0  0
  9 11  1  0  0  0  0
 11 12  1  1  0  0  0
 11 13  1  0  0  0  0
 14 15  1  6  0  0  0
 14 16  1  0  0  0  0
 14 22  1  0  0  0  0
 16 17  1  0  0  0  0
 17 18  1  1  0  0  0
 17 19  1  0  0  0  0
 19  2  1  1  0  0  0
 19 20  1  0  0  0  0
 20 21  1  6  0  0  0
 20 22  1  0  0  0  0
 22 23  1  6  0  0  0
 24 23  1  1  0  0  0
 24 25  1  0  0  0  0
 24 34  1  0  0  0  0
 25 26  1  1  0  0  0
 25 27  1  0  0  0  0
 27 28  1  6  0  0  0
 27 30  1  0  0  0  0
 28 29  1  0  0  0  0
 30 31  1  6  0  0  0
 30 32  1  0  0  0  0
 30 33  1  0  0  0  0
 33 34  1  0  0  0  0
M  CHG  4   4   1  15   1  18   1  28   1
M  END
>  <CHROM.1>
-129.98535599,-168.73860777,-85.61186705,-170.38242395,-9.56321734,-64.90280941
46.62006393,-174.07861064,49.82331090,-63.20987452,108.61502031,-148.28923810
104.96207849,37.67488399,58.67016779,-11.31546688,7.13784762,18.81675867
-0.05669587,0.85890801,-2.70002526

>  <Name>
1mwl

>  <RI>
0

>  <Rbt.Current_Directory>
/home/itssahil/PROJECTS/Mol_Feturizer/New_Systems/rnas/1mwl

>  <Rbt.Executable>
rbdock ($Id: //depot/dev/client3/rdock/2013.1/src/exe/rbdock.cxx#4 $)

>  <Rbt.Library>
libRbt.so (2013.1, Build901 2013/11/27)

>  <Rbt.Parameter_File>
/export/apps/rDock/src/rDock_2013.1_src/data/scripts/dock_solv.prm

>  <Rbt.Receptor>
prm/pocket_docking_3.prm

>  <SCORE>
-87.908

>  <SCORE.INTER>
-72.104

>  <SCORE.INTER.CONST>
1

>  <SCORE.INTER.POLAR>
-10.1649

>  <SCORE.INTER.ROT>
6

>  <SCORE.INTER.SOLV>
24.5035

>  <SCORE.INTER.VDW>
-29.9542

>  <SCORE.INTER.norm>
-2.12071

>  <SCORE.INTRA>
-15.804

>  <SCORE.INTRA.DIHEDRAL>
-7.04867

>  <SCORE.INTRA.DIHEDRAL.0>
42.0816

>  <SCORE.INTRA.POLAR>
-2.86003

>  <SCORE.INTRA.POLAR.0>
-0.254682

>  <SCORE.INTRA.REPUL>
0

>  <SCORE.INTRA.REPUL.0>
0

>  <SCORE.INTRA.SOLV>
0.710339

>  <SCORE.INTRA.SOLV.lig_0>
-109.803

>  <SCORE.INTRA.VDW>
-2.91072

>  <SCORE.INTRA.VDW.0>
0.32176

>  <SCORE.INTRA.norm>
-0.464823

>  <SCORE.RESTR>
0

>  <SCORE.RESTR.CAVITY>
0

>  <SCORE.RESTR.norm>
0

>  <SCORE.SYSTEM>
0

>  <SCORE.SYSTEM.CONST>
0

>  <SCORE.SYSTEM.DIHEDRAL>
0

>  <SCORE.SYSTEM.SOLV>
0

>  <SCORE.SYSTEM.norm>
0

>  <SCORE.heavy>
34

>  <SCORE.norm>
-2.58553

>  <RMSD>
0.863

$$$$
1mwl
 OpenBabel11021811403D
libRbt.so/2013.1/901 2013/11/27
 34 36  0  0  0  0  0  0  0  0999 V2000
   -9.0107    6.4288   20.0548 C   0  0  2  0  0  0  0  0  0  0  0  0
  -10.0963    7.0961   20.6247 O   0  0  0  0  0  0  0  0  0  0  0  0
   -9.2032    4.9101   20.3261 C   0  0  2  0  0  0  0  0  0  0  0  0
  -10.4698    4.4502   19.7485 N   0  3  0  0  0  0  0  0  0  0  0  0
   -9.1315    4.6121   21.8525 C   0  0  1  0  0  0  0  0  0  0  0  0
   -9.2732    3.2851   22.0954 O   0  0  0  0  0  0  0  0  0  0  0  0
   -7.7619    5.1346   22.3990 C   0  0  2  0  0  0  0  0  0  0  0  0
   -7.6568    4.8654   23.8128 O   0  0  0  0  0  0  0  0  0  0  0  0
   -7.6671    6.6703   22.1047 C   0  0  2  0  0  0  0  0  0  0  0  0
   -7.7845    6.9230   20.6516 O   0  0  0  0  0  0  0  0  0  0  0  0
   -6.3617    7.3303   22.5634 C   0  0  2  0  0  0  0  0  0  0  0  0
   -5.3336    6.9907   21.6910 O   0  0  0  0  0  0  0  0  0  0  0  0
   -5.9039    6.8838   23.9639 C   0  0  0  0  0  0  0  0  0  0  0  0
  -13.2762    9.6578   19.3658 C   0  0  2  0  0  0  0  0  0  0  0  0
  -14.0030   10.7837   18.7259 N   0  3  0  0  0  0  0  0  0  0  0  0
  -12.2906   10.1844   20.4508 C   0  0  0  0  0  0  0  0  0  0  0  0
  -11.5134    8.9872   21.1087 C   0  0  2  0  0  0  0  0  0  0  0  0
  -10.5751    9.5269   22.1598 N   0  3  0  0  0  0  0  0  0  0  0  0
  -10.7442    8.1949   19.9966 C   0  0  2  0  0  0  0  0  0  0  0  0
  -11.7506    7.6779   18.9396 C   0  0  2  0  0  0  0  0  0  0  0  0
  -11.0453    6.9981   17.9294 O   0  0  0  0  0  0  0  0  0  0  0  0
  -12.4977    8.8727   18.2888 C   0  0  1  0  0  0  0  0  0  0  0  0
  -13.4121    8.3762   17.3225 O   0  0  0  0  0  0  0  0  0  0  0  0
  -13.0055    8.3127   15.9833 C   0  0  2  0  0  0  0  0  0  0  0  0
  -14.2584    8.5148   15.1101 C   0  0  2  0  0  0  0  0  0  0  0  0
  -14.8054    9.7882   15.3783 O   0  0  0  0  0  0  0  0  0  0  0  0
  -15.2950    7.3845   15.4307 C   0  0  1  0  0  0  0  0  0  0  0  0
  -16.5477    7.5250   14.6490 N   0  3  0  0  0  0  0  0  0  0  0  0
  -17.7132    7.7118   15.5505 C   0  0  0  0  0  0  0  0  0  0  0  0
  -14.6400    5.9893   15.1455 C   0  0  2  0  0  0  0  0  0  0  0  0
  -14.2572    5.9018   13.7601 O   0  0  0  0  0  0  0  0  0  0  0  0
  -15.5515    4.8928   15.4177 C   0  0  0  0  0  0  0  0  0  0  0  0
  -13.3248    5.8367   15.9702 C   0  0  0  0  0  0  0  0  0  0  0  0
  -12.4061    6.9942   15.7151 O   0  0  0  0  0  0  0  0  0  0  0  0
  1  2  1  1  0  0  0
  1  3  1  0  0  0  0
  1 10  1  0  0  0  0
  3  4  1  1  0  0  0
  3  5  1  0  0  0  0
  5  6  1  6  0  0  0
  5  7  1  0  0  0  0
  7  8  1  1  0  0  0
  7  9  1  0  0  0  0
  9 10  1  6  0  0  0
  9 11  1  0  0  0  0
 11 12  1  6  0  0  0
 11 13  1  0  0  0  0
 14 15  1  6  0  0  0
 14 16  1  0  0  0  0
 14 22  1  0  0  0  0
 16 17  1  0  0  0  0
 17 18  1  1  0  0  0
 17 19  1  0  0  0  0
 19  2  1  1  0  0  0
 19 20  1  0  0  0  0
 20 21  1  6  0  0  0
 20 22  1  0  0  0  0
 22 23  1  6  0  0  0
 24 23  1  1  0  0  0
 24 25  1  0  0  0  0
 24 34  1  0  0  0  0
 25 26  1  1  0  0  0
 25 27  1  0  0  0  0
 27 28  1  6  0  0  0
 27 30  1  0  0  0  0
 28 29  1  0  0  0  0
 30 31  1  6  0  0  0
 30 32  1  0  0  0  0
 30 33  1  0  0  0  0
 33 34  1  0  0  0  0
M  CHG  4   4   1  15   1  18   1  28   1
M  END
>  <CHROM.1>
-139.92263871,-159.44089980,145.51631621,-170.10735467,58.87299418,75.28328758
77.71293346,170.27994568,41.87880147,-59.32643888,145.01219989,-149.29197797
173.38044339,1.14679095,175.98732216,-11.42414014,7.15666216,18.94540319
-0.12664011,0.75003467,-2.74680830

>  <Name>
1mwl

>  <RI>
0

>  <Rbt.Current_Directory>
/home/itssahil/PROJECTS/Mol_Feturizer/New_Systems/rnas/1mwl

>  <Rbt.Executable>
rbdock ($Id: //depot/dev/client3/rdock/2013.1/src/exe/rbdock.cxx#4 $)

>  <Rbt.Library>
libRbt.so (2013.1, Build901 2013/11/27)

>  <Rbt.Parameter_File>
/export/apps/rDock/src/rDock_2013.1_src/data/scripts/dock_solv.prm

>  <Rbt.Receptor>
prm/pocket_docking_4.prm

>  <SCORE>
-76.8241

>  <SCORE.INTER>
-64.7221

>  <SCORE.INTER.CONST>
1

>  <SCORE.INTER.POLAR>
-10.0628

>  <SCORE.INTER.ROT>
6

>  <SCORE.INTER.SOLV>
24.2855

>  <SCORE.INTER.VDW>
-25.3006

>  <SCORE.INTER.norm>
-1.90359

>  <SCORE.INTRA>
-12.102

>  <SCORE.INTRA.DIHEDRAL>
-16.6648

>  <SCORE.INTRA.DIHEDRAL.0>
42.0816

>  <SCORE.INTRA.POLAR>
-0.708132

>  <SCORE.INTRA.POLAR.0>
-0.254682

>  <SCORE.INTRA.REPUL>
0

>  <SCORE.INTRA.REPUL.0>
0

>  <SCORE.INTRA.SOLV>
-0.506215

>  <SCORE.INTRA.SOLV.lig_0>
-109.803

>  <SCORE.INTRA.VDW>
-1.10883

>  <SCORE.INTRA.VDW.0>
0.32176

>  <SCORE.INTRA.norm>
-0.355941

>  <SCORE.RESTR>
0

>  <SCORE.RESTR.CAVITY>
0

>  <SCORE.RESTR.norm>
0

>  <SCORE.SYSTEM>
0

>  <SCORE.SYSTEM.CONST>
0

>  <SCORE.SYSTEM.DIHEDRAL>
0

>  <SCORE.SYSTEM.SOLV>
0

>  <SCORE.SYSTEM.norm>
0

>  <SCORE.heavy>
34

>  <SCORE.norm>
-2.25953

>  <RMSD>
0.880

$$$$
1mwl
 OpenBabel11021811403D
libRbt.so/2013.1/901 2013/11/27
 34 36  0  0  0  0  0  0  0  0999 V2000
   -9.2914    6.1099   19.9207 C   0  0  2  0  0  0  0  0  0  0  0  0
  -10.1196    7.0218   20.5773 O   0  0  0  0  0  0  0  0  0  0  0  0
   -9.9232    4.6998   20.0925 C   0  0  2  0  0  0  0  0  0  0  0  0
  -11.2784    4.6819   19.5335 N   0  3  0  0  0  0  0  0  0  0  0  0
   -9.9189    4.2755   21.5903 C   0  0  1  0  0  0  0  0  0  0  0  0
  -10.4455    3.0350   21.7452 O   0  0  0  0  0  0  0  0  0  0  0  0
   -8.4472    4.3251   22.1187 C   0  0  2  0  0  0  0  0  0  0  0  0
   -8.4043    3.9271   23.5051 O   0  0  0  0  0  0  0  0  0  0  0  0
   -7.9040    5.7821   21.9290 C   0  0  2  0  0  0  0  0  0  0  0  0
   -7.9642    6.1711   20.5027 O   0  0  0  0  0  0  0  0  0  0  0  0
   -6.4541    5.9883   22.3819 C   0  0  2  0  0  0  0  0  0  0  0  0
   -6.3491    5.7368   23.7454 O   0  0  0  0  0  0  0  0  0  0  0  0
   -5.9393    7.4233   22.1673 C   0  0  0  0  0  0  0  0  0  0  0  0
  -13.0459    9.8158   19.2027 C   0  0  2  0  0  0  0  0  0  0  0  0
  -13.6586   11.0015   18.5515 N   0  3  0  0  0  0  0  0  0  0  0  0
  -12.0956   10.2514   20.3574 C   0  0  0  0  0  0  0  0  0  0  0  0
  -11.4384    8.9908   21.0276 C   0  0  2  0  0  0  0  0  0  0  0  0
  -10.5324    9.4432   22.1461 N   0  3  0  0  0  0  0  0  0  0  0  0
  -10.6562    8.1750   19.9418 C   0  0  2  0  0  0  0  0  0  0  0  0
  -11.6281    7.7498   18.8141 C   0  0  2  0  0  0  0  0  0  0  0  0
  -10.9085    7.0482   17.8293 O   0  0  0  0  0  0  0  0  0  0  0  0
  -12.2560    9.0059   18.1527 C   0  0  1  0  0  0  0  0  0  0  0  0
  -13.1405    8.5929   17.1214 O   0  0  0  0  0  0  0  0  0  0  0  0
  -13.0237    9.1875   15.8583 C   0  0  2  0  0  0  0  0  0  0  0  0
  -14.4272    9.2034   15.2236 C   0  0  2  0  0  0  0  0  0  0  0  0
  -15.2888    9.9759   16.0319 O   0  0  0  0  0  0  0  0  0  0  0  0
  -14.9507    7.7319   15.0992 C   0  0  1  0  0  0  0  0  0  0  0  0
  -16.3150    7.6618   14.5216 N   0  3  0  0  0  0  0  0  0  0  0  0
  -17.3433    7.8848   15.5699 C   0  0  0  0  0  0  0  0  0  0  0  0
  -13.9535    6.9034   14.2181 C   0  0  2  0  0  0  0  0  0  0  0  0
  -13.8604    7.4857   12.9044 O   0  0  0  0  0  0  0  0  0  0  0  0
  -14.3825    5.5260   14.0570 C   0  0  0  0  0  0  0  0  0  0  0  0
  -12.5186    6.9712   14.8261 C   0  0  0  0  0  0  0  0  0  0  0  0
  -12.0991    8.3967   15.0280 O   0  0  0  0  0  0  0  0  0  0  0  0
  1  2  1  1  0  0  0
  1  3  1  0  0  0  0
  1 10  1  0  0  0  0
  3  4  1  1  0  0  0
  3  5  1  0  0  0  0
  5  6  1  6  0  0  0
  5  7  1  0  0  0  0
  7  8  1  1  0  0  0
  7  9  1  0  0  0  0
  9 10  1  6  0  0  0
  9 11  1  0  0  0  0
 11 12  1  1  0  0  0
 11 13  1  0  0  0  0
 14 15  1  6  0  0  0
 14 16  1  0  0  0  0
 14 22  1  0  0  0  0
 16 17  1  0  0  0  0
 17 18  1  1  0  0  0
 17 19  1  0  0  0  0
 19  2  1  1  0  0  0
 19 20  1  0  0  0  0
 20 21  1  6  0  0  0
 20 22  1  0  0  0  0
 22 23  1  6  0  0  0
 24 23  1  1  0  0  0
 24 25  1  0  0  0  0
 24 34  1  0  0  0  0
 25 26  1  1  0  0  0
 25 27  1  0  0  0  0
 27 28  1  6  0  0  0
 27 30  1  0  0  0  0
 28 29  1  0  0  0  0
 30 31  1  6  0  0  0
 30 32  1  0  0  0  0
 30 33  1  0  0  0  0
 33 34  1  0  0  0  0
M  CHG  4   4   1  15   1  18   1  28   1
M  END
>  <CHROM.1>
-125.83822412,-175.92684210,-82.23099176,-166.63108148,40.98527291,-62.02575976
53.54566326,-60.21139159,161.16807578,-65.81761228,109.45468719,-149.31770259
92.35746457,36.75099257,-58.03986166,-11.48005338,7.23193191,18.72485851
-0.04311123,0.86502337,-2.72819829

>  <Name>
1mwl

>  <RI>
0

>  <Rbt.Current_Directory>
/home/itssahil/PROJECTS/Mol_Feturizer/New_Systems/rnas/1mwl

>  <Rbt.Executable>
rbdock ($Id: //depot/dev/client3/rdock/2013.1/src/exe/rbdock.cxx#4 $)

>  <Rbt.Library>
libRbt.so (2013.1, Build901 2013/11/27)

>  <Rbt.Parameter_File>
/export/apps/rDock/src/rDock_2013.1_src/data/scripts/dock_solv.prm

>  <Rbt.Receptor>
prm/pocket_docking_5.prm

>  <SCORE>
-88.4832

>  <SCORE.INTER>
-71.2525

>  <SCORE.INTER.CONST>
1

>  <SCORE.INTER.POLAR>
-10.2225

>  <SCORE.INTER.ROT>
6

>  <SCORE.INTER.SOLV>
24.7215

>  <SCORE.INTER.VDW>
-29.2672

>  <SCORE.INTER.norm>
-2.09566

>  <SCORE.INTRA>
-17.2768

>  <SCORE.INTRA.DIHEDRAL>
-14.4761

>  <SCORE.INTRA.DIHEDRAL.0>
42.0816

>  <SCORE.INTRA.POLAR>
-2.33292

>  <SCORE.INTRA.POLAR.0>
-0.254682

>  <SCORE.INTRA.REPUL>
0

>  <SCORE.INTRA.REPUL.0>
0

>  <SCORE.INTRA.SOLV>
1.21782

>  <SCORE.INTRA.SOLV.lig_0>
-109.803

>  <SCORE.INTRA.VDW>
-2.71579

>  <SCORE.INTRA.VDW.0>
0.32176

>  <SCORE.INTRA.norm>
-0.508142

>  <SCORE.RESTR>
0.0460956

>  <SCORE.RESTR.CAVITY>
0.0460956

>  <SCORE.RESTR.norm>
0.00135575

>  <SCORE.SYSTEM>
0

>  <SCORE.SYSTEM.CONST>
0

>  <SCORE.SYSTEM.DIHEDRAL>
0

>  <SCORE.SYSTEM.SOLV>
0

>  <SCORE.SYSTEM.norm>
0

>  <SCORE.heavy>
34

>  <SCORE.norm>
-2.60245

>  <RMSD>
0.888

$$$$
1mwl
 OpenBabel11021811403D
libRbt.so/2013.1/901 2013/11/27
 34 36  0  0  0  0  0  0  0  0999 V2000
   -9.3135    6.1470   19.9748 C   0  0  2  0  0  0  0  0  0  0  0  0
  -10.1263    7.0654   20.6415 O   0  0  0  0  0  0  0  0  0  0  0  0
   -9.9574    4.7428   20.1495 C   0  0  2  0  0  0  0  0  0  0  0  0
  -11.3181    4.7395   19.6037 N   0  3  0  0  0  0  0  0  0  0  0  0
   -9.9428    4.3150   21.6463 C   0  0  1  0  0  0  0  0  0  0  0  0
  -10.4801    3.0793   21.8035 O   0  0  0  0  0  0  0  0  0  0  0  0
   -8.4656    4.3488   22.1605 C   0  0  2  0  0  0  0  0  0  0  0  0
   -8.4132    3.9471   23.5455 O   0  0  0  0  0  0  0  0  0  0  0  0
   -7.9100    5.8009   21.9689 C   0  0  2  0  0  0  0  0  0  0  0  0
   -7.9801    6.1938   20.5441 O   0  0  0  0  0  0  0  0  0  0  0  0
   -6.4538    5.9918   22.4081 C   0  0  2  0  0  0  0  0  0  0  0  0
   -6.3257    5.6746   23.7558 O   0  0  0  0  0  0  0  0  0  0  0  0
   -5.9484    7.4381   22.2557 C   0  0  0  0  0  0  0  0  0  0  0  0
  -13.0681    9.8435   19.2677 C   0  0  2  0  0  0  0  0  0  0  0  0
  -13.6871   11.0281   18.6204 N   0  3  0  0  0  0  0  0  0  0  0  0
  -12.1280   10.2797   20.4304 C   0  0  0  0  0  0  0  0  0  0  0  0
  -11.4641    9.0205   21.0965 C   0  0  2  0  0  0  0  0  0  0  0  0
  -10.5682    9.4735   22.2229 N   0  3  0  0  0  0  0  0  0  0  0  0
  -10.6689    8.2181   20.0101 C   0  0  2  0  0  0  0  0  0  0  0  0
  -11.6309    7.7919   18.8744 C   0  0  2  0  0  0  0  0  0  0  0  0
  -10.8999    7.1024   17.8893 O   0  0  0  0  0  0  0  0  0  0  0  0
  -12.2656    9.0467   18.2172 C   0  0  1  0  0  0  0  0  0  0  0  0
  -13.1408    8.6328   17.1784 O   0  0  0  0  0  0  0  0  0  0  0  0
  -13.0323    9.2472   15.9240 C   0  0  2  0  0  0  0  0  0  0  0  0
  -14.4391    9.2689   15.2969 C   0  0  2  0  0  0  0  0  0  0  0  0
  -15.2987   10.0263   16.1217 O   0  0  0  0  0  0  0  0  0  0  0  0
  -14.9591    7.7979   15.1525 C   0  0  1  0  0  0  0  0  0  0  0  0
  -16.3263    7.7328   14.5810 N   0  3  0  0  0  0  0  0  0  0  0  0
  -17.3499    7.7818   15.6562 C   0  0  0  0  0  0  0  0  0  0  0  0
  -13.9642    6.9861   14.2535 C   0  0  2  0  0  0  0  0  0  0  0  0
  -13.8798    7.5889   12.9485 O   0  0  0  0  0  0  0  0  0  0  0  0
  -14.3902    5.6101   14.0733 C   0  0  0  0  0  0  0  0  0  0  0  0
  -12.5264    7.0486   14.8550 C   0  0  0  0  0  0  0  0  0  0  0  0
  -12.1099    8.4720   15.0768 O   0  0  0  0  0  0  0  0  0  0  0  0
  1  2  1  1  0  0  0
  1  3  1  0  0  0  0
  1 10  1  0  0  0  0
  3  4  1  1  0  0  0
  3  5  1  0  0  0  0
  5  6  1  6  0  0  0
  5  7  1  0  0  0  0
  7  8  1  1  0  0  0
  7  9  1  0  0  0  0
  9 10  1  6  0  0  0
  9 11  1  0  0  0  0
 11 12  1  1  0  0  0
 11 13  1  0  0  0  0
 14 15  1  6  0  0  0
 14 16  1  0  0  0  0
 14 22  1  0  0  0  0
 16 17  1  0  0  0  0
 17 18  1  1  0  0  0
 17 19  1  0  0  0  0
 19  2  1  1  0  0  0
 19 20  1  0  0  0  0
 20 21  1  6  0  0  0
 20 22  1  0  0  0  0
 22 23  1  6  0  0  0
 24 23  1  1  0  0  0
 24 25  1  0  0  0  0
 24 34  1  0  0  0  0
 25 26  1  1  0  0  0
 25 27  1  0  0  0  0
 27 28  1  6  0  0  0
 27 30  1  0  0  0  0
 28 29  1  0  0  0  0
 30 31  1  6  0  0  0
 30 32  1  0  0  0  0
 30 33  1  0  0  0  0
 33 34  1  0  0  0  0
M  CHG  4   4   1  15   1  18   1  28   1
M  END
>  <CHROM.1>
-125.16806339,-177.55298342,-76.15791573,-170.66732481,46.82201053,-59.21379241
55.52662239,-176.74547904,-76.28195565,-60.44888801,108.72034240,-148.37037516
100.55642982,30.31621427,58.09729411,-11.49115714,7.27178209,18.78221653
-0.04180117,0.86595130,-2.72334880

>  <Name>
1mwl

>  <RI>
0

>  <Rbt.Current_Directory>
/home/itssahil/PROJECTS/Mol_Feturizer/New_Systems/rnas/1mwl

>  <Rbt.Executable>
rbdock ($Id: //depot/dev/client3/rdock/2013.1/src/exe/rbdock.cxx#4 $)

>  <Rbt.Library>
libRbt.so (2013.1, Build901 2013/11/27)

>  <Rbt.Parameter_File>
/export/apps/rDock/src/rDock_2013.1_src/data/scripts/dock_solv.prm

>  <Rbt.Receptor>
prm/pocket_docking_3.prm

>  <SCORE>
-88.4564

>  <SCORE.INTER>
-70.6744

>  <SCORE.INTER.CONST>
1

>  <SCORE.INTER.POLAR>
-10.0595

>  <SCORE.INTER.ROT>
6

>  <SCORE.INTER.SOLV>
24.7738

>  <SCORE.INTER.VDW>
-29.4426

>  <SCORE.INTER.norm>
-2.07866

>  <SCORE.INTRA>
-17.782

>  <SCORE.INTRA.DIHEDRAL>
-14.5542

>  <SCORE.INTRA.DIHEDRAL.0>
42.0816

>  <SCORE.INTRA.POLAR>
-2.31065

>  <SCORE.INTRA.POLAR.0>
-0.254682

>  <SCORE.INTRA.REPUL>
0

>  <SCORE.INTRA.REPUL.0>
0

>  <SCORE.INTRA.SOLV>
0.843498

>  <SCORE.INTRA.SOLV.lig_0>
-109.803

>  <SCORE.INTRA.VDW>
-3.07048

>  <SCORE.INTRA.VDW.0>
0.32176

>  <SCORE.INTRA.norm>
-0.523001

>  <SCORE.RESTR>
0

>  <SCORE.RESTR.CAVITY>
0

>  <SCORE.RESTR.norm>
0

>  <SCORE.SYSTEM>
0

>  <SCORE.SYSTEM.CONST>
0

>  <SCORE.SYSTEM.DIHEDRAL>
0

>  <SCORE.SYSTEM.SOLV>
0

>  <SCORE.SYSTEM.norm>
0

>  <SCORE.heavy>
34

>  <SCORE.norm>
-2.60166

>  <RMSD>
0.890

$$$$
1mwl
 OpenBabel11021811403D
libRbt.so/2013.1/901 2013/11/27
 34 36  0  0  0  0  0  0  0  0999 V2000
   -9.3422    6.1694   19.9821 C   0  0  2  0  0  0  0  0  0  0  0  0
  -10.2446    7.0279   20.6124 O   0  0  0  0  0  0  0  0  0  0  0  0
   -9.8753    4.7201   20.1618 C   0  0  2  0  0  0  0  0  0  0  0  0
  -11.2157    4.5991   19.5802 N   0  3  0  0  0  0  0  0  0  0  0  0
   -9.8677    4.3153   21.6650 C   0  0  1  0  0  0  0  0  0  0  0  0
  -10.3078    3.0424   21.8274 O   0  0  0  0  0  0  0  0  0  0  0  0
   -8.4130    4.4758   22.2177 C   0  0  2  0  0  0  0  0  0  0  0  0
   -8.3668    4.0986   23.6097 O   0  0  0  0  0  0  0  0  0  0  0  0
   -7.9712    5.9654   22.0179 C   0  0  2  0  0  0  0  0  0  0  0  0
   -8.0333    6.3319   20.5857 O   0  0  0  0  0  0  0  0  0  0  0  0
   -6.5479    6.2797   22.4926 C   0  0  2  0  0  0  0  0  0  0  0  0
   -6.4449    6.0359   23.8576 O   0  0  0  0  0  0  0  0  0  0  0  0
   -6.1392    7.7495   22.2851 C   0  0  0  0  0  0  0  0  0  0  0  0
  -13.0954    9.9139   19.2695 C   0  0  2  0  0  0  0  0  0  0  0  0
  -13.6755   11.1263   18.6378 N   0  3  0  0  0  0  0  0  0  0  0  0
  -12.1477   10.3039   20.4424 C   0  0  0  0  0  0  0  0  0  0  0  0
  -11.5249    9.0153   21.0918 C   0  0  2  0  0  0  0  0  0  0  0  0
  -10.6208    9.4240   22.2286 N   0  3  0  0  0  0  0  0  0  0  0  0
  -10.7495    8.2058   19.9965 C   0  0  2  0  0  0  0  0  0  0  0  0
  -11.7189    7.8260   18.8506 C   0  0  2  0  0  0  0  0  0  0  0  0
  -11.0046    7.1298   17.8580 O   0  0  0  0  0  0  0  0  0  0  0  0
  -12.3125    9.1093   18.2101 C   0  0  1  0  0  0  0  0  0  0  0  0
  -13.1953    8.7377   17.1616 O   0  0  0  0  0  0  0  0  0  0  0  0
  -13.2486    9.5383   16.0131 C   0  0  2  0  0  0  0  0  0  0  0  0
  -14.6869    9.4665   15.4663 C   0  0  2  0  0  0  0  0  0  0  0  0
  -15.5746    9.9750   16.4389 O   0  0  0  0  0  0  0  0  0  0  0  0
  -15.0312    7.9771   15.1224 C   0  0  1  0  0  0  0  0  0  0  0  0
  -16.4158    7.8173   14.6151 N   0  3  0  0  0  0  0  0  0  0  0  0
  -17.3858    7.7634   15.7386 C   0  0  0  0  0  0  0  0  0  0  0  0
  -14.0078    7.4438   14.0616 C   0  0  2  0  0  0  0  0  0  0  0  0
  -14.0870    8.2373   12.8626 O   0  0  0  0  0  0  0  0  0  0  0  0
  -14.2731    6.0652   13.6925 C   0  0  0  0  0  0  0  0  0  0  0  0
  -12.5509    7.6061   14.5946 C   0  0  0  0  0  0  0  0  0  0  0  0
  -12.2979    9.0238   15.0126 O   0  0  0  0  0  0  0  0  0  0  0  0
  1  2  1  1  0  0  0
  1  3  1  0  0  0  0
  1 10  1  0  0  0  0
  3  4  1  1  0  0  0
  3  5  1  0  0  0  0
  5  6  1  6  0  0  0
  5  7  1  0  0  0  0
  7  8  1  1  0  0  0
  7  9  1  0  0  0  0
  9 10  1  6  0  0  0
  9 11  1  0  0  0  0
 11 12  1  1  0  0  0
 11 13  1  0  0  0  0
 14 15  1  6  0  0  0
 14 16  1  0  0  0  0
 14 22  1  0  0  0  0
 16 17  1  0  0  0  0
 17 18  1  1  0  0  0
 17 19  1  0  0  0  0
 19  2  1  1  0  0  0
 19 20  1  0  0  0  0
 20 21  1  6  0  0  0
 20 22  1  0  0  0  0
 22 23  1  6  0  0  0
 24 23  1  1  0  0  0
 24 25  1  0  0  0  0
 24 34  1  0  0  0  0
 25 26  1  1  0  0  0
 25 27  1  0  0  0  0
 27 28  1  6  0  0  0
 27 30  1  0  0  0  0
 28 29  1  0  0  0  0
 30 31  1  6  0  0  0
 30 32  1  0  0  0  0
 30 33  1  0  0  0  0
 33 34  1  0  0  0  0
M  CHG  4   4   1  15   1  18   1  28   1
M  END
>  <CHROM.1>
-132.18638736,-170.49258651,-83.56515402,-163.33041154,39.90158315,-61.24641900
53.78537052,64.44790389,44.63223771,-59.81047788,96.11154767,-148.12370737
-69.13252168,38.24265600,58.38972946,-11.54878200,7.41574823,18.78819927
-0.02836314,0.87304020,-2.73070789

>  <Name>
1mwl

>  <RI>
0

>  <Rbt.Current_Directory>
/home/itssahil/PROJECTS/Mol_Feturizer/New_Systems/rnas/1mwl

>  <Rbt.Executable>
rbdock ($Id: //depot/dev/client3/rdock/2013.1/src/exe/rbdock.cxx#4 $)

>  <Rbt.Library>
libRbt.so (2013.1, Build901 2013/11/27)

>  <Rbt.Parameter_File>
/export/apps/rDock/src/rDock_2013.1_src/data/scripts/dock_solv.prm

>  <Rbt.Receptor>
prm/pocket_docking_2.prm

>  <SCORE>
-84.4856

>  <SCORE.INTER>
-65.7253

>  <SCORE.INTER.CONST>
1

>  <SCORE.INTER.POLAR>
-8.82908

>  <SCORE.INTER.ROT>
6

>  <SCORE.INTER.SOLV>
24.6723

>  <SCORE.INTER.VDW>
-30.2107

>  <SCORE.INTER.norm>
-1.9331

>  <SCORE.INTRA>
-18.7603

>  <SCORE.INTRA.DIHEDRAL>
-19.8468

>  <SCORE.INTRA.DIHEDRAL.0>
42.0816

>  <SCORE.INTRA.POLAR>
-1.87616

>  <SCORE.INTRA.POLAR.0>
-0.254682

>  <SCORE.INTRA.REPUL>
0

>  <SCORE.INTRA.REPUL.0>
0

>  <SCORE.INTRA.SOLV>
0.509472

>  <SCORE.INTRA.SOLV.lig_0>
-109.803

>  <SCORE.INTRA.VDW>
-2.71273

>  <SCORE.INTRA.VDW.0>
0.32176

>  <SCORE.INTRA.norm>
-0.551774

>  <SCORE.RESTR>
0

>  <SCORE.RESTR.CAVITY>
0

>  <SCORE.RESTR.norm>
0

>  <SCORE.SYSTEM>
0

>  <SCORE.SYSTEM.CONST>
0

>  <SCORE.SYSTEM.DIHEDRAL>
0

>  <SCORE.SYSTEM.SOLV>
0

>  <SCORE.SYSTEM.norm>
0

>  <SCORE.heavy>
34

>  <SCORE.norm>
-2.48487

>  <RMSD>
0.900

$$$$
1mwl
 OpenBabel11021811403D
libRbt.so/2013.1/901 2013/11/27
 34 36  0  0  0  0  0  0  0  0999 V2000
   -9.1250    6.0470   20.0419 C   0  0  2  0  0  0  0  0  0  0  0  0
  -10.0186    6.9282   20.6532 O   0  0  0  0  0  0  0  0  0  0  0  0
   -9.7256    4.6181   20.1609 C   0  0  2  0  0  0  0  0  0  0  0  0
  -11.0420    4.5681   19.5175 N   0  3  0  0  0  0  0  0  0  0  0  0
   -9.8031    4.1780   21.6522 C   0  0  1  0  0  0  0  0  0  0  0  0
  -10.3027    2.9216   21.7625 O   0  0  0  0  0  0  0  0  0  0  0  0
   -8.3695    4.2631   22.2727 C   0  0  2  0  0  0  0  0  0  0  0  0
   -8.4023    3.8516   23.6554 O   0  0  0  0  0  0  0  0  0  0  0  0
   -7.8575    5.7367   22.1307 C   0  0  2  0  0  0  0  0  0  0  0  0
   -7.8392    6.1392   20.7070 O   0  0  0  0  0  0  0  0  0  0  0  0
   -6.4454    5.9787   22.6759 C   0  0  2  0  0  0  0  0  0  0  0  0
   -6.4334    5.7764   24.0515 O   0  0  0  0  0  0  0  0  0  0  0  0
   -5.9332    7.4124   22.4466 C   0  0  0  0  0  0  0  0  0  0  0  0
  -12.9446    9.6230   19.0924 C   0  0  2  0  0  0  0  0  0  0  0  0
  -13.5544   10.7932   18.4113 N   0  3  0  0  0  0  0  0  0  0  0  0
  -12.1052   10.0779   20.3230 C   0  0  0  0  0  0  0  0  0  0  0  0
  -11.4494    8.8343   21.0256 C   0  0  2  0  0  0  0  0  0  0  0  0
  -10.6520    9.3048   22.2169 N   0  3  0  0  0  0  0  0  0  0  0  0
  -10.5524    8.0689   19.9932 C   0  0  2  0  0  0  0  0  0  0  0  0
  -11.4160    7.6230   18.7879 C   0  0  2  0  0  0  0  0  0  0  0  0
  -10.5938    6.9674   17.8528 O   0  0  0  0  0  0  0  0  0  0  0  0
  -12.0430    8.8631   18.0963 C   0  0  1  0  0  0  0  0  0  0  0  0
  -12.8274    8.4314   16.9941 O   0  0  0  0  0  0  0  0  0  0  0  0
  -12.7954    9.1824   15.8119 C   0  0  2  0  0  0  0  0  0  0  0  0
  -14.2420    9.2898   15.2936 C   0  0  2  0  0  0  0  0  0  0  0  0
  -15.0275    9.9583   16.2573 O   0  0  0  0  0  0  0  0  0  0  0  0
  -14.7982    7.8503   15.0230 C   0  0  1  0  0  0  0  0  0  0  0  0
  -16.2030    7.8647   14.5472 N   0  3  0  0  0  0  0  0  0  0  0  0
  -17.1478    7.8094   15.6919 C   0  0  0  0  0  0  0  0  0  0  0  0
  -13.8840    7.1346   13.9698 C   0  0  2  0  0  0  0  0  0  0  0  0
  -13.8798    7.8801   12.7379 O   0  0  0  0  0  0  0  0  0  0  0  0
  -14.3472    5.7924   13.6677 C   0  0  0  0  0  0  0  0  0  0  0  0
  -12.4067    7.1134   14.4700 C   0  0  0  0  0  0  0  0  0  0  0  0
  -11.9491    8.4981   14.8194 O   0  0  0  0  0  0  0  0  0  0  0  0
  1  2  1  1  0  0  0
  1  3  1  0  0  0  0
  1 10  1  0  0  0  0
  3  4  1  1  0  0  0
  3  5  1  0  0  0  0
  5  6  1  6  0  0  0
  5  7  1  0  0  0  0
  7  8  1  1  0  0  0
  7  9  1  0  0  0  0
  9 10  1  6  0  0  0
  9 11  1  0  0  0  0
 11 12  1  1  0  0  0
 11 13  1  0  0  0  0
 14 15  1  6  0  0  0
 14 16  1  0  0  0  0
 14 22  1  0  0  0  0
 16 17  1  0  0  0  0
 17 18  1  1  0  0  0
 17 19  1  0  0  0  0
 19  2  1  1  0  0  0
 19 20  1  0  0  0  0
 20 21  1  6  0  0  0
 20 22  1  0  0  0  0
 22 23  1  6  0  0  0
 24 23  1  1  0  0  0
 24 25  1  0  0  0  0
 24 34  1  0  0  0  0
 25 26  1  1  0  0  0
 25 27  1  0  0  0  0
 27 28  1  6  0  0  0
 27 30  1  0  0  0  0
 28 29  1  0  0  0  0
 30 31  1  6  0  0  0
 30 32  1  0  0  0  0
 30 33  1  0  0  0  0
 33 34  1  0  0  0  0
M  CHG  4   4   1  15   1  18   1  28   1
M  END
>  <CHROM.1>
-125.50596187,-177.22175027,160.04168517,-166.02677631,40.41320436,-64.79726095
170.63028989,51.45733647,-76.48667029,-55.42865976,99.50023219,-137.26944730
118.17131734,30.58742108,178.87037703,-11.36261345,7.20997943,18.74153012
-0.07649450,0.89382498,-2.68485160

>  <Name>
1mwl

>  <RI>
0

>  <Rbt.Current_Directory>
/home/itssahil/PROJECTS/Mol_Feturizer/New_Systems/rnas/1mwl

>  <Rbt.Executable>
rbdock ($Id: //depot/dev/client3/rdock/2013.1/src/exe/rbdock.cxx#4 $)

>  <Rbt.Library>
libRbt.so (2013.1, Build901 2013/11/27)

>  <Rbt.Parameter_File>
/export/apps/rDock/src/rDock_2013.1_src/data/scripts/dock_solv.prm

>  <Rbt.Receptor>
prm/pocket_docking_2.prm

>  <SCORE>
-89.0968

>  <SCORE.INTER>
-77.0195

>  <SCORE.INTER.CONST>
1

>  <SCORE.INTER.POLAR>
-11.0397

>  <SCORE.INTER.ROT>
6

>  <SCORE.INTER.SOLV>
25.4388

>  <SCORE.INTER.VDW>
-30.6268

>  <SCORE.INTER.norm>
-2.26528

>  <SCORE.INTRA>
-12.0773

>  <SCORE.INTRA.DIHEDRAL>
-9.89364

>  <SCORE.INTRA.DIHEDRAL.0>
42.0816

>  <SCORE.INTRA.POLAR>
-1.89839

>  <SCORE.INTRA.POLAR.0>
-0.254682

>  <SCORE.INTRA.REPUL>
0

>  <SCORE.INTRA.REPUL.0>
0

>  <SCORE.INTRA.SOLV>
1.63719

>  <SCORE.INTRA.SOLV.lig_0>
-109.803

>  <SCORE.INTRA.VDW>
-1.49455

>  <SCORE.INTRA.VDW.0>
0.32176

>  <SCORE.INTRA.norm>
-0.355214

>  <SCORE.RESTR>
0

>  <SCORE.RESTR.CAVITY>
0

>  <SCORE.RESTR.norm>
0

>  <SCORE.SYSTEM>
0

>  <SCORE.SYSTEM.CONST>
0

>  <SCORE.SYSTEM.DIHEDRAL>
0

>  <SCORE.SYSTEM.SOLV>
0

>  <SCORE.SYSTEM.norm>
0

>  <SCORE.heavy>
34

>  <SCORE.norm>
-2.62049

>  <RMSD>
0.903

$$$$
1mwl
 OpenBabel11021811403D
libRbt.so/2013.1/901 2013/11/27
 34 36  0  0  0  0  0  0  0  0999 V2000
   -9.1686    6.0599   19.9299 C   0  0  2  0  0  0  0  0  0  0  0  0
  -10.0819    6.9067   20.5604 O   0  0  0  0  0  0  0  0  0  0  0  0
   -9.7119    4.6092   20.0609 C   0  0  2  0  0  0  0  0  0  0  0  0
  -11.0387    4.5090   19.4454 N   0  3  0  0  0  0  0  0  0  0  0  0
   -9.7411    4.1669   21.5533 C   0  0  1  0  0  0  0  0  0  0  0  0
  -10.1902    2.8925   21.6735 O   0  0  0  0  0  0  0  0  0  0  0  0
   -8.2990    4.3066   22.1435 C   0  0  2  0  0  0  0  0  0  0  0  0
   -8.2870    3.8947   23.5263 O   0  0  0  0  0  0  0  0  0  0  0  0
   -7.8465    5.7986   21.9914 C   0  0  2  0  0  0  0  0  0  0  0  0
   -7.8735    6.2010   20.5678 O   0  0  0  0  0  0  0  0  0  0  0  0
   -6.4334    6.0942   22.5068 C   0  0  2  0  0  0  0  0  0  0  0  0
   -6.3625    5.8133   23.8667 O   0  0  0  0  0  0  0  0  0  0  0  0
   -6.0149    7.5674   22.3485 C   0  0  0  0  0  0  0  0  0  0  0  0
  -13.0072    9.6656   19.1146 C   0  0  2  0  0  0  0  0  0  0  0  0
  -13.6169   10.8581   18.4730 N   0  3  0  0  0  0  0  0  0  0  0  0
  -12.1447   10.0817   20.3430 C   0  0  0  0  0  0  0  0  0  0  0  0
  -11.4894    8.8150   21.0034 C   0  0  2  0  0  0  0  0  0  0  0  0
  -10.6694    9.2481   22.1936 N   0  3  0  0  0  0  0  0  0  0  0  0
  -10.6155    8.0684   19.9379 C   0  0  2  0  0  0  0  0  0  0  0  0
  -11.5017    7.6609   18.7355 C   0  0  2  0  0  0  0  0  0  0  0  0
  -10.7002    7.0222   17.7713 O   0  0  0  0  0  0  0  0  0  0  0  0
  -12.1281    8.9236   18.0855 C   0  0  1  0  0  0  0  0  0  0  0  0
  -12.9334    8.5269   16.9852 O   0  0  0  0  0  0  0  0  0  0  0  0
  -12.9635    9.3424   15.8465 C   0  0  2  0  0  0  0  0  0  0  0  0
  -14.4209    9.3884   15.3496 C   0  0  2  0  0  0  0  0  0  0  0  0
  -15.2327    9.9529   16.3570 O   0  0  0  0  0  0  0  0  0  0  0  0
  -14.8915    7.9342   15.0048 C   0  0  1  0  0  0  0  0  0  0  0  0
  -16.3008    7.8878   14.5447 N   0  3  0  0  0  0  0  0  0  0  0  0
  -17.2246    7.7078   15.6938 C   0  0  0  0  0  0  0  0  0  0  0  0
  -13.9494    7.3356   13.9042 C   0  0  2  0  0  0  0  0  0  0  0  0
  -14.0076    8.1465   12.7157 O   0  0  0  0  0  0  0  0  0  0  0  0
  -14.3336    5.9860   13.5324 C   0  0  0  0  0  0  0  0  0  0  0  0
  -12.4669    7.3784   14.3874 C   0  0  0  0  0  0  0  0  0  0  0  0
  -12.0904    8.7675   14.8088 O   0  0  0  0  0  0  0  0  0  0  0  0
  1  2  1  1  0  0  0
  1  3  1  0  0  0  0
  1 10  1  0  0  0  0
  3  4  1  1  0  0  0
  3  5  1  0  0  0  0
  5  6  1  6  0  0  0
  5  7  1  0  0  0  0
  7  8  1  1  0  0  0
  7  9  1  0  0  0  0
  9 10  1  6  0  0  0
  9 11  1  0  0  0  0
 11 12  1  1  0  0  0
 11 13  1  0  0  0  0
 14 15  1  6  0  0  0
 14 16  1  0  0  0  0
 14 22  1  0  0  0  0
 16 17  1  0  0  0  0
 17 18  1  1  0  0  0
 17 19  1  0  0  0  0
 19  2  1  1  0  0  0
 19 20  1  0  0  0  0
 20 21  1  6  0  0  0
 20 22  1  0  0  0  0
 22 23  1  6  0  0  0
 24 23  1  1  0  0  0
 24 25  1  0  0  0  0
 24 34  1  0  0  0  0
 25 26  1  1  0  0  0
 25 27  1  0  0  0  0
 27 28  1  6  0  0  0
 27 30  1  0  0  0  0
 28 29  1  0  0  0  0
 30 31  1  6  0  0  0
 30 32  1  0  0  0  0
 30 33  1  0  0  0  0
 33 34  1  0  0  0  0
M  CHG  4   4   1  15   1  18   1  28   1
M  END
>  <CHROM.1>
-129.12848400,-174.84037399,-83.55196630,179.41203509,-46.48251699,-61.12031237
53.12242329,-62.15414808,-76.64379267,-53.86276724,96.41939126,-139.26295808
171.37664229,30.44775816,178.98089079,-11.41335380,7.27085371,18.68811621
-0.07838031,0.88088416,-2.66583584

>  <Name>
1mwl

>  <RI>
0

>  <Rbt.Current_Directory>
/home/itssahil/PROJECTS/Mol_Feturizer/New_Systems/rnas/1mwl

>  <Rbt.Executable>
rbdock ($Id: //depot/dev/client3/rdock/2013.1/src/exe/rbdock.cxx#4 $)

>  <Rbt.Library>
libRbt.so (2013.1, Build901 2013/11/27)

>  <Rbt.Parameter_File>
/export/apps/rDock/src/rDock_2013.1_src/data/scripts/dock_solv.prm

>  <Rbt.Receptor>
prm/pocket_docking_2.prm

>  <SCORE>
-89.9268

>  <SCORE.INTER>
-70.2713

>  <SCORE.INTER.CONST>
1

>  <SCORE.INTER.POLAR>
-9.27859

>  <SCORE.INTER.ROT>
6

>  <SCORE.INTER.SOLV>
25.3718

>  <SCORE.INTER.VDW>
-31.9762

>  <SCORE.INTER.norm>
-2.0668

>  <SCORE.INTRA>
-19.6731

>  <SCORE.INTRA.DIHEDRAL>
-19.5232

>  <SCORE.INTRA.DIHEDRAL.0>
42.0816

>  <SCORE.INTRA.POLAR>
-2.49118

>  <SCORE.INTRA.POLAR.0>
-0.254682

>  <SCORE.INTRA.REPUL>
0

>  <SCORE.INTRA.REPUL.0>
0

>  <SCORE.INTRA.SOLV>
1.50068

>  <SCORE.INTRA.SOLV.lig_0>
-109.803

>  <SCORE.INTRA.VDW>
-2.19184

>  <SCORE.INTRA.VDW.0>
0.32176

>  <SCORE.INTRA.norm>
-0.578621

>  <SCORE.RESTR>
0.0176869

>  <SCORE.RESTR.CAVITY>
0.0176869

>  <SCORE.RESTR.norm>
0.000520204

>  <SCORE.SYSTEM>
0

>  <SCORE.SYSTEM.CONST>
0

>  <SCORE.SYSTEM.DIHEDRAL>
0

>  <SCORE.SYSTEM.SOLV>
0

>  <SCORE.SYSTEM.norm>
0

>  <SCORE.heavy>
34

>  <SCORE.norm>
-2.6449

>  <RMSD>
0.905

$$$$
1mwl
 OpenBabel11021811403D
libRbt.so/2013.1/901 2013/11/27
 34 36  0  0  0  0  0  0  0  0999 V2000
   -9.4785    5.8794   19.8878 C   0  0  2  0  0  0  0  0  0  0  0  0
  -10.3851    6.7218   20.5338 O   0  0  0  0  0  0  0  0  0  0  0  0
   -9.9508    4.4174   20.1256 C   0  0  2  0  0  0  0  0  0  0  0  0
  -11.3085    4.2338   19.6037 N   0  3  0  0  0  0  0  0  0  0  0  0
   -9.8671    4.0528   21.6368 C   0  0  1  0  0  0  0  0  0  0  0  0
  -10.2536    2.7699   21.8490 O   0  0  0  0  0  0  0  0  0  0  0  0
   -8.3978    4.2791   22.1241 C   0  0  2  0  0  0  0  0  0  0  0  0
   -8.2811    3.9405   23.5219 O   0  0  0  0  0  0  0  0  0  0  0  0
   -8.0191    5.7775   21.8691 C   0  0  2  0  0  0  0  0  0  0  0  0
   -8.1528    6.1038   20.4321 O   0  0  0  0  0  0  0  0  0  0  0  0
   -6.5899    6.1543   22.2760 C   0  0  2  0  0  0  0  0  0  0  0  0
   -6.3718    5.7997   23.6026 O   0  0  0  0  0  0  0  0  0  0  0  0
   -6.2989    7.6631   22.1795 C   0  0  0  0  0  0  0  0  0  0  0  0
  -13.0144    9.9229   19.4855 C   0  0  2  0  0  0  0  0  0  0  0  0
  -13.5115   11.2074   18.9303 N   0  3  0  0  0  0  0  0  0  0  0  0
  -11.9469   10.1773   20.5909 C   0  0  0  0  0  0  0  0  0  0  0  0
  -11.4141    8.8121   21.1588 C   0  0  2  0  0  0  0  0  0  0  0  0
  -10.3906    9.0905   22.2319 N   0  3  0  0  0  0  0  0  0  0  0  0
  -10.8100    7.9639   19.9875 C   0  0  2  0  0  0  0  0  0  0  0  0
  -11.8959    7.7211   18.9110 C   0  0  2  0  0  0  0  0  0  0  0  0
  -11.3331    6.9884   17.8496 O   0  0  0  0  0  0  0  0  0  0  0  0
  -12.3997    9.0776   18.3496 C   0  0  1  0  0  0  0  0  0  0  0  0
  -13.3916    8.8312   17.3637 O   0  0  0  0  0  0  0  0  0  0  0  0
  -13.1793    9.3078   16.0636 C   0  0  2  0  0  0  0  0  0  0  0  0
  -14.5379    9.2910   15.3378 C   0  0  2  0  0  0  0  0  0  0  0  0
  -15.4320   10.1477   16.0154 O   0  0  0  0  0  0  0  0  0  0  0  0
  -15.0862    7.8235   15.3094 C   0  0  1  0  0  0  0  0  0  0  0  0
  -16.4115    7.7254   14.6505 N   0  3  0  0  0  0  0  0  0  0  0  0
  -17.5014    8.0377   15.6100 C   0  0  0  0  0  0  0  0  0  0  0  0
  -14.0534    6.9022   14.5735 C   0  0  2  0  0  0  0  0  0  0  0  0
  -13.8619    7.3624   13.2226 O   0  0  0  0  0  0  0  0  0  0  0  0
  -14.5029    5.5235   14.5066 C   0  0  0  0  0  0  0  0  0  0  0  0
  -12.6598    6.9994   15.2674 C   0  0  0  0  0  0  0  0  0  0  0  0
  -12.2214    8.4298   15.3700 O   0  0  0  0  0  0  0  0  0  0  0  0
  1  2  1  1  0  0  0
  1  3  1  0  0  0  0
  1 10  1  0  0  0  0
  3  4  1  1  0  0  0
  3  5  1  0  0  0  0
  5  6  1  6  0  0  0
  5  7  1  0  0  0  0
  7  8  1  1  0  0  0
  7  9  1  0  0  0  0
  9 10  1  6  0  0  0
  9 11  1  0  0  0  0
 11 12  1  1  0  0  0
 11 13  1  0  0  0  0
 14 15  1  6  0  0  0
 14 16  1  0  0  0  0
 14 22  1  0  0  0  0
 16 17  1  0  0  0  0
 17 18  1  1  0  0  0
 17 19  1  0  0  0  0
 19  2  1  1  0  0  0
 19 20  1  0  0  0  0
 20 21  1  6  0  0  0
 20 22  1  0  0  0  0
 22 23  1  6  0  0  0
 24 23  1  1  0  0  0
 24 25  1  0  0  0  0
 24 34  1  0  0  0  0
 25 26  1  1  0  0  0
 25 27  1  0  0  0  0
 27 28  1  6  0  0  0
 27 30  1  0  0  0  0
 28 29  1  0  0  0  0
 30 31  1  6  0  0  0
 30 32  1  0  0  0  0
 30 33  1  0  0  0  0
 33 34  1  0  0  0  0
M  CHG  4   4   1  15   1  18   1  28   1
M  END
>  <CHROM.1>
-141.49239492,-161.50763097,-39.30969783,-174.27815814,-6.13112129,-54.08559293
173.84243549,-53.96272403,-63.92513631,71.96976249,118.82990396,-163.15598768
83.50385103,35.82215418,54.13431271,-11.56007457,7.20123814,18.84846821,0.03756247
0.85014177,-2.79771330

>  <Name>
1mwl

>  <RI>
0

>  <Rbt.Current_Directory>
/home/itssahil/PROJECTS/Mol_Feturizer/New_Systems/rnas/1mwl

>  <Rbt.Executable>
rbdock ($Id: //depot/dev/client3/rdock/2013.1/src/exe/rbdock.cxx#4 $)

>  <Rbt.Library>
libRbt.so (2013.1, Build901 2013/11/27)

>  <Rbt.Parameter_File>
/export/apps/rDock/src/rDock_2013.1_src/data/scripts/dock_solv.prm

>  <Rbt.Receptor>
prm/pocket_docking_4.prm

>  <SCORE>
-75.8902

>  <SCORE.INTER>
-67.7664

>  <SCORE.INTER.CONST>
1

>  <SCORE.INTER.POLAR>
-9.71467

>  <SCORE.INTER.ROT>
6

>  <SCORE.INTER.SOLV>
23.5373

>  <SCORE.INTER.VDW>
-28.2411

>  <SCORE.INTER.norm>
-1.99313

>  <SCORE.INTRA>
-8.12383

>  <SCORE.INTRA.DIHEDRAL>
-13.7554

>  <SCORE.INTRA.DIHEDRAL.0>
42.0816

>  <SCORE.INTRA.POLAR>
0.193188

>  <SCORE.INTRA.POLAR.0>
-0.254682

>  <SCORE.INTRA.REPUL>
0

>  <SCORE.INTRA.REPUL.0>
0

>  <SCORE.INTRA.SOLV>
0.134755

>  <SCORE.INTRA.SOLV.lig_0>
-109.803

>  <SCORE.INTRA.VDW>
-1.97033

>  <SCORE.INTRA.VDW.0>
0.32176

>  <SCORE.INTRA.norm>
-0.238936

>  <SCORE.RESTR>
0

>  <SCORE.RESTR.CAVITY>
0

>  <SCORE.RESTR.norm>
0

>  <SCORE.SYSTEM>
0

>  <SCORE.SYSTEM.CONST>
0

>  <SCORE.SYSTEM.DIHEDRAL>
0

>  <SCORE.SYSTEM.SOLV>
0

>  <SCORE.SYSTEM.norm>
0

>  <SCORE.heavy>
34

>  <SCORE.norm>
-2.23206

>  <RMSD>
0.907

$$$$
1mwl
 OpenBabel11021811403D
libRbt.so/2013.1/901 2013/11/27
 34 36  0  0  0  0  0  0  0  0999 V2000
   -9.3836    6.0877   19.9483 C   0  0  2  0  0  0  0  0  0  0  0  0
  -10.2824    6.9533   20.5739 O   0  0  0  0  0  0  0  0  0  0  0  0
   -9.9333    4.6434   20.1183 C   0  0  2  0  0  0  0  0  0  0  0  0
  -11.2698    4.5383   19.5248 N   0  3  0  0  0  0  0  0  0  0  0  0
   -9.9428    4.2333   21.6200 C   0  0  1  0  0  0  0  0  0  0  0  0
  -10.3973    2.9645   21.7741 O   0  0  0  0  0  0  0  0  0  0  0  0
   -8.4912    4.3767   22.1856 C   0  0  2  0  0  0  0  0  0  0  0  0
   -8.4608    3.9942   23.5767 O   0  0  0  0  0  0  0  0  0  0  0  0
   -8.0323    5.8623   21.9950 C   0  0  2  0  0  0  0  0  0  0  0  0
   -8.0783    6.2344   20.5636 O   0  0  0  0  0  0  0  0  0  0  0  0
   -6.6099    6.1602   22.4829 C   0  0  2  0  0  0  0  0  0  0  0  0
   -6.5066    5.8598   23.8366 O   0  0  0  0  0  0  0  0  0  0  0  0
   -6.2049    7.6384   22.3371 C   0  0  0  0  0  0  0  0  0  0  0  0
  -13.1310    9.8212   19.1882 C   0  0  2  0  0  0  0  0  0  0  0  0
  -13.7093   11.0298   18.5476 N   0  3  0  0  0  0  0  0  0  0  0  0
  -12.2030   10.2175   20.3747 C   0  0  0  0  0  0  0  0  0  0  0  0
  -11.5819    8.9330   21.0337 C   0  0  2  0  0  0  0  0  0  0  0  0
  -10.6970    9.3476   22.1834 N   0  3  0  0  0  0  0  0  0  0  0  0
  -10.7855    8.1279   19.9502 C   0  0  2  0  0  0  0  0  0  0  0  0
  -11.7357    7.7417   18.7904 C   0  0  2  0  0  0  0  0  0  0  0  0
  -11.0027    7.0495   17.8087 O   0  0  0  0  0  0  0  0  0  0  0  0
  -12.3278    9.0210   18.1407 C   0  0  1  0  0  0  0  0  0  0  0  0
  -13.1928    8.6437   17.0796 O   0  0  0  0  0  0  0  0  0  0  0  0
  -13.2089    9.4242   15.9164 C   0  0  2  0  0  0  0  0  0  0  0  0
  -14.6455    9.3965   15.3613 C   0  0  2  0  0  0  0  0  0  0  0  0
  -15.5193    9.9561   16.3183 O   0  0  0  0  0  0  0  0  0  0  0  0
  -15.0438    7.9150   15.0424 C   0  0  1  0  0  0  0  0  0  0  0  0
  -16.4304    7.7980   14.5288 N   0  3  0  0  0  0  0  0  0  0  0  0
  -17.4006    7.6973   15.6489 C   0  0  0  0  0  0  0  0  0  0  0  0
  -14.0349    7.3239   13.9985 C   0  0  2  0  0  0  0  0  0  0  0  0
  -14.0768    8.0973   12.7846 O   0  0  0  0  0  0  0  0  0  0  0  0
  -14.3499    5.9496   13.6529 C   0  0  0  0  0  0  0  0  0  0  0  0
  -12.5761    7.4410   14.5383 C   0  0  0  0  0  0  0  0  0  0  0  0
  -12.2723    8.8558   14.9319 O   0  0  0  0  0  0  0  0  0  0  0  0
  1  2  1  1  0  0  0
  1  3  1  0  0  0  0
  1 10  1  0  0  0  0
  3  4  1  1  0  0  0
  3  5  1  0  0  0  0
  5  6  1  6  0  0  0
  5  7  1  0  0  0  0
  7  8  1  1  0  0  0
  7  9  1  0  0  0  0
  9 10  1  6  0  0  0
  9 11  1  0  0  0  0
 11 12  1  1  0  0  0
 11 13  1  0  0  0  0
 14 15  1  6  0  0  0
 14 16  1  0  0  0  0
 14 22  1  0  0  0  0
 16 17  1  0  0  0  0
 17 18  1  1  0  0  0
 17 19  1  0  0  0  0
 19  2  1  1  0  0  0
 19 20  1  0  0  0  0
 20 21  1  6  0  0  0
 20 22  1  0  0  0  0
 22 23  1  6  0  0  0
 24 23  1  1  0  0  0
 24 25  1  0  0  0  0
 24 34  1  0  0  0  0
 25 26  1  1  0  0  0
 25 27  1  0  0  0  0
 27 28  1  6  0  0  0
 27 30  1  0  0  0  0
 28 29  1  0  0  0  0
 30 31  1  6  0  0  0
 30 32  1  0  0  0  0
 30 33  1  0  0  0  0
 33 34  1  0  0  0  0
M  CHG  4   4   1  15   1  18   1  28   1
M  END
>  <CHROM.1>
-131.20072610,-171.64898793,-82.30839824,60.23633142,40.13807964,-58.88541145
-58.96129701,-178.86350591,44.61347911,-61.30103154,97.73089888,-146.53283000
-79.18171440,33.92224989,-177.36735526,-11.58093118,7.32152856,18.72764020
-0.04458967,0.88047696,-2.71441199

>  <Name>
1mwl

>  <RI>
0

>  <Rbt.Current_Directory>
/home/itssahil/PROJECTS/Mol_Feturizer/New_Systems/rnas/1mwl

>  <Rbt.Executable>
rbdock ($Id: //depot/dev/client3/rdock/2013.1/src/exe/rbdock.cxx#4 $)

>  <Rbt.Library>
libRbt.so (2013.1, Build901 2013/11/27)

>  <Rbt.Parameter_File>
/export/apps/rDock/src/rDock_2013.1_src/data/scripts/dock_solv.prm

>  <Rbt.Receptor>
prm/pocket_docking_3.prm

>  <SCORE>
-86.8689

>  <SCORE.INTER>
-70.7806

>  <SCORE.INTER.CONST>
1

>  <SCORE.INTER.POLAR>
-9.83556

>  <SCORE.INTER.ROT>
6

>  <SCORE.INTER.SOLV>
24.8035

>  <SCORE.INTER.VDW>
-30.2697

>  <SCORE.INTER.norm>
-2.08178

>  <SCORE.INTRA>
-16.0883

>  <SCORE.INTRA.DIHEDRAL>
-19.1888

>  <SCORE.INTRA.DIHEDRAL.0>
42.0816

>  <SCORE.INTRA.POLAR>
-1.40328

>  <SCORE.INTRA.POLAR.0>
-0.254682

>  <SCORE.INTRA.REPUL>
0

>  <SCORE.INTRA.REPUL.0>
0

>  <SCORE.INTRA.SOLV>
0.628613

>  <SCORE.INTRA.SOLV.lig_0>
-109.803

>  <SCORE.INTRA.VDW>
-2.03705

>  <SCORE.INTRA.VDW.0>
0.32176

>  <SCORE.INTRA.norm>
-0.473185

>  <SCORE.RESTR>
0

>  <SCORE.RESTR.CAVITY>
0

>  <SCORE.RESTR.norm>
0

>  <SCORE.SYSTEM>
0

>  <SCORE.SYSTEM.CONST>
0

>  <SCORE.SYSTEM.DIHEDRAL>
0

>  <SCORE.SYSTEM.SOLV>
0

>  <SCORE.SYSTEM.norm>
0

>  <SCORE.heavy>
34

>  <SCORE.norm>
-2.55497

>  <RMSD>
0.929

$$$$
1mwl
 OpenBabel11021811403D
libRbt.so/2013.1/901 2013/11/27
 34 36  0  0  0  0  0  0  0  0999 V2000
   -9.0783    6.0242   19.8993 C   0  0  2  0  0  0  0  0  0  0  0  0
   -9.9966    6.8579   20.5398 O   0  0  0  0  0  0  0  0  0  0  0  0
   -9.6231    4.5713   19.9951 C   0  0  2  0  0  0  0  0  0  0  0  0
  -10.9449    4.4848   19.3666 N   0  3  0  0  0  0  0  0  0  0  0  0
   -9.6650    4.0976   21.4775 C   0  0  1  0  0  0  0  0  0  0  0  0
  -10.1154    2.8212   21.5670 O   0  0  0  0  0  0  0  0  0  0  0  0
   -8.2278    4.2242   22.0824 C   0  0  2  0  0  0  0  0  0  0  0  0
   -8.2273    3.7831   23.4564 O   0  0  0  0  0  0  0  0  0  0  0  0
   -7.7735    5.7188   21.9657 C   0  0  2  0  0  0  0  0  0  0  0  0
   -7.7885    6.1512   20.5507 O   0  0  0  0  0  0  0  0  0  0  0  0
   -6.3646    6.0028   22.4989 C   0  0  2  0  0  0  0  0  0  0  0  0
   -6.1733    5.3277   23.6993 O   0  0  0  0  0  0  0  0  0  0  0  0
   -6.1059    7.4913   22.7954 C   0  0  0  0  0  0  0  0  0  0  0  0
  -12.9295    9.6493   19.1741 C   0  0  2  0  0  0  0  0  0  0  0  0
  -13.5431   10.8491   18.5500 N   0  3  0  0  0  0  0  0  0  0  0  0
  -12.0310   10.0546   20.3801 C   0  0  0  0  0  0  0  0  0  0  0  0
  -11.3721    8.7801   21.0217 C   0  0  2  0  0  0  0  0  0  0  0  0
  -10.5169    9.2029   22.1906 N   0  3  0  0  0  0  0  0  0  0  0  0
  -10.5340    8.0260   19.9329 C   0  0  2  0  0  0  0  0  0  0  0  0
  -11.4554    7.6296   18.7535 C   0  0  2  0  0  0  0  0  0  0  0  0
  -10.6859    6.9840   17.7680 O   0  0  0  0  0  0  0  0  0  0  0  0
  -12.0852    8.8997   18.1215 C   0  0  1  0  0  0  0  0  0  0  0  0
  -12.9230    8.5131   17.0421 O   0  0  0  0  0  0  0  0  0  0  0  0
  -12.9735    9.3301   15.9051 C   0  0  2  0  0  0  0  0  0  0  0  0
  -14.4325    9.3448   15.4113 C   0  0  2  0  0  0  0  0  0  0  0  0
  -15.2546    9.8891   16.4215 O   0  0  0  0  0  0  0  0  0  0  0  0
  -14.8715    7.8813   15.0643 C   0  0  1  0  0  0  0  0  0  0  0  0
  -16.2804    7.8047   14.6070 N   0  3  0  0  0  0  0  0  0  0  0  0
  -17.2067    7.7223   15.7651 C   0  0  0  0  0  0  0  0  0  0  0  0
  -13.9187    7.3060   13.9606 C   0  0  2  0  0  0  0  0  0  0  0  0
  -13.9972    8.1179   12.7740 O   0  0  0  0  0  0  0  0  0  0  0  0
  -14.2736    5.9490   13.5866 C   0  0  0  0  0  0  0  0  0  0  0  0
  -12.4365    7.3806   14.4409 C   0  0  0  0  0  0  0  0  0  0  0  0
  -12.0900    8.7768   14.8645 O   0  0  0  0  0  0  0  0  0  0  0  0
  1  2  1  1  0  0  0
  1  3  1  0  0  0  0
  1 10  1  0  0  0  0
  3  4  1  1  0  0  0
  3  5  1  0  0  0  0
  5  6  1  6  0  0  0
  5  7  1  0  0  0  0
  7  8  1  1  0  0  0
  7  9  1  0  0  0  0
  9 10  1  6  0  0  0
  9 11  1  0  0  0  0
 11 12  1  1  0  0  0
 11 13  1  0  0  0  0
 14 15  1  6  0  0  0
 14 16  1  0  0  0  0
 14 22  1  0  0  0  0
 16 17  1  0  0  0  0
 17 18  1  1  0  0  0
 17 19  1  0  0  0  0
 19  2  1  1  0  0  0
 19 20  1  0  0  0  0
 20 21  1  6  0  0  0
 20 22  1  0  0  0  0
 22 23  1  6  0  0  0
 24 23  1  1  0  0  0
 24 25  1  0  0  0  0
 24 34  1  0  0  0  0
 25 26  1  1  0  0  0
 25 27  1  0  0  0  0
 27 28  1  6  0  0  0
 27 30  1  0  0  0  0
 28 29  1  0  0  0  0
 30 31  1  6  0  0  0
 30 32  1  0  0  0  0
 30 33  1  0  0  0  0
 33 34  1  0  0  0  0
M  CHG  4   4   1  15   1  18   1  28   1
M  END
>  <CHROM.1>
-128.52903621,-172.87953599,47.43797012,-63.63535035,-55.78463283,-42.75480362
79.58594394,-61.94652391,-73.06595653,-170.60777263,96.46252581,-141.60220885
-70.03493890,35.44340917,-178.02661919,-11.36053703,7.21097738,18.70455338
-0.07457244,0.87192514,-2.65658196

>  <Name>
1mwl

>  <RI>
0

>  <Rbt.Current_Directory>
/home/itssahil/PROJECTS/Mol_Feturizer/New_Systems/rnas/1mwl

>  <Rbt.Executable>
rbdock ($Id: //depot/dev/client3/rdock/2013.1/src/exe/rbdock.cxx#4 $)

>  <Rbt.Library>
libRbt.so (2013.1, Build901 2013/11/27)

>  <Rbt.Parameter_File>
/export/apps/rDock/src/rDock_2013.1_src/data/scripts/dock_solv.prm

>  <Rbt.Receptor>
prm/pocket_docking_3.prm

>  <SCORE>
-78.8624

>  <SCORE.INTER>
-65.5712

>  <SCORE.INTER.CONST>
1

>  <SCORE.INTER.POLAR>
-8.66269

>  <SCORE.INTER.ROT>
6

>  <SCORE.INTER.SOLV>
25.7947

>  <SCORE.INTER.VDW>
-31.0367

>  <SCORE.INTER.norm>
-1.92856

>  <SCORE.INTRA>
-13.2913

>  <SCORE.INTRA.DIHEDRAL>
-19.0235

>  <SCORE.INTRA.DIHEDRAL.0>
42.0816

>  <SCORE.INTRA.POLAR>
-0.642988

>  <SCORE.INTRA.POLAR.0>
-0.254682

>  <SCORE.INTRA.REPUL>
0

>  <SCORE.INTRA.REPUL.0>
0

>  <SCORE.INTRA.SOLV>
2.02726

>  <SCORE.INTRA.SOLV.lig_0>
-109.803

>  <SCORE.INTRA.VDW>
-2.60697

>  <SCORE.INTRA.VDW.0>
0.32176

>  <SCORE.INTRA.norm>
-0.390919

>  <SCORE.RESTR>
0

>  <SCORE.RESTR.CAVITY>
0

>  <SCORE.RESTR.norm>
0

>  <SCORE.SYSTEM>
0

>  <SCORE.SYSTEM.CONST>
0

>  <SCORE.SYSTEM.DIHEDRAL>
0

>  <SCORE.SYSTEM.SOLV>
0

>  <SCORE.SYSTEM.norm>
0

>  <SCORE.heavy>
34

>  <SCORE.norm>
-2.31948

>  <RMSD>
0.938

$$$$
1mwl
 OpenBabel11021811403D
libRbt.so/2013.1/901 2013/11/27
 34 36  0  0  0  0  0  0  0  0999 V2000
   -9.2733    5.9853   20.0965 C   0  0  2  0  0  0  0  0  0  0  0  0
  -10.1601    6.8387   20.7552 O   0  0  0  0  0  0  0  0  0  0  0  0
   -9.7206    4.5270   20.3971 C   0  0  2  0  0  0  0  0  0  0  0  0
  -11.0972    4.3162   19.9388 N   0  3  0  0  0  0  0  0  0  0  0  0
   -9.5698    4.2084   21.9135 C   0  0  1  0  0  0  0  0  0  0  0  0
   -9.9342    2.9291   22.1796 O   0  0  0  0  0  0  0  0  0  0  0  0
   -8.0835    4.4618   22.3311 C   0  0  2  0  0  0  0  0  0  0  0  0
   -7.9047    4.1662   23.7321 O   0  0  0  0  0  0  0  0  0  0  0  0
   -7.7307    5.9553   22.0163 C   0  0  2  0  0  0  0  0  0  0  0  0
   -7.9281    6.2373   20.5772 O   0  0  0  0  0  0  0  0  0  0  0  0
   -6.2895    6.3564   22.3509 C   0  0  2  0  0  0  0  0  0  0  0  0
   -5.9469    5.8676   23.6067 O   0  0  0  0  0  0  0  0  0  0  0  0
   -6.0704    7.8793   22.4064 C   0  0  0  0  0  0  0  0  0  0  0  0
  -12.7660   10.0607   19.7124 C   0  0  2  0  0  0  0  0  0  0  0  0
  -13.2525   11.3524   19.1645 N   0  3  0  0  0  0  0  0  0  0  0  0
  -11.7077   10.3002   20.8299 C   0  0  0  0  0  0  0  0  0  0  0  0
  -11.1860    8.9276   21.3900 C   0  0  2  0  0  0  0  0  0  0  0  0
  -10.1713    9.1917   22.4751 N   0  3  0  0  0  0  0  0  0  0  0  0
  -10.5747    8.0876   20.2166 C   0  0  2  0  0  0  0  0  0  0  0  0
  -11.6516    7.8594   19.1279 C   0  0  2  0  0  0  0  0  0  0  0  0
  -11.0821    7.1341   18.0650 O   0  0  0  0  0  0  0  0  0  0  0  0
  -12.1445    9.2233   18.5744 C   0  0  1  0  0  0  0  0  0  0  0  0
  -13.1282    8.9902   17.5772 O   0  0  0  0  0  0  0  0  0  0  0  0
  -13.0715    9.7335   16.3911 C   0  0  2  0  0  0  0  0  0  0  0  0
  -14.5169    9.9160   15.8907 C   0  0  2  0  0  0  0  0  0  0  0  0
  -15.2529   10.6295   16.8611 O   0  0  0  0  0  0  0  0  0  0  0  0
  -15.1527    8.5071   15.6342 C   0  0  1  0  0  0  0  0  0  0  0  0
  -16.5607    8.5948   15.1762 N   0  3  0  0  0  0  0  0  0  0  0  0
  -17.3260    7.3917   15.5919 C   0  0  0  0  0  0  0  0  0  0  0  0
  -14.2917    7.7393   14.5729 C   0  0  2  0  0  0  0  0  0  0  0  0
  -14.2637    8.4783   13.3374 O   0  0  0  0  0  0  0  0  0  0  0  0
  -14.8299    6.4226   14.2832 C   0  0  0  0  0  0  0  0  0  0  0  0
  -12.8113    7.6411   15.0543 C   0  0  0  0  0  0  0  0  0  0  0  0
  -12.2759    9.0008   15.3912 O   0  0  0  0  0  0  0  0  0  0  0  0
  1  2  1  1  0  0  0
  1  3  1  0  0  0  0
  1 10  1  0  0  0  0
  3  4  1  1  0  0  0
  3  5  1  0  0  0  0
  5  6  1  6  0  0  0
  5  7  1  0  0  0  0
  7  8  1  1  0  0  0
  7  9  1  0  0  0  0
  9 10  1  6  0  0  0
  9 11  1  0  0  0  0
 11 12  1  1  0  0  0
 11 13  1  0  0  0  0
 14 15  1  6  0  0  0
 14 16  1  0  0  0  0
 14 22  1  0  0  0  0
 16 17  1  0  0  0  0
 17 18  1  1  0  0  0
 17 19  1  0  0  0  0
 19  2  1  1  0  0  0
 19 20  1  0  0  0  0
 20 21  1  6  0  0  0
 20 22  1  0  0  0  0
 22 23  1  6  0  0  0
 24 23  1  1  0  0  0
 24 25  1  0  0  0  0
 24 34  1  0  0  0  0
 25 26  1  1  0  0  0
 25 27  1  0  0  0  0
 27 28  1  6  0  0  0
 27 30  1  0  0  0  0
 28 29  1  0  0  0  0
 30 31  1  6  0  0  0
 30 32  1  0  0  0  0
 30 33  1  0  0  0  0
 33 34  1  0  0  0  0
M  CHG  4   4   1  15   1  18   1  28   1
M  END
>  <CHROM.1>
-144.31164870,-162.92249482,73.23881308,57.53203554,-170.94130451,-45.31389285
171.41476713,63.93817592,55.89448997,71.20520648,103.63580303,-148.64233014
168.10340549,-31.05045259,60.75435586,-11.40395439,7.48933930,19.06024047
0.12106446,0.82952173,-2.86775621

>  <Name>
1mwl

>  <RI>
0

>  <Rbt.Current_Directory>
/home/itssahil/PROJECTS/Mol_Feturizer/New_Systems/rnas/1mwl

>  <Rbt.Executable>
rbdock ($Id: //depot/dev/client3/rdock/2013.1/src/exe/rbdock.cxx#4 $)

>  <Rbt.Library>
libRbt.so (2013.1, Build901 2013/11/27)

>  <Rbt.Parameter_File>
/export/apps/rDock/src/rDock_2013.1_src/data/scripts/dock_solv.prm

>  <Rbt.Receptor>
prm/pocket_docking_4.prm

>  <SCORE>
-64.2533

>  <SCORE.INTER>
-46.8012

>  <SCORE.INTER.CONST>
1

>  <SCORE.INTER.POLAR>
-5.48622

>  <SCORE.INTER.ROT>
6

>  <SCORE.INTER.SOLV>
26.0748

>  <SCORE.INTER.VDW>
-29.205

>  <SCORE.INTER.norm>
-1.37651

>  <SCORE.INTRA>
-17.4521

>  <SCORE.INTRA.DIHEDRAL>
-21.1382

>  <SCORE.INTRA.DIHEDRAL.0>
42.0816

>  <SCORE.INTRA.POLAR>
-1.61029

>  <SCORE.INTRA.POLAR.0>
-0.254682

>  <SCORE.INTRA.REPUL>
0

>  <SCORE.INTRA.REPUL.0>
0

>  <SCORE.INTRA.SOLV>
1.15363

>  <SCORE.INTRA.SOLV.lig_0>
-109.803

>  <SCORE.INTRA.VDW>
-1.9848

>  <SCORE.INTRA.VDW.0>
0.32176

>  <SCORE.INTRA.norm>
-0.513297

>  <SCORE.RESTR>
0

>  <SCORE.RESTR.CAVITY>
0

>  <SCORE.RESTR.norm>
0

>  <SCORE.SYSTEM>
0

>  <SCORE.SYSTEM.CONST>
0

>  <SCORE.SYSTEM.DIHEDRAL>
0

>  <SCORE.SYSTEM.SOLV>
0

>  <SCORE.SYSTEM.norm>
0

>  <SCORE.heavy>
34

>  <SCORE.norm>
-1.8898

>  <RMSD>
0.955

$$$$
1mwl
 OpenBabel11021811403D
libRbt.so/2013.1/901 2013/11/27
 34 36  0  0  0  0  0  0  0  0999 V2000
   -9.2187    6.2037   20.2088 C   0  0  2  0  0  0  0  0  0  0  0  0
  -10.3873    6.8106   20.6721 O   0  0  0  0  0  0  0  0  0  0  0  0
   -9.3050    4.6934   20.5673 C   0  0  2  0  0  0  0  0  0  0  0  0
  -10.4928    4.0947   19.9508 N   0  3  0  0  0  0  0  0  0  0  0  0
   -9.3032    4.4952   22.1115 C   0  0  1  0  0  0  0  0  0  0  0  0
   -9.3525    3.1780   22.4321 O   0  0  0  0  0  0  0  0  0  0  0  0
   -8.0161    5.1630   22.6988 C   0  0  2  0  0  0  0  0  0  0  0  0
   -7.9766    4.9894   24.1308 O   0  0  0  0  0  0  0  0  0  0  0  0
   -8.0271    6.6806   22.3108 C   0  0  2  0  0  0  0  0  0  0  0  0
   -8.0751    6.8344   20.8399 O   0  0  0  0  0  0  0  0  0  0  0  0
   -6.8096    7.4744   22.7980 C   0  0  2  0  0  0  0  0  0  0  0  0
   -6.9380    8.8068   22.4217 O   0  0  0  0  0  0  0  0  0  0  0  0
   -5.4764    6.9851   22.2034 C   0  0  0  0  0  0  0  0  0  0  0  0
  -13.3300    9.7294   19.6324 C   0  0  2  0  0  0  0  0  0  0  0  0
  -13.9726   10.9183   19.0168 N   0  3  0  0  0  0  0  0  0  0  0  0
  -12.1668   10.1584   20.5752 C   0  0  0  0  0  0  0  0  0  0  0  0
  -11.4819    8.8927   21.2069 C   0  0  2  0  0  0  0  0  0  0  0  0
  -10.3674    9.3397   22.1206 N   0  3  0  0  0  0  0  0  0  0  0  0
  -10.9544    7.9625   20.0611 C   0  0  2  0  0  0  0  0  0  0  0  0
  -12.1335    7.5470   19.1479 C   0  0  2  0  0  0  0  0  0  0  0  0
  -11.6427    6.7407   18.1043 O   0  0  0  0  0  0  0  0  0  0  0  0
  -12.7884    8.8065   18.5200 C   0  0  1  0  0  0  0  0  0  0  0  0
  -13.8640    8.4021   17.6858 O   0  0  0  0  0  0  0  0  0  0  0  0
  -14.0044    9.0073   16.4301 C   0  0  2  0  0  0  0  0  0  0  0  0
  -15.4713    8.8315   15.9939 C   0  0  2  0  0  0  0  0  0  0  0  0
  -16.3094    9.4789   16.9272 O   0  0  0  0  0  0  0  0  0  0  0  0
  -15.8030    7.3023   15.9143 C   0  0  1  0  0  0  0  0  0  0  0  0
  -17.2120    7.0465   15.5277 N   0  3  0  0  0  0  0  0  0  0  0  0
  -17.8136    5.9985   16.3913 C   0  0  0  0  0  0  0  0  0  0  0  0
  -14.8344    6.6180   14.8894 C   0  0  2  0  0  0  0  0  0  0  0  0
  -15.0034    7.2077   13.5867 O   0  0  0  0  0  0  0  0  0  0  0  0
  -15.0913    5.1949   14.7622 C   0  0  0  0  0  0  0  0  0  0  0  0
  -13.3517    6.8810   15.2964 C   0  0  0  0  0  0  0  0  0  0  0  0
  -13.1050    8.3504   15.4662 O   0  0  0  0  0  0  0  0  0  0  0  0
  1  2  1  1  0  0  0
  1  3  1  0  0  0  0
  1 10  1  0  0  0  0
  3  4  1  1  0  0  0
  3  5  1  0  0  0  0
  5  6  1  6  0  0  0
  5  7  1  0  0  0  0
  7  8  1  1  0  0  0
  7  9  1  0  0  0  0
  9 10  1  6  0  0  0
  9 11  1  0  0  0  0
 11 12  1  6  0  0  0
 11 13  1  0  0  0  0
 14 15  1  6  0  0  0
 14 16  1  0  0  0  0
 14 22  1  0  0  0  0
 16 17  1  0  0  0  0
 17 18  1  1  0  0  0
 17 19  1  0  0  0  0
 19  2  1  1  0  0  0
 19 20  1  0  0  0  0
 20 21  1  6  0  0  0
 20 22  1  0  0  0  0
 22 23  1  6  0  0  0
 24 23  1  1  0  0  0
 24 25  1  0  0  0  0
 24 34  1  0  0  0  0
 25 26  1  1  0  0  0
 25 27  1  0  0  0  0
 27 28  1  6  0  0  0
 27 30  1  0  0  0  0
 28 29  1  0  0  0  0
 30 31  1  6  0  0  0
 30 32  1  0  0  0  0
 30 33  1  0  0  0  0
 33 34  1  0  0  0  0
M  CHG  4   4   1  15   1  18   1  28   1
M  END
>  <CHROM.1>
-151.11627018,-140.63778942,176.40737041,-161.77276781,61.75153342,-178.83054976
175.43170090,-57.75097150,52.31660455,169.07937756,103.62280631,-158.02805768
65.41826079,-14.84283440,-66.44276778,-11.77391577,7.25579283,19.14085042
-0.03349007,0.73399573,-2.87954390

>  <Name>
1mwl

>  <RI>
0

>  <Rbt.Current_Directory>
/home/itssahil/PROJECTS/Mol_Feturizer/New_Systems/rnas/1mwl

>  <Rbt.Executable>
rbdock ($Id: //depot/dev/client3/rdock/2013.1/src/exe/rbdock.cxx#4 $)

>  <Rbt.Library>
libRbt.so (2013.1, Build901 2013/11/27)

>  <Rbt.Parameter_File>
/export/apps/rDock/src/rDock_2013.1_src/data/scripts/dock_solv.prm

>  <Rbt.Receptor>
prm/pocket_docking_8.prm

>  <SCORE>
-62.6516

>  <SCORE.INTER>
-50.6319

>  <SCORE.INTER.CONST>
1

>  <SCORE.INTER.POLAR>
-6.87809

>  <SCORE.INTER.ROT>
6

>  <SCORE.INTER.SOLV>
20.4312

>  <SCORE.INTER.VDW>
-25.238

>  <SCORE.INTER.norm>
-1.48917

>  <SCORE.INTRA>
-12.0197

>  <SCORE.INTRA.DIHEDRAL>
-19.466

>  <SCORE.INTRA.DIHEDRAL.0>
42.0816

>  <SCORE.INTRA.POLAR>
0.248004

>  <SCORE.INTRA.POLAR.0>
-0.254682

>  <SCORE.INTRA.REPUL>
0

>  <SCORE.INTRA.REPUL.0>
0

>  <SCORE.INTRA.SOLV>
1.54653

>  <SCORE.INTRA.SOLV.lig_0>
-109.803

>  <SCORE.INTRA.VDW>
-3.90318

>  <SCORE.INTRA.VDW.0>
0.32176

>  <SCORE.INTRA.norm>
-0.353521

>  <SCORE.RESTR>
0

>  <SCORE.RESTR.CAVITY>
0

>  <SCORE.RESTR.norm>
0

>  <SCORE.SYSTEM>
0

>  <SCORE.SYSTEM.CONST>
0

>  <SCORE.SYSTEM.DIHEDRAL>
0

>  <SCORE.SYSTEM.SOLV>
0

>  <SCORE.SYSTEM.norm>
0

>  <SCORE.heavy>
34

>  <SCORE.norm>
-1.8427

>  <RMSD>
0.956

$$$$
1mwl
 OpenBabel11021811403D
libRbt.so/2013.1/901 2013/11/27
 34 36  0  0  0  0  0  0  0  0999 V2000
   -9.2985    6.0298   19.8664 C   0  0  2  0  0  0  0  0  0  0  0  0
  -10.1460    6.9243   20.5224 O   0  0  0  0  0  0  0  0  0  0  0  0
   -9.9021    4.6072   20.0360 C   0  0  2  0  0  0  0  0  0  0  0  0
  -11.2558    4.5624   19.4748 N   0  3  0  0  0  0  0  0  0  0  0  0
   -9.8918    4.1818   21.5335 C   0  0  1  0  0  0  0  0  0  0  0  0
  -10.3936    2.9308   21.6866 O   0  0  0  0  0  0  0  0  0  0  0  0
   -8.4222    4.2605   22.0644 C   0  0  2  0  0  0  0  0  0  0  0  0
   -8.3736    3.8623   23.4505 O   0  0  0  0  0  0  0  0  0  0  0  0
   -7.9082    5.7283   21.8768 C   0  0  2  0  0  0  0  0  0  0  0  0
   -7.9738    6.1172   20.4507 O   0  0  0  0  0  0  0  0  0  0  0  0
   -6.4634    5.9633   22.3322 C   0  0  2  0  0  0  0  0  0  0  0  0
   -6.3393    5.6436   23.6797 O   0  0  0  0  0  0  0  0  0  0  0  0
   -6.0028    7.4256   22.1919 C   0  0  0  0  0  0  0  0  0  0  0  0
  -13.0494    9.7231   19.1096 C   0  0  2  0  0  0  0  0  0  0  0  0
  -13.6502   10.9206   18.4688 N   0  3  0  0  0  0  0  0  0  0  0  0
  -12.1541   10.1349   20.3158 C   0  0  0  0  0  0  0  0  0  0  0  0
  -11.5088    8.8625   20.9752 C   0  0  2  0  0  0  0  0  0  0  0  0
  -10.6565    9.2917   22.1440 N   0  3  0  0  0  0  0  0  0  0  0  0
  -10.6709    8.0897   19.8996 C   0  0  2  0  0  0  0  0  0  0  0  0
  -11.5891    7.6872   18.7197 C   0  0  2  0  0  0  0  0  0  0  0  0
  -10.8196    7.0246   17.7456 O   0  0  0  0  0  0  0  0  0  0  0  0
  -12.2055    8.9551   18.0701 C   0  0  1  0  0  0  0  0  0  0  0  0
  -13.0405    8.5630   16.9905 O   0  0  0  0  0  0  0  0  0  0  0  0
  -13.0914    9.3764   15.8510 C   0  0  2  0  0  0  0  0  0  0  0  0
  -14.5471    9.3750   15.3472 C   0  0  2  0  0  0  0  0  0  0  0  0
  -15.3815    9.9137   16.3503 O   0  0  0  0  0  0  0  0  0  0  0  0
  -14.9689    7.9063   15.0012 C   0  0  1  0  0  0  0  0  0  0  0  0
  -16.3738    7.8142   14.5345 N   0  3  0  0  0  0  0  0  0  0  0  0
  -17.3016    7.6557   15.6835 C   0  0  0  0  0  0  0  0  0  0  0  0
  -14.0028    7.3377   13.9056 C   0  0  2  0  0  0  0  0  0  0  0  0
  -14.0814    8.1456   12.7162 O   0  0  0  0  0  0  0  0  0  0  0  0
  -14.3415    5.9761   13.5329 C   0  0  0  0  0  0  0  0  0  0  0  0
  -12.5248    7.4285   14.3958 C   0  0  0  0  0  0  0  0  0  0  0  0
  -12.1953    8.8293   14.8180 O   0  0  0  0  0  0  0  0  0  0  0  0
  1  2  1  1  0  0  0
  1  3  1  0  0  0  0
  1 10  1  0  0  0  0
  3  4  1  1  0  0  0
  3  5  1  0  0  0  0
  5  6  1  6  0  0  0
  5  7  1  0  0  0  0
  7  8  1  1  0  0  0
  7  9  1  0  0  0  0
  9 10  1  6  0  0  0
  9 11  1  0  0  0  0
 11 12  1  1  0  0  0
 11 13  1  0  0  0  0
 14 15  1  6  0  0  0
 14 16  1  0  0  0  0
 14 22  1  0  0  0  0
 16 17  1  0  0  0  0
 17 18  1  1  0  0  0
 17 19  1  0  0  0  0
 19  2  1  1  0  0  0
 19 20  1  0  0  0  0
 20 21  1  6  0  0  0
 20 22  1  0  0  0  0
 22 23  1  6  0  0  0
 24 23  1  1  0  0  0
 24 25  1  0  0  0  0
 24 34  1  0  0  0  0
 25 26  1  1  0  0  0
 25 27  1  0  0  0  0
 27 28  1  6  0  0  0
 27 30  1  0  0  0  0
 28 29  1  0  0  0  0
 30 31  1  6  0  0  0
 30 32  1  0  0  0  0
 30 33  1  0  0  0  0
 33 34  1  0  0  0  0
M  CHG  4   4   1  15   1  18   1  28   1
M  END
>  <CHROM.1>
-127.88017788,-177.14555317,157.95962101,63.72823306,36.79322331,-58.83711780
167.87536347,177.71902100,163.67811599,-62.18544236,95.66369085,-142.12261800
165.45935372,32.54928345,-179.71542025,-11.49154161,7.26145133,18.64855337
-0.04202758,0.87542830,-2.70036848

>  <Name>
1mwl

>  <RI>
0

>  <Rbt.Current_Directory>
/home/itssahil/PROJECTS/Mol_Feturizer/New_Systems/rnas/1mwl

>  <Rbt.Executable>
rbdock ($Id: //depot/dev/client3/rdock/2013.1/src/exe/rbdock.cxx#4 $)

>  <Rbt.Library>
libRbt.so (2013.1, Build901 2013/11/27)

>  <Rbt.Parameter_File>
/export/apps/rDock/src/rDock_2013.1_src/data/scripts/dock_solv.prm

>  <Rbt.Receptor>
prm/pocket_docking_3.prm

>  <SCORE>
-86.0942

>  <SCORE.INTER>
-69.1812

>  <SCORE.INTER.CONST>
1

>  <SCORE.INTER.POLAR>
-9.14858

>  <SCORE.INTER.ROT>
6

>  <SCORE.INTER.SOLV>
25.5683

>  <SCORE.INTER.VDW>
-31.7483

>  <SCORE.INTER.norm>
-2.03474

>  <SCORE.INTRA>
-16.9131

>  <SCORE.INTRA.DIHEDRAL>
-17.9724

>  <SCORE.INTRA.DIHEDRAL.0>
42.0816

>  <SCORE.INTRA.POLAR>
-1.97178

>  <SCORE.INTRA.POLAR.0>
-0.254682

>  <SCORE.INTRA.REPUL>
0.0120835

>  <SCORE.INTRA.REPUL.0>
0

>  <SCORE.INTRA.SOLV>
1.20147

>  <SCORE.INTRA.SOLV.lig_0>
-109.803

>  <SCORE.INTRA.VDW>
-1.88394

>  <SCORE.INTRA.VDW.0>
0.32176

>  <SCORE.INTRA.norm>
-0.497443

>  <SCORE.RESTR>
0

>  <SCORE.RESTR.CAVITY>
0

>  <SCORE.RESTR.norm>
0

>  <SCORE.SYSTEM>
0

>  <SCORE.SYSTEM.CONST>
0

>  <SCORE.SYSTEM.DIHEDRAL>
0

>  <SCORE.SYSTEM.SOLV>
0

>  <SCORE.SYSTEM.norm>
0

>  <SCORE.heavy>
34

>  <SCORE.norm>
-2.53218

>  <RMSD>
0.966

$$$$
1mwl
 OpenBabel11021811403D
libRbt.so/2013.1/901 2013/11/27
 34 36  0  0  0  0  0  0  0  0999 V2000
   -9.1154    6.0314   20.1127 C   0  0  2  0  0  0  0  0  0  0  0  0
  -10.2086    6.7075   20.6571 O   0  0  0  0  0  0  0  0  0  0  0  0
   -9.1261    4.5881   20.6902 C   0  0  2  0  0  0  0  0  0  0  0  0
  -10.3852    3.9177   20.3516 N   0  3  0  0  0  0  0  0  0  0  0  0
   -8.8883    4.6109   22.2285 C   0  0  1  0  0  0  0  0  0  0  0  0
   -8.8708    3.3530   22.7360 O   0  0  0  0  0  0  0  0  0  0  0  0
   -7.5364    5.3447   22.5136 C   0  0  2  0  0  0  0  0  0  0  0  0
   -7.2786    5.3757   23.9331 O   0  0  0  0  0  0  0  0  0  0  0  0
   -7.6264    6.7919   21.9210 C   0  0  2  0  0  0  0  0  0  0  0  0
   -7.8981    6.7359   20.4676 O   0  0  0  0  0  0  0  0  0  0  0  0
   -6.3600    7.6368   22.1009 C   0  0  2  0  0  0  0  0  0  0  0  0
   -5.2397    6.8730   21.7925 O   0  0  0  0  0  0  0  0  0  0  0  0
   -6.1547    8.1414   23.5409 C   0  0  0  0  0  0  0  0  0  0  0  0
  -13.1375    9.6308   19.5916 C   0  0  2  0  0  0  0  0  0  0  0  0
  -13.7635   10.8415   19.0019 N   0  3  0  0  0  0  0  0  0  0  0  0
  -12.0451   10.0256   20.6292 C   0  0  0  0  0  0  0  0  0  0  0  0
  -11.3763    8.7381   21.2335 C   0  0  2  0  0  0  0  0  0  0  0  0
  -10.3310    9.1517   22.2400 N   0  3  0  0  0  0  0  0  0  0  0  0
  -10.7588    7.8822   20.0748 C   0  0  2  0  0  0  0  0  0  0  0  0
  -11.8693    7.4989   19.0663 C   0  0  2  0  0  0  0  0  0  0  0  0
  -11.2974    6.7604   18.0139 O   0  0  0  0  0  0  0  0  0  0  0  0
  -12.5082    8.7805   18.4675 C   0  0  1  0  0  0  0  0  0  0  0  0
  -13.5205    8.4057   17.5450 O   0  0  0  0  0  0  0  0  0  0  0  0
  -13.1483    8.0845   16.2332 C   0  0  2  0  0  0  0  0  0  0  0  0
  -14.3590    8.3731   15.3256 C   0  0  2  0  0  0  0  0  0  0  0  0
  -14.6759    9.7464   15.4043 O   0  0  0  0  0  0  0  0  0  0  0  0
  -15.5700    7.4944   15.7909 C   0  0  1  0  0  0  0  0  0  0  0  0
  -16.7901    7.7358   14.9827 N   0  3  0  0  0  0  0  0  0  0  0  0
  -17.9293    8.1264   15.8520 C   0  0  0  0  0  0  0  0  0  0  0  0
  -15.1679    5.9813   15.7138 C   0  0  2  0  0  0  0  0  0  0  0  0
  -14.8238    5.6343   14.3594 O   0  0  0  0  0  0  0  0  0  0  0  0
  -16.2504    5.1073   16.1280 C   0  0  0  0  0  0  0  0  0  0  0  0
  -13.8878    5.7235   16.5671 C   0  0  0  0  0  0  0  0  0  0  0  0
  -12.7875    6.6582   16.1614 O   0  0  0  0  0  0  0  0  0  0  0  0
  1  2  1  1  0  0  0
  1  3  1  0  0  0  0
  1 10  1  0  0  0  0
  3  4  1  1  0  0  0
  3  5  1  0  0  0  0
  5  6  1  6  0  0  0
  5  7  1  0  0  0  0
  7  8  1  1  0  0  0
  7  9  1  0  0  0  0
  9 10  1  6  0  0  0
  9 11  1  0  0  0  0
 11 12  1  1  0  0  0
 11 13  1  0  0  0  0
 14 15  1  6  0  0  0
 14 16  1  0  0  0  0
 14 22  1  0  0  0  0
 16 17  1  0  0  0  0
 17 18  1  1  0  0  0
 17 19  1  0  0  0  0
 19  2  1  1  0  0  0
 19 20  1  0  0  0  0
 20 21  1  6  0  0  0
 20 22  1  0  0  0  0
 22 23  1  6  0  0  0
 24 23  1  1  0  0  0
 24 25  1  0  0  0  0
 24 34  1  0  0  0  0
 25 26  1  1  0  0  0
 25 27  1  0  0  0  0
 27 28  1  6  0  0  0
 27 30  1  0  0  0  0
 28 29  1  0  0  0  0
 30 31  1  6  0  0  0
 30 32  1  0  0  0  0
 30 33  1  0  0  0  0
 33 34  1  0  0  0  0
M  CHG  4   4   1  15   1  18   1  28   1
M  END
>  <CHROM.1>
-160.24616872,-150.66004345,-51.19100165,-160.09443259,-60.26475227,44.48460751
-64.92454462,-173.10084436,174.03331722,64.21720261,156.33716414,-153.59993363
173.93130187,-4.03109749,-62.29688098,-11.48723900,7.12024874,19.16397480
-0.02137904,0.71190446,-2.90319821

>  <Name>
1mwl

>  <RI>
0

>  <Rbt.Current_Directory>
/home/itssahil/PROJECTS/Mol_Feturizer/New_Systems/rnas/1mwl

>  <Rbt.Executable>
rbdock ($Id: //depot/dev/client3/rdock/2013.1/src/exe/rbdock.cxx#4 $)

>  <Rbt.Library>
libRbt.so (2013.1, Build901 2013/11/27)

>  <Rbt.Parameter_File>
/export/apps/rDock/src/rDock_2013.1_src/data/scripts/dock_solv.prm

>  <Rbt.Receptor>
prm/pocket_docking_3.prm

>  <SCORE>
-79.7641

>  <SCORE.INTER>
-66.0205

>  <SCORE.INTER.CONST>
1

>  <SCORE.INTER.POLAR>
-9.92798

>  <SCORE.INTER.ROT>
6

>  <SCORE.INTER.SOLV>
23.1771

>  <SCORE.INTER.VDW>
-26.2461

>  <SCORE.INTER.norm>
-1.94178

>  <SCORE.INTRA>
-13.7442

>  <SCORE.INTRA.DIHEDRAL>
-24.4797

>  <SCORE.INTRA.DIHEDRAL.0>
42.0816

>  <SCORE.INTRA.POLAR>
0.22988

>  <SCORE.INTRA.POLAR.0>
-0.254682

>  <SCORE.INTRA.REPUL>
0

>  <SCORE.INTRA.REPUL.0>
0

>  <SCORE.INTRA.SOLV>
0.115072

>  <SCORE.INTRA.SOLV.lig_0>
-109.803

>  <SCORE.INTRA.VDW>
-2.34348

>  <SCORE.INTRA.VDW.0>
0.32176

>  <SCORE.INTRA.norm>
-0.404241

>  <SCORE.RESTR>
0.000527817

>  <SCORE.RESTR.CAVITY>
0.000527817

>  <SCORE.RESTR.norm>
1.5524e-05

>  <SCORE.SYSTEM>
0

>  <SCORE.SYSTEM.CONST>
0

>  <SCORE.SYSTEM.DIHEDRAL>
0

>  <SCORE.SYSTEM.SOLV>
0

>  <SCORE.SYSTEM.norm>
0

>  <SCORE.heavy>
34

>  <SCORE.norm>
-2.346

>  <RMSD>
1.079

$$$$
1mwl
 OpenBabel11021811403D
libRbt.so/2013.1/901 2013/11/27
 34 36  0  0  0  0  0  0  0  0999 V2000
   -8.9701    6.2543   20.2155 C   0  0  2  0  0  0  0  0  0  0  0  0
  -10.0435    6.9604   20.7613 O   0  0  0  0  0  0  0  0  0  0  0  0
   -9.2309    4.7426   20.4680 C   0  0  2  0  0  0  0  0  0  0  0  0
  -10.4983    4.3387   19.8516 N   0  3  0  0  0  0  0  0  0  0  0  0
   -9.2137    4.4301   21.9930 C   0  0  1  0  0  0  0  0  0  0  0  0
   -9.4152    3.1079   22.2201 O   0  0  0  0  0  0  0  0  0  0  0  0
   -7.8400    4.8926   22.5816 C   0  0  2  0  0  0  0  0  0  0  0  0
   -7.7852    4.6084   23.9953 O   0  0  0  0  0  0  0  0  0  0  0  0
   -7.6755    6.4255   22.3038 C   0  0  2  0  0  0  0  0  0  0  0  0
   -7.7421    6.6940   20.8502 O   0  0  0  0  0  0  0  0  0  0  0  0
   -6.3580    7.0286   22.8040 C   0  0  2  0  0  0  0  0  0  0  0  0
   -6.2075    6.7648   24.1609 O   0  0  0  0  0  0  0  0  0  0  0  0
   -6.2831    8.5588   22.6514 C   0  0  0  0  0  0  0  0  0  0  0  0
  -13.1529    9.5692   19.4252 C   0  0  2  0  0  0  0  0  0  0  0  0
  -13.8488   10.6960   18.7533 N   0  3  0  0  0  0  0  0  0  0  0  0
  -12.1562   10.0990   20.4984 C   0  0  0  0  0  0  0  0  0  0  0  0
  -11.4119    8.9001   21.1904 C   0  0  2  0  0  0  0  0  0  0  0  0
  -10.4620    9.4432   22.2293 N   0  3  0  0  0  0  0  0  0  0  0  0
  -10.6612    8.0584   20.1021 C   0  0  2  0  0  0  0  0  0  0  0  0
  -11.6785    7.5396   19.0565 C   0  0  2  0  0  0  0  0  0  0  0  0
  -10.9890    6.8147   18.0670 O   0  0  0  0  0  0  0  0  0  0  0  0
  -12.3928    8.7355   18.3718 C   0  0  1  0  0  0  0  0  0  0  0  0
  -13.3178    8.2371   17.4166 O   0  0  0  0  0  0  0  0  0  0  0  0
  -12.8417    7.8582   16.1547 C   0  0  2  0  0  0  0  0  0  0  0  0
  -13.9432    8.1842   15.1284 C   0  0  2  0  0  0  0  0  0  0  0  0
  -14.1890    9.5741   15.1433 O   0  0  0  0  0  0  0  0  0  0  0  0
  -15.2398    7.3852   15.4963 C   0  0  1  0  0  0  0  0  0  0  0  0
  -16.3627    7.6674   14.5691 N   0  3  0  0  0  0  0  0  0  0  0  0
  -17.6040    7.9772   15.3235 C   0  0  0  0  0  0  0  0  0  0  0  0
  -14.9172    5.8512   15.4946 C   0  0  2  0  0  0  0  0  0  0  0  0
  -14.4665    5.4469   14.1881 O   0  0  0  0  0  0  0  0  0  0  0  0
  -16.0811    5.0486   15.8238 C   0  0  0  0  0  0  0  0  0  0  0  0
  -13.7400    5.5508   16.4728 C   0  0  0  0  0  0  0  0  0  0  0  0
  -12.5559    6.4133   16.1522 O   0  0  0  0  0  0  0  0  0  0  0  0
  1  2  1  1  0  0  0
  1  3  1  0  0  0  0
  1 10  1  0  0  0  0
  3  4  1  1  0  0  0
  3  5  1  0  0  0  0
  5  6  1  6  0  0  0
  5  7  1  0  0  0  0
  7  8  1  1  0  0  0
  7  9  1  0  0  0  0
  9 10  1  6  0  0  0
  9 11  1  0  0  0  0
 11 12  1  1  0  0  0
 11 13  1  0  0  0  0
 14 15  1  6  0  0  0
 14 16  1  0  0  0  0
 14 22  1  0  0  0  0
 16 17  1  0  0  0  0
 17 18  1  1  0  0  0
 17 19  1  0  0  0  0
 19  2  1  1  0  0  0
 19 20  1  0  0  0  0
 20 21  1  6  0  0  0
 20 22  1  0  0  0  0
 22 23  1  6  0  0  0
 24 23  1  1  0  0  0
 24 25  1  0  0  0  0
 24 34  1  0  0  0  0
 25 26  1  1  0  0  0
 25 27  1  0  0  0  0
 27 28  1  6  0  0  0
 27 30  1  0  0  0  0
 28 29  1  0  0  0  0
 30 31  1  6  0  0  0
 30 32  1  0  0  0  0
 30 33  1  0  0  0  0
 33 34  1  0  0  0  0
M  CHG  4   4   1  15   1  18   1  28   1
M  END
>  <CHROM.1>
-137.50764525,-159.10767656,31.68444450,-170.52086876,-74.20795809,-55.23007924
173.77969184,-66.04928886,45.18129654,-55.76928807,158.42216496,-146.23068132
61.45764543,-11.18562958,177.63243916,-11.44373817,7.04827067,19.12274938
-0.04114130,0.78245955,-2.90451209

>  <Name>
1mwl

>  <RI>
0

>  <Rbt.Current_Directory>
/home/itssahil/PROJECTS/Mol_Feturizer/New_Systems/rnas/1mwl

>  <Rbt.Executable>
rbdock ($Id: //depot/dev/client3/rdock/2013.1/src/exe/rbdock.cxx#4 $)

>  <Rbt.Library>
libRbt.so (2013.1, Build901 2013/11/27)

>  <Rbt.Parameter_File>
/export/apps/rDock/src/rDock_2013.1_src/data/scripts/dock_solv.prm

>  <Rbt.Receptor>
prm/pocket_docking_5.prm

>  <SCORE>
-73.956

>  <SCORE.INTER>
-57.3222

>  <SCORE.INTER.CONST>
1

>  <SCORE.INTER.POLAR>
-8.29222

>  <SCORE.INTER.ROT>
6

>  <SCORE.INTER.SOLV>
23.021

>  <SCORE.INTER.VDW>
-25.8477

>  <SCORE.INTER.norm>
-1.68595

>  <SCORE.INTRA>
-16.7632

>  <SCORE.INTRA.DIHEDRAL>
-20.5988

>  <SCORE.INTRA.DIHEDRAL.0>
42.0816

>  <SCORE.INTRA.POLAR>
-0.904643

>  <SCORE.INTRA.POLAR.0>
-0.254682

>  <SCORE.INTRA.REPUL>
0

>  <SCORE.INTRA.REPUL.0>
0

>  <SCORE.INTRA.SOLV>
-0.71745

>  <SCORE.INTRA.SOLV.lig_0>
-109.803

>  <SCORE.INTRA.VDW>
-3.02927

>  <SCORE.INTRA.VDW.0>
0.32176

>  <SCORE.INTRA.norm>
-0.493034

>  <SCORE.RESTR>
0.129343

>  <SCORE.RESTR.CAVITY>
0.129343

>  <SCORE.RESTR.norm>
0.0038042

>  <SCORE.SYSTEM>
0

>  <SCORE.SYSTEM.CONST>
0

>  <SCORE.SYSTEM.DIHEDRAL>
0

>  <SCORE.SYSTEM.SOLV>
0

>  <SCORE.SYSTEM.norm>
0

>  <SCORE.heavy>
34

>  <SCORE.norm>
-2.17518

>  <RMSD>
1.083

$$$$
1mwl
 OpenBabel11021811403D
libRbt.so/2013.1/901 2013/11/27
 34 36  0  0  0  0  0  0  0  0999 V2000
   -9.0116    6.0143   20.0549 C   0  0  2  0  0  0  0  0  0  0  0  0
  -10.0874    6.7089   20.6108 O   0  0  0  0  0  0  0  0  0  0  0  0
   -9.2894    4.4965   20.2451 C   0  0  2  0  0  0  0  0  0  0  0  0
  -10.5504    4.1281   19.5944 N   0  3  0  0  0  0  0  0  0  0  0  0
   -9.2988    4.1258   21.7571 C   0  0  1  0  0  0  0  0  0  0  0  0
   -9.5152    2.7979   21.9302 O   0  0  0  0  0  0  0  0  0  0  0  0
   -7.9306    4.5528   22.3841 C   0  0  2  0  0  0  0  0  0  0  0  0
   -7.9004    4.2143   23.7865 O   0  0  0  0  0  0  0  0  0  0  0  0
   -7.7486    6.0936   22.1678 C   0  0  2  0  0  0  0  0  0  0  0  0
   -7.7901    6.4182   20.7248 O   0  0  0  0  0  0  0  0  0  0  0  0
   -6.4340    6.6651   22.7110 C   0  0  2  0  0  0  0  0  0  0  0  0
   -6.3181    6.3684   24.0644 O   0  0  0  0  0  0  0  0  0  0  0  0
   -6.3330    8.1970   22.5952 C   0  0  0  0  0  0  0  0  0  0  0  0
  -13.1028    9.5068   19.4539 C   0  0  2  0  0  0  0  0  0  0  0  0
  -13.7640   10.6808   18.8295 N   0  3  0  0  0  0  0  0  0  0  0  0
  -12.0299    9.9638   20.4864 C   0  0  0  0  0  0  0  0  0  0  0  0
  -11.3235    8.7148   21.1277 C   0  0  2  0  0  0  0  0  0  0  0  0
  -10.2981    9.1883   22.1283 N   0  3  0  0  0  0  0  0  0  0  0  0
  -10.6718    7.8495   19.9951 C   0  0  2  0  0  0  0  0  0  0  0  0
  -11.7632    7.4042   18.9913 C   0  0  2  0  0  0  0  0  0  0  0  0
  -11.1615    6.6574   17.9616 O   0  0  0  0  0  0  0  0  0  0  0  0
  -12.4396    8.6484   18.3558 C   0  0  1  0  0  0  0  0  0  0  0  0
  -13.4338    8.2170   17.4382 O   0  0  0  0  0  0  0  0  0  0  0  0
  -13.0549    7.9409   16.1180 C   0  0  2  0  0  0  0  0  0  0  0  0
  -14.2180    8.3708   15.2041 C   0  0  2  0  0  0  0  0  0  0  0  0
  -14.4324    9.7579   15.3543 O   0  0  0  0  0  0  0  0  0  0  0  0
  -15.5027    7.5632   15.5944 C   0  0  1  0  0  0  0  0  0  0  0  0
  -16.6811    7.9414   14.7768 N   0  3  0  0  0  0  0  0  0  0  0  0
  -17.8980    8.0442   15.6221 C   0  0  0  0  0  0  0  0  0  0  0  0
  -15.2139    6.0303   15.4397 C   0  0  2  0  0  0  0  0  0  0  0  0
  -14.8640    5.7331   14.0749 O   0  0  0  0  0  0  0  0  0  0  0  0
  -16.3689    5.2203   15.7818 C   0  0  0  0  0  0  0  0  0  0  0  0
  -13.9781    5.6287   16.3025 C   0  0  0  0  0  0  0  0  0  0  0  0
  -12.8010    6.4973   15.9728 O   0  0  0  0  0  0  0  0  0  0  0  0
  1  2  1  1  0  0  0
  1  3  1  0  0  0  0
  1 10  1  0  0  0  0
  3  4  1  1  0  0  0
  3  5  1  0  0  0  0
  5  6  1  6  0  0  0
  5  7  1  0  0  0  0
  7  8  1  1  0  0  0
  7  9  1  0  0  0  0
  9 10  1  6  0  0  0
  9 11  1  0  0  0  0
 11 12  1  1  0  0  0
 11 13  1  0  0  0  0
 14 15  1  6  0  0  0
 14 16  1  0  0  0  0
 14 22  1  0  0  0  0
 16 17  1  0  0  0  0
 17 18  1  1  0  0  0
 17 19  1  0  0  0  0
 19  2  1  1  0  0  0
 19 20  1  0  0  0  0
 20 21  1  6  0  0  0
 20 22  1  0  0  0  0
 22 23  1  6  0  0  0
 24 23  1  1  0  0  0
 24 25  1  0  0  0  0
 24 34  1  0  0  0  0
 25 26  1  1  0  0  0
 25 27  1  0  0  0  0
 27 28  1  6  0  0  0
 27 30  1  0  0  0  0
 28 29  1  0  0  0  0
 30 31  1  6  0  0  0
 30 32  1  0  0  0  0
 30 33  1  0  0  0  0
 33 34  1  0  0  0  0
M  CHG  4   4   1  15   1  18   1  28   1
M  END
>  <CHROM.1>
-138.52220826,-153.98164912,32.22807945,-176.79508663,-175.36238022,-56.26385097
-56.81313023,173.94595430,170.65895981,176.48428032,153.04634338,-144.71888179
67.21235751,-18.01761437,60.30830041,-11.56252138,6.94562570,19.05461456
0.01884636,0.76377194,-2.91547209

>  <Name>
1mwl

>  <RI>
0

>  <Rbt.Current_Directory>
/home/itssahil/PROJECTS/Mol_Feturizer/New_Systems/rnas/1mwl

>  <Rbt.Executable>
rbdock ($Id: //depot/dev/client3/rdock/2013.1/src/exe/rbdock.cxx#4 $)

>  <Rbt.Library>
libRbt.so (2013.1, Build901 2013/11/27)

>  <Rbt.Parameter_File>
/export/apps/rDock/src/rDock_2013.1_src/data/scripts/dock_solv.prm

>  <Rbt.Receptor>
prm/pocket_docking_5.prm

>  <SCORE>
-77.3222

>  <SCORE.INTER>
-59.2696

>  <SCORE.INTER.CONST>
1

>  <SCORE.INTER.POLAR>
-8.51586

>  <SCORE.INTER.ROT>
6

>  <SCORE.INTER.SOLV>
22.7605

>  <SCORE.INTER.VDW>
-26.3137

>  <SCORE.INTER.norm>
-1.74322

>  <SCORE.INTRA>
-18.0809

>  <SCORE.INTRA.DIHEDRAL>
-20.5847

>  <SCORE.INTRA.DIHEDRAL.0>
42.0816

>  <SCORE.INTRA.POLAR>
-1.57795

>  <SCORE.INTRA.POLAR.0>
-0.254682

>  <SCORE.INTRA.REPUL>
0

>  <SCORE.INTRA.REPUL.0>
0

>  <SCORE.INTRA.SOLV>
0.00632792

>  <SCORE.INTRA.SOLV.lig_0>
-109.803

>  <SCORE.INTRA.VDW>
-2.42671

>  <SCORE.INTRA.VDW.0>
0.32176

>  <SCORE.INTRA.norm>
-0.531792

>  <SCORE.RESTR>
0.0283188

>  <SCORE.RESTR.CAVITY>
0.0283188

>  <SCORE.RESTR.norm>
0.000832907

>  <SCORE.SYSTEM>
0

>  <SCORE.SYSTEM.CONST>
0

>  <SCORE.SYSTEM.DIHEDRAL>
0

>  <SCORE.SYSTEM.SOLV>
0

>  <SCORE.SYSTEM.norm>
0

>  <SCORE.heavy>
34

>  <SCORE.norm>
-2.27418

>  <RMSD>
1.163

$$$$
1mwl
 OpenBabel11021811403D
libRbt.so/2013.1/901 2013/11/27
 34 36  0  0  0  0  0  0  0  0999 V2000
   -8.8152    6.0558   20.2971 C   0  0  2  0  0  0  0  0  0  0  0  0
   -9.9959    6.6354   20.7647 O   0  0  0  0  0  0  0  0  0  0  0  0
   -8.7719    4.5951   20.8276 C   0  0  2  0  0  0  0  0  0  0  0  0
   -9.9470    3.8530   20.3609 N   0  3  0  0  0  0  0  0  0  0  0  0
   -8.6673    4.5784   22.3808 C   0  0  1  0  0  0  0  0  0  0  0  0
   -8.6032    3.3071   22.8496 O   0  0  0  0  0  0  0  0  0  0  0  0
   -7.3999    5.3921   22.8042 C   0  0  2  0  0  0  0  0  0  0  0  0
   -7.2659    5.3892   24.2410 O   0  0  0  0  0  0  0  0  0  0  0  0
   -7.5423    6.8503   22.2501 C   0  0  2  0  0  0  0  0  0  0  0  0
   -7.6856    6.8285   20.7775 O   0  0  0  0  0  0  0  0  0  0  0  0
   -6.3590    7.7727   22.5647 C   0  0  2  0  0  0  0  0  0  0  0  0
   -6.5672    9.0173   21.9807 O   0  0  0  0  0  0  0  0  0  0  0  0
   -5.0146    7.2593   22.0177 C   0  0  0  0  0  0  0  0  0  0  0  0
  -13.0305    9.4327   19.6575 C   0  0  2  0  0  0  0  0  0  0  0  0
  -13.7027   10.6052   19.0421 N   0  3  0  0  0  0  0  0  0  0  0  0
  -11.9372    9.8920   20.6672 C   0  0  0  0  0  0  0  0  0  0  0  0
  -11.2197    8.6445   21.2988 C   0  0  2  0  0  0  0  0  0  0  0  0
  -10.1745    9.1201   22.2777 N   0  3  0  0  0  0  0  0  0  0  0  0
  -10.5911    7.7747   20.1566 C   0  0  2  0  0  0  0  0  0  0  0  0
  -11.7024    7.3271   19.1759 C   0  0  2  0  0  0  0  0  0  0  0  0
  -11.1216    6.5762   18.1371 O   0  0  0  0  0  0  0  0  0  0  0  0
  -12.3898    8.5699   18.5495 C   0  0  1  0  0  0  0  0  0  0  0  0
  -13.4021    8.1364   17.6530 O   0  0  0  0  0  0  0  0  0  0  0  0
  -13.0273    7.7090   16.3726 C   0  0  2  0  0  0  0  0  0  0  0  0
  -14.1223    8.1709   15.3924 C   0  0  2  0  0  0  0  0  0  0  0  0
  -14.1971    9.5803   15.4174 O   0  0  0  0  0  0  0  0  0  0  0  0
  -15.4900    7.5329   15.8134 C   0  0  1  0  0  0  0  0  0  0  0  0
  -16.6073    7.9536   14.9332 N   0  3  0  0  0  0  0  0  0  0  0  0
  -17.6051    8.7500   15.6922 C   0  0  0  0  0  0  0  0  0  0  0  0
  -15.3560    5.9713   15.7985 C   0  0  2  0  0  0  0  0  0  0  0  0
  -15.0112    5.5218   14.4746 O   0  0  0  0  0  0  0  0  0  0  0  0
  -16.5941    5.3137   16.1754 C   0  0  0  0  0  0  0  0  0  0  0  0
  -14.1848    5.5257   16.7274 C   0  0  0  0  0  0  0  0  0  0  0  0
  -12.9190    6.2401   16.3584 O   0  0  0  0  0  0  0  0  0  0  0  0
  1  2  1  1  0  0  0
  1  3  1  0  0  0  0
  1 10  1  0  0  0  0
  3  4  1  1  0  0  0
  3  5  1  0  0  0  0
  5  6  1  6  0  0  0
  5  7  1  0  0  0  0
  7  8  1  1  0  0  0
  7  9  1  0  0  0  0
  9 10  1  6  0  0  0
  9 11  1  0  0  0  0
 11 12  1  6  0  0  0
 11 13  1  0  0  0  0
 14 15  1  6  0  0  0
 14 16  1  0  0  0  0
 14 22  1  0  0  0  0
 16 17  1  0  0  0  0
 17 18  1  1  0  0  0
 17 19  1  0  0  0  0
 19  2  1  1  0  0  0
 19 20  1  0  0  0  0
 20 21  1  6  0  0  0
 20 22  1  0  0  0  0
 22 23  1  6  0  0  0
 24 23  1  1  0  0  0
 24 25  1  0  0  0  0
 24 34  1  0  0  0  0
 25 26  1  1  0  0  0
 25 27  1  0  0  0  0
 27 28  1  6  0  0  0
 27 30  1  0  0  0  0
 28 29  1  0  0  0  0
 30 31  1  6  0  0  0
 30 32  1  0  0  0  0
 30 33  1  0  0  0  0
 33 34  1  0  0  0  0
M  CHG  4   4   1  15   1  18   1  28   1
M  END
>  <CHROM.1>
-158.98776933,-144.32289960,-50.61771845,-86.83014907,-176.98961314,177.55192475
56.70371783,58.45645256,176.37415274,167.16783811,160.28123667,-143.51712369
62.53413625,4.66137331,-62.57820018,-11.38242364,7.11415381,19.22886595,0.01408913
0.70815060,-2.98282013

>  <Name>
1mwl

>  <RI>
0

>  <Rbt.Current_Directory>
/home/itssahil/PROJECTS/Mol_Feturizer/New_Systems/rnas/1mwl

>  <Rbt.Executable>
rbdock ($Id: //depot/dev/client3/rdock/2013.1/src/exe/rbdock.cxx#4 $)

>  <Rbt.Library>
libRbt.so (2013.1, Build901 2013/11/27)

>  <Rbt.Parameter_File>
/export/apps/rDock/src/rDock_2013.1_src/data/scripts/dock_solv.prm

>  <Rbt.Receptor>
prm/pocket_docking_3.prm

>  <SCORE>
-72.9032

>  <SCORE.INTER>
-57.8491

>  <SCORE.INTER.CONST>
1

>  <SCORE.INTER.POLAR>
-8.34601

>  <SCORE.INTER.ROT>
6

>  <SCORE.INTER.SOLV>
23.242

>  <SCORE.INTER.VDW>
-26.0933

>  <SCORE.INTER.norm>
-1.70144

>  <SCORE.INTRA>
-15.0541

>  <SCORE.INTRA.DIHEDRAL>
-21.0923

>  <SCORE.INTRA.DIHEDRAL.0>
42.0816

>  <SCORE.INTRA.POLAR>
-0.511484

>  <SCORE.INTRA.POLAR.0>
-0.254682

>  <SCORE.INTRA.REPUL>
0

>  <SCORE.INTRA.REPUL.0>
0

>  <SCORE.INTRA.SOLV>
0.60398

>  <SCORE.INTRA.SOLV.lig_0>
-109.803

>  <SCORE.INTRA.VDW>
-3.07092

>  <SCORE.INTRA.VDW.0>
0.32176

>  <SCORE.INTRA.norm>
-0.442769

>  <SCORE.RESTR>
0

>  <SCORE.RESTR.CAVITY>
0

>  <SCORE.RESTR.norm>
0

>  <SCORE.SYSTEM>
0

>  <SCORE.SYSTEM.CONST>
0

>  <SCORE.SYSTEM.DIHEDRAL>
0

>  <SCORE.SYSTEM.SOLV>
0

>  <SCORE.SYSTEM.norm>
0

>  <SCORE.heavy>
34

>  <SCORE.norm>
-2.14421

>  <RMSD>
1.180

$$$$
1mwl
 OpenBabel11021811403D
libRbt.so/2013.1/901 2013/11/27
 34 36  0  0  0  0  0  0  0  0999 V2000
   -9.0223    6.0494   20.1912 C   0  0  2  0  0  0  0  0  0  0  0  0
  -10.1221    6.7142   20.7361 O   0  0  0  0  0  0  0  0  0  0  0  0
   -9.1960    4.5348   20.4960 C   0  0  2  0  0  0  0  0  0  0  0  0
  -10.4509    4.0438   19.9184 N   0  3  0  0  0  0  0  0  0  0  0  0
   -9.1337    4.2732   22.0294 C   0  0  1  0  0  0  0  0  0  0  0  0
   -9.2590    2.9502   22.3018 O   0  0  0  0  0  0  0  0  0  0  0  0
   -7.7765    4.8275   22.5754 C   0  0  2  0  0  0  0  0  0  0  0  0
   -7.6802    4.5925   23.9959 O   0  0  0  0  0  0  0  0  0  0  0  0
   -7.7005    6.3572   22.2464 C   0  0  2  0  0  0  0  0  0  0  0  0
   -7.8085    6.5746   20.7868 O   0  0  0  0  0  0  0  0  0  0  0  0
   -6.4087    7.0460   22.7008 C   0  0  2  0  0  0  0  0  0  0  0  0
   -6.1882    6.7855   24.0487 O   0  0  0  0  0  0  0  0  0  0  0  0
   -6.4439    8.5786   22.5580 C   0  0  0  0  0  0  0  0  0  0  0  0
  -13.0415    9.6593   19.7050 C   0  0  2  0  0  0  0  0  0  0  0  0
  -13.6634   10.8795   19.1307 N   0  3  0  0  0  0  0  0  0  0  0  0
  -11.9501   10.0371   20.7500 C   0  0  0  0  0  0  0  0  0  0  0  0
  -11.2857    8.7398   21.3379 C   0  0  2  0  0  0  0  0  0  0  0  0
  -10.2414    9.1369   22.3519 N   0  3  0  0  0  0  0  0  0  0  0  0
  -10.6682    7.8982   20.1688 C   0  0  2  0  0  0  0  0  0  0  0  0
  -11.7778    7.5315   19.1531 C   0  0  2  0  0  0  0  0  0  0  0  0
  -11.2057    6.8058   18.0918 O   0  0  0  0  0  0  0  0  0  0  0  0
  -12.4123    8.8228   18.5707 C   0  0  1  0  0  0  0  0  0  0  0  0
  -13.4238    8.4631   17.6412 O   0  0  0  0  0  0  0  0  0  0  0  0
  -13.0397    8.0064   16.3737 C   0  0  2  0  0  0  0  0  0  0  0  0
  -14.1721    8.3620   15.3918 C   0  0  2  0  0  0  0  0  0  0  0  0
  -14.3308    9.7643   15.3611 O   0  0  0  0  0  0  0  0  0  0  0  0
  -15.4940    7.6620   15.8580 C   0  0  1  0  0  0  0  0  0  0  0  0
  -16.6451    7.9792   14.9779 N   0  3  0  0  0  0  0  0  0  0  0  0
  -17.7687    8.5489   15.7646 C   0  0  0  0  0  0  0  0  0  0  0  0
  -15.2670    6.1117   15.9040 C   0  0  2  0  0  0  0  0  0  0  0  0
  -14.9121    5.6295   14.5945 O   0  0  0  0  0  0  0  0  0  0  0  0
  -16.4589    5.3980   16.3251 C   0  0  0  0  0  0  0  0  0  0  0  0
  -14.0601    5.7748   16.8330 C   0  0  0  0  0  0  0  0  0  0  0  0
  -12.8439    6.5472   16.4171 O   0  0  0  0  0  0  0  0  0  0  0  0
  1  2  1  1  0  0  0
  1  3  1  0  0  0  0
  1 10  1  0  0  0  0
  3  4  1  1  0  0  0
  3  5  1  0  0  0  0
  5  6  1  6  0  0  0
  5  7  1  0  0  0  0
  7  8  1  1  0  0  0
  7  9  1  0  0  0  0
  9 10  1  6  0  0  0
  9 11  1  0  0  0  0
 11 12  1  1  0  0  0
 11 13  1  0  0  0  0
 14 15  1  6  0  0  0
 14 16  1  0  0  0  0
 14 22  1  0  0  0  0
 16 17  1  0  0  0  0
 17 18  1  1  0  0  0
 17 19  1  0  0  0  0
 19  2  1  1  0  0  0
 19 20  1  0  0  0  0
 20 21  1  6  0  0  0
 20 22  1  0  0  0  0
 22 23  1  6  0  0  0
 24 23  1  1  0  0  0
 24 25  1  0  0  0  0
 24 34  1  0  0  0  0
 25 26  1  1  0  0  0
 25 27  1  0  0  0  0
 27 28  1  6  0  0  0
 27 30  1  0  0  0  0
 28 29  1  0  0  0  0
 30 31  1  6  0  0  0
 30 32  1  0  0  0  0
 30 33  1  0  0  0  0
 33 34  1  0  0  0  0
M  CHG  4   4   1  15   1  18   1  28   1
M  END
>  <CHROM.1>
-148.62241136,-150.07918547,-45.56646400,-164.65438771,-177.18343226,-52.62218550
-58.61299114,-44.95328592,174.90768706,70.56463814,163.80174951,-151.91888452
-51.04147364,-4.45624244,-61.13997875,-11.52407625,7.08211609,19.28358971
0.03614572,0.74517428,-2.94582378

>  <Name>
1mwl

>  <RI>
0

>  <Rbt.Current_Directory>
/home/itssahil/PROJECTS/Mol_Feturizer/New_Systems/rnas/1mwl

>  <Rbt.Executable>
rbdock ($Id: //depot/dev/client3/rdock/2013.1/src/exe/rbdock.cxx#4 $)

>  <Rbt.Library>
libRbt.so (2013.1, Build901 2013/11/27)

>  <Rbt.Parameter_File>
/export/apps/rDock/src/rDock_2013.1_src/data/scripts/dock_solv.prm

>  <Rbt.Receptor>
prm/pocket_docking_3.prm

>  <SCORE>
-76.7166

>  <SCORE.INTER>
-62.7092

>  <SCORE.INTER.CONST>
1

>  <SCORE.INTER.POLAR>
-9.31354

>  <SCORE.INTER.ROT>
6

>  <SCORE.INTER.SOLV>
21.4307

>  <SCORE.INTER.VDW>
-25.5046

>  <SCORE.INTER.norm>
-1.84439

>  <SCORE.INTRA>
-14.0073

>  <SCORE.INTRA.DIHEDRAL>
-23.1901

>  <SCORE.INTRA.DIHEDRAL.0>
42.0816

>  <SCORE.INTRA.POLAR>
-0.137201

>  <SCORE.INTRA.POLAR.0>
-0.254682

>  <SCORE.INTRA.REPUL>
0

>  <SCORE.INTRA.REPUL.0>
0

>  <SCORE.INTRA.SOLV>
0.859056

>  <SCORE.INTRA.SOLV.lig_0>
-109.803

>  <SCORE.INTRA.VDW>
-2.37535

>  <SCORE.INTRA.VDW.0>
0.32176

>  <SCORE.INTRA.norm>
-0.411981

>  <SCORE.RESTR>
0

>  <SCORE.RESTR.CAVITY>
0

>  <SCORE.RESTR.norm>
0

>  <SCORE.SYSTEM>
0

>  <SCORE.SYSTEM.CONST>
0

>  <SCORE.SYSTEM.DIHEDRAL>
0

>  <SCORE.SYSTEM.SOLV>
0

>  <SCORE.SYSTEM.norm>
0

>  <SCORE.heavy>
34

>  <SCORE.norm>
-2.25637

>  <RMSD>
1.217

$$$$
1mwl
 OpenBabel11021811403D
libRbt.so/2013.1/901 2013/11/27
 34 36  0  0  0  0  0  0  0  0999 V2000
   -8.8706    6.0938   20.4799 C   0  0  2  0  0  0  0  0  0  0  0  0
   -9.9260    6.8365   21.0120 O   0  0  0  0  0  0  0  0  0  0  0  0
   -8.9143    4.6858   21.1375 C   0  0  2  0  0  0  0  0  0  0  0  0
  -10.2036    4.0420   20.8678 N   0  3  0  0  0  0  0  0  0  0  0  0
   -8.6356    4.7852   22.6659 C   0  0  1  0  0  0  0  0  0  0  0  0
   -8.6468    3.5573   23.2425 O   0  0  0  0  0  0  0  0  0  0  0  0
   -7.2529    5.4860   22.8764 C   0  0  2  0  0  0  0  0  0  0  0  0
   -6.9570    5.5863   24.2852 O   0  0  0  0  0  0  0  0  0  0  0  0
   -7.3100    6.9007   22.2060 C   0  0  2  0  0  0  0  0  0  0  0  0
   -7.6216    6.7740   20.7651 O   0  0  0  0  0  0  0  0  0  0  0  0
   -6.0118    7.7096   22.3073 C   0  0  2  0  0  0  0  0  0  0  0  0
   -5.0082    7.0772   21.5820 O   0  0  0  0  0  0  0  0  0  0  0  0
   -5.4821    7.8478   23.7463 C   0  0  0  0  0  0  0  0  0  0  0  0
  -12.6582    9.9253   19.8923 C   0  0  2  0  0  0  0  0  0  0  0  0
  -13.1998   11.1731   19.2964 N   0  3  0  0  0  0  0  0  0  0  0  0
  -11.5751   10.2514   20.9631 C   0  0  0  0  0  0  0  0  0  0  0  0
  -10.9955    8.9244   21.5741 C   0  0  2  0  0  0  0  0  0  0  0  0
   -9.9576    9.2721   22.6126 N   0  3  0  0  0  0  0  0  0  0  0  0
  -10.3940    8.0442   20.4253 C   0  0  2  0  0  0  0  0  0  0  0  0
  -11.4953    7.7304   19.3833 C   0  0  2  0  0  0  0  0  0  0  0  0
  -10.9358    6.9690   18.3405 O   0  0  0  0  0  0  0  0  0  0  0  0
  -12.0455    9.0498   18.7785 C   0  0  1  0  0  0  0  0  0  0  0  0
  -13.0508    8.7383   17.8251 O   0  0  0  0  0  0  0  0  0  0  0  0
  -12.7550    8.8879   16.4640 C   0  0  2  0  0  0  0  0  0  0  0  0
  -13.8462    9.7853   15.8500 C   0  0  2  0  0  0  0  0  0  0  0  0
  -13.8138   11.0469   16.4824 O   0  0  0  0  0  0  0  0  0  0  0  0
  -15.2423    9.1008   16.0437 C   0  0  1  0  0  0  0  0  0  0  0  0
  -16.3554    9.9190   15.5035 N   0  3  0  0  0  0  0  0  0  0  0  0
  -17.5886    9.7284   16.3090 C   0  0  0  0  0  0  0  0  0  0  0  0
  -15.2268    7.6947   15.3512 C   0  0  2  0  0  0  0  0  0  0  0  0
  -14.9642    7.8449   13.9434 O   0  0  0  0  0  0  0  0  0  0  0  0
  -16.4967    7.0049   15.4884 C   0  0  0  0  0  0  0  0  0  0  0  0
  -14.0602    6.8302   15.9211 C   0  0  0  0  0  0  0  0  0  0  0  0
  -12.7581    7.5663   15.8137 O   0  0  0  0  0  0  0  0  0  0  0  0
  1  2  1  1  0  0  0
  1  3  1  0  0  0  0
  1 10  1  0  0  0  0
  3  4  1  1  0  0  0
  3  5  1  0  0  0  0
  5  6  1  6  0  0  0
  5  7  1  0  0  0  0
  7  8  1  1  0  0  0
  7  9  1  0  0  0  0
  9 10  1  6  0  0  0
  9 11  1  0  0  0  0
 11 12  1  6  0  0  0
 11 13  1  0  0  0  0
 14 15  1  6  0  0  0
 14 16  1  0  0  0  0
 14 22  1  0  0  0  0
 16 17  1  0  0  0  0
 17 18  1  1  0  0  0
 17 19  1  0  0  0  0
 19  2  1  1  0  0  0
 19 20  1  0  0  0  0
 20 21  1  6  0  0  0
 20 22  1  0  0  0  0
 22 23  1  6  0  0  0
 24 23  1  1  0  0  0
 24 25  1  0  0  0  0
 24 34  1  0  0  0  0
 25 26  1  1  0  0  0
 25 27  1  0  0  0  0
 27 28  1  6  0  0  0
 27 30  1  0  0  0  0
 28 29  1  0  0  0  0
 30 31  1  6  0  0  0
 30 32  1  0  0  0  0
 30 33  1  0  0  0  0
 33 34  1  0  0  0  0
M  CHG  4   4   1  15   1  18   1  28   1
M  END
>  <CHROM.1>
-164.50509272,-151.70616383,57.45089391,51.09124332,58.23640149,65.53281927
101.98431574,-58.87878994,57.88999425,-172.85220281,133.16336810,-126.46207596
53.47866413,-27.33202966,57.33508164,-11.17117485,7.72566085,19.39575006
0.11237745,0.74695069,-2.91217057

>  <Name>
1mwl

>  <RI>
0

>  <Rbt.Current_Directory>
/home/itssahil/PROJECTS/Mol_Feturizer/New_Systems/rnas/1mwl

>  <Rbt.Executable>
rbdock ($Id: //depot/dev/client3/rdock/2013.1/src/exe/rbdock.cxx#4 $)

>  <Rbt.Library>
libRbt.so (2013.1, Build901 2013/11/27)

>  <Rbt.Parameter_File>
/export/apps/rDock/src/rDock_2013.1_src/data/scripts/dock_solv.prm

>  <Rbt.Receptor>
prm/pocket_docking_4.prm

>  <SCORE>
-68.8409

>  <SCORE.INTER>
-56.0822

>  <SCORE.INTER.CONST>
1

>  <SCORE.INTER.POLAR>
-8.07469

>  <SCORE.INTER.ROT>
6

>  <SCORE.INTER.SOLV>
30.29

>  <SCORE.INTER.VDW>
-28.1691

>  <SCORE.INTER.norm>
-1.64948

>  <SCORE.INTRA>
-12.7587

>  <SCORE.INTRA.DIHEDRAL>
-15.4947

>  <SCORE.INTRA.DIHEDRAL.0>
42.0816

>  <SCORE.INTRA.POLAR>
-0.752073

>  <SCORE.INTRA.POLAR.0>
-0.254682

>  <SCORE.INTRA.REPUL>
0

>  <SCORE.INTRA.REPUL.0>
0

>  <SCORE.INTRA.SOLV>
0.570362

>  <SCORE.INTRA.SOLV.lig_0>
-109.803

>  <SCORE.INTRA.VDW>
-2.73952

>  <SCORE.INTRA.VDW.0>
0.32176

>  <SCORE.INTRA.norm>
-0.375257

>  <SCORE.RESTR>
0

>  <SCORE.RESTR.CAVITY>
0

>  <SCORE.RESTR.norm>
0

>  <SCORE.SYSTEM>
0

>  <SCORE.SYSTEM.CONST>
0

>  <SCORE.SYSTEM.DIHEDRAL>
0

>  <SCORE.SYSTEM.SOLV>
0

>  <SCORE.SYSTEM.norm>
0

>  <SCORE.heavy>
34

>  <SCORE.norm>
-2.02473

>  <RMSD>
1.218

$$$$
1mwl
 OpenBabel11021811403D
libRbt.so/2013.1/901 2013/11/27
 34 36  0  0  0  0  0  0  0  0999 V2000
   -9.1672    6.0704   19.6452 C   0  0  2  0  0  0  0  0  0  0  0  0
  -10.2581    6.7091   20.2374 O   0  0  0  0  0  0  0  0  0  0  0  0
   -9.5456    4.5732   19.4658 C   0  0  2  0  0  0  0  0  0  0  0  0
  -10.7462    4.4517   18.6332 N   0  3  0  0  0  0  0  0  0  0  0  0
   -9.7399    3.8869   20.8495 C   0  0  1  0  0  0  0  0  0  0  0  0
  -10.0453    2.5735   20.7016 O   0  0  0  0  0  0  0  0  0  0  0  0
   -8.4272    4.0624   21.6823 C   0  0  2  0  0  0  0  0  0  0  0  0
   -8.5686    3.4279   22.9706 O   0  0  0  0  0  0  0  0  0  0  0  0
   -8.1398    5.5949   21.8325 C   0  0  2  0  0  0  0  0  0  0  0  0
   -8.0060    6.2253   20.5006 O   0  0  0  0  0  0  0  0  0  0  0  0
   -6.8633    5.9332   22.6110 C   0  0  2  0  0  0  0  0  0  0  0  0
   -6.9818    5.4853   23.9220 O   0  0  0  0  0  0  0  0  0  0  0  0
   -6.5745    7.4431   22.6956 C   0  0  0  0  0  0  0  0  0  0  0  0
  -13.0804    9.8230   19.4642 C   0  0  2  0  0  0  0  0  0  0  0  0
  -13.6601   11.1104   19.0041 N   0  3  0  0  0  0  0  0  0  0  0  0
  -11.9938   10.0663   20.5533 C   0  0  0  0  0  0  0  0  0  0  0  0
  -11.3739    8.6995   21.0200 C   0  0  2  0  0  0  0  0  0  0  0  0
  -10.3334    8.9664   22.0796 N   0  3  0  0  0  0  0  0  0  0  0  0
  -10.7632    7.9576   19.7818 C   0  0  2  0  0  0  0  0  0  0  0  0
  -11.8679    7.7231   18.7226 C   0  0  2  0  0  0  0  0  0  0  0  0
  -11.3011    7.0875   17.6024 O   0  0  0  0  0  0  0  0  0  0  0  0
  -12.4583    9.0825   18.2612 C   0  0  1  0  0  0  0  0  0  0  0  0
  -13.4661    8.8438   17.2896 O   0  0  0  0  0  0  0  0  0  0  0  0
  -13.4786    9.6273   16.1284 C   0  0  2  0  0  0  0  0  0  0  0  0
  -14.8883    9.5233   15.5160 C   0  0  2  0  0  0  0  0  0  0  0  0
  -15.8290   10.0299   16.4385 O   0  0  0  0  0  0  0  0  0  0  0  0
  -15.1914    8.0236   15.1782 C   0  0  1  0  0  0  0  0  0  0  0  0
  -16.5478    7.8330   14.6091 N   0  3  0  0  0  0  0  0  0  0  0  0
  -17.5675    7.7697   15.6871 C   0  0  0  0  0  0  0  0  0  0  0  0
  -14.1106    7.4934   14.1743 C   0  0  2  0  0  0  0  0  0  0  0  0
  -14.1465    8.2687   12.9614 O   0  0  0  0  0  0  0  0  0  0  0  0
  -14.3355    6.1055   13.8133 C   0  0  0  0  0  0  0  0  0  0  0  0
  -12.6832    7.6880   14.7724 C   0  0  0  0  0  0  0  0  0  0  0  0
  -12.4736    9.1155   15.1810 O   0  0  0  0  0  0  0  0  0  0  0  0
  1  2  1  1  0  0  0
  1  3  1  0  0  0  0
  1 10  1  0  0  0  0
  3  4  1  6  0  0  0
  3  5  1  0  0  0  0
  5  6  1  6  0  0  0
  5  7  1  0  0  0  0
  7  8  1  1  0  0  0
  7  9  1  0  0  0  0
  9 10  1  6  0  0  0
  9 11  1  0  0  0  0
 11 12  1  1  0  0  0
 11 13  1  0  0  0  0
 14 15  1  6  0  0  0
 14 16  1  0  0  0  0
 14 22  1  0  0  0  0
 16 17  1  0  0  0  0
 17 18  1  1  0  0  0
 17 19  1  0  0  0  0
 19  2  1  1  0  0  0
 19 20  1  0  0  0  0
 20 21  1  6  0  0  0
 20 22  1  0  0  0  0
 22 23  1  6  0  0  0
 24 23  1  1  0  0  0
 24 25  1  0  0  0  0
 24 34  1  0  0  0  0
 25 26  1  1  0  0  0
 25 27  1  0  0  0  0
 27 28  1  6  0  0  0
 27 30  1  0  0  0  0
 28 29  1  0  0  0  0
 30 31  1  6  0  0  0
 30 32  1  0  0  0  0
 30 33  1  0  0  0  0
 33 34  1  0  0  0  0
M  CHG  4   4   1  15   1  18   1  28   1
M  END
>  <CHROM.1>
-134.30962671,-149.91306712,30.55274207,65.91748874,-43.67012582,-63.56222809
-58.52118791,-54.06294086,85.51847667,-58.40974675,105.16816065,-160.46469132
-56.68880746,37.89638608,63.12909832,-11.61407483,7.26296704,18.65567744
-0.05579954,0.85164491,-2.62457557

>  <Name>
1mwl

>  <RI>
0

>  <Rbt.Current_Directory>
/home/itssahil/PROJECTS/Mol_Feturizer/New_Systems/rnas/1mwl

>  <Rbt.Executable>
rbdock ($Id: //depot/dev/client3/rdock/2013.1/src/exe/rbdock.cxx#4 $)

>  <Rbt.Library>
libRbt.so (2013.1, Build901 2013/11/27)

>  <Rbt.Parameter_File>
/export/apps/rDock/src/rDock_2013.1_src/data/scripts/dock_solv.prm

>  <Rbt.Receptor>
prm/pocket_docking_5.prm

>  <SCORE>
-74.638

>  <SCORE.INTER>
-59.7808

>  <SCORE.INTER.CONST>
1

>  <SCORE.INTER.POLAR>
-8.01114

>  <SCORE.INTER.ROT>
6

>  <SCORE.INTER.SOLV>
23.6111

>  <SCORE.INTER.VDW>
-28.6205

>  <SCORE.INTER.norm>
-1.75826

>  <SCORE.INTRA>
-14.8572

>  <SCORE.INTRA.DIHEDRAL>
-18.3685

>  <SCORE.INTRA.DIHEDRAL.0>
42.0816

>  <SCORE.INTRA.POLAR>
-0.880926

>  <SCORE.INTRA.POLAR.0>
-0.254682

>  <SCORE.INTRA.REPUL>
0

>  <SCORE.INTRA.REPUL.0>
0

>  <SCORE.INTRA.SOLV>
1.30496

>  <SCORE.INTRA.SOLV.lig_0>
-109.803

>  <SCORE.INTRA.VDW>
-3.33026

>  <SCORE.INTRA.VDW.0>
0.32176

>  <SCORE.INTRA.norm>
-0.436976

>  <SCORE.RESTR>
0

>  <SCORE.RESTR.CAVITY>
0

>  <SCORE.RESTR.norm>
0

>  <SCORE.SYSTEM>
0

>  <SCORE.SYSTEM.CONST>
0

>  <SCORE.SYSTEM.DIHEDRAL>
0

>  <SCORE.SYSTEM.SOLV>
0

>  <SCORE.SYSTEM.norm>
0

>  <SCORE.heavy>
34

>  <SCORE.norm>
-2.19524

>  <RMSD>
1.227

$$$$
1mwl
 OpenBabel11021811403D
libRbt.so/2013.1/901 2013/11/27
 34 36  0  0  0  0  0  0  0  0999 V2000
   -9.1502    5.7327   20.7999 C   0  0  2  0  0  0  0  0  0  0  0  0
  -10.0769    6.6658   21.2682 O   0  0  0  0  0  0  0  0  0  0  0  0
   -9.1198    4.5565   21.8160 C   0  0  2  0  0  0  0  0  0  0  0  0
  -10.4539    3.9613   21.9400 N   0  3  0  0  0  0  0  0  0  0  0  0
   -8.5796    5.0366   23.1949 C   0  0  1  0  0  0  0  0  0  0  0  0
   -8.5260    4.0098   24.0797 O   0  0  0  0  0  0  0  0  0  0  0  0
   -7.1620    5.6641   22.9843 C   0  0  2  0  0  0  0  0  0  0  0  0
   -6.6254    6.1120   24.2467 O   0  0  0  0  0  0  0  0  0  0  0  0
   -7.2937    6.8506   21.9701 C   0  0  2  0  0  0  0  0  0  0  0  0
   -7.8521    6.3700   20.6869 O   0  0  0  0  0  0  0  0  0  0  0  0
   -5.9752    7.5593   21.6398 C   0  0  2  0  0  0  0  0  0  0  0  0
   -5.0090    6.6177   21.3033 O   0  0  0  0  0  0  0  0  0  0  0  0
   -5.3981    8.3678   22.8161 C   0  0  0  0  0  0  0  0  0  0  0  0
  -12.9668    9.2652   19.4933 C   0  0  2  0  0  0  0  0  0  0  0  0
  -13.5660   10.3402   18.6621 N   0  3  0  0  0  0  0  0  0  0  0  0
  -11.9817    9.8636   20.5409 C   0  0  0  0  0  0  0  0  0  0  0  0
  -11.3395    8.7168   21.4027 C   0  0  2  0  0  0  0  0  0  0  0  0
  -10.3991    9.3269   22.4126 N   0  3  0  0  0  0  0  0  0  0  0  0
  -10.6003    7.7094   20.4566 C   0  0  2  0  0  0  0  0  0  0  0  0
  -11.6063    7.1264   19.4342 C   0  0  2  0  0  0  0  0  0  0  0  0
  -10.9247    6.2501   18.5695 O   0  0  0  0  0  0  0  0  0  0  0  0
  -12.2191    8.2694   18.5813 C   0  0  1  0  0  0  0  0  0  0  0  0
  -13.1353    7.7123   17.6503 O   0  0  0  0  0  0  0  0  0  0  0  0
  -12.7258    7.5494   16.3205 C   0  0  2  0  0  0  0  0  0  0  0  0
  -13.8558    8.0841   15.4204 C   0  0  2  0  0  0  0  0  0  0  0  0
  -14.0491    9.4560   15.6909 O   0  0  0  0  0  0  0  0  0  0  0  0
  -15.1650    7.2709   15.7028 C   0  0  1  0  0  0  0  0  0  0  0  0
  -16.3138    7.7457   14.8935 N   0  3  0  0  0  0  0  0  0  0  0  0
  -17.3245    8.4124   15.7536 C   0  0  0  0  0  0  0  0  0  0  0  0
  -14.8999    5.7527   15.4163 C   0  0  2  0  0  0  0  0  0  0  0  0
  -14.5186    5.5733   14.0394 O   0  0  0  0  0  0  0  0  0  0  0  0
  -16.0782    4.9388   15.6538 C   0  0  0  0  0  0  0  0  0  0  0  0
  -13.6953    5.2493   16.2700 C   0  0  0  0  0  0  0  0  0  0  0  0
  -12.4942    6.1200   16.0507 O   0  0  0  0  0  0  0  0  0  0  0  0
  1  2  1  1  0  0  0
  1  3  1  0  0  0  0
  1 10  1  0  0  0  0
  3  4  1  1  0  0  0
  3  5  1  0  0  0  0
  5  6  1  1  0  0  0
  5  7  1  0  0  0  0
  7  8  1  1  0  0  0
  7  9  1  0  0  0  0
  9 10  1  6  0  0  0
  9 11  1  0  0  0  0
 11 12  1  1  0  0  0
 11 13  1  0  0  0  0
 14 15  1  6  0  0  0
 14 16  1  0  0  0  0
 14 22  1  0  0  0  0
 16 17  1  0  0  0  0
 17 18  1  1  0  0  0
 17 19  1  0  0  0  0
 19  2  1  1  0  0  0
 19 20  1  0  0  0  0
 20 21  1  6  0  0  0
 20 22  1  0  0  0  0
 22 23  1  6  0  0  0
 24 23  1  1  0  0  0
 24 25  1  0  0  0  0
 24 34  1  0  0  0  0
 25 26  1  1  0  0  0
 25 27  1  0  0  0  0
 27 28  1  6  0  0  0
 27 30  1  0  0  0  0
 28 29  1  0  0  0  0
 30 31  1  6  0  0  0
 30 32  1  0  0  0  0
 30 33  1  0  0  0  0
 33 34  1  0  0  0  0
M  CHG  4   4   1  15   1  18   1  28   1
M  END
>  <CHROM.1>
-164.78510412,-167.56312275,-42.66572984,177.57466766,-61.50925493,49.53597373
158.55949895,-82.55459351,-60.31488021,-178.00722808,138.42763696,-133.51207960
-177.78173940,9.37946055,178.56955232,-11.20027988,7.00318798,19.33328970
-0.04914344,0.74717726,-2.92733758

>  <Name>
1mwl

>  <RI>
0

>  <Rbt.Current_Directory>
/home/itssahil/PROJECTS/Mol_Feturizer/New_Systems/rnas/1mwl

>  <Rbt.Executable>
rbdock ($Id: //depot/dev/client3/rdock/2013.1/src/exe/rbdock.cxx#4 $)

>  <Rbt.Library>
libRbt.so (2013.1, Build901 2013/11/27)

>  <Rbt.Parameter_File>
/export/apps/rDock/src/rDock_2013.1_src/data/scripts/dock_solv.prm

>  <Rbt.Receptor>
prm/pocket_docking_6.prm

>  <SCORE>
-77.0615

>  <SCORE.INTER>
-58.1774

>  <SCORE.INTER.CONST>
1

>  <SCORE.INTER.POLAR>
-9.24222

>  <SCORE.INTER.ROT>
6

>  <SCORE.INTER.SOLV>
25.8571

>  <SCORE.INTER.VDW>
-24.1965

>  <SCORE.INTER.norm>
-1.7111

>  <SCORE.INTRA>
-19.0827

>  <SCORE.INTRA.DIHEDRAL>
-20.5294

>  <SCORE.INTRA.DIHEDRAL.0>
42.0816

>  <SCORE.INTRA.POLAR>
-1.49241

>  <SCORE.INTRA.POLAR.0>
-0.254682

>  <SCORE.INTRA.REPUL>
0

>  <SCORE.INTRA.REPUL.0>
0

>  <SCORE.INTRA.SOLV>
-1.31923

>  <SCORE.INTRA.SOLV.lig_0>
-109.803

>  <SCORE.INTRA.VDW>
-3.08418

>  <SCORE.INTRA.VDW.0>
0.32176

>  <SCORE.INTRA.norm>
-0.561256

>  <SCORE.RESTR>
0.198573

>  <SCORE.RESTR.CAVITY>
0.198573

>  <SCORE.RESTR.norm>
0.00584037

>  <SCORE.SYSTEM>
0

>  <SCORE.SYSTEM.CONST>
0

>  <SCORE.SYSTEM.DIHEDRAL>
0

>  <SCORE.SYSTEM.SOLV>
0

>  <SCORE.SYSTEM.norm>
0

>  <SCORE.heavy>
34

>  <SCORE.norm>
-2.26651

>  <RMSD>
1.232

$$$$
1mwl
 OpenBabel11021811403D
libRbt.so/2013.1/901 2013/11/27
 34 36  0  0  0  0  0  0  0  0999 V2000
   -9.1163    6.0455   20.1905 C   0  0  2  0  0  0  0  0  0  0  0  0
  -10.1111    6.8699   20.7189 O   0  0  0  0  0  0  0  0  0  0  0  0
   -9.4728    4.5816   20.5736 C   0  0  2  0  0  0  0  0  0  0  0  0
  -10.7921    4.2270   20.0414 N   0  3  0  0  0  0  0  0  0  0  0  0
   -9.4099    4.3875   22.1169 C   0  0  1  0  0  0  0  0  0  0  0  0
   -9.6949    3.1057   22.4573 O   0  0  0  0  0  0  0  0  0  0  0  0
   -7.9818    4.7903   22.6127 C   0  0  2  0  0  0  0  0  0  0  0  0
   -7.8844    4.6130   24.0415 O   0  0  0  0  0  0  0  0  0  0  0  0
   -7.7209    6.2805   22.2063 C   0  0  2  0  0  0  0  0  0  0  0  0
   -7.8330    6.4401   20.7396 O   0  0  0  0  0  0  0  0  0  0  0  0
   -6.3427    6.8205   22.6049 C   0  0  2  0  0  0  0  0  0  0  0  0
   -6.0831    6.5062   23.9342 O   0  0  0  0  0  0  0  0  0  0  0  0
   -6.2242    8.3514   22.4928 C   0  0  0  0  0  0  0  0  0  0  0  0
  -13.1083    9.4126   19.0424 C   0  0  2  0  0  0  0  0  0  0  0  0
  -13.7492   10.5285   18.3011 N   0  3  0  0  0  0  0  0  0  0  0  0
  -12.2607    9.9560   20.2307 C   0  0  0  0  0  0  0  0  0  0  0  0
  -11.5721    8.7691   20.9971 C   0  0  2  0  0  0  0  0  0  0  0  0
  -10.7673    9.3251   22.1459 N   0  3  0  0  0  0  0  0  0  0  0  0
  -10.6752    7.9588   19.9994 C   0  0  2  0  0  0  0  0  0  0  0  0
  -11.5468    7.4255   18.8362 C   0  0  2  0  0  0  0  0  0  0  0  0
  -10.7255    6.7293   17.9302 O   0  0  0  0  0  0  0  0  0  0  0  0
  -12.2064    8.6101   18.0805 C   0  0  1  0  0  0  0  0  0  0  0  0
  -12.9977    8.0986   17.0181 O   0  0  0  0  0  0  0  0  0  0  0  0
  -12.7400    8.5426   15.7147 C   0  0  2  0  0  0  0  0  0  0  0  0
  -13.8493    7.9787   14.8068 C   0  0  2  0  0  0  0  0  0  0  0  0
  -15.0963    8.4795   15.2390 O   0  0  0  0  0  0  0  0  0  0  0  0
  -13.8232    6.4137   14.8764 C   0  0  1  0  0  0  0  0  0  0  0  0
  -14.8850    5.7909   14.0489 N   0  3  0  0  0  0  0  0  0  0  0  0
  -15.3502    4.5189   14.6584 C   0  0  0  0  0  0  0  0  0  0  0  0
  -12.4155    5.9012   14.4148 C   0  0  2  0  0  0  0  0  0  0  0  0
  -12.1619    6.3194   13.0605 O   0  0  0  0  0  0  0  0  0  0  0  0
  -12.3236    4.4529   14.4503 C   0  0  0  0  0  0  0  0  0  0  0  0
  -11.2971    6.5508   15.2868 C   0  0  0  0  0  0  0  0  0  0  0  0
  -11.4241    8.0450   15.2786 O   0  0  0  0  0  0  0  0  0  0  0  0
  1  2  1  1  0  0  0
  1  3  1  0  0  0  0
  1 10  1  0  0  0  0
  3  4  1  1  0  0  0
  3  5  1  0  0  0  0
  5  6  1  6  0  0  0
  5  7  1  0  0  0  0
  7  8  1  1  0  0  0
  7  9  1  0  0  0  0
  9 10  1  6  0  0  0
  9 11  1  0  0  0  0
 11 12  1  1  0  0  0
 11 13  1  0  0  0  0
 14 15  1  6  0  0  0
 14 16  1  0  0  0  0
 14 22  1  0  0  0  0
 16 17  1  0  0  0  0
 17 18  1  1  0  0  0
 17 19  1  0  0  0  0
 19  2  1  1  0  0  0
 19 20  1  0  0  0  0
 20 21  1  6  0  0  0
 20 22  1  0  0  0  0
 22 23  1  6  0  0  0
 24 23  1  1  0  0  0
 24 25  1  0  0  0  0
 24 34  1  0  0  0  0
 25 26  1  1  0  0  0
 25 27  1  0  0  0  0
 27 28  1  6  0  0  0
 27 30  1  0  0  0  0
 28 29  1  0  0  0  0
 30 31  1  6  0  0  0
 30 32  1  0  0  0  0
 30 33  1  0  0  0  0
 33 34  1  0  0  0  0
M  CHG  4   4   1  15   1  18   1  28   1
M  END
>  <CHROM.1>
-137.67644888,-170.98269843,64.11741075,56.30773566,-72.47881870,-47.99685356
-57.60615858,38.42053504,164.42214820,-59.32784179,116.14191110,-172.66340985
142.41061242,-28.02156453,-66.24177537,-10.99694202,6.83858750,18.80560250
-0.32034468,0.90365508,-2.61869073

>  <Name>
1mwl

>  <RI>
0

>  <Rbt.Current_Directory>
/home/itssahil/PROJECTS/Mol_Feturizer/New_Systems/rnas/1mwl

>  <Rbt.Executable>
rbdock ($Id: //depot/dev/client3/rdock/2013.1/src/exe/rbdock.cxx#4 $)

>  <Rbt.Library>
libRbt.so (2013.1, Build901 2013/11/27)

>  <Rbt.Parameter_File>
/export/apps/rDock/src/rDock_2013.1_src/data/scripts/dock_solv.prm

>  <Rbt.Receptor>
prm/pocket_docking_3.prm

>  <SCORE>
-63.4851

>  <SCORE.INTER>
-53.8572

>  <SCORE.INTER.CONST>
1

>  <SCORE.INTER.POLAR>
-8.31704

>  <SCORE.INTER.ROT>
6

>  <SCORE.INTER.SOLV>
20.4418

>  <SCORE.INTER.VDW>
-22.5953

>  <SCORE.INTER.norm>
-1.58404

>  <SCORE.INTRA>
-9.62783

>  <SCORE.INTRA.DIHEDRAL>
-18.3341

>  <SCORE.INTRA.DIHEDRAL.0>
42.0816

>  <SCORE.INTRA.POLAR>
0.251952

>  <SCORE.INTRA.POLAR.0>
-0.254682

>  <SCORE.INTRA.REPUL>
0

>  <SCORE.INTRA.REPUL.0>
0

>  <SCORE.INTRA.SOLV>
-0.546946

>  <SCORE.INTRA.SOLV.lig_0>
-109.803

>  <SCORE.INTRA.VDW>
-1.04394

>  <SCORE.INTRA.VDW.0>
0.32176

>  <SCORE.INTRA.norm>
-0.283171

>  <SCORE.RESTR>
0

>  <SCORE.RESTR.CAVITY>
0

>  <SCORE.RESTR.norm>
0

>  <SCORE.SYSTEM>
0

>  <SCORE.SYSTEM.CONST>
0

>  <SCORE.SYSTEM.DIHEDRAL>
0

>  <SCORE.SYSTEM.SOLV>
0

>  <SCORE.SYSTEM.norm>
0

>  <SCORE.heavy>
34

>  <SCORE.norm>
-1.86721

>  <RMSD>
1.244

$$$$
1mwl
 OpenBabel11021811403D
libRbt.so/2013.1/901 2013/11/27
 34 36  0  0  0  0  0  0  0  0999 V2000
   -9.0251    5.6230   20.8602 C   0  0  2  0  0  0  0  0  0  0  0  0
   -9.9757    6.5580   21.2736 O   0  0  0  0  0  0  0  0  0  0  0  0
   -9.0570    4.4466   21.8761 C   0  0  2  0  0  0  0  0  0  0  0  0
  -10.3974    3.8542   21.9213 N   0  3  0  0  0  0  0  0  0  0  0  0
   -8.5977    4.9252   23.2844 C   0  0  1  0  0  0  0  0  0  0  0  0
   -8.5984    3.8982   24.1706 O   0  0  0  0  0  0  0  0  0  0  0  0
   -7.1689    5.5497   23.1578 C   0  0  2  0  0  0  0  0  0  0  0  0
   -6.7065    5.9963   24.4497 O   0  0  0  0  0  0  0  0  0  0  0  0
   -7.2383    6.7368   22.1380 C   0  0  2  0  0  0  0  0  0  0  0  0
   -7.7213    6.2575   20.8240 O   0  0  0  0  0  0  0  0  0  0  0  0
   -5.9011    7.4426   21.8859 C   0  0  2  0  0  0  0  0  0  0  0  0
   -4.8562    6.6369   22.3245 O   0  0  0  0  0  0  0  0  0  0  0  0
   -5.7586    8.7797   22.6358 C   0  0  0  0  0  0  0  0  0  0  0  0
  -12.7282    9.2627   19.4383 C   0  0  2  0  0  0  0  0  0  0  0  0
  -13.2721   10.3447   18.5788 N   0  3  0  0  0  0  0  0  0  0  0  0
  -11.7033    9.8352   20.4619 C   0  0  0  0  0  0  0  0  0  0  0  0
  -11.1201    8.6800   21.3539 C   0  0  2  0  0  0  0  0  0  0  0  0
  -10.1394    9.2656   22.3397 N   0  3  0  0  0  0  0  0  0  0  0  0
  -10.4457    7.6050   20.4342 C   0  0  2  0  0  0  0  0  0  0  0  0
  -11.4904    7.0497   19.4355 C   0  0  2  0  0  0  0  0  0  0  0  0
  -10.8656    6.1112   18.5935 O   0  0  0  0  0  0  0  0  0  0  0  0
  -12.0443    8.1997   18.5523 C   0  0  1  0  0  0  0  0  0  0  0  0
  -12.9972    7.6680   17.6436 O   0  0  0  0  0  0  0  0  0  0  0  0
  -12.6054    7.4365   16.3186 C   0  0  2  0  0  0  0  0  0  0  0  0
  -13.7208    7.9796   15.4055 C   0  0  2  0  0  0  0  0  0  0  0  0
  -13.8577    9.3676   15.6224 O   0  0  0  0  0  0  0  0  0  0  0  0
  -15.0586    7.2306   15.7287 C   0  0  1  0  0  0  0  0  0  0  0  0
  -16.1944    7.7182   14.9088 N   0  3  0  0  0  0  0  0  0  0  0  0
  -17.2873    8.2308   15.7742 C   0  0  0  0  0  0  0  0  0  0  0  0
  -14.8558    5.6931   15.5012 C   0  0  2  0  0  0  0  0  0  0  0  0
  -14.4932    5.4444   14.1301 O   0  0  0  0  0  0  0  0  0  0  0  0
  -16.0632    4.9365   15.7788 C   0  0  0  0  0  0  0  0  0  0  0  0
  -13.6650    5.1765   16.3663 C   0  0  0  0  0  0  0  0  0  0  0  0
  -12.4324    5.9895   16.1045 O   0  0  0  0  0  0  0  0  0  0  0  0
  1  2  1  1  0  0  0
  1  3  1  0  0  0  0
  1 10  1  0  0  0  0
  3  4  1  1  0  0  0
  3  5  1  0  0  0  0
  5  6  1  1  0  0  0
  5  7  1  0  0  0  0
  7  8  1  1  0  0  0
  7  9  1  0  0  0  0
  9 10  1  6  0  0  0
  9 11  1  0  0  0  0
 11 12  1  1  0  0  0
 11 13  1  0  0  0  0
 14 15  1  6  0  0  0
 14 16  1  0  0  0  0
 14 22  1  0  0  0  0
 16 17  1  0  0  0  0
 17 18  1  1  0  0  0
 17 19  1  0  0  0  0
 19  2  1  1  0  0  0
 19 20  1  0  0  0  0
 20 21  1  6  0  0  0
 20 22  1  0  0  0  0
 22 23  1  6  0  0  0
 24 23  1  1  0  0  0
 24 25  1  0  0  0  0
 24 34  1  0  0  0  0
 25 26  1  1  0  0  0
 25 27  1  0  0  0  0
 27 28  1  6  0  0  0
 27 30  1  0  0  0  0
 28 29  1  0  0  0  0
 30 31  1  6  0  0  0
 30 32  1  0  0  0  0
 30 33  1  0  0  0  0
 33 34  1  0  0  0  0
M  CHG  4   4   1  15   1  18   1  28   1
M  END
>  <CHROM.1>
-164.95972691,-162.31051596,-52.88395211,-64.71239420,172.70486511,16.98960307
175.59951896,34.46661329,178.64999118,179.31149465,138.75655425,-134.75273722
70.87776462,-1.22220818,59.98432793,-11.10603688,6.93690517,19.39692969,0.05921729
0.76147227,-3.09323725

>  <Name>
1mwl

>  <RI>
0

>  <Rbt.Current_Directory>
/home/itssahil/PROJECTS/Mol_Feturizer/New_Systems/rnas/1mwl

>  <Rbt.Executable>
rbdock ($Id: //depot/dev/client3/rdock/2013.1/src/exe/rbdock.cxx#4 $)

>  <Rbt.Library>
libRbt.so (2013.1, Build901 2013/11/27)

>  <Rbt.Parameter_File>
/export/apps/rDock/src/rDock_2013.1_src/data/scripts/dock_solv.prm

>  <Rbt.Receptor>
prm/pocket_docking_7.prm

>  <SCORE>
-75.8702

>  <SCORE.INTER>
-57.7526

>  <SCORE.INTER.CONST>
1

>  <SCORE.INTER.POLAR>
-8.83971

>  <SCORE.INTER.ROT>
6

>  <SCORE.INTER.SOLV>
25.4935

>  <SCORE.INTER.VDW>
-25.1338

>  <SCORE.INTER.norm>
-1.69861

>  <SCORE.INTRA>
-18.1176

>  <SCORE.INTRA.DIHEDRAL>
-17.2452

>  <SCORE.INTRA.DIHEDRAL.0>
42.0816

>  <SCORE.INTRA.POLAR>
-1.57924

>  <SCORE.INTRA.POLAR.0>
-0.254682

>  <SCORE.INTRA.REPUL>
0

>  <SCORE.INTRA.REPUL.0>
0

>  <SCORE.INTRA.SOLV>
-0.622341

>  <SCORE.INTRA.SOLV.lig_0>
-109.803

>  <SCORE.INTRA.VDW>
-3.81437

>  <SCORE.INTRA.VDW.0>
0.32176

>  <SCORE.INTRA.norm>
-0.53287

>  <SCORE.RESTR>
0

>  <SCORE.RESTR.CAVITY>
0

>  <SCORE.RESTR.norm>
0

>  <SCORE.SYSTEM>
0

>  <SCORE.SYSTEM.CONST>
0

>  <SCORE.SYSTEM.DIHEDRAL>
0

>  <SCORE.SYSTEM.SOLV>
0

>  <SCORE.SYSTEM.norm>
0

>  <SCORE.heavy>
34

>  <SCORE.norm>
-2.23148

>  <RMSD>
1.270

$$$$
1mwl
 OpenBabel11021811403D
libRbt.so/2013.1/901 2013/11/27
 34 36  0  0  0  0  0  0  0  0999 V2000
   -8.6877    5.9004   20.4865 C   0  0  2  0  0  0  0  0  0  0  0  0
   -9.6816    6.6972   21.0573 O   0  0  0  0  0  0  0  0  0  0  0  0
   -8.7243    4.5233   21.2071 C   0  0  2  0  0  0  0  0  0  0  0  0
  -10.0469    3.9090   21.0562 N   0  3  0  0  0  0  0  0  0  0  0  0
   -8.3356    4.6782   22.7065 C   0  0  1  0  0  0  0  0  0  0  0  0
   -8.3403    3.4767   23.3362 O   0  0  0  0  0  0  0  0  0  0  0  0
   -6.9223    5.3441   22.7894 C   0  0  2  0  0  0  0  0  0  0  0  0
   -6.5249    5.4943   24.1684 O   0  0  0  0  0  0  0  0  0  0  0  0
   -6.9870    6.7303   22.0628 C   0  0  2  0  0  0  0  0  0  0  0  0
   -7.4031    6.5529   20.6540 O   0  0  0  0  0  0  0  0  0  0  0  0
   -5.6628    7.5021   22.0379 C   0  0  2  0  0  0  0  0  0  0  0  0
   -4.6506    6.7127   22.5723 O   0  0  0  0  0  0  0  0  0  0  0  0
   -5.6871    8.7955   22.8727 C   0  0  0  0  0  0  0  0  0  0  0  0
  -12.5621    9.5919   19.7991 C   0  0  2  0  0  0  0  0  0  0  0  0
  -13.1637   10.7835   19.1483 N   0  3  0  0  0  0  0  0  0  0  0  0
  -11.5009   10.0188   20.8563 C   0  0  0  0  0  0  0  0  0  0  0  0
  -10.8574    8.7508   21.5258 C   0  0  2  0  0  0  0  0  0  0  0  0
   -9.8424    9.1956   22.5497 N   0  3  0  0  0  0  0  0  0  0  0  0
  -10.2078    7.8529   20.4176 C   0  0  2  0  0  0  0  0  0  0  0  0
  -11.2879    7.4386   19.3885 C   0  0  2  0  0  0  0  0  0  0  0  0
  -10.6866    6.6617   18.3809 O   0  0  0  0  0  0  0  0  0  0  0  0
  -11.9017    8.7008   18.7257 C   0  0  1  0  0  0  0  0  0  0  0  0
  -12.8864    8.2975   17.7852 O   0  0  0  0  0  0  0  0  0  0  0  0
  -12.5913    8.3972   16.4193 C   0  0  2  0  0  0  0  0  0  0  0  0
  -13.5439    9.4469   15.8164 C   0  0  2  0  0  0  0  0  0  0  0  0
  -13.3128   10.6910   16.4421 O   0  0  0  0  0  0  0  0  0  0  0  0
  -15.0240    8.9809   16.0329 C   0  0  1  0  0  0  0  0  0  0  0  0
  -16.0091    9.9558   15.5043 N   0  3  0  0  0  0  0  0  0  0  0  0
  -17.1921   10.0467   16.3977 C   0  0  0  0  0  0  0  0  0  0  0  0
  -15.2304    7.5866   15.3471 C   0  0  2  0  0  0  0  0  0  0  0  0
  -14.9687    7.6917   13.9350 O   0  0  0  0  0  0  0  0  0  0  0  0
  -16.5875    7.0962   15.5054 C   0  0  0  0  0  0  0  0  0  0  0  0
  -14.1989    6.5579   15.9048 C   0  0  0  0  0  0  0  0  0  0  0  0
  -12.8027    7.0894   15.7756 O   0  0  0  0  0  0  0  0  0  0  0  0
  1  2  1  1  0  0  0
  1  3  1  0  0  0  0
  1 10  1  0  0  0  0
  3  4  1  1  0  0  0
  3  5  1  0  0  0  0
  5  6  1  6  0  0  0
  5  7  1  0  0  0  0
  7  8  1  1  0  0  0
  7  9  1  0  0  0  0
  9 10  1  6  0  0  0
  9 11  1  0  0  0  0
 11 12  1  1  0  0  0
 11 13  1  0  0  0  0
 14 15  1  6  0  0  0
 14 16  1  0  0  0  0
 14 22  1  0  0  0  0
 16 17  1  0  0  0  0
 17 18  1  1  0  0  0
 17 19  1  0  0  0  0
 19  2  1  1  0  0  0
 19 20  1  0  0  0  0
 20 21  1  6  0  0  0
 20 22  1  0  0  0  0
 22 23  1  6  0  0  0
 24 23  1  1  0  0  0
 24 25  1  0  0  0  0
 24 34  1  0  0  0  0
 25 26  1  1  0  0  0
 25 27  1  0  0  0  0
 27 28  1  6  0  0  0
 27 30  1  0  0  0  0
 28 29  1  0  0  0  0
 30 31  1  6  0  0  0
 30 32  1  0  0  0  0
 30 33  1  0  0  0  0
 33 34  1  0  0  0  0
M  CHG  4   4   1  15   1  18   1  28   1
M  END
>  <CHROM.1>
-160.95273512,-159.08072527,-166.11336733,-75.15535519,-176.81847271,5.74154810
168.27586346,-38.99222018,58.63626580,-57.71770016,133.42153419,-114.76929506
170.63356927,-22.10193541,62.00946225,-10.98554639,7.56357615,19.38070610
0.13426113,0.73316044,-2.95757504

>  <Name>
1mwl

>  <RI>
0

>  <Rbt.Current_Directory>
/home/itssahil/PROJECTS/Mol_Feturizer/New_Systems/rnas/1mwl

>  <Rbt.Executable>
rbdock ($Id: //depot/dev/client3/rdock/2013.1/src/exe/rbdock.cxx#4 $)

>  <Rbt.Library>
libRbt.so (2013.1, Build901 2013/11/27)

>  <Rbt.Parameter_File>
/export/apps/rDock/src/rDock_2013.1_src/data/scripts/dock_solv.prm

>  <Rbt.Receptor>
prm/pocket_docking_5.prm

>  <SCORE>
-66.8179

>  <SCORE.INTER>
-55.7683

>  <SCORE.INTER.CONST>
1

>  <SCORE.INTER.POLAR>
-7.93957

>  <SCORE.INTER.ROT>
6

>  <SCORE.INTER.SOLV>
29.6505

>  <SCORE.INTER.VDW>
-28.1971

>  <SCORE.INTER.norm>
-1.64024

>  <SCORE.INTRA>
-11.3592

>  <SCORE.INTRA.DIHEDRAL>
-13.5256

>  <SCORE.INTRA.DIHEDRAL.0>
42.0816

>  <SCORE.INTRA.POLAR>
-0.519685

>  <SCORE.INTRA.POLAR.0>
-0.254682

>  <SCORE.INTRA.REPUL>
0

>  <SCORE.INTRA.REPUL.0>
0

>  <SCORE.INTRA.SOLV>
1.83287

>  <SCORE.INTRA.SOLV.lig_0>
-109.803

>  <SCORE.INTRA.VDW>
-3.74586

>  <SCORE.INTRA.VDW.0>
0.32176

>  <SCORE.INTRA.norm>
-0.334093

>  <SCORE.RESTR>
0.309541

>  <SCORE.RESTR.CAVITY>
0.309541

>  <SCORE.RESTR.norm>
0.00910415

>  <SCORE.SYSTEM>
0

>  <SCORE.SYSTEM.CONST>
0

>  <SCORE.SYSTEM.DIHEDRAL>
0

>  <SCORE.SYSTEM.SOLV>
0

>  <SCORE.SYSTEM.norm>
0

>  <SCORE.heavy>
34

>  <SCORE.norm>
-1.96523

>  <RMSD>
1.280

$$$$
1mwl
 OpenBabel11021811403D
libRbt.so/2013.1/901 2013/11/27
 34 36  0  0  0  0  0  0  0  0999 V2000
   -8.9482    5.8800   20.3276 C   0  0  2  0  0  0  0  0  0  0  0  0
   -9.9594    6.6533   20.9005 O   0  0  0  0  0  0  0  0  0  0  0  0
   -8.9747    4.4899   21.0231 C   0  0  2  0  0  0  0  0  0  0  0  0
  -10.2871    3.8610   20.8456 N   0  3  0  0  0  0  0  0  0  0  0  0
   -8.6057    4.6231   22.5297 C   0  0  1  0  0  0  0  0  0  0  0  0
   -8.6017    3.4105   23.1378 O   0  0  0  0  0  0  0  0  0  0  0  0
   -7.2026    5.3060   22.6413 C   0  0  2  0  0  0  0  0  0  0  0  0
   -6.8235    5.4369   24.0274 O   0  0  0  0  0  0  0  0  0  0  0  0
   -7.2775    6.7041   21.9386 C   0  0  2  0  0  0  0  0  0  0  0  0
   -7.6745    6.5464   20.5220 O   0  0  0  0  0  0  0  0  0  0  0  0
   -5.9635    7.4937   21.9433 C   0  0  2  0  0  0  0  0  0  0  0  0
   -4.9052    6.6400   22.2340 O   0  0  0  0  0  0  0  0  0  0  0  0
   -5.9193    8.6111   23.0015 C   0  0  0  0  0  0  0  0  0  0  0  0
  -12.8993    9.5117   19.6982 C   0  0  2  0  0  0  0  0  0  0  0  0
  -13.5304   10.6896   19.0502 N   0  3  0  0  0  0  0  0  0  0  0  0
  -11.8050    9.9611   20.7113 C   0  0  0  0  0  0  0  0  0  0  0  0
  -11.1309    8.7073   21.3776 C   0  0  2  0  0  0  0  0  0  0  0  0
  -10.0839    9.1738   22.3588 N   0  3  0  0  0  0  0  0  0  0  0  0
  -10.5145    7.7958   20.2616 C   0  0  2  0  0  0  0  0  0  0  0  0
  -11.6268    7.3594   19.2770 C   0  0  2  0  0  0  0  0  0  0  0  0
  -11.0559    6.5703   18.2614 O   0  0  0  0  0  0  0  0  0  0  0  0
  -12.2709    8.6075   18.6164 C   0  0  1  0  0  0  0  0  0  0  0  0
  -13.2849    8.1841   17.7169 O   0  0  0  0  0  0  0  0  0  0  0  0
  -12.9040    7.6315   16.4872 C   0  0  2  0  0  0  0  0  0  0  0  0
  -13.9652    8.0408   15.4483 C   0  0  2  0  0  0  0  0  0  0  0  0
  -13.9904    9.4485   15.3466 O   0  0  0  0  0  0  0  0  0  0  0  0
  -15.3616    7.4896   15.8969 C   0  0  1  0  0  0  0  0  0  0  0  0
  -16.4483    7.8675   14.9607 N   0  3  0  0  0  0  0  0  0  0  0  0
  -17.5362    8.5814   15.6767 C   0  0  0  0  0  0  0  0  0  0  0  0
  -15.2828    5.9292   16.0233 C   0  0  2  0  0  0  0  0  0  0  0  0
  -14.9319    5.3518   14.7517 O   0  0  0  0  0  0  0  0  0  0  0  0
  -16.5496    5.3503   16.4323 C   0  0  0  0  0  0  0  0  0  0  0  0
  -14.1440    5.5291   17.0113 C   0  0  0  0  0  0  0  0  0  0  0  0
  -12.8476    6.1644   16.6057 O   0  0  0  0  0  0  0  0  0  0  0  0
  1  2  1  1  0  0  0
  1  3  1  0  0  0  0
  1 10  1  0  0  0  0
  3  4  1  1  0  0  0
  3  5  1  0  0  0  0
  5  6  1  6  0  0  0
  5  7  1  0  0  0  0
  7  8  1  1  0  0  0
  7  9  1  0  0  0  0
  9 10  1  6  0  0  0
  9 11  1  0  0  0  0
 11 12  1  1  0  0  0
 11 13  1  0  0  0  0
 14 15  1  6  0  0  0
 14 16  1  0  0  0  0
 14 22  1  0  0  0  0
 16 17  1  0  0  0  0
 17 18  1  1  0  0  0
 17 19  1  0  0  0  0
 19  2  1  1  0  0  0
 19 20  1  0  0  0  0
 20 21  1  6  0  0  0
 20 22  1  0  0  0  0
 22 23  1  6  0  0  0
 24 23  1  1  0  0  0
 24 25  1  0  0  0  0
 24 34  1  0  0  0  0
 25 26  1  1  0  0  0
 25 27  1  0  0  0  0
 27 28  1  6  0  0  0
 27 30  1  0  0  0  0
 28 29  1  0  0  0  0
 30 31  1  6  0  0  0
 30 32  1  0  0  0  0
 30 33  1  0  0  0  0
 33 34  1  0  0  0  0
M  CHG  4   4   1  15   1  18   1  28   1
M  END
>  <CHROM.1>
-159.49552799,-156.80364732,-177.73598650,-79.19823528,-55.17330434,16.90318708
171.40354610,62.24057632,56.52324371,-59.64626734,164.70824166,-146.24993829
59.35342547,-4.23807721,-62.92040790,-11.26396814,7.04099920,19.32731806
0.04379611,0.69682123,-3.01406051

>  <Name>
1mwl

>  <RI>
0

>  <Rbt.Current_Directory>
/home/itssahil/PROJECTS/Mol_Feturizer/New_Systems/rnas/1mwl

>  <Rbt.Executable>
rbdock ($Id: //depot/dev/client3/rdock/2013.1/src/exe/rbdock.cxx#4 $)

>  <Rbt.Library>
libRbt.so (2013.1, Build901 2013/11/27)

>  <Rbt.Parameter_File>
/export/apps/rDock/src/rDock_2013.1_src/data/scripts/dock_solv.prm

>  <Rbt.Receptor>
prm/pocket_docking_4.prm

>  <SCORE>
-78.2402

>  <SCORE.INTER>
-64.3902

>  <SCORE.INTER.CONST>
1

>  <SCORE.INTER.POLAR>
-9.46133

>  <SCORE.INTER.ROT>
6

>  <SCORE.INTER.SOLV>
24.1816

>  <SCORE.INTER.VDW>
-27.0496

>  <SCORE.INTER.norm>
-1.89383

>  <SCORE.INTRA>
-13.85

>  <SCORE.INTRA.DIHEDRAL>
-22.2615

>  <SCORE.INTRA.DIHEDRAL.0>
42.0816

>  <SCORE.INTRA.POLAR>
0.25418

>  <SCORE.INTRA.POLAR.0>
-0.254682

>  <SCORE.INTRA.REPUL>
0

>  <SCORE.INTRA.REPUL.0>
0

>  <SCORE.INTRA.SOLV>
-0.962246

>  <SCORE.INTRA.SOLV.lig_0>
-109.803

>  <SCORE.INTRA.VDW>
-3.10237

>  <SCORE.INTRA.VDW.0>
0.32176

>  <SCORE.INTRA.norm>
-0.407354

>  <SCORE.RESTR>
0

>  <SCORE.RESTR.CAVITY>
0

>  <SCORE.RESTR.norm>
0

>  <SCORE.SYSTEM>
0

>  <SCORE.SYSTEM.CONST>
0

>  <SCORE.SYSTEM.DIHEDRAL>
0

>  <SCORE.SYSTEM.SOLV>
0

>  <SCORE.SYSTEM.norm>
0

>  <SCORE.heavy>
34

>  <SCORE.norm>
-2.30118

>  <RMSD>
1.292

$$$$
1mwl
 OpenBabel11021811403D
libRbt.so/2013.1/901 2013/11/27
 34 36  0  0  0  0  0  0  0  0999 V2000
   -9.0838    5.6696   20.8117 C   0  0  2  0  0  0  0  0  0  0  0  0
  -10.0360    6.5819   21.2698 O   0  0  0  0  0  0  0  0  0  0  0  0
   -9.0517    4.4854   21.8184 C   0  0  2  0  0  0  0  0  0  0  0  0
  -10.3770    3.8654   21.9116 N   0  3  0  0  0  0  0  0  0  0  0  0
   -8.5468    4.9630   23.2114 C   0  0  1  0  0  0  0  0  0  0  0  0
   -8.4917    3.9297   24.0885 O   0  0  0  0  0  0  0  0  0  0  0  0
   -7.1371    5.6176   23.0336 C   0  0  2  0  0  0  0  0  0  0  0  0
   -6.6330    6.0641   24.3098 O   0  0  0  0  0  0  0  0  0  0  0  0
   -7.2707    6.8104   22.0270 C   0  0  2  0  0  0  0  0  0  0  0  0
   -7.7955    6.3310   20.7292 O   0  0  0  0  0  0  0  0  0  0  0  0
   -5.9590    7.5454   21.7281 C   0  0  2  0  0  0  0  0  0  0  0  0
   -4.9206    6.6266   21.6241 O   0  0  0  0  0  0  0  0  0  0  0  0
   -5.5456    8.5407   22.8276 C   0  0  0  0  0  0  0  0  0  0  0  0
  -12.8821    9.2744   19.5639 C   0  0  2  0  0  0  0  0  0  0  0  0
  -13.4672   10.3631   18.7408 N   0  3  0  0  0  0  0  0  0  0  0  0
  -11.8382    9.8445   20.5695 C   0  0  0  0  0  0  0  0  0  0  0  0
  -11.2117    8.6827   21.4226 C   0  0  2  0  0  0  0  0  0  0  0  0
  -10.2133    9.2659   22.3919 N   0  3  0  0  0  0  0  0  0  0  0  0
  -10.5462    7.6365   20.4640 C   0  0  2  0  0  0  0  0  0  0  0  0
  -11.6094    7.0828   19.4842 C   0  0  2  0  0  0  0  0  0  0  0  0
  -10.9935    6.1707   18.6073 O   0  0  0  0  0  0  0  0  0  0  0  0
  -12.2063    8.2397   18.6390 C   0  0  1  0  0  0  0  0  0  0  0  0
  -13.1757    7.7094   17.7471 O   0  0  0  0  0  0  0  0  0  0  0  0
  -12.8129    7.4949   16.4110 C   0  0  2  0  0  0  0  0  0  0  0  0
  -13.9418    8.0615   15.5292 C   0  0  2  0  0  0  0  0  0  0  0  0
  -14.0620    9.4472   15.7700 O   0  0  0  0  0  0  0  0  0  0  0  0
  -15.2793    7.3191   15.8683 C   0  0  1  0  0  0  0  0  0  0  0  0
  -16.4272    7.8289   15.0792 N   0  3  0  0  0  0  0  0  0  0  0  0
  -17.5485    8.2187   15.9718 C   0  0  0  0  0  0  0  0  0  0  0  0
  -15.0947    5.7835   15.6133 C   0  0  2  0  0  0  0  0  0  0  0  0
  -14.7622    5.5529   14.2314 O   0  0  0  0  0  0  0  0  0  0  0  0
  -16.3029    5.0331   15.9039 C   0  0  0  0  0  0  0  0  0  0  0  0
  -13.8912    5.2436   16.4459 C   0  0  0  0  0  0  0  0  0  0  0  0
  -12.6571    6.0500   16.1714 O   0  0  0  0  0  0  0  0  0  0  0  0
  1  2  1  1  0  0  0
  1  3  1  0  0  0  0
  1 10  1  0  0  0  0
  3  4  1  1  0  0  0
  3  5  1  0  0  0  0
  5  6  1  1  0  0  0
  5  7  1  0  0  0  0
  7  8  1  1  0  0  0
  7  9  1  0  0  0  0
  9 10  1  6  0  0  0
  9 11  1  0  0  0  0
 11 12  1  1  0  0  0
 11 13  1  0  0  0  0
 14 15  1  6  0  0  0
 14 16  1  0  0  0  0
 14 22  1  0  0  0  0
 16 17  1  0  0  0  0
 17 18  1  1  0  0  0
 17 19  1  0  0  0  0
 19  2  1  1  0  0  0
 19 20  1  0  0  0  0
 20 21  1  6  0  0  0
 20 22  1  0  0  0  0
 22 23  1  6  0  0  0
 24 23  1  1  0  0  0
 24 25  1  0  0  0  0
 24 34  1  0  0  0  0
 25 26  1  1  0  0  0
 25 27  1  0  0  0  0
 27 28  1  6  0  0  0
 27 30  1  0  0  0  0
 28 29  1  0  0  0  0
 30 31  1  6  0  0  0
 30 32  1  0  0  0  0
 30 33  1  0  0  0  0
 33 34  1  0  0  0  0
M  CHG  4   4   1  15   1  18   1  28   1
M  END
>  <CHROM.1>
-165.86034907,-162.40225104,-169.40633559,-63.10498181,-65.52855710,39.59312526
140.96569319,158.53906765,-59.21733521,-52.05521717,139.47868534,-133.72467651
68.48025273,-6.54928545,-67.22158031,-11.21886906,6.97939050,19.41603000
0.03106331,0.72889121,-3.04293849

>  <Name>
1mwl

>  <RI>
0

>  <Rbt.Current_Directory>
/home/itssahil/PROJECTS/Mol_Feturizer/New_Systems/rnas/1mwl

>  <Rbt.Executable>
rbdock ($Id: //depot/dev/client3/rdock/2013.1/src/exe/rbdock.cxx#4 $)

>  <Rbt.Library>
libRbt.so (2013.1, Build901 2013/11/27)

>  <Rbt.Parameter_File>
/export/apps/rDock/src/rDock_2013.1_src/data/scripts/dock_solv.prm

>  <Rbt.Receptor>
prm/pocket_docking_4.prm

>  <SCORE>
-83.374

>  <SCORE.INTER>
-68.6197

>  <SCORE.INTER.CONST>
1

>  <SCORE.INTER.POLAR>
-10.9577

>  <SCORE.INTER.ROT>
6

>  <SCORE.INTER.SOLV>
25.8594

>  <SCORE.INTER.VDW>
-25.4405

>  <SCORE.INTER.norm>
-2.01823

>  <SCORE.INTRA>
-14.7542

>  <SCORE.INTRA.DIHEDRAL>
-15.4711

>  <SCORE.INTRA.DIHEDRAL.0>
42.0816

>  <SCORE.INTRA.POLAR>
-0.859749

>  <SCORE.INTRA.POLAR.0>
-0.254682

>  <SCORE.INTRA.REPUL>
0

>  <SCORE.INTRA.REPUL.0>
0

>  <SCORE.INTRA.SOLV>
-0.481276

>  <SCORE.INTRA.SOLV.lig_0>
-109.803

>  <SCORE.INTRA.VDW>
-3.85492

>  <SCORE.INTRA.VDW.0>
0.32176

>  <SCORE.INTRA.norm>
-0.433948

>  <SCORE.RESTR>
0

>  <SCORE.RESTR.CAVITY>
0

>  <SCORE.RESTR.norm>
0

>  <SCORE.SYSTEM>
0

>  <SCORE.SYSTEM.CONST>
0

>  <SCORE.SYSTEM.DIHEDRAL>
0

>  <SCORE.SYSTEM.SOLV>
0

>  <SCORE.SYSTEM.norm>
0

>  <SCORE.heavy>
34

>  <SCORE.norm>
-2.45218

>  <RMSD>
1.307

$$$$
1mwl
 OpenBabel11021811403D
libRbt.so/2013.1/901 2013/11/27
 34 36  0  0  0  0  0  0  0  0999 V2000
   -8.7347    6.0617   20.5091 C   0  0  2  0  0  0  0  0  0  0  0  0
   -9.7664    6.8760   20.9793 O   0  0  0  0  0  0  0  0  0  0  0  0
   -8.9795    4.6314   21.0668 C   0  0  2  0  0  0  0  0  0  0  0  0
  -10.2874    4.1350   20.6280 N   0  3  0  0  0  0  0  0  0  0  0  0
   -8.8567    4.6191   22.6187 C   0  0  1  0  0  0  0  0  0  0  0  0
   -9.0439    3.3690   23.1108 O   0  0  0  0  0  0  0  0  0  0  0  0
   -7.4447    5.1661   23.0117 C   0  0  2  0  0  0  0  0  0  0  0  0
   -7.2920    5.1596   24.4466 O   0  0  0  0  0  0  0  0  0  0  0  0
   -7.2977    6.6138   22.4316 C   0  0  2  0  0  0  0  0  0  0  0  0
   -7.4649    6.5974   20.9615 O   0  0  0  0  0  0  0  0  0  0  0  0
   -5.9476    7.2824   22.7147 C   0  0  2  0  0  0  0  0  0  0  0  0
   -5.5016    6.9196   23.9807 O   0  0  0  0  0  0  0  0  0  0  0  0
   -6.0070    8.8208   22.7030 C   0  0  0  0  0  0  0  0  0  0  0  0
  -12.9983    8.9694   19.1267 C   0  0  2  0  0  0  0  0  0  0  0  0
  -13.7447    9.9397   18.2860 N   0  3  0  0  0  0  0  0  0  0  0  0
  -12.1691    9.7097   20.2177 C   0  0  0  0  0  0  0  0  0  0  0  0
  -11.3690    8.6756   21.0898 C   0  0  2  0  0  0  0  0  0  0  0  0
  -10.5844    9.4205   22.1416 N   0  3  0  0  0  0  0  0  0  0  0  0
  -10.4337    7.8280   20.1607 C   0  0  2  0  0  0  0  0  0  0  0  0
  -11.2869    7.0988   19.0943 C   0  0  2  0  0  0  0  0  0  0  0  0
  -10.4339    6.3689   18.2458 O   0  0  0  0  0  0  0  0  0  0  0  0
  -12.0578    8.1340   18.2322 C   0  0  1  0  0  0  0  0  0  0  0  0
  -12.8304    7.4441   17.2608 O   0  0  0  0  0  0  0  0  0  0  0  0
  -13.1143    8.0865   16.0486 C   0  0  2  0  0  0  0  0  0  0  0  0
  -14.3046    7.3513   15.4039 C   0  0  2  0  0  0  0  0  0  0  0  0
  -15.4219    7.4447   16.2616 O   0  0  0  0  0  0  0  0  0  0  0  0
  -13.9124    5.8540   15.1612 C   0  0  1  0  0  0  0  0  0  0  0  0
  -15.0199    5.0662   14.5672 N   0  3  0  0  0  0  0  0  0  0  0  0
  -15.7779    4.3447   15.6213 C   0  0  0  0  0  0  0  0  0  0  0  0
  -12.6542    5.7961   14.2281 C   0  0  2  0  0  0  0  0  0  0  0  0
  -12.9527    6.4184   12.9643 O   0  0  0  0  0  0  0  0  0  0  0  0
  -12.2383    4.4320   13.9569 C   0  0  0  0  0  0  0  0  0  0  0  0
  -11.4861    6.6197   14.8528 C   0  0  0  0  0  0  0  0  0  0  0  0
  -11.9355    8.0151   15.1683 O   0  0  0  0  0  0  0  0  0  0  0  0
  1  2  1  1  0  0  0
  1  3  1  0  0  0  0
  1 10  1  0  0  0  0
  3  4  1  1  0  0  0
  3  5  1  0  0  0  0
  5  6  1  6  0  0  0
  5  7  1  0  0  0  0
  7  8  1  1  0  0  0
  7  9  1  0  0  0  0
  9 10  1  6  0  0  0
  9 11  1  0  0  0  0
 11 12  1  1  0  0  0
 11 13  1  0  0  0  0
 14 15  1  6  0  0  0
 14 16  1  0  0  0  0
 14 22  1  0  0  0  0
 16 17  1  0  0  0  0
 17 18  1  1  0  0  0
 17 19  1  0  0  0  0
 19  2  1  1  0  0  0
 19 20  1  0  0  0  0
 20 21  1  6  0  0  0
 20 22  1  0  0  0  0
 22 23  1  6  0  0  0
 24 23  1  1  0  0  0
 24 25  1  0  0  0  0
 24 34  1  0  0  0  0
 25 26  1  1  0  0  0
 25 27  1  0  0  0  0
 27 28  1  6  0  0  0
 27 30  1  0  0  0  0
 28 29  1  0  0  0  0
 30 31  1  6  0  0  0
 30 32  1  0  0  0  0
 30 33  1  0  0  0  0
 33 34  1  0  0  0  0
M  CHG  4   4   1  15   1  18   1  28   1
M  END
>  <CHROM.1>
-137.02357105,-171.97609046,-54.90880490,55.73641875,-60.90924341,-36.38501501
176.40965822,-49.21194834,-81.97010041,179.61927862,88.10968841,-161.68175267
63.98148316,23.96941588,63.69950999,-10.86841837,6.73519176,19.05002724,-0.33075966
0.84113668,-2.67848633

>  <Name>
1mwl

>  <RI>
0

>  <Rbt.Current_Directory>
/home/itssahil/PROJECTS/Mol_Feturizer/New_Systems/rnas/1mwl

>  <Rbt.Executable>
rbdock ($Id: //depot/dev/client3/rdock/2013.1/src/exe/rbdock.cxx#4 $)

>  <Rbt.Library>
libRbt.so (2013.1, Build901 2013/11/27)

>  <Rbt.Parameter_File>
/export/apps/rDock/src/rDock_2013.1_src/data/scripts/dock_solv.prm

>  <Rbt.Receptor>
prm/pocket_docking_3.prm

>  <SCORE>
-55.1608

>  <SCORE.INTER>
-40.6547

>  <SCORE.INTER.CONST>
1

>  <SCORE.INTER.POLAR>
-5.90778

>  <SCORE.INTER.ROT>
6

>  <SCORE.INTER.SOLV>
18.6287

>  <SCORE.INTER.VDW>
-21.2201

>  <SCORE.INTER.norm>
-1.19573

>  <SCORE.INTRA>
-14.5061

>  <SCORE.INTRA.DIHEDRAL>
-25.1037

>  <SCORE.INTRA.DIHEDRAL.0>
42.0816

>  <SCORE.INTRA.POLAR>
0.248773

>  <SCORE.INTRA.POLAR.0>
-0.254682

>  <SCORE.INTRA.REPUL>
0

>  <SCORE.INTRA.REPUL.0>
0

>  <SCORE.INTRA.SOLV>
0.103408

>  <SCORE.INTRA.SOLV.lig_0>
-109.803

>  <SCORE.INTRA.VDW>
-2.85176

>  <SCORE.INTRA.VDW.0>
0.32176

>  <SCORE.INTRA.norm>
-0.42665

>  <SCORE.RESTR>
0

>  <SCORE.RESTR.CAVITY>
0

>  <SCORE.RESTR.norm>
0

>  <SCORE.SYSTEM>
0

>  <SCORE.SYSTEM.CONST>
0

>  <SCORE.SYSTEM.DIHEDRAL>
0

>  <SCORE.SYSTEM.SOLV>
0

>  <SCORE.SYSTEM.norm>
0

>  <SCORE.heavy>
34

>  <SCORE.norm>
-1.62238

>  <RMSD>
1.348

$$$$
1mwl
 OpenBabel11021811403D
libRbt.so/2013.1/901 2013/11/27
 34 36  0  0  0  0  0  0  0  0999 V2000
   -9.0129    5.5279   20.7211 C   0  0  2  0  0  0  0  0  0  0  0  0
  -10.0089    6.4189   21.1247 O   0  0  0  0  0  0  0  0  0  0  0  0
   -8.9689    4.3756   21.7637 C   0  0  2  0  0  0  0  0  0  0  0  0
  -10.2740    3.7119   21.8388 N   0  3  0  0  0  0  0  0  0  0  0  0
   -8.5211    4.9114   23.1550 C   0  0  1  0  0  0  0  0  0  0  0  0
   -8.4555    3.9068   24.0642 O   0  0  0  0  0  0  0  0  0  0  0  0
   -7.1303    5.6100   22.9967 C   0  0  2  0  0  0  0  0  0  0  0  0
   -6.6788    6.1113   24.2723 O   0  0  0  0  0  0  0  0  0  0  0  0
   -7.2761    6.7673   21.9511 C   0  0  2  0  0  0  0  0  0  0  0  0
   -7.7464    6.2318   20.6544 O   0  0  0  0  0  0  0  0  0  0  0  0
   -5.9826    7.5393   21.6666 C   0  0  2  0  0  0  0  0  0  0  0  0
   -4.9167    6.6508   21.5787 O   0  0  0  0  0  0  0  0  0  0  0  0
   -5.6123    8.5493   22.7680 C   0  0  0  0  0  0  0  0  0  0  0  0
  -12.6684    9.2923   19.4130 C   0  0  2  0  0  0  0  0  0  0  0  0
  -13.1788   10.4178   18.5895 N   0  3  0  0  0  0  0  0  0  0  0  0
  -11.5933    9.7924   20.4231 C   0  0  0  0  0  0  0  0  0  0  0  0
  -11.0465    8.5913   21.2766 C   0  0  2  0  0  0  0  0  0  0  0  0
  -10.0158    9.1074   22.2502 N   0  3  0  0  0  0  0  0  0  0  0  0
  -10.4467    7.5053   20.3188 C   0  0  2  0  0  0  0  0  0  0  0  0
  -11.5401    7.0229   19.3345 C   0  0  2  0  0  0  0  0  0  0  0  0
  -10.9815    6.0740   18.4584 O   0  0  0  0  0  0  0  0  0  0  0  0
  -12.0578    8.2172   18.4889 C   0  0  1  0  0  0  0  0  0  0  0  0
  -13.0563    7.7519   17.5929 O   0  0  0  0  0  0  0  0  0  0  0  0
  -13.0539    8.2317   16.2766 C   0  0  2  0  0  0  0  0  0  0  0  0
  -14.2532    7.5938   15.5502 C   0  0  2  0  0  0  0  0  0  0  0  0
  -15.4449    7.9891   16.1954 O   0  0  0  0  0  0  0  0  0  0  0  0
  -14.0976    6.0349   15.5742 C   0  0  1  0  0  0  0  0  0  0  0  0
  -15.2323    5.3411   14.9177 N   0  3  0  0  0  0  0  0  0  0  0  0
  -16.1727    4.7951   15.9294 C   0  0  0  0  0  0  0  0  0  0  0  0
  -12.7520    5.6411   14.8733 C   0  0  2  0  0  0  0  0  0  0  0  0
  -12.7601    6.0953   13.5069 O   0  0  0  0  0  0  0  0  0  0  0  0
  -12.5462    4.2042   14.8556 C   0  0  0  0  0  0  0  0  0  0  0  0
  -11.5561    6.3654   15.5650 C   0  0  0  0  0  0  0  0  0  0  0  0
  -11.7953    7.8449   15.6164 O   0  0  0  0  0  0  0  0  0  0  0  0
  1  2  1  1  0  0  0
  1  3  1  0  0  0  0
  1 10  1  0  0  0  0
  3  4  1  1  0  0  0
  3  5  1  0  0  0  0
  5  6  1  1  0  0  0
  5  7  1  0  0  0  0
  7  8  1  1  0  0  0
  7  9  1  0  0  0  0
  9 10  1  6  0  0  0
  9 11  1  0  0  0  0
 11 12  1  1  0  0  0
 11 13  1  0  0  0  0
 14 15  1  6  0  0  0
 14 16  1  0  0  0  0
 14 22  1  0  0  0  0
 16 17  1  0  0  0  0
 17 18  1  1  0  0  0
 17 19  1  0  0  0  0
 19  2  1  1  0  0  0
 19 20  1  0  0  0  0
 20 21  1  6  0  0  0
 20 22  1  0  0  0  0
 22 23  1  6  0  0  0
 24 23  1  1  0  0  0
 24 25  1  0  0  0  0
 24 34  1  0  0  0  0
 25 26  1  1  0  0  0
 25 27  1  0  0  0  0
 27 28  1  6  0  0  0
 27 30  1  0  0  0  0
 28 29  1  0  0  0  0
 30 31  1  6  0  0  0
 30 32  1  0  0  0  0
 30 33  1  0  0  0  0
 33 34  1  0  0  0  0
M  CHG  4   4   1  15   1  18   1  28   1
M  END
>  <CHROM.1>
-171.71441157,-155.49968347,90.04773224,-176.59150074,173.71876924,41.40091981
146.13279421,43.43413491,-174.60850132,77.51678912,101.65506639,-178.58658137
-170.72582961,18.14504031,-53.31351604,-10.78561122,6.75878928,19.23193989
-0.20471157,0.80483191,-2.80905103

>  <Name>
1mwl

>  <RI>
0

>  <Rbt.Current_Directory>
/home/itssahil/PROJECTS/Mol_Feturizer/New_Systems/rnas/1mwl

>  <Rbt.Executable>
rbdock ($Id: //depot/dev/client3/rdock/2013.1/src/exe/rbdock.cxx#4 $)

>  <Rbt.Library>
libRbt.so (2013.1, Build901 2013/11/27)

>  <Rbt.Parameter_File>
/export/apps/rDock/src/rDock_2013.1_src/data/scripts/dock_solv.prm

>  <Rbt.Receptor>
prm/pocket_docking_5.prm

>  <SCORE>
-57.5309

>  <SCORE.INTER>
-45.1934

>  <SCORE.INTER.CONST>
1

>  <SCORE.INTER.POLAR>
-7.02092

>  <SCORE.INTER.ROT>
6

>  <SCORE.INTER.SOLV>
23.3446

>  <SCORE.INTER.VDW>
-22.1074

>  <SCORE.INTER.norm>
-1.32922

>  <SCORE.INTRA>
-12.4877

>  <SCORE.INTRA.DIHEDRAL>
-20.2775

>  <SCORE.INTRA.DIHEDRAL.0>
42.0816

>  <SCORE.INTRA.POLAR>
0.127594

>  <SCORE.INTRA.POLAR.0>
-0.254682

>  <SCORE.INTRA.REPUL>
0

>  <SCORE.INTRA.REPUL.0>
0

>  <SCORE.INTRA.SOLV>
0.107049

>  <SCORE.INTRA.SOLV.lig_0>
-109.803

>  <SCORE.INTRA.VDW>
-2.83628

>  <SCORE.INTRA.VDW.0>
0.32176

>  <SCORE.INTRA.norm>
-0.367286

>  <SCORE.RESTR>
0.150221

>  <SCORE.RESTR.CAVITY>
0.150221

>  <SCORE.RESTR.norm>
0.00441826

>  <SCORE.SYSTEM>
0

>  <SCORE.SYSTEM.CONST>
0

>  <SCORE.SYSTEM.DIHEDRAL>
0

>  <SCORE.SYSTEM.SOLV>
0

>  <SCORE.SYSTEM.norm>
0

>  <SCORE.heavy>
34

>  <SCORE.norm>
-1.69209

>  <RMSD>
1.364

$$$$
1mwl
 OpenBabel11021811403D
libRbt.so/2013.1/901 2013/11/27
 34 36  0  0  0  0  0  0  0  0999 V2000
   -8.9213    6.2687   20.1990 C   0  0  2  0  0  0  0  0  0  0  0  0
  -10.0699    6.8599   20.7279 O   0  0  0  0  0  0  0  0  0  0  0  0
   -8.9700    4.7562   20.5554 C   0  0  2  0  0  0  0  0  0  0  0  0
  -10.1825    4.1455   20.0021 N   0  3  0  0  0  0  0  0  0  0  0  0
   -8.8816    4.5526   22.0963 C   0  0  1  0  0  0  0  0  0  0  0  0
   -8.8978    3.2338   22.4137 O   0  0  0  0  0  0  0  0  0  0  0  0
   -7.5723    5.2337   22.6154 C   0  0  2  0  0  0  0  0  0  0  0  0
   -7.4527    5.0556   24.0423 O   0  0  0  0  0  0  0  0  0  0  0  0
   -7.6224    6.7524   22.2349 C   0  0  2  0  0  0  0  0  0  0  0  0
   -7.7524    6.9108   20.7695 O   0  0  0  0  0  0  0  0  0  0  0  0
   -6.3895    7.5591   22.6582 C   0  0  2  0  0  0  0  0  0  0  0  0
   -6.5869    8.9041   22.3663 O   0  0  0  0  0  0  0  0  0  0  0  0
   -5.1000    7.1439   21.9267 C   0  0  0  0  0  0  0  0  0  0  0  0
  -13.5609    8.8897   19.3305 C   0  0  2  0  0  0  0  0  0  0  0  0
  -14.4321    9.8430   18.5974 N   0  3  0  0  0  0  0  0  0  0  0  0
  -12.6027    9.6494   20.2952 C   0  0  0  0  0  0  0  0  0  0  0  0
  -11.6728    8.6333   21.0521 C   0  0  2  0  0  0  0  0  0  0  0  0
  -10.7642    9.3966   21.9841 N   0  3  0  0  0  0  0  0  0  0  0  0
  -10.8594    7.7965   20.0059 C   0  0  2  0  0  0  0  0  0  0  0  0
  -11.8382    7.0476   19.0688 C   0  0  2  0  0  0  0  0  0  0  0  0
  -11.0973    6.3275   18.1134 O   0  0  0  0  0  0  0  0  0  0  0  0
  -12.7378    8.0654   18.3177 C   0  0  1  0  0  0  0  0  0  0  0  0
  -13.6244    7.3577   17.4635 O   0  0  0  0  0  0  0  0  0  0  0  0
  -14.2342    8.0480   16.4080 C   0  0  2  0  0  0  0  0  0  0  0  0
  -15.2785    7.1048   15.7813 C   0  0  2  0  0  0  0  0  0  0  0  0
  -16.2469    6.7787   16.7551 O   0  0  0  0  0  0  0  0  0  0  0  0
  -14.5573    5.8154   15.2593 C   0  0  1  0  0  0  0  0  0  0  0  0
  -15.5016    4.8381   14.6651 N   0  3  0  0  0  0  0  0  0  0  0  0
  -16.2618    4.1281   15.7253 C   0  0  0  0  0  0  0  0  0  0  0  0
  -13.4741    6.2235   14.2023 C   0  0  2  0  0  0  0  0  0  0  0  0
  -14.1002    6.8973   13.0945 O   0  0  0  0  0  0  0  0  0  0  0  0
  -12.7684    5.0713   13.6716 C   0  0  0  0  0  0  0  0  0  0  0  0
  -12.4765    7.2476   14.8262 C   0  0  0  0  0  0  0  0  0  0  0  0
  -13.2159    8.4148   15.4091 O   0  0  0  0  0  0  0  0  0  0  0  0
  1  2  1  1  0  0  0
  1  3  1  0  0  0  0
  1 10  1  0  0  0  0
  3  4  1  1  0  0  0
  3  5  1  0  0  0  0
  5  6  1  6  0  0  0
  5  7  1  0  0  0  0
  7  8  1  1  0  0  0
  7  9  1  0  0  0  0
  9 10  1  6  0  0  0
  9 11  1  0  0  0  0
 11 12  1  6  0  0  0
 11 13  1  0  0  0  0
 14 15  1  6  0  0  0
 14 16  1  0  0  0  0
 14 22  1  0  0  0  0
 16 17  1  0  0  0  0
 17 18  1  1  0  0  0
 17 19  1  0  0  0  0
 19  2  1  1  0  0  0
 19 20  1  0  0  0  0
 20 21  1  6  0  0  0
 20 22  1  0  0  0  0
 22 23  1  6  0  0  0
 24 23  1  1  0  0  0
 24 25  1  0  0  0  0
 24 34  1  0  0  0  0
 25 26  1  1  0  0  0
 25 27  1  0  0  0  0
 27 28  1  6  0  0  0
 27 30  1  0  0  0  0
 28 29  1  0  0  0  0
 30 31  1  6  0  0  0
 30 32  1  0  0  0  0
 30 33  1  0  0  0  0
 33 34  1  0  0  0  0
M  CHG  4   4   1  15   1  18   1  28   1
M  END
>  <CHROM.1>
-136.10359630,-158.06121662,34.32896402,-158.69134988,-72.10714053,-175.35016612
172.70183641,75.49934817,157.46370532,-169.38125886,79.00585476,-172.15299233
61.63554975,44.46516813,-168.80884662,-11.35063735,6.78671272,18.90710015
-0.31975089,0.73737685,-2.65724496

>  <Name>
1mwl

>  <RI>
0

>  <Rbt.Current_Directory>
/home/itssahil/PROJECTS/Mol_Feturizer/New_Systems/rnas/1mwl

>  <Rbt.Executable>
rbdock ($Id: //depot/dev/client3/rdock/2013.1/src/exe/rbdock.cxx#4 $)

>  <Rbt.Library>
libRbt.so (2013.1, Build901 2013/11/27)

>  <Rbt.Parameter_File>
/export/apps/rDock/src/rDock_2013.1_src/data/scripts/dock_solv.prm

>  <Rbt.Receptor>
prm/pocket_docking_3.prm

>  <SCORE>
-64.543

>  <SCORE.INTER>
-48.8275

>  <SCORE.INTER.CONST>
1

>  <SCORE.INTER.POLAR>
-7.02989

>  <SCORE.INTER.ROT>
6

>  <SCORE.INTER.SOLV>
19.1485

>  <SCORE.INTER.VDW>
-23.1015

>  <SCORE.INTER.norm>
-1.4361

>  <SCORE.INTRA>
-15.7155

>  <SCORE.INTRA.DIHEDRAL>
-23.986

>  <SCORE.INTRA.DIHEDRAL.0>
42.0816

>  <SCORE.INTRA.POLAR>
-0.785641

>  <SCORE.INTRA.POLAR.0>
-0.254682

>  <SCORE.INTRA.REPUL>
0

>  <SCORE.INTRA.REPUL.0>
0

>  <SCORE.INTRA.SOLV>
-0.196188

>  <SCORE.INTRA.SOLV.lig_0>
-109.803

>  <SCORE.INTRA.VDW>
-0.953178

>  <SCORE.INTRA.VDW.0>
0.32176

>  <SCORE.INTRA.norm>
-0.46222

>  <SCORE.RESTR>
0

>  <SCORE.RESTR.CAVITY>
0

>  <SCORE.RESTR.norm>
0

>  <SCORE.SYSTEM>
0

>  <SCORE.SYSTEM.CONST>
0

>  <SCORE.SYSTEM.DIHEDRAL>
0

>  <SCORE.SYSTEM.SOLV>
0

>  <SCORE.SYSTEM.norm>
0

>  <SCORE.heavy>
34

>  <SCORE.norm>
-1.89832

>  <RMSD>
1.387

$$$$
1mwl
 OpenBabel11021811403D
libRbt.so/2013.1/901 2013/11/27
 34 36  0  0  0  0  0  0  0  0999 V2000
   -9.3922    6.5736   20.4248 C   0  0  2  0  0  0  0  0  0  0  0  0
  -10.4651    7.2402   21.0192 O   0  0  0  0  0  0  0  0  0  0  0  0
   -9.6015    5.0514   20.6611 C   0  0  2  0  0  0  0  0  0  0  0  0
  -10.8781    4.6210   20.0827 N   0  3  0  0  0  0  0  0  0  0  0  0
   -9.5217    4.7158   22.1792 C   0  0  1  0  0  0  0  0  0  0  0  0
   -9.6779    3.3851   22.3912 O   0  0  0  0  0  0  0  0  0  0  0  0
   -8.1416    5.2082   22.7272 C   0  0  2  0  0  0  0  0  0  0  0  0
   -8.0289    4.9037   24.1332 O   0  0  0  0  0  0  0  0  0  0  0  0
   -8.0301    6.7493   22.4691 C   0  0  2  0  0  0  0  0  0  0  0  0
   -8.1555    7.0384   21.0234 O   0  0  0  0  0  0  0  0  0  0  0  0
   -6.7131    7.3820   22.9331 C   0  0  2  0  0  0  0  0  0  0  0  0
   -6.4925    7.0761   24.2714 O   0  0  0  0  0  0  0  0  0  0  0  0
   -6.6985    8.9183   22.8339 C   0  0  0  0  0  0  0  0  0  0  0  0
  -13.8447    8.9303   19.0238 C   0  0  2  0  0  0  0  0  0  0  0  0
  -14.7101    9.8960   18.3000 N   0  3  0  0  0  0  0  0  0  0  0  0
  -13.4742    9.4736   20.4357 C   0  0  0  0  0  0  0  0  0  0  0  0
  -12.5436    8.4530   21.1858 C   0  0  2  0  0  0  0  0  0  0  0  0
  -12.2101    9.0017   22.5512 N   0  3  0  0  0  0  0  0  0  0  0  0
  -11.2542    8.2021   20.3309 C   0  0  2  0  0  0  0  0  0  0  0  0
  -11.6546    7.6552   18.9389 C   0  0  2  0  0  0  0  0  0  0  0  0
  -10.4919    7.4662   18.1691 O   0  0  0  0  0  0  0  0  0  0  0  0
  -12.5597    8.6810   18.2056 C   0  0  1  0  0  0  0  0  0  0  0  0
  -12.9122    8.1605   16.9323 O   0  0  0  0  0  0  0  0  0  0  0  0
  -12.0619    8.4081   15.8467 C   0  0  2  0  0  0  0  0  0  0  0  0
  -12.8671    8.1455   14.5600 C   0  0  2  0  0  0  0  0  0  0  0  0
  -13.9634    9.0335   14.5141 O   0  0  0  0  0  0  0  0  0  0  0  0
  -13.3556    6.6567   14.5555 C   0  0  1  0  0  0  0  0  0  0  0  0
  -14.1676    6.3295   13.3581 N   0  3  0  0  0  0  0  0  0  0  0  0
  -15.4383    7.0984   13.3568 C   0  0  0  0  0  0  0  0  0  0  0  0
  -12.1115    5.7064   14.6343 C   0  0  2  0  0  0  0  0  0  0  0  0
  -11.2539    5.9269   13.4989 O   0  0  0  0  0  0  0  0  0  0  0  0
  -12.4935    4.3059   14.6288 C   0  0  0  0  0  0  0  0  0  0  0  0
  -11.2584    6.0450   15.8956 C   0  0  0  0  0  0  0  0  0  0  0  0
  -10.9030    7.5017   15.9153 O   0  0  0  0  0  0  0  0  0  0  0  0
  1  2  1  1  0  0  0
  1  3  1  0  0  0  0
  1 10  1  0  0  0  0
  3  4  1  1  0  0  0
  3  5  1  0  0  0  0
  5  6  1  6  0  0  0
  5  7  1  0  0  0  0
  7  8  1  1  0  0  0
  7  9  1  0  0  0  0
  9 10  1  6  0  0  0
  9 11  1  0  0  0  0
 11 12  1  1  0  0  0
 11 13  1  0  0  0  0
 14 15  1  6  0  0  0
 14 16  1  0  0  0  0
 14 22  1  0  0  0  0
 16 17  1  0  0  0  0
 17 18  1  1  0  0  0
 17 19  1  0  0  0  0
 19  2  1  1  0  0  0
 19 20  1  0  0  0  0
 20 21  1  6  0  0  0
 20 22  1  0  0  0  0
 22 23  1  6  0  0  0
 24 23  1  1  0  0  0
 24 25  1  0  0  0  0
 24 34  1  0  0  0  0
 25 26  1  1  0  0  0
 25 27  1  0  0  0  0
 27 28  1  6  0  0  0
 27 30  1  0  0  0  0
 28 29  1  0  0  0  0
 30 31  1  6  0  0  0
 30 32  1  0  0  0  0
 30 33  1  0  0  0  0
 33 34  1  0  0  0  0
M  CHG  4   4   1  15   1  18   1  28   1
M  END
>  <CHROM.1>
-128.50188245,166.21716535,-170.45304721,-166.35091020,58.18675583,-53.89246117
52.90296499,-51.14598365,-50.83085462,-40.90595456,151.73495164,-162.27638511
67.63464499,54.69463917,60.98765773,-11.09596630,7.04856250,18.89186447,-0.72149438
0.79898957,-2.14638333

>  <Name>
1mwl

>  <RI>
0

>  <Rbt.Current_Directory>
/home/itssahil/PROJECTS/Mol_Feturizer/New_Systems/rnas/1mwl

>  <Rbt.Executable>
rbdock ($Id: //depot/dev/client3/rdock/2013.1/src/exe/rbdock.cxx#4 $)

>  <Rbt.Library>
libRbt.so (2013.1, Build901 2013/11/27)

>  <Rbt.Parameter_File>
/export/apps/rDock/src/rDock_2013.1_src/data/scripts/dock_solv.prm

>  <Rbt.Receptor>
prm/pocket_docking_3.prm

>  <SCORE>
-43.1894

>  <SCORE.INTER>
-30.6351

>  <SCORE.INTER.CONST>
1

>  <SCORE.INTER.POLAR>
-5.21771

>  <SCORE.INTER.ROT>
6

>  <SCORE.INTER.SOLV>
16.451

>  <SCORE.INTER.VDW>
-16.1147

>  <SCORE.INTER.norm>
-0.901031

>  <SCORE.INTRA>
-12.6465

>  <SCORE.INTRA.DIHEDRAL>
-25.6081

>  <SCORE.INTRA.DIHEDRAL.0>
42.0816

>  <SCORE.INTRA.POLAR>
-0.345237

>  <SCORE.INTRA.POLAR.0>
-0.254682

>  <SCORE.INTRA.REPUL>
0

>  <SCORE.INTRA.REPUL.0>
0

>  <SCORE.INTRA.SOLV>
-1.48511

>  <SCORE.INTRA.SOLV.lig_0>
-109.803

>  <SCORE.INTRA.VDW>
2.07388

>  <SCORE.INTRA.VDW.0>
0.32176

>  <SCORE.INTRA.norm>
-0.371957

>  <SCORE.RESTR>
0.0922126

>  <SCORE.RESTR.CAVITY>
0.0922126

>  <SCORE.RESTR.norm>
0.00271213

>  <SCORE.SYSTEM>
0

>  <SCORE.SYSTEM.CONST>
0

>  <SCORE.SYSTEM.DIHEDRAL>
0

>  <SCORE.SYSTEM.SOLV>
0

>  <SCORE.SYSTEM.norm>
0

>  <SCORE.heavy>
34

>  <SCORE.norm>
-1.27028

>  <RMSD>
1.447

$$$$
1mwl
 OpenBabel11021811403D
libRbt.so/2013.1/901 2013/11/27
 34 36  0  0  0  0  0  0  0  0999 V2000
   -9.4290    6.1307   20.0313 C   0  0  2  0  0  0  0  0  0  0  0  0
  -10.5485    6.7718   20.5645 O   0  0  0  0  0  0  0  0  0  0  0  0
   -9.3627    4.7103   20.6598 C   0  0  2  0  0  0  0  0  0  0  0  0
  -10.5907    3.9675   20.3605 N   0  3  0  0  0  0  0  0  0  0  0  0
   -9.1105    4.8002   22.1934 C   0  0  1  0  0  0  0  0  0  0  0  0
   -9.0258    3.5637   22.7449 O   0  0  0  0  0  0  0  0  0  0  0  0
   -7.7934    5.6089   22.4359 C   0  0  2  0  0  0  0  0  0  0  0  0
   -7.5228    5.7036   23.8501 O   0  0  0  0  0  0  0  0  0  0  0  0
   -7.9606    7.0278   21.7934 C   0  0  2  0  0  0  0  0  0  0  0  0
   -8.2443    6.9061   20.3463 O   0  0  0  0  0  0  0  0  0  0  0  0
   -6.7356    7.9394   21.9278 C   0  0  2  0  0  0  0  0  0  0  0  0
   -5.5936    7.2503   21.5349 O   0  0  0  0  0  0  0  0  0  0  0  0
   -6.4770    8.4163   23.3687 C   0  0  0  0  0  0  0  0  0  0  0  0
  -13.7676    9.2615   19.2613 C   0  0  2  0  0  0  0  0  0  0  0  0
  -14.5134   10.3558   18.5892 N   0  3  0  0  0  0  0  0  0  0  0  0
  -12.7653    9.8380   20.3047 C   0  0  0  0  0  0  0  0  0  0  0  0
  -11.9684    8.6734   20.9967 C   0  0  2  0  0  0  0  0  0  0  0  0
  -11.0141    9.2614   22.0068 N   0  3  0  0  0  0  0  0  0  0  0  0
  -11.2150    7.8400   19.9039 C   0  0  2  0  0  0  0  0  0  0  0  0
  -12.2376    7.2742   18.8884 C   0  0  2  0  0  0  0  0  0  0  0  0
  -11.5469    6.5570   17.8940 O   0  0  0  0  0  0  0  0  0  0  0  0
  -13.0043    8.4368   18.2030 C   0  0  1  0  0  0  0  0  0  0  0  0
  -13.9334    7.8956   17.2755 O   0  0  0  0  0  0  0  0  0  0  0  0
  -14.4030    8.7141   16.2400 C   0  0  2  0  0  0  0  0  0  0  0  0
  -15.1713    7.8151   15.2529 C   0  0  2  0  0  0  0  0  0  0  0  0
  -16.2651    7.2260   15.9230 O   0  0  0  0  0  0  0  0  0  0  0  0
  -14.2014    6.7171   14.6974 C   0  0  1  0  0  0  0  0  0  0  0  0
  -14.8749    5.7877   13.7578 N   0  3  0  0  0  0  0  0  0  0  0  0
  -14.4404    4.3880   13.9989 C   0  0  0  0  0  0  0  0  0  0  0  0
  -12.9900    7.4124   13.9860 C   0  0  2  0  0  0  0  0  0  0  0  0
  -13.4628    8.2231   12.8939 O   0  0  0  0  0  0  0  0  0  0  0  0
  -12.0509    6.4488   13.4411 C   0  0  0  0  0  0  0  0  0  0  0  0
  -12.2767    8.3867   14.9734 C   0  0  0  0  0  0  0  0  0  0  0  0
  -13.2609    9.3522   15.5634 O   0  0  0  0  0  0  0  0  0  0  0  0
  1  2  1  1  0  0  0
  1  3  1  0  0  0  0
  1 10  1  0  0  0  0
  3  4  1  1  0  0  0
  3  5  1  0  0  0  0
  5  6  1  6  0  0  0
  5  7  1  0  0  0  0
  7  8  1  1  0  0  0
  7  9  1  0  0  0  0
  9 10  1  6  0  0  0
  9 11  1  0  0  0  0
 11 12  1  1  0  0  0
 11 13  1  0  0  0  0
 14 15  1  6  0  0  0
 14 16  1  0  0  0  0
 14 22  1  0  0  0  0
 16 17  1  0  0  0  0
 17 18  1  1  0  0  0
 17 19  1  0  0  0  0
 19  2  1  1  0  0  0
 19 20  1  0  0  0  0
 20 21  1  6  0  0  0
 20 22  1  0  0  0  0
 22 23  1  6  0  0  0
 24 23  1  1  0  0  0
 24 25  1  0  0  0  0
 24 34  1  0  0  0  0
 25 26  1  1  0  0  0
 25 27  1  0  0  0  0
 27 28  1  6  0  0  0
 27 30  1  0  0  0  0
 28 29  1  0  0  0  0
 30 31  1  6  0  0  0
 30 32  1  0  0  0  0
 30 33  1  0  0  0  0
 33 34  1  0  0  0  0
M  CHG  4   4   1  15   1  18   1  28   1
M  END
>  <CHROM.1>
-155.97255402,-156.21730717,-56.16922293,-75.76733955,63.71855360,49.00780832
151.08513336,74.32427988,-74.95694960,69.28543952,81.09304589,169.64827630
58.35609312,-18.62342004,-83.93583520,-11.40322357,7.17609849,18.70796528
-0.43456590,0.78585251,-2.41664760

>  <Name>
1mwl

>  <RI>
0

>  <Rbt.Current_Directory>
/home/itssahil/PROJECTS/Mol_Feturizer/New_Systems/rnas/1mwl

>  <Rbt.Executable>
rbdock ($Id: //depot/dev/client3/rdock/2013.1/src/exe/rbdock.cxx#4 $)

>  <Rbt.Library>
libRbt.so (2013.1, Build901 2013/11/27)

>  <Rbt.Parameter_File>
/export/apps/rDock/src/rDock_2013.1_src/data/scripts/dock_solv.prm

>  <Rbt.Receptor>
prm/pocket_docking_3.prm

>  <SCORE>
-59.263

>  <SCORE.INTER>
-46.5131

>  <SCORE.INTER.CONST>
1

>  <SCORE.INTER.POLAR>
-6.64866

>  <SCORE.INTER.ROT>
6

>  <SCORE.INTER.SOLV>
20.3889

>  <SCORE.INTER.VDW>
-23.2428

>  <SCORE.INTER.norm>
-1.36803

>  <SCORE.INTRA>
-12.7499

>  <SCORE.INTRA.DIHEDRAL>
-22.9975

>  <SCORE.INTRA.DIHEDRAL.0>
42.0816

>  <SCORE.INTRA.POLAR>
0.250789

>  <SCORE.INTRA.POLAR.0>
-0.254682

>  <SCORE.INTRA.REPUL>
0

>  <SCORE.INTRA.REPUL.0>
0

>  <SCORE.INTRA.SOLV>
0.298325

>  <SCORE.INTRA.SOLV.lig_0>
-109.803

>  <SCORE.INTRA.VDW>
-2.25299

>  <SCORE.INTRA.VDW.0>
0.32176

>  <SCORE.INTRA.norm>
-0.374996

>  <SCORE.RESTR>
0

>  <SCORE.RESTR.CAVITY>
0

>  <SCORE.RESTR.norm>
0

>  <SCORE.SYSTEM>
0

>  <SCORE.SYSTEM.CONST>
0

>  <SCORE.SYSTEM.DIHEDRAL>
0

>  <SCORE.SYSTEM.SOLV>
0

>  <SCORE.SYSTEM.norm>
0

>  <SCORE.heavy>
34

>  <SCORE.norm>
-1.74303

>  <RMSD>
1.463

$$$$
1mwl
 OpenBabel11021811403D
libRbt.so/2013.1/901 2013/11/27
 34 36  0  0  0  0  0  0  0  0999 V2000
   -9.7227    6.2052   19.9096 C   0  0  2  0  0  0  0  0  0  0  0  0
  -10.8140    6.8791   20.4605 O   0  0  0  0  0  0  0  0  0  0  0  0
   -9.7011    4.7761   20.5211 C   0  0  2  0  0  0  0  0  0  0  0  0
  -10.9573    4.0806   20.2248 N   0  3  0  0  0  0  0  0  0  0  0  0
   -9.4322    4.8389   22.0532 C   0  0  1  0  0  0  0  0  0  0  0  0
   -9.3865    3.5939   22.5898 O   0  0  0  0  0  0  0  0  0  0  0  0
   -8.0852    5.5977   22.2927 C   0  0  2  0  0  0  0  0  0  0  0  0
   -7.7989    5.6662   23.7053 O   0  0  0  0  0  0  0  0  0  0  0  0
   -8.2078    7.0290   21.6680 C   0  0  2  0  0  0  0  0  0  0  0  0
   -8.5085    6.9345   20.2224 O   0  0  0  0  0  0  0  0  0  0  0  0
   -6.9501    7.8952   21.8015 C   0  0  2  0  0  0  0  0  0  0  0  0
   -5.8288    7.1489   21.4565 O   0  0  0  0  0  0  0  0  0  0  0  0
   -6.7034    8.4079   23.2321 C   0  0  0  0  0  0  0  0  0  0  0  0
  -13.9456    9.5249   19.2555 C   0  0  2  0  0  0  0  0  0  0  0  0
  -14.6574   10.6542   18.6048 N   0  3  0  0  0  0  0  0  0  0  0  0
  -12.8822   10.0520   20.2640 C   0  0  0  0  0  0  0  0  0  0  0  0
  -12.1223    8.8499   20.9331 C   0  0  2  0  0  0  0  0  0  0  0  0
  -11.1073    9.3908   21.9098 N   0  3  0  0  0  0  0  0  0  0  0  0
  -11.4475    7.9785   19.8188 C   0  0  2  0  0  0  0  0  0  0  0  0
  -12.5298    7.4631   18.8389 C   0  0  2  0  0  0  0  0  0  0  0  0
  -11.9087    6.7110   17.8246 O   0  0  0  0  0  0  0  0  0  0  0  0
  -13.2594    8.6617   18.1754 C   0  0  1  0  0  0  0  0  0  0  0  0
  -14.2442    8.1663   17.2802 O   0  0  0  0  0  0  0  0  0  0  0  0
  -14.5457    8.9126   16.1335 C   0  0  2  0  0  0  0  0  0  0  0  0
  -15.2680    7.9741   15.1483 C   0  0  2  0  0  0  0  0  0  0  0  0
  -16.4637    7.5159   15.7422 O   0  0  0  0  0  0  0  0  0  0  0  0
  -14.3243    6.7734   14.7981 C   0  0  1  0  0  0  0  0  0  0  0  0
  -14.9594    5.8034   13.8730 N   0  3  0  0  0  0  0  0  0  0  0  0
  -14.5954    4.4106   14.2385 C   0  0  0  0  0  0  0  0  0  0  0  0
  -13.0001    7.3262   14.1672 C   0  0  2  0  0  0  0  0  0  0  0  0
  -13.2994    8.0597   12.9648 O   0  0  0  0  0  0  0  0  0  0  0  0
  -12.0788    6.2619   13.8128 C   0  0  0  0  0  0  0  0  0  0  0  0
  -12.3273    8.3429   15.1402 C   0  0  0  0  0  0  0  0  0  0  0  0
  -13.2979    9.4160   15.5343 O   0  0  0  0  0  0  0  0  0  0  0  0
  1  2  1  1  0  0  0
  1  3  1  0  0  0  0
  1 10  1  0  0  0  0
  3  4  1  1  0  0  0
  3  5  1  0  0  0  0
  5  6  1  6  0  0  0
  5  7  1  0  0  0  0
  7  8  1  1  0  0  0
  7  9  1  0  0  0  0
  9 10  1  6  0  0  0
  9 11  1  0  0  0  0
 11 12  1  1  0  0  0
 11 13  1  0  0  0  0
 14 15  1  6  0  0  0
 14 16  1  0  0  0  0
 14 22  1  0  0  0  0
 16 17  1  0  0  0  0
 17 18  1  1  0  0  0
 17 19  1  0  0  0  0
 19  2  1  1  0  0  0
 19 20  1  0  0  0  0
 20 21  1  6  0  0  0
 20 22  1  0  0  0  0
 22 23  1  6  0  0  0
 24 23  1  1  0  0  0
 24 25  1  0  0  0  0
 24 34  1  0  0  0  0
 25 26  1  1  0  0  0
 25 27  1  0  0  0  0
 27 28  1  6  0  0  0
 27 30  1  0  0  0  0
 28 29  1  0  0  0  0
 30 31  1  6  0  0  0
 30 32  1  0  0  0  0
 30 33  1  0  0  0  0
 33 34  1  0  0  0  0
M  CHG  4   4   1  15   1  18   1  28   1
M  END
>  <CHROM.1>
-156.01437194,-154.42317300,-172.82052014,63.35095757,64.25492679,45.92696440
150.53847886,67.66465075,167.37096896,-178.52455290,91.52223672,162.18421801
65.54067353,-21.44691088,-76.56123362,-11.59627260,7.25389234,18.66609980
-0.40822905,0.79030238,-2.43603148

>  <Name>
1mwl

>  <RI>
0

>  <Rbt.Current_Directory>
/home/itssahil/PROJECTS/Mol_Feturizer/New_Systems/rnas/1mwl

>  <Rbt.Executable>
rbdock ($Id: //depot/dev/client3/rdock/2013.1/src/exe/rbdock.cxx#4 $)

>  <Rbt.Library>
libRbt.so (2013.1, Build901 2013/11/27)

>  <Rbt.Parameter_File>
/export/apps/rDock/src/rDock_2013.1_src/data/scripts/dock_solv.prm

>  <Rbt.Receptor>
prm/pocket_docking_2.prm

>  <SCORE>
-57.7093

>  <SCORE.INTER>
-43.9137

>  <SCORE.INTER.CONST>
1

>  <SCORE.INTER.POLAR>
-6.35075

>  <SCORE.INTER.ROT>
6

>  <SCORE.INTER.SOLV>
19.0176

>  <SCORE.INTER.VDW>
-22.0458

>  <SCORE.INTER.norm>
-1.29158

>  <SCORE.INTRA>
-13.9379

>  <SCORE.INTRA.DIHEDRAL>
-22.6142

>  <SCORE.INTRA.DIHEDRAL.0>
42.0816

>  <SCORE.INTRA.POLAR>
0.235966

>  <SCORE.INTRA.POLAR.0>
-0.254682

>  <SCORE.INTRA.REPUL>
0

>  <SCORE.INTRA.REPUL.0>
0

>  <SCORE.INTRA.SOLV>
-0.525313

>  <SCORE.INTRA.SOLV.lig_0>
-109.803

>  <SCORE.INTRA.VDW>
-3.17042

>  <SCORE.INTRA.VDW.0>
0.32176

>  <SCORE.INTRA.norm>
-0.409938

>  <SCORE.RESTR>
0.142282

>  <SCORE.RESTR.CAVITY>
0.142282

>  <SCORE.RESTR.norm>
0.00418476

>  <SCORE.SYSTEM>
0

>  <SCORE.SYSTEM.CONST>
0

>  <SCORE.SYSTEM.DIHEDRAL>
0

>  <SCORE.SYSTEM.SOLV>
0

>  <SCORE.SYSTEM.norm>
0

>  <SCORE.heavy>
34

>  <SCORE.norm>
-1.69733

>  <RMSD>
1.478

$$$$
1mwl
 OpenBabel11021811403D
libRbt.so/2013.1/901 2013/11/27
 34 36  0  0  0  0  0  0  0  0999 V2000
   -9.4159    7.3479   20.3816 C   0  0  2  0  0  0  0  0  0  0  0  0
  -10.5235    7.7532   21.1283 O   0  0  0  0  0  0  0  0  0  0  0  0
   -9.4692    5.7979   20.2739 C   0  0  2  0  0  0  0  0  0  0  0  0
  -10.7205    5.3785   19.6353 N   0  3  0  0  0  0  0  0  0  0  0  0
   -9.2983    5.1443   21.6765 C   0  0  1  0  0  0  0  0  0  0  0  0
   -9.3181    3.7908   21.5873 O   0  0  0  0  0  0  0  0  0  0  0  0
   -7.9512    5.6412   22.2977 C   0  0  2  0  0  0  0  0  0  0  0  0
   -7.7550    5.0459   23.5975 O   0  0  0  0  0  0  0  0  0  0  0  0
   -7.9978    7.2043   22.3901 C   0  0  2  0  0  0  0  0  0  0  0  0
   -8.2068    7.7921   21.0484 O   0  0  0  0  0  0  0  0  0  0  0  0
   -6.7302    7.8494   22.9620 C   0  0  2  0  0  0  0  0  0  0  0  0
   -6.3303    7.1642   24.1039 O   0  0  0  0  0  0  0  0  0  0  0  0
   -6.9224    9.3172   23.3850 C   0  0  0  0  0  0  0  0  0  0  0  0
  -14.3655    8.9826   19.7188 C   0  0  2  0  0  0  0  0  0  0  0  0
  -15.4568    9.8309   19.1757 N   0  3  0  0  0  0  0  0  0  0  0  0
  -13.8740    9.5298   21.0917 C   0  0  0  0  0  0  0  0  0  0  0  0
  -12.7072    8.6362   21.6487 C   0  0  2  0  0  0  0  0  0  0  0  0
  -12.2594    9.1846   22.9811 N   0  3  0  0  0  0  0  0  0  0  0  0
  -11.5344    8.6081   20.6095 C   0  0  2  0  0  0  0  0  0  0  0  0
  -12.0518    8.0522   19.2603 C   0  0  2  0  0  0  0  0  0  0  0  0
  -10.9994    8.0636   18.3263 O   0  0  0  0  0  0  0  0  0  0  0  0
  -13.1919    8.9543   18.7165 C   0  0  1  0  0  0  0  0  0  0  0  0
  -13.6488    8.4279   17.4793 O   0  0  0  0  0  0  0  0  0  0  0  0
  -12.7130    8.1892   16.4644 C   0  0  2  0  0  0  0  0  0  0  0  0
  -13.4586    8.2746   15.1192 C   0  0  2  0  0  0  0  0  0  0  0  0
  -13.9950    9.5721   14.9722 O   0  0  0  0  0  0  0  0  0  0  0  0
  -14.5948    7.1960   15.0929 C   0  0  1  0  0  0  0  0  0  0  0  0
  -15.3830    7.2323   13.8369 N   0  3  0  0  0  0  0  0  0  0  0  0
  -14.4941    7.1110   12.6532 C   0  0  0  0  0  0  0  0  0  0  0  0
  -13.9607    5.7755   15.2857 C   0  0  2  0  0  0  0  0  0  0  0  0
  -13.0280    5.5070   14.2221 O   0  0  0  0  0  0  0  0  0  0  0  0
  -14.9614    4.7241   15.2662 C   0  0  0  0  0  0  0  0  0  0  0  0
  -13.1352    5.7329   16.6086 C   0  0  0  0  0  0  0  0  0  0  0  0
  -12.1320    6.8470   16.6394 O   0  0  0  0  0  0  0  0  0  0  0  0
  1  2  1  1  0  0  0
  1  3  1  0  0  0  0
  1 10  1  0  0  0  0
  3  4  1  1  0  0  0
  3  5  1  0  0  0  0
  5  6  1  6  0  0  0
  5  7  1  0  0  0  0
  7  8  1  1  0  0  0
  7  9  1  0  0  0  0
  9 10  1  6  0  0  0
  9 11  1  0  0  0  0
 11 12  1  1  0  0  0
 11 13  1  0  0  0  0
 14 15  1  6  0  0  0
 14 16  1  0  0  0  0
 14 22  1  0  0  0  0
 16 17  1  0  0  0  0
 17 18  1  1  0  0  0
 17 19  1  0  0  0  0
 19  2  1  1  0  0  0
 19 20  1  0  0  0  0
 20 21  1  6  0  0  0
 20 22  1  0  0  0  0
 22 23  1  6  0  0  0
 24 23  1  1  0  0  0
 24 25  1  0  0  0  0
 24 34  1  0  0  0  0
 25 26  1  1  0  0  0
 25 27  1  0  0  0  0
 27 28  1  6  0  0  0
 27 30  1  0  0  0  0
 28 29  1  0  0  0  0
 30 31  1  6  0  0  0
 30 32  1  0  0  0  0
 30 33  1  0  0  0  0
 33 34  1  0  0  0  0
M  CHG  4   4   1  15   1  18   1  28   1
M  END
>  <CHROM.1>
-118.89745442,170.76088170,-75.69503619,56.19508597,-71.26547346,-46.18648668
171.49976161,-172.63695949,65.05008777,-43.36973528,-173.76001363,-153.96821835
-57.91940199,174.61684492,178.52411917,-11.53997070,7.33424971,19.11269970
-0.61111106,0.69510402,-2.26323541

>  <Name>
1mwl

>  <RI>
0

>  <Rbt.Current_Directory>
/home/itssahil/PROJECTS/Mol_Feturizer/New_Systems/rnas/1mwl

>  <Rbt.Executable>
rbdock ($Id: //depot/dev/client3/rdock/2013.1/src/exe/rbdock.cxx#4 $)

>  <Rbt.Library>
libRbt.so (2013.1, Build901 2013/11/27)

>  <Rbt.Parameter_File>
/export/apps/rDock/src/rDock_2013.1_src/data/scripts/dock_solv.prm

>  <Rbt.Receptor>
prm/pocket_docking_4.prm

>  <SCORE>
-51.8158

>  <SCORE.INTER>
-40.8093

>  <SCORE.INTER.CONST>
1

>  <SCORE.INTER.POLAR>
-6.39028

>  <SCORE.INTER.ROT>
6

>  <SCORE.INTER.SOLV>
20.0109

>  <SCORE.INTER.VDW>
-20.1756

>  <SCORE.INTER.norm>
-1.20027

>  <SCORE.INTRA>
-11.0065

>  <SCORE.INTRA.DIHEDRAL>
-27.4832

>  <SCORE.INTRA.DIHEDRAL.0>
42.0816

>  <SCORE.INTRA.POLAR>
-0.58404

>  <SCORE.INTRA.POLAR.0>
-0.254682

>  <SCORE.INTRA.REPUL>
0

>  <SCORE.INTRA.REPUL.0>
0

>  <SCORE.INTRA.SOLV>
-1.07389

>  <SCORE.INTRA.SOLV.lig_0>
-109.803

>  <SCORE.INTRA.VDW>
5.2578

>  <SCORE.INTRA.VDW.0>
0.32176

>  <SCORE.INTRA.norm>
-0.323719

>  <SCORE.RESTR>
0

>  <SCORE.RESTR.CAVITY>
0

>  <SCORE.RESTR.norm>
0

>  <SCORE.SYSTEM>
0

>  <SCORE.SYSTEM.CONST>
0

>  <SCORE.SYSTEM.DIHEDRAL>
0

>  <SCORE.SYSTEM.SOLV>
0

>  <SCORE.SYSTEM.norm>
0

>  <SCORE.heavy>
34

>  <SCORE.norm>
-1.52399

>  <RMSD>
1.528

$$$$
1mwl
 OpenBabel11021811403D
libRbt.so/2013.1/901 2013/11/27
 34 36  0  0  0  0  0  0  0  0999 V2000
   -8.7510    5.7936   20.4221 C   0  0  2  0  0  0  0  0  0  0  0  0
   -9.7901    6.5984   20.8923 O   0  0  0  0  0  0  0  0  0  0  0  0
   -8.7584    4.4857   21.2626 C   0  0  2  0  0  0  0  0  0  0  0  0
  -10.0525    3.8090   21.1327 N   0  3  0  0  0  0  0  0  0  0  0  0
   -8.4207    4.7887   22.7518 C   0  0  1  0  0  0  0  0  0  0  0  0
   -8.4002    3.6487   23.4868 O   0  0  0  0  0  0  0  0  0  0  0  0
   -7.0360    5.5142   22.8118 C   0  0  2  0  0  0  0  0  0  0  0  0
   -6.6858    5.8022   24.1817 O   0  0  0  0  0  0  0  0  0  0  0  0
   -7.1298    6.8267   21.9617 C   0  0  2  0  0  0  0  0  0  0  0  0
   -7.4968    6.5083   20.5641 O   0  0  0  0  0  0  0  0  0  0  0  0
   -5.8347    7.6446   21.9025 C   0  0  2  0  0  0  0  0  0  0  0  0
   -4.7536    6.7954   21.6940 O   0  0  0  0  0  0  0  0  0  0  0  0
   -5.5328    8.4162   23.2001 C   0  0  0  0  0  0  0  0  0  0  0  0
  -12.6521    9.2895   19.2110 C   0  0  2  0  0  0  0  0  0  0  0  0
  -13.2349   10.4312   18.4611 N   0  3  0  0  0  0  0  0  0  0  0  0
  -11.7620    9.7979   20.3837 C   0  0  0  0  0  0  0  0  0  0  0  0
  -11.1355    8.5828   21.1591 C   0  0  2  0  0  0  0  0  0  0  0  0
  -10.2878    9.1057   22.2926 N   0  3  0  0  0  0  0  0  0  0  0  0
  -10.2976    7.7090   20.1638 C   0  0  2  0  0  0  0  0  0  0  0  0
  -11.2107    7.2125   19.0163 C   0  0  2  0  0  0  0  0  0  0  0  0
  -10.4407    6.4582   18.1117 O   0  0  0  0  0  0  0  0  0  0  0  0
  -11.8083    8.4237   18.2513 C   0  0  1  0  0  0  0  0  0  0  0  0
  -12.6390    7.9455   17.2035 O   0  0  0  0  0  0  0  0  0  0  0  0
  -12.0565    7.1951   16.1739 C   0  0  2  0  0  0  0  0  0  0  0  0
  -12.8689    7.4604   14.8923 C   0  0  2  0  0  0  0  0  0  0  0  0
  -12.7943    8.8342   14.5766 O   0  0  0  0  0  0  0  0  0  0  0  0
  -14.3550    7.0228   15.1271 C   0  0  1  0  0  0  0  0  0  0  0  0
  -15.2142    7.2741   13.9445 N   0  3  0  0  0  0  0  0  0  0  0  0
  -14.5540    6.7974   12.7024 C   0  0  0  0  0  0  0  0  0  0  0  0
  -14.3906    5.5009   15.5006 C   0  0  2  0  0  0  0  0  0  0  0  0
  -13.8307    4.7201   14.4280 O   0  0  0  0  0  0  0  0  0  0  0  0
  -15.7436    5.0263   15.7274 C   0  0  0  0  0  0  0  0  0  0  0  0
  -13.4917    5.2344   16.7472 C   0  0  0  0  0  0  0  0  0  0  0  0
  -12.1072    5.7645   16.5210 O   0  0  0  0  0  0  0  0  0  0  0  0
  1  2  1  1  0  0  0
  1  3  1  0  0  0  0
  1 10  1  0  0  0  0
  3  4  1  1  0  0  0
  3  5  1  0  0  0  0
  5  6  1  1  0  0  0
  5  7  1  0  0  0  0
  7  8  1  1  0  0  0
  7  9  1  0  0  0  0
  9 10  1  6  0  0  0
  9 11  1  0  0  0  0
 11 12  1  1  0  0  0
 11 13  1  0  0  0  0
 14 15  1  6  0  0  0
 14 16  1  0  0  0  0
 14 22  1  0  0  0  0
 16 17  1  0  0  0  0
 17 18  1  1  0  0  0
 17 19  1  0  0  0  0
 19  2  1  1  0  0  0
 19 20  1  0  0  0  0
 20 21  1  6  0  0  0
 20 22  1  0  0  0  0
 22 23  1  6  0  0  0
 24 23  1  1  0  0  0
 24 25  1  0  0  0  0
 24 34  1  0  0  0  0
 25 26  1  1  0  0  0
 25 27  1  0  0  0  0
 27 28  1  6  0  0  0
 27 30  1  0  0  0  0
 28 29  1  0  0  0  0
 30 31  1  6  0  0  0
 30 32  1  0  0  0  0
 30 33  1  0  0  0  0
 33 34  1  0  0  0  0
M  CHG  4   4   1  15   1  18   1  28   1
M  END
>  <CHROM.1>
-163.94031887,-164.07646925,-170.02864724,-68.17807654,-46.93284174,43.80766243
102.55446331,166.72101325,177.05961547,80.07107452,176.50112522,-149.39955044
-36.52613272,166.63791259,68.01119657,-10.74059379,6.82666474,19.03149662
-0.06253539,0.82999844,-2.98153004

>  <Name>
1mwl

>  <RI>
0

>  <Rbt.Current_Directory>
/home/itssahil/PROJECTS/Mol_Feturizer/New_Systems/rnas/1mwl

>  <Rbt.Executable>
rbdock ($Id: //depot/dev/client3/rdock/2013.1/src/exe/rbdock.cxx#4 $)

>  <Rbt.Library>
libRbt.so (2013.1, Build901 2013/11/27)

>  <Rbt.Parameter_File>
/export/apps/rDock/src/rDock_2013.1_src/data/scripts/dock_solv.prm

>  <Rbt.Receptor>
prm/pocket_docking_8.prm

>  <SCORE>
-71.3142

>  <SCORE.INTER>
-61.8213

>  <SCORE.INTER.CONST>
1

>  <SCORE.INTER.POLAR>
-9.33988

>  <SCORE.INTER.ROT>
6

>  <SCORE.INTER.SOLV>
27.9316

>  <SCORE.INTER.VDW>
-26.9918

>  <SCORE.INTER.norm>
-1.81827

>  <SCORE.INTRA>
-9.49294

>  <SCORE.INTRA.DIHEDRAL>
-22.3742

>  <SCORE.INTRA.DIHEDRAL.0>
42.0816

>  <SCORE.INTRA.POLAR>
0.131362

>  <SCORE.INTRA.POLAR.0>
-0.254682

>  <SCORE.INTRA.REPUL>
0.241625

>  <SCORE.INTRA.REPUL.0>
0

>  <SCORE.INTRA.SOLV>
-3.47195

>  <SCORE.INTRA.SOLV.lig_0>
-109.803

>  <SCORE.INTRA.VDW>
1.77536

>  <SCORE.INTRA.VDW.0>
0.32176

>  <SCORE.INTRA.norm>
-0.279204

>  <SCORE.RESTR>
0

>  <SCORE.RESTR.CAVITY>
0

>  <SCORE.RESTR.norm>
0

>  <SCORE.SYSTEM>
0

>  <SCORE.SYSTEM.CONST>
0

>  <SCORE.SYSTEM.DIHEDRAL>
0

>  <SCORE.SYSTEM.SOLV>
0

>  <SCORE.SYSTEM.norm>
0

>  <SCORE.heavy>
34

>  <SCORE.norm>
-2.09748

>  <RMSD>
1.528

$$$$
1mwl
 OpenBabel11021811403D
libRbt.so/2013.1/901 2013/11/27
 34 36  0  0  0  0  0  0  0  0999 V2000
   -9.1307    6.3344   20.1431 C   0  0  2  0  0  0  0  0  0  0  0  0
  -10.2840    6.9006   20.6887 O   0  0  0  0  0  0  0  0  0  0  0  0
   -9.1765    4.8088   20.4387 C   0  0  2  0  0  0  0  0  0  0  0  0
  -10.3840    4.2170   19.8547 N   0  3  0  0  0  0  0  0  0  0  0  0
   -9.0958    4.5442   21.9707 C   0  0  1  0  0  0  0  0  0  0  0  0
   -9.1094    3.2137   22.2351 O   0  0  0  0  0  0  0  0  0  0  0  0
   -7.7915    5.2079   22.5237 C   0  0  2  0  0  0  0  0  0  0  0  0
   -7.6790    4.9734   23.9431 O   0  0  0  0  0  0  0  0  0  0  0  0
   -7.8444    6.7405   22.2038 C   0  0  2  0  0  0  0  0  0  0  0  0
   -7.9670    6.9568   20.7452 O   0  0  0  0  0  0  0  0  0  0  0  0
   -6.6164    7.5333   22.6658 C   0  0  2  0  0  0  0  0  0  0  0  0
   -6.8157    8.8881   22.4248 O   0  0  0  0  0  0  0  0  0  0  0  0
   -5.3212    7.1499   21.9269 C   0  0  0  0  0  0  0  0  0  0  0  0
  -13.7009    9.1539   19.4610 C   0  0  2  0  0  0  0  0  0  0  0  0
  -14.5406   10.1767   18.7870 N   0  3  0  0  0  0  0  0  0  0  0  0
  -12.6812    9.8277   20.4265 C   0  0  0  0  0  0  0  0  0  0  0  0
  -11.7857    8.7385   21.1205 C   0  0  2  0  0  0  0  0  0  0  0  0
  -10.8162    9.4197   22.0548 N   0  3  0  0  0  0  0  0  0  0  0  0
  -11.0426    7.9022   20.0229 C   0  0  2  0  0  0  0  0  0  0  0  0
  -12.0816    7.2391   19.0860 C   0  0  2  0  0  0  0  0  0  0  0  0
  -11.4027    6.5194   18.0853 O   0  0  0  0  0  0  0  0  0  0  0  0
  -12.9467    8.3283   18.3970 C   0  0  1  0  0  0  0  0  0  0  0  0
  -13.8894    7.6986   17.5420 O   0  0  0  0  0  0  0  0  0  0  0  0
  -14.6267    8.4931   16.6543 C   0  0  2  0  0  0  0  0  0  0  0  0
  -15.2885    7.5506   15.6313 C   0  0  2  0  0  0  0  0  0  0  0  0
  -16.1575    6.6706   16.3117 O   0  0  0  0  0  0  0  0  0  0  0  0
  -14.1735    6.7548   14.8706 C   0  0  1  0  0  0  0  0  0  0  0  0
  -14.7317    5.7990   13.8833 N   0  3  0  0  0  0  0  0  0  0  0  0
  -14.2174    4.4274   14.1286 C   0  0  0  0  0  0  0  0  0  0  0  0
  -13.2168    7.7679   14.1527 C   0  0  2  0  0  0  0  0  0  0  0  0
  -13.9614    8.5598   13.2083 O   0  0  0  0  0  0  0  0  0  0  0  0
  -12.1589    7.0947   13.4213 C   0  0  0  0  0  0  0  0  0  0  0  0
  -12.6242    8.7713   15.1896 C   0  0  0  0  0  0  0  0  0  0  0  0
  -13.7216    9.4319   15.9695 O   0  0  0  0  0  0  0  0  0  0  0  0
  1  2  1  1  0  0  0
  1  3  1  0  0  0  0
  1 10  1  0  0  0  0
  3  4  1  1  0  0  0
  3  5  1  0  0  0  0
  5  6  1  6  0  0  0
  5  7  1  0  0  0  0
  7  8  1  1  0  0  0
  7  9  1  0  0  0  0
  9 10  1  6  0  0  0
  9 11  1  0  0  0  0
 11 12  1  6  0  0  0
 11 13  1  0  0  0  0
 14 15  1  6  0  0  0
 14 16  1  0  0  0  0
 14 22  1  0  0  0  0
 16 17  1  0  0  0  0
 17 18  1  1  0  0  0
 17 19  1  0  0  0  0
 19  2  1  1  0  0  0
 19 20  1  0  0  0  0
 20 21  1  6  0  0  0
 20 22  1  0  0  0  0
 22 23  1  6  0  0  0
 24 23  1  1  0  0  0
 24 25  1  0  0  0  0
 24 34  1  0  0  0  0
 25 26  1  1  0  0  0
 25 27  1  0  0  0  0
 27 28  1  6  0  0  0
 27 30  1  0  0  0  0
 28 29  1  0  0  0  0
 30 31  1  6  0  0  0
 30 32  1  0  0  0  0
 30 33  1  0  0  0  0
 33 34  1  0  0  0  0
M  CHG  4   4   1  15   1  18   1  28   1
M  END
>  <CHROM.1>
-138.71247541,-153.82136890,31.90322338,-64.36299150,175.14356138,-175.43885563
-74.19744033,97.42848461,-78.97626602,-169.57355749,70.19555458,166.10243108
-57.37599755,-5.32462198,59.33553406,-11.38774195,7.15857533,18.82998424
-0.31095244,0.80269647,-2.54918775

>  <Name>
1mwl

>  <RI>
0

>  <Rbt.Current_Directory>
/home/itssahil/PROJECTS/Mol_Feturizer/New_Systems/rnas/1mwl

>  <Rbt.Executable>
rbdock ($Id: //depot/dev/client3/rdock/2013.1/src/exe/rbdock.cxx#4 $)

>  <Rbt.Library>
libRbt.so (2013.1, Build901 2013/11/27)

>  <Rbt.Parameter_File>
/export/apps/rDock/src/rDock_2013.1_src/data/scripts/dock_solv.prm

>  <Rbt.Receptor>
prm/pocket_docking_6.prm

>  <SCORE>
-65.7985

>  <SCORE.INTER>
-48.2543

>  <SCORE.INTER.CONST>
1

>  <SCORE.INTER.POLAR>
-6.16356

>  <SCORE.INTER.ROT>
6

>  <SCORE.INTER.SOLV>
19.7936

>  <SCORE.INTER.VDW>
-25.8222

>  <SCORE.INTER.norm>
-1.41924

>  <SCORE.INTRA>
-17.5442

>  <SCORE.INTRA.DIHEDRAL>
-21.8798

>  <SCORE.INTRA.DIHEDRAL.0>
42.0816

>  <SCORE.INTRA.POLAR>
-1.87909

>  <SCORE.INTRA.POLAR.0>
-0.254682

>  <SCORE.INTRA.REPUL>
0

>  <SCORE.INTRA.REPUL.0>
0

>  <SCORE.INTRA.SOLV>
0.806666

>  <SCORE.INTRA.SOLV.lig_0>
-109.803

>  <SCORE.INTRA.VDW>
-0.618701

>  <SCORE.INTRA.VDW.0>
0.32176

>  <SCORE.INTRA.norm>
-0.516005

>  <SCORE.RESTR>
0

>  <SCORE.RESTR.CAVITY>
0

>  <SCORE.RESTR.norm>
0

>  <SCORE.SYSTEM>
0

>  <SCORE.SYSTEM.CONST>
0

>  <SCORE.SYSTEM.DIHEDRAL>
0

>  <SCORE.SYSTEM.SOLV>
0

>  <SCORE.SYSTEM.norm>
0

>  <SCORE.heavy>
34

>  <SCORE.norm>
-1.93525

>  <RMSD>
1.551

$$$$
1mwl
 OpenBabel11021811403D
libRbt.so/2013.1/901 2013/11/27
 34 36  0  0  0  0  0  0  0  0999 V2000
   -9.2482    6.0599   20.1193 C   0  0  2  0  0  0  0  0  0  0  0  0
  -10.4198    6.6117   20.6405 O   0  0  0  0  0  0  0  0  0  0  0  0
   -9.2276    4.5557   20.5115 C   0  0  2  0  0  0  0  0  0  0  0  0
  -10.4141    3.8785   19.9794 N   0  3  0  0  0  0  0  0  0  0  0  0
   -9.1233    4.3929   22.0563 C   0  0  1  0  0  0  0  0  0  0  0  0
   -9.0791    3.0826   22.4046 O   0  0  0  0  0  0  0  0  0  0  0  0
   -7.8435    5.1438   22.5519 C   0  0  2  0  0  0  0  0  0  0  0  0
   -7.7096    5.0051   23.9819 O   0  0  0  0  0  0  0  0  0  0  0  0
   -7.9632    6.6494   22.1360 C   0  0  2  0  0  0  0  0  0  0  0  0
   -8.1067    6.7669   20.6680 O   0  0  0  0  0  0  0  0  0  0  0  0
   -6.7657    7.5200   22.5334 C   0  0  2  0  0  0  0  0  0  0  0  0
   -7.0074    8.8412   22.1738 O   0  0  0  0  0  0  0  0  0  0  0  0
   -5.4526    7.1172   21.8379 C   0  0  0  0  0  0  0  0  0  0  0  0
  -13.6845    9.1330   19.5251 C   0  0  2  0  0  0  0  0  0  0  0  0
  -14.4580   10.2320   18.8933 N   0  3  0  0  0  0  0  0  0  0  0  0
  -12.6106    9.7041   20.4981 C   0  0  0  0  0  0  0  0  0  0  0  0
  -11.7857    8.5344   21.1471 C   0  0  2  0  0  0  0  0  0  0  0  0
  -10.7618    9.1172   22.0897 N   0  3  0  0  0  0  0  0  0  0  0  0
  -11.1138    7.6836   20.0152 C   0  0  2  0  0  0  0  0  0  0  0  0
  -12.2059    7.1237   19.0714 C   0  0  2  0  0  0  0  0  0  0  0  0
  -11.5890    6.3907   18.0408 O   0  0  0  0  0  0  0  0  0  0  0  0
  -13.0004    8.2911   18.4270 C   0  0  1  0  0  0  0  0  0  0  0  0
  -13.9933    7.7553   17.5648 O   0  0  0  0  0  0  0  0  0  0  0  0
  -14.6410    8.6163   16.6694 C   0  0  2  0  0  0  0  0  0  0  0  0
  -15.2938    7.7442   15.5802 C   0  0  2  0  0  0  0  0  0  0  0  0
  -16.2412    6.8886   16.1826 O   0  0  0  0  0  0  0  0  0  0  0  0
  -14.1812    6.9171   14.8501 C   0  0  1  0  0  0  0  0  0  0  0  0
  -14.7332    6.0251   13.8014 N   0  3  0  0  0  0  0  0  0  0  0  0
  -14.2301    4.6380   13.9710 C   0  0  0  0  0  0  0  0  0  0  0  0
  -13.1376    7.9022   14.2196 C   0  0  2  0  0  0  0  0  0  0  0  0
  -13.7898    8.7630   13.2671 O   0  0  0  0  0  0  0  0  0  0  0  0
  -12.0773    7.1995   13.5201 C   0  0  0  0  0  0  0  0  0  0  0  0
  -12.5516    8.8383   15.3212 C   0  0  0  0  0  0  0  0  0  0  0  0
  -13.6544    9.5289   16.0666 O   0  0  0  0  0  0  0  0  0  0  0  0
  1  2  1  1  0  0  0
  1  3  1  0  0  0  0
  1 10  1  0  0  0  0
  3  4  1  1  0  0  0
  3  5  1  0  0  0  0
  5  6  1  6  0  0  0
  5  7  1  0  0  0  0
  7  8  1  1  0  0  0
  7  9  1  0  0  0  0
  9 10  1  6  0  0  0
  9 11  1  0  0  0  0
 11 12  1  6  0  0  0
 11 13  1  0  0  0  0
 14 15  1  6  0  0  0
 14 16  1  0  0  0  0
 14 22  1  0  0  0  0
 16 17  1  0  0  0  0
 17 18  1  1  0  0  0
 17 19  1  0  0  0  0
 19  2  1  1  0  0  0
 19 20  1  0  0  0  0
 20 21  1  6  0  0  0
 20 22  1  0  0  0  0
 22 23  1  6  0  0  0
 24 23  1  1  0  0  0
 24 25  1  0  0  0  0
 24 34  1  0  0  0  0
 25 26  1  1  0  0  0
 25 27  1  0  0  0  0
 27 28  1  6  0  0  0
 27 30  1  0  0  0  0
 28 29  1  0  0  0  0
 30 31  1  6  0  0  0
 30 32  1  0  0  0  0
 30 33  1  0  0  0  0
 33 34  1  0  0  0  0
M  CHG  4   4   1  15   1  18   1  28   1
M  END
>  <CHROM.1>
-148.67102102,-148.21433455,73.75299925,-159.27020285,-60.73182751,-177.16518631
69.41669238,-22.86091231,48.21424464,75.11515285,72.98581599,161.83715746
-52.64708986,-9.08115938,52.76263494,-11.42212907,7.12522710,18.84230258
-0.27664112,0.82921686,-2.55728383

>  <Name>
1mwl

>  <RI>
0

>  <Rbt.Current_Directory>
/home/itssahil/PROJECTS/Mol_Feturizer/New_Systems/rnas/1mwl

>  <Rbt.Executable>
rbdock ($Id: //depot/dev/client3/rdock/2013.1/src/exe/rbdock.cxx#4 $)

>  <Rbt.Library>
libRbt.so (2013.1, Build901 2013/11/27)

>  <Rbt.Parameter_File>
/export/apps/rDock/src/rDock_2013.1_src/data/scripts/dock_solv.prm

>  <Rbt.Receptor>
prm/pocket_docking_3.prm

>  <SCORE>
-62.4665

>  <SCORE.INTER>
-47.6803

>  <SCORE.INTER.CONST>
1

>  <SCORE.INTER.POLAR>
-6.00052

>  <SCORE.INTER.ROT>
6

>  <SCORE.INTER.SOLV>
20.2157

>  <SCORE.INTER.VDW>
-26.1237

>  <SCORE.INTER.norm>
-1.40236

>  <SCORE.INTRA>
-14.7862

>  <SCORE.INTRA.DIHEDRAL>
-21.3822

>  <SCORE.INTRA.DIHEDRAL.0>
42.0816

>  <SCORE.INTRA.POLAR>
-0.793105

>  <SCORE.INTRA.POLAR.0>
-0.254682

>  <SCORE.INTRA.REPUL>
0

>  <SCORE.INTRA.REPUL.0>
0

>  <SCORE.INTRA.SOLV>
1.70562

>  <SCORE.INTRA.SOLV.lig_0>
-109.803

>  <SCORE.INTRA.VDW>
-2.25133

>  <SCORE.INTRA.VDW.0>
0.32176

>  <SCORE.INTRA.norm>
-0.434888

>  <SCORE.RESTR>
0

>  <SCORE.RESTR.CAVITY>
0

>  <SCORE.RESTR.norm>
0

>  <SCORE.SYSTEM>
0

>  <SCORE.SYSTEM.CONST>
0

>  <SCORE.SYSTEM.DIHEDRAL>
0

>  <SCORE.SYSTEM.SOLV>
0

>  <SCORE.SYSTEM.norm>
0

>  <SCORE.heavy>
34

>  <SCORE.norm>
-1.83725

>  <RMSD>
1.552

$$$$
1mwl
 OpenBabel11021811403D
libRbt.so/2013.1/901 2013/11/27
 34 36  0  0  0  0  0  0  0  0999 V2000
   -9.0762    6.2410   20.3398 C   0  0  2  0  0  0  0  0  0  0  0  0
  -10.1917    6.8493   20.9181 O   0  0  0  0  0  0  0  0  0  0  0  0
   -9.2104    4.7092   20.5688 C   0  0  2  0  0  0  0  0  0  0  0  0
  -10.4535    4.2155   19.9683 N   0  3  0  0  0  0  0  0  0  0  0  0
   -9.1383    4.3730   22.0872 C   0  0  1  0  0  0  0  0  0  0  0  0
   -9.2291    3.0353   22.2933 O   0  0  0  0  0  0  0  0  0  0  0  0
   -7.7946    4.9341   22.6592 C   0  0  2  0  0  0  0  0  0  0  0  0
   -7.6895    4.6311   24.0661 O   0  0  0  0  0  0  0  0  0  0  0  0
   -7.7586    6.4798   22.4069 C   0  0  2  0  0  0  0  0  0  0  0  0
   -7.8751    6.7669   20.9601 O   0  0  0  0  0  0  0  0  0  0  0  0
   -6.4839    7.1780   22.8942 C   0  0  2  0  0  0  0  0  0  0  0  0
   -6.7735    8.4931   23.2406 O   0  0  0  0  0  0  0  0  0  0  0  0
   -5.3734    7.2470   21.8301 C   0  0  0  0  0  0  0  0  0  0  0  0
  -13.5785    9.1707   19.7349 C   0  0  2  0  0  0  0  0  0  0  0  0
  -14.4049   10.2156   19.0788 N   0  3  0  0  0  0  0  0  0  0  0  0
  -12.5461    9.8150   20.7070 C   0  0  0  0  0  0  0  0  0  0  0  0
  -11.6646    8.7025   21.3819 C   0  0  2  0  0  0  0  0  0  0  0  0
  -10.6824    9.3554   22.3230 N   0  3  0  0  0  0  0  0  0  0  0  0
  -10.9373    7.8717   20.2696 C   0  0  2  0  0  0  0  0  0  0  0  0
  -11.9888    7.2380   19.3263 C   0  0  2  0  0  0  0  0  0  0  0  0
  -11.3237    6.5233   18.3130 O   0  0  0  0  0  0  0  0  0  0  0  0
  -12.8398    8.3499   18.6564 C   0  0  1  0  0  0  0  0  0  0  0  0
  -13.7943    7.7470   17.7951 O   0  0  0  0  0  0  0  0  0  0  0  0
  -13.5707    7.7857   16.4127 C   0  0  2  0  0  0  0  0  0  0  0  0
  -14.3719    8.9741   15.8483 C   0  0  2  0  0  0  0  0  0  0  0  0
  -13.9010   10.1675   16.4371 O   0  0  0  0  0  0  0  0  0  0  0  0
  -15.8927    8.7617   16.1597 C   0  0  1  0  0  0  0  0  0  0  0  0
  -16.7337    9.8823   15.6728 N   0  3  0  0  0  0  0  0  0  0  0  0
  -16.6511   11.0430   16.5959 C   0  0  0  0  0  0  0  0  0  0  0  0
  -16.3678    7.4156   15.5121 C   0  0  2  0  0  0  0  0  0  0  0  0
  -16.1789    7.4649   14.0855 O   0  0  0  0  0  0  0  0  0  0  0  0
  -17.7750    7.1582   15.7587 C   0  0  0  0  0  0  0  0  0  0  0  0
  -15.4882    6.2345   16.0264 C   0  0  0  0  0  0  0  0  0  0  0  0
  -14.0339    6.5261   15.8058 O   0  0  0  0  0  0  0  0  0  0  0  0
  1  2  1  1  0  0  0
  1  3  1  0  0  0  0
  1 10  1  0  0  0  0
  3  4  1  1  0  0  0
  3  5  1  0  0  0  0
  5  6  1  6  0  0  0
  5  7  1  0  0  0  0
  7  8  1  1  0  0  0
  7  9  1  0  0  0  0
  9 10  1  6  0  0  0
  9 11  1  0  0  0  0
 11 12  1  6  0  0  0
 11 13  1  0  0  0  0
 14 15  1  6  0  0  0
 14 16  1  0  0  0  0
 14 22  1  0  0  0  0
 16 17  1  0  0  0  0
 17 18  1  1  0  0  0
 17 19  1  0  0  0  0
 19  2  1  1  0  0  0
 19 20  1  0  0  0  0
 20 21  1  6  0  0  0
 20 22  1  0  0  0  0
 22 23  1  6  0  0  0
 24 23  1  1  0  0  0
 24 25  1  0  0  0  0
 24 34  1  0  0  0  0
 25 26  1  1  0  0  0
 25 27  1  0  0  0  0
 27 28  1  6  0  0  0
 27 30  1  0  0  0  0
 28 29  1  0  0  0  0
 30 31  1  6  0  0  0
 30 32  1  0  0  0  0
 30 33  1  0  0  0  0
 33 34  1  0  0  0  0
M  CHG  4   4   1  15   1  18   1  28   1
M  END
>  <CHROM.1>
-135.13442961,-156.16708867,-166.95594261,-164.99677057,-78.38195495,-150.91337354
66.36684883,-147.11768965,-69.60555456,174.39931588,135.76093950,-96.89706830
165.95337013,41.49692208,55.15429926,-11.81574543,7.40305911,19.30357991
0.06674434,0.71332098,-2.86506331

>  <Name>
1mwl

>  <RI>
0

>  <Rbt.Current_Directory>
/home/itssahil/PROJECTS/Mol_Feturizer/New_Systems/rnas/1mwl

>  <Rbt.Executable>
rbdock ($Id: //depot/dev/client3/rdock/2013.1/src/exe/rbdock.cxx#4 $)

>  <Rbt.Library>
libRbt.so (2013.1, Build901 2013/11/27)

>  <Rbt.Parameter_File>
/export/apps/rDock/src/rDock_2013.1_src/data/scripts/dock_solv.prm

>  <Rbt.Receptor>
prm/pocket_docking_3.prm

>  <SCORE>
-61.6273

>  <SCORE.INTER>
-52.0983

>  <SCORE.INTER.CONST>
1

>  <SCORE.INTER.POLAR>
-7.09914

>  <SCORE.INTER.ROT>
6

>  <SCORE.INTER.SOLV>
23.9378

>  <SCORE.INTER.VDW>
-26.6477

>  <SCORE.INTER.norm>
-1.5323

>  <SCORE.INTRA>
-9.52893

>  <SCORE.INTRA.DIHEDRAL>
-12.494

>  <SCORE.INTRA.DIHEDRAL.0>
42.0816

>  <SCORE.INTRA.POLAR>
-0.849407

>  <SCORE.INTRA.POLAR.0>
-0.254682

>  <SCORE.INTRA.REPUL>
0

>  <SCORE.INTRA.REPUL.0>
0

>  <SCORE.INTRA.SOLV>
3.84201

>  <SCORE.INTRA.SOLV.lig_0>
-109.803

>  <SCORE.INTRA.VDW>
-2.31493

>  <SCORE.INTRA.VDW.0>
0.32176

>  <SCORE.INTRA.norm>
-0.280263

>  <SCORE.RESTR>
0

>  <SCORE.RESTR.CAVITY>
0

>  <SCORE.RESTR.norm>
0

>  <SCORE.SYSTEM>
0

>  <SCORE.SYSTEM.CONST>
0

>  <SCORE.SYSTEM.DIHEDRAL>
0

>  <SCORE.SYSTEM.SOLV>
0

>  <SCORE.SYSTEM.norm>
0

>  <SCORE.heavy>
34

>  <SCORE.norm>
-1.81257

>  <RMSD>
1.603

$$$$
1mwl
 OpenBabel11021811403D
libRbt.so/2013.1/901 2013/11/27
 34 36  0  0  0  0  0  0  0  0999 V2000
   -9.5962    6.0257   19.9551 C   0  0  2  0  0  0  0  0  0  0  0  0
  -10.6106    6.7720   20.5572 O   0  0  0  0  0  0  0  0  0  0  0  0
   -9.9068    4.5245   20.2133 C   0  0  2  0  0  0  0  0  0  0  0  0
  -11.2192    4.1776   19.6595 N   0  3  0  0  0  0  0  0  0  0  0  0
   -9.8266    4.2013   21.7340 C   0  0  1  0  0  0  0  0  0  0  0  0
  -10.0714    2.8872   21.9649 O   0  0  0  0  0  0  0  0  0  0  0  0
   -8.4071    4.6026   22.2552 C   0  0  2  0  0  0  0  0  0  0  0  0
   -8.2937    4.3069   23.6630 O   0  0  0  0  0  0  0  0  0  0  0  0
   -8.1930    6.1292   21.9765 C   0  0  2  0  0  0  0  0  0  0  0  0
   -8.3208    6.4100   20.5294 O   0  0  0  0  0  0  0  0  0  0  0  0
   -6.8281    6.6739   22.4128 C   0  0  2  0  0  0  0  0  0  0  0  0
   -6.5726    6.2989   23.7271 O   0  0  0  0  0  0  0  0  0  0  0  0
   -6.7375    8.2104   22.3775 C   0  0  0  0  0  0  0  0  0  0  0  0
  -13.7887    9.3595   19.3471 C   0  0  2  0  0  0  0  0  0  0  0  0
  -14.5219   10.4697   18.6873 N   0  3  0  0  0  0  0  0  0  0  0  0
  -12.7209    9.9154   20.3353 C   0  0  0  0  0  0  0  0  0  0  0  0
  -11.9384    8.7335   21.0142 C   0  0  2  0  0  0  0  0  0  0  0  0
  -10.9196    9.3020   21.9709 N   0  3  0  0  0  0  0  0  0  0  0  0
  -11.2651    7.8533   19.9059 C   0  0  2  0  0  0  0  0  0  0  0  0
  -12.3516    7.3093   18.9463 C   0  0  2  0  0  0  0  0  0  0  0  0
  -11.7323    6.5493   17.9368 O   0  0  0  0  0  0  0  0  0  0  0  0
  -13.1037    8.4882   18.2727 C   0  0  1  0  0  0  0  0  0  0  0  0
  -14.0920    7.9668   17.3965 O   0  0  0  0  0  0  0  0  0  0  0  0
  -14.7145    8.8372   16.4922 C   0  0  2  0  0  0  0  0  0  0  0  0
  -15.3943    7.9734   15.4131 C   0  0  2  0  0  0  0  0  0  0  0  0
  -16.3664    7.1532   16.0254 O   0  0  0  0  0  0  0  0  0  0  0  0
  -14.3079    7.1054   14.6912 C   0  0  1  0  0  0  0  0  0  0  0  0
  -14.8875    6.2191   13.6526 N   0  3  0  0  0  0  0  0  0  0  0  0
  -14.2663    4.8709   13.7038 C   0  0  0  0  0  0  0  0  0  0  0  0
  -13.2358    8.0518   14.0492 C   0  0  2  0  0  0  0  0  0  0  0  0
  -13.8629    8.9214   13.0879 O   0  0  0  0  0  0  0  0  0  0  0  0
  -12.1978    7.3100   13.3567 C   0  0  0  0  0  0  0  0  0  0  0  0
  -12.6208    8.9817   15.1402 C   0  0  0  0  0  0  0  0  0  0  0  0
  -13.7016    9.7132   15.8788 O   0  0  0  0  0  0  0  0  0  0  0  0
  1  2  1  1  0  0  0
  1  3  1  0  0  0  0
  1 10  1  0  0  0  0
  3  4  1  1  0  0  0
  3  5  1  0  0  0  0
  5  6  1  6  0  0  0
  5  7  1  0  0  0  0
  7  8  1  1  0  0  0
  7  9  1  0  0  0  0
  9 10  1  6  0  0  0
  9 11  1  0  0  0  0
 11 12  1  1  0  0  0
 11 13  1  0  0  0  0
 14 15  1  6  0  0  0
 14 16  1  0  0  0  0
 14 22  1  0  0  0  0
 16 17  1  0  0  0  0
 17 18  1  1  0  0  0
 17 19  1  0  0  0  0
 19  2  1  1  0  0  0
 19 20  1  0  0  0  0
 20 21  1  6  0  0  0
 20 22  1  0  0  0  0
 22 23  1  6  0  0  0
 24 23  1  1  0  0  0
 24 25  1  0  0  0  0
 24 34  1  0  0  0  0
 25 26  1  1  0  0  0
 25 27  1  0  0  0  0
 27 28  1  6  0  0  0
 27 30  1  0  0  0  0
 28 29  1  0  0  0  0
 30 31  1  6  0  0  0
 30 32  1  0  0  0  0
 30 33  1  0  0  0  0
 33 34  1  0  0  0  0
M  CHG  4   4   1  15   1  18   1  28   1
M  END
>  <CHROM.1>
-133.93561703,-160.35473493,156.04993127,176.14734329,-166.27794506,-50.30949339
177.63187782,-24.04712827,44.41193340,-166.61673372,72.03113201,163.22544019
65.47833521,-17.92784254,-65.32345873,-11.66917297,7.10965980,18.72586182
-0.22240149,0.89175917,-2.57604460

>  <Name>
1mwl

>  <RI>
0

>  <Rbt.Current_Directory>
/home/itssahil/PROJECTS/Mol_Feturizer/New_Systems/rnas/1mwl

>  <Rbt.Executable>
rbdock ($Id: //depot/dev/client3/rdock/2013.1/src/exe/rbdock.cxx#4 $)

>  <Rbt.Library>
libRbt.so (2013.1, Build901 2013/11/27)

>  <Rbt.Parameter_File>
/export/apps/rDock/src/rDock_2013.1_src/data/scripts/dock_solv.prm

>  <Rbt.Receptor>
prm/pocket_docking_3.prm

>  <SCORE>
-64.8591

>  <SCORE.INTER>
-45.4562

>  <SCORE.INTER.CONST>
1

>  <SCORE.INTER.POLAR>
-5.7164

>  <SCORE.INTER.ROT>
6

>  <SCORE.INTER.SOLV>
19.1722

>  <SCORE.INTER.VDW>
-25.2402

>  <SCORE.INTER.norm>
-1.33695

>  <SCORE.INTRA>
-19.4029

>  <SCORE.INTRA.DIHEDRAL>
-22.552

>  <SCORE.INTRA.DIHEDRAL.0>
42.0816

>  <SCORE.INTRA.POLAR>
-2.44756

>  <SCORE.INTRA.POLAR.0>
-0.254682

>  <SCORE.INTRA.REPUL>
0

>  <SCORE.INTRA.REPUL.0>
0

>  <SCORE.INTRA.SOLV>
1.33822

>  <SCORE.INTRA.SOLV.lig_0>
-109.803

>  <SCORE.INTRA.VDW>
-0.474263

>  <SCORE.INTRA.VDW.0>
0.32176

>  <SCORE.INTRA.norm>
-0.570673

>  <SCORE.RESTR>
0

>  <SCORE.RESTR.CAVITY>
0

>  <SCORE.RESTR.norm>
0

>  <SCORE.SYSTEM>
0

>  <SCORE.SYSTEM.CONST>
0

>  <SCORE.SYSTEM.DIHEDRAL>
0

>  <SCORE.SYSTEM.SOLV>
0

>  <SCORE.SYSTEM.norm>
0

>  <SCORE.heavy>
34

>  <SCORE.norm>
-1.90762

>  <RMSD>
1.671

$$$$
1mwl
 OpenBabel11021811403D
libRbt.so/2013.1/901 2013/11/27
 34 36  0  0  0  0  0  0  0  0999 V2000
   -9.1704    6.1811   20.0139 C   0  0  2  0  0  0  0  0  0  0  0  0
  -10.3957    6.7035   20.4312 O   0  0  0  0  0  0  0  0  0  0  0  0
   -9.2003    4.6506   20.2853 C   0  0  2  0  0  0  0  0  0  0  0  0
  -10.3143    4.0307   19.5613 N   0  3  0  0  0  0  0  0  0  0  0  0
   -9.2851    4.3660   21.8135 C   0  0  1  0  0  0  0  0  0  0  0  0
   -9.2858    3.0320   22.0598 O   0  0  0  0  0  0  0  0  0  0  0  0
   -8.0739    5.0612   22.5185 C   0  0  2  0  0  0  0  0  0  0  0  0
   -8.1153    4.8094   23.9388 O   0  0  0  0  0  0  0  0  0  0  0  0
   -8.1395    6.5960   22.2118 C   0  0  2  0  0  0  0  0  0  0  0  0
   -8.1030    6.8299   20.7512 O   0  0  0  0  0  0  0  0  0  0  0  0
   -6.9978    7.4192   22.8192 C   0  0  2  0  0  0  0  0  0  0  0  0
   -7.2511    8.7746   22.6403 O   0  0  0  0  0  0  0  0  0  0  0  0
   -5.6284    7.1472   22.1702 C   0  0  0  0  0  0  0  0  0  0  0  0
  -13.7065    8.9435   18.9210 C   0  0  2  0  0  0  0  0  0  0  0  0
  -14.4910    9.9608   18.1760 N   0  3  0  0  0  0  0  0  0  0  0  0
  -12.7682    9.6247   19.9609 C   0  0  0  0  0  0  0  0  0  0  0  0
  -11.9295    8.5412   20.7307 C   0  0  2  0  0  0  0  0  0  0  0  0
  -11.0387    9.2295   21.7354 N   0  3  0  0  0  0  0  0  0  0  0  0
  -11.1000    7.6998   19.7010 C   0  0  2  0  0  0  0  0  0  0  0  0
  -12.0599    7.0294   18.6880 C   0  0  2  0  0  0  0  0  0  0  0  0
  -11.3023    6.3051   17.7491 O   0  0  0  0  0  0  0  0  0  0  0  0
  -12.8686    8.1130   17.9256 C   0  0  1  0  0  0  0  0  0  0  0  0
  -13.7392    7.4767   17.0017 O   0  0  0  0  0  0  0  0  0  0  0  0
  -14.4147    8.2662   16.0621 C   0  0  2  0  0  0  0  0  0  0  0  0
  -14.9411    7.3258   14.9615 C   0  0  2  0  0  0  0  0  0  0  0  0
  -15.8403    6.4024   15.5369 O   0  0  0  0  0  0  0  0  0  0  0  0
  -13.7306    6.5848   14.2976 C   0  0  1  0  0  0  0  0  0  0  0  0
  -14.1570    5.6337   13.2424 N   0  3  0  0  0  0  0  0  0  0  0  0
  -13.6350    4.2709   13.5190 C   0  0  0  0  0  0  0  0  0  0  0  0
  -12.7452    7.6450   13.6959 C   0  0  2  0  0  0  0  0  0  0  0  0
  -13.4226    8.4331   12.6991 O   0  0  0  0  0  0  0  0  0  0  0  0
  -11.5986    7.0240   13.0580 C   0  0  0  0  0  0  0  0  0  0  0  0
  -12.2912    8.6437   14.8048 C   0  0  0  0  0  0  0  0  0  0  0  0
  -13.4812    9.2498   15.4869 O   0  0  0  0  0  0  0  0  0  0  0  0
  1  2  1  1  0  0  0
  1  3  1  0  0  0  0
  1 10  1  0  0  0  0
  3  4  1  6  0  0  0
  3  5  1  0  0  0  0
  5  6  1  6  0  0  0
  5  7  1  0  0  0  0
  7  8  1  1  0  0  0
  7  9  1  0  0  0  0
  9 10  1  6  0  0  0
  9 11  1  0  0  0  0
 11 12  1  6  0  0  0
 11 13  1  0  0  0  0
 14 15  1  6  0  0  0
 14 16  1  0  0  0  0
 14 22  1  0  0  0  0
 16 17  1  0  0  0  0
 17 18  1  1  0  0  0
 17 19  1  0  0  0  0
 19  2  1  1  0  0  0
 19 20  1  0  0  0  0
 20 21  1  6  0  0  0
 20 22  1  0  0  0  0
 22 23  1  6  0  0  0
 24 23  1  1  0  0  0
 24 25  1  0  0  0  0
 24 34  1  0  0  0  0
 25 26  1  1  0  0  0
 25 27  1  0  0  0  0
 27 28  1  6  0  0  0
 27 30  1  0  0  0  0
 28 29  1  0  0  0  0
 30 31  1  6  0  0  0
 30 32  1  0  0  0  0
 30 33  1  0  0  0  0
 33 34  1  0  0  0  0
M  CHG  4   4   1  15   1  18   1  28   1
M  END
>  <CHROM.1>
-139.30076601,-150.74589036,151.28672973,-62.59383797,-135.37351851,-171.99644533
-179.88006413,90.73694874,-76.10018118,-172.56971950,69.54989330,163.86012652
167.79680309,-4.61583436,-72.89388210,-11.33674154,6.98750256,18.50321425
-0.39982539,0.87594623,-2.48795642

>  <Name>
1mwl

>  <RI>
0

>  <Rbt.Current_Directory>
/home/itssahil/PROJECTS/Mol_Feturizer/New_Systems/rnas/1mwl

>  <Rbt.Executable>
rbdock ($Id: //depot/dev/client3/rdock/2013.1/src/exe/rbdock.cxx#4 $)

>  <Rbt.Library>
libRbt.so (2013.1, Build901 2013/11/27)

>  <Rbt.Parameter_File>
/export/apps/rDock/src/rDock_2013.1_src/data/scripts/dock_solv.prm

>  <Rbt.Receptor>
prm/pocket_docking_4.prm

>  <SCORE>
-66.0623

>  <SCORE.INTER>
-53.2366

>  <SCORE.INTER.CONST>
1

>  <SCORE.INTER.POLAR>
-7.40043

>  <SCORE.INTER.ROT>
6

>  <SCORE.INTER.SOLV>
18.7542

>  <SCORE.INTER.VDW>
-24.6744

>  <SCORE.INTER.norm>
-1.56578

>  <SCORE.INTRA>
-12.8256

>  <SCORE.INTRA.DIHEDRAL>
-15.6849

>  <SCORE.INTRA.DIHEDRAL.0>
42.0816

>  <SCORE.INTRA.POLAR>
-1.68505

>  <SCORE.INTRA.POLAR.0>
-0.254682

>  <SCORE.INTRA.REPUL>
0

>  <SCORE.INTRA.REPUL.0>
0

>  <SCORE.INTRA.SOLV>
2.08953

>  <SCORE.INTRA.SOLV.lig_0>
-109.803

>  <SCORE.INTRA.VDW>
-0.298768

>  <SCORE.INTRA.VDW.0>
0.32176

>  <SCORE.INTRA.norm>
-0.377224

>  <SCORE.RESTR>
0

>  <SCORE.RESTR.CAVITY>
0

>  <SCORE.RESTR.norm>
0

>  <SCORE.SYSTEM>
0

>  <SCORE.SYSTEM.CONST>
0

>  <SCORE.SYSTEM.DIHEDRAL>
0

>  <SCORE.SYSTEM.SOLV>
0

>  <SCORE.SYSTEM.norm>
0

>  <SCORE.heavy>
34

>  <SCORE.norm>
-1.94301

>  <RMSD>
1.729

$$$$
1mwl
 OpenBabel11021811403D
libRbt.so/2013.1/901 2013/11/27
 34 36  0  0  0  0  0  0  0  0999 V2000
   -9.3859    5.9667   19.9121 C   0  0  2  0  0  0  0  0  0  0  0  0
  -10.5450    6.5607   20.4146 O   0  0  0  0  0  0  0  0  0  0  0  0
   -9.3316    4.5137   20.4622 C   0  0  2  0  0  0  0  0  0  0  0  0
  -10.5276    3.7724   20.0505 N   0  3  0  0  0  0  0  0  0  0  0  0
   -9.1693    4.5189   22.0105 C   0  0  1  0  0  0  0  0  0  0  0  0
   -9.0954    3.2542   22.4954 O   0  0  0  0  0  0  0  0  0  0  0  0
   -7.8823    5.3304   22.3746 C   0  0  2  0  0  0  0  0  0  0  0  0
   -7.6950    5.3476   23.8053 O   0  0  0  0  0  0  0  0  0  0  0  0
   -8.0366    6.7814   21.8046 C   0  0  2  0  0  0  0  0  0  0  0  0
   -8.2347    6.7390   20.3389 O   0  0  0  0  0  0  0  0  0  0  0  0
   -6.8370    7.7005   22.0614 C   0  0  2  0  0  0  0  0  0  0  0  0
   -5.6836    6.9369   22.2024 O   0  0  0  0  0  0  0  0  0  0  0  0
   -6.9630    8.5332   23.3502 C   0  0  0  0  0  0  0  0  0  0  0  0
  -13.8331    8.5064   18.5010 C   0  0  2  0  0  0  0  0  0  0  0  0
  -14.6301    9.5223   17.7674 N   0  3  0  0  0  0  0  0  0  0  0  0
  -13.3251    9.0793   19.8573 C   0  0  0  0  0  0  0  0  0  0  0  0
  -12.4678    8.0032   20.6170 C   0  0  2  0  0  0  0  0  0  0  0  0
  -11.9986    8.5830   21.9286 N   0  3  0  0  0  0  0  0  0  0  0  0
  -11.2646    7.5663   19.7127 C   0  0  2  0  0  0  0  0  0  0  0  0
  -11.8015    6.9941   18.3780 C   0  0  2  0  0  0  0  0  0  0  0  0
  -10.7125    6.6372   17.5614 O   0  0  0  0  0  0  0  0  0  0  0  0
  -12.6320    8.0736   17.6334 C   0  0  1  0  0  0  0  0  0  0  0  0
  -13.1116    7.5286   16.4129 O   0  0  0  0  0  0  0  0  0  0  0  0
  -12.7056    8.1182   15.2087 C   0  0  2  0  0  0  0  0  0  0  0  0
  -13.5607    7.5059   14.0832 C   0  0  2  0  0  0  0  0  0  0  0  0
  -14.9191    7.8063   14.3223 O   0  0  0  0  0  0  0  0  0  0  0  0
  -13.3306    5.9564   14.0491 C   0  0  1  0  0  0  0  0  0  0  0  0
  -14.1445    5.2845   13.0069 N   0  3  0  0  0  0  0  0  0  0  0  0
  -14.4666    3.8909   13.4069 C   0  0  0  0  0  0  0  0  0  0  0  0
  -11.8089    5.6671   13.8087 C   0  0  2  0  0  0  0  0  0  0  0  0
  -11.3949    6.2351   12.5520 O   0  0  0  0  0  0  0  0  0  0  0  0
  -11.5250    4.2443   13.7606 C   0  0  0  0  0  0  0  0  0  0  0  0
  -10.9508    6.3684   14.9064 C   0  0  0  0  0  0  0  0  0  0  0  0
  -11.2797    7.8297   14.9782 O   0  0  0  0  0  0  0  0  0  0  0  0
  1  2  1  1  0  0  0
  1  3  1  0  0  0  0
  1 10  1  0  0  0  0
  3  4  1  1  0  0  0
  3  5  1  0  0  0  0
  5  6  1  6  0  0  0
  5  7  1  0  0  0  0
  7  8  1  1  0  0  0
  7  9  1  0  0  0  0
  9 10  1  6  0  0  0
  9 11  1  0  0  0  0
 11 12  1  1  0  0  0
 11 13  1  0  0  0  0
 14 15  1  6  0  0  0
 14 16  1  0  0  0  0
 14 22  1  0  0  0  0
 16 17  1  0  0  0  0
 17 18  1  1  0  0  0
 17 19  1  0  0  0  0
 19  2  1  1  0  0  0
 19 20  1  0  0  0  0
 20 21  1  6  0  0  0
 20 22  1  0  0  0  0
 22 23  1  6  0  0  0
 24 23  1  1  0  0  0
 24 25  1  0  0  0  0
 24 34  1  0  0  0  0
 25 26  1  1  0  0  0
 25 27  1  0  0  0  0
 27 28  1  6  0  0  0
 27 30  1  0  0  0  0
 28 29  1  0  0  0  0
 30 31  1  6  0  0  0
 30 32  1  0  0  0  0
 30 33  1  0  0  0  0
 33 34  1  0  0  0  0
M  CHG  4   4   1  15   1  18   1  28   1
M  END
>  <CHROM.1>
-149.58102259,-178.36185083,-167.62602289,-157.62253242,67.62155557,26.18427840
66.86867648,69.66022143,174.69514429,-56.05054012,121.52570879,-169.89331001
84.29877342,-30.85717625,-63.10290258,-11.03351956,6.61581924,18.34982041
-0.76858597,0.73582079,-2.13899438

>  <Name>
1mwl

>  <RI>
0

>  <Rbt.Current_Directory>
/home/itssahil/PROJECTS/Mol_Feturizer/New_Systems/rnas/1mwl

>  <Rbt.Executable>
rbdock ($Id: //depot/dev/client3/rdock/2013.1/src/exe/rbdock.cxx#4 $)

>  <Rbt.Library>
libRbt.so (2013.1, Build901 2013/11/27)

>  <Rbt.Parameter_File>
/export/apps/rDock/src/rDock_2013.1_src/data/scripts/dock_solv.prm

>  <Rbt.Receptor>
prm/pocket_docking_5.prm

>  <SCORE>
-52.1059

>  <SCORE.INTER>
-41.0561

>  <SCORE.INTER.CONST>
1

>  <SCORE.INTER.POLAR>
-5.552

>  <SCORE.INTER.ROT>
6

>  <SCORE.INTER.SOLV>
16.7566

>  <SCORE.INTER.VDW>
-22.0496

>  <SCORE.INTER.norm>
-1.20753

>  <SCORE.INTRA>
-11.0498

>  <SCORE.INTRA.DIHEDRAL>
-19.7235

>  <SCORE.INTRA.DIHEDRAL.0>
42.0816

>  <SCORE.INTRA.POLAR>
0.21886

>  <SCORE.INTRA.POLAR.0>
-0.254682

>  <SCORE.INTRA.REPUL>
0

>  <SCORE.INTRA.REPUL.0>
0

>  <SCORE.INTRA.SOLV>
-1.98464

>  <SCORE.INTRA.SOLV.lig_0>
-109.803

>  <SCORE.INTRA.VDW>
-0.939855

>  <SCORE.INTRA.VDW.0>
0.32176

>  <SCORE.INTRA.norm>
-0.324994

>  <SCORE.RESTR>
0

>  <SCORE.RESTR.CAVITY>
0

>  <SCORE.RESTR.norm>
0

>  <SCORE.SYSTEM>
0

>  <SCORE.SYSTEM.CONST>
0

>  <SCORE.SYSTEM.DIHEDRAL>
0

>  <SCORE.SYSTEM.SOLV>
0

>  <SCORE.SYSTEM.norm>
0

>  <SCORE.heavy>
34

>  <SCORE.norm>
-1.53253

>  <RMSD>
1.786

$$$$
1mwl
 OpenBabel11021811403D
libRbt.so/2013.1/901 2013/11/27
 34 36  0  0  0  0  0  0  0  0999 V2000
   -8.6539    6.0416   20.4673 C   0  0  2  0  0  0  0  0  0  0  0  0
   -9.7044    6.8568   20.8922 O   0  0  0  0  0  0  0  0  0  0  0  0
   -8.8754    4.6345   21.0899 C   0  0  2  0  0  0  0  0  0  0  0  0
  -10.1704    4.0928   20.6666 N   0  3  0  0  0  0  0  0  0  0  0  0
   -8.7636    4.6972   22.6413 C   0  0  1  0  0  0  0  0  0  0  0  0
   -8.9305    3.4680   23.1904 O   0  0  0  0  0  0  0  0  0  0  0  0
   -7.3652    5.2892   23.0173 C   0  0  2  0  0  0  0  0  0  0  0  0
   -7.2228    5.3527   24.4519 O   0  0  0  0  0  0  0  0  0  0  0  0
   -7.2416    6.7108   22.3708 C   0  0  2  0  0  0  0  0  0  0  0  0
   -7.3978    6.6224   20.9021 O   0  0  0  0  0  0  0  0  0  0  0  0
   -5.9067    7.4180   22.6309 C   0  0  2  0  0  0  0  0  0  0  0  0
   -5.3272    6.9133   23.7897 O   0  0  0  0  0  0  0  0  0  0  0  0
   -6.0446    8.9365   22.8439 C   0  0  0  0  0  0  0  0  0  0  0  0
  -12.7410    9.0075   18.7915 C   0  0  2  0  0  0  0  0  0  0  0  0
  -13.4059   10.0212   17.9338 N   0  3  0  0  0  0  0  0  0  0  0  0
  -12.0846    9.6815   20.0328 C   0  0  0  0  0  0  0  0  0  0  0  0
  -11.3683    8.6030   20.9239 C   0  0  2  0  0  0  0  0  0  0  0  0
  -10.7513    9.2835   22.1209 N   0  3  0  0  0  0  0  0  0  0  0  0
  -10.2930    7.8526   20.0654 C   0  0  2  0  0  0  0  0  0  0  0  0
  -10.9767    7.1871   18.8461 C   0  0  2  0  0  0  0  0  0  0  0  0
   -9.9974    6.5458   18.0652 O   0  0  0  0  0  0  0  0  0  0  0  0
  -11.6653    8.2667   17.9688 C   0  0  1  0  0  0  0  0  0  0  0  0
  -12.2827    7.6351   16.8568 O   0  0  0  0  0  0  0  0  0  0  0  0
  -11.5911    6.6111   16.1968 C   0  0  2  0  0  0  0  0  0  0  0  0
  -11.9251    6.7203   14.6970 C   0  0  2  0  0  0  0  0  0  0  0  0
  -11.4852    7.9731   14.2178 O   0  0  0  0  0  0  0  0  0  0  0  0
  -13.4717    6.5615   14.5029 C   0  0  1  0  0  0  0  0  0  0  0  0
  -13.8811    6.6844   13.0826 N   0  3  0  0  0  0  0  0  0  0  0  0
  -13.9996    8.1119   12.6899 C   0  0  0  0  0  0  0  0  0  0  0  0
  -13.9219    5.1717   15.0711 C   0  0  2  0  0  0  0  0  0  0  0  0
  -13.2452    4.1127   14.3682 O   0  0  0  0  0  0  0  0  0  0  0  0
  -15.3493    4.9561   14.9182 C   0  0  0  0  0  0  0  0  0  0  0  0
  -13.4971    5.0416   16.5663 C   0  0  0  0  0  0  0  0  0  0  0  0
  -12.0292    5.3064   16.7216 O   0  0  0  0  0  0  0  0  0  0  0  0
  1  2  1  1  0  0  0
  1  3  1  0  0  0  0
  1 10  1  0  0  0  0
  3  4  1  1  0  0  0
  3  5  1  0  0  0  0
  5  6  1  1  0  0  0
  5  7  1  0  0  0  0
  7  8  1  1  0  0  0
  7  9  1  0  0  0  0
  9 10  1  6  0  0  0
  9 11  1  0  0  0  0
 11 12  1  1  0  0  0
 11 13  1  0  0  0  0
 14 15  1  6  0  0  0
 14 16  1  0  0  0  0
 14 22  1  0  0  0  0
 16 17  1  0  0  0  0
 17 18  1  1  0  0  0
 17 19  1  0  0  0  0
 19  2  1  1  0  0  0
 19 20  1  0  0  0  0
 20 21  1  6  0  0  0
 20 22  1  0  0  0  0
 22 23  1  6  0  0  0
 24 23  1  1  0  0  0
 24 25  1  0  0  0  0
 24 34  1  0  0  0  0
 25 26  1  1  0  0  0
 25 27  1  0  0  0  0
 27 28  1  6  0  0  0
 27 30  1  0  0  0  0
 28 29  1  0  0  0  0
 30 31  1  6  0  0  0
 30 32  1  0  0  0  0
 30 33  1  0  0  0  0
 33 34  1  0  0  0  0
M  CHG  4   4   1  15   1  18   1  28   1
M  END
>  <CHROM.1>
-143.65396587,-176.64203100,-172.72368719,55.69314856,64.96038265,-24.10568610
69.67666040,-169.60142484,-74.40765659,-56.64948752,-162.05673534,-144.47711919
163.22479998,38.09819376,-55.24227251,-10.62128052,6.70189480,18.93245475
-0.12765053,0.93174936,-2.94992348

>  <Name>
1mwl

>  <RI>
0

>  <Rbt.Current_Directory>
/home/itssahil/PROJECTS/Mol_Feturizer/New_Systems/rnas/1mwl

>  <Rbt.Executable>
rbdock ($Id: //depot/dev/client3/rdock/2013.1/src/exe/rbdock.cxx#4 $)

>  <Rbt.Library>
libRbt.so (2013.1, Build901 2013/11/27)

>  <Rbt.Parameter_File>
/export/apps/rDock/src/rDock_2013.1_src/data/scripts/dock_solv.prm

>  <Rbt.Receptor>
prm/pocket_docking_2.prm

>  <SCORE>
-47.9125

>  <SCORE.INTER>
-39.7324

>  <SCORE.INTER.CONST>
1

>  <SCORE.INTER.POLAR>
-5.02439

>  <SCORE.INTER.ROT>
6

>  <SCORE.INTER.SOLV>
21.5369

>  <SCORE.INTER.VDW>
-24.5192

>  <SCORE.INTER.norm>
-1.1686

>  <SCORE.INTRA>
-10.0659

>  <SCORE.INTRA.DIHEDRAL>
-23.4189

>  <SCORE.INTRA.DIHEDRAL.0>
42.0816

>  <SCORE.INTRA.POLAR>
0.244512

>  <SCORE.INTRA.POLAR.0>
-0.254682

>  <SCORE.INTRA.REPUL>
0

>  <SCORE.INTRA.REPUL.0>
0

>  <SCORE.INTRA.SOLV>
-2.08893

>  <SCORE.INTRA.SOLV.lig_0>
-109.803

>  <SCORE.INTRA.VDW>
1.85667

>  <SCORE.INTRA.VDW.0>
0.32176

>  <SCORE.INTRA.norm>
-0.296055

>  <SCORE.RESTR>
1.88572

>  <SCORE.RESTR.CAVITY>
1.88572

>  <SCORE.RESTR.norm>
0.0554623

>  <SCORE.SYSTEM>
0

>  <SCORE.SYSTEM.CONST>
0

>  <SCORE.SYSTEM.DIHEDRAL>
0

>  <SCORE.SYSTEM.SOLV>
0

>  <SCORE.SYSTEM.norm>
0

>  <SCORE.heavy>
34

>  <SCORE.norm>
-1.40919

>  <RMSD>
1.837

$$$$
1mwl
 OpenBabel11021811403D
libRbt.so/2013.1/901 2013/11/27
 34 36  0  0  0  0  0  0  0  0999 V2000
   -8.6436    6.2093   20.2890 C   0  0  2  0  0  0  0  0  0  0  0  0
   -9.7623    6.8962   20.7637 O   0  0  0  0  0  0  0  0  0  0  0  0
   -8.7787    4.7289   20.7444 C   0  0  2  0  0  0  0  0  0  0  0  0
  -10.0183    4.1495   20.2181 N   0  3  0  0  0  0  0  0  0  0  0  0
   -8.7146    4.6243   22.2963 C   0  0  1  0  0  0  0  0  0  0  0  0
   -8.8061    3.3325   22.7001 O   0  0  0  0  0  0  0  0  0  0  0  0
   -7.3742    5.2662   22.7848 C   0  0  2  0  0  0  0  0  0  0  0  0
   -7.2765    5.1776   24.2218 O   0  0  0  0  0  0  0  0  0  0  0  0
   -7.3372    6.7566   22.3039 C   0  0  2  0  0  0  0  0  0  0  0  0
   -7.4460    6.8235   20.8298 O   0  0  0  0  0  0  0  0  0  0  0  0
   -6.0653    7.5214   22.6877 C   0  0  2  0  0  0  0  0  0  0  0  0
   -5.0634    7.2594   21.7599 O   0  0  0  0  0  0  0  0  0  0  0  0
   -5.4962    7.1216   24.0612 C   0  0  0  0  0  0  0  0  0  0  0  0
  -12.7376    9.4192   19.0197 C   0  0  2  0  0  0  0  0  0  0  0  0
  -13.3734   10.5655   18.3217 N   0  3  0  0  0  0  0  0  0  0  0  0
  -12.0541    9.8879   20.3384 C   0  0  0  0  0  0  0  0  0  0  0  0
  -11.3688    8.6712   21.0596 C   0  0  2  0  0  0  0  0  0  0  0  0
  -10.7246    9.1539   22.3359 N   0  3  0  0  0  0  0  0  0  0  0  0
  -10.3223    8.0180   20.0930 C   0  0  2  0  0  0  0  0  0  0  0  0
  -11.0328    7.5554   18.7975 C   0  0  2  0  0  0  0  0  0  0  0  0
  -10.0784    7.0020   17.9241 O   0  0  0  0  0  0  0  0  0  0  0  0
  -11.6903    8.7704   18.0897 C   0  0  1  0  0  0  0  0  0  0  0  0
  -12.3329    8.3239   16.9047 O   0  0  0  0  0  0  0  0  0  0  0  0
  -12.8173    7.0103   16.8574 C   0  0  2  0  0  0  0  0  0  0  0  0
  -13.1554    6.6952   15.3880 C   0  0  2  0  0  0  0  0  0  0  0  0
  -11.9789    6.7935   14.6141 O   0  0  0  0  0  0  0  0  0  0  0  0
  -14.2404    7.7064   14.8830 C   0  0  1  0  0  0  0  0  0  0  0  0
  -14.6014    7.4884   13.4609 N   0  3  0  0  0  0  0  0  0  0  0  0
  -14.8041    6.0433   13.1842 C   0  0  0  0  0  0  0  0  0  0  0  0
  -15.5173    7.5839   15.7839 C   0  0  2  0  0  0  0  0  0  0  0  0
  -16.0444    6.2461   15.7072 O   0  0  0  0  0  0  0  0  0  0  0  0
  -16.5689    8.4933   15.3664 C   0  0  0  0  0  0  0  0  0  0  0  0
  -15.1415    7.8178   17.2796 C   0  0  0  0  0  0  0  0  0  0  0  0
  -14.0265    6.9035   17.6916 O   0  0  0  0  0  0  0  0  0  0  0  0
  1  2  1  1  0  0  0
  1  3  1  0  0  0  0
  1 10  1  0  0  0  0
  3  4  1  1  0  0  0
  3  5  1  0  0  0  0
  5  6  1  6  0  0  0
  5  7  1  0  0  0  0
  7  8  1  1  0  0  0
  7  9  1  0  0  0  0
  9 10  1  6  0  0  0
  9 11  1  0  0  0  0
 11 12  1  6  0  0  0
 11 13  1  0  0  0  0
 14 15  1  6  0  0  0
 14 16  1  0  0  0  0
 14 22  1  0  0  0  0
 16 17  1  0  0  0  0
 17 18  1  1  0  0  0
 17 19  1  0  0  0  0
 19  2  1  1  0  0  0
 19 20  1  0  0  0  0
 20 21  1  6  0  0  0
 20 22  1  0  0  0  0
 22 23  1  6  0  0  0
 24 23  1  6  0  0  0
 24 25  1  0  0  0  0
 24 34  1  0  0  0  0
 25 26  1  6  0  0  0
 25 27  1  0  0  0  0
 27 28  1  6  0  0  0
 27 30  1  0  0  0  0
 28 29  1  0  0  0  0
 30 31  1  6  0  0  0
 30 32  1  0  0  0  0
 30 33  1  0  0  0  0
 33 34  1  0  0  0  0
M  CHG  4   4   1  15   1  18   1  28   1
M  END
>  <CHROM.1>
-149.83214063,-169.22342963,175.10432657,-147.11785984,-65.98934772,83.42551526
-50.78210640,49.98752366,43.66545896,177.02256047,-91.56960049,-167.05323937
55.07392500,165.15371567,66.30599339,-11.02979357,7.09452936,19.08281031
-0.23262188,0.75866810,-2.61787400

>  <Name>
1mwl

>  <RI>
0

>  <Rbt.Current_Directory>
/home/itssahil/PROJECTS/Mol_Feturizer/New_Systems/rnas/1mwl

>  <Rbt.Executable>
rbdock ($Id: //depot/dev/client3/rdock/2013.1/src/exe/rbdock.cxx#4 $)

>  <Rbt.Library>
libRbt.so (2013.1, Build901 2013/11/27)

>  <Rbt.Parameter_File>
/export/apps/rDock/src/rDock_2013.1_src/data/scripts/dock_solv.prm

>  <Rbt.Receptor>
prm/pocket_docking_3.prm

>  <SCORE>
-53.5945

>  <SCORE.INTER>
-46.4019

>  <SCORE.INTER.CONST>
1

>  <SCORE.INTER.POLAR>
-6.99933

>  <SCORE.INTER.ROT>
6

>  <SCORE.INTER.SOLV>
26.4941

>  <SCORE.INTER.VDW>
-24.0349

>  <SCORE.INTER.norm>
-1.36476

>  <SCORE.INTRA>
-7.1926

>  <SCORE.INTRA.DIHEDRAL>
-24.7189

>  <SCORE.INTRA.DIHEDRAL.0>
42.0816

>  <SCORE.INTRA.POLAR>
0.231346

>  <SCORE.INTRA.POLAR.0>
-0.254682

>  <SCORE.INTRA.REPUL>
0

>  <SCORE.INTRA.REPUL.0>
0

>  <SCORE.INTRA.SOLV>
-3.06327

>  <SCORE.INTRA.SOLV.lig_0>
-109.803

>  <SCORE.INTRA.VDW>
5.91189

>  <SCORE.INTRA.VDW.0>
0.32176

>  <SCORE.INTRA.norm>
-0.211547

>  <SCORE.RESTR>
0

>  <SCORE.RESTR.CAVITY>
0

>  <SCORE.RESTR.norm>
0

>  <SCORE.SYSTEM>
0

>  <SCORE.SYSTEM.CONST>
0

>  <SCORE.SYSTEM.DIHEDRAL>
0

>  <SCORE.SYSTEM.SOLV>
0

>  <SCORE.SYSTEM.norm>
0

>  <SCORE.heavy>
34

>  <SCORE.norm>
-1.57631

>  <RMSD>
1.862

$$$$
1mwl
 OpenBabel11021811403D
libRbt.so/2013.1/901 2013/11/27
 34 36  0  0  0  0  0  0  0  0999 V2000
   -9.4291    6.1666   19.7013 C   0  0  2  0  0  0  0  0  0  0  0  0
  -10.5315    6.7712   20.3078 O   0  0  0  0  0  0  0  0  0  0  0  0
   -9.6095    4.6283   19.8356 C   0  0  2  0  0  0  0  0  0  0  0  0
  -10.8610    4.2088   19.1974 N   0  3  0  0  0  0  0  0  0  0  0  0
   -9.5605    4.1986   21.3311 C   0  0  1  0  0  0  0  0  0  0  0  0
   -9.6917    2.8541   21.4546 O   0  0  0  0  0  0  0  0  0  0  0  0
   -8.2062    4.6842   21.9455 C   0  0  2  0  0  0  0  0  0  0  0  0
   -8.1222    4.2934   23.3321 O   0  0  0  0  0  0  0  0  0  0  0  0
   -8.1233    6.2406   21.7882 C   0  0  2  0  0  0  0  0  0  0  0  0
   -8.2187    6.6184   20.3608 O   0  0  0  0  0  0  0  0  0  0  0  0
   -6.8333    6.8702   22.3260 C   0  0  2  0  0  0  0  0  0  0  0  0
   -6.5907    6.4117   23.6161 O   0  0  0  0  0  0  0  0  0  0  0  0
   -6.8883    8.4061   22.4176 C   0  0  0  0  0  0  0  0  0  0  0  0
  -14.0355    8.3787   18.4645 C   0  0  2  0  0  0  0  0  0  0  0  0
  -14.9489    9.3158   17.7624 N   0  3  0  0  0  0  0  0  0  0  0  0
  -13.5841    8.9711   19.8325 C   0  0  0  0  0  0  0  0  0  0  0  0
  -12.6037    7.9803   20.5588 C   0  0  2  0  0  0  0  0  0  0  0  0
  -12.1920    8.5762   21.8825 N   0  3  0  0  0  0  0  0  0  0  0  0
  -11.3666    7.7060   19.6366 C   0  0  2  0  0  0  0  0  0  0  0  0
  -11.8467    7.1106   18.2904 C   0  0  2  0  0  0  0  0  0  0  0  0
  -10.7313    6.9005   17.4586 O   0  0  0  0  0  0  0  0  0  0  0  0
  -12.8006    8.1073   17.5791 C   0  0  1  0  0  0  0  0  0  0  0  0
  -13.2258    7.5426   16.3475 O   0  0  0  0  0  0  0  0  0  0  0  0
  -12.8166    8.1500   15.1533 C   0  0  2  0  0  0  0  0  0  0  0  0
  -13.6476    7.5325   14.0126 C   0  0  2  0  0  0  0  0  0  0  0  0
  -15.0138    7.8064   14.2385 O   0  0  0  0  0  0  0  0  0  0  0  0
  -13.3892    5.9878   13.9677 C   0  0  1  0  0  0  0  0  0  0  0  0
  -14.1788    5.3107   12.9103 N   0  3  0  0  0  0  0  0  0  0  0  0
  -14.5336    3.9282   13.3212 C   0  0  0  0  0  0  0  0  0  0  0  0
  -11.8599    5.7279   13.7426 C   0  0  2  0  0  0  0  0  0  0  0  0
  -11.4417    6.3144   12.4958 O   0  0  0  0  0  0  0  0  0  0  0  0
  -11.5499    4.3109   13.6855 C   0  0  0  0  0  0  0  0  0  0  0  0
  -11.0272    6.4346   14.8563 C   0  0  0  0  0  0  0  0  0  0  0  0
  -11.3832    7.8891   14.9369 O   0  0  0  0  0  0  0  0  0  0  0  0
  1  2  1  1  0  0  0
  1  3  1  0  0  0  0
  1 10  1  0  0  0  0
  3  4  1  1  0  0  0
  3  5  1  0  0  0  0
  5  6  1  6  0  0  0
  5  7  1  0  0  0  0
  7  8  1  1  0  0  0
  7  9  1  0  0  0  0
  9 10  1  6  0  0  0
  9 11  1  0  0  0  0
 11 12  1  1  0  0  0
 11 13  1  0  0  0  0
 14 15  1  6  0  0  0
 14 16  1  0  0  0  0
 14 22  1  0  0  0  0
 16 17  1  0  0  0  0
 17 18  1  1  0  0  0
 17 19  1  0  0  0  0
 19  2  1  1  0  0  0
 19 20  1  0  0  0  0
 20 21  1  6  0  0  0
 20 22  1  0  0  0  0
 22 23  1  6  0  0  0
 24 23  1  1  0  0  0
 24 25  1  0  0  0  0
 24 34  1  0  0  0  0
 25 26  1  1  0  0  0
 25 27  1  0  0  0  0
 27 28  1  6  0  0  0
 27 30  1  0  0  0  0
 28 29  1  0  0  0  0
 30 31  1  6  0  0  0
 30 32  1  0  0  0  0
 30 33  1  0  0  0  0
 33 34  1  0  0  0  0
M  CHG  4   4   1  15   1  18   1  28   1
M  END
>  <CHROM.1>
-125.09038275,171.29928961,72.22936349,47.15145177,-63.77582001,-49.80842870
173.32771518,55.36750644,-67.73918646,86.90531068,126.16665744,-168.16294296
83.55817099,-28.25967787,59.71131018,-11.20311580,6.53009830,18.20546948
-0.75551908,0.75916381,-2.12158007

>  <Name>
1mwl

>  <RI>
0

>  <Rbt.Current_Directory>
/home/itssahil/PROJECTS/Mol_Feturizer/New_Systems/rnas/1mwl

>  <Rbt.Executable>
rbdock ($Id: //depot/dev/client3/rdock/2013.1/src/exe/rbdock.cxx#4 $)

>  <Rbt.Library>
libRbt.so (2013.1, Build901 2013/11/27)

>  <Rbt.Parameter_File>
/export/apps/rDock/src/rDock_2013.1_src/data/scripts/dock_solv.prm

>  <Rbt.Receptor>
prm/pocket_docking_7.prm

>  <SCORE>
-42.8387

>  <SCORE.INTER>
-35.9075

>  <SCORE.INTER.CONST>
1

>  <SCORE.INTER.POLAR>
-5.1327

>  <SCORE.INTER.ROT>
6

>  <SCORE.INTER.SOLV>
14.7394

>  <SCORE.INTER.VDW>
-19.3424

>  <SCORE.INTER.norm>
-1.0561

>  <SCORE.INTRA>
-6.93126

>  <SCORE.INTRA.DIHEDRAL>
-17.4728

>  <SCORE.INTRA.DIHEDRAL.0>
42.0816

>  <SCORE.INTRA.POLAR>
0.243617

>  <SCORE.INTRA.POLAR.0>
-0.254682

>  <SCORE.INTRA.REPUL>
0

>  <SCORE.INTRA.REPUL.0>
0

>  <SCORE.INTRA.SOLV>
-0.1978

>  <SCORE.INTRA.SOLV.lig_0>
-109.803

>  <SCORE.INTRA.VDW>
1.07576

>  <SCORE.INTRA.VDW.0>
0.32176

>  <SCORE.INTRA.norm>
-0.203861

>  <SCORE.RESTR>
0

>  <SCORE.RESTR.CAVITY>
0

>  <SCORE.RESTR.norm>
0

>  <SCORE.SYSTEM>
0

>  <SCORE.SYSTEM.CONST>
0

>  <SCORE.SYSTEM.DIHEDRAL>
0

>  <SCORE.SYSTEM.SOLV>
0

>  <SCORE.SYSTEM.norm>
0

>  <SCORE.heavy>
34

>  <SCORE.norm>
-1.25996

>  <RMSD>
1.913

$$$$
1mwl
 OpenBabel11021811403D
libRbt.so/2013.1/901 2013/11/27
 34 36  0  0  0  0  0  0  0  0999 V2000
   -8.5907    5.8769   20.3211 C   0  0  2  0  0  0  0  0  0  0  0  0
   -9.5933    6.7677   20.7084 O   0  0  0  0  0  0  0  0  0  0  0  0
   -8.8030    4.5608   21.1210 C   0  0  2  0  0  0  0  0  0  0  0  0
  -10.1343    4.0116   20.8461 N   0  3  0  0  0  0  0  0  0  0  0  0
   -8.5903    4.8040   22.6439 C   0  0  1  0  0  0  0  0  0  0  0  0
   -8.7488    3.6542   23.3461 O   0  0  0  0  0  0  0  0  0  0  0  0
   -7.1577    5.3946   22.8595 C   0  0  2  0  0  0  0  0  0  0  0  0
   -6.9220    5.6237   24.2645 O   0  0  0  0  0  0  0  0  0  0  0  0
   -7.0444    6.7249   22.0402 C   0  0  2  0  0  0  0  0  0  0  0  0
   -7.2967    6.4675   20.6052 O   0  0  0  0  0  0  0  0  0  0  0  0
   -5.6801    7.4180   22.1310 C   0  0  2  0  0  0  0  0  0  0  0  0
   -4.6987    6.5923   21.5939 O   0  0  0  0  0  0  0  0  0  0  0  0
   -5.2406    7.7278   23.5736 C   0  0  0  0  0  0  0  0  0  0  0  0
  -12.5306    8.9304   18.4825 C   0  0  2  0  0  0  0  0  0  0  0  0
  -13.1505    9.9285   17.5742 N   0  3  0  0  0  0  0  0  0  0  0  0
  -11.8623    9.6346   19.7005 C   0  0  0  0  0  0  0  0  0  0  0  0
  -11.1937    8.5716   20.6455 C   0  0  2  0  0  0  0  0  0  0  0  0
  -10.5640    9.2817   21.8185 N   0  3  0  0  0  0  0  0  0  0  0  0
  -10.1379    7.7465   19.8325 C   0  0  2  0  0  0  0  0  0  0  0  0
  -10.8335    7.0528   18.6358 C   0  0  2  0  0  0  0  0  0  0  0  0
   -9.8705    6.3434   17.8945 O   0  0  0  0  0  0  0  0  0  0  0  0
  -11.4745    8.1165   17.7048 C   0  0  1  0  0  0  0  0  0  0  0  0
  -12.1036    7.4590   16.6146 O   0  0  0  0  0  0  0  0  0  0  0  0
  -11.3619    6.5320   15.8709 C   0  0  2  0  0  0  0  0  0  0  0  0
  -11.9633    6.4900   14.4533 C   0  0  2  0  0  0  0  0  0  0  0  0
  -11.8471    7.7685   13.8664 O   0  0  0  0  0  0  0  0  0  0  0  0
  -13.4655    6.0541   14.5461 C   0  0  1  0  0  0  0  0  0  0  0  0
  -14.1287    6.0174   13.2198 N   0  3  0  0  0  0  0  0  0  0  0  0
  -14.9378    7.2436   13.0011 C   0  0  0  0  0  0  0  0  0  0  0  0
  -13.5515    4.6446   15.2264 C   0  0  2  0  0  0  0  0  0  0  0  0
  -12.8252    3.6780   14.4443 O   0  0  0  0  0  0  0  0  0  0  0  0
  -14.9207    4.1761   15.3398 C   0  0  0  0  0  0  0  0  0  0  0  0
  -12.8591    4.6815   16.6237 C   0  0  0  0  0  0  0  0  0  0  0  0
  -11.4592    5.2056   16.5040 O   0  0  0  0  0  0  0  0  0  0  0  0
  1  2  1  1  0  0  0
  1  3  1  0  0  0  0
  1 10  1  0  0  0  0
  3  4  1  1  0  0  0
  3  5  1  0  0  0  0
  5  6  1  1  0  0  0
  5  7  1  0  0  0  0
  7  8  1  1  0  0  0
  7  9  1  0  0  0  0
  9 10  1  6  0  0  0
  9 11  1  0  0  0  0
 11 12  1  1  0  0  0
 11 13  1  0  0  0  0
 14 15  1  6  0  0  0
 14 16  1  0  0  0  0
 14 22  1  0  0  0  0
 16 17  1  0  0  0  0
 17 18  1  1  0  0  0
 17 19  1  0  0  0  0
 19  2  1  1  0  0  0
 19 20  1  0  0  0  0
 20 21  1  6  0  0  0
 20 22  1  0  0  0  0
 22 23  1  6  0  0  0
 24 23  1  1  0  0  0
 24 25  1  0  0  0  0
 24 34  1  0  0  0  0
 25 26  1  1  0  0  0
 25 27  1  0  0  0  0
 27 28  1  6  0  0  0
 27 30  1  0  0  0  0
 28 29  1  0  0  0  0
 30 31  1  6  0  0  0
 30 32  1  0  0  0  0
 30 33  1  0  0  0  0
 33 34  1  0  0  0  0
M  CHG  4   4   1  15   1  18   1  28   1
M  END
>  <CHROM.1>
-148.74337256,-178.20236378,-171.54919000,46.93936088,-48.56973474,62.74771425
91.53440872,-162.45262344,164.28366864,139.32557332,-172.21794866,-153.35266589
78.50516857,20.12913740,64.99695602,-10.44375847,6.49211236,18.76515471,-0.18283737
0.88711113,-2.90795429

>  <Name>
1mwl

>  <RI>
0

>  <Rbt.Current_Directory>
/home/itssahil/PROJECTS/Mol_Feturizer/New_Systems/rnas/1mwl

>  <Rbt.Executable>
rbdock ($Id: //depot/dev/client3/rdock/2013.1/src/exe/rbdock.cxx#4 $)

>  <Rbt.Library>
libRbt.so (2013.1, Build901 2013/11/27)

>  <Rbt.Parameter_File>
/export/apps/rDock/src/rDock_2013.1_src/data/scripts/dock_solv.prm

>  <Rbt.Receptor>
prm/pocket_docking_3.prm

>  <SCORE>
-52.0776

>  <SCORE.INTER>
-43.1229

>  <SCORE.INTER.CONST>
1

>  <SCORE.INTER.POLAR>
-6.19581

>  <SCORE.INTER.ROT>
6

>  <SCORE.INTER.SOLV>
24.6733

>  <SCORE.INTER.VDW>
-23.9204

>  <SCORE.INTER.norm>
-1.26832

>  <SCORE.INTRA>
-9.3322

>  <SCORE.INTRA.DIHEDRAL>
-18.1692

>  <SCORE.INTRA.DIHEDRAL.0>
42.0816

>  <SCORE.INTRA.POLAR>
-0.272639

>  <SCORE.INTRA.POLAR.0>
-0.254682

>  <SCORE.INTRA.REPUL>
0

>  <SCORE.INTRA.REPUL.0>
0

>  <SCORE.INTRA.SOLV>
-3.45348

>  <SCORE.INTRA.SOLV.lig_0>
-109.803

>  <SCORE.INTRA.VDW>
2.40613

>  <SCORE.INTRA.VDW.0>
0.32176

>  <SCORE.INTRA.norm>
-0.274476

>  <SCORE.RESTR>
0.377484

>  <SCORE.RESTR.CAVITY>
0.377484

>  <SCORE.RESTR.norm>
0.0111025

>  <SCORE.SYSTEM>
0

>  <SCORE.SYSTEM.CONST>
0

>  <SCORE.SYSTEM.DIHEDRAL>
0

>  <SCORE.SYSTEM.SOLV>
0

>  <SCORE.SYSTEM.norm>
0

>  <SCORE.heavy>
34

>  <SCORE.norm>
-1.5317

>  <RMSD>
1.953

$$$$
1mwl
 OpenBabel11021811403D
libRbt.so/2013.1/901 2013/11/27
 34 36  0  0  0  0  0  0  0  0999 V2000
   -9.9354    6.5925   19.5976 C   0  0  2  0  0  0  0  0  0  0  0  0
  -10.9797    7.0605   20.3970 O   0  0  0  0  0  0  0  0  0  0  0  0
   -9.9945    5.0391   19.6170 C   0  0  2  0  0  0  0  0  0  0  0  0
  -11.2926    4.5766   19.1164 N   0  3  0  0  0  0  0  0  0  0  0  0
   -9.7097    4.4971   21.0483 C   0  0  1  0  0  0  0  0  0  0  0  0
   -9.7344    3.1409   21.0679 O   0  0  0  0  0  0  0  0  0  0  0  0
   -8.3177    5.0350   21.5177 C   0  0  2  0  0  0  0  0  0  0  0  0
   -8.0160    4.5429   22.8402 O   0  0  0  0  0  0  0  0  0  0  0  0
   -8.3593    6.6007   21.4901 C   0  0  2  0  0  0  0  0  0  0  0  0
   -8.6771    7.0822   20.1276 O   0  0  0  0  0  0  0  0  0  0  0  0
   -7.0508    7.2829   21.9052 C   0  0  2  0  0  0  0  0  0  0  0  0
   -6.0305    6.9050   21.0396 O   0  0  0  0  0  0  0  0  0  0  0  0
   -6.5788    6.9021   23.3203 C   0  0  0  0  0  0  0  0  0  0  0  0
  -14.3974    9.6204   20.2379 C   0  0  2  0  0  0  0  0  0  0  0  0
  -15.2811   10.7636   19.8949 N   0  3  0  0  0  0  0  0  0  0  0  0
  -13.1464   10.1087   21.0269 C   0  0  0  0  0  0  0  0  0  0  0  0
  -12.2092    8.8944   21.3688 C   0  0  2  0  0  0  0  0  0  0  0  0
  -11.0132    9.3965   22.1396 N   0  3  0  0  0  0  0  0  0  0  0  0
  -11.7842    8.1777   20.0414 C   0  0  2  0  0  0  0  0  0  0  0  0
  -13.0471    7.6971   19.2856 C   0  0  2  0  0  0  0  0  0  0  0  0
  -12.6550    7.0860   18.0803 O   0  0  0  0  0  0  0  0  0  0  0  0
  -13.9536    8.9093   18.9418 C   0  0  1  0  0  0  0  0  0  0  0  0
  -15.1027    8.4462   18.2479 O   0  0  0  0  0  0  0  0  0  0  0  0
  -15.4850    9.1006   17.0697 C   0  0  2  0  0  0  0  0  0  0  0  0
  -16.8158    8.4783   16.6065 C   0  0  2  0  0  0  0  0  0  0  0  0
  -17.7934    8.6887   17.6029 O   0  0  0  0  0  0  0  0  0  0  0  0
  -16.6039    6.9474   16.3486 C   0  0  1  0  0  0  0  0  0  0  0  0
  -17.8512    6.2651   15.9257 N   0  3  0  0  0  0  0  0  0  0  0  0
  -17.9032    4.8814   16.4631 C   0  0  0  0  0  0  0  0  0  0  0  0
  -15.4943    6.7579   15.2578 C   0  0  2  0  0  0  0  0  0  0  0  0
  -15.8998    7.3933   14.0309 O   0  0  0  0  0  0  0  0  0  0  0  0
  -15.2502    5.3571   14.9654 C   0  0  0  0  0  0  0  0  0  0  0  0
  -14.1796    7.4702   15.7022 C   0  0  0  0  0  0  0  0  0  0  0  0
  -14.4478    8.9059   16.0423 O   0  0  0  0  0  0  0  0  0  0  0  0
  1  2  1  1  0  0  0
  1  3  1  0  0  0  0
  1 10  1  0  0  0  0
  3  4  1  1  0  0  0
  3  5  1  0  0  0  0
  5  6  1  6  0  0  0
  5  7  1  0  0  0  0
  7  8  1  1  0  0  0
  7  9  1  0  0  0  0
  9 10  1  6  0  0  0
  9 11  1  0  0  0  0
 11 12  1  6  0  0  0
 11 13  1  0  0  0  0
 14 15  1  6  0  0  0
 14 16  1  0  0  0  0
 14 22  1  0  0  0  0
 16 17  1  0  0  0  0
 17 18  1  6  0  0  0
 17 19  1  0  0  0  0
 19  2  1  1  0  0  0
 19 20  1  0  0  0  0
 20 21  1  6  0  0  0
 20 22  1  0  0  0  0
 22 23  1  1  0  0  0
 24 23  1  1  0  0  0
 24 25  1  0  0  0  0
 24 34  1  0  0  0  0
 25 26  1  1  0  0  0
 25 27  1  0  0  0  0
 27 28  1  6  0  0  0
 27 30  1  0  0  0  0
 28 29  1  0  0  0  0
 30 31  1  6  0  0  0
 30 32  1  0  0  0  0
 30 33  1  0  0  0  0
 33 34  1  0  0  0  0
M  CHG  4   4   1  15   1  18   1  28   1
M  END
>  <CHROM.1>
-138.94421439,-147.83704018,148.78672897,61.50056528,62.42630128,60.54147321
-62.47793435,-178.53542994,165.33767309,-56.96121453,107.93390541,-175.02116662
66.21957532,-25.29838421,61.82143816,-12.49748485,7.17952010,19.06714341
-0.15057392,0.57585043,-2.59602592

>  <Name>
1mwl

>  <RI>
0

>  <Rbt.Current_Directory>
/home/itssahil/PROJECTS/Mol_Feturizer/New_Systems/rnas/1mwl

>  <Rbt.Executable>
rbdock ($Id: //depot/dev/client3/rdock/2013.1/src/exe/rbdock.cxx#4 $)

>  <Rbt.Library>
libRbt.so (2013.1, Build901 2013/11/27)

>  <Rbt.Parameter_File>
/export/apps/rDock/src/rDock_2013.1_src/data/scripts/dock_solv.prm

>  <Rbt.Receptor>
prm/pocket_docking_4.prm

>  <SCORE>
-61.2604

>  <SCORE.INTER>
-45.8537

>  <SCORE.INTER.CONST>
1

>  <SCORE.INTER.POLAR>
-7.28602

>  <SCORE.INTER.ROT>
6

>  <SCORE.INTER.SOLV>
19.0919

>  <SCORE.INTER.VDW>
-20.2464

>  <SCORE.INTER.norm>
-1.34864

>  <SCORE.INTRA>
-15.4145

>  <SCORE.INTRA.DIHEDRAL>
-20.8088

>  <SCORE.INTRA.DIHEDRAL.0>
42.0816

>  <SCORE.INTRA.POLAR>
-0.900736

>  <SCORE.INTRA.POLAR.0>
-0.254682

>  <SCORE.INTRA.REPUL>
0

>  <SCORE.INTRA.REPUL.0>
0

>  <SCORE.INTRA.SOLV>
0.129263

>  <SCORE.INTRA.SOLV.lig_0>
-109.803

>  <SCORE.INTRA.VDW>
-2.01229

>  <SCORE.INTRA.VDW.0>
0.32176

>  <SCORE.INTRA.norm>
-0.453369

>  <SCORE.RESTR>
0.00781989

>  <SCORE.RESTR.CAVITY>
0.00781989

>  <SCORE.RESTR.norm>
0.000229997

>  <SCORE.SYSTEM>
0

>  <SCORE.SYSTEM.CONST>
0

>  <SCORE.SYSTEM.DIHEDRAL>
0

>  <SCORE.SYSTEM.SOLV>
0

>  <SCORE.SYSTEM.norm>
0

>  <SCORE.heavy>
34

>  <SCORE.norm>
-1.80178

>  <RMSD>
1.979

$$$$
1mwl
 OpenBabel11021811403D
libRbt.so/2013.1/901 2013/11/27
 34 36  0  0  0  0  0  0  0  0999 V2000
   -8.5395    5.9585   20.3776 C   0  0  2  0  0  0  0  0  0  0  0  0
   -9.6638    6.6463   20.8378 O   0  0  0  0  0  0  0  0  0  0  0  0
   -8.6648    4.4861   20.8604 C   0  0  2  0  0  0  0  0  0  0  0  0
   -9.8996    3.8881   20.3434 N   0  3  0  0  0  0  0  0  0  0  0  0
   -8.6023    4.4109   22.4141 C   0  0  1  0  0  0  0  0  0  0  0  0
   -8.6853    3.1262   22.8419 O   0  0  0  0  0  0  0  0  0  0  0  0
   -7.2672    5.0713   22.8923 C   0  0  2  0  0  0  0  0  0  0  0  0
   -7.1710    5.0103   24.3308 O   0  0  0  0  0  0  0  0  0  0  0  0
   -7.2400    6.5527   22.3836 C   0  0  2  0  0  0  0  0  0  0  0  0
   -7.3471    6.5913   20.9084 O   0  0  0  0  0  0  0  0  0  0  0  0
   -5.9741    7.3335   22.7548 C   0  0  2  0  0  0  0  0  0  0  0  0
   -5.6595    7.1080   24.0902 O   0  0  0  0  0  0  0  0  0  0  0  0
   -6.1218    8.8579   22.5981 C   0  0  0  0  0  0  0  0  0  0  0  0
  -12.5965    9.3346   19.2786 C   0  0  2  0  0  0  0  0  0  0  0  0
  -13.2093   10.5005   18.5926 N   0  3  0  0  0  0  0  0  0  0  0  0
  -11.7458    9.7980   20.4983 C   0  0  0  0  0  0  0  0  0  0  0  0
  -11.0871    8.5588   21.2059 C   0  0  2  0  0  0  0  0  0  0  0  0
  -10.2787    9.0376   22.3866 N   0  3  0  0  0  0  0  0  0  0  0  0
  -10.2004    7.7826   20.1726 C   0  0  2  0  0  0  0  0  0  0  0  0
  -11.0750    7.3286   18.9784 C   0  0  2  0  0  0  0  0  0  0  0  0
  -10.2622    6.6632   18.0421 O   0  0  0  0  0  0  0  0  0  0  0  0
  -11.7049    8.5642   18.2815 C   0  0  1  0  0  0  0  0  0  0  0  0
  -12.4995    8.1251   17.1896 O   0  0  0  0  0  0  0  0  0  0  0  0
  -13.8056    7.6864   17.4430 C   0  0  2  0  0  0  0  0  0  0  0  0
  -13.9369    6.2661   16.8611 C   0  0  2  0  0  0  0  0  0  0  0  0
  -13.0177    5.4155   17.5123 O   0  0  0  0  0  0  0  0  0  0  0  0
  -13.6558    6.3149   15.3205 C   0  0  1  0  0  0  0  0  0  0  0  0
  -13.7337    4.9762   14.6867 N   0  3  0  0  0  0  0  0  0  0  0  0
  -12.6606    4.8095   13.6734 C   0  0  0  0  0  0  0  0  0  0  0  0
  -14.6789    7.2889   14.6410 C   0  0  2  0  0  0  0  0  0  0  0  0
  -16.0224    6.8206   14.8627 O   0  0  0  0  0  0  0  0  0  0  0  0
  -14.4775    7.3776   13.2061 C   0  0  0  0  0  0  0  0  0  0  0  0
  -14.5956    8.6992   15.3023 C   0  0  0  0  0  0  0  0  0  0  0  0
  -14.7632    8.5945   16.7888 O   0  0  0  0  0  0  0  0  0  0  0  0
  1  2  1  1  0  0  0
  1  3  1  0  0  0  0
  1 10  1  0  0  0  0
  3  4  1  1  0  0  0
  3  5  1  0  0  0  0
  5  6  1  6  0  0  0
  5  7  1  0  0  0  0
  7  8  1  1  0  0  0
  7  9  1  0  0  0  0
  9 10  1  6  0  0  0
  9 11  1  0  0  0  0
 11 12  1  1  0  0  0
 11 13  1  0  0  0  0
 14 15  1  6  0  0  0
 14 16  1  0  0  0  0
 14 22  1  0  0  0  0
 16 17  1  0  0  0  0
 17 18  1  1  0  0  0
 17 19  1  0  0  0  0
 19  2  1  1  0  0  0
 19 20  1  0  0  0  0
 20 21  1  6  0  0  0
 20 22  1  0  0  0  0
 22 23  1  6  0  0  0
 24 23  1  6  0  0  0
 24 25  1  0  0  0  0
 24 34  1  0  0  0  0
 25 26  1  1  0  0  0
 25 27  1  0  0  0  0
 27 28  1  6  0  0  0
 27 30  1  0  0  0  0
 28 29  1  0  0  0  0
 30 31  1  1  0  0  0
 30 32  1  0  0  0  0
 30 33  1  0  0  0  0
 33 34  1  0  0  0  0
M  CHG  4   4   1  15   1  18   1  28   1
M  END
>  <CHROM.1>
-152.29090954,-160.25036037,179.01871846,-79.46311789,-63.56334066,-45.29880319
58.57297713,177.25389460,-67.40995590,-57.80411220,-37.67139326,-124.94172512
-61.64306624,-19.94541437,171.62275496,-10.90436545,6.88808104,19.21282214
-0.18486934,0.81225615,-2.75539198

>  <Name>
1mwl

>  <RI>
0

>  <Rbt.Current_Directory>
/home/itssahil/PROJECTS/Mol_Feturizer/New_Systems/rnas/1mwl

>  <Rbt.Executable>
rbdock ($Id: //depot/dev/client3/rdock/2013.1/src/exe/rbdock.cxx#4 $)

>  <Rbt.Library>
libRbt.so (2013.1, Build901 2013/11/27)

>  <Rbt.Parameter_File>
/export/apps/rDock/src/rDock_2013.1_src/data/scripts/dock_solv.prm

>  <Rbt.Receptor>
prm/pocket_docking_4.prm

>  <SCORE>
-61.0686

>  <SCORE.INTER>
-42.6189

>  <SCORE.INTER.CONST>
1

>  <SCORE.INTER.POLAR>
-5.42966

>  <SCORE.INTER.ROT>
6

>  <SCORE.INTER.SOLV>
19.7205

>  <SCORE.INTER.VDW>
-24.4872

>  <SCORE.INTER.norm>
-1.2535

>  <SCORE.INTRA>
-18.4497

>  <SCORE.INTRA.DIHEDRAL>
-22.0821

>  <SCORE.INTRA.DIHEDRAL.0>
42.0816

>  <SCORE.INTRA.POLAR>
-1.63517

>  <SCORE.INTRA.POLAR.0>
-0.254682

>  <SCORE.INTRA.REPUL>
0

>  <SCORE.INTRA.REPUL.0>
0

>  <SCORE.INTRA.SOLV>
0.433924

>  <SCORE.INTRA.SOLV.lig_0>
-109.803

>  <SCORE.INTRA.VDW>
-2.06607

>  <SCORE.INTRA.VDW.0>
0.32176

>  <SCORE.INTRA.norm>
-0.54264

>  <SCORE.RESTR>
0

>  <SCORE.RESTR.CAVITY>
0

>  <SCORE.RESTR.norm>
0

>  <SCORE.SYSTEM>
0

>  <SCORE.SYSTEM.CONST>
0

>  <SCORE.SYSTEM.DIHEDRAL>
0

>  <SCORE.SYSTEM.SOLV>
0

>  <SCORE.SYSTEM.norm>
0

>  <SCORE.heavy>
34

>  <SCORE.norm>
-1.79614

>  <RMSD>
1.985

$$$$
1mwl
 OpenBabel11021811403D
libRbt.so/2013.1/901 2013/11/27
 34 36  0  0  0  0  0  0  0  0999 V2000
   -8.8835    6.0872   20.2362 C   0  0  2  0  0  0  0  0  0  0  0  0
   -9.9509    6.8324   20.7402 O   0  0  0  0  0  0  0  0  0  0  0  0
   -9.1639    4.5932   20.5622 C   0  0  2  0  0  0  0  0  0  0  0  0
  -10.4331    4.1741   19.9599 N   0  3  0  0  0  0  0  0  0  0  0  0
   -9.1579    4.3569   22.1009 C   0  0  1  0  0  0  0  0  0  0  0  0
   -9.3765    3.0503   22.3925 O   0  0  0  0  0  0  0  0  0  0  0  0
   -7.7815    4.8319   22.6733 C   0  0  2  0  0  0  0  0  0  0  0  0
   -7.7370    4.6179   24.0997 O   0  0  0  0  0  0  0  0  0  0  0  0
   -7.5972    6.3469   22.3203 C   0  0  2  0  0  0  0  0  0  0  0  0
   -7.6534    6.5435   20.8549 O   0  0  0  0  0  0  0  0  0  0  0  0
   -6.2749    6.9586   22.7971 C   0  0  2  0  0  0  0  0  0  0  0  0
   -6.1023    6.7025   24.1528 O   0  0  0  0  0  0  0  0  0  0  0  0
   -6.2094    8.4883   22.6355 C   0  0  0  0  0  0  0  0  0  0  0  0
  -12.9172    9.4478   19.1215 C   0  0  2  0  0  0  0  0  0  0  0  0
  -13.5446   10.5952   18.4177 N   0  3  0  0  0  0  0  0  0  0  0  0
  -12.0911    9.9386   20.3473 C   0  0  0  0  0  0  0  0  0  0  0  0
  -11.4166    8.7190   21.0739 C   0  0  2  0  0  0  0  0  0  0  0  0
  -10.6326    9.2241   22.2600 N   0  3  0  0  0  0  0  0  0  0  0  0
  -10.5019    7.9519   20.0584 C   0  0  2  0  0  0  0  0  0  0  0  0
  -11.3524    7.4702   18.8577 C   0  0  2  0  0  0  0  0  0  0  0  0
  -10.5149    6.8131   17.9373 O   0  0  0  0  0  0  0  0  0  0  0  0
  -11.9981    8.6869   18.1422 C   0  0  1  0  0  0  0  0  0  0  0  0
  -12.7702    8.2225   17.0446 O   0  0  0  0  0  0  0  0  0  0  0  0
  -13.5336    7.0588   17.2049 C   0  0  2  0  0  0  0  0  0  0  0  0
  -13.9975    6.6141   15.8050 C   0  0  2  0  0  0  0  0  0  0  0  0
  -12.8637    6.3305   15.0133 O   0  0  0  0  0  0  0  0  0  0  0  0
  -14.8545    7.7570   15.1614 C   0  0  1  0  0  0  0  0  0  0  0  0
  -15.3172    7.4180   13.7936 N   0  3  0  0  0  0  0  0  0  0  0  0
  -14.1737    7.3711   12.8469 C   0  0  0  0  0  0  0  0  0  0  0  0
  -16.0858    8.0586   16.0833 C   0  0  2  0  0  0  0  0  0  0  0  0
  -16.8975    6.8770   16.2187 O   0  0  0  0  0  0  0  0  0  0  0  0
  -16.9288    9.1089   15.5415 C   0  0  0  0  0  0  0  0  0  0  0  0
  -15.6019    8.4206   17.5214 C   0  0  0  0  0  0  0  0  0  0  0  0
  -14.6985    7.3506   18.0578 O   0  0  0  0  0  0  0  0  0  0  0  0
  1  2  1  1  0  0  0
  1  3  1  0  0  0  0
  1 10  1  0  0  0  0
  3  4  1  1  0  0  0
  3  5  1  0  0  0  0
  5  6  1  6  0  0  0
  5  7  1  0  0  0  0
  7  8  1  1  0  0  0
  7  9  1  0  0  0  0
  9 10  1  6  0  0  0
  9 11  1  0  0  0  0
 11 12  1  1  0  0  0
 11 13  1  0  0  0  0
 14 15  1  6  0  0  0
 14 16  1  0  0  0  0
 14 22  1  0  0  0  0
 16 17  1  0  0  0  0
 17 18  1  1  0  0  0
 17 19  1  0  0  0  0
 19  2  1  1  0  0  0
 19 20  1  0  0  0  0
 20 21  1  6  0  0  0
 20 22  1  0  0  0  0
 22 23  1  6  0  0  0
 24 23  1  6  0  0  0
 24 25  1  0  0  0  0
 24 34  1  0  0  0  0
 25 26  1  6  0  0  0
 25 27  1  0  0  0  0
 27 28  1  6  0  0  0
 27 30  1  0  0  0  0
 28 29  1  0  0  0  0
 30 31  1  1  0  0  0
 30 32  1  0  0  0  0
 30 33  1  0  0  0  0
 33 34  1  0  0  0  0
M  CHG  4   4   1  15   1  18   1  28   1
M  END
>  <CHROM.1>
-141.24864938,-166.36479557,-65.14674345,-165.18098066,-74.28499223,-52.25378786
-59.16491714,165.66678528,163.86864757,175.28874305,-79.94311442,-167.34541779
-55.41645474,51.61085520,-54.83075218,-11.44180952,7.12812714,19.18651769
-0.10109077,0.77329564,-2.73317549

>  <Name>
1mwl

>  <RI>
0

>  <Rbt.Current_Directory>
/home/itssahil/PROJECTS/Mol_Feturizer/New_Systems/rnas/1mwl

>  <Rbt.Executable>
rbdock ($Id: //depot/dev/client3/rdock/2013.1/src/exe/rbdock.cxx#4 $)

>  <Rbt.Library>
libRbt.so (2013.1, Build901 2013/11/27)

>  <Rbt.Parameter_File>
/export/apps/rDock/src/rDock_2013.1_src/data/scripts/dock_solv.prm

>  <Rbt.Receptor>
prm/pocket_docking_2.prm

>  <SCORE>
-73.1322

>  <SCORE.INTER>
-60.8906

>  <SCORE.INTER.CONST>
1

>  <SCORE.INTER.POLAR>
-9.58149

>  <SCORE.INTER.ROT>
6

>  <SCORE.INTER.SOLV>
22.7449

>  <SCORE.INTER.VDW>
-23.8371

>  <SCORE.INTER.norm>
-1.7909

>  <SCORE.INTRA>
-14.3955

>  <SCORE.INTRA.DIHEDRAL>
-29.4199

>  <SCORE.INTRA.DIHEDRAL.0>
42.0816

>  <SCORE.INTRA.POLAR>
0.210689

>  <SCORE.INTRA.POLAR.0>
-0.254682

>  <SCORE.INTRA.REPUL>
0

>  <SCORE.INTRA.REPUL.0>
0

>  <SCORE.INTRA.SOLV>
0.45904

>  <SCORE.INTRA.SOLV.lig_0>
-109.803

>  <SCORE.INTRA.VDW>
-0.631404

>  <SCORE.INTRA.VDW.0>
0.32176

>  <SCORE.INTRA.norm>
-0.423398

>  <SCORE.RESTR>
2.15389

>  <SCORE.RESTR.CAVITY>
2.15389

>  <SCORE.RESTR.norm>
0.0633497

>  <SCORE.SYSTEM>
0

>  <SCORE.SYSTEM.CONST>
0

>  <SCORE.SYSTEM.DIHEDRAL>
0

>  <SCORE.SYSTEM.SOLV>
0

>  <SCORE.SYSTEM.norm>
0

>  <SCORE.heavy>
34

>  <SCORE.norm>
-2.15095

>  <RMSD>
2.028

$$$$
1mwl
 OpenBabel11021811403D
libRbt.so/2013.1/901 2013/11/27
 34 36  0  0  0  0  0  0  0  0999 V2000
   -8.9005    6.2050   20.5051 C   0  0  2  0  0  0  0  0  0  0  0  0
   -9.8515    7.0188   21.1230 O   0  0  0  0  0  0  0  0  0  0  0  0
   -9.0004    4.7963   21.1551 C   0  0  2  0  0  0  0  0  0  0  0  0
  -10.3522    4.2553   20.9832 N   0  3  0  0  0  0  0  0  0  0  0  0
   -8.5972    4.8556   22.6576 C   0  0  1  0  0  0  0  0  0  0  0  0
   -8.6574    3.6251   23.2255 O   0  0  0  0  0  0  0  0  0  0  0  0
   -7.1528    5.4472   22.7636 C   0  0  2  0  0  0  0  0  0  0  0  0
   -6.7417    5.5075   24.1455 O   0  0  0  0  0  0  0  0  0  0  0  0
   -7.1536    6.8702   22.1087 C   0  0  2  0  0  0  0  0  0  0  0  0
   -7.5848    6.7852   20.6959 O   0  0  0  0  0  0  0  0  0  0  0  0
   -5.7935    7.5773   22.1132 C   0  0  2  0  0  0  0  0  0  0  0  0
   -4.8239    6.7243   22.6285 O   0  0  0  0  0  0  0  0  0  0  0  0
   -5.7604    8.8451   22.9861 C   0  0  0  0  0  0  0  0  0  0  0  0
  -12.5600   10.0933   19.9101 C   0  0  2  0  0  0  0  0  0  0  0  0
  -13.0806   11.3600   19.3357 N   0  3  0  0  0  0  0  0  0  0  0  0
  -11.6031   10.3826   21.1044 C   0  0  0  0  0  0  0  0  0  0  0  0
  -11.0435    9.0371   21.6931 C   0  0  2  0  0  0  0  0  0  0  0  0
  -10.1289    9.3487   22.8520 N   0  3  0  0  0  0  0  0  0  0  0  0
  -10.2986    8.2469   20.5629 C   0  0  2  0  0  0  0  0  0  0  0  0
  -11.2770    7.9676   19.3959 C   0  0  2  0  0  0  0  0  0  0  0  0
  -10.5887    7.2883   18.3737 O   0  0  0  0  0  0  0  0  0  0  0  0
  -11.8078    9.3060   18.8161 C   0  0  1  0  0  0  0  0  0  0  0  0
  -12.6998    9.0262   17.7472 O   0  0  0  0  0  0  0  0  0  0  0  0
  -13.4749    7.8607   17.8068 C   0  0  2  0  0  0  0  0  0  0  0  0
  -13.7240    7.3971   16.3591 C   0  0  2  0  0  0  0  0  0  0  0  0
  -12.4842    7.1097   15.7484 O   0  0  0  0  0  0  0  0  0  0  0  0
  -14.4794    8.5280   15.5810 C   0  0  1  0  0  0  0  0  0  0  0  0
  -14.7324    8.1703   14.1639 N   0  3  0  0  0  0  0  0  0  0  0  0
  -15.1583    6.7523   14.0462 C   0  0  0  0  0  0  0  0  0  0  0  0
  -15.8351    8.8344   16.3057 C   0  0  2  0  0  0  0  0  0  0  0  0
  -16.6541    7.6504   16.3337 O   0  0  0  0  0  0  0  0  0  0  0  0
  -16.5914    9.8740   15.6315 C   0  0  0  0  0  0  0  0  0  0  0  0
  -15.5716    9.2158   17.7951 C   0  0  0  0  0  0  0  0  0  0  0  0
  -14.7546    8.1568   18.4732 O   0  0  0  0  0  0  0  0  0  0  0  0
  1  2  1  1  0  0  0
  1  3  1  0  0  0  0
  1 10  1  0  0  0  0
  3  4  1  1  0  0  0
  3  5  1  0  0  0  0
  5  6  1  6  0  0  0
  5  7  1  0  0  0  0
  7  8  1  1  0  0  0
  7  9  1  0  0  0  0
  9 10  1  6  0  0  0
  9 11  1  0  0  0  0
 11 12  1  1  0  0  0
 11 13  1  0  0  0  0
 14 15  1  6  0  0  0
 14 16  1  0  0  0  0
 14 22  1  0  0  0  0
 16 17  1  0  0  0  0
 17 18  1  1  0  0  0
 17 19  1  0  0  0  0
 19  2  1  1  0  0  0
 19 20  1  0  0  0  0
 20 21  1  6  0  0  0
 20 22  1  0  0  0  0
 22 23  1  6  0  0  0
 24 23  1  6  0  0  0
 24 25  1  0  0  0  0
 24 34  1  0  0  0  0
 25 26  1  6  0  0  0
 25 27  1  0  0  0  0
 27 28  1  6  0  0  0
 27 30  1  0  0  0  0
 28 29  1  0  0  0  0
 30 31  1  6  0  0  0
 30 32  1  0  0  0  0
 30 33  1  0  0  0  0
 33 34  1  0  0  0  0
M  CHG  4   4   1  15   1  18   1  28   1
M  END
>  <CHROM.1>
-162.62260956,-165.03125746,66.57829302,57.36064786,-178.83465528,4.35952731
167.00766763,74.55157670,67.59465901,-178.57391913,-87.74629302,-149.93179218
-69.96247907,161.46600847,61.82027982,-11.12616314,7.62789531,19.56768313
-0.03746037,0.71756036,-2.75677851

>  <Name>
1mwl

>  <RI>
0

>  <Rbt.Current_Directory>
/home/itssahil/PROJECTS/Mol_Feturizer/New_Systems/rnas/1mwl

>  <Rbt.Executable>
rbdock ($Id: //depot/dev/client3/rdock/2013.1/src/exe/rbdock.cxx#4 $)

>  <Rbt.Library>
libRbt.so (2013.1, Build901 2013/11/27)

>  <Rbt.Parameter_File>
/export/apps/rDock/src/rDock_2013.1_src/data/scripts/dock_solv.prm

>  <Rbt.Receptor>
prm/pocket_docking_2.prm

>  <SCORE>
-47.7793

>  <SCORE.INTER>
-35.9772

>  <SCORE.INTER.CONST>
1

>  <SCORE.INTER.POLAR>
-5.49083

>  <SCORE.INTER.ROT>
6

>  <SCORE.INTER.SOLV>
27.9717

>  <SCORE.INTER.VDW>
-22.606

>  <SCORE.INTER.norm>
-1.05815

>  <SCORE.INTRA>
-13.0335

>  <SCORE.INTRA.DIHEDRAL>
-24.5909

>  <SCORE.INTRA.DIHEDRAL.0>
42.0816

>  <SCORE.INTRA.POLAR>
-0.448922

>  <SCORE.INTRA.POLAR.0>
-0.254682

>  <SCORE.INTRA.REPUL>
0

>  <SCORE.INTRA.REPUL.0>
0

>  <SCORE.INTRA.SOLV>
-2.58242

>  <SCORE.INTRA.SOLV.lig_0>
-109.803

>  <SCORE.INTRA.VDW>
2.07953

>  <SCORE.INTRA.VDW.0>
0.32176

>  <SCORE.INTRA.norm>
-0.383337

>  <SCORE.RESTR>
1.23137

>  <SCORE.RESTR.CAVITY>
1.23137

>  <SCORE.RESTR.norm>
0.0362169

>  <SCORE.SYSTEM>
0

>  <SCORE.SYSTEM.CONST>
0

>  <SCORE.SYSTEM.DIHEDRAL>
0

>  <SCORE.SYSTEM.SOLV>
0

>  <SCORE.SYSTEM.norm>
0

>  <SCORE.heavy>
34

>  <SCORE.norm>
-1.40527

>  <RMSD>
2.047

$$$$
1mwl
 OpenBabel11021811403D
libRbt.so/2013.1/901 2013/11/27
 34 36  0  0  0  0  0  0  0  0999 V2000
   -8.6741    5.5461   20.8572 C   0  0  2  0  0  0  0  0  0  0  0  0
   -9.6687    6.4839   21.1404 O   0  0  0  0  0  0  0  0  0  0  0  0
   -8.7353    4.4546   21.9626 C   0  0  2  0  0  0  0  0  0  0  0  0
  -10.0615    3.8300   21.9830 N   0  3  0  0  0  0  0  0  0  0  0  0
   -8.3679    5.0577   23.3500 C   0  0  1  0  0  0  0  0  0  0  0  0
   -8.3942    4.1055   24.3158 O   0  0  0  0  0  0  0  0  0  0  0  0
   -6.9496    5.7104   23.2507 C   0  0  2  0  0  0  0  0  0  0  0  0
   -6.5718    6.2722   24.5250 O   0  0  0  0  0  0  0  0  0  0  0  0
   -6.9896    6.8092   22.1349 C   0  0  2  0  0  0  0  0  0  0  0  0
   -7.3858    6.2125   20.8402 O   0  0  0  0  0  0  0  0  0  0  0  0
   -5.6575    7.5303   21.8992 C   0  0  2  0  0  0  0  0  0  0  0  0
   -4.6028    6.6774   22.2046 O   0  0  0  0  0  0  0  0  0  0  0  0
   -5.4692    8.7806   22.7776 C   0  0  0  0  0  0  0  0  0  0  0  0
  -12.4574    8.6181   18.7057 C   0  0  2  0  0  0  0  0  0  0  0  0
  -13.0110    9.5706   17.7099 N   0  3  0  0  0  0  0  0  0  0  0  0
  -11.7585    9.3821   19.8692 C   0  0  0  0  0  0  0  0  0  0  0  0
  -11.1604    8.3653   20.9077 C   0  0  2  0  0  0  0  0  0  0  0  0
  -10.4994    9.1337   22.0254 N   0  3  0  0  0  0  0  0  0  0  0  0
  -10.1484    7.4156   20.1794 C   0  0  2  0  0  0  0  0  0  0  0  0
  -10.8741    6.6653   19.0359 C   0  0  2  0  0  0  0  0  0  0  0  0
   -9.9485    5.8421   18.3683 O   0  0  0  0  0  0  0  0  0  0  0  0
  -11.4447    7.6825   18.0117 C   0  0  1  0  0  0  0  0  0  0  0  0
  -12.1027    6.9733   16.9722 O   0  0  0  0  0  0  0  0  0  0  0  0
  -11.3293    6.2219   16.0778 C   0  0  2  0  0  0  0  0  0  0  0  0
  -11.7837    6.5894   14.6525 C   0  0  2  0  0  0  0  0  0  0  0  0
  -11.5531    7.9652   14.4367 O   0  0  0  0  0  0  0  0  0  0  0  0
  -13.3048    6.2481   14.4950 C   0  0  1  0  0  0  0  0  0  0  0  0
  -13.8297    6.6014   13.1534 N   0  3  0  0  0  0  0  0  0  0  0  0
  -14.0598    8.0648   13.0461 C   0  0  0  0  0  0  0  0  0  0  0  0
  -13.5205    4.7198   14.7685 C   0  0  2  0  0  0  0  0  0  0  0  0
  -12.7603    3.9413   13.8255 O   0  0  0  0  0  0  0  0  0  0  0  0
  -14.9131    4.3327   14.6338 C   0  0  0  0  0  0  0  0  0  0  0  0
  -12.9739    4.3465   16.1809 C   0  0  0  0  0  0  0  0  0  0  0  0
  -11.5479    4.7867   16.3269 O   0  0  0  0  0  0  0  0  0  0  0  0
  1  2  1  1  0  0  0
  1  3  1  0  0  0  0
  1 10  1  0  0  0  0
  3  4  1  1  0  0  0
  3  5  1  0  0  0  0
  5  6  1  1  0  0  0
  5  7  1  0  0  0  0
  7  8  1  1  0  0  0
  7  9  1  0  0  0  0
  9 10  1  6  0  0  0
  9 11  1  0  0  0  0
 11 12  1  1  0  0  0
 11 13  1  0  0  0  0
 14 15  1  6  0  0  0
 14 16  1  0  0  0  0
 14 22  1  0  0  0  0
 16 17  1  0  0  0  0
 17 18  1  1  0  0  0
 17 19  1  0  0  0  0
 19  2  1  1  0  0  0
 19 20  1  0  0  0  0
 20 21  1  6  0  0  0
 20 22  1  0  0  0  0
 22 23  1  6  0  0  0
 24 23  1  1  0  0  0
 24 25  1  0  0  0  0
 24 34  1  0  0  0  0
 25 26  1  1  0  0  0
 25 27  1  0  0  0  0
 27 28  1  6  0  0  0
 27 30  1  0  0  0  0
 28 29  1  0  0  0  0
 30 31  1  6  0  0  0
 30 32  1  0  0  0  0
 30 33  1  0  0  0  0
 33 34  1  0  0  0  0
M  CHG  4   4   1  15   1  18   1  28   1
M  END
>  <CHROM.1>
-162.68403829,-175.27969702,-59.45352378,-62.98267155,53.23524307,29.22936284
-58.83923531,59.94475059,168.11088971,-57.42567047,170.26938822,-131.16410556
-70.56264756,42.89085743,-60.87766597,-10.35717484,6.49233248,18.97064994
-0.09406028,0.93979938,-3.03699855

>  <Name>
1mwl

>  <RI>
0

>  <Rbt.Current_Directory>
/home/itssahil/PROJECTS/Mol_Feturizer/New_Systems/rnas/1mwl

>  <Rbt.Executable>
rbdock ($Id: //depot/dev/client3/rdock/2013.1/src/exe/rbdock.cxx#4 $)

>  <Rbt.Library>
libRbt.so (2013.1, Build901 2013/11/27)

>  <Rbt.Parameter_File>
/export/apps/rDock/src/rDock_2013.1_src/data/scripts/dock_solv.prm

>  <Rbt.Receptor>
prm/pocket_docking_7.prm

>  <SCORE>
-65.5113

>  <SCORE.INTER>
-49.7378

>  <SCORE.INTER.CONST>
1

>  <SCORE.INTER.POLAR>
-6.83559

>  <SCORE.INTER.ROT>
6

>  <SCORE.INTER.SOLV>
25.0427

>  <SCORE.INTER.VDW>
-26.3208

>  <SCORE.INTER.norm>
-1.46288

>  <SCORE.INTRA>
-15.7736

>  <SCORE.INTRA.DIHEDRAL>
-28.8333

>  <SCORE.INTRA.DIHEDRAL.0>
42.0816

>  <SCORE.INTRA.POLAR>
0.141767

>  <SCORE.INTRA.POLAR.0>
-0.254682

>  <SCORE.INTRA.REPUL>
0

>  <SCORE.INTRA.REPUL.0>
0

>  <SCORE.INTRA.SOLV>
-1.98676

>  <SCORE.INTRA.SOLV.lig_0>
-109.803

>  <SCORE.INTRA.VDW>
-0.84552

>  <SCORE.INTRA.VDW.0>
0.32176

>  <SCORE.INTRA.norm>
-0.463928

>  <SCORE.RESTR>
0

>  <SCORE.RESTR.CAVITY>
0

>  <SCORE.RESTR.norm>
0

>  <SCORE.SYSTEM>
0

>  <SCORE.SYSTEM.CONST>
0

>  <SCORE.SYSTEM.DIHEDRAL>
0

>  <SCORE.SYSTEM.SOLV>
0

>  <SCORE.SYSTEM.norm>
0

>  <SCORE.heavy>
34

>  <SCORE.norm>
-1.9268

>  <RMSD>
2.061

$$$$
1mwl
 OpenBabel11021811403D
libRbt.so/2013.1/901 2013/11/27
 34 36  0  0  0  0  0  0  0  0999 V2000
   -9.0372    6.3747   20.2063 C   0  0  2  0  0  0  0  0  0  0  0  0
  -10.1488    7.0554   20.7057 O   0  0  0  0  0  0  0  0  0  0  0  0
   -9.2380    4.8646   20.5167 C   0  0  2  0  0  0  0  0  0  0  0  0
  -10.4764    4.3819   19.8980 N   0  3  0  0  0  0  0  0  0  0  0  0
   -9.2338    4.6152   22.0534 C   0  0  1  0  0  0  0  0  0  0  0  0
   -9.3830    3.2959   22.3317 O   0  0  0  0  0  0  0  0  0  0  0  0
   -7.8913    5.1599   22.6436 C   0  0  2  0  0  0  0  0  0  0  0  0
   -7.8488    4.9358   24.0685 O   0  0  0  0  0  0  0  0  0  0  0  0
   -7.7872    6.6859   22.3054 C   0  0  2  0  0  0  0  0  0  0  0  0
   -7.8401    6.8922   20.8412 O   0  0  0  0  0  0  0  0  0  0  0  0
   -6.5052    7.3650   22.8007 C   0  0  2  0  0  0  0  0  0  0  0  0
   -6.5880    8.7360   22.5846 O   0  0  0  0  0  0  0  0  0  0  0  0
   -5.2348    6.8897   22.0725 C   0  0  0  0  0  0  0  0  0  0  0  0
  -13.2884    9.5609   19.2479 C   0  0  2  0  0  0  0  0  0  0  0  0
  -13.9956   10.6561   18.5368 N   0  3  0  0  0  0  0  0  0  0  0  0
  -12.3271   10.1371   20.3295 C   0  0  0  0  0  0  0  0  0  0  0  0
  -11.5703    8.9714   21.0632 C   0  0  2  0  0  0  0  0  0  0  0  0
  -10.6555    9.5591   22.1093 N   0  3  0  0  0  0  0  0  0  0  0  0
  -10.7775    8.1241   20.0097 C   0  0  2  0  0  0  0  0  0  0  0  0
  -11.7602    7.5589   18.9551 C   0  0  2  0  0  0  0  0  0  0  0  0
  -11.0334    6.8290   17.9963 O   0  0  0  0  0  0  0  0  0  0  0  0
  -12.4872    8.7225   18.2293 C   0  0  1  0  0  0  0  0  0  0  0  0
  -13.3800    8.1818   17.2664 O   0  0  0  0  0  0  0  0  0  0  0  0
  -14.0404    6.9822   17.5619 C   0  0  2  0  0  0  0  0  0  0  0  0
  -14.2029    6.2068   16.2408 C   0  0  2  0  0  0  0  0  0  0  0  0
  -12.9246    5.9251   15.7126 O   0  0  0  0  0  0  0  0  0  0  0  0
  -15.0417    7.0710   15.2385 C   0  0  1  0  0  0  0  0  0  0  0  0
  -15.2191    6.4048   13.9253 N   0  3  0  0  0  0  0  0  0  0  0  0
  -14.4330    7.0973   12.8725 C   0  0  0  0  0  0  0  0  0  0  0  0
  -16.4404    7.3833   15.8734 C   0  0  2  0  0  0  0  0  0  0  0  0
  -17.1419    6.1547   16.1415 O   0  0  0  0  0  0  0  0  0  0  0  0
  -17.2742    8.1800   14.9917 C   0  0  0  0  0  0  0  0  0  0  0  0
  -16.2569    8.0887   17.2525 C   0  0  0  0  0  0  0  0  0  0  0  0
  -15.3610    7.2799   18.1425 O   0  0  0  0  0  0  0  0  0  0  0  0
  1  2  1  1  0  0  0
  1  3  1  0  0  0  0
  1 10  1  0  0  0  0
  3  4  1  1  0  0  0
  3  5  1  0  0  0  0
  5  6  1  6  0  0  0
  5  7  1  0  0  0  0
  7  8  1  1  0  0  0
  7  9  1  0  0  0  0
  9 10  1  6  0  0  0
  9 11  1  0  0  0  0
 11 12  1  6  0  0  0
 11 13  1  0  0  0  0
 14 15  1  6  0  0  0
 14 16  1  0  0  0  0
 14 22  1  0  0  0  0
 16 17  1  0  0  0  0
 17 18  1  1  0  0  0
 17 19  1  0  0  0  0
 19  2  1  1  0  0  0
 19 20  1  0  0  0  0
 20 21  1  6  0  0  0
 20 22  1  0  0  0  0
 22 23  1  6  0  0  0
 24 23  1  6  0  0  0
 24 25  1  0  0  0  0
 24 34  1  0  0  0  0
 25 26  1  6  0  0  0
 25 27  1  0  0  0  0
 27 28  1  6  0  0  0
 27 30  1  0  0  0  0
 28 29  1  0  0  0  0
 30 31  1  1  0  0  0
 30 32  1  0  0  0  0
 30 33  1  0  0  0  0
 33 34  1  0  0  0  0
M  CHG  4   4   1  15   1  18   1  28   1
M  END
>  <CHROM.1>
-139.37908902,-158.23456314,-98.54496397,74.58087352,50.25381845,-173.18023829
-67.13615910,40.54221345,43.16688529,-62.46173598,-84.74098073,-146.19824944
174.11083448,10.27774967,-58.06726859,-11.66239731,7.10589643,19.13468711
-0.14497242,0.70302154,-2.76494502

>  <Name>
1mwl

>  <RI>
0

>  <Rbt.Current_Directory>
/home/itssahil/PROJECTS/Mol_Feturizer/New_Systems/rnas/1mwl

>  <Rbt.Executable>
rbdock ($Id: //depot/dev/client3/rdock/2013.1/src/exe/rbdock.cxx#4 $)

>  <Rbt.Library>
libRbt.so (2013.1, Build901 2013/11/27)

>  <Rbt.Parameter_File>
/export/apps/rDock/src/rDock_2013.1_src/data/scripts/dock_solv.prm

>  <Rbt.Receptor>
prm/pocket_docking_6.prm

>  <SCORE>
-66.9947

>  <SCORE.INTER>
-53.8558

>  <SCORE.INTER.CONST>
1

>  <SCORE.INTER.POLAR>
-7.77119

>  <SCORE.INTER.ROT>
6

>  <SCORE.INTER.SOLV>
20.6858

>  <SCORE.INTER.VDW>
-24.4951

>  <SCORE.INTER.norm>
-1.58399

>  <SCORE.INTRA>
-13.1482

>  <SCORE.INTRA.DIHEDRAL>
-17.9396

>  <SCORE.INTRA.DIHEDRAL.0>
42.0816

>  <SCORE.INTRA.POLAR>
-0.922785

>  <SCORE.INTRA.POLAR.0>
-0.254682

>  <SCORE.INTRA.REPUL>
0

>  <SCORE.INTRA.REPUL.0>
0

>  <SCORE.INTRA.SOLV>
-0.0332741

>  <SCORE.INTRA.SOLV.lig_0>
-109.803

>  <SCORE.INTRA.VDW>
-1.02425

>  <SCORE.INTRA.VDW.0>
0.32176

>  <SCORE.INTRA.norm>
-0.386711

>  <SCORE.RESTR>
0.00925635

>  <SCORE.RESTR.CAVITY>
0.00925635

>  <SCORE.RESTR.norm>
0.000272246

>  <SCORE.SYSTEM>
0

>  <SCORE.SYSTEM.CONST>
0

>  <SCORE.SYSTEM.DIHEDRAL>
0

>  <SCORE.SYSTEM.SOLV>
0

>  <SCORE.SYSTEM.norm>
0

>  <SCORE.heavy>
34

>  <SCORE.norm>
-1.97043

>  <RMSD>
2.063

$$$$
1mwl
 OpenBabel11021811403D
libRbt.so/2013.1/901 2013/11/27
 34 36  0  0  0  0  0  0  0  0999 V2000
   -9.2717    6.0197   19.3203 C   0  0  2  0  0  0  0  0  0  0  0  0
  -10.5001    6.5334   19.7396 O   0  0  0  0  0  0  0  0  0  0  0  0
   -9.4844    4.5154   18.9904 C   0  0  2  0  0  0  0  0  0  0  0  0
  -10.5044    4.3661   17.9479 N   0  3  0  0  0  0  0  0  0  0  0  0
   -9.8614    3.7201   20.2745 C   0  0  1  0  0  0  0  0  0  0  0  0
  -10.0237    2.4018   19.9992 O   0  0  0  0  0  0  0  0  0  0  0  0
   -8.7361    3.9314   21.3406 C   0  0  2  0  0  0  0  0  0  0  0  0
   -9.0487    3.1984   22.5437 O   0  0  0  0  0  0  0  0  0  0  0  0
   -8.6104    5.4663   21.6273 C   0  0  2  0  0  0  0  0  0  0  0  0
   -8.2972    6.1978   20.3799 O   0  0  0  0  0  0  0  0  0  0  0  0
   -7.5248    5.8406   22.6428 C   0  0  2  0  0  0  0  0  0  0  0  0
   -6.2692    5.6712   22.0700 O   0  0  0  0  0  0  0  0  0  0  0  0
   -7.5409    4.9693   23.9120 C   0  0  0  0  0  0  0  0  0  0  0  0
  -12.9112   10.0592   19.8596 C   0  0  2  0  0  0  0  0  0  0  0  0
  -13.3864   11.4446   19.6141 N   0  3  0  0  0  0  0  0  0  0  0  0
  -11.5508   10.0700   20.6181 C   0  0  0  0  0  0  0  0  0  0  0  0
  -11.0478    8.6002   20.8565 C   0  0  2  0  0  0  0  0  0  0  0  0
   -9.7355    8.6428   21.5999 N   0  3  0  0  0  0  0  0  0  0  0  0
  -10.9091    7.8695   19.4769 C   0  0  2  0  0  0  0  0  0  0  0  0
  -12.2775    7.8679   18.7525 C   0  0  2  0  0  0  0  0  0  0  0  0
  -12.1329    7.2399   17.5015 O   0  0  0  0  0  0  0  0  0  0  0  0
  -12.7521    9.3258   18.5107 C   0  0  1  0  0  0  0  0  0  0  0  0
  -14.0056    9.3003   17.8440 O   0  0  0  0  0  0  0  0  0  0  0  0
  -14.0294    9.4577   16.4522 C   0  0  2  0  0  0  0  0  0  0  0  0
  -15.4642    9.8552   16.0567 C   0  0  2  0  0  0  0  0  0  0  0  0
  -15.7894   11.0808   16.6769 O   0  0  0  0  0  0  0  0  0  0  0  0
  -16.4518    8.7246   16.5053 C   0  0  1  0  0  0  0  0  0  0  0  0
  -17.8644    9.0453   16.1861 N   0  3  0  0  0  0  0  0  0  0  0  0
  -18.6688    9.1761   17.4278 C   0  0  0  0  0  0  0  0  0  0  0  0
  -16.0401    7.3781   15.8166 C   0  0  2  0  0  0  0  0  0  0  0  0
  -16.1026    7.5210   14.3851 O   0  0  0  0  0  0  0  0  0  0  0  0
  -16.9206    6.2847   16.1861 C   0  0  0  0  0  0  0  0  0  0  0  0
  -14.5564    7.0357   16.1548 C   0  0  0  0  0  0  0  0  0  0  0  0
  -13.6585    8.1858   15.8087 O   0  0  0  0  0  0  0  0  0  0  0  0
  1  2  1  1  0  0  0
  1  3  1  0  0  0  0
  1 10  1  0  0  0  0
  3  4  1  6  0  0  0
  3  5  1  0  0  0  0
  5  6  1  6  0  0  0
  5  7  1  0  0  0  0
  7  8  1  1  0  0  0
  7  9  1  0  0  0  0
  9 10  1  6  0  0  0
  9 11  1  0  0  0  0
 11 12  1  6  0  0  0
 11 13  1  0  0  0  0
 14 15  1  6  0  0  0
 14 16  1  0  0  0  0
 14 22  1  0  0  0  0
 16 17  1  0  0  0  0
 17 18  1  6  0  0  0
 17 19  1  0  0  0  0
 19  2  1  1  0  0  0
 19 20  1  0  0  0  0
 20 21  1  6  0  0  0
 20 22  1  0  0  0  0
 22 23  1  1  0  0  0
 24 23  1  1  0  0  0
 24 25  1  0  0  0  0
 24 34  1  0  0  0  0
 25 26  1  1  0  0  0
 25 27  1  0  0  0  0
 27 28  1  6  0  0  0
 27 30  1  0  0  0  0
 28 29  1  0  0  0  0
 30 31  1  6  0  0  0
 30 32  1  0  0  0  0
 30 33  1  0  0  0  0
 33 34  1  0  0  0  0
M  CHG  4   4   1  15   1  18   1  28   1
M  END
>  <CHROM.1>
-146.51337445,-115.95014829,-148.63504918,70.04493783,56.55959547,72.10681148
53.13684587,62.37318463,-7.27405878,-62.80740849,142.28466865,-161.58254298
176.84049698,3.79241206,42.05269043,-12.11239128,7.25518110,18.90265746,0.21269798
0.67681252,-2.81251474

>  <Name>
1mwl

>  <RI>
0

>  <Rbt.Current_Directory>
/home/itssahil/PROJECTS/Mol_Feturizer/New_Systems/rnas/1mwl

>  <Rbt.Executable>
rbdock ($Id: //depot/dev/client3/rdock/2013.1/src/exe/rbdock.cxx#4 $)

>  <Rbt.Library>
libRbt.so (2013.1, Build901 2013/11/27)

>  <Rbt.Parameter_File>
/export/apps/rDock/src/rDock_2013.1_src/data/scripts/dock_solv.prm

>  <Rbt.Receptor>
prm/pocket_docking_4.prm

>  <SCORE>
-52.2068

>  <SCORE.INTER>
-42.9941

>  <SCORE.INTER.CONST>
1

>  <SCORE.INTER.POLAR>
-5.41829

>  <SCORE.INTER.ROT>
6

>  <SCORE.INTER.SOLV>
20.8046

>  <SCORE.INTER.VDW>
-25.1366

>  <SCORE.INTER.norm>
-1.26453

>  <SCORE.INTRA>
-9.2127

>  <SCORE.INTRA.DIHEDRAL>
-12.4019

>  <SCORE.INTRA.DIHEDRAL.0>
42.0816

>  <SCORE.INTRA.POLAR>
-0.973522

>  <SCORE.INTRA.POLAR.0>
-0.254682

>  <SCORE.INTRA.REPUL>
0

>  <SCORE.INTRA.REPUL.0>
0

>  <SCORE.INTRA.SOLV>
1.59909

>  <SCORE.INTRA.SOLV.lig_0>
-109.803

>  <SCORE.INTRA.VDW>
-0.501338

>  <SCORE.INTRA.VDW.0>
0.32176

>  <SCORE.INTRA.norm>
-0.270962

>  <SCORE.RESTR>
0

>  <SCORE.RESTR.CAVITY>
0

>  <SCORE.RESTR.norm>
0

>  <SCORE.SYSTEM>
0

>  <SCORE.SYSTEM.CONST>
0

>  <SCORE.SYSTEM.DIHEDRAL>
0

>  <SCORE.SYSTEM.SOLV>
0

>  <SCORE.SYSTEM.norm>
0

>  <SCORE.heavy>
34

>  <SCORE.norm>
-1.53549

>  <RMSD>
2.084

$$$$
1mwl
 OpenBabel11021811403D
libRbt.so/2013.1/901 2013/11/27
 34 36  0  0  0  0  0  0  0  0999 V2000
   -8.4743    6.1073   20.4567 C   0  0  2  0  0  0  0  0  0  0  0  0
   -9.7374    6.5846   20.8107 O   0  0  0  0  0  0  0  0  0  0  0  0
   -8.3896    4.6260   20.9207 C   0  0  2  0  0  0  0  0  0  0  0  0
   -9.4504    3.8366   20.2873 N   0  3  0  0  0  0  0  0  0  0  0  0
   -8.4593    4.5325   22.4731 C   0  0  1  0  0  0  0  0  0  0  0  0
   -8.3603    3.2444   22.8870 O   0  0  0  0  0  0  0  0  0  0  0  0
   -7.3072    5.4012   23.0775 C   0  0  2  0  0  0  0  0  0  0  0  0
   -7.3357    5.3296   24.5185 O   0  0  0  0  0  0  0  0  0  0  0  0
   -7.4873    6.8751   22.5785 C   0  0  2  0  0  0  0  0  0  0  0  0
   -7.4622    6.9235   21.0999 O   0  0  0  0  0  0  0  0  0  0  0  0
   -6.4138    7.8527   23.0702 C   0  0  2  0  0  0  0  0  0  0  0  0
   -6.6507    9.1151   22.5377 O   0  0  0  0  0  0  0  0  0  0  0  0
   -4.9858    7.4661   22.6438 C   0  0  0  0  0  0  0  0  0  0  0  0
  -12.8629    9.1579   19.4436 C   0  0  2  0  0  0  0  0  0  0  0  0
  -13.5636   10.2837   18.7751 N   0  3  0  0  0  0  0  0  0  0  0  0
  -11.9047    9.6861   20.5521 C   0  0  0  0  0  0  0  0  0  0  0  0
  -11.1547    8.4887   21.2405 C   0  0  2  0  0  0  0  0  0  0  0  0
  -10.2428    9.0300   22.3139 N   0  3  0  0  0  0  0  0  0  0  0  0
  -10.3598    7.6829   20.1565 C   0  0  2  0  0  0  0  0  0  0  0  0
  -11.3394    7.1648   19.0753 C   0  0  2  0  0  0  0  0  0  0  0  0
  -10.6105    6.4727   18.0905 O   0  0  0  0  0  0  0  0  0  0  0  0
  -12.0596    8.3596   18.3948 C   0  0  1  0  0  0  0  0  0  0  0  0
  -12.9498    7.8619   17.4067 O   0  0  0  0  0  0  0  0  0  0  0  0
  -13.6835    6.7017   17.6867 C   0  0  2  0  0  0  0  0  0  0  0  0
  -13.9695    6.0009   16.3451 C   0  0  2  0  0  0  0  0  0  0  0  0
  -12.7439    5.6505   15.7388 O   0  0  0  0  0  0  0  0  0  0  0  0
  -14.7894    6.9688   15.4253 C   0  0  1  0  0  0  0  0  0  0  0  0
  -15.0817    6.3775   14.0968 N   0  3  0  0  0  0  0  0  0  0  0  0
  -14.4504    7.1749   13.0145 C   0  0  0  0  0  0  0  0  0  0  0  0
  -16.1272    7.3537   16.1458 C   0  0  2  0  0  0  0  0  0  0  0  0
  -16.9054    6.1690   16.3994 O   0  0  0  0  0  0  0  0  0  0  0  0
  -16.9412    8.2485   15.3432 C   0  0  0  0  0  0  0  0  0  0  0  0
  -15.8226    7.9806   17.5412 C   0  0  0  0  0  0  0  0  0  0  0  0
  -14.9472    7.0689   18.3483 O   0  0  0  0  0  0  0  0  0  0  0  0
  1  2  1  1  0  0  0
  1  3  1  0  0  0  0
  1 10  1  0  0  0  0
  3  4  1  6  0  0  0
  3  5  1  0  0  0  0
  5  6  1  6  0  0  0
  5  7  1  0  0  0  0
  7  8  1  1  0  0  0
  7  9  1  0  0  0  0
  9 10  1  6  0  0  0
  9 11  1  0  0  0  0
 11 12  1  6  0  0  0
 11 13  1  0  0  0  0
 14 15  1  6  0  0  0
 14 16  1  0  0  0  0
 14 22  1  0  0  0  0
 16 17  1  0  0  0  0
 17 18  1  1  0  0  0
 17 19  1  0  0  0  0
 19  2  1  1  0  0  0
 19 20  1  0  0  0  0
 20 21  1  6  0  0  0
 20 22  1  0  0  0  0
 22 23  1  6  0  0  0
 24 23  1  6  0  0  0
 24 25  1  0  0  0  0
 24 34  1  0  0  0  0
 25 26  1  6  0  0  0
 25 27  1  0  0  0  0
 27 28  1  6  0  0  0
 27 30  1  0  0  0  0
 28 29  1  0  0  0  0
 30 31  1  1  0  0  0
 30 32  1  0  0  0  0
 30 33  1  0  0  0  0
 33 34  1  0  0  0  0
M  CHG  4   4   1  15   1  18   1  28   1
M  END
>  <CHROM.1>
-156.50540124,-143.87510344,-95.51399465,-97.42548552,66.90897611,178.30774805
-62.68048218,47.97691807,173.17299632,-61.79191542,-80.46929425,-151.84653527
-176.90601595,2.31816454,-179.61669586,-11.26013526,6.97406978,19.37815578
-0.16155956,0.70198845,-2.76475361

>  <Name>
1mwl

>  <RI>
0

>  <Rbt.Current_Directory>
/home/itssahil/PROJECTS/Mol_Feturizer/New_Systems/rnas/1mwl

>  <Rbt.Executable>
rbdock ($Id: //depot/dev/client3/rdock/2013.1/src/exe/rbdock.cxx#4 $)

>  <Rbt.Library>
libRbt.so (2013.1, Build901 2013/11/27)

>  <Rbt.Parameter_File>
/export/apps/rDock/src/rDock_2013.1_src/data/scripts/dock_solv.prm

>  <Rbt.Receptor>
prm/pocket_docking_8.prm

>  <SCORE>
-63.6431

>  <SCORE.INTER>
-53.9464

>  <SCORE.INTER.CONST>
1

>  <SCORE.INTER.POLAR>
-7.66147

>  <SCORE.INTER.ROT>
6

>  <SCORE.INTER.SOLV>
22.292

>  <SCORE.INTER.VDW>
-25.4567

>  <SCORE.INTER.norm>
-1.58666

>  <SCORE.INTRA>
-9.69667

>  <SCORE.INTRA.DIHEDRAL>
-18.0987

>  <SCORE.INTRA.DIHEDRAL.0>
42.0816

>  <SCORE.INTRA.POLAR>
0.228958

>  <SCORE.INTRA.POLAR.0>
-0.254682

>  <SCORE.INTRA.REPUL>
0

>  <SCORE.INTRA.REPUL.0>
0

>  <SCORE.INTRA.SOLV>
1.04699

>  <SCORE.INTRA.SOLV.lig_0>
-109.803

>  <SCORE.INTRA.VDW>
-1.94926

>  <SCORE.INTRA.VDW.0>
0.32176

>  <SCORE.INTRA.norm>
-0.285196

>  <SCORE.RESTR>
0

>  <SCORE.RESTR.CAVITY>
0

>  <SCORE.RESTR.norm>
0

>  <SCORE.SYSTEM>
0

>  <SCORE.SYSTEM.CONST>
0

>  <SCORE.SYSTEM.DIHEDRAL>
0

>  <SCORE.SYSTEM.SOLV>
0

>  <SCORE.SYSTEM.norm>
0

>  <SCORE.heavy>
34

>  <SCORE.norm>
-1.87186

>  <RMSD>
2.112

$$$$
1mwl
 OpenBabel11021811403D
libRbt.so/2013.1/901 2013/11/27
 34 36  0  0  0  0  0  0  0  0999 V2000
   -8.8899    5.8586   20.4415 C   0  0  2  0  0  0  0  0  0  0  0  0
   -9.9027    6.6668   20.9608 O   0  0  0  0  0  0  0  0  0  0  0  0
   -8.8888    4.5336   21.2546 C   0  0  2  0  0  0  0  0  0  0  0  0
  -10.1954    3.8766   21.1520 N   0  3  0  0  0  0  0  0  0  0  0  0
   -8.5002    4.8007   22.7383 C   0  0  1  0  0  0  0  0  0  0  0  0
   -8.4722    3.6454   23.4486 O   0  0  0  0  0  0  0  0  0  0  0  0
   -7.1046    5.5069   22.7692 C   0  0  2  0  0  0  0  0  0  0  0  0
   -6.7076    5.7614   24.1330 O   0  0  0  0  0  0  0  0  0  0  0  0
   -7.2072    6.8380   21.9498 C   0  0  2  0  0  0  0  0  0  0  0  0
   -7.6222    6.5539   20.5583 O   0  0  0  0  0  0  0  0  0  0  0  0
   -5.9035    7.6401   21.8664 C   0  0  2  0  0  0  0  0  0  0  0  0
   -4.8312    6.7735   21.6864 O   0  0  0  0  0  0  0  0  0  0  0  0
   -5.5949    8.4493   23.1393 C   0  0  0  0  0  0  0  0  0  0  0  0
  -12.8939    9.3282   19.4679 C   0  0  2  0  0  0  0  0  0  0  0  0
  -13.5390   10.4454   18.7323 N   0  3  0  0  0  0  0  0  0  0  0  0
  -11.8797    9.8727   20.5172 C   0  0  0  0  0  0  0  0  0  0  0  0
  -11.1894    8.6826   21.2770 C   0  0  2  0  0  0  0  0  0  0  0  0
  -10.2214    9.2405   22.2910 N   0  3  0  0  0  0  0  0  0  0  0  0
  -10.4709    7.7527   20.2400 C   0  0  2  0  0  0  0  0  0  0  0  0
  -11.5052    7.2215   19.2177 C   0  0  2  0  0  0  0  0  0  0  0  0
  -10.8433    6.4160   18.2726 O   0  0  0  0  0  0  0  0  0  0  0  0
  -12.1658    8.4077   18.4654 C   0  0  1  0  0  0  0  0  0  0  0  0
  -13.1074    7.8979   17.5327 O   0  0  0  0  0  0  0  0  0  0  0  0
  -13.8749    6.7831   17.8944 C   0  0  2  0  0  0  0  0  0  0  0  0
  -14.1411    5.9702   16.6133 C   0  0  2  0  0  0  0  0  0  0  0  0
  -12.9082    5.5414   16.0762 O   0  0  0  0  0  0  0  0  0  0  0  0
  -14.9135    6.8679   15.5874 C   0  0  1  0  0  0  0  0  0  0  0  0
  -15.1839    6.1654   14.3093 N   0  3  0  0  0  0  0  0  0  0  0  0
  -14.4350    6.7962   13.1925 C   0  0  0  0  0  0  0  0  0  0  0  0
  -16.2609    7.3437   16.2318 C   0  0  2  0  0  0  0  0  0  0  0  0
  -17.0727    6.2029   16.5681 O   0  0  0  0  0  0  0  0  0  0  0  0
  -17.0323    8.1790   15.3293 C   0  0  0  0  0  0  0  0  0  0  0  0
  -15.9793    8.0874   17.5737 C   0  0  0  0  0  0  0  0  0  0  0  0
  -15.1471    7.2343   18.4839 O   0  0  0  0  0  0  0  0  0  0  0  0
  1  2  1  1  0  0  0
  1  3  1  0  0  0  0
  1 10  1  0  0  0  0
  3  4  1  1  0  0  0
  3  5  1  0  0  0  0
  5  6  1  1  0  0  0
  5  7  1  0  0  0  0
  7  8  1  1  0  0  0
  7  9  1  0  0  0  0
  9 10  1  6  0  0  0
  9 11  1  0  0  0  0
 11 12  1  1  0  0  0
 11 13  1  0  0  0  0
 14 15  1  6  0  0  0
 14 16  1  0  0  0  0
 14 22  1  0  0  0  0
 16 17  1  0  0  0  0
 17 18  1  1  0  0  0
 17 19  1  0  0  0  0
 19  2  1  1  0  0  0
 19 20  1  0  0  0  0
 20 21  1  6  0  0  0
 20 22  1  0  0  0  0
 22 23  1  6  0  0  0
 24 23  1  6  0  0  0
 24 25  1  0  0  0  0
 24 34  1  0  0  0  0
 25 26  1  6  0  0  0
 25 27  1  0  0  0  0
 27 28  1  6  0  0  0
 27 30  1  0  0  0  0
 28 29  1  0  0  0  0
 30 31  1  1  0  0  0
 30 32  1  0  0  0  0
 30 33  1  0  0  0  0
 33 34  1  0  0  0  0
M  CHG  4   4   1  15   1  18   1  28   1
M  END
>  <CHROM.1>
-160.22187861,-161.41602908,55.18983274,-73.42455776,-62.67879666,40.25543194
109.63699490,-73.67773981,52.58046943,177.79716422,-82.46242554,-147.55563935
175.68317112,5.99740925,65.79771314,-11.30127560,6.95376610,19.41706522,-0.13074373
0.66046216,-2.78988262

>  <Name>
1mwl

>  <RI>
0

>  <Rbt.Current_Directory>
/home/itssahil/PROJECTS/Mol_Feturizer/New_Systems/rnas/1mwl

>  <Rbt.Executable>
rbdock ($Id: //depot/dev/client3/rdock/2013.1/src/exe/rbdock.cxx#4 $)

>  <Rbt.Library>
libRbt.so (2013.1, Build901 2013/11/27)

>  <Rbt.Parameter_File>
/export/apps/rDock/src/rDock_2013.1_src/data/scripts/dock_solv.prm

>  <Rbt.Receptor>
prm/pocket_docking_5.prm

>  <SCORE>
-72.2291

>  <SCORE.INTER>
-56.483

>  <SCORE.INTER.CONST>
1

>  <SCORE.INTER.POLAR>
-8.17372

>  <SCORE.INTER.ROT>
6

>  <SCORE.INTER.SOLV>
23.1983

>  <SCORE.INTER.VDW>
-25.7424

>  <SCORE.INTER.norm>
-1.66127

>  <SCORE.INTRA>
-15.937

>  <SCORE.INTRA.DIHEDRAL>
-19.1126

>  <SCORE.INTRA.DIHEDRAL.0>
42.0816

>  <SCORE.INTRA.POLAR>
-0.774458

>  <SCORE.INTRA.POLAR.0>
-0.254682

>  <SCORE.INTRA.REPUL>
0

>  <SCORE.INTRA.REPUL.0>
0

>  <SCORE.INTRA.SOLV>
-0.981248

>  <SCORE.INTRA.SOLV.lig_0>
-109.803

>  <SCORE.INTRA.VDW>
-3.25696

>  <SCORE.INTRA.VDW.0>
0.32176

>  <SCORE.INTRA.norm>
-0.468737

>  <SCORE.RESTR>
0.190996

>  <SCORE.RESTR.CAVITY>
0.190996

>  <SCORE.RESTR.norm>
0.00561754

>  <SCORE.SYSTEM>
0

>  <SCORE.SYSTEM.CONST>
0

>  <SCORE.SYSTEM.DIHEDRAL>
0

>  <SCORE.SYSTEM.SOLV>
0

>  <SCORE.SYSTEM.norm>
0

>  <SCORE.heavy>
34

>  <SCORE.norm>
-2.12439

>  <RMSD>
2.193

$$$$
1mwl
 OpenBabel11021811403D
libRbt.so/2013.1/901 2013/11/27
 34 36  0  0  0  0  0  0  0  0999 V2000
   -8.7681    5.7589   19.7673 C   0  0  2  0  0  0  0  0  0  0  0  0
  -10.0371    6.3350   19.8469 O   0  0  0  0  0  0  0  0  0  0  0  0
   -8.8834    4.3035   20.3017 C   0  0  2  0  0  0  0  0  0  0  0  0
   -9.8580    3.5493   19.5074 N   0  3  0  0  0  0  0  0  0  0  0  0
   -9.2567    4.3019   21.8130 C   0  0  1  0  0  0  0  0  0  0  0  0
   -9.3340    3.0355   22.2929 O   0  0  0  0  0  0  0  0  0  0  0  0
   -8.1813    5.1278   22.5934 C   0  0  2  0  0  0  0  0  0  0  0  0
   -8.4911    5.1392   24.0027 O   0  0  0  0  0  0  0  0  0  0  0  0
   -8.1532    6.5799   22.0064 C   0  0  2  0  0  0  0  0  0  0  0  0
   -7.8411    6.5434   20.5605 O   0  0  0  0  0  0  0  0  0  0  0  0
   -7.1251    7.5129   22.6563 C   0  0  2  0  0  0  0  0  0  0  0  0
   -6.9826    8.6618   21.8862 O   0  0  0  0  0  0  0  0  0  0  0  0
   -5.7196    6.8955   22.7737 C   0  0  0  0  0  0  0  0  0  0  0  0
  -12.7096    8.8095   17.6122 C   0  0  2  0  0  0  0  0  0  0  0  0
  -13.2132    9.8788   16.7130 N   0  3  0  0  0  0  0  0  0  0  0  0
  -12.0015    9.4241   18.8559 C   0  0  0  0  0  0  0  0  0  0  0  0
  -11.4564    8.2848   19.7913 C   0  0  2  0  0  0  0  0  0  0  0  0
  -10.7853    8.9098   20.9896 N   0  3  0  0  0  0  0  0  0  0  0  0
  -10.4682    7.3773   18.9812 C   0  0  2  0  0  0  0  0  0  0  0  0
  -11.2029    6.7754   17.7584 C   0  0  2  0  0  0  0  0  0  0  0  0
  -10.2974    5.9907   17.0206 O   0  0  0  0  0  0  0  0  0  0  0  0
  -11.7208    7.9125   16.8375 C   0  0  1  0  0  0  0  0  0  0  0  0
  -12.3879    7.3383   15.7232 O   0  0  0  0  0  0  0  0  0  0  0  0
  -12.1189    7.8451   14.4451 C   0  0  2  0  0  0  0  0  0  0  0  0
  -12.9282    7.0080   13.4365 C   0  0  2  0  0  0  0  0  0  0  0  0
  -14.3036    7.1485   13.7210 O   0  0  0  0  0  0  0  0  0  0  0  0
  -12.4874    5.5083   13.5441 C   0  0  1  0  0  0  0  0  0  0  0  0
  -13.2441    4.6268   12.6218 N   0  3  0  0  0  0  0  0  0  0  0  0
  -14.5964    4.3351   13.1624 C   0  0  0  0  0  0  0  0  0  0  0  0
  -10.9520    5.4004   13.2479 C   0  0  2  0  0  0  0  0  0  0  0  0
  -10.6743    5.8815   11.9194 O   0  0  0  0  0  0  0  0  0  0  0  0
  -10.4761    4.0312   13.3259 C   0  0  0  0  0  0  0  0  0  0  0  0
  -10.1533    6.3227   14.2198 C   0  0  0  0  0  0  0  0  0  0  0  0
  -10.6779    7.7264   14.1641 O   0  0  0  0  0  0  0  0  0  0  0  0
  1  2  1  1  0  0  0
  1  3  1  0  0  0  0
  1 10  1  0  0  0  0
  3  4  1  6  0  0  0
  3  5  1  0  0  0  0
  5  6  1  1  0  0  0
  5  7  1  0  0  0  0
  7  8  1  1  0  0  0
  7  9  1  0  0  0  0
  9 10  1  6  0  0  0
  9 11  1  0  0  0  0
 11 12  1  6  0  0  0
 11 13  1  0  0  0  0
 14 15  1  6  0  0  0
 14 16  1  0  0  0  0
 14 22  1  0  0  0  0
 16 17  1  0  0  0  0
 17 18  1  1  0  0  0
 17 19  1  0  0  0  0
 19  2  1  1  0  0  0
 19 20  1  0  0  0  0
 20 21  1  6  0  0  0
 20 22  1  0  0  0  0
 22 23  1  6  0  0  0
 24 23  1  1  0  0  0
 24 25  1  0  0  0  0
 24 34  1  0  0  0  0
 25 26  1  1  0  0  0
 25 27  1  0  0  0  0
 27 28  1  6  0  0  0
 27 30  1  0  0  0  0
 28 29  1  0  0  0  0
 30 31  1  6  0  0  0
 30 32  1  0  0  0  0
 30 33  1  0  0  0  0
 33 34  1  0  0  0  0
M  CHG  4   4   1  15   1  18   1  28   1
M  END
>  <CHROM.1>
-152.48483604,-147.89243539,-175.52955991,-172.76897260,-163.11978906,167.30990425
67.14558035,168.73361644,-174.78678670,164.20331608,104.91875433,177.78804626
66.00919510,41.95513941,-30.06453674,-10.52215030,6.47340136,17.88629987
-0.57264099,1.01268690,-2.47674930

>  <Name>
1mwl

>  <RI>
0

>  <Rbt.Current_Directory>
/home/itssahil/PROJECTS/Mol_Feturizer/New_Systems/rnas/1mwl

>  <Rbt.Executable>
rbdock ($Id: //depot/dev/client3/rdock/2013.1/src/exe/rbdock.cxx#4 $)

>  <Rbt.Library>
libRbt.so (2013.1, Build901 2013/11/27)

>  <Rbt.Parameter_File>
/export/apps/rDock/src/rDock_2013.1_src/data/scripts/dock_solv.prm

>  <Rbt.Receptor>
prm/pocket_docking_7.prm

>  <SCORE>
-63.8045

>  <SCORE.INTER>
-52.2823

>  <SCORE.INTER.CONST>
1

>  <SCORE.INTER.POLAR>
-7.48998

>  <SCORE.INTER.ROT>
6

>  <SCORE.INTER.SOLV>
21.098

>  <SCORE.INTER.VDW>
-24.5209

>  <SCORE.INTER.norm>
-1.53771

>  <SCORE.INTRA>
-11.5222

>  <SCORE.INTRA.DIHEDRAL>
-20.0511

>  <SCORE.INTRA.DIHEDRAL.0>
42.0816

>  <SCORE.INTRA.POLAR>
0.24957

>  <SCORE.INTRA.POLAR.0>
-0.254682

>  <SCORE.INTRA.REPUL>
0

>  <SCORE.INTRA.REPUL.0>
0

>  <SCORE.INTRA.SOLV>
0.376252

>  <SCORE.INTRA.SOLV.lig_0>
-109.803

>  <SCORE.INTRA.VDW>
-2.53328

>  <SCORE.INTRA.VDW.0>
0.32176

>  <SCORE.INTRA.norm>
-0.338888

>  <SCORE.RESTR>
0

>  <SCORE.RESTR.CAVITY>
0

>  <SCORE.RESTR.norm>
0

>  <SCORE.SYSTEM>
0

>  <SCORE.SYSTEM.CONST>
0

>  <SCORE.SYSTEM.DIHEDRAL>
0

>  <SCORE.SYSTEM.SOLV>
0

>  <SCORE.SYSTEM.norm>
0

>  <SCORE.heavy>
34

>  <SCORE.norm>
-1.8766

>  <RMSD>
2.242

$$$$
1mwl
 OpenBabel11021811403D
libRbt.so/2013.1/901 2013/11/27
 34 36  0  0  0  0  0  0  0  0999 V2000
   -9.2542    6.1833   20.2481 C   0  0  2  0  0  0  0  0  0  0  0  0
  -10.3120    6.9182   20.7862 O   0  0  0  0  0  0  0  0  0  0  0  0
   -9.5247    4.6838   20.5568 C   0  0  2  0  0  0  0  0  0  0  0  0
  -10.8058    4.2714   19.9752 N   0  3  0  0  0  0  0  0  0  0  0  0
   -9.4855    4.4238   22.0913 C   0  0  1  0  0  0  0  0  0  0  0  0
   -9.6955    3.1123   22.3672 O   0  0  0  0  0  0  0  0  0  0  0  0
   -8.0982    4.8929   22.6415 C   0  0  2  0  0  0  0  0  0  0  0  0
   -8.0229    4.6570   24.0631 O   0  0  0  0  0  0  0  0  0  0  0  0
   -7.9242    6.4136   22.3082 C   0  0  2  0  0  0  0  0  0  0  0  0
   -8.0120    6.6326   20.8475 O   0  0  0  0  0  0  0  0  0  0  0  0
   -6.5932    7.0207   22.7662 C   0  0  2  0  0  0  0  0  0  0  0  0
   -6.3639    6.6957   24.0985 O   0  0  0  0  0  0  0  0  0  0  0  0
   -6.5561    8.5577   22.6848 C   0  0  0  0  0  0  0  0  0  0  0  0
  -13.3375    9.6746   19.5580 C   0  0  2  0  0  0  0  0  0  0  0  0
  -14.0097   10.8110   18.8782 N   0  3  0  0  0  0  0  0  0  0  0  0
  -12.2141   10.1874   20.5073 C   0  0  0  0  0  0  0  0  0  0  0  0
  -11.4971    8.9767   21.2074 C   0  0  2  0  0  0  0  0  0  0  0  0
  -10.4224    9.5044   22.1258 N   0  3  0  0  0  0  0  0  0  0  0  0
  -10.9075    8.0208   20.1143 C   0  0  2  0  0  0  0  0  0  0  0  0
  -12.0479    7.5220   19.1936 C   0  0  2  0  0  0  0  0  0  0  0  0
  -11.5022    6.6926   18.1964 O   0  0  0  0  0  0  0  0  0  0  0  0
  -12.7349    8.7278   18.4983 C   0  0  1  0  0  0  0  0  0  0  0  0
  -13.7742    8.2475   17.6583 O   0  0  0  0  0  0  0  0  0  0  0  0
  -14.6597    7.2885   18.1669 C   0  0  2  0  0  0  0  0  0  0  0  0
  -14.8029    6.1824   17.1044 C   0  0  2  0  0  0  0  0  0  0  0  0
  -13.5406    5.5905   16.8837 O   0  0  0  0  0  0  0  0  0  0  0  0
  -15.3624    6.8102   15.7824 C   0  0  1  0  0  0  0  0  0  0  0  0
  -15.5024    5.8116   14.6946 N   0  3  0  0  0  0  0  0  0  0  0  0
  -14.2796    5.7748   13.8524 C   0  0  0  0  0  0  0  0  0  0  0  0
  -16.7494    7.4787   16.0767 C   0  0  2  0  0  0  0  0  0  0  0  0
  -17.6770    6.4895   16.5608 O   0  0  0  0  0  0  0  0  0  0  0  0
  -17.3293    8.0781   14.8885 C   0  0  0  0  0  0  0  0  0  0  0  0
  -16.6042    8.5332   17.2169 C   0  0  0  0  0  0  0  0  0  0  0  0
  -15.9665    7.9168   18.4261 O   0  0  0  0  0  0  0  0  0  0  0  0
  1  2  1  1  0  0  0
  1  3  1  0  0  0  0
  1 10  1  0  0  0  0
  3  4  1  1  0  0  0
  3  5  1  0  0  0  0
  5  6  1  6  0  0  0
  5  7  1  0  0  0  0
  7  8  1  1  0  0  0
  7  9  1  0  0  0  0
  9 10  1  6  0  0  0
  9 11  1  0  0  0  0
 11 12  1  1  0  0  0
 11 13  1  0  0  0  0
 14 15  1  6  0  0  0
 14 16  1  0  0  0  0
 14 22  1  0  0  0  0
 16 17  1  0  0  0  0
 17 18  1  1  0  0  0
 17 19  1  0  0  0  0
 19  2  1  1  0  0  0
 19 20  1  0  0  0  0
 20 21  1  6  0  0  0
 20 22  1  0  0  0  0
 22 23  1  6  0  0  0
 24 23  1  6  0  0  0
 24 25  1  0  0  0  0
 24 34  1  0  0  0  0
 25 26  1  6  0  0  0
 25 27  1  0  0  0  0
 27 28  1  6  0  0  0
 27 30  1  0  0  0  0
 28 29  1  0  0  0  0
 30 31  1  1  0  0  0
 30 32  1  0  0  0  0
 30 33  1  0  0  0  0
 33 34  1  0  0  0  0
M  CHG  4   4   1  15   1  18   1  28   1
M  END
>  <CHROM.1>
-139.18236096,-152.72150797,31.32977597,-170.78607028,55.91848233,-49.73004589
-179.56705403,54.28392539,47.00118186,-171.37909856,-73.65326899,-133.39108304
177.15344009,27.42813940,-173.83654530,-11.92507294,6.99430629,19.45455500
-0.07829416,0.68583017,-2.83638165

>  <Name>
1mwl

>  <RI>
0

>  <Rbt.Current_Directory>
/home/itssahil/PROJECTS/Mol_Feturizer/New_Systems/rnas/1mwl

>  <Rbt.Executable>
rbdock ($Id: //depot/dev/client3/rdock/2013.1/src/exe/rbdock.cxx#4 $)

>  <Rbt.Library>
libRbt.so (2013.1, Build901 2013/11/27)

>  <Rbt.Parameter_File>
/export/apps/rDock/src/rDock_2013.1_src/data/scripts/dock_solv.prm

>  <Rbt.Receptor>
prm/pocket_docking_6.prm

>  <SCORE>
-64.7315

>  <SCORE.INTER>
-47.7154

>  <SCORE.INTER.CONST>
1

>  <SCORE.INTER.POLAR>
-7.0838

>  <SCORE.INTER.ROT>
6

>  <SCORE.INTER.SOLV>
18.5762

>  <SCORE.INTER.VDW>
-21.9897

>  <SCORE.INTER.norm>
-1.40339

>  <SCORE.INTRA>
-17.0419

>  <SCORE.INTRA.DIHEDRAL>
-20.4242

>  <SCORE.INTRA.DIHEDRAL.0>
42.0816

>  <SCORE.INTRA.POLAR>
-1.84731

>  <SCORE.INTRA.POLAR.0>
-0.254682

>  <SCORE.INTRA.REPUL>
0.0234486

>  <SCORE.INTRA.REPUL.0>
0

>  <SCORE.INTRA.SOLV>
1.04054

>  <SCORE.INTRA.SOLV.lig_0>
-109.803

>  <SCORE.INTRA.VDW>
-1.18646

>  <SCORE.INTRA.VDW.0>
0.32176

>  <SCORE.INTRA.norm>
-0.501232

>  <SCORE.RESTR>
0.0258256

>  <SCORE.RESTR.CAVITY>
0.0258256

>  <SCORE.RESTR.norm>
0.000759575

>  <SCORE.SYSTEM>
0

>  <SCORE.SYSTEM.CONST>
0

>  <SCORE.SYSTEM.DIHEDRAL>
0

>  <SCORE.SYSTEM.SOLV>
0

>  <SCORE.SYSTEM.norm>
0

>  <SCORE.heavy>
34

>  <SCORE.norm>
-1.90387

>  <RMSD>
2.332

$$$$
1mwl
 OpenBabel11021811403D
libRbt.so/2013.1/901 2013/11/27
 34 36  0  0  0  0  0  0  0  0999 V2000
   -9.6859    6.2910   20.2429 C   0  0  2  0  0  0  0  0  0  0  0  0
  -10.7085    6.8714   20.9954 O   0  0  0  0  0  0  0  0  0  0  0  0
   -9.6905    4.7668   20.5488 C   0  0  2  0  0  0  0  0  0  0  0  0
  -10.9932    4.1869   20.2079 N   0  3  0  0  0  0  0  0  0  0  0  0
   -9.3226    4.5051   22.0387 C   0  0  1  0  0  0  0  0  0  0  0  0
   -9.2995    3.1756   22.3069 O   0  0  0  0  0  0  0  0  0  0  0  0
   -7.9301    5.1558   22.3305 C   0  0  2  0  0  0  0  0  0  0  0  0
   -7.5521    4.9235   23.7036 O   0  0  0  0  0  0  0  0  0  0  0  0
   -8.0270    6.6880   22.0195 C   0  0  2  0  0  0  0  0  0  0  0  0
   -8.4226    6.9020   20.6098 O   0  0  0  0  0  0  0  0  0  0  0  0
   -6.7253    7.4683   22.2358 C   0  0  2  0  0  0  0  0  0  0  0  0
   -5.7156    6.9213   21.4520 O   0  0  0  0  0  0  0  0  0  0  0  0
   -6.2150    7.4258   23.6877 C   0  0  0  0  0  0  0  0  0  0  0  0
  -14.0745    9.4782   20.6299 C   0  0  2  0  0  0  0  0  0  0  0  0
  -14.9533   10.5798   20.1612 N   0  3  0  0  0  0  0  0  0  0  0  0
  -12.7667   10.0460   21.2570 C   0  0  0  0  0  0  0  0  0  0  0  0
  -11.8359    8.8724   21.7328 C   0  0  2  0  0  0  0  0  0  0  0  0
  -10.5839    9.4527   22.3430 N   0  3  0  0  0  0  0  0  0  0  0  0
  -11.5097    7.9428   20.5139 C   0  0  2  0  0  0  0  0  0  0  0  0
  -12.8271    7.3882   19.9190 C   0  0  2  0  0  0  0  0  0  0  0  0
  -12.5239    6.5831   18.8055 O   0  0  0  0  0  0  0  0  0  0  0  0
  -13.7274    8.5584   19.4399 C   0  0  1  0  0  0  0  0  0  0  0  0
  -14.9270    8.0273   18.8965 O   0  0  0  0  0  0  0  0  0  0  0  0
  -15.9261    8.9160   18.4784 C   0  0  2  0  0  0  0  0  0  0  0  0
  -17.1165    8.0730   17.9832 C   0  0  2  0  0  0  0  0  0  0  0  0
  -17.5996    7.2871   19.0516 O   0  0  0  0  0  0  0  0  0  0  0  0
  -16.6447    7.1676   16.7946 C   0  0  1  0  0  0  0  0  0  0  0  0
  -17.7300    6.2989   16.2774 N   0  3  0  0  0  0  0  0  0  0  0  0
  -17.6920    4.9642   16.9280 C   0  0  0  0  0  0  0  0  0  0  0  0
  -16.0921    8.0763   15.6431 C   0  0  2  0  0  0  0  0  0  0  0  0
  -17.1270    8.9642   15.1804 O   0  0  0  0  0  0  0  0  0  0  0  0
  -15.6407    7.2987   14.5035 C   0  0  0  0  0  0  0  0  0  0  0  0
  -14.9470    8.9875   16.1831 C   0  0  0  0  0  0  0  0  0  0  0  0
  -15.4083    9.7563   17.3851 O   0  0  0  0  0  0  0  0  0  0  0  0
  1  2  1  1  0  0  0
  1  3  1  0  0  0  0
  1 10  1  0  0  0  0
  3  4  1  1  0  0  0
  3  5  1  0  0  0  0
  5  6  1  6  0  0  0
  5  7  1  0  0  0  0
  7  8  1  1  0  0  0
  7  9  1  0  0  0  0
  9 10  1  6  0  0  0
  9 11  1  0  0  0  0
 11 12  1  6  0  0  0
 11 13  1  0  0  0  0
 14 15  1  6  0  0  0
 14 16  1  0  0  0  0
 14 22  1  0  0  0  0
 16 17  1  0  0  0  0
 17 18  1  6  0  0  0
 17 19  1  0  0  0  0
 19  2  1  1  0  0  0
 19 20  1  0  0  0  0
 20 21  1  6  0  0  0
 20 22  1  0  0  0  0
 22 23  1  1  0  0  0
 24 23  1  6  0  0  0
 24 25  1  0  0  0  0
 24 34  1  0  0  0  0
 25 26  1  1  0  0  0
 25 27  1  0  0  0  0
 27 28  1  6  0  0  0
 27 30  1  0  0  0  0
 28 29  1  0  0  0  0
 30 31  1  6  0  0  0
 30 32  1  0  0  0  0
 30 33  1  0  0  0  0
 33 34  1  0  0  0  0
M  CHG  4   4   1  15   1  18   1  28   1
M  END
>  <CHROM.1>
-143.16752175,-144.87804502,25.69824721,-152.92438163,-73.84145807,57.60697638
129.58118925,97.89583544,176.37365964,-55.23294059,55.84399104,-178.14281617
179.22518357,26.09092257,178.20160288,-12.40944657,7.27820653,19.72406882
0.02918111,0.57522083,-2.86272483

>  <Name>
1mwl

>  <RI>
0

>  <Rbt.Current_Directory>
/home/itssahil/PROJECTS/Mol_Feturizer/New_Systems/rnas/1mwl

>  <Rbt.Executable>
rbdock ($Id: //depot/dev/client3/rdock/2013.1/src/exe/rbdock.cxx#4 $)

>  <Rbt.Library>
libRbt.so (2013.1, Build901 2013/11/27)

>  <Rbt.Parameter_File>
/export/apps/rDock/src/rDock_2013.1_src/data/scripts/dock_solv.prm

>  <Rbt.Receptor>
prm/pocket_docking_6.prm

>  <SCORE>
-66.2995

>  <SCORE.INTER>
-57.5524

>  <SCORE.INTER.CONST>
1

>  <SCORE.INTER.POLAR>
-8.90305

>  <SCORE.INTER.ROT>
6

>  <SCORE.INTER.SOLV>
19.8619

>  <SCORE.INTER.VDW>
-22.9121

>  <SCORE.INTER.norm>
-1.69272

>  <SCORE.INTRA>
-8.96312

>  <SCORE.INTRA.DIHEDRAL>
-14.8067

>  <SCORE.INTRA.DIHEDRAL.0>
42.0816

>  <SCORE.INTRA.POLAR>
-1.52607

>  <SCORE.INTRA.POLAR.0>
-0.254682

>  <SCORE.INTRA.REPUL>
0

>  <SCORE.INTRA.REPUL.0>
0

>  <SCORE.INTRA.SOLV>
1.82249

>  <SCORE.INTRA.SOLV.lig_0>
-109.803

>  <SCORE.INTRA.VDW>
2.71765

>  <SCORE.INTRA.VDW.0>
0.32176

>  <SCORE.INTRA.norm>
-0.263621

>  <SCORE.RESTR>
0.216006

>  <SCORE.RESTR.CAVITY>
0.216006

>  <SCORE.RESTR.norm>
0.00635313

>  <SCORE.SYSTEM>
0

>  <SCORE.SYSTEM.CONST>
0

>  <SCORE.SYSTEM.DIHEDRAL>
0

>  <SCORE.SYSTEM.SOLV>
0

>  <SCORE.SYSTEM.norm>
0

>  <SCORE.heavy>
34

>  <SCORE.norm>
-1.94999

>  <RMSD>
2.367

$$$$
1mwl
 OpenBabel11021811403D
libRbt.so/2013.1/901 2013/11/27
 34 36  0  0  0  0  0  0  0  0999 V2000
   -8.3559    5.9270   20.6052 C   0  0  2  0  0  0  0  0  0  0  0  0
   -9.3954    6.7799   20.9804 O   0  0  0  0  0  0  0  0  0  0  0  0
   -8.4447    4.6616   21.5039 C   0  0  2  0  0  0  0  0  0  0  0  0
   -9.7486    4.0128   21.3357 N   0  3  0  0  0  0  0  0  0  0  0  0
   -8.1779    5.0268   22.9936 C   0  0  1  0  0  0  0  0  0  0  0  0
   -8.2284    3.9232   23.7807 O   0  0  0  0  0  0  0  0  0  0  0  0
   -6.7784    5.7187   23.0947 C   0  0  2  0  0  0  0  0  0  0  0  0
   -6.4932    6.0629   24.4667 O   0  0  0  0  0  0  0  0  0  0  0  0
   -6.7901    6.9909   22.1807 C   0  0  2  0  0  0  0  0  0  0  0  0
   -7.0914    6.6154   20.7816 O   0  0  0  0  0  0  0  0  0  0  0  0
   -5.4711    7.7715   22.1539 C   0  0  2  0  0  0  0  0  0  0  0  0
   -4.4436    6.9403   21.7219 O   0  0  0  0  0  0  0  0  0  0  0  0
   -5.0426    8.3058   23.5327 C   0  0  0  0  0  0  0  0  0  0  0  0
  -12.1742    8.9460   18.5627 C   0  0  2  0  0  0  0  0  0  0  0  0
  -12.7481    9.9882   17.6739 N   0  3  0  0  0  0  0  0  0  0  0  0
  -11.7508    9.5604   19.9299 C   0  0  0  0  0  0  0  0  0  0  0  0
  -11.1282    8.4535   20.8557 C   0  0  2  0  0  0  0  0  0  0  0  0
  -10.7371    9.0758   22.1735 N   0  3  0  0  0  0  0  0  0  0  0  0
   -9.8979    7.8051   20.1330 C   0  0  2  0  0  0  0  0  0  0  0  0
  -10.3520    7.1967   18.7837 C   0  0  2  0  0  0  0  0  0  0  0  0
   -9.2338    6.6481   18.1289 O   0  0  0  0  0  0  0  0  0  0  0  0
  -10.9496    8.3049   17.8758 C   0  0  1  0  0  0  0  0  0  0  0  0
  -11.3565    7.7256   16.6448 O   0  0  0  0  0  0  0  0  0  0  0  0
  -12.1509    6.5721   16.6754 C   0  0  2  0  0  0  0  0  0  0  0  0
  -11.7786    5.7221   15.4458 C   0  0  2  0  0  0  0  0  0  0  0  0
  -10.4168    5.3608   15.5316 O   0  0  0  0  0  0  0  0  0  0  0  0
  -12.0538    6.5524   14.1459 C   0  0  1  0  0  0  0  0  0  0  0  0
  -11.6918    5.8123   12.9124 N   0  3  0  0  0  0  0  0  0  0  0  0
  -10.2640    6.0307   12.5666 C   0  0  0  0  0  0  0  0  0  0  0  0
  -13.5680    6.9553   14.1031 C   0  0  2  0  0  0  0  0  0  0  0  0
  -14.3894    5.7727   14.0925 O   0  0  0  0  0  0  0  0  0  0  0  0
  -13.8944    7.7256   12.9168 C   0  0  0  0  0  0  0  0  0  0  0  0
  -13.9503    7.7383   15.3969 C   0  0  0  0  0  0  0  0  0  0  0  0
  -13.5722    6.9542   16.6180 O   0  0  0  0  0  0  0  0  0  0  0  0
  1  2  1  1  0  0  0
  1  3  1  0  0  0  0
  1 10  1  0  0  0  0
  3  4  1  1  0  0  0
  3  5  1  0  0  0  0
  5  6  1  1  0  0  0
  5  7  1  0  0  0  0
  7  8  1  1  0  0  0
  7  9  1  0  0  0  0
  9 10  1  6  0  0  0
  9 11  1  0  0  0  0
 11 12  1  1  0  0  0
 11 13  1  0  0  0  0
 14 15  1  6  0  0  0
 14 16  1  0  0  0  0
 14 22  1  0  0  0  0
 16 17  1  0  0  0  0
 17 18  1  1  0  0  0
 17 19  1  0  0  0  0
 19  2  1  1  0  0  0
 19 20  1  0  0  0  0
 20 21  1  6  0  0  0
 20 22  1  0  0  0  0
 22 23  1  6  0  0  0
 24 23  1  6  0  0  0
 24 25  1  0  0  0  0
 24 34  1  0  0  0  0
 25 26  1  1  0  0  0
 25 27  1  0  0  0  0
 27 28  1  6  0  0  0
 27 30  1  0  0  0  0
 28 29  1  0  0  0  0
 30 31  1  6  0  0  0
 30 32  1  0  0  0  0
 30 33  1  0  0  0  0
 33 34  1  0  0  0  0
M  CHG  4   4   1  15   1  18   1  28   1
M  END
>  <CHROM.1>
-159.16677004,175.19640023,-57.77237242,-67.13166910,-62.90304434,58.24208185
79.73144008,172.37340363,163.05850317,100.14552238,-70.64619436,-147.23929149
-52.25942551,32.22099033,-54.15425034,-10.06215712,6.84830998,18.84156841
-0.74551113,0.67358311,-2.10553392

>  <Name>
1mwl

>  <RI>
0

>  <Rbt.Current_Directory>
/home/itssahil/PROJECTS/Mol_Feturizer/New_Systems/rnas/1mwl

>  <Rbt.Executable>
rbdock ($Id: //depot/dev/client3/rdock/2013.1/src/exe/rbdock.cxx#4 $)

>  <Rbt.Library>
libRbt.so (2013.1, Build901 2013/11/27)

>  <Rbt.Parameter_File>
/export/apps/rDock/src/rDock_2013.1_src/data/scripts/dock_solv.prm

>  <Rbt.Receptor>
prm/pocket_docking_6.prm

>  <SCORE>
-65.6171

>  <SCORE.INTER>
-52.254

>  <SCORE.INTER.CONST>
1

>  <SCORE.INTER.POLAR>
-7.09292

>  <SCORE.INTER.ROT>
6

>  <SCORE.INTER.SOLV>
25.4965

>  <SCORE.INTER.VDW>
-27.2918

>  <SCORE.INTER.norm>
-1.53688

>  <SCORE.INTRA>
-13.3631

>  <SCORE.INTRA.DIHEDRAL>
-24.8892

>  <SCORE.INTRA.DIHEDRAL.0>
42.0816

>  <SCORE.INTRA.POLAR>
0.227253

>  <SCORE.INTRA.POLAR.0>
-0.254682

>  <SCORE.INTRA.REPUL>
0

>  <SCORE.INTRA.REPUL.0>
0

>  <SCORE.INTRA.SOLV>
-1.22961

>  <SCORE.INTRA.SOLV.lig_0>
-109.803

>  <SCORE.INTRA.VDW>
-1.07636

>  <SCORE.INTRA.VDW.0>
0.32176

>  <SCORE.INTRA.norm>
-0.393033

>  <SCORE.RESTR>
0

>  <SCORE.RESTR.CAVITY>
0

>  <SCORE.RESTR.norm>
0

>  <SCORE.SYSTEM>
0

>  <SCORE.SYSTEM.CONST>
0

>  <SCORE.SYSTEM.DIHEDRAL>
0

>  <SCORE.SYSTEM.SOLV>
0

>  <SCORE.SYSTEM.norm>
0

>  <SCORE.heavy>
34

>  <SCORE.norm>
-1.92992

>  <RMSD>
2.467

$$$$
1mwl
 OpenBabel11021811403D
libRbt.so/2013.1/901 2013/11/27
 34 36  0  0  0  0  0  0  0  0999 V2000
   -9.5472    5.7684   20.8064 C   0  0  2  0  0  0  0  0  0  0  0  0
  -10.4416    6.7022   21.3325 O   0  0  0  0  0  0  0  0  0  0  0  0
   -9.5067    4.5605   21.7842 C   0  0  2  0  0  0  0  0  0  0  0  0
  -10.8470    3.9849   21.9320 N   0  3  0  0  0  0  0  0  0  0  0  0
   -8.9152    4.9874   23.1595 C   0  0  1  0  0  0  0  0  0  0  0  0
   -8.8529    3.9325   24.0100 O   0  0  0  0  0  0  0  0  0  0  0  0
   -7.4936    5.5966   22.9237 C   0  0  2  0  0  0  0  0  0  0  0  0
   -6.9099    5.9952   24.1817 O   0  0  0  0  0  0  0  0  0  0  0  0
   -7.6351    6.8166   21.9514 C   0  0  2  0  0  0  0  0  0  0  0  0
   -8.2417    6.3863   20.6722 O   0  0  0  0  0  0  0  0  0  0  0  0
   -6.3147    7.5124   21.6015 C   0  0  2  0  0  0  0  0  0  0  0  0
   -5.3308    6.5585   21.3658 O   0  0  0  0  0  0  0  0  0  0  0  0
   -5.7776    8.4170   22.7256 C   0  0  0  0  0  0  0  0  0  0  0  0
  -13.1149    9.7538   19.9907 C   0  0  2  0  0  0  0  0  0  0  0  0
  -13.6558   10.9187   19.2452 N   0  3  0  0  0  0  0  0  0  0  0  0
  -11.8909   10.1745   20.8570 C   0  0  0  0  0  0  0  0  0  0  0  0
  -11.3149    8.9314   21.6272 C   0  0  2  0  0  0  0  0  0  0  0  0
  -10.1384    9.3713   22.4633 N   0  3  0  0  0  0  0  0  0  0  0  0
  -10.9107    7.8236   20.5949 C   0  0  2  0  0  0  0  0  0  0  0  0
  -12.1485    7.4213   19.7565 C   0  0  2  0  0  0  0  0  0  0  0  0
  -11.7661    6.4516   18.8111 O   0  0  0  0  0  0  0  0  0  0  0  0
  -12.6951    8.6557   18.9904 C   0  0  1  0  0  0  0  0  0  0  0  0
  -13.8267    8.2635   18.2275 O   0  0  0  0  0  0  0  0  0  0  0  0
  -15.0033    7.9135   18.9025 C   0  0  2  0  0  0  0  0  0  0  0  0
  -15.5735    6.6577   18.2163 C   0  0  2  0  0  0  0  0  0  0  0  0
  -14.6357    5.6082   18.3253 O   0  0  0  0  0  0  0  0  0  0  0  0
  -15.8711    6.9849   16.7132 C   0  0  1  0  0  0  0  0  0  0  0  0
  -16.3976    5.8136   15.9709 N   0  3  0  0  0  0  0  0  0  0  0  0
  -15.2913    4.9196   15.5436 C   0  0  0  0  0  0  0  0  0  0  0  0
  -16.8937    8.1704   16.6370 C   0  0  2  0  0  0  0  0  0  0  0  0
  -18.1210    7.8016   17.2935 O   0  0  0  0  0  0  0  0  0  0  0  0
  -17.2189    8.5232   15.2670 C   0  0  0  0  0  0  0  0  0  0  0  0
  -16.3401    9.4054   17.4127 C   0  0  0  0  0  0  0  0  0  0  0  0
  -15.9677    9.0233   18.8141 O   0  0  0  0  0  0  0  0  0  0  0  0
  1  2  1  1  0  0  0
  1  3  1  0  0  0  0
  1 10  1  0  0  0  0
  3  4  1  1  0  0  0
  3  5  1  0  0  0  0
  5  6  1  1  0  0  0
  5  7  1  0  0  0  0
  7  8  1  1  0  0  0
  7  9  1  0  0  0  0
  9 10  1  6  0  0  0
  9 11  1  0  0  0  0
 11 12  1  1  0  0  0
 11 13  1  0  0  0  0
 14 15  1  6  0  0  0
 14 16  1  0  0  0  0
 14 22  1  0  0  0  0
 16 17  1  0  0  0  0
 17 18  1  6  0  0  0
 17 19  1  0  0  0  0
 19  2  1  1  0  0  0
 19 20  1  0  0  0  0
 20 21  1  6  0  0  0
 20 22  1  0  0  0  0
 22 23  1  1  0  0  0
 24 23  1  6  0  0  0
 24 25  1  0  0  0  0
 24 34  1  0  0  0  0
 25 26  1  6  0  0  0
 25 27  1  0  0  0  0
 27 28  1  1  0  0  0
 27 30  1  0  0  0  0
 28 29  1  0  0  0  0
 30 31  1  1  0  0  0
 30 32  1  0  0  0  0
 30 33  1  0  0  0  0
 33 34  1  0  0  0  0
M  CHG  4   4   1  15   1  18   1  28   1
M  END
>  <CHROM.1>
-168.54531437,-154.53797137,-41.61604226,51.36837154,168.65261468,42.23516356
163.53621030,74.19502865,-57.49020616,173.51195643,-51.14272401,-137.33793490
169.36876127,38.45384500,-63.56369561,-11.88891147,7.20014892,19.95412082
0.09641584,0.57154092,-3.06088690

>  <Name>
1mwl

>  <RI>
0

>  <Rbt.Current_Directory>
/home/itssahil/PROJECTS/Mol_Feturizer/New_Systems/rnas/1mwl

>  <Rbt.Executable>
rbdock ($Id: //depot/dev/client3/rdock/2013.1/src/exe/rbdock.cxx#4 $)

>  <Rbt.Library>
libRbt.so (2013.1, Build901 2013/11/27)

>  <Rbt.Parameter_File>
/export/apps/rDock/src/rDock_2013.1_src/data/scripts/dock_solv.prm

>  <Rbt.Receptor>
prm/pocket_docking_4.prm

>  <SCORE>
-60.334

>  <SCORE.INTER>
-41.934

>  <SCORE.INTER.CONST>
1

>  <SCORE.INTER.POLAR>
-6.86301

>  <SCORE.INTER.ROT>
6

>  <SCORE.INTER.SOLV>
21.7279

>  <SCORE.INTER.VDW>
-19.9219

>  <SCORE.INTER.norm>
-1.23335

>  <SCORE.INTRA>
-18.5921

>  <SCORE.INTRA.DIHEDRAL>
-26.0832

>  <SCORE.INTRA.DIHEDRAL.0>
42.0816

>  <SCORE.INTRA.POLAR>
-1.20631

>  <SCORE.INTRA.POLAR.0>
-0.254682

>  <SCORE.INTRA.REPUL>
0

>  <SCORE.INTRA.REPUL.0>
0

>  <SCORE.INTRA.SOLV>
0.757874

>  <SCORE.INTRA.SOLV.lig_0>
-109.803

>  <SCORE.INTRA.VDW>
-1.828

>  <SCORE.INTRA.VDW.0>
0.32176

>  <SCORE.INTRA.norm>
-0.546827

>  <SCORE.RESTR>
0.19203

>  <SCORE.RESTR.CAVITY>
0.19203

>  <SCORE.RESTR.norm>
0.00564793

>  <SCORE.SYSTEM>
0

>  <SCORE.SYSTEM.CONST>
0

>  <SCORE.SYSTEM.DIHEDRAL>
0

>  <SCORE.SYSTEM.SOLV>
0

>  <SCORE.SYSTEM.norm>
0

>  <SCORE.heavy>
34

>  <SCORE.norm>
-1.77453

>  <RMSD>
2.608

$$$$
1mwl
 OpenBabel11021811403D
libRbt.so/2013.1/901 2013/11/27
 34 36  0  0  0  0  0  0  0  0999 V2000
   -9.5478    7.5878   21.7879 C   0  0  2  0  0  0  0  0  0  0  0  0
   -9.4959    8.0946   20.4883 O   0  0  0  0  0  0  0  0  0  0  0  0
   -8.1176    7.1011   22.1551 C   0  0  2  0  0  0  0  0  0  0  0  0
   -7.1654    8.2116   22.0575 N   0  3  0  0  0  0  0  0  0  0  0  0
   -7.6952    5.9070   21.2500 C   0  0  1  0  0  0  0  0  0  0  0  0
   -6.4581    5.4601   21.5816 O   0  0  0  0  0  0  0  0  0  0  0  0
   -8.7569    4.7677   21.3995 C   0  0  2  0  0  0  0  0  0  0  0  0
   -8.3909    3.6380   20.5797 O   0  0  0  0  0  0  0  0  0  0  0  0
  -10.1555    5.3397   20.9864 C   0  0  2  0  0  0  0  0  0  0  0  0
  -10.5065    6.5003   21.8344 O   0  0  0  0  0  0  0  0  0  0  0  0
  -11.3140    4.3425   21.1018 C   0  0  2  0  0  0  0  0  0  0  0  0
  -10.8567    3.1564   21.6652 O   0  0  0  0  0  0  0  0  0  0  0  0
  -11.9385    3.9633   19.7466 C   0  0  0  0  0  0  0  0  0  0  0  0
  -13.4102    9.1072   19.1054 C   0  0  2  0  0  0  0  0  0  0  0  0
  -14.5368    9.8754   18.5171 N   0  3  0  0  0  0  0  0  0  0  0  0
  -12.8784    9.8072   20.3911 C   0  0  0  0  0  0  0  0  0  0  0  0
  -11.6751    8.9965   20.9952 C   0  0  2  0  0  0  0  0  0  0  0  0
  -11.1883    9.6927   22.2423 N   0  3  0  0  0  0  0  0  0  0  0  0
  -10.5413    8.8731   19.9202 C   0  0  2  0  0  0  0  0  0  0  0  0
  -11.0980    8.1667   18.6599 C   0  0  2  0  0  0  0  0  0  0  0  0
  -10.0815    8.0922   17.6898 O   0  0  0  0  0  0  0  0  0  0  0  0
  -12.2744    8.9876   18.0670 C   0  0  1  0  0  0  0  0  0  0  0  0
  -12.7670    8.3235   16.9125 O   0  0  0  0  0  0  0  0  0  0  0  0
  -12.6824    8.9754   15.6754 C   0  0  2  0  0  0  0  0  0  0  0  0
  -14.1165    9.1254   15.1333 C   0  0  2  0  0  0  0  0  0  0  0  0
  -14.8680    9.9127   16.0322 O   0  0  0  0  0  0  0  0  0  0  0  0
  -14.7546    7.7037   14.9703 C   0  0  1  0  0  0  0  0  0  0  0  0
  -16.1527    7.7622   14.4783 N   0  3  0  0  0  0  0  0  0  0  0  0
  -17.1125    7.7111   15.6107 C   0  0  0  0  0  0  0  0  0  0  0  0
  -13.8767    6.8549   13.9874 C   0  0  2  0  0  0  0  0  0  0  0  0
  -13.8199    7.4989   12.7008 O   0  0  0  0  0  0  0  0  0  0  0  0
  -14.4161    5.5223   13.7864 C   0  0  0  0  0  0  0  0  0  0  0  0
  -12.4068    6.7875   14.5050 C   0  0  0  0  0  0  0  0  0  0  0  0
  -11.8709    8.1666   14.7497 O   0  0  0  0  0  0  0  0  0  0  0  0
  1  2  1  6  0  0  0
  1  3  1  0  0  0  0
  1 10  1  0  0  0  0
  3  4  1  6  0  0  0
  3  5  1  0  0  0  0
  5  6  1  1  0  0  0
  5  7  1  0  0  0  0
  7  8  1  6  0  0  0
  7  9  1  0  0  0  0
  9 10  1  1  0  0  0
  9 11  1  0  0  0  0
 11 12  1  6  0  0  0
 11 13  1  0  0  0  0
 14 15  1  6  0  0  0
 14 16  1  0  0  0  0
 14 22  1  0  0  0  0
 16 17  1  0  0  0  0
 17 18  1  1  0  0  0
 17 19  1  0  0  0  0
 19  2  1  1  0  0  0
 19 20  1  0  0  0  0
 20 21  1  6  0  0  0
 20 22  1  0  0  0  0
 22 23  1  6  0  0  0
 24 23  1  1  0  0  0
 24 25  1  0  0  0  0
 24 34  1  0  0  0  0
 25 26  1  1  0  0  0
 25 27  1  0  0  0  0
 27 28  1  6  0  0  0
 27 30  1  0  0  0  0
 28 29  1  0  0  0  0
 30 31  1  6  0  0  0
 30 32  1  0  0  0  0
 30 33  1  0  0  0  0
 33 34  1  0  0  0  0
M  CHG  4   4   1  15   1  18   1  28   1
M  END
>  <CHROM.1>
-166.68714835,-0.84033744,-80.94696532,-59.01703167,-177.81513982,4.86080882
75.03816960,56.61810650,135.78039524,62.81812665,122.48189920,-120.08924166
176.72779805,24.73344420,-179.55508293,-11.66022030,7.34821125,18.55264505
0.23133076,-0.86879060,0.56981277

>  <Name>
1mwl

>  <RI>
0

>  <Rbt.Current_Directory>
/home/itssahil/PROJECTS/Mol_Feturizer/New_Systems/rnas/1mwl

>  <Rbt.Executable>
rbdock ($Id: //depot/dev/client3/rdock/2013.1/src/exe/rbdock.cxx#4 $)

>  <Rbt.Library>
libRbt.so (2013.1, Build901 2013/11/27)

>  <Rbt.Parameter_File>
/export/apps/rDock/src/rDock_2013.1_src/data/scripts/dock_solv.prm

>  <Rbt.Receptor>
prm/pocket_docking_2.prm

>  <SCORE>
-51.0228

>  <SCORE.INTER>
-46.929

>  <SCORE.INTER.CONST>
1

>  <SCORE.INTER.POLAR>
-8.04098

>  <SCORE.INTER.ROT>
6

>  <SCORE.INTER.SOLV>
28.3662

>  <SCORE.INTER.VDW>
-21.5382

>  <SCORE.INTER.norm>
-1.38027

>  <SCORE.INTRA>
-4.51827

>  <SCORE.INTRA.DIHEDRAL>
-6.84628

>  <SCORE.INTRA.DIHEDRAL.0>
42.0816

>  <SCORE.INTRA.POLAR>
-0.981375

>  <SCORE.INTRA.POLAR.0>
-0.254682

>  <SCORE.INTRA.REPUL>
0

>  <SCORE.INTRA.REPUL.0>
0

>  <SCORE.INTRA.SOLV>
3.11084

>  <SCORE.INTRA.SOLV.lig_0>
-109.803

>  <SCORE.INTRA.VDW>
0.686122

>  <SCORE.INTRA.VDW.0>
0.32176

>  <SCORE.INTRA.norm>
-0.13289

>  <SCORE.RESTR>
0.424537

>  <SCORE.RESTR.CAVITY>
0.424537

>  <SCORE.RESTR.norm>
0.0124864

>  <SCORE.SYSTEM>
0

>  <SCORE.SYSTEM.CONST>
0

>  <SCORE.SYSTEM.DIHEDRAL>
0

>  <SCORE.SYSTEM.SOLV>
0

>  <SCORE.SYSTEM.norm>
0

>  <SCORE.heavy>
34

>  <SCORE.norm>
-1.50067

>  <RMSD>
2.727

$$$$
1mwl
 OpenBabel11021811403D
libRbt.so/2013.1/901 2013/11/27
 34 36  0  0  0  0  0  0  0  0999 V2000
   -9.7028    7.6434   21.7020 C   0  0  2  0  0  0  0  0  0  0  0  0
   -9.6748    8.1303   20.3941 O   0  0  0  0  0  0  0  0  0  0  0  0
   -8.2493    7.2420   22.0805 C   0  0  2  0  0  0  0  0  0  0  0  0
   -7.3589    8.4011   21.9661 N   0  3  0  0  0  0  0  0  0  0  0  0
   -7.7595    6.0577   21.1966 C   0  0  1  0  0  0  0  0  0  0  0  0
   -6.5008    5.6848   21.5384 O   0  0  0  0  0  0  0  0  0  0  0  0
   -8.7577    4.8646   21.3632 C   0  0  2  0  0  0  0  0  0  0  0  0
   -8.3280    3.7430   20.5634 O   0  0  0  0  0  0  0  0  0  0  0  0
  -10.1842    5.3523   20.9375 C   0  0  2  0  0  0  0  0  0  0  0  0
  -10.6008    6.5060   21.7649 O   0  0  0  0  0  0  0  0  0  0  0  0
  -11.2868    4.2952   21.0673 C   0  0  2  0  0  0  0  0  0  0  0  0
  -10.9112    3.1410   20.3892 O   0  0  0  0  0  0  0  0  0  0  0  0
  -12.6337    4.7316   20.4625 C   0  0  0  0  0  0  0  0  0  0  0  0
  -13.6028    9.1884   19.0864 C   0  0  2  0  0  0  0  0  0  0  0  0
  -14.7303    9.9677   18.5145 N   0  3  0  0  0  0  0  0  0  0  0  0
  -13.0320    9.8939   20.3523 C   0  0  0  0  0  0  0  0  0  0  0  0
  -11.8281    9.0713   20.9388 C   0  0  2  0  0  0  0  0  0  0  0  0
  -11.3034    9.7732   22.1671 N   0  3  0  0  0  0  0  0  0  0  0  0
  -10.7205    8.9188   19.8405 C   0  0  2  0  0  0  0  0  0  0  0  0
  -11.3156    8.2076   18.6007 C   0  0  2  0  0  0  0  0  0  0  0  0
  -10.3221    8.1070   17.6093 O   0  0  0  0  0  0  0  0  0  0  0  0
  -12.4922    9.0402   18.0247 C   0  0  1  0  0  0  0  0  0  0  0  0
  -13.0203    8.3715   16.8888 O   0  0  0  0  0  0  0  0  0  0  0  0
  -12.9710    9.0168   15.6463 C   0  0  2  0  0  0  0  0  0  0  0  0
  -14.4060    9.0530   15.0873 C   0  0  2  0  0  0  0  0  0  0  0  0
  -15.2251    9.7891   15.9703 O   0  0  0  0  0  0  0  0  0  0  0  0
  -14.9329    7.5857   14.9312 C   0  0  1  0  0  0  0  0  0  0  0  0
  -16.3256    7.5338   14.4236 N   0  3  0  0  0  0  0  0  0  0  0  0
  -17.2982    7.6403   15.5411 C   0  0  0  0  0  0  0  0  0  0  0  0
  -13.9820    6.7972   13.9663 C   0  0  2  0  0  0  0  0  0  0  0  0
  -13.9592    7.4322   12.6741 O   0  0  0  0  0  0  0  0  0  0  0  0
  -14.4167    5.4258   13.7724 C   0  0  0  0  0  0  0  0  0  0  0  0
  -12.5173    6.8458   14.5004 C   0  0  0  0  0  0  0  0  0  0  0  0
  -12.0901    8.2636   14.7374 O   0  0  0  0  0  0  0  0  0  0  0  0
  1  2  1  6  0  0  0
  1  3  1  0  0  0  0
  1 10  1  0  0  0  0
  3  4  1  6  0  0  0
  3  5  1  0  0  0  0
  5  6  1  1  0  0  0
  5  7  1  0  0  0  0
  7  8  1  6  0  0  0
  7  9  1  0  0  0  0
  9 10  1  1  0  0  0
  9 11  1  0  0  0  0
 11 12  1  6  0  0  0
 11 13  1  0  0  0  0
 14 15  1  6  0  0  0
 14 16  1  0  0  0  0
 14 22  1  0  0  0  0
 16 17  1  0  0  0  0
 17 18  1  1  0  0  0
 17 19  1  0  0  0  0
 19  2  1  1  0  0  0
 19 20  1  0  0  0  0
 20 21  1  6  0  0  0
 20 22  1  0  0  0  0
 22 23  1  6  0  0  0
 24 23  1  1  0  0  0
 24 25  1  0  0  0  0
 24 34  1  0  0  0  0
 25 26  1  1  0  0  0
 25 27  1  0  0  0  0
 27 28  1  6  0  0  0
 27 30  1  0  0  0  0
 28 29  1  0  0  0  0
 30 31  1  6  0  0  0
 30 32  1  0  0  0  0
 30 33  1  0  0  0  0
 33 34  1  0  0  0  0
M  CHG  4   4   1  15   1  18   1  28   1
M  END
>  <CHROM.1>
-162.26416847,-1.13466938,141.89783420,-64.00767391,-51.78573409,-53.20819387
55.60584954,49.16175066,-104.31682839,59.23990110,121.55547571,-125.14143788
89.87871240,33.82826585,56.13440481,-11.81846175,7.40487823,18.48470909,0.29320706
-0.82908410,0.63258723

>  <Name>
1mwl

>  <RI>
0

>  <Rbt.Current_Directory>
/home/itssahil/PROJECTS/Mol_Feturizer/New_Systems/rnas/1mwl

>  <Rbt.Executable>
rbdock ($Id: //depot/dev/client3/rdock/2013.1/src/exe/rbdock.cxx#4 $)

>  <Rbt.Library>
libRbt.so (2013.1, Build901 2013/11/27)

>  <Rbt.Parameter_File>
/export/apps/rDock/src/rDock_2013.1_src/data/scripts/dock_solv.prm

>  <Rbt.Receptor>
prm/pocket_docking_2.prm

>  <SCORE>
-53.3625

>  <SCORE.INTER>
-47.9444

>  <SCORE.INTER.CONST>
1

>  <SCORE.INTER.POLAR>
-8.3552

>  <SCORE.INTER.ROT>
6

>  <SCORE.INTER.SOLV>
28.1299

>  <SCORE.INTER.VDW>
-21.0889

>  <SCORE.INTER.norm>
-1.41013

>  <SCORE.INTRA>
-6.43203

>  <SCORE.INTRA.DIHEDRAL>
-7.5427

>  <SCORE.INTRA.DIHEDRAL.0>
42.0816

>  <SCORE.INTRA.POLAR>
-1.28536

>  <SCORE.INTRA.POLAR.0>
-0.254682

>  <SCORE.INTRA.REPUL>
0.00123032

>  <SCORE.INTRA.REPUL.0>
0

>  <SCORE.INTRA.SOLV>
2.8864

>  <SCORE.INTRA.SOLV.lig_0>
-109.803

>  <SCORE.INTRA.VDW>
0.260197

>  <SCORE.INTRA.VDW.0>
0.32176

>  <SCORE.INTRA.norm>
-0.189177

>  <SCORE.RESTR>
1.01387

>  <SCORE.RESTR.CAVITY>
1.01387

>  <SCORE.RESTR.norm>
0.0298196

>  <SCORE.SYSTEM>
0

>  <SCORE.SYSTEM.CONST>
0

>  <SCORE.SYSTEM.DIHEDRAL>
0

>  <SCORE.SYSTEM.SOLV>
0

>  <SCORE.SYSTEM.norm>
0

>  <SCORE.heavy>
34

>  <SCORE.norm>
-1.56949

>  <RMSD>
2.749

$$$$
1mwl
 OpenBabel11021811403D
libRbt.so/2013.1/901 2013/11/27
 34 36  0  0  0  0  0  0  0  0999 V2000
   -9.6677    7.7348   21.9590 C   0  0  2  0  0  0  0  0  0  0  0  0
   -9.7383    8.3266   20.6967 O   0  0  0  0  0  0  0  0  0  0  0  0
   -8.1896    7.3142   22.1938 C   0  0  2  0  0  0  0  0  0  0  0  0
   -7.3113    8.4850   22.1081 N   0  3  0  0  0  0  0  0  0  0  0  0
   -7.7663    6.2091   21.1823 C   0  0  1  0  0  0  0  0  0  0  0  0
   -6.4852    5.8185   21.3976 O   0  0  0  0  0  0  0  0  0  0  0  0
   -8.7481    4.9995   21.3251 C   0  0  2  0  0  0  0  0  0  0  0  0
   -8.3786    3.9496   20.4068 O   0  0  0  0  0  0  0  0  0  0  0  0
  -10.2030    5.5100   21.0484 C   0  0  2  0  0  0  0  0  0  0  0  0
  -10.5574    6.5898   21.9959 O   0  0  0  0  0  0  0  0  0  0  0  0
  -11.2918    4.4382   21.1736 C   0  0  2  0  0  0  0  0  0  0  0  0
  -11.2390    3.8624   22.4381 O   0  0  0  0  0  0  0  0  0  0  0  0
  -11.1387    3.2832   20.1672 C   0  0  0  0  0  0  0  0  0  0  0  0
  -13.7491    8.3336   19.2225 C   0  0  2  0  0  0  0  0  0  0  0  0
  -15.0334    8.8090   18.6482 N   0  3  0  0  0  0  0  0  0  0  0  0
  -13.4629    9.0323   20.5848 C   0  0  0  0  0  0  0  0  0  0  0  0
  -12.0934    8.5362   21.1750 C   0  0  2  0  0  0  0  0  0  0  0  0
  -11.8487    9.2222   22.4965 N   0  3  0  0  0  0  0  0  0  0  0  0
  -10.9481    8.8326   20.1470 C   0  0  2  0  0  0  0  0  0  0  0  0
  -11.2568    8.1185   18.8084 C   0  0  2  0  0  0  0  0  0  0  0  0
  -10.2399    8.4194   17.8835 O   0  0  0  0  0  0  0  0  0  0  0  0
  -12.6036    8.6309   18.2315 C   0  0  1  0  0  0  0  0  0  0  0  0
  -12.8650    7.9654   17.0046 O   0  0  0  0  0  0  0  0  0  0  0  0
  -12.6867    8.6700   15.8070 C   0  0  2  0  0  0  0  0  0  0  0  0
  -14.0843    8.9486   15.2224 C   0  0  2  0  0  0  0  0  0  0  0  0
  -14.8143    9.7419   16.1336 O   0  0  0  0  0  0  0  0  0  0  0  0
  -14.8126    7.5859   14.9625 C   0  0  1  0  0  0  0  0  0  0  0  0
  -16.1828    7.7682   14.4245 N   0  3  0  0  0  0  0  0  0  0  0  0
  -17.1792    7.8157   15.5250 C   0  0  0  0  0  0  0  0  0  0  0  0
  -13.9576    6.7264   13.9689 C   0  0  2  0  0  0  0  0  0  0  0  0
  -13.8055    7.4277   12.7205 O   0  0  0  0  0  0  0  0  0  0  0  0
  -14.5798    5.4472   13.6793 C   0  0  0  0  0  0  0  0  0  0  0  0
  -12.5175    6.5288   14.5346 C   0  0  0  0  0  0  0  0  0  0  0  0
  -11.8973    7.8523   14.8701 O   0  0  0  0  0  0  0  0  0  0  0  0
  1  2  1  6  0  0  0
  1  3  1  0  0  0  0
  1 10  1  0  0  0  0
  3  4  1  6  0  0  0
  3  5  1  0  0  0  0
  5  6  1  1  0  0  0
  5  7  1  0  0  0  0
  7  8  1  6  0  0  0
  7  9  1  0  0  0  0
  9 10  1  1  0  0  0
  9 11  1  0  0  0  0
 11 12  1  1  0  0  0
 11 13  1  0  0  0  0
 14 15  1  6  0  0  0
 14 16  1  0  0  0  0
 14 22  1  0  0  0  0
 16 17  1  0  0  0  0
 17 18  1  1  0  0  0
 17 19  1  0  0  0  0
 19  2  1  1  0  0  0
 19 20  1  0  0  0  0
 20 21  1  6  0  0  0
 20 22  1  0  0  0  0
 22 23  1  6  0  0  0
 24 23  1  1  0  0  0
 24 25  1  0  0  0  0
 24 34  1  0  0  0  0
 25 26  1  1  0  0  0
 25 27  1  0  0  0  0
 27 28  1  6  0  0  0
 27 30  1  0  0  0  0
 28 29  1  0  0  0  0
 30 31  1  6  0  0  0
 30 32  1  0  0  0  0
 30 33  1  0  0  0  0
 33 34  1  0  0  0  0
M  CHG  4   4   1  15   1  18   1  28   1
M  END
>  <CHROM.1>
179.93194651,-2.32604671,133.81014108,70.88954859,-50.96618838,56.56072258
59.92990798,-87.72673910,147.60360335,56.39364676,134.68423448,-108.55313908
130.74728755,28.31891852,-178.00684782,-11.79024014,7.26556052,18.65362409
0.54243131,-0.75933528,0.92891553

>  <Name>
1mwl

>  <RI>
0

>  <Rbt.Current_Directory>
/home/itssahil/PROJECTS/Mol_Feturizer/New_Systems/rnas/1mwl

>  <Rbt.Executable>
rbdock ($Id: //depot/dev/client3/rdock/2013.1/src/exe/rbdock.cxx#4 $)

>  <Rbt.Library>
libRbt.so (2013.1, Build901 2013/11/27)

>  <Rbt.Parameter_File>
/export/apps/rDock/src/rDock_2013.1_src/data/scripts/dock_solv.prm

>  <Rbt.Receptor>
prm/pocket_docking_7.prm

>  <SCORE>
-50.8164

>  <SCORE.INTER>
-49.7898

>  <SCORE.INTER.CONST>
1

>  <SCORE.INTER.POLAR>
-8.76896

>  <SCORE.INTER.ROT>
6

>  <SCORE.INTER.SOLV>
27.15

>  <SCORE.INTER.VDW>
-20.6133

>  <SCORE.INTER.norm>
-1.46441

>  <SCORE.INTRA>
-1.04804

>  <SCORE.INTRA.DIHEDRAL>
-5.62599

>  <SCORE.INTRA.DIHEDRAL.0>
42.0816

>  <SCORE.INTRA.POLAR>
-0.806746

>  <SCORE.INTRA.POLAR.0>
-0.254682

>  <SCORE.INTRA.REPUL>
0

>  <SCORE.INTRA.REPUL.0>
0

>  <SCORE.INTRA.SOLV>
1.83986

>  <SCORE.INTRA.SOLV.lig_0>
-109.803

>  <SCORE.INTRA.VDW>
3.58796

>  <SCORE.INTRA.VDW.0>
0.32176

>  <SCORE.INTRA.norm>
-0.0308247

>  <SCORE.RESTR>
0.0214161

>  <SCORE.RESTR.CAVITY>
0.0214161

>  <SCORE.RESTR.norm>
0.000629885

>  <SCORE.SYSTEM>
0

>  <SCORE.SYSTEM.CONST>
0

>  <SCORE.SYSTEM.DIHEDRAL>
0

>  <SCORE.SYSTEM.SOLV>
0

>  <SCORE.SYSTEM.norm>
0

>  <SCORE.heavy>
34

>  <SCORE.norm>
-1.4946

>  <RMSD>
2.785

$$$$
1mwl
 OpenBabel11021811403D
libRbt.so/2013.1/901 2013/11/27
 34 36  0  0  0  0  0  0  0  0999 V2000
   -9.7091    7.7602   21.9597 C   0  0  2  0  0  0  0  0  0  0  0  0
   -9.8061    8.4125   20.7294 O   0  0  0  0  0  0  0  0  0  0  0  0
   -8.2127    7.3999   22.1788 C   0  0  2  0  0  0  0  0  0  0  0  0
   -7.3922    8.6147   22.1575 N   0  3  0  0  0  0  0  0  0  0  0  0
   -7.7346    6.3705   21.1133 C   0  0  1  0  0  0  0  0  0  0  0  0
   -6.4364    6.0317   21.3135 O   0  0  0  0  0  0  0  0  0  0  0  0
   -8.6568    5.1090   21.1891 C   0  0  2  0  0  0  0  0  0  0  0  0
   -8.2351    4.1273   20.2193 O   0  0  0  0  0  0  0  0  0  0  0  0
  -10.1343    5.5623   20.9329 C   0  0  2  0  0  0  0  0  0  0  0  0
  -10.5423    6.5731   21.9335 O   0  0  0  0  0  0  0  0  0  0  0  0
  -11.1700    4.4340   20.9979 C   0  0  2  0  0  0  0  0  0  0  0  0
  -10.8017    3.4098   20.1326 O   0  0  0  0  0  0  0  0  0  0  0  0
  -12.5841    4.8699   20.5729 C   0  0  0  0  0  0  0  0  0  0  0  0
  -13.8360    8.3164   19.3114 C   0  0  2  0  0  0  0  0  0  0  0  0
  -15.1417    8.7597   18.7600 N   0  3  0  0  0  0  0  0  0  0  0  0
  -13.5510    9.0095   20.6769 C   0  0  0  0  0  0  0  0  0  0  0  0
  -12.1592    8.5479   21.2427 C   0  0  2  0  0  0  0  0  0  0  0  0
  -11.9159    9.2275   22.5677 N   0  3  0  0  0  0  0  0  0  0  0  0
  -11.0379    8.8882   20.2020 C   0  0  2  0  0  0  0  0  0  0  0  0
  -11.3446    8.1788   18.8604 C   0  0  2  0  0  0  0  0  0  0  0  0
  -10.3503    8.5188   17.9245 O   0  0  0  0  0  0  0  0  0  0  0  0
  -12.7139    8.6572   18.3077 C   0  0  1  0  0  0  0  0  0  0  0  0
  -12.9732    7.9966   17.0777 O   0  0  0  0  0  0  0  0  0  0  0  0
  -12.7927    8.7061   15.8832 C   0  0  2  0  0  0  0  0  0  0  0  0
  -14.1850    8.9270   15.2622 C   0  0  2  0  0  0  0  0  0  0  0  0
  -14.9697    9.6915   16.1524 O   0  0  0  0  0  0  0  0  0  0  0  0
  -14.8506    7.5355   14.9873 C   0  0  1  0  0  0  0  0  0  0  0  0
  -16.2127    7.6613   14.4137 N   0  3  0  0  0  0  0  0  0  0  0  0
  -17.2363    7.6972   15.4895 C   0  0  0  0  0  0  0  0  0  0  0  0
  -13.9362    6.7098   14.0181 C   0  0  2  0  0  0  0  0  0  0  0  0
  -13.7805    7.4148   12.7722 O   0  0  0  0  0  0  0  0  0  0  0  0
  -14.4984    5.4060   13.7159 C   0  0  0  0  0  0  0  0  0  0  0  0
  -12.5043    6.5716   14.6211 C   0  0  0  0  0  0  0  0  0  0  0  0
  -11.9471    7.9196   14.9690 O   0  0  0  0  0  0  0  0  0  0  0  0
  1  2  1  6  0  0  0
  1  3  1  0  0  0  0
  1 10  1  0  0  0  0
  3  4  1  6  0  0  0
  3  5  1  0  0  0  0
  5  6  1  1  0  0  0
  5  7  1  0  0  0  0
  7  8  1  6  0  0  0
  7  9  1  0  0  0  0
  9 10  1  1  0  0  0
  9 11  1  0  0  0  0
 11 12  1  6  0  0  0
 11 13  1  0  0  0  0
 14 15  1  6  0  0  0
 14 16  1  0  0  0  0
 14 22  1  0  0  0  0
 16 17  1  0  0  0  0
 17 18  1  1  0  0  0
 17 19  1  0  0  0  0
 19  2  1  1  0  0  0
 19 20  1  0  0  0  0
 20 21  1  6  0  0  0
 20 22  1  0  0  0  0
 22 23  1  6  0  0  0
 24 23  1  1  0  0  0
 24 25  1  0  0  0  0
 24 34  1  0  0  0  0
 25 26  1  1  0  0  0
 25 27  1  0  0  0  0
 27 28  1  6  0  0  0
 27 30  1  0  0  0  0
 28 29  1  0  0  0  0
 30 31  1  6  0  0  0
 30 32  1  0  0  0  0
 30 33  1  0  0  0  0
 33 34  1  0  0  0  0
M  CHG  4   4   1  15   1  18   1  28   1
M  END
>  <CHROM.1>
179.98645194,0.44401124,5.59659430,-141.84444104,-54.41563583,-54.10185852
177.40063484,159.47995693,-92.13919206,58.57421349,136.62947753,-111.27451712
170.71557029,29.44373110,-58.07093161,-11.85332134,7.32469164,18.59531630
0.59331966,-0.67430322,0.99276033

>  <Name>
1mwl

>  <RI>
0

>  <Rbt.Current_Directory>
/home/itssahil/PROJECTS/Mol_Feturizer/New_Systems/rnas/1mwl

>  <Rbt.Executable>
rbdock ($Id: //depot/dev/client3/rdock/2013.1/src/exe/rbdock.cxx#4 $)

>  <Rbt.Library>
libRbt.so (2013.1, Build901 2013/11/27)

>  <Rbt.Parameter_File>
/export/apps/rDock/src/rDock_2013.1_src/data/scripts/dock_solv.prm

>  <Rbt.Receptor>
prm/pocket_docking_3.prm

>  <SCORE>
-40.117

>  <SCORE.INTER>
-37.0637

>  <SCORE.INTER.CONST>
1

>  <SCORE.INTER.POLAR>
-7.06538

>  <SCORE.INTER.ROT>
6

>  <SCORE.INTER.SOLV>
26.8612

>  <SCORE.INTER.VDW>
-17.7117

>  <SCORE.INTER.norm>
-1.09011

>  <SCORE.INTRA>
-3.13105

>  <SCORE.INTRA.DIHEDRAL>
-7.88569

>  <SCORE.INTRA.DIHEDRAL.0>
42.0816

>  <SCORE.INTRA.POLAR>
-0.579259

>  <SCORE.INTRA.POLAR.0>
-0.254682

>  <SCORE.INTRA.REPUL>
0

>  <SCORE.INTRA.REPUL.0>
0

>  <SCORE.INTRA.SOLV>
2.27085

>  <SCORE.INTRA.SOLV.lig_0>
-109.803

>  <SCORE.INTRA.VDW>
1.64585

>  <SCORE.INTRA.VDW.0>
0.32176

>  <SCORE.INTRA.norm>
-0.0920898

>  <SCORE.RESTR>
0.0778263

>  <SCORE.RESTR.CAVITY>
0.0778263

>  <SCORE.RESTR.norm>
0.00228901

>  <SCORE.SYSTEM>
0

>  <SCORE.SYSTEM.CONST>
0

>  <SCORE.SYSTEM.DIHEDRAL>
0

>  <SCORE.SYSTEM.SOLV>
0

>  <SCORE.SYSTEM.norm>
0

>  <SCORE.heavy>
34

>  <SCORE.norm>
-1.17991

>  <RMSD>
2.831

$$$$
1mwl
 OpenBabel11021811403D
libRbt.so/2013.1/901 2013/11/27
 34 36  0  0  0  0  0  0  0  0999 V2000
  -11.4957    5.0582   20.6492 C   0  0  2  0  0  0  0  0  0  0  0  0
  -11.6396    6.4233   20.9027 O   0  0  0  0  0  0  0  0  0  0  0  0
  -10.9500    4.3988   21.9470 C   0  0  2  0  0  0  0  0  0  0  0  0
  -11.8733    4.6359   23.0609 N   0  3  0  0  0  0  0  0  0  0  0  0
   -9.5206    4.9240   22.2701 C   0  0  1  0  0  0  0  0  0  0  0  0
   -9.0274    4.3338   23.3875 O   0  0  0  0  0  0  0  0  0  0  0  0
   -8.5963    4.6445   21.0392 C   0  0  2  0  0  0  0  0  0  0  0  0
   -7.2575    5.1107   21.3082 O   0  0  0  0  0  0  0  0  0  0  0  0
   -9.2081    5.3645   19.7897 C   0  0  2  0  0  0  0  0  0  0  0  0
  -10.5820    4.8767   19.5373 O   0  0  0  0  0  0  0  0  0  0  0  0
   -8.4230    5.1650   18.4883 C   0  0  2  0  0  0  0  0  0  0  0  0
   -8.8228    6.1105   17.5505 O   0  0  0  0  0  0  0  0  0  0  0  0
   -8.6494    3.7887   17.8364 C   0  0  0  0  0  0  0  0  0  0  0  0
  -13.3624    9.8705   19.0564 C   0  0  2  0  0  0  0  0  0  0  0  0
  -13.7165   10.8858   18.0321 N   0  3  0  0  0  0  0  0  0  0  0  0
  -11.8268    9.8632   19.3168 C   0  0  0  0  0  0  0  0  0  0  0  0
  -11.4605    8.7733   20.3882 C   0  0  2  0  0  0  0  0  0  0  0  0
   -9.9706    8.7966   20.6256 N   0  3  0  0  0  0  0  0  0  0  0  0
  -11.9458    7.3699   19.8869 C   0  0  2  0  0  0  0  0  0  0  0  0
  -13.4747    7.4069   19.6459 C   0  0  2  0  0  0  0  0  0  0  0  0
  -13.8931    6.1527   19.1640 O   0  0  0  0  0  0  0  0  0  0  0  0
  -13.8177    8.4765   18.5746 C   0  0  1  0  0  0  0  0  0  0  0  0
  -15.2226    8.4912   18.3681 O   0  0  0  0  0  0  0  0  0  0  0  0
  -15.7266    9.1222   17.2233 C   0  0  2  0  0  0  0  0  0  0  0  0
  -17.0182    8.3857   16.8207 C   0  0  2  0  0  0  0  0  0  0  0  0
  -17.9552    8.4929   17.8710 O   0  0  0  0  0  0  0  0  0  0  0  0
  -16.6818    6.8842   16.5254 C   0  0  1  0  0  0  0  0  0  0  0  0
  -17.8828    6.0952   16.1576 N   0  3  0  0  0  0  0  0  0  0  0  0
  -17.8943    4.7908   16.8679 C   0  0  0  0  0  0  0  0  0  0  0  0
  -15.6205    6.8111   15.3742 C   0  0  2  0  0  0  0  0  0  0  0  0
  -16.1484    7.4216   14.1817 O   0  0  0  0  0  0  0  0  0  0  0  0
  -15.2658    5.4425   15.0451 C   0  0  0  0  0  0  0  0  0  0  0  0
  -14.3541    7.6359   15.7605 C   0  0  0  0  0  0  0  0  0  0  0  0
  -14.7333    9.0365   16.1391 O   0  0  0  0  0  0  0  0  0  0  0  0
  1  2  1  1  0  0  0
  1  3  1  0  0  0  0
  1 10  1  0  0  0  0
  3  4  1  1  0  0  0
  3  5  1  0  0  0  0
  5  6  1  1  0  0  0
  5  7  1  0  0  0  0
  7  8  1  1  0  0  0
  7  9  1  0  0  0  0
  9 10  1  6  0  0  0
  9 11  1  0  0  0  0
 11 12  1  6  0  0  0
 11 13  1  0  0  0  0
 14 15  1  6  0  0  0
 14 16  1  0  0  0  0
 14 22  1  0  0  0  0
 16 17  1  0  0  0  0
 17 18  1  6  0  0  0
 17 19  1  0  0  0  0
 19  2  1  1  0  0  0
 19 20  1  0  0  0  0
 20 21  1  6  0  0  0
 20 22  1  0  0  0  0
 22 23  1  1  0  0  0
 24 23  1  1  0  0  0
 24 25  1  0  0  0  0
 24 34  1  0  0  0  0
 25 26  1  1  0  0  0
 25 27  1  0  0  0  0
 27 28  1  6  0  0  0
 27 30  1  0  0  0  0
 28 29  1  0  0  0  0
 30 31  1  6  0  0  0
 30 32  1  0  0  0  0
 30 33  1  0  0  0  0
 33 34  1  0  0  0  0
M  CHG  4   4   1  15   1  18   1  28   1
M  END
>  <CHROM.1>
171.28412681,-157.26386871,168.75164713,41.23926556,61.97422885,-163.93969691
-51.05772409,-28.80440837,69.54239036,-171.87965252,75.84445868,149.16112606
-52.91925817,-15.30592645,70.91692385,-12.76708499,6.79041323,18.79679813
0.13802598,0.62578215,-2.88203370

>  <Name>
1mwl

>  <RI>
0

>  <Rbt.Current_Directory>
/home/itssahil/PROJECTS/Mol_Feturizer/New_Systems/rnas/1mwl

>  <Rbt.Executable>
rbdock ($Id: //depot/dev/client3/rdock/2013.1/src/exe/rbdock.cxx#4 $)

>  <Rbt.Library>
libRbt.so (2013.1, Build901 2013/11/27)

>  <Rbt.Parameter_File>
/export/apps/rDock/src/rDock_2013.1_src/data/scripts/dock_solv.prm

>  <Rbt.Receptor>
prm/pocket_docking_4.prm

>  <SCORE>
-61.6678

>  <SCORE.INTER>
-45.3688

>  <SCORE.INTER.CONST>
1

>  <SCORE.INTER.POLAR>
-7.60665

>  <SCORE.INTER.ROT>
6

>  <SCORE.INTER.SOLV>
22.3214

>  <SCORE.INTER.VDW>
-19.9309

>  <SCORE.INTER.norm>
-1.33438

>  <SCORE.INTRA>
-16.3965

>  <SCORE.INTRA.DIHEDRAL>
-24.7854

>  <SCORE.INTRA.DIHEDRAL.0>
42.0816

>  <SCORE.INTRA.POLAR>
-0.666541

>  <SCORE.INTRA.POLAR.0>
-0.254682

>  <SCORE.INTRA.REPUL>
0

>  <SCORE.INTRA.REPUL.0>
0

>  <SCORE.INTRA.SOLV>
-0.925159

>  <SCORE.INTRA.SOLV.lig_0>
-109.803

>  <SCORE.INTRA.VDW>
-1.27497

>  <SCORE.INTRA.VDW.0>
0.32176

>  <SCORE.INTRA.norm>
-0.482249

>  <SCORE.RESTR>
0.0974792

>  <SCORE.RESTR.CAVITY>
0.0974792

>  <SCORE.RESTR.norm>
0.00286704

>  <SCORE.SYSTEM>
0

>  <SCORE.SYSTEM.CONST>
0

>  <SCORE.SYSTEM.DIHEDRAL>
0

>  <SCORE.SYSTEM.SOLV>
0

>  <SCORE.SYSTEM.norm>
0

>  <SCORE.heavy>
34

>  <SCORE.norm>
-1.81376

>  <RMSD>
2.958

$$$$
1mwl
 OpenBabel11021811403D
libRbt.so/2013.1/901 2013/11/27
 34 36  0  0  0  0  0  0  0  0999 V2000
  -12.3096    5.7576   20.5908 C   0  0  2  0  0  0  0  0  0  0  0  0
  -11.8142    6.9561   21.1072 O   0  0  0  0  0  0  0  0  0  0  0  0
  -11.9116    4.6253   21.5789 C   0  0  2  0  0  0  0  0  0  0  0  0
  -12.4651    4.8976   22.9090 N   0  3  0  0  0  0  0  0  0  0  0  0
  -10.3645    4.4592   21.6287 C   0  0  1  0  0  0  0  0  0  0  0  0
  -10.0105    3.4555   22.4698 O   0  0  0  0  0  0  0  0  0  0  0  0
   -9.8458    4.1795   20.1794 C   0  0  2  0  0  0  0  0  0  0  0  0
   -8.4129    4.0100   20.1895 O   0  0  0  0  0  0  0  0  0  0  0  0
  -10.2695    5.3782   19.2642 C   0  0  2  0  0  0  0  0  0  0  0  0
  -11.7405    5.5377   19.2749 O   0  0  0  0  0  0  0  0  0  0  0  0
   -9.8511    5.2411   17.7959 C   0  0  2  0  0  0  0  0  0  0  0  0
  -10.3741    4.0660   17.2677 O   0  0  0  0  0  0  0  0  0  0  0  0
   -8.3268    5.1637   17.5937 C   0  0  0  0  0  0  0  0  0  0  0  0
  -13.4318   10.7057   19.8488 C   0  0  2  0  0  0  0  0  0  0  0  0
  -13.5816   12.0063   19.1477 N   0  3  0  0  0  0  0  0  0  0  0  0
  -12.1727   10.7162   20.7656 C   0  0  0  0  0  0  0  0  0  0  0  0
  -12.0129    9.3298   21.4885 C   0  0  2  0  0  0  0  0  0  0  0  0
  -10.7926    9.3737   22.3747 N   0  3  0  0  0  0  0  0  0  0  0  0
  -11.9084    8.1938   20.4137 C   0  0  2  0  0  0  0  0  0  0  0  0
  -13.1764    8.2038   19.5253 C   0  0  2  0  0  0  0  0  0  0  0  0
  -13.0559    7.2028   18.5437 O   0  0  0  0  0  0  0  0  0  0  0  0
  -13.3107    9.5732   18.8070 C   0  0  1  0  0  0  0  0  0  0  0  0
  -14.4771    9.5589   17.9972 O   0  0  0  0  0  0  0  0  0  0  0  0
  -14.4659   10.2711   16.7908 C   0  0  2  0  0  0  0  0  0  0  0  0
  -15.6826    9.8060   15.9685 C   0  0  2  0  0  0  0  0  0  0  0  0
  -16.8624   10.1054   16.6834 O   0  0  0  0  0  0  0  0  0  0  0  0
  -15.5660    8.2658   15.7061 C   0  0  1  0  0  0  0  0  0  0  0  0
  -16.7195    7.7313   14.9418 N   0  3  0  0  0  0  0  0  0  0  0  0
  -17.9227    7.6290   15.8065 C   0  0  0  0  0  0  0  0  0  0  0  0
  -14.2324    7.9743   14.9356 C   0  0  2  0  0  0  0  0  0  0  0  0
  -14.2326    8.6708   13.6753 O   0  0  0  0  0  0  0  0  0  0  0  0
  -14.0628    6.5603   14.6541 C   0  0  0  0  0  0  0  0  0  0  0  0
  -13.0171    8.5308   15.7396 C   0  0  0  0  0  0  0  0  0  0  0  0
  -13.2190    9.9813   16.0622 O   0  0  0  0  0  0  0  0  0  0  0  0
  1  2  1  1  0  0  0
  1  3  1  0  0  0  0
  1 10  1  0  0  0  0
  3  4  1  1  0  0  0
  3  5  1  0  0  0  0
  5  6  1  1  0  0  0
  5  7  1  0  0  0  0
  7  8  1  1  0  0  0
  7  9  1  0  0  0  0
  9 10  1  6  0  0  0
  9 11  1  0  0  0  0
 11 12  1  1  0  0  0
 11 13  1  0  0  0  0
 14 15  1  6  0  0  0
 14 16  1  0  0  0  0
 14 22  1  0  0  0  0
 16 17  1  0  0  0  0
 17 18  1  6  0  0  0
 17 19  1  0  0  0  0
 19  2  1  1  0  0  0
 19 20  1  0  0  0  0
 20 21  1  6  0  0  0
 20 22  1  0  0  0  0
 22 23  1  6  0  0  0
 24 23  1  1  0  0  0
 24 25  1  0  0  0  0
 24 34  1  0  0  0  0
 25 26  1  1  0  0  0
 25 27  1  0  0  0  0
 27 28  1  6  0  0  0
 27 30  1  0  0  0  0
 28 29  1  0  0  0  0
 30 31  1  6  0  0  0
 30 32  1  0  0  0  0
 30 33  1  0  0  0  0
 33 34  1  0  0  0  0
M  CHG  4   4   1  15   1  18   1  28   1
M  END
>  <CHROM.1>
175.31818307,149.36486471,49.58487146,-179.84996606,-58.65849082,57.19369074
174.54199961,-173.98335663,-174.15815427,-56.57603983,93.57460618,166.04291535
57.33595660,45.15697390,-60.51608430,-12.68687357,7.46081680,18.57934518
0.16652142,-0.90151908,0.92067749

>  <Name>
1mwl

>  <RI>
0

>  <Rbt.Current_Directory>
/home/itssahil/PROJECTS/Mol_Feturizer/New_Systems/rnas/1mwl

>  <Rbt.Executable>
rbdock ($Id: //depot/dev/client3/rdock/2013.1/src/exe/rbdock.cxx#4 $)

>  <Rbt.Library>
libRbt.so (2013.1, Build901 2013/11/27)

>  <Rbt.Parameter_File>
/export/apps/rDock/src/rDock_2013.1_src/data/scripts/dock_solv.prm

>  <Rbt.Receptor>
prm/pocket_docking_7.prm

>  <SCORE>
-54.3062

>  <SCORE.INTER>
-41.4917

>  <SCORE.INTER.CONST>
1

>  <SCORE.INTER.POLAR>
-6.89399

>  <SCORE.INTER.ROT>
6

>  <SCORE.INTER.SOLV>
23.3378

>  <SCORE.INTER.VDW>
-20.0605

>  <SCORE.INTER.norm>
-1.22034

>  <SCORE.INTRA>
-12.8145

>  <SCORE.INTRA.DIHEDRAL>
-31.759

>  <SCORE.INTRA.DIHEDRAL.0>
42.0816

>  <SCORE.INTRA.POLAR>
0.254682

>  <SCORE.INTRA.POLAR.0>
-0.254682

>  <SCORE.INTRA.REPUL>
0

>  <SCORE.INTRA.REPUL.0>
0

>  <SCORE.INTRA.SOLV>
-2.17178

>  <SCORE.INTRA.SOLV.lig_0>
-109.803

>  <SCORE.INTRA.VDW>
3.28495

>  <SCORE.INTRA.VDW.0>
0.32176

>  <SCORE.INTRA.norm>
-0.376897

>  <SCORE.RESTR>
0

>  <SCORE.RESTR.CAVITY>
0

>  <SCORE.RESTR.norm>
0

>  <SCORE.SYSTEM>
0

>  <SCORE.SYSTEM.CONST>
0

>  <SCORE.SYSTEM.DIHEDRAL>
0

>  <SCORE.SYSTEM.SOLV>
0

>  <SCORE.SYSTEM.norm>
0

>  <SCORE.heavy>
34

>  <SCORE.norm>
-1.59724

>  <RMSD>
2.966

$$$$
1mwl
 OpenBabel11021811403D
libRbt.so/2013.1/901 2013/11/27
 34 36  0  0  0  0  0  0  0  0999 V2000
   -9.6670    7.6193   22.0103 C   0  0  2  0  0  0  0  0  0  0  0  0
   -9.8137    8.2363   20.7668 O   0  0  0  0  0  0  0  0  0  0  0  0
   -8.1623    7.2678   22.1809 C   0  0  2  0  0  0  0  0  0  0  0  0
   -7.3464    8.4827   22.0932 N   0  3  0  0  0  0  0  0  0  0  0  0
   -7.7233    6.2093   21.1270 C   0  0  1  0  0  0  0  0  0  0  0  0
   -6.4174    5.8784   21.2859 O   0  0  0  0  0  0  0  0  0  0  0  0
   -8.6385    4.9491   21.2745 C   0  0  2  0  0  0  0  0  0  0  0  0
   -8.2523    3.9409   20.3171 O   0  0  0  0  0  0  0  0  0  0  0  0
  -10.1260    5.3925   21.0635 C   0  0  2  0  0  0  0  0  0  0  0  0
  -10.4974    6.4307   22.0503 O   0  0  0  0  0  0  0  0  0  0  0  0
  -11.1554    4.2649   21.2007 C   0  0  2  0  0  0  0  0  0  0  0  0
  -10.8579    3.2472   20.3012 O   0  0  0  0  0  0  0  0  0  0  0  0
  -12.5978    4.7057   20.8915 C   0  0  0  0  0  0  0  0  0  0  0  0
  -13.8511    7.6445   19.4985 C   0  0  2  0  0  0  0  0  0  0  0  0
  -15.1913    7.9021   18.9128 N   0  3  0  0  0  0  0  0  0  0  0  0
  -13.5896    8.5867   20.7108 C   0  0  0  0  0  0  0  0  0  0  0  0
  -12.1622    8.3189   21.3116 C   0  0  2  0  0  0  0  0  0  0  0  0
  -11.9420    9.2381   22.4877 N   0  3  0  0  0  0  0  0  0  0  0  0
  -11.0818    8.5346   20.1969 C   0  0  2  0  0  0  0  0  0  0  0  0
  -11.3636    7.5794   19.0115 C   0  0  2  0  0  0  0  0  0  0  0  0
  -10.4082    7.8059   18.0035 O   0  0  0  0  0  0  0  0  0  0  0  0
  -12.7695    7.8674   18.4201 C   0  0  1  0  0  0  0  0  0  0  0  0
  -13.0052    6.9829   17.3344 O   0  0  0  0  0  0  0  0  0  0  0  0
  -12.5191    7.3304   16.0673 C   0  0  2  0  0  0  0  0  0  0  0  0
  -13.6966    7.9168   15.2656 C   0  0  2  0  0  0  0  0  0  0  0  0
  -14.1706    9.0723   15.9234 O   0  0  0  0  0  0  0  0  0  0  0  0
  -14.8270    6.8378   15.1509 C   0  0  1  0  0  0  0  0  0  0  0  0
  -16.0145    7.3360   14.4149 N   0  3  0  0  0  0  0  0  0  0  0  0
  -17.0769    7.7673   15.3589 C   0  0  0  0  0  0  0  0  0  0  0  0
  -14.2527    5.5641   14.4404 C   0  0  2  0  0  0  0  0  0  0  0  0
  -13.7890    5.9063   13.1209 O   0  0  0  0  0  0  0  0  0  0  0  0
  -15.2531    4.5221   14.2962 C   0  0  0  0  0  0  0  0  0  0  0  0
  -13.0066    5.0349   15.2153 C   0  0  0  0  0  0  0  0  0  0  0  0
  -11.9960    6.1279   15.3964 O   0  0  0  0  0  0  0  0  0  0  0  0
  1  2  1  6  0  0  0
  1  3  1  0  0  0  0
  1 10  1  0  0  0  0
  3  4  1  6  0  0  0
  3  5  1  0  0  0  0
  5  6  1  1  0  0  0
  5  7  1  0  0  0  0
  7  8  1  6  0  0  0
  7  9  1  0  0  0  0
  9 10  1  1  0  0  0
  9 11  1  0  0  0  0
 11 12  1  6  0  0  0
 11 13  1  0  0  0  0
 14 15  1  6  0  0  0
 14 16  1  0  0  0  0
 14 22  1  0  0  0  0
 16 17  1  0  0  0  0
 17 18  1  1  0  0  0
 17 19  1  0  0  0  0
 19  2  1  1  0  0  0
 19 20  1  0  0  0  0
 20 21  1  6  0  0  0
 20 22  1  0  0  0  0
 22 23  1  6  0  0  0
 24 23  1  1  0  0  0
 24 25  1  0  0  0  0
 24 34  1  0  0  0  0
 25 26  1  1  0  0  0
 25 27  1  0  0  0  0
 27 28  1  6  0  0  0
 27 30  1  0  0  0  0
 28 29  1  0  0  0  0
 30 31  1  6  0  0  0
 30 32  1  0  0  0  0
 30 33  1  0  0  0  0
 33 34  1  0  0  0  0
M  CHG  4   4   1  15   1  18   1  28   1
M  END
>  <CHROM.1>
171.39089358,11.12043847,130.54023096,-60.71805964,-171.84962041,-57.17746020
-58.30401343,177.40265482,-92.66955423,-57.27123064,155.37698730,-99.89711241
68.45429402,21.08916650,62.09342417,-11.84171211,6.78899262,18.72473546,0.59052847
-0.65240265,0.86929310

>  <Name>
1mwl

>  <RI>
0

>  <Rbt.Current_Directory>
/home/itssahil/PROJECTS/Mol_Feturizer/New_Systems/rnas/1mwl

>  <Rbt.Executable>
rbdock ($Id: //depot/dev/client3/rdock/2013.1/src/exe/rbdock.cxx#4 $)

>  <Rbt.Library>
libRbt.so (2013.1, Build901 2013/11/27)

>  <Rbt.Parameter_File>
/export/apps/rDock/src/rDock_2013.1_src/data/scripts/dock_solv.prm

>  <Rbt.Receptor>
prm/pocket_docking_6.prm

>  <SCORE>
-36.4607

>  <SCORE.INTER>
-27.2281

>  <SCORE.INTER.CONST>
1

>  <SCORE.INTER.POLAR>
-5.88188

>  <SCORE.INTER.ROT>
6

>  <SCORE.INTER.SOLV>
24.1283

>  <SCORE.INTER.VDW>
-14.1885

>  <SCORE.INTER.norm>
-0.800825

>  <SCORE.INTRA>
-9.23261

>  <SCORE.INTRA.DIHEDRAL>
-18.271

>  <SCORE.INTRA.DIHEDRAL.0>
42.0816

>  <SCORE.INTRA.POLAR>
-0.108318

>  <SCORE.INTRA.POLAR.0>
-0.254682

>  <SCORE.INTRA.REPUL>
0

>  <SCORE.INTRA.REPUL.0>
0

>  <SCORE.INTRA.SOLV>
0.0399707

>  <SCORE.INTRA.SOLV.lig_0>
-109.803

>  <SCORE.INTRA.VDW>
0.251177

>  <SCORE.INTRA.VDW.0>
0.32176

>  <SCORE.INTRA.norm>
-0.271547

>  <SCORE.RESTR>
0

>  <SCORE.RESTR.CAVITY>
0

>  <SCORE.RESTR.norm>
0

>  <SCORE.SYSTEM>
0

>  <SCORE.SYSTEM.CONST>
0

>  <SCORE.SYSTEM.DIHEDRAL>
0

>  <SCORE.SYSTEM.SOLV>
0

>  <SCORE.SYSTEM.norm>
0

>  <SCORE.heavy>
34

>  <SCORE.norm>
-1.07237

>  <RMSD>
2.969

$$$$
1mwl
 OpenBabel11021811403D
libRbt.so/2013.1/901 2013/11/27
 34 36  0  0  0  0  0  0  0  0999 V2000
  -10.2161    6.9552   21.7926 C   0  0  2  0  0  0  0  0  0  0  0  0
  -10.1095    8.0460   20.9280 O   0  0  0  0  0  0  0  0  0  0  0  0
   -8.7814    6.4030   22.0242 C   0  0  2  0  0  0  0  0  0  0  0  0
   -7.9237    7.4473   22.5928 N   0  3  0  0  0  0  0  0  0  0  0  0
   -8.1902    5.8387   20.6992 C   0  0  1  0  0  0  0  0  0  0  0  0
   -6.9479    5.3316   20.8989 O   0  0  0  0  0  0  0  0  0  0  0  0
   -9.1580    4.7394   20.1493 C   0  0  2  0  0  0  0  0  0  0  0  0
   -8.6348    4.1861   18.9236 O   0  0  0  0  0  0  0  0  0  0  0  0
  -10.5652    5.3896   19.9237 C   0  0  2  0  0  0  0  0  0  0  0  0
  -11.0784    5.9562   21.1906 O   0  0  0  0  0  0  0  0  0  0  0  0
  -11.6390    4.4268   19.4040 C   0  0  2  0  0  0  0  0  0  0  0  0
  -11.1923    3.8112   18.2401 O   0  0  0  0  0  0  0  0  0  0  0  0
  -12.9659    5.1194   19.0435 C   0  0  0  0  0  0  0  0  0  0  0  0
  -14.0535    8.5335   19.3575 C   0  0  2  0  0  0  0  0  0  0  0  0
  -15.2606    9.1617   18.7629 N   0  3  0  0  0  0  0  0  0  0  0  0
  -13.7272    9.1687   20.7417 C   0  0  0  0  0  0  0  0  0  0  0  0
  -12.4381    8.5100   21.3537 C   0  0  2  0  0  0  0  0  0  0  0  0
  -12.1533    9.1381   22.6957 N   0  3  0  0  0  0  0  0  0  0  0  0
  -11.2398    8.6957   20.3607 C   0  0  2  0  0  0  0  0  0  0  0  0
  -11.5908    8.0473   18.9993 C   0  0  2  0  0  0  0  0  0  0  0  0
  -10.5224    8.2498   18.1063 O   0  0  0  0  0  0  0  0  0  0  0  0
  -12.8559    8.7193   18.4015 C   0  0  1  0  0  0  0  0  0  0  0  0
  -13.1574    8.1116   17.1540 O   0  0  0  0  0  0  0  0  0  0  0  0
  -12.9688    8.8551   15.9817 C   0  0  2  0  0  0  0  0  0  0  0  0
  -14.3507    9.0462   15.3285 C   0  0  2  0  0  0  0  0  0  0  0  0
  -15.1830    9.7636   16.2146 O   0  0  0  0  0  0  0  0  0  0  0  0
  -14.9632    7.6412   15.0033 C   0  0  1  0  0  0  0  0  0  0  0  0
  -16.3131    7.7373   14.3962 N   0  3  0  0  0  0  0  0  0  0  0  0
  -17.3645    7.7304   15.4453 C   0  0  0  0  0  0  0  0  0  0  0  0
  -13.9972    6.8688   14.0403 C   0  0  2  0  0  0  0  0  0  0  0  0
  -13.8318    7.6083   12.8159 O   0  0  0  0  0  0  0  0  0  0  0  0
  -14.5085    5.5554   13.6928 C   0  0  0  0  0  0  0  0  0  0  0  0
  -12.5779    6.7619   14.6785 C   0  0  0  0  0  0  0  0  0  0  0  0
  -12.0742    8.1183   15.0726 O   0  0  0  0  0  0  0  0  0  0  0  0
  1  2  1  6  0  0  0
  1  3  1  0  0  0  0
  1 10  1  0  0  0  0
  3  4  1  6  0  0  0
  3  5  1  0  0  0  0
  5  6  1  1  0  0  0
  5  7  1  0  0  0  0
  7  8  1  6  0  0  0
  7  9  1  0  0  0  0
  9 10  1  1  0  0  0
  9 11  1  0  0  0  0
 11 12  1  6  0  0  0
 11 13  1  0  0  0  0
 14 15  1  6  0  0  0
 14 16  1  0  0  0  0
 14 22  1  0  0  0  0
 16 17  1  0  0  0  0
 17 18  1  1  0  0  0
 17 19  1  0  0  0  0
 19  2  1  1  0  0  0
 19 20  1  0  0  0  0
 20 21  1  6  0  0  0
 20 22  1  0  0  0  0
 22 23  1  6  0  0  0
 24 23  1  1  0  0  0
 24 25  1  0  0  0  0
 24 34  1  0  0  0  0
 25 26  1  1  0  0  0
 25 27  1  0  0  0  0
 27 28  1  6  0  0  0
 27 30  1  0  0  0  0
 28 29  1  0  0  0  0
 30 31  1  6  0  0  0
 30 32  1  0  0  0  0
 30 33  1  0  0  0  0
 33 34  1  0  0  0  0
M  CHG  4   4   1  15   1  18   1  28   1
M  END
>  <CHROM.1>
171.77796332,27.99473509,92.48220073,-72.40775287,78.71274909,-54.86827544
174.85780003,155.39642214,50.43578164,62.25571108,129.68331655,-115.93401629
107.07622913,30.09977490,-59.18447390,-12.11954544,7.22809344,18.35549189
0.59363906,-0.66944869,1.06241744

>  <Name>
1mwl

>  <RI>
0

>  <Rbt.Current_Directory>
/home/itssahil/PROJECTS/Mol_Feturizer/New_Systems/rnas/1mwl

>  <Rbt.Executable>
rbdock ($Id: //depot/dev/client3/rdock/2013.1/src/exe/rbdock.cxx#4 $)

>  <Rbt.Library>
libRbt.so (2013.1, Build901 2013/11/27)

>  <Rbt.Parameter_File>
/export/apps/rDock/src/rDock_2013.1_src/data/scripts/dock_solv.prm

>  <Rbt.Receptor>
prm/pocket_docking_5.prm

>  <SCORE>
-48.9863

>  <SCORE.INTER>
-40.2294

>  <SCORE.INTER.CONST>
1

>  <SCORE.INTER.POLAR>
-7.27149

>  <SCORE.INTER.ROT>
6

>  <SCORE.INTER.SOLV>
23.3192

>  <SCORE.INTER.VDW>
-17.9544

>  <SCORE.INTER.norm>
-1.18322

>  <SCORE.INTRA>
-8.92757

>  <SCORE.INTRA.DIHEDRAL>
-9.49513

>  <SCORE.INTRA.DIHEDRAL.0>
42.0816

>  <SCORE.INTRA.POLAR>
-1.0007

>  <SCORE.INTRA.POLAR.0>
-0.254682

>  <SCORE.INTRA.REPUL>
0

>  <SCORE.INTRA.REPUL.0>
0

>  <SCORE.INTRA.SOLV>
2.30718

>  <SCORE.INTRA.SOLV.lig_0>
-109.803

>  <SCORE.INTRA.VDW>
-1.93122

>  <SCORE.INTRA.VDW.0>
0.32176

>  <SCORE.INTRA.norm>
-0.262576

>  <SCORE.RESTR>
0.170651

>  <SCORE.RESTR.CAVITY>
0.170651

>  <SCORE.RESTR.norm>
0.00501914

>  <SCORE.SYSTEM>
0

>  <SCORE.SYSTEM.CONST>
0

>  <SCORE.SYSTEM.DIHEDRAL>
0

>  <SCORE.SYSTEM.SOLV>
0

>  <SCORE.SYSTEM.norm>
0

>  <SCORE.heavy>
34

>  <SCORE.norm>
-1.44077

>  <RMSD>
3.029

$$$$
1mwl
 OpenBabel11021811403D
libRbt.so/2013.1/901 2013/11/27
 34 36  0  0  0  0  0  0  0  0999 V2000
  -10.3885    7.9458   21.4273 C   0  0  2  0  0  0  0  0  0  0  0  0
   -9.9955    8.6712   20.3013 O   0  0  0  0  0  0  0  0  0  0  0  0
   -9.1088    7.3146   22.0444 C   0  0  2  0  0  0  0  0  0  0  0  0
   -8.1485    8.3641   22.3994 N   0  3  0  0  0  0  0  0  0  0  0  0
   -8.4831    6.2766   21.0674 C   0  0  1  0  0  0  0  0  0  0  0  0
   -7.3800    5.7027   21.6096 O   0  0  0  0  0  0  0  0  0  0  0  0
   -9.5628    5.1963   20.7287 C   0  0  2  0  0  0  0  0  0  0  0  0
   -9.0128    4.2098   19.8306 O   0  0  0  0  0  0  0  0  0  0  0  0
  -10.7991    5.9174   20.0920 C   0  0  2  0  0  0  0  0  0  0  0  0
  -11.3415    6.9284   21.0265 O   0  0  0  0  0  0  0  0  0  0  0  0
  -11.9616    4.9887   19.7232 C   0  0  2  0  0  0  0  0  0  0  0  0
  -11.5009    3.9645   18.9035 O   0  0  0  0  0  0  0  0  0  0  0  0
  -13.0885    5.6909   18.9438 C   0  0  0  0  0  0  0  0  0  0  0  0
  -13.7345    9.8657   18.6123 C   0  0  2  0  0  0  0  0  0  0  0  0
  -14.7348   10.5798   17.7787 N   0  3  0  0  0  0  0  0  0  0  0  0
  -13.0077   10.8563   19.5697 C   0  0  0  0  0  0  0  0  0  0  0  0
  -11.9388   10.0942   20.4339 C   0  0  2  0  0  0  0  0  0  0  0  0
  -11.2594   11.0764   21.3561 N   0  3  0  0  0  0  0  0  0  0  0  0
  -10.9131    9.3862   19.4837 C   0  0  2  0  0  0  0  0  0  0  0  0
  -11.6639    8.4034   18.5521 C   0  0  2  0  0  0  0  0  0  0  0  0
  -10.7379    7.7995   17.6815 O   0  0  0  0  0  0  0  0  0  0  0  0
  -12.7037    9.1737   17.6950 C   0  0  1  0  0  0  0  0  0  0  0  0
  -13.3775    8.2546   16.8479 O   0  0  0  0  0  0  0  0  0  0  0  0
  -13.2051    8.3677   15.4622 C   0  0  2  0  0  0  0  0  0  0  0  0
  -14.5977    8.5818   14.8393 C   0  0  2  0  0  0  0  0  0  0  0  0
  -15.1494    9.7780   15.3464 O   0  0  0  0  0  0  0  0  0  0  0  0
  -15.5095    7.3562   15.1880 C   0  0  1  0  0  0  0  0  0  0  0  0
  -16.8833    7.4989   14.6473 N   0  3  0  0  0  0  0  0  0  0  0  0
  -17.7909    8.0899   15.6637 C   0  0  0  0  0  0  0  0  0  0  0  0
  -14.8488    6.0482   14.6316 C   0  0  2  0  0  0  0  0  0  0  0  0
  -14.7066    6.1411   13.2018 O   0  0  0  0  0  0  0  0  0  0  0  0
  -15.6474    4.8698   14.9164 C   0  0  0  0  0  0  0  0  0  0  0  0
  -13.4055    5.8929   15.2027 C   0  0  0  0  0  0  0  0  0  0  0  0
  -12.5998    7.1302   14.9410 O   0  0  0  0  0  0  0  0  0  0  0  0
  1  2  1  6  0  0  0
  1  3  1  0  0  0  0
  1 10  1  0  0  0  0
  3  4  1  6  0  0  0
  3  5  1  0  0  0  0
  5  6  1  1  0  0  0
  5  7  1  0  0  0  0
  7  8  1  6  0  0  0
  7  9  1  0  0  0  0
  9 10  1  1  0  0  0
  9 11  1  0  0  0  0
 11 12  1  6  0  0  0
 11 13  1  0  0  0  0
 14 15  1  6  0  0  0
 14 16  1  0  0  0  0
 14 22  1  0  0  0  0
 16 17  1  0  0  0  0
 17 18  1  1  0  0  0
 17 19  1  0  0  0  0
 19  2  1  1  0  0  0
 19 20  1  0  0  0  0
 20 21  1  6  0  0  0
 20 22  1  0  0  0  0
 22 23  1  6  0  0  0
 24 23  1  1  0  0  0
 24 25  1  0  0  0  0
 24 34  1  0  0  0  0
 25 26  1  1  0  0  0
 25 27  1  0  0  0  0
 27 28  1  6  0  0  0
 27 30  1  0  0  0  0
 28 29  1  0  0  0  0
 30 31  1  6  0  0  0
 30 32  1  0  0  0  0
 30 33  1  0  0  0  0
 33 34  1  0  0  0  0
M  CHG  4   4   1  15   1  18   1  28   1
M  END
>  <CHROM.1>
-179.98900565,41.22721212,-149.75590224,66.53168652,72.46335302,-54.11165765
-50.03454800,42.75329270,14.09010361,173.94676929,125.08481737,-121.42100024
166.82684670,25.96046607,-59.02122537,-12.31726141,7.53590646,18.23012203
0.24959313,-0.77429251,0.42684275

>  <Name>
1mwl

>  <RI>
0

>  <Rbt.Current_Directory>
/home/itssahil/PROJECTS/Mol_Feturizer/New_Systems/rnas/1mwl

>  <Rbt.Executable>
rbdock ($Id: //depot/dev/client3/rdock/2013.1/src/exe/rbdock.cxx#4 $)

>  <Rbt.Library>
libRbt.so (2013.1, Build901 2013/11/27)

>  <Rbt.Parameter_File>
/export/apps/rDock/src/rDock_2013.1_src/data/scripts/dock_solv.prm

>  <Rbt.Receptor>
prm/pocket_docking_2.prm

>  <SCORE>
-46.7098

>  <SCORE.INTER>
-35.6363

>  <SCORE.INTER.CONST>
1

>  <SCORE.INTER.POLAR>
-6.72833

>  <SCORE.INTER.ROT>
6

>  <SCORE.INTER.SOLV>
27.2768

>  <SCORE.INTER.VDW>
-18.022

>  <SCORE.INTER.norm>
-1.04813

>  <SCORE.INTRA>
-12.9201

>  <SCORE.INTRA.DIHEDRAL>
-15.7516

>  <SCORE.INTRA.DIHEDRAL.0>
42.0816

>  <SCORE.INTRA.POLAR>
-1.01624

>  <SCORE.INTRA.POLAR.0>
-0.254682

>  <SCORE.INTRA.REPUL>
0

>  <SCORE.INTRA.REPUL.0>
0

>  <SCORE.INTRA.SOLV>
2.47888

>  <SCORE.INTRA.SOLV.lig_0>
-109.803

>  <SCORE.INTRA.VDW>
-2.82856

>  <SCORE.INTRA.VDW.0>
0.32176

>  <SCORE.INTRA.norm>
-0.380004

>  <SCORE.RESTR>
1.84662

>  <SCORE.RESTR.CAVITY>
1.84662

>  <SCORE.RESTR.norm>
0.0543123

>  <SCORE.SYSTEM>
0

>  <SCORE.SYSTEM.CONST>
0

>  <SCORE.SYSTEM.DIHEDRAL>
0

>  <SCORE.SYSTEM.SOLV>
0

>  <SCORE.SYSTEM.norm>
0

>  <SCORE.heavy>
34

>  <SCORE.norm>
-1.37382

>  <RMSD>
3.046

$$$$
1mwl
 OpenBabel11021811403D
libRbt.so/2013.1/901 2013/11/27
 34 36  0  0  0  0  0  0  0  0999 V2000
  -10.3297    8.0548   21.5963 C   0  0  2  0  0  0  0  0  0  0  0  0
   -9.9711    8.7060   20.4148 O   0  0  0  0  0  0  0  0  0  0  0  0
   -9.0166    7.6054   22.2970 C   0  0  2  0  0  0  0  0  0  0  0  0
   -8.1664    8.7681   22.5704 N   0  3  0  0  0  0  0  0  0  0  0  0
   -8.2710    6.5439   21.4363 C   0  0  1  0  0  0  0  0  0  0  0  0
   -7.1368    6.1280   22.0534 O   0  0  0  0  0  0  0  0  0  0  0  0
   -9.2379    5.3411   21.1797 C   0  0  2  0  0  0  0  0  0  0  0  0
   -8.5745    4.3310   20.3910 O   0  0  0  0  0  0  0  0  0  0  0  0
  -10.5152    5.8819   20.4518 C   0  0  2  0  0  0  0  0  0  0  0  0
  -11.1743    6.9203   21.2744 O   0  0  0  0  0  0  0  0  0  0  0  0
  -11.5774    4.8189   20.1490 C   0  0  2  0  0  0  0  0  0  0  0  0
  -11.2956    3.6589   20.8621 O   0  0  0  0  0  0  0  0  0  0  0  0
  -11.6352    4.4098   18.6659 C   0  0  0  0  0  0  0  0  0  0  0  0
  -13.7723    9.5054   18.6341 C   0  0  2  0  0  0  0  0  0  0  0  0
  -14.8090   10.0546   17.7234 N   0  3  0  0  0  0  0  0  0  0  0  0
  -13.0745   10.6496   19.4277 C   0  0  0  0  0  0  0  0  0  0  0  0
  -11.9672   10.0599   20.3744 C   0  0  2  0  0  0  0  0  0  0  0  0
  -11.3168   11.1889   21.1353 N   0  3  0  0  0  0  0  0  0  0  0  0
  -10.9250    9.2614   19.5185 C   0  0  2  0  0  0  0  0  0  0  0  0
  -11.6467    8.1278   18.7497 C   0  0  2  0  0  0  0  0  0  0  0  0
  -10.7074    7.4400   17.9592 O   0  0  0  0  0  0  0  0  0  0  0  0
  -12.7254    8.7277   17.8084 C   0  0  1  0  0  0  0  0  0  0  0  0
  -13.3718    7.6720   17.1127 O   0  0  0  0  0  0  0  0  0  0  0  0
  -13.1115    7.5100   15.7457 C   0  0  2  0  0  0  0  0  0  0  0  0
  -14.3660    7.9692   14.9789 C   0  0  2  0  0  0  0  0  0  0  0  0
  -14.6016    9.3329   15.2570 O   0  0  0  0  0  0  0  0  0  0  0  0
  -15.5868    7.0918   15.4202 C   0  0  1  0  0  0  0  0  0  0  0  0
  -16.8462    7.4916   14.7463 N   0  3  0  0  0  0  0  0  0  0  0  0
  -17.7462    8.2025   15.6900 C   0  0  0  0  0  0  0  0  0  0  0  0
  -15.2739    5.5856   15.1193 C   0  0  2  0  0  0  0  0  0  0  0  0
  -15.0459    5.4049   13.7091 O   0  0  0  0  0  0  0  0  0  0  0  0
  -16.3701    4.7138   15.5007 C   0  0  0  0  0  0  0  0  0  0  0  0
  -13.9524    5.1609   15.8310 C   0  0  0  0  0  0  0  0  0  0  0  0
  -12.8346    6.0909   15.4644 O   0  0  0  0  0  0  0  0  0  0  0  0
  1  2  1  6  0  0  0
  1  3  1  0  0  0  0
  1 10  1  0  0  0  0
  3  4  1  6  0  0  0
  3  5  1  0  0  0  0
  5  6  1  1  0  0  0
  5  7  1  0  0  0  0
  7  8  1  6  0  0  0
  7  9  1  0  0  0  0
  9 10  1  1  0  0  0
  9 11  1  0  0  0  0
 11 12  1  1  0  0  0
 11 13  1  0  0  0  0
 14 15  1  6  0  0  0
 14 16  1  0  0  0  0
 14 22  1  0  0  0  0
 16 17  1  0  0  0  0
 17 18  1  6  0  0  0
 17 19  1  0  0  0  0
 19  2  1  1  0  0  0
 19 20  1  0  0  0  0
 20 21  1  6  0  0  0
 20 22  1  0  0  0  0
 22 23  1  1  0  0  0
 24 23  1  1  0  0  0
 24 25  1  0  0  0  0
 24 34  1  0  0  0  0
 25 26  1  1  0  0  0
 25 27  1  0  0  0  0
 27 28  1  6  0  0  0
 27 30  1  0  0  0  0
 28 29  1  0  0  0  0
 30 31  1  6  0  0  0
 30 32  1  0  0  0  0
 30 33  1  0  0  0  0
 33 34  1  0  0  0  0
M  CHG  4   4   1  15   1  18   1  28   1
M  END
>  <CHROM.1>
-179.55124649,45.71925971,81.51920521,-177.97645369,-175.36547881,13.47065669
171.66573084,-80.89128915,127.41859644,-179.49972041,131.47205168,-107.32265903
171.17192475,13.36363053,61.57946072,-12.24890203,7.30009812,18.50058489
0.20186800,-0.76121529,0.30264874

>  <Name>
1mwl

>  <RI>
0

>  <Rbt.Current_Directory>
/home/itssahil/PROJECTS/Mol_Feturizer/New_Systems/rnas/1mwl

>  <Rbt.Executable>
rbdock ($Id: //depot/dev/client3/rdock/2013.1/src/exe/rbdock.cxx#4 $)

>  <Rbt.Library>
libRbt.so (2013.1, Build901 2013/11/27)

>  <Rbt.Parameter_File>
/export/apps/rDock/src/rDock_2013.1_src/data/scripts/dock_solv.prm

>  <Rbt.Receptor>
prm/pocket_docking_3.prm

>  <SCORE>
-50.0028

>  <SCORE.INTER>
-38.1707

>  <SCORE.INTER.CONST>
1

>  <SCORE.INTER.POLAR>
-6.97034

>  <SCORE.INTER.ROT>
6

>  <SCORE.INTER.SOLV>
25.7885

>  <SCORE.INTER.VDW>
-18.4088

>  <SCORE.INTER.norm>
-1.12267

>  <SCORE.INTRA>
-11.8321

>  <SCORE.INTRA.DIHEDRAL>
-13.8323

>  <SCORE.INTRA.DIHEDRAL.0>
42.0816

>  <SCORE.INTRA.POLAR>
-1.01622

>  <SCORE.INTRA.POLAR.0>
-0.254682

>  <SCORE.INTRA.REPUL>
0

>  <SCORE.INTRA.REPUL.0>
0

>  <SCORE.INTRA.SOLV>
2.43821

>  <SCORE.INTRA.SOLV.lig_0>
-109.803

>  <SCORE.INTRA.VDW>
-2.6799

>  <SCORE.INTRA.VDW.0>
0.32176

>  <SCORE.INTRA.norm>
-0.348003

>  <SCORE.RESTR>
0

>  <SCORE.RESTR.CAVITY>
0

>  <SCORE.RESTR.norm>
0

>  <SCORE.SYSTEM>
0

>  <SCORE.SYSTEM.CONST>
0

>  <SCORE.SYSTEM.DIHEDRAL>
0

>  <SCORE.SYSTEM.SOLV>
0

>  <SCORE.SYSTEM.norm>
0

>  <SCORE.heavy>
34

>  <SCORE.norm>
-1.47067

>  <RMSD>
3.048

$$$$
1mwl
 OpenBabel11021811403D
libRbt.so/2013.1/901 2013/11/27
 34 36  0  0  0  0  0  0  0  0999 V2000
  -10.3630    6.7153   21.5399 C   0  0  2  0  0  0  0  0  0  0  0  0
   -9.8292    7.4283   20.4651 O   0  0  0  0  0  0  0  0  0  0  0  0
   -9.2212    5.8419   22.1320 C   0  0  2  0  0  0  0  0  0  0  0  0
   -8.1063    6.6915   22.5618 N   0  3  0  0  0  0  0  0  0  0  0  0
   -8.7577    4.7720   21.1006 C   0  0  1  0  0  0  0  0  0  0  0  0
   -7.7788    3.9892   21.6195 O   0  0  0  0  0  0  0  0  0  0  0  0
   -9.9959    3.9113   20.6839 C   0  0  2  0  0  0  0  0  0  0  0  0
   -9.6000    2.9003   19.7335 O   0  0  0  0  0  0  0  0  0  0  0  0
  -11.0793    4.8670   20.0782 C   0  0  2  0  0  0  0  0  0  0  0  0
  -11.4644    5.8987   21.0664 O   0  0  0  0  0  0  0  0  0  0  0  0
  -12.3730    4.1713   19.6397 C   0  0  2  0  0  0  0  0  0  0  0  0
  -12.8234    3.3363   20.6562 O   0  0  0  0  0  0  0  0  0  0  0  0
  -12.2033    3.2819   18.3945 C   0  0  0  0  0  0  0  0  0  0  0  0
  -13.0767    9.8362   19.0811 C   0  0  2  0  0  0  0  0  0  0  0  0
  -13.8302   10.9488   18.4488 N   0  3  0  0  0  0  0  0  0  0  0  0
  -12.2340   10.3553   20.2837 C   0  0  0  0  0  0  0  0  0  0  0  0
  -11.4265    9.1742   20.9340 C   0  0  2  0  0  0  0  0  0  0  0  0
  -10.6288    9.7052   22.0995 N   0  3  0  0  0  0  0  0  0  0  0  0
  -10.5033    8.5188   19.8502 C   0  0  2  0  0  0  0  0  0  0  0  0
  -11.3698    8.0059   18.6741 C   0  0  2  0  0  0  0  0  0  0  0  0
  -10.5278    7.4507   17.6927 O   0  0  0  0  0  0  0  0  0  0  0  0
  -12.1479    9.1863   18.0334 C   0  0  1  0  0  0  0  0  0  0  0  0
  -12.9326    8.6939   16.9572 O   0  0  0  0  0  0  0  0  0  0  0  0
  -12.9493    9.4122   15.7545 C   0  0  2  0  0  0  0  0  0  0  0  0
  -14.3910    9.3735   15.2133 C   0  0  2  0  0  0  0  0  0  0  0  0
  -15.2494    9.9939   16.1466 O   0  0  0  0  0  0  0  0  0  0  0  0
  -14.8102    7.8825   14.9764 C   0  0  1  0  0  0  0  0  0  0  0  0
  -16.2026    7.7563   14.4809 N   0  3  0  0  0  0  0  0  0  0  0  0
  -17.1499    7.5778   15.6108 C   0  0  0  0  0  0  0  0  0  0  0  0
  -13.8178    7.2245   13.9569 C   0  0  2  0  0  0  0  0  0  0  0  0
  -13.8608    7.9334   12.7043 O   0  0  0  0  0  0  0  0  0  0  0  0
  -14.1527    5.8381   13.6869 C   0  0  0  0  0  0  0  0  0  0  0  0
  -12.3530    7.3513   14.4780 C   0  0  0  0  0  0  0  0  0  0  0  0
  -12.0284    8.7809   14.7939 O   0  0  0  0  0  0  0  0  0  0  0  0
  1  2  1  6  0  0  0
  1  3  1  0  0  0  0
  1 10  1  0  0  0  0
  3  4  1  6  0  0  0
  3  5  1  0  0  0  0
  5  6  1  1  0  0  0
  5  7  1  0  0  0  0
  7  8  1  6  0  0  0
  7  9  1  0  0  0  0
  9 10  1  1  0  0  0
  9 11  1  0  0  0  0
 11 12  1  1  0  0  0
 11 13  1  0  0  0  0
 14 15  1  6  0  0  0
 14 16  1  0  0  0  0
 14 22  1  0  0  0  0
 16 17  1  0  0  0  0
 17 18  1  1  0  0  0
 17 19  1  0  0  0  0
 19  2  1  1  0  0  0
 19 20  1  0  0  0  0
 20 21  1  6  0  0  0
 20 22  1  0  0  0  0
 22 23  1  6  0  0  0
 24 23  1  1  0  0  0
 24 25  1  0  0  0  0
 24 34  1  0  0  0  0
 25 26  1  1  0  0  0
 25 27  1  0  0  0  0
 27 28  1  6  0  0  0
 27 30  1  0  0  0  0
 28 29  1  0  0  0  0
 30 31  1  6  0  0  0
 30 32  1  0  0  0  0
 30 33  1  0  0  0  0
 33 34  1  0  0  0  0
M  CHG  4   4   1  15   1  18   1  28   1
M  END
>  <CHROM.1>
-167.20036640,27.87827717,56.71994453,-63.24872446,54.90854122,48.62338642
63.41908783,56.18851912,-91.97169474,65.82175569,104.13276356,-140.75881860
-79.57954112,27.73334086,-66.75526116,-12.02778167,7.18919877,18.34730176
-0.08912825,-0.96713241,0.31736305

>  <Name>
1mwl

>  <RI>
0

>  <Rbt.Current_Directory>
/home/itssahil/PROJECTS/Mol_Feturizer/New_Systems/rnas/1mwl

>  <Rbt.Executable>
rbdock ($Id: //depot/dev/client3/rdock/2013.1/src/exe/rbdock.cxx#4 $)

>  <Rbt.Library>
libRbt.so (2013.1, Build901 2013/11/27)

>  <Rbt.Parameter_File>
/export/apps/rDock/src/rDock_2013.1_src/data/scripts/dock_solv.prm

>  <Rbt.Receptor>
prm/pocket_docking_2.prm

>  <SCORE>
-54.5907

>  <SCORE.INTER>
-46.1057

>  <SCORE.INTER.CONST>
1

>  <SCORE.INTER.POLAR>
-7.67114

>  <SCORE.INTER.ROT>
6

>  <SCORE.INTER.SOLV>
26.5346

>  <SCORE.INTER.VDW>
-21.6115

>  <SCORE.INTER.norm>
-1.35605

>  <SCORE.INTRA>
-11.1806

>  <SCORE.INTRA.DIHEDRAL>
-19.1283

>  <SCORE.INTRA.DIHEDRAL.0>
42.0816

>  <SCORE.INTRA.POLAR>
-0.30893

>  <SCORE.INTRA.POLAR.0>
-0.254682

>  <SCORE.INTRA.REPUL>
0.00164495

>  <SCORE.INTRA.REPUL.0>
0

>  <SCORE.INTRA.SOLV>
2.50267

>  <SCORE.INTRA.SOLV.lig_0>
-109.803

>  <SCORE.INTRA.VDW>
-1.82568

>  <SCORE.INTRA.VDW.0>
0.32176

>  <SCORE.INTRA.norm>
-0.328842

>  <SCORE.RESTR>
2.69559

>  <SCORE.RESTR.CAVITY>
2.69559

>  <SCORE.RESTR.norm>
0.079282

>  <SCORE.SYSTEM>
0

>  <SCORE.SYSTEM.CONST>
0

>  <SCORE.SYSTEM.DIHEDRAL>
0

>  <SCORE.SYSTEM.SOLV>
0

>  <SCORE.SYSTEM.norm>
0

>  <SCORE.heavy>
34

>  <SCORE.norm>
-1.60561

>  <RMSD>
3.054

$$$$
1mwl
 OpenBabel11021811403D
libRbt.so/2013.1/901 2013/11/27
 34 36  0  0  0  0  0  0  0  0999 V2000
  -10.5489    7.7870   21.2176 C   0  0  2  0  0  0  0  0  0  0  0  0
  -10.0891    8.5695   20.1569 O   0  0  0  0  0  0  0  0  0  0  0  0
   -9.3048    7.1567   21.9045 C   0  0  2  0  0  0  0  0  0  0  0  0
   -8.4006    8.2098   22.3767 N   0  3  0  0  0  0  0  0  0  0  0  0
   -8.5810    6.1763   20.9357 C   0  0  1  0  0  0  0  0  0  0  0  0
   -7.5087    5.6028   21.5369 O   0  0  0  0  0  0  0  0  0  0  0  0
   -9.6048    5.0891   20.4693 C   0  0  2  0  0  0  0  0  0  0  0  0
   -8.9637    4.1552   19.5755 O   0  0  0  0  0  0  0  0  0  0  0  0
  -10.8063    5.8111   19.7700 C   0  0  2  0  0  0  0  0  0  0  0  0
  -11.4432    6.7681   20.7016 O   0  0  0  0  0  0  0  0  0  0  0  0
  -11.9140    4.8749   19.2736 C   0  0  2  0  0  0  0  0  0  0  0  0
  -11.3475    3.7602   18.6654 O   0  0  0  0  0  0  0  0  0  0  0  0
  -12.8384    5.5163   18.2226 C   0  0  0  0  0  0  0  0  0  0  0  0
  -13.7080   10.0851   18.4639 C   0  0  2  0  0  0  0  0  0  0  0  0
  -14.6452   10.9194   17.6696 N   0  3  0  0  0  0  0  0  0  0  0  0
  -12.9788   10.9463   19.5376 C   0  0  0  0  0  0  0  0  0  0  0  0
  -11.9763   10.0583   20.3600 C   0  0  2  0  0  0  0  0  0  0  0  0
  -11.2934   10.9165   21.3962 N   0  3  0  0  0  0  0  0  0  0  0  0
  -10.9444    9.3995   19.3815 C   0  0  2  0  0  0  0  0  0  0  0  0
  -11.6982    8.5447   18.3335 C   0  0  2  0  0  0  0  0  0  0  0  0
  -10.7647    7.9863   17.4407 O   0  0  0  0  0  0  0  0  0  0  0  0
  -12.6717    9.4389   17.5199 C   0  0  1  0  0  0  0  0  0  0  0  0
  -13.3493    8.6359   16.5646 O   0  0  0  0  0  0  0  0  0  0  0  0
  -13.4052    9.0761   15.2358 C   0  0  2  0  0  0  0  0  0  0  0  0
  -14.8844    9.0615   14.8062 C   0  0  2  0  0  0  0  0  0  0  0  0
  -15.6112    9.9486   15.6292 O   0  0  0  0  0  0  0  0  0  0  0  0
  -15.4409    7.6022   14.9323 C   0  0  1  0  0  0  0  0  0  0  0  0
  -16.8745    7.5076   14.5636 N   0  3  0  0  0  0  0  0  0  0  0  0
  -17.7400    7.8601   15.7180 C   0  0  0  0  0  0  0  0  0  0  0  0
  -14.5910    6.6469   14.0256 C   0  0  2  0  0  0  0  0  0  0  0  0
  -14.6779    7.0698   12.6519 O   0  0  0  0  0  0  0  0  0  0  0  0
  -15.0579    5.2740   14.0912 C   0  0  0  0  0  0  0  0  0  0  0  0
  -13.0834    6.7406   14.4146 C   0  0  0  0  0  0  0  0  0  0  0  0
  -12.6195    8.1663   14.3847 O   0  0  0  0  0  0  0  0  0  0  0  0
  1  2  1  6  0  0  0
  1  3  1  0  0  0  0
  1 10  1  0  0  0  0
  3  4  1  6  0  0  0
  3  5  1  0  0  0  0
  5  6  1  1  0  0  0
  5  7  1  0  0  0  0
  7  8  1  6  0  0  0
  7  9  1  0  0  0  0
  9 10  1  1  0  0  0
  9 11  1  0  0  0  0
 11 12  1  6  0  0  0
 11 13  1  0  0  0  0
 14 15  1  6  0  0  0
 14 16  1  0  0  0  0
 14 22  1  0  0  0  0
 16 17  1  0  0  0  0
 17 18  1  1  0  0  0
 17 19  1  0  0  0  0
 19  2  1  1  0  0  0
 19 20  1  0  0  0  0
 20 21  1  6  0  0  0
 20 22  1  0  0  0  0
 22 23  1  6  0  0  0
 24 23  1  1  0  0  0
 24 25  1  0  0  0  0
 24 34  1  0  0  0  0
 25 26  1  1  0  0  0
 25 27  1  0  0  0  0
 27 28  1  6  0  0  0
 27 30  1  0  0  0  0
 28 29  1  0  0  0  0
 30 31  1  6  0  0  0
 30 32  1  0  0  0  0
 30 33  1  0  0  0  0
 33 34  1  0  0  0  0
M  CHG  4   4   1  15   1  18   1  28   1
M  END
>  <CHROM.1>
-173.82799677,39.33930110,-140.50591359,-167.42435445,75.97092474,-42.85099669
175.26670660,-43.28814987,-101.05610842,-178.57770793,108.60635446,-127.30804344
74.51046853,35.80030875,-71.35147102,-12.32305192,7.67877357,17.99113425
0.23667042,-0.81121076,0.49652359

>  <Name>
1mwl

>  <RI>
0

>  <Rbt.Current_Directory>
/home/itssahil/PROJECTS/Mol_Feturizer/New_Systems/rnas/1mwl

>  <Rbt.Executable>
rbdock ($Id: //depot/dev/client3/rdock/2013.1/src/exe/rbdock.cxx#4 $)

>  <Rbt.Library>
libRbt.so (2013.1, Build901 2013/11/27)

>  <Rbt.Parameter_File>
/export/apps/rDock/src/rDock_2013.1_src/data/scripts/dock_solv.prm

>  <Rbt.Receptor>
prm/pocket_docking_3.prm

>  <SCORE>
-48.6324

>  <SCORE.INTER>
-39.7661

>  <SCORE.INTER.CONST>
1

>  <SCORE.INTER.POLAR>
-7.30164

>  <SCORE.INTER.ROT>
6

>  <SCORE.INTER.SOLV>
29.0174

>  <SCORE.INTER.VDW>
-19.4444

>  <SCORE.INTER.norm>
-1.16959

>  <SCORE.INTRA>
-8.94849

>  <SCORE.INTRA.DIHEDRAL>
-14.4672

>  <SCORE.INTRA.DIHEDRAL.0>
42.0816

>  <SCORE.INTRA.POLAR>
-0.587208

>  <SCORE.INTRA.POLAR.0>
-0.254682

>  <SCORE.INTRA.REPUL>
0

>  <SCORE.INTRA.REPUL.0>
0

>  <SCORE.INTRA.SOLV>
3.50629

>  <SCORE.INTRA.SOLV.lig_0>
-109.803

>  <SCORE.INTRA.VDW>
-1.47155

>  <SCORE.INTRA.VDW.0>
0.32176

>  <SCORE.INTRA.norm>
-0.263191

>  <SCORE.RESTR>
0.0821426

>  <SCORE.RESTR.CAVITY>
0.0821426

>  <SCORE.RESTR.norm>
0.00241596

>  <SCORE.SYSTEM>
0

>  <SCORE.SYSTEM.CONST>
0

>  <SCORE.SYSTEM.DIHEDRAL>
0

>  <SCORE.SYSTEM.SOLV>
0

>  <SCORE.SYSTEM.norm>
0

>  <SCORE.heavy>
34

>  <SCORE.norm>
-1.43037

>  <RMSD>
3.062

$$$$
1mwl
 OpenBabel11021811403D
libRbt.so/2013.1/901 2013/11/27
 34 36  0  0  0  0  0  0  0  0999 V2000
  -10.3771    6.5331   21.7263 C   0  0  2  0  0  0  0  0  0  0  0  0
   -9.8232    7.1690   20.6139 O   0  0  0  0  0  0  0  0  0  0  0  0
   -9.2958    5.5754   22.3013 C   0  0  2  0  0  0  0  0  0  0  0  0
   -8.0943    6.3316   22.6675 N   0  3  0  0  0  0  0  0  0  0  0  0
   -8.9686    4.4434   21.2839 C   0  0  1  0  0  0  0  0  0  0  0  0
   -8.0441    3.5888   21.7889 O   0  0  0  0  0  0  0  0  0  0  0  0
  -10.2932    3.6875   20.9353 C   0  0  2  0  0  0  0  0  0  0  0  0
  -10.0249    2.6223   19.9996 O   0  0  0  0  0  0  0  0  0  0  0  0
  -11.3096    4.7216   20.3425 C   0  0  2  0  0  0  0  0  0  0  0  0
  -11.5638    5.8074   21.3150 O   0  0  0  0  0  0  0  0  0  0  0  0
  -12.6756    4.1344   19.9696 C   0  0  2  0  0  0  0  0  0  0  0  0
  -12.5094    3.1184   19.0351 O   0  0  0  0  0  0  0  0  0  0  0  0
  -13.6324    5.1567   19.3294 C   0  0  0  0  0  0  0  0  0  0  0  0
  -12.9481    9.6993   19.1674 C   0  0  2  0  0  0  0  0  0  0  0  0
  -13.6460   10.8292   18.5027 N   0  3  0  0  0  0  0  0  0  0  0  0
  -12.0717   10.2116   20.3486 C   0  0  0  0  0  0  0  0  0  0  0  0
  -11.3234    9.0110   21.0332 C   0  0  2  0  0  0  0  0  0  0  0  0
  -10.4916    9.5364   22.1771 N   0  3  0  0  0  0  0  0  0  0  0  0
  -10.4429    8.2733   19.9670 C   0  0  2  0  0  0  0  0  0  0  0  0
  -11.3425    7.7692   18.8122 C   0  0  2  0  0  0  0  0  0  0  0  0
  -10.5371    7.1391   17.8455 O   0  0  0  0  0  0  0  0  0  0  0  0
  -12.0614    8.9678   18.1371 C   0  0  1  0  0  0  0  0  0  0  0  0
  -12.8777    8.4832   17.0811 O   0  0  0  0  0  0  0  0  0  0  0  0
  -12.8298    9.1349   15.8418 C   0  0  2  0  0  0  0  0  0  0  0  0
  -14.2705    9.2065   15.3015 C   0  0  2  0  0  0  0  0  0  0  0  0
  -15.0617    9.9554   16.1992 O   0  0  0  0  0  0  0  0  0  0  0  0
  -14.8322    7.7524   15.1437 C   0  0  1  0  0  0  0  0  0  0  0  0
  -16.2321    7.7347   14.6538 N   0  3  0  0  0  0  0  0  0  0  0  0
  -17.1809    8.0260   15.7588 C   0  0  0  0  0  0  0  0  0  0  0  0
  -13.9117    6.9486   14.1621 C   0  0  2  0  0  0  0  0  0  0  0  0
  -13.8910    7.5908   12.8735 O   0  0  0  0  0  0  0  0  0  0  0  0
  -14.3795    5.5885   13.9659 C   0  0  0  0  0  0  0  0  0  0  0  0
  -12.4395    6.9612   14.6776 C   0  0  0  0  0  0  0  0  0  0  0  0
  -11.9776    8.3676   14.9173 O   0  0  0  0  0  0  0  0  0  0  0  0
  1  2  1  6  0  0  0
  1  3  1  0  0  0  0
  1 10  1  0  0  0  0
  3  4  1  6  0  0  0
  3  5  1  0  0  0  0
  5  6  1  1  0  0  0
  5  7  1  0  0  0  0
  7  8  1  6  0  0  0
  7  9  1  0  0  0  0
  9 10  1  1  0  0  0
  9 11  1  0  0  0  0
 11 12  1  6  0  0  0
 11 13  1  0  0  0  0
 14 15  1  6  0  0  0
 14 16  1  0  0  0  0
 14 22  1  0  0  0  0
 16 17  1  0  0  0  0
 17 18  1  1  0  0  0
 17 19  1  0  0  0  0
 19  2  1  1  0  0  0
 19 20  1  0  0  0  0
 20 21  1  6  0  0  0
 20 22  1  0  0  0  0
 22 23  1  6  0  0  0
 24 23  1  1  0  0  0
 24 25  1  0  0  0  0
 24 34  1  0  0  0  0
 25 26  1  1  0  0  0
 25 27  1  0  0  0  0
 27 28  1  6  0  0  0
 27 30  1  0  0  0  0
 28 29  1  0  0  0  0
 30 31  1  6  0  0  0
 30 32  1  0  0  0  0
 30 33  1  0  0  0  0
 33 34  1  0  0  0  0
M  CHG  4   4   1  15   1  18   1  28   1
M  END
>  <CHROM.1>
-169.31132484,26.87306701,-37.30071234,61.04778602,45.49429726,-58.57134366
51.95914489,55.18201621,-83.63900771,-54.84060073,106.28347408,-139.73713055
108.80016736,40.92528836,58.47035557,-12.08578073,7.05355954,18.46364292
-0.11707268,-0.96922143,0.27848087

>  <Name>
1mwl

>  <RI>
0

>  <Rbt.Current_Directory>
/home/itssahil/PROJECTS/Mol_Feturizer/New_Systems/rnas/1mwl

>  <Rbt.Executable>
rbdock ($Id: //depot/dev/client3/rdock/2013.1/src/exe/rbdock.cxx#4 $)

>  <Rbt.Library>
libRbt.so (2013.1, Build901 2013/11/27)

>  <Rbt.Parameter_File>
/export/apps/rDock/src/rDock_2013.1_src/data/scripts/dock_solv.prm

>  <Rbt.Receptor>
prm/pocket_docking_3.prm

>  <SCORE>
-70.6904

>  <SCORE.INTER>
-56.9982

>  <SCORE.INTER.CONST>
1

>  <SCORE.INTER.POLAR>
-9.55912

>  <SCORE.INTER.ROT>
6

>  <SCORE.INTER.SOLV>
24.7314

>  <SCORE.INTER.VDW>
-21.9789

>  <SCORE.INTER.norm>
-1.67642

>  <SCORE.INTRA>
-14.3908

>  <SCORE.INTRA.DIHEDRAL>
-14.2497

>  <SCORE.INTRA.DIHEDRAL.0>
42.0816

>  <SCORE.INTRA.POLAR>
-1.66693

>  <SCORE.INTRA.POLAR.0>
-0.254682

>  <SCORE.INTRA.REPUL>
0

>  <SCORE.INTRA.REPUL.0>
0

>  <SCORE.INTRA.SOLV>
1.53213

>  <SCORE.INTRA.SOLV.lig_0>
-109.803

>  <SCORE.INTRA.VDW>
-2.3645

>  <SCORE.INTRA.VDW.0>
0.32176

>  <SCORE.INTRA.norm>
-0.42326

>  <SCORE.RESTR>
0.698708

>  <SCORE.RESTR.CAVITY>
0.698708

>  <SCORE.RESTR.norm>
0.0205502

>  <SCORE.SYSTEM>
0

>  <SCORE.SYSTEM.CONST>
0

>  <SCORE.SYSTEM.DIHEDRAL>
0

>  <SCORE.SYSTEM.SOLV>
0

>  <SCORE.SYSTEM.norm>
0

>  <SCORE.heavy>
34

>  <SCORE.norm>
-2.07913

>  <RMSD>
3.064

$$$$
1mwl
 OpenBabel11021811403D
libRbt.so/2013.1/901 2013/11/27
 34 36  0  0  0  0  0  0  0  0999 V2000
  -10.3943    6.5727   21.7640 C   0  0  2  0  0  0  0  0  0  0  0  0
   -9.8811    7.1234   20.5885 O   0  0  0  0  0  0  0  0  0  0  0  0
   -9.3093    5.6233   22.3456 C   0  0  2  0  0  0  0  0  0  0  0  0
   -8.0732    6.3676   22.6053 N   0  3  0  0  0  0  0  0  0  0  0  0
   -9.0605    4.4221   21.3871 C   0  0  1  0  0  0  0  0  0  0  0  0
   -8.1331    3.5754   21.9000 O   0  0  0  0  0  0  0  0  0  0  0  0
  -10.4188    3.6826   21.1509 C   0  0  2  0  0  0  0  0  0  0  0  0
  -10.2232    2.5546   20.2724 O   0  0  0  0  0  0  0  0  0  0  0  0
  -11.4380    4.7054   20.5435 C   0  0  2  0  0  0  0  0  0  0  0  0
  -11.6172    5.8558   21.4567 O   0  0  0  0  0  0  0  0  0  0  0  0
  -12.8347    4.1338   20.2745 C   0  0  2  0  0  0  0  0  0  0  0  0
  -13.6393    5.1129   19.7025 O   0  0  0  0  0  0  0  0  0  0  0  0
  -13.5645    3.6649   21.5464 C   0  0  0  0  0  0  0  0  0  0  0  0
  -12.9915    9.6383   19.0852 C   0  0  2  0  0  0  0  0  0  0  0  0
  -13.6831   10.7554   18.3929 N   0  3  0  0  0  0  0  0  0  0  0  0
  -12.1068   10.1753   20.2492 C   0  0  0  0  0  0  0  0  0  0  0  0
  -11.3654    8.9876   20.9633 C   0  0  2  0  0  0  0  0  0  0  0  0
  -10.5254    9.5371   22.0898 N   0  3  0  0  0  0  0  0  0  0  0  0
  -10.4945    8.2147   19.9143 C   0  0  2  0  0  0  0  0  0  0  0  0
  -11.4022    7.6869   18.7765 C   0  0  2  0  0  0  0  0  0  0  0  0
  -10.6053    7.0247   17.8244 O   0  0  0  0  0  0  0  0  0  0  0  0
  -12.1143    8.8726   18.0720 C   0  0  1  0  0  0  0  0  0  0  0  0
  -12.9382    8.3662   17.0321 O   0  0  0  0  0  0  0  0  0  0  0  0
  -12.6128    8.6774   15.7055 C   0  0  2  0  0  0  0  0  0  0  0  0
  -13.9310    8.7546   14.9124 C   0  0  2  0  0  0  0  0  0  0  0  0
  -14.7349    9.7801   15.4551 O   0  0  0  0  0  0  0  0  0  0  0  0
  -14.6617    7.3710   14.9958 C   0  0  1  0  0  0  0  0  0  0  0  0
  -15.9602    7.3708   14.2788 N   0  3  0  0  0  0  0  0  0  0  0  0
  -17.0664    7.7562   15.1919 C   0  0  0  0  0  0  0  0  0  0  0  0
  -13.7263    6.2586   14.4089 C   0  0  2  0  0  0  0  0  0  0  0  0
  -13.4214    6.5510   13.0323 O   0  0  0  0  0  0  0  0  0  0  0  0
  -14.3460    4.9465   14.4508 C   0  0  0  0  0  0  0  0  0  0  0  0
  -12.3617    6.2532   15.1645 C   0  0  0  0  0  0  0  0  0  0  0  0
  -11.7477    7.6213   15.1524 O   0  0  0  0  0  0  0  0  0  0  0  0
  1  2  1  6  0  0  0
  1  3  1  0  0  0  0
  1 10  1  0  0  0  0
  3  4  1  6  0  0  0
  3  5  1  0  0  0  0
  5  6  1  1  0  0  0
  5  7  1  0  0  0  0
  7  8  1  6  0  0  0
  7  9  1  0  0  0  0
  9 10  1  1  0  0  0
  9 11  1  0  0  0  0
 11 12  1  1  0  0  0
 11 13  1  0  0  0  0
 14 15  1  6  0  0  0
 14 16  1  0  0  0  0
 14 22  1  0  0  0  0
 16 17  1  0  0  0  0
 17 18  1  1  0  0  0
 17 19  1  0  0  0  0
 19  2  1  1  0  0  0
 19 20  1  0  0  0  0
 20 21  1  6  0  0  0
 20 22  1  0  0  0  0
 22 23  1  6  0  0  0
 24 23  1  1  0  0  0
 24 25  1  0  0  0  0
 24 34  1  0  0  0  0
 25 26  1  1  0  0  0
 25 27  1  0  0  0  0
 27 28  1  6  0  0  0
 27 30  1  0  0  0  0
 28 29  1  0  0  0  0
 30 31  1  6  0  0  0
 30 32  1  0  0  0  0
 30 33  1  0  0  0  0
 33 34  1  0  0  0  0
M  CHG  4   4   1  15   1  18   1  28   1
M  END
>  <CHROM.1>
-168.37280894,22.99214474,-43.91954247,62.90312064,-55.75881569,-178.24517343
59.66963009,45.58540770,158.44433837,-55.89241930,125.90827936,-148.24949582
166.19993086,28.99539280,64.04992912,-12.09128973,6.88469373,18.54069334
-0.15121135,-1.00637885,0.16519390

>  <Name>
1mwl

>  <RI>
0

>  <Rbt.Current_Directory>
/home/itssahil/PROJECTS/Mol_Feturizer/New_Systems/rnas/1mwl

>  <Rbt.Executable>
rbdock ($Id: //depot/dev/client3/rdock/2013.1/src/exe/rbdock.cxx#4 $)

>  <Rbt.Library>
libRbt.so (2013.1, Build901 2013/11/27)

>  <Rbt.Parameter_File>
/export/apps/rDock/src/rDock_2013.1_src/data/scripts/dock_solv.prm

>  <Rbt.Receptor>
prm/pocket_docking_4.prm

>  <SCORE>
-63.7551

>  <SCORE.INTER>
-49.075

>  <SCORE.INTER.CONST>
1

>  <SCORE.INTER.POLAR>
-8.51091

>  <SCORE.INTER.ROT>
6

>  <SCORE.INTER.SOLV>
24.4214

>  <SCORE.INTER.VDW>
-20.0875

>  <SCORE.INTER.norm>
-1.44338

>  <SCORE.INTRA>
-14.6801

>  <SCORE.INTRA.DIHEDRAL>
-20.2397

>  <SCORE.INTRA.DIHEDRAL.0>
42.0816

>  <SCORE.INTRA.POLAR>
-0.671162

>  <SCORE.INTRA.POLAR.0>
-0.254682

>  <SCORE.INTRA.REPUL>
0

>  <SCORE.INTRA.REPUL.0>
0

>  <SCORE.INTRA.SOLV>
0.0156133

>  <SCORE.INTRA.SOLV.lig_0>
-109.803

>  <SCORE.INTRA.VDW>
-2.28611

>  <SCORE.INTRA.VDW.0>
0.32176

>  <SCORE.INTRA.norm>
-0.431767

>  <SCORE.RESTR>
0

>  <SCORE.RESTR.CAVITY>
0

>  <SCORE.RESTR.norm>
0

>  <SCORE.SYSTEM>
0

>  <SCORE.SYSTEM.CONST>
0

>  <SCORE.SYSTEM.DIHEDRAL>
0

>  <SCORE.SYSTEM.SOLV>
0

>  <SCORE.SYSTEM.norm>
0

>  <SCORE.heavy>
34

>  <SCORE.norm>
-1.87515

>  <RMSD>
3.090

$$$$
1mwl
 OpenBabel11021811403D
libRbt.so/2013.1/901 2013/11/27
 34 36  0  0  0  0  0  0  0  0999 V2000
  -11.6401    5.4837   21.0830 C   0  0  2  0  0  0  0  0  0  0  0  0
  -11.9563    6.7735   21.5132 O   0  0  0  0  0  0  0  0  0  0  0  0
  -10.7710    4.8237   22.1902 C   0  0  2  0  0  0  0  0  0  0  0  0
  -11.5058    4.7936   23.4586 N   0  3  0  0  0  0  0  0  0  0  0  0
   -9.4114    5.5679   22.3369 C   0  0  1  0  0  0  0  0  0  0  0  0
   -8.6367    4.9820   23.2838 O   0  0  0  0  0  0  0  0  0  0  0  0
   -8.6898    5.5668   20.9488 C   0  0  2  0  0  0  0  0  0  0  0  0
   -7.4183    6.2415   21.0503 O   0  0  0  0  0  0  0  0  0  0  0  0
   -9.6243    6.2700   19.9067 C   0  0  2  0  0  0  0  0  0  0  0  0
  -10.9233    5.5664   19.8247 O   0  0  0  0  0  0  0  0  0  0  0  0
   -9.0633    6.3283   18.4813 C   0  0  2  0  0  0  0  0  0  0  0  0
   -9.7784    7.2577   17.7342 O   0  0  0  0  0  0  0  0  0  0  0  0
   -9.1678    4.9928   17.7224 C   0  0  0  0  0  0  0  0  0  0  0  0
  -14.3146    9.9836   19.9662 C   0  0  2  0  0  0  0  0  0  0  0  0
  -14.7986   11.0674   19.0737 N   0  3  0  0  0  0  0  0  0  0  0  0
  -12.8891   10.3081   20.5035 C   0  0  0  0  0  0  0  0  0  0  0  0
  -12.3789    9.1471   21.4318 C   0  0  2  0  0  0  0  0  0  0  0  0
  -11.0024    9.4938   21.9434 N   0  3  0  0  0  0  0  0  0  0  0  0
  -12.3765    7.8025   20.6265 C   0  0  2  0  0  0  0  0  0  0  0  0
  -13.8066    7.5038   20.1140 C   0  0  2  0  0  0  0  0  0  0  0  0
  -13.7853    6.3131   19.3644 O   0  0  0  0  0  0  0  0  0  0  0  0
  -14.2890    8.6515   19.1869 C   0  0  1  0  0  0  0  0  0  0  0  0
  -15.5996    8.3557   18.7274 O   0  0  0  0  0  0  0  0  0  0  0  0
  -16.1226    9.1018   17.6632 C   0  0  2  0  0  0  0  0  0  0  0  0
  -17.2888    8.2945   17.0621 C   0  0  2  0  0  0  0  0  0  0  0  0
  -18.2825    8.1177   18.0489 O   0  0  0  0  0  0  0  0  0  0  0  0
  -16.7502    6.9115   16.5598 C   0  0  1  0  0  0  0  0  0  0  0  0
  -17.8216    6.0578   15.9911 N   0  3  0  0  0  0  0  0  0  0  0  0
  -17.8346    4.7237   16.6438 C   0  0  0  0  0  0  0  0  0  0  0  0
  -15.6326    7.1529   15.4875 C   0  0  2  0  0  0  0  0  0  0  0  0
  -16.1744    7.8839   14.3714 O   0  0  0  0  0  0  0  0  0  0  0  0
  -15.0913    5.9078   14.9739 C   0  0  0  0  0  0  0  0  0  0  0  0
  -14.5020    8.0464   16.0845 C   0  0  0  0  0  0  0  0  0  0  0  0
  -15.0742    9.3118   16.6501 O   0  0  0  0  0  0  0  0  0  0  0  0
  1  2  1  1  0  0  0
  1  3  1  0  0  0  0
  1 10  1  0  0  0  0
  3  4  1  1  0  0  0
  3  5  1  0  0  0  0
  5  6  1  1  0  0  0
  5  7  1  0  0  0  0
  7  8  1  1  0  0  0
  7  9  1  0  0  0  0
  9 10  1  6  0  0  0
  9 11  1  0  0  0  0
 11 12  1  6  0  0  0
 11 13  1  0  0  0  0
 14 15  1  6  0  0  0
 14 16  1  0  0  0  0
 14 22  1  0  0  0  0
 16 17  1  0  0  0  0
 17 18  1  6  0  0  0
 17 19  1  0  0  0  0
 19  2  1  1  0  0  0
 19 20  1  0  0  0  0
 20 21  1  6  0  0  0
 20 22  1  0  0  0  0
 22 23  1  1  0  0  0
 24 23  1  1  0  0  0
 24 25  1  0  0  0  0
 24 34  1  0  0  0  0
 25 26  1  1  0  0  0
 25 27  1  0  0  0  0
 27 28  1  6  0  0  0
 27 30  1  0  0  0  0
 28 29  1  0  0  0  0
 30 31  1  6  0  0  0
 30 32  1  0  0  0  0
 30 33  1  0  0  0  0
 33 34  1  0  0  0  0
M  CHG  4   4   1  15   1  18   1  28   1
M  END
>  <CHROM.1>
160.26087712,-169.78329104,168.06968490,-131.70516885,58.80659153,-164.31270478
-65.28236711,93.82312733,61.46490783,-23.46672003,73.20902881,160.75264607
178.06466912,-6.44998117,-61.85247599,-13.06839153,7.19477445,19.12212156
-0.28762514,0.57377890,-2.30894956

>  <Name>
1mwl

>  <RI>
0

>  <Rbt.Current_Directory>
/home/itssahil/PROJECTS/Mol_Feturizer/New_Systems/rnas/1mwl

>  <Rbt.Executable>
rbdock ($Id: //depot/dev/client3/rdock/2013.1/src/exe/rbdock.cxx#4 $)

>  <Rbt.Library>
libRbt.so (2013.1, Build901 2013/11/27)

>  <Rbt.Parameter_File>
/export/apps/rDock/src/rDock_2013.1_src/data/scripts/dock_solv.prm

>  <Rbt.Receptor>
prm/pocket_docking_6.prm

>  <SCORE>
-65.2496

>  <SCORE.INTER>
-51.0376

>  <SCORE.INTER.CONST>
1

>  <SCORE.INTER.POLAR>
-8.80146

>  <SCORE.INTER.ROT>
6

>  <SCORE.INTER.SOLV>
22.4932

>  <SCORE.INTER.VDW>
-19.7846

>  <SCORE.INTER.norm>
-1.50111

>  <SCORE.INTRA>
-14.2119

>  <SCORE.INTRA.DIHEDRAL>
-18.849

>  <SCORE.INTRA.DIHEDRAL.0>
42.0816

>  <SCORE.INTRA.POLAR>
-1.34872

>  <SCORE.INTRA.POLAR.0>
-0.254682

>  <SCORE.INTRA.REPUL>
0.0676772

>  <SCORE.INTRA.REPUL.0>
0

>  <SCORE.INTRA.SOLV>
-1.1837

>  <SCORE.INTRA.SOLV.lig_0>
-109.803

>  <SCORE.INTRA.VDW>
0.0517083

>  <SCORE.INTRA.VDW.0>
0.32176

>  <SCORE.INTRA.norm>
-0.417997

>  <SCORE.RESTR>
0

>  <SCORE.RESTR.CAVITY>
0

>  <SCORE.RESTR.norm>
0

>  <SCORE.SYSTEM>
0

>  <SCORE.SYSTEM.CONST>
0

>  <SCORE.SYSTEM.DIHEDRAL>
0

>  <SCORE.SYSTEM.SOLV>
0

>  <SCORE.SYSTEM.norm>
0

>  <SCORE.heavy>
34

>  <SCORE.norm>
-1.9191

>  <RMSD>
3.092

$$$$
1mwl
 OpenBabel11021811403D
libRbt.so/2013.1/901 2013/11/27
 34 36  0  0  0  0  0  0  0  0999 V2000
  -10.4668    6.5271   21.6778 C   0  0  2  0  0  0  0  0  0  0  0  0
   -9.8887    7.1901   20.5940 O   0  0  0  0  0  0  0  0  0  0  0  0
   -9.3929    5.5672   22.2629 C   0  0  2  0  0  0  0  0  0  0  0  0
   -8.2087    6.3260   22.6769 N   0  3  0  0  0  0  0  0  0  0  0  0
   -9.0278    4.4589   21.2323 C   0  0  1  0  0  0  0  0  0  0  0  0
   -8.1097    3.6021   21.7453 O   0  0  0  0  0  0  0  0  0  0  0  0
  -10.3356    3.6990   20.8326 C   0  0  2  0  0  0  0  0  0  0  0  0
  -10.0324    2.6552   19.8835 O   0  0  0  0  0  0  0  0  0  0  0  0
  -11.3448    4.7362   20.2330 C   0  0  2  0  0  0  0  0  0  0  0  0
  -11.6353    5.7998   21.2197 O   0  0  0  0  0  0  0  0  0  0  0  0
  -12.6949    4.1450   19.8113 C   0  0  2  0  0  0  0  0  0  0  0  0
  -13.5264    5.1591   19.3492 O   0  0  0  0  0  0  0  0  0  0  0  0
  -13.4526    3.4563   20.9610 C   0  0  0  0  0  0  0  0  0  0  0  0
  -13.0423    9.6584   19.1033 C   0  0  2  0  0  0  0  0  0  0  0  0
  -13.7531   10.7661   18.4156 N   0  3  0  0  0  0  0  0  0  0  0  0
  -12.1648   10.2061   20.2677 C   0  0  0  0  0  0  0  0  0  0  0  0
  -11.4029    9.0285   20.9769 C   0  0  2  0  0  0  0  0  0  0  0  0
  -10.5703    9.5881   22.1040 N   0  3  0  0  0  0  0  0  0  0  0  0
  -10.5209    8.2733   19.9242 C   0  0  2  0  0  0  0  0  0  0  0  0
  -11.4216    7.7343   18.7860 C   0  0  2  0  0  0  0  0  0  0  0  0
  -10.6153    7.0884   17.8306 O   0  0  0  0  0  0  0  0  0  0  0  0
  -12.1541    8.9104   18.0863 C   0  0  1  0  0  0  0  0  0  0  0  0
  -12.9711    8.3938   17.0460 O   0  0  0  0  0  0  0  0  0  0  0  0
  -12.6510    8.7120   15.7198 C   0  0  2  0  0  0  0  0  0  0  0  0
  -13.9709    8.7734   14.9279 C   0  0  2  0  0  0  0  0  0  0  0  0
  -14.7878    9.7871   15.4734 O   0  0  0  0  0  0  0  0  0  0  0  0
  -14.6830    7.3801   15.0091 C   0  0  1  0  0  0  0  0  0  0  0  0
  -15.9820    7.3641   14.2933 N   0  3  0  0  0  0  0  0  0  0  0  0
  -17.0902    7.7502   15.2036 C   0  0  0  0  0  0  0  0  0  0  0  0
  -13.7334    6.2814   14.4191 C   0  0  2  0  0  0  0  0  0  0  0  0
  -13.4337    6.5806   13.0429 O   0  0  0  0  0  0  0  0  0  0  0  0
  -14.3357    4.9611   14.4588 C   0  0  0  0  0  0  0  0  0  0  0  0
  -12.3682    6.2925   15.1736 C   0  0  0  0  0  0  0  0  0  0  0  0
  -11.7724    7.6687   15.1638 O   0  0  0  0  0  0  0  0  0  0  0  0
  1  2  1  6  0  0  0
  1  3  1  0  0  0  0
  1 10  1  0  0  0  0
  3  4  1  6  0  0  0
  3  5  1  0  0  0  0
  5  6  1  1  0  0  0
  5  7  1  0  0  0  0
  7  8  1  6  0  0  0
  7  9  1  0  0  0  0
  9 10  1  1  0  0  0
  9 11  1  0  0  0  0
 11 12  1  1  0  0  0
 11 13  1  0  0  0  0
 14 15  1  6  0  0  0
 14 16  1  0  0  0  0
 14 22  1  0  0  0  0
 16 17  1  0  0  0  0
 17 18  1  1  0  0  0
 17 19  1  0  0  0  0
 19  2  1  1  0  0  0
 19 20  1  0  0  0  0
 20 21  1  6  0  0  0
 20 22  1  0  0  0  0
 22 23  1  6  0  0  0
 24 23  1  1  0  0  0
 24 25  1  0  0  0  0
 24 34  1  0  0  0  0
 25 26  1  1  0  0  0
 25 27  1  0  0  0  0
 27 28  1  6  0  0  0
 27 30  1  0  0  0  0
 28 29  1  0  0  0  0
 30 31  1  6  0  0  0
 30 32  1  0  0  0  0
 30 33  1  0  0  0  0
 33 34  1  0  0  0  0
M  CHG  4   4   1  15   1  18   1  28   1
M  END
>  <CHROM.1>
-171.48208048,30.57570396,94.31355723,55.64407323,47.47280986,177.48773753
-49.31604430,166.15033659,37.32179794,-53.84077046,126.05361438,-148.17075408
164.73566230,29.73908212,-56.58149124,-12.09873739,6.89811743,18.46389479
-0.07542499,-0.98977895,0.25523607

>  <Name>
1mwl

>  <RI>
0

>  <Rbt.Current_Directory>
/home/itssahil/PROJECTS/Mol_Feturizer/New_Systems/rnas/1mwl

>  <Rbt.Executable>
rbdock ($Id: //depot/dev/client3/rdock/2013.1/src/exe/rbdock.cxx#4 $)

>  <Rbt.Library>
libRbt.so (2013.1, Build901 2013/11/27)

>  <Rbt.Parameter_File>
/export/apps/rDock/src/rDock_2013.1_src/data/scripts/dock_solv.prm

>  <Rbt.Receptor>
prm/pocket_docking_4.prm

>  <SCORE>
-67.1844

>  <SCORE.INTER>
-53.1648

>  <SCORE.INTER.CONST>
1

>  <SCORE.INTER.POLAR>
-9.49809

>  <SCORE.INTER.ROT>
6

>  <SCORE.INTER.SOLV>
24.6339

>  <SCORE.INTER.VDW>
-19.5943

>  <SCORE.INTER.norm>
-1.56367

>  <SCORE.INTRA>
-14.0196

>  <SCORE.INTRA.DIHEDRAL>
-18.828

>  <SCORE.INTRA.DIHEDRAL.0>
42.0816

>  <SCORE.INTRA.POLAR>
-0.815324

>  <SCORE.INTRA.POLAR.0>
-0.254682

>  <SCORE.INTRA.REPUL>
0.00633378

>  <SCORE.INTRA.REPUL.0>
0

>  <SCORE.INTRA.SOLV>
1.04585

>  <SCORE.INTRA.SOLV.lig_0>
-109.803

>  <SCORE.INTRA.VDW>
-2.38811

>  <SCORE.INTRA.VDW.0>
0.32176

>  <SCORE.INTRA.norm>
-0.412342

>  <SCORE.RESTR>
0.00010979

>  <SCORE.RESTR.CAVITY>
0.00010979

>  <SCORE.RESTR.norm>
3.2291e-06

>  <SCORE.SYSTEM>
0

>  <SCORE.SYSTEM.CONST>
0

>  <SCORE.SYSTEM.DIHEDRAL>
0

>  <SCORE.SYSTEM.SOLV>
0

>  <SCORE.SYSTEM.norm>
0

>  <SCORE.heavy>
34

>  <SCORE.norm>
-1.97601

>  <RMSD>
3.104

$$$$
1mwl
 OpenBabel11021811403D
libRbt.so/2013.1/901 2013/11/27
 34 36  0  0  0  0  0  0  0  0999 V2000
  -10.4070    6.5433   21.7270 C   0  0  2  0  0  0  0  0  0  0  0  0
   -9.8646    7.1724   20.6051 O   0  0  0  0  0  0  0  0  0  0  0  0
   -9.3219    5.5847   22.2932 C   0  0  2  0  0  0  0  0  0  0  0  0
   -8.1136    6.3386   22.6414 N   0  3  0  0  0  0  0  0  0  0  0  0
   -9.0107    4.4470   21.2771 C   0  0  1  0  0  0  0  0  0  0  0  0
   -8.0830    3.5916   21.7749 O   0  0  0  0  0  0  0  0  0  0  0  0
  -10.3420    3.6940   20.9482 C   0  0  2  0  0  0  0  0  0  0  0  0
  -10.0886    2.6235   20.0142 O   0  0  0  0  0  0  0  0  0  0  0  0
  -11.3621    4.7287   20.3629 C   0  0  2  0  0  0  0  0  0  0  0  0
  -11.6010    5.8198   21.3334 O   0  0  0  0  0  0  0  0  0  0  0  0
  -12.7345    4.1443   20.0094 C   0  0  2  0  0  0  0  0  0  0  0  0
  -13.2058    3.3803   21.0712 O   0  0  0  0  0  0  0  0  0  0  0  0
  -12.7107    3.2119   18.7845 C   0  0  0  0  0  0  0  0  0  0  0  0
  -12.9955    9.6952   19.1586 C   0  0  2  0  0  0  0  0  0  0  0  0
  -13.6960   10.8258   18.4981 N   0  3  0  0  0  0  0  0  0  0  0  0
  -12.1289   10.2039   20.3486 C   0  0  0  0  0  0  0  0  0  0  0  0
  -11.3777    9.0026   21.0289 C   0  0  2  0  0  0  0  0  0  0  0  0
  -10.5555    9.5245   22.1814 N   0  3  0  0  0  0  0  0  0  0  0  0
  -10.4867    8.2777   19.9625 C   0  0  2  0  0  0  0  0  0  0  0  0
  -11.3768    7.7769   18.7989 C   0  0  2  0  0  0  0  0  0  0  0  0
  -10.5622    7.1584   17.8324 O   0  0  0  0  0  0  0  0  0  0  0  0
  -12.0986    8.9763   18.1283 C   0  0  1  0  0  0  0  0  0  0  0  0
  -12.9060    8.4947   17.0640 O   0  0  0  0  0  0  0  0  0  0  0  0
  -12.8483    9.1504   15.8274 C   0  0  2  0  0  0  0  0  0  0  0  0
  -14.2806    9.1977   15.2623 C   0  0  2  0  0  0  0  0  0  0  0  0
  -15.1005    9.9298   16.1478 O   0  0  0  0  0  0  0  0  0  0  0  0
  -14.8132    7.7341   15.0913 C   0  0  1  0  0  0  0  0  0  0  0  0
  -16.2038    7.6926   14.5771 N   0  3  0  0  0  0  0  0  0  0  0  0
  -17.1797    7.8822   15.6806 C   0  0  0  0  0  0  0  0  0  0  0  0
  -13.8614    6.9496   14.1239 C   0  0  2  0  0  0  0  0  0  0  0  0
  -13.8300    7.5955   12.8373 O   0  0  0  0  0  0  0  0  0  0  0  0
  -14.3012    5.5818   13.9164 C   0  0  0  0  0  0  0  0  0  0  0  0
  -12.3989    6.9872   14.6649 C   0  0  0  0  0  0  0  0  0  0  0  0
  -11.9666    8.4010   14.9160 O   0  0  0  0  0  0  0  0  0  0  0  0
  1  2  1  6  0  0  0
  1  3  1  0  0  0  0
  1 10  1  0  0  0  0
  3  4  1  6  0  0  0
  3  5  1  0  0  0  0
  5  6  1  1  0  0  0
  5  7  1  0  0  0  0
  7  8  1  6  0  0  0
  7  9  1  0  0  0  0
  9 10  1  1  0  0  0
  9 11  1  0  0  0  0
 11 12  1  1  0  0  0
 11 13  1  0  0  0  0
 14 15  1  6  0  0  0
 14 16  1  0  0  0  0
 14 22  1  0  0  0  0
 16 17  1  0  0  0  0
 17 18  1  1  0  0  0
 17 19  1  0  0  0  0
 19  2  1  1  0  0  0
 19 20  1  0  0  0  0
 20 21  1  6  0  0  0
 20 22  1  0  0  0  0
 22 23  1  6  0  0  0
 24 23  1  1  0  0  0
 24 25  1  0  0  0  0
 24 34  1  0  0  0  0
 25 26  1  1  0  0  0
 25 27  1  0  0  0  0
 27 28  1  6  0  0  0
 27 30  1  0  0  0  0
 28 29  1  0  0  0  0
 30 31  1  6  0  0  0
 30 32  1  0  0  0  0
 30 33  1  0  0  0  0
 33 34  1  0  0  0  0
M  CHG  4   4   1  15   1  18   1  28   1
M  END
>  <CHROM.1>
-169.15785010,25.46044494,-45.27612517,60.53020987,39.92483208,48.39857175
61.93059051,174.12207604,-80.08212088,61.07877860,106.68112315,-140.86700714
108.06134615,37.50113634,-60.42189690,-12.10609766,6.99953114,18.50332626
-0.19779436,-0.98809189,0.19429392

>  <Name>
1mwl

>  <RI>
0

>  <Rbt.Current_Directory>
/home/itssahil/PROJECTS/Mol_Feturizer/New_Systems/rnas/1mwl

>  <Rbt.Executable>
rbdock ($Id: //depot/dev/client3/rdock/2013.1/src/exe/rbdock.cxx#4 $)

>  <Rbt.Library>
libRbt.so (2013.1, Build901 2013/11/27)

>  <Rbt.Parameter_File>
/export/apps/rDock/src/rDock_2013.1_src/data/scripts/dock_solv.prm

>  <Rbt.Receptor>
prm/pocket_docking_4.prm

>  <SCORE>
-68.9533

>  <SCORE.INTER>
-57.2479

>  <SCORE.INTER.CONST>
1

>  <SCORE.INTER.POLAR>
-9.55823

>  <SCORE.INTER.ROT>
6

>  <SCORE.INTER.SOLV>
24.5603

>  <SCORE.INTER.VDW>
-22.0913

>  <SCORE.INTER.norm>
-1.68376

>  <SCORE.INTRA>
-11.7054

>  <SCORE.INTRA.DIHEDRAL>
-13.9449

>  <SCORE.INTRA.DIHEDRAL.0>
42.0816

>  <SCORE.INTRA.POLAR>
-0.96513

>  <SCORE.INTRA.POLAR.0>
-0.254682

>  <SCORE.INTRA.REPUL>
0

>  <SCORE.INTRA.REPUL.0>
0

>  <SCORE.INTRA.SOLV>
1.80681

>  <SCORE.INTRA.SOLV.lig_0>
-109.803

>  <SCORE.INTRA.VDW>
-2.35494

>  <SCORE.INTRA.VDW.0>
0.32176

>  <SCORE.INTRA.norm>
-0.344278

>  <SCORE.RESTR>
0

>  <SCORE.RESTR.CAVITY>
0

>  <SCORE.RESTR.norm>
0

>  <SCORE.SYSTEM>
0

>  <SCORE.SYSTEM.CONST>
0

>  <SCORE.SYSTEM.DIHEDRAL>
0

>  <SCORE.SYSTEM.SOLV>
0

>  <SCORE.SYSTEM.norm>
0

>  <SCORE.heavy>
34

>  <SCORE.norm>
-2.02804

>  <RMSD>
3.105

$$$$
1mwl
 OpenBabel11021811403D
libRbt.so/2013.1/901 2013/11/27
 34 36  0  0  0  0  0  0  0  0999 V2000
  -10.4546    7.5495   21.7372 C   0  0  2  0  0  0  0  0  0  0  0  0
  -10.4269    8.5513   20.7655 O   0  0  0  0  0  0  0  0  0  0  0  0
   -8.9874    7.0973   21.9815 C   0  0  2  0  0  0  0  0  0  0  0  0
   -8.1738    8.2361   22.4183 N   0  3  0  0  0  0  0  0  0  0  0  0
   -8.3980    6.4329   20.7030 C   0  0  1  0  0  0  0  0  0  0  0  0
   -7.1260    6.0126   20.9165 O   0  0  0  0  0  0  0  0  0  0  0  0
   -9.3181    5.2358   20.2934 C   0  0  2  0  0  0  0  0  0  0  0  0
   -8.7948    4.5888   19.1144 O   0  0  0  0  0  0  0  0  0  0  0  0
  -10.7630    5.7872   20.0445 C   0  0  2  0  0  0  0  0  0  0  0  0
  -11.2760    6.4520   21.2629 O   0  0  0  0  0  0  0  0  0  0  0  0
  -11.7955    4.7233   19.6545 C   0  0  2  0  0  0  0  0  0  0  0  0
  -11.3190    3.9799   18.5804 O   0  0  0  0  0  0  0  0  0  0  0  0
  -13.1467    5.3102   19.2069 C   0  0  0  0  0  0  0  0  0  0  0  0
  -14.4191    8.8229   19.2661 C   0  0  2  0  0  0  0  0  0  0  0  0
  -15.6726    9.3863   18.7033 N   0  3  0  0  0  0  0  0  0  0  0  0
  -14.1099    9.4498   20.6580 C   0  0  0  0  0  0  0  0  0  0  0  0
  -12.7725    8.8609   21.2363 C   0  0  2  0  0  0  0  0  0  0  0  0
  -12.5049    9.4789   22.5866 N   0  3  0  0  0  0  0  0  0  0  0  0
  -11.6047    9.1403   20.2291 C   0  0  2  0  0  0  0  0  0  0  0  0
  -11.9374    8.4982   18.8601 C   0  0  2  0  0  0  0  0  0  0  0  0
  -10.8985    8.7845   17.9552 O   0  0  0  0  0  0  0  0  0  0  0  0
  -13.2514    9.1017   18.2959 C   0  0  1  0  0  0  0  0  0  0  0  0
  -13.5354    8.5012   17.0408 O   0  0  0  0  0  0  0  0  0  0  0  0
  -13.5161    9.3035   15.8926 C   0  0  2  0  0  0  0  0  0  0  0  0
  -14.9339    9.2828   15.2907 C   0  0  2  0  0  0  0  0  0  0  0  0
  -15.8399    9.8222   16.2292 O   0  0  0  0  0  0  0  0  0  0  0  0
  -15.3171    7.8067   14.9312 C   0  0  1  0  0  0  0  0  0  0  0  0
  -16.6860    7.6962   14.3707 N   0  3  0  0  0  0  0  0  0  0  0  0
  -17.6945    7.6048   15.4571 C   0  0  0  0  0  0  0  0  0  0  0  0
  -14.2731    7.2380   13.9096 C   0  0  2  0  0  0  0  0  0  0  0  0
  -14.2779    8.0341   12.7098 O   0  0  0  0  0  0  0  0  0  0  0  0
  -14.5726    5.8697   13.5282 C   0  0  0  0  0  0  0  0  0  0  0  0
  -12.8330    7.3483   14.4986 C   0  0  0  0  0  0  0  0  0  0  0  0
  -12.5463    8.7561   14.9285 O   0  0  0  0  0  0  0  0  0  0  0  0
  1  2  1  6  0  0  0
  1  3  1  0  0  0  0
  1 10  1  0  0  0  0
  3  4  1  6  0  0  0
  3  5  1  0  0  0  0
  5  6  1  1  0  0  0
  5  7  1  0  0  0  0
  7  8  1  6  0  0  0
  7  9  1  0  0  0  0
  9 10  1  1  0  0  0
  9 11  1  0  0  0  0
 11 12  1  6  0  0  0
 11 13  1  0  0  0  0
 14 15  1  6  0  0  0
 14 16  1  0  0  0  0
 14 22  1  0  0  0  0
 16 17  1  0  0  0  0
 17 18  1  1  0  0  0
 17 19  1  0  0  0  0
 19  2  1  1  0  0  0
 19 20  1  0  0  0  0
 20 21  1  6  0  0  0
 20 22  1  0  0  0  0
 22 23  1  6  0  0  0
 24 23  1  1  0  0  0
 24 25  1  0  0  0  0
 24 34  1  0  0  0  0
 25 26  1  1  0  0  0
 25 27  1  0  0  0  0
 27 28  1  6  0  0  0
 27 30  1  0  0  0  0
 28 29  1  0  0  0  0
 30 31  1  6  0  0  0
 30 32  1  0  0  0  0
 30 33  1  0  0  0  0
 33 34  1  0  0  0  0
M  CHG  4   4   1  15   1  18   1  28   1
M  END
>  <CHROM.1>
175.81288478,19.70969030,-34.21484871,70.29954471,-43.71287859,-52.38743895
176.85986553,52.57090303,-75.48224855,57.50622748,124.69153072,-117.86544212
172.17156472,35.28504052,-175.76995806,-12.43420143,7.60816463,18.32122470
0.60744288,-0.64043556,1.05931112

>  <Name>
1mwl

>  <RI>
0

>  <Rbt.Current_Directory>
/home/itssahil/PROJECTS/Mol_Feturizer/New_Systems/rnas/1mwl

>  <Rbt.Executable>
rbdock ($Id: //depot/dev/client3/rdock/2013.1/src/exe/rbdock.cxx#4 $)

>  <Rbt.Library>
libRbt.so (2013.1, Build901 2013/11/27)

>  <Rbt.Parameter_File>
/export/apps/rDock/src/rDock_2013.1_src/data/scripts/dock_solv.prm

>  <Rbt.Receptor>
prm/pocket_docking_6.prm

>  <SCORE>
-50.1096

>  <SCORE.INTER>
-40.5555

>  <SCORE.INTER.CONST>
1

>  <SCORE.INTER.POLAR>
-7.29886

>  <SCORE.INTER.ROT>
6

>  <SCORE.INTER.SOLV>
25.1427

>  <SCORE.INTER.VDW>
-18.6884

>  <SCORE.INTER.norm>
-1.19281

>  <SCORE.INTRA>
-9.55407

>  <SCORE.INTRA.DIHEDRAL>
-16.3204

>  <SCORE.INTRA.DIHEDRAL.0>
42.0816

>  <SCORE.INTRA.POLAR>
-0.646805

>  <SCORE.INTRA.POLAR.0>
-0.254682

>  <SCORE.INTRA.REPUL>
0

>  <SCORE.INTRA.REPUL.0>
0

>  <SCORE.INTRA.SOLV>
1.63303

>  <SCORE.INTRA.SOLV.lig_0>
-109.803

>  <SCORE.INTRA.VDW>
-0.0112693

>  <SCORE.INTRA.VDW.0>
0.32176

>  <SCORE.INTRA.norm>
-0.281002

>  <SCORE.RESTR>
0

>  <SCORE.RESTR.CAVITY>
0

>  <SCORE.RESTR.norm>
0

>  <SCORE.SYSTEM>
0

>  <SCORE.SYSTEM.CONST>
0

>  <SCORE.SYSTEM.DIHEDRAL>
0

>  <SCORE.SYSTEM.SOLV>
0

>  <SCORE.SYSTEM.norm>
0

>  <SCORE.heavy>
34

>  <SCORE.norm>
-1.47381

>  <RMSD>
3.124

$$$$
1mwl
 OpenBabel11021811403D
libRbt.so/2013.1/901 2013/11/27
 34 36  0  0  0  0  0  0  0  0999 V2000
  -10.6012    8.0839   21.3629 C   0  0  2  0  0  0  0  0  0  0  0  0
  -10.1343    8.7618   20.2355 O   0  0  0  0  0  0  0  0  0  0  0  0
   -9.3977    7.3122   21.9736 C   0  0  2  0  0  0  0  0  0  0  0  0
   -8.3239    8.2467   22.3248 N   0  3  0  0  0  0  0  0  0  0  0  0
   -8.8972    6.2115   20.9931 C   0  0  1  0  0  0  0  0  0  0  0  0
   -7.8631    5.5166   21.5298 O   0  0  0  0  0  0  0  0  0  0  0  0
  -10.0930    5.2597   20.6588 C   0  0  2  0  0  0  0  0  0  0  0  0
   -9.6615    4.2187   19.7575 O   0  0  0  0  0  0  0  0  0  0  0  0
  -11.2433    6.1160   20.0283 C   0  0  2  0  0  0  0  0  0  0  0  0
  -11.6643    7.1804   20.9659 O   0  0  0  0  0  0  0  0  0  0  0  0
  -12.5045    5.3243   19.6645 C   0  0  2  0  0  0  0  0  0  0  0  0
  -13.3940    6.1476   18.9831 O   0  0  0  0  0  0  0  0  0  0  0  0
  -13.2676    4.7839   20.8876 C   0  0  0  0  0  0  0  0  0  0  0  0
  -13.7050   10.3258   18.4854 C   0  0  2  0  0  0  0  0  0  0  0  0
  -14.6169   11.1637   17.6657 N   0  3  0  0  0  0  0  0  0  0  0  0
  -12.9600   11.1944   19.5420 C   0  0  0  0  0  0  0  0  0  0  0  0
  -11.9844   10.3019   20.3915 C   0  0  2  0  0  0  0  0  0  0  0  0
  -11.2854   11.1678   21.4105 N   0  3  0  0  0  0  0  0  0  0  0  0
  -10.9644    9.5937   19.4352 C   0  0  2  0  0  0  0  0  0  0  0  0
  -11.7340    8.7328   18.4040 C   0  0  2  0  0  0  0  0  0  0  0  0
  -10.8104    8.1295   17.5304 O   0  0  0  0  0  0  0  0  0  0  0  0
  -12.6806    9.6309   17.5633 C   0  0  1  0  0  0  0  0  0  0  0  0
  -13.3732    8.8220   16.6239 O   0  0  0  0  0  0  0  0  0  0  0  0
  -13.4398    9.2479   15.2910 C   0  0  2  0  0  0  0  0  0  0  0  0
  -14.9158    9.1762   14.8562 C   0  0  2  0  0  0  0  0  0  0  0  0
  -15.6772   10.0440   15.6684 O   0  0  0  0  0  0  0  0  0  0  0  0
  -15.4199    7.6990   14.9938 C   0  0  1  0  0  0  0  0  0  0  0  0
  -16.8477    7.5495   14.6208 N   0  3  0  0  0  0  0  0  0  0  0  0
  -17.7302    7.8956   15.7643 C   0  0  0  0  0  0  0  0  0  0  0  0
  -14.5327    6.7668   14.0989 C   0  0  2  0  0  0  0  0  0  0  0  0
  -14.6294    7.1738   12.7211 O   0  0  0  0  0  0  0  0  0  0  0  0
  -14.9502    5.3786   14.1755 C   0  0  0  0  0  0  0  0  0  0  0  0
  -13.0309    6.9182   14.4924 C   0  0  0  0  0  0  0  0  0  0  0  0
  -12.6185    8.3594   14.4510 O   0  0  0  0  0  0  0  0  0  0  0  0
  1  2  1  6  0  0  0
  1  3  1  0  0  0  0
  1 10  1  0  0  0  0
  3  4  1  6  0  0  0
  3  5  1  0  0  0  0
  5  6  1  1  0  0  0
  5  7  1  0  0  0  0
  7  8  1  6  0  0  0
  7  9  1  0  0  0  0
  9 10  1  1  0  0  0
  9 11  1  0  0  0  0
 11 12  1  1  0  0  0
 11 13  1  0  0  0  0
 14 15  1  6  0  0  0
 14 16  1  0  0  0  0
 14 22  1  0  0  0  0
 16 17  1  0  0  0  0
 17 18  1  1  0  0  0
 17 19  1  0  0  0  0
 19  2  1  1  0  0  0
 19 20  1  0  0  0  0
 20 21  1  6  0  0  0
 20 22  1  0  0  0  0
 22 23  1  6  0  0  0
 24 23  1  1  0  0  0
 24 25  1  0  0  0  0
 24 34  1  0  0  0  0
 25 26  1  1  0  0  0
 25 27  1  0  0  0  0
 27 28  1  6  0  0  0
 27 30  1  0  0  0  0
 28 29  1  0  0  0  0
 30 31  1  6  0  0  0
 30 32  1  0  0  0  0
 30 33  1  0  0  0  0
 33 34  1  0  0  0  0
M  CHG  4   4   1  15   1  18   1  28   1
M  END
>  <CHROM.1>
-178.92671985,35.14804936,-113.63520395,-63.45742375,-178.69582572,-173.46446909
64.30667367,-45.15832424,-100.87139740,61.24897988,107.03020598,-129.88747451
81.55929628,36.42669648,61.29477228,-12.49046667,7.89911159,18.15853036,0.16034310
-0.86952049,0.35694665

>  <Name>
1mwl

>  <RI>
0

>  <Rbt.Current_Directory>
/home/itssahil/PROJECTS/Mol_Feturizer/New_Systems/rnas/1mwl

>  <Rbt.Executable>
rbdock ($Id: //depot/dev/client3/rdock/2013.1/src/exe/rbdock.cxx#4 $)

>  <Rbt.Library>
libRbt.so (2013.1, Build901 2013/11/27)

>  <Rbt.Parameter_File>
/export/apps/rDock/src/rDock_2013.1_src/data/scripts/dock_solv.prm

>  <Rbt.Receptor>
prm/pocket_docking_4.prm

>  <SCORE>
-44.302

>  <SCORE.INTER>
-33.5007

>  <SCORE.INTER.CONST>
1

>  <SCORE.INTER.POLAR>
-6.34216

>  <SCORE.INTER.ROT>
6

>  <SCORE.INTER.SOLV>
28.9889

>  <SCORE.INTER.VDW>
-18.4562

>  <SCORE.INTER.norm>
-0.985314

>  <SCORE.INTRA>
-10.8184

>  <SCORE.INTRA.DIHEDRAL>
-15.8421

>  <SCORE.INTRA.DIHEDRAL.0>
42.0816

>  <SCORE.INTRA.POLAR>
-0.672746

>  <SCORE.INTRA.POLAR.0>
-0.254682

>  <SCORE.INTRA.REPUL>
0

>  <SCORE.INTRA.REPUL.0>
0

>  <SCORE.INTRA.SOLV>
2.85777

>  <SCORE.INTRA.SOLV.lig_0>
-109.803

>  <SCORE.INTRA.VDW>
-2.03885

>  <SCORE.INTRA.VDW.0>
0.32176

>  <SCORE.INTRA.norm>
-0.318187

>  <SCORE.RESTR>
0.0170357

>  <SCORE.RESTR.CAVITY>
0.0170357

>  <SCORE.RESTR.norm>
0.00050105

>  <SCORE.SYSTEM>
0

>  <SCORE.SYSTEM.CONST>
0

>  <SCORE.SYSTEM.DIHEDRAL>
0

>  <SCORE.SYSTEM.SOLV>
0

>  <SCORE.SYSTEM.norm>
0

>  <SCORE.heavy>
34

>  <SCORE.norm>
-1.303

>  <RMSD>
3.162

$$$$
1mwl
 OpenBabel11021811403D
libRbt.so/2013.1/901 2013/11/27
 34 36  0  0  0  0  0  0  0  0999 V2000
   -9.9590    7.9473   21.3428 C   0  0  2  0  0  0  0  0  0  0  0  0
   -9.7614    8.4680   20.0628 O   0  0  0  0  0  0  0  0  0  0  0  0
   -8.5764    7.4702   21.8698 C   0  0  2  0  0  0  0  0  0  0  0  0
   -7.6310    8.5906   21.8942 N   0  3  0  0  0  0  0  0  0  0  0  0
   -8.0388    6.2896   21.0092 C   0  0  1  0  0  0  0  0  0  0  0  0
   -6.8441    5.8509   21.4787 O   0  0  0  0  0  0  0  0  0  0  0  0
   -9.0986    5.1389   21.0233 C   0  0  2  0  0  0  0  0  0  0  0  0
   -8.6276    4.0212   20.2413 O   0  0  0  0  0  0  0  0  0  0  0  0
  -10.4454    5.7020   20.4552 C   0  0  2  0  0  0  0  0  0  0  0  0
  -10.9051    6.8504   21.2671 O   0  0  0  0  0  0  0  0  0  0  0  0
  -11.5989    4.6928   20.4254 C   0  0  2  0  0  0  0  0  0  0  0  0
  -11.1715    3.5104   19.8316 O   0  0  0  0  0  0  0  0  0  0  0  0
  -12.8147    5.1698   19.6100 C   0  0  0  0  0  0  0  0  0  0  0  0
  -13.6849    9.0979   18.4918 C   0  0  2  0  0  0  0  0  0  0  0  0
  -14.8101    9.6760   17.7138 N   0  3  0  0  0  0  0  0  0  0  0  0
  -13.1169   10.1427   19.4976 C   0  0  0  0  0  0  0  0  0  0  0  0
  -11.9153    9.5273   20.3025 C   0  0  2  0  0  0  0  0  0  0  0  0
  -11.3932   10.5577   21.2733 N   0  3  0  0  0  0  0  0  0  0  0  0
  -10.8049    9.0603   19.2999 C   0  0  2  0  0  0  0  0  0  0  0  0
  -11.3973    8.0177   18.3206 C   0  0  2  0  0  0  0  0  0  0  0  0
  -10.4012    7.6315   17.4048 O   0  0  0  0  0  0  0  0  0  0  0  0
  -12.5716    8.6456   17.5230 C   0  0  1  0  0  0  0  0  0  0  0  0
  -13.0973    7.6740   16.6307 O   0  0  0  0  0  0  0  0  0  0  0  0
  -13.8520    8.1085   15.5334 C   0  0  2  0  0  0  0  0  0  0  0  0
  -14.9613    7.0668   15.2942 C   0  0  2  0  0  0  0  0  0  0  0  0
  -15.7852    7.0013   16.4385 O   0  0  0  0  0  0  0  0  0  0  0  0
  -14.3038    5.6752   15.0008 C   0  0  1  0  0  0  0  0  0  0  0  0
  -15.3094    4.6060   14.7875 N   0  3  0  0  0  0  0  0  0  0  0  0
  -15.6943    3.9794   16.0779 C   0  0  0  0  0  0  0  0  0  0  0  0
  -13.3784    5.7983   13.7416 C   0  0  2  0  0  0  0  0  0  0  0  0
  -14.1562    6.2047   12.5999 O   0  0  0  0  0  0  0  0  0  0  0  0
  -12.7388    4.5383   13.4093 C   0  0  0  0  0  0  0  0  0  0  0  0
  -12.3165    6.9188   13.9651 C   0  0  0  0  0  0  0  0  0  0  0  0
  -12.9825    8.2065   14.3485 O   0  0  0  0  0  0  0  0  0  0  0  0
  1  2  1  6  0  0  0
  1  3  1  0  0  0  0
  1 10  1  0  0  0  0
  3  4  1  6  0  0  0
  3  5  1  0  0  0  0
  5  6  1  1  0  0  0
  5  7  1  0  0  0  0
  7  8  1  6  0  0  0
  7  9  1  0  0  0  0
  9 10  1  1  0  0  0
  9 11  1  0  0  0  0
 11 12  1  6  0  0  0
 11 13  1  0  0  0  0
 14 15  1  6  0  0  0
 14 16  1  0  0  0  0
 14 22  1  0  0  0  0
 16 17  1  0  0  0  0
 17 18  1  1  0  0  0
 17 19  1  0  0  0  0
 19  2  1  1  0  0  0
 19 20  1  0  0  0  0
 20 21  1  6  0  0  0
 20 22  1  0  0  0  0
 22 23  1  6  0  0  0
 24 23  1  1  0  0  0
 24 25  1  0  0  0  0
 24 34  1  0  0  0  0
 25 26  1  1  0  0  0
 25 27  1  0  0  0  0
 27 28  1  6  0  0  0
 27 30  1  0  0  0  0
 28 29  1  0  0  0  0
 30 31  1  6  0  0  0
 30 32  1  0  0  0  0
 30 33  1  0  0  0  0
 33 34  1  0  0  0  0
M  CHG  4   4   1  15   1  18   1  28   1
M  END
>  <CHROM.1>
-176.80290757,22.56816940,-95.54519935,65.96343660,-53.86286096,-49.49763791
173.95472973,-39.30107683,-0.90851332,-177.75018318,79.92435946,-144.67578622
176.22144608,32.16175442,62.49184830,-11.88093461,6.98100383,18.17866631
0.41948851,-0.81916897,0.43788068

>  <Name>
1mwl

>  <RI>
0

>  <Rbt.Current_Directory>
/home/itssahil/PROJECTS/Mol_Feturizer/New_Systems/rnas/1mwl

>  <Rbt.Executable>
rbdock ($Id: //depot/dev/client3/rdock/2013.1/src/exe/rbdock.cxx#4 $)

>  <Rbt.Library>
libRbt.so (2013.1, Build901 2013/11/27)

>  <Rbt.Parameter_File>
/export/apps/rDock/src/rDock_2013.1_src/data/scripts/dock_solv.prm

>  <Rbt.Receptor>
prm/pocket_docking_3.prm

>  <SCORE>
-42.3472

>  <SCORE.INTER>
-28.7823

>  <SCORE.INTER.CONST>
1

>  <SCORE.INTER.POLAR>
-4.99126

>  <SCORE.INTER.ROT>
6

>  <SCORE.INTER.SOLV>
22.494

>  <SCORE.INTER.VDW>
-17.6487

>  <SCORE.INTER.norm>
-0.846539

>  <SCORE.INTRA>
-13.6174

>  <SCORE.INTRA.DIHEDRAL>
-21.0565

>  <SCORE.INTRA.DIHEDRAL.0>
42.0816

>  <SCORE.INTRA.POLAR>
-0.920716

>  <SCORE.INTRA.POLAR.0>
-0.254682

>  <SCORE.INTRA.REPUL>
0

>  <SCORE.INTRA.REPUL.0>
0

>  <SCORE.INTRA.SOLV>
0.918764

>  <SCORE.INTRA.SOLV.lig_0>
-109.803

>  <SCORE.INTRA.VDW>
-0.418099

>  <SCORE.INTRA.VDW.0>
0.32176

>  <SCORE.INTRA.norm>
-0.400512

>  <SCORE.RESTR>
0.0525791

>  <SCORE.RESTR.CAVITY>
0.0525791

>  <SCORE.RESTR.norm>
0.00154644

>  <SCORE.SYSTEM>
0

>  <SCORE.SYSTEM.CONST>
0

>  <SCORE.SYSTEM.DIHEDRAL>
0

>  <SCORE.SYSTEM.SOLV>
0

>  <SCORE.SYSTEM.norm>
0

>  <SCORE.heavy>
34

>  <SCORE.norm>
-1.2455

>  <RMSD>
3.166

$$$$
1mwl
 OpenBabel11021811403D
libRbt.so/2013.1/901 2013/11/27
 34 36  0  0  0  0  0  0  0  0999 V2000
  -12.7344    5.6080   20.8815 C   0  0  2  0  0  0  0  0  0  0  0  0
  -12.9763    6.9089   21.3262 O   0  0  0  0  0  0  0  0  0  0  0  0
  -13.0953    4.6434   22.0460 C   0  0  2  0  0  0  0  0  0  0  0  0
  -14.4991    4.8189   22.4308 N   0  3  0  0  0  0  0  0  0  0  0  0
  -12.1410    4.8631   23.2562 C   0  0  1  0  0  0  0  0  0  0  0  0
  -12.4336    4.0071   24.2671 O   0  0  0  0  0  0  0  0  0  0  0  0
  -10.6666    4.6676   22.7709 C   0  0  2  0  0  0  0  0  0  0  0  0
   -9.7530    4.8546   23.8721 O   0  0  0  0  0  0  0  0  0  0  0  0
  -10.3864    5.6929   21.6201 C   0  0  2  0  0  0  0  0  0  0  0  0
  -11.3384    5.4876   20.5062 O   0  0  0  0  0  0  0  0  0  0  0  0
   -8.9789    5.6104   21.0185 C   0  0  2  0  0  0  0  0  0  0  0  0
   -8.7031    6.7749   20.3105 O   0  0  0  0  0  0  0  0  0  0  0  0
   -8.8005    4.4487   20.0239 C   0  0  0  0  0  0  0  0  0  0  0  0
  -14.7376   10.4356   19.6771 C   0  0  2  0  0  0  0  0  0  0  0  0
  -14.9873   11.5940   18.7819 N   0  3  0  0  0  0  0  0  0  0  0  0
  -13.3431   10.5579   20.3600 C   0  0  0  0  0  0  0  0  0  0  0  0
  -13.0810    9.3187   21.2904 C   0  0  2  0  0  0  0  0  0  0  0  0
  -11.7294    9.4699   21.9437 N   0  3  0  0  0  0  0  0  0  0  0  0
  -13.1706    8.0046   20.4410 C   0  0  2  0  0  0  0  0  0  0  0  0
  -14.5689    7.9079   19.7833 C   0  0  2  0  0  0  0  0  0  0  0  0
  -14.6256    6.7425   18.9967 O   0  0  0  0  0  0  0  0  0  0  0  0
  -14.8053    9.1302   18.8563 C   0  0  1  0  0  0  0  0  0  0  0  0
  -16.0906    9.0195   18.2628 O   0  0  0  0  0  0  0  0  0  0  0  0
  -16.2572    9.4424   16.9377 C   0  0  2  0  0  0  0  0  0  0  0  0
  -17.3760    8.5849   16.3163 C   0  0  2  0  0  0  0  0  0  0  0  0
  -18.5721    8.7986   17.0347 O   0  0  0  0  0  0  0  0  0  0  0  0
  -16.9559    7.0764   16.3699 C   0  0  1  0  0  0  0  0  0  0  0  0
  -17.9970    6.1773   15.8150 N   0  3  0  0  0  0  0  0  0  0  0  0
  -18.0496    4.9011   16.5730 C   0  0  0  0  0  0  0  0  0  0  0  0
  -15.6124    6.8879   15.5848 C   0  0  2  0  0  0  0  0  0  0  0  0
  -15.7883    7.2820   14.2110 O   0  0  0  0  0  0  0  0  0  0  0  0
  -15.1665    5.5064   15.5901 C   0  0  0  0  0  0  0  0  0  0  0  0
  -14.5141    7.8287   16.1695 C   0  0  0  0  0  0  0  0  0  0  0  0
  -14.9978    9.2478   16.1991 O   0  0  0  0  0  0  0  0  0  0  0  0
  1  2  1  1  0  0  0
  1  3  1  0  0  0  0
  1 10  1  0  0  0  0
  3  4  1  1  0  0  0
  3  5  1  0  0  0  0
  5  6  1  1  0  0  0
  5  7  1  0  0  0  0
  7  8  1  1  0  0  0
  7  9  1  0  0  0  0
  9 10  1  6  0  0  0
  9 11  1  0  0  0  0
 11 12  1  6  0  0  0
 11 13  1  0  0  0  0
 14 15  1  6  0  0  0
 14 16  1  0  0  0  0
 14 22  1  0  0  0  0
 16 17  1  0  0  0  0
 17 18  1  6  0  0  0
 17 19  1  0  0  0  0
 19  2  1  1  0  0  0
 19 20  1  0  0  0  0
 20 21  1  6  0  0  0
 20 22  1  0  0  0  0
 22 23  1  1  0  0  0
 24 23  1  1  0  0  0
 24 25  1  0  0  0  0
 24 34  1  0  0  0  0
 25 26  1  1  0  0  0
 25 27  1  0  0  0  0
 27 28  1  6  0  0  0
 27 30  1  0  0  0  0
 28 29  1  0  0  0  0
 30 31  1  6  0  0  0
 30 32  1  0  0  0  0
 30 33  1  0  0  0  0
 33 34  1  0  0  0  0
M  CHG  4   4   1  15   1  18   1  28   1
M  END
>  <CHROM.1>
-159.45911455,-167.19064612,84.72382544,76.89011866,71.07453360,-162.73165161
67.03388618,-54.44451143,-66.00719101,-51.10540751,96.63003420,150.07028530
178.78953123,-24.07401281,64.70840258,-13.79556783,7.11949638,19.40389031
0.25350314,0.80452623,-3.07500738

>  <Name>
1mwl

>  <RI>
0

>  <Rbt.Current_Directory>
/home/itssahil/PROJECTS/Mol_Feturizer/New_Systems/rnas/1mwl

>  <Rbt.Executable>
rbdock ($Id: //depot/dev/client3/rdock/2013.1/src/exe/rbdock.cxx#4 $)

>  <Rbt.Library>
libRbt.so (2013.1, Build901 2013/11/27)

>  <Rbt.Parameter_File>
/export/apps/rDock/src/rDock_2013.1_src/data/scripts/dock_solv.prm

>  <Rbt.Receptor>
prm/pocket_docking_7.prm

>  <SCORE>
-55.0292

>  <SCORE.INTER>
-41.6189

>  <SCORE.INTER.CONST>
1

>  <SCORE.INTER.POLAR>
-7.21855

>  <SCORE.INTER.ROT>
6

>  <SCORE.INTER.SOLV>
18.2255

>  <SCORE.INTER.VDW>
-17.3593

>  <SCORE.INTER.norm>
-1.22409

>  <SCORE.INTRA>
-13.4103

>  <SCORE.INTRA.DIHEDRAL>
-23.3593

>  <SCORE.INTRA.DIHEDRAL.0>
42.0816

>  <SCORE.INTRA.POLAR>
0.164932

>  <SCORE.INTRA.POLAR.0>
-0.254682

>  <SCORE.INTRA.REPUL>
0

>  <SCORE.INTRA.REPUL.0>
0

>  <SCORE.INTRA.SOLV>
-1.98268

>  <SCORE.INTRA.SOLV.lig_0>
-109.803

>  <SCORE.INTRA.VDW>
-1.30011

>  <SCORE.INTRA.VDW.0>
0.32176

>  <SCORE.INTRA.norm>
-0.394421

>  <SCORE.RESTR>
0

>  <SCORE.RESTR.CAVITY>
0

>  <SCORE.RESTR.norm>
0

>  <SCORE.SYSTEM>
0

>  <SCORE.SYSTEM.CONST>
0

>  <SCORE.SYSTEM.DIHEDRAL>
0

>  <SCORE.SYSTEM.SOLV>
0

>  <SCORE.SYSTEM.norm>
0

>  <SCORE.heavy>
34

>  <SCORE.norm>
-1.61851

>  <RMSD>
3.173

$$$$
1mwl
 OpenBabel11021811403D
libRbt.so/2013.1/901 2013/11/27
 34 36  0  0  0  0  0  0  0  0999 V2000
  -10.5041    7.8399   21.2333 C   0  0  2  0  0  0  0  0  0  0  0  0
  -10.1229    8.6438   20.1577 O   0  0  0  0  0  0  0  0  0  0  0  0
   -9.2080    7.4146   21.9790 C   0  0  2  0  0  0  0  0  0  0  0  0
   -8.4765    8.5998   22.4370 N   0  3  0  0  0  0  0  0  0  0  0  0
   -8.3218    6.5145   21.0690 C   0  0  1  0  0  0  0  0  0  0  0  0
   -7.2006    6.1183   21.7218 O   0  0  0  0  0  0  0  0  0  0  0  0
   -9.1670    5.2789   20.6145 C   0  0  2  0  0  0  0  0  0  0  0  0
   -8.3717    4.4156   19.7752 O   0  0  0  0  0  0  0  0  0  0  0  0
  -10.4334    5.8006   19.8543 C   0  0  2  0  0  0  0  0  0  0  0  0
  -11.2290    6.6885   20.7306 O   0  0  0  0  0  0  0  0  0  0  0  0
  -11.3818    4.7015   19.3617 C   0  0  2  0  0  0  0  0  0  0  0  0
  -11.7429    3.8829   20.4261 O   0  0  0  0  0  0  0  0  0  0  0  0
  -10.7569    3.7780   18.3002 C   0  0  0  0  0  0  0  0  0  0  0  0
  -13.8694    9.5239   18.3007 C   0  0  2  0  0  0  0  0  0  0  0  0
  -14.8881   10.1542   17.4229 N   0  3  0  0  0  0  0  0  0  0  0  0
  -13.2740   10.5681   19.2912 C   0  0  0  0  0  0  0  0  0  0  0  0
  -12.1845    9.8956   20.2027 C   0  0  2  0  0  0  0  0  0  0  0  0
  -11.6339   10.9275   21.1559 N   0  3  0  0  0  0  0  0  0  0  0  0
  -11.0600    9.2820   19.2997 C   0  0  2  0  0  0  0  0  0  0  0  0
  -11.6811    8.2435   18.3339 C   0  0  2  0  0  0  0  0  0  0  0  0
  -10.6684    7.7248   17.5059 O   0  0  0  0  0  0  0  0  0  0  0  0
  -12.7428    8.9265   17.4309 C   0  0  1  0  0  0  0  0  0  0  0  0
  -13.2966    7.9575   16.5529 O   0  0  0  0  0  0  0  0  0  0  0  0
  -14.0521    8.3969   15.4581 C   0  0  2  0  0  0  0  0  0  0  0  0
  -15.2067    7.3962   15.2621 C   0  0  2  0  0  0  0  0  0  0  0  0
  -16.0125    7.3909   16.4211 O   0  0  0  0  0  0  0  0  0  0  0  0
  -14.6112    5.9725   14.9912 C   0  0  1  0  0  0  0  0  0  0  0  0
  -15.6628    4.9406   14.8200 N   0  3  0  0  0  0  0  0  0  0  0  0
  -15.9891    4.2999   16.1197 C   0  0  0  0  0  0  0  0  0  0  0  0
  -13.7037    6.0285   13.7143 C   0  0  2  0  0  0  0  0  0  0  0  0
  -14.4841    6.4398   12.5763 O   0  0  0  0  0  0  0  0  0  0  0  0
  -13.1215    4.7360   13.4017 C   0  0  0  0  0  0  0  0  0  0  0  0
  -12.5936    7.1095   13.8936 C   0  0  0  0  0  0  0  0  0  0  0  0
  -13.2001    8.4319   14.2571 O   0  0  0  0  0  0  0  0  0  0  0  0
  1  2  1  6  0  0  0
  1  3  1  0  0  0  0
  1 10  1  0  0  0  0
  3  4  1  6  0  0  0
  3  5  1  0  0  0  0
  5  6  1  1  0  0  0
  5  7  1  0  0  0  0
  7  8  1  6  0  0  0
  7  9  1  0  0  0  0
  9 10  1  1  0  0  0
  9 11  1  0  0  0  0
 11 12  1  1  0  0  0
 11 13  1  0  0  0  0
 14 15  1  6  0  0  0
 14 16  1  0  0  0  0
 14 22  1  0  0  0  0
 16 17  1  0  0  0  0
 17 18  1  1  0  0  0
 17 19  1  0  0  0  0
 19  2  1  1  0  0  0
 19 20  1  0  0  0  0
 20 21  1  6  0  0  0
 20 22  1  0  0  0  0
 22 23  1  6  0  0  0
 24 23  1  1  0  0  0
 24 25  1  0  0  0  0
 24 34  1  0  0  0  0
 25 26  1  1  0  0  0
 25 27  1  0  0  0  0
 27 28  1  6  0  0  0
 27 30  1  0  0  0  0
 28 29  1  0  0  0  0
 30 31  1  6  0  0  0
 30 32  1  0  0  0  0
 30 33  1  0  0  0  0
 33 34  1  0  0  0  0
M  CHG  4   4   1  15   1  18   1  28   1
M  END
>  <CHROM.1>
-176.03183843,43.77768283,77.53665987,179.41788694,132.42406056,54.39499524
-58.27855214,-160.48017438,-27.32140887,54.88131733,73.76401366,-143.21521763
168.92918859,28.58109121,171.92535523,-12.07217398,7.16226566,18.06879904
0.42295544,-0.81462145,0.48704108

>  <Name>
1mwl

>  <RI>
0

>  <Rbt.Current_Directory>
/home/itssahil/PROJECTS/Mol_Feturizer/New_Systems/rnas/1mwl

>  <Rbt.Executable>
rbdock ($Id: //depot/dev/client3/rdock/2013.1/src/exe/rbdock.cxx#4 $)

>  <Rbt.Library>
libRbt.so (2013.1, Build901 2013/11/27)

>  <Rbt.Parameter_File>
/export/apps/rDock/src/rDock_2013.1_src/data/scripts/dock_solv.prm

>  <Rbt.Receptor>
prm/pocket_docking_3.prm

>  <SCORE>
-47.6406

>  <SCORE.INTER>
-34.4437

>  <SCORE.INTER.CONST>
1

>  <SCORE.INTER.POLAR>
-5.32267

>  <SCORE.INTER.ROT>
6

>  <SCORE.INTER.SOLV>
23.1526

>  <SCORE.INTER.VDW>
-20.5377

>  <SCORE.INTER.norm>
-1.01305

>  <SCORE.INTRA>
-13.2166

>  <SCORE.INTRA.DIHEDRAL>
-21.8663

>  <SCORE.INTRA.DIHEDRAL.0>
42.0816

>  <SCORE.INTRA.POLAR>
-0.892598

>  <SCORE.INTRA.POLAR.0>
-0.254682

>  <SCORE.INTRA.REPUL>
0

>  <SCORE.INTRA.REPUL.0>
0

>  <SCORE.INTRA.SOLV>
1.2612

>  <SCORE.INTRA.SOLV.lig_0>
-109.803

>  <SCORE.INTRA.VDW>
0.120763

>  <SCORE.INTRA.VDW.0>
0.32176

>  <SCORE.INTRA.norm>
-0.388724

>  <SCORE.RESTR>
0.0196643

>  <SCORE.RESTR.CAVITY>
0.0196643

>  <SCORE.RESTR.norm>
0.000578363

>  <SCORE.SYSTEM>
0

>  <SCORE.SYSTEM.CONST>
0

>  <SCORE.SYSTEM.DIHEDRAL>
0

>  <SCORE.SYSTEM.SOLV>
0

>  <SCORE.SYSTEM.norm>
0

>  <SCORE.heavy>
34

>  <SCORE.norm>
-1.40119

>  <RMSD>
3.176

$$$$
1mwl
 OpenBabel11021811403D
libRbt.so/2013.1/901 2013/11/27
 34 36  0  0  0  0  0  0  0  0999 V2000
   -9.6002    7.9245   21.7142 C   0  0  2  0  0  0  0  0  0  0  0  0
   -9.3719    8.1239   20.3515 O   0  0  0  0  0  0  0  0  0  0  0  0
   -8.2368    7.5594   22.3659 C   0  0  2  0  0  0  0  0  0  0  0  0
   -7.2661    8.6354   22.1437 N   0  3  0  0  0  0  0  0  0  0  0  0
   -7.7143    6.1987   21.8191 C   0  0  1  0  0  0  0  0  0  0  0  0
   -6.5370    5.8607   22.4023 O   0  0  0  0  0  0  0  0  0  0  0  0
   -8.8005    5.1043   22.0837 C   0  0  2  0  0  0  0  0  0  0  0  0
   -8.3443    3.8247   21.5972 O   0  0  0  0  0  0  0  0  0  0  0  0
  -10.1256    5.5428   21.3724 C   0  0  2  0  0  0  0  0  0  0  0  0
  -10.5703    6.8591   21.8810 O   0  0  0  0  0  0  0  0  0  0  0  0
  -11.3016    4.5773   21.5591 C   0  0  2  0  0  0  0  0  0  0  0  0
  -10.8242    3.2786   21.6960 O   0  0  0  0  0  0  0  0  0  0  0  0
  -12.2762    4.5550   20.3675 C   0  0  0  0  0  0  0  0  0  0  0  0
  -13.2529    8.0577   18.5648 C   0  0  2  0  0  0  0  0  0  0  0  0
  -14.3734    8.3326   17.6296 N   0  3  0  0  0  0  0  0  0  0  0  0
  -12.7856    9.3683   19.2646 C   0  0  0  0  0  0  0  0  0  0  0  0
  -11.5881    9.0697   20.2378 C   0  0  2  0  0  0  0  0  0  0  0  0
  -11.1644   10.3541   20.9066 N   0  3  0  0  0  0  0  0  0  0  0  0
  -10.4123    8.4217   19.4292 C   0  0  2  0  0  0  0  0  0  0  0  0
  -10.9052    7.1187   18.7536 C   0  0  2  0  0  0  0  0  0  0  0  0
   -9.8514    6.5645   18.0036 O   0  0  0  0  0  0  0  0  0  0  0  0
  -12.0764    7.4332   17.7848 C   0  0  1  0  0  0  0  0  0  0  0  0
  -12.5102    6.2261   17.1756 O   0  0  0  0  0  0  0  0  0  0  0  0
  -12.0156    5.8987   15.9064 C   0  0  2  0  0  0  0  0  0  0  0  0
  -12.9435    6.5537   14.8658 C   0  0  2  0  0  0  0  0  0  0  0  0
  -12.9122    7.9543   15.0387 O   0  0  0  0  0  0  0  0  0  0  0  0
  -14.3975    6.0014   15.0553 C   0  0  1  0  0  0  0  0  0  0  0  0
  -15.3630    6.6074   14.1063 N   0  3  0  0  0  0  0  0  0  0  0  0
  -16.0591    7.7626   14.7284 C   0  0  0  0  0  0  0  0  0  0  0  0
  -14.3831    4.4436   14.8822 C   0  0  2  0  0  0  0  0  0  0  0  0
  -13.9146    4.1015   13.5643 O   0  0  0  0  0  0  0  0  0  0  0  0
  -15.7049    3.8648   15.0407 C   0  0  0  0  0  0  0  0  0  0  0  0
  -13.3722    3.8031   15.8826 C   0  0  0  0  0  0  0  0  0  0  0  0
  -12.0196    4.4351   15.7414 O   0  0  0  0  0  0  0  0  0  0  0  0
  1  2  1  6  0  0  0
  1  3  1  0  0  0  0
  1 10  1  0  0  0  0
  3  4  1  6  0  0  0
  3  5  1  0  0  0  0
  5  6  1  1  0  0  0
  5  7  1  0  0  0  0
  7  8  1  6  0  0  0
  7  9  1  0  0  0  0
  9 10  1  1  0  0  0
  9 11  1  0  0  0  0
 11 12  1  6  0  0  0
 11 13  1  0  0  0  0
 14 15  1  6  0  0  0
 14 16  1  0  0  0  0
 14 22  1  0  0  0  0
 16 17  1  0  0  0  0
 17 18  1  6  0  0  0
 17 19  1  0  0  0  0
 19  2  1  1  0  0  0
 19 20  1  0  0  0  0
 20 21  1  6  0  0  0
 20 22  1  0  0  0  0
 22 23  1  1  0  0  0
 24 23  1  1  0  0  0
 24 25  1  0  0  0  0
 24 34  1  0  0  0  0
 25 26  1  1  0  0  0
 25 27  1  0  0  0  0
 27 28  1  6  0  0  0
 27 30  1  0  0  0  0
 28 29  1  0  0  0  0
 30 31  1  6  0  0  0
 30 32  1  0  0  0  0
 30 33  1  0  0  0  0
 33 34  1  0  0  0  0
M  CHG  4   4   1  15   1  18   1  28   1
M  END
>  <CHROM.1>
177.38936539,24.09783508,155.79960977,173.01787704,-64.29014408,-30.51671407
80.51636828,4.56072537,103.07782793,59.88091824,143.24562893,-87.85202257
62.94733626,24.97460329,-179.55413603,-11.53323929,6.47714902,18.63916933
0.23926037,-0.87018599,0.18984102

>  <Name>
1mwl

>  <RI>
0

>  <Rbt.Current_Directory>
/home/itssahil/PROJECTS/Mol_Feturizer/New_Systems/rnas/1mwl

>  <Rbt.Executable>
rbdock ($Id: //depot/dev/client3/rdock/2013.1/src/exe/rbdock.cxx#4 $)

>  <Rbt.Library>
libRbt.so (2013.1, Build901 2013/11/27)

>  <Rbt.Parameter_File>
/export/apps/rDock/src/rDock_2013.1_src/data/scripts/dock_solv.prm

>  <Rbt.Receptor>
prm/pocket_docking_3.prm

>  <SCORE>
-45.6556

>  <SCORE.INTER>
-35.1129

>  <SCORE.INTER.CONST>
1

>  <SCORE.INTER.POLAR>
-5.98885

>  <SCORE.INTER.ROT>
6

>  <SCORE.INTER.SOLV>
22.7565

>  <SCORE.INTER.VDW>
-18.6313

>  <SCORE.INTER.norm>
-1.03273

>  <SCORE.INTRA>
-10.5427

>  <SCORE.INTRA.DIHEDRAL>
-14.3379

>  <SCORE.INTRA.DIHEDRAL.0>
42.0816

>  <SCORE.INTRA.POLAR>
-0.915129

>  <SCORE.INTRA.POLAR.0>
-0.254682

>  <SCORE.INTRA.REPUL>
0

>  <SCORE.INTRA.REPUL.0>
0

>  <SCORE.INTRA.SOLV>
2.10455

>  <SCORE.INTRA.SOLV.lig_0>
-109.803

>  <SCORE.INTRA.VDW>
-1.31459

>  <SCORE.INTRA.VDW.0>
0.32176

>  <SCORE.INTRA.norm>
-0.31008

>  <SCORE.RESTR>
0

>  <SCORE.RESTR.CAVITY>
0

>  <SCORE.RESTR.norm>
0

>  <SCORE.SYSTEM>
0

>  <SCORE.SYSTEM.CONST>
0

>  <SCORE.SYSTEM.DIHEDRAL>
0

>  <SCORE.SYSTEM.SOLV>
0

>  <SCORE.SYSTEM.norm>
0

>  <SCORE.heavy>
34

>  <SCORE.norm>
-1.34281

>  <RMSD>
3.178

$$$$
1mwl
 OpenBabel11021811403D
libRbt.so/2013.1/901 2013/11/27
 34 36  0  0  0  0  0  0  0  0999 V2000
  -10.4297    6.4684   21.8251 C   0  0  2  0  0  0  0  0  0  0  0  0
   -9.9522    7.0971   20.6738 O   0  0  0  0  0  0  0  0  0  0  0  0
   -9.2603    5.6332   22.4183 C   0  0  2  0  0  0  0  0  0  0  0  0
   -8.1216    6.5046   22.7245 N   0  3  0  0  0  0  0  0  0  0  0  0
   -8.8555    4.4874   21.4453 C   0  0  1  0  0  0  0  0  0  0  0  0
   -7.8524    3.7383   21.9676 O   0  0  0  0  0  0  0  0  0  0  0  0
  -10.1166    3.6068   21.1595 C   0  0  2  0  0  0  0  0  0  0  0  0
   -9.7749    2.5261   20.2664 O   0  0  0  0  0  0  0  0  0  0  0  0
  -11.2282    4.5227   20.5435 C   0  0  2  0  0  0  0  0  0  0  0  0
  -11.5571    5.6266   21.4722 O   0  0  0  0  0  0  0  0  0  0  0  0
  -12.5454    3.8053   20.2268 C   0  0  2  0  0  0  0  0  0  0  0  0
  -12.9065    2.9949   21.2975 O   0  0  0  0  0  0  0  0  0  0  0  0
  -12.4652    2.8835   18.9963 C   0  0  0  0  0  0  0  0  0  0  0  0
  -13.1931    9.5989   19.4503 C   0  0  2  0  0  0  0  0  0  0  0  0
  -13.9484   10.7080   18.8140 N   0  3  0  0  0  0  0  0  0  0  0  0
  -12.1968   10.1498   20.5132 C   0  0  0  0  0  0  0  0  0  0  0  0
  -11.3898    8.9703   21.1671 C   0  0  2  0  0  0  0  0  0  0  0  0
  -10.4416    9.5333   22.1970 N   0  3  0  0  0  0  0  0  0  0  0  0
  -10.6280    8.1804   20.0482 C   0  0  2  0  0  0  0  0  0  0  0  0
  -11.6447    7.6391   19.0135 C   0  0  2  0  0  0  0  0  0  0  0  0
  -10.9468    6.9615   17.9967 O   0  0  0  0  0  0  0  0  0  0  0  0
  -12.4215    8.8166   18.3661 C   0  0  1  0  0  0  0  0  0  0  0  0
  -13.3450    8.2979   17.4203 O   0  0  0  0  0  0  0  0  0  0  0  0
  -12.8784    7.9540   16.1449 C   0  0  2  0  0  0  0  0  0  0  0  0
  -13.9933    8.2941   15.1379 C   0  0  2  0  0  0  0  0  0  0  0  0
  -14.2519    9.6808   15.1888 O   0  0  0  0  0  0  0  0  0  0  0  0
  -15.2787    7.4742   15.4994 C   0  0  1  0  0  0  0  0  0  0  0  0
  -16.4135    7.7680   14.5907 N   0  3  0  0  0  0  0  0  0  0  0  0
  -17.6756    7.9259   15.3576 C   0  0  0  0  0  0  0  0  0  0  0  0
  -14.9419    5.9439   15.4574 C   0  0  2  0  0  0  0  0  0  0  0  0
  -14.5009    5.5754   14.1372 O   0  0  0  0  0  0  0  0  0  0  0  0
  -16.0949    5.1225   15.7789 C   0  0  0  0  0  0  0  0  0  0  0  0
  -13.7519    5.6312   16.4162 C   0  0  0  0  0  0  0  0  0  0  0  0
  -12.5792    6.5124   16.1047 O   0  0  0  0  0  0  0  0  0  0  0  0
  1  2  1  6  0  0  0
  1  3  1  0  0  0  0
  1 10  1  0  0  0  0
  3  4  1  6  0  0  0
  3  5  1  0  0  0  0
  5  6  1  1  0  0  0
  5  7  1  0  0  0  0
  7  8  1  6  0  0  0
  7  9  1  0  0  0  0
  9 10  1  1  0  0  0
  9 11  1  0  0  0  0
 11 12  1  1  0  0  0
 11 13  1  0  0  0  0
 14 15  1  6  0  0  0
 14 16  1  0  0  0  0
 14 22  1  0  0  0  0
 16 17  1  0  0  0  0
 17 18  1  1  0  0  0
 17 19  1  0  0  0  0
 19  2  1  1  0  0  0
 19 20  1  0  0  0  0
 20 21  1  6  0  0  0
 20 22  1  0  0  0  0
 22 23  1  6  0  0  0
 24 23  1  1  0  0  0
 24 25  1  0  0  0  0
 24 34  1  0  0  0  0
 25 26  1  1  0  0  0
 25 27  1  0  0  0  0
 27 28  1  6  0  0  0
 27 30  1  0  0  0  0
 28 29  1  0  0  0  0
 30 31  1  6  0  0  0
 30 32  1  0  0  0  0
 30 33  1  0  0  0  0
 33 34  1  0  0  0  0
M  CHG  4   4   1  15   1  18   1  28   1
M  END
>  <CHROM.1>
-164.55246353,30.24354333,-167.19410039,-63.60609887,-60.85593445,45.49174246
-59.13379315,55.15466417,158.92625781,165.98396208,158.82706158,-144.51705247
-92.40028645,-16.32981035,70.67747134,-12.26465577,6.65810291,18.81420926
-0.19906062,-0.86819764,0.11128439

>  <Name>
1mwl

>  <RI>
0

>  <Rbt.Current_Directory>
/home/itssahil/PROJECTS/Mol_Feturizer/New_Systems/rnas/1mwl

>  <Rbt.Executable>
rbdock ($Id: //depot/dev/client3/rdock/2013.1/src/exe/rbdock.cxx#4 $)

>  <Rbt.Library>
libRbt.so (2013.1, Build901 2013/11/27)

>  <Rbt.Parameter_File>
/export/apps/rDock/src/rDock_2013.1_src/data/scripts/dock_solv.prm

>  <Rbt.Receptor>
prm/pocket_docking_3.prm

>  <SCORE>
-47.3504

>  <SCORE.INTER>
-36.0133

>  <SCORE.INTER.CONST>
1

>  <SCORE.INTER.POLAR>
-6.72969

>  <SCORE.INTER.ROT>
6

>  <SCORE.INTER.SOLV>
23.9352

>  <SCORE.INTER.VDW>
-17.155

>  <SCORE.INTER.norm>
-1.05921

>  <SCORE.INTRA>
-11.8131

>  <SCORE.INTRA.DIHEDRAL>
-19.8855

>  <SCORE.INTRA.DIHEDRAL.0>
42.0816

>  <SCORE.INTRA.POLAR>
-0.464379

>  <SCORE.INTRA.POLAR.0>
-0.254682

>  <SCORE.INTRA.REPUL>
0.0126484

>  <SCORE.INTRA.REPUL.0>
0

>  <SCORE.INTRA.SOLV>
0.298652

>  <SCORE.INTRA.SOLV.lig_0>
-109.803

>  <SCORE.INTRA.VDW>
-0.504062

>  <SCORE.INTRA.VDW.0>
0.32176

>  <SCORE.INTRA.norm>
-0.347445

>  <SCORE.RESTR>
0.476018

>  <SCORE.RESTR.CAVITY>
0.476018

>  <SCORE.RESTR.norm>
0.0140005

>  <SCORE.SYSTEM>
0

>  <SCORE.SYSTEM.CONST>
0

>  <SCORE.SYSTEM.DIHEDRAL>
0

>  <SCORE.SYSTEM.SOLV>
0

>  <SCORE.SYSTEM.norm>
0

>  <SCORE.heavy>
34

>  <SCORE.norm>
-1.39266

>  <RMSD>
3.206

$$$$
1mwl
 OpenBabel11021811403D
libRbt.so/2013.1/901 2013/11/27
 34 36  0  0  0  0  0  0  0  0999 V2000
  -10.3325    8.2069   21.6346 C   0  0  2  0  0  0  0  0  0  0  0  0
  -10.0455    8.7936   20.4009 O   0  0  0  0  0  0  0  0  0  0  0  0
   -9.0178    7.5671   22.1628 C   0  0  2  0  0  0  0  0  0  0  0  0
   -7.9750    8.5894   22.2926 N   0  3  0  0  0  0  0  0  0  0  0  0
   -8.5625    6.4032   21.2346 C   0  0  1  0  0  0  0  0  0  0  0  0
   -7.4294    5.8231   21.7033 O   0  0  0  0  0  0  0  0  0  0  0  0
   -9.7232    5.3588   21.1379 C   0  0  2  0  0  0  0  0  0  0  0  0
   -9.3311    4.2583   20.2909 O   0  0  0  0  0  0  0  0  0  0  0  0
  -10.9931    6.0836   20.5758 C   0  0  2  0  0  0  0  0  0  0  0  0
  -11.3723    7.2115   21.4552 O   0  0  0  0  0  0  0  0  0  0  0  0
  -12.2327    5.1916   20.4430 C   0  0  2  0  0  0  0  0  0  0  0  0
  -13.3160    5.9547   20.0218 O   0  0  0  0  0  0  0  0  0  0  0  0
  -12.6602    4.5291   21.7654 C   0  0  0  0  0  0  0  0  0  0  0  0
  -13.9490    9.5058   18.8151 C   0  0  2  0  0  0  0  0  0  0  0  0
  -15.0391   10.0013   17.9367 N   0  3  0  0  0  0  0  0  0  0  0  0
  -13.1957   10.6949   19.4820 C   0  0  0  0  0  0  0  0  0  0  0  0
  -12.0330   10.1607   20.3945 C   0  0  2  0  0  0  0  0  0  0  0  0
  -11.3291   11.3328   21.0328 N   0  3  0  0  0  0  0  0  0  0  0  0
  -11.0520    9.2956   19.5310 C   0  0  2  0  0  0  0  0  0  0  0  0
  -11.8276    8.1190   18.8897 C   0  0  2  0  0  0  0  0  0  0  0  0
  -10.9446    7.3698   18.0903 O   0  0  0  0  0  0  0  0  0  0  0  0
  -12.9613    8.6634   17.9800 C   0  0  1  0  0  0  0  0  0  0  0  0
  -13.6566    7.5689   17.4012 O   0  0  0  0  0  0  0  0  0  0  0  0
  -13.3243    7.1753   16.0984 C   0  0  2  0  0  0  0  0  0  0  0  0
  -14.4334    7.6921   15.1627 C   0  0  2  0  0  0  0  0  0  0  0  0
  -14.4762    9.1012   15.2345 O   0  0  0  0  0  0  0  0  0  0  0  0
  -15.8038    7.0703   15.5989 C   0  0  1  0  0  0  0  0  0  0  0  0
  -16.9336    7.5431   14.7622 N   0  3  0  0  0  0  0  0  0  0  0  0
  -17.9176    8.2955   15.5819 C   0  0  0  0  0  0  0  0  0  0  0  0
  -15.7050    5.5074   15.5307 C   0  0  2  0  0  0  0  0  0  0  0  0
  -15.4044    5.0939   14.1846 O   0  0  0  0  0  0  0  0  0  0  0  0
  -16.9474    4.8647   15.9189 C   0  0  0  0  0  0  0  0  0  0  0  0
  -14.5206    5.0069   16.4138 C   0  0  0  0  0  0  0  0  0  0  0  0
  -13.2491    5.7056   16.0346 O   0  0  0  0  0  0  0  0  0  0  0  0
  1  2  1  6  0  0  0
  1  3  1  0  0  0  0
  1 10  1  0  0  0  0
  3  4  1  6  0  0  0
  3  5  1  0  0  0  0
  5  6  1  1  0  0  0
  5  7  1  0  0  0  0
  7  8  1  6  0  0  0
  7  9  1  0  0  0  0
  9 10  1  1  0  0  0
  9 11  1  0  0  0  0
 11 12  1  1  0  0  0
 11 13  1  0  0  0  0
 14 15  1  6  0  0  0
 14 16  1  0  0  0  0
 14 22  1  0  0  0  0
 16 17  1  0  0  0  0
 17 18  1  6  0  0  0
 17 19  1  0  0  0  0
 19  2  1  1  0  0  0
 19 20  1  0  0  0  0
 20 21  1  6  0  0  0
 20 22  1  0  0  0  0
 22 23  1  1  0  0  0
 24 23  1  1  0  0  0
 24 25  1  0  0  0  0
 24 34  1  0  0  0  0
 25 26  1  1  0  0  0
 25 27  1  0  0  0  0
 27 28  1  6  0  0  0
 27 30  1  0  0  0  0
 28 29  1  0  0  0  0
 30 31  1  6  0  0  0
 30 32  1  0  0  0  0
 30 33  1  0  0  0  0
 33 34  1  0  0  0  0
M  CHG  4   4   1  15   1  18   1  28   1
M  END
>  <CHROM.1>
170.14687183,46.88215162,-151.21377276,-84.07098029,-58.58161570,176.08665655
69.97947006,140.20555609,-121.68288519,-59.34344411,141.74524938,-103.66058626
171.81642659,2.69373930,173.01522688,-12.56524224,7.35142542,18.66550983
0.15956769,-0.74244909,0.18252782

>  <Name>
1mwl

>  <RI>
0

>  <Rbt.Current_Directory>
/home/itssahil/PROJECTS/Mol_Feturizer/New_Systems/rnas/1mwl

>  <Rbt.Executable>
rbdock ($Id: //depot/dev/client3/rdock/2013.1/src/exe/rbdock.cxx#4 $)

>  <Rbt.Library>
libRbt.so (2013.1, Build901 2013/11/27)

>  <Rbt.Parameter_File>
/export/apps/rDock/src/rDock_2013.1_src/data/scripts/dock_solv.prm

>  <Rbt.Receptor>
prm/pocket_docking_4.prm

>  <SCORE>
-52.8446

>  <SCORE.INTER>
-39.4763

>  <SCORE.INTER.CONST>
1

>  <SCORE.INTER.POLAR>
-6.95703

>  <SCORE.INTER.ROT>
6

>  <SCORE.INTER.SOLV>
24.8018

>  <SCORE.INTER.VDW>
-18.9947

>  <SCORE.INTER.norm>
-1.16107

>  <SCORE.INTRA>
-13.3683

>  <SCORE.INTRA.DIHEDRAL>
-14.5955

>  <SCORE.INTRA.DIHEDRAL.0>
42.0816

>  <SCORE.INTRA.POLAR>
-1.95797

>  <SCORE.INTRA.POLAR.0>
-0.254682

>  <SCORE.INTRA.REPUL>
0

>  <SCORE.INTRA.REPUL.0>
0

>  <SCORE.INTRA.SOLV>
2.32962

>  <SCORE.INTRA.SOLV.lig_0>
-109.803

>  <SCORE.INTRA.VDW>
-0.578238

>  <SCORE.INTRA.VDW.0>
0.32176

>  <SCORE.INTRA.norm>
-0.393185

>  <SCORE.RESTR>
0

>  <SCORE.RESTR.CAVITY>
0

>  <SCORE.RESTR.norm>
0

>  <SCORE.SYSTEM>
0

>  <SCORE.SYSTEM.CONST>
0

>  <SCORE.SYSTEM.DIHEDRAL>
0

>  <SCORE.SYSTEM.SOLV>
0

>  <SCORE.SYSTEM.norm>
0

>  <SCORE.heavy>
34

>  <SCORE.norm>
-1.55425

>  <RMSD>
3.256

$$$$
1mwl
 OpenBabel11021811403D
libRbt.so/2013.1/901 2013/11/27
 34 36  0  0  0  0  0  0  0  0999 V2000
  -11.2419    7.9133   20.8898 C   0  0  2  0  0  0  0  0  0  0  0  0
  -10.7953    8.7247   19.8454 O   0  0  0  0  0  0  0  0  0  0  0  0
  -10.1340    7.9066   21.9805 C   0  0  2  0  0  0  0  0  0  0  0  0
   -9.8744    9.2726   22.4453 N   0  3  0  0  0  0  0  0  0  0  0  0
   -8.8384    7.2319   21.4423 C   0  0  1  0  0  0  0  0  0  0  0  0
   -7.8752    7.1994   22.3970 O   0  0  0  0  0  0  0  0  0  0  0  0
   -9.1922    5.7864   20.9595 C   0  0  2  0  0  0  0  0  0  0  0  0
   -8.0094    5.1262   20.4621 O   0  0  0  0  0  0  0  0  0  0  0  0
  -10.2924    5.8928   19.8496 C   0  0  2  0  0  0  0  0  0  0  0  0
  -11.4917    6.5788   20.3792 O   0  0  0  0  0  0  0  0  0  0  0  0
  -10.7658    4.5477   19.2870 C   0  0  2  0  0  0  0  0  0  0  0  0
   -9.6677    3.7960   18.8841 O   0  0  0  0  0  0  0  0  0  0  0  0
  -11.6736    4.6815   18.0507 C   0  0  0  0  0  0  0  0  0  0  0  0
  -14.4583   10.3876   18.4043 C   0  0  2  0  0  0  0  0  0  0  0  0
  -15.4160   11.1986   17.6103 N   0  3  0  0  0  0  0  0  0  0  0  0
  -13.5010   11.3074   19.2189 C   0  0  0  0  0  0  0  0  0  0  0  0
  -12.4801   10.4401   20.0409 C   0  0  2  0  0  0  0  0  0  0  0  0
  -11.5741   11.3569   20.8254 N   0  3  0  0  0  0  0  0  0  0  0  0
  -11.6700    9.5246   19.0601 C   0  0  2  0  0  0  0  0  0  0  0  0
  -12.6472    8.6179   18.2726 C   0  0  2  0  0  0  0  0  0  0  0  0
  -11.9119    7.8255   17.3717 O   0  0  0  0  0  0  0  0  0  0  0  0
  -13.6377    9.4891   17.4546 C   0  0  1  0  0  0  0  0  0  0  0  0
  -14.5214    8.6381   16.7395 O   0  0  0  0  0  0  0  0  0  0  0  0
  -14.9253    9.0178   15.4529 C   0  0  2  0  0  0  0  0  0  0  0  0
  -15.5230    7.7731   14.7701 C   0  0  2  0  0  0  0  0  0  0  0  0
  -16.6444    7.3373   15.5085 O   0  0  0  0  0  0  0  0  0  0  0  0
  -14.4311    6.6515   14.7017 C   0  0  1  0  0  0  0  0  0  0  0  0
  -14.9379    5.4030   14.0815 N   0  3  0  0  0  0  0  0  0  0  0  0
  -14.7379    4.2447   14.9894 C   0  0  0  0  0  0  0  0  0  0  0  0
  -13.1952    7.1844   13.8982 C   0  0  2  0  0  0  0  0  0  0  0  0
  -13.5956    7.5378   12.5610 O   0  0  0  0  0  0  0  0  0  0  0  0
  -12.1434    6.1896   13.7917 C   0  0  0  0  0  0  0  0  0  0  0  0
  -12.6568    8.4947   14.5513 C   0  0  0  0  0  0  0  0  0  0  0  0
  -13.7583    9.5021   14.6958 O   0  0  0  0  0  0  0  0  0  0  0  0
  1  2  1  6  0  0  0
  1  3  1  0  0  0  0
  1 10  1  0  0  0  0
  3  4  1  6  0  0  0
  3  5  1  0  0  0  0
  5  6  1  1  0  0  0
  5  7  1  0  0  0  0
  7  8  1  6  0  0  0
  7  9  1  0  0  0  0
  9 10  1  1  0  0  0
  9 11  1  0  0  0  0
 11 12  1  6  0  0  0
 11 13  1  0  0  0  0
 14 15  1  6  0  0  0
 14 16  1  0  0  0  0
 14 22  1  0  0  0  0
 16 17  1  0  0  0  0
 17 18  1  6  0  0  0
 17 19  1  0  0  0  0
 19  2  1  1  0  0  0
 19 20  1  0  0  0  0
 20 21  1  6  0  0  0
 20 22  1  0  0  0  0
 22 23  1  1  0  0  0
 24 23  1  1  0  0  0
 24 25  1  0  0  0  0
 24 34  1  0  0  0  0
 25 26  1  1  0  0  0
 25 27  1  0  0  0  0
 27 28  1  6  0  0  0
 27 30  1  0  0  0  0
 28 29  1  0  0  0  0
 30 31  1  6  0  0  0
 30 32  1  0  0  0  0
 30 33  1  0  0  0  0
 33 34  1  0  0  0  0
M  CHG  4   4   1  15   1  18   1  28   1
M  END
>  <CHROM.1>
-146.20185520,55.14229713,-64.44444840,54.94892418,-174.90691610,-52.00440544
-58.21445758,-52.20952611,110.35516265,59.44097564,96.70270391,164.10204806
174.40423292,-4.53329979,67.02641391,-12.28536903,7.71763705,17.96672523
0.46943526,-0.82575772,0.65355241

>  <Name>
1mwl

>  <RI>
0

>  <Rbt.Current_Directory>
/home/itssahil/PROJECTS/Mol_Feturizer/New_Systems/rnas/1mwl

>  <Rbt.Executable>
rbdock ($Id: //depot/dev/client3/rdock/2013.1/src/exe/rbdock.cxx#4 $)

>  <Rbt.Library>
libRbt.so (2013.1, Build901 2013/11/27)

>  <Rbt.Parameter_File>
/export/apps/rDock/src/rDock_2013.1_src/data/scripts/dock_solv.prm

>  <Rbt.Receptor>
prm/pocket_docking_2.prm

>  <SCORE>
-47.8328

>  <SCORE.INTER>
-36.9139

>  <SCORE.INTER.CONST>
1

>  <SCORE.INTER.POLAR>
-6.29751

>  <SCORE.INTER.ROT>
6

>  <SCORE.INTER.SOLV>
25.5085

>  <SCORE.INTER.VDW>
-19.7204

>  <SCORE.INTER.norm>
-1.0857

>  <SCORE.INTRA>
-12.8272

>  <SCORE.INTRA.DIHEDRAL>
-23.4584

>  <SCORE.INTRA.DIHEDRAL.0>
42.0816

>  <SCORE.INTRA.POLAR>
-0.0803443

>  <SCORE.INTRA.POLAR.0>
-0.254682

>  <SCORE.INTRA.REPUL>
0.0232668

>  <SCORE.INTRA.REPUL.0>
0

>  <SCORE.INTRA.SOLV>
4.09167

>  <SCORE.INTRA.SOLV.lig_0>
-109.803

>  <SCORE.INTRA.VDW>
-2.98698

>  <SCORE.INTRA.VDW.0>
0.32176

>  <SCORE.INTRA.norm>
-0.37727

>  <SCORE.RESTR>
1.90825

>  <SCORE.RESTR.CAVITY>
1.90825

>  <SCORE.RESTR.norm>
0.0561249

>  <SCORE.SYSTEM>
0

>  <SCORE.SYSTEM.CONST>
0

>  <SCORE.SYSTEM.DIHEDRAL>
0

>  <SCORE.SYSTEM.SOLV>
0

>  <SCORE.SYSTEM.norm>
0

>  <SCORE.heavy>
34

>  <SCORE.norm>
-1.40685

>  <RMSD>
3.298

$$$$
1mwl
 OpenBabel11021811403D
libRbt.so/2013.1/901 2013/11/27
 34 36  0  0  0  0  0  0  0  0999 V2000
  -10.5088    6.2748   21.7252 C   0  0  2  0  0  0  0  0  0  0  0  0
   -9.9221    6.9162   20.6329 O   0  0  0  0  0  0  0  0  0  0  0  0
   -9.7727    4.9193   21.9194 C   0  0  2  0  0  0  0  0  0  0  0  0
   -8.3425    5.1488   22.1458 N   0  3  0  0  0  0  0  0  0  0  0  0
  -10.0135    3.9844   20.6981 C   0  0  1  0  0  0  0  0  0  0  0  0
   -9.3952    2.7895   20.8717 O   0  0  0  0  0  0  0  0  0  0  0  0
  -11.5551    3.7915   20.5137 C   0  0  2  0  0  0  0  0  0  0  0  0
  -11.8154    2.9200   19.3934 O   0  0  0  0  0  0  0  0  0  0  0  0
  -12.2063    5.2002   20.3006 C   0  0  2  0  0  0  0  0  0  0  0  0
  -11.9206    6.0783   21.4568 O   0  0  0  0  0  0  0  0  0  0  0  0
  -13.7292    5.1813   20.1265 C   0  0  2  0  0  0  0  0  0  0  0  0
  -14.0573    4.5267   18.9445 O   0  0  0  0  0  0  0  0  0  0  0  0
  -14.3563    6.5841   20.0309 C   0  0  0  0  0  0  0  0  0  0  0  0
  -12.8919    9.7061   19.3459 C   0  0  2  0  0  0  0  0  0  0  0  0
  -13.5236   10.8996   18.7279 N   0  3  0  0  0  0  0  0  0  0  0  0
  -11.9394   10.1251   20.5049 C   0  0  0  0  0  0  0  0  0  0  0  0
  -11.2623    8.8569   21.1398 C   0  0  2  0  0  0  0  0  0  0  0  0
  -10.3545    9.2932   22.2633 N   0  3  0  0  0  0  0  0  0  0  0  0
  -10.4772    8.0778   20.0294 C   0  0  2  0  0  0  0  0  0  0  0  0
  -11.4512    7.6682   18.8978 C   0  0  2  0  0  0  0  0  0  0  0  0
  -10.7295    6.9999   17.8915 O   0  0  0  0  0  0  0  0  0  0  0  0
  -12.0990    8.9321   18.2713 C   0  0  1  0  0  0  0  0  0  0  0  0
  -12.9852    8.5334   17.2358 O   0  0  0  0  0  0  0  0  0  0  0  0
  -12.8876    9.1638   15.9886 C   0  0  2  0  0  0  0  0  0  0  0  0
  -14.3051    9.2222   15.3884 C   0  0  2  0  0  0  0  0  0  0  0  0
  -15.1341    9.9841   16.2398 O   0  0  0  0  0  0  0  0  0  0  0  0
  -14.8568    7.7640   15.2327 C   0  0  1  0  0  0  0  0  0  0  0  0
  -16.2353    7.7340   14.6861 N   0  3  0  0  0  0  0  0  0  0  0  0
  -17.2369    7.8677   15.7746 C   0  0  0  0  0  0  0  0  0  0  0  0
  -13.8950    6.9461   14.3037 C   0  0  2  0  0  0  0  0  0  0  0  0
  -13.8227    7.5662   13.0062 O   0  0  0  0  0  0  0  0  0  0  0  0
  -14.3515    5.5815   14.1119 C   0  0  0  0  0  0  0  0  0  0  0  0
  -12.4453    6.9717   14.8790 C   0  0  0  0  0  0  0  0  0  0  0  0
  -11.9966    8.3832   15.1132 O   0  0  0  0  0  0  0  0  0  0  0  0
  1  2  1  6  0  0  0
  1  3  1  0  0  0  0
  1 10  1  0  0  0  0
  3  4  1  6  0  0  0
  3  5  1  0  0  0  0
  5  6  1  1  0  0  0
  5  7  1  0  0  0  0
  7  8  1  6  0  0  0
  7  9  1  0  0  0  0
  9 10  1  1  0  0  0
  9 11  1  0  0  0  0
 11 12  1  6  0  0  0
 11 13  1  0  0  0  0
 14 15  1  6  0  0  0
 14 16  1  0  0  0  0
 14 22  1  0  0  0  0
 16 17  1  0  0  0  0
 17 18  1  1  0  0  0
 17 19  1  0  0  0  0
 19  2  1  1  0  0  0
 19 20  1  0  0  0  0
 20 21  1  6  0  0  0
 20 22  1  0  0  0  0
 22 23  1  6  0  0  0
 24 23  1  1  0  0  0
 24 25  1  0  0  0  0
 24 34  1  0  0  0  0
 25 26  1  1  0  0  0
 25 27  1  0  0  0  0
 27 28  1  6  0  0  0
 27 30  1  0  0  0  0
 28 29  1  0  0  0  0
 30 31  1  6  0  0  0
 30 32  1  0  0  0  0
 30 33  1  0  0  0  0
 33 34  1  0  0  0  0
M  CHG  4   4   1  15   1  18   1  28   1
M  END
>  <CHROM.1>
169.47317407,29.02035462,-171.16041901,-173.64641703,65.94898998,-65.83794889
55.62512322,-174.63277678,164.02807606,62.84550329,109.20507609,-147.23050501
103.98865941,33.64246044,58.41819817,-12.42084080,7.06248538,18.45264206
-0.19097585,-0.99886894,0.19343275

>  <Name>
1mwl

>  <RI>
0

>  <Rbt.Current_Directory>
/home/itssahil/PROJECTS/Mol_Feturizer/New_Systems/rnas/1mwl

>  <Rbt.Executable>
rbdock ($Id: //depot/dev/client3/rdock/2013.1/src/exe/rbdock.cxx#4 $)

>  <Rbt.Library>
libRbt.so (2013.1, Build901 2013/11/27)

>  <Rbt.Parameter_File>
/export/apps/rDock/src/rDock_2013.1_src/data/scripts/dock_solv.prm

>  <Rbt.Receptor>
prm/pocket_docking_4.prm

>  <SCORE>
-65.2015

>  <SCORE.INTER>
-47.4279

>  <SCORE.INTER.CONST>
1

>  <SCORE.INTER.POLAR>
-7.74492

>  <SCORE.INTER.ROT>
6

>  <SCORE.INTER.SOLV>
23.2504

>  <SCORE.INTER.VDW>
-21.1524

>  <SCORE.INTER.norm>
-1.39494

>  <SCORE.INTRA>
-17.7798

>  <SCORE.INTRA.DIHEDRAL>
-17.9845

>  <SCORE.INTRA.DIHEDRAL.0>
42.0816

>  <SCORE.INTRA.POLAR>
-1.58533

>  <SCORE.INTRA.POLAR.0>
-0.254682

>  <SCORE.INTRA.REPUL>
0

>  <SCORE.INTRA.REPUL.0>
0

>  <SCORE.INTRA.SOLV>
-0.296691

>  <SCORE.INTRA.SOLV.lig_0>
-109.803

>  <SCORE.INTRA.VDW>
-3.24917

>  <SCORE.INTRA.VDW.0>
0.32176

>  <SCORE.INTRA.norm>
-0.522937

>  <SCORE.RESTR>
0.00631784

>  <SCORE.RESTR.CAVITY>
0.00631784

>  <SCORE.RESTR.norm>
0.000185819

>  <SCORE.SYSTEM>
0

>  <SCORE.SYSTEM.CONST>
0

>  <SCORE.SYSTEM.DIHEDRAL>
0

>  <SCORE.SYSTEM.SOLV>
0

>  <SCORE.SYSTEM.norm>
0

>  <SCORE.heavy>
34

>  <SCORE.norm>
-1.91769

>  <RMSD>
3.307

$$$$
1mwl
 OpenBabel11021811403D
libRbt.so/2013.1/901 2013/11/27
 34 36  0  0  0  0  0  0  0  0999 V2000
  -10.5899    8.0369   21.2943 C   0  0  2  0  0  0  0  0  0  0  0  0
  -10.2522    8.7271   20.1289 O   0  0  0  0  0  0  0  0  0  0  0  0
   -9.2691    7.5094   21.9222 C   0  0  2  0  0  0  0  0  0  0  0  0
   -8.3657    8.6272   22.2119 N   0  3  0  0  0  0  0  0  0  0  0  0
   -8.5974    6.4615   20.9872 C   0  0  1  0  0  0  0  0  0  0  0  0
   -7.4571    5.9776   21.5402 O   0  0  0  0  0  0  0  0  0  0  0  0
   -9.6181    5.3071   20.7171 C   0  0  2  0  0  0  0  0  0  0  0  0
   -9.0239    4.3101   19.8595 O   0  0  0  0  0  0  0  0  0  0  0  0
  -10.9008    5.9257   20.0646 C   0  0  2  0  0  0  0  0  0  0  0  0
  -11.4884    6.9493   20.9570 O   0  0  0  0  0  0  0  0  0  0  0  0
  -12.0132    4.9164   19.7582 C   0  0  2  0  0  0  0  0  0  0  0  0
  -11.5409    3.9531   18.8738 O   0  0  0  0  0  0  0  0  0  0  0  0
  -13.2498    5.5453   19.0907 C   0  0  0  0  0  0  0  0  0  0  0  0
  -14.0711    9.9600   18.6607 C   0  0  2  0  0  0  0  0  0  0  0  0
  -15.1098   10.6593   17.8623 N   0  3  0  0  0  0  0  0  0  0  0  0
  -13.2365   10.9791   19.4918 C   0  0  0  0  0  0  0  0  0  0  0  0
  -12.1287   10.2311   20.3185 C   0  0  2  0  0  0  0  0  0  0  0  0
  -11.3443   11.2415   21.1188 N   0  3  0  0  0  0  0  0  0  0  0  0
  -11.2072    9.4251   19.3399 C   0  0  2  0  0  0  0  0  0  0  0  0
  -12.0633    8.4164   18.5359 C   0  0  2  0  0  0  0  0  0  0  0  0
  -11.2313    7.7232   17.6373 O   0  0  0  0  0  0  0  0  0  0  0  0
  -13.1414    9.1718   17.7135 C   0  0  1  0  0  0  0  0  0  0  0  0
  -13.9120    8.2288   16.9832 O   0  0  0  0  0  0  0  0  0  0  0  0
  -14.7833    8.6974   15.9913 C   0  0  2  0  0  0  0  0  0  0  0  0
  -15.7303    7.5395   15.6236 C   0  0  2  0  0  0  0  0  0  0  0  0
  -16.4707    7.1700   16.7673 O   0  0  0  0  0  0  0  0  0  0  0  0
  -14.8833    6.3323   15.0945 C   0  0  1  0  0  0  0  0  0  0  0  0
  -15.7223    5.1601   14.7449 N   0  3  0  0  0  0  0  0  0  0  0  0
  -14.9663    3.8957   14.9337 C   0  0  0  0  0  0  0  0  0  0  0  0
  -14.0579    6.7916   13.8435 C   0  0  2  0  0  0  0  0  0  0  0  0
  -14.9500    7.2359   12.8042 O   0  0  0  0  0  0  0  0  0  0  0  0
  -13.2509    5.7156   13.2973 C   0  0  0  0  0  0  0  0  0  0  0  0
  -13.1706    8.0211   14.2097 C   0  0  0  0  0  0  0  0  0  0  0  0
  -14.0051    9.1121   14.8115 O   0  0  0  0  0  0  0  0  0  0  0  0
  1  2  1  6  0  0  0
  1  3  1  0  0  0  0
  1 10  1  0  0  0  0
  3  4  1  6  0  0  0
  3  5  1  0  0  0  0
  5  6  1  1  0  0  0
  5  7  1  0  0  0  0
  7  8  1  6  0  0  0
  7  9  1  0  0  0  0
  9 10  1  1  0  0  0
  9 11  1  0  0  0  0
 11 12  1  6  0  0  0
 11 13  1  0  0  0  0
 14 15  1  6  0  0  0
 14 16  1  0  0  0  0
 14 22  1  0  0  0  0
 16 17  1  0  0  0  0
 17 18  1  6  0  0  0
 17 19  1  0  0  0  0
 19  2  1  1  0  0  0
 19 20  1  0  0  0  0
 20 21  1  6  0  0  0
 20 22  1  0  0  0  0
 22 23  1  1  0  0  0
 24 23  1  1  0  0  0
 24 25  1  0  0  0  0
 24 34  1  0  0  0  0
 25 26  1  1  0  0  0
 25 27  1  0  0  0  0
 27 28  1  6  0  0  0
 27 30  1  0  0  0  0
 28 29  1  0  0  0  0
 30 31  1  6  0  0  0
 30 32  1  0  0  0  0
 30 33  1  0  0  0  0
 33 34  1  0  0  0  0
M  CHG  4   4   1  15   1  18   1  28   1
M  END
>  <CHROM.1>
-175.60387956,44.31646010,86.68590439,-73.23478275,69.14697382,-60.03192233
53.28476810,-156.27814365,-116.84496848,-175.77041436,71.13179336,-165.85682028
-53.88225800,-30.58171146,-60.83335045,-12.39163412,7.45256319,18.15214044
0.37049683,-0.81023506,0.44313594

>  <Name>
1mwl

>  <RI>
0

>  <Rbt.Current_Directory>
/home/itssahil/PROJECTS/Mol_Feturizer/New_Systems/rnas/1mwl

>  <Rbt.Executable>
rbdock ($Id: //depot/dev/client3/rdock/2013.1/src/exe/rbdock.cxx#4 $)

>  <Rbt.Library>
libRbt.so (2013.1, Build901 2013/11/27)

>  <Rbt.Parameter_File>
/export/apps/rDock/src/rDock_2013.1_src/data/scripts/dock_solv.prm

>  <Rbt.Receptor>
prm/pocket_docking_2.prm

>  <SCORE>
-39.4711

>  <SCORE.INTER>
-26.8652

>  <SCORE.INTER.CONST>
1

>  <SCORE.INTER.POLAR>
-4.33065

>  <SCORE.INTER.ROT>
6

>  <SCORE.INTER.SOLV>
24.6215

>  <SCORE.INTER.VDW>
-19.2818

>  <SCORE.INTER.norm>
-0.790154

>  <SCORE.INTRA>
-15.1574

>  <SCORE.INTRA.DIHEDRAL>
-29.4825

>  <SCORE.INTRA.DIHEDRAL.0>
42.0816

>  <SCORE.INTRA.POLAR>
-0.528385

>  <SCORE.INTRA.POLAR.0>
-0.254682

>  <SCORE.INTRA.REPUL>
0

>  <SCORE.INTRA.REPUL.0>
0

>  <SCORE.INTRA.SOLV>
0.850033

>  <SCORE.INTRA.SOLV.lig_0>
-109.803

>  <SCORE.INTRA.VDW>
0.955329

>  <SCORE.INTRA.VDW.0>
0.32176

>  <SCORE.INTRA.norm>
-0.445807

>  <SCORE.RESTR>
2.55152

>  <SCORE.RESTR.CAVITY>
2.55152

>  <SCORE.RESTR.norm>
0.0750446

>  <SCORE.SYSTEM>
0

>  <SCORE.SYSTEM.CONST>
0

>  <SCORE.SYSTEM.DIHEDRAL>
0

>  <SCORE.SYSTEM.SOLV>
0

>  <SCORE.SYSTEM.norm>
0

>  <SCORE.heavy>
34

>  <SCORE.norm>
-1.16092

>  <RMSD>
3.349

$$$$
1mwl
 OpenBabel11021811403D
libRbt.so/2013.1/901 2013/11/27
 34 36  0  0  0  0  0  0  0  0999 V2000
  -11.1756    8.3428   21.0874 C   0  0  2  0  0  0  0  0  0  0  0  0
  -10.7050    9.2725   20.1586 O   0  0  0  0  0  0  0  0  0  0  0  0
   -9.9798    7.9505   22.0001 C   0  0  2  0  0  0  0  0  0  0  0  0
   -9.4420    9.1399   22.6676 N   0  3  0  0  0  0  0  0  0  0  0  0
   -8.8820    7.2125   21.1791 C   0  0  1  0  0  0  0  0  0  0  0  0
   -7.8463    6.8442   21.9740 O   0  0  0  0  0  0  0  0  0  0  0  0
   -9.5275    5.9639   20.4923 C   0  0  2  0  0  0  0  0  0  0  0  0
   -8.5337    5.2486   19.7287 O   0  0  0  0  0  0  0  0  0  0  0  0
  -10.7007    6.4555   19.5780 C   0  0  2  0  0  0  0  0  0  0  0  0
  -11.7030    7.1916   20.3798 O   0  0  0  0  0  0  0  0  0  0  0  0
  -11.4542    5.3380   18.8478 C   0  0  2  0  0  0  0  0  0  0  0  0
  -11.2488    4.1289   19.5029 O   0  0  0  0  0  0  0  0  0  0  0  0
  -10.9878    5.1263   17.3959 C   0  0  0  0  0  0  0  0  0  0  0  0
  -14.3460   10.8920   18.6159 C   0  0  2  0  0  0  0  0  0  0  0  0
  -15.2917   11.6804   17.7856 N   0  3  0  0  0  0  0  0  0  0  0  0
  -13.4026   11.8342   19.4209 C   0  0  0  0  0  0  0  0  0  0  0  0
  -12.3941   10.9904   20.2817 C   0  0  2  0  0  0  0  0  0  0  0  0
  -11.5014   11.9288   21.0558 N   0  3  0  0  0  0  0  0  0  0  0  0
  -11.5678   10.0502   19.3385 C   0  0  2  0  0  0  0  0  0  0  0  0
  -12.5316    9.1217   18.5600 C   0  0  2  0  0  0  0  0  0  0  0  0
  -11.7814    8.3065   17.6923 O   0  0  0  0  0  0  0  0  0  0  0  0
  -13.5097    9.9696   17.7036 C   0  0  1  0  0  0  0  0  0  0  0  0
  -14.3812    9.0987   16.9974 O   0  0  0  0  0  0  0  0  0  0  0  0
  -14.8380    9.4873   15.7313 C   0  0  2  0  0  0  0  0  0  0  0  0
  -16.2504    8.9001   15.5495 C   0  0  2  0  0  0  0  0  0  0  0  0
  -17.1009    9.4319   16.5427 O   0  0  0  0  0  0  0  0  0  0  0  0
  -16.1750    7.3389   15.6585 C   0  0  1  0  0  0  0  0  0  0  0  0
  -17.5046    6.6956   15.5233 N   0  3  0  0  0  0  0  0  0  0  0  0
  -17.8921    6.0161   16.7859 C   0  0  0  0  0  0  0  0  0  0  0  0
  -15.2019    6.7924   14.5578 C   0  0  2  0  0  0  0  0  0  0  0  0
  -15.6881    7.1531   13.2513 O   0  0  0  0  0  0  0  0  0  0  0  0
  -15.0890    5.3458   14.5988 C   0  0  0  0  0  0  0  0  0  0  0  0
  -13.8011    7.4636   14.7007 C   0  0  0  0  0  0  0  0  0  0  0  0
  -13.9304    8.9576   14.6992 O   0  0  0  0  0  0  0  0  0  0  0  0
  1  2  1  6  0  0  0
  1  3  1  0  0  0  0
  1 10  1  0  0  0  0
  3  4  1  6  0  0  0
  3  5  1  0  0  0  0
  5  6  1  1  0  0  0
  5  7  1  0  0  0  0
  7  8  1  6  0  0  0
  7  9  1  0  0  0  0
  9 10  1  1  0  0  0
  9 11  1  0  0  0  0
 11 12  1  1  0  0  0
 11 13  1  0  0  0  0
 14 15  1  6  0  0  0
 14 16  1  0  0  0  0
 14 22  1  0  0  0  0
 16 17  1  0  0  0  0
 17 18  1  6  0  0  0
 17 19  1  0  0  0  0
 19  2  1  1  0  0  0
 19 20  1  0  0  0  0
 20 21  1  6  0  0  0
 20 22  1  0  0  0  0
 22 23  1  1  0  0  0
 24 23  1  1  0  0  0
 24 25  1  0  0  0  0
 24 34  1  0  0  0  0
 25 26  1  1  0  0  0
 25 27  1  0  0  0  0
 27 28  1  6  0  0  0
 27 30  1  0  0  0  0
 28 29  1  0  0  0  0
 30 31  1  6  0  0  0
 30 32  1  0  0  0  0
 30 33  1  0  0  0  0
 33 34  1  0  0  0  0
M  CHG  4   4   1  15   1  18   1  28   1
M  END
>  <CHROM.1>
-167.08752869,64.69486139,165.38791282,58.02013554,-69.84342438,20.93605546
169.32079900,-168.09293193,80.88449600,-57.59959238,92.39589254,-148.18479306
176.26079662,4.88702016,-178.40853715,-12.82425942,8.09897679,18.23849430
0.26015123,-0.69951314,0.43795113

>  <Name>
1mwl

>  <RI>
0

>  <Rbt.Current_Directory>
/home/itssahil/PROJECTS/Mol_Feturizer/New_Systems/rnas/1mwl

>  <Rbt.Executable>
rbdock ($Id: //depot/dev/client3/rdock/2013.1/src/exe/rbdock.cxx#4 $)

>  <Rbt.Library>
libRbt.so (2013.1, Build901 2013/11/27)

>  <Rbt.Parameter_File>
/export/apps/rDock/src/rDock_2013.1_src/data/scripts/dock_solv.prm

>  <Rbt.Receptor>
prm/pocket_docking_2.prm

>  <SCORE>
-36.3032

>  <SCORE.INTER>
-23.1273

>  <SCORE.INTER.CONST>
1

>  <SCORE.INTER.POLAR>
-4.20464

>  <SCORE.INTER.ROT>
6

>  <SCORE.INTER.SOLV>
29.8831

>  <SCORE.INTER.VDW>
-18.9638

>  <SCORE.INTER.norm>
-0.680215

>  <SCORE.INTRA>
-16.568

>  <SCORE.INTRA.DIHEDRAL>
-22.7248

>  <SCORE.INTRA.DIHEDRAL.0>
42.0816

>  <SCORE.INTRA.POLAR>
-0.917459

>  <SCORE.INTRA.POLAR.0>
-0.254682

>  <SCORE.INTRA.REPUL>
0

>  <SCORE.INTRA.REPUL.0>
0

>  <SCORE.INTRA.SOLV>
2.04831

>  <SCORE.INTRA.SOLV.lig_0>
-109.803

>  <SCORE.INTRA.VDW>
-3.11041

>  <SCORE.INTRA.VDW.0>
0.32176

>  <SCORE.INTRA.norm>
-0.487295

>  <SCORE.RESTR>
3.39213

>  <SCORE.RESTR.CAVITY>
3.39213

>  <SCORE.RESTR.norm>
0.0997686

>  <SCORE.SYSTEM>
0

>  <SCORE.SYSTEM.CONST>
0

>  <SCORE.SYSTEM.DIHEDRAL>
0

>  <SCORE.SYSTEM.SOLV>
0

>  <SCORE.SYSTEM.norm>
0

>  <SCORE.heavy>
34

>  <SCORE.norm>
-1.06774

>  <RMSD>
3.358

$$$$
1mwl
 OpenBabel11021811403D
libRbt.so/2013.1/901 2013/11/27
 34 36  0  0  0  0  0  0  0  0999 V2000
  -10.6207    8.0281   21.2319 C   0  0  2  0  0  0  0  0  0  0  0  0
  -10.1900    8.7661   20.1281 O   0  0  0  0  0  0  0  0  0  0  0  0
   -9.3570    7.4409   21.9211 C   0  0  2  0  0  0  0  0  0  0  0  0
   -8.4542    8.5224   22.3270 N   0  3  0  0  0  0  0  0  0  0  0  0
   -8.6428    6.4244   20.9829 C   0  0  1  0  0  0  0  0  0  0  0  0
   -7.5530    5.8884   21.5873 O   0  0  0  0  0  0  0  0  0  0  0  0
   -9.6646    5.3080   20.5866 C   0  0  2  0  0  0  0  0  0  0  0  0
   -9.0321    4.3405   19.7228 O   0  0  0  0  0  0  0  0  0  0  0  0
  -10.8870    5.9867   19.8801 C   0  0  2  0  0  0  0  0  0  0  0  0
  -11.5148    6.9789   20.7805 O   0  0  0  0  0  0  0  0  0  0  0  0
  -11.9949    5.0190   19.4488 C   0  0  2  0  0  0  0  0  0  0  0  0
  -12.9945    5.7187   18.7821 O   0  0  0  0  0  0  0  0  0  0  0  0
  -12.6814    4.3034   20.6264 C   0  0  0  0  0  0  0  0  0  0  0  0
  -13.8715    9.8264   18.2356 C   0  0  2  0  0  0  0  0  0  0  0  0
  -14.8480   10.4967   17.3397 N   0  3  0  0  0  0  0  0  0  0  0  0
  -13.2182   10.8548   19.2058 C   0  0  0  0  0  0  0  0  0  0  0  0
  -12.1735   10.1389   20.1366 C   0  0  2  0  0  0  0  0  0  0  0  0
  -11.5655   11.1570   21.0696 N   0  3  0  0  0  0  0  0  0  0  0  0
  -11.0847    9.4399   19.2522 C   0  0  2  0  0  0  0  0  0  0  0  0
  -11.7634    8.4192   18.3064 C   0  0  2  0  0  0  0  0  0  0  0  0
  -10.7808    7.8232   17.4944 O   0  0  0  0  0  0  0  0  0  0  0  0
  -12.7797    9.1441   17.3840 C   0  0  1  0  0  0  0  0  0  0  0  0
  -13.3874    8.1907   16.5248 O   0  0  0  0  0  0  0  0  0  0  0  0
  -13.1582    8.2867   15.1461 C   0  0  2  0  0  0  0  0  0  0  0  0
  -14.2034    7.4014   14.4413 C   0  0  2  0  0  0  0  0  0  0  0  0
  -15.4945    7.8869   14.7410 O   0  0  0  0  0  0  0  0  0  0  0  0
  -14.0370    5.9224   14.9310 C   0  0  1  0  0  0  0  0  0  0  0  0
  -15.0303    5.0067   14.3188 N   0  3  0  0  0  0  0  0  0  0  0  0
  -15.4871    3.9913   15.3019 C   0  0  0  0  0  0  0  0  0  0  0  0
  -12.5845    5.4321   14.6039 C   0  0  2  0  0  0  0  0  0  0  0  0
  -12.3566    5.4891   13.1833 O   0  0  0  0  0  0  0  0  0  0  0  0
  -12.3628    4.0616   15.0281 C   0  0  0  0  0  0  0  0  0  0  0  0
  -11.5376    6.3906   15.2508 C   0  0  0  0  0  0  0  0  0  0  0  0
  -11.7986    7.8092   14.8409 O   0  0  0  0  0  0  0  0  0  0  0  0
  1  2  1  6  0  0  0
  1  3  1  0  0  0  0
  1 10  1  0  0  0  0
  3  4  1  6  0  0  0
  3  5  1  0  0  0  0
  5  6  1  1  0  0  0
  5  7  1  0  0  0  0
  7  8  1  6  0  0  0
  7  9  1  0  0  0  0
  9 10  1  1  0  0  0
  9 11  1  0  0  0  0
 11 12  1  1  0  0  0
 11 13  1  0  0  0  0
 14 15  1  6  0  0  0
 14 16  1  0  0  0  0
 14 22  1  0  0  0  0
 16 17  1  0  0  0  0
 17 18  1  1  0  0  0
 17 19  1  0  0  0  0
 19  2  1  1  0  0  0
 19 20  1  0  0  0  0
 20 21  1  6  0  0  0
 20 22  1  0  0  0  0
 22 23  1  6  0  0  0
 24 23  1  1  0  0  0
 24 25  1  0  0  0  0
 24 34  1  0  0  0  0
 25 26  1  1  0  0  0
 25 27  1  0  0  0  0
 27 28  1  6  0  0  0
 27 30  1  0  0  0  0
 28 29  1  0  0  0  0
 30 31  1  6  0  0  0
 30 32  1  0  0  0  0
 30 33  1  0  0  0  0
 33 34  1  0  0  0  0
M  CHG  4   4   1  15   1  18   1  28   1
M  END
>  <CHROM.1>
179.45628702,42.69974251,-157.11015897,-177.14320479,-56.07128583,-177.29423912
68.23549338,-177.57322614,128.85748143,54.07281503,124.63402170,-165.16080863
68.86577048,-22.33235501,57.34579213,-11.96446913,7.23267673,18.06959988
0.56398804,-0.87432194,0.51307526

>  <Name>
1mwl

>  <RI>
0

>  <Rbt.Current_Directory>
/home/itssahil/PROJECTS/Mol_Feturizer/New_Systems/rnas/1mwl

>  <Rbt.Executable>
rbdock ($Id: //depot/dev/client3/rdock/2013.1/src/exe/rbdock.cxx#4 $)

>  <Rbt.Library>
libRbt.so (2013.1, Build901 2013/11/27)

>  <Rbt.Parameter_File>
/export/apps/rDock/src/rDock_2013.1_src/data/scripts/dock_solv.prm

>  <Rbt.Receptor>
prm/pocket_docking_5.prm

>  <SCORE>
-51.593

>  <SCORE.INTER>
-36.4333

>  <SCORE.INTER.CONST>
1

>  <SCORE.INTER.POLAR>
-6.21551

>  <SCORE.INTER.ROT>
6

>  <SCORE.INTER.SOLV>
23.1648

>  <SCORE.INTER.VDW>
-18.8921

>  <SCORE.INTER.norm>
-1.07157

>  <SCORE.INTRA>
-15.1598

>  <SCORE.INTRA.DIHEDRAL>
-24.3926

>  <SCORE.INTRA.DIHEDRAL.0>
42.0816

>  <SCORE.INTRA.POLAR>
0.138091

>  <SCORE.INTRA.POLAR.0>
-0.254682

>  <SCORE.INTRA.REPUL>
0

>  <SCORE.INTRA.REPUL.0>
0

>  <SCORE.INTRA.SOLV>
-0.706659

>  <SCORE.INTRA.SOLV.lig_0>
-109.803

>  <SCORE.INTRA.VDW>
-3.07965

>  <SCORE.INTRA.VDW.0>
0.32176

>  <SCORE.INTRA.norm>
-0.445876

>  <SCORE.RESTR>
0

>  <SCORE.RESTR.CAVITY>
0

>  <SCORE.RESTR.norm>
0

>  <SCORE.SYSTEM>
0

>  <SCORE.SYSTEM.CONST>
0

>  <SCORE.SYSTEM.DIHEDRAL>
0

>  <SCORE.SYSTEM.SOLV>
0

>  <SCORE.SYSTEM.norm>
0

>  <SCORE.heavy>
34

>  <SCORE.norm>
-1.51744

>  <RMSD>
3.358

$$$$
1mwl
 OpenBabel11021811403D
libRbt.so/2013.1/901 2013/11/27
 34 36  0  0  0  0  0  0  0  0999 V2000
  -10.8097    7.6600   21.0447 C   0  0  2  0  0  0  0  0  0  0  0  0
  -10.4390    8.5038   19.9962 O   0  0  0  0  0  0  0  0  0  0  0  0
   -9.5226    7.3253   21.8499 C   0  0  2  0  0  0  0  0  0  0  0  0
   -8.9072    8.5569   22.3538 N   0  3  0  0  0  0  0  0  0  0  0  0
   -8.5269    6.5064   20.9772 C   0  0  1  0  0  0  0  0  0  0  0  0
   -7.4119    6.1884   21.6814 O   0  0  0  0  0  0  0  0  0  0  0  0
   -9.2520    5.2159   20.4709 C   0  0  2  0  0  0  0  0  0  0  0  0
   -8.3530    4.4258   19.6646 O   0  0  0  0  0  0  0  0  0  0  0  0
  -10.5160    5.6491   19.6533 C   0  0  2  0  0  0  0  0  0  0  0  0
  -11.4190    6.4632   20.4967 O   0  0  0  0  0  0  0  0  0  0  0  0
  -11.3525    4.4874   19.1050 C   0  0  2  0  0  0  0  0  0  0  0  0
  -12.4823    4.9848   18.4652 O   0  0  0  0  0  0  0  0  0  0  0  0
  -11.8621    3.5264   20.1946 C   0  0  0  0  0  0  0  0  0  0  0  0
  -14.2411    9.7522   18.4978 C   0  0  2  0  0  0  0  0  0  0  0  0
  -15.2703   10.4273   17.6669 N   0  3  0  0  0  0  0  0  0  0  0  0
  -13.3629   10.7994   19.2449 C   0  0  0  0  0  0  0  0  0  0  0  0
  -12.2656   10.0756   20.1064 C   0  0  2  0  0  0  0  0  0  0  0  0
  -11.4385   11.1135   20.8242 N   0  3  0  0  0  0  0  0  0  0  0  0
  -11.3845    9.1756   19.1737 C   0  0  2  0  0  0  0  0  0  0  0  0
  -12.2835    8.1413   18.4531 C   0  0  2  0  0  0  0  0  0  0  0  0
  -11.4871    7.3620   17.5936 O   0  0  0  0  0  0  0  0  0  0  0  0
  -13.3508    8.8719   17.5950 C   0  0  1  0  0  0  0  0  0  0  0  0
  -14.1610    7.9055   16.9423 O   0  0  0  0  0  0  0  0  0  0  0  0
  -14.8860    8.2927   15.8077 C   0  0  2  0  0  0  0  0  0  0  0  0
  -15.7422    7.0881   15.3733 C   0  0  2  0  0  0  0  0  0  0  0  0
  -16.6354    6.7589   16.4156 O   0  0  0  0  0  0  0  0  0  0  0  0
  -14.7995    5.8803   15.0453 C   0  0  1  0  0  0  0  0  0  0  0  0
  -15.5513    4.6658   14.6454 N   0  3  0  0  0  0  0  0  0  0  0  0
  -15.7378    3.7560   15.8044 C   0  0  0  0  0  0  0  0  0  0  0  0
  -13.8083    6.2959   13.9043 C   0  0  2  0  0  0  0  0  0  0  0  0
  -14.5463    6.6556   12.7213 O   0  0  0  0  0  0  0  0  0  0  0  0
  -12.9056    5.2170   13.5459 C   0  0  0  0  0  0  0  0  0  0  0  0
  -13.0126    7.5701   14.3243 C   0  0  0  0  0  0  0  0  0  0  0  0
  -13.9510    8.6662   14.7326 O   0  0  0  0  0  0  0  0  0  0  0  0
  1  2  1  6  0  0  0
  1  3  1  0  0  0  0
  1 10  1  0  0  0  0
  3  4  1  6  0  0  0
  3  5  1  0  0  0  0
  5  6  1  1  0  0  0
  5  7  1  0  0  0  0
  7  8  1  6  0  0  0
  7  9  1  0  0  0  0
  9 10  1  1  0  0  0
  9 11  1  0  0  0  0
 11 12  1  1  0  0  0
 11 13  1  0  0  0  0
 14 15  1  6  0  0  0
 14 16  1  0  0  0  0
 14 22  1  0  0  0  0
 16 17  1  0  0  0  0
 17 18  1  6  0  0  0
 17 19  1  0  0  0  0
 19  2  1  1  0  0  0
 19 20  1  0  0  0  0
 20 21  1  6  0  0  0
 20 22  1  0  0  0  0
 22 23  1  1  0  0  0
 24 23  1  1  0  0  0
 24 25  1  0  0  0  0
 24 34  1  0  0  0  0
 25 26  1  1  0  0  0
 25 27  1  0  0  0  0
 27 28  1  6  0  0  0
 27 30  1  0  0  0  0
 28 29  1  0  0  0  0
 30 31  1  6  0  0  0
 30 32  1  0  0  0  0
 30 33  1  0  0  0  0
 33 34  1  0  0  0  0
M  CHG  4   4   1  15   1  18   1  28   1
M  END
>  <CHROM.1>
-170.16276053,58.96761594,65.79103654,-71.67679525,-59.97361145,176.68266548
-53.27853154,75.12411863,-22.96652053,165.40429081,80.30257810,-176.04147749
65.09761542,23.51978490,-179.46874064,-12.39688275,7.17432880,18.06764358
0.38934011,-0.78500441,0.45239283

>  <Name>
1mwl

>  <RI>
0

>  <Rbt.Current_Directory>
/home/itssahil/PROJECTS/Mol_Feturizer/New_Systems/rnas/1mwl

>  <Rbt.Executable>
rbdock ($Id: //depot/dev/client3/rdock/2013.1/src/exe/rbdock.cxx#4 $)

>  <Rbt.Library>
libRbt.so (2013.1, Build901 2013/11/27)

>  <Rbt.Parameter_File>
/export/apps/rDock/src/rDock_2013.1_src/data/scripts/dock_solv.prm

>  <Rbt.Receptor>
prm/pocket_docking_4.prm

>  <SCORE>
-50.2227

>  <SCORE.INTER>
-32.33

>  <SCORE.INTER.CONST>
1

>  <SCORE.INTER.POLAR>
-5.1926

>  <SCORE.INTER.ROT>
6

>  <SCORE.INTER.SOLV>
23.1199

>  <SCORE.INTER.VDW>
-19.5513

>  <SCORE.INTER.norm>
-0.950881

>  <SCORE.INTRA>
-17.8927

>  <SCORE.INTRA.DIHEDRAL>
-32.0919

>  <SCORE.INTRA.DIHEDRAL.0>
42.0816

>  <SCORE.INTRA.POLAR>
-0.22578

>  <SCORE.INTRA.POLAR.0>
-0.254682

>  <SCORE.INTRA.REPUL>
0.0253701

>  <SCORE.INTRA.REPUL.0>
0

>  <SCORE.INTRA.SOLV>
1.37823

>  <SCORE.INTRA.SOLV.lig_0>
-109.803

>  <SCORE.INTRA.VDW>
-1.89508

>  <SCORE.INTRA.VDW.0>
0.32176

>  <SCORE.INTRA.norm>
-0.526256

>  <SCORE.RESTR>
0

>  <SCORE.RESTR.CAVITY>
0

>  <SCORE.RESTR.norm>
0

>  <SCORE.SYSTEM>
0

>  <SCORE.SYSTEM.CONST>
0

>  <SCORE.SYSTEM.DIHEDRAL>
0

>  <SCORE.SYSTEM.SOLV>
0

>  <SCORE.SYSTEM.norm>
0

>  <SCORE.heavy>
34

>  <SCORE.norm>
-1.47714

>  <RMSD>
3.374

$$$$
1mwl
 OpenBabel11021811403D
libRbt.so/2013.1/901 2013/11/27
 34 36  0  0  0  0  0  0  0  0999 V2000
  -10.5093    6.2575   21.5383 C   0  0  2  0  0  0  0  0  0  0  0  0
   -9.9024    6.9554   20.4928 O   0  0  0  0  0  0  0  0  0  0  0  0
   -9.9530    4.8060   21.5137 C   0  0  2  0  0  0  0  0  0  0  0  0
   -8.4946    4.8212   21.6635 N   0  3  0  0  0  0  0  0  0  0  0  0
  -10.3841    4.0753   20.2085 C   0  0  1  0  0  0  0  0  0  0  0  0
   -9.9238    2.7993   20.1914 O   0  0  0  0  0  0  0  0  0  0  0  0
  -11.9454    4.1047   20.1126 C   0  0  2  0  0  0  0  0  0  0  0  0
  -12.3818    3.4257   18.9165 O   0  0  0  0  0  0  0  0  0  0  0  0
  -12.4116    5.6002   20.1190 C   0  0  2  0  0  0  0  0  0  0  0  0
  -11.9473    6.2778   21.3496 O   0  0  0  0  0  0  0  0  0  0  0  0
  -13.9304    5.7971   20.0530 C   0  0  2  0  0  0  0  0  0  0  0  0
  -14.3888    5.4810   18.7790 O   0  0  0  0  0  0  0  0  0  0  0  0
  -14.3769    7.2452   20.3249 C   0  0  0  0  0  0  0  0  0  0  0  0
  -12.8753    9.7855   19.3045 C   0  0  2  0  0  0  0  0  0  0  0  0
  -13.5089   10.9963   18.7232 N   0  3  0  0  0  0  0  0  0  0  0  0
  -11.9116   10.1719   20.4656 C   0  0  0  0  0  0  0  0  0  0  0  0
  -11.2326    8.8858   21.0614 C   0  0  2  0  0  0  0  0  0  0  0  0
  -10.3139    9.2904   22.1879 N   0  3  0  0  0  0  0  0  0  0  0  0
  -10.4594    8.1338   19.9244 C   0  0  2  0  0  0  0  0  0  0  0  0
  -11.4444    7.7562   18.7911 C   0  0  2  0  0  0  0  0  0  0  0  0
  -10.7333    7.1124   17.7616 O   0  0  0  0  0  0  0  0  0  0  0  0
  -12.0939    9.0376   18.2033 C   0  0  1  0  0  0  0  0  0  0  0  0
  -12.9902    8.6683   17.1656 O   0  0  0  0  0  0  0  0  0  0  0  0
  -12.9279    9.3573   15.9475 C   0  0  2  0  0  0  0  0  0  0  0  0
  -14.3502    9.3804   15.3565 C   0  0  2  0  0  0  0  0  0  0  0  0
  -15.2063   10.0666   16.2446 O   0  0  0  0  0  0  0  0  0  0  0  0
  -14.8389    7.9078   15.1380 C   0  0  1  0  0  0  0  0  0  0  0  0
  -16.2181    7.8419   14.5963 N   0  3  0  0  0  0  0  0  0  0  0  0
  -17.2141    7.7823   15.6966 C   0  0  0  0  0  0  0  0  0  0  0  0
  -13.8481    7.1750   14.1692 C   0  0  2  0  0  0  0  0  0  0  0  0
  -13.8108    7.8548   12.9005 O   0  0  0  0  0  0  0  0  0  0  0  0
  -14.2459    5.8016   13.9184 C   0  0  0  0  0  0  0  0  0  0  0  0
  -12.3974    7.2382   14.7390 C   0  0  0  0  0  0  0  0  0  0  0  0
  -12.0091    8.6563   15.0343 O   0  0  0  0  0  0  0  0  0  0  0  0
  1  2  1  6  0  0  0
  1  3  1  0  0  0  0
  1 10  1  0  0  0  0
  3  4  1  6  0  0  0
  3  5  1  0  0  0  0
  5  6  1  1  0  0  0
  5  7  1  0  0  0  0
  7  8  1  6  0  0  0
  7  9  1  0  0  0  0
  9 10  1  1  0  0  0
  9 11  1  0  0  0  0
 11 12  1  6  0  0  0
 11 13  1  0  0  0  0
 14 15  1  6  0  0  0
 14 16  1  0  0  0  0
 14 22  1  0  0  0  0
 16 17  1  0  0  0  0
 17 18  1  1  0  0  0
 17 19  1  0  0  0  0
 19  2  1  1  0  0  0
 19 20  1  0  0  0  0
 20 21  1  6  0  0  0
 20 22  1  0  0  0  0
 22 23  1  6  0  0  0
 24 23  1  1  0  0  0
 24 25  1  0  0  0  0
 24 34  1  0  0  0  0
 25 26  1  1  0  0  0
 25 27  1  0  0  0  0
 27 28  1  6  0  0  0
 27 30  1  0  0  0  0
 28 29  1  0  0  0  0
 30 31  1  6  0  0  0
 30 32  1  0  0  0  0
 30 33  1  0  0  0  0
 33 34  1  0  0  0  0
M  CHG  4   4   1  15   1  18   1  28   1
M  END
>  <CHROM.1>
158.43498360,31.64449487,176.61051197,-65.97922779,62.26960167,-72.08681233
172.59468457,-58.33559406,166.95275339,177.11006536,107.35704285,-148.71831827
173.94196109,29.48363854,-60.69944559,-12.51039354,7.23929753,18.29551956
-0.10199873,-1.00988435,0.28339482

>  <Name>
1mwl

>  <RI>
0

>  <Rbt.Current_Directory>
/home/itssahil/PROJECTS/Mol_Feturizer/New_Systems/rnas/1mwl

>  <Rbt.Executable>
rbdock ($Id: //depot/dev/client3/rdock/2013.1/src/exe/rbdock.cxx#4 $)

>  <Rbt.Library>
libRbt.so (2013.1, Build901 2013/11/27)

>  <Rbt.Parameter_File>
/export/apps/rDock/src/rDock_2013.1_src/data/scripts/dock_solv.prm

>  <Rbt.Receptor>
prm/pocket_docking_3.prm

>  <SCORE>
-59.326

>  <SCORE.INTER>
-47.192

>  <SCORE.INTER.CONST>
1

>  <SCORE.INTER.POLAR>
-7.48369

>  <SCORE.INTER.ROT>
6

>  <SCORE.INTER.SOLV>
23.5977

>  <SCORE.INTER.VDW>
-21.9816

>  <SCORE.INTER.norm>
-1.388

>  <SCORE.INTRA>
-14.3152

>  <SCORE.INTRA.DIHEDRAL>
-22.8957

>  <SCORE.INTRA.DIHEDRAL.0>
42.0816

>  <SCORE.INTRA.POLAR>
-0.911985

>  <SCORE.INTRA.POLAR.0>
-0.254682

>  <SCORE.INTRA.REPUL>
0

>  <SCORE.INTRA.REPUL.0>
0

>  <SCORE.INTRA.SOLV>
0.919944

>  <SCORE.INTRA.SOLV.lig_0>
-109.803

>  <SCORE.INTRA.VDW>
-0.226574

>  <SCORE.INTRA.VDW.0>
0.32176

>  <SCORE.INTRA.norm>
-0.421036

>  <SCORE.RESTR>
2.18124

>  <SCORE.RESTR.CAVITY>
2.18124

>  <SCORE.RESTR.norm>
0.0641542

>  <SCORE.SYSTEM>
0

>  <SCORE.SYSTEM.CONST>
0

>  <SCORE.SYSTEM.DIHEDRAL>
0

>  <SCORE.SYSTEM.SOLV>
0

>  <SCORE.SYSTEM.norm>
0

>  <SCORE.heavy>
34

>  <SCORE.norm>
-1.74488

>  <RMSD>
3.382

$$$$
1mwl
 OpenBabel11021811403D
libRbt.so/2013.1/901 2013/11/27
 34 36  0  0  0  0  0  0  0  0999 V2000
  -10.6013    8.0340   21.2234 C   0  0  2  0  0  0  0  0  0  0  0  0
  -10.1731    8.8116   20.1461 O   0  0  0  0  0  0  0  0  0  0  0  0
   -9.3355    7.4280   21.8922 C   0  0  2  0  0  0  0  0  0  0  0  0
   -8.4370    8.4982   22.3359 N   0  3  0  0  0  0  0  0  0  0  0  0
   -8.6172    6.4474   20.9196 C   0  0  1  0  0  0  0  0  0  0  0  0
   -7.5256    5.8949   21.5054 O   0  0  0  0  0  0  0  0  0  0  0  0
   -9.6347    5.3416   20.4843 C   0  0  2  0  0  0  0  0  0  0  0  0
   -8.9982    4.4072   19.5877 O   0  0  0  0  0  0  0  0  0  0  0  0
  -10.8594    6.0398   19.8013 C   0  0  2  0  0  0  0  0  0  0  0  0
  -11.4912    6.9977   20.7354 O   0  0  0  0  0  0  0  0  0  0  0  0
  -11.9635    5.0835   19.3362 C   0  0  2  0  0  0  0  0  0  0  0  0
  -13.0929    5.8110   18.9779 O   0  0  0  0  0  0  0  0  0  0  0  0
  -12.4169    4.0904   20.4219 C   0  0  0  0  0  0  0  0  0  0  0  0
  -13.8438    9.7049   18.1493 C   0  0  2  0  0  0  0  0  0  0  0  0
  -14.8236   10.3297   17.2246 N   0  3  0  0  0  0  0  0  0  0  0  0
  -13.2634   10.7631   19.1338 C   0  0  0  0  0  0  0  0  0  0  0  0
  -12.2144   10.0958   20.0953 C   0  0  2  0  0  0  0  0  0  0  0  0
  -11.6778   11.1416   21.0413 N   0  3  0  0  0  0  0  0  0  0  0  0
  -11.0719    9.4435   19.2436 C   0  0  2  0  0  0  0  0  0  0  0  0
  -11.6787    8.3919   18.2829 C   0  0  2  0  0  0  0  0  0  0  0  0
  -10.6488    7.8380   17.5003 O   0  0  0  0  0  0  0  0  0  0  0  0
  -12.7000    9.0695   17.3304 C   0  0  1  0  0  0  0  0  0  0  0  0
  -13.2412    8.0884   16.4580 O   0  0  0  0  0  0  0  0  0  0  0  0
  -13.0961    8.2653   15.0759 C   0  0  2  0  0  0  0  0  0  0  0  0
  -14.1246    7.3517   14.3828 C   0  0  2  0  0  0  0  0  0  0  0  0
  -15.4235    7.7406   14.7755 O   0  0  0  0  0  0  0  0  0  0  0  0
  -13.8429    5.8640   14.7856 C   0  0  1  0  0  0  0  0  0  0  0  0
  -14.8127    4.9187   14.1805 N   0  3  0  0  0  0  0  0  0  0  0  0
  -15.1618    3.8375   15.1371 C   0  0  0  0  0  0  0  0  0  0  0  0
  -12.3845    5.4818   14.3567 C   0  0  2  0  0  0  0  0  0  0  0  0
  -12.2407    5.6218   12.9308 O   0  0  0  0  0  0  0  0  0  0  0  0
  -12.0578    4.1089   14.6968 C   0  0  0  0  0  0  0  0  0  0  0  0
  -11.3619    6.4712   14.9958 C   0  0  0  0  0  0  0  0  0  0  0  0
  -11.7298    7.8891   14.6744 O   0  0  0  0  0  0  0  0  0  0  0  0
  1  2  1  6  0  0  0
  1  3  1  0  0  0  0
  1 10  1  0  0  0  0
  3  4  1  6  0  0  0
  3  5  1  0  0  0  0
  5  6  1  1  0  0  0
  5  7  1  0  0  0  0
  7  8  1  6  0  0  0
  7  9  1  0  0  0  0
  9 10  1  1  0  0  0
  9 11  1  0  0  0  0
 11 12  1  1  0  0  0
 11 13  1  0  0  0  0
 14 15  1  6  0  0  0
 14 16  1  0  0  0  0
 14 22  1  0  0  0  0
 16 17  1  0  0  0  0
 17 18  1  1  0  0  0
 17 19  1  0  0  0  0
 19  2  1  1  0  0  0
 19 20  1  0  0  0  0
 20 21  1  6  0  0  0
 20 22  1  0  0  0  0
 22 23  1  6  0  0  0
 24 23  1  1  0  0  0
 24 25  1  0  0  0  0
 24 34  1  0  0  0  0
 25 26  1  1  0  0  0
 25 27  1  0  0  0  0
 27 28  1  6  0  0  0
 27 30  1  0  0  0  0
 28 29  1  0  0  0  0
 30 31  1  6  0  0  0
 30 32  1  0  0  0  0
 30 33  1  0  0  0  0
 33 34  1  0  0  0  0
M  CHG  4   4   1  15   1  18   1  28   1
M  END
>  <CHROM.1>
175.37927959,44.11429406,-39.98018666,-70.34187530,175.08155119,169.04807081
159.24647780,-179.00279498,11.46503591,50.79350498,118.13771677,-162.14586811
67.28527276,-21.79347579,50.46384030,-11.89402576,7.21378049,17.98896787
0.63057996,-0.87981950,0.56930503

>  <Name>
1mwl

>  <RI>
0

>  <Rbt.Current_Directory>
/home/itssahil/PROJECTS/Mol_Feturizer/New_Systems/rnas/1mwl

>  <Rbt.Executable>
rbdock ($Id: //depot/dev/client3/rdock/2013.1/src/exe/rbdock.cxx#4 $)

>  <Rbt.Library>
libRbt.so (2013.1, Build901 2013/11/27)

>  <Rbt.Parameter_File>
/export/apps/rDock/src/rDock_2013.1_src/data/scripts/dock_solv.prm

>  <Rbt.Receptor>
prm/pocket_docking_3.prm

>  <SCORE>
-47.4769

>  <SCORE.INTER>
-34.9927

>  <SCORE.INTER.CONST>
1

>  <SCORE.INTER.POLAR>
-6.06058

>  <SCORE.INTER.ROT>
6

>  <SCORE.INTER.SOLV>
22.8491

>  <SCORE.INTER.VDW>
-18.3429

>  <SCORE.INTER.norm>
-1.0292

>  <SCORE.INTRA>
-12.7711

>  <SCORE.INTRA.DIHEDRAL>
-21.3813

>  <SCORE.INTRA.DIHEDRAL.0>
42.0816

>  <SCORE.INTRA.POLAR>
0.173722

>  <SCORE.INTRA.POLAR.0>
-0.254682

>  <SCORE.INTRA.REPUL>
0

>  <SCORE.INTRA.REPUL.0>
0

>  <SCORE.INTRA.SOLV>
-0.809643

>  <SCORE.INTRA.SOLV.lig_0>
-109.803

>  <SCORE.INTRA.VDW>
-2.26626

>  <SCORE.INTRA.VDW.0>
0.32176

>  <SCORE.INTRA.norm>
-0.37562

>  <SCORE.RESTR>
0.286927

>  <SCORE.RESTR.CAVITY>
0.286927

>  <SCORE.RESTR.norm>
0.00843902

>  <SCORE.SYSTEM>
0

>  <SCORE.SYSTEM.CONST>
0

>  <SCORE.SYSTEM.DIHEDRAL>
0

>  <SCORE.SYSTEM.SOLV>
0

>  <SCORE.SYSTEM.norm>
0

>  <SCORE.heavy>
34

>  <SCORE.norm>
-1.39638

>  <RMSD>
3.384

$$$$
1mwl
 OpenBabel11021811403D
libRbt.so/2013.1/901 2013/11/27
 34 36  0  0  0  0  0  0  0  0999 V2000
  -10.6178    7.8478   21.2500 C   0  0  2  0  0  0  0  0  0  0  0  0
  -10.1493    8.5238   20.1222 O   0  0  0  0  0  0  0  0  0  0  0  0
   -9.3865    7.2178   21.9600 C   0  0  2  0  0  0  0  0  0  0  0  0
   -8.4271    8.2629   22.3297 N   0  3  0  0  0  0  0  0  0  0  0  0
   -8.7283    6.1334   21.0575 C   0  0  1  0  0  0  0  0  0  0  0  0
   -7.6681    5.5610   21.6808 O   0  0  0  0  0  0  0  0  0  0  0  0
   -9.8085    5.0602   20.6985 C   0  0  2  0  0  0  0  0  0  0  0  0
   -9.2292    4.0316   19.8687 O   0  0  0  0  0  0  0  0  0  0  0  0
  -10.9936    5.7786   19.9682 C   0  0  2  0  0  0  0  0  0  0  0  0
  -11.5669    6.8329   20.8337 O   0  0  0  0  0  0  0  0  0  0  0  0
  -12.1519    4.8572   19.5690 C   0  0  2  0  0  0  0  0  0  0  0  0
  -11.6793    3.8400   18.7472 O   0  0  0  0  0  0  0  0  0  0  0  0
  -13.2625    5.5707   18.7767 C   0  0  0  0  0  0  0  0  0  0  0  0
  -13.7605    9.6185   18.1170 C   0  0  2  0  0  0  0  0  0  0  0  0
  -14.7015   10.2937   17.1875 N   0  3  0  0  0  0  0  0  0  0  0  0
  -13.1190   10.6472   19.0947 C   0  0  0  0  0  0  0  0  0  0  0  0
  -12.1115    9.9258   20.0614 C   0  0  2  0  0  0  0  0  0  0  0  0
  -11.5144   10.9444   21.0008 N   0  3  0  0  0  0  0  0  0  0  0  0
  -11.0091    9.2016   19.2149 C   0  0  2  0  0  0  0  0  0  0  0  0
  -11.6766    8.1811   18.2608 C   0  0  2  0  0  0  0  0  0  0  0  0
  -10.6808    7.5622   17.4826 O   0  0  0  0  0  0  0  0  0  0  0  0
  -12.6558    8.9113   17.3031 C   0  0  1  0  0  0  0  0  0  0  0  0
  -13.2537    7.9580   16.4369 O   0  0  0  0  0  0  0  0  0  0  0  0
  -13.0242    8.0656   15.0591 C   0  0  2  0  0  0  0  0  0  0  0  0
  -14.0725    7.1903   14.3465 C   0  0  2  0  0  0  0  0  0  0  0  0
  -15.3620    7.6775   14.6506 O   0  0  0  0  0  0  0  0  0  0  0  0
  -13.9110    5.7064   14.8228 C   0  0  1  0  0  0  0  0  0  0  0  0
  -14.9075    4.7995   14.2025 N   0  3  0  0  0  0  0  0  0  0  0  0
  -15.3619    3.7722   15.1742 C   0  0  0  0  0  0  0  0  0  0  0  0
  -12.4603    5.2141   14.4912 C   0  0  2  0  0  0  0  0  0  0  0  0
  -12.2322    5.2832   13.0711 O   0  0  0  0  0  0  0  0  0  0  0  0
  -12.2431    3.8392   14.9030 C   0  0  0  0  0  0  0  0  0  0  0  0
  -11.4101    6.1632   15.1466 C   0  0  0  0  0  0  0  0  0  0  0  0
  -11.6663    7.5864   14.7495 O   0  0  0  0  0  0  0  0  0  0  0  0
  1  2  1  6  0  0  0
  1  3  1  0  0  0  0
  1 10  1  0  0  0  0
  3  4  1  6  0  0  0
  3  5  1  0  0  0  0
  5  6  1  1  0  0  0
  5  7  1  0  0  0  0
  7  8  1  6  0  0  0
  7  9  1  0  0  0  0
  9 10  1  1  0  0  0
  9 11  1  0  0  0  0
 11 12  1  6  0  0  0
 11 13  1  0  0  0  0
 14 15  1  6  0  0  0
 14 16  1  0  0  0  0
 14 22  1  0  0  0  0
 16 17  1  0  0  0  0
 17 18  1  1  0  0  0
 17 19  1  0  0  0  0
 19  2  1  1  0  0  0
 19 20  1  0  0  0  0
 20 21  1  6  0  0  0
 20 22  1  0  0  0  0
 22 23  1  6  0  0  0
 24 23  1  1  0  0  0
 24 25  1  0  0  0  0
 24 34  1  0  0  0  0
 25 26  1  1  0  0  0
 25 27  1  0  0  0  0
 27 28  1  6  0  0  0
 27 30  1  0  0  0  0
 28 29  1  0  0  0  0
 30 31  1  6  0  0  0
 30 32  1  0  0  0  0
 30 33  1  0  0  0  0
 33 34  1  0  0  0  0
M  CHG  4   4   1  15   1  18   1  28   1
M  END
>  <CHROM.1>
178.73429958,40.11256575,3.82274105,-175.66967484,-56.13549237,-57.66749917
177.23108437,65.14665028,-107.97286141,57.95217452,122.32856115,-164.40867999
67.69330022,-22.65036275,55.39761212,-11.89304731,6.99243292,17.97829651
0.58723306,-0.89525893,0.51893250

>  <Name>
1mwl

>  <RI>
0

>  <Rbt.Current_Directory>
/home/itssahil/PROJECTS/Mol_Feturizer/New_Systems/rnas/1mwl

>  <Rbt.Executable>
rbdock ($Id: //depot/dev/client3/rdock/2013.1/src/exe/rbdock.cxx#4 $)

>  <Rbt.Library>
libRbt.so (2013.1, Build901 2013/11/27)

>  <Rbt.Parameter_File>
/export/apps/rDock/src/rDock_2013.1_src/data/scripts/dock_solv.prm

>  <Rbt.Receptor>
prm/pocket_docking_6.prm

>  <SCORE>
-49.0219

>  <SCORE.INTER>
-36.0964

>  <SCORE.INTER.CONST>
1

>  <SCORE.INTER.POLAR>
-6.36139

>  <SCORE.INTER.ROT>
6

>  <SCORE.INTER.SOLV>
21.669

>  <SCORE.INTER.VDW>
-17.6826

>  <SCORE.INTER.norm>
-1.06166

>  <SCORE.INTRA>
-12.9255

>  <SCORE.INTRA.DIHEDRAL>
-21.9823

>  <SCORE.INTRA.DIHEDRAL.0>
42.0816

>  <SCORE.INTRA.POLAR>
0.253345

>  <SCORE.INTRA.POLAR.0>
-0.254682

>  <SCORE.INTRA.REPUL>
0

>  <SCORE.INTRA.REPUL.0>
0

>  <SCORE.INTRA.SOLV>
-0.680127

>  <SCORE.INTRA.SOLV.lig_0>
-109.803

>  <SCORE.INTRA.VDW>
-2.45566

>  <SCORE.INTRA.VDW.0>
0.32176

>  <SCORE.INTRA.norm>
-0.380162

>  <SCORE.RESTR>
0

>  <SCORE.RESTR.CAVITY>
0

>  <SCORE.RESTR.norm>
0

>  <SCORE.SYSTEM>
0

>  <SCORE.SYSTEM.CONST>
0

>  <SCORE.SYSTEM.DIHEDRAL>
0

>  <SCORE.SYSTEM.SOLV>
0

>  <SCORE.SYSTEM.norm>
0

>  <SCORE.heavy>
34

>  <SCORE.norm>
-1.44182

>  <RMSD>
3.385

$$$$
1mwl
 OpenBabel11021811403D
libRbt.so/2013.1/901 2013/11/27
 34 36  0  0  0  0  0  0  0  0999 V2000
  -10.8628    6.3023   21.7057 C   0  0  2  0  0  0  0  0  0  0  0  0
  -10.1593    7.0054   20.7263 O   0  0  0  0  0  0  0  0  0  0  0  0
  -10.0251    5.0437   22.0674 C   0  0  2  0  0  0  0  0  0  0  0  0
   -8.6991    5.4409   22.5505 N   0  3  0  0  0  0  0  0  0  0  0  0
   -9.9226    4.0834   20.8464 C   0  0  1  0  0  0  0  0  0  0  0  0
   -9.2143    2.9703   21.1619 O   0  0  0  0  0  0  0  0  0  0  0  0
  -11.3692    3.7095   20.3828 C   0  0  2  0  0  0  0  0  0  0  0  0
  -11.3121    2.8101   19.2558 O   0  0  0  0  0  0  0  0  0  0  0  0
  -12.1268    5.0309   20.0171 C   0  0  2  0  0  0  0  0  0  0  0  0
  -12.1668    5.9398   21.1840 O   0  0  0  0  0  0  0  0  0  0  0  0
  -13.5773    4.8320   19.5628 C   0  0  2  0  0  0  0  0  0  0  0  0
  -14.2193    3.9454   20.4202 O   0  0  0  0  0  0  0  0  0  0  0  0
  -13.7045    4.2338   18.1499 C   0  0  0  0  0  0  0  0  0  0  0  0
  -13.0431    9.8184   19.3017 C   0  0  2  0  0  0  0  0  0  0  0  0
  -13.6366   11.0096   18.6426 N   0  3  0  0  0  0  0  0  0  0  0  0
  -12.1157   10.2448   20.4781 C   0  0  0  0  0  0  0  0  0  0  0  0
  -11.4786    8.9785   21.1568 C   0  0  2  0  0  0  0  0  0  0  0  0
  -10.5946    9.4221   22.2962 N   0  3  0  0  0  0  0  0  0  0  0  0
  -10.6771    8.1637   20.0844 C   0  0  2  0  0  0  0  0  0  0  0  0
  -11.6267    7.7476   18.9345 C   0  0  2  0  0  0  0  0  0  0  0  0
  -10.8894    7.0468   17.9622 O   0  0  0  0  0  0  0  0  0  0  0  0
  -12.2347    9.0093   18.2652 C   0  0  1  0  0  0  0  0  0  0  0  0
  -13.0989    8.6047   17.2136 O   0  0  0  0  0  0  0  0  0  0  0  0
  -12.9622    9.2144   15.9597 C   0  0  2  0  0  0  0  0  0  0  0  0
  -14.3579    9.2500   15.3087 C   0  0  2  0  0  0  0  0  0  0  0  0
  -15.2228   10.0191   16.1168 O   0  0  0  0  0  0  0  0  0  0  0  0
  -14.8917    7.7845   15.1592 C   0  0  1  0  0  0  0  0  0  0  0  0
  -16.2496    7.7330   14.5646 N   0  3  0  0  0  0  0  0  0  0  0  0
  -17.2901    7.8919   15.6125 C   0  0  0  0  0  0  0  0  0  0  0  0
  -13.8908    6.9592   14.2793 C   0  0  2  0  0  0  0  0  0  0  0  0
  -13.7774    7.5575   12.9745 O   0  0  0  0  0  0  0  0  0  0  0  0
  -14.3289    5.5876   14.0954 C   0  0  0  0  0  0  0  0  0  0  0  0
  -12.4627    7.0074   14.9051 C   0  0  0  0  0  0  0  0  0  0  0  0
  -12.0342    8.4267   15.1303 O   0  0  0  0  0  0  0  0  0  0  0  0
  1  2  1  6  0  0  0
  1  3  1  0  0  0  0
  1 10  1  0  0  0  0
  3  4  1  6  0  0  0
  3  5  1  0  0  0  0
  5  6  1  1  0  0  0
  5  7  1  0  0  0  0
  7  8  1  6  0  0  0
  7  9  1  0  0  0  0
  9 10  1  1  0  0  0
  9 11  1  0  0  0  0
 11 12  1  1  0  0  0
 11 13  1  0  0  0  0
 14 15  1  6  0  0  0
 14 16  1  0  0  0  0
 14 22  1  0  0  0  0
 16 17  1  0  0  0  0
 17 18  1  1  0  0  0
 17 19  1  0  0  0  0
 19  2  1  1  0  0  0
 19 20  1  0  0  0  0
 20 21  1  6  0  0  0
 20 22  1  0  0  0  0
 22 23  1  6  0  0  0
 24 23  1  1  0  0  0
 24 25  1  0  0  0  0
 24 34  1  0  0  0  0
 25 26  1  1  0  0  0
 25 27  1  0  0  0  0
 27 28  1  6  0  0  0
 27 30  1  0  0  0  0
 28 29  1  0  0  0  0
 30 31  1  6  0  0  0
 30 32  1  0  0  0  0
 30 33  1  0  0  0  0
 33 34  1  0  0  0  0
M  CHG  4   4   1  15   1  18   1  28   1
M  END
>  <CHROM.1>
175.17394424,36.97157737,-60.09137702,-168.09492922,-57.48704165,45.55252762
63.21221908,-173.70672024,164.74268245,61.77230099,108.76802483,-148.52439005
99.01636531,34.28042429,-57.80409485,-12.47357720,7.01256052,18.42268070
-0.24028832,-1.01618185,0.15128075

>  <Name>
1mwl

>  <RI>
0

>  <Rbt.Current_Directory>
/home/itssahil/PROJECTS/Mol_Feturizer/New_Systems/rnas/1mwl

>  <Rbt.Executable>
rbdock ($Id: //depot/dev/client3/rdock/2013.1/src/exe/rbdock.cxx#4 $)

>  <Rbt.Library>
libRbt.so (2013.1, Build901 2013/11/27)

>  <Rbt.Parameter_File>
/export/apps/rDock/src/rDock_2013.1_src/data/scripts/dock_solv.prm

>  <Rbt.Receptor>
prm/pocket_docking_6.prm

>  <SCORE>
-65.4097

>  <SCORE.INTER>
-48.7536

>  <SCORE.INTER.CONST>
1

>  <SCORE.INTER.POLAR>
-8.3336

>  <SCORE.INTER.ROT>
6

>  <SCORE.INTER.SOLV>
23.0588

>  <SCORE.INTER.VDW>
-20.01

>  <SCORE.INTER.norm>
-1.43393

>  <SCORE.INTRA>
-16.815

>  <SCORE.INTRA.DIHEDRAL>
-20.2831

>  <SCORE.INTRA.DIHEDRAL.0>
42.0816

>  <SCORE.INTRA.POLAR>
-0.789579

>  <SCORE.INTRA.POLAR.0>
-0.254682

>  <SCORE.INTRA.REPUL>
0

>  <SCORE.INTRA.REPUL.0>
0

>  <SCORE.INTRA.SOLV>
0.207985

>  <SCORE.INTRA.SOLV.lig_0>
-109.803

>  <SCORE.INTRA.VDW>
-4.09283

>  <SCORE.INTRA.VDW.0>
0.32176

>  <SCORE.INTRA.norm>
-0.494558

>  <SCORE.RESTR>
0.15881

>  <SCORE.RESTR.CAVITY>
0.15881

>  <SCORE.RESTR.norm>
0.00467087

>  <SCORE.SYSTEM>
0

>  <SCORE.SYSTEM.CONST>
0

>  <SCORE.SYSTEM.DIHEDRAL>
0

>  <SCORE.SYSTEM.SOLV>
0

>  <SCORE.SYSTEM.norm>
0

>  <SCORE.heavy>
34

>  <SCORE.norm>
-1.92382

>  <RMSD>
3.398

$$$$
1mwl
 OpenBabel11021811403D
libRbt.so/2013.1/901 2013/11/27
 34 36  0  0  0  0  0  0  0  0999 V2000
  -10.4700    7.7344   21.1337 C   0  0  2  0  0  0  0  0  0  0  0  0
  -10.1983    8.4364   19.9581 O   0  0  0  0  0  0  0  0  0  0  0  0
   -9.1272    7.1364   21.6396 C   0  0  2  0  0  0  0  0  0  0  0  0
   -8.1541    8.2073   21.8755 N   0  3  0  0  0  0  0  0  0  0  0  0
   -8.5817    6.0825   20.6319 C   0  0  1  0  0  0  0  0  0  0  0  0
   -7.4227    5.5375   21.0790 O   0  0  0  0  0  0  0  0  0  0  0  0
   -9.6716    4.9796   20.4245 C   0  0  2  0  0  0  0  0  0  0  0  0
   -9.1946    3.9783   19.5014 O   0  0  0  0  0  0  0  0  0  0  0  0
  -10.9745    5.6677   19.8927 C   0  0  2  0  0  0  0  0  0  0  0  0
  -11.4408    6.6944   20.8507 O   0  0  0  0  0  0  0  0  0  0  0  0
  -12.1521    4.7144   19.6597 C   0  0  2  0  0  0  0  0  0  0  0  0
  -11.8443    3.8329   18.6294 O   0  0  0  0  0  0  0  0  0  0  0  0
  -13.4506    5.4287   19.2425 C   0  0  0  0  0  0  0  0  0  0  0  0
  -14.1115    9.4945   18.6066 C   0  0  2  0  0  0  0  0  0  0  0  0
  -15.2042   10.1425   17.8374 N   0  3  0  0  0  0  0  0  0  0  0  0
  -13.2943   10.5552   19.4022 C   0  0  0  0  0  0  0  0  0  0  0  0
  -12.1296    9.8618   20.1978 C   0  0  2  0  0  0  0  0  0  0  0  0
  -11.3632   10.9114   20.9644 N   0  3  0  0  0  0  0  0  0  0  0  0
  -11.2070    9.0866   19.1956 C   0  0  2  0  0  0  0  0  0  0  0  0
  -12.0453    8.0357   18.4276 C   0  0  2  0  0  0  0  0  0  0  0  0
  -11.2143    7.3701   17.5076 O   0  0  0  0  0  0  0  0  0  0  0  0
  -13.1805    8.7378   17.6354 C   0  0  1  0  0  0  0  0  0  0  0  0
  -13.9337    7.7567   16.9378 O   0  0  0  0  0  0  0  0  0  0  0  0
  -14.7605    8.1683   15.8844 C   0  0  2  0  0  0  0  0  0  0  0  0
  -15.6381    6.9657   15.4889 C   0  0  2  0  0  0  0  0  0  0  0  0
  -16.4319    6.5922   16.5947 O   0  0  0  0  0  0  0  0  0  0  0  0
  -14.7145    5.7819   15.0410 C   0  0  1  0  0  0  0  0  0  0  0  0
  -15.4849    4.5698   14.6703 N   0  3  0  0  0  0  0  0  0  0  0  0
  -15.8291    3.7748   15.8767 C   0  0  0  0  0  0  0  0  0  0  0  0
  -13.8328    6.2462   13.8309 C   0  0  2  0  0  0  0  0  0  0  0  0
  -14.6764    6.6316   12.7295 O   0  0  0  0  0  0  0  0  0  0  0  0
  -12.9532    5.1916   13.3604 C   0  0  0  0  0  0  0  0  0  0  0  0
  -13.0175    7.5180   14.2196 C   0  0  0  0  0  0  0  0  0  0  0  0
  -13.9285    8.5877   14.7436 O   0  0  0  0  0  0  0  0  0  0  0  0
  1  2  1  6  0  0  0
  1  3  1  0  0  0  0
  1 10  1  0  0  0  0
  3  4  1  6  0  0  0
  3  5  1  0  0  0  0
  5  6  1  1  0  0  0
  5  7  1  0  0  0  0
  7  8  1  6  0  0  0
  7  9  1  0  0  0  0
  9 10  1  1  0  0  0
  9 11  1  0  0  0  0
 11 12  1  6  0  0  0
 11 13  1  0  0  0  0
 14 15  1  6  0  0  0
 14 16  1  0  0  0  0
 14 22  1  0  0  0  0
 16 17  1  0  0  0  0
 17 18  1  6  0  0  0
 17 19  1  0  0  0  0
 19  2  1  1  0  0  0
 19 20  1  0  0  0  0
 20 21  1  6  0  0  0
 20 22  1  0  0  0  0
 22 23  1  1  0  0  0
 24 23  1  1  0  0  0
 24 25  1  0  0  0  0
 24 34  1  0  0  0  0
 25 26  1  1  0  0  0
 25 27  1  0  0  0  0
 27 28  1  6  0  0  0
 27 30  1  0  0  0  0
 28 29  1  0  0  0  0
 30 31  1  6  0  0  0
 30 32  1  0  0  0  0
 30 33  1  0  0  0  0
 33 34  1  0  0  0  0
M  CHG  4   4   1  15   1  18   1  28   1
M  END
>  <CHROM.1>
178.19554907,44.81700852,-150.16720214,61.79658637,65.05149766,-65.73695711
49.65771922,-41.35501014,-17.22408063,51.33640321,77.17532885,-169.78857220
63.20925967,36.65640757,-177.34187597,-12.38557947,7.05566211,18.04657045
0.40212054,-0.77581230,0.45051577

>  <Name>
1mwl

>  <RI>
0

>  <Rbt.Current_Directory>
/home/itssahil/PROJECTS/Mol_Feturizer/New_Systems/rnas/1mwl

>  <Rbt.Executable>
rbdock ($Id: //depot/dev/client3/rdock/2013.1/src/exe/rbdock.cxx#4 $)

>  <Rbt.Library>
libRbt.so (2013.1, Build901 2013/11/27)

>  <Rbt.Parameter_File>
/export/apps/rDock/src/rDock_2013.1_src/data/scripts/dock_solv.prm

>  <Rbt.Receptor>
prm/pocket_docking_4.prm

>  <SCORE>
-55.124

>  <SCORE.INTER>
-37.4622

>  <SCORE.INTER.CONST>
1

>  <SCORE.INTER.POLAR>
-6.01997

>  <SCORE.INTER.ROT>
6

>  <SCORE.INTER.SOLV>
22.1711

>  <SCORE.INTER.VDW>
-19.8986

>  <SCORE.INTER.norm>
-1.10183

>  <SCORE.INTRA>
-17.6618

>  <SCORE.INTRA.DIHEDRAL>
-31.135

>  <SCORE.INTRA.DIHEDRAL.0>
42.0816

>  <SCORE.INTRA.POLAR>
-0.60881

>  <SCORE.INTRA.POLAR.0>
-0.254682

>  <SCORE.INTRA.REPUL>
0.00978814

>  <SCORE.INTRA.REPUL.0>
0

>  <SCORE.INTRA.SOLV>
0.191075

>  <SCORE.INTRA.SOLV.lig_0>
-109.803

>  <SCORE.INTRA.VDW>
-0.16883

>  <SCORE.INTRA.VDW.0>
0.32176

>  <SCORE.INTRA.norm>
-0.519464

>  <SCORE.RESTR>
0

>  <SCORE.RESTR.CAVITY>
0

>  <SCORE.RESTR.norm>
0

>  <SCORE.SYSTEM>
0

>  <SCORE.SYSTEM.CONST>
0

>  <SCORE.SYSTEM.DIHEDRAL>
0

>  <SCORE.SYSTEM.SOLV>
0

>  <SCORE.SYSTEM.norm>
0

>  <SCORE.heavy>
34

>  <SCORE.norm>
-1.62129

>  <RMSD>
3.422

$$$$
1mwl
 OpenBabel11021811403D
libRbt.so/2013.1/901 2013/11/27
 34 36  0  0  0  0  0  0  0  0999 V2000
  -11.4886    5.8446   20.8100 C   0  0  2  0  0  0  0  0  0  0  0  0
  -10.6162    6.8305   20.3458 O   0  0  0  0  0  0  0  0  0  0  0  0
  -10.6421    4.8105   21.6043 C   0  0  2  0  0  0  0  0  0  0  0  0
   -9.9501    5.4708   22.7154 N   0  3  0  0  0  0  0  0  0  0  0  0
   -9.6403    4.0817   20.6615 C   0  0  1  0  0  0  0  0  0  0  0  0
   -8.9155    3.1593   21.3427 O   0  0  0  0  0  0  0  0  0  0  0  0
  -10.4459    3.4097   19.5010 C   0  0  2  0  0  0  0  0  0  0  0  0
   -9.5474    2.7148   18.6109 O   0  0  0  0  0  0  0  0  0  0  0  0
  -11.2444    4.5252   18.7447 C   0  0  2  0  0  0  0  0  0  0  0  0
  -12.1529    5.2284   19.6773 O   0  0  0  0  0  0  0  0  0  0  0  0
  -12.1089    4.0184   17.5847 C   0  0  2  0  0  0  0  0  0  0  0  0
  -12.9050    2.9646   18.0194 O   0  0  0  0  0  0  0  0  0  0  0  0
  -11.2917    3.4796   16.3963 C   0  0  0  0  0  0  0  0  0  0  0  0
  -13.2876   10.0298   19.4036 C   0  0  2  0  0  0  0  0  0  0  0  0
  -13.8083   11.3125   18.8661 N   0  3  0  0  0  0  0  0  0  0  0  0
  -12.1717   10.2875   20.4592 C   0  0  0  0  0  0  0  0  0  0  0  0
  -11.6149    8.9241   21.0080 C   0  0  2  0  0  0  0  0  0  0  0  0
  -10.5443    9.2059   22.0333 N   0  3  0  0  0  0  0  0  0  0  0  0
  -11.0643    8.0708   19.8143 C   0  0  2  0  0  0  0  0  0  0  0  0
  -12.1974    7.8248   18.7883 C   0  0  2  0  0  0  0  0  0  0  0  0
  -11.6831    7.0875   17.7057 O   0  0  0  0  0  0  0  0  0  0  0  0
  -12.7250    9.1796   18.2447 C   0  0  1  0  0  0  0  0  0  0  0  0
  -13.7600    8.9301   17.3051 O   0  0  0  0  0  0  0  0  0  0  0  0
  -13.6021    9.3943   15.9927 C   0  0  2  0  0  0  0  0  0  0  0  0
  -14.9808    9.3251   15.3091 C   0  0  2  0  0  0  0  0  0  0  0  0
  -15.8803   10.1635   16.0022 O   0  0  0  0  0  0  0  0  0  0  0  0
  -15.4836    7.8411   15.3173 C   0  0  1  0  0  0  0  0  0  0  0  0
  -16.8244    7.6928   14.7007 N   0  3  0  0  0  0  0  0  0  0  0  0
  -17.8943    7.9751   15.6916 C   0  0  0  0  0  0  0  0  0  0  0  0
  -14.4452    6.9415   14.5627 C   0  0  2  0  0  0  0  0  0  0  0  0
  -14.3090    7.3880   13.2005 O   0  0  0  0  0  0  0  0  0  0  0  0
  -14.8532    5.5488   14.5281 C   0  0  0  0  0  0  0  0  0  0  0  0
  -13.0350    7.0917   15.2122 C   0  0  0  0  0  0  0  0  0  0  0  0
  -12.6385    8.5363   15.2821 O   0  0  0  0  0  0  0  0  0  0  0  0
  1  2  1  6  0  0  0
  1  3  1  0  0  0  0
  1 10  1  0  0  0  0
  3  4  1  1  0  0  0
  3  5  1  0  0  0  0
  5  6  1  1  0  0  0
  5  7  1  0  0  0  0
  7  8  1  6  0  0  0
  7  9  1  0  0  0  0
  9 10  1  1  0  0  0
  9 11  1  0  0  0  0
 11 12  1  1  0  0  0
 11 13  1  0  0  0  0
 14 15  1  6  0  0  0
 14 16  1  0  0  0  0
 14 22  1  0  0  0  0
 16 17  1  0  0  0  0
 17 18  1  1  0  0  0
 17 19  1  0  0  0  0
 19  2  1  1  0  0  0
 19 20  1  0  0  0  0
 20 21  1  6  0  0  0
 20 22  1  0  0  0  0
 22 23  1  6  0  0  0
 24 23  1  1  0  0  0
 24 25  1  0  0  0  0
 24 34  1  0  0  0  0
 25 26  1  1  0  0  0
 25 27  1  0  0  0  0
 27 28  1  6  0  0  0
 27 30  1  0  0  0  0
 28 29  1  0  0  0  0
 30 31  1  6  0  0  0
 30 32  1  0  0  0  0
 30 33  1  0  0  0  0
 33 34  1  0  0  0  0
M  CHG  4   4   1  15   1  18   1  28   1
M  END
>  <CHROM.1>
-166.91712588,71.66530586,168.14578247,-63.14339824,50.39896170,50.92310526
176.74937607,-51.42824284,52.71408603,-57.15746514,119.22207632,-165.39303319
81.35722368,35.39066880,69.04569522,-12.57056317,6.91207464,18.10150914,-0.07003059
-0.91778133,0.51886522

>  <Name>
1mwl

>  <RI>
0

>  <Rbt.Current_Directory>
/home/itssahil/PROJECTS/Mol_Feturizer/New_Systems/rnas/1mwl

>  <Rbt.Executable>
rbdock ($Id: //depot/dev/client3/rdock/2013.1/src/exe/rbdock.cxx#4 $)

>  <Rbt.Library>
libRbt.so (2013.1, Build901 2013/11/27)

>  <Rbt.Parameter_File>
/export/apps/rDock/src/rDock_2013.1_src/data/scripts/dock_solv.prm

>  <Rbt.Receptor>
prm/pocket_docking_4.prm

>  <SCORE>
-67.1193

>  <SCORE.INTER>
-52.1503

>  <SCORE.INTER.CONST>
1

>  <SCORE.INTER.POLAR>
-8.93683

>  <SCORE.INTER.ROT>
6

>  <SCORE.INTER.SOLV>
23.6746

>  <SCORE.INTER.VDW>
-20.469

>  <SCORE.INTER.norm>
-1.53383

>  <SCORE.INTRA>
-14.969

>  <SCORE.INTRA.DIHEDRAL>
-27.0082

>  <SCORE.INTRA.DIHEDRAL.0>
42.0816

>  <SCORE.INTRA.POLAR>
0.24089

>  <SCORE.INTRA.POLAR.0>
-0.254682

>  <SCORE.INTRA.REPUL>
0

>  <SCORE.INTRA.REPUL.0>
0

>  <SCORE.INTRA.SOLV>
0.667752

>  <SCORE.INTRA.SOLV.lig_0>
-109.803

>  <SCORE.INTRA.VDW>
-2.61782

>  <SCORE.INTRA.VDW.0>
0.32176

>  <SCORE.INTRA.norm>
-0.440266

>  <SCORE.RESTR>
0

>  <SCORE.RESTR.CAVITY>
0

>  <SCORE.RESTR.norm>
0

>  <SCORE.SYSTEM>
0

>  <SCORE.SYSTEM.CONST>
0

>  <SCORE.SYSTEM.DIHEDRAL>
0

>  <SCORE.SYSTEM.SOLV>
0

>  <SCORE.SYSTEM.norm>
0

>  <SCORE.heavy>
34

>  <SCORE.norm>
-1.9741

>  <RMSD>
3.428

$$$$
1mwl
 OpenBabel11021811403D
libRbt.so/2013.1/901 2013/11/27
 34 36  0  0  0  0  0  0  0  0999 V2000
  -10.7424    6.9031   21.5258 C   0  0  2  0  0  0  0  0  0  0  0  0
  -10.6621    8.1432   20.8899 O   0  0  0  0  0  0  0  0  0  0  0  0
   -9.3172    6.2820   21.5161 C   0  0  2  0  0  0  0  0  0  0  0  0
   -8.3745    7.1696   22.2039 N   0  3  0  0  0  0  0  0  0  0  0  0
   -8.8588    5.9832   20.0587 C   0  0  1  0  0  0  0  0  0  0  0  0
   -7.6261    5.4173   20.0436 O   0  0  0  0  0  0  0  0  0  0  0  0
   -9.9119    5.0407   19.3877 C   0  0  2  0  0  0  0  0  0  0  0  0
   -9.5128    4.7342   18.0353 O   0  0  0  0  0  0  0  0  0  0  0  0
  -11.3053    5.7558   19.4204 C   0  0  2  0  0  0  0  0  0  0  0  0
  -11.6905    6.0667   20.8148 O   0  0  0  0  0  0  0  0  0  0  0  0
  -12.4558    4.9432   18.8155 C   0  0  2  0  0  0  0  0  0  0  0  0
  -12.1995    4.6976   17.4712 O   0  0  0  0  0  0  0  0  0  0  0  0
  -13.8153    5.6637   18.8706 C   0  0  0  0  0  0  0  0  0  0  0  0
  -14.7318    8.9908   19.9007 C   0  0  2  0  0  0  0  0  0  0  0  0
  -15.9596    9.7367   19.5242 N   0  3  0  0  0  0  0  0  0  0  0  0
  -14.1899    9.4806   21.2763 C   0  0  0  0  0  0  0  0  0  0  0  0
  -12.8809    8.6983   21.6566 C   0  0  2  0  0  0  0  0  0  0  0  0
  -12.3859    9.1871   22.9955 N   0  3  0  0  0  0  0  0  0  0  0  0
  -11.8089    8.9037   20.5319 C   0  0  2  0  0  0  0  0  0  0  0  0
  -12.3734    8.4001   19.1810 C   0  0  2  0  0  0  0  0  0  0  0  0
  -11.4160    8.6208   18.1736 O   0  0  0  0  0  0  0  0  0  0  0  0
  -13.6558    9.1931   18.8126 C   0  0  1  0  0  0  0  0  0  0  0  0
  -14.1540    8.7170   17.5709 O   0  0  0  0  0  0  0  0  0  0  0  0
  -14.0125    9.5259   16.4359 C   0  0  2  0  0  0  0  0  0  0  0  0
  -15.3351    9.4539   15.6495 C   0  0  2  0  0  0  0  0  0  0  0  0
  -16.3789    9.9527   16.4584 O   0  0  0  0  0  0  0  0  0  0  0  0
  -15.6090    7.9661   15.2414 C   0  0  1  0  0  0  0  0  0  0  0  0
  -16.8852    7.8060   14.5026 N   0  3  0  0  0  0  0  0  0  0  0  0
  -18.0308    7.7140   15.4434 C   0  0  0  0  0  0  0  0  0  0  0  0
  -14.4164    7.4438   14.3687 C   0  0  2  0  0  0  0  0  0  0  0  0
  -14.2916    8.2458   13.1793 O   0  0  0  0  0  0  0  0  0  0  0  0
  -14.6086    6.0671   13.9501 C   0  0  0  0  0  0  0  0  0  0  0  0
  -13.0734    7.6063   15.1453 C   0  0  0  0  0  0  0  0  0  0  0  0
  -12.9019    9.0217   15.6102 O   0  0  0  0  0  0  0  0  0  0  0  0
  1  2  1  6  0  0  0
  1  3  1  0  0  0  0
  1 10  1  0  0  0  0
  3  4  1  6  0  0  0
  3  5  1  0  0  0  0
  5  6  1  1  0  0  0
  5  7  1  0  0  0  0
  7  8  1  6  0  0  0
  7  9  1  0  0  0  0
  9 10  1  1  0  0  0
  9 11  1  0  0  0  0
 11 12  1  6  0  0  0
 11 13  1  0  0  0  0
 14 15  1  6  0  0  0
 14 16  1  0  0  0  0
 14 22  1  0  0  0  0
 16 17  1  0  0  0  0
 17 18  1  1  0  0  0
 17 19  1  0  0  0  0
 19  2  1  1  0  0  0
 19 20  1  0  0  0  0
 20 21  1  6  0  0  0
 20 22  1  0  0  0  0
 22 23  1  6  0  0  0
 24 23  1  1  0  0  0
 24 25  1  0  0  0  0
 24 34  1  0  0  0  0
 25 26  1  1  0  0  0
 25 27  1  0  0  0  0
 27 28  1  6  0  0  0
 27 30  1  0  0  0  0
 28 29  1  0  0  0  0
 30 31  1  6  0  0  0
 30 32  1  0  0  0  0
 30 33  1  0  0  0  0
 33 34  1  0  0  0  0
M  CHG  4   4   1  15   1  18   1  28   1
M  END
>  <CHROM.1>
170.01332744,36.17611203,-37.41752598,177.67676884,-161.98103764,-61.72438580
173.65024774,170.72497047,174.20319976,58.33053017,132.49086043,-137.72752095
67.79055970,37.12210226,63.24872912,-12.79981971,7.57696486,18.35693793,0.57084974
-0.61108759,1.13208237

>  <Name>
1mwl

>  <RI>
0

>  <Rbt.Current_Directory>
/home/itssahil/PROJECTS/Mol_Feturizer/New_Systems/rnas/1mwl

>  <Rbt.Executable>
rbdock ($Id: //depot/dev/client3/rdock/2013.1/src/exe/rbdock.cxx#4 $)

>  <Rbt.Library>
libRbt.so (2013.1, Build901 2013/11/27)

>  <Rbt.Parameter_File>
/export/apps/rDock/src/rDock_2013.1_src/data/scripts/dock_solv.prm

>  <Rbt.Receptor>
prm/pocket_docking_4.prm

>  <SCORE>
-48.1836

>  <SCORE.INTER>
-28.6212

>  <SCORE.INTER.CONST>
1

>  <SCORE.INTER.POLAR>
-4.70801

>  <SCORE.INTER.ROT>
6

>  <SCORE.INTER.SOLV>
22.9998

>  <SCORE.INTER.VDW>
-18.654

>  <SCORE.INTER.norm>
-0.841799

>  <SCORE.INTRA>
-19.5624

>  <SCORE.INTRA.DIHEDRAL>
-22.1849

>  <SCORE.INTRA.DIHEDRAL.0>
42.0816

>  <SCORE.INTRA.POLAR>
-1.69973

>  <SCORE.INTRA.POLAR.0>
-0.254682

>  <SCORE.INTRA.REPUL>
0

>  <SCORE.INTRA.REPUL.0>
0

>  <SCORE.INTRA.SOLV>
0.0724743

>  <SCORE.INTRA.SOLV.lig_0>
-109.803

>  <SCORE.INTRA.VDW>
-2.72708

>  <SCORE.INTRA.VDW.0>
0.32176

>  <SCORE.INTRA.norm>
-0.575365

>  <SCORE.RESTR>
0

>  <SCORE.RESTR.CAVITY>
0

>  <SCORE.RESTR.norm>
0

>  <SCORE.SYSTEM>
0

>  <SCORE.SYSTEM.CONST>
0

>  <SCORE.SYSTEM.DIHEDRAL>
0

>  <SCORE.SYSTEM.SOLV>
0

>  <SCORE.SYSTEM.norm>
0

>  <SCORE.heavy>
34

>  <SCORE.norm>
-1.41716

>  <RMSD>
3.437

$$$$
1mwl
 OpenBabel11021811403D
libRbt.so/2013.1/901 2013/11/27
 34 36  0  0  0  0  0  0  0  0999 V2000
  -10.5493    7.6939   21.2815 C   0  0  2  0  0  0  0  0  0  0  0  0
  -10.1789    8.3697   20.1176 O   0  0  0  0  0  0  0  0  0  0  0  0
   -9.2449    7.3432   22.0511 C   0  0  2  0  0  0  0  0  0  0  0  0
   -8.4983    8.5657   22.3636 N   0  3  0  0  0  0  0  0  0  0  0  0
   -8.3790    6.3397   21.2345 C   0  0  1  0  0  0  0  0  0  0  0  0
   -7.2508    6.0090   21.9112 O   0  0  0  0  0  0  0  0  0  0  0  0
   -9.2396    5.0685   20.9328 C   0  0  2  0  0  0  0  0  0  0  0  0
   -8.4632    4.1103   20.1836 O   0  0  0  0  0  0  0  0  0  0  0  0
  -10.5138    5.5131   20.1375 C   0  0  2  0  0  0  0  0  0  0  0  0
  -11.2898    6.5000   20.9207 O   0  0  0  0  0  0  0  0  0  0  0  0
  -11.4772    4.3743   19.7843 C   0  0  2  0  0  0  0  0  0  0  0  0
  -12.6429    4.8995   19.2377 O   0  0  0  0  0  0  0  0  0  0  0  0
  -11.9112    3.5344   20.9995 C   0  0  0  0  0  0  0  0  0  0  0  0
  -13.9499    8.9832   18.2037 C   0  0  2  0  0  0  0  0  0  0  0  0
  -14.9770    9.4694   17.2476 N   0  3  0  0  0  0  0  0  0  0  0  0
  -13.3168   10.1731   18.9842 C   0  0  0  0  0  0  0  0  0  0  0  0
  -12.2188    9.6499   19.9795 C   0  0  2  0  0  0  0  0  0  0  0  0
  -11.6315   10.8222   20.7262 N   0  3  0  0  0  0  0  0  0  0  0  0
  -11.1239    8.8656   19.1780 C   0  0  2  0  0  0  0  0  0  0  0  0
  -11.7821    7.6860   18.4214 C   0  0  2  0  0  0  0  0  0  0  0  0
  -10.7959    7.0105   17.6790 O   0  0  0  0  0  0  0  0  0  0  0  0
  -12.8520    8.2206   17.4320 C   0  0  1  0  0  0  0  0  0  0  0  0
  -13.4399    7.1236   16.7484 O   0  0  0  0  0  0  0  0  0  0  0  0
  -13.2733    7.0297   15.3605 C   0  0  2  0  0  0  0  0  0  0  0  0
  -14.5242    6.3342   14.7911 C   0  0  2  0  0  0  0  0  0  0  0  0
  -15.6596    7.1220   15.0788 O   0  0  0  0  0  0  0  0  0  0  0  0
  -14.6566    4.9109   15.4327 C   0  0  1  0  0  0  0  0  0  0  0  0
  -15.8584    4.1834   14.9569 N   0  3  0  0  0  0  0  0  0  0  0  0
  -16.6936    3.7395   16.1020 C   0  0  0  0  0  0  0  0  0  0  0  0
  -13.3666    4.0799   15.1128 C   0  0  2  0  0  0  0  0  0  0  0  0
  -13.2121    3.9444   13.6876 O   0  0  0  0  0  0  0  0  0  0  0  0
  -13.4252    2.7431   15.6758 C   0  0  0  0  0  0  0  0  0  0  0  0
  -12.1013    4.8403   15.6168 C   0  0  0  0  0  0  0  0  0  0  0  0
  -12.0697    6.2340   15.0641 O   0  0  0  0  0  0  0  0  0  0  0  0
  1  2  1  6  0  0  0
  1  3  1  0  0  0  0
  1 10  1  0  0  0  0
  3  4  1  6  0  0  0
  3  5  1  0  0  0  0
  5  6  1  1  0  0  0
  5  7  1  0  0  0  0
  7  8  1  6  0  0  0
  7  9  1  0  0  0  0
  9 10  1  1  0  0  0
  9 11  1  0  0  0  0
 11 12  1  1  0  0  0
 11 13  1  0  0  0  0
 14 15  1  6  0  0  0
 14 16  1  0  0  0  0
 14 22  1  0  0  0  0
 16 17  1  0  0  0  0
 17 18  1  6  0  0  0
 17 19  1  0  0  0  0
 19  2  1  1  0  0  0
 19 20  1  0  0  0  0
 20 21  1  6  0  0  0
 20 22  1  0  0  0  0
 22 23  1  1  0  0  0
 24 23  1  1  0  0  0
 24 25  1  0  0  0  0
 24 34  1  0  0  0  0
 25 26  1  1  0  0  0
 25 27  1  0  0  0  0
 27 28  1  6  0  0  0
 27 30  1  0  0  0  0
 28 29  1  0  0  0  0
 30 31  1  6  0  0  0
 30 32  1  0  0  0  0
 30 33  1  0  0  0  0
 33 34  1  0  0  0  0
M  CHG  4   4   1  15   1  18   1  28   1
M  END
>  <CHROM.1>
-178.84804009,48.25105592,-38.33251496,-174.68612972,-59.54259984,172.40430715
-44.56699987,169.03328012,117.02693170,-57.97891174,123.35092183,-149.21467830
169.85585004,-5.28597240,58.29313389,-12.06900460,6.51802514,18.30322341
0.50765857,-0.77500628,0.35980160

>  <Name>
1mwl

>  <RI>
0

>  <Rbt.Current_Directory>
/home/itssahil/PROJECTS/Mol_Feturizer/New_Systems/rnas/1mwl

>  <Rbt.Executable>
rbdock ($Id: //depot/dev/client3/rdock/2013.1/src/exe/rbdock.cxx#4 $)

>  <Rbt.Library>
libRbt.so (2013.1, Build901 2013/11/27)

>  <Rbt.Parameter_File>
/export/apps/rDock/src/rDock_2013.1_src/data/scripts/dock_solv.prm

>  <Rbt.Receptor>
prm/pocket_docking_4.prm

>  <SCORE>
-44.7756

>  <SCORE.INTER>
-28.7739

>  <SCORE.INTER.CONST>
1

>  <SCORE.INTER.POLAR>
-5.14341

>  <SCORE.INTER.ROT>
6

>  <SCORE.INTER.SOLV>
19.1103

>  <SCORE.INTER.VDW>
-16.0081

>  <SCORE.INTER.norm>
-0.846293

>  <SCORE.INTRA>
-16.0037

>  <SCORE.INTRA.DIHEDRAL>
-20.0629

>  <SCORE.INTRA.DIHEDRAL.0>
42.0816

>  <SCORE.INTRA.POLAR>
-0.905113

>  <SCORE.INTRA.POLAR.0>
-0.254682

>  <SCORE.INTRA.REPUL>
0.0727821

>  <SCORE.INTRA.REPUL.0>
0

>  <SCORE.INTRA.SOLV>
0.565449

>  <SCORE.INTRA.SOLV.lig_0>
-109.803

>  <SCORE.INTRA.VDW>
-3.54151

>  <SCORE.INTRA.VDW.0>
0.32176

>  <SCORE.INTRA.norm>
-0.470697

>  <SCORE.RESTR>
0.00204431

>  <SCORE.RESTR.CAVITY>
0.00204431

>  <SCORE.RESTR.norm>
6.01268e-05

>  <SCORE.SYSTEM>
0

>  <SCORE.SYSTEM.CONST>
0

>  <SCORE.SYSTEM.DIHEDRAL>
0

>  <SCORE.SYSTEM.SOLV>
0

>  <SCORE.SYSTEM.norm>
0

>  <SCORE.heavy>
34

>  <SCORE.norm>
-1.31693

>  <RMSD>
3.441

$$$$
1mwl
 OpenBabel11021811403D
libRbt.so/2013.1/901 2013/11/27
 34 36  0  0  0  0  0  0  0  0999 V2000
  -10.8015    7.8337   21.1491 C   0  0  2  0  0  0  0  0  0  0  0  0
  -10.5081    8.5811   20.0072 O   0  0  0  0  0  0  0  0  0  0  0  0
   -9.4514    7.3442   21.7446 C   0  0  2  0  0  0  0  0  0  0  0  0
   -8.5964    8.4905   22.0675 N   0  3  0  0  0  0  0  0  0  0  0  0
   -8.7433    6.3631   20.7650 C   0  0  1  0  0  0  0  0  0  0  0  0
   -7.5763    5.9117   21.2889 O   0  0  0  0  0  0  0  0  0  0  0  0
   -9.7136    5.1742   20.4613 C   0  0  2  0  0  0  0  0  0  0  0  0
   -9.0844    4.2377   19.5617 O   0  0  0  0  0  0  0  0  0  0  0  0
  -11.0301    5.7574   19.8443 C   0  0  2  0  0  0  0  0  0  0  0  0
  -11.6536    6.7194   20.7798 O   0  0  0  0  0  0  0  0  0  0  0  0
  -12.0989    4.7104   19.5108 C   0  0  2  0  0  0  0  0  0  0  0  0
  -13.2895    5.3463   19.1772 O   0  0  0  0  0  0  0  0  0  0  0  0
  -12.4271    3.7688   20.6839 C   0  0  0  0  0  0  0  0  0  0  0  0
  -14.3481   10.1321   18.9547 C   0  0  2  0  0  0  0  0  0  0  0  0
  -15.4064   10.9134   18.2653 N   0  3  0  0  0  0  0  0  0  0  0  0
  -13.3400   11.0809   19.6685 C   0  0  0  0  0  0  0  0  0  0  0  0
  -12.2144   10.2453   20.3790 C   0  0  2  0  0  0  0  0  0  0  0  0
  -11.2603   11.1895   21.0681 N   0  3  0  0  0  0  0  0  0  0  0  0
  -11.4826    9.3538   19.3179 C   0  0  2  0  0  0  0  0  0  0  0  0
  -12.5081    8.4175   18.6332 C   0  0  2  0  0  0  0  0  0  0  0  0
  -11.8460    7.6468   17.6596 O   0  0  0  0  0  0  0  0  0  0  0  0
  -13.6032    9.2579   17.9235 C   0  0  1  0  0  0  0  0  0  0  0  0
  -14.5299    8.3801   17.3012 O   0  0  0  0  0  0  0  0  0  0  0  0
  -14.4219    8.1570   15.9224 C   0  0  2  0  0  0  0  0  0  0  0  0
  -15.8154    7.7457   15.4105 C   0  0  2  0  0  0  0  0  0  0  0  0
  -16.7228    8.8003   15.6492 O   0  0  0  0  0  0  0  0  0  0  0  0
  -16.2697    6.4417   16.1509 C   0  0  1  0  0  0  0  0  0  0  0  0
  -17.6209    5.9939   15.7343 N   0  3  0  0  0  0  0  0  0  0  0  0
  -18.2710    5.2065   16.8128 C   0  0  0  0  0  0  0  0  0  0  0  0
  -15.2232    5.3060   15.8823 C   0  0  2  0  0  0  0  0  0  0  0  0
  -15.1377    5.0429   14.4691 O   0  0  0  0  0  0  0  0  0  0  0  0
  -15.5869    4.0628   16.5377 C   0  0  0  0  0  0  0  0  0  0  0  0
  -13.8018    5.7723   16.3242 C   0  0  0  0  0  0  0  0  0  0  0  0
  -13.4505    7.0778   15.6752 O   0  0  0  0  0  0  0  0  0  0  0  0
  1  2  1  6  0  0  0
  1  3  1  0  0  0  0
  1 10  1  0  0  0  0
  3  4  1  6  0  0  0
  3  5  1  0  0  0  0
  5  6  1  1  0  0  0
  5  7  1  0  0  0  0
  7  8  1  6  0  0  0
  7  9  1  0  0  0  0
  9 10  1  1  0  0  0
  9 11  1  0  0  0  0
 11 12  1  1  0  0  0
 11 13  1  0  0  0  0
 14 15  1  6  0  0  0
 14 16  1  0  0  0  0
 14 22  1  0  0  0  0
 16 17  1  0  0  0  0
 17 18  1  6  0  0  0
 17 19  1  0  0  0  0
 19  2  1  1  0  0  0
 19 20  1  0  0  0  0
 20 21  1  6  0  0  0
 20 22  1  0  0  0  0
 22 23  1  1  0  0  0
 24 23  1  1  0  0  0
 24 25  1  0  0  0  0
 24 34  1  0  0  0  0
 25 26  1  1  0  0  0
 25 27  1  0  0  0  0
 27 28  1  6  0  0  0
 27 30  1  0  0  0  0
 28 29  1  0  0  0  0
 30 31  1  6  0  0  0
 30 32  1  0  0  0  0
 30 33  1  0  0  0  0
 33 34  1  0  0  0  0
M  CHG  4   4   1  15   1  18   1  28   1
M  END
>  <CHROM.1>
-170.20244805,50.34352221,-45.55534184,-170.24253699,77.66089157,170.46815384
-44.84525346,-176.21188571,93.72451984,-54.91719545,139.21424521,-154.75454658
82.85164421,-33.87337313,-44.55507716,-12.86973779,7.25084052,18.54311318
0.19477231,-0.63576428,0.22031970

>  <Name>
1mwl

>  <RI>
0

>  <Rbt.Current_Directory>
/home/itssahil/PROJECTS/Mol_Feturizer/New_Systems/rnas/1mwl

>  <Rbt.Executable>
rbdock ($Id: //depot/dev/client3/rdock/2013.1/src/exe/rbdock.cxx#4 $)

>  <Rbt.Library>
libRbt.so (2013.1, Build901 2013/11/27)

>  <Rbt.Parameter_File>
/export/apps/rDock/src/rDock_2013.1_src/data/scripts/dock_solv.prm

>  <Rbt.Receptor>
prm/pocket_docking_4.prm

>  <SCORE>
-44.8534

>  <SCORE.INTER>
-34.4561

>  <SCORE.INTER.CONST>
1

>  <SCORE.INTER.POLAR>
-6.14147

>  <SCORE.INTER.ROT>
6

>  <SCORE.INTER.SOLV>
22.6935

>  <SCORE.INTER.VDW>
-17.6636

>  <SCORE.INTER.norm>
-1.01341

>  <SCORE.INTRA>
-10.3974

>  <SCORE.INTRA.DIHEDRAL>
-21.7941

>  <SCORE.INTRA.DIHEDRAL.0>
42.0816

>  <SCORE.INTRA.POLAR>
-0.00838407

>  <SCORE.INTRA.POLAR.0>
-0.254682

>  <SCORE.INTRA.REPUL>
0.0766796

>  <SCORE.INTRA.REPUL.0>
0

>  <SCORE.INTRA.SOLV>
0.955998

>  <SCORE.INTRA.SOLV.lig_0>
-109.803

>  <SCORE.INTRA.VDW>
-0.333239

>  <SCORE.INTRA.VDW.0>
0.32176

>  <SCORE.INTRA.norm>
-0.305806

>  <SCORE.RESTR>
0

>  <SCORE.RESTR.CAVITY>
0

>  <SCORE.RESTR.norm>
0

>  <SCORE.SYSTEM>
0

>  <SCORE.SYSTEM.CONST>
0

>  <SCORE.SYSTEM.DIHEDRAL>
0

>  <SCORE.SYSTEM.SOLV>
0

>  <SCORE.SYSTEM.norm>
0

>  <SCORE.heavy>
34

>  <SCORE.norm>
-1.31922

>  <RMSD>
3.463

$$$$
1mwl
 OpenBabel11021811403D
libRbt.so/2013.1/901 2013/11/27
 34 36  0  0  0  0  0  0  0  0999 V2000
  -10.4859    7.7167   21.0519 C   0  0  2  0  0  0  0  0  0  0  0  0
  -10.1415    8.4162   19.8940 O   0  0  0  0  0  0  0  0  0  0  0  0
   -9.1817    7.0937   21.6246 C   0  0  2  0  0  0  0  0  0  0  0  0
   -8.2032    8.1466   21.9135 N   0  3  0  0  0  0  0  0  0  0  0  0
   -8.6038    6.0324   20.6432 C   0  0  1  0  0  0  0  0  0  0  0  0
   -7.4792    5.4658   21.1477 O   0  0  0  0  0  0  0  0  0  0  0  0
   -9.7009    4.9495   20.3766 C   0  0  2  0  0  0  0  0  0  0  0  0
   -9.1948    3.9418   19.4763 O   0  0  0  0  0  0  0  0  0  0  0  0
  -10.9623    5.6619   19.7805 C   0  0  2  0  0  0  0  0  0  0  0  0
  -11.4591    6.6948   20.7162 O   0  0  0  0  0  0  0  0  0  0  0  0
  -12.1430    4.7303   19.4843 C   0  0  2  0  0  0  0  0  0  0  0  0
  -12.4132    3.9470   20.6009 O   0  0  0  0  0  0  0  0  0  0  0  0
  -11.8809    3.7520   18.3247 C   0  0  0  0  0  0  0  0  0  0  0  0
  -13.9338    9.0513   18.0301 C   0  0  2  0  0  0  0  0  0  0  0  0
  -14.9812    9.5881   17.1245 N   0  3  0  0  0  0  0  0  0  0  0  0
  -13.3607   10.1790   18.9388 C   0  0  0  0  0  0  0  0  0  0  0  0
  -12.2407    9.6046   19.8799 C   0  0  2  0  0  0  0  0  0  0  0  0
  -11.7123   10.7162   20.7528 N   0  3  0  0  0  0  0  0  0  0  0  0
  -11.1074    8.9648   19.0065 C   0  0  2  0  0  0  0  0  0  0  0  0
  -11.7062    7.8436   18.1225 C   0  0  2  0  0  0  0  0  0  0  0  0
  -10.6869    7.3001   17.3189 O   0  0  0  0  0  0  0  0  0  0  0  0
  -12.7986    8.4300   17.1887 C   0  0  1  0  0  0  0  0  0  0  0  0
  -13.3313    7.3862   16.3867 O   0  0  0  0  0  0  0  0  0  0  0  0
  -13.5127    7.6175   15.0169 C   0  0  2  0  0  0  0  0  0  0  0  0
  -14.6728    6.7199   14.5464 C   0  0  2  0  0  0  0  0  0  0  0  0
  -15.8451    7.0791   15.2459 O   0  0  0  0  0  0  0  0  0  0  0  0
  -14.3023    5.2210   14.8129 C   0  0  1  0  0  0  0  0  0  0  0  0
  -15.3847    4.2891   14.4130 N   0  3  0  0  0  0  0  0  0  0  0  0
  -15.6514    3.2990   15.4875 C   0  0  0  0  0  0  0  0  0  0  0  0
  -12.9833    4.8717   14.0414 C   0  0  2  0  0  0  0  0  0  0  0  0
  -13.1760    5.0678   12.6279 O   0  0  0  0  0  0  0  0  0  0  0  0
  -12.5839    3.4904   14.2411 C   0  0  0  0  0  0  0  0  0  0  0  0
  -11.8417    5.8471   14.4638 C   0  0  0  0  0  0  0  0  0  0  0  0
  -12.2769    7.2721   14.2937 O   0  0  0  0  0  0  0  0  0  0  0  0
  1  2  1  6  0  0  0
  1  3  1  0  0  0  0
  1 10  1  0  0  0  0
  3  4  1  6  0  0  0
  3  5  1  0  0  0  0
  5  6  1  1  0  0  0
  5  7  1  0  0  0  0
  7  8  1  6  0  0  0
  7  9  1  0  0  0  0
  9 10  1  1  0  0  0
  9 11  1  0  0  0  0
 11 12  1  1  0  0  0
 11 13  1  0  0  0  0
 14 15  1  6  0  0  0
 14 16  1  0  0  0  0
 14 22  1  0  0  0  0
 16 17  1  0  0  0  0
 17 18  1  6  0  0  0
 17 19  1  0  0  0  0
 19  2  1  1  0  0  0
 19 20  1  0  0  0  0
 20 21  1  6  0  0  0
 20 22  1  0  0  0  0
 22 23  1  1  0  0  0
 24 23  1  1  0  0  0
 24 25  1  0  0  0  0
 24 34  1  0  0  0  0
 25 26  1  1  0  0  0
 25 27  1  0  0  0  0
 27 28  1  6  0  0  0
 27 30  1  0  0  0  0
 28 29  1  0  0  0  0
 30 31  1  6  0  0  0
 30 32  1  0  0  0  0
 30 33  1  0  0  0  0
 33 34  1  0  0  0  0
M  CHG  4   4   1  15   1  18   1  28   1
M  END
>  <CHROM.1>
171.31134869,41.49695741,-144.40525164,-73.36906296,60.00300605,50.35259586
61.27268764,-58.13487354,109.19466286,60.74513488,104.96857852,-152.05193109
169.38957445,-12.41110629,-60.07940106,-12.04824507,6.64737744,17.85639339
0.56518272,-0.83569213,0.47383305

>  <Name>
1mwl

>  <RI>
0

>  <Rbt.Current_Directory>
/home/itssahil/PROJECTS/Mol_Feturizer/New_Systems/rnas/1mwl

>  <Rbt.Executable>
rbdock ($Id: //depot/dev/client3/rdock/2013.1/src/exe/rbdock.cxx#4 $)

>  <Rbt.Library>
libRbt.so (2013.1, Build901 2013/11/27)

>  <Rbt.Parameter_File>
/export/apps/rDock/src/rDock_2013.1_src/data/scripts/dock_solv.prm

>  <Rbt.Receptor>
prm/pocket_docking_4.prm

>  <SCORE>
-46.8538

>  <SCORE.INTER>
-32.9243

>  <SCORE.INTER.CONST>
1

>  <SCORE.INTER.POLAR>
-5.63605

>  <SCORE.INTER.ROT>
6

>  <SCORE.INTER.SOLV>
19.6198

>  <SCORE.INTER.VDW>
-17.3026

>  <SCORE.INTER.norm>
-0.968362

>  <SCORE.INTRA>
-13.9295

>  <SCORE.INTRA.DIHEDRAL>
-20.142

>  <SCORE.INTRA.DIHEDRAL.0>
42.0816

>  <SCORE.INTRA.POLAR>
-0.732244

>  <SCORE.INTRA.POLAR.0>
-0.254682

>  <SCORE.INTRA.REPUL>
0

>  <SCORE.INTRA.REPUL.0>
0

>  <SCORE.INTRA.SOLV>
0.71646

>  <SCORE.INTRA.SOLV.lig_0>
-109.803

>  <SCORE.INTRA.VDW>
-1.72707

>  <SCORE.INTRA.VDW.0>
0.32176

>  <SCORE.INTRA.norm>
-0.409691

>  <SCORE.RESTR>
0

>  <SCORE.RESTR.CAVITY>
0

>  <SCORE.RESTR.norm>
0

>  <SCORE.SYSTEM>
0

>  <SCORE.SYSTEM.CONST>
0

>  <SCORE.SYSTEM.DIHEDRAL>
0

>  <SCORE.SYSTEM.SOLV>
0

>  <SCORE.SYSTEM.norm>
0

>  <SCORE.heavy>
34

>  <SCORE.norm>
-1.37805

>  <RMSD>
3.484

$$$$
1mwl
 OpenBabel11021811403D
libRbt.so/2013.1/901 2013/11/27
 34 36  0  0  0  0  0  0  0  0999 V2000
  -10.1715    7.9789   21.1720 C   0  0  2  0  0  0  0  0  0  0  0  0
   -9.8928    8.5896   19.9481 O   0  0  0  0  0  0  0  0  0  0  0  0
   -8.8461    7.3560   21.6939 C   0  0  2  0  0  0  0  0  0  0  0  0
   -7.8231    8.3957   21.8419 N   0  3  0  0  0  0  0  0  0  0  0  0
   -8.3667    6.2152   20.7493 C   0  0  1  0  0  0  0  0  0  0  0  0
   -7.2239    5.6495   21.2120 O   0  0  0  0  0  0  0  0  0  0  0  0
   -9.5073    5.1507   20.6338 C   0  0  2  0  0  0  0  0  0  0  0  0
   -9.0924    4.0708   19.7711 O   0  0  0  0  0  0  0  0  0  0  0  0
  -10.7893    5.8598   20.0795 C   0  0  2  0  0  0  0  0  0  0  0  0
  -11.1918    6.9668   20.9750 O   0  0  0  0  0  0  0  0  0  0  0  0
  -12.0115    4.9467   19.9300 C   0  0  2  0  0  0  0  0  0  0  0  0
  -11.7165    3.9094   19.0523 O   0  0  0  0  0  0  0  0  0  0  0  0
  -13.2479    5.6606   19.3537 C   0  0  0  0  0  0  0  0  0  0  0  0
  -13.7485    9.1147   18.1825 C   0  0  2  0  0  0  0  0  0  0  0  0
  -14.8400    9.6402   17.3235 N   0  3  0  0  0  0  0  0  0  0  0  0
  -13.2183   10.2236   19.1392 C   0  0  0  0  0  0  0  0  0  0  0  0
  -12.0517    9.6627   20.0306 C   0  0  2  0  0  0  0  0  0  0  0  0
  -11.5661   10.7549   20.9514 N   0  3  0  0  0  0  0  0  0  0  0  0
  -10.9032    9.1303   19.1065 C   0  0  2  0  0  0  0  0  0  0  0  0
  -11.4589    8.0253   18.1751 C   0  0  2  0  0  0  0  0  0  0  0  0
  -10.4279    7.5793   17.3276 O   0  0  0  0  0  0  0  0  0  0  0  0
  -12.5984    8.5992   17.2913 C   0  0  1  0  0  0  0  0  0  0  0  0
  -13.0906    7.5708   16.4447 O   0  0  0  0  0  0  0  0  0  0  0  0
  -12.9972    7.7408   15.0573 C   0  0  2  0  0  0  0  0  0  0  0  0
  -13.8919    6.6731   14.3997 C   0  0  2  0  0  0  0  0  0  0  0  0
  -15.2269    6.8744   14.8119 O   0  0  0  0  0  0  0  0  0  0  0  0
  -13.3874    5.2508   14.8209 C   0  0  1  0  0  0  0  0  0  0  0  0
  -14.2178    4.1621   14.2507 N   0  3  0  0  0  0  0  0  0  0  0  0
  -14.4009    4.3495   12.7887 C   0  0  0  0  0  0  0  0  0  0  0  0
  -11.8962    5.0788   14.3692 C   0  0  2  0  0  0  0  0  0  0  0  0
  -11.7994    5.2113   12.9386 O   0  0  0  0  0  0  0  0  0  0  0  0
  -11.3652    3.7755   14.7250 C   0  0  0  0  0  0  0  0  0  0  0  0
  -11.0195    6.2197   14.9716 C   0  0  0  0  0  0  0  0  0  0  0  0
  -11.5975    7.5617   14.6348 O   0  0  0  0  0  0  0  0  0  0  0  0
  1  2  1  6  0  0  0
  1  3  1  0  0  0  0
  1 10  1  0  0  0  0
  3  4  1  6  0  0  0
  3  5  1  0  0  0  0
  5  6  1  1  0  0  0
  5  7  1  0  0  0  0
  7  8  1  6  0  0  0
  7  9  1  0  0  0  0
  9 10  1  1  0  0  0
  9 11  1  0  0  0  0
 11 12  1  6  0  0  0
 11 13  1  0  0  0  0
 14 15  1  6  0  0  0
 14 16  1  0  0  0  0
 14 22  1  0  0  0  0
 16 17  1  0  0  0  0
 17 18  1  1  0  0  0
 17 19  1  0  0  0  0
 19  2  1  1  0  0  0
 19 20  1  0  0  0  0
 20 21  1  6  0  0  0
 20 22  1  0  0  0  0
 22 23  1  6  0  0  0
 24 23  1  1  0  0  0
 24 25  1  0  0  0  0
 24 34  1  0  0  0  0
 25 26  1  1  0  0  0
 25 27  1  0  0  0  0
 27 28  1  6  0  0  0
 27 30  1  0  0  0  0
 28 29  1  0  0  0  0
 30 31  1  6  0  0  0
 30 32  1  0  0  0  0
 30 33  1  0  0  0  0
 33 34  1  0  0  0  0
M  CHG  4   4   1  15   1  18   1  28   1
M  END
>  <CHROM.1>
172.56231472,32.09814513,142.40295194,61.57388127,67.98478328,-59.94179400
174.80313798,63.64111634,92.30861868,59.69417271,120.74408066,-166.47384247
-60.24868897,170.05487295,55.29854008,-11.62407464,6.86589885,17.88508115
0.78474769,-0.80866673,0.69916612

>  <Name>
1mwl

>  <RI>
0

>  <Rbt.Current_Directory>
/home/itssahil/PROJECTS/Mol_Feturizer/New_Systems/rnas/1mwl

>  <Rbt.Executable>
rbdock ($Id: //depot/dev/client3/rdock/2013.1/src/exe/rbdock.cxx#4 $)

>  <Rbt.Library>
libRbt.so (2013.1, Build901 2013/11/27)

>  <Rbt.Parameter_File>
/export/apps/rDock/src/rDock_2013.1_src/data/scripts/dock_solv.prm

>  <Rbt.Receptor>
prm/pocket_docking_4.prm

>  <SCORE>
-39.9535

>  <SCORE.INTER>
-27.8734

>  <SCORE.INTER.CONST>
1

>  <SCORE.INTER.POLAR>
-5.05032

>  <SCORE.INTER.ROT>
6

>  <SCORE.INTER.SOLV>
19.2911

>  <SCORE.INTER.VDW>
-15.7783

>  <SCORE.INTER.norm>
-0.819807

>  <SCORE.INTRA>
-12.0801

>  <SCORE.INTRA.DIHEDRAL>
-25.1765

>  <SCORE.INTRA.DIHEDRAL.0>
42.0816

>  <SCORE.INTRA.POLAR>
0.254515

>  <SCORE.INTRA.POLAR.0>
-0.254682

>  <SCORE.INTRA.REPUL>
0

>  <SCORE.INTRA.REPUL.0>
0

>  <SCORE.INTRA.SOLV>
-2.05239

>  <SCORE.INTRA.SOLV.lig_0>
-109.803

>  <SCORE.INTRA.VDW>
0.669017

>  <SCORE.INTRA.VDW.0>
0.32176

>  <SCORE.INTRA.norm>
-0.355296

>  <SCORE.RESTR>
0

>  <SCORE.RESTR.CAVITY>
0

>  <SCORE.RESTR.norm>
0

>  <SCORE.SYSTEM>
0

>  <SCORE.SYSTEM.CONST>
0

>  <SCORE.SYSTEM.DIHEDRAL>
0

>  <SCORE.SYSTEM.SOLV>
0

>  <SCORE.SYSTEM.norm>
0

>  <SCORE.heavy>
34

>  <SCORE.norm>
-1.1751

>  <RMSD>
3.488

$$$$
1mwl
 OpenBabel11021811403D
libRbt.so/2013.1/901 2013/11/27
 34 36  0  0  0  0  0  0  0  0999 V2000
  -10.7908    6.0744   21.3604 C   0  0  2  0  0  0  0  0  0  0  0  0
  -10.1219    6.8023   20.3747 O   0  0  0  0  0  0  0  0  0  0  0  0
  -10.1703    4.6492   21.3881 C   0  0  2  0  0  0  0  0  0  0  0  0
   -8.7341    4.7288   21.6718 N   0  3  0  0  0  0  0  0  0  0  0  0
  -10.4463    3.9045   20.0492 C   0  0  1  0  0  0  0  0  0  0  0  0
   -9.9298    2.6504   20.0755 O   0  0  0  0  0  0  0  0  0  0  0  0
  -11.9918    3.8647   19.8098 C   0  0  2  0  0  0  0  0  0  0  0  0
  -12.2854    3.1711   18.5789 O   0  0  0  0  0  0  0  0  0  0  0  0
  -12.5230    5.3380   19.7720 C   0  0  2  0  0  0  0  0  0  0  0  0
  -12.2048    6.0313   21.0398 O   0  0  0  0  0  0  0  0  0  0  0  0
  -14.0365    5.4673   19.5662 C   0  0  2  0  0  0  0  0  0  0  0  0
  -14.4104    6.8028   19.6661 O   0  0  0  0  0  0  0  0  0  0  0  0
  -14.8686    4.7071   20.6150 C   0  0  0  0  0  0  0  0  0  0  0  0
  -12.9892    9.7578   19.2332 C   0  0  2  0  0  0  0  0  0  0  0  0
  -13.5786   10.9979   18.6674 N   0  3  0  0  0  0  0  0  0  0  0  0
  -12.0034   10.0952   20.3909 C   0  0  0  0  0  0  0  0  0  0  0  0
  -11.3714    8.7779   20.9702 C   0  0  2  0  0  0  0  0  0  0  0  0
  -10.4300    9.1356   22.0939 N   0  3  0  0  0  0  0  0  0  0  0  0
  -10.6359    8.0068   19.8210 C   0  0  2  0  0  0  0  0  0  0  0  0
  -11.6426    7.6788   18.6913 C   0  0  2  0  0  0  0  0  0  0  0  0
  -10.9642    7.0172   17.6510 O   0  0  0  0  0  0  0  0  0  0  0  0
  -12.2452    8.9901   18.1198 C   0  0  1  0  0  0  0  0  0  0  0  0
  -13.1622    8.6659   17.0851 O   0  0  0  0  0  0  0  0  0  0  0  0
  -13.1711    9.4513   15.9251 C   0  0  2  0  0  0  0  0  0  0  0  0
  -14.6106    9.4491   15.3767 C   0  0  2  0  0  0  0  0  0  0  0  0
  -15.4706   10.0190   16.3401 O   0  0  0  0  0  0  0  0  0  0  0  0
  -15.0343    7.9757   15.0538 C   0  0  1  0  0  0  0  0  0  0  0  0
  -16.4250    7.8833   14.5463 N   0  3  0  0  0  0  0  0  0  0  0  0
  -17.3842    7.7069   15.6665 C   0  0  0  0  0  0  0  0  0  0  0  0
  -14.0400    7.3726   14.0027 C   0  0  2  0  0  0  0  0  0  0  0  0
  -14.0750    8.1516   12.7922 O   0  0  0  0  0  0  0  0  0  0  0  0
  -14.3789    6.0050   13.6531 C   0  0  0  0  0  0  0  0  0  0  0  0
  -12.5770    7.4638   14.5360 C   0  0  0  0  0  0  0  0  0  0  0  0
  -12.2484    8.8719   14.9339 O   0  0  0  0  0  0  0  0  0  0  0  0
  1  2  1  6  0  0  0
  1  3  1  0  0  0  0
  1 10  1  0  0  0  0
  3  4  1  6  0  0  0
  3  5  1  0  0  0  0
  5  6  1  1  0  0  0
  5  7  1  0  0  0  0
  7  8  1  6  0  0  0
  7  9  1  0  0  0  0
  9 10  1  1  0  0  0
  9 11  1  0  0  0  0
 11 12  1  1  0  0  0
 11 13  1  0  0  0  0
 14 15  1  6  0  0  0
 14 16  1  0  0  0  0
 14 22  1  0  0  0  0
 16 17  1  0  0  0  0
 17 18  1  1  0  0  0
 17 19  1  0  0  0  0
 19  2  1  1  0  0  0
 19 20  1  0  0  0  0
 20 21  1  6  0  0  0
 20 22  1  0  0  0  0
 22 23  1  6  0  0  0
 24 23  1  1  0  0  0
 24 25  1  0  0  0  0
 24 34  1  0  0  0  0
 25 26  1  1  0  0  0
 25 27  1  0  0  0  0
 27 28  1  6  0  0  0
 27 30  1  0  0  0  0
 28 29  1  0  0  0  0
 30 31  1  6  0  0  0
 30 32  1  0  0  0  0
 30 33  1  0  0  0  0
 33 34  1  0  0  0  0
M  CHG  4   4   1  15   1  18   1  28   1
M  END
>  <CHROM.1>
162.80518111,35.76365508,57.32742446,-70.65284356,58.83657325,174.82568374
173.34859033,-58.16244710,168.21731804,67.54123649,101.00161387,-149.23556893
167.49806192,30.32213447,58.16021924,-12.67472245,7.16167421,18.21593118
-0.24400928,-1.01208486,0.18951575

>  <Name>
1mwl

>  <RI>
0

>  <Rbt.Current_Directory>
/home/itssahil/PROJECTS/Mol_Feturizer/New_Systems/rnas/1mwl

>  <Rbt.Executable>
rbdock ($Id: //depot/dev/client3/rdock/2013.1/src/exe/rbdock.cxx#4 $)

>  <Rbt.Library>
libRbt.so (2013.1, Build901 2013/11/27)

>  <Rbt.Parameter_File>
/export/apps/rDock/src/rDock_2013.1_src/data/scripts/dock_solv.prm

>  <Rbt.Receptor>
prm/pocket_docking_5.prm

>  <SCORE>
-63.5459

>  <SCORE.INTER>
-46.8777

>  <SCORE.INTER.CONST>
1

>  <SCORE.INTER.POLAR>
-7.3267

>  <SCORE.INTER.ROT>
6

>  <SCORE.INTER.SOLV>
23.0689

>  <SCORE.INTER.VDW>
-22.1191

>  <SCORE.INTER.norm>
-1.37876

>  <SCORE.INTRA>
-16.6682

>  <SCORE.INTRA.DIHEDRAL>
-24.7954

>  <SCORE.INTRA.DIHEDRAL.0>
42.0816

>  <SCORE.INTRA.POLAR>
-0.911985

>  <SCORE.INTRA.POLAR.0>
-0.254682

>  <SCORE.INTRA.REPUL>
0

>  <SCORE.INTRA.REPUL.0>
0

>  <SCORE.INTRA.SOLV>
0.976014

>  <SCORE.INTRA.SOLV.lig_0>
-109.803

>  <SCORE.INTRA.VDW>
-1.65775

>  <SCORE.INTRA.VDW.0>
0.32176

>  <SCORE.INTRA.norm>
-0.490241

>  <SCORE.RESTR>
0

>  <SCORE.RESTR.CAVITY>
0

>  <SCORE.RESTR.norm>
0

>  <SCORE.SYSTEM>
0

>  <SCORE.SYSTEM.CONST>
0

>  <SCORE.SYSTEM.DIHEDRAL>
0

>  <SCORE.SYSTEM.SOLV>
0

>  <SCORE.SYSTEM.norm>
0

>  <SCORE.heavy>
34

>  <SCORE.norm>
-1.869

>  <RMSD>
3.518

$$$$
1mwl
 OpenBabel11021811403D
libRbt.so/2013.1/901 2013/11/27
 34 36  0  0  0  0  0  0  0  0999 V2000
  -10.5312    7.7047   20.9152 C   0  0  2  0  0  0  0  0  0  0  0  0
  -10.1395    8.4136   19.7782 O   0  0  0  0  0  0  0  0  0  0  0  0
   -9.2523    7.0727   21.5332 C   0  0  2  0  0  0  0  0  0  0  0  0
   -8.2832    8.1200   21.8701 N   0  3  0  0  0  0  0  0  0  0  0  0
   -8.6389    6.0185   20.5657 C   0  0  1  0  0  0  0  0  0  0  0  0
   -7.5367    5.4440   21.1091 O   0  0  0  0  0  0  0  0  0  0  0  0
   -9.7275    4.9414   20.2462 C   0  0  2  0  0  0  0  0  0  0  0  0
   -9.1889    3.9403   19.3574 O   0  0  0  0  0  0  0  0  0  0  0  0
  -10.9624    5.6629   19.6072 C   0  0  2  0  0  0  0  0  0  0  0  0
  -11.4930    6.6889   20.5320 O   0  0  0  0  0  0  0  0  0  0  0  0
  -12.1330    4.7375   19.2561 C   0  0  2  0  0  0  0  0  0  0  0  0
  -13.1972    5.4911   18.7734 O   0  0  0  0  0  0  0  0  0  0  0  0
  -12.6761    3.9463   20.4600 C   0  0  0  0  0  0  0  0  0  0  0  0
  -13.8678    9.0601   17.7930 C   0  0  2  0  0  0  0  0  0  0  0  0
  -14.8769    9.5756   16.8331 N   0  3  0  0  0  0  0  0  0  0  0  0
  -13.2752   10.2211   18.6455 C   0  0  0  0  0  0  0  0  0  0  0  0
  -12.1957    9.6679   19.6448 C   0  0  2  0  0  0  0  0  0  0  0  0
  -11.6477   10.8122   20.4616 N   0  3  0  0  0  0  0  0  0  0  0  0
  -11.0671    8.9392   18.8375 C   0  0  2  0  0  0  0  0  0  0  0  0
  -11.6856    7.7870   18.0086 C   0  0  2  0  0  0  0  0  0  0  0  0
  -10.6690    7.1624   17.2625 O   0  0  0  0  0  0  0  0  0  0  0  0
  -12.7373    8.3517   17.0165 C   0  0  1  0  0  0  0  0  0  0  0  0
  -13.2888    7.2795   16.2663 O   0  0  0  0  0  0  0  0  0  0  0  0
  -13.4520    7.4410   14.8843 C   0  0  2  0  0  0  0  0  0  0  0  0
  -14.6684    6.5960   14.4609 C   0  0  2  0  0  0  0  0  0  0  0  0
  -15.8154    7.0730   15.1314 O   0  0  0  0  0  0  0  0  0  0  0  0
  -14.3990    5.0943   14.8174 C   0  0  1  0  0  0  0  0  0  0  0  0
  -15.5404    4.2142   14.4669 N   0  3  0  0  0  0  0  0  0  0  0  0
  -15.8533    3.2869   15.5841 C   0  0  0  0  0  0  0  0  0  0  0  0
  -13.1049    4.6131   14.0752 C   0  0  2  0  0  0  0  0  0  0  0  0
  -13.2817    4.7377   12.6516 O   0  0  0  0  0  0  0  0  0  0  0  0
  -12.7987    3.2227   14.3582 C   0  0  0  0  0  0  0  0  0  0  0  0
  -11.9016    5.5339   14.4459 C   0  0  0  0  0  0  0  0  0  0  0  0
  -12.2407    6.9721   14.1897 O   0  0  0  0  0  0  0  0  0  0  0  0
  1  2  1  6  0  0  0
  1  3  1  0  0  0  0
  1 10  1  0  0  0  0
  3  4  1  6  0  0  0
  3  5  1  0  0  0  0
  5  6  1  1  0  0  0
  5  7  1  0  0  0  0
  7  8  1  6  0  0  0
  7  9  1  0  0  0  0
  9 10  1  1  0  0  0
  9 11  1  0  0  0  0
 11 12  1  1  0  0  0
 11 13  1  0  0  0  0
 14 15  1  6  0  0  0
 14 16  1  0  0  0  0
 14 22  1  0  0  0  0
 16 17  1  0  0  0  0
 17 18  1  6  0  0  0
 17 19  1  0  0  0  0
 19  2  1  1  0  0  0
 19 20  1  0  0  0  0
 20 21  1  6  0  0  0
 20 22  1  0  0  0  0
 22 23  1  1  0  0  0
 24 23  1  1  0  0  0
 24 25  1  0  0  0  0
 24 34  1  0  0  0  0
 25 26  1  1  0  0  0
 25 27  1  0  0  0  0
 27 28  1  6  0  0  0
 27 30  1  0  0  0  0
 28 29  1  0  0  0  0
 30 31  1  6  0  0  0
 30 32  1  0  0  0  0
 30 33  1  0  0  0  0
 33 34  1  0  0  0  0
M  CHG  4   4   1  15   1  18   1  28   1
M  END
>  <CHROM.1>
169.40337780,46.69977578,98.17324085,59.03540165,64.27283782,176.45931367
73.70711229,57.53143782,-154.53759548,-179.94847298,104.02071245,-149.61831751
166.57741370,-13.77113370,65.18942764,-12.11900894,6.63789396,17.75506480
0.55495293,-0.82777121,0.43101251

>  <Name>
1mwl

>  <RI>
0

>  <Rbt.Current_Directory>
/home/itssahil/PROJECTS/Mol_Feturizer/New_Systems/rnas/1mwl

>  <Rbt.Executable>
rbdock ($Id: //depot/dev/client3/rdock/2013.1/src/exe/rbdock.cxx#4 $)

>  <Rbt.Library>
libRbt.so (2013.1, Build901 2013/11/27)

>  <Rbt.Parameter_File>
/export/apps/rDock/src/rDock_2013.1_src/data/scripts/dock_solv.prm

>  <Rbt.Receptor>
prm/pocket_docking_6.prm

>  <SCORE>
-50.8187

>  <SCORE.INTER>
-31.993

>  <SCORE.INTER.CONST>
1

>  <SCORE.INTER.POLAR>
-5.67759

>  <SCORE.INTER.ROT>
6

>  <SCORE.INTER.SOLV>
20.4739

>  <SCORE.INTER.VDW>
-16.828

>  <SCORE.INTER.norm>
-0.940971

>  <SCORE.INTRA>
-18.8257

>  <SCORE.INTRA.DIHEDRAL>
-21.8158

>  <SCORE.INTRA.DIHEDRAL.0>
42.0816

>  <SCORE.INTRA.POLAR>
-1.95938

>  <SCORE.INTRA.POLAR.0>
-0.254682

>  <SCORE.INTRA.REPUL>
0

>  <SCORE.INTRA.REPUL.0>
0

>  <SCORE.INTRA.SOLV>
1.21828

>  <SCORE.INTRA.SOLV.lig_0>
-109.803

>  <SCORE.INTRA.VDW>
-1.86507

>  <SCORE.INTRA.VDW.0>
0.32176

>  <SCORE.INTRA.norm>
-0.553697

>  <SCORE.RESTR>
0

>  <SCORE.RESTR.CAVITY>
0

>  <SCORE.RESTR.norm>
0

>  <SCORE.SYSTEM>
0

>  <SCORE.SYSTEM.CONST>
0

>  <SCORE.SYSTEM.DIHEDRAL>
0

>  <SCORE.SYSTEM.SOLV>
0

>  <SCORE.SYSTEM.norm>
0

>  <SCORE.heavy>
34

>  <SCORE.norm>
-1.49467

>  <RMSD>
3.568

$$$$
1mwl
 OpenBabel11021811403D
libRbt.so/2013.1/901 2013/11/27
 34 36  0  0  0  0  0  0  0  0999 V2000
  -11.1208    6.0619   21.9087 C   0  0  2  0  0  0  0  0  0  0  0  0
  -10.5275    6.5992   20.7649 O   0  0  0  0  0  0  0  0  0  0  0  0
  -10.2133    4.8999   22.4016 C   0  0  2  0  0  0  0  0  0  0  0  0
   -8.8650    5.3988   22.6892 N   0  3  0  0  0  0  0  0  0  0  0  0
  -10.1832    3.7462   21.3568 C   0  0  1  0  0  0  0  0  0  0  0  0
   -9.4134    2.7172   21.7915 O   0  0  0  0  0  0  0  0  0  0  0  0
  -11.6507    3.2714   21.0954 C   0  0  2  0  0  0  0  0  0  0  0  0
  -11.6598    2.1930   20.1365 O   0  0  0  0  0  0  0  0  0  0  0  0
  -12.4809    4.4960   20.5806 C   0  0  2  0  0  0  0  0  0  0  0  0
  -12.4516    5.5910   21.5753 O   0  0  0  0  0  0  0  0  0  0  0  0
  -13.9573    4.1951   20.2989 C   0  0  2  0  0  0  0  0  0  0  0  0
  -14.6688    5.3862   20.2068 O   0  0  0  0  0  0  0  0  0  0  0  0
  -14.6402    3.3694   21.4044 C   0  0  0  0  0  0  0  0  0  0  0  0
  -13.2131    9.7442   19.6897 C   0  0  2  0  0  0  0  0  0  0  0  0
  -13.7553   10.9721   19.0543 N   0  3  0  0  0  0  0  0  0  0  0  0
  -12.0056   10.0884   20.6115 C   0  0  0  0  0  0  0  0  0  0  0  0
  -11.4278    8.7807   21.2643 C   0  0  2  0  0  0  0  0  0  0  0  0
  -10.2677    9.1466   22.1571 N   0  3  0  0  0  0  0  0  0  0  0  0
  -10.9978    7.7836   20.1342 C   0  0  2  0  0  0  0  0  0  0  0  0
  -12.2195    7.4548   19.2419 C   0  0  2  0  0  0  0  0  0  0  0  0
  -11.8139    6.5863   18.2116 O   0  0  0  0  0  0  0  0  0  0  0  0
  -12.7679    8.7537   18.5928 C   0  0  1  0  0  0  0  0  0  0  0  0
  -13.8846    8.4286   17.7781 O   0  0  0  0  0  0  0  0  0  0  0  0
  -14.0720    9.1344   16.5826 C   0  0  2  0  0  0  0  0  0  0  0  0
  -15.5057    8.8485   16.0972 C   0  0  2  0  0  0  0  0  0  0  0  0
  -16.4207    9.3108   17.0676 O   0  0  0  0  0  0  0  0  0  0  0  0
  -15.6711    7.3078   15.8650 C   0  0  1  0  0  0  0  0  0  0  0  0
  -17.0393    6.9441   15.4227 N   0  3  0  0  0  0  0  0  0  0  0  0
  -17.6212    5.9048   16.3100 C   0  0  0  0  0  0  0  0  0  0  0  0
  -14.6212    6.8316   14.8029 C   0  0  2  0  0  0  0  0  0  0  0  0
  -14.8349    7.5237   13.5584 O   0  0  0  0  0  0  0  0  0  0  0  0
  -14.7228    5.4084   14.5353 C   0  0  0  0  0  0  0  0  0  0  0  0
  -13.1807    7.2083   15.2679 C   0  0  0  0  0  0  0  0  0  0  0  0
  -13.0948    8.6721   15.5821 O   0  0  0  0  0  0  0  0  0  0  0  0
  1  2  1  6  0  0  0
  1  3  1  0  0  0  0
  1 10  1  0  0  0  0
  3  4  1  6  0  0  0
  3  5  1  0  0  0  0
  5  6  1  1  0  0  0
  5  7  1  0  0  0  0
  7  8  1  6  0  0  0
  7  9  1  0  0  0  0
  9 10  1  1  0  0  0
  9 11  1  0  0  0  0
 11 12  1  1  0  0  0
 11 13  1  0  0  0  0
 14 15  1  6  0  0  0
 14 16  1  0  0  0  0
 14 22  1  0  0  0  0
 16 17  1  0  0  0  0
 17 18  1  6  0  0  0
 17 19  1  0  0  0  0
 19  2  1  1  0  0  0
 19 20  1  0  0  0  0
 20 21  1  6  0  0  0
 20 22  1  0  0  0  0
 22 23  1  6  0  0  0
 24 23  1  1  0  0  0
 24 25  1  0  0  0  0
 24 34  1  0  0  0  0
 25 26  1  1  0  0  0
 25 27  1  0  0  0  0
 27 28  1  6  0  0  0
 27 30  1  0  0  0  0
 28 29  1  0  0  0  0
 30 31  1  6  0  0  0
 30 32  1  0  0  0  0
 30 33  1  0  0  0  0
 33 34  1  0  0  0  0
M  CHG  4   4   1  15   1  18   1  28   1
M  END
>  <CHROM.1>
-172.25667289,38.55265055,-49.68070588,58.80857913,179.99051265,163.88431706
162.45041128,-177.30482779,60.95797898,59.31913354,96.04983333,-165.75002019
-58.22876463,-5.78402749,44.86628134,-12.97216861,6.72026547,18.94433546
-0.47726076,-0.88277351,-0.13346450

>  <Name>
1mwl

>  <RI>
0

>  <Rbt.Current_Directory>
/home/itssahil/PROJECTS/Mol_Feturizer/New_Systems/rnas/1mwl

>  <Rbt.Executable>
rbdock ($Id: //depot/dev/client3/rdock/2013.1/src/exe/rbdock.cxx#4 $)

>  <Rbt.Library>
libRbt.so (2013.1, Build901 2013/11/27)

>  <Rbt.Parameter_File>
/export/apps/rDock/src/rDock_2013.1_src/data/scripts/dock_solv.prm

>  <Rbt.Receptor>
prm/pocket_docking_6.prm

>  <SCORE>
-51.5106

>  <SCORE.INTER>
-35.8735

>  <SCORE.INTER.CONST>
1

>  <SCORE.INTER.POLAR>
-6.09975

>  <SCORE.INTER.ROT>
6

>  <SCORE.INTER.SOLV>
18.7215

>  <SCORE.INTER.VDW>
-17.4237

>  <SCORE.INTER.norm>
-1.0551

>  <SCORE.INTRA>
-15.6371

>  <SCORE.INTRA.DIHEDRAL>
-26.9695

>  <SCORE.INTRA.DIHEDRAL.0>
42.0816

>  <SCORE.INTRA.POLAR>
0.220253

>  <SCORE.INTRA.POLAR.0>
-0.254682

>  <SCORE.INTRA.REPUL>
0.0999017

>  <SCORE.INTRA.REPUL.0>
0

>  <SCORE.INTRA.SOLV>
-0.0171441

>  <SCORE.INTRA.SOLV.lig_0>
-109.803

>  <SCORE.INTRA.VDW>
-3.39216

>  <SCORE.INTRA.VDW.0>
0.32176

>  <SCORE.INTRA.norm>
-0.459916

>  <SCORE.RESTR>
0

>  <SCORE.RESTR.CAVITY>
0

>  <SCORE.RESTR.norm>
0

>  <SCORE.SYSTEM>
0

>  <SCORE.SYSTEM.CONST>
0

>  <SCORE.SYSTEM.DIHEDRAL>
0

>  <SCORE.SYSTEM.SOLV>
0

>  <SCORE.SYSTEM.norm>
0

>  <SCORE.heavy>
34

>  <SCORE.norm>
-1.51502

>  <RMSD>
3.595

$$$$
1mwl
 OpenBabel11021811403D
libRbt.so/2013.1/901 2013/11/27
 34 36  0  0  0  0  0  0  0  0999 V2000
  -10.7744    8.4055   21.4006 C   0  0  2  0  0  0  0  0  0  0  0  0
  -10.5263    8.9281   20.1302 O   0  0  0  0  0  0  0  0  0  0  0  0
   -9.5298    7.5692   21.8110 C   0  0  2  0  0  0  0  0  0  0  0  0
   -8.3313    8.4136   21.8108 N   0  3  0  0  0  0  0  0  0  0  0  0
   -9.3608    6.3396   20.8713 C   0  0  1  0  0  0  0  0  0  0  0  0
   -8.2912    5.5906   21.2391 O   0  0  0  0  0  0  0  0  0  0  0  0
  -10.6752    5.4925   20.9168 C   0  0  2  0  0  0  0  0  0  0  0  0
  -10.5500    4.3362   20.0626 O   0  0  0  0  0  0  0  0  0  0  0  0
  -11.8659    6.4052   20.4661 C   0  0  2  0  0  0  0  0  0  0  0  0
  -11.9708    7.5867   21.3506 O   0  0  0  0  0  0  0  0  0  0  0  0
  -13.2375    5.7207   20.4797 C   0  0  2  0  0  0  0  0  0  0  0  0
  -13.2628    4.7038   19.5318 O   0  0  0  0  0  0  0  0  0  0  0  0
  -14.4016    6.6655   20.1297 C   0  0  0  0  0  0  0  0  0  0  0  0
  -14.3747   10.3662   18.9547 C   0  0  2  0  0  0  0  0  0  0  0  0
  -15.4366   11.0859   18.2065 N   0  3  0  0  0  0  0  0  0  0  0  0
  -13.3767   11.3730   19.5998 C   0  0  0  0  0  0  0  0  0  0  0  0
  -12.2470   10.6012   20.3733 C   0  0  2  0  0  0  0  0  0  0  0  0
  -11.3029   11.6013   20.9939 N   0  3  0  0  0  0  0  0  0  0  0  0
  -11.5044    9.6400   19.3829 C   0  0  2  0  0  0  0  0  0  0  0  0
  -12.5200    8.6475   18.7659 C   0  0  2  0  0  0  0  0  0  0  0  0
  -11.8484    7.8126   17.8537 O   0  0  0  0  0  0  0  0  0  0  0  0
  -13.6191    9.4245   17.9929 C   0  0  1  0  0  0  0  0  0  0  0  0
  -14.5367    8.4958   17.4342 O   0  0  0  0  0  0  0  0  0  0  0  0
  -15.3116    8.8943   16.3373 C   0  0  2  0  0  0  0  0  0  0  0  0
  -16.3503    7.7866   16.0787 C   0  0  2  0  0  0  0  0  0  0  0  0
  -17.1747    7.6543   17.2168 O   0  0  0  0  0  0  0  0  0  0  0  0
  -15.6031    6.4438   15.7730 C   0  0  1  0  0  0  0  0  0  0  0  0
  -16.5367    5.3149   15.5406 N   0  3  0  0  0  0  0  0  0  0  0  0
  -15.9662    4.0444   16.0569 C   0  0  0  0  0  0  0  0  0  0  0  0
  -14.6804    6.6414   14.5213 C   0  0  2  0  0  0  0  0  0  0  0  0
  -15.4762    7.0110   13.3796 O   0  0  0  0  0  0  0  0  0  0  0  0
  -13.9593    5.4291   14.1782 C   0  0  0  0  0  0  0  0  0  0  0  0
  -13.6940    7.8249   14.7650 C   0  0  0  0  0  0  0  0  0  0  0  0
  -14.4435    9.0624   15.1593 O   0  0  0  0  0  0  0  0  0  0  0  0
  1  2  1  6  0  0  0
  1  3  1  0  0  0  0
  1 10  1  0  0  0  0
  3  4  1  6  0  0  0
  3  5  1  0  0  0  0
  5  6  1  1  0  0  0
  5  7  1  0  0  0  0
  7  8  1  6  0  0  0
  7  9  1  0  0  0  0
  9 10  1  1  0  0  0
  9 11  1  0  0  0  0
 11 12  1  6  0  0  0
 11 13  1  0  0  0  0
 14 15  1  6  0  0  0
 14 16  1  0  0  0  0
 14 22  1  0  0  0  0
 16 17  1  0  0  0  0
 17 18  1  6  0  0  0
 17 19  1  0  0  0  0
 19  2  1  1  0  0  0
 19 20  1  0  0  0  0
 20 21  1  6  0  0  0
 20 22  1  0  0  0  0
 22 23  1  1  0  0  0
 24 23  1  1  0  0  0
 24 25  1  0  0  0  0
 24 34  1  0  0  0  0
 25 26  1  1  0  0  0
 25 27  1  0  0  0  0
 27 28  1  6  0  0  0
 27 30  1  0  0  0  0
 28 29  1  0  0  0  0
 30 31  1  6  0  0  0
 30 32  1  0  0  0  0
 30 33  1  0  0  0  0
 33 34  1  0  0  0  0
M  CHG  4   4   1  15   1  18   1  28   1
M  END
>  <CHROM.1>
173.67321326,42.18394565,-139.90220285,-71.22910530,-52.06144685,-65.36097325
54.62852915,-168.88117011,-27.41835642,-64.23341394,82.12352565,-171.62954741
59.41083678,-25.59513590,66.74805003,-13.01273995,7.67473100,18.48493170
0.25617141,-0.77781503,0.24944113

>  <Name>
1mwl

>  <RI>
0

>  <Rbt.Current_Directory>
/home/itssahil/PROJECTS/Mol_Feturizer/New_Systems/rnas/1mwl

>  <Rbt.Executable>
rbdock ($Id: //depot/dev/client3/rdock/2013.1/src/exe/rbdock.cxx#4 $)

>  <Rbt.Library>
libRbt.so (2013.1, Build901 2013/11/27)

>  <Rbt.Parameter_File>
/export/apps/rDock/src/rDock_2013.1_src/data/scripts/dock_solv.prm

>  <Rbt.Receptor>
prm/pocket_docking_7.prm

>  <SCORE>
-44.867

>  <SCORE.INTER>
-29.2587

>  <SCORE.INTER.CONST>
1

>  <SCORE.INTER.POLAR>
-5.18143

>  <SCORE.INTER.ROT>
6

>  <SCORE.INTER.SOLV>
22.2114

>  <SCORE.INTER.VDW>
-17.2381

>  <SCORE.INTER.norm>
-0.860549

>  <SCORE.INTRA>
-15.6084

>  <SCORE.INTRA.DIHEDRAL>
-29.0846

>  <SCORE.INTRA.DIHEDRAL.0>
42.0816

>  <SCORE.INTRA.POLAR>
-0.232003

>  <SCORE.INTRA.POLAR.0>
-0.254682

>  <SCORE.INTRA.REPUL>
0

>  <SCORE.INTRA.REPUL.0>
0

>  <SCORE.INTRA.SOLV>
0.19285

>  <SCORE.INTRA.SOLV.lig_0>
-109.803

>  <SCORE.INTRA.VDW>
-0.373678

>  <SCORE.INTRA.VDW.0>
0.32176

>  <SCORE.INTRA.norm>
-0.459069

>  <SCORE.RESTR>
0

>  <SCORE.RESTR.CAVITY>
0

>  <SCORE.RESTR.norm>
0

>  <SCORE.SYSTEM>
0

>  <SCORE.SYSTEM.CONST>
0

>  <SCORE.SYSTEM.DIHEDRAL>
0

>  <SCORE.SYSTEM.SOLV>
0

>  <SCORE.SYSTEM.norm>
0

>  <SCORE.heavy>
34

>  <SCORE.norm>
-1.31962

>  <RMSD>
3.612

$$$$
1mwl
 OpenBabel11021811403D
libRbt.so/2013.1/901 2013/11/27
 34 36  0  0  0  0  0  0  0  0999 V2000
  -11.1460    6.1299   21.7311 C   0  0  2  0  0  0  0  0  0  0  0  0
  -10.4381    6.7721   20.7136 O   0  0  0  0  0  0  0  0  0  0  0  0
  -10.3103    4.8952   22.1717 C   0  0  2  0  0  0  0  0  0  0  0  0
   -8.9861    5.3207   22.6352 N   0  3  0  0  0  0  0  0  0  0  0  0
  -10.2034    3.8628   21.0115 C   0  0  1  0  0  0  0  0  0  0  0  0
   -9.4970    2.7707   21.3967 O   0  0  0  0  0  0  0  0  0  0  0  0
  -11.6484    3.4618   20.5657 C   0  0  2  0  0  0  0  0  0  0  0  0
  -11.5872    2.4959   19.4954 O   0  0  0  0  0  0  0  0  0  0  0  0
  -12.4039    4.7589   20.1175 C   0  0  2  0  0  0  0  0  0  0  0  0
  -12.4480    5.7368   21.2270 O   0  0  0  0  0  0  0  0  0  0  0  0
  -13.8527    4.5332   19.6703 C   0  0  2  0  0  0  0  0  0  0  0  0
  -14.4523    5.7561   19.3905 O   0  0  0  0  0  0  0  0  0  0  0  0
  -14.7300    3.8575   20.7398 C   0  0  0  0  0  0  0  0  0  0  0  0
  -13.1912    9.7817   19.4399 C   0  0  2  0  0  0  0  0  0  0  0  0
  -13.7438   10.9877   18.7722 N   0  3  0  0  0  0  0  0  0  0  0  0
  -12.0896   10.1773   20.4675 C   0  0  0  0  0  0  0  0  0  0  0  0
  -11.4987    8.8934   21.1548 C   0  0  2  0  0  0  0  0  0  0  0  0
  -10.4428    9.3085   22.1495 N   0  3  0  0  0  0  0  0  0  0  0  0
  -10.9171    7.9385   20.0565 C   0  0  2  0  0  0  0  0  0  0  0  0
  -12.0364    7.5571   19.0571 C   0  0  2  0  0  0  0  0  0  0  0  0
  -11.4949    6.7279   18.0574 O   0  0  0  0  0  0  0  0  0  0  0  0
  -12.5978    8.8338   18.3759 C   0  0  1  0  0  0  0  0  0  0  0  0
  -13.6196    8.4606   17.4632 O   0  0  0  0  0  0  0  0  0  0  0  0
  -13.2638    8.1650   16.1408 C   0  0  2  0  0  0  0  0  0  0  0  0
  -14.5014    8.4230   15.2607 C   0  0  2  0  0  0  0  0  0  0  0  0
  -14.8612    9.7843   15.3606 O   0  0  0  0  0  0  0  0  0  0  0  0
  -15.6734    7.5005   15.7406 C   0  0  1  0  0  0  0  0  0  0  0  0
  -16.9169    7.7100   14.9595 N   0  3  0  0  0  0  0  0  0  0  0  0
  -17.9980    8.2481   15.8242 C   0  0  0  0  0  0  0  0  0  0  0  0
  -15.2240    6.0023   15.6392 C   0  0  2  0  0  0  0  0  0  0  0  0
  -14.8963    5.6805   14.2744 O   0  0  0  0  0  0  0  0  0  0  0  0
  -16.2689    5.0891   16.0654 C   0  0  0  0  0  0  0  0  0  0  0  0
  -13.9191    5.7779   16.4639 C   0  0  0  0  0  0  0  0  0  0  0  0
  -12.8583    6.7522   16.0465 O   0  0  0  0  0  0  0  0  0  0  0  0
  1  2  1  6  0  0  0
  1  3  1  0  0  0  0
  1 10  1  0  0  0  0
  3  4  1  6  0  0  0
  3  5  1  0  0  0  0
  5  6  1  1  0  0  0
  5  7  1  0  0  0  0
  7  8  1  6  0  0  0
  7  9  1  0  0  0  0
  9 10  1  1  0  0  0
  9 11  1  0  0  0  0
 11 12  1  1  0  0  0
 11 13  1  0  0  0  0
 14 15  1  6  0  0  0
 14 16  1  0  0  0  0
 14 22  1  0  0  0  0
 16 17  1  0  0  0  0
 17 18  1  1  0  0  0
 17 19  1  0  0  0  0
 19  2  1  1  0  0  0
 19 20  1  0  0  0  0
 20 21  1  6  0  0  0
 20 22  1  0  0  0  0
 22 23  1  6  0  0  0
 24 23  1  1  0  0  0
 24 25  1  0  0  0  0
 24 34  1  0  0  0  0
 25 26  1  1  0  0  0
 25 27  1  0  0  0  0
 27 28  1  6  0  0  0
 27 30  1  0  0  0  0
 28 29  1  0  0  0  0
 30 31  1  6  0  0  0
 30 32  1  0  0  0  0
 30 33  1  0  0  0  0
 33 34  1  0  0  0  0
M  CHG  4   4   1  15   1  18   1  28   1
M  END
>  <CHROM.1>
179.12705348,43.34371613,61.05189957,-161.48447609,63.64923211,175.66611489
-50.13061575,177.25092138,53.13292324,-59.01994930,150.36532419,-154.80805145
172.61453638,4.36745477,-57.85369361,-12.92541199,6.70682702,18.74227741
-0.33985446,-0.86469224,-0.01966773

>  <Name>
1mwl

>  <RI>
0

>  <Rbt.Current_Directory>
/home/itssahil/PROJECTS/Mol_Feturizer/New_Systems/rnas/1mwl

>  <Rbt.Executable>
rbdock ($Id: //depot/dev/client3/rdock/2013.1/src/exe/rbdock.cxx#4 $)

>  <Rbt.Library>
libRbt.so (2013.1, Build901 2013/11/27)

>  <Rbt.Parameter_File>
/export/apps/rDock/src/rDock_2013.1_src/data/scripts/dock_solv.prm

>  <Rbt.Receptor>
prm/pocket_docking_6.prm

>  <SCORE>
-63.5615

>  <SCORE.INTER>
-46.6665

>  <SCORE.INTER.CONST>
1

>  <SCORE.INTER.POLAR>
-8.48873

>  <SCORE.INTER.ROT>
6

>  <SCORE.INTER.SOLV>
20.2397

>  <SCORE.INTER.VDW>
-17.1618

>  <SCORE.INTER.norm>
-1.37254

>  <SCORE.INTRA>
-16.8949

>  <SCORE.INTRA.DIHEDRAL>
-28.3144

>  <SCORE.INTRA.DIHEDRAL.0>
42.0816

>  <SCORE.INTRA.POLAR>
0.139949

>  <SCORE.INTRA.POLAR.0>
-0.254682

>  <SCORE.INTRA.REPUL>
0

>  <SCORE.INTRA.REPUL.0>
0

>  <SCORE.INTRA.SOLV>
0.626964

>  <SCORE.INTRA.SOLV.lig_0>
-109.803

>  <SCORE.INTRA.VDW>
-3.52707

>  <SCORE.INTRA.VDW.0>
0.32176

>  <SCORE.INTRA.norm>
-0.49691

>  <SCORE.RESTR>
0

>  <SCORE.RESTR.CAVITY>
0

>  <SCORE.RESTR.norm>
0

>  <SCORE.SYSTEM>
0

>  <SCORE.SYSTEM.CONST>
0

>  <SCORE.SYSTEM.DIHEDRAL>
0

>  <SCORE.SYSTEM.SOLV>
0

>  <SCORE.SYSTEM.norm>
0

>  <SCORE.heavy>
34

>  <SCORE.norm>
-1.86945

>  <RMSD>
3.616

$$$$
1mwl
 OpenBabel11021811403D
libRbt.so/2013.1/901 2013/11/27
 34 36  0  0  0  0  0  0  0  0999 V2000
  -10.7737    6.9091   21.4037 C   0  0  2  0  0  0  0  0  0  0  0  0
  -10.7729    8.0299   20.5715 O   0  0  0  0  0  0  0  0  0  0  0  0
   -9.2948    6.6013   21.7713 C   0  0  2  0  0  0  0  0  0  0  0  0
   -8.6895    7.7569   22.4403 N   0  3  0  0  0  0  0  0  0  0  0  0
   -8.4889    6.1895   20.5046 C   0  0  1  0  0  0  0  0  0  0  0  0
   -7.2033    5.8946   20.8216 O   0  0  0  0  0  0  0  0  0  0  0  0
   -9.1945    4.9605   19.8420 C   0  0  2  0  0  0  0  0  0  0  0  0
   -8.4669    4.5446   18.6673 O   0  0  0  0  0  0  0  0  0  0  0  0
  -10.6640    5.3691   19.4847 C   0  0  2  0  0  0  0  0  0  0  0  0
  -11.3880    5.7984   20.7016 O   0  0  0  0  0  0  0  0  0  0  0  0
  -11.4998    4.2555   18.8436 C   0  0  2  0  0  0  0  0  0  0  0  0
  -10.9280    3.8781   17.6337 O   0  0  0  0  0  0  0  0  0  0  0  0
  -12.9461    4.6760   18.5244 C   0  0  0  0  0  0  0  0  0  0  0  0
  -14.8055    8.1988   19.1682 C   0  0  2  0  0  0  0  0  0  0  0  0
  -16.0687    8.7171   18.5842 N   0  3  0  0  0  0  0  0  0  0  0  0
  -14.4464    8.9676   20.4743 C   0  0  0  0  0  0  0  0  0  0  0  0
  -13.0991    8.4242   21.0740 C   0  0  2  0  0  0  0  0  0  0  0  0
  -12.7830    9.1804   22.3409 N   0  3  0  0  0  0  0  0  0  0  0  0
  -11.9593    8.5754   20.0089 C   0  0  2  0  0  0  0  0  0  0  0  0
  -12.3413    7.7944   18.7279 C   0  0  2  0  0  0  0  0  0  0  0  0
  -11.3272    7.9654   17.7674 O   0  0  0  0  0  0  0  0  0  0  0  0
  -13.6647    8.3534   18.1399 C   0  0  1  0  0  0  0  0  0  0  0  0
  -13.9940    7.6251   16.9662 O   0  0  0  0  0  0  0  0  0  0  0  0
  -14.7298    8.2672   15.9617 C   0  0  2  0  0  0  0  0  0  0  0  0
  -15.0635    7.2137   14.8885 C   0  0  2  0  0  0  0  0  0  0  0  0
  -15.8481    6.1955   15.4718 O   0  0  0  0  0  0  0  0  0  0  0  0
  -13.7294    6.6279   14.3123 C   0  0  1  0  0  0  0  0  0  0  0  0
  -13.9648    5.5803   13.2890 N   0  3  0  0  0  0  0  0  0  0  0  0
  -13.5552    4.2460   13.7968 C   0  0  0  0  0  0  0  0  0  0  0  0
  -12.8780    7.7927   13.6995 C   0  0  2  0  0  0  0  0  0  0  0  0
  -13.6126    8.4305   12.6380 O   0  0  0  0  0  0  0  0  0  0  0  0
  -11.6254    7.3173   13.1407 C   0  0  0  0  0  0  0  0  0  0  0  0
  -12.6245    8.8936   14.7751 C   0  0  0  0  0  0  0  0  0  0  0  0
  -13.9200    9.3498   15.3771 O   0  0  0  0  0  0  0  0  0  0  0  0
  1  2  1  6  0  0  0
  1  3  1  0  0  0  0
  1 10  1  0  0  0  0
  3  4  1  6  0  0  0
  3  5  1  0  0  0  0
  5  6  1  1  0  0  0
  5  7  1  0  0  0  0
  7  8  1  6  0  0  0
  7  9  1  0  0  0  0
  9 10  1  1  0  0  0
  9 11  1  0  0  0  0
 11 12  1  6  0  0  0
 11 13  1  0  0  0  0
 14 15  1  6  0  0  0
 14 16  1  0  0  0  0
 14 22  1  0  0  0  0
 16 17  1  0  0  0  0
 17 18  1  1  0  0  0
 17 19  1  0  0  0  0
 19  2  1  1  0  0  0
 19 20  1  0  0  0  0
 20 21  1  6  0  0  0
 20 22  1  0  0  0  0
 22 23  1  6  0  0  0
 24 23  1  1  0  0  0
 24 25  1  0  0  0  0
 24 34  1  0  0  0  0
 25 26  1  1  0  0  0
 25 27  1  0  0  0  0
 27 28  1  6  0  0  0
 27 30  1  0  0  0  0
 28 29  1  0  0  0  0
 30 31  1  6  0  0  0
 30 32  1  0  0  0  0
 30 33  1  0  0  0  0
 33 34  1  0  0  0  0
M  CHG  4   4   1  15   1  18   1  28   1
M  END
>  <CHROM.1>
178.23401774,36.14080627,-105.17587944,61.87876052,-49.96395316,-62.22817299
56.10500794,69.34637368,-77.09188649,179.60308027,88.49143115,-174.29677276
163.12699487,9.02717315,-70.37610952,-12.23045796,7.00672633,17.97967576
0.85829162,-0.60806197,1.20352885

>  <Name>
1mwl

>  <RI>
0

>  <Rbt.Current_Directory>
/home/itssahil/PROJECTS/Mol_Feturizer/New_Systems/rnas/1mwl

>  <Rbt.Executable>
rbdock ($Id: //depot/dev/client3/rdock/2013.1/src/exe/rbdock.cxx#4 $)

>  <Rbt.Library>
libRbt.so (2013.1, Build901 2013/11/27)

>  <Rbt.Parameter_File>
/export/apps/rDock/src/rDock_2013.1_src/data/scripts/dock_solv.prm

>  <Rbt.Receptor>
prm/pocket_docking_4.prm

>  <SCORE>
-47.8162

>  <SCORE.INTER>
-31.5509

>  <SCORE.INTER.CONST>
1

>  <SCORE.INTER.POLAR>
-5.08883

>  <SCORE.INTER.ROT>
6

>  <SCORE.INTER.SOLV>
18.5665

>  <SCORE.INTER.VDW>
-17.86

>  <SCORE.INTER.norm>
-0.927968

>  <SCORE.INTRA>
-16.2653

>  <SCORE.INTRA.DIHEDRAL>
-26.3823

>  <SCORE.INTRA.DIHEDRAL.0>
42.0816

>  <SCORE.INTRA.POLAR>
-0.165651

>  <SCORE.INTRA.POLAR.0>
-0.254682

>  <SCORE.INTRA.REPUL>
0.0175112

>  <SCORE.INTRA.REPUL.0>
0

>  <SCORE.INTRA.SOLV>
0.447908

>  <SCORE.INTRA.SOLV.lig_0>
-109.803

>  <SCORE.INTRA.VDW>
-2.82243

>  <SCORE.INTRA.VDW.0>
0.32176

>  <SCORE.INTRA.norm>
-0.47839

>  <SCORE.RESTR>
0

>  <SCORE.RESTR.CAVITY>
0

>  <SCORE.RESTR.norm>
0

>  <SCORE.SYSTEM>
0

>  <SCORE.SYSTEM.CONST>
0

>  <SCORE.SYSTEM.DIHEDRAL>
0

>  <SCORE.SYSTEM.SOLV>
0

>  <SCORE.SYSTEM.norm>
0

>  <SCORE.heavy>
34

>  <SCORE.norm>
-1.40636

>  <RMSD>
3.630

$$$$
1mwl
 OpenBabel11021811403D
libRbt.so/2013.1/901 2013/11/27
 34 36  0  0  0  0  0  0  0  0999 V2000
   -9.3775    6.1756   18.6888 C   0  0  2  0  0  0  0  0  0  0  0  0
  -10.7334    6.4555   18.5106 O   0  0  0  0  0  0  0  0  0  0  0  0
   -8.9428    5.2266   17.5367 C   0  0  2  0  0  0  0  0  0  0  0  0
   -9.1858    5.8634   16.2386 N   0  3  0  0  0  0  0  0  0  0  0  0
   -9.6771    3.8583   17.6465 C   0  0  1  0  0  0  0  0  0  0  0  0
   -9.2838    3.0154   16.6590 O   0  0  0  0  0  0  0  0  0  0  0  0
   -9.3792    3.2437   19.0540 C   0  0  2  0  0  0  0  0  0  0  0  0
  -10.0379    1.9667   19.1871 O   0  0  0  0  0  0  0  0  0  0  0  0
   -9.8707    4.2529   20.1467 C   0  0  2  0  0  0  0  0  0  0  0  0
   -9.1883    5.5560   19.9865 O   0  0  0  0  0  0  0  0  0  0  0  0
   -9.6262    3.8012   21.5910 C   0  0  2  0  0  0  0  0  0  0  0  0
  -10.1578    2.5305   21.7807 O   0  0  0  0  0  0  0  0  0  0  0  0
  -10.2920    4.7084   22.6418 C   0  0  0  0  0  0  0  0  0  0  0  0
  -13.1317    9.8913   19.3494 C   0  0  2  0  0  0  0  0  0  0  0  0
  -13.6994   11.2612   19.2693 N   0  3  0  0  0  0  0  0  0  0  0  0
  -11.6175    9.9429   19.7106 C   0  0  0  0  0  0  0  0  0  0  0  0
  -11.0223    8.4897   19.7747 C   0  0  2  0  0  0  0  0  0  0  0  0
   -9.5594    8.5716   20.1351 N   0  3  0  0  0  0  0  0  0  0  0  0
  -11.2406    7.7788   18.3950 C   0  0  2  0  0  0  0  0  0  0  0  0
  -12.7535    7.7357   18.0689 C   0  0  2  0  0  0  0  0  0  0  0  0
  -12.9344    7.1263   16.8135 O   0  0  0  0  0  0  0  0  0  0  0  0
  -13.3219    9.1781   17.9937 C   0  0  1  0  0  0  0  0  0  0  0  0
  -14.7080    9.1145   17.6915 O   0  0  0  0  0  0  0  0  0  0  0  0
  -15.1435    9.5643   16.4382 C   0  0  2  0  0  0  0  0  0  0  0  0
  -16.6396    9.9080   16.5651 C   0  0  2  0  0  0  0  0  0  0  0  0
  -16.7957   10.9381   17.5175 O   0  0  0  0  0  0  0  0  0  0  0  0
  -17.4260    8.6242   16.9992 C   0  0  1  0  0  0  0  0  0  0  0  0
  -18.8768    8.8790   17.1731 N   0  3  0  0  0  0  0  0  0  0  0  0
  -19.2446    8.8708   18.6121 C   0  0  0  0  0  0  0  0  0  0  0  0
  -17.2047    7.4990   15.9306 C   0  0  2  0  0  0  0  0  0  0  0  0
  -17.6884    7.9396   14.6480 O   0  0  0  0  0  0  0  0  0  0  0  0
  -17.9127    6.2779   16.2695 C   0  0  0  0  0  0  0  0  0  0  0  0
  -15.6798    7.2254   15.7494 C   0  0  0  0  0  0  0  0  0  0  0  0
  -14.9495    8.4982   15.4405 O   0  0  0  0  0  0  0  0  0  0  0  0
  1  2  1  6  0  0  0
  1  3  1  0  0  0  0
  1 10  1  0  0  0  0
  3  4  1  6  0  0  0
  3  5  1  0  0  0  0
  5  6  1  6  0  0  0
  5  7  1  0  0  0  0
  7  8  1  6  0  0  0
  7  9  1  0  0  0  0
  9 10  1  6  0  0  0
  9 11  1  0  0  0  0
 11 12  1  6  0  0  0
 11 13  1  0  0  0  0
 14 15  1  6  0  0  0
 14 16  1  0  0  0  0
 14 22  1  0  0  0  0
 16 17  1  0  0  0  0
 17 18  1  6  0  0  0
 17 19  1  0  0  0  0
 19  2  1  1  0  0  0
 19 20  1  0  0  0  0
 20 21  1  6  0  0  0
 20 22  1  0  0  0  0
 22 23  1  1  0  0  0
 24 23  1  1  0  0  0
 24 25  1  0  0  0  0
 24 34  1  0  0  0  0
 25 26  1  1  0  0  0
 25 27  1  0  0  0  0
 27 28  1  6  0  0  0
 27 30  1  0  0  0  0
 28 29  1  0  0  0  0
 30 31  1  6  0  0  0
 30 32  1  0  0  0  0
 30 33  1  0  0  0  0
 33 34  1  0  0  0  0
M  CHG  4   4   1  15   1  18   1  28   1
M  END
>  <CHROM.1>
-123.74561826,-66.42050036,-53.72330586,-173.49810100,68.70538554,-53.06091339
-175.19890057,-177.93253579,163.44780525,-58.98310003,128.71125926,-158.09647364
177.88596538,12.38101813,64.15416396,-12.86624033,7.04587481,18.16936091
-0.36688648,-0.52345392,0.39116505

>  <Name>
1mwl

>  <RI>
0

>  <Rbt.Current_Directory>
/home/itssahil/PROJECTS/Mol_Feturizer/New_Systems/rnas/1mwl

>  <Rbt.Executable>
rbdock ($Id: //depot/dev/client3/rdock/2013.1/src/exe/rbdock.cxx#4 $)

>  <Rbt.Library>
libRbt.so (2013.1, Build901 2013/11/27)

>  <Rbt.Parameter_File>
/export/apps/rDock/src/rDock_2013.1_src/data/scripts/dock_solv.prm

>  <Rbt.Receptor>
prm/pocket_docking_8.prm

>  <SCORE>
-56.9197

>  <SCORE.INTER>
-42.0786

>  <SCORE.INTER.CONST>
1

>  <SCORE.INTER.POLAR>
-5.89494

>  <SCORE.INTER.ROT>
6

>  <SCORE.INTER.SOLV>
21.0326

>  <SCORE.INTER.VDW>
-23.0135

>  <SCORE.INTER.norm>
-1.23761

>  <SCORE.INTRA>
-14.8411

>  <SCORE.INTRA.DIHEDRAL>
-20.713

>  <SCORE.INTRA.DIHEDRAL.0>
42.0816

>  <SCORE.INTRA.POLAR>
-0.793827

>  <SCORE.INTRA.POLAR.0>
-0.254682

>  <SCORE.INTRA.REPUL>
0

>  <SCORE.INTRA.REPUL.0>
0

>  <SCORE.INTRA.SOLV>
0.581332

>  <SCORE.INTRA.SOLV.lig_0>
-109.803

>  <SCORE.INTRA.VDW>
-2.07621

>  <SCORE.INTRA.VDW.0>
0.32176

>  <SCORE.INTRA.norm>
-0.436502

>  <SCORE.RESTR>
0

>  <SCORE.RESTR.CAVITY>
0

>  <SCORE.RESTR.norm>
0

>  <SCORE.SYSTEM>
0

>  <SCORE.SYSTEM.CONST>
0

>  <SCORE.SYSTEM.DIHEDRAL>
0

>  <SCORE.SYSTEM.SOLV>
0

>  <SCORE.SYSTEM.norm>
0

>  <SCORE.heavy>
34

>  <SCORE.norm>
-1.67411

>  <RMSD>
3.637

$$$$
1mwl
 OpenBabel11021811403D
libRbt.so/2013.1/901 2013/11/27
 34 36  0  0  0  0  0  0  0  0999 V2000
  -11.6955    8.4696   20.8596 C   0  0  2  0  0  0  0  0  0  0  0  0
  -11.3081    9.4617   19.9572 O   0  0  0  0  0  0  0  0  0  0  0  0
  -10.5065    8.2364   21.8336 C   0  0  2  0  0  0  0  0  0  0  0  0
  -10.1710    9.4828   22.5290 N   0  3  0  0  0  0  0  0  0  0  0  0
   -9.2774    7.6607   21.0711 C   0  0  1  0  0  0  0  0  0  0  0  0
   -8.2439    7.4305   21.9191 O   0  0  0  0  0  0  0  0  0  0  0  0
   -9.7104    6.3412   20.3507 C   0  0  2  0  0  0  0  0  0  0  0  0
   -8.5901    5.7735   19.6401 O   0  0  0  0  0  0  0  0  0  0  0  0
  -10.8904    6.6759   19.3763 C   0  0  2  0  0  0  0  0  0  0  0  0
  -12.0238    7.2629   20.1247 O   0  0  0  0  0  0  0  0  0  0  0  0
  -11.4459    5.4719   18.6070 C   0  0  2  0  0  0  0  0  0  0  0  0
  -11.6201    4.4007   19.4761 O   0  0  0  0  0  0  0  0  0  0  0  0
  -10.5142    4.9721   17.4879 C   0  0  0  0  0  0  0  0  0  0  0  0
  -15.0055   10.4128   18.0378 C   0  0  2  0  0  0  0  0  0  0  0  0
  -15.9838   10.9958   17.0847 N   0  3  0  0  0  0  0  0  0  0  0  0
  -14.2796   11.5352   18.8372 C   0  0  0  0  0  0  0  0  0  0  0  0
  -13.2338   10.9089   19.8294 C   0  0  2  0  0  0  0  0  0  0  0  0
  -12.5548   12.0179   20.5946 N   0  3  0  0  0  0  0  0  0  0  0  0
  -12.2039   10.0473   19.0211 C   0  0  2  0  0  0  0  0  0  0  0  0
  -12.9542    8.9370   18.2455 C   0  0  2  0  0  0  0  0  0  0  0  0
  -12.0238    8.1919   17.4975 O   0  0  0  0  0  0  0  0  0  0  0  0
  -13.9709    9.5722   17.2596 C   0  0  1  0  0  0  0  0  0  0  0  0
  -14.6446    8.5373   16.5585 O   0  0  0  0  0  0  0  0  0  0  0  0
  -14.9761    8.7431   15.2130 C   0  0  2  0  0  0  0  0  0  0  0  0
  -15.2144    7.3595   14.5790 C   0  0  2  0  0  0  0  0  0  0  0  0
  -16.2909    6.7298   15.2403 O   0  0  0  0  0  0  0  0  0  0  0  0
  -13.9069    6.5054   14.7051 C   0  0  1  0  0  0  0  0  0  0  0  0
  -14.0631    5.1420   14.1423 N   0  3  0  0  0  0  0  0  0  0  0  0
  -14.5005    5.2042   12.7242 C   0  0  0  0  0  0  0  0  0  0  0  0
  -12.7330    7.2514   13.9823 C   0  0  2  0  0  0  0  0  0  0  0  0
  -13.0499    7.4293   12.5890 O   0  0  0  0  0  0  0  0  0  0  0  0
  -11.4874    6.5095   14.0565 C   0  0  0  0  0  0  0  0  0  0  0  0
  -12.5631    8.6839   14.5758 C   0  0  0  0  0  0  0  0  0  0  0  0
  -13.8638    9.4290   14.5335 O   0  0  0  0  0  0  0  0  0  0  0  0
  1  2  1  6  0  0  0
  1  3  1  0  0  0  0
  1 10  1  0  0  0  0
  3  4  1  6  0  0  0
  3  5  1  0  0  0  0
  5  6  1  1  0  0  0
  5  7  1  0  0  0  0
  7  8  1  6  0  0  0
  7  9  1  0  0  0  0
  9 10  1  1  0  0  0
  9 11  1  0  0  0  0
 11 12  1  1  0  0  0
 11 13  1  0  0  0  0
 14 15  1  6  0  0  0
 14 16  1  0  0  0  0
 14 22  1  0  0  0  0
 16 17  1  0  0  0  0
 17 18  1  6  0  0  0
 17 19  1  0  0  0  0
 19  2  1  1  0  0  0
 19 20  1  0  0  0  0
 20 21  1  6  0  0  0
 20 22  1  0  0  0  0
 22 23  1  1  0  0  0
 24 23  1  1  0  0  0
 24 25  1  0  0  0  0
 24 34  1  0  0  0  0
 25 26  1  1  0  0  0
 25 27  1  0  0  0  0
 27 28  1  6  0  0  0
 27 30  1  0  0  0  0
 28 29  1  0  0  0  0
 30 31  1  6  0  0  0
 30 32  1  0  0  0  0
 30 33  1  0  0  0  0
 33 34  1  0  0  0  0
M  CHG  4   4   1  15   1  18   1  28   1
M  END
>  <CHROM.1>
-172.14739837,68.87221078,55.18309440,-60.83750084,-76.38327799,45.51400862
-61.77627535,-47.95623932,45.25178970,-48.76432223,96.11827228,160.13767834
160.84830375,176.14786373,-177.41711616,-12.49577374,7.98276685,17.72487066
0.76559321,-0.79454036,0.81171676

>  <Name>
1mwl

>  <RI>
0

>  <Rbt.Current_Directory>
/home/itssahil/PROJECTS/Mol_Feturizer/New_Systems/rnas/1mwl

>  <Rbt.Executable>
rbdock ($Id: //depot/dev/client3/rdock/2013.1/src/exe/rbdock.cxx#4 $)

>  <Rbt.Library>
libRbt.so (2013.1, Build901 2013/11/27)

>  <Rbt.Parameter_File>
/export/apps/rDock/src/rDock_2013.1_src/data/scripts/dock_solv.prm

>  <Rbt.Receptor>
prm/pocket_docking_2.prm

>  <SCORE>
-36.4213

>  <SCORE.INTER>
-26.6527

>  <SCORE.INTER.CONST>
1

>  <SCORE.INTER.POLAR>
-4.20883

>  <SCORE.INTER.ROT>
6

>  <SCORE.INTER.SOLV>
22.2186

>  <SCORE.INTER.VDW>
-18.7453

>  <SCORE.INTER.norm>
-0.783904

>  <SCORE.INTRA>
-11.8075

>  <SCORE.INTRA.DIHEDRAL>
-29.5398

>  <SCORE.INTRA.DIHEDRAL.0>
42.0816

>  <SCORE.INTRA.POLAR>
0.254682

>  <SCORE.INTRA.POLAR.0>
-0.254682

>  <SCORE.INTRA.REPUL>
0

>  <SCORE.INTRA.REPUL.0>
0

>  <SCORE.INTRA.SOLV>
-0.659031

>  <SCORE.INTRA.SOLV.lig_0>
-109.803

>  <SCORE.INTRA.VDW>
2.42604

>  <SCORE.INTRA.VDW.0>
0.32176

>  <SCORE.INTRA.norm>
-0.347278

>  <SCORE.RESTR>
2.03891

>  <SCORE.RESTR.CAVITY>
2.03891

>  <SCORE.RESTR.norm>
0.0599678

>  <SCORE.SYSTEM>
0

>  <SCORE.SYSTEM.CONST>
0

>  <SCORE.SYSTEM.DIHEDRAL>
0

>  <SCORE.SYSTEM.SOLV>
0

>  <SCORE.SYSTEM.norm>
0

>  <SCORE.heavy>
34

>  <SCORE.norm>
-1.07121

>  <RMSD>
3.710

$$$$
1mwl
 OpenBabel11021811403D
libRbt.so/2013.1/901 2013/11/27
 34 36  0  0  0  0  0  0  0  0999 V2000
  -11.0343    7.9465   20.7290 C   0  0  2  0  0  0  0  0  0  0  0  0
  -10.6693    8.9161   19.7933 O   0  0  0  0  0  0  0  0  0  0  0  0
  -10.0296    8.0397   21.9117 C   0  0  2  0  0  0  0  0  0  0  0  0
  -10.0643    9.3823   22.4996 N   0  3  0  0  0  0  0  0  0  0  0  0
   -8.5944    7.6594   21.4437 C   0  0  1  0  0  0  0  0  0  0  0  0
   -7.7165    7.7136   22.4764 O   0  0  0  0  0  0  0  0  0  0  0  0
   -8.6359    6.2237   20.8235 C   0  0  2  0  0  0  0  0  0  0  0  0
   -7.3169    5.8338   20.3868 O   0  0  0  0  0  0  0  0  0  0  0  0
   -9.6502    6.2314   19.6298 C   0  0  2  0  0  0  0  0  0  0  0  0
  -10.9925    6.6407   20.0989 O   0  0  0  0  0  0  0  0  0  0  0  0
   -9.8215    4.8798   18.9270 C   0  0  2  0  0  0  0  0  0  0  0  0
   -9.9751    3.8749   19.8756 O   0  0  0  0  0  0  0  0  0  0  0  0
   -8.6125    4.4763   18.0634 C   0  0  0  0  0  0  0  0  0  0  0  0
  -14.4780   10.2830   18.4205 C   0  0  2  0  0  0  0  0  0  0  0  0
  -15.5111   11.0192   17.6484 N   0  3  0  0  0  0  0  0  0  0  0  0
  -13.5883   11.2713   19.2315 C   0  0  0  0  0  0  0  0  0  0  0  0
  -12.4871   10.4840   20.0301 C   0  0  2  0  0  0  0  0  0  0  0  0
  -11.6487   11.4654   20.8115 N   0  3  0  0  0  0  0  0  0  0  0  0
  -11.6186    9.6480   19.0286 C   0  0  2  0  0  0  0  0  0  0  0  0
  -12.5289    8.6708   18.2453 C   0  0  2  0  0  0  0  0  0  0  0  0
  -11.7439    7.9504   17.3261 O   0  0  0  0  0  0  0  0  0  0  0  0
  -13.6000    9.4645   17.4502 C   0  0  1  0  0  0  0  0  0  0  0  0
  -14.4206    8.5498   16.7386 O   0  0  0  0  0  0  0  0  0  0  0  0
  -14.5197    7.2327   17.2054 C   0  0  2  0  0  0  0  0  0  0  0  0
  -15.6148    6.5311   16.3800 C   0  0  2  0  0  0  0  0  0  0  0  0
  -15.2327    6.5236   15.0211 O   0  0  0  0  0  0  0  0  0  0  0  0
  -16.9702    7.2930   16.5733 C   0  0  1  0  0  0  0  0  0  0  0  0
  -18.0748    6.6951   15.7843 N   0  3  0  0  0  0  0  0  0  0  0  0
  -18.5394    7.6348   14.7320 C   0  0  0  0  0  0  0  0  0  0  0  0
  -17.3436    7.3012   18.0956 C   0  0  2  0  0  0  0  0  0  0  0  0
  -17.4877    5.9500   18.5720 O   0  0  0  0  0  0  0  0  0  0  0  0
  -18.5968    7.9897   18.3463 C   0  0  0  0  0  0  0  0  0  0  0  0
  -16.1857    7.9341   18.9273 C   0  0  0  0  0  0  0  0  0  0  0  0
  -14.8872    7.2446   18.6317 O   0  0  0  0  0  0  0  0  0  0  0  0
  1  2  1  6  0  0  0
  1  3  1  0  0  0  0
  1 10  1  0  0  0  0
  3  4  1  6  0  0  0
  3  5  1  0  0  0  0
  5  6  1  1  0  0  0
  5  7  1  0  0  0  0
  7  8  1  6  0  0  0
  7  9  1  0  0  0  0
  9 10  1  1  0  0  0
  9 11  1  0  0  0  0
 11 12  1  1  0  0  0
 11 13  1  0  0  0  0
 14 15  1  6  0  0  0
 14 16  1  0  0  0  0
 14 22  1  0  0  0  0
 16 17  1  0  0  0  0
 17 18  1  6  0  0  0
 17 19  1  0  0  0  0
 19  2  1  1  0  0  0
 19 20  1  0  0  0  0
 20 21  1  6  0  0  0
 20 22  1  0  0  0  0
 22 23  1  1  0  0  0
 24 23  1  6  0  0  0
 24 25  1  0  0  0  0
 24 34  1  0  0  0  0
 25 26  1  6  0  0  0
 25 27  1  0  0  0  0
 27 28  1  6  0  0  0
 27 30  1  0  0  0  0
 28 29  1  0  0  0  0
 30 31  1  1  0  0  0
 30 32  1  0  0  0  0
 30 33  1  0  0  0  0
 33 34  1  0  0  0  0
M  CHG  4   4   1  15   1  18   1  28   1
M  END
>  <CHROM.1>
-143.89389600,62.77373846,178.65225577,52.13854501,70.41301674,46.17583464
173.90085237,-64.98706667,-129.82455092,-61.82083593,-96.34867981,171.97020235
-178.78289232,5.73116405,56.56328833,-12.86927296,7.77756185,18.82470715
0.11288881,-0.45978270,0.40387979

>  <Name>
1mwl

>  <RI>
0

>  <Rbt.Current_Directory>
/home/itssahil/PROJECTS/Mol_Feturizer/New_Systems/rnas/1mwl

>  <Rbt.Executable>
rbdock ($Id: //depot/dev/client3/rdock/2013.1/src/exe/rbdock.cxx#4 $)

>  <Rbt.Library>
libRbt.so (2013.1, Build901 2013/11/27)

>  <Rbt.Parameter_File>
/export/apps/rDock/src/rDock_2013.1_src/data/scripts/dock_solv.prm

>  <Rbt.Receptor>
prm/pocket_docking_5.prm

>  <SCORE>
-45.1349

>  <SCORE.INTER>
-37.8799

>  <SCORE.INTER.CONST>
1

>  <SCORE.INTER.POLAR>
-7.20075

>  <SCORE.INTER.ROT>
6

>  <SCORE.INTER.SOLV>
26.076

>  <SCORE.INTER.VDW>
-17.5428

>  <SCORE.INTER.norm>
-1.11412

>  <SCORE.INTRA>
-7.65461

>  <SCORE.INTRA.DIHEDRAL>
-23.4957

>  <SCORE.INTRA.DIHEDRAL.0>
42.0816

>  <SCORE.INTRA.POLAR>
0.246701

>  <SCORE.INTRA.POLAR.0>
-0.254682

>  <SCORE.INTRA.REPUL>
0.106278

>  <SCORE.INTRA.REPUL.0>
0

>  <SCORE.INTRA.SOLV>
4.57236

>  <SCORE.INTRA.SOLV.lig_0>
-109.803

>  <SCORE.INTRA.VDW>
0.436877

>  <SCORE.INTRA.VDW.0>
0.32176

>  <SCORE.INTRA.norm>
-0.225136

>  <SCORE.RESTR>
0.399631

>  <SCORE.RESTR.CAVITY>
0.399631

>  <SCORE.RESTR.norm>
0.0117539

>  <SCORE.SYSTEM>
0

>  <SCORE.SYSTEM.CONST>
0

>  <SCORE.SYSTEM.DIHEDRAL>
0

>  <SCORE.SYSTEM.SOLV>
0

>  <SCORE.SYSTEM.norm>
0

>  <SCORE.heavy>
34

>  <SCORE.norm>
-1.3275

>  <RMSD>
3.803

$$$$
1mwl
 OpenBabel11021811403D
libRbt.so/2013.1/901 2013/11/27
 34 36  0  0  0  0  0  0  0  0999 V2000
  -10.9710    5.5526   21.8415 C   0  0  2  0  0  0  0  0  0  0  0  0
  -10.5433    5.9158   20.5633 O   0  0  0  0  0  0  0  0  0  0  0  0
  -10.2167    4.2505   22.2322 C   0  0  2  0  0  0  0  0  0  0  0  0
   -8.7685    4.4774   22.2031 N   0  3  0  0  0  0  0  0  0  0  0  0
  -10.6284    3.0762   21.2967 C   0  0  1  0  0  0  0  0  0  0  0  0
   -9.9933    1.9301   21.6476 O   0  0  0  0  0  0  0  0  0  0  0  0
  -12.1808    2.8980   21.3733 C   0  0  2  0  0  0  0  0  0  0  0  0
  -12.5975    1.8086   20.5237 O   0  0  0  0  0  0  0  0  0  0  0  0
  -12.8537    4.2449   20.9408 C   0  0  2  0  0  0  0  0  0  0  0  0
  -12.4068    5.3478   21.8201 O   0  0  0  0  0  0  0  0  0  0  0  0
  -14.3860    4.2379   20.9858 C   0  0  2  0  0  0  0  0  0  0  0  0
  -14.8720    5.4762   20.5812 O   0  0  0  0  0  0  0  0  0  0  0  0
  -14.9605    3.9877   22.3921 C   0  0  0  0  0  0  0  0  0  0  0  0
  -12.8190    9.4403   19.7521 C   0  0  2  0  0  0  0  0  0  0  0  0
  -13.2570   10.7182   19.1351 N   0  3  0  0  0  0  0  0  0  0  0  0
  -11.4222    9.6024   20.4217 C   0  0  0  0  0  0  0  0  0  0  0  0
  -10.9598    8.2404   21.0552 C   0  0  2  0  0  0  0  0  0  0  0  0
   -9.6105    8.4309   21.7031 N   0  3  0  0  0  0  0  0  0  0  0  0
  -10.9178    7.1384   19.9415 C   0  0  2  0  0  0  0  0  0  0  0  0
  -12.3206    6.9952   19.3021 C   0  0  2  0  0  0  0  0  0  0  0  0
  -12.2624    6.0282   18.2816 O   0  0  0  0  0  0  0  0  0  0  0  0
  -12.7552    8.3436   18.6678 C   0  0  1  0  0  0  0  0  0  0  0  0
  -14.0413    8.1885   18.0861 O   0  0  0  0  0  0  0  0  0  0  0  0
  -14.3259    8.8681   16.8945 C   0  0  2  0  0  0  0  0  0  0  0  0
  -15.7739    8.5215   16.4995 C   0  0  2  0  0  0  0  0  0  0  0  0
  -16.6467    8.9646   17.5166 O   0  0  0  0  0  0  0  0  0  0  0  0
  -15.8939    6.9722   16.2984 C   0  0  1  0  0  0  0  0  0  0  0  0
  -17.2711    6.5510   15.9436 N   0  3  0  0  0  0  0  0  0  0  0  0
  -17.8276    5.6426   16.9786 C   0  0  0  0  0  0  0  0  0  0  0  0
  -14.8914    6.5188   15.1820 C   0  0  2  0  0  0  0  0  0  0  0  0
  -15.2045    7.1828   13.9433 O   0  0  0  0  0  0  0  0  0  0  0  0
  -14.9545    5.0888   14.9401 C   0  0  0  0  0  0  0  0  0  0  0  0
  -13.4413    6.9560   15.5550 C   0  0  0  0  0  0  0  0  0  0  0  0
  -13.3927    8.4268   15.8438 O   0  0  0  0  0  0  0  0  0  0  0  0
  1  2  1  6  0  0  0
  1  3  1  0  0  0  0
  1 10  1  0  0  0  0
  3  4  1  6  0  0  0
  3  5  1  0  0  0  0
  5  6  1  1  0  0  0
  5  7  1  0  0  0  0
  7  8  1  6  0  0  0
  7  9  1  0  0  0  0
  9 10  1  1  0  0  0
  9 11  1  0  0  0  0
 11 12  1  1  0  0  0
 11 13  1  0  0  0  0
 14 15  1  6  0  0  0
 14 16  1  0  0  0  0
 14 22  1  0  0  0  0
 16 17  1  0  0  0  0
 17 18  1  6  0  0  0
 17 19  1  0  0  0  0
 19  2  1  1  0  0  0
 19 20  1  0  0  0  0
 20 21  1  6  0  0  0
 20 22  1  0  0  0  0
 22 23  1  1  0  0  0
 24 23  1  1  0  0  0
 24 25  1  0  0  0  0
 24 34  1  0  0  0  0
 25 26  1  1  0  0  0
 25 27  1  0  0  0  0
 27 28  1  6  0  0  0
 27 30  1  0  0  0  0
 28 29  1  0  0  0  0
 30 31  1  6  0  0  0
 30 32  1  0  0  0  0
 30 33  1  0  0  0  0
 33 34  1  0  0  0  0
M  CHG  4   4   1  15   1  18   1  28   1
M  END
>  <CHROM.1>
-173.11687714,36.99000928,70.77473870,58.04211266,179.85838485,-179.86495628
61.92467425,179.47233479,136.09874563,61.84314242,96.04009282,-179.92165758
-59.20016351,1.79698528,-59.38638326,-13.10299925,6.34183855,19.12585843
-0.65850241,-0.74441912,-0.33044508

>  <Name>
1mwl

>  <RI>
0

>  <Rbt.Current_Directory>
/home/itssahil/PROJECTS/Mol_Feturizer/New_Systems/rnas/1mwl

>  <Rbt.Executable>
rbdock ($Id: //depot/dev/client3/rdock/2013.1/src/exe/rbdock.cxx#4 $)

>  <Rbt.Library>
libRbt.so (2013.1, Build901 2013/11/27)

>  <Rbt.Parameter_File>
/export/apps/rDock/src/rDock_2013.1_src/data/scripts/dock_solv.prm

>  <Rbt.Receptor>
prm/pocket_docking_7.prm

>  <SCORE>
-49.6385

>  <SCORE.INTER>
-33.0608

>  <SCORE.INTER.CONST>
1

>  <SCORE.INTER.POLAR>
-5.43796

>  <SCORE.INTER.ROT>
6

>  <SCORE.INTER.SOLV>
16.577

>  <SCORE.INTER.VDW>
-17.0397

>  <SCORE.INTER.norm>
-0.972378

>  <SCORE.INTRA>
-16.5777

>  <SCORE.INTRA.DIHEDRAL>
-27.8054

>  <SCORE.INTRA.DIHEDRAL.0>
42.0816

>  <SCORE.INTRA.POLAR>
0.221689

>  <SCORE.INTRA.POLAR.0>
-0.254682

>  <SCORE.INTRA.REPUL>
0

>  <SCORE.INTRA.REPUL.0>
0

>  <SCORE.INTRA.SOLV>
-0.0643955

>  <SCORE.INTRA.SOLV.lig_0>
-109.803

>  <SCORE.INTRA.VDW>
-3.39653

>  <SCORE.INTRA.VDW.0>
0.32176

>  <SCORE.INTRA.norm>
-0.48758

>  <SCORE.RESTR>
0

>  <SCORE.RESTR.CAVITY>
0

>  <SCORE.RESTR.norm>
0

>  <SCORE.SYSTEM>
0

>  <SCORE.SYSTEM.CONST>
0

>  <SCORE.SYSTEM.DIHEDRAL>
0

>  <SCORE.SYSTEM.SOLV>
0

>  <SCORE.SYSTEM.norm>
0

>  <SCORE.heavy>
34

>  <SCORE.norm>
-1.45996

>  <RMSD>
3.811

$$$$
1mwl
 OpenBabel11021811403D
libRbt.so/2013.1/901 2013/11/27
 34 36  0  0  0  0  0  0  0  0999 V2000
  -11.1349    8.6574   21.2366 C   0  0  2  0  0  0  0  0  0  0  0  0
  -10.7830    9.2863   20.0410 O   0  0  0  0  0  0  0  0  0  0  0  0
   -9.9750    7.6935   21.6143 C   0  0  2  0  0  0  0  0  0  0  0  0
   -8.7227    8.4420   21.7585 N   0  3  0  0  0  0  0  0  0  0  0  0
   -9.8411    6.5564   20.5594 C   0  0  1  0  0  0  0  0  0  0  0  0
   -8.8473    5.6965   20.8958 O   0  0  0  0  0  0  0  0  0  0  0  0
  -11.2115    5.8092   20.4545 C   0  0  2  0  0  0  0  0  0  0  0  0
  -11.1206    4.7395   19.4902 O   0  0  0  0  0  0  0  0  0  0  0  0
  -12.3101    6.8490   20.0473 C   0  0  2  0  0  0  0  0  0  0  0  0
  -12.3805    7.9392   21.0452 O   0  0  0  0  0  0  0  0  0  0  0  0
  -13.7245    6.2707   19.9251 C   0  0  2  0  0  0  0  0  0  0  0  0
  -14.6274    7.2938   19.6583 O   0  0  0  0  0  0  0  0  0  0  0  0
  -14.2216    5.5807   21.2086 C   0  0  0  0  0  0  0  0  0  0  0  0
  -14.4766   11.0706   18.8441 C   0  0  2  0  0  0  0  0  0  0  0  0
  -15.4602   11.9011   18.1037 N   0  3  0  0  0  0  0  0  0  0  0  0
  -13.4187   11.9689   19.5509 C   0  0  0  0  0  0  0  0  0  0  0  0
  -12.3723   11.0801   20.3159 C   0  0  2  0  0  0  0  0  0  0  0  0
  -11.3679   11.9769   20.9968 N   0  3  0  0  0  0  0  0  0  0  0  0
  -11.6836   10.1024   19.3030 C   0  0  2  0  0  0  0  0  0  0  0  0
  -12.7586    9.2187   18.6244 C   0  0  2  0  0  0  0  0  0  0  0  0
  -12.1327    8.3694   17.6933 O   0  0  0  0  0  0  0  0  0  0  0  0
  -13.7742   10.1102   17.8608 C   0  0  1  0  0  0  0  0  0  0  0  0
  -14.7480    9.2800   17.2452 O   0  0  0  0  0  0  0  0  0  0  0  0
  -15.2373    9.6409   15.9831 C   0  0  2  0  0  0  0  0  0  0  0  0
  -16.5525    8.8706   15.7599 C   0  0  2  0  0  0  0  0  0  0  0  0
  -17.4814    9.2490   16.7531 O   0  0  0  0  0  0  0  0  0  0  0  0
  -16.2632    7.3321   15.8249 C   0  0  1  0  0  0  0  0  0  0  0  0
  -17.4892    6.5161   15.6481 N   0  3  0  0  0  0  0  0  0  0  0  0
  -17.6631    5.5735   16.7827 C   0  0  0  0  0  0  0  0  0  0  0  0
  -15.2094    6.9594   14.7259 C   0  0  2  0  0  0  0  0  0  0  0  0
  -15.7235    7.2900   13.4222 O   0  0  0  0  0  0  0  0  0  0  0  0
  -14.8980    5.5415   14.7271 C   0  0  0  0  0  0  0  0  0  0  0  0
  -13.9169    7.8125   14.9125 C   0  0  0  0  0  0  0  0  0  0  0  0
  -14.2516    9.2738   14.9520 O   0  0  0  0  0  0  0  0  0  0  0  0
  1  2  1  6  0  0  0
  1  3  1  0  0  0  0
  1 10  1  0  0  0  0
  3  4  1  6  0  0  0
  3  5  1  0  0  0  0
  5  6  1  1  0  0  0
  5  7  1  0  0  0  0
  7  8  1  6  0  0  0
  7  9  1  0  0  0  0
  9 10  1  1  0  0  0
  9 11  1  0  0  0  0
 11 12  1  1  0  0  0
 11 13  1  0  0  0  0
 14 15  1  6  0  0  0
 14 16  1  0  0  0  0
 14 22  1  0  0  0  0
 16 17  1  0  0  0  0
 17 18  1  6  0  0  0
 17 19  1  0  0  0  0
 19  2  1  1  0  0  0
 19 20  1  0  0  0  0
 20 21  1  6  0  0  0
 20 22  1  0  0  0  0
 22 23  1  1  0  0  0
 24 23  1  1  0  0  0
 24 25  1  0  0  0  0
 24 34  1  0  0  0  0
 25 26  1  1  0  0  0
 25 27  1  0  0  0  0
 27 28  1  6  0  0  0
 27 30  1  0  0  0  0
 28 29  1  0  0  0  0
 30 31  1  6  0  0  0
 30 32  1  0  0  0  0
 30 33  1  0  0  0  0
 33 34  1  0  0  0  0
M  CHG  4   4   1  15   1  18   1  28   1
M  END
>  <CHROM.1>
171.32979942,46.92326215,96.96479905,-174.73006685,65.90502696,175.63468758
69.39574050,-53.63947186,-162.96404035,57.07388635,96.74926824,-162.14751048
65.38409425,-5.16395618,178.08468136,-13.39912534,8.22652423,18.40411504
0.13365248,-0.76165786,0.17263193

>  <Name>
1mwl

>  <RI>
0

>  <Rbt.Current_Directory>
/home/itssahil/PROJECTS/Mol_Feturizer/New_Systems/rnas/1mwl

>  <Rbt.Executable>
rbdock ($Id: //depot/dev/client3/rdock/2013.1/src/exe/rbdock.cxx#4 $)

>  <Rbt.Library>
libRbt.so (2013.1, Build901 2013/11/27)

>  <Rbt.Parameter_File>
/export/apps/rDock/src/rDock_2013.1_src/data/scripts/dock_solv.prm

>  <Rbt.Receptor>
prm/pocket_docking_5.prm

>  <SCORE>
-40.5721

>  <SCORE.INTER>
-24.1457

>  <SCORE.INTER.CONST>
1

>  <SCORE.INTER.POLAR>
-3.61153

>  <SCORE.INTER.ROT>
6

>  <SCORE.INTER.SOLV>
25.8012

>  <SCORE.INTER.VDW>
-20.2591

>  <SCORE.INTER.norm>
-0.710169

>  <SCORE.INTRA>
-16.4263

>  <SCORE.INTRA.DIHEDRAL>
-26.8182

>  <SCORE.INTRA.DIHEDRAL.0>
42.0816

>  <SCORE.INTRA.POLAR>
-0.675709

>  <SCORE.INTRA.POLAR.0>
-0.254682

>  <SCORE.INTRA.REPUL>
0

>  <SCORE.INTRA.REPUL.0>
0

>  <SCORE.INTRA.SOLV>
0.299769

>  <SCORE.INTRA.SOLV.lig_0>
-109.803

>  <SCORE.INTRA.VDW>
-0.86968

>  <SCORE.INTRA.VDW.0>
0.32176

>  <SCORE.INTRA.norm>
-0.483127

>  <SCORE.RESTR>
0

>  <SCORE.RESTR.CAVITY>
0

>  <SCORE.RESTR.norm>
0

>  <SCORE.SYSTEM>
0

>  <SCORE.SYSTEM.CONST>
0

>  <SCORE.SYSTEM.DIHEDRAL>
0

>  <SCORE.SYSTEM.SOLV>
0

>  <SCORE.SYSTEM.norm>
0

>  <SCORE.heavy>
34

>  <SCORE.norm>
-1.1933

>  <RMSD>
3.815

$$$$
1mwl
 OpenBabel11021811403D
libRbt.so/2013.1/901 2013/11/27
 34 36  0  0  0  0  0  0  0  0999 V2000
  -11.5755    8.1349   20.7339 C   0  0  2  0  0  0  0  0  0  0  0  0
  -11.1073    8.9963   19.7403 O   0  0  0  0  0  0  0  0  0  0  0  0
  -10.4244    7.9390   21.7603 C   0  0  2  0  0  0  0  0  0  0  0  0
  -10.0256    9.2318   22.3252 N   0  3  0  0  0  0  0  0  0  0  0  0
   -9.2183    7.2095   21.0994 C   0  0  1  0  0  0  0  0  0  0  0  0
   -8.2196    7.0120   21.9959 O   0  0  0  0  0  0  0  0  0  0  0  0
   -9.7185    5.8473   20.5148 C   0  0  2  0  0  0  0  0  0  0  0  0
   -8.6217    5.1380   19.9016 O   0  0  0  0  0  0  0  0  0  0  0  0
  -10.8542    6.1434   19.4773 C   0  0  2  0  0  0  0  0  0  0  0  0
  -11.9639    6.8767   20.1256 O   0  0  0  0  0  0  0  0  0  0  0  0
  -11.4683    4.8978   18.8281 C   0  0  2  0  0  0  0  0  0  0  0  0
  -11.9198    4.0293   19.8156 O   0  0  0  0  0  0  0  0  0  0  0  0
  -10.4730    4.0953   17.9704 C   0  0  0  0  0  0  0  0  0  0  0  0
  -14.3738    9.1156   16.9880 C   0  0  2  0  0  0  0  0  0  0  0  0
  -15.2570    9.5462   15.8744 N   0  3  0  0  0  0  0  0  0  0  0  0
  -14.2930   10.2186   18.0847 C   0  0  0  0  0  0  0  0  0  0  0  0
  -13.3419    9.7610   19.2492 C   0  0  2  0  0  0  0  0  0  0  0  0
  -13.2913   10.8439   20.2987 N   0  3  0  0  0  0  0  0  0  0  0  0
  -11.9203    9.4516   18.6663 C   0  0  2  0  0  0  0  0  0  0  0  0
  -12.0328    8.3474   17.5869 C   0  0  2  0  0  0  0  0  0  0  0  0
  -10.7565    8.1025   17.0472 O   0  0  0  0  0  0  0  0  0  0  0  0
  -12.9622    8.8211   16.4375 C   0  0  1  0  0  0  0  0  0  0  0  0
  -13.0486    7.7953   15.4593 O   0  0  0  0  0  0  0  0  0  0  0  0
  -12.4294    7.9963   14.2188 C   0  0  2  0  0  0  0  0  0  0  0  0
  -13.0812    7.0269   13.2146 C   0  0  2  0  0  0  0  0  0  0  0  0
  -14.4564    7.3281   13.1110 O   0  0  0  0  0  0  0  0  0  0  0  0
  -12.8690    5.5557   13.7102 C   0  0  1  0  0  0  0  0  0  0  0  0
  -13.4956    4.5575   12.8096 N   0  3  0  0  0  0  0  0  0  0  0  0
  -14.8839    4.2553   13.2425 C   0  0  0  0  0  0  0  0  0  0  0  0
  -11.3326    5.2717   13.8371 C   0  0  2  0  0  0  0  0  0  0  0  0
  -10.6966    5.4363   12.5558 O   0  0  0  0  0  0  0  0  0  0  0  0
  -11.0634    3.9187   14.2889 C   0  0  0  0  0  0  0  0  0  0  0  0
  -10.6718    6.3171   14.7878 C   0  0  0  0  0  0  0  0  0  0  0  0
  -10.9891    7.7121   14.3383 O   0  0  0  0  0  0  0  0  0  0  0  0
  1  2  1  6  0  0  0
  1  3  1  0  0  0  0
  1 10  1  0  0  0  0
  3  4  1  6  0  0  0
  3  5  1  0  0  0  0
  5  6  1  1  0  0  0
  5  7  1  0  0  0  0
  7  8  1  6  0  0  0
  7  9  1  0  0  0  0
  9 10  1  1  0  0  0
  9 11  1  0  0  0  0
 11 12  1  1  0  0  0
 11 13  1  0  0  0  0
 14 15  1  6  0  0  0
 14 16  1  0  0  0  0
 14 22  1  0  0  0  0
 16 17  1  0  0  0  0
 17 18  1  1  0  0  0
 17 19  1  0  0  0  0
 19  2  1  1  0  0  0
 19 20  1  0  0  0  0
 20 21  1  6  0  0  0
 20 22  1  0  0  0  0
 22 23  1  6  0  0  0
 24 23  1  1  0  0  0
 24 25  1  0  0  0  0
 24 34  1  0  0  0  0
 25 26  1  1  0  0  0
 25 27  1  0  0  0  0
 27 28  1  6  0  0  0
 27 30  1  0  0  0  0
 28 29  1  0  0  0  0
 30 31  1  6  0  0  0
 30 32  1  0  0  0  0
 30 33  1  0  0  0  0
 33 34  1  0  0  0  0
M  CHG  4   4   1  15   1  18   1  28   1
M  END
>  <CHROM.1>
-176.82986180,40.27735908,173.81297163,177.04022899,-59.07392538,54.77124988
61.94627675,-71.94365953,56.98259755,62.26066089,130.23061275,-159.78018390
57.64529756,28.61697894,26.48684907,-11.83538235,7.14324546,17.35790743,1.07633460
-0.86234078,0.96268087

>  <Name>
1mwl

>  <RI>
0

>  <Rbt.Current_Directory>
/home/itssahil/PROJECTS/Mol_Feturizer/New_Systems/rnas/1mwl

>  <Rbt.Executable>
rbdock ($Id: //depot/dev/client3/rdock/2013.1/src/exe/rbdock.cxx#4 $)

>  <Rbt.Library>
libRbt.so (2013.1, Build901 2013/11/27)

>  <Rbt.Parameter_File>
/export/apps/rDock/src/rDock_2013.1_src/data/scripts/dock_solv.prm

>  <Rbt.Receptor>
prm/pocket_docking_8.prm

>  <SCORE>
-45.5473

>  <SCORE.INTER>
-30.5659

>  <SCORE.INTER.CONST>
1

>  <SCORE.INTER.POLAR>
-5.5505

>  <SCORE.INTER.ROT>
6

>  <SCORE.INTER.SOLV>
21.2621

>  <SCORE.INTER.VDW>
-16.5629

>  <SCORE.INTER.norm>
-0.898996

>  <SCORE.INTRA>
-14.9815

>  <SCORE.INTRA.DIHEDRAL>
-25.0147

>  <SCORE.INTRA.DIHEDRAL.0>
42.0816

>  <SCORE.INTRA.POLAR>
0.245824

>  <SCORE.INTRA.POLAR.0>
-0.254682

>  <SCORE.INTRA.REPUL>
0

>  <SCORE.INTRA.REPUL.0>
0

>  <SCORE.INTRA.SOLV>
-0.538059

>  <SCORE.INTRA.SOLV.lig_0>
-109.803

>  <SCORE.INTRA.VDW>
-3.04094

>  <SCORE.INTRA.VDW.0>
0.32176

>  <SCORE.INTRA.norm>
-0.440632

>  <SCORE.RESTR>
0

>  <SCORE.RESTR.CAVITY>
0

>  <SCORE.RESTR.norm>
0

>  <SCORE.SYSTEM>
0

>  <SCORE.SYSTEM.CONST>
0

>  <SCORE.SYSTEM.DIHEDRAL>
0

>  <SCORE.SYSTEM.SOLV>
0

>  <SCORE.SYSTEM.norm>
0

>  <SCORE.heavy>
34

>  <SCORE.norm>
-1.33963

>  <RMSD>
3.816

$$$$
1mwl
 OpenBabel11021811403D
libRbt.so/2013.1/901 2013/11/27
 34 36  0  0  0  0  0  0  0  0999 V2000
   -9.6421    7.5837   21.1557 C   0  0  2  0  0  0  0  0  0  0  0  0
   -9.1046    7.3641   19.8862 O   0  0  0  0  0  0  0  0  0  0  0  0
   -8.4583    7.6174   22.1629 C   0  0  2  0  0  0  0  0  0  0  0  0
   -7.5138    8.6774   21.7973 N   0  3  0  0  0  0  0  0  0  0  0  0
   -7.7576    6.2289   22.2325 C   0  0  1  0  0  0  0  0  0  0  0  0
   -6.7393    6.2432   23.1286 O   0  0  0  0  0  0  0  0  0  0  0  0
   -8.8235    5.1510   22.6190 C   0  0  2  0  0  0  0  0  0  0  0  0
   -8.2053    3.8498   22.7025 O   0  0  0  0  0  0  0  0  0  0  0  0
   -9.9594    5.1719   21.5403 C   0  0  2  0  0  0  0  0  0  0  0  0
  -10.5734    6.5161   21.4670 O   0  0  0  0  0  0  0  0  0  0  0  0
  -11.0997    4.1790   21.7928 C   0  0  2  0  0  0  0  0  0  0  0  0
  -11.5452    4.3010   23.1043 O   0  0  0  0  0  0  0  0  0  0  0  0
  -10.6867    2.7068   21.6129 C   0  0  0  0  0  0  0  0  0  0  0  0
  -10.1698    6.0437   15.9643 C   0  0  2  0  0  0  0  0  0  0  0  0
  -10.8569    5.3203   14.8644 N   0  3  0  0  0  0  0  0  0  0  0  0
   -9.4314    5.0445   16.9037 C   0  0  0  0  0  0  0  0  0  0  0  0
   -8.7232    5.8182   18.0742 C   0  0  2  0  0  0  0  0  0  0  0  0
   -8.0102    4.8265   18.9601 N   0  3  0  0  0  0  0  0  0  0  0  0
   -9.7911    6.6439   18.8704 C   0  0  2  0  0  0  0  0  0  0  0  0
  -10.5003    7.6323   17.9127 C   0  0  2  0  0  0  0  0  0  0  0  0
  -11.4794    8.3434   18.6309 O   0  0  0  0  0  0  0  0  0  0  0  0
  -11.2073    6.8519   16.7724 C   0  0  1  0  0  0  0  0  0  0  0  0
  -11.8521    7.7766   15.9089 O   0  0  0  0  0  0  0  0  0  0  0  0
  -13.0986    8.2922   16.2874 C   0  0  2  0  0  0  0  0  0  0  0  0
  -14.0744    7.1057   16.4002 C   0  0  2  0  0  0  0  0  0  0  0  0
  -13.6077    6.2193   17.3947 O   0  0  0  0  0  0  0  0  0  0  0  0
  -14.1689    6.3854   15.0119 C   0  0  1  0  0  0  0  0  0  0  0  0
  -15.0704    5.2080   15.0436 N   0  3  0  0  0  0  0  0  0  0  0  0
  -14.3941    4.0111   14.4815 C   0  0  0  0  0  0  0  0  0  0  0  0
  -14.6640    7.4094   13.9333 C   0  0  2  0  0  0  0  0  0  0  0  0
  -15.9638    7.9123   14.2954 O   0  0  0  0  0  0  0  0  0  0  0  0
  -14.7795    6.8042   12.6189 C   0  0  0  0  0  0  0  0  0  0  0  0
  -13.7148    8.6466   13.8942 C   0  0  0  0  0  0  0  0  0  0  0  0
  -13.5679    9.2410   15.2631 O   0  0  0  0  0  0  0  0  0  0  0  0
  1  2  1  6  0  0  0
  1  3  1  0  0  0  0
  1 10  1  0  0  0  0
  3  4  1  6  0  0  0
  3  5  1  0  0  0  0
  5  6  1  1  0  0  0
  5  7  1  0  0  0  0
  7  8  1  6  0  0  0
  7  9  1  0  0  0  0
  9 10  1  1  0  0  0
  9 11  1  0  0  0  0
 11 12  1  1  0  0  0
 11 13  1  0  0  0  0
 14 15  1  6  0  0  0
 14 16  1  0  0  0  0
 14 22  1  0  0  0  0
 16 17  1  0  0  0  0
 17 18  1  1  0  0  0
 17 19  1  0  0  0  0
 19  2  1  1  0  0  0
 19 20  1  0  0  0  0
 20 21  1  1  0  0  0
 20 22  1  0  0  0  0
 22 23  1  6  0  0  0
 24 23  1  6  0  0  0
 24 25  1  0  0  0  0
 24 34  1  0  0  0  0
 25 26  1  1  0  0  0
 25 27  1  0  0  0  0
 27 28  1  1  0  0  0
 27 30  1  0  0  0  0
 28 29  1  0  0  0  0
 30 31  1  1  0  0  0
 30 32  1  0  0  0  0
 30 33  1  0  0  0  0
 33 34  1  0  0  0  0
M  CHG  4   4   1  15   1  18   1  28   1
M  END
>  <CHROM.1>
147.93005569,-143.52875935,36.50567831,-171.78236141,63.05105814,49.41982670
-69.93331773,171.33740980,-59.52978516,57.85883059,159.18636965,-61.28615799
172.40240284,-8.90828155,-66.17141275,-11.14780270,6.36830933,18.34697631
-0.63274223,-0.76122094,-0.64601789

>  <Name>
1mwl

>  <RI>
0

>  <Rbt.Current_Directory>
/home/itssahil/PROJECTS/Mol_Feturizer/New_Systems/rnas/1mwl

>  <Rbt.Executable>
rbdock ($Id: //depot/dev/client3/rdock/2013.1/src/exe/rbdock.cxx#4 $)

>  <Rbt.Library>
libRbt.so (2013.1, Build901 2013/11/27)

>  <Rbt.Parameter_File>
/export/apps/rDock/src/rDock_2013.1_src/data/scripts/dock_solv.prm

>  <Rbt.Receptor>
prm/pocket_docking_4.prm

>  <SCORE>
-51.7449

>  <SCORE.INTER>
-40.9471

>  <SCORE.INTER.CONST>
1

>  <SCORE.INTER.POLAR>
-5.53238

>  <SCORE.INTER.ROT>
6

>  <SCORE.INTER.SOLV>
24.461

>  <SCORE.INTER.VDW>
-24.6105

>  <SCORE.INTER.norm>
-1.20433

>  <SCORE.INTRA>
-10.7978

>  <SCORE.INTRA.DIHEDRAL>
-24.8432

>  <SCORE.INTRA.DIHEDRAL.0>
42.0816

>  <SCORE.INTRA.POLAR>
0.236353

>  <SCORE.INTRA.POLAR.0>
-0.254682

>  <SCORE.INTRA.REPUL>
0.062771

>  <SCORE.INTRA.REPUL.0>
0

>  <SCORE.INTRA.SOLV>
4.1379

>  <SCORE.INTRA.SOLV.lig_0>
-109.803

>  <SCORE.INTRA.VDW>
-1.56259

>  <SCORE.INTRA.VDW.0>
0.32176

>  <SCORE.INTRA.norm>
-0.317582

>  <SCORE.RESTR>
0

>  <SCORE.RESTR.CAVITY>
0

>  <SCORE.RESTR.norm>
0

>  <SCORE.SYSTEM>
0

>  <SCORE.SYSTEM.CONST>
0

>  <SCORE.SYSTEM.DIHEDRAL>
0

>  <SCORE.SYSTEM.SOLV>
0

>  <SCORE.SYSTEM.norm>
0

>  <SCORE.heavy>
34

>  <SCORE.norm>
-1.52191

>  <RMSD>
3.894

$$$$
1mwl
 OpenBabel11021811403D
libRbt.so/2013.1/901 2013/11/27
 34 36  0  0  0  0  0  0  0  0999 V2000
  -11.4330    8.0236   20.2021 C   0  0  2  0  0  0  0  0  0  0  0  0
  -11.0632    8.9386   19.2149 O   0  0  0  0  0  0  0  0  0  0  0  0
  -10.5946    8.3441   21.4714 C   0  0  2  0  0  0  0  0  0  0  0  0
  -10.8434    9.7218   21.9067 N   0  3  0  0  0  0  0  0  0  0  0  0
   -9.0809    8.0947   21.2065 C   0  0  1  0  0  0  0  0  0  0  0  0
   -8.3453    8.3478   22.3178 O   0  0  0  0  0  0  0  0  0  0  0  0
   -8.8934    6.6130   20.7408 C   0  0  2  0  0  0  0  0  0  0  0  0
   -7.4973    6.3432   20.4951 O   0  0  0  0  0  0  0  0  0  0  0  0
   -9.7508    6.3900   19.4488 C   0  0  2  0  0  0  0  0  0  0  0  0
  -11.1760    6.6792   19.7219 O   0  0  0  0  0  0  0  0  0  0  0  0
   -9.6904    4.9685   18.8784 C   0  0  2  0  0  0  0  0  0  0  0  0
  -10.5981    4.8446   17.8325 O   0  0  0  0  0  0  0  0  0  0  0  0
  -10.0588    3.8777   19.9005 C   0  0  0  0  0  0  0  0  0  0  0  0
  -14.5746    9.0722   16.7834 C   0  0  2  0  0  0  0  0  0  0  0  0
  -15.4998    9.4020   15.6696 N   0  3  0  0  0  0  0  0  0  0  0  0
  -14.1648   10.3597   17.5584 C   0  0  0  0  0  0  0  0  0  0  0  0
  -13.1717   10.0023   18.7229 C   0  0  2  0  0  0  0  0  0  0  0  0
  -12.8009   11.2658   19.4597 N   0  3  0  0  0  0  0  0  0  0  0  0
  -11.9106    9.2870   18.1276 C   0  0  2  0  0  0  0  0  0  0  0  0
  -12.3494    8.0087   17.3722 C   0  0  2  0  0  0  0  0  0  0  0  0
  -11.2135    7.3939   16.8137 O   0  0  0  0  0  0  0  0  0  0  0  0
  -13.3166    8.3804   16.2165 C   0  0  1  0  0  0  0  0  0  0  0  0
  -13.7034    7.1951   15.5370 O   0  0  0  0  0  0  0  0  0  0  0  0
  -13.7117    7.1962   14.1360 C   0  0  2  0  0  0  0  0  0  0  0  0
  -13.9636    5.7484   13.6743 C   0  0  2  0  0  0  0  0  0  0  0  0
  -15.2217    5.3249   14.1542 O   0  0  0  0  0  0  0  0  0  0  0  0
  -12.8198    4.8287   14.2229 C   0  0  1  0  0  0  0  0  0  0  0  0
  -13.0052    3.4062   13.8455 N   0  3  0  0  0  0  0  0  0  0  0  0
  -13.8329    2.6969   14.8543 C   0  0  0  0  0  0  0  0  0  0  0  0
  -11.4406    5.3484   13.6892 C   0  0  2  0  0  0  0  0  0  0  0  0
  -11.4275    5.3130   12.2498 O   0  0  0  0  0  0  0  0  0  0  0  0
  -10.3330    4.5351   14.1571 C   0  0  0  0  0  0  0  0  0  0  0  0
  -11.2407    6.8428   14.0890 C   0  0  0  0  0  0  0  0  0  0  0  0
  -12.4084    7.6691   13.6387 O   0  0  0  0  0  0  0  0  0  0  0  0
  1  2  1  6  0  0  0
  1  3  1  0  0  0  0
  1 10  1  0  0  0  0
  3  4  1  6  0  0  0
  3  5  1  0  0  0  0
  5  6  1  1  0  0  0
  5  7  1  0  0  0  0
  7  8  1  6  0  0  0
  7  9  1  0  0  0  0
  9 10  1  1  0  0  0
  9 11  1  0  0  0  0
 11 12  1  6  0  0  0
 11 13  1  0  0  0  0
 14 15  1  6  0  0  0
 14 16  1  0  0  0  0
 14 22  1  0  0  0  0
 16 17  1  0  0  0  0
 17 18  1  6  0  0  0
 17 19  1  0  0  0  0
 19  2  1  1  0  0  0
 19 20  1  0  0  0  0
 20 21  1  6  0  0  0
 20 22  1  0  0  0  0
 22 23  1  1  0  0  0
 24 23  1  1  0  0  0
 24 25  1  0  0  0  0
 24 34  1  0  0  0  0
 25 26  1  1  0  0  0
 25 27  1  0  0  0  0
 27 28  1  6  0  0  0
 27 30  1  0  0  0  0
 28 29  1  0  0  0  0
 30 31  1  6  0  0  0
 30 32  1  0  0  0  0
 30 33  1  0  0  0  0
 33 34  1  0  0  0  0
M  CHG  4   4   1  15   1  18   1  28   1
M  END
>  <CHROM.1>
-156.15825790,64.38387034,155.06743359,-76.13749929,62.58400627,173.30360889
-54.46691769,-103.05290074,62.81156293,161.60109535,104.31082682,171.87097445
67.98870143,31.62354420,178.64676272,-11.79128252,7.07283672,17.30525478
0.98048288,-0.77216028,0.78477623

>  <Name>
1mwl

>  <RI>
0

>  <Rbt.Current_Directory>
/home/itssahil/PROJECTS/Mol_Feturizer/New_Systems/rnas/1mwl

>  <Rbt.Executable>
rbdock ($Id: //depot/dev/client3/rdock/2013.1/src/exe/rbdock.cxx#4 $)

>  <Rbt.Library>
libRbt.so (2013.1, Build901 2013/11/27)

>  <Rbt.Parameter_File>
/export/apps/rDock/src/rDock_2013.1_src/data/scripts/dock_solv.prm

>  <Rbt.Receptor>
prm/pocket_docking_4.prm

>  <SCORE>
-44.0101

>  <SCORE.INTER>
-32.0186

>  <SCORE.INTER.CONST>
1

>  <SCORE.INTER.POLAR>
-5.55291

>  <SCORE.INTER.ROT>
6

>  <SCORE.INTER.SOLV>
20.2204

>  <SCORE.INTER.VDW>
-17.1762

>  <SCORE.INTER.norm>
-0.941724

>  <SCORE.INTRA>
-12.1074

>  <SCORE.INTRA.DIHEDRAL>
-23.7569

>  <SCORE.INTRA.DIHEDRAL.0>
42.0816

>  <SCORE.INTRA.POLAR>
-0.0835995

>  <SCORE.INTRA.POLAR.0>
-0.254682

>  <SCORE.INTRA.REPUL>
0

>  <SCORE.INTRA.REPUL.0>
0

>  <SCORE.INTRA.SOLV>
2.3419

>  <SCORE.INTRA.SOLV.lig_0>
-109.803

>  <SCORE.INTRA.VDW>
-1.1157

>  <SCORE.INTRA.VDW.0>
0.32176

>  <SCORE.INTRA.norm>
-0.3561

>  <SCORE.RESTR>
0.115892

>  <SCORE.RESTR.CAVITY>
0.115892

>  <SCORE.RESTR.norm>
0.0034086

>  <SCORE.SYSTEM>
0

>  <SCORE.SYSTEM.CONST>
0

>  <SCORE.SYSTEM.DIHEDRAL>
0

>  <SCORE.SYSTEM.SOLV>
0

>  <SCORE.SYSTEM.norm>
0

>  <SCORE.heavy>
34

>  <SCORE.norm>
-1.29442

>  <RMSD>
3.924

$$$$
1mwl
 OpenBabel11021811403D
libRbt.so/2013.1/901 2013/11/27
 34 36  0  0  0  0  0  0  0  0999 V2000
  -11.4733    6.2518   21.1987 C   0  0  2  0  0  0  0  0  0  0  0  0
  -10.8508    6.9301   20.1494 O   0  0  0  0  0  0  0  0  0  0  0  0
  -10.4445    5.2373   21.7725 C   0  0  2  0  0  0  0  0  0  0  0  0
   -9.2447    5.9415   22.2352 N   0  3  0  0  0  0  0  0  0  0  0  0
  -10.0950    4.1517   20.7129 C   0  0  1  0  0  0  0  0  0  0  0  0
   -9.2168    3.2478   21.2150 O   0  0  0  0  0  0  0  0  0  0  0  0
  -11.4186    3.4501   20.2620 C   0  0  2  0  0  0  0  0  0  0  0  0
  -11.1304    2.4284   19.2846 O   0  0  0  0  0  0  0  0  0  0  0  0
  -12.3799    4.5401   19.6774 C   0  0  2  0  0  0  0  0  0  0  0  0
  -12.6555    5.5801   20.6933 O   0  0  0  0  0  0  0  0  0  0  0  0
  -13.7397    4.0093   19.2093 C   0  0  2  0  0  0  0  0  0  0  0  0
  -14.4794    5.0452   18.6497 O   0  0  0  0  0  0  0  0  0  0  0  0
  -14.6005    3.4304   20.3470 C   0  0  0  0  0  0  0  0  0  0  0  0
  -14.0006    9.4218   18.6902 C   0  0  2  0  0  0  0  0  0  0  0  0
  -14.7189   10.4811   17.9368 N   0  3  0  0  0  0  0  0  0  0  0  0
  -12.9527   10.0483   19.6573 C   0  0  0  0  0  0  0  0  0  0  0  0
  -12.1856    8.9189   20.4359 C   0  0  2  0  0  0  0  0  0  0  0  0
  -11.1860    9.5556   21.3697 N   0  3  0  0  0  0  0  0  0  0  0  0
  -11.4906    7.9611   19.4082 C   0  0  2  0  0  0  0  0  0  0  0  0
  -12.5577    7.3486   18.4683 C   0  0  2  0  0  0  0  0  0  0  0  0
  -11.9187    6.5179   17.5294 O   0  0  0  0  0  0  0  0  0  0  0  0
  -13.2946    8.4755   17.6959 C   0  0  1  0  0  0  0  0  0  0  0  0
  -14.2653    7.8916   16.8396 O   0  0  0  0  0  0  0  0  0  0  0  0
  -14.7955    8.6656   15.7992 C   0  0  2  0  0  0  0  0  0  0  0  0
  -15.2765    7.6973   14.7019 C   0  0  2  0  0  0  0  0  0  0  0  0
  -16.2850    6.8646   15.2331 O   0  0  0  0  0  0  0  0  0  0  0  0
  -14.0603    6.8475   14.1985 C   0  0  1  0  0  0  0  0  0  0  0  0
  -14.4468    5.8650   13.1566 N   0  3  0  0  0  0  0  0  0  0  0  0
  -14.0305    4.4933   13.5454 C   0  0  0  0  0  0  0  0  0  0  0  0
  -12.9547    7.8097   13.6427 C   0  0  2  0  0  0  0  0  0  0  0  0
  -13.4815    8.5790   12.5454 O   0  0  0  0  0  0  0  0  0  0  0  0
  -11.7964    7.0847   13.1527 C   0  0  0  0  0  0  0  0  0  0  0  0
  -12.5426    8.8409   14.7381 C   0  0  0  0  0  0  0  0  0  0  0  0
  -13.7492    9.5562   15.2685 O   0  0  0  0  0  0  0  0  0  0  0  0
  1  2  1  6  0  0  0
  1  3  1  0  0  0  0
  1 10  1  0  0  0  0
  3  4  1  6  0  0  0
  3  5  1  0  0  0  0
  5  6  1  1  0  0  0
  5  7  1  0  0  0  0
  7  8  1  6  0  0  0
  7  9  1  0  0  0  0
  9 10  1  1  0  0  0
  9 11  1  0  0  0  0
 11 12  1  1  0  0  0
 11 13  1  0  0  0  0
 14 15  1  6  0  0  0
 14 16  1  0  0  0  0
 14 22  1  0  0  0  0
 16 17  1  0  0  0  0
 17 18  1  1  0  0  0
 17 19  1  0  0  0  0
 19  2  1  1  0  0  0
 19 20  1  0  0  0  0
 20 21  1  6  0  0  0
 20 22  1  0  0  0  0
 22 23  1  6  0  0  0
 24 23  1  1  0  0  0
 24 25  1  0  0  0  0
 24 34  1  0  0  0  0
 25 26  1  1  0  0  0
 25 27  1  0  0  0  0
 27 28  1  6  0  0  0
 27 30  1  0  0  0  0
 28 29  1  0  0  0  0
 30 31  1  6  0  0  0
 30 32  1  0  0  0  0
 30 33  1  0  0  0  0
 33 34  1  0  0  0  0
M  CHG  4   4   1  15   1  18   1  28   1
M  END
>  <CHROM.1>
-178.51479187,45.88961329,54.00664377,-166.05058798,-57.22612787,-176.97437286
63.01571288,-27.79355957,177.25058645,51.13965179,76.70184730,154.82695162
174.47867936,-5.25759261,-73.83689613,-12.74860484,6.72541182,17.91101658
-0.04884859,-1.15522285,0.32643356

>  <Name>
1mwl

>  <RI>
0

>  <Rbt.Current_Directory>
/home/itssahil/PROJECTS/Mol_Feturizer/New_Systems/rnas/1mwl

>  <Rbt.Executable>
rbdock ($Id: //depot/dev/client3/rdock/2013.1/src/exe/rbdock.cxx#4 $)

>  <Rbt.Library>
libRbt.so (2013.1, Build901 2013/11/27)

>  <Rbt.Parameter_File>
/export/apps/rDock/src/rDock_2013.1_src/data/scripts/dock_solv.prm

>  <Rbt.Receptor>
prm/pocket_docking_6.prm

>  <SCORE>
-50.8982

>  <SCORE.INTER>
-33.6393

>  <SCORE.INTER.CONST>
1

>  <SCORE.INTER.POLAR>
-5.84189

>  <SCORE.INTER.ROT>
6

>  <SCORE.INTER.SOLV>
18.0689

>  <SCORE.INTER.VDW>
-16.5762

>  <SCORE.INTER.norm>
-0.989391

>  <SCORE.INTRA>
-17.2589

>  <SCORE.INTRA.DIHEDRAL>
-29.0775

>  <SCORE.INTRA.DIHEDRAL.0>
42.0816

>  <SCORE.INTRA.POLAR>
-0.65719

>  <SCORE.INTRA.POLAR.0>
-0.254682

>  <SCORE.INTRA.REPUL>
0

>  <SCORE.INTRA.REPUL.0>
0

>  <SCORE.INTRA.SOLV>
1.40486

>  <SCORE.INTRA.SOLV.lig_0>
-109.803

>  <SCORE.INTRA.VDW>
-1.18812

>  <SCORE.INTRA.VDW.0>
0.32176

>  <SCORE.INTRA.norm>
-0.507615

>  <SCORE.RESTR>
0

>  <SCORE.RESTR.CAVITY>
0

>  <SCORE.RESTR.norm>
0

>  <SCORE.SYSTEM>
0

>  <SCORE.SYSTEM.CONST>
0

>  <SCORE.SYSTEM.DIHEDRAL>
0

>  <SCORE.SYSTEM.SOLV>
0

>  <SCORE.SYSTEM.norm>
0

>  <SCORE.heavy>
34

>  <SCORE.norm>
-1.49701

>  <RMSD>
3.930

$$$$
1mwl
 OpenBabel11021811403D
libRbt.so/2013.1/901 2013/11/27
 34 36  0  0  0  0  0  0  0  0999 V2000
  -10.8161    5.2003   21.7055 C   0  0  2  0  0  0  0  0  0  0  0  0
  -10.0433    5.5000   20.5823 O   0  0  0  0  0  0  0  0  0  0  0  0
  -10.2783    3.8676   22.2984 C   0  0  2  0  0  0  0  0  0  0  0  0
   -8.8623    4.0070   22.6520 N   0  3  0  0  0  0  0  0  0  0  0  0
  -10.5038    2.6931   21.3018 C   0  0  1  0  0  0  0  0  0  0  0  0
  -10.0600    1.5219   21.8229 O   0  0  0  0  0  0  0  0  0  0  0  0
  -12.0295    2.6099   20.9658 C   0  0  2  0  0  0  0  0  0  0  0  0
  -12.2771    1.5229   20.0497 O   0  0  0  0  0  0  0  0  0  0  0  0
  -12.4751    3.9812   20.3537 C   0  0  2  0  0  0  0  0  0  0  0  0
  -12.2055    5.0808   21.3063 O   0  0  0  0  0  0  0  0  0  0  0  0
  -13.9619    4.0667   19.9904 C   0  0  2  0  0  0  0  0  0  0  0  0
  -14.7326    3.6492   21.0697 O   0  0  0  0  0  0  0  0  0  0  0  0
  -14.3594    3.1695   18.8040 C   0  0  0  0  0  0  0  0  0  0  0  0
  -12.2187    8.7114   18.7896 C   0  0  2  0  0  0  0  0  0  0  0  0
  -12.5527    9.8695   17.9221 N   0  3  0  0  0  0  0  0  0  0  0  0
  -11.0416    9.0622   19.7474 C   0  0  0  0  0  0  0  0  0  0  0  0
  -10.6840    7.8247   20.6478 C   0  0  2  0  0  0  0  0  0  0  0  0
   -9.5490    8.1974   21.5695 N   0  3  0  0  0  0  0  0  0  0  0  0
  -10.3120    6.6080   19.7327 C   0  0  2  0  0  0  0  0  0  0  0  0
  -11.5033    6.2788   18.8000 C   0  0  2  0  0  0  0  0  0  0  0  0
  -11.1455    5.2078   17.9604 O   0  0  0  0  0  0  0  0  0  0  0  0
  -11.8332    7.5050   17.9072 C   0  0  1  0  0  0  0  0  0  0  0  0
  -12.9253    7.1802   17.0596 O   0  0  0  0  0  0  0  0  0  0  0  0
  -12.9795    7.7561   15.7837 C   0  0  2  0  0  0  0  0  0  0  0  0
  -14.1058    7.0497   15.0056 C   0  0  2  0  0  0  0  0  0  0  0  0
  -15.3307    7.2640   15.6736 O   0  0  0  0  0  0  0  0  0  0  0  0
  -13.7829    5.5194   14.9117 C   0  0  1  0  0  0  0  0  0  0  0  0
  -14.8387    4.7592   14.1994 N   0  3  0  0  0  0  0  0  0  0  0  0
  -15.1632    3.5034   14.9231 C   0  0  0  0  0  0  0  0  0  0  0  0
  -12.4053    5.3273   14.1890 C   0  0  2  0  0  0  0  0  0  0  0  0
  -12.4675    5.8806   12.8610 O   0  0  0  0  0  0  0  0  0  0  0  0
  -12.0458    3.9265   14.0631 C   0  0  0  0  0  0  0  0  0  0  0  0
  -11.2920    6.1217   14.9390 C   0  0  0  0  0  0  0  0  0  0  0  0
  -11.6891    7.5586   15.1016 O   0  0  0  0  0  0  0  0  0  0  0  0
  1  2  1  6  0  0  0
  1  3  1  0  0  0  0
  1 10  1  0  0  0  0
  3  4  1  6  0  0  0
  3  5  1  0  0  0  0
  5  6  1  1  0  0  0
  5  7  1  0  0  0  0
  7  8  1  6  0  0  0
  7  9  1  0  0  0  0
  9 10  1  1  0  0  0
  9 11  1  0  0  0  0
 11 12  1  1  0  0  0
 11 13  1  0  0  0  0
 14 15  1  6  0  0  0
 14 16  1  0  0  0  0
 14 22  1  0  0  0  0
 16 17  1  0  0  0  0
 17 18  1  1  0  0  0
 17 19  1  0  0  0  0
 19  2  1  1  0  0  0
 19 20  1  0  0  0  0
 20 21  1  6  0  0  0
 20 22  1  0  0  0  0
 22 23  1  6  0  0  0
 24 23  1  1  0  0  0
 24 25  1  0  0  0  0
 24 34  1  0  0  0  0
 25 26  1  1  0  0  0
 25 27  1  0  0  0  0
 27 28  1  6  0  0  0
 27 30  1  0  0  0  0
 28 29  1  0  0  0  0
 30 31  1  6  0  0  0
 30 32  1  0  0  0  0
 30 33  1  0  0  0  0
 33 34  1  0  0  0  0
M  CHG  4   4   1  15   1  18   1  28   1
M  END
>  <CHROM.1>
175.60324872,41.66344276,-39.35449398,177.66622361,-58.68098782,50.06933278
63.38443555,-37.71625108,20.64849289,173.28941199,92.24661779,170.16161579
178.79433523,-15.47089905,-178.39654568,-12.13480071,5.50831267,18.37005635
-0.77805554,-1.06436371,-0.55064498

>  <Name>
1mwl

>  <RI>
0

>  <Rbt.Current_Directory>
/home/itssahil/PROJECTS/Mol_Feturizer/New_Systems/rnas/1mwl

>  <Rbt.Executable>
rbdock ($Id: //depot/dev/client3/rdock/2013.1/src/exe/rbdock.cxx#4 $)

>  <Rbt.Library>
libRbt.so (2013.1, Build901 2013/11/27)

>  <Rbt.Parameter_File>
/export/apps/rDock/src/rDock_2013.1_src/data/scripts/dock_solv.prm

>  <Rbt.Receptor>
prm/pocket_docking_5.prm

>  <SCORE>
-40.3233

>  <SCORE.INTER>
-24.0213

>  <SCORE.INTER.CONST>
1

>  <SCORE.INTER.POLAR>
-4.26203

>  <SCORE.INTER.ROT>
6

>  <SCORE.INTER.SOLV>
20.8895

>  <SCORE.INTER.VDW>
-16.3706

>  <SCORE.INTER.norm>
-0.706509

>  <SCORE.INTRA>
-16.302

>  <SCORE.INTRA.DIHEDRAL>
-27.4695

>  <SCORE.INTRA.DIHEDRAL.0>
42.0816

>  <SCORE.INTRA.POLAR>
0.152181

>  <SCORE.INTRA.POLAR.0>
-0.254682

>  <SCORE.INTRA.REPUL>
0

>  <SCORE.INTRA.REPUL.0>
0

>  <SCORE.INTRA.SOLV>
-1.43244

>  <SCORE.INTRA.SOLV.lig_0>
-109.803

>  <SCORE.INTRA.VDW>
-2.36844

>  <SCORE.INTRA.VDW.0>
0.32176

>  <SCORE.INTRA.norm>
-0.47947

>  <SCORE.RESTR>
0

>  <SCORE.RESTR.CAVITY>
0

>  <SCORE.RESTR.norm>
0

>  <SCORE.SYSTEM>
0

>  <SCORE.SYSTEM.CONST>
0

>  <SCORE.SYSTEM.DIHEDRAL>
0

>  <SCORE.SYSTEM.SOLV>
0

>  <SCORE.SYSTEM.norm>
0

>  <SCORE.heavy>
34

>  <SCORE.norm>
-1.18598

>  <RMSD>
4.048

$$$$
1mwl
 OpenBabel11021811403D
libRbt.so/2013.1/901 2013/11/27
 34 36  0  0  0  0  0  0  0  0999 V2000
  -12.6874    8.2124   20.4119 C   0  0  2  0  0  0  0  0  0  0  0  0
  -12.6554    9.3397   19.5892 O   0  0  0  0  0  0  0  0  0  0  0  0
  -12.0614    8.6145   21.7769 C   0  0  2  0  0  0  0  0  0  0  0  0
  -12.8133    9.7244   22.3703 N   0  3  0  0  0  0  0  0  0  0  0  0
  -10.5561    8.9730   21.6058 C   0  0  1  0  0  0  0  0  0  0  0  0
   -9.9963    9.3003   22.7973 O   0  0  0  0  0  0  0  0  0  0  0  0
   -9.8218    7.7500   20.9634 C   0  0  2  0  0  0  0  0  0  0  0  0
   -8.4188    8.0442   20.7990 O   0  0  0  0  0  0  0  0  0  0  0  0
  -10.5009    7.4342   19.5876 C   0  0  2  0  0  0  0  0  0  0  0  0
  -11.9389    7.1429   19.7793 O   0  0  0  0  0  0  0  0  0  0  0  0
   -9.9041    6.2366   18.8394 C   0  0  2  0  0  0  0  0  0  0  0  0
  -10.5476    6.0803   17.6168 O   0  0  0  0  0  0  0  0  0  0  0  0
  -10.0664    4.9000   19.5861 C   0  0  0  0  0  0  0  0  0  0  0  0
  -15.3817    8.2340   16.4900 C   0  0  2  0  0  0  0  0  0  0  0  0
  -16.2094    8.2987   15.2588 N   0  3  0  0  0  0  0  0  0  0  0  0
  -15.8281    9.3219   17.5114 C   0  0  0  0  0  0  0  0  0  0  0  0
  -14.9344    9.2571   18.8026 C   0  0  2  0  0  0  0  0  0  0  0  0
  -15.3959   10.3143   19.7752 N   0  3  0  0  0  0  0  0  0  0  0  0
  -13.4316    9.4531   18.4032 C   0  0  2  0  0  0  0  0  0  0  0  0
  -13.0163    8.3533   17.3956 C   0  0  2  0  0  0  0  0  0  0  0  0
  -11.6764    8.5596   17.0187 O   0  0  0  0  0  0  0  0  0  0  0  0
  -13.8973    8.4412   16.1207 C   0  0  1  0  0  0  0  0  0  0  0  0
  -13.4979    7.4266   15.2110 O   0  0  0  0  0  0  0  0  0  0  0  0
  -12.9656    7.8068   13.9722 C   0  0  2  0  0  0  0  0  0  0  0  0
  -13.4752    6.8014   12.9222 C   0  0  2  0  0  0  0  0  0  0  0  0
  -14.8844    6.8647   12.8708 O   0  0  0  0  0  0  0  0  0  0  0  0
  -12.9961    5.3623   13.3151 C   0  0  1  0  0  0  0  0  0  0  0  0
  -13.4724    4.3267   12.3660 N   0  3  0  0  0  0  0  0  0  0  0  0
  -14.7234    3.6956   12.8587 C   0  0  0  0  0  0  0  0  0  0  0  0
  -11.4304    5.3426   13.3871 C   0  0  2  0  0  0  0  0  0  0  0  0
  -10.8767    5.6925   12.1047 O   0  0  0  0  0  0  0  0  0  0  0  0
  -10.9170    4.0321   13.7427 C   0  0  0  0  0  0  0  0  0  0  0  0
  -10.9269    6.4274   14.3884 C   0  0  0  0  0  0  0  0  0  0  0  0
  -11.4946    7.7706   14.0390 O   0  0  0  0  0  0  0  0  0  0  0  0
  1  2  1  6  0  0  0
  1  3  1  0  0  0  0
  1 10  1  0  0  0  0
  3  4  1  6  0  0  0
  3  5  1  0  0  0  0
  5  6  1  1  0  0  0
  5  7  1  0  0  0  0
  7  8  1  6  0  0  0
  7  9  1  0  0  0  0
  9 10  1  1  0  0  0
  9 11  1  0  0  0  0
 11 12  1  6  0  0  0
 11 13  1  0  0  0  0
 14 15  1  6  0  0  0
 14 16  1  0  0  0  0
 14 22  1  0  0  0  0
 16 17  1  0  0  0  0
 17 18  1  1  0  0  0
 17 19  1  0  0  0  0
 19  2  1  1  0  0  0
 19 20  1  0  0  0  0
 20 21  1  6  0  0  0
 20 22  1  0  0  0  0
 22 23  1  6  0  0  0
 24 23  1  1  0  0  0
 24 25  1  0  0  0  0
 24 34  1  0  0  0  0
 25 26  1  1  0  0  0
 25 27  1  0  0  0  0
 27 28  1  6  0  0  0
 27 30  1  0  0  0  0
 28 29  1  0  0  0  0
 30 31  1  6  0  0  0
 30 32  1  0  0  0  0
 30 33  1  0  0  0  0
 33 34  1  0  0  0  0
M  CHG  4   4   1  15   1  18   1  28   1
M  END
>  <CHROM.1>
-163.72158315,56.94128939,-166.15965946,-168.41947090,-36.02119857,-177.81739144
177.08572923,62.69229275,-175.20182872,155.25134251,123.38438502,-142.72420690
167.38827707,24.67163173,-178.93391688,-12.44377000,7.46294742,17.16241087
1.34901805,-0.47228912,1.11805109

>  <Name>
1mwl

>  <RI>
0

>  <Rbt.Current_Directory>
/home/itssahil/PROJECTS/Mol_Feturizer/New_Systems/rnas/1mwl

>  <Rbt.Executable>
rbdock ($Id: //depot/dev/client3/rdock/2013.1/src/exe/rbdock.cxx#4 $)

>  <Rbt.Library>
libRbt.so (2013.1, Build901 2013/11/27)

>  <Rbt.Parameter_File>
/export/apps/rDock/src/rDock_2013.1_src/data/scripts/dock_solv.prm

>  <Rbt.Receptor>
prm/pocket_docking_5.prm

>  <SCORE>
-52.1841

>  <SCORE.INTER>
-34.8015

>  <SCORE.INTER.CONST>
1

>  <SCORE.INTER.POLAR>
-5.66806

>  <SCORE.INTER.ROT>
6

>  <SCORE.INTER.SOLV>
18.281

>  <SCORE.INTER.VDW>
-18.0012

>  <SCORE.INTER.norm>
-1.02357

>  <SCORE.INTRA>
-17.8546

>  <SCORE.INTRA.DIHEDRAL>
-19.2326

>  <SCORE.INTRA.DIHEDRAL.0>
42.0816

>  <SCORE.INTRA.POLAR>
-1.6678

>  <SCORE.INTRA.POLAR.0>
-0.254682

>  <SCORE.INTRA.REPUL>
0

>  <SCORE.INTRA.REPUL.0>
0

>  <SCORE.INTRA.SOLV>
2.47802

>  <SCORE.INTRA.SOLV.lig_0>
-109.803

>  <SCORE.INTRA.VDW>
-3.80676

>  <SCORE.INTRA.VDW.0>
0.32176

>  <SCORE.INTRA.norm>
-0.525135

>  <SCORE.RESTR>
0.471948

>  <SCORE.RESTR.CAVITY>
0.471948

>  <SCORE.RESTR.norm>
0.0138808

>  <SCORE.SYSTEM>
0

>  <SCORE.SYSTEM.CONST>
0

>  <SCORE.SYSTEM.DIHEDRAL>
0

>  <SCORE.SYSTEM.SOLV>
0

>  <SCORE.SYSTEM.norm>
0

>  <SCORE.heavy>
34

>  <SCORE.norm>
-1.53483

>  <RMSD>
4.243

$$$$
1mwl
 OpenBabel11021811403D
libRbt.so/2013.1/901 2013/11/27
 34 36  0  0  0  0  0  0  0  0999 V2000
  -10.2133    3.7266   19.7416 C   0  0  2  0  0  0  0  0  0  0  0  0
  -11.0702    3.5379   18.6559 O   0  0  0  0  0  0  0  0  0  0  0  0
  -10.4118    2.5233   20.7058 C   0  0  2  0  0  0  0  0  0  0  0  0
  -10.1178    1.2658   20.0117 N   0  3  0  0  0  0  0  0  0  0  0  0
  -11.8523    2.5251   21.2961 C   0  0  1  0  0  0  0  0  0  0  0  0
  -12.0251    1.4923   22.1585 O   0  0  0  0  0  0  0  0  0  0  0  0
  -12.0963    3.8945   22.0122 C   0  0  2  0  0  0  0  0  0  0  0  0
  -13.4220    3.9274   22.5812 O   0  0  0  0  0  0  0  0  0  0  0  0
  -11.9000    5.0413   20.9632 C   0  0  2  0  0  0  0  0  0  0  0  0
  -10.5378    4.9838   20.3883 O   0  0  0  0  0  0  0  0  0  0  0  0
  -12.0840    6.4571   21.5213 C   0  0  2  0  0  0  0  0  0  0  0  0
  -13.3385    6.5691   22.1102 O   0  0  0  0  0  0  0  0  0  0  0  0
  -12.0123    7.5575   20.4468 C   0  0  0  0  0  0  0  0  0  0  0  0
   -9.3536    5.8001   15.4629 C   0  0  2  0  0  0  0  0  0  0  0  0
   -8.9679    6.2284   14.0943 N   0  3  0  0  0  0  0  0  0  0  0  0
   -8.7310    4.4132   15.8019 C   0  0  0  0  0  0  0  0  0  0  0  0
   -9.1601    3.9608   17.2446 C   0  0  2  0  0  0  0  0  0  0  0  0
   -8.5353    2.6212   17.5473 N   0  3  0  0  0  0  0  0  0  0  0  0
  -10.7242    3.9027   17.3259 C   0  0  2  0  0  0  0  0  0  0  0  0
  -11.3117    5.2960   16.9929 C   0  0  2  0  0  0  0  0  0  0  0  0
  -12.7163    5.2231   17.0357 O   0  0  0  0  0  0  0  0  0  0  0  0
  -10.8920    5.7206   15.5602 C   0  0  1  0  0  0  0  0  0  0  0  0
  -11.4431    6.9980   15.2756 O   0  0  0  0  0  0  0  0  0  0  0  0
  -11.7708    7.3079   13.9493 C   0  0  2  0  0  0  0  0  0  0  0  0
  -13.1750    7.9411   13.9561 C   0  0  2  0  0  0  0  0  0  0  0  0
  -13.1419    9.1251   14.7240 O   0  0  0  0  0  0  0  0  0  0  0  0
  -14.1970    6.9163   14.5565 C   0  0  1  0  0  0  0  0  0  0  0  0
  -15.5742    7.4626   14.6259 N   0  3  0  0  0  0  0  0  0  0  0  0
  -15.9104    7.8697   16.0141 C   0  0  0  0  0  0  0  0  0  0  0  0
  -14.1830    5.6088   13.6920 C   0  0  2  0  0  0  0  0  0  0  0  0
  -14.5594    5.9140   12.3361 O   0  0  0  0  0  0  0  0  0  0  0  0
  -15.1150    4.6144   14.1918 C   0  0  0  0  0  0  0  0  0  0  0  0
  -12.7365    5.0292   13.6215 C   0  0  0  0  0  0  0  0  0  0  0  0
  -11.7731    6.0745   13.1441 O   0  0  0  0  0  0  0  0  0  0  0  0
  1  2  1  6  0  0  0
  1  3  1  0  0  0  0
  1 10  1  0  0  0  0
  3  4  1  6  0  0  0
  3  5  1  0  0  0  0
  5  6  1  1  0  0  0
  5  7  1  0  0  0  0
  7  8  1  6  0  0  0
  7  9  1  0  0  0  0
  9 10  1  1  0  0  0
  9 11  1  0  0  0  0
 11 12  1  6  0  0  0
 11 13  1  0  0  0  0
 14 15  1  6  0  0  0
 14 16  1  0  0  0  0
 14 22  1  0  0  0  0
 16 17  1  0  0  0  0
 17 18  1  6  0  0  0
 17 19  1  0  0  0  0
 19  2  1  1  0  0  0
 19 20  1  0  0  0  0
 20 21  1  6  0  0  0
 20 22  1  0  0  0  0
 22 23  1  1  0  0  0
 24 23  1  1  0  0  0
 24 25  1  0  0  0  0
 24 34  1  0  0  0  0
 25 26  1  1  0  0  0
 25 27  1  0  0  0  0
 27 28  1  6  0  0  0
 27 30  1  0  0  0  0
 28 29  1  0  0  0  0
 30 31  1  6  0  0  0
 30 32  1  0  0  0  0
 30 33  1  0  0  0  0
 33 34  1  0  0  0  0
M  CHG  4   4   1  15   1  18   1  28   1
M  END
>  <CHROM.1>
-143.89449099,22.28150662,-172.28046941,59.91903899,-54.66742756,-56.00732706
-53.32823987,-142.55727026,-96.13001275,67.76651415,90.33745758,133.74788280
58.52318331,17.24397742,74.10458140,-11.93389443,5.21515581,17.35520776,-1.30403951
0.57420469,-1.29712990

>  <Name>
1mwl

>  <RI>
0

>  <Rbt.Current_Directory>
/home/itssahil/PROJECTS/Mol_Feturizer/New_Systems/rnas/1mwl

>  <Rbt.Executable>
rbdock ($Id: //depot/dev/client3/rdock/2013.1/src/exe/rbdock.cxx#4 $)

>  <Rbt.Library>
libRbt.so (2013.1, Build901 2013/11/27)

>  <Rbt.Parameter_File>
/export/apps/rDock/src/rDock_2013.1_src/data/scripts/dock_solv.prm

>  <Rbt.Receptor>
prm/pocket_docking_7.prm

>  <SCORE>
-49.4528

>  <SCORE.INTER>
-44.241

>  <SCORE.INTER.CONST>
1

>  <SCORE.INTER.POLAR>
-7.77667

>  <SCORE.INTER.ROT>
6

>  <SCORE.INTER.SOLV>
20.4191

>  <SCORE.INTER.VDW>
-17.9782

>  <SCORE.INTER.norm>
-1.30121

>  <SCORE.INTRA>
-5.21179

>  <SCORE.INTRA.DIHEDRAL>
-12.5819

>  <SCORE.INTRA.DIHEDRAL.0>
42.0816

>  <SCORE.INTRA.POLAR>
-0.757459

>  <SCORE.INTRA.POLAR.0>
-0.254682

>  <SCORE.INTRA.REPUL>
0.000256739

>  <SCORE.INTRA.REPUL.0>
0

>  <SCORE.INTRA.SOLV>
4.5579

>  <SCORE.INTRA.SOLV.lig_0>
-109.803

>  <SCORE.INTRA.VDW>
1.37431

>  <SCORE.INTRA.VDW.0>
0.32176

>  <SCORE.INTRA.norm>
-0.153288

>  <SCORE.RESTR>
0

>  <SCORE.RESTR.CAVITY>
0

>  <SCORE.RESTR.norm>
0

>  <SCORE.SYSTEM>
0

>  <SCORE.SYSTEM.CONST>
0

>  <SCORE.SYSTEM.DIHEDRAL>
0

>  <SCORE.SYSTEM.SOLV>
0

>  <SCORE.SYSTEM.norm>
0

>  <SCORE.heavy>
34

>  <SCORE.norm>
-1.4545

>  <RMSD>
4.529

$$$$
1mwl
 OpenBabel11021811403D
libRbt.so/2013.1/901 2013/11/27
 34 36  0  0  0  0  0  0  0  0999 V2000
  -10.5549    6.6288   19.3703 C   0  0  2  0  0  0  0  0  0  0  0  0
  -11.4925    5.8275   20.0241 O   0  0  0  0  0  0  0  0  0  0  0  0
   -9.2328    6.5573   20.1849 C   0  0  2  0  0  0  0  0  0  0  0  0
   -8.7704    5.1691   20.2768 N   0  3  0  0  0  0  0  0  0  0  0  0
   -9.4222    7.1894   21.5949 C   0  0  1  0  0  0  0  0  0  0  0  0
   -8.2655    7.1537   22.3026 O   0  0  0  0  0  0  0  0  0  0  0  0
   -9.9215    8.6615   21.4188 C   0  0  2  0  0  0  0  0  0  0  0  0
  -10.0988    9.2828   22.7091 O   0  0  0  0  0  0  0  0  0  0  0  0
  -11.2643    8.6336   20.6126 C   0  0  2  0  0  0  0  0  0  0  0  0
  -11.0606    7.9864   19.2977 O   0  0  0  0  0  0  0  0  0  0  0  0
  -11.8732   10.0130   20.3359 C   0  0  2  0  0  0  0  0  0  0  0  0
  -11.2830   10.9603   21.1651 O   0  0  0  0  0  0  0  0  0  0  0  0
  -13.3868   10.0848   20.6081 C   0  0  0  0  0  0  0  0  0  0  0  0
  -15.2058    4.1252   18.7699 C   0  0  2  0  0  0  0  0  0  0  0  0
  -16.6272    4.0047   18.3571 N   0  3  0  0  0  0  0  0  0  0  0  0
  -15.0992    4.6722   20.2243 C   0  0  0  0  0  0  0  0  0  0  0  0
  -13.5914    4.8134   20.6447 C   0  0  2  0  0  0  0  0  0  0  0  0
  -13.5207    5.3355   22.0586 N   0  3  0  0  0  0  0  0  0  0  0  0
  -12.8595    5.7656   19.6378 C   0  0  2  0  0  0  0  0  0  0  0  0
  -12.9756    5.1910   18.2047 C   0  0  2  0  0  0  0  0  0  0  0  0
  -12.3448    6.0709   17.3058 O   0  0  0  0  0  0  0  0  0  0  0  0
  -14.4693    5.0729   17.7994 C   0  0  1  0  0  0  0  0  0  0  0  0
  -14.5517    4.5471   16.4829 O   0  0  0  0  0  0  0  0  0  0  0  0
  -15.6289    4.9297   15.6730 C   0  0  2  0  0  0  0  0  0  0  0  0
  -15.3331    4.4322   14.2455 C   0  0  2  0  0  0  0  0  0  0  0  0
  -15.2299    3.0245   14.2611 O   0  0  0  0  0  0  0  0  0  0  0  0
  -13.9999    5.0829   13.7414 C   0  0  1  0  0  0  0  0  0  0  0  0
  -13.6270    4.6301   12.3790 N   0  3  0  0  0  0  0  0  0  0  0  0
  -12.2764    4.0121   12.3802 C   0  0  0  0  0  0  0  0  0  0  0  0
  -14.1474    6.6432   13.7649 C   0  0  2  0  0  0  0  0  0  0  0  0
  -15.2271    7.0463   12.9017 O   0  0  0  0  0  0  0  0  0  0  0  0
  -12.9446    7.3120   13.3030 C   0  0  0  0  0  0  0  0  0  0  0  0
  -14.5345    7.1227   15.1979 C   0  0  0  0  0  0  0  0  0  0  0  0
  -15.7535    6.3973   15.6844 O   0  0  0  0  0  0  0  0  0  0  0  0
  1  2  1  1  0  0  0
  1  3  1  0  0  0  0
  1 10  1  0  0  0  0
  3  4  1  1  0  0  0
  3  5  1  0  0  0  0
  5  6  1  6  0  0  0
  5  7  1  0  0  0  0
  7  8  1  1  0  0  0
  7  9  1  0  0  0  0
  9 10  1  6  0  0  0
  9 11  1  0  0  0  0
 11 12  1  1  0  0  0
 11 13  1  0  0  0  0
 14 15  1  6  0  0  0
 14 16  1  0  0  0  0
 14 22  1  0  0  0  0
 16 17  1  0  0  0  0
 17 18  1  1  0  0  0
 17 19  1  0  0  0  0
 19  2  1  1  0  0  0
 19 20  1  0  0  0  0
 20 21  1  6  0  0  0
 20 22  1  0  0  0  0
 22 23  1  6  0  0  0
 24 23  1  1  0  0  0
 24 25  1  0  0  0  0
 24 34  1  0  0  0  0
 25 26  1  1  0  0  0
 25 27  1  0  0  0  0
 27 28  1  6  0  0  0
 27 30  1  0  0  0  0
 28 29  1  0  0  0  0
 30 31  1  6  0  0  0
 30 32  1  0  0  0  0
 30 33  1  0  0  0  0
 33 34  1  0  0  0  0
M  CHG  4   4   1  15   1  18   1  28   1
M  END
>  <CHROM.1>
173.20597016,-177.58773479,56.61317286,60.02604962,-170.05192472,-15.76342912
72.57474856,70.11845015,177.67101578,-56.79778228,90.48835048,169.75703192
-56.59044181,-2.56583941,66.60795304,-12.82763632,6.31301239,18.03801928
-0.85016364,-0.76797497,-1.40991148

>  <Name>
1mwl

>  <RI>
0

>  <Rbt.Current_Directory>
/home/itssahil/PROJECTS/Mol_Feturizer/New_Systems/rnas/1mwl

>  <Rbt.Executable>
rbdock ($Id: //depot/dev/client3/rdock/2013.1/src/exe/rbdock.cxx#4 $)

>  <Rbt.Library>
libRbt.so (2013.1, Build901 2013/11/27)

>  <Rbt.Parameter_File>
/export/apps/rDock/src/rDock_2013.1_src/data/scripts/dock_solv.prm

>  <Rbt.Receptor>
prm/pocket_docking_5.prm

>  <SCORE>
-41.6162

>  <SCORE.INTER>
-23.4629

>  <SCORE.INTER.CONST>
1

>  <SCORE.INTER.POLAR>
-3.43761

>  <SCORE.INTER.ROT>
6

>  <SCORE.INTER.SOLV>
15.4908

>  <SCORE.INTER.VDW>
-16.9468

>  <SCORE.INTER.norm>
-0.690085

>  <SCORE.INTRA>
-18.8916

>  <SCORE.INTRA.DIHEDRAL>
-27.5362

>  <SCORE.INTRA.DIHEDRAL.0>
42.0816

>  <SCORE.INTRA.POLAR>
-0.200106

>  <SCORE.INTRA.POLAR.0>
-0.254682

>  <SCORE.INTRA.REPUL>
0

>  <SCORE.INTRA.REPUL.0>
0

>  <SCORE.INTRA.SOLV>
-2.59216

>  <SCORE.INTRA.SOLV.lig_0>
-109.803

>  <SCORE.INTRA.VDW>
-3.14706

>  <SCORE.INTRA.VDW.0>
0.32176

>  <SCORE.INTRA.norm>
-0.555635

>  <SCORE.RESTR>
0.738302

>  <SCORE.RESTR.CAVITY>
0.738302

>  <SCORE.RESTR.norm>
0.0217148

>  <SCORE.SYSTEM>
0

>  <SCORE.SYSTEM.CONST>
0

>  <SCORE.SYSTEM.DIHEDRAL>
0

>  <SCORE.SYSTEM.SOLV>
0

>  <SCORE.SYSTEM.norm>
0

>  <SCORE.heavy>
34

>  <SCORE.norm>
-1.22401

>  <RMSD>
4.559

$$$$
1mwl
 OpenBabel11021811403D
libRbt.so/2013.1/901 2013/11/27
 34 36  0  0  0  0  0  0  0  0999 V2000
  -12.8984    5.7720   21.6184 C   0  0  2  0  0  0  0  0  0  0  0  0
  -11.7685    6.1746   20.9043 O   0  0  0  0  0  0  0  0  0  0  0  0
  -12.5220    4.4788   22.3947 C   0  0  2  0  0  0  0  0  0  0  0  0
  -11.3930    4.7392   23.2931 N   0  3  0  0  0  0  0  0  0  0  0  0
  -12.2079    3.3175   21.4066 C   0  0  1  0  0  0  0  0  0  0  0  0
  -11.9033    2.1783   22.0771 O   0  0  0  0  0  0  0  0  0  0  0  0
  -13.4491    3.1022   20.4790 C   0  0  2  0  0  0  0  0  0  0  0  0
  -13.1962    2.0236   19.5544 O   0  0  0  0  0  0  0  0  0  0  0  0
  -13.7376    4.4430   19.7222 C   0  0  2  0  0  0  0  0  0  0  0  0
  -13.9866    5.5352   20.6890 O   0  0  0  0  0  0  0  0  0  0  0  0
  -14.9488    4.4001   18.7835 C   0  0  2  0  0  0  0  0  0  0  0  0
  -15.2414    5.6841   18.3374 O   0  0  0  0  0  0  0  0  0  0  0  0
  -16.2307    3.8742   19.4546 C   0  0  0  0  0  0  0  0  0  0  0  0
  -13.3655    9.0338   18.1594 C   0  0  2  0  0  0  0  0  0  0  0  0
  -13.4444   10.1339   17.1650 N   0  3  0  0  0  0  0  0  0  0  0  0
  -12.7838    9.5516   19.5083 C   0  0  0  0  0  0  0  0  0  0  0  0
  -12.6872    8.3763   20.5474 C   0  0  2  0  0  0  0  0  0  0  0  0
  -12.1302    8.9096   21.8443 N   0  3  0  0  0  0  0  0  0  0  0  0
  -11.7902    7.2348   19.9570 C   0  0  2  0  0  0  0  0  0  0  0  0
  -12.3985    6.7362   18.6234 C   0  0  2  0  0  0  0  0  0  0  0  0
  -11.5671    5.7361   18.0862 O   0  0  0  0  0  0  0  0  0  0  0  0
  -12.4721    7.9043   17.6038 C   0  0  1  0  0  0  0  0  0  0  0  0
  -13.0298    7.4244   16.3893 O   0  0  0  0  0  0  0  0  0  0  0  0
  -12.6637    8.0481   15.1894 C   0  0  2  0  0  0  0  0  0  0  0  0
  -13.5410    7.4519   14.0724 C   0  0  2  0  0  0  0  0  0  0  0  0
  -14.8961    7.7285   14.3548 O   0  0  0  0  0  0  0  0  0  0  0  0
  -13.2924    5.9069   13.9944 C   0  0  1  0  0  0  0  0  0  0  0  0
  -14.1255    5.2496   12.9580 N   0  3  0  0  0  0  0  0  0  0  0  0
  -14.4442    3.8519   13.3463 C   0  0  0  0  0  0  0  0  0  0  0  0
  -11.7742    5.6436   13.7067 C   0  0  2  0  0  0  0  0  0  0  0  0
  -11.4012    6.2472   12.4537 O   0  0  0  0  0  0  0  0  0  0  0  0
  -11.4738    4.2262   13.6163 C   0  0  0  0  0  0  0  0  0  0  0  0
  -10.8958    6.3295   14.7980 C   0  0  0  0  0  0  0  0  0  0  0  0
  -11.2410    7.7841   14.9142 O   0  0  0  0  0  0  0  0  0  0  0  0
  1  2  1  6  0  0  0
  1  3  1  0  0  0  0
  1 10  1  0  0  0  0
  3  4  1  6  0  0  0
  3  5  1  0  0  0  0
  5  6  1  1  0  0  0
  5  7  1  0  0  0  0
  7  8  1  6  0  0  0
  7  9  1  0  0  0  0
  9 10  1  1  0  0  0
  9 11  1  0  0  0  0
 11 12  1  1  0  0  0
 11 13  1  0  0  0  0
 14 15  1  6  0  0  0
 14 16  1  0  0  0  0
 14 22  1  0  0  0  0
 16 17  1  0  0  0  0
 17 18  1  1  0  0  0
 17 19  1  0  0  0  0
 19  2  1  1  0  0  0
 19 20  1  0  0  0  0
 20 21  1  6  0  0  0
 20 22  1  0  0  0  0
 22 23  1  6  0  0  0
 24 23  1  1  0  0  0
 24 25  1  0  0  0  0
 24 34  1  0  0  0  0
 25 26  1  1  0  0  0
 25 27  1  0  0  0  0
 27 28  1  6  0  0  0
 27 30  1  0  0  0  0
 28 29  1  0  0  0  0
 30 31  1  6  0  0  0
 30 32  1  0  0  0  0
 30 33  1  0  0  0  0
 33 34  1  0  0  0  0
M  CHG  4   4   1  15   1  18   1  28   1
M  END
>  <CHROM.1>
172.42229829,40.42302690,164.42799799,68.16625919,-57.18058152,170.38886076
166.79448494,74.45800948,68.61223250,62.58029186,88.38069123,-172.98541843
79.88204123,-29.61292045,61.91640559,-12.91072446,6.03000576,17.93809755
-1.39618447,-1.43423935,-1.18591335

>  <Name>
1mwl

>  <RI>
0

>  <Rbt.Current_Directory>
/home/itssahil/PROJECTS/Mol_Feturizer/New_Systems/rnas/1mwl

>  <Rbt.Executable>
rbdock ($Id: //depot/dev/client3/rdock/2013.1/src/exe/rbdock.cxx#4 $)

>  <Rbt.Library>
libRbt.so (2013.1, Build901 2013/11/27)

>  <Rbt.Parameter_File>
/export/apps/rDock/src/rDock_2013.1_src/data/scripts/dock_solv.prm

>  <Rbt.Receptor>
prm/pocket_docking_6.prm

>  <SCORE>
-42.5944

>  <SCORE.INTER>
-26.8738

>  <SCORE.INTER.CONST>
1

>  <SCORE.INTER.POLAR>
-5.42433

>  <SCORE.INTER.ROT>
6

>  <SCORE.INTER.SOLV>
17.1419

>  <SCORE.INTER.VDW>
-13.1487

>  <SCORE.INTER.norm>
-0.790406

>  <SCORE.INTRA>
-15.7206

>  <SCORE.INTRA.DIHEDRAL>
-30.0281

>  <SCORE.INTRA.DIHEDRAL.0>
42.0816

>  <SCORE.INTRA.POLAR>
0.252878

>  <SCORE.INTRA.POLAR.0>
-0.254682

>  <SCORE.INTRA.REPUL>
0.00796145

>  <SCORE.INTRA.REPUL.0>
0

>  <SCORE.INTRA.SOLV>
-0.598112

>  <SCORE.INTRA.SOLV.lig_0>
-109.803

>  <SCORE.INTRA.VDW>
-1.30708

>  <SCORE.INTRA.VDW.0>
0.32176

>  <SCORE.INTRA.norm>
-0.46237

>  <SCORE.RESTR>
0

>  <SCORE.RESTR.CAVITY>
0

>  <SCORE.RESTR.norm>
0

>  <SCORE.SYSTEM>
0

>  <SCORE.SYSTEM.CONST>
0

>  <SCORE.SYSTEM.DIHEDRAL>
0

>  <SCORE.SYSTEM.SOLV>
0

>  <SCORE.SYSTEM.norm>
0

>  <SCORE.heavy>
34

>  <SCORE.norm>
-1.25278

>  <RMSD>
4.583

$$$$
1mwl
 OpenBabel11021811403D
libRbt.so/2013.1/901 2013/11/27
 34 36  0  0  0  0  0  0  0  0999 V2000
  -12.1730    8.4963   20.8581 C   0  0  2  0  0  0  0  0  0  0  0  0
  -12.0397    9.6276   20.0513 O   0  0  0  0  0  0  0  0  0  0  0  0
  -10.7560    8.1274   21.3804 C   0  0  2  0  0  0  0  0  0  0  0  0
  -10.1866    9.2498   22.1324 N   0  3  0  0  0  0  0  0  0  0  0  0
   -9.8306    7.7027   20.2027 C   0  0  1  0  0  0  0  0  0  0  0  0
   -8.5994    7.3547   20.6536 O   0  0  0  0  0  0  0  0  0  0  0  0
  -10.5029    6.5107   19.4447 C   0  0  2  0  0  0  0  0  0  0  0  0
   -9.6655    6.0837   18.3499 O   0  0  0  0  0  0  0  0  0  0  0  0
  -11.9081    6.9799   18.9356 C   0  0  2  0  0  0  0  0  0  0  0  0
  -12.7460    7.4195   20.0731 O   0  0  0  0  0  0  0  0  0  0  0  0
  -12.7079    5.9078   18.1867 C   0  0  2  0  0  0  0  0  0  0  0  0
  -12.6439    4.7051   18.8815 O   0  0  0  0  0  0  0  0  0  0  0  0
  -12.1753    5.6172   16.7717 C   0  0  0  0  0  0  0  0  0  0  0  0
  -15.9951   11.2440   20.0125 C   0  0  2  0  0  0  0  0  0  0  0  0
  -17.1854   12.0341   19.6072 N   0  3  0  0  0  0  0  0  0  0  0  0
  -14.8179   12.1847   20.4066 C   0  0  0  0  0  0  0  0  0  0  0  0
  -13.5579   11.3392   20.8160 C   0  0  2  0  0  0  0  0  0  0  0  0
  -12.4394   12.2760   21.2007 N   0  3  0  0  0  0  0  0  0  0  0  0
  -13.1494   10.4072   19.6240 C   0  0  2  0  0  0  0  0  0  0  0  0
  -14.3354    9.4800   19.2622 C   0  0  2  0  0  0  0  0  0  0  0  0
  -13.9688    8.6724   18.1698 O   0  0  0  0  0  0  0  0  0  0  0  0
  -15.5656   10.3297   18.8454 C   0  0  1  0  0  0  0  0  0  0  0  0
  -16.6389    9.4601   18.5160 O   0  0  0  0  0  0  0  0  0  0  0  0
  -17.5111    9.8306   17.4842 C   0  0  2  0  0  0  0  0  0  0  0  0
  -18.3259    8.5818   17.0973 C   0  0  2  0  0  0  0  0  0  0  0  0
  -19.0721    8.1545   18.2168 O   0  0  0  0  0  0  0  0  0  0  0  0
  -17.3452    7.4572   16.6194 C   0  0  1  0  0  0  0  0  0  0  0  0
  -18.0519    6.2051   16.2550 N   0  3  0  0  0  0  0  0  0  0  0  0
  -17.4809    5.0456   16.9868 C   0  0  0  0  0  0  0  0  0  0  0  0
  -16.5188    7.9810   15.3947 C   0  0  2  0  0  0  0  0  0  0  0  0
  -17.4075    8.3248   14.3151 O   0  0  0  0  0  0  0  0  0  0  0  0
  -15.5900    6.9830   14.8962 C   0  0  0  0  0  0  0  0  0  0  0  0
  -15.7704    9.2952   15.7767 C   0  0  0  0  0  0  0  0  0  0  0  0
  -16.7302   10.3062   16.3295 O   0  0  0  0  0  0  0  0  0  0  0  0
  1  2  1  6  0  0  0
  1  3  1  0  0  0  0
  1 10  1  0  0  0  0
  3  4  1  6  0  0  0
  3  5  1  0  0  0  0
  5  6  1  1  0  0  0
  5  7  1  0  0  0  0
  7  8  1  6  0  0  0
  7  9  1  0  0  0  0
  9 10  1  1  0  0  0
  9 11  1  0  0  0  0
 11 12  1  1  0  0  0
 11 13  1  0  0  0  0
 14 15  1  6  0  0  0
 14 16  1  0  0  0  0
 14 22  1  0  0  0  0
 16 17  1  0  0  0  0
 17 18  1  6  0  0  0
 17 19  1  0  0  0  0
 19  2  1  1  0  0  0
 19 20  1  0  0  0  0
 20 21  1  6  0  0  0
 20 22  1  0  0  0  0
 22 23  1  1  0  0  0
 24 23  1  1  0  0  0
 24 25  1  0  0  0  0
 24 34  1  0  0  0  0
 25 26  1  1  0  0  0
 25 27  1  0  0  0  0
 27 28  1  6  0  0  0
 27 30  1  0  0  0  0
 28 29  1  0  0  0  0
 30 31  1  6  0  0  0
 30 32  1  0  0  0  0
 30 33  1  0  0  0  0
 33 34  1  0  0  0  0
M  CHG  4   4   1  15   1  18   1  28   1
M  END
>  <CHROM.1>
-166.78637935,79.48858675,36.49764038,61.14560919,162.04152465,45.15916731
-59.76993818,69.18102960,157.46723750,178.30056408,94.82917125,165.53326509
172.63315803,-6.58813099,-68.52266506,-14.20764625,8.48945079,18.57989000
0.22117940,-0.45417391,0.57209595

>  <Name>
1mwl

>  <RI>
0

>  <Rbt.Current_Directory>
/home/itssahil/PROJECTS/Mol_Feturizer/New_Systems/rnas/1mwl

>  <Rbt.Executable>
rbdock ($Id: //depot/dev/client3/rdock/2013.1/src/exe/rbdock.cxx#4 $)

>  <Rbt.Library>
libRbt.so (2013.1, Build901 2013/11/27)

>  <Rbt.Parameter_File>
/export/apps/rDock/src/rDock_2013.1_src/data/scripts/dock_solv.prm

>  <Rbt.Receptor>
prm/pocket_docking_6.prm

>  <SCORE>
-53.3429

>  <SCORE.INTER>
-40.6833

>  <SCORE.INTER.CONST>
1

>  <SCORE.INTER.POLAR>
-7.25632

>  <SCORE.INTER.ROT>
6

>  <SCORE.INTER.SOLV>
22.7669

>  <SCORE.INTER.VDW>
-18.1234

>  <SCORE.INTER.norm>
-1.19657

>  <SCORE.INTRA>
-12.6673

>  <SCORE.INTRA.DIHEDRAL>
-25.1973

>  <SCORE.INTRA.DIHEDRAL.0>
42.0816

>  <SCORE.INTRA.POLAR>
0.254682

>  <SCORE.INTRA.POLAR.0>
-0.254682

>  <SCORE.INTRA.REPUL>
0

>  <SCORE.INTRA.REPUL.0>
0

>  <SCORE.INTRA.SOLV>
0.939582

>  <SCORE.INTRA.SOLV.lig_0>
-109.803

>  <SCORE.INTRA.VDW>
-1.4044

>  <SCORE.INTRA.VDW.0>
0.32176

>  <SCORE.INTRA.norm>
-0.372569

>  <SCORE.RESTR>
0.00770629

>  <SCORE.RESTR.CAVITY>
0.00770629

>  <SCORE.RESTR.norm>
0.000226656

>  <SCORE.SYSTEM>
0

>  <SCORE.SYSTEM.CONST>
0

>  <SCORE.SYSTEM.DIHEDRAL>
0

>  <SCORE.SYSTEM.SOLV>
0

>  <SCORE.SYSTEM.norm>
0

>  <SCORE.heavy>
34

>  <SCORE.norm>
-1.56891

>  <RMSD>
4.649

$$$$
1mwl
 OpenBabel11021811403D
libRbt.so/2013.1/901 2013/11/27
 34 36  0  0  0  0  0  0  0  0999 V2000
   -8.7708    5.3231   19.7650 C   0  0  2  0  0  0  0  0  0  0  0  0
  -10.0994    5.7506   19.7898 O   0  0  0  0  0  0  0  0  0  0  0  0
   -8.7405    3.8662   20.3068 C   0  0  2  0  0  0  0  0  0  0  0  0
   -9.5901    3.0023   19.4813 N   0  3  0  0  0  0  0  0  0  0  0  0
   -9.1713    3.8279   21.8023 C   0  0  1  0  0  0  0  0  0  0  0  0
   -9.1228    2.5628   22.2895 O   0  0  0  0  0  0  0  0  0  0  0  0
   -8.2293    4.7744   22.6173 C   0  0  2  0  0  0  0  0  0  0  0  0
   -8.5946    4.7559   24.0132 O   0  0  0  0  0  0  0  0  0  0  0  0
   -8.3436    6.2179   22.0195 C   0  0  2  0  0  0  0  0  0  0  0  0
   -7.9719    6.2116   20.5873 O   0  0  0  0  0  0  0  0  0  0  0  0
   -7.4556    7.2649   22.7013 C   0  0  2  0  0  0  0  0  0  0  0  0
   -7.8374    8.5388   22.2955 O   0  0  0  0  0  0  0  0  0  0  0  0
   -5.9626    7.1300   22.3503 C   0  0  0  0  0  0  0  0  0  0  0  0
  -12.8566    8.1696   21.9820 C   0  0  2  0  0  0  0  0  0  0  0  0
  -13.4893    8.9182   23.0977 N   0  3  0  0  0  0  0  0  0  0  0  0
  -12.7896    6.6480   22.3078 C   0  0  0  0  0  0  0  0  0  0  0  0
  -12.1021    5.8678   21.1295 C   0  0  2  0  0  0  0  0  0  0  0  0
  -12.0603    4.3983   21.4694 N   0  3  0  0  0  0  0  0  0  0  0  0
  -10.6661    6.4488   20.8912 C   0  0  2  0  0  0  0  0  0  0  0  0
  -10.7668    7.9582   20.5616 C   0  0  2  0  0  0  0  0  0  0  0  0
   -9.4705    8.4758   20.3834 O   0  0  0  0  0  0  0  0  0  0  0  0
  -11.4332    8.7160   21.7410 C   0  0  1  0  0  0  0  0  0  0  0  0
  -11.5128   10.0966   21.4185 O   0  0  0  0  0  0  0  0  0  0  0  0
  -11.4408   10.4770   20.0721 C   0  0  2  0  0  0  0  0  0  0  0  0
  -11.7176   11.9909   20.0044 C   0  0  2  0  0  0  0  0  0  0  0  0
  -10.7264   12.6732   20.7423 O   0  0  0  0  0  0  0  0  0  0  0  0
  -13.1431   12.2783   20.5879 C   0  0  1  0  0  0  0  0  0  0  0  0
  -13.4763   13.7236   20.5860 N   0  3  0  0  0  0  0  0  0  0  0  0
  -12.3929   14.5151   21.2231 C   0  0  0  0  0  0  0  0  0  0  0  0
  -14.2089   11.4824   19.7587 C   0  0  2  0  0  0  0  0  0  0  0  0
  -14.1683   11.8988   18.3809 O   0  0  0  0  0  0  0  0  0  0  0  0
  -15.5580   11.7083   20.2447 C   0  0  0  0  0  0  0  0  0  0  0  0
  -13.8638    9.9612   19.7633 C   0  0  0  0  0  0  0  0  0  0  0  0
  -12.4550    9.7395   19.2995 O   0  0  0  0  0  0  0  0  0  0  0  0
  1  2  1  1  0  0  0
  1  3  1  0  0  0  0
  1 10  1  0  0  0  0
  3  4  1  6  0  0  0
  3  5  1  0  0  0  0
  5  6  1  1  0  0  0
  5  7  1  0  0  0  0
  7  8  1  1  0  0  0
  7  9  1  0  0  0  0
  9 10  1  6  0  0  0
  9 11  1  0  0  0  0
 11 12  1  6  0  0  0
 11 13  1  0  0  0  0
 14 15  1  1  0  0  0
 14 16  1  0  0  0  0
 14 22  1  0  0  0  0
 16 17  1  0  0  0  0
 17 18  1  1  0  0  0
 17 19  1  0  0  0  0
 19  2  1  6  0  0  0
 19 20  1  0  0  0  0
 20 21  1  1  0  0  0
 20 22  1  0  0  0  0
 22 23  1  6  0  0  0
 24 23  1  1  0  0  0
 24 25  1  0  0  0  0
 24 34  1  0  0  0  0
 25 26  1  1  0  0  0
 25 27  1  0  0  0  0
 27 28  1  6  0  0  0
 27 30  1  0  0  0  0
 28 29  1  0  0  0  0
 30 31  1  6  0  0  0
 30 32  1  0  0  0  0
 30 33  1  0  0  0  0
 33 34  1  0  0  0  0
M  CHG  4   4   1  15   1  18   1  28   1
M  END
>  <CHROM.1>
92.52351601,-138.29577344,-43.80594549,-67.58128781,-47.95533326,-167.40434630
174.36930291,-63.33370675,-172.39841540,38.43863833,-99.46948345,173.46533924
-57.99279332,68.84897638,-179.81193573,-10.88606904,8.09460955,21.05477859
-1.02121072,-0.26818741,-0.00998412

>  <Name>
1mwl

>  <RI>
0

>  <Rbt.Current_Directory>
/home/itssahil/PROJECTS/Mol_Feturizer/New_Systems/rnas/1mwl

>  <Rbt.Executable>
rbdock ($Id: //depot/dev/client3/rdock/2013.1/src/exe/rbdock.cxx#4 $)

>  <Rbt.Library>
libRbt.so (2013.1, Build901 2013/11/27)

>  <Rbt.Parameter_File>
/export/apps/rDock/src/rDock_2013.1_src/data/scripts/dock_solv.prm

>  <Rbt.Receptor>
prm/blind_docking_100.prm

>  <SCORE>
-13.9134

>  <SCORE.INTER>
-18.4573

>  <SCORE.INTER.CONST>
1

>  <SCORE.INTER.POLAR>
-1.11499

>  <SCORE.INTER.ROT>
6

>  <SCORE.INTER.SOLV>
19.4889

>  <SCORE.INTER.VDW>
-22.6846

>  <SCORE.INTER.norm>
-0.542863

>  <SCORE.INTRA>
1.62869

>  <SCORE.INTRA.DIHEDRAL>
-21.9723

>  <SCORE.INTRA.DIHEDRAL.0>
42.0816

>  <SCORE.INTRA.POLAR>
-0.158293

>  <SCORE.INTRA.POLAR.0>
-0.254682

>  <SCORE.INTRA.REPUL>
0.0224094

>  <SCORE.INTRA.REPUL.0>
0

>  <SCORE.INTRA.SOLV>
5.68172

>  <SCORE.INTRA.SOLV.lig_0>
-109.803

>  <SCORE.INTRA.VDW>
10.2001

>  <SCORE.INTRA.VDW.0>
0.32176

>  <SCORE.INTRA.norm>
0.0479027

>  <SCORE.RESTR>
2.91525

>  <SCORE.RESTR.CAVITY>
2.91525

>  <SCORE.RESTR.norm>
0.0857426

>  <SCORE.SYSTEM>
0

>  <SCORE.SYSTEM.CONST>
0

>  <SCORE.SYSTEM.DIHEDRAL>
0

>  <SCORE.SYSTEM.SOLV>
0

>  <SCORE.SYSTEM.norm>
0

>  <SCORE.heavy>
34

>  <SCORE.norm>
-0.409218

>  <RMSD>
4.657

$$$$
1mwl
 OpenBabel11021811403D
libRbt.so/2013.1/901 2013/11/27
 34 36  0  0  0  0  0  0  0  0999 V2000
   -8.8782    5.3001   20.8390 C   0  0  2  0  0  0  0  0  0  0  0  0
   -9.9279    6.1593   21.1682 O   0  0  0  0  0  0  0  0  0  0  0  0
   -8.8084    4.2065   21.9418 C   0  0  2  0  0  0  0  0  0  0  0  0
  -10.0812    3.4827   22.0169 N   0  3  0  0  0  0  0  0  0  0  0  0
   -8.4284    4.8350   23.3144 C   0  0  1  0  0  0  0  0  0  0  0  0
   -8.3405    3.8830   24.2768 O   0  0  0  0  0  0  0  0  0  0  0  0
   -7.0694    5.5937   23.1566 C   0  0  2  0  0  0  0  0  0  0  0  0
   -6.6807    6.1819   24.4157 O   0  0  0  0  0  0  0  0  0  0  0  0
   -7.2408    6.6869   22.0479 C   0  0  2  0  0  0  0  0  0  0  0  0
   -7.6461    6.0625   20.7692 O   0  0  0  0  0  0  0  0  0  0  0  0
   -5.9788    7.5074   21.7578 C   0  0  2  0  0  0  0  0  0  0  0  0
   -4.8831    6.6583   21.6483 O   0  0  0  0  0  0  0  0  0  0  0  0
   -5.6320    8.5180   22.8662 C   0  0  0  0  0  0  0  0  0  0  0  0
  -11.1462    8.8916   18.1170 C   0  0  2  0  0  0  0  0  0  0  0  0
  -11.9757    9.5698   17.0888 N   0  3  0  0  0  0  0  0  0  0  0  0
  -10.8721    7.4119   17.7153 C   0  0  0  0  0  0  0  0  0  0  0  0
  -10.0095    6.6982   18.8183 C   0  0  2  0  0  0  0  0  0  0  0  0
   -9.7531    5.2721   18.3974 N   0  3  0  0  0  0  0  0  0  0  0  0
  -10.7609    6.7712   20.1918 C   0  0  2  0  0  0  0  0  0  0  0  0
  -11.0105    8.2524   20.5670 C   0  0  2  0  0  0  0  0  0  0  0  0
  -11.7151    8.3044   21.7839 O   0  0  0  0  0  0  0  0  0  0  0  0
  -11.8763    8.9379   19.4762 C   0  0  1  0  0  0  0  0  0  0  0  0
  -12.0944   10.2926   19.8417 O   0  0  0  0  0  0  0  0  0  0  0  0
  -13.0427   10.5766   20.8330 C   0  0  2  0  0  0  0  0  0  0  0  0
  -14.3313   11.0325   20.1225 C   0  0  2  0  0  0  0  0  0  0  0  0
  -14.8018    9.9826   19.3048 O   0  0  0  0  0  0  0  0  0  0  0  0
  -14.0216   12.3085   19.2675 C   0  0  1  0  0  0  0  0  0  0  0  0
  -15.2093   12.7959   18.5247 N   0  3  0  0  0  0  0  0  0  0  0  0
  -16.3787   12.9304   19.4305 C   0  0  0  0  0  0  0  0  0  0  0  0
  -13.4775   13.4387   20.2076 C   0  0  2  0  0  0  0  0  0  0  0  0
  -14.4647   13.7644   21.2040 O   0  0  0  0  0  0  0  0  0  0  0  0
  -13.1740   14.6563   19.4778 C   0  0  0  0  0  0  0  0  0  0  0  0
  -12.2252   12.9304   20.9863 C   0  0  0  0  0  0  0  0  0  0  0  0
  -12.5349   11.6505   21.7038 O   0  0  0  0  0  0  0  0  0  0  0  0
  1  2  1  1  0  0  0
  1  3  1  0  0  0  0
  1 10  1  0  0  0  0
  3  4  1  1  0  0  0
  3  5  1  0  0  0  0
  5  6  1  1  0  0  0
  5  7  1  0  0  0  0
  7  8  1  1  0  0  0
  7  9  1  0  0  0  0
  9 10  1  6  0  0  0
  9 11  1  0  0  0  0
 11 12  1  1  0  0  0
 11 13  1  0  0  0  0
 14 15  1  6  0  0  0
 14 16  1  0  0  0  0
 14 22  1  0  0  0  0
 16 17  1  0  0  0  0
 17 18  1  6  0  0  0
 17 19  1  0  0  0  0
 19  2  1  1  0  0  0
 19 20  1  0  0  0  0
 20 21  1  1  0  0  0
 20 22  1  0  0  0  0
 22 23  1  1  0  0  0
 24 23  1  6  0  0  0
 24 25  1  0  0  0  0
 24 34  1  0  0  0  0
 25 26  1  6  0  0  0
 25 27  1  0  0  0  0
 27 28  1  1  0  0  0
 27 30  1  0  0  0  0
 28 29  1  0  0  0  0
 30 31  1  1  0  0  0
 30 32  1  0  0  0  0
 30 33  1  0  0  0  0
 33 34  1  0  0  0  0
M  CHG  4   4   1  15   1  18   1  28   1
M  END
>  <CHROM.1>
-144.66841942,-18.44293894,64.04412727,-63.99747183,64.77033736,45.73386014
134.59818263,-19.93173781,134.73374437,64.41851062,162.83653145,-100.21054159
65.94452168,170.41367749,71.00618722,-10.72515471,8.54990142,20.70185461
0.55502388,0.67555487,-2.71450489

>  <Name>
1mwl

>  <RI>
0

>  <Rbt.Current_Directory>
/home/itssahil/PROJECTS/Mol_Feturizer/New_Systems/rnas/1mwl

>  <Rbt.Executable>
rbdock ($Id: //depot/dev/client3/rdock/2013.1/src/exe/rbdock.cxx#4 $)

>  <Rbt.Library>
libRbt.so (2013.1, Build901 2013/11/27)

>  <Rbt.Parameter_File>
/export/apps/rDock/src/rDock_2013.1_src/data/scripts/dock_solv.prm

>  <Rbt.Receptor>
prm/blind_docking_100.prm

>  <SCORE>
-25.0764

>  <SCORE.INTER>
-36.134

>  <SCORE.INTER.CONST>
1

>  <SCORE.INTER.POLAR>
-4.80918

>  <SCORE.INTER.ROT>
6

>  <SCORE.INTER.SOLV>
23.3728

>  <SCORE.INTER.VDW>
-23.4497

>  <SCORE.INTER.norm>
-1.06277

>  <SCORE.INTRA>
0.259942

>  <SCORE.INTRA.DIHEDRAL>
-10.9276

>  <SCORE.INTRA.DIHEDRAL.0>
42.0816

>  <SCORE.INTRA.POLAR>
0.247482

>  <SCORE.INTRA.POLAR.0>
-0.254682

>  <SCORE.INTRA.REPUL>
0

>  <SCORE.INTRA.REPUL.0>
0

>  <SCORE.INTRA.SOLV>
-0.54014

>  <SCORE.INTRA.SOLV.lig_0>
-109.803

>  <SCORE.INTRA.VDW>
5.15236

>  <SCORE.INTRA.VDW.0>
0.32176

>  <SCORE.INTRA.norm>
0.00764536

>  <SCORE.RESTR>
10.7977

>  <SCORE.RESTR.CAVITY>
10.7977

>  <SCORE.RESTR.norm>
0.317581

>  <SCORE.SYSTEM>
0

>  <SCORE.SYSTEM.CONST>
0

>  <SCORE.SYSTEM.DIHEDRAL>
0

>  <SCORE.SYSTEM.SOLV>
0

>  <SCORE.SYSTEM.norm>
0

>  <SCORE.heavy>
34

>  <SCORE.norm>
-0.73754

>  <RMSD>
4.683

$$$$
1mwl
 OpenBabel11021811403D
libRbt.so/2013.1/901 2013/11/27
 34 36  0  0  0  0  0  0  0  0999 V2000
  -10.6403    2.8621   20.0602 C   0  0  2  0  0  0  0  0  0  0  0  0
  -10.1861    3.7116   19.0499 O   0  0  0  0  0  0  0  0  0  0  0  0
  -10.9191    1.4764   19.4128 C   0  0  2  0  0  0  0  0  0  0  0  0
   -9.6983    0.9543   18.7912 N   0  3  0  0  0  0  0  0  0  0  0  0
  -12.0844    1.5754   18.3852 C   0  0  1  0  0  0  0  0  0  0  0  0
  -12.3506    0.3646   17.8346 O   0  0  0  0  0  0  0  0  0  0  0  0
  -13.3460    2.1444   19.1147 C   0  0  2  0  0  0  0  0  0  0  0  0
  -14.4512    2.2406   18.1919 O   0  0  0  0  0  0  0  0  0  0  0  0
  -12.9804    3.5460   19.7110 C   0  0  2  0  0  0  0  0  0  0  0  0
  -11.8414    3.4246   20.6476 O   0  0  0  0  0  0  0  0  0  0  0  0
  -14.1154    4.2287   20.4828 C   0  0  2  0  0  0  0  0  0  0  0  0
  -13.7571    5.5385   20.7815 O   0  0  0  0  0  0  0  0  0  0  0  0
  -14.4400    3.5532   21.8277 C   0  0  0  0  0  0  0  0  0  0  0  0
  -11.6269    7.5498   20.2548 C   0  0  2  0  0  0  0  0  0  0  0  0
  -11.7657    9.0235   20.3750 N   0  3  0  0  0  0  0  0  0  0  0  0
  -10.2403    7.0820   20.7880 C   0  0  0  0  0  0  0  0  0  0  0  0
  -10.0963    5.5240   20.6393 C   0  0  2  0  0  0  0  0  0  0  0  0
   -8.7495    5.1004   21.1717 N   0  3  0  0  0  0  0  0  0  0  0  0
  -10.2750    5.1282   19.1334 C   0  0  2  0  0  0  0  0  0  0  0  0
  -11.6638    5.5984   18.6362 C   0  0  2  0  0  0  0  0  0  0  0  0
  -11.7991    5.2681   17.2750 O   0  0  0  0  0  0  0  0  0  0  0  0
  -11.7837    7.1397   18.7749 C   0  0  1  0  0  0  0  0  0  0  0  0
  -13.0623    7.5483   18.3115 O   0  0  0  0  0  0  0  0  0  0  0  0
  -13.2482    8.8885   17.9483 C   0  0  2  0  0  0  0  0  0  0  0  0
  -14.7613    9.1119   17.7651 C   0  0  2  0  0  0  0  0  0  0  0  0
  -15.4152    8.8589   18.9902 O   0  0  0  0  0  0  0  0  0  0  0  0
  -15.2893    8.1534   16.6436 C   0  0  1  0  0  0  0  0  0  0  0  0
  -16.7504    8.2859   16.4253 N   0  3  0  0  0  0  0  0  0  0  0  0
  -17.5074    7.5085   17.4396 C   0  0  0  0  0  0  0  0  0  0  0  0
  -14.5201    8.4485   15.3101 C   0  0  2  0  0  0  0  0  0  0  0  0
  -14.7410    9.8137   14.9090 O   0  0  0  0  0  0  0  0  0  0  0  0
  -14.9655    7.5955   14.2232 C   0  0  0  0  0  0  0  0  0  0  0  0
  -12.9833    8.3049   15.5354 C   0  0  0  0  0  0  0  0  0  0  0  0
  -12.5381    9.1573   16.6861 O   0  0  0  0  0  0  0  0  0  0  0  0
  1  2  1  6  0  0  0
  1  3  1  0  0  0  0
  1 10  1  0  0  0  0
  3  4  1  6  0  0  0
  3  5  1  0  0  0  0
  5  6  1  1  0  0  0
  5  7  1  0  0  0  0
  7  8  1  6  0  0  0
  7  9  1  0  0  0  0
  9 10  1  1  0  0  0
  9 11  1  0  0  0  0
 11 12  1  1  0  0  0
 11 13  1  0  0  0  0
 14 15  1  6  0  0  0
 14 16  1  0  0  0  0
 14 22  1  0  0  0  0
 16 17  1  0  0  0  0
 17 18  1  6  0  0  0
 17 19  1  0  0  0  0
 19  2  1  1  0  0  0
 19 20  1  0  0  0  0
 20 21  1  6  0  0  0
 20 22  1  0  0  0  0
 22 23  1  1  0  0  0
 24 23  1  6  0  0  0
 24 25  1  0  0  0  0
 24 34  1  0  0  0  0
 25 26  1  1  0  0  0
 25 27  1  0  0  0  0
 27 28  1  6  0  0  0
 27 30  1  0  0  0  0
 28 29  1  0  0  0  0
 30 31  1  6  0  0  0
 30 32  1  0  0  0  0
 30 33  1  0  0  0  0
 33 34  1  0  0  0  0
M  CHG  4   4   1  15   1  18   1  28   1
M  END
>  <CHROM.1>
157.24301305,33.41947059,67.57754536,52.52306791,66.78640821,-170.63850878
72.75679917,-25.53872351,165.49101148,-164.34750778,79.62575947,-168.76998202
-47.30891298,38.83243239,-48.04951784,-12.79419808,5.72065322,18.56664968
-0.95091408,-0.65077800,-0.05272937

>  <Name>
1mwl

>  <RI>
0

>  <Rbt.Current_Directory>
/home/itssahil/PROJECTS/Mol_Feturizer/New_Systems/rnas/1mwl

>  <Rbt.Executable>
rbdock ($Id: //depot/dev/client3/rdock/2013.1/src/exe/rbdock.cxx#4 $)

>  <Rbt.Library>
libRbt.so (2013.1, Build901 2013/11/27)

>  <Rbt.Parameter_File>
/export/apps/rDock/src/rDock_2013.1_src/data/scripts/dock_solv.prm

>  <Rbt.Receptor>
prm/pocket_docking_4.prm

>  <SCORE>
-11.8175

>  <SCORE.INTER>
-3.31164

>  <SCORE.INTER.CONST>
1

>  <SCORE.INTER.POLAR>
-0.555932

>  <SCORE.INTER.ROT>
6

>  <SCORE.INTER.SOLV>
11.4801

>  <SCORE.INTER.VDW>
-11.7813

>  <SCORE.INTER.norm>
-0.097401

>  <SCORE.INTRA>
-12.5118

>  <SCORE.INTRA.DIHEDRAL>
-26.2737

>  <SCORE.INTRA.DIHEDRAL.0>
42.0816

>  <SCORE.INTRA.POLAR>
-0.506416

>  <SCORE.INTRA.POLAR.0>
-0.254682

>  <SCORE.INTRA.REPUL>
0.156622

>  <SCORE.INTRA.REPUL.0>
0

>  <SCORE.INTRA.SOLV>
0.947442

>  <SCORE.INTRA.SOLV.lig_0>
-109.803

>  <SCORE.INTRA.VDW>
1.09001

>  <SCORE.INTRA.VDW.0>
0.32176

>  <SCORE.INTRA.norm>
-0.367994

>  <SCORE.RESTR>
4.00599

>  <SCORE.RESTR.CAVITY>
4.00599

>  <SCORE.RESTR.norm>
0.117823

>  <SCORE.SYSTEM>
0

>  <SCORE.SYSTEM.CONST>
0

>  <SCORE.SYSTEM.DIHEDRAL>
0

>  <SCORE.SYSTEM.SOLV>
0

>  <SCORE.SYSTEM.norm>
0

>  <SCORE.heavy>
34

>  <SCORE.norm>
-0.347572

>  <RMSD>
4.709

$$$$
1mwl
 OpenBabel11021811403D
libRbt.so/2013.1/901 2013/11/27
 34 36  0  0  0  0  0  0  0  0999 V2000
   -8.4581    5.8291   21.2974 C   0  0  2  0  0  0  0  0  0  0  0  0
   -9.5576    6.5787   21.7192 O   0  0  0  0  0  0  0  0  0  0  0  0
   -8.3973    4.5531   22.1834 C   0  0  2  0  0  0  0  0  0  0  0  0
   -9.6410    3.7879   22.0533 N   0  3  0  0  0  0  0  0  0  0  0  0
   -8.1116    4.9284   23.6670 C   0  0  1  0  0  0  0  0  0  0  0  0
   -8.0316    3.8181   24.4421 O   0  0  0  0  0  0  0  0  0  0  0  0
   -6.7791    5.7460   23.7271 C   0  0  2  0  0  0  0  0  0  0  0  0
   -6.4775    6.1031   25.0923 O   0  0  0  0  0  0  0  0  0  0  0  0
   -6.9412    7.0196   22.8295 C   0  0  2  0  0  0  0  0  0  0  0  0
   -7.2569    6.6300   21.4374 O   0  0  0  0  0  0  0  0  0  0  0  0
   -5.7016    7.9192   22.7656 C   0  0  2  0  0  0  0  0  0  0  0  0
   -4.9935    7.8263   23.9586 O   0  0  0  0  0  0  0  0  0  0  0  0
   -6.0315    9.4109   22.5751 C   0  0  0  0  0  0  0  0  0  0  0  0
  -11.1102    8.8871   18.4757 C   0  0  2  0  0  0  0  0  0  0  0  0
  -12.0656    9.4884   17.5108 N   0  3  0  0  0  0  0  0  0  0  0  0
  -11.0840    7.3366   18.3311 C   0  0  0  0  0  0  0  0  0  0  0  0
  -10.0842    6.7089   19.3687 C   0  0  2  0  0  0  0  0  0  0  0  0
  -10.0737    5.2097   19.1984 N   0  3  0  0  0  0  0  0  0  0  0  0
  -10.5121    7.1248   20.8179 C   0  0  2  0  0  0  0  0  0  0  0  0
  -10.5200    8.6689   20.9320 C   0  0  2  0  0  0  0  0  0  0  0  0
  -10.9382    9.0305   22.2260 O   0  0  0  0  0  0  0  0  0  0  0  0
  -11.5233    9.2715   19.9124 C   0  0  1  0  0  0  0  0  0  0  0  0
  -11.5159   10.6861   20.0363 O   0  0  0  0  0  0  0  0  0  0  0  0
  -11.9528   11.2574   21.2385 C   0  0  2  0  0  0  0  0  0  0  0  0
  -13.4440   10.9073   21.4013 C   0  0  2  0  0  0  0  0  0  0  0  0
  -13.5825    9.5041   21.4667 O   0  0  0  0  0  0  0  0  0  0  0  0
  -14.2433   11.4899   20.1861 C   0  0  1  0  0  0  0  0  0  0  0  0
  -15.6900   11.1694   20.2522 N   0  3  0  0  0  0  0  0  0  0  0  0
  -16.1390   10.4998   19.0048 C   0  0  0  0  0  0  0  0  0  0  0  0
  -14.0413   13.0434   20.1342 C   0  0  2  0  0  0  0  0  0  0  0  0
  -14.5268   13.6414   21.3508 O   0  0  0  0  0  0  0  0  0  0  0  0
  -14.7621   13.6507   19.0301 C   0  0  0  0  0  0  0  0  0  0  0  0
  -12.5208   13.3833   20.0594 C   0  0  0  0  0  0  0  0  0  0  0  0
  -11.7770   12.7186   21.1791 O   0  0  0  0  0  0  0  0  0  0  0  0
  1  2  1  1  0  0  0
  1  3  1  0  0  0  0
  1 10  1  0  0  0  0
  3  4  1  1  0  0  0
  3  5  1  0  0  0  0
  5  6  1  1  0  0  0
  5  7  1  0  0  0  0
  7  8  1  1  0  0  0
  7  9  1  0  0  0  0
  9 10  1  6  0  0  0
  9 11  1  0  0  0  0
 11 12  1  1  0  0  0
 11 13  1  0  0  0  0
 14 15  1  6  0  0  0
 14 16  1  0  0  0  0
 14 22  1  0  0  0  0
 16 17  1  0  0  0  0
 17 18  1  1  0  0  0
 17 19  1  0  0  0  0
 19  2  1  1  0  0  0
 19 20  1  0  0  0  0
 20 21  1  1  0  0  0
 20 22  1  0  0  0  0
 22 23  1  6  0  0  0
 24 23  1  6  0  0  0
 24 25  1  0  0  0  0
 24 34  1  0  0  0  0
 25 26  1  6  0  0  0
 25 27  1  0  0  0  0
 27 28  1  1  0  0  0
 27 30  1  0  0  0  0
 28 29  1  0  0  0  0
 30 31  1  1  0  0  0
 30 32  1  0  0  0  0
 30 33  1  0  0  0  0
 33 34  1  0  0  0  0
M  CHG  4   4   1  15   1  18   1  28   1
M  END
>  <CHROM.1>
-132.39922959,0.57533988,-36.50199284,170.06173518,171.19213573,-30.23664337
-72.69526572,-50.64719024,141.77028683,-76.74902700,175.57392084,-64.07377508
179.11441434,-5.54933749,-60.68932876,-10.55440034,8.62254527,21.20507126
0.54684420,0.60298960,-2.85569655

>  <Name>
1mwl

>  <RI>
0

>  <Rbt.Current_Directory>
/home/itssahil/PROJECTS/Mol_Feturizer/New_Systems/rnas/1mwl

>  <Rbt.Executable>
rbdock ($Id: //depot/dev/client3/rdock/2013.1/src/exe/rbdock.cxx#4 $)

>  <Rbt.Library>
libRbt.so (2013.1, Build901 2013/11/27)

>  <Rbt.Parameter_File>
/export/apps/rDock/src/rDock_2013.1_src/data/scripts/dock_solv.prm

>  <Rbt.Receptor>
prm/blind_docking_100.prm

>  <SCORE>
-8.57071

>  <SCORE.INTER>
-14.4978

>  <SCORE.INTER.CONST>
1

>  <SCORE.INTER.POLAR>
-1.49334

>  <SCORE.INTER.ROT>
6

>  <SCORE.INTER.SOLV>
17.7627

>  <SCORE.INTER.VDW>
-18.2083

>  <SCORE.INTER.norm>
-0.426406

>  <SCORE.INTRA>
-3.23412

>  <SCORE.INTRA.DIHEDRAL>
-15.0982

>  <SCORE.INTRA.DIHEDRAL.0>
42.0816

>  <SCORE.INTRA.POLAR>
-0.910618

>  <SCORE.INTRA.POLAR.0>
-0.254682

>  <SCORE.INTRA.REPUL>
0

>  <SCORE.INTRA.REPUL.0>
0

>  <SCORE.INTRA.SOLV>
5.07086

>  <SCORE.INTRA.SOLV.lig_0>
-109.803

>  <SCORE.INTRA.VDW>
4.87565

>  <SCORE.INTRA.VDW.0>
0.32176

>  <SCORE.INTRA.norm>
-0.0951213

>  <SCORE.RESTR>
9.16121

>  <SCORE.RESTR.CAVITY>
9.16121

>  <SCORE.RESTR.norm>
0.269447

>  <SCORE.SYSTEM>
0

>  <SCORE.SYSTEM.CONST>
0

>  <SCORE.SYSTEM.DIHEDRAL>
0

>  <SCORE.SYSTEM.SOLV>
0

>  <SCORE.SYSTEM.norm>
0

>  <SCORE.heavy>
34

>  <SCORE.norm>
-0.25208

>  <RMSD>
4.716

$$$$
1mwl
 OpenBabel11021811403D
libRbt.so/2013.1/901 2013/11/27
 34 36  0  0  0  0  0  0  0  0999 V2000
  -11.3362    6.9014   20.5078 C   0  0  2  0  0  0  0  0  0  0  0  0
  -10.8756    6.7499   19.1988 O   0  0  0  0  0  0  0  0  0  0  0  0
  -10.4412    7.9708   21.1952 C   0  0  2  0  0  0  0  0  0  0  0  0
  -10.5113    9.2370   20.4594 N   0  3  0  0  0  0  0  0  0  0  0  0
   -8.9747    7.4628   21.3169 C   0  0  1  0  0  0  0  0  0  0  0  0
   -8.1929    8.3805   21.9390 O   0  0  0  0  0  0  0  0  0  0  0  0
   -8.9788    6.1106   22.1036 C   0  0  2  0  0  0  0  0  0  0  0  0
   -7.6310    5.6145   22.2442 O   0  0  0  0  0  0  0  0  0  0  0  0
   -9.8810    5.0916   21.3280 C   0  0  2  0  0  0  0  0  0  0  0  0
  -11.2547    5.6237   21.1895 O   0  0  0  0  0  0  0  0  0  0  0  0
  -10.0058    3.7146   21.9900 C   0  0  2  0  0  0  0  0  0  0  0  0
   -8.7955    3.3670   22.5797 O   0  0  0  0  0  0  0  0  0  0  0  0
  -10.3444    2.5837   21.0018 C   0  0  0  0  0  0  0  0  0  0  0  0
  -12.9320    5.9434   15.5409 C   0  0  2  0  0  0  0  0  0  0  0  0
  -13.6772    5.2214   14.4784 N   0  3  0  0  0  0  0  0  0  0  0  0
  -11.5215    5.3159   15.7477 C   0  0  0  0  0  0  0  0  0  0  0  0
  -10.7486    6.0751   16.8863 C   0  0  2  0  0  0  0  0  0  0  0  0
   -9.3851    5.4517   17.0567 N   0  3  0  0  0  0  0  0  0  0  0  0
  -11.5842    6.0128   18.2107 C   0  0  2  0  0  0  0  0  0  0  0  0
  -12.9751    6.6509   17.9754 C   0  0  2  0  0  0  0  0  0  0  0  0
  -13.7280    6.5586   19.1606 O   0  0  0  0  0  0  0  0  0  0  0  0
  -13.7310    5.8803   16.8600 C   0  0  1  0  0  0  0  0  0  0  0  0
  -15.0030    6.4802   16.6631 O   0  0  0  0  0  0  0  0  0  0  0  0
  -16.0787    5.6656   16.2866 C   0  0  2  0  0  0  0  0  0  0  0  0
  -17.3335    6.5570   16.2242 C   0  0  2  0  0  0  0  0  0  0  0  0
  -17.1369    7.5603   15.2509 O   0  0  0  0  0  0  0  0  0  0  0  0
  -17.5832    7.1908   17.6351 C   0  0  1  0  0  0  0  0  0  0  0  0
  -18.7620    8.0909   17.6525 N   0  3  0  0  0  0  0  0  0  0  0  0
  -18.4065    9.4351   17.1302 C   0  0  0  0  0  0  0  0  0  0  0  0
  -17.7692    6.0451   18.6886 C   0  0  2  0  0  0  0  0  0  0  0  0
  -18.8995    5.2284   18.3296 O   0  0  0  0  0  0  0  0  0  0  0  0
  -18.0106    6.5644   20.0226 C   0  0  0  0  0  0  0  0  0  0  0  0
  -16.5285    5.0998   18.6762 C   0  0  0  0  0  0  0  0  0  0  0  0
  -16.2608    4.6006   17.2877 O   0  0  0  0  0  0  0  0  0  0  0  0
  1  2  1  6  0  0  0
  1  3  1  0  0  0  0
  1 10  1  0  0  0  0
  3  4  1  6  0  0  0
  3  5  1  0  0  0  0
  5  6  1  1  0  0  0
  5  7  1  0  0  0  0
  7  8  1  6  0  0  0
  7  9  1  0  0  0  0
  9 10  1  1  0  0  0
  9 11  1  0  0  0  0
 11 12  1  6  0  0  0
 11 13  1  0  0  0  0
 14 15  1  6  0  0  0
 14 16  1  0  0  0  0
 14 22  1  0  0  0  0
 16 17  1  0  0  0  0
 17 18  1  1  0  0  0
 17 19  1  0  0  0  0
 19  2  1  1  0  0  0
 19 20  1  0  0  0  0
 20 21  1  1  0  0  0
 20 22  1  0  0  0  0
 22 23  1  6  0  0  0
 24 23  1  1  0  0  0
 24 25  1  0  0  0  0
 24 34  1  0  0  0  0
 25 26  1  6  0  0  0
 25 27  1  0  0  0  0
 27 28  1  6  0  0  0
 27 30  1  0  0  0  0
 28 29  1  0  0  0  0
 30 31  1  6  0  0  0
 30 32  1  0  0  0  0
 30 33  1  0  0  0  0
 33 34  1  0  0  0  0
M  CHG  4   4   1  15   1  18   1  28   1
M  END
>  <CHROM.1>
-169.69615736,-179.92947890,172.50687097,-60.01982217,62.87561701,-36.33692043
-42.93099769,-50.04996147,-54.16296879,178.72068749,92.38078264,176.83120878
70.79566568,38.28301778,-45.53776972,-13.08394564,6.20094377,18.79156478
0.45155413,-0.17516216,1.41359270

>  <Name>
1mwl

>  <RI>
0

>  <Rbt.Current_Directory>
/home/itssahil/PROJECTS/Mol_Feturizer/New_Systems/rnas/1mwl

>  <Rbt.Executable>
rbdock ($Id: //depot/dev/client3/rdock/2013.1/src/exe/rbdock.cxx#4 $)

>  <Rbt.Library>
libRbt.so (2013.1, Build901 2013/11/27)

>  <Rbt.Parameter_File>
/export/apps/rDock/src/rDock_2013.1_src/data/scripts/dock_solv.prm

>  <Rbt.Receptor>
prm/pocket_docking_7.prm

>  <SCORE>
-56.314

>  <SCORE.INTER>
-37.9125

>  <SCORE.INTER.CONST>
1

>  <SCORE.INTER.POLAR>
-5.94959

>  <SCORE.INTER.ROT>
6

>  <SCORE.INTER.SOLV>
14.4052

>  <SCORE.INTER.VDW>
-17.8447

>  <SCORE.INTER.norm>
-1.11507

>  <SCORE.INTRA>
-18.4015

>  <SCORE.INTRA.DIHEDRAL>
-30.9765

>  <SCORE.INTRA.DIHEDRAL.0>
42.0816

>  <SCORE.INTRA.POLAR>
0.130789

>  <SCORE.INTRA.POLAR.0>
-0.254682

>  <SCORE.INTRA.REPUL>
0

>  <SCORE.INTRA.REPUL.0>
0

>  <SCORE.INTRA.SOLV>
-1.75086

>  <SCORE.INTRA.SOLV.lig_0>
-109.803

>  <SCORE.INTRA.VDW>
-2.48247

>  <SCORE.INTRA.VDW.0>
0.32176

>  <SCORE.INTRA.norm>
-0.54122

>  <SCORE.RESTR>
0

>  <SCORE.RESTR.CAVITY>
0

>  <SCORE.RESTR.norm>
0

>  <SCORE.SYSTEM>
0

>  <SCORE.SYSTEM.CONST>
0

>  <SCORE.SYSTEM.DIHEDRAL>
0

>  <SCORE.SYSTEM.SOLV>
0

>  <SCORE.SYSTEM.norm>
0

>  <SCORE.heavy>
34

>  <SCORE.norm>
-1.65629

>  <RMSD>
4.743

$$$$
1mwl
 OpenBabel11021811403D
libRbt.so/2013.1/901 2013/11/27
 34 36  0  0  0  0  0  0  0  0999 V2000
   -8.6904    5.8318   21.0273 C   0  0  2  0  0  0  0  0  0  0  0  0
   -9.5971    6.8084   21.4430 O   0  0  0  0  0  0  0  0  0  0  0  0
   -8.7749    4.6564   22.0413 C   0  0  2  0  0  0  0  0  0  0  0  0
  -10.1408    4.1256   22.0869 N   0  3  0  0  0  0  0  0  0  0  0  0
   -8.2930    5.1115   23.4500 C   0  0  1  0  0  0  0  0  0  0  0  0
   -8.3397    4.0841   24.3346 O   0  0  0  0  0  0  0  0  0  0  0  0
   -6.8374    5.6704   23.3229 C   0  0  2  0  0  0  0  0  0  0  0  0
   -6.3539    6.0935   24.6151 O   0  0  0  0  0  0  0  0  0  0  0  0
   -6.8535    6.8610   22.3050 C   0  0  2  0  0  0  0  0  0  0  0  0
   -7.3590    6.4063   20.9908 O   0  0  0  0  0  0  0  0  0  0  0  0
   -5.4858    7.5057   22.0527 C   0  0  2  0  0  0  0  0  0  0  0  0
   -4.4794    6.6647   22.5144 O   0  0  0  0  0  0  0  0  0  0  0  0
   -5.2934    8.8485   22.7808 C   0  0  0  0  0  0  0  0  0  0  0  0
  -11.4101    9.2561   18.4461 C   0  0  2  0  0  0  0  0  0  0  0  0
  -12.4298    9.8431   17.5400 N   0  3  0  0  0  0  0  0  0  0  0  0
  -11.2053    7.7431   18.1380 C   0  0  0  0  0  0  0  0  0  0  0  0
  -10.1383    7.1274   19.1140 C   0  0  2  0  0  0  0  0  0  0  0  0
   -9.9550    5.6662   18.7855 N   0  3  0  0  0  0  0  0  0  0  0  0
  -10.6095    7.3342   20.5944 C   0  0  2  0  0  0  0  0  0  0  0  0
  -10.7955    8.8461   20.8717 C   0  0  2  0  0  0  0  0  0  0  0  0
  -11.2509    9.0170   22.1921 O   0  0  0  0  0  0  0  0  0  0  0  0
  -11.8630    9.4348   19.9109 C   0  0  1  0  0  0  0  0  0  0  0  0
  -12.0188   10.8195   20.1844 O   0  0  0  0  0  0  0  0  0  0  0  0
  -12.9948   11.2161   21.1078 C   0  0  2  0  0  0  0  0  0  0  0  0
  -14.2805   11.5245   20.3174 C   0  0  2  0  0  0  0  0  0  0  0  0
  -14.7050   10.3528   19.6545 O   0  0  0  0  0  0  0  0  0  0  0  0
  -13.9885   12.6709   19.2900 C   0  0  1  0  0  0  0  0  0  0  0  0
  -15.1737   13.0088   18.4646 N   0  3  0  0  0  0  0  0  0  0  0  0
  -15.3766   11.9982   17.3953 C   0  0  0  0  0  0  0  0  0  0  0  0
  -13.4952   13.9420   20.0634 C   0  0  2  0  0  0  0  0  0  0  0  0
  -14.5112   14.3795   20.9853 O   0  0  0  0  0  0  0  0  0  0  0  0
  -13.2103   15.0489   19.1684 C   0  0  0  0  0  0  0  0  0  0  0  0
  -12.2457   13.5908   20.9285 C   0  0  0  0  0  0  0  0  0  0  0  0
  -12.5347   12.4204   21.8203 O   0  0  0  0  0  0  0  0  0  0  0  0
  1  2  1  1  0  0  0
  1  3  1  0  0  0  0
  1 10  1  0  0  0  0
  3  4  1  1  0  0  0
  3  5  1  0  0  0  0
  5  6  1  1  0  0  0
  5  7  1  0  0  0  0
  7  8  1  1  0  0  0
  7  9  1  0  0  0  0
  9 10  1  6  0  0  0
  9 11  1  0  0  0  0
 11 12  1  1  0  0  0
 11 13  1  0  0  0  0
 14 15  1  6  0  0  0
 14 16  1  0  0  0  0
 14 22  1  0  0  0  0
 16 17  1  0  0  0  0
 17 18  1  6  0  0  0
 17 19  1  0  0  0  0
 19  2  1  1  0  0  0
 19 20  1  0  0  0  0
 20 21  1  1  0  0  0
 20 22  1  0  0  0  0
 22 23  1  1  0  0  0
 24 23  1  6  0  0  0
 24 25  1  0  0  0  0
 24 34  1  0  0  0  0
 25 26  1  6  0  0  0
 25 27  1  0  0  0  0
 27 28  1  1  0  0  0
 27 30  1  0  0  0  0
 28 29  1  0  0  0  0
 30 31  1  1  0  0  0
 30 32  1  0  0  0  0
 30 33  1  0  0  0  0
 33 34  1  0  0  0  0
M  CHG  4   4   1  15   1  18   1  28   1
M  END
>  <CHROM.1>
-125.71112313,-23.80789808,69.05896153,-61.96158856,59.65282880,15.75815675
-61.60306287,118.00176284,12.11190493,162.44713082,148.31565893,-93.02647772
61.01464059,42.50563602,-59.73925550,-10.61965159,8.91714821,20.84343469
0.59680440,0.63909162,-2.84733840

>  <Name>
1mwl

>  <RI>
0

>  <Rbt.Current_Directory>
/home/itssahil/PROJECTS/Mol_Feturizer/New_Systems/rnas/1mwl

>  <Rbt.Executable>
rbdock ($Id: //depot/dev/client3/rdock/2013.1/src/exe/rbdock.cxx#4 $)

>  <Rbt.Library>
libRbt.so (2013.1, Build901 2013/11/27)

>  <Rbt.Parameter_File>
/export/apps/rDock/src/rDock_2013.1_src/data/scripts/dock_solv.prm

>  <Rbt.Receptor>
prm/blind_docking_100.prm

>  <SCORE>
-26.0864

>  <SCORE.INTER>
-33.5691

>  <SCORE.INTER.CONST>
1

>  <SCORE.INTER.POLAR>
-3.58709

>  <SCORE.INTER.ROT>
6

>  <SCORE.INTER.SOLV>
19.7885

>  <SCORE.INTER.VDW>
-24.6186

>  <SCORE.INTER.norm>
-0.987325

>  <SCORE.INTRA>
-2.42788

>  <SCORE.INTRA.DIHEDRAL>
-8.45925

>  <SCORE.INTRA.DIHEDRAL.0>
42.0816

>  <SCORE.INTRA.POLAR>
-1.22237

>  <SCORE.INTRA.POLAR.0>
-0.254682

>  <SCORE.INTRA.REPUL>
0

>  <SCORE.INTRA.REPUL.0>
0

>  <SCORE.INTRA.SOLV>
5.28825

>  <SCORE.INTRA.SOLV.lig_0>
-109.803

>  <SCORE.INTRA.VDW>
3.31368

>  <SCORE.INTRA.VDW.0>
0.32176

>  <SCORE.INTRA.norm>
-0.0714084

>  <SCORE.RESTR>
9.91058

>  <SCORE.RESTR.CAVITY>
9.91058

>  <SCORE.RESTR.norm>
0.291488

>  <SCORE.SYSTEM>
0

>  <SCORE.SYSTEM.CONST>
0

>  <SCORE.SYSTEM.DIHEDRAL>
0

>  <SCORE.SYSTEM.SOLV>
0

>  <SCORE.SYSTEM.norm>
0

>  <SCORE.heavy>
34

>  <SCORE.norm>
-0.767246

>  <RMSD>
4.763

$$$$
1mwl
 OpenBabel11021811403D
libRbt.so/2013.1/901 2013/11/27
 34 36  0  0  0  0  0  0  0  0999 V2000
   -8.6696    5.7790   21.0695 C   0  0  2  0  0  0  0  0  0  0  0  0
   -9.6274    6.6982   21.5012 O   0  0  0  0  0  0  0  0  0  0  0  0
   -8.7169    4.5665   22.0414 C   0  0  2  0  0  0  0  0  0  0  0  0
  -10.0573    3.9727   22.0436 N   0  3  0  0  0  0  0  0  0  0  0  0
   -8.2805    4.9938   23.4733 C   0  0  1  0  0  0  0  0  0  0  0  0
   -8.2946    3.9352   24.3215 O   0  0  0  0  0  0  0  0  0  0  0  0
   -6.8503    5.6227   23.3923 C   0  0  2  0  0  0  0  0  0  0  0  0
   -6.4089    6.0221   24.7067 O   0  0  0  0  0  0  0  0  0  0  0  0
   -6.9042    6.8459   22.4152 C   0  0  2  0  0  0  0  0  0  0  0  0
   -7.3658    6.4146   21.0772 O   0  0  0  0  0  0  0  0  0  0  0  0
   -5.5637    7.5606   22.2103 C   0  0  2  0  0  0  0  0  0  0  0  0
   -4.5249    6.7372   22.6302 O   0  0  0  0  0  0  0  0  0  0  0  0
   -5.4315    8.8661   23.0157 C   0  0  0  0  0  0  0  0  0  0  0  0
  -11.3226    9.2088   18.4875 C   0  0  2  0  0  0  0  0  0  0  0  0
  -12.3100    9.8261   17.5659 N   0  3  0  0  0  0  0  0  0  0  0  0
  -11.1473    7.6936   18.1723 C   0  0  0  0  0  0  0  0  0  0  0  0
  -10.1147    7.0461   19.1644 C   0  0  2  0  0  0  0  0  0  0  0  0
   -9.9593    5.5833   18.8288 N   0  3  0  0  0  0  0  0  0  0  0  0
  -10.6101    7.2537   20.6368 C   0  0  2  0  0  0  0  0  0  0  0  0
  -10.7659    8.7676   20.9216 C   0  0  2  0  0  0  0  0  0  0  0  0
  -11.2433    8.9401   22.2340 O   0  0  0  0  0  0  0  0  0  0  0  0
  -11.8000    9.3881   19.9444 C   0  0  1  0  0  0  0  0  0  0  0  0
  -11.9286   10.7741   20.2250 O   0  0  0  0  0  0  0  0  0  0  0  0
  -12.9055   11.1862   21.1407 C   0  0  2  0  0  0  0  0  0  0  0  0
  -14.2005   11.4474   20.3484 C   0  0  2  0  0  0  0  0  0  0  0  0
  -14.6101   10.2474   19.7281 O   0  0  0  0  0  0  0  0  0  0  0  0
  -13.9328   12.5629   19.2812 C   0  0  1  0  0  0  0  0  0  0  0  0
  -15.1280   12.8539   18.4523 N   0  3  0  0  0  0  0  0  0  0  0  0
  -16.3259   13.0551   19.3071 C   0  0  0  0  0  0  0  0  0  0  0  0
  -13.4555   13.8670   20.0082 C   0  0  2  0  0  0  0  0  0  0  0  0
  -14.4731   14.3193   20.9211 O   0  0  0  0  0  0  0  0  0  0  0  0
  -13.1935   14.9474   19.0746 C   0  0  0  0  0  0  0  0  0  0  0  0
  -12.1956   13.5651   20.8768 C   0  0  0  0  0  0  0  0  0  0  0  0
  -12.4607   12.4210   21.8093 O   0  0  0  0  0  0  0  0  0  0  0  0
  1  2  1  1  0  0  0
  1  3  1  0  0  0  0
  1 10  1  0  0  0  0
  3  4  1  1  0  0  0
  3  5  1  0  0  0  0
  5  6  1  1  0  0  0
  5  7  1  0  0  0  0
  7  8  1  1  0  0  0
  7  9  1  0  0  0  0
  9 10  1  6  0  0  0
  9 11  1  0  0  0  0
 11 12  1  1  0  0  0
 11 13  1  0  0  0  0
 14 15  1  6  0  0  0
 14 16  1  0  0  0  0
 14 22  1  0  0  0  0
 16 17  1  0  0  0  0
 17 18  1  6  0  0  0
 17 19  1  0  0  0  0
 19  2  1  1  0  0  0
 19 20  1  0  0  0  0
 20 21  1  1  0  0  0
 20 22  1  0  0  0  0
 22 23  1  1  0  0  0
 24 23  1  6  0  0  0
 24 25  1  0  0  0  0
 24 34  1  0  0  0  0
 25 26  1  6  0  0  0
 25 27  1  0  0  0  0
 27 28  1  1  0  0  0
 27 30  1  0  0  0  0
 28 29  1  0  0  0  0
 30 31  1  1  0  0  0
 30 32  1  0  0  0  0
 30 33  1  0  0  0  0
 33 34  1  0  0  0  0
M  CHG  4   4   1  15   1  18   1  28   1
M  END
>  <CHROM.1>
-128.72677094,-18.71919964,-42.13061090,173.84452892,-55.05736575,17.26691205
169.63067583,115.84636562,-105.35724925,-55.57351388,148.85547453,-89.73860769
172.72893781,168.79096798,179.27697140,-10.61915256,8.89304633,20.93039925
0.62944997,0.60984223,-2.87848167

>  <Name>
1mwl

>  <RI>
0

>  <Rbt.Current_Directory>
/home/itssahil/PROJECTS/Mol_Feturizer/New_Systems/rnas/1mwl

>  <Rbt.Executable>
rbdock ($Id: //depot/dev/client3/rdock/2013.1/src/exe/rbdock.cxx#4 $)

>  <Rbt.Library>
libRbt.so (2013.1, Build901 2013/11/27)

>  <Rbt.Parameter_File>
/export/apps/rDock/src/rDock_2013.1_src/data/scripts/dock_solv.prm

>  <Rbt.Receptor>
prm/blind_docking_100.prm

>  <SCORE>
-17.8954

>  <SCORE.INTER>
-28.1349

>  <SCORE.INTER.CONST>
1

>  <SCORE.INTER.POLAR>
-3.31206

>  <SCORE.INTER.ROT>
6

>  <SCORE.INTER.SOLV>
20.9585

>  <SCORE.INTER.VDW>
-22.3026

>  <SCORE.INTER.norm>
-0.827498

>  <SCORE.INTRA>
0.496402

>  <SCORE.INTRA.DIHEDRAL>
-9.04138

>  <SCORE.INTRA.DIHEDRAL.0>
42.0816

>  <SCORE.INTRA.POLAR>
-0.584756

>  <SCORE.INTRA.POLAR.0>
-0.254682

>  <SCORE.INTRA.REPUL>
0

>  <SCORE.INTRA.REPUL.0>
0

>  <SCORE.INTRA.SOLV>
3.06309

>  <SCORE.INTRA.SOLV.lig_0>
-109.803

>  <SCORE.INTRA.VDW>
5.47372

>  <SCORE.INTRA.VDW.0>
0.32176

>  <SCORE.INTRA.norm>
0.0146001

>  <SCORE.RESTR>
9.74313

>  <SCORE.RESTR.CAVITY>
9.74313

>  <SCORE.RESTR.norm>
0.286563

>  <SCORE.SYSTEM>
0

>  <SCORE.SYSTEM.CONST>
0

>  <SCORE.SYSTEM.DIHEDRAL>
0

>  <SCORE.SYSTEM.SOLV>
0

>  <SCORE.SYSTEM.norm>
0

>  <SCORE.heavy>
34

>  <SCORE.norm>
-0.526335

>  <RMSD>
4.794

$$$$
1mwl
 OpenBabel11021811403D
libRbt.so/2013.1/901 2013/11/27
 34 36  0  0  0  0  0  0  0  0999 V2000
   -8.1847    5.0441   21.3255 C   0  0  2  0  0  0  0  0  0  0  0  0
   -9.2488    5.9354   21.4741 O   0  0  0  0  0  0  0  0  0  0  0  0
   -8.2672    4.0218   22.4938 C   0  0  2  0  0  0  0  0  0  0  0  0
   -9.5541    3.3200   22.4612 N   0  3  0  0  0  0  0  0  0  0  0  0
   -8.0395    4.7312   23.8607 C   0  0  1  0  0  0  0  0  0  0  0  0
   -8.0847    3.8410   24.8834 O   0  0  0  0  0  0  0  0  0  0  0  0
   -6.6567    5.4616   23.8196 C   0  0  2  0  0  0  0  0  0  0  0  0
   -6.4077    6.1235   25.0774 O   0  0  0  0  0  0  0  0  0  0  0  0
   -6.6744    6.4845   22.6333 C   0  0  2  0  0  0  0  0  0  0  0  0
   -6.9383    5.7854   21.3562 O   0  0  0  0  0  0  0  0  0  0  0  0
   -5.3711    7.2693   22.4457 C   0  0  2  0  0  0  0  0  0  0  0  0
   -4.7457    6.8648   21.2715 O   0  0  0  0  0  0  0  0  0  0  0  0
   -4.3498    7.0480   23.5764 C   0  0  0  0  0  0  0  0  0  0  0  0
  -11.1890    8.2195   18.4282 C   0  0  2  0  0  0  0  0  0  0  0  0
  -12.1123    8.5941   17.3270 N   0  3  0  0  0  0  0  0  0  0  0  0
  -10.2579    7.0496   17.9923 C   0  0  0  0  0  0  0  0  0  0  0  0
   -9.2978    6.6488   19.1703 C   0  0  2  0  0  0  0  0  0  0  0  0
   -8.4036    5.5217   18.7156 N   0  3  0  0  0  0  0  0  0  0  0  0
  -10.1521    6.2430   20.4200 C   0  0  2  0  0  0  0  0  0  0  0  0
  -11.0592    7.4276   20.8335 C   0  0  2  0  0  0  0  0  0  0  0  0
  -11.8453    7.0403   21.9344 O   0  0  0  0  0  0  0  0  0  0  0  0
  -12.0112    7.8004   19.6656 C   0  0  1  0  0  0  0  0  0  0  0  0
  -12.8341    8.8857   20.0673 O   0  0  0  0  0  0  0  0  0  0  0  0
  -12.2215   10.0706   20.4954 C   0  0  2  0  0  0  0  0  0  0  0  0
  -13.0263   10.5983   21.6981 C   0  0  2  0  0  0  0  0  0  0  0  0
  -12.9833    9.6421   22.7356 O   0  0  0  0  0  0  0  0  0  0  0  0
  -14.5032   10.8668   21.2490 C   0  0  1  0  0  0  0  0  0  0  0  0
  -15.3557   11.3515   22.3619 N   0  3  0  0  0  0  0  0  0  0  0  0
  -14.7489   12.5419   23.0107 C   0  0  0  0  0  0  0  0  0  0  0  0
  -14.5041   11.9115   20.0803 C   0  0  2  0  0  0  0  0  0  0  0  0
  -13.9129   13.1462   20.5266 O   0  0  0  0  0  0  0  0  0  0  0  0
  -15.8470   12.2113   19.6176 C   0  0  0  0  0  0  0  0  0  0  0  0
  -13.6124   11.4020   18.9063 C   0  0  0  0  0  0  0  0  0  0  0  0
  -12.2395   11.0551   19.4000 O   0  0  0  0  0  0  0  0  0  0  0  0
  1  2  1  1  0  0  0
  1  3  1  0  0  0  0
  1 10  1  0  0  0  0
  3  4  1  1  0  0  0
  3  5  1  0  0  0  0
  5  6  1  1  0  0  0
  5  7  1  0  0  0  0
  7  8  1  1  0  0  0
  7  9  1  0  0  0  0
  9 10  1  6  0  0  0
  9 11  1  0  0  0  0
 11 12  1  6  0  0  0
 11 13  1  0  0  0  0
 14 15  1  6  0  0  0
 14 16  1  0  0  0  0
 14 22  1  0  0  0  0
 16 17  1  0  0  0  0
 17 18  1  6  0  0  0
 17 19  1  0  0  0  0
 19  2  1  1  0  0  0
 19 20  1  0  0  0  0
 20 21  1  1  0  0  0
 20 22  1  0  0  0  0
 22 23  1  1  0  0  0
 24 23  1  6  0  0  0
 24 25  1  0  0  0  0
 24 34  1  0  0  0  0
 25 26  1  1  0  0  0
 25 27  1  0  0  0  0
 27 28  1  1  0  0  0
 27 30  1  0  0  0  0
 28 29  1  0  0  0  0
 30 31  1  1  0  0  0
 30 32  1  0  0  0  0
 30 33  1  0  0  0  0
 33 34  1  0  0  0  0
M  CHG  4   4   1  15   1  18   1  28   1
M  END
>  <CHROM.1>
-128.90059450,-51.47461423,-164.20095965,162.39912715,80.14704684,110.80063404
89.47286485,-54.83073724,157.86869864,62.87735937,-63.12275713,-140.04448816
-37.49427422,173.92094687,-179.96781398,-10.42546583,7.93206696,21.23909750
-0.12210836,0.70793912,-1.75162777

>  <Name>
1mwl

>  <RI>
0

>  <Rbt.Current_Directory>
/home/itssahil/PROJECTS/Mol_Feturizer/New_Systems/rnas/1mwl

>  <Rbt.Executable>
rbdock ($Id: //depot/dev/client3/rdock/2013.1/src/exe/rbdock.cxx#4 $)

>  <Rbt.Library>
libRbt.so (2013.1, Build901 2013/11/27)

>  <Rbt.Parameter_File>
/export/apps/rDock/src/rDock_2013.1_src/data/scripts/dock_solv.prm

>  <Rbt.Receptor>
prm/blind_docking_100.prm

>  <SCORE>
-12.0614

>  <SCORE.INTER>
-19.0536

>  <SCORE.INTER.CONST>
1

>  <SCORE.INTER.POLAR>
-2.31465

>  <SCORE.INTER.ROT>
6

>  <SCORE.INTER.SOLV>
25.6097

>  <SCORE.INTER.VDW>
-21.1235

>  <SCORE.INTER.norm>
-0.5604

>  <SCORE.INTRA>
-2.99671

>  <SCORE.INTRA.DIHEDRAL>
-13.5186

>  <SCORE.INTRA.DIHEDRAL.0>
42.0816

>  <SCORE.INTRA.POLAR>
-1.55113

>  <SCORE.INTRA.POLAR.0>
-0.254682

>  <SCORE.INTRA.REPUL>
0

>  <SCORE.INTRA.REPUL.0>
0

>  <SCORE.INTRA.SOLV>
-0.562283

>  <SCORE.INTRA.SOLV.lig_0>
-109.803

>  <SCORE.INTRA.VDW>
9.31757

>  <SCORE.INTRA.VDW.0>
0.32176

>  <SCORE.INTRA.norm>
-0.0881386

>  <SCORE.RESTR>
9.98888

>  <SCORE.RESTR.CAVITY>
9.98888

>  <SCORE.RESTR.norm>
0.29379

>  <SCORE.SYSTEM>
0

>  <SCORE.SYSTEM.CONST>
0

>  <SCORE.SYSTEM.DIHEDRAL>
0

>  <SCORE.SYSTEM.SOLV>
0

>  <SCORE.SYSTEM.norm>
0

>  <SCORE.heavy>
34

>  <SCORE.norm>
-0.354748

>  <RMSD>
4.818

$$$$
1mwl
 OpenBabel11021811403D
libRbt.so/2013.1/901 2013/11/27
 34 36  0  0  0  0  0  0  0  0999 V2000
   -8.9311    5.6899   20.9368 C   0  0  2  0  0  0  0  0  0  0  0  0
   -9.8671    6.6485   21.3291 O   0  0  0  0  0  0  0  0  0  0  0  0
   -8.9936    4.5288   21.9686 C   0  0  2  0  0  0  0  0  0  0  0  0
  -10.3453    3.9626   22.0110 N   0  3  0  0  0  0  0  0  0  0  0  0
   -8.5367    5.0185   23.3740 C   0  0  1  0  0  0  0  0  0  0  0  0
   -8.5641    4.0042   24.2744 O   0  0  0  0  0  0  0  0  0  0  0  0
   -7.0952    5.6140   23.2505 C   0  0  2  0  0  0  0  0  0  0  0  0
   -6.6348    6.0699   24.5399 O   0  0  0  0  0  0  0  0  0  0  0  0
   -7.1338    6.7876   22.2137 C   0  0  2  0  0  0  0  0  0  0  0  0
   -7.6151    6.2991   20.9026 O   0  0  0  0  0  0  0  0  0  0  0  0
   -5.7814    7.4644   21.9630 C   0  0  2  0  0  0  0  0  0  0  0  0
   -4.8879    6.5423   21.4294 O   0  0  0  0  0  0  0  0  0  0  0  0
   -5.1212    8.0151   23.2402 C   0  0  0  0  0  0  0  0  0  0  0  0
  -11.3916    9.1853   18.2470 C   0  0  2  0  0  0  0  0  0  0  0  0
  -12.3308    9.8241   17.2903 N   0  3  0  0  0  0  0  0  0  0  0  0
  -11.2503    7.6635   17.9469 C   0  0  0  0  0  0  0  0  0  0  0  0
  -10.2690    6.9936   18.9758 C   0  0  2  0  0  0  0  0  0  0  0  0
  -10.1454    5.5246   18.6544 N   0  3  0  0  0  0  0  0  0  0  0  0
  -10.8052    7.2258   20.4301 C   0  0  2  0  0  0  0  0  0  0  0  0
  -10.9262    8.7455   20.7004 C   0  0  2  0  0  0  0  0  0  0  0  0
  -11.4402    8.9409   21.9957 O   0  0  0  0  0  0  0  0  0  0  0  0
  -11.9101    9.3885   19.6866 C   0  0  1  0  0  0  0  0  0  0  0  0
  -12.0075   10.7796   19.9544 O   0  0  0  0  0  0  0  0  0  0  0  0
  -12.7730   11.2009   21.0495 C   0  0  2  0  0  0  0  0  0  0  0  0
  -14.1558   11.6173   20.5136 C   0  0  2  0  0  0  0  0  0  0  0  0
  -14.7705   10.4997   19.9090 O   0  0  0  0  0  0  0  0  0  0  0  0
  -13.9763   12.7812   19.4801 C   0  0  1  0  0  0  0  0  0  0  0  0
  -15.2648   13.2222   18.8924 N   0  3  0  0  0  0  0  0  0  0  0  0
  -15.6533   12.3468   17.7572 C   0  0  0  0  0  0  0  0  0  0  0  0
  -13.2677   13.9896   20.1835 C   0  0  2  0  0  0  0  0  0  0  0  0
  -14.0699   14.4541   21.2853 O   0  0  0  0  0  0  0  0  0  0  0  0
  -13.0740   15.1095   19.2804 C   0  0  0  0  0  0  0  0  0  0  0  0
  -11.9097   13.5298   20.7982 C   0  0  0  0  0  0  0  0  0  0  0  0
  -12.1124   12.3469   21.6973 O   0  0  0  0  0  0  0  0  0  0  0  0
  1  2  1  1  0  0  0
  1  3  1  0  0  0  0
  1 10  1  0  0  0  0
  3  4  1  1  0  0  0
  3  5  1  0  0  0  0
  5  6  1  1  0  0  0
  5  7  1  0  0  0  0
  7  8  1  1  0  0  0
  7  9  1  0  0  0  0
  9 10  1  6  0  0  0
  9 11  1  0  0  0  0
 11 12  1  1  0  0  0
 11 13  1  0  0  0  0
 14 15  1  6  0  0  0
 14 16  1  0  0  0  0
 14 22  1  0  0  0  0
 16 17  1  0  0  0  0
 17 18  1  6  0  0  0
 17 19  1  0  0  0  0
 19  2  1  1  0  0  0
 19 20  1  0  0  0  0
 20 21  1  1  0  0  0
 20 22  1  0  0  0  0
 22 23  1  1  0  0  0
 24 23  1  6  0  0  0
 24 25  1  0  0  0  0
 24 34  1  0  0  0  0
 25 26  1  6  0  0  0
 25 27  1  0  0  0  0
 27 28  1  1  0  0  0
 27 30  1  0  0  0  0
 28 29  1  0  0  0  0
 30 31  1  1  0  0  0
 30 32  1  0  0  0  0
 30 33  1  0  0  0  0
 33 34  1  0  0  0  0
M  CHG  4   4   1  15   1  18   1  28   1
M  END
>  <CHROM.1>
-131.79070474,-19.33282838,-161.88296278,174.68137188,72.18170377,62.18612163
136.04961342,-128.57080784,17.66769358,163.92777801,163.51051962,-98.03812668
68.78718181,36.60589358,-179.88469475,-10.68178478,8.86519955,20.78911458
0.62776871,0.66271422,-2.81489755

>  <Name>
1mwl

>  <RI>
0

>  <Rbt.Current_Directory>
/home/itssahil/PROJECTS/Mol_Feturizer/New_Systems/rnas/1mwl

>  <Rbt.Executable>
rbdock ($Id: //depot/dev/client3/rdock/2013.1/src/exe/rbdock.cxx#4 $)

>  <Rbt.Library>
libRbt.so (2013.1, Build901 2013/11/27)

>  <Rbt.Parameter_File>
/export/apps/rDock/src/rDock_2013.1_src/data/scripts/dock_solv.prm

>  <Rbt.Receptor>
prm/blind_docking_100.prm

>  <SCORE>
-19.0027

>  <SCORE.INTER>
-32.0494

>  <SCORE.INTER.CONST>
1

>  <SCORE.INTER.POLAR>
-4.15907

>  <SCORE.INTER.ROT>
6

>  <SCORE.INTER.SOLV>
20.4471

>  <SCORE.INTER.VDW>
-21.9184

>  <SCORE.INTER.norm>
-0.942628

>  <SCORE.INTRA>
3.12084

>  <SCORE.INTRA.DIHEDRAL>
-6.99991

>  <SCORE.INTRA.DIHEDRAL.0>
42.0816

>  <SCORE.INTRA.POLAR>
0.210764

>  <SCORE.INTRA.POLAR.0>
-0.254682

>  <SCORE.INTRA.REPUL>
0

>  <SCORE.INTRA.REPUL.0>
0

>  <SCORE.INTRA.SOLV>
1.91312

>  <SCORE.INTRA.SOLV.lig_0>
-109.803

>  <SCORE.INTRA.VDW>
4.94764

>  <SCORE.INTRA.VDW.0>
0.32176

>  <SCORE.INTRA.norm>
0.0917895

>  <SCORE.RESTR>
9.92577

>  <SCORE.RESTR.CAVITY>
9.92577

>  <SCORE.RESTR.norm>
0.291935

>  <SCORE.SYSTEM>
0

>  <SCORE.SYSTEM.CONST>
0

>  <SCORE.SYSTEM.DIHEDRAL>
0

>  <SCORE.SYSTEM.SOLV>
0

>  <SCORE.SYSTEM.norm>
0

>  <SCORE.heavy>
34

>  <SCORE.norm>
-0.558904

>  <RMSD>
4.823

$$$$
1mwl
 OpenBabel11021811403D
libRbt.so/2013.1/901 2013/11/27
 34 36  0  0  0  0  0  0  0  0999 V2000
  -12.2607    7.1284   21.1097 C   0  0  2  0  0  0  0  0  0  0  0  0
  -12.8835    7.9998   20.2145 O   0  0  0  0  0  0  0  0  0  0  0  0
  -10.8007    7.6258   21.3039 C   0  0  2  0  0  0  0  0  0  0  0  0
  -10.7988    9.0000   21.8148 N   0  3  0  0  0  0  0  0  0  0  0  0
  -10.0006    7.5113   19.9734 C   0  0  1  0  0  0  0  0  0  0  0  0
   -8.7179    7.9197   20.1414 O   0  0  0  0  0  0  0  0  0  0  0  0
  -10.0521    6.0255   19.4864 C   0  0  2  0  0  0  0  0  0  0  0  0
   -9.3103    5.8804   18.2573 O   0  0  0  0  0  0  0  0  0  0  0  0
  -11.5533    5.6212   19.2949 C   0  0  2  0  0  0  0  0  0  0  0  0
  -12.2954    5.7847   20.5645 O   0  0  0  0  0  0  0  0  0  0  0  0
  -11.7731    4.1744   18.8385 C   0  0  2  0  0  0  0  0  0  0  0  0
  -13.1290    3.9507   18.6272 O   0  0  0  0  0  0  0  0  0  0  0  0
  -11.3190    3.1264   19.8709 C   0  0  0  0  0  0  0  0  0  0  0  0
  -16.1096    5.6401   18.7032 C   0  0  2  0  0  0  0  0  0  0  0  0
  -17.3785    5.2627   18.0304 N   0  3  0  0  0  0  0  0  0  0  0  0
  -16.3868    6.5781   19.9153 C   0  0  0  0  0  0  0  0  0  0  0  0
  -15.0368    6.9863   20.6089 C   0  0  2  0  0  0  0  0  0  0  0  0
  -15.3377    7.8855   21.7825 N   0  3  0  0  0  0  0  0  0  0  0  0
  -14.1083    7.6913   19.5614 C   0  0  2  0  0  0  0  0  0  0  0  0
  -13.8448    6.7320   18.3751 C   0  0  2  0  0  0  0  0  0  0  0  0
  -13.0388    7.3876   17.4260 O   0  0  0  0  0  0  0  0  0  0  0  0
  -15.1856    6.3515   17.6919 C   0  0  1  0  0  0  0  0  0  0  0  0
  -14.9201    5.4746   16.6070 O   0  0  0  0  0  0  0  0  0  0  0  0
  -15.7870    5.4859   15.5066 C   0  0  2  0  0  0  0  0  0  0  0  0
  -15.0840    4.7396   14.3569 C   0  0  2  0  0  0  0  0  0  0  0  0
  -14.8413    3.4070   14.7541 O   0  0  0  0  0  0  0  0  0  0  0  0
  -13.7418    5.4721   14.0149 C   0  0  1  0  0  0  0  0  0  0  0  0
  -12.9861    4.7959   12.9324 N   0  3  0  0  0  0  0  0  0  0  0  0
  -11.7380    4.1886   13.4609 C   0  0  0  0  0  0  0  0  0  0  0  0
  -14.0531    6.9529   13.6058 C   0  0  2  0  0  0  0  0  0  0  0  0
  -14.9109    6.9715   12.4494 O   0  0  0  0  0  0  0  0  0  0  0  0
  -12.8490    7.6907   13.2695 C   0  0  0  0  0  0  0  0  0  0  0  0
  -14.8435    7.6680   14.7447 C   0  0  0  0  0  0  0  0  0  0  0  0
  -16.0635    6.8786   15.1148 O   0  0  0  0  0  0  0  0  0  0  0  0
  1  2  1  6  0  0  0
  1  3  1  0  0  0  0
  1 10  1  0  0  0  0
  3  4  1  6  0  0  0
  3  5  1  0  0  0  0
  5  6  1  1  0  0  0
  5  7  1  0  0  0  0
  7  8  1  6  0  0  0
  7  9  1  0  0  0  0
  9 10  1  1  0  0  0
  9 11  1  0  0  0  0
 11 12  1  1  0  0  0
 11 13  1  0  0  0  0
 14 15  1  6  0  0  0
 14 16  1  0  0  0  0
 14 22  1  0  0  0  0
 16 17  1  0  0  0  0
 17 18  1  1  0  0  0
 17 19  1  0  0  0  0
 19  2  1  1  0  0  0
 19 20  1  0  0  0  0
 20 21  1  6  0  0  0
 20 22  1  0  0  0  0
 22 23  1  6  0  0  0
 24 23  1  1  0  0  0
 24 25  1  0  0  0  0
 24 34  1  0  0  0  0
 25 26  1  1  0  0  0
 25 27  1  0  0  0  0
 27 28  1  6  0  0  0
 27 30  1  0  0  0  0
 28 29  1  0  0  0  0
 30 31  1  6  0  0  0
 30 32  1  0  0  0  0
 30 33  1  0  0  0  0
 33 34  1  0  0  0  0
M  CHG  4   4   1  15   1  18   1  28   1
M  END
>  <CHROM.1>
164.83696542,40.50807470,-42.56951760,54.28935347,64.37511322,-176.57435521
70.69591931,-169.31553186,-56.78228510,58.07064437,89.35816790,165.60815023
-51.61304011,8.59608192,-63.68987254,-13.31107255,6.23580969,17.71046039
1.14939882,-0.02477050,1.35056582

>  <Name>
1mwl

>  <RI>
0

>  <Rbt.Current_Directory>
/home/itssahil/PROJECTS/Mol_Feturizer/New_Systems/rnas/1mwl

>  <Rbt.Executable>
rbdock ($Id: //depot/dev/client3/rdock/2013.1/src/exe/rbdock.cxx#4 $)

>  <Rbt.Library>
libRbt.so (2013.1, Build901 2013/11/27)

>  <Rbt.Parameter_File>
/export/apps/rDock/src/rDock_2013.1_src/data/scripts/dock_solv.prm

>  <Rbt.Receptor>
prm/pocket_docking_6.prm

>  <SCORE>
-41.7215

>  <SCORE.INTER>
-23.5254

>  <SCORE.INTER.CONST>
1

>  <SCORE.INTER.POLAR>
-4.14279

>  <SCORE.INTER.ROT>
6

>  <SCORE.INTER.SOLV>
12.4378

>  <SCORE.INTER.VDW>
-13.6202

>  <SCORE.INTER.norm>
-0.691924

>  <SCORE.INTRA>
-18.1961

>  <SCORE.INTRA.DIHEDRAL>
-29.1018

>  <SCORE.INTRA.DIHEDRAL.0>
42.0816

>  <SCORE.INTRA.POLAR>
-0.840176

>  <SCORE.INTRA.POLAR.0>
-0.254682

>  <SCORE.INTRA.REPUL>
0.0346064

>  <SCORE.INTRA.REPUL.0>
0

>  <SCORE.INTRA.SOLV>
0.337097

>  <SCORE.INTRA.SOLV.lig_0>
-109.803

>  <SCORE.INTRA.VDW>
-1.13021

>  <SCORE.INTRA.VDW.0>
0.32176

>  <SCORE.INTRA.norm>
-0.53518

>  <SCORE.RESTR>
0

>  <SCORE.RESTR.CAVITY>
0

>  <SCORE.RESTR.norm>
0

>  <SCORE.SYSTEM>
0

>  <SCORE.SYSTEM.CONST>
0

>  <SCORE.SYSTEM.DIHEDRAL>
0

>  <SCORE.SYSTEM.SOLV>
0

>  <SCORE.SYSTEM.norm>
0

>  <SCORE.heavy>
34

>  <SCORE.norm>
-1.2271

>  <RMSD>
4.831

$$$$
1mwl
 OpenBabel11021811403D
libRbt.so/2013.1/901 2013/11/27
 34 36  0  0  0  0  0  0  0  0999 V2000
   -8.6695    5.8799   21.2220 C   0  0  2  0  0  0  0  0  0  0  0  0
   -9.7328    6.6602   21.6794 O   0  0  0  0  0  0  0  0  0  0  0  0
   -8.6329    4.5895   22.0883 C   0  0  2  0  0  0  0  0  0  0  0  0
   -9.9049    3.8691   21.9758 N   0  3  0  0  0  0  0  0  0  0  0  0
   -8.3015    4.9326   23.5701 C   0  0  1  0  0  0  0  0  0  0  0  0
   -8.2425    3.8087   24.3275 O   0  0  0  0  0  0  0  0  0  0  0  0
   -6.9406    5.7033   23.6114 C   0  0  2  0  0  0  0  0  0  0  0  0
   -6.5965    6.0295   24.9743 O   0  0  0  0  0  0  0  0  0  0  0  0
   -7.0787    6.9949   22.7359 C   0  0  2  0  0  0  0  0  0  0  0  0
   -7.4386    6.6372   21.3460 O   0  0  0  0  0  0  0  0  0  0  0  0
   -5.8106    7.8526   22.6565 C   0  0  2  0  0  0  0  0  0  0  0  0
   -6.1415    9.1416   22.2536 O   0  0  0  0  0  0  0  0  0  0  0  0
   -4.7784    7.3344   21.6385 C   0  0  0  0  0  0  0  0  0  0  0  0
  -11.3651    9.0734   18.5534 C   0  0  2  0  0  0  0  0  0  0  0  0
  -12.3422    9.6949   17.6236 N   0  3  0  0  0  0  0  0  0  0  0  0
  -11.3062    7.5316   18.3404 C   0  0  0  0  0  0  0  0  0  0  0  0
  -10.2834    6.8816   19.3412 C   0  0  2  0  0  0  0  0  0  0  0  0
  -10.2415    5.3920   19.1049 N   0  3  0  0  0  0  0  0  0  0  0  0
  -10.7073    7.2238   20.8108 C   0  0  2  0  0  0  0  0  0  0  0  0
  -10.7481    8.7608   20.9928 C   0  0  2  0  0  0  0  0  0  0  0  0
  -11.1625    9.0559   22.3048 O   0  0  0  0  0  0  0  0  0  0  0  0
  -11.7736    9.3851   20.0090 C   0  0  1  0  0  0  0  0  0  0  0  0
  -11.7962   10.7927   20.1950 O   0  0  0  0  0  0  0  0  0  0  0  0
  -12.3684   11.3063   21.3660 C   0  0  2  0  0  0  0  0  0  0  0  0
  -13.8786   11.4688   21.1095 C   0  0  2  0  0  0  0  0  0  0  0  0
  -14.4358   10.2030   20.8267 O   0  0  0  0  0  0  0  0  0  0  0  0
  -14.0921   12.4522   19.9086 C   0  0  1  0  0  0  0  0  0  0  0  0
  -15.5255   12.6403   19.5770 N   0  3  0  0  0  0  0  0  0  0  0  0
  -15.7474   12.5239   18.1130 C   0  0  0  0  0  0  0  0  0  0  0  0
  -13.4366   13.8341   20.2520 C   0  0  2  0  0  0  0  0  0  0  0  0
  -14.0493   14.3872   21.4318 O   0  0  0  0  0  0  0  0  0  0  0  0
  -13.6026   14.7983   19.1796 C   0  0  0  0  0  0  0  0  0  0  0  0
  -11.9276   13.6399   20.5963 C   0  0  0  0  0  0  0  0  0  0  0  0
  -11.7619   12.6123   21.6758 O   0  0  0  0  0  0  0  0  0  0  0  0
  1  2  1  1  0  0  0
  1  3  1  0  0  0  0
  1 10  1  0  0  0  0
  3  4  1  1  0  0  0
  3  5  1  0  0  0  0
  5  6  1  1  0  0  0
  5  7  1  0  0  0  0
  7  8  1  1  0  0  0
  7  9  1  0  0  0  0
  9 10  1  6  0  0  0
  9 11  1  0  0  0  0
 11 12  1  6  0  0  0
 11 13  1  0  0  0  0
 14 15  1  6  0  0  0
 14 16  1  0  0  0  0
 14 22  1  0  0  0  0
 16 17  1  0  0  0  0
 17 18  1  1  0  0  0
 17 19  1  0  0  0  0
 19  2  1  1  0  0  0
 19 20  1  0  0  0  0
 20 21  1  1  0  0  0
 20 22  1  0  0  0  0
 22 23  1  6  0  0  0
 24 23  1  6  0  0  0
 24 25  1  0  0  0  0
 24 34  1  0  0  0  0
 25 26  1  6  0  0  0
 25 27  1  0  0  0  0
 27 28  1  1  0  0  0
 27 30  1  0  0  0  0
 28 29  1  0  0  0  0
 30 31  1  1  0  0  0
 30 32  1  0  0  0  0
 30 33  1  0  0  0  0
 33 34  1  0  0  0  0
M  CHG  4   4   1  15   1  18   1  28   1
M  END
>  <CHROM.1>
-130.75294596,-3.79174249,-160.42198166,168.76098310,-44.22266330,-160.52871894
70.49986632,-63.70125636,141.25765153,-53.05159891,168.75866674,-86.88647232
69.00956826,-13.15875161,78.77410208,-10.62794739,8.89976830,21.06607350
0.67038698,0.60426229,-2.89662628

>  <Name>
1mwl

>  <RI>
0

>  <Rbt.Current_Directory>
/home/itssahil/PROJECTS/Mol_Feturizer/New_Systems/rnas/1mwl

>  <Rbt.Executable>
rbdock ($Id: //depot/dev/client3/rdock/2013.1/src/exe/rbdock.cxx#4 $)

>  <Rbt.Library>
libRbt.so (2013.1, Build901 2013/11/27)

>  <Rbt.Parameter_File>
/export/apps/rDock/src/rDock_2013.1_src/data/scripts/dock_solv.prm

>  <Rbt.Receptor>
prm/blind_docking_100.prm

>  <SCORE>
-11.0217

>  <SCORE.INTER>
-17.1517

>  <SCORE.INTER.CONST>
1

>  <SCORE.INTER.POLAR>
-2.7327

>  <SCORE.INTER.ROT>
6

>  <SCORE.INTER.SOLV>
18.9019

>  <SCORE.INTER.VDW>
-16.2261

>  <SCORE.INTER.norm>
-0.504461

>  <SCORE.INTRA>
-2.20983

>  <SCORE.INTRA.DIHEDRAL>
-11.9415

>  <SCORE.INTRA.DIHEDRAL.0>
42.0816

>  <SCORE.INTRA.POLAR>
0.191863

>  <SCORE.INTRA.POLAR.0>
-0.254682

>  <SCORE.INTRA.REPUL>
0

>  <SCORE.INTRA.REPUL.0>
0

>  <SCORE.INTRA.SOLV>
2.74775

>  <SCORE.INTRA.SOLV.lig_0>
-109.803

>  <SCORE.INTRA.VDW>
1.73469

>  <SCORE.INTRA.VDW.0>
0.32176

>  <SCORE.INTRA.norm>
-0.0649951

>  <SCORE.RESTR>
8.33978

>  <SCORE.RESTR.CAVITY>
8.33978

>  <SCORE.RESTR.norm>
0.245288

>  <SCORE.SYSTEM>
0

>  <SCORE.SYSTEM.CONST>
0

>  <SCORE.SYSTEM.DIHEDRAL>
0

>  <SCORE.SYSTEM.SOLV>
0

>  <SCORE.SYSTEM.norm>
0

>  <SCORE.heavy>
34

>  <SCORE.norm>
-0.324169

>  <RMSD>
4.880

$$$$
1mwl
 OpenBabel11021811403D
libRbt.so/2013.1/901 2013/11/27
 34 36  0  0  0  0  0  0  0  0999 V2000
  -10.4009    5.2054   19.9407 C   0  0  2  0  0  0  0  0  0  0  0  0
  -11.6403    5.4592   20.5308 O   0  0  0  0  0  0  0  0  0  0  0  0
  -10.1074    3.6880   20.1088 C   0  0  2  0  0  0  0  0  0  0  0  0
  -11.1668    2.8954   19.4771 N   0  3  0  0  0  0  0  0  0  0  0  0
   -9.9440    3.3242   21.6137 C   0  0  1  0  0  0  0  0  0  0  0  0
   -9.6623    2.0062   21.7669 O   0  0  0  0  0  0  0  0  0  0  0  0
   -8.8066    4.2105   22.2206 C   0  0  2  0  0  0  0  0  0  0  0  0
   -8.6207    3.8921   23.6157 O   0  0  0  0  0  0  0  0  0  0  0  0
   -9.1983    5.7150   22.0287 C   0  0  2  0  0  0  0  0  0  0  0  0
   -9.3908    6.0167   20.5930 O   0  0  0  0  0  0  0  0  0  0  0  0
   -8.1651    6.7173   22.5556 C   0  0  2  0  0  0  0  0  0  0  0  0
   -8.5902    8.0135   22.2861 O   0  0  0  0  0  0  0  0  0  0  0  0
   -6.7782    6.5739   21.9027 C   0  0  0  0  0  0  0  0  0  0  0  0
  -13.9270    8.6086   22.2949 C   0  0  2  0  0  0  0  0  0  0  0  0
  -14.2730    9.8423   23.0457 N   0  3  0  0  0  0  0  0  0  0  0  0
  -13.2716    7.5559   23.2374 C   0  0  0  0  0  0  0  0  0  0  0  0
  -12.8926    6.2620   22.4298 C   0  0  2  0  0  0  0  0  0  0  0  0
  -12.2697    5.2592   23.3695 N   0  3  0  0  0  0  0  0  0  0  0  0
  -11.9191    6.6457   21.2631 C   0  0  2  0  0  0  0  0  0  0  0  0
  -12.6015    7.6851   20.3405 C   0  0  2  0  0  0  0  0  0  0  0  0
  -11.7061    8.0471   19.3171 O   0  0  0  0  0  0  0  0  0  0  0  0
  -12.9547    8.9620   21.1493 C   0  0  1  0  0  0  0  0  0  0  0  0
  -13.5762    9.9010   20.2842 O   0  0  0  0  0  0  0  0  0  0  0  0
  -12.7685   10.6710   19.4372 C   0  0  2  0  0  0  0  0  0  0  0  0
  -12.3688   11.9422   20.2099 C   0  0  2  0  0  0  0  0  0  0  0  0
  -11.6333   11.5714   21.3563 O   0  0  0  0  0  0  0  0  0  0  0  0
  -13.6639   12.7284   20.6092 C   0  0  1  0  0  0  0  0  0  0  0  0
  -13.3656   13.9563   21.3859 N   0  3  0  0  0  0  0  0  0  0  0  0
  -12.2199   14.6909   20.7912 C   0  0  0  0  0  0  0  0  0  0  0  0
  -14.4631   13.0968   19.3120 C   0  0  2  0  0  0  0  0  0  0  0  0
  -13.6526   13.9231   18.4555 O   0  0  0  0  0  0  0  0  0  0  0  0
  -15.6774   13.8342   19.6103 C   0  0  0  0  0  0  0  0  0  0  0  0
  -14.7826   11.8066   18.4957 C   0  0  0  0  0  0  0  0  0  0  0  0
  -13.5286   11.0292   18.2274 O   0  0  0  0  0  0  0  0  0  0  0  0
  1  2  1  1  0  0  0
  1  3  1  0  0  0  0
  1 10  1  0  0  0  0
  3  4  1  1  0  0  0
  3  5  1  0  0  0  0
  5  6  1  6  0  0  0
  5  7  1  0  0  0  0
  7  8  1  1  0  0  0
  7  9  1  0  0  0  0
  9 10  1  6  0  0  0
  9 11  1  0  0  0  0
 11 12  1  6  0  0  0
 11 13  1  0  0  0  0
 14 15  1  1  0  0  0
 14 16  1  0  0  0  0
 14 22  1  0  0  0  0
 16 17  1  0  0  0  0
 17 18  1  1  0  0  0
 17 19  1  0  0  0  0
 19  2  1  6  0  0  0
 19 20  1  0  0  0  0
 20 21  1  6  0  0  0
 20 22  1  0  0  0  0
 22 23  1  6  0  0  0
 24 23  1  1  0  0  0
 24 25  1  0  0  0  0
 24 34  1  0  0  0  0
 25 26  1  1  0  0  0
 25 27  1  0  0  0  0
 27 28  1  6  0  0  0
 27 30  1  0  0  0  0
 28 29  1  0  0  0  0
 30 31  1  6  0  0  0
 30 32  1  0  0  0  0
 30 33  1  0  0  0  0
 33 34  1  0  0  0  0
M  CHG  4   4   1  15   1  18   1  28   1
M  END
>  <CHROM.1>
142.22617171,-145.29791121,-52.55090482,-166.52118912,-43.73425242,177.65747219
58.53899995,65.58772150,61.90916013,166.20995082,160.29425670,-88.81708858
-76.00031555,163.42675534,71.60899409,-11.75439570,8.27887761,20.99307965
1.08124107,0.43703712,-3.12231773

>  <Name>
1mwl

>  <RI>
0

>  <Rbt.Current_Directory>
/home/itssahil/PROJECTS/Mol_Feturizer/New_Systems/rnas/1mwl

>  <Rbt.Executable>
rbdock ($Id: //depot/dev/client3/rdock/2013.1/src/exe/rbdock.cxx#4 $)

>  <Rbt.Library>
libRbt.so (2013.1, Build901 2013/11/27)

>  <Rbt.Parameter_File>
/export/apps/rDock/src/rDock_2013.1_src/data/scripts/dock_solv.prm

>  <Rbt.Receptor>
prm/blind_docking_100.prm

>  <SCORE>
-25.1546

>  <SCORE.INTER>
-24.2457

>  <SCORE.INTER.CONST>
1

>  <SCORE.INTER.POLAR>
-4.259

>  <SCORE.INTER.ROT>
6

>  <SCORE.INTER.SOLV>
18.8707

>  <SCORE.INTER.VDW>
-15.8573

>  <SCORE.INTER.norm>
-0.713108

>  <SCORE.INTRA>
-9.72458

>  <SCORE.INTRA.DIHEDRAL>
-21.5432

>  <SCORE.INTRA.DIHEDRAL.0>
42.0816

>  <SCORE.INTRA.POLAR>
0.231974

>  <SCORE.INTRA.POLAR.0>
-0.254682

>  <SCORE.INTRA.REPUL>
0

>  <SCORE.INTRA.REPUL.0>
0

>  <SCORE.INTRA.SOLV>
0.525609

>  <SCORE.INTRA.SOLV.lig_0>
-109.803

>  <SCORE.INTRA.VDW>
-0.00451067

>  <SCORE.INTRA.VDW.0>
0.32176

>  <SCORE.INTRA.norm>
-0.286017

>  <SCORE.RESTR>
8.8156

>  <SCORE.RESTR.CAVITY>
8.8156

>  <SCORE.RESTR.norm>
0.259282

>  <SCORE.SYSTEM>
0

>  <SCORE.SYSTEM.CONST>
0

>  <SCORE.SYSTEM.DIHEDRAL>
0

>  <SCORE.SYSTEM.SOLV>
0

>  <SCORE.SYSTEM.norm>
0

>  <SCORE.heavy>
34

>  <SCORE.norm>
-0.739842

>  <RMSD>
4.889

$$$$
1mwl
 OpenBabel11021811403D
libRbt.so/2013.1/901 2013/11/27
 34 36  0  0  0  0  0  0  0  0999 V2000
   -9.4370    7.6206   21.2546 C   0  0  2  0  0  0  0  0  0  0  0  0
   -8.7952    7.6482   20.0152 O   0  0  0  0  0  0  0  0  0  0  0  0
   -8.3339    7.6229   22.3501 C   0  0  2  0  0  0  0  0  0  0  0  0
   -7.4916    8.8155   22.2166 N   0  3  0  0  0  0  0  0  0  0  0  0
   -7.4885    6.3175   22.2802 C   0  0  1  0  0  0  0  0  0  0  0  0
   -6.5398    6.3007   23.2497 O   0  0  0  0  0  0  0  0  0  0  0  0
   -8.4504    5.0919   22.4217 C   0  0  2  0  0  0  0  0  0  0  0  0
   -7.6975    3.8620   22.3711 O   0  0  0  0  0  0  0  0  0  0  0  0
   -9.5073    5.1587   21.2674 C   0  0  2  0  0  0  0  0  0  0  0  0
  -10.2616    6.4299   21.3345 O   0  0  0  0  0  0  0  0  0  0  0  0
  -10.5437    4.0293   21.2827 C   0  0  2  0  0  0  0  0  0  0  0  0
  -10.0915    2.9682   20.5063 O   0  0  0  0  0  0  0  0  0  0  0  0
  -11.9094    4.4378   20.7011 C   0  0  0  0  0  0  0  0  0  0  0  0
  -11.8492    6.8431   17.1370 C   0  0  2  0  0  0  0  0  0  0  0  0
  -12.6226    6.8550   15.8693 N   0  3  0  0  0  0  0  0  0  0  0  0
  -11.7694    8.2741   17.7468 C   0  0  0  0  0  0  0  0  0  0  0  0
  -10.9338    8.2539   19.0777 C   0  0  2  0  0  0  0  0  0  0  0  0
  -10.8820    9.6496   19.6486 N   0  3  0  0  0  0  0  0  0  0  0  0
   -9.4998    7.6953   18.7811 C   0  0  2  0  0  0  0  0  0  0  0  0
   -9.6124    6.2708   18.1851 C   0  0  2  0  0  0  0  0  0  0  0  0
   -8.3216    5.7936   17.8914 O   0  0  0  0  0  0  0  0  0  0  0  0
  -10.4263    6.3108   16.8640 C   0  0  1  0  0  0  0  0  0  0  0  0
  -10.5147    4.9961   16.3346 O   0  0  0  0  0  0  0  0  0  0  0  0
  -10.6599    4.8379   14.9502 C   0  0  2  0  0  0  0  0  0  0  0  0
  -11.2075    3.4196   14.7022 C   0  0  2  0  0  0  0  0  0  0  0  0
  -12.4674    3.2973   15.3268 O   0  0  0  0  0  0  0  0  0  0  0  0
  -10.1959    2.3711   15.2786 C   0  0  1  0  0  0  0  0  0  0  0  0
  -10.6655    0.9748   15.1056 N   0  3  0  0  0  0  0  0  0  0  0  0
  -11.5320    0.5658   16.2405 C   0  0  0  0  0  0  0  0  0  0  0  0
   -8.8056    2.5585   14.5791 C   0  0  2  0  0  0  0  0  0  0  0  0
   -8.9402    2.3562   13.1598 O   0  0  0  0  0  0  0  0  0  0  0  0
   -7.8185    1.6113   15.0646 C   0  0  0  0  0  0  0  0  0  0  0  0
   -8.3069    4.0249   14.7638 C   0  0  0  0  0  0  0  0  0  0  0  0
   -9.3487    4.9979   14.2985 O   0  0  0  0  0  0  0  0  0  0  0  0
  1  2  1  6  0  0  0
  1  3  1  0  0  0  0
  1 10  1  0  0  0  0
  3  4  1  6  0  0  0
  3  5  1  0  0  0  0
  5  6  1  1  0  0  0
  5  7  1  0  0  0  0
  7  8  1  6  0  0  0
  7  9  1  0  0  0  0
  9 10  1  1  0  0  0
  9 11  1  0  0  0  0
 11 12  1  6  0  0  0
 11 13  1  0  0  0  0
 14 15  1  6  0  0  0
 14 16  1  0  0  0  0
 14 22  1  0  0  0  0
 16 17  1  0  0  0  0
 17 18  1  6  0  0  0
 17 19  1  0  0  0  0
 19  2  1  1  0  0  0
 19 20  1  0  0  0  0
 20 21  1  6  0  0  0
 20 22  1  0  0  0  0
 22 23  1  1  0  0  0
 24 23  1  1  0  0  0
 24 25  1  0  0  0  0
 24 34  1  0  0  0  0
 25 26  1  1  0  0  0
 25 27  1  0  0  0  0
 27 28  1  6  0  0  0
 27 30  1  0  0  0  0
 28 29  1  0  0  0  0
 30 31  1  6  0  0  0
 30 32  1  0  0  0  0
 30 33  1  0  0  0  0
 33 34  1  0  0  0  0
M  CHG  4   4   1  15   1  18   1  28   1
M  END
>  <CHROM.1>
-178.02951719,21.43819386,167.94862071,51.30739139,169.47280498,-91.26565113
55.28166706,-170.66699994,-151.19314216,71.12655492,87.30498950,-160.83264515
171.60480955,33.12344418,-57.64388390,-9.78207311,5.22644774,18.30779728
1.16059972,-1.08032187,0.67612657

>  <Name>
1mwl

>  <RI>
0

>  <Rbt.Current_Directory>
/home/itssahil/PROJECTS/Mol_Feturizer/New_Systems/rnas/1mwl

>  <Rbt.Executable>
rbdock ($Id: //depot/dev/client3/rdock/2013.1/src/exe/rbdock.cxx#4 $)

>  <Rbt.Library>
libRbt.so (2013.1, Build901 2013/11/27)

>  <Rbt.Parameter_File>
/export/apps/rDock/src/rDock_2013.1_src/data/scripts/dock_solv.prm

>  <Rbt.Receptor>
prm/pocket_docking_8.prm

>  <SCORE>
-39.9174

>  <SCORE.INTER>
-28.7693

>  <SCORE.INTER.CONST>
1

>  <SCORE.INTER.POLAR>
-4.85644

>  <SCORE.INTER.ROT>
6

>  <SCORE.INTER.SOLV>
20.0556

>  <SCORE.INTER.VDW>
-17.2766

>  <SCORE.INTER.norm>
-0.846156

>  <SCORE.INTRA>
-11.1533

>  <SCORE.INTRA.DIHEDRAL>
-23.4878

>  <SCORE.INTRA.DIHEDRAL.0>
42.0816

>  <SCORE.INTRA.POLAR>
0.254682

>  <SCORE.INTRA.POLAR.0>
-0.254682

>  <SCORE.INTRA.REPUL>
0

>  <SCORE.INTRA.REPUL.0>
0

>  <SCORE.INTRA.SOLV>
0.0994339

>  <SCORE.INTRA.SOLV.lig_0>
-109.803

>  <SCORE.INTRA.VDW>
-0.325039

>  <SCORE.INTRA.VDW.0>
0.32176

>  <SCORE.INTRA.norm>
-0.328038

>  <SCORE.RESTR>
0.00516179

>  <SCORE.RESTR.CAVITY>
0.00516179

>  <SCORE.RESTR.norm>
0.000151817

>  <SCORE.SYSTEM>
0

>  <SCORE.SYSTEM.CONST>
0

>  <SCORE.SYSTEM.DIHEDRAL>
0

>  <SCORE.SYSTEM.SOLV>
0

>  <SCORE.SYSTEM.norm>
0

>  <SCORE.heavy>
34

>  <SCORE.norm>
-1.17404

>  <RMSD>
4.991

$$$$
1mwl
 OpenBabel11021811403D
libRbt.so/2013.1/901 2013/11/27
 34 36  0  0  0  0  0  0  0  0999 V2000
   -8.1237    4.8722   21.2951 C   0  0  2  0  0  0  0  0  0  0  0  0
   -9.1716    5.7912   21.3729 O   0  0  0  0  0  0  0  0  0  0  0  0
   -8.2868    3.8790   22.4799 C   0  0  2  0  0  0  0  0  0  0  0  0
   -9.5874    3.2069   22.4005 N   0  3  0  0  0  0  0  0  0  0  0  0
   -8.1072    4.6139   23.8406 C   0  0  1  0  0  0  0  0  0  0  0  0
   -8.2228    3.7486   24.8789 O   0  0  0  0  0  0  0  0  0  0  0  0
   -6.7065    5.3106   23.8503 C   0  0  2  0  0  0  0  0  0  0  0  0
   -6.5017    5.9950   25.1040 O   0  0  0  0  0  0  0  0  0  0  0  0
   -6.6427    6.3063   22.6426 C   0  0  2  0  0  0  0  0  0  0  0  0
   -6.8624    5.5846   21.3697 O   0  0  0  0  0  0  0  0  0  0  0  0
   -5.3131    7.0559   22.5011 C   0  0  2  0  0  0  0  0  0  0  0  0
   -4.5019    6.7817   23.5966 O   0  0  0  0  0  0  0  0  0  0  0  0
   -5.4703    8.5867   22.4534 C   0  0  0  0  0  0  0  0  0  0  0  0
  -10.8393    8.1130   18.1968 C   0  0  2  0  0  0  0  0  0  0  0  0
  -11.6781    8.5085   17.0369 N   0  3  0  0  0  0  0  0  0  0  0  0
   -9.9206    6.9107   17.8276 C   0  0  0  0  0  0  0  0  0  0  0  0
   -9.0509    6.4883   19.0667 C   0  0  2  0  0  0  0  0  0  0  0  0
   -8.1665    5.3299   18.6763 N   0  3  0  0  0  0  0  0  0  0  0  0
   -9.9956    6.1195   20.2616 C   0  0  2  0  0  0  0  0  0  0  0  0
  -10.8883    7.3356   20.6098 C   0  0  2  0  0  0  0  0  0  0  0  0
  -11.7550    6.9819   21.6605 O   0  0  0  0  0  0  0  0  0  0  0  0
  -11.7515    7.7297   19.3815 C   0  0  1  0  0  0  0  0  0  0  0  0
  -12.5628    8.8437   19.7239 O   0  0  0  0  0  0  0  0  0  0  0  0
  -11.9408   10.0691   19.9963 C   0  0  2  0  0  0  0  0  0  0  0  0
  -12.0949   10.3400   21.5049 C   0  0  2  0  0  0  0  0  0  0  0  0
  -11.4496    9.3118   22.2251 O   0  0  0  0  0  0  0  0  0  0  0  0
  -13.6193   10.3986   21.8625 C   0  0  1  0  0  0  0  0  0  0  0  0
  -13.8545   10.6277   23.3090 N   0  3  0  0  0  0  0  0  0  0  0  0
  -14.3526    9.3913   23.9642 C   0  0  0  0  0  0  0  0  0  0  0  0
  -14.3018   11.5330   21.0233 C   0  0  2  0  0  0  0  0  0  0  0  0
  -13.6944   12.8020   21.3297 O   0  0  0  0  0  0  0  0  0  0  0  0
  -15.7203   11.6460   21.3105 C   0  0  0  0  0  0  0  0  0  0  0  0
  -14.0603   11.2918   19.5012 C   0  0  0  0  0  0  0  0  0  0  0  0
  -12.5960   11.1348   19.2188 O   0  0  0  0  0  0  0  0  0  0  0  0
  1  2  1  1  0  0  0
  1  3  1  0  0  0  0
  1 10  1  0  0  0  0
  3  4  1  1  0  0  0
  3  5  1  0  0  0  0
  5  6  1  1  0  0  0
  5  7  1  0  0  0  0
  7  8  1  1  0  0  0
  7  9  1  0  0  0  0
  9 10  1  6  0  0  0
  9 11  1  0  0  0  0
 11 12  1  1  0  0  0
 11 13  1  0  0  0  0
 14 15  1  6  0  0  0
 14 16  1  0  0  0  0
 14 22  1  0  0  0  0
 16 17  1  0  0  0  0
 17 18  1  6  0  0  0
 17 19  1  0  0  0  0
 19  2  1  1  0  0  0
 19 20  1  0  0  0  0
 20 21  1  1  0  0  0
 20 22  1  0  0  0  0
 22 23  1  1  0  0  0
 24 23  1  1  0  0  0
 24 25  1  0  0  0  0
 24 34  1  0  0  0  0
 25 26  1  1  0  0  0
 25 27  1  0  0  0  0
 27 28  1  1  0  0  0
 27 30  1  0  0  0  0
 28 29  1  0  0  0  0
 30 31  1  1  0  0  0
 30 32  1  0  0  0  0
 30 33  1  0  0  0  0
 33 34  1  0  0  0  0
M  CHG  4   4   1  15   1  18   1  28   1
M  END
>  <CHROM.1>
-130.45228172,-51.02090050,73.65433924,152.23415416,79.08546423,-6.83985563
55.16728236,4.83377233,157.44932770,71.54765944,-53.98176749,-110.08181067
171.58594536,12.47495912,-41.22408636,-10.21719613,7.71155842,21.37886337
-0.13042343,0.70597628,-1.74508564

>  <Name>
1mwl

>  <RI>
0

>  <Rbt.Current_Directory>
/home/itssahil/PROJECTS/Mol_Feturizer/New_Systems/rnas/1mwl

>  <Rbt.Executable>
rbdock ($Id: //depot/dev/client3/rdock/2013.1/src/exe/rbdock.cxx#4 $)

>  <Rbt.Library>
libRbt.so (2013.1, Build901 2013/11/27)

>  <Rbt.Parameter_File>
/export/apps/rDock/src/rDock_2013.1_src/data/scripts/dock_solv.prm

>  <Rbt.Receptor>
prm/blind_docking_100.prm

>  <SCORE>
-11.5618

>  <SCORE.INTER>
-20.895

>  <SCORE.INTER.CONST>
1

>  <SCORE.INTER.POLAR>
-2.98454

>  <SCORE.INTER.ROT>
6

>  <SCORE.INTER.SOLV>
31.3352

>  <SCORE.INTER.VDW>
-22.0266

>  <SCORE.INTER.norm>
-0.61456

>  <SCORE.INTRA>
0.169011

>  <SCORE.INTRA.DIHEDRAL>
-6.81533

>  <SCORE.INTRA.DIHEDRAL.0>
42.0816

>  <SCORE.INTRA.POLAR>
-0.715686

>  <SCORE.INTRA.POLAR.0>
-0.254682

>  <SCORE.INTRA.REPUL>
0.0413079

>  <SCORE.INTRA.REPUL.0>
0

>  <SCORE.INTRA.SOLV>
2.18057

>  <SCORE.INTRA.SOLV.lig_0>
-109.803

>  <SCORE.INTRA.VDW>
4.71319

>  <SCORE.INTRA.VDW.0>
0.32176

>  <SCORE.INTRA.norm>
0.00497093

>  <SCORE.RESTR>
9.16426

>  <SCORE.RESTR.CAVITY>
9.16426

>  <SCORE.RESTR.norm>
0.269537

>  <SCORE.SYSTEM>
0

>  <SCORE.SYSTEM.CONST>
0

>  <SCORE.SYSTEM.DIHEDRAL>
0

>  <SCORE.SYSTEM.SOLV>
0

>  <SCORE.SYSTEM.norm>
0

>  <SCORE.heavy>
34

>  <SCORE.norm>
-0.340052

>  <RMSD>
4.992

$$$$
1mwl
 OpenBabel11021811403D
libRbt.so/2013.1/901 2013/11/27
 34 36  0  0  0  0  0  0  0  0999 V2000
  -13.1497    9.6029   20.0652 C   0  0  2  0  0  0  0  0  0  0  0  0
  -12.9409   10.2960   18.8716 O   0  0  0  0  0  0  0  0  0  0  0  0
  -11.8047    9.6033   20.8450 C   0  0  2  0  0  0  0  0  0  0  0  0
  -11.3696   10.9797   21.1012 N   0  3  0  0  0  0  0  0  0  0  0  0
  -10.7210    8.7979   20.0701 C   0  0  1  0  0  0  0  0  0  0  0  0
   -9.5514    8.7722   20.7568 O   0  0  0  0  0  0  0  0  0  0  0  0
  -11.2556    7.3478   19.8272 C   0  0  2  0  0  0  0  0  0  0  0  0
  -10.2700    6.5682   19.1180 O   0  0  0  0  0  0  0  0  0  0  0  0
  -12.5931    7.4446   19.0175 C   0  0  2  0  0  0  0  0  0  0  0  0
  -13.5853    8.2536   19.7595 O   0  0  0  0  0  0  0  0  0  0  0  0
  -13.2584    6.0965   18.7177 C   0  0  2  0  0  0  0  0  0  0  0  0
  -12.3772    5.2863   18.0104 O   0  0  0  0  0  0  0  0  0  0  0  0
  -14.5260    6.2135   17.8518 C   0  0  0  0  0  0  0  0  0  0  0  0
  -16.1107    8.9099   16.3635 C   0  0  2  0  0  0  0  0  0  0  0  0
  -17.1004    8.8436   15.2583 N   0  3  0  0  0  0  0  0  0  0  0  0
  -16.3725   10.1541   17.2632 C   0  0  0  0  0  0  0  0  0  0  0  0
  -15.3091   10.2253   18.4183 C   0  0  2  0  0  0  0  0  0  0  0  0
  -15.5937   11.4331   19.2766 N   0  3  0  0  0  0  0  0  0  0  0  0
  -13.8715   10.2815   17.7967 C   0  0  2  0  0  0  0  0  0  0  0  0
  -13.6390    9.0292   16.9165 C   0  0  2  0  0  0  0  0  0  0  0  0
  -12.3591    9.1075   16.3371 O   0  0  0  0  0  0  0  0  0  0  0  0
  -14.6867    8.9824   15.7722 C   0  0  1  0  0  0  0  0  0  0  0  0
  -14.4534    7.8290   14.9775 O   0  0  0  0  0  0  0  0  0  0  0  0
  -13.6189    7.9424   13.8579 C   0  0  2  0  0  0  0  0  0  0  0  0
  -13.9885    6.8033   12.8890 C   0  0  2  0  0  0  0  0  0  0  0  0
  -15.3347    6.9551   12.4927 O   0  0  0  0  0  0  0  0  0  0  0  0
  -13.7711    5.4279   13.6075 C   0  0  1  0  0  0  0  0  0  0  0  0
  -14.1343    4.2749   12.7480 N   0  3  0  0  0  0  0  0  0  0  0  0
  -14.9570    3.2944   13.5015 C   0  0  0  0  0  0  0  0  0  0  0  0
  -12.2731    5.3115   14.0541 C   0  0  2  0  0  0  0  0  0  0  0  0
  -11.4115    5.3857   12.9027 O   0  0  0  0  0  0  0  0  0  0  0  0
  -11.9999    4.0533   14.7247 C   0  0  0  0  0  0  0  0  0  0  0  0
  -11.8898    6.5202   14.9624 C   0  0  0  0  0  0  0  0  0  0  0  0
  -12.2133    7.8155   14.2794 O   0  0  0  0  0  0  0  0  0  0  0  0
  1  2  1  6  0  0  0
  1  3  1  0  0  0  0
  1 10  1  0  0  0  0
  3  4  1  6  0  0  0
  3  5  1  0  0  0  0
  5  6  1  1  0  0  0
  5  7  1  0  0  0  0
  7  8  1  6  0  0  0
  7  9  1  0  0  0  0
  9 10  1  1  0  0  0
  9 11  1  0  0  0  0
 11 12  1  6  0  0  0
 11 13  1  0  0  0  0
 14 15  1  6  0  0  0
 14 16  1  0  0  0  0
 14 22  1  0  0  0  0
 16 17  1  0  0  0  0
 17 18  1  6  0  0  0
 17 19  1  0  0  0  0
 19  2  1  1  0  0  0
 19 20  1  0  0  0  0
 20 21  1  6  0  0  0
 20 22  1  0  0  0  0
 22 23  1  6  0  0  0
 24 23  1  1  0  0  0
 24 25  1  0  0  0  0
 24 34  1  0  0  0  0
 25 26  1  1  0  0  0
 25 27  1  0  0  0  0
 27 28  1  6  0  0  0
 27 30  1  0  0  0  0
 28 29  1  0  0  0  0
 30 31  1  6  0  0  0
 30 32  1  0  0  0  0
 30 33  1  0  0  0  0
 33 34  1  0  0  0  0
M  CHG  4   4   1  15   1  18   1  28   1
M  END
>  <CHROM.1>
167.75765773,34.75857627,-147.68816535,-173.02887712,-170.92187701,-57.88861036
176.63080816,75.77646571,58.77134369,58.71103472,147.88965763,-156.79708064
164.44317380,-13.94819359,38.44090495,-13.29046102,7.75320775,16.82329286
1.33881667,-0.62282708,0.89399670

>  <Name>
1mwl

>  <RI>
0

>  <Rbt.Current_Directory>
/home/itssahil/PROJECTS/Mol_Feturizer/New_Systems/rnas/1mwl

>  <Rbt.Executable>
rbdock ($Id: //depot/dev/client3/rdock/2013.1/src/exe/rbdock.cxx#4 $)

>  <Rbt.Library>
libRbt.so (2013.1, Build901 2013/11/27)

>  <Rbt.Parameter_File>
/export/apps/rDock/src/rDock_2013.1_src/data/scripts/dock_solv.prm

>  <Rbt.Receptor>
prm/pocket_docking_5.prm

>  <SCORE>
-44.6439

>  <SCORE.INTER>
-29.1845

>  <SCORE.INTER.CONST>
1

>  <SCORE.INTER.POLAR>
-4.78827

>  <SCORE.INTER.ROT>
6

>  <SCORE.INTER.SOLV>
23.4261

>  <SCORE.INTER.VDW>
-18.9041

>  <SCORE.INTER.norm>
-0.858367

>  <SCORE.INTRA>
-15.4594

>  <SCORE.INTRA.DIHEDRAL>
-22.7852

>  <SCORE.INTRA.DIHEDRAL.0>
42.0816

>  <SCORE.INTRA.POLAR>
-0.479196

>  <SCORE.INTRA.POLAR.0>
-0.254682

>  <SCORE.INTRA.REPUL>
0

>  <SCORE.INTRA.REPUL.0>
0

>  <SCORE.INTRA.SOLV>
-0.51843

>  <SCORE.INTRA.SOLV.lig_0>
-109.803

>  <SCORE.INTRA.VDW>
-2.17835

>  <SCORE.INTRA.VDW.0>
0.32176

>  <SCORE.INTRA.norm>
-0.45469

>  <SCORE.RESTR>
0

>  <SCORE.RESTR.CAVITY>
0

>  <SCORE.RESTR.norm>
0

>  <SCORE.SYSTEM>
0

>  <SCORE.SYSTEM.CONST>
0

>  <SCORE.SYSTEM.DIHEDRAL>
0

>  <SCORE.SYSTEM.SOLV>
0

>  <SCORE.SYSTEM.norm>
0

>  <SCORE.heavy>
34

>  <SCORE.norm>
-1.31306

>  <RMSD>
5.022

$$$$
1mwl
 OpenBabel11021811403D
libRbt.so/2013.1/901 2013/11/27
 34 36  0  0  0  0  0  0  0  0999 V2000
   -8.8750    5.1608   19.6950 C   0  0  2  0  0  0  0  0  0  0  0  0
  -10.2045    5.5846   19.7350 O   0  0  0  0  0  0  0  0  0  0  0  0
   -8.8259    3.7256   20.2904 C   0  0  2  0  0  0  0  0  0  0  0  0
   -9.6910    2.8284   19.5183 N   0  3  0  0  0  0  0  0  0  0  0  0
   -9.2214    3.7424   21.7961 C   0  0  1  0  0  0  0  0  0  0  0  0
   -9.1561    2.4967   22.3293 O   0  0  0  0  0  0  0  0  0  0  0  0
   -8.2645    4.7221   22.5524 C   0  0  2  0  0  0  0  0  0  0  0  0
   -8.5969    4.7551   23.9562 O   0  0  0  0  0  0  0  0  0  0  0  0
   -8.3989    6.1416   21.9035 C   0  0  2  0  0  0  0  0  0  0  0  0
   -8.0608    6.0825   20.4642 O   0  0  0  0  0  0  0  0  0  0  0  0
   -7.4995    7.2165   22.5243 C   0  0  2  0  0  0  0  0  0  0  0  0
   -7.9239    8.4758   22.1151 O   0  0  0  0  0  0  0  0  0  0  0  0
   -6.0224    7.1021   22.1051 C   0  0  0  0  0  0  0  0  0  0  0  0
  -12.9822    7.9242   21.9867 C   0  0  2  0  0  0  0  0  0  0  0  0
  -13.6077    8.6622   23.1134 N   0  3  0  0  0  0  0  0  0  0  0  0
  -12.8460    6.4106   22.3279 C   0  0  0  0  0  0  0  0  0  0  0  0
  -12.1665    5.6421   21.1372 C   0  0  2  0  0  0  0  0  0  0  0  0
  -12.0570    4.1799   21.4927 N   0  3  0  0  0  0  0  0  0  0  0  0
  -10.7625    6.2747   20.8459 C   0  0  2  0  0  0  0  0  0  0  0  0
  -10.9321    7.7748   20.5021 C   0  0  2  0  0  0  0  0  0  0  0  0
   -9.6631    8.3394   20.2761 O   0  0  0  0  0  0  0  0  0  0  0  0
  -11.5894    8.5216   21.6935 C   0  0  1  0  0  0  0  0  0  0  0  0
  -11.7328    9.8938   21.3576 O   0  0  0  0  0  0  0  0  0  0  0  0
  -12.2247   10.2269   20.0888 C   0  0  2  0  0  0  0  0  0  0  0  0
  -12.0791   11.7514   19.9225 C   0  0  2  0  0  0  0  0  0  0  0  0
  -10.7124   12.0945   20.0047 O   0  0  0  0  0  0  0  0  0  0  0  0
  -12.9026   12.4709   21.0446 C   0  0  1  0  0  0  0  0  0  0  0  0
  -12.7903   13.9481   20.9724 N   0  3  0  0  0  0  0  0  0  0  0  0
  -11.3999   14.3856   21.2578 C   0  0  0  0  0  0  0  0  0  0  0  0
  -14.4064   12.0426   20.9346 C   0  0  2  0  0  0  0  0  0  0  0  0
  -14.9301   12.4195   19.6473 O   0  0  0  0  0  0  0  0  0  0  0  0
  -15.2305   12.6793   21.9459 C   0  0  0  0  0  0  0  0  0  0  0  0
  -14.5280   10.4896   21.0154 C   0  0  0  0  0  0  0  0  0  0  0  0
  -13.6424    9.8383   19.9954 O   0  0  0  0  0  0  0  0  0  0  0  0
  1  2  1  1  0  0  0
  1  3  1  0  0  0  0
  1 10  1  0  0  0  0
  3  4  1  6  0  0  0
  3  5  1  0  0  0  0
  5  6  1  1  0  0  0
  5  7  1  0  0  0  0
  7  8  1  1  0  0  0
  7  9  1  0  0  0  0
  9 10  1  6  0  0  0
  9 11  1  0  0  0  0
 11 12  1  6  0  0  0
 11 13  1  0  0  0  0
 14 15  1  1  0  0  0
 14 16  1  0  0  0  0
 14 22  1  0  0  0  0
 16 17  1  0  0  0  0
 17 18  1  1  0  0  0
 17 19  1  0  0  0  0
 19  2  1  6  0  0  0
 19 20  1  0  0  0  0
 20 21  1  1  0  0  0
 20 22  1  0  0  0  0
 22 23  1  6  0  0  0
 24 23  1  1  0  0  0
 24 25  1  0  0  0  0
 24 34  1  0  0  0  0
 25 26  1  1  0  0  0
 25 27  1  0  0  0  0
 27 28  1  6  0  0  0
 27 30  1  0  0  0  0
 28 29  1  0  0  0  0
 30 31  1  6  0  0  0
 30 32  1  0  0  0  0
 30 33  1  0  0  0  0
 33 34  1  0  0  0  0
M  CHG  4   4   1  15   1  18   1  28   1
M  END
>  <CHROM.1>
89.89576173,-135.65204597,85.90733368,-167.94055812,-168.42585746,-165.43392523
-36.28593602,158.91720066,-55.78205185,141.33269540,-75.32741902,-171.77812134
-44.71223794,54.25890404,174.93894282,-10.99362475,8.05714939,21.19632700
-1.05069483,-0.06530969,-0.04595218

>  <Name>
1mwl

>  <RI>
0

>  <Rbt.Current_Directory>
/home/itssahil/PROJECTS/Mol_Feturizer/New_Systems/rnas/1mwl

>  <Rbt.Executable>
rbdock ($Id: //depot/dev/client3/rdock/2013.1/src/exe/rbdock.cxx#4 $)

>  <Rbt.Library>
libRbt.so (2013.1, Build901 2013/11/27)

>  <Rbt.Parameter_File>
/export/apps/rDock/src/rDock_2013.1_src/data/scripts/dock_solv.prm

>  <Rbt.Receptor>
prm/blind_docking_100.prm

>  <SCORE>
-27.5701

>  <SCORE.INTER>
-28.147

>  <SCORE.INTER.CONST>
1

>  <SCORE.INTER.POLAR>
-3.70333

>  <SCORE.INTER.ROT>
6

>  <SCORE.INTER.SOLV>
18.7782

>  <SCORE.INTER.VDW>
-20.2796

>  <SCORE.INTER.norm>
-0.827852

>  <SCORE.INTRA>
-3.06046

>  <SCORE.INTRA.DIHEDRAL>
-17.5519

>  <SCORE.INTRA.DIHEDRAL.0>
42.0816

>  <SCORE.INTRA.POLAR>
-0.781901

>  <SCORE.INTRA.POLAR.0>
-0.254682

>  <SCORE.INTRA.REPUL>
0

>  <SCORE.INTRA.REPUL.0>
0

>  <SCORE.INTRA.SOLV>
7.29132

>  <SCORE.INTRA.SOLV.lig_0>
-109.803

>  <SCORE.INTRA.VDW>
4.72829

>  <SCORE.INTRA.VDW.0>
0.32176

>  <SCORE.INTRA.norm>
-0.0900135

>  <SCORE.RESTR>
3.63735

>  <SCORE.RESTR.CAVITY>
3.63735

>  <SCORE.RESTR.norm>
0.106981

>  <SCORE.SYSTEM>
0

>  <SCORE.SYSTEM.CONST>
0

>  <SCORE.SYSTEM.DIHEDRAL>
0

>  <SCORE.SYSTEM.SOLV>
0

>  <SCORE.SYSTEM.norm>
0

>  <SCORE.heavy>
34

>  <SCORE.norm>
-0.810885

>  <RMSD>
5.046

$$$$
1mwl
 OpenBabel11021811403D
libRbt.so/2013.1/901 2013/11/27
 34 36  0  0  0  0  0  0  0  0999 V2000
   -9.4238    4.5485   21.9524 C   0  0  2  0  0  0  0  0  0  0  0  0
   -9.3316    4.1515   20.6173 O   0  0  0  0  0  0  0  0  0  0  0  0
  -10.3234    5.8155   22.0001 C   0  0  2  0  0  0  0  0  0  0  0  0
  -11.6467    5.5169   21.4440 N   0  3  0  0  0  0  0  0  0  0  0  0
   -9.6443    6.9991   21.2509 C   0  0  1  0  0  0  0  0  0  0  0  0
  -10.4119    8.1159   21.3101 O   0  0  0  0  0  0  0  0  0  0  0  0
   -8.2399    7.2548   21.8911 C   0  0  2  0  0  0  0  0  0  0  0  0
   -7.5843    8.3548   21.2258 O   0  0  0  0  0  0  0  0  0  0  0  0
   -7.3984    5.9385   21.7757 C   0  0  2  0  0  0  0  0  0  0  0  0
   -8.0924    4.8238   22.4577 O   0  0  0  0  0  0  0  0  0  0  0  0
   -5.9937    6.0218   22.3837 C   0  0  2  0  0  0  0  0  0  0  0  0
   -6.0867    6.3239   23.7378 O   0  0  0  0  0  0  0  0  0  0  0  0
   -5.1144    7.1190   21.7566 C   0  0  0  0  0  0  0  0  0  0  0  0
  -11.3309    1.7078   17.7378 C   0  0  2  0  0  0  0  0  0  0  0  0
  -12.4145    1.0404   16.9725 N   0  3  0  0  0  0  0  0  0  0  0  0
  -11.3521    1.2578   19.2288 C   0  0  0  0  0  0  0  0  0  0  0  0
  -10.2137    1.9834   20.0336 C   0  0  2  0  0  0  0  0  0  0  0  0
  -10.2536    1.5211   21.4694 N   0  3  0  0  0  0  0  0  0  0  0  0
  -10.4054    3.5347   19.9185 C   0  0  2  0  0  0  0  0  0  0  0  0
  -10.3710    3.9510   18.4277 C   0  0  2  0  0  0  0  0  0  0  0  0
  -10.5780    5.3398   18.3349 O   0  0  0  0  0  0  0  0  0  0  0  0
  -11.5103    3.2385   17.6509 C   0  0  1  0  0  0  0  0  0  0  0  0
  -11.4614    3.6363   16.2887 O   0  0  0  0  0  0  0  0  0  0  0  0
  -10.2446    3.5327   15.6020 C   0  0  2  0  0  0  0  0  0  0  0  0
  -10.0872    4.8040   14.7465 C   0  0  2  0  0  0  0  0  0  0  0  0
  -10.0556    5.9299   15.5973 O   0  0  0  0  0  0  0  0  0  0  0  0
  -11.2862    4.8982   13.7422 C   0  0  1  0  0  0  0  0  0  0  0  0
  -11.2247    6.1160   12.8976 N   0  3  0  0  0  0  0  0  0  0  0  0
  -11.8294    7.2761   13.6008 C   0  0  0  0  0  0  0  0  0  0  0  0
  -11.3007    3.6191   12.8364 C   0  0  2  0  0  0  0  0  0  0  0  0
  -10.0689    3.5289   12.0962 O   0  0  0  0  0  0  0  0  0  0  0  0
  -12.3882    3.6436   11.8750 C   0  0  0  0  0  0  0  0  0  0  0  0
  -11.3705    2.3368   13.7219 C   0  0  0  0  0  0  0  0  0  0  0  0
  -10.2689    2.3391   14.7394 O   0  0  0  0  0  0  0  0  0  0  0  0
  1  2  1  6  0  0  0
  1  3  1  0  0  0  0
  1 10  1  0  0  0  0
  3  4  1  6  0  0  0
  3  5  1  0  0  0  0
  5  6  1  1  0  0  0
  5  7  1  0  0  0  0
  7  8  1  6  0  0  0
  7  9  1  0  0  0  0
  9 10  1  1  0  0  0
  9 11  1  0  0  0  0
 11 12  1  1  0  0  0
 11 13  1  0  0  0  0
 14 15  1  6  0  0  0
 14 16  1  0  0  0  0
 14 22  1  0  0  0  0
 16 17  1  0  0  0  0
 17 18  1  1  0  0  0
 17 19  1  0  0  0  0
 19  2  1  1  0  0  0
 19 20  1  0  0  0  0
 20 21  1  1  0  0  0
 20 22  1  0  0  0  0
 22 23  1  6  0  0  0
 24 23  1  6  0  0  0
 24 25  1  0  0  0  0
 24 34  1  0  0  0  0
 25 26  1  1  0  0  0
 25 27  1  0  0  0  0
 27 28  1  6  0  0  0
 27 30  1  0  0  0  0
 28 29  1  0  0  0  0
 30 31  1  6  0  0  0
 30 32  1  0  0  0  0
 30 33  1  0  0  0  0
 33 34  1  0  0  0  0
M  CHG  4   4   1  15   1  18   1  28   1
M  END
>  <CHROM.1>
-73.23057040,-93.99697914,40.34449756,50.95455852,63.38252249,59.77252794
173.17044519,65.38966078,68.69911263,73.96057753,-68.49425713,-138.16640993
65.13214919,35.36306089,-56.06780437,-9.97606951,4.62824141,18.28448891,0.72452653
1.08557040,2.09253405

>  <Name>
1mwl

>  <RI>
0

>  <Rbt.Current_Directory>
/home/itssahil/PROJECTS/Mol_Feturizer/New_Systems/rnas/1mwl

>  <Rbt.Executable>
rbdock ($Id: //depot/dev/client3/rdock/2013.1/src/exe/rbdock.cxx#4 $)

>  <Rbt.Library>
libRbt.so (2013.1, Build901 2013/11/27)

>  <Rbt.Parameter_File>
/export/apps/rDock/src/rDock_2013.1_src/data/scripts/dock_solv.prm

>  <Rbt.Receptor>
prm/pocket_docking_8.prm

>  <SCORE>
-48.1172

>  <SCORE.INTER>
-35.2951

>  <SCORE.INTER.CONST>
1

>  <SCORE.INTER.POLAR>
-4.56122

>  <SCORE.INTER.ROT>
6

>  <SCORE.INTER.SOLV>
17.144

>  <SCORE.INTER.VDW>
-21.6407

>  <SCORE.INTER.norm>
-1.03809

>  <SCORE.INTRA>
-12.8221

>  <SCORE.INTRA.DIHEDRAL>
-26.5109

>  <SCORE.INTRA.DIHEDRAL.0>
42.0816

>  <SCORE.INTRA.POLAR>
0.00328915

>  <SCORE.INTRA.POLAR.0>
-0.254682

>  <SCORE.INTRA.REPUL>
0

>  <SCORE.INTRA.REPUL.0>
0

>  <SCORE.INTRA.SOLV>
3.02925

>  <SCORE.INTRA.SOLV.lig_0>
-109.803

>  <SCORE.INTRA.VDW>
-1.09247

>  <SCORE.INTRA.VDW.0>
0.32176

>  <SCORE.INTRA.norm>
-0.377121

>  <SCORE.RESTR>
0

>  <SCORE.RESTR.CAVITY>
0

>  <SCORE.RESTR.norm>
0

>  <SCORE.SYSTEM>
0

>  <SCORE.SYSTEM.CONST>
0

>  <SCORE.SYSTEM.DIHEDRAL>
0

>  <SCORE.SYSTEM.SOLV>
0

>  <SCORE.SYSTEM.norm>
0

>  <SCORE.heavy>
34

>  <SCORE.norm>
-1.41521

>  <RMSD>
5.081

$$$$
1mwl
 OpenBabel11021811403D
libRbt.so/2013.1/901 2013/11/27
 34 36  0  0  0  0  0  0  0  0999 V2000
  -12.6701    3.8335   21.2483 C   0  0  2  0  0  0  0  0  0  0  0  0
  -11.6409    4.0085   20.3216 O   0  0  0  0  0  0  0  0  0  0  0  0
  -12.9333    2.3060   21.3685 C   0  0  2  0  0  0  0  0  0  0  0  0
  -11.7129    1.6151   21.7959 N   0  3  0  0  0  0  0  0  0  0  0  0
  -13.4706    1.7344   20.0238 C   0  0  1  0  0  0  0  0  0  0  0  0
  -13.7269    0.4064   20.1285 O   0  0  0  0  0  0  0  0  0  0  0  0
  -14.7637    2.5211   19.6284 C   0  0  2  0  0  0  0  0  0  0  0  0
  -15.2958    2.0096   18.3884 O   0  0  0  0  0  0  0  0  0  0  0  0
  -14.3990    4.0396   19.5064 C   0  0  2  0  0  0  0  0  0  0  0  0
  -13.8493    4.5403   20.7857 O   0  0  0  0  0  0  0  0  0  0  0  0
  -15.5756    4.9531   19.1442 C   0  0  2  0  0  0  0  0  0  0  0  0
  -16.6722    4.6423   19.9405 O   0  0  0  0  0  0  0  0  0  0  0  0
  -16.0458    4.8039   17.6857 C   0  0  0  0  0  0  0  0  0  0  0  0
  -11.3539    8.2660   20.0959 C   0  0  2  0  0  0  0  0  0  0  0  0
  -10.8553    9.6242   19.7610 N   0  3  0  0  0  0  0  0  0  0  0  0
  -10.3227    7.5032   20.9795 C   0  0  0  0  0  0  0  0  0  0  0  0
  -10.8515    6.0612   21.3128 C   0  0  2  0  0  0  0  0  0  0  0  0
   -9.8374    5.3516   22.1759 N   0  3  0  0  0  0  0  0  0  0  0  0
  -11.1200    5.2860   19.9774 C   0  0  2  0  0  0  0  0  0  0  0  0
  -12.1536    6.0637   19.1265 C   0  0  2  0  0  0  0  0  0  0  0  0
  -12.3609    5.3763   17.9163 O   0  0  0  0  0  0  0  0  0  0  0  0
  -11.6098    7.4787   18.7930 C   0  0  1  0  0  0  0  0  0  0  0  0
  -12.5714    8.1721   18.0113 O   0  0  0  0  0  0  0  0  0  0  0  0
  -12.1238    8.9880   16.9642 C   0  0  2  0  0  0  0  0  0  0  0  0
  -13.3135    9.8572   16.5148 C   0  0  2  0  0  0  0  0  0  0  0  0
  -13.7295   10.6624   17.5970 O   0  0  0  0  0  0  0  0  0  0  0  0
  -14.4775    8.9248   16.0345 C   0  0  1  0  0  0  0  0  0  0  0  0
  -15.6773    9.6871   15.6109 N   0  3  0  0  0  0  0  0  0  0  0  0
  -16.7681    9.5508   16.6097 C   0  0  0  0  0  0  0  0  0  0  0  0
  -13.9667    8.0308   14.8526 C   0  0  2  0  0  0  0  0  0  0  0  0
  -13.5435    8.8631   13.7564 O   0  0  0  0  0  0  0  0  0  0  0  0
  -15.0009    7.1426   14.3539 C   0  0  0  0  0  0  0  0  0  0  0  0
  -12.7078    7.2241   15.2969 C   0  0  0  0  0  0  0  0  0  0  0  0
  -11.6605    8.1444   15.8492 O   0  0  0  0  0  0  0  0  0  0  0  0
  1  2  1  6  0  0  0
  1  3  1  0  0  0  0
  1 10  1  0  0  0  0
  3  4  1  6  0  0  0
  3  5  1  0  0  0  0
  5  6  1  1  0  0  0
  5  7  1  0  0  0  0
  7  8  1  6  0  0  0
  7  9  1  0  0  0  0
  9 10  1  1  0  0  0
  9 11  1  0  0  0  0
 11 12  1  1  0  0  0
 11 13  1  0  0  0  0
 14 15  1  6  0  0  0
 14 16  1  0  0  0  0
 14 22  1  0  0  0  0
 16 17  1  0  0  0  0
 17 18  1  1  0  0  0
 17 19  1  0  0  0  0
 19  2  1  1  0  0  0
 19 20  1  0  0  0  0
 20 21  1  6  0  0  0
 20 22  1  0  0  0  0
 22 23  1  6  0  0  0
 24 23  1  1  0  0  0
 24 25  1  0  0  0  0
 24 34  1  0  0  0  0
 25 26  1  1  0  0  0
 25 27  1  0  0  0  0
 27 28  1  6  0  0  0
 27 30  1  0  0  0  0
 28 29  1  0  0  0  0
 30 31  1  6  0  0  0
 30 32  1  0  0  0  0
 30 33  1  0  0  0  0
 33 34  1  0  0  0  0
M  CHG  4   4   1  15   1  18   1  28   1
M  END
>  <CHROM.1>
-178.89433203,47.50053381,80.11542090,-171.95674500,62.21568777,46.82618025
174.56202019,-41.98968531,-173.56609129,-59.84511666,98.57498517,-166.87994292
-57.61329182,12.60472841,56.74552099,-13.20767074,6.09461642,18.57163774
-1.43306801,-0.65497538,-0.55759556

>  <Name>
1mwl

>  <RI>
0

>  <Rbt.Current_Directory>
/home/itssahil/PROJECTS/Mol_Feturizer/New_Systems/rnas/1mwl

>  <Rbt.Executable>
rbdock ($Id: //depot/dev/client3/rdock/2013.1/src/exe/rbdock.cxx#4 $)

>  <Rbt.Library>
libRbt.so (2013.1, Build901 2013/11/27)

>  <Rbt.Parameter_File>
/export/apps/rDock/src/rDock_2013.1_src/data/scripts/dock_solv.prm

>  <Rbt.Receptor>
prm/pocket_docking_8.prm

>  <SCORE>
-53.0207

>  <SCORE.INTER>
-35.3255

>  <SCORE.INTER.CONST>
1

>  <SCORE.INTER.POLAR>
-6.8626

>  <SCORE.INTER.ROT>
6

>  <SCORE.INTER.SOLV>
21.5403

>  <SCORE.INTER.VDW>
-15.4551

>  <SCORE.INTER.norm>
-1.03899

>  <SCORE.INTRA>
-17.6952

>  <SCORE.INTRA.DIHEDRAL>
-29.182

>  <SCORE.INTRA.DIHEDRAL.0>
42.0816

>  <SCORE.INTRA.POLAR>
0.151262

>  <SCORE.INTRA.POLAR.0>
-0.254682

>  <SCORE.INTRA.REPUL>
0

>  <SCORE.INTRA.REPUL.0>
0

>  <SCORE.INTRA.SOLV>
-0.264499

>  <SCORE.INTRA.SOLV.lig_0>
-109.803

>  <SCORE.INTRA.VDW>
-3.48623

>  <SCORE.INTRA.VDW.0>
0.32176

>  <SCORE.INTRA.norm>
-0.520447

>  <SCORE.RESTR>
0

>  <SCORE.RESTR.CAVITY>
0

>  <SCORE.RESTR.norm>
0

>  <SCORE.SYSTEM>
0

>  <SCORE.SYSTEM.CONST>
0

>  <SCORE.SYSTEM.DIHEDRAL>
0

>  <SCORE.SYSTEM.SOLV>
0

>  <SCORE.SYSTEM.norm>
0

>  <SCORE.heavy>
34

>  <SCORE.norm>
-1.55943

>  <RMSD>
5.108

$$$$
1mwl
 OpenBabel11021811403D
libRbt.so/2013.1/901 2013/11/27
 34 36  0  0  0  0  0  0  0  0999 V2000
   -8.5045    7.9395   22.4436 C   0  0  2  0  0  0  0  0  0  0  0  0
   -8.6274    7.7859   21.0616 O   0  0  0  0  0  0  0  0  0  0  0  0
   -6.9860    7.9804   22.7742 C   0  0  2  0  0  0  0  0  0  0  0  0
   -6.3429    9.0871   22.0593 N   0  3  0  0  0  0  0  0  0  0  0  0
   -6.3141    6.6172   22.4368 C   0  0  1  0  0  0  0  0  0  0  0  0
   -4.9936    6.6367   22.7466 O   0  0  0  0  0  0  0  0  0  0  0  0
   -7.0541    5.4873   23.2264 C   0  0  2  0  0  0  0  0  0  0  0  0
   -6.4497    4.2077   22.9444 O   0  0  0  0  0  0  0  0  0  0  0  0
   -8.5650    5.5052   22.8130 C   0  0  2  0  0  0  0  0  0  0  0  0
   -9.1615    6.8276   23.1040 O   0  0  0  0  0  0  0  0  0  0  0  0
   -9.4352    4.4625   23.5238 C   0  0  2  0  0  0  0  0  0  0  0  0
   -9.1036    3.1897   23.0728 O   0  0  0  0  0  0  0  0  0  0  0  0
  -10.9423    4.6342   23.2605 C   0  0  0  0  0  0  0  0  0  0  0  0
  -11.8478    8.2781   18.2964 C   0  0  2  0  0  0  0  0  0  0  0  0
  -13.1385    8.0693   17.5923 N   0  3  0  0  0  0  0  0  0  0  0  0
  -10.9290    7.0298   18.1437 C   0  0  0  0  0  0  0  0  0  0  0  0
   -9.5737    7.2535   18.9075 C   0  0  2  0  0  0  0  0  0  0  0  0
   -8.7028    6.0336   18.7338 N   0  3  0  0  0  0  0  0  0  0  0  0
   -9.8720    7.5423   20.4188 C   0  0  2  0  0  0  0  0  0  0  0  0
  -10.7787    8.7917   20.5376 C   0  0  2  0  0  0  0  0  0  0  0  0
  -11.0674    9.0209   21.8956 O   0  0  0  0  0  0  0  0  0  0  0  0
  -12.1182    8.5486   19.7919 C   0  0  1  0  0  0  0  0  0  0  0  0
  -12.9337    9.7044   19.9159 O   0  0  0  0  0  0  0  0  0  0  0  0
  -12.5677   10.8627   19.2180 C   0  0  2  0  0  0  0  0  0  0  0  0
  -12.5489   12.0247   20.2291 C   0  0  2  0  0  0  0  0  0  0  0  0
  -11.5889   11.7507   21.2270 O   0  0  0  0  0  0  0  0  0  0  0  0
  -13.9758   12.1814   20.8571 C   0  0  1  0  0  0  0  0  0  0  0  0
  -14.0352   13.2654   21.8678 N   0  3  0  0  0  0  0  0  0  0  0  0
  -14.8575   12.8540   23.0342 C   0  0  0  0  0  0  0  0  0  0  0  0
  -15.0135   12.4574   19.7151 C   0  0  2  0  0  0  0  0  0  0  0  0
  -14.6661   13.6697   19.0201 O   0  0  0  0  0  0  0  0  0  0  0  0
  -16.3612   12.6187   20.2297 C   0  0  0  0  0  0  0  0  0  0  0  0
  -14.9568   11.3162   18.6532 C   0  0  0  0  0  0  0  0  0  0  0  0
  -13.5543   11.1279   18.1569 O   0  0  0  0  0  0  0  0  0  0  0  0
  1  2  1  6  0  0  0
  1  3  1  0  0  0  0
  1 10  1  0  0  0  0
  3  4  1  6  0  0  0
  3  5  1  0  0  0  0
  5  6  1  1  0  0  0
  5  7  1  0  0  0  0
  7  8  1  6  0  0  0
  7  9  1  0  0  0  0
  9 10  1  1  0  0  0
  9 11  1  0  0  0  0
 11 12  1  6  0  0  0
 11 13  1  0  0  0  0
 14 15  1  6  0  0  0
 14 16  1  0  0  0  0
 14 22  1  0  0  0  0
 16 17  1  0  0  0  0
 17 18  1  1  0  0  0
 17 19  1  0  0  0  0
 19  2  1  1  0  0  0
 19 20  1  0  0  0  0
 20 21  1  1  0  0  0
 20 22  1  0  0  0  0
 22 23  1  6  0  0  0
 24 23  1  1  0  0  0
 24 25  1  0  0  0  0
 24 34  1  0  0  0  0
 25 26  1  1  0  0  0
 25 27  1  0  0  0  0
 27 28  1  1  0  0  0
 27 30  1  0  0  0  0
 28 29  1  0  0  0  0
 30 31  1  6  0  0  0
 30 32  1  0  0  0  0
 30 33  1  0  0  0  0
 33 34  1  0  0  0  0
M  CHG  4   4   1  15   1  18   1  28   1
M  END
>  <CHROM.1>
171.92070528,-173.04955523,-92.06182008,-62.07608629,83.95336820,-69.80276477
40.79846281,-171.47729295,-32.77234679,160.80547154,-49.29548251,-128.44757729
58.75231467,-19.36171588,61.16664610,-10.77669670,8.66604275,20.94478958
-0.34911535,-0.72942303,0.68365770

>  <Name>
1mwl

>  <RI>
0

>  <Rbt.Current_Directory>
/home/itssahil/PROJECTS/Mol_Feturizer/New_Systems/rnas/1mwl

>  <Rbt.Executable>
rbdock ($Id: //depot/dev/client3/rdock/2013.1/src/exe/rbdock.cxx#4 $)

>  <Rbt.Library>
libRbt.so (2013.1, Build901 2013/11/27)

>  <Rbt.Parameter_File>
/export/apps/rDock/src/rDock_2013.1_src/data/scripts/dock_solv.prm

>  <Rbt.Receptor>
prm/blind_docking_100.prm

>  <SCORE>
-7.49877

>  <SCORE.INTER>
1.52635

>  <SCORE.INTER.CONST>
1

>  <SCORE.INTER.POLAR>
-3.03061

>  <SCORE.INTER.ROT>
6

>  <SCORE.INTER.SOLV>
30.0579

>  <SCORE.INTER.VDW>
-6.49971

>  <SCORE.INTER.norm>
0.0448925

>  <SCORE.INTRA>
-20.4117

>  <SCORE.INTRA.DIHEDRAL>
-21.4149

>  <SCORE.INTRA.DIHEDRAL.0>
42.0816

>  <SCORE.INTRA.POLAR>
-1.90586

>  <SCORE.INTRA.POLAR.0>
-0.254682

>  <SCORE.INTRA.REPUL>
0

>  <SCORE.INTRA.REPUL.0>
0

>  <SCORE.INTRA.SOLV>
-1.60719

>  <SCORE.INTRA.SOLV.lig_0>
-109.803

>  <SCORE.INTRA.VDW>
-2.42075

>  <SCORE.INTRA.VDW.0>
0.32176

>  <SCORE.INTRA.norm>
-0.600345

>  <SCORE.RESTR>
11.3866

>  <SCORE.RESTR.CAVITY>
11.3866

>  <SCORE.RESTR.norm>
0.334901

>  <SCORE.SYSTEM>
0

>  <SCORE.SYSTEM.CONST>
0

>  <SCORE.SYSTEM.DIHEDRAL>
0

>  <SCORE.SYSTEM.SOLV>
0

>  <SCORE.SYSTEM.norm>
0

>  <SCORE.heavy>
34

>  <SCORE.norm>
-0.220552

>  <RMSD>
5.270

$$$$
1mwl
 OpenBabel11021811403D
libRbt.so/2013.1/901 2013/11/27
 34 36  0  0  0  0  0  0  0  0999 V2000
   -8.7253    7.7112   21.9053 C   0  0  2  0  0  0  0  0  0  0  0  0
   -8.3525    7.5051   20.5760 O   0  0  0  0  0  0  0  0  0  0  0  0
   -7.4205    7.8695   22.7355 C   0  0  2  0  0  0  0  0  0  0  0  0
   -6.6311    8.9952   22.2265 N   0  3  0  0  0  0  0  0  0  0  0  0
   -6.5995    6.5468   22.7247 C   0  0  1  0  0  0  0  0  0  0  0  0
   -5.4716    6.6691   23.4684 O   0  0  0  0  0  0  0  0  0  0  0  0
   -7.5042    5.3935   23.2716 C   0  0  2  0  0  0  0  0  0  0  0  0
   -6.7702    4.1512   23.2850 O   0  0  0  0  0  0  0  0  0  0  0  0
   -8.7764    5.2918   22.3632 C   0  0  2  0  0  0  0  0  0  0  0  0
   -9.5085    6.5776   22.3588 O   0  0  0  0  0  0  0  0  0  0  0  0
   -9.7805    4.2138   22.7869 C   0  0  2  0  0  0  0  0  0  0  0  0
   -9.2248    2.9541   22.5930 O   0  0  0  0  0  0  0  0  0  0  0  0
  -11.0891    4.2372   21.9760 C   0  0  0  0  0  0  0  0  0  0  0  0
  -11.8133    5.6792   18.8590 C   0  0  2  0  0  0  0  0  0  0  0  0
  -12.7983    5.2044   17.8541 N   0  3  0  0  0  0  0  0  0  0  0  0
  -11.7140    7.2335   18.8412 C   0  0  0  0  0  0  0  0  0  0  0  0
  -10.6562    7.7244   19.8948 C   0  0  2  0  0  0  0  0  0  0  0  0
  -10.5893    9.2314   19.8608 N   0  3  0  0  0  0  0  0  0  0  0  0
   -9.2661    7.0750   19.5750 C   0  0  2  0  0  0  0  0  0  0  0  0
   -9.3955    5.5325   19.6087 C   0  0  2  0  0  0  0  0  0  0  0  0
   -8.1505    4.9611   19.2869 O   0  0  0  0  0  0  0  0  0  0  0  0
  -10.4315    5.0633   18.5524 C   0  0  1  0  0  0  0  0  0  0  0  0
  -10.5320    3.6476   18.5992 O   0  0  0  0  0  0  0  0  0  0  0  0
   -9.3925    2.8837   18.3152 C   0  0  2  0  0  0  0  0  0  0  0  0
   -9.0399    3.1133   16.8334 C   0  0  2  0  0  0  0  0  0  0  0  0
   -8.7534    4.4813   16.6354 O   0  0  0  0  0  0  0  0  0  0  0  0
  -10.2477    2.6626   15.9429 C   0  0  1  0  0  0  0  0  0  0  0  0
   -9.9988    2.8796   14.4968 N   0  3  0  0  0  0  0  0  0  0  0  0
  -10.2181    4.3026   14.1321 C   0  0  0  0  0  0  0  0  0  0  0  0
  -10.5493    1.1482   16.2125 C   0  0  2  0  0  0  0  0  0  0  0  0
   -9.3951    0.3527   15.8830 O   0  0  0  0  0  0  0  0  0  0  0  0
  -11.6588    0.6620   15.4125 C   0  0  0  0  0  0  0  0  0  0  0  0
  -10.8165    0.9178   17.7319 C   0  0  0  0  0  0  0  0  0  0  0  0
   -9.6852    1.4599   18.5536 O   0  0  0  0  0  0  0  0  0  0  0  0
  1  2  1  6  0  0  0
  1  3  1  0  0  0  0
  1 10  1  0  0  0  0
  3  4  1  6  0  0  0
  3  5  1  0  0  0  0
  5  6  1  1  0  0  0
  5  7  1  0  0  0  0
  7  8  1  6  0  0  0
  7  9  1  0  0  0  0
  9 10  1  1  0  0  0
  9 11  1  0  0  0  0
 11 12  1  6  0  0  0
 11 13  1  0  0  0  0
 14 15  1  6  0  0  0
 14 16  1  0  0  0  0
 14 22  1  0  0  0  0
 16 17  1  0  0  0  0
 17 18  1  6  0  0  0
 17 19  1  0  0  0  0
 19  2  1  1  0  0  0
 19 20  1  0  0  0  0
 20 21  1  6  0  0  0
 20 22  1  0  0  0  0
 22 23  1  1  0  0  0
 24 23  1  6  0  0  0
 24 25  1  0  0  0  0
 24 34  1  0  0  0  0
 25 26  1  1  0  0  0
 25 27  1  0  0  0  0
 27 28  1  6  0  0  0
 27 30  1  0  0  0  0
 28 29  1  0  0  0  0
 30 31  1  6  0  0  0
 30 32  1  0  0  0  0
 30 33  1  0  0  0  0
 33 34  1  0  0  0  0
M  CHG  4   4   1  15   1  18   1  28   1
M  END
>  <CHROM.1>
167.96975664,34.97682083,173.15459854,-60.26964457,58.92523840,-67.64344253
165.96146737,62.23731902,166.77079686,64.25349919,178.38854124,-66.01404296
53.04729530,40.53948372,177.37595316,-9.40718804,4.83281890,19.51068560,0.89671218
-1.04051587,0.33004840

>  <Name>
1mwl

>  <RI>
0

>  <Rbt.Current_Directory>
/home/itssahil/PROJECTS/Mol_Feturizer/New_Systems/rnas/1mwl

>  <Rbt.Executable>
rbdock ($Id: //depot/dev/client3/rdock/2013.1/src/exe/rbdock.cxx#4 $)

>  <Rbt.Library>
libRbt.so (2013.1, Build901 2013/11/27)

>  <Rbt.Parameter_File>
/export/apps/rDock/src/rDock_2013.1_src/data/scripts/dock_solv.prm

>  <Rbt.Receptor>
prm/pocket_docking_7.prm

>  <SCORE>
-57.1802

>  <SCORE.INTER>
-38.6344

>  <SCORE.INTER.CONST>
1

>  <SCORE.INTER.POLAR>
-5.92699

>  <SCORE.INTER.ROT>
6

>  <SCORE.INTER.SOLV>
23.1707

>  <SCORE.INTER.VDW>
-21.3232

>  <SCORE.INTER.norm>
-1.13631

>  <SCORE.INTRA>
-18.5458

>  <SCORE.INTRA.DIHEDRAL>
-35.5837

>  <SCORE.INTRA.DIHEDRAL.0>
42.0816

>  <SCORE.INTRA.POLAR>
-0.337456

>  <SCORE.INTRA.POLAR.0>
-0.254682

>  <SCORE.INTRA.REPUL>
0

>  <SCORE.INTRA.REPUL.0>
0

>  <SCORE.INTRA.SOLV>
-0.938908

>  <SCORE.INTRA.SOLV.lig_0>
-109.803

>  <SCORE.INTRA.VDW>
0.862813

>  <SCORE.INTRA.VDW.0>
0.32176

>  <SCORE.INTRA.norm>
-0.545466

>  <SCORE.RESTR>
0

>  <SCORE.RESTR.CAVITY>
0

>  <SCORE.RESTR.norm>
0

>  <SCORE.SYSTEM>
0

>  <SCORE.SYSTEM.CONST>
0

>  <SCORE.SYSTEM.DIHEDRAL>
0

>  <SCORE.SYSTEM.SOLV>
0

>  <SCORE.SYSTEM.norm>
0

>  <SCORE.heavy>
34

>  <SCORE.norm>
-1.68177

>  <RMSD>
5.376

$$$$
1mwl
 OpenBabel11021811403D
libRbt.so/2013.1/901 2013/11/27
 34 36  0  0  0  0  0  0  0  0999 V2000
  -13.3508    7.1375   21.4936 C   0  0  2  0  0  0  0  0  0  0  0  0
  -14.3989    7.6240   20.7104 O   0  0  0  0  0  0  0  0  0  0  0  0
  -12.3987    8.3302   21.7900 C   0  0  2  0  0  0  0  0  0  0  0  0
  -13.1266    9.3975   22.4834 N   0  3  0  0  0  0  0  0  0  0  0  0
  -11.7427    8.8480   20.4766 C   0  0  1  0  0  0  0  0  0  0  0  0
  -10.8907    9.8727   20.7305 O   0  0  0  0  0  0  0  0  0  0  0  0
  -10.9933    7.6584   19.7905 C   0  0  2  0  0  0  0  0  0  0  0  0
  -10.3633    8.1058   18.5719 O   0  0  0  0  0  0  0  0  0  0  0  0
  -12.0309    6.5192   19.5084 C   0  0  2  0  0  0  0  0  0  0  0  0
  -12.6690    6.0816   20.7696 O   0  0  0  0  0  0  0  0  0  0  0  0
  -11.4414    5.2647   18.8537 C   0  0  2  0  0  0  0  0  0  0  0  0
  -12.4278    4.2923   18.7323 O   0  0  0  0  0  0  0  0  0  0  0  0
  -10.3013    4.6233   19.6655 C   0  0  0  0  0  0  0  0  0  0  0  0
  -15.8048    4.1296   18.6925 C   0  0  2  0  0  0  0  0  0  0  0  0
  -16.6841    3.2043   17.9336 N   0  3  0  0  0  0  0  0  0  0  0  0
  -16.4448    4.4968   20.0641 C   0  0  0  0  0  0  0  0  0  0  0  0
  -15.5155    5.4904   20.8510 C   0  0  2  0  0  0  0  0  0  0  0  0
  -16.1564    5.8196   22.1767 N   0  3  0  0  0  0  0  0  0  0  0  0
  -15.2803    6.7757   19.9856 C   0  0  2  0  0  0  0  0  0  0  0  0
  -14.6362    6.3792   18.6346 C   0  0  2  0  0  0  0  0  0  0  0  0
  -14.4613    7.5363   17.8533 O   0  0  0  0  0  0  0  0  0  0  0  0
  -15.5731    5.4110   17.8637 C   0  0  1  0  0  0  0  0  0  0  0  0
  -14.9645    5.0631   16.6287 O   0  0  0  0  0  0  0  0  0  0  0  0
  -15.7654    4.9932   15.4814 C   0  0  2  0  0  0  0  0  0  0  0  0
  -14.8837    4.4653   14.3340 C   0  0  2  0  0  0  0  0  0  0  0  0
  -14.4204    3.1740   14.6666 O   0  0  0  0  0  0  0  0  0  0  0  0
  -13.6834    5.4484   14.1152 C   0  0  1  0  0  0  0  0  0  0  0  0
  -12.7661    4.9942   13.0418 N   0  3  0  0  0  0  0  0  0  0  0  0
  -11.4012    4.7605   13.5790 C   0  0  0  0  0  0  0  0  0  0  0  0
  -14.2407    6.8736   13.7752 C   0  0  2  0  0  0  0  0  0  0  0  0
  -15.0312    6.8164   12.5731 O   0  0  0  0  0  0  0  0  0  0  0  0
  -13.1773    7.8368   13.5544 C   0  0  0  0  0  0  0  0  0  0  0  0
  -15.2019    7.3560   14.9050 C   0  0  0  0  0  0  0  0  0  0  0  0
  -16.2732    6.3370   15.1557 O   0  0  0  0  0  0  0  0  0  0  0  0
  1  2  1  6  0  0  0
  1  3  1  0  0  0  0
  1 10  1  0  0  0  0
  3  4  1  6  0  0  0
  3  5  1  0  0  0  0
  5  6  1  1  0  0  0
  5  7  1  0  0  0  0
  7  8  1  6  0  0  0
  7  9  1  0  0  0  0
  9 10  1  1  0  0  0
  9 11  1  0  0  0  0
 11 12  1  1  0  0  0
 11 13  1  0  0  0  0
 14 15  1  6  0  0  0
 14 16  1  0  0  0  0
 14 22  1  0  0  0  0
 16 17  1  0  0  0  0
 17 18  1  1  0  0  0
 17 19  1  0  0  0  0
 19  2  1  1  0  0  0
 19 20  1  0  0  0  0
 20 21  1  6  0  0  0
 20 22  1  0  0  0  0
 22 23  1  6  0  0  0
 24 23  1  1  0  0  0
 24 25  1  0  0  0  0
 24 34  1  0  0  0  0
 25 26  1  1  0  0  0
 25 27  1  0  0  0  0
 27 28  1  6  0  0  0
 27 30  1  0  0  0  0
 28 29  1  0  0  0  0
 30 31  1  6  0  0  0
 30 32  1  0  0  0  0
 30 33  1  0  0  0  0
 33 34  1  0  0  0  0
M  CHG  4   4   1  15   1  18   1  28   1
M  END
>  <CHROM.1>
164.50550430,36.14060306,60.96938769,-172.87576720,59.95079089,176.05965465
170.20083908,64.95178990,-62.23711787,63.24893968,100.79754923,-174.49036447
-55.04060442,0.98908966,-57.64093481,-13.76774433,6.21574962,17.91681453
1.33028845,0.57641704,1.40659435

>  <Name>
1mwl

>  <RI>
0

>  <Rbt.Current_Directory>
/home/itssahil/PROJECTS/Mol_Feturizer/New_Systems/rnas/1mwl

>  <Rbt.Executable>
rbdock ($Id: //depot/dev/client3/rdock/2013.1/src/exe/rbdock.cxx#4 $)

>  <Rbt.Library>
libRbt.so (2013.1, Build901 2013/11/27)

>  <Rbt.Parameter_File>
/export/apps/rDock/src/rDock_2013.1_src/data/scripts/dock_solv.prm

>  <Rbt.Receptor>
prm/pocket_docking_7.prm

>  <SCORE>
-38.1532

>  <SCORE.INTER>
-22.5815

>  <SCORE.INTER.CONST>
1

>  <SCORE.INTER.POLAR>
-3.9939

>  <SCORE.INTER.ROT>
6

>  <SCORE.INTER.SOLV>
9.14741

>  <SCORE.INTER.VDW>
-12.3904

>  <SCORE.INTER.norm>
-0.66416

>  <SCORE.INTRA>
-15.5717

>  <SCORE.INTRA.DIHEDRAL>
-28.0841

>  <SCORE.INTRA.DIHEDRAL.0>
42.0816

>  <SCORE.INTRA.POLAR>
0.236706

>  <SCORE.INTRA.POLAR.0>
-0.254682

>  <SCORE.INTRA.REPUL>
0

>  <SCORE.INTRA.REPUL.0>
0

>  <SCORE.INTRA.SOLV>
-0.133787

>  <SCORE.INTRA.SOLV.lig_0>
-109.803

>  <SCORE.INTRA.VDW>
-2.26756

>  <SCORE.INTRA.VDW.0>
0.32176

>  <SCORE.INTRA.norm>
-0.457992

>  <SCORE.RESTR>
0

>  <SCORE.RESTR.CAVITY>
0

>  <SCORE.RESTR.norm>
0

>  <SCORE.SYSTEM>
0

>  <SCORE.SYSTEM.CONST>
0

>  <SCORE.SYSTEM.DIHEDRAL>
0

>  <SCORE.SYSTEM.SOLV>
0

>  <SCORE.SYSTEM.norm>
0

>  <SCORE.heavy>
34

>  <SCORE.norm>
-1.12215

>  <RMSD>
5.387

$$$$
1mwl
 OpenBabel11021811403D
libRbt.so/2013.1/901 2013/11/27
 34 36  0  0  0  0  0  0  0  0999 V2000
   -9.2361    5.7993   19.2513 C   0  0  2  0  0  0  0  0  0  0  0  0
  -10.5622    6.1922   19.4403 O   0  0  0  0  0  0  0  0  0  0  0  0
   -9.2250    4.7218   18.1307 C   0  0  2  0  0  0  0  0  0  0  0  0
   -9.7956    5.2704   16.8966 N   0  3  0  0  0  0  0  0  0  0  0  0
   -9.9852    3.4437   18.5911 C   0  0  1  0  0  0  0  0  0  0  0  0
   -9.9579    2.4889   17.6278 O   0  0  0  0  0  0  0  0  0  0  0  0
   -9.3286    2.9209   19.9113 C   0  0  2  0  0  0  0  0  0  0  0  0
  -10.0037    1.7280   20.3625 O   0  0  0  0  0  0  0  0  0  0  0  0
   -9.4073    4.0586   20.9852 C   0  0  2  0  0  0  0  0  0  0  0  0
   -8.7157    5.2729   20.4988 O   0  0  0  0  0  0  0  0  0  0  0  0
   -8.7796    3.7056   22.3385 C   0  0  2  0  0  0  0  0  0  0  0  0
   -9.2021    2.4417   22.7352 O   0  0  0  0  0  0  0  0  0  0  0  0
   -9.1765    4.6685   23.4723 C   0  0  0  0  0  0  0  0  0  0  0  0
  -12.9478    8.6640   21.9817 C   0  0  2  0  0  0  0  0  0  0  0  0
  -13.4652    9.3432   23.1967 N   0  3  0  0  0  0  0  0  0  0  0  0
  -13.0890    7.1184   22.1125 C   0  0  0  0  0  0  0  0  0  0  0  0
  -12.5221    6.4086   20.8300 C   0  0  2  0  0  0  0  0  0  0  0  0
  -12.6810    4.9158   20.9819 N   0  3  0  0  0  0  0  0  0  0  0  0
  -11.0212    6.8148   20.6334 C   0  0  2  0  0  0  0  0  0  0  0  0
  -10.9151    8.3535   20.4981 C   0  0  2  0  0  0  0  0  0  0  0  0
   -9.5609    8.7087   20.3563 O   0  0  0  0  0  0  0  0  0  0  0  0
  -11.4641    9.0382   21.7783 C   0  0  1  0  0  0  0  0  0  0  0  0
  -11.3549   10.4466   21.6333 O   0  0  0  0  0  0  0  0  0  0  0  0
  -11.3095   10.9874   20.3418 C   0  0  2  0  0  0  0  0  0  0  0  0
  -11.6256   12.4905   20.4589 C   0  0  2  0  0  0  0  0  0  0  0  0
  -10.6428   13.1058   21.2639 O   0  0  0  0  0  0  0  0  0  0  0  0
  -13.0504   12.6677   21.0861 C   0  0  1  0  0  0  0  0  0  0  0  0
  -13.4203   14.0934   21.2609 N   0  3  0  0  0  0  0  0  0  0  0  0
  -13.0129   14.8925   20.0770 C   0  0  0  0  0  0  0  0  0  0  0  0
  -14.1060   11.9486   20.1775 C   0  0  2  0  0  0  0  0  0  0  0  0
  -14.0934   12.5280   18.8593 O   0  0  0  0  0  0  0  0  0  0  0  0
  -15.4542   12.0784   20.6998 C   0  0  0  0  0  0  0  0  0  0  0  0
  -13.7223   10.4476   19.9961 C   0  0  0  0  0  0  0  0  0  0  0  0
  -12.3143   10.3208   19.4958 O   0  0  0  0  0  0  0  0  0  0  0  0
  1  2  1  1  0  0  0
  1  3  1  0  0  0  0
  1 10  1  0  0  0  0
  3  4  1  6  0  0  0
  3  5  1  0  0  0  0
  5  6  1  6  0  0  0
  5  7  1  0  0  0  0
  7  8  1  1  0  0  0
  7  9  1  0  0  0  0
  9 10  1  6  0  0  0
  9 11  1  0  0  0  0
 11 12  1  1  0  0  0
 11 13  1  0  0  0  0
 14 15  1  1  0  0  0
 14 16  1  0  0  0  0
 14 22  1  0  0  0  0
 16 17  1  0  0  0  0
 17 18  1  1  0  0  0
 17 19  1  0  0  0  0
 19  2  1  6  0  0  0
 19 20  1  0  0  0  0
 20 21  1  1  0  0  0
 20 22  1  0  0  0  0
 22 23  1  6  0  0  0
 24 23  1  1  0  0  0
 24 25  1  0  0  0  0
 24 34  1  0  0  0  0
 25 26  1  1  0  0  0
 25 27  1  0  0  0  0
 27 28  1  6  0  0  0
 27 30  1  0  0  0  0
 28 29  1  0  0  0  0
 30 31  1  6  0  0  0
 30 32  1  0  0  0  0
 30 33  1  0  0  0  0
 33 34  1  0  0  0  0
M  CHG  4   4   1  15   1  18   1  28   1
M  END
>  <CHROM.1>
159.03660171,-149.57167700,-170.02413158,-170.70013038,67.31002724,-46.41737728
-64.20899605,36.93485102,67.30915736,-166.70364405,-96.16361127,162.95749297
-173.83688692,161.84852024,-72.87145009,-11.33069279,7.87401371,20.52248714
-0.32508275,1.18484719,-1.16681670

>  <Name>
1mwl

>  <RI>
0

>  <Rbt.Current_Directory>
/home/itssahil/PROJECTS/Mol_Feturizer/New_Systems/rnas/1mwl

>  <Rbt.Executable>
rbdock ($Id: //depot/dev/client3/rdock/2013.1/src/exe/rbdock.cxx#4 $)

>  <Rbt.Library>
libRbt.so (2013.1, Build901 2013/11/27)

>  <Rbt.Parameter_File>
/export/apps/rDock/src/rDock_2013.1_src/data/scripts/dock_solv.prm

>  <Rbt.Receptor>
prm/blind_docking_100.prm

>  <SCORE>
-17.4459

>  <SCORE.INTER>
-23.8043

>  <SCORE.INTER.CONST>
1

>  <SCORE.INTER.POLAR>
-2.95362

>  <SCORE.INTER.ROT>
6

>  <SCORE.INTER.SOLV>
18.7678

>  <SCORE.INTER.VDW>
-19.8801

>  <SCORE.INTER.norm>
-0.700125

>  <SCORE.INTRA>
-3.36885

>  <SCORE.INTRA.DIHEDRAL>
-24.8682

>  <SCORE.INTRA.DIHEDRAL.0>
42.0816

>  <SCORE.INTRA.POLAR>
0.149443

>  <SCORE.INTRA.POLAR.0>
-0.254682

>  <SCORE.INTRA.REPUL>
0

>  <SCORE.INTRA.REPUL.0>
0

>  <SCORE.INTRA.SOLV>
-0.324455

>  <SCORE.INTRA.SOLV.lig_0>
-109.803

>  <SCORE.INTRA.VDW>
8.71937

>  <SCORE.INTRA.VDW.0>
0.32176

>  <SCORE.INTRA.norm>
-0.0990838

>  <SCORE.RESTR>
9.72721

>  <SCORE.RESTR.CAVITY>
9.72721

>  <SCORE.RESTR.norm>
0.286094

>  <SCORE.SYSTEM>
0

>  <SCORE.SYSTEM.CONST>
0

>  <SCORE.SYSTEM.DIHEDRAL>
0

>  <SCORE.SYSTEM.SOLV>
0

>  <SCORE.SYSTEM.norm>
0

>  <SCORE.heavy>
34

>  <SCORE.norm>
-0.513115

>  <RMSD>
5.437

$$$$
1mwl
 OpenBabel11021811403D
libRbt.so/2013.1/901 2013/11/27
 34 36  0  0  0  0  0  0  0  0999 V2000
   -7.5058    8.3156   23.1714 C   0  0  2  0  0  0  0  0  0  0  0  0
   -7.7903    7.9409   21.8572 O   0  0  0  0  0  0  0  0  0  0  0  0
   -5.9932    8.6689   23.2376 C   0  0  2  0  0  0  0  0  0  0  0  0
   -5.6861    9.7531   22.2997 N   0  3  0  0  0  0  0  0  0  0  0  0
   -5.1228    7.4090   22.9570 C   0  0  1  0  0  0  0  0  0  0  0  0
   -3.8012    7.7039   23.0382 O   0  0  0  0  0  0  0  0  0  0  0  0
   -5.5088    6.2964   23.9868 C   0  0  2  0  0  0  0  0  0  0  0  0
   -4.7123    5.1144   23.7618 O   0  0  0  0  0  0  0  0  0  0  0  0
   -7.0371    5.9895   23.8314 C   0  0  2  0  0  0  0  0  0  0  0  0
   -7.8330    7.2159   24.0589 O   0  0  0  0  0  0  0  0  0  0  0  0
   -7.5777    4.9274   24.7955 C   0  0  2  0  0  0  0  0  0  0  0  0
   -6.5435    4.0888   25.1962 O   0  0  0  0  0  0  0  0  0  0  0  0
   -8.6527    4.0185   24.1720 C   0  0  0  0  0  0  0  0  0  0  0  0
  -11.2474    7.5214   19.3808 C   0  0  2  0  0  0  0  0  0  0  0  0
  -12.5864    7.0972   18.8986 N   0  3  0  0  0  0  0  0  0  0  0  0
  -10.3077    6.2908   19.5499 C   0  0  0  0  0  0  0  0  0  0  0  0
   -8.8998    6.7483   20.0779 C   0  0  2  0  0  0  0  0  0  0  0  0
   -8.0105    5.5379   20.2225 N   0  3  0  0  0  0  0  0  0  0  0  0
   -9.0772    7.5034   21.4398 C   0  0  2  0  0  0  0  0  0  0  0  0
  -10.0077    8.7241   21.2372 C   0  0  2  0  0  0  0  0  0  0  0  0
  -10.1867    9.3738   22.4725 O   0  0  0  0  0  0  0  0  0  0  0  0
  -11.3977    8.2541   20.7311 C   0  0  1  0  0  0  0  0  0  0  0  0
  -12.2342    9.3880   20.5549 O   0  0  0  0  0  0  0  0  0  0  0  0
  -12.4052   10.2700   21.6298 C   0  0  2  0  0  0  0  0  0  0  0  0
  -13.9018   10.6277   21.7003 C   0  0  2  0  0  0  0  0  0  0  0  0
  -14.6456    9.4505   21.9317 O   0  0  0  0  0  0  0  0  0  0  0  0
  -14.3320   11.3027   20.3534 C   0  0  1  0  0  0  0  0  0  0  0  0
  -15.7732   11.6525   20.3287 N   0  3  0  0  0  0  0  0  0  0  0  0
  -16.1433   12.4470   21.5278 C   0  0  0  0  0  0  0  0  0  0  0  0
  -13.4654   12.5882   20.1219 C   0  0  2  0  0  0  0  0  0  0  0  0
  -13.6686   13.5171   21.2033 O   0  0  0  0  0  0  0  0  0  0  0  0
  -13.8170   13.2684   18.8887 C   0  0  0  0  0  0  0  0  0  0  0  0
  -11.9492   12.2224   20.1423 C   0  0  0  0  0  0  0  0  0  0  0  0
  -11.6026   11.4836   21.4004 O   0  0  0  0  0  0  0  0  0  0  0  0
  1  2  1  6  0  0  0
  1  3  1  0  0  0  0
  1 10  1  0  0  0  0
  3  4  1  6  0  0  0
  3  5  1  0  0  0  0
  5  6  1  1  0  0  0
  5  7  1  0  0  0  0
  7  8  1  6  0  0  0
  7  9  1  0  0  0  0
  9 10  1  1  0  0  0
  9 11  1  0  0  0  0
 11 12  1  6  0  0  0
 11 13  1  0  0  0  0
 14 15  1  1  0  0  0
 14 16  1  0  0  0  0
 14 22  1  0  0  0  0
 16 17  1  0  0  0  0
 17 18  1  1  0  0  0
 17 19  1  0  0  0  0
 19  2  1  6  0  0  0
 19 20  1  0  0  0  0
 20 21  1  1  0  0  0
 20 22  1  0  0  0  0
 22 23  1  6  0  0  0
 24 23  1  6  0  0  0
 24 25  1  0  0  0  0
 24 34  1  0  0  0  0
 25 26  1  6  0  0  0
 25 27  1  0  0  0  0
 27 28  1  1  0  0  0
 27 30  1  0  0  0  0
 28 29  1  0  0  0  0
 30 31  1  1  0  0  0
 30 32  1  0  0  0  0
 30 33  1  0  0  0  0
 33 34  1  0  0  0  0
M  CHG  4   4   1  15   1  18   1  28   1
M  END
>  <CHROM.1>
177.65167053,-161.87881719,-172.05127436,60.79799312,-171.82807363,-24.81383347
90.35121578,-175.37344697,67.37338502,-67.56328924,-174.13432257,-136.59571491
-58.78843945,172.07383671,68.04216480,-9.96872053,8.59569435,21.78540806
-0.56583072,-0.36070163,0.00849667

>  <Name>
1mwl

>  <RI>
0

>  <Rbt.Current_Directory>
/home/itssahil/PROJECTS/Mol_Feturizer/New_Systems/rnas/1mwl

>  <Rbt.Executable>
rbdock ($Id: //depot/dev/client3/rdock/2013.1/src/exe/rbdock.cxx#4 $)

>  <Rbt.Library>
libRbt.so (2013.1, Build901 2013/11/27)

>  <Rbt.Parameter_File>
/export/apps/rDock/src/rDock_2013.1_src/data/scripts/dock_solv.prm

>  <Rbt.Receptor>
prm/blind_docking_100.prm

>  <SCORE>
28.6399

>  <SCORE.INTER>
34.0565

>  <SCORE.INTER.CONST>
1

>  <SCORE.INTER.POLAR>
-1.71045

>  <SCORE.INTER.ROT>
6

>  <SCORE.INTER.SOLV>
27.9252

>  <SCORE.INTER.VDW>
11.4974

>  <SCORE.INTER.norm>
1.00166

>  <SCORE.INTRA>
-14.0155

>  <SCORE.INTRA.DIHEDRAL>
-25.7982

>  <SCORE.INTRA.DIHEDRAL.0>
42.0816

>  <SCORE.INTRA.POLAR>
-0.313294

>  <SCORE.INTRA.POLAR.0>
-0.254682

>  <SCORE.INTRA.REPUL>
0

>  <SCORE.INTRA.REPUL.0>
0

>  <SCORE.INTRA.SOLV>
-3.98669

>  <SCORE.INTRA.SOLV.lig_0>
-109.803

>  <SCORE.INTRA.VDW>
1.94215

>  <SCORE.INTRA.VDW.0>
0.32176

>  <SCORE.INTRA.norm>
-0.41222

>  <SCORE.RESTR>
8.59891

>  <SCORE.RESTR.CAVITY>
8.59891

>  <SCORE.RESTR.norm>
0.252909

>  <SCORE.SYSTEM>
0

>  <SCORE.SYSTEM.CONST>
0

>  <SCORE.SYSTEM.DIHEDRAL>
0

>  <SCORE.SYSTEM.SOLV>
0

>  <SCORE.SYSTEM.norm>
0

>  <SCORE.heavy>
34

>  <SCORE.norm>
0.84235

>  <RMSD>
5.551

$$$$
1mwl
 OpenBabel11021811403D
libRbt.so/2013.1/901 2013/11/27
 34 36  0  0  0  0  0  0  0  0999 V2000
   -7.6805    7.3236   23.6506 C   0  0  2  0  0  0  0  0  0  0  0  0
   -8.0109    6.3282   22.7294 O   0  0  0  0  0  0  0  0  0  0  0  0
   -6.5238    8.1611   23.0361 C   0  0  2  0  0  0  0  0  0  0  0  0
   -6.9446    8.7417   21.7572 N   0  3  0  0  0  0  0  0  0  0  0  0
   -5.2432    7.2911   22.8730 C   0  0  1  0  0  0  0  0  0  0  0  0
   -4.2215    8.0220   22.3609 O   0  0  0  0  0  0  0  0  0  0  0  0
   -4.8595    6.7013   24.2703 C   0  0  2  0  0  0  0  0  0  0  0  0
   -3.6678    5.8953   24.1582 O   0  0  0  0  0  0  0  0  0  0  0  0
   -6.0687    5.8568   24.7979 C   0  0  2  0  0  0  0  0  0  0  0  0
   -7.2800    6.7008   24.8979 O   0  0  0  0  0  0  0  0  0  0  0  0
   -5.8549    5.2265   26.1788 C   0  0  2  0  0  0  0  0  0  0  0  0
   -6.8811    4.3276   26.4474 O   0  0  0  0  0  0  0  0  0  0  0  0
   -5.8640    6.2479   27.3309 C   0  0  0  0  0  0  0  0  0  0  0  0
  -10.7346    6.7648   19.4660 C   0  0  2  0  0  0  0  0  0  0  0  0
  -11.9936    6.7680   18.6783 N   0  3  0  0  0  0  0  0  0  0  0  0
  -10.3950    5.3258   19.9555 C   0  0  0  0  0  0  0  0  0  0  0  0
   -9.0716    5.3363   20.8032 C   0  0  2  0  0  0  0  0  0  0  0  0
   -8.7641    3.9298   21.2546 N   0  3  0  0  0  0  0  0  0  0  0  0
   -9.2422    6.3110   22.0187 C   0  0  2  0  0  0  0  0  0  0  0  0
   -9.5700    7.7324   21.4999 C   0  0  2  0  0  0  0  0  0  0  0  0
   -9.7545    8.5904   22.5999 O   0  0  0  0  0  0  0  0  0  0  0  0
  -10.8870    7.7075   20.6788 C   0  0  1  0  0  0  0  0  0  0  0  0
  -11.1691    9.0199   20.2158 O   0  0  0  0  0  0  0  0  0  0  0  0
  -11.3017   10.0498   21.1562 C   0  0  2  0  0  0  0  0  0  0  0  0
  -12.5607    9.7526   21.9925 C   0  0  2  0  0  0  0  0  0  0  0  0
  -12.3888    8.5212   22.6609 O   0  0  0  0  0  0  0  0  0  0  0  0
  -13.8066    9.7021   21.0437 C   0  0  1  0  0  0  0  0  0  0  0  0
  -15.0613    9.3900   21.7706 N   0  3  0  0  0  0  0  0  0  0  0  0
  -15.1778   10.2160   22.9996 C   0  0  0  0  0  0  0  0  0  0  0  0
  -13.9454   11.0764   20.3026 C   0  0  2  0  0  0  0  0  0  0  0  0
  -14.1236   12.1348   21.2625 O   0  0  0  0  0  0  0  0  0  0  0  0
  -15.0878   11.1005   19.4073 C   0  0  0  0  0  0  0  0  0  0  0  0
  -12.6290   11.4048   19.5330 C   0  0  0  0  0  0  0  0  0  0  0  0
  -11.4488   11.3371   20.4557 O   0  0  0  0  0  0  0  0  0  0  0  0
  1  2  1  6  0  0  0
  1  3  1  0  0  0  0
  1 10  1  0  0  0  0
  3  4  1  6  0  0  0
  3  5  1  0  0  0  0
  5  6  1  1  0  0  0
  5  7  1  0  0  0  0
  7  8  1  6  0  0  0
  7  9  1  0  0  0  0
  9 10  1  1  0  0  0
  9 11  1  0  0  0  0
 11 12  1  1  0  0  0
 11 13  1  0  0  0  0
 14 15  1  1  0  0  0
 14 16  1  0  0  0  0
 14 22  1  0  0  0  0
 16 17  1  0  0  0  0
 17 18  1  1  0  0  0
 17 19  1  0  0  0  0
 19  2  1  6  0  0  0
 19 20  1  0  0  0  0
 20 21  1  1  0  0  0
 20 22  1  0  0  0  0
 22 23  1  6  0  0  0
 24 23  1  6  0  0  0
 24 25  1  0  0  0  0
 24 34  1  0  0  0  0
 25 26  1  6  0  0  0
 25 27  1  0  0  0  0
 27 28  1  1  0  0  0
 27 30  1  0  0  0  0
 28 29  1  0  0  0  0
 30 31  1  1  0  0  0
 30 32  1  0  0  0  0
 30 33  1  0  0  0  0
 33 34  1  0  0  0  0
M  CHG  4   4   1  15   1  18   1  28   1
M  END
>  <CHROM.1>
-111.26757971,163.09080503,-173.42612775,-59.10068658,71.76055448,-170.04385095
-167.56121318,-165.48426511,74.20462624,150.03529911,-177.88165131,-66.27974846
-172.99427975,166.70582844,62.13811823,-9.64643093,7.90772287,22.19587777
0.04770224,-0.61427447,0.91069694

>  <Name>
1mwl

>  <RI>
0

>  <Rbt.Current_Directory>
/home/itssahil/PROJECTS/Mol_Feturizer/New_Systems/rnas/1mwl

>  <Rbt.Executable>
rbdock ($Id: //depot/dev/client3/rdock/2013.1/src/exe/rbdock.cxx#4 $)

>  <Rbt.Library>
libRbt.so (2013.1, Build901 2013/11/27)

>  <Rbt.Parameter_File>
/export/apps/rDock/src/rDock_2013.1_src/data/scripts/dock_solv.prm

>  <Rbt.Receptor>
prm/blind_docking_100.prm

>  <SCORE>
25.9502

>  <SCORE.INTER>
20.3152

>  <SCORE.INTER.CONST>
1

>  <SCORE.INTER.POLAR>
-4.38081

>  <SCORE.INTER.ROT>
6

>  <SCORE.INTER.SOLV>
24.8259

>  <SCORE.INTER.VDW>
12.2709

>  <SCORE.INTER.norm>
0.597505

>  <SCORE.INTRA>
-3.045

>  <SCORE.INTRA.DIHEDRAL>
-26.486

>  <SCORE.INTRA.DIHEDRAL.0>
42.0816

>  <SCORE.INTRA.POLAR>
0.24992

>  <SCORE.INTRA.POLAR.0>
-0.254682

>  <SCORE.INTRA.REPUL>
0

>  <SCORE.INTRA.REPUL.0>
0

>  <SCORE.INTRA.SOLV>
0.0692864

>  <SCORE.INTRA.SOLV.lig_0>
-109.803

>  <SCORE.INTRA.VDW>
9.31366

>  <SCORE.INTRA.VDW.0>
0.32176

>  <SCORE.INTRA.norm>
-0.0895587

>  <SCORE.RESTR>
8.67999

>  <SCORE.RESTR.CAVITY>
8.67999

>  <SCORE.RESTR.norm>
0.255294

>  <SCORE.SYSTEM>
0

>  <SCORE.SYSTEM.CONST>
0

>  <SCORE.SYSTEM.DIHEDRAL>
0

>  <SCORE.SYSTEM.SOLV>
0

>  <SCORE.SYSTEM.norm>
0

>  <SCORE.heavy>
34

>  <SCORE.norm>
0.76324

>  <RMSD>
5.574

$$$$
1mwl
 OpenBabel11021811403D
libRbt.so/2013.1/901 2013/11/27
 34 36  0  0  0  0  0  0  0  0999 V2000
   -5.8201    6.9966   22.8604 C   0  0  2  0  0  0  0  0  0  0  0  0
   -7.1916    7.2269   22.9816 O   0  0  0  0  0  0  0  0  0  0  0  0
   -5.3468    6.3054   24.1700 C   0  0  2  0  0  0  0  0  0  0  0  0
   -6.0784    5.0510   24.3722 N   0  3  0  0  0  0  0  0  0  0  0  0
   -5.5110    7.2632   25.3863 C   0  0  1  0  0  0  0  0  0  0  0  0
   -5.0760    6.6759   26.5291 O   0  0  0  0  0  0  0  0  0  0  0  0
   -4.7130    8.5775   25.0976 C   0  0  2  0  0  0  0  0  0  0  0  0
   -4.8352    9.4867   26.2114 O   0  0  0  0  0  0  0  0  0  0  0  0
   -5.2723    9.2146   23.7803 C   0  0  2  0  0  0  0  0  0  0  0  0
   -5.1435    8.2631   22.6546 O   0  0  0  0  0  0  0  0  0  0  0  0
   -4.5718   10.5076   23.3475 C   0  0  2  0  0  0  0  0  0  0  0  0
   -3.2018   10.3897   23.5537 O   0  0  0  0  0  0  0  0  0  0  0  0
   -5.0220   11.7481   24.1406 C   0  0  0  0  0  0  0  0  0  0  0  0
  -10.6413    7.3794   20.4645 C   0  0  2  0  0  0  0  0  0  0  0  0
  -11.5410    7.7237   19.3343 N   0  3  0  0  0  0  0  0  0  0  0  0
  -10.2634    8.6542   21.2756 C   0  0  0  0  0  0  0  0  0  0  0  0
   -9.2968    8.2818   22.4576 C   0  0  2  0  0  0  0  0  0  0  0  0
   -8.9566    9.5331   23.2291 N   0  3  0  0  0  0  0  0  0  0  0  0
   -8.0144    7.5900   21.8803 C   0  0  2  0  0  0  0  0  0  0  0  0
   -8.4219    6.3236   21.0881 C   0  0  2  0  0  0  0  0  0  0  0  0
   -7.2665    5.7305   20.5465 O   0  0  0  0  0  0  0  0  0  0  0  0
   -9.3629    6.7105   19.9159 C   0  0  1  0  0  0  0  0  0  0  0  0
   -9.7213    5.5359   19.2028 O   0  0  0  0  0  0  0  0  0  0  0  0
   -8.7950    4.4878   19.1262 C   0  0  2  0  0  0  0  0  0  0  0  0
   -9.1541    3.6434   17.8888 C   0  0  2  0  0  0  0  0  0  0  0  0
   -9.0511    4.4507   16.7355 O   0  0  0  0  0  0  0  0  0  0  0  0
  -10.6101    3.0879   18.0518 C   0  0  1  0  0  0  0  0  0  0  0  0
  -11.0452    2.2846   16.8832 N   0  3  0  0  0  0  0  0  0  0  0  0
  -11.5498    3.1639   15.7978 C   0  0  0  0  0  0  0  0  0  0  0  0
  -10.6875    2.2212   19.3556 C   0  0  2  0  0  0  0  0  0  0  0  0
   -9.7669    1.1177   19.2656 O   0  0  0  0  0  0  0  0  0  0  0  0
  -12.0135    1.6690   19.5656 C   0  0  0  0  0  0  0  0  0  0  0  0
  -10.2353    3.0651   20.5870 C   0  0  0  0  0  0  0  0  0  0  0  0
   -8.8827    3.6660   20.3454 O   0  0  0  0  0  0  0  0  0  0  0  0
  1  2  1  1  0  0  0
  1  3  1  0  0  0  0
  1 10  1  0  0  0  0
  3  4  1  1  0  0  0
  3  5  1  0  0  0  0
  5  6  1  1  0  0  0
  5  7  1  0  0  0  0
  7  8  1  1  0  0  0
  7  9  1  0  0  0  0
  9 10  1  6  0  0  0
  9 11  1  0  0  0  0
 11 12  1  1  0  0  0
 11 13  1  0  0  0  0
 14 15  1  6  0  0  0
 14 16  1  0  0  0  0
 14 22  1  0  0  0  0
 16 17  1  0  0  0  0
 17 18  1  6  0  0  0
 17 19  1  0  0  0  0
 19  2  1  1  0  0  0
 19 20  1  0  0  0  0
 20 21  1  6  0  0  0
 20 22  1  0  0  0  0
 22 23  1  1  0  0  0
 24 23  1  1  0  0  0
 24 25  1  0  0  0  0
 24 34  1  0  0  0  0
 25 26  1  6  0  0  0
 25 27  1  0  0  0  0
 27 28  1  6  0  0  0
 27 30  1  0  0  0  0
 28 29  1  0  0  0  0
 30 31  1  6  0  0  0
 30 32  1  0  0  0  0
 30 33  1  0  0  0  0
 33 34  1  0  0  0  0
M  CHG  4   4   1  15   1  18   1  28   1
M  END
>  <CHROM.1>
-166.70843885,-158.55849546,81.18550480,-174.13513572,175.18840541,40.40599298
72.02573565,64.64959157,20.78147761,74.45734398,-152.30712407,-157.20426998
169.00998228,37.04188508,65.78815726,-8.00945402,6.29135321,21.42280947,-0.64319547
0.83745016,-3.09516992

>  <Name>
1mwl

>  <RI>
0

>  <Rbt.Current_Directory>
/home/itssahil/PROJECTS/Mol_Feturizer/New_Systems/rnas/1mwl

>  <Rbt.Executable>
rbdock ($Id: //depot/dev/client3/rdock/2013.1/src/exe/rbdock.cxx#4 $)

>  <Rbt.Library>
libRbt.so (2013.1, Build901 2013/11/27)

>  <Rbt.Parameter_File>
/export/apps/rDock/src/rDock_2013.1_src/data/scripts/dock_solv.prm

>  <Rbt.Receptor>
prm/pocket_docking_7.prm

>  <SCORE>
-33.23

>  <SCORE.INTER>
-23.5108

>  <SCORE.INTER.CONST>
1

>  <SCORE.INTER.POLAR>
-3.98828

>  <SCORE.INTER.ROT>
6

>  <SCORE.INTER.SOLV>
21.9729

>  <SCORE.INTER.VDW>
-17.3039

>  <SCORE.INTER.norm>
-0.691494

>  <SCORE.INTRA>
-9.71926

>  <SCORE.INTRA.DIHEDRAL>
-24.8316

>  <SCORE.INTRA.DIHEDRAL.0>
42.0816

>  <SCORE.INTRA.POLAR>
0.151765

>  <SCORE.INTRA.POLAR.0>
-0.254682

>  <SCORE.INTRA.REPUL>
0

>  <SCORE.INTRA.REPUL.0>
0

>  <SCORE.INTRA.SOLV>
-2.52402

>  <SCORE.INTRA.SOLV.lig_0>
-109.803

>  <SCORE.INTRA.VDW>
3.44253

>  <SCORE.INTRA.VDW.0>
0.32176

>  <SCORE.INTRA.norm>
-0.28586

>  <SCORE.RESTR>
0

>  <SCORE.RESTR.CAVITY>
0

>  <SCORE.RESTR.norm>
0

>  <SCORE.SYSTEM>
0

>  <SCORE.SYSTEM.CONST>
0

>  <SCORE.SYSTEM.DIHEDRAL>
0

>  <SCORE.SYSTEM.SOLV>
0

>  <SCORE.SYSTEM.norm>
0

>  <SCORE.heavy>
34

>  <SCORE.norm>
-0.977354

>  <RMSD>
5.609

$$$$
1mwl
 OpenBabel11021811403D
libRbt.so/2013.1/901 2013/11/27
 34 36  0  0  0  0  0  0  0  0999 V2000
  -11.7011    4.7778   22.6310 C   0  0  2  0  0  0  0  0  0  0  0  0
  -12.6369    5.4632   21.8542 O   0  0  0  0  0  0  0  0  0  0  0  0
  -10.3692    4.7405   21.8299 C   0  0  2  0  0  0  0  0  0  0  0  0
   -9.9172    6.1041   21.5372 N   0  3  0  0  0  0  0  0  0  0  0  0
  -10.5354    3.9034   20.5279 C   0  0  1  0  0  0  0  0  0  0  0  0
   -9.3699    3.8448   19.8362 O   0  0  0  0  0  0  0  0  0  0  0  0
  -11.0246    2.4690   20.9160 C   0  0  2  0  0  0  0  0  0  0  0  0
  -11.1802    1.6604   19.7310 O   0  0  0  0  0  0  0  0  0  0  0  0
  -12.3778    2.6031   21.6937 C   0  0  2  0  0  0  0  0  0  0  0  0
  -12.1964    3.4412   22.8995 O   0  0  0  0  0  0  0  0  0  0  0  0
  -12.9787    1.2744   22.1661 C   0  0  2  0  0  0  0  0  0  0  0  0
  -11.9689    0.4485   22.6473 O   0  0  0  0  0  0  0  0  0  0  0  0
  -13.6852    0.4852   21.0488 C   0  0  0  0  0  0  0  0  0  0  0  0
  -16.4442    7.2901   22.5069 C   0  0  2  0  0  0  0  0  0  0  0  0
  -17.4986    8.1831   23.0511 N   0  3  0  0  0  0  0  0  0  0  0  0
  -15.8614    6.3793   23.6279 C   0  0  0  0  0  0  0  0  0  0  0  0
  -14.7343    5.4515   23.0458 C   0  0  2  0  0  0  0  0  0  0  0  0
  -14.1966    4.5762   24.1510 N   0  3  0  0  0  0  0  0  0  0  0  0
  -13.6096    6.3388   22.4099 C   0  0  2  0  0  0  0  0  0  0  0  0
  -14.2178    7.2247   21.2953 C   0  0  2  0  0  0  0  0  0  0  0  0
  -13.2063    8.0406   20.7555 O   0  0  0  0  0  0  0  0  0  0  0  0
  -15.3173    8.1453   21.8893 C   0  0  1  0  0  0  0  0  0  0  0  0
  -15.8585    8.9493   20.8515 O   0  0  0  0  0  0  0  0  0  0  0  0
  -15.1332   10.0678   20.4208 C   0  0  2  0  0  0  0  0  0  0  0  0
  -16.1462   11.1912   20.1295 C   0  0  2  0  0  0  0  0  0  0  0  0
  -16.8386   11.5059   21.3186 O   0  0  0  0  0  0  0  0  0  0  0  0
  -17.1395   10.7105   19.0171 C   0  0  1  0  0  0  0  0  0  0  0  0
  -18.1700   11.7285   18.6981 N   0  3  0  0  0  0  0  0  0  0  0  0
  -19.5297   11.1321   18.7371 C   0  0  0  0  0  0  0  0  0  0  0  0
  -16.3292   10.3465   17.7256 C   0  0  2  0  0  0  0  0  0  0  0  0
  -15.6137   11.5036   17.2538 O   0  0  0  0  0  0  0  0  0  0  0  0
  -17.1923    9.8964   16.6487 C   0  0  0  0  0  0  0  0  0  0  0  0
  -15.2479    9.2722   18.0572 C   0  0  0  0  0  0  0  0  0  0  0  0
  -14.3867    9.7265   19.1977 O   0  0  0  0  0  0  0  0  0  0  0  0
  1  2  1  6  0  0  0
  1  3  1  0  0  0  0
  1 10  1  0  0  0  0
  3  4  1  6  0  0  0
  3  5  1  0  0  0  0
  5  6  1  1  0  0  0
  5  7  1  0  0  0  0
  7  8  1  6  0  0  0
  7  9  1  0  0  0  0
  9 10  1  1  0  0  0
  9 11  1  0  0  0  0
 11 12  1  6  0  0  0
 11 13  1  0  0  0  0
 14 15  1  1  0  0  0
 14 16  1  0  0  0  0
 14 22  1  0  0  0  0
 16 17  1  0  0  0  0
 17 18  1  1  0  0  0
 17 19  1  0  0  0  0
 19  2  1  6  0  0  0
 19 20  1  0  0  0  0
 20 21  1  1  0  0  0
 20 22  1  0  0  0  0
 22 23  1  6  0  0  0
 24 23  1  6  0  0  0
 24 25  1  0  0  0  0
 24 34  1  0  0  0  0
 25 26  1  1  0  0  0
 25 27  1  0  0  0  0
 27 28  1  6  0  0  0
 27 30  1  0  0  0  0
 28 29  1  0  0  0  0
 30 31  1  6  0  0  0
 30 32  1  0  0  0  0
 30 33  1  0  0  0  0
 33 34  1  0  0  0  0
M  CHG  4   4   1  15   1  18   1  28   1
M  END
>  <CHROM.1>
-142.99024423,-76.54994427,40.79920176,77.93027440,171.62775828,40.87111494
53.75222437,-63.75254798,50.21260355,-62.27795124,161.47819743,-141.80818713
175.11924693,-9.47327458,-164.07155990,-14.17509182,6.73484065,20.88313340
0.84623282,-0.64329184,2.34679789

>  <Name>
1mwl

>  <RI>
0

>  <Rbt.Current_Directory>
/home/itssahil/PROJECTS/Mol_Feturizer/New_Systems/rnas/1mwl

>  <Rbt.Executable>
rbdock ($Id: //depot/dev/client3/rdock/2013.1/src/exe/rbdock.cxx#4 $)

>  <Rbt.Library>
libRbt.so (2013.1, Build901 2013/11/27)

>  <Rbt.Parameter_File>
/export/apps/rDock/src/rDock_2013.1_src/data/scripts/dock_solv.prm

>  <Rbt.Receptor>
prm/pocket_docking_8.prm

>  <SCORE>
-35.018

>  <SCORE.INTER>
-20.9485

>  <SCORE.INTER.CONST>
1

>  <SCORE.INTER.POLAR>
-3.79632

>  <SCORE.INTER.ROT>
6

>  <SCORE.INTER.SOLV>
7.88287

>  <SCORE.INTER.VDW>
-11.5389

>  <SCORE.INTER.norm>
-0.616133

>  <SCORE.INTRA>
-14.0695

>  <SCORE.INTRA.DIHEDRAL>
-20.0223

>  <SCORE.INTRA.DIHEDRAL.0>
42.0816

>  <SCORE.INTRA.POLAR>
-0.916924

>  <SCORE.INTRA.POLAR.0>
-0.254682

>  <SCORE.INTRA.REPUL>
0

>  <SCORE.INTRA.REPUL.0>
0

>  <SCORE.INTRA.SOLV>
0.650598

>  <SCORE.INTRA.SOLV.lig_0>
-109.803

>  <SCORE.INTRA.VDW>
-1.26612

>  <SCORE.INTRA.VDW.0>
0.32176

>  <SCORE.INTRA.norm>
-0.413809

>  <SCORE.RESTR>
0

>  <SCORE.RESTR.CAVITY>
0

>  <SCORE.RESTR.norm>
0

>  <SCORE.SYSTEM>
0

>  <SCORE.SYSTEM.CONST>
0

>  <SCORE.SYSTEM.DIHEDRAL>
0

>  <SCORE.SYSTEM.SOLV>
0

>  <SCORE.SYSTEM.norm>
0

>  <SCORE.heavy>
34

>  <SCORE.norm>
-1.02994

>  <RMSD>
5.707

$$$$
1mwl
 OpenBabel11021811403D
libRbt.so/2013.1/901 2013/11/27
 34 36  0  0  0  0  0  0  0  0999 V2000
   -7.9835    5.0566   20.1336 C   0  0  2  0  0  0  0  0  0  0  0  0
   -8.8476    6.1102   19.8301 O   0  0  0  0  0  0  0  0  0  0  0  0
   -8.4249    3.8328   19.2825 C   0  0  2  0  0  0  0  0  0  0  0  0
   -8.3739    4.1649   17.8554 N   0  3  0  0  0  0  0  0  0  0  0  0
   -9.8443    3.3535   19.7056 C   0  0  1  0  0  0  0  0  0  0  0  0
  -10.2260    2.2696   18.9847 O   0  0  0  0  0  0  0  0  0  0  0  0
   -9.8248    3.0254   21.2352 C   0  0  2  0  0  0  0  0  0  0  0  0
  -11.1253    2.5674   21.6609 O   0  0  0  0  0  0  0  0  0  0  0  0
   -9.3956    4.3169   22.0110 C   0  0  2  0  0  0  0  0  0  0  0  0
   -8.0640    4.7721   21.5536 O   0  0  0  0  0  0  0  0  0  0  0  0
   -9.3061    4.1494   23.5321 C   0  0  2  0  0  0  0  0  0  0  0  0
  -10.4108    4.7414   24.1342 O   0  0  0  0  0  0  0  0  0  0  0  0
   -8.0664    4.8175   24.1542 C   0  0  0  0  0  0  0  0  0  0  0  0
   -9.2992    8.9311   23.0078 C   0  0  2  0  0  0  0  0  0  0  0  0
   -9.2862   10.2096   23.7631 N   0  3  0  0  0  0  0  0  0  0  0  0
   -7.8571    8.5325   22.5749 C   0  0  0  0  0  0  0  0  0  0  0  0
   -7.8840    7.1884   21.7608 C   0  0  2  0  0  0  0  0  0  0  0  0
   -6.4745    6.8241   21.3642 N   0  3  0  0  0  0  0  0  0  0  0  0
   -8.8127    7.3585   20.5099 C   0  0  2  0  0  0  0  0  0  0  0  0
  -10.2386    7.7454   20.9728 C   0  0  2  0  0  0  0  0  0  0  0  0
  -11.0539    7.9285   19.8407 O   0  0  0  0  0  0  0  0  0  0  0  0
  -10.1966    9.0819   21.7610 C   0  0  1  0  0  0  0  0  0  0  0  0
  -11.5133    9.4181   22.1729 O   0  0  0  0  0  0  0  0  0  0  0  0
  -12.5708    9.2105   21.2778 C   0  0  2  0  0  0  0  0  0  0  0  0
  -12.6575   10.4516   20.3694 C   0  0  2  0  0  0  0  0  0  0  0  0
  -11.4490   10.5816   19.6517 O   0  0  0  0  0  0  0  0  0  0  0  0
  -12.9187   11.7179   21.2545 C   0  0  1  0  0  0  0  0  0  0  0  0
  -12.9863   12.9652   20.4548 N   0  3  0  0  0  0  0  0  0  0  0  0
  -12.0299   13.9763   20.9734 C   0  0  0  0  0  0  0  0  0  0  0  0
  -14.2531   11.5214   22.0532 C   0  0  2  0  0  0  0  0  0  0  0  0
  -15.3510   11.3488   21.1378 O   0  0  0  0  0  0  0  0  0  0  0  0
  -14.5594   12.6649   22.8934 C   0  0  0  0  0  0  0  0  0  0  0  0
  -14.1828   10.2128   22.8993 C   0  0  0  0  0  0  0  0  0  0  0  0
  -13.8252    9.0433   22.0314 O   0  0  0  0  0  0  0  0  0  0  0  0
  1  2  1  1  0  0  0
  1  3  1  0  0  0  0
  1 10  1  0  0  0  0
  3  4  1  6  0  0  0
  3  5  1  0  0  0  0
  5  6  1  6  0  0  0
  5  7  1  0  0  0  0
  7  8  1  1  0  0  0
  7  9  1  0  0  0  0
  9 10  1  6  0  0  0
  9 11  1  0  0  0  0
 11 12  1  1  0  0  0
 11 13  1  0  0  0  0
 14 15  1  6  0  0  0
 14 16  1  0  0  0  0
 14 22  1  0  0  0  0
 16 17  1  0  0  0  0
 17 18  1  6  0  0  0
 17 19  1  0  0  0  0
 19  2  1  1  0  0  0
 19 20  1  0  0  0  0
 20 21  1  6  0  0  0
 20 22  1  0  0  0  0
 22 23  1  1  0  0  0
 24 23  1  1  0  0  0
 24 25  1  0  0  0  0
 24 34  1  0  0  0  0
 25 26  1  1  0  0  0
 25 27  1  0  0  0  0
 27 28  1  6  0  0  0
 27 30  1  0  0  0  0
 28 29  1  0  0  0  0
 30 31  1  6  0  0  0
 30 32  1  0  0  0  0
 30 33  1  0  0  0  0
 33 34  1  0  0  0  0
M  CHG  4   4   1  15   1  18   1  28   1
M  END
>  <CHROM.1>
174.42877880,-11.02895543,-172.54231128,-61.01039923,-57.46069991,-104.01047441
-38.36887818,-1.02951909,-45.45611401,-65.58559599,-160.87099947,-85.07423764
168.61458388,-5.71970975,62.04541701,-10.57759918,7.64927691,21.34868272
-0.99584588,-0.42635746,0.35118173

>  <Name>
1mwl

>  <RI>
0

>  <Rbt.Current_Directory>
/home/itssahil/PROJECTS/Mol_Feturizer/New_Systems/rnas/1mwl

>  <Rbt.Executable>
rbdock ($Id: //depot/dev/client3/rdock/2013.1/src/exe/rbdock.cxx#4 $)

>  <Rbt.Library>
libRbt.so (2013.1, Build901 2013/11/27)

>  <Rbt.Parameter_File>
/export/apps/rDock/src/rDock_2013.1_src/data/scripts/dock_solv.prm

>  <Rbt.Receptor>
prm/blind_docking_100.prm

>  <SCORE>
9.69481

>  <SCORE.INTER>
-7.35104

>  <SCORE.INTER.CONST>
1

>  <SCORE.INTER.POLAR>
-4.03137

>  <SCORE.INTER.ROT>
6

>  <SCORE.INTER.SOLV>
34.7758

>  <SCORE.INTER.VDW>
-10.6547

>  <SCORE.INTER.norm>
-0.216207

>  <SCORE.INTRA>
10.0907

>  <SCORE.INTRA.DIHEDRAL>
-15.7913

>  <SCORE.INTRA.DIHEDRAL.0>
42.0816

>  <SCORE.INTRA.POLAR>
-0.177798

>  <SCORE.INTRA.POLAR.0>
-0.254682

>  <SCORE.INTRA.REPUL>
0

>  <SCORE.INTRA.REPUL.0>
0

>  <SCORE.INTRA.SOLV>
0.173305

>  <SCORE.INTRA.SOLV.lig_0>
-109.803

>  <SCORE.INTRA.VDW>
18.5042

>  <SCORE.INTRA.VDW.0>
0.32176

>  <SCORE.INTRA.norm>
0.296786

>  <SCORE.RESTR>
6.95513

>  <SCORE.RESTR.CAVITY>
6.95513

>  <SCORE.RESTR.norm>
0.204563

>  <SCORE.SYSTEM>
0

>  <SCORE.SYSTEM.CONST>
0

>  <SCORE.SYSTEM.DIHEDRAL>
0

>  <SCORE.SYSTEM.SOLV>
0

>  <SCORE.SYSTEM.norm>
0

>  <SCORE.heavy>
34

>  <SCORE.norm>
0.285142

>  <RMSD>
5.725

$$$$
1mwl
 OpenBabel11021811403D
libRbt.so/2013.1/901 2013/11/27
 34 36  0  0  0  0  0  0  0  0999 V2000
   -6.2011    8.5743   23.7227 C   0  0  2  0  0  0  0  0  0  0  0  0
   -6.7594    7.8752   22.6511 O   0  0  0  0  0  0  0  0  0  0  0  0
   -4.6632    8.6183   23.4991 C   0  0  2  0  0  0  0  0  0  0  0  0
   -4.3567    9.2723   22.2232 N   0  3  0  0  0  0  0  0  0  0  0  0
   -4.0580    7.1856   23.5650 C   0  0  1  0  0  0  0  0  0  0  0  0
   -2.7124    7.2185   23.3961 O   0  0  0  0  0  0  0  0  0  0  0  0
   -4.4301    6.5497   24.9451 C   0  0  2  0  0  0  0  0  0  0  0  0
   -3.8753    5.2213   25.0449 O   0  0  0  0  0  0  0  0  0  0  0  0
   -5.9913    6.5241   25.0713 C   0  0  2  0  0  0  0  0  0  0  0  0
   -6.5382    7.8944   24.9589 O   0  0  0  0  0  0  0  0  0  0  0  0
   -6.5171    5.9459   26.3900 C   0  0  2  0  0  0  0  0  0  0  0  0
   -5.9186    6.6011   27.4604 O   0  0  0  0  0  0  0  0  0  0  0  0
   -6.2082    4.4488   26.5736 C   0  0  0  0  0  0  0  0  0  0  0  0
  -10.6471    7.4189   20.9375 C   0  0  2  0  0  0  0  0  0  0  0  0
  -12.0934    7.1118   20.7985 N   0  3  0  0  0  0  0  0  0  0  0  0
   -9.8430    6.1336   21.2943 C   0  0  0  0  0  0  0  0  0  0  0  0
   -8.3170    6.4727   21.4572 C   0  0  2  0  0  0  0  0  0  0  0  0
   -7.5643    5.2088   21.7928 N   0  3  0  0  0  0  0  0  0  0  0  0
   -8.1442    7.5631   22.5696 C   0  0  2  0  0  0  0  0  0  0  0  0
   -8.9468    8.8292   22.1822 C   0  0  2  0  0  0  0  0  0  0  0  0
   -8.8117    9.7876   23.2036 O   0  0  0  0  0  0  0  0  0  0  0  0
  -10.4527    8.4807   22.0409 C   0  0  1  0  0  0  0  0  0  0  0  0
  -11.1688    9.6551   21.6883 O   0  0  0  0  0  0  0  0  0  0  0  0
  -11.0175   10.1710   20.3946 C   0  0  2  0  0  0  0  0  0  0  0  0
  -11.5013   11.6333   20.4209 C   0  0  2  0  0  0  0  0  0  0  0  0
  -10.6978   12.3675   21.3197 O   0  0  0  0  0  0  0  0  0  0  0  0
  -13.0046   11.6684   20.8612 C   0  0  1  0  0  0  0  0  0  0  0  0
  -13.5406   13.0491   20.9406 N   0  3  0  0  0  0  0  0  0  0  0  0
  -14.3608   13.2264   22.1661 C   0  0  0  0  0  0  0  0  0  0  0  0
  -13.8559   10.8210   19.8541 C   0  0  2  0  0  0  0  0  0  0  0  0
  -13.7377   11.3713   18.5287 O   0  0  0  0  0  0  0  0  0  0  0  0
  -15.2654   10.8152   20.2014 C   0  0  0  0  0  0  0  0  0  0  0  0
  -13.2975    9.3669   19.7724 C   0  0  0  0  0  0  0  0  0  0  0  0
  -11.8321    9.3827   19.4542 O   0  0  0  0  0  0  0  0  0  0  0  0
  1  2  1  6  0  0  0
  1  3  1  0  0  0  0
  1 10  1  0  0  0  0
  3  4  1  6  0  0  0
  3  5  1  0  0  0  0
  5  6  1  1  0  0  0
  5  7  1  0  0  0  0
  7  8  1  6  0  0  0
  7  9  1  0  0  0  0
  9 10  1  1  0  0  0
  9 11  1  0  0  0  0
 11 12  1  1  0  0  0
 11 13  1  0  0  0  0
 14 15  1  1  0  0  0
 14 16  1  0  0  0  0
 14 22  1  0  0  0  0
 16 17  1  0  0  0  0
 17 18  1  1  0  0  0
 17 19  1  0  0  0  0
 19  2  1  6  0  0  0
 19 20  1  0  0  0  0
 20 21  1  1  0  0  0
 20 22  1  0  0  0  0
 22 23  1  6  0  0  0
 24 23  1  1  0  0  0
 24 25  1  0  0  0  0
 24 34  1  0  0  0  0
 25 26  1  1  0  0  0
 25 27  1  0  0  0  0
 27 28  1  6  0  0  0
 27 30  1  0  0  0  0
 28 29  1  0  0  0  0
 30 31  1  6  0  0  0
 30 32  1  0  0  0  0
 30 33  1  0  0  0  0
 33 34  1  0  0  0  0
M  CHG  4   4   1  15   1  18   1  28   1
M  END
>  <CHROM.1>
175.68982218,-165.16541073,72.66570015,-63.08660756,162.92785569,52.97438571
74.56761702,133.84483433,-53.36195595,-57.46914156,-48.40438102,-161.83407779
177.59849836,-16.69609348,52.96018071,-8.98392284,8.61167100,22.40072761
-0.47364046,-0.47216848,-0.04153125

>  <Name>
1mwl

>  <RI>
0

>  <Rbt.Current_Directory>
/home/itssahil/PROJECTS/Mol_Feturizer/New_Systems/rnas/1mwl

>  <Rbt.Executable>
rbdock ($Id: //depot/dev/client3/rdock/2013.1/src/exe/rbdock.cxx#4 $)

>  <Rbt.Library>
libRbt.so (2013.1, Build901 2013/11/27)

>  <Rbt.Parameter_File>
/export/apps/rDock/src/rDock_2013.1_src/data/scripts/dock_solv.prm

>  <Rbt.Receptor>
prm/blind_docking_100.prm

>  <SCORE>
-5.27862

>  <SCORE.INTER>
-9.14257

>  <SCORE.INTER.CONST>
1

>  <SCORE.INTER.POLAR>
-3.74162

>  <SCORE.INTER.ROT>
6

>  <SCORE.INTER.SOLV>
27.5369

>  <SCORE.INTER.VDW>
-10.4019

>  <SCORE.INTER.norm>
-0.268899

>  <SCORE.INTRA>
-9.79988

>  <SCORE.INTRA.DIHEDRAL>
-29.3594

>  <SCORE.INTRA.DIHEDRAL.0>
42.0816

>  <SCORE.INTRA.POLAR>
0.210088

>  <SCORE.INTRA.POLAR.0>
-0.254682

>  <SCORE.INTRA.REPUL>
0

>  <SCORE.INTRA.REPUL.0>
0

>  <SCORE.INTRA.SOLV>
0.815292

>  <SCORE.INTRA.SOLV.lig_0>
-109.803

>  <SCORE.INTRA.VDW>
3.75786

>  <SCORE.INTRA.VDW.0>
0.32176

>  <SCORE.INTRA.norm>
-0.288232

>  <SCORE.RESTR>
13.6638

>  <SCORE.RESTR.CAVITY>
13.6638

>  <SCORE.RESTR.norm>
0.401877

>  <SCORE.SYSTEM>
0

>  <SCORE.SYSTEM.CONST>
0

>  <SCORE.SYSTEM.DIHEDRAL>
0

>  <SCORE.SYSTEM.SOLV>
0

>  <SCORE.SYSTEM.norm>
0

>  <SCORE.heavy>
34

>  <SCORE.norm>
-0.155254

>  <RMSD>
5.780

$$$$
1mwl
 OpenBabel11021811403D
libRbt.so/2013.1/901 2013/11/27
 34 36  0  0  0  0  0  0  0  0999 V2000
  -12.6822    3.3492   20.2440 C   0  0  2  0  0  0  0  0  0  0  0  0
  -12.8894    4.5769   19.6128 O   0  0  0  0  0  0  0  0  0  0  0  0
  -12.2851    3.6446   21.7177 C   0  0  2  0  0  0  0  0  0  0  0  0
  -13.3443    4.4096   22.3828 N   0  3  0  0  0  0  0  0  0  0  0  0
  -10.9196    4.3898   21.7792 C   0  0  1  0  0  0  0  0  0  0  0  0
  -10.5539    4.6285   23.0635 O   0  0  0  0  0  0  0  0  0  0  0  0
   -9.8439    3.5215   21.0467 C   0  0  2  0  0  0  0  0  0  0  0  0
   -8.5603    4.1790   21.0930 O   0  0  0  0  0  0  0  0  0  0  0  0
  -10.3140    3.2970   19.5694 C   0  0  2  0  0  0  0  0  0  0  0  0
  -11.6341    2.6289   19.5463 O   0  0  0  0  0  0  0  0  0  0  0  0
   -9.3697    2.4377   18.7210 C   0  0  2  0  0  0  0  0  0  0  0  0
   -8.2778    3.1989   18.3192 O   0  0  0  0  0  0  0  0  0  0  0  0
  -10.0170    1.8984   17.4324 C   0  0  0  0  0  0  0  0  0  0  0  0
  -12.5116    3.6008   15.4699 C   0  0  2  0  0  0  0  0  0  0  0  0
  -12.6114    3.6913   13.9910 N   0  3  0  0  0  0  0  0  0  0  0  0
  -13.9281    3.5429   16.1149 C   0  0  0  0  0  0  0  0  0  0  0  0
  -13.8117    3.4660   17.6804 C   0  0  2  0  0  0  0  0  0  0  0  0
  -15.1969    3.4017   18.2751 N   0  3  0  0  0  0  0  0  0  0  0  0
  -13.0136    4.7096   18.2026 C   0  0  2  0  0  0  0  0  0  0  0  0
  -11.6094    4.7342   17.5509 C   0  0  2  0  0  0  0  0  0  0  0  0
  -10.9153    5.8726   18.0008 O   0  0  0  0  0  0  0  0  0  0  0  0
  -11.7419    4.8262   16.0072 C   0  0  1  0  0  0  0  0  0  0  0  0
  -10.4440    4.8499   15.4315 O   0  0  0  0  0  0  0  0  0  0  0  0
   -9.8418    6.0902   15.1834 C   0  0  2  0  0  0  0  0  0  0  0  0
  -10.1741    6.4829   13.7314 C   0  0  2  0  0  0  0  0  0  0  0  0
  -11.5741    6.6014   13.5958 O   0  0  0  0  0  0  0  0  0  0  0  0
   -9.6113    5.3878   12.7623 C   0  0  1  0  0  0  0  0  0  0  0  0
   -9.9166    5.6776   11.3400 N   0  3  0  0  0  0  0  0  0  0  0  0
  -10.1075    4.4190   10.5749 C   0  0  0  0  0  0  0  0  0  0  0  0
   -8.0613    5.2696   12.9635 C   0  0  2  0  0  0  0  0  0  0  0  0
   -7.4316    6.5308   12.6698 O   0  0  0  0  0  0  0  0  0  0  0  0
   -7.4721    4.2720   12.0889 C   0  0  0  0  0  0  0  0  0  0  0  0
   -7.7376    4.9598   14.4576 C   0  0  0  0  0  0  0  0  0  0  0  0
   -8.3841    5.9707   15.3570 O   0  0  0  0  0  0  0  0  0  0  0  0
  1  2  1  6  0  0  0
  1  3  1  0  0  0  0
  1 10  1  0  0  0  0
  3  4  1  6  0  0  0
  3  5  1  0  0  0  0
  5  6  1  1  0  0  0
  5  7  1  0  0  0  0
  7  8  1  6  0  0  0
  7  9  1  0  0  0  0
  9 10  1  1  0  0  0
  9 11  1  0  0  0  0
 11 12  1  6  0  0  0
 11 13  1  0  0  0  0
 14 15  1  6  0  0  0
 14 16  1  0  0  0  0
 14 22  1  0  0  0  0
 16 17  1  0  0  0  0
 17 18  1  1  0  0  0
 17 19  1  0  0  0  0
 19  2  1  1  0  0  0
 19 20  1  0  0  0  0
 20 21  1  1  0  0  0
 20 22  1  0  0  0  0
 22 23  1  6  0  0  0
 24 23  1  6  0  0  0
 24 25  1  0  0  0  0
 24 34  1  0  0  0  0
 25 26  1  1  0  0  0
 25 27  1  0  0  0  0
 27 28  1  6  0  0  0
 27 30  1  0  0  0  0
 28 29  1  0  0  0  0
 30 31  1  6  0  0  0
 30 32  1  0  0  0  0
 30 33  1  0  0  0  0
 33 34  1  0  0  0  0
M  CHG  4   4   1  15   1  18   1  28   1
M  END
>  <CHROM.1>
167.53797064,37.49224619,-58.19166326,60.92844984,-58.18544948,-77.70927539
-56.52870837,-26.98290988,65.28674269,-58.11541281,147.38960858,-93.11473319
65.91181663,-27.55274986,63.52820777,-10.78840410,4.45411974,16.94912585
1.85556336,0.11479135,1.72415638

>  <Name>
1mwl

>  <RI>
0

>  <Rbt.Current_Directory>
/home/itssahil/PROJECTS/Mol_Feturizer/New_Systems/rnas/1mwl

>  <Rbt.Executable>
rbdock ($Id: //depot/dev/client3/rdock/2013.1/src/exe/rbdock.cxx#4 $)

>  <Rbt.Library>
libRbt.so (2013.1, Build901 2013/11/27)

>  <Rbt.Parameter_File>
/export/apps/rDock/src/rDock_2013.1_src/data/scripts/dock_solv.prm

>  <Rbt.Receptor>
prm/pocket_docking_8.prm

>  <SCORE>
-32.2493

>  <SCORE.INTER>
-15.7345

>  <SCORE.INTER.CONST>
1

>  <SCORE.INTER.POLAR>
-2.6701

>  <SCORE.INTER.ROT>
6

>  <SCORE.INTER.SOLV>
9.8049

>  <SCORE.INTER.VDW>
-12.4577

>  <SCORE.INTER.norm>
-0.46278

>  <SCORE.INTRA>
-16.5147

>  <SCORE.INTRA.DIHEDRAL>
-25.1576

>  <SCORE.INTRA.DIHEDRAL.0>
42.0816

>  <SCORE.INTRA.POLAR>
-0.820553

>  <SCORE.INTRA.POLAR.0>
-0.254682

>  <SCORE.INTRA.REPUL>
0

>  <SCORE.INTRA.REPUL.0>
0

>  <SCORE.INTRA.SOLV>
0.731381

>  <SCORE.INTRA.SOLV.lig_0>
-109.803

>  <SCORE.INTRA.VDW>
-1.51174

>  <SCORE.INTRA.VDW.0>
0.32176

>  <SCORE.INTRA.norm>
-0.485728

>  <SCORE.RESTR>
0

>  <SCORE.RESTR.CAVITY>
0

>  <SCORE.RESTR.norm>
0

>  <SCORE.SYSTEM>
0

>  <SCORE.SYSTEM.CONST>
0

>  <SCORE.SYSTEM.DIHEDRAL>
0

>  <SCORE.SYSTEM.SOLV>
0

>  <SCORE.SYSTEM.norm>
0

>  <SCORE.heavy>
34

>  <SCORE.norm>
-0.948508

>  <RMSD>
5.786

$$$$
1mwl
 OpenBabel11021811403D
libRbt.so/2013.1/901 2013/11/27
 34 36  0  0  0  0  0  0  0  0999 V2000
  -12.2619    3.9523   21.5218 C   0  0  2  0  0  0  0  0  0  0  0  0
  -11.3377    4.5493   22.3810 O   0  0  0  0  0  0  0  0  0  0  0  0
  -12.6027    2.5521   22.1051 C   0  0  2  0  0  0  0  0  0  0  0  0
  -13.1492    2.6879   23.4587 N   0  3  0  0  0  0  0  0  0  0  0  0
  -11.3484    1.6301   22.0867 C   0  0  1  0  0  0  0  0  0  0  0  0
  -11.6443    0.3979   22.5707 O   0  0  0  0  0  0  0  0  0  0  0  0
  -10.8181    1.5383   20.6178 C   0  0  2  0  0  0  0  0  0  0  0  0
   -9.6585    0.6813   20.5617 O   0  0  0  0  0  0  0  0  0  0  0  0
  -10.4787    2.9859   20.1247 C   0  0  2  0  0  0  0  0  0  0  0  0
  -11.6791    3.8480   20.1977 O   0  0  0  0  0  0  0  0  0  0  0  0
   -9.9645    3.0666   18.6829 C   0  0  2  0  0  0  0  0  0  0  0  0
   -9.2440    1.9173   18.3776 O   0  0  0  0  0  0  0  0  0  0  0  0
   -9.0131    4.2510   18.4328 C   0  0  0  0  0  0  0  0  0  0  0  0
   -8.6876    7.8985   22.2432 C   0  0  2  0  0  0  0  0  0  0  0  0
   -7.6051    8.8157   21.8046 N   0  3  0  0  0  0  0  0  0  0  0  0
   -8.1042    6.5128   22.6498 C   0  0  0  0  0  0  0  0  0  0  0  0
   -9.2592    5.5441   23.0945 C   0  0  2  0  0  0  0  0  0  0  0  0
   -8.6633    4.2157   23.4906 N   0  3  0  0  0  0  0  0  0  0  0  0
  -10.2881    5.3916   21.9222 C   0  0  2  0  0  0  0  0  0  0  0  0
  -10.8556    6.7826   21.5475 C   0  0  2  0  0  0  0  0  0  0  0  0
  -11.7517    6.6374   20.4723 O   0  0  0  0  0  0  0  0  0  0  0  0
   -9.7049    7.7214   21.0959 C   0  0  1  0  0  0  0  0  0  0  0  0
  -10.2478    8.9886   20.7553 O   0  0  0  0  0  0  0  0  0  0  0  0
  -10.8406    9.7585   21.7644 C   0  0  2  0  0  0  0  0  0  0  0  0
  -12.2797    9.2427   21.9539 C   0  0  2  0  0  0  0  0  0  0  0  0
  -12.2344    7.8903   22.3559 O   0  0  0  0  0  0  0  0  0  0  0  0
  -13.0617    9.3969   20.6049 C   0  0  1  0  0  0  0  0  0  0  0  0
  -14.4539    8.8931   20.6952 N   0  3  0  0  0  0  0  0  0  0  0  0
  -14.5383    7.4891   20.2180 C   0  0  0  0  0  0  0  0  0  0  0  0
  -13.0653   10.9061   20.1815 C   0  0  2  0  0  0  0  0  0  0  0  0
  -13.7107   11.6980   21.1963 O   0  0  0  0  0  0  0  0  0  0  0  0
  -13.7808   11.1219   18.9370 C   0  0  0  0  0  0  0  0  0  0  0  0
  -11.6021   11.4373   20.0808 C   0  0  0  0  0  0  0  0  0  0  0  0
  -10.8573   11.1734   21.3554 O   0  0  0  0  0  0  0  0  0  0  0  0
  1  2  1  1  0  0  0
  1  3  1  0  0  0  0
  1 10  1  0  0  0  0
  3  4  1  1  0  0  0
  3  5  1  0  0  0  0
  5  6  1  6  0  0  0
  5  7  1  0  0  0  0
  7  8  1  1  0  0  0
  7  9  1  0  0  0  0
  9 10  1  6  0  0  0
  9 11  1  0  0  0  0
 11 12  1  1  0  0  0
 11 13  1  0  0  0  0
 14 15  1  6  0  0  0
 14 16  1  0  0  0  0
 14 22  1  0  0  0  0
 16 17  1  0  0  0  0
 17 18  1  6  0  0  0
 17 19  1  0  0  0  0
 19  2  1  1  0  0  0
 19 20  1  0  0  0  0
 20 21  1  6  0  0  0
 20 22  1  0  0  0  0
 22 23  1  1  0  0  0
 24 23  1  6  0  0  0
 24 25  1  0  0  0  0
 24 34  1  0  0  0  0
 25 26  1  6  0  0  0
 25 27  1  0  0  0  0
 27 28  1  1  0  0  0
 27 30  1  0  0  0  0
 28 29  1  0  0  0  0
 30 31  1  1  0  0  0
 30 32  1  0  0  0  0
 30 33  1  0  0  0  0
 33 34  1  0  0  0  0
M  CHG  4   4   1  15   1  18   1  28   1
M  END
>  <CHROM.1>
144.70486772,-164.96281591,39.63928188,-68.87538738,4.94441645,-32.31826487
-50.50374851,40.81894746,60.48271763,-38.57939902,-54.89754015,-82.10930253
174.07923303,24.94229525,63.55765141,-11.14305913,6.18848601,21.17895744
1.37321484,0.11774349,3.12254961

>  <Name>
1mwl

>  <RI>
0

>  <Rbt.Current_Directory>
/home/itssahil/PROJECTS/Mol_Feturizer/New_Systems/rnas/1mwl

>  <Rbt.Executable>
rbdock ($Id: //depot/dev/client3/rdock/2013.1/src/exe/rbdock.cxx#4 $)

>  <Rbt.Library>
libRbt.so (2013.1, Build901 2013/11/27)

>  <Rbt.Parameter_File>
/export/apps/rDock/src/rDock_2013.1_src/data/scripts/dock_solv.prm

>  <Rbt.Receptor>
prm/blind_docking_100.prm

>  <SCORE>
-4.16428

>  <SCORE.INTER>
-19.442

>  <SCORE.INTER.CONST>
1

>  <SCORE.INTER.POLAR>
-5.33366

>  <SCORE.INTER.ROT>
6

>  <SCORE.INTER.SOLV>
28.7132

>  <SCORE.INTER.VDW>
-12.3535

>  <SCORE.INTER.norm>
-0.571824

>  <SCORE.INTRA>
6.57516

>  <SCORE.INTRA.DIHEDRAL>
-17.4515

>  <SCORE.INTRA.DIHEDRAL.0>
42.0816

>  <SCORE.INTRA.POLAR>
-0.214792

>  <SCORE.INTRA.POLAR.0>
-0.254682

>  <SCORE.INTRA.REPUL>
0

>  <SCORE.INTRA.REPUL.0>
0

>  <SCORE.INTRA.SOLV>
0.559962

>  <SCORE.INTRA.SOLV.lig_0>
-109.803

>  <SCORE.INTRA.VDW>
15.7512

>  <SCORE.INTRA.VDW.0>
0.32176

>  <SCORE.INTRA.norm>
0.193387

>  <SCORE.RESTR>
8.70258

>  <SCORE.RESTR.CAVITY>
8.70258

>  <SCORE.RESTR.norm>
0.255958

>  <SCORE.SYSTEM>
0

>  <SCORE.SYSTEM.CONST>
0

>  <SCORE.SYSTEM.DIHEDRAL>
0

>  <SCORE.SYSTEM.SOLV>
0

>  <SCORE.SYSTEM.norm>
0

>  <SCORE.heavy>
34

>  <SCORE.norm>
-0.122479

>  <RMSD>
5.803

$$$$
1mwl
 OpenBabel11021811403D
libRbt.so/2013.1/901 2013/11/27
 34 36  0  0  0  0  0  0  0  0999 V2000
   -9.2815    4.0215   19.4580 C   0  0  2  0  0  0  0  0  0  0  0  0
  -10.4891    3.5901   20.0097 O   0  0  0  0  0  0  0  0  0  0  0  0
   -8.7381    5.1631   20.3625 C   0  0  2  0  0  0  0  0  0  0  0  0
   -8.5501    4.6763   21.7326 N   0  3  0  0  0  0  0  0  0  0  0  0
   -9.6884    6.3955   20.3211 C   0  0  1  0  0  0  0  0  0  0  0  0
   -9.2075    7.4057   21.0881 O   0  0  0  0  0  0  0  0  0  0  0  0
   -9.8471    6.8534   18.8336 C   0  0  2  0  0  0  0  0  0  0  0  0
  -10.7161    8.0030   18.7585 O   0  0  0  0  0  0  0  0  0  0  0  0
  -10.4206    5.6530   18.0066 C   0  0  2  0  0  0  0  0  0  0  0  0
   -9.5181    4.4845   18.1039 O   0  0  0  0  0  0  0  0  0  0  0  0
  -10.6129    5.9389   16.5129 C   0  0  2  0  0  0  0  0  0  0  0  0
  -11.3458    4.9112   15.9299 O   0  0  0  0  0  0  0  0  0  0  0  0
   -9.2920    6.0262   15.7268 C   0  0  0  0  0  0  0  0  0  0  0  0
  -12.5585    1.9232   16.6634 C   0  0  2  0  0  0  0  0  0  0  0  0
  -13.5220    1.1247   15.8636 N   0  3  0  0  0  0  0  0  0  0  0  0
  -11.6254    0.9913   17.4922 C   0  0  0  0  0  0  0  0  0  0  0  0
  -10.6224    1.8460   18.3486 C   0  0  2  0  0  0  0  0  0  0  0  0
   -9.7274    0.9173   19.1317 N   0  3  0  0  0  0  0  0  0  0  0  0
  -11.4301    2.8036   19.2903 C   0  0  2  0  0  0  0  0  0  0  0  0
  -12.3400    3.7213   18.4377 C   0  0  2  0  0  0  0  0  0  0  0  0
  -13.0848    4.5523   19.2950 O   0  0  0  0  0  0  0  0  0  0  0  0
  -13.3343    2.8630   17.6107 C   0  0  1  0  0  0  0  0  0  0  0  0
  -14.1592    3.7240   16.8396 O   0  0  0  0  0  0  0  0  0  0  0  0
  -15.4504    3.2954   16.5053 C   0  0  2  0  0  0  0  0  0  0  0  0
  -16.1033    4.4085   15.6641 C   0  0  2  0  0  0  0  0  0  0  0  0
  -15.3484    4.5978   14.4865 O   0  0  0  0  0  0  0  0  0  0  0  0
  -16.1564    5.7265   16.5096 C   0  0  1  0  0  0  0  0  0  0  0  0
  -16.7473    6.8600   15.7573 N   0  3  0  0  0  0  0  0  0  0  0  0
  -15.6854    7.6809   15.1212 C   0  0  0  0  0  0  0  0  0  0  0  0
  -16.9793    5.4659   17.8181 C   0  0  2  0  0  0  0  0  0  0  0  0
  -18.3206    5.0648   17.4815 O   0  0  0  0  0  0  0  0  0  0  0  0
  -17.0728    6.6524   18.6492 C   0  0  0  0  0  0  0  0  0  0  0  0
  -16.3571    4.2774   18.6140 C   0  0  0  0  0  0  0  0  0  0  0  0
  -16.2255    3.0680   17.7371 O   0  0  0  0  0  0  0  0  0  0  0  0
  1  2  1  1  0  0  0
  1  3  1  0  0  0  0
  1 10  1  0  0  0  0
  3  4  1  1  0  0  0
  3  5  1  0  0  0  0
  5  6  1  1  0  0  0
  5  7  1  0  0  0  0
  7  8  1  1  0  0  0
  7  9  1  0  0  0  0
  9 10  1  6  0  0  0
  9 11  1  0  0  0  0
 11 12  1  6  0  0  0
 11 13  1  0  0  0  0
 14 15  1  1  0  0  0
 14 16  1  0  0  0  0
 14 22  1  0  0  0  0
 16 17  1  0  0  0  0
 17 18  1  1  0  0  0
 17 19  1  0  0  0  0
 19  2  1  6  0  0  0
 19 20  1  0  0  0  0
 20 21  1  1  0  0  0
 20 22  1  0  0  0  0
 22 23  1  6  0  0  0
 24 23  1  1  0  0  0
 24 25  1  0  0  0  0
 24 34  1  0  0  0  0
 25 26  1  6  0  0  0
 25 27  1  0  0  0  0
 27 28  1  6  0  0  0
 27 30  1  0  0  0  0
 28 29  1  0  0  0  0
 30 31  1  6  0  0  0
 30 32  1  0  0  0  0
 30 33  1  0  0  0  0
 33 34  1  0  0  0  0
M  CHG  4   4   1  15   1  18   1  28   1
M  END
>  <CHROM.1>
163.83096209,34.71750597,60.82675921,60.22793299,86.84606555,-169.09901084
63.28463346,71.03497666,-67.29995317,-61.43138175,88.15948986,-179.38180926
-59.73246310,25.09885879,-67.92632974,-12.66747827,4.56390109,17.89039597
-0.03003288,0.40218188,-2.99678847

>  <Name>
1mwl

>  <RI>
0

>  <Rbt.Current_Directory>
/home/itssahil/PROJECTS/Mol_Feturizer/New_Systems/rnas/1mwl

>  <Rbt.Executable>
rbdock ($Id: //depot/dev/client3/rdock/2013.1/src/exe/rbdock.cxx#4 $)

>  <Rbt.Library>
libRbt.so (2013.1, Build901 2013/11/27)

>  <Rbt.Parameter_File>
/export/apps/rDock/src/rDock_2013.1_src/data/scripts/dock_solv.prm

>  <Rbt.Receptor>
prm/pocket_docking_6.prm

>  <SCORE>
-44.3399

>  <SCORE.INTER>
-27.5364

>  <SCORE.INTER.CONST>
1

>  <SCORE.INTER.POLAR>
-4.96549

>  <SCORE.INTER.ROT>
6

>  <SCORE.INTER.SOLV>
13.9749

>  <SCORE.INTER.VDW>
-14.0643

>  <SCORE.INTER.norm>
-0.809895

>  <SCORE.INTRA>
-16.8035

>  <SCORE.INTRA.DIHEDRAL>
-28.386

>  <SCORE.INTRA.DIHEDRAL.0>
42.0816

>  <SCORE.INTRA.POLAR>
-0.441316

>  <SCORE.INTRA.POLAR.0>
-0.254682

>  <SCORE.INTRA.REPUL>
0

>  <SCORE.INTRA.REPUL.0>
0

>  <SCORE.INTRA.SOLV>
0.136292

>  <SCORE.INTRA.SOLV.lig_0>
-109.803

>  <SCORE.INTRA.VDW>
-1.1781

>  <SCORE.INTRA.VDW.0>
0.32176

>  <SCORE.INTRA.norm>
-0.494219

>  <SCORE.RESTR>
0

>  <SCORE.RESTR.CAVITY>
0

>  <SCORE.RESTR.norm>
0

>  <SCORE.SYSTEM>
0

>  <SCORE.SYSTEM.CONST>
0

>  <SCORE.SYSTEM.DIHEDRAL>
0

>  <SCORE.SYSTEM.SOLV>
0

>  <SCORE.SYSTEM.norm>
0

>  <SCORE.heavy>
34

>  <SCORE.norm>
-1.30411

>  <RMSD>
5.887

$$$$
1mwl
 OpenBabel11021811403D
libRbt.so/2013.1/901 2013/11/27
 34 36  0  0  0  0  0  0  0  0999 V2000
   -9.0378    4.0638   20.7014 C   0  0  2  0  0  0  0  0  0  0  0  0
   -8.8625    5.2083   19.9215 O   0  0  0  0  0  0  0  0  0  0  0  0
   -9.7433    2.9998   19.8143 C   0  0  2  0  0  0  0  0  0  0  0  0
   -8.9316    2.7125   18.6277 N   0  3  0  0  0  0  0  0  0  0  0  0
  -11.1748    3.4719   19.4248 C   0  0  1  0  0  0  0  0  0  0  0  0
  -11.8064    2.5371   18.6717 O   0  0  0  0  0  0  0  0  0  0  0  0
  -11.9771    3.7655   20.7354 C   0  0  2  0  0  0  0  0  0  0  0  0
  -13.3154    4.1971   20.4114 O   0  0  0  0  0  0  0  0  0  0  0  0
  -11.2084    4.8613   21.5491 C   0  0  2  0  0  0  0  0  0  0  0  0
   -9.8378    4.4006   21.8635 O   0  0  0  0  0  0  0  0  0  0  0  0
  -11.8617    5.2445   22.8819 C   0  0  2  0  0  0  0  0  0  0  0  0
  -12.2282    4.0941   23.5716 O   0  0  0  0  0  0  0  0  0  0  0  0
  -13.1457    6.0788   22.7219 C   0  0  0  0  0  0  0  0  0  0  0  0
   -9.1709    8.4146   22.7293 C   0  0  2  0  0  0  0  0  0  0  0  0
   -9.0173    9.7522   23.3561 N   0  3  0  0  0  0  0  0  0  0  0  0
   -7.7831    7.7343   22.5364 C   0  0  0  0  0  0  0  0  0  0  0  0
   -7.9551    6.3281   21.8559 C   0  0  2  0  0  0  0  0  0  0  0  0
   -6.5974    5.6908   21.6911 N   0  3  0  0  0  0  0  0  0  0  0  0
   -8.6840    6.5038   20.4796 C   0  0  2  0  0  0  0  0  0  0  0  0
  -10.0616    7.1735   20.7055 C   0  0  2  0  0  0  0  0  0  0  0  0
  -10.6915    7.3570   19.4607 O   0  0  0  0  0  0  0  0  0  0  0  0
   -9.8731    8.5668   21.3632 C   0  0  1  0  0  0  0  0  0  0  0  0
  -11.1472    9.1629   21.5584 O   0  0  0  0  0  0  0  0  0  0  0  0
  -12.0380    9.2128   20.4783 C   0  0  2  0  0  0  0  0  0  0  0  0
  -12.1880   10.6909   20.0712 C   0  0  2  0  0  0  0  0  0  0  0  0
  -10.9292   11.1872   19.6693 O   0  0  0  0  0  0  0  0  0  0  0  0
  -12.7445   11.5045   21.2891 C   0  0  1  0  0  0  0  0  0  0  0  0
  -12.8907   12.9493   20.9872 N   0  3  0  0  0  0  0  0  0  0  0  0
  -11.5835   13.6457   21.0973 C   0  0  0  0  0  0  0  0  0  0  0  0
  -14.1275   10.9053   21.7197 C   0  0  2  0  0  0  0  0  0  0  0  0
  -15.0605   10.9915   20.6264 O   0  0  0  0  0  0  0  0  0  0  0  0
  -14.7045   11.6184   22.8448 C   0  0  0  0  0  0  0  0  0  0  0  0
  -13.9757    9.3868   22.0428 C   0  0  0  0  0  0  0  0  0  0  0  0
  -13.3410    8.6646   20.8920 O   0  0  0  0  0  0  0  0  0  0  0  0
  1  2  1  6  0  0  0
  1  3  1  0  0  0  0
  1 10  1  0  0  0  0
  3  4  1  6  0  0  0
  3  5  1  0  0  0  0
  5  6  1  1  0  0  0
  5  7  1  0  0  0  0
  7  8  1  6  0  0  0
  7  9  1  0  0  0  0
  9 10  1  1  0  0  0
  9 11  1  0  0  0  0
 11 12  1  6  0  0  0
 11 13  1  0  0  0  0
 14 15  1  6  0  0  0
 14 16  1  0  0  0  0
 14 22  1  0  0  0  0
 16 17  1  0  0  0  0
 17 18  1  6  0  0  0
 17 19  1  0  0  0  0
 19  2  1  1  0  0  0
 19 20  1  0  0  0  0
 20 21  1  6  0  0  0
 20 22  1  0  0  0  0
 22 23  1  1  0  0  0
 24 23  1  1  0  0  0
 24 25  1  0  0  0  0
 24 34  1  0  0  0  0
 25 26  1  1  0  0  0
 25 27  1  0  0  0  0
 27 28  1  6  0  0  0
 27 30  1  0  0  0  0
 28 29  1  0  0  0  0
 30 31  1  6  0  0  0
 30 32  1  0  0  0  0
 30 33  1  0  0  0  0
 33 34  1  0  0  0  0
M  CHG  4   4   1  15   1  18   1  28   1
M  END
>  <CHROM.1>
157.85716372,30.80258492,67.92516728,54.96096125,-60.76983726,46.31928538
68.37717326,-48.18771032,159.36653375,49.08809344,-170.61050433,-111.73208325
-61.43278455,39.82261939,-58.05904039,-11.11379902,7.37742762,21.10856580
-1.20418456,-0.07547412,0.14008441

>  <Name>
1mwl

>  <RI>
0

>  <Rbt.Current_Directory>
/home/itssahil/PROJECTS/Mol_Feturizer/New_Systems/rnas/1mwl

>  <Rbt.Executable>
rbdock ($Id: //depot/dev/client3/rdock/2013.1/src/exe/rbdock.cxx#4 $)

>  <Rbt.Library>
libRbt.so (2013.1, Build901 2013/11/27)

>  <Rbt.Parameter_File>
/export/apps/rDock/src/rDock_2013.1_src/data/scripts/dock_solv.prm

>  <Rbt.Receptor>
prm/blind_docking_100.prm

>  <SCORE>
-1.31011

>  <SCORE.INTER>
-0.809804

>  <SCORE.INTER.CONST>
1

>  <SCORE.INTER.POLAR>
-5.03841

>  <SCORE.INTER.ROT>
6

>  <SCORE.INTER.SOLV>
32.6134

>  <SCORE.INTER.VDW>
-2.2163

>  <SCORE.INTER.norm>
-0.0238178

>  <SCORE.INTRA>
-10.8921

>  <SCORE.INTRA.DIHEDRAL>
-25.0163

>  <SCORE.INTRA.DIHEDRAL.0>
42.0816

>  <SCORE.INTRA.POLAR>
0.217633

>  <SCORE.INTRA.POLAR.0>
-0.254682

>  <SCORE.INTRA.REPUL>
0

>  <SCORE.INTRA.REPUL.0>
0

>  <SCORE.INTRA.SOLV>
-2.07964

>  <SCORE.INTRA.SOLV.lig_0>
-109.803

>  <SCORE.INTRA.VDW>
1.91597

>  <SCORE.INTRA.VDW.0>
0.32176

>  <SCORE.INTRA.norm>
-0.320354

>  <SCORE.RESTR>
10.3917

>  <SCORE.RESTR.CAVITY>
10.3917

>  <SCORE.RESTR.norm>
0.30564

>  <SCORE.SYSTEM>
0

>  <SCORE.SYSTEM.CONST>
0

>  <SCORE.SYSTEM.DIHEDRAL>
0

>  <SCORE.SYSTEM.SOLV>
0

>  <SCORE.SYSTEM.norm>
0

>  <SCORE.heavy>
34

>  <SCORE.norm>
-0.0385327

>  <RMSD>
5.925

$$$$
1mwl
 OpenBabel11021811403D
libRbt.so/2013.1/901 2013/11/27
 34 36  0  0  0  0  0  0  0  0999 V2000
  -12.8462    9.1377   18.7209 C   0  0  2  0  0  0  0  0  0  0  0  0
  -11.8107    9.0311   17.7909 O   0  0  0  0  0  0  0  0  0  0  0  0
  -12.2209    9.6189   20.0605 C   0  0  2  0  0  0  0  0  0  0  0  0
  -11.5461   10.9064   19.8695 N   0  3  0  0  0  0  0  0  0  0  0  0
  -11.2482    8.5445   20.6290 C   0  0  1  0  0  0  0  0  0  0  0  0
  -10.7179    8.9464   21.8112 O   0  0  0  0  0  0  0  0  0  0  0  0
  -12.0323    7.2015   20.7989 C   0  0  2  0  0  0  0  0  0  0  0  0
  -11.1615    6.1831   21.3347 O   0  0  0  0  0  0  0  0  0  0  0  0
  -12.6025    6.7832   19.4011 C   0  0  2  0  0  0  0  0  0  0  0  0
  -13.4856    7.8441   18.8683 O   0  0  0  0  0  0  0  0  0  0  0  0
  -13.4222    5.4879   19.4061 C   0  0  2  0  0  0  0  0  0  0  0  0
  -14.3346    5.5151   20.4550 O   0  0  0  0  0  0  0  0  0  0  0  0
  -12.5716    4.2206   19.6075 C   0  0  0  0  0  0  0  0  0  0  0  0
  -13.6720    6.8789   14.6029 C   0  0  2  0  0  0  0  0  0  0  0  0
  -13.9068    6.2688   13.2695 N   0  3  0  0  0  0  0  0  0  0  0  0
  -13.5792    8.4296   14.4903 C   0  0  0  0  0  0  0  0  0  0  0  0
  -13.3124    9.0639   15.9033 C   0  0  2  0  0  0  0  0  0  0  0  0
  -13.2370   10.5644   15.7637 N   0  3  0  0  0  0  0  0  0  0  0  0
  -11.9891    8.4697   16.4968 C   0  0  2  0  0  0  0  0  0  0  0  0
  -12.1158    6.9303   16.6041 C   0  0  2  0  0  0  0  0  0  0  0  0
  -10.9104    6.4053   17.1057 O   0  0  0  0  0  0  0  0  0  0  0  0
  -12.3631    6.3186   15.1991 C   0  0  1  0  0  0  0  0  0  0  0  0
  -12.4733    4.9081   15.3210 O   0  0  0  0  0  0  0  0  0  0  0  0
  -11.3354    4.1740   15.6799 C   0  0  2  0  0  0  0  0  0  0  0  0
  -10.4699    4.0159   14.4154 C   0  0  2  0  0  0  0  0  0  0  0  0
  -10.0833    5.2947   13.9598 O   0  0  0  0  0  0  0  0  0  0  0  0
  -11.2963    3.2604   13.3193 C   0  0  1  0  0  0  0  0  0  0  0  0
  -10.5408    3.0929   12.0539 N   0  3  0  0  0  0  0  0  0  0  0  0
  -11.3687    3.4963   10.8886 C   0  0  0  0  0  0  0  0  0  0  0  0
  -11.7276    1.8593   13.8743 C   0  0  2  0  0  0  0  0  0  0  0  0
  -10.5609    1.0836   14.2064 O   0  0  0  0  0  0  0  0  0  0  0  0
  -12.4957    1.1009   12.9037 C   0  0  0  0  0  0  0  0  0  0  0  0
  -12.5268    2.0327   15.2026 C   0  0  0  0  0  0  0  0  0  0  0  0
  -11.7441    2.8521   16.1849 O   0  0  0  0  0  0  0  0  0  0  0  0
  1  2  1  6  0  0  0
  1  3  1  0  0  0  0
  1 10  1  0  0  0  0
  3  4  1  6  0  0  0
  3  5  1  0  0  0  0
  5  6  1  1  0  0  0
  5  7  1  0  0  0  0
  7  8  1  6  0  0  0
  7  9  1  0  0  0  0
  9 10  1  1  0  0  0
  9 11  1  0  0  0  0
 11 12  1  1  0  0  0
 11 13  1  0  0  0  0
 14 15  1  6  0  0  0
 14 16  1  0  0  0  0
 14 22  1  0  0  0  0
 16 17  1  0  0  0  0
 17 18  1  6  0  0  0
 17 19  1  0  0  0  0
 19  2  1  1  0  0  0
 19 20  1  0  0  0  0
 20 21  1  6  0  0  0
 20 22  1  0  0  0  0
 22 23  1  1  0  0  0
 24 23  1  6  0  0  0
 24 25  1  0  0  0  0
 24 34  1  0  0  0  0
 25 26  1  6  0  0  0
 25 27  1  0  0  0  0
 27 28  1  6  0  0  0
 27 30  1  0  0  0  0
 28 29  1  0  0  0  0
 30 31  1  1  0  0  0
 30 32  1  0  0  0  0
 30 33  1  0  0  0  0
 33 34  1  0  0  0  0
M  CHG  4   4   1  15   1  18   1  28   1
M  END
>  <CHROM.1>
172.56472274,44.95538281,104.13832784,-71.54306905,62.38075924,47.31655244
175.60180698,-68.66184062,77.66183701,-61.47909688,171.87032106,-79.26869899
67.95852997,-11.82882836,-59.44482932,-12.08324761,6.06580582,16.66660566
2.05476274,-1.41400399,1.33171670

>  <Name>
1mwl

>  <RI>
0

>  <Rbt.Current_Directory>
/home/itssahil/PROJECTS/Mol_Feturizer/New_Systems/rnas/1mwl

>  <Rbt.Executable>
rbdock ($Id: //depot/dev/client3/rdock/2013.1/src/exe/rbdock.cxx#4 $)

>  <Rbt.Library>
libRbt.so (2013.1, Build901 2013/11/27)

>  <Rbt.Parameter_File>
/export/apps/rDock/src/rDock_2013.1_src/data/scripts/dock_solv.prm

>  <Rbt.Receptor>
prm/pocket_docking_7.prm

>  <SCORE>
-47.1306

>  <SCORE.INTER>
-32.9307

>  <SCORE.INTER.CONST>
1

>  <SCORE.INTER.POLAR>
-6.52651

>  <SCORE.INTER.ROT>
6

>  <SCORE.INTER.SOLV>
20.1062

>  <SCORE.INTER.VDW>
-14.5009

>  <SCORE.INTER.norm>
-0.968551

>  <SCORE.INTRA>
-14.2792

>  <SCORE.INTRA.DIHEDRAL>
-29.8801

>  <SCORE.INTRA.DIHEDRAL.0>
42.0816

>  <SCORE.INTRA.POLAR>
0.167522

>  <SCORE.INTRA.POLAR.0>
-0.254682

>  <SCORE.INTRA.REPUL>
0.0591668

>  <SCORE.INTRA.REPUL.0>
0

>  <SCORE.INTRA.SOLV>
0.333298

>  <SCORE.INTRA.SOLV.lig_0>
-109.803

>  <SCORE.INTRA.VDW>
-0.371197

>  <SCORE.INTRA.VDW.0>
0.32176

>  <SCORE.INTRA.norm>
-0.419977

>  <SCORE.RESTR>
0.0793194

>  <SCORE.RESTR.CAVITY>
0.0793194

>  <SCORE.RESTR.norm>
0.00233292

>  <SCORE.SYSTEM>
0

>  <SCORE.SYSTEM.CONST>
0

>  <SCORE.SYSTEM.DIHEDRAL>
0

>  <SCORE.SYSTEM.SOLV>
0

>  <SCORE.SYSTEM.norm>
0

>  <SCORE.heavy>
34

>  <SCORE.norm>
-1.3862

>  <RMSD>
5.933

$$$$
1mwl
 OpenBabel11021811403D
libRbt.so/2013.1/901 2013/11/27
 34 36  0  0  0  0  0  0  0  0999 V2000
  -14.5873   10.9412   19.4707 C   0  0  2  0  0  0  0  0  0  0  0  0
  -14.2904   11.3413   18.1667 O   0  0  0  0  0  0  0  0  0  0  0  0
  -13.6033   11.6810   20.4200 C   0  0  2  0  0  0  0  0  0  0  0  0
  -13.7470   13.1319   20.2658 N   0  3  0  0  0  0  0  0  0  0  0  0
  -12.1389   11.2224   20.1580 C   0  0  1  0  0  0  0  0  0  0  0  0
  -11.2768   11.8450   21.0002 O   0  0  0  0  0  0  0  0  0  0  0  0
  -12.0635    9.6695   20.3327 C   0  0  2  0  0  0  0  0  0  0  0  0
  -10.7146    9.2098   20.1061 O   0  0  0  0  0  0  0  0  0  0  0  0
  -13.0649    9.0108   19.3241 C   0  0  2  0  0  0  0  0  0  0  0  0
  -14.4389    9.5017   19.5699 O   0  0  0  0  0  0  0  0  0  0  0  0
  -13.1248    7.4804   19.3895 C   0  0  2  0  0  0  0  0  0  0  0  0
  -11.9145    6.9456   18.9622 O   0  0  0  0  0  0  0  0  0  0  0  0
  -14.2101    6.8666   18.4864 C   0  0  0  0  0  0  0  0  0  0  0  0
  -16.4272    8.5502   15.7370 C   0  0  2  0  0  0  0  0  0  0  0  0
  -17.1279    7.9492   14.5737 N   0  3  0  0  0  0  0  0  0  0  0  0
  -17.1789    9.8195   16.2370 C   0  0  0  0  0  0  0  0  0  0  0  0
  -16.4197   10.4581   17.4560 C   0  0  2  0  0  0  0  0  0  0  0  0
  -17.1753   11.6777   17.9231 N   0  3  0  0  0  0  0  0  0  0  0  0
  -14.9549   10.8129   17.0261 C   0  0  2  0  0  0  0  0  0  0  0  0
  -14.2326    9.5314   16.5433 C   0  0  2  0  0  0  0  0  0  0  0  0
  -12.9308    9.8679   16.1283 O   0  0  0  0  0  0  0  0  0  0  0  0
  -14.9855    8.9225   15.3302 C   0  0  1  0  0  0  0  0  0  0  0  0
  -14.3052    7.7515   14.9031 O   0  0  0  0  0  0  0  0  0  0  0  0
  -13.6656    7.7632   13.6567 C   0  0  2  0  0  0  0  0  0  0  0  0
  -13.9097    6.3917   12.9993 C   0  0  2  0  0  0  0  0  0  0  0  0
  -15.2975    6.2096   12.8168 O   0  0  0  0  0  0  0  0  0  0  0  0
  -13.3167    5.2696   13.9181 C   0  0  1  0  0  0  0  0  0  0  0  0
  -13.5376    3.9099   13.3679 N   0  3  0  0  0  0  0  0  0  0  0  0
  -14.9632    3.5140   13.4979 C   0  0  0  0  0  0  0  0  0  0  0  0
  -11.7827    5.5238   14.1165 C   0  0  2  0  0  0  0  0  0  0  0  0
  -11.1127    5.4958   12.8422 O   0  0  0  0  0  0  0  0  0  0  0  0
  -11.1666    4.5135   14.9572 C   0  0  0  0  0  0  0  0  0  0  0  0
  -11.5478    6.9513   14.6998 C   0  0  0  0  0  0  0  0  0  0  0  0
  -12.2222    7.9854   13.8487 O   0  0  0  0  0  0  0  0  0  0  0  0
  1  2  1  6  0  0  0
  1  3  1  0  0  0  0
  1 10  1  0  0  0  0
  3  4  1  6  0  0  0
  3  5  1  0  0  0  0
  5  6  1  1  0  0  0
  5  7  1  0  0  0  0
  7  8  1  6  0  0  0
  7  9  1  0  0  0  0
  9 10  1  1  0  0  0
  9 11  1  0  0  0  0
 11 12  1  6  0  0  0
 11 13  1  0  0  0  0
 14 15  1  6  0  0  0
 14 16  1  0  0  0  0
 14 22  1  0  0  0  0
 16 17  1  0  0  0  0
 17 18  1  6  0  0  0
 17 19  1  0  0  0  0
 19  2  1  1  0  0  0
 19 20  1  0  0  0  0
 20 21  1  6  0  0  0
 20 22  1  0  0  0  0
 22 23  1  1  0  0  0
 24 23  1  1  0  0  0
 24 25  1  0  0  0  0
 24 34  1  0  0  0  0
 25 26  1  1  0  0  0
 25 27  1  0  0  0  0
 27 28  1  6  0  0  0
 27 30  1  0  0  0  0
 28 29  1  0  0  0  0
 30 31  1  6  0  0  0
 30 32  1  0  0  0  0
 30 33  1  0  0  0  0
 33 34  1  0  0  0  0
M  CHG  4   4   1  15   1  18   1  28   1
M  END
>  <CHROM.1>
176.93884078,31.38575238,174.46637026,174.47970724,57.98897448,-66.77477667
52.31601008,-61.41786754,177.54670687,-59.69313530,127.59111753,-140.16569767
75.12004849,47.29287477,52.39999780,-13.72961756,8.47036405,16.70688811,1.57716303
-0.48361867,0.84379756

>  <Name>
1mwl

>  <RI>
0

>  <Rbt.Current_Directory>
/home/itssahil/PROJECTS/Mol_Feturizer/New_Systems/rnas/1mwl

>  <Rbt.Executable>
rbdock ($Id: //depot/dev/client3/rdock/2013.1/src/exe/rbdock.cxx#4 $)

>  <Rbt.Library>
libRbt.so (2013.1, Build901 2013/11/27)

>  <Rbt.Parameter_File>
/export/apps/rDock/src/rDock_2013.1_src/data/scripts/dock_solv.prm

>  <Rbt.Receptor>
prm/pocket_docking_7.prm

>  <SCORE>
-53.2907

>  <SCORE.INTER>
-33.7974

>  <SCORE.INTER.CONST>
1

>  <SCORE.INTER.POLAR>
-5.16434

>  <SCORE.INTER.ROT>
6

>  <SCORE.INTER.SOLV>
18.6609

>  <SCORE.INTER.VDW>
-19.1374

>  <SCORE.INTER.norm>
-0.994041

>  <SCORE.INTRA>
-19.4933

>  <SCORE.INTRA.DIHEDRAL>
-23.9516

>  <SCORE.INTRA.DIHEDRAL.0>
42.0816

>  <SCORE.INTRA.POLAR>
-1.62179

>  <SCORE.INTRA.POLAR.0>
-0.254682

>  <SCORE.INTRA.REPUL>
0

>  <SCORE.INTRA.REPUL.0>
0

>  <SCORE.INTRA.SOLV>
0.132025

>  <SCORE.INTRA.SOLV.lig_0>
-109.803

>  <SCORE.INTRA.VDW>
-2.06944

>  <SCORE.INTRA.VDW.0>
0.32176

>  <SCORE.INTRA.norm>
-0.573333

>  <SCORE.RESTR>
0

>  <SCORE.RESTR.CAVITY>
0

>  <SCORE.RESTR.norm>
0

>  <SCORE.SYSTEM>
0

>  <SCORE.SYSTEM.CONST>
0

>  <SCORE.SYSTEM.DIHEDRAL>
0

>  <SCORE.SYSTEM.SOLV>
0

>  <SCORE.SYSTEM.norm>
0

>  <SCORE.heavy>
34

>  <SCORE.norm>
-1.56737

>  <RMSD>
5.933

$$$$
1mwl
 OpenBabel11021811403D
libRbt.so/2013.1/901 2013/11/27
 34 36  0  0  0  0  0  0  0  0999 V2000
  -14.4570    9.7748   20.8551 C   0  0  2  0  0  0  0  0  0  0  0  0
  -13.0843    9.8080   20.6032 O   0  0  0  0  0  0  0  0  0  0  0  0
  -14.9254   11.2409   21.0748 C   0  0  2  0  0  0  0  0  0  0  0  0
  -14.6240   12.0505   19.8902 N   0  3  0  0  0  0  0  0  0  0  0  0
  -14.2728   11.8393   22.3552 C   0  0  1  0  0  0  0  0  0  0  0  0
  -14.6967   13.1103   22.5677 O   0  0  0  0  0  0  0  0  0  0  0  0
  -14.6296   10.9231   23.5720 C   0  0  2  0  0  0  0  0  0  0  0  0
  -14.0477   11.4547   24.7807 O   0  0  0  0  0  0  0  0  0  0  0  0
  -14.1000    9.4792   23.2740 C   0  0  2  0  0  0  0  0  0  0  0  0
  -14.7037    8.9577   22.0279 O   0  0  0  0  0  0  0  0  0  0  0  0
  -14.3949    8.4504   24.3714 C   0  0  2  0  0  0  0  0  0  0  0  0
  -13.8731    7.2142   24.0069 O   0  0  0  0  0  0  0  0  0  0  0  0
  -15.8979    8.2276   24.6200 C   0  0  0  0  0  0  0  0  0  0  0  0
  -10.2112    7.4076   18.5434 C   0  0  2  0  0  0  0  0  0  0  0  0
   -9.4054    6.2334   18.1223 N   0  3  0  0  0  0  0  0  0  0  0  0
   -9.9522    7.7445   20.0418 C   0  0  0  0  0  0  0  0  0  0  0  0
  -10.8232    8.9764   20.4822 C   0  0  2  0  0  0  0  0  0  0  0  0
  -10.5442    9.2840   21.9328 N   0  3  0  0  0  0  0  0  0  0  0  0
  -12.3375    8.6543   20.2387 C   0  0  2  0  0  0  0  0  0  0  0  0
  -12.5638    8.3327   18.7412 C   0  0  2  0  0  0  0  0  0  0  0  0
  -13.9192    8.0121   18.5411 O   0  0  0  0  0  0  0  0  0  0  0  0
  -11.7092    7.1050   18.3267 C   0  0  1  0  0  0  0  0  0  0  0  0
  -11.9340    6.8270   16.9524 O   0  0  0  0  0  0  0  0  0  0  0  0
  -11.5800    5.5658   16.4556 C   0  0  2  0  0  0  0  0  0  0  0  0
  -10.9090    5.7806   15.0857 C   0  0  2  0  0  0  0  0  0  0  0  0
   -9.7473    6.5632   15.2603 O   0  0  0  0  0  0  0  0  0  0  0  0
  -11.9212    6.4927   14.1248 C   0  0  1  0  0  0  0  0  0  0  0  0
  -11.3395    6.7637   12.7875 N   0  3  0  0  0  0  0  0  0  0  0  0
  -10.5108    5.6186   12.3314 C   0  0  0  0  0  0  0  0  0  0  0  0
  -13.2050    5.6051   13.9799 C   0  0  2  0  0  0  0  0  0  0  0  0
  -12.8536    4.3213   13.4306 O   0  0  0  0  0  0  0  0  0  0  0  0
  -14.1866    6.2059   13.0950 C   0  0  0  0  0  0  0  0  0  0  0  0
  -13.8219    5.3227   15.3844 C   0  0  0  0  0  0  0  0  0  0  0  0
  -12.7909    4.7409   16.3050 O   0  0  0  0  0  0  0  0  0  0  0  0
  1  2  1  1  0  0  0
  1  3  1  0  0  0  0
  1 10  1  0  0  0  0
  3  4  1  6  0  0  0
  3  5  1  0  0  0  0
  5  6  1  1  0  0  0
  5  7  1  0  0  0  0
  7  8  1  1  0  0  0
  7  9  1  0  0  0  0
  9 10  1  6  0  0  0
  9 11  1  0  0  0  0
 11 12  1  6  0  0  0
 11 13  1  0  0  0  0
 14 15  1  1  0  0  0
 14 16  1  0  0  0  0
 14 22  1  0  0  0  0
 16 17  1  0  0  0  0
 17 18  1  1  0  0  0
 17 19  1  0  0  0  0
 19  2  1  6  0  0  0
 19 20  1  0  0  0  0
 20 21  1  1  0  0  0
 20 22  1  0  0  0  0
 22 23  1  6  0  0  0
 24 23  1  6  0  0  0
 24 25  1  0  0  0  0
 24 34  1  0  0  0  0
 25 26  1  1  0  0  0
 25 27  1  0  0  0  0
 27 28  1  6  0  0  0
 27 30  1  0  0  0  0
 28 29  1  0  0  0  0
 30 31  1  6  0  0  0
 30 32  1  0  0  0  0
 30 33  1  0  0  0  0
 33 34  1  0  0  0  0
M  CHG  4   4   1  15   1  18   1  28   1
M  END
>  <CHROM.1>
-174.28221687,-162.48378096,-49.87094225,-162.40807331,65.59130171,-179.53732970
65.59958983,-38.15490757,71.78549369,-53.95902851,77.73341046,-137.84304132
173.46556040,160.35726204,174.99828562,-12.75651008,8.07209838,18.95087429
1.84915421,-0.50984298,1.22768051

>  <Name>
1mwl

>  <RI>
0

>  <Rbt.Current_Directory>
/home/itssahil/PROJECTS/Mol_Feturizer/New_Systems/rnas/1mwl

>  <Rbt.Executable>
rbdock ($Id: //depot/dev/client3/rdock/2013.1/src/exe/rbdock.cxx#4 $)

>  <Rbt.Library>
libRbt.so (2013.1, Build901 2013/11/27)

>  <Rbt.Parameter_File>
/export/apps/rDock/src/rDock_2013.1_src/data/scripts/dock_solv.prm

>  <Rbt.Receptor>
prm/pocket_docking_7.prm

>  <SCORE>
-51.2822

>  <SCORE.INTER>
-34.2107

>  <SCORE.INTER.CONST>
1

>  <SCORE.INTER.POLAR>
-5.47583

>  <SCORE.INTER.ROT>
6

>  <SCORE.INTER.SOLV>
19.7034

>  <SCORE.INTER.VDW>
-18.7222

>  <SCORE.INTER.norm>
-1.0062

>  <SCORE.INTRA>
-17.0715

>  <SCORE.INTRA.DIHEDRAL>
-28.5478

>  <SCORE.INTRA.DIHEDRAL.0>
42.0816

>  <SCORE.INTRA.POLAR>
-0.945775

>  <SCORE.INTRA.POLAR.0>
-0.254682

>  <SCORE.INTRA.REPUL>
0

>  <SCORE.INTRA.REPUL.0>
0

>  <SCORE.INTRA.SOLV>
-1.22349

>  <SCORE.INTRA.SOLV.lig_0>
-109.803

>  <SCORE.INTRA.VDW>
1.02981

>  <SCORE.INTRA.VDW.0>
0.32176

>  <SCORE.INTRA.norm>
-0.502102

>  <SCORE.RESTR>
0

>  <SCORE.RESTR.CAVITY>
0

>  <SCORE.RESTR.norm>
0

>  <SCORE.SYSTEM>
0

>  <SCORE.SYSTEM.CONST>
0

>  <SCORE.SYSTEM.DIHEDRAL>
0

>  <SCORE.SYSTEM.SOLV>
0

>  <SCORE.SYSTEM.norm>
0

>  <SCORE.heavy>
34

>  <SCORE.norm>
-1.5083

>  <RMSD>
5.962

$$$$
1mwl
 OpenBabel11021811403D
libRbt.so/2013.1/901 2013/11/27
 34 36  0  0  0  0  0  0  0  0999 V2000
   -9.6561    5.2380   18.8150 C   0  0  2  0  0  0  0  0  0  0  0  0
   -8.7716    5.3817   19.8854 O   0  0  0  0  0  0  0  0  0  0  0  0
   -9.9564    3.7206   18.6599 C   0  0  2  0  0  0  0  0  0  0  0  0
  -10.5341    3.1906   19.8988 N   0  3  0  0  0  0  0  0  0  0  0  0
   -8.6689    2.9451   18.2542 C   0  0  1  0  0  0  0  0  0  0  0  0
   -8.9287    1.6236   18.0919 O   0  0  0  0  0  0  0  0  0  0  0  0
   -8.1067    3.5678   16.9337 C   0  0  2  0  0  0  0  0  0  0  0  0
   -6.9155    2.8652   16.5219 O   0  0  0  0  0  0  0  0  0  0  0  0
   -7.8112    5.0846   17.1906 C   0  0  2  0  0  0  0  0  0  0  0  0
   -9.0437    5.7827   17.6182 O   0  0  0  0  0  0  0  0  0  0  0  0
   -7.2720    5.8463   15.9745 C   0  0  2  0  0  0  0  0  0  0  0  0
   -8.1589    6.8584   15.6248 O   0  0  0  0  0  0  0  0  0  0  0  0
   -7.1045    4.9678   14.7212 C   0  0  0  0  0  0  0  0  0  0  0  0
   -9.0920    8.4604   22.8313 C   0  0  2  0  0  0  0  0  0  0  0  0
   -8.8879    9.7448   23.5483 N   0  3  0  0  0  0  0  0  0  0  0  0
   -7.7577    7.6619   22.7412 C   0  0  0  0  0  0  0  0  0  0  0  0
   -7.9804    6.3136   21.9650 C   0  0  2  0  0  0  0  0  0  0  0  0
   -6.6750    5.5596   21.9022 N   0  3  0  0  0  0  0  0  0  0  0  0
   -8.5392    6.6253   20.5343 C   0  0  2  0  0  0  0  0  0  0  0  0
   -9.8679    7.4106   20.6576 C   0  0  2  0  0  0  0  0  0  0  0  0
  -10.3421    7.7141   19.3680 O   0  0  0  0  0  0  0  0  0  0  0  0
   -9.6276    8.7456   21.4121 C   0  0  1  0  0  0  0  0  0  0  0  0
  -10.8571    9.4493   21.5112 O   0  0  0  0  0  0  0  0  0  0  0  0
  -11.9885    8.9168   20.8796 C   0  0  2  0  0  0  0  0  0  0  0  0
  -12.5065    9.9767   19.8891 C   0  0  2  0  0  0  0  0  0  0  0  0
  -11.5061   10.2354   18.9275 O   0  0  0  0  0  0  0  0  0  0  0  0
  -12.8718   11.2806   20.6775 C   0  0  1  0  0  0  0  0  0  0  0  0
  -13.3531   12.3656   19.7881 N   0  3  0  0  0  0  0  0  0  0  0  0
  -12.9354   13.6943   20.3040 C   0  0  0  0  0  0  0  0  0  0  0  0
  -13.9638   10.9445   21.7507 C   0  0  2  0  0  0  0  0  0  0  0  0
  -15.1454   10.4352   21.1043 O   0  0  0  0  0  0  0  0  0  0  0  0
  -14.3537   12.1140   22.5171 C   0  0  0  0  0  0  0  0  0  0  0  0
  -13.4582    9.8070   22.6907 C   0  0  0  0  0  0  0  0  0  0  0  0
  -13.0184    8.6182   21.8895 O   0  0  0  0  0  0  0  0  0  0  0  0
  1  2  1  1  0  0  0
  1  3  1  0  0  0  0
  1 10  1  0  0  0  0
  3  4  1  1  0  0  0
  3  5  1  0  0  0  0
  5  6  1  6  0  0  0
  5  7  1  0  0  0  0
  7  8  1  1  0  0  0
  7  9  1  0  0  0  0
  9 10  1  6  0  0  0
  9 11  1  0  0  0  0
 11 12  1  6  0  0  0
 11 13  1  0  0  0  0
 14 15  1  6  0  0  0
 14 16  1  0  0  0  0
 14 22  1  0  0  0  0
 16 17  1  0  0  0  0
 17 18  1  6  0  0  0
 17 19  1  0  0  0  0
 19  2  1  1  0  0  0
 19 20  1  0  0  0  0
 20 21  1  6  0  0  0
 20 22  1  0  0  0  0
 22 23  1  1  0  0  0
 24 23  1  1  0  0  0
 24 25  1  0  0  0  0
 24 34  1  0  0  0  0
 25 26  1  6  0  0  0
 25 27  1  0  0  0  0
 27 28  1  6  0  0  0
 27 30  1  0  0  0  0
 28 29  1  0  0  0  0
 30 31  1  6  0  0  0
 30 32  1  0  0  0  0
 30 33  1  0  0  0  0
 33 34  1  0  0  0  0
M  CHG  4   4   1  15   1  18   1  28   1
M  END
>  <CHROM.1>
-163.54951060,157.93428746,-63.52059007,-93.51976205,68.65295410,118.07477809
58.86760010,-85.16740388,-69.49440699,-61.97396825,-124.31008390,-121.98536726
59.44646300,-26.21002759,62.53262902,-10.16421170,7.42951366,19.83439787
0.60629894,0.87631184,-1.80896825

>  <Name>
1mwl

>  <RI>
0

>  <Rbt.Current_Directory>
/home/itssahil/PROJECTS/Mol_Feturizer/New_Systems/rnas/1mwl

>  <Rbt.Executable>
rbdock ($Id: //depot/dev/client3/rdock/2013.1/src/exe/rbdock.cxx#4 $)

>  <Rbt.Library>
libRbt.so (2013.1, Build901 2013/11/27)

>  <Rbt.Parameter_File>
/export/apps/rDock/src/rDock_2013.1_src/data/scripts/dock_solv.prm

>  <Rbt.Receptor>
prm/blind_docking_100.prm

>  <SCORE>
4.67935

>  <SCORE.INTER>
-8.85078

>  <SCORE.INTER.CONST>
1

>  <SCORE.INTER.POLAR>
-4.23661

>  <SCORE.INTER.ROT>
6

>  <SCORE.INTER.SOLV>
33.1608

>  <SCORE.INTER.VDW>
-10.4321

>  <SCORE.INTER.norm>
-0.260317

>  <SCORE.INTRA>
-0.272891

>  <SCORE.INTRA.DIHEDRAL>
-10.4954

>  <SCORE.INTRA.DIHEDRAL.0>
42.0816

>  <SCORE.INTRA.POLAR>
-0.240042

>  <SCORE.INTRA.POLAR.0>
-0.254682

>  <SCORE.INTRA.REPUL>
0

>  <SCORE.INTRA.REPUL.0>
0

>  <SCORE.INTRA.SOLV>
-4.03403

>  <SCORE.INTRA.SOLV.lig_0>
-109.803

>  <SCORE.INTRA.VDW>
7.80796

>  <SCORE.INTRA.VDW.0>
0.32176

>  <SCORE.INTRA.norm>
-0.00802622

>  <SCORE.RESTR>
13.803

>  <SCORE.RESTR.CAVITY>
13.803

>  <SCORE.RESTR.norm>
0.405971

>  <SCORE.SYSTEM>
0

>  <SCORE.SYSTEM.CONST>
0

>  <SCORE.SYSTEM.DIHEDRAL>
0

>  <SCORE.SYSTEM.SOLV>
0

>  <SCORE.SYSTEM.norm>
0

>  <SCORE.heavy>
34

>  <SCORE.norm>
0.137628

>  <RMSD>
5.978

$$$$
1mwl
 OpenBabel11021811403D
libRbt.so/2013.1/901 2013/11/27
 34 36  0  0  0  0  0  0  0  0999 V2000
   -6.5366    8.9589   24.0270 C   0  0  2  0  0  0  0  0  0  0  0  0
   -6.9068    8.1393   22.9593 O   0  0  0  0  0  0  0  0  0  0  0  0
   -5.0478    9.3538   23.8161 C   0  0  2  0  0  0  0  0  0  0  0  0
   -4.8857   10.0479   22.5349 N   0  3  0  0  0  0  0  0  0  0  0  0
   -4.1297    8.0997   23.9051 C   0  0  1  0  0  0  0  0  0  0  0  0
   -2.8260    8.4401   23.7475 O   0  0  0  0  0  0  0  0  0  0  0  0
   -4.3610    7.4092   25.2897 C   0  0  2  0  0  0  0  0  0  0  0  0
   -3.5165    6.2454   25.4108 O   0  0  0  0  0  0  0  0  0  0  0  0
   -5.8757    7.0260   25.4027 C   0  0  2  0  0  0  0  0  0  0  0  0
   -6.7221    8.2322   25.2685 O   0  0  0  0  0  0  0  0  0  0  0  0
   -6.2692    6.3555   26.7239 C   0  0  2  0  0  0  0  0  0  0  0  0
   -5.4850    6.8584   27.7560 O   0  0  0  0  0  0  0  0  0  0  0  0
   -6.0602    4.8302   26.7275 C   0  0  0  0  0  0  0  0  0  0  0  0
  -10.5820    7.6411   20.8370 C   0  0  2  0  0  0  0  0  0  0  0  0
  -11.9844    7.2640   20.5264 N   0  3  0  0  0  0  0  0  0  0  0  0
   -9.7242    6.3753   21.1334 C   0  0  0  0  0  0  0  0  0  0  0  0
   -8.2470    6.7862   21.4788 C   0  0  2  0  0  0  0  0  0  0  0  0
   -7.4398    5.5409   21.7514 N   0  3  0  0  0  0  0  0  0  0  0  0
   -8.2529    7.7547   22.7110 C   0  0  2  0  0  0  0  0  0  0  0  0
   -9.1052    9.0048   22.3825 C   0  0  2  0  0  0  0  0  0  0  0  0
   -9.1311    9.8501   23.5071 O   0  0  0  0  0  0  0  0  0  0  0  0
  -10.5637    8.5833   22.0594 C   0  0  1  0  0  0  0  0  0  0  0  0
  -11.3266    9.7440   21.7641 O   0  0  0  0  0  0  0  0  0  0  0  0
  -11.2387   10.2967   20.4798 C   0  0  2  0  0  0  0  0  0  0  0  0
  -11.6256   11.7837   20.5893 C   0  0  2  0  0  0  0  0  0  0  0  0
  -10.7131   12.4344   21.4475 O   0  0  0  0  0  0  0  0  0  0  0  0
  -13.0870   11.8941   21.1433 C   0  0  1  0  0  0  0  0  0  0  0  0
  -13.5271   13.3010   21.3071 N   0  3  0  0  0  0  0  0  0  0  0  0
  -13.2991   14.0733   20.0591 C   0  0  0  0  0  0  0  0  0  0  0  0
  -14.0623   11.1375   20.1772 C   0  0  2  0  0  0  0  0  0  0  0  0
  -14.0075   11.7275   18.8648 O   0  0  0  0  0  0  0  0  0  0  0  0
  -15.4399   11.2046   20.6300 C   0  0  0  0  0  0  0  0  0  0  0  0
  -13.6048    9.6560   20.0070 C   0  0  0  0  0  0  0  0  0  0  0  0
  -12.1688    9.5942   19.5793 O   0  0  0  0  0  0  0  0  0  0  0  0
  1  2  1  6  0  0  0
  1  3  1  0  0  0  0
  1 10  1  0  0  0  0
  3  4  1  6  0  0  0
  3  5  1  0  0  0  0
  5  6  1  1  0  0  0
  5  7  1  0  0  0  0
  7  8  1  6  0  0  0
  7  9  1  0  0  0  0
  9 10  1  1  0  0  0
  9 11  1  0  0  0  0
 11 12  1  1  0  0  0
 11 13  1  0  0  0  0
 14 15  1  1  0  0  0
 14 16  1  0  0  0  0
 14 22  1  0  0  0  0
 16 17  1  0  0  0  0
 17 18  1  1  0  0  0
 17 19  1  0  0  0  0
 19  2  1  6  0  0  0
 19 20  1  0  0  0  0
 20 21  1  1  0  0  0
 20 22  1  0  0  0  0
 22 23  1  6  0  0  0
 24 23  1  1  0  0  0
 24 25  1  0  0  0  0
 24 34  1  0  0  0  0
 25 26  1  1  0  0  0
 25 27  1  0  0  0  0
 27 28  1  6  0  0  0
 27 30  1  0  0  0  0
 28 29  1  0  0  0  0
 30 31  1  6  0  0  0
 30 32  1  0  0  0  0
 30 33  1  0  0  0  0
 33 34  1  0  0  0  0
M  CHG  4   4   1  15   1  18   1  28   1
M  END
>  <CHROM.1>
-170.08918101,-177.23957743,-168.66474901,60.76272642,-62.79565116,32.59398112
69.00699401,-130.05380121,-58.48345264,-162.44236837,-39.28871485,-156.10222840
176.11853073,171.35313250,62.47192439,-9.02567599,9.00306800,22.53675331
-0.43285914,-0.51188514,-0.03737173

>  <Name>
1mwl

>  <RI>
0

>  <Rbt.Current_Directory>
/home/itssahil/PROJECTS/Mol_Feturizer/New_Systems/rnas/1mwl

>  <Rbt.Executable>
rbdock ($Id: //depot/dev/client3/rdock/2013.1/src/exe/rbdock.cxx#4 $)

>  <Rbt.Library>
libRbt.so (2013.1, Build901 2013/11/27)

>  <Rbt.Parameter_File>
/export/apps/rDock/src/rDock_2013.1_src/data/scripts/dock_solv.prm

>  <Rbt.Receptor>
prm/blind_docking_100.prm

>  <SCORE>
-18.3012

>  <SCORE.INTER>
-20.2795

>  <SCORE.INTER.CONST>
1

>  <SCORE.INTER.POLAR>
-4.51609

>  <SCORE.INTER.ROT>
6

>  <SCORE.INTER.SOLV>
26.4926

>  <SCORE.INTER.VDW>
-14.8969

>  <SCORE.INTER.norm>
-0.596457

>  <SCORE.INTRA>
-11.9978

>  <SCORE.INTRA.DIHEDRAL>
-28.9818

>  <SCORE.INTRA.DIHEDRAL.0>
42.0816

>  <SCORE.INTRA.POLAR>
-0.197368

>  <SCORE.INTRA.POLAR.0>
-0.254682

>  <SCORE.INTRA.REPUL>
0

>  <SCORE.INTRA.REPUL.0>
0

>  <SCORE.INTRA.SOLV>
-1.32579

>  <SCORE.INTRA.SOLV.lig_0>
-109.803

>  <SCORE.INTRA.VDW>
3.8271

>  <SCORE.INTRA.VDW.0>
0.32176

>  <SCORE.INTRA.norm>
-0.352876

>  <SCORE.RESTR>
13.9761

>  <SCORE.RESTR.CAVITY>
13.9761

>  <SCORE.RESTR.norm>
0.411063

>  <SCORE.SYSTEM>
0

>  <SCORE.SYSTEM.CONST>
0

>  <SCORE.SYSTEM.DIHEDRAL>
0

>  <SCORE.SYSTEM.SOLV>
0

>  <SCORE.SYSTEM.norm>
0

>  <SCORE.heavy>
34

>  <SCORE.norm>
-0.53827

>  <RMSD>
5.981

$$$$
1mwl
 OpenBabel11021811403D
libRbt.so/2013.1/901 2013/11/27
 34 36  0  0  0  0  0  0  0  0999 V2000
   -8.3381    8.1830   23.1105 C   0  0  2  0  0  0  0  0  0  0  0  0
   -8.5025    8.6290   21.7980 O   0  0  0  0  0  0  0  0  0  0  0  0
   -7.1576    8.9831   23.7296 C   0  0  2  0  0  0  0  0  0  0  0  0
   -7.4460   10.4201   23.6910 N   0  3  0  0  0  0  0  0  0  0  0  0
   -5.8249    8.6495   22.9974 C   0  0  1  0  0  0  0  0  0  0  0  0
   -4.7856    9.3248   23.5487 O   0  0  0  0  0  0  0  0  0  0  0  0
   -5.5874    7.1050   23.0727 C   0  0  2  0  0  0  0  0  0  0  0  0
   -4.3524    6.7603   22.4107 O   0  0  0  0  0  0  0  0  0  0  0  0
   -6.8089    6.3853   22.4065 C   0  0  2  0  0  0  0  0  0  0  0  0
   -8.0637    6.7587   23.0959 O   0  0  0  0  0  0  0  0  0  0  0  0
   -6.7357    4.8542   22.4220 C   0  0  2  0  0  0  0  0  0  0  0  0
   -7.8439    4.3256   21.7695 O   0  0  0  0  0  0  0  0  0  0  0  0
   -6.7411    4.2509   23.8385 C   0  0  0  0  0  0  0  0  0  0  0  0
  -12.1433    6.7020   20.6620 C   0  0  2  0  0  0  0  0  0  0  0  0
  -13.2821    6.2263   19.8360 N   0  3  0  0  0  0  0  0  0  0  0  0
  -12.1212    8.2581   20.7255 C   0  0  0  0  0  0  0  0  0  0  0  0
  -10.9023    8.7515   21.5862 C   0  0  2  0  0  0  0  0  0  0  0  0
  -10.9130   10.2595   21.6370 N   0  3  0  0  0  0  0  0  0  0  0  0
   -9.5726    8.2017   20.9650 C   0  0  2  0  0  0  0  0  0  0  0  0
   -9.6217    6.6547   20.9238 C   0  0  2  0  0  0  0  0  0  0  0  0
   -8.4381    6.1743   20.3334 O   0  0  0  0  0  0  0  0  0  0  0  0
  -10.8207    6.1844   20.0575 C   0  0  1  0  0  0  0  0  0  0  0  0
  -10.8447    4.7648   20.0317 O   0  0  0  0  0  0  0  0  0  0  0  0
  -10.4094    4.0650   21.1646 C   0  0  2  0  0  0  0  0  0  0  0  0
  -10.6277    2.5645   20.8928 C   0  0  2  0  0  0  0  0  0  0  0  0
   -9.8549    2.1824   19.7751 O   0  0  0  0  0  0  0  0  0  0  0  0
  -12.1509    2.3068   20.6313 C   0  0  1  0  0  0  0  0  0  0  0  0
  -12.4423    0.8838   20.3308 N   0  3  0  0  0  0  0  0  0  0  0  0
  -12.4960    0.6552   18.8642 C   0  0  0  0  0  0  0  0  0  0  0  0
  -12.9735    2.7686   21.8831 C   0  0  2  0  0  0  0  0  0  0  0  0
  -12.5594    2.0233   23.0435 O   0  0  0  0  0  0  0  0  0  0  0  0
  -14.3984    2.5524   21.7097 C   0  0  0  0  0  0  0  0  0  0  0  0
  -12.6728    4.2663   22.1985 C   0  0  0  0  0  0  0  0  0  0  0  0
  -11.1962    4.4895   22.3352 O   0  0  0  0  0  0  0  0  0  0  0  0
  1  2  1  6  0  0  0
  1  3  1  0  0  0  0
  1 10  1  0  0  0  0
  3  4  1  6  0  0  0
  3  5  1  0  0  0  0
  5  6  1  1  0  0  0
  5  7  1  0  0  0  0
  7  8  1  6  0  0  0
  7  9  1  0  0  0  0
  9 10  1  1  0  0  0
  9 11  1  0  0  0  0
 11 12  1  6  0  0  0
 11 13  1  0  0  0  0
 14 15  1  6  0  0  0
 14 16  1  0  0  0  0
 14 22  1  0  0  0  0
 16 17  1  0  0  0  0
 17 18  1  6  0  0  0
 17 19  1  0  0  0  0
 19  2  1  1  0  0  0
 19 20  1  0  0  0  0
 20 21  1  6  0  0  0
 20 22  1  0  0  0  0
 22 23  1  1  0  0  0
 24 23  1  6  0  0  0
 24 25  1  0  0  0  0
 24 34  1  0  0  0  0
 25 26  1  6  0  0  0
 25 27  1  0  0  0  0
 27 28  1  1  0  0  0
 27 30  1  0  0  0  0
 28 29  1  0  0  0  0
 30 31  1  1  0  0  0
 30 32  1  0  0  0  0
 30 33  1  0  0  0  0
 33 34  1  0  0  0  0
M  CHG  4   4   1  15   1  18   1  28   1
M  END
>  <CHROM.1>
-174.13269803,66.11068928,-150.82279457,-72.45707864,57.97001488,-178.07000102
55.11256829,-65.20147766,136.26908754,-82.21091126,-87.22694114,176.45766477
60.96351289,24.05452544,66.19543852,-9.64242211,5.75508679,21.68572365,0.78568971
-0.28946843,0.06945892

>  <Name>
1mwl

>  <RI>
0

>  <Rbt.Current_Directory>
/home/itssahil/PROJECTS/Mol_Feturizer/New_Systems/rnas/1mwl

>  <Rbt.Executable>
rbdock ($Id: //depot/dev/client3/rdock/2013.1/src/exe/rbdock.cxx#4 $)

>  <Rbt.Library>
libRbt.so (2013.1, Build901 2013/11/27)

>  <Rbt.Parameter_File>
/export/apps/rDock/src/rDock_2013.1_src/data/scripts/dock_solv.prm

>  <Rbt.Receptor>
prm/blind_docking_100.prm

>  <SCORE>
22.5114

>  <SCORE.INTER>
22.0914

>  <SCORE.INTER.CONST>
1

>  <SCORE.INTER.POLAR>
-5.03439

>  <SCORE.INTER.ROT>
6

>  <SCORE.INTER.SOLV>
26.8788

>  <SCORE.INTER.VDW>
14.9493

>  <SCORE.INTER.norm>
0.649747

>  <SCORE.INTRA>
-9.84005

>  <SCORE.INTRA.DIHEDRAL>
-28.0722

>  <SCORE.INTRA.DIHEDRAL.0>
42.0816

>  <SCORE.INTRA.POLAR>
-0.397294

>  <SCORE.INTRA.POLAR.0>
-0.254682

>  <SCORE.INTRA.REPUL>
0.220506

>  <SCORE.INTRA.REPUL.0>
0

>  <SCORE.INTRA.SOLV>
2.86485

>  <SCORE.INTRA.SOLV.lig_0>
-109.803

>  <SCORE.INTRA.VDW>
3.01188

>  <SCORE.INTRA.VDW.0>
0.32176

>  <SCORE.INTRA.norm>
-0.289413

>  <SCORE.RESTR>
10.2601

>  <SCORE.RESTR.CAVITY>
10.2601

>  <SCORE.RESTR.norm>
0.301766

>  <SCORE.SYSTEM>
0

>  <SCORE.SYSTEM.CONST>
0

>  <SCORE.SYSTEM.DIHEDRAL>
0

>  <SCORE.SYSTEM.SOLV>
0

>  <SCORE.SYSTEM.norm>
0

>  <SCORE.heavy>
34

>  <SCORE.norm>
0.6621

>  <RMSD>
6.098

$$$$
1mwl
 OpenBabel11021811403D
libRbt.so/2013.1/901 2013/11/27
 34 36  0  0  0  0  0  0  0  0999 V2000
   -5.9045    8.7206   24.3176 C   0  0  2  0  0  0  0  0  0  0  0  0
   -5.9743    7.6947   23.3735 O   0  0  0  0  0  0  0  0  0  0  0  0
   -4.6217    9.5450   24.0150 C   0  0  2  0  0  0  0  0  0  0  0  0
   -4.6764   10.0827   22.6521 N   0  3  0  0  0  0  0  0  0  0  0  0
   -3.3476    8.6779   24.2348 C   0  0  1  0  0  0  0  0  0  0  0  0
   -2.2229    9.3982   23.9973 O   0  0  0  0  0  0  0  0  0  0  0  0
   -3.3609    8.1346   25.7018 C   0  0  2  0  0  0  0  0  0  0  0  0
   -2.1861    7.3324   25.9443 O   0  0  0  0  0  0  0  0  0  0  0  0
   -4.6706    7.3000   25.9067 C   0  0  2  0  0  0  0  0  0  0  0  0
   -5.8607    8.1396   25.6460 O   0  0  0  0  0  0  0  0  0  0  0  0
   -4.8430    6.7148   27.3130 C   0  0  2  0  0  0  0  0  0  0  0  0
   -4.6697    7.7166   28.2616 O   0  0  0  0  0  0  0  0  0  0  0  0
   -3.8190    5.6167   27.6537 C   0  0  0  0  0  0  0  0  0  0  0  0
   -8.7156    4.9895   21.5222 C   0  0  2  0  0  0  0  0  0  0  0  0
   -9.8915    4.1076   21.3106 N   0  3  0  0  0  0  0  0  0  0  0  0
   -7.8338    4.4603   22.6920 C   0  0  0  0  0  0  0  0  0  0  0  0
   -6.6026    5.4103   22.9198 C   0  0  2  0  0  0  0  0  0  0  0  0
   -5.7639    4.8677   24.0506 N   0  3  0  0  0  0  0  0  0  0  0  0
   -7.1155    6.8601   23.2223 C   0  0  2  0  0  0  0  0  0  0  0  0
   -7.9800    7.3604   22.0393 C   0  0  2  0  0  0  0  0  0  0  0  0
   -8.4624    8.6483   22.3369 O   0  0  0  0  0  0  0  0  0  0  0  0
   -9.1992    6.4209   21.8380 C   0  0  1  0  0  0  0  0  0  0  0  0
   -9.9781    6.8995   20.7514 O   0  0  0  0  0  0  0  0  0  0  0  0
  -10.8285    7.9923   20.9645 C   0  0  2  0  0  0  0  0  0  0  0  0
  -12.2671    7.4483   21.0504 C   0  0  2  0  0  0  0  0  0  0  0  0
  -12.3580    6.5584   22.1423 O   0  0  0  0  0  0  0  0  0  0  0  0
  -12.6216    6.7213   19.7084 C   0  0  1  0  0  0  0  0  0  0  0  0
  -13.9864    6.1405   19.7209 N   0  3  0  0  0  0  0  0  0  0  0  0
  -13.9358    4.6713   19.5090 C   0  0  0  0  0  0  0  0  0  0  0  0
  -12.4825    7.7354   18.5212 C   0  0  2  0  0  0  0  0  0  0  0  0
  -13.3845    8.8413   18.7134 O   0  0  0  0  0  0  0  0  0  0  0  0
  -12.8029    7.1263   17.2431 C   0  0  0  0  0  0  0  0  0  0  0  0
  -11.0465    8.3441   18.5026 C   0  0  0  0  0  0  0  0  0  0  0  0
  -10.7074    8.9343   19.8388 O   0  0  0  0  0  0  0  0  0  0  0  0
  1  2  1  6  0  0  0
  1  3  1  0  0  0  0
  1 10  1  0  0  0  0
  3  4  1  6  0  0  0
  3  5  1  0  0  0  0
  5  6  1  1  0  0  0
  5  7  1  0  0  0  0
  7  8  1  6  0  0  0
  7  9  1  0  0  0  0
  9 10  1  1  0  0  0
  9 11  1  0  0  0  0
 11 12  1  1  0  0  0
 11 13  1  0  0  0  0
 14 15  1  1  0  0  0
 14 16  1  0  0  0  0
 14 22  1  0  0  0  0
 16 17  1  0  0  0  0
 17 18  1  1  0  0  0
 17 19  1  0  0  0  0
 19  2  1  6  0  0  0
 19 20  1  0  0  0  0
 20 21  1  1  0  0  0
 20 22  1  0  0  0  0
 22 23  1  6  0  0  0
 24 23  1  6  0  0  0
 24 25  1  0  0  0  0
 24 34  1  0  0  0  0
 25 26  1  1  0  0  0
 25 27  1  0  0  0  0
 27 28  1  1  0  0  0
 27 30  1  0  0  0  0
 28 29  1  0  0  0  0
 30 31  1  1  0  0  0
 30 32  1  0  0  0  0
 30 33  1  0  0  0  0
 33 34  1  0  0  0  0
M  CHG  4   4   1  15   1  18   1  28   1
M  END
>  <CHROM.1>
-170.58341695,-141.95528144,70.75087624,-69.72523439,-58.78115140,50.92330092
59.31912316,-178.89029492,64.25025338,156.41637299,161.77004376,-104.30736311
177.41150179,-0.44200035,59.97657630,-8.05619876,7.23408811,22.58812276,-0.26431736
-0.57672075,-0.58445033

>  <Name>
1mwl

>  <RI>
0

>  <Rbt.Current_Directory>
/home/itssahil/PROJECTS/Mol_Feturizer/New_Systems/rnas/1mwl

>  <Rbt.Executable>
rbdock ($Id: //depot/dev/client3/rdock/2013.1/src/exe/rbdock.cxx#4 $)

>  <Rbt.Library>
libRbt.so (2013.1, Build901 2013/11/27)

>  <Rbt.Parameter_File>
/export/apps/rDock/src/rDock_2013.1_src/data/scripts/dock_solv.prm

>  <Rbt.Receptor>
prm/pocket_docking_7.prm

>  <SCORE>
-41.4255

>  <SCORE.INTER>
-27.7075

>  <SCORE.INTER.CONST>
1

>  <SCORE.INTER.POLAR>
-3.70512

>  <SCORE.INTER.ROT>
6

>  <SCORE.INTER.SOLV>
18.9377

>  <SCORE.INTER.VDW>
-20.0338

>  <SCORE.INTER.norm>
-0.814926

>  <SCORE.INTRA>
-13.718

>  <SCORE.INTRA.DIHEDRAL>
-21.8143

>  <SCORE.INTRA.DIHEDRAL.0>
42.0816

>  <SCORE.INTRA.POLAR>
0.22457

>  <SCORE.INTRA.POLAR.0>
-0.254682

>  <SCORE.INTRA.REPUL>
0

>  <SCORE.INTRA.REPUL.0>
0

>  <SCORE.INTRA.SOLV>
1.15945

>  <SCORE.INTRA.SOLV.lig_0>
-109.803

>  <SCORE.INTRA.VDW>
-4.15416

>  <SCORE.INTRA.VDW.0>
0.32176

>  <SCORE.INTRA.norm>
-0.403472

>  <SCORE.RESTR>
0

>  <SCORE.RESTR.CAVITY>
0

>  <SCORE.RESTR.norm>
0

>  <SCORE.SYSTEM>
0

>  <SCORE.SYSTEM.CONST>
0

>  <SCORE.SYSTEM.DIHEDRAL>
0

>  <SCORE.SYSTEM.SOLV>
0

>  <SCORE.SYSTEM.norm>
0

>  <SCORE.heavy>
34

>  <SCORE.norm>
-1.2184

>  <RMSD>
6.118

$$$$
1mwl
 OpenBabel11021811403D
libRbt.so/2013.1/901 2013/11/27
 34 36  0  0  0  0  0  0  0  0999 V2000
  -13.1349    3.2550   18.3406 C   0  0  2  0  0  0  0  0  0  0  0  0
  -12.2133    3.6725   19.3024 O   0  0  0  0  0  0  0  0  0  0  0  0
  -13.9062    2.0412   18.9310 C   0  0  2  0  0  0  0  0  0  0  0  0
  -14.5781    2.4265   20.1758 N   0  3  0  0  0  0  0  0  0  0  0  0
  -12.9462    0.8355   19.1512 C   0  0  1  0  0  0  0  0  0  0  0  0
  -13.6172   -0.2362   19.6424 O   0  0  0  0  0  0  0  0  0  0  0  0
  -12.2625    0.4867   17.7880 C   0  0  2  0  0  0  0  0  0  0  0  0
  -11.3708   -0.6357   17.9532 O   0  0  0  0  0  0  0  0  0  0  0  0
  -11.4924    1.7544   17.2840 C   0  0  2  0  0  0  0  0  0  0  0  0
  -12.4240    2.8934   17.1290 O   0  0  0  0  0  0  0  0  0  0  0  0
  -10.7827    1.5783   15.9367 C   0  0  2  0  0  0  0  0  0  0  0  0
   -9.9221    0.4880   15.9997 O   0  0  0  0  0  0  0  0  0  0  0  0
   -9.9186    2.7867   15.5323 C   0  0  0  0  0  0  0  0  0  0  0  0
  -10.0050    7.1247   20.5127 C   0  0  2  0  0  0  0  0  0  0  0  0
   -9.2247    8.3866   20.4479 N   0  3  0  0  0  0  0  0  0  0  0  0
   -9.2357    5.9651   19.8131 C   0  0  0  0  0  0  0  0  0  0  0  0
  -10.0776    4.6392   19.8709 C   0  0  2  0  0  0  0  0  0  0  0  0
   -9.3040    3.5342   19.1949 N   0  3  0  0  0  0  0  0  0  0  0  0
  -11.4671    4.8772   19.1860 C   0  0  2  0  0  0  0  0  0  0  0  0
  -12.2097    6.0278   19.9082 C   0  0  2  0  0  0  0  0  0  0  0  0
  -13.4399    6.2549   19.2639 O   0  0  0  0  0  0  0  0  0  0  0  0
  -11.3728    7.3326   19.8283 C   0  0  1  0  0  0  0  0  0  0  0  0
  -12.0730    8.3734   20.4938 O   0  0  0  0  0  0  0  0  0  0  0  0
  -11.8348    9.6983   20.1057 C   0  0  2  0  0  0  0  0  0  0  0  0
  -13.0454   10.5368   20.5574 C   0  0  2  0  0  0  0  0  0  0  0  0
  -13.1537   10.4681   21.9632 O   0  0  0  0  0  0  0  0  0  0  0  0
  -14.3395    9.9805   19.8713 C   0  0  1  0  0  0  0  0  0  0  0  0
  -15.5600   10.7183   20.2789 N   0  3  0  0  0  0  0  0  0  0  0  0
  -15.2968   12.1787   20.3416 C   0  0  0  0  0  0  0  0  0  0  0  0
  -14.1673   10.0497   18.3148 C   0  0  2  0  0  0  0  0  0  0  0  0
  -13.9633   11.4148   17.9047 O   0  0  0  0  0  0  0  0  0  0  0  0
  -15.3372    9.5523   17.6138 C   0  0  0  0  0  0  0  0  0  0  0  0
  -12.8872    9.2702   17.8827 C   0  0  0  0  0  0  0  0  0  0  0  0
  -11.6905    9.7615   18.6412 O   0  0  0  0  0  0  0  0  0  0  0  0
  1  2  1  1  0  0  0
  1  3  1  0  0  0  0
  1 10  1  0  0  0  0
  3  4  1  1  0  0  0
  3  5  1  0  0  0  0
  5  6  1  6  0  0  0
  5  7  1  0  0  0  0
  7  8  1  1  0  0  0
  7  9  1  0  0  0  0
  9 10  1  6  0  0  0
  9 11  1  0  0  0  0
 11 12  1  1  0  0  0
 11 13  1  0  0  0  0
 14 15  1  6  0  0  0
 14 16  1  0  0  0  0
 14 22  1  0  0  0  0
 16 17  1  0  0  0  0
 17 18  1  6  0  0  0
 17 19  1  0  0  0  0
 19  2  1  1  0  0  0
 19 20  1  0  0  0  0
 20 21  1  6  0  0  0
 20 22  1  0  0  0  0
 22 23  1  1  0  0  0
 24 23  1  6  0  0  0
 24 25  1  0  0  0  0
 24 34  1  0  0  0  0
 25 26  1  1  0  0  0
 25 27  1  0  0  0  0
 27 28  1  6  0  0  0
 27 30  1  0  0  0  0
 28 29  1  0  0  0  0
 30 31  1  6  0  0  0
 30 32  1  0  0  0  0
 30 33  1  0  0  0  0
 33 34  1  0  0  0  0
M  CHG  4   4   1  15   1  18   1  28   1
M  END
>  <CHROM.1>
-170.65618256,-147.80565322,73.74883020,-164.29791028,-32.84599051,-55.43412797
-51.31829713,-167.23510021,-46.63372422,69.91892634,86.01354985,158.73173727
61.12674532,161.21733224,-71.25953411,-12.30395909,5.79177838,18.98938008
1.37361727,-0.03184792,-2.95075975

>  <Name>
1mwl

>  <RI>
0

>  <Rbt.Current_Directory>
/home/itssahil/PROJECTS/Mol_Feturizer/New_Systems/rnas/1mwl

>  <Rbt.Executable>
rbdock ($Id: //depot/dev/client3/rdock/2013.1/src/exe/rbdock.cxx#4 $)

>  <Rbt.Library>
libRbt.so (2013.1, Build901 2013/11/27)

>  <Rbt.Parameter_File>
/export/apps/rDock/src/rDock_2013.1_src/data/scripts/dock_solv.prm

>  <Rbt.Receptor>
prm/pocket_docking_8.prm

>  <SCORE>
-34.003

>  <SCORE.INTER>
-24.0361

>  <SCORE.INTER.CONST>
1

>  <SCORE.INTER.POLAR>
-4.93486

>  <SCORE.INTER.ROT>
6

>  <SCORE.INTER.SOLV>
15.0857

>  <SCORE.INTER.VDW>
-12.2031

>  <SCORE.INTER.norm>
-0.706945

>  <SCORE.INTRA>
-9.96688

>  <SCORE.INTRA.DIHEDRAL>
-25.0005

>  <SCORE.INTRA.DIHEDRAL.0>
42.0816

>  <SCORE.INTRA.POLAR>
0.197366

>  <SCORE.INTRA.POLAR.0>
-0.254682

>  <SCORE.INTRA.REPUL>
0

>  <SCORE.INTRA.REPUL.0>
0

>  <SCORE.INTRA.SOLV>
-0.177546

>  <SCORE.INTRA.SOLV.lig_0>
-109.803

>  <SCORE.INTRA.VDW>
1.95111

>  <SCORE.INTRA.VDW.0>
0.32176

>  <SCORE.INTRA.norm>
-0.293144

>  <SCORE.RESTR>
0

>  <SCORE.RESTR.CAVITY>
0

>  <SCORE.RESTR.norm>
0

>  <SCORE.SYSTEM>
0

>  <SCORE.SYSTEM.CONST>
0

>  <SCORE.SYSTEM.DIHEDRAL>
0

>  <SCORE.SYSTEM.SOLV>
0

>  <SCORE.SYSTEM.norm>
0

>  <SCORE.heavy>
34

>  <SCORE.norm>
-1.00009

>  <RMSD>
6.134

$$$$
1mwl
 OpenBabel11021811403D
libRbt.so/2013.1/901 2013/11/27
 34 36  0  0  0  0  0  0  0  0999 V2000
  -13.6387    9.6907   20.2665 C   0  0  2  0  0  0  0  0  0  0  0  0
  -14.8698    9.0445   20.1412 O   0  0  0  0  0  0  0  0  0  0  0  0
  -13.1421    9.4677   21.7227 C   0  0  2  0  0  0  0  0  0  0  0  0
  -13.0178    8.0335   22.0002 N   0  3  0  0  0  0  0  0  0  0  0  0
  -14.0931   10.1646   22.7394 C   0  0  1  0  0  0  0  0  0  0  0  0
  -13.6521    9.9960   24.0111 O   0  0  0  0  0  0  0  0  0  0  0  0
  -14.1824   11.6841   22.3784 C   0  0  2  0  0  0  0  0  0  0  0  0
  -15.0503   12.3649   23.3088 O   0  0  0  0  0  0  0  0  0  0  0  0
  -14.7126   11.8117   20.9098 C   0  0  2  0  0  0  0  0  0  0  0  0
  -13.8122   11.1010   19.9752 O   0  0  0  0  0  0  0  0  0  0  0  0
  -14.8347   13.2509   20.3965 C   0  0  2  0  0  0  0  0  0  0  0  0
  -15.3681   13.2465   19.1124 O   0  0  0  0  0  0  0  0  0  0  0  0
  -13.4863   13.9879   20.3006 C   0  0  0  0  0  0  0  0  0  0  0  0
  -17.1465    7.5446   16.8509 C   0  0  2  0  0  0  0  0  0  0  0  0
  -17.9426    7.5005   15.5980 N   0  3  0  0  0  0  0  0  0  0  0  0
  -17.8872    8.3693   17.9452 C   0  0  0  0  0  0  0  0  0  0  0  0
  -17.0284    8.4254   19.2603 C   0  0  2  0  0  0  0  0  0  0  0  0
  -17.7745    9.2213   20.3026 N   0  3  0  0  0  0  0  0  0  0  0  0
  -15.6302    9.0567   18.9398 C   0  0  2  0  0  0  0  0  0  0  0  0
  -14.9165    8.2109   17.8570 C   0  0  2  0  0  0  0  0  0  0  0  0
  -13.6781    8.8060   17.5533 O   0  0  0  0  0  0  0  0  0  0  0  0
  -15.7695    8.1788   16.5606 C   0  0  1  0  0  0  0  0  0  0  0  0
  -15.0957    7.4010   15.5821 O   0  0  0  0  0  0  0  0  0  0  0  0
  -14.4887    8.0575   14.5036 C   0  0  2  0  0  0  0  0  0  0  0  0
  -14.1176    6.9865   13.4604 C   0  0  2  0  0  0  0  0  0  0  0  0
  -15.2957    6.3448   13.0210 O   0  0  0  0  0  0  0  0  0  0  0  0
  -13.1319    5.9568   14.1107 C   0  0  1  0  0  0  0  0  0  0  0  0
  -12.7474    4.8710   13.1762 N   0  3  0  0  0  0  0  0  0  0  0  0
  -13.8623    3.9050   13.0034 C   0  0  0  0  0  0  0  0  0  0  0  0
  -11.8520    6.7128   14.6081 C   0  0  2  0  0  0  0  0  0  0  0  0
  -11.2000    7.3558   13.4968 O   0  0  0  0  0  0  0  0  0  0  0  0
  -10.8901    5.8135   15.2192 C   0  0  0  0  0  0  0  0  0  0  0  0
  -12.2529    7.8521   15.5952 C   0  0  0  0  0  0  0  0  0  0  0  0
  -13.2774    8.7525   14.9718 O   0  0  0  0  0  0  0  0  0  0  0  0
  1  2  1  1  0  0  0
  1  3  1  0  0  0  0
  1 10  1  0  0  0  0
  3  4  1  1  0  0  0
  3  5  1  0  0  0  0
  5  6  1  1  0  0  0
  5  7  1  0  0  0  0
  7  8  1  1  0  0  0
  7  9  1  0  0  0  0
  9 10  1  6  0  0  0
  9 11  1  0  0  0  0
 11 12  1  6  0  0  0
 11 13  1  0  0  0  0
 14 15  1  6  0  0  0
 14 16  1  0  0  0  0
 14 22  1  0  0  0  0
 16 17  1  0  0  0  0
 17 18  1  1  0  0  0
 17 19  1  0  0  0  0
 19  2  1  1  0  0  0
 19 20  1  0  0  0  0
 20 21  1  6  0  0  0
 20 22  1  0  0  0  0
 22 23  1  6  0  0  0
 24 23  1  1  0  0  0
 24 25  1  0  0  0  0
 24 34  1  0  0  0  0
 25 26  1  1  0  0  0
 25 27  1  0  0  0  0
 27 28  1  6  0  0  0
 27 30  1  0  0  0  0
 28 29  1  0  0  0  0
 30 31  1  6  0  0  0
 30 32  1  0  0  0  0
 30 33  1  0  0  0  0
 33 34  1  0  0  0  0
M  CHG  4   4   1  15   1  18   1  28   1
M  END
>  <CHROM.1>
179.01219999,-171.30974467,170.96476196,-62.60790355,-61.53723672,-177.34536990
61.21228847,-48.58069858,55.95417501,-54.89594505,133.11633443,-167.70463272
80.91276312,45.36765118,56.25240279,-14.41446498,8.80133698,17.90938960,-1.67929994
0.04209969,-2.13125503

>  <Name>
1mwl

>  <RI>
0

>  <Rbt.Current_Directory>
/home/itssahil/PROJECTS/Mol_Feturizer/New_Systems/rnas/1mwl

>  <Rbt.Executable>
rbdock ($Id: //depot/dev/client3/rdock/2013.1/src/exe/rbdock.cxx#4 $)

>  <Rbt.Library>
libRbt.so (2013.1, Build901 2013/11/27)

>  <Rbt.Parameter_File>
/export/apps/rDock/src/rDock_2013.1_src/data/scripts/dock_solv.prm

>  <Rbt.Receptor>
prm/pocket_docking_8.prm

>  <SCORE>
-44.7915

>  <SCORE.INTER>
-27.1941

>  <SCORE.INTER.CONST>
1

>  <SCORE.INTER.POLAR>
-4.18981

>  <SCORE.INTER.ROT>
6

>  <SCORE.INTER.SOLV>
13.7184

>  <SCORE.INTER.VDW>
-16.3361

>  <SCORE.INTER.norm>
-0.799825

>  <SCORE.INTRA>
-17.5975

>  <SCORE.INTRA.DIHEDRAL>
-31.2687

>  <SCORE.INTRA.DIHEDRAL.0>
42.0816

>  <SCORE.INTRA.POLAR>
0.254682

>  <SCORE.INTRA.POLAR.0>
-0.254682

>  <SCORE.INTRA.REPUL>
0

>  <SCORE.INTRA.REPUL.0>
0

>  <SCORE.INTRA.SOLV>
-3.42731

>  <SCORE.INTRA.SOLV.lig_0>
-109.803

>  <SCORE.INTRA.VDW>
-1.1154

>  <SCORE.INTRA.VDW.0>
0.32176

>  <SCORE.INTRA.norm>
-0.517573

>  <SCORE.RESTR>
0

>  <SCORE.RESTR.CAVITY>
0

>  <SCORE.RESTR.norm>
0

>  <SCORE.SYSTEM>
0

>  <SCORE.SYSTEM.CONST>
0

>  <SCORE.SYSTEM.DIHEDRAL>
0

>  <SCORE.SYSTEM.SOLV>
0

>  <SCORE.SYSTEM.norm>
0

>  <SCORE.heavy>
34

>  <SCORE.norm>
-1.3174

>  <RMSD>
6.183

$$$$
1mwl
 OpenBabel11021811403D
libRbt.so/2013.1/901 2013/11/27
 34 36  0  0  0  0  0  0  0  0999 V2000
  -11.7986    2.8087   20.1781 C   0  0  2  0  0  0  0  0  0  0  0  0
  -12.1852    1.8115   19.2810 O   0  0  0  0  0  0  0  0  0  0  0  0
  -11.2172    2.1034   21.4357 C   0  0  2  0  0  0  0  0  0  0  0  0
  -10.0792    1.2587   21.0605 N   0  3  0  0  0  0  0  0  0  0  0  0
  -12.3212    1.2819   22.1636 C   0  0  1  0  0  0  0  0  0  0  0  0
  -11.8273    0.6841   23.2766 O   0  0  0  0  0  0  0  0  0  0  0  0
  -13.5014    2.2430   22.5254 C   0  0  2  0  0  0  0  0  0  0  0  0
  -14.5411    1.5150   23.2120 O   0  0  0  0  0  0  0  0  0  0  0  0
  -14.0375    2.8857   21.2013 C   0  0  2  0  0  0  0  0  0  0  0  0
  -12.9540    3.6199   20.5113 O   0  0  0  0  0  0  0  0  0  0  0  0
  -15.1904    3.8778   21.3928 C   0  0  2  0  0  0  0  0  0  0  0  0
  -15.8296    4.0933   20.1769 O   0  0  0  0  0  0  0  0  0  0  0  0
  -14.7366    5.2615   21.8926 C   0  0  0  0  0  0  0  0  0  0  0  0
  -10.3851    2.9926   15.5899 C   0  0  2  0  0  0  0  0  0  0  0  0
  -10.1310    3.1356   14.1338 N   0  3  0  0  0  0  0  0  0  0  0  0
  -10.2626    1.5026   16.0266 C   0  0  0  0  0  0  0  0  0  0  0  0
  -10.5513    1.3596   17.5649 C   0  0  2  0  0  0  0  0  0  0  0  0
  -10.4162   -0.0906   17.9591 N   0  3  0  0  0  0  0  0  0  0  0  0
  -11.9834    1.9143   17.8773 C   0  0  2  0  0  0  0  0  0  0  0  0
  -12.0705    3.3972   17.4406 C   0  0  2  0  0  0  0  0  0  0  0  0
  -13.3698    3.8740   17.6945 O   0  0  0  0  0  0  0  0  0  0  0  0
  -11.7987    3.5190   15.9173 C   0  0  1  0  0  0  0  0  0  0  0  0
  -11.8860    4.8849   15.5390 O   0  0  0  0  0  0  0  0  0  0  0  0
  -12.3347    5.1973   14.2492 C   0  0  2  0  0  0  0  0  0  0  0  0
  -12.3000    6.7308   14.1067 C   0  0  2  0  0  0  0  0  0  0  0  0
  -10.9705    7.1775   14.2660 O   0  0  0  0  0  0  0  0  0  0  0  0
  -13.2353    7.3679   15.1903 C   0  0  1  0  0  0  0  0  0  0  0  0
  -13.2351    8.8503   15.1395 N   0  3  0  0  0  0  0  0  0  0  0  0
  -12.7081    9.4210   16.4055 C   0  0  0  0  0  0  0  0  0  0  0  0
  -14.6932    6.8262   14.9950 C   0  0  2  0  0  0  0  0  0  0  0  0
  -15.1759    7.1801   13.6853 O   0  0  0  0  0  0  0  0  0  0  0  0
  -15.6168    7.3824   15.9670 C   0  0  0  0  0  0  0  0  0  0  0  0
  -14.6972    5.2674   15.0530 C   0  0  0  0  0  0  0  0  0  0  0  0
  -13.7108    4.7015   14.0755 O   0  0  0  0  0  0  0  0  0  0  0  0
  1  2  1  6  0  0  0
  1  3  1  0  0  0  0
  1 10  1  0  0  0  0
  3  4  1  6  0  0  0
  3  5  1  0  0  0  0
  5  6  1  1  0  0  0
  5  7  1  0  0  0  0
  7  8  1  6  0  0  0
  7  9  1  0  0  0  0
  9 10  1  1  0  0  0
  9 11  1  0  0  0  0
 11 12  1  6  0  0  0
 11 13  1  0  0  0  0
 14 15  1  6  0  0  0
 14 16  1  0  0  0  0
 14 22  1  0  0  0  0
 16 17  1  0  0  0  0
 17 18  1  6  0  0  0
 17 19  1  0  0  0  0
 19  2  1  1  0  0  0
 19 20  1  0  0  0  0
 20 21  1  6  0  0  0
 20 22  1  0  0  0  0
 22 23  1  1  0  0  0
 24 23  1  1  0  0  0
 24 25  1  0  0  0  0
 24 34  1  0  0  0  0
 25 26  1  1  0  0  0
 25 27  1  0  0  0  0
 27 28  1  6  0  0  0
 27 30  1  0  0  0  0
 28 29  1  0  0  0  0
 30 31  1  6  0  0  0
 30 32  1  0  0  0  0
 30 33  1  0  0  0  0
 33 34  1  0  0  0  0
M  CHG  4   4   1  15   1  18   1  28   1
M  END
>  <CHROM.1>
-140.23174564,87.44842213,177.78022534,-43.98601886,64.49492504,-163.29081684
-178.84012673,-49.47063726,82.42985464,-47.80942832,91.17006838,-178.81753032
62.54507418,2.55505519,-66.94981806,-12.69866609,3.99722171,17.86233322,-1.48075101
0.78627867,-1.01888545

>  <Name>
1mwl

>  <RI>
0

>  <Rbt.Current_Directory>
/home/itssahil/PROJECTS/Mol_Feturizer/New_Systems/rnas/1mwl

>  <Rbt.Executable>
rbdock ($Id: //depot/dev/client3/rdock/2013.1/src/exe/rbdock.cxx#4 $)

>  <Rbt.Library>
libRbt.so (2013.1, Build901 2013/11/27)

>  <Rbt.Parameter_File>
/export/apps/rDock/src/rDock_2013.1_src/data/scripts/dock_solv.prm

>  <Rbt.Receptor>
prm/pocket_docking_6.prm

>  <SCORE>
-37.6573

>  <SCORE.INTER>
-29.8857

>  <SCORE.INTER.CONST>
1

>  <SCORE.INTER.POLAR>
-5.59065

>  <SCORE.INTER.ROT>
6

>  <SCORE.INTER.SOLV>
22.0115

>  <SCORE.INTER.VDW>
-16.2255

>  <SCORE.INTER.norm>
-0.878991

>  <SCORE.INTRA>
-7.94823

>  <SCORE.INTRA.DIHEDRAL>
-21.5357

>  <SCORE.INTRA.DIHEDRAL.0>
42.0816

>  <SCORE.INTRA.POLAR>
0.240744

>  <SCORE.INTRA.POLAR.0>
-0.254682

>  <SCORE.INTRA.REPUL>
0.215877

>  <SCORE.INTRA.REPUL.0>
0

>  <SCORE.INTRA.SOLV>
2.64442

>  <SCORE.INTRA.SOLV.lig_0>
-109.803

>  <SCORE.INTRA.VDW>
-0.400518

>  <SCORE.INTRA.VDW.0>
0.32176

>  <SCORE.INTRA.norm>
-0.233771

>  <SCORE.RESTR>
0.176625

>  <SCORE.RESTR.CAVITY>
0.176625

>  <SCORE.RESTR.norm>
0.00519486

>  <SCORE.SYSTEM>
0

>  <SCORE.SYSTEM.CONST>
0

>  <SCORE.SYSTEM.DIHEDRAL>
0

>  <SCORE.SYSTEM.SOLV>
0

>  <SCORE.SYSTEM.norm>
0

>  <SCORE.heavy>
34

>  <SCORE.norm>
-1.10757

>  <RMSD>
6.210

$$$$
1mwl
 OpenBabel11021811403D
libRbt.so/2013.1/901 2013/11/27
 34 36  0  0  0  0  0  0  0  0999 V2000
  -14.5168   11.9054   19.8477 C   0  0  2  0  0  0  0  0  0  0  0  0
  -14.3366   12.2533   18.5078 O   0  0  0  0  0  0  0  0  0  0  0  0
  -14.2989   13.1902   20.6955 C   0  0  2  0  0  0  0  0  0  0  0  0
  -15.2463   14.2319   20.2869 N   0  3  0  0  0  0  0  0  0  0  0  0
  -12.8263   13.6815   20.5784 C   0  0  1  0  0  0  0  0  0  0  0  0
  -12.6219   14.7881   21.3361 O   0  0  0  0  0  0  0  0  0  0  0  0
  -11.8762   12.5204   21.0218 C   0  0  2  0  0  0  0  0  0  0  0  0
  -10.4999   12.9452   20.9351 O   0  0  0  0  0  0  0  0  0  0  0  0
  -12.1475   11.2825   20.1010 C   0  0  2  0  0  0  0  0  0  0  0  0
  -13.5649   10.8694   20.2002 O   0  0  0  0  0  0  0  0  0  0  0  0
  -11.3034   10.0452   20.4272 C   0  0  2  0  0  0  0  0  0  0  0  0
  -11.3433    9.1561   19.3590 O   0  0  0  0  0  0  0  0  0  0  0  0
  -11.8028    9.2647   21.6568 C   0  0  0  0  0  0  0  0  0  0  0  0
  -16.5601    9.3552   16.2905 C   0  0  2  0  0  0  0  0  0  0  0  0
  -17.3740    8.7303   15.2170 N   0  3  0  0  0  0  0  0  0  0  0  0
  -17.3377   10.5272   16.9595 C   0  0  0  0  0  0  0  0  0  0  0  0
  -16.4611   11.1933   18.0811 C   0  0  2  0  0  0  0  0  0  0  0  0
  -17.2431   12.3168   18.7159 N   0  3  0  0  0  0  0  0  0  0  0  0
  -15.1180   11.7033   17.4549 C   0  0  2  0  0  0  0  0  0  0  0  0
  -14.3655   10.5156   16.8066 C   0  0  2  0  0  0  0  0  0  0  0  0
  -13.1788   10.9912   16.2185 O   0  0  0  0  0  0  0  0  0  0  0  0
  -15.2378    9.8796   15.6913 C   0  0  1  0  0  0  0  0  0  0  0  0
  -14.5281    8.7958   15.1098 O   0  0  0  0  0  0  0  0  0  0  0  0
  -13.3265    9.0618   14.4403 C   0  0  2  0  0  0  0  0  0  0  0  0
  -13.1605    7.9904   13.3460 C   0  0  2  0  0  0  0  0  0  0  0  0
  -14.2383    8.0878   12.4397 O   0  0  0  0  0  0  0  0  0  0  0  0
  -13.1221    6.5745   14.0158 C   0  0  1  0  0  0  0  0  0  0  0  0
  -12.9932    5.4802   13.0229 N   0  3  0  0  0  0  0  0  0  0  0  0
  -14.3213    4.8934   12.7100 C   0  0  0  0  0  0  0  0  0  0  0  0
  -11.9300    6.5179   15.0321 C   0  0  2  0  0  0  0  0  0  0  0  0
  -10.6872    6.7496   14.3428 O   0  0  0  0  0  0  0  0  0  0  0  0
  -11.8328    5.2263   15.6876 C   0  0  0  0  0  0  0  0  0  0  0  0
  -12.0657    7.6647   16.0808 C   0  0  0  0  0  0  0  0  0  0  0  0
  -12.2074    8.9909   15.3953 O   0  0  0  0  0  0  0  0  0  0  0  0
  1  2  1  6  0  0  0
  1  3  1  0  0  0  0
  1 10  1  0  0  0  0
  3  4  1  6  0  0  0
  3  5  1  0  0  0  0
  5  6  1  1  0  0  0
  5  7  1  0  0  0  0
  7  8  1  6  0  0  0
  7  9  1  0  0  0  0
  9 10  1  1  0  0  0
  9 11  1  0  0  0  0
 11 12  1  6  0  0  0
 11 13  1  0  0  0  0
 14 15  1  6  0  0  0
 14 16  1  0  0  0  0
 14 22  1  0  0  0  0
 16 17  1  0  0  0  0
 17 18  1  6  0  0  0
 17 19  1  0  0  0  0
 19  2  1  1  0  0  0
 19 20  1  0  0  0  0
 20 21  1  6  0  0  0
 20 22  1  0  0  0  0
 22 23  1  1  0  0  0
 24 23  1  1  0  0  0
 24 25  1  0  0  0  0
 24 34  1  0  0  0  0
 25 26  1  6  0  0  0
 25 27  1  0  0  0  0
 27 28  1  6  0  0  0
 27 30  1  0  0  0  0
 28 29  1  0  0  0  0
 30 31  1  6  0  0  0
 30 32  1  0  0  0  0
 30 33  1  0  0  0  0
 33 34  1  0  0  0  0
M  CHG  4   4   1  15   1  18   1  28   1
M  END
>  <CHROM.1>
-142.78236419,22.65074370,-164.89919593,-166.77639365,85.03833538,-163.72189014
88.74982069,78.63245949,33.34167082,147.58272264,176.54800121,-150.94423329
174.94242493,22.72941285,-173.50127783,-13.62223497,9.93531122,17.28622815
1.57290271,-0.41411495,0.83605716

>  <Name>
1mwl

>  <RI>
0

>  <Rbt.Current_Directory>
/home/itssahil/PROJECTS/Mol_Feturizer/New_Systems/rnas/1mwl

>  <Rbt.Executable>
rbdock ($Id: //depot/dev/client3/rdock/2013.1/src/exe/rbdock.cxx#4 $)

>  <Rbt.Library>
libRbt.so (2013.1, Build901 2013/11/27)

>  <Rbt.Parameter_File>
/export/apps/rDock/src/rDock_2013.1_src/data/scripts/dock_solv.prm

>  <Rbt.Receptor>
prm/blind_docking_80.prm

>  <SCORE>
-26.3487

>  <SCORE.INTER>
-42.437

>  <SCORE.INTER.CONST>
1

>  <SCORE.INTER.POLAR>
-5.58008

>  <SCORE.INTER.ROT>
6

>  <SCORE.INTER.SOLV>
22.9607

>  <SCORE.INTER.VDW>
-24.9446

>  <SCORE.INTER.norm>
-1.24815

>  <SCORE.INTRA>
-3.23926

>  <SCORE.INTRA.DIHEDRAL>
-11.134

>  <SCORE.INTRA.DIHEDRAL.0>
42.0816

>  <SCORE.INTRA.POLAR>
-0.256942

>  <SCORE.INTRA.POLAR.0>
-0.254682

>  <SCORE.INTRA.REPUL>
0

>  <SCORE.INTRA.REPUL.0>
0

>  <SCORE.INTRA.SOLV>
2.07464

>  <SCORE.INTRA.SOLV.lig_0>
-109.803

>  <SCORE.INTRA.VDW>
2.16402

>  <SCORE.INTRA.VDW.0>
0.32176

>  <SCORE.INTRA.norm>
-0.0952725

>  <SCORE.RESTR>
19.3275

>  <SCORE.RESTR.CAVITY>
19.3275

>  <SCORE.RESTR.norm>
0.568456

>  <SCORE.SYSTEM>
0

>  <SCORE.SYSTEM.CONST>
0

>  <SCORE.SYSTEM.DIHEDRAL>
0

>  <SCORE.SYSTEM.SOLV>
0

>  <SCORE.SYSTEM.norm>
0

>  <SCORE.heavy>
34

>  <SCORE.norm>
-0.774963

>  <RMSD>
6.262

$$$$
1mwl
 OpenBabel11021811403D
libRbt.so/2013.1/901 2013/11/27
 34 36  0  0  0  0  0  0  0  0999 V2000
  -12.9933    8.1226   20.3735 C   0  0  2  0  0  0  0  0  0  0  0  0
  -12.5312    6.8455   20.6963 O   0  0  0  0  0  0  0  0  0  0  0  0
  -12.6947    9.0463   21.5878 C   0  0  2  0  0  0  0  0  0  0  0  0
  -11.2562    9.0597   21.8708 N   0  3  0  0  0  0  0  0  0  0  0  0
  -13.5162    8.5993   22.8323 C   0  0  1  0  0  0  0  0  0  0  0  0
  -13.2803    9.4164   23.8891 O   0  0  0  0  0  0  0  0  0  0  0  0
  -15.0345    8.6019   22.4551 C   0  0  2  0  0  0  0  0  0  0  0  0
  -15.8286    8.2010   23.5913 O   0  0  0  0  0  0  0  0  0  0  0  0
  -15.2436    7.6298   21.2447 C   0  0  2  0  0  0  0  0  0  0  0  0
  -14.4152    8.0555   20.0949 O   0  0  0  0  0  0  0  0  0  0  0  0
  -16.6878    7.5395   20.7386 C   0  0  2  0  0  0  0  0  0  0  0  0
  -16.7726    6.5833   19.7327 O   0  0  0  0  0  0  0  0  0  0  0  0
  -17.2111    8.8532   20.1299 C   0  0  0  0  0  0  0  0  0  0  0  0
  -12.1718    3.2196   18.4640 C   0  0  2  0  0  0  0  0  0  0  0  0
  -12.5347    1.9896   17.7151 N   0  3  0  0  0  0  0  0  0  0  0  0
  -12.6643    3.1317   19.9390 C   0  0  0  0  0  0  0  0  0  0  0  0
  -12.2917    4.4452   20.7175 C   0  0  2  0  0  0  0  0  0  0  0  0
  -12.7724    4.3267   22.1428 N   0  3  0  0  0  0  0  0  0  0  0  0
  -12.9311    5.6777   19.9906 C   0  0  2  0  0  0  0  0  0  0  0  0
  -12.4162    5.7425   18.5319 C   0  0  2  0  0  0  0  0  0  0  0  0
  -13.0227    6.8320   17.8798 O   0  0  0  0  0  0  0  0  0  0  0  0
  -12.8058    4.4457   17.7731 C   0  0  1  0  0  0  0  0  0  0  0  0
  -12.3264    4.5280   16.4390 O   0  0  0  0  0  0  0  0  0  0  0  0
  -10.9489    4.4118   16.2119 C   0  0  2  0  0  0  0  0  0  0  0  0
  -10.5503    5.5160   15.2146 C   0  0  2  0  0  0  0  0  0  0  0  0
  -10.8306    6.7756   15.7868 O   0  0  0  0  0  0  0  0  0  0  0  0
  -11.3520    5.3184   13.8830 C   0  0  1  0  0  0  0  0  0  0  0  0
  -11.0462    6.3635   12.8759 N   0  3  0  0  0  0  0  0  0  0  0  0
  -11.6481    7.6640   13.2665 C   0  0  0  0  0  0  0  0  0  0  0  0
  -11.0335    3.9003   13.2959 C   0  0  2  0  0  0  0  0  0  0  0  0
   -9.6244    3.7890   13.0214 O   0  0  0  0  0  0  0  0  0  0  0  0
  -11.7424    3.6522   12.0536 C   0  0  0  0  0  0  0  0  0  0  0  0
  -11.3590    2.7986   14.3512 C   0  0  0  0  0  0  0  0  0  0  0  0
  -10.6560    3.0844   15.6446 O   0  0  0  0  0  0  0  0  0  0  0  0
  1  2  1  1  0  0  0
  1  3  1  0  0  0  0
  1 10  1  0  0  0  0
  3  4  1  1  0  0  0
  3  5  1  0  0  0  0
  5  6  1  1  0  0  0
  5  7  1  0  0  0  0
  7  8  1  1  0  0  0
  7  9  1  0  0  0  0
  9 10  1  6  0  0  0
  9 11  1  0  0  0  0
 11 12  1  6  0  0  0
 11 13  1  0  0  0  0
 14 15  1  6  0  0  0
 14 16  1  0  0  0  0
 14 22  1  0  0  0  0
 16 17  1  0  0  0  0
 17 18  1  1  0  0  0
 17 19  1  0  0  0  0
 19  2  1  1  0  0  0
 19 20  1  0  0  0  0
 20 21  1  6  0  0  0
 20 22  1  0  0  0  0
 22 23  1  6  0  0  0
 24 23  1  6  0  0  0
 24 25  1  0  0  0  0
 24 34  1  0  0  0  0
 25 26  1  1  0  0  0
 25 27  1  0  0  0  0
 27 28  1  6  0  0  0
 27 30  1  0  0  0  0
 28 29  1  0  0  0  0
 30 31  1  6  0  0  0
 30 32  1  0  0  0  0
 30 33  1  0  0  0  0
 33 34  1  0  0  0  0
M  CHG  4   4   1  15   1  18   1  28   1
M  END
>  <CHROM.1>
163.26368989,-175.65031451,36.43040990,35.31455750,-59.32875073,-175.79697238
59.41119738,72.37578449,177.90124886,-56.21237178,-48.03247271,-135.13381251
58.06101226,47.68558960,-57.17076617,-12.76751080,6.01956742,18.37896990
2.93304299,-1.19564787,2.48503060

>  <Name>
1mwl

>  <RI>
0

>  <Rbt.Current_Directory>
/home/itssahil/PROJECTS/Mol_Feturizer/New_Systems/rnas/1mwl

>  <Rbt.Executable>
rbdock ($Id: //depot/dev/client3/rdock/2013.1/src/exe/rbdock.cxx#4 $)

>  <Rbt.Library>
libRbt.so (2013.1, Build901 2013/11/27)

>  <Rbt.Parameter_File>
/export/apps/rDock/src/rDock_2013.1_src/data/scripts/dock_solv.prm

>  <Rbt.Receptor>
prm/pocket_docking_6.prm

>  <SCORE>
-33.8913

>  <SCORE.INTER>
-16.4849

>  <SCORE.INTER.CONST>
1

>  <SCORE.INTER.POLAR>
-4.10608

>  <SCORE.INTER.ROT>
6

>  <SCORE.INTER.SOLV>
9.87112

>  <SCORE.INTER.VDW>
-8.19337

>  <SCORE.INTER.norm>
-0.48485

>  <SCORE.INTRA>
-17.4064

>  <SCORE.INTRA.DIHEDRAL>
-29.0115

>  <SCORE.INTRA.DIHEDRAL.0>
42.0816

>  <SCORE.INTRA.POLAR>
-0.257854

>  <SCORE.INTRA.POLAR.0>
-0.254682

>  <SCORE.INTRA.REPUL>
0

>  <SCORE.INTRA.REPUL.0>
0

>  <SCORE.INTRA.SOLV>
-1.62125

>  <SCORE.INTRA.SOLV.lig_0>
-109.803

>  <SCORE.INTRA.VDW>
-1.21329

>  <SCORE.INTRA.VDW.0>
0.32176

>  <SCORE.INTRA.norm>
-0.511952

>  <SCORE.RESTR>
0

>  <SCORE.RESTR.CAVITY>
0

>  <SCORE.RESTR.norm>
0

>  <SCORE.SYSTEM>
0

>  <SCORE.SYSTEM.CONST>
0

>  <SCORE.SYSTEM.DIHEDRAL>
0

>  <SCORE.SYSTEM.SOLV>
0

>  <SCORE.SYSTEM.norm>
0

>  <SCORE.heavy>
34

>  <SCORE.norm>
-0.996802

>  <RMSD>
6.282

$$$$
1mwl
 OpenBabel11021811403D
libRbt.so/2013.1/901 2013/11/27
 34 36  0  0  0  0  0  0  0  0999 V2000
   -5.2317    5.7108   24.3245 C   0  0  2  0  0  0  0  0  0  0  0  0
   -6.1036    6.7624   24.0376 O   0  0  0  0  0  0  0  0  0  0  0  0
   -5.6267    5.1457   25.7180 C   0  0  2  0  0  0  0  0  0  0  0  0
   -7.0197    4.6890   25.7016 N   0  3  0  0  0  0  0  0  0  0  0  0
   -5.3889    6.2100   26.8290 C   0  0  1  0  0  0  0  0  0  0  0  0
   -5.7073    5.7154   28.0514 O   0  0  0  0  0  0  0  0  0  0  0  0
   -3.8895    6.6541   26.7819 C   0  0  2  0  0  0  0  0  0  0  0  0
   -3.6305    7.6355   27.8075 O   0  0  0  0  0  0  0  0  0  0  0  0
   -3.5906    7.2301   25.3561 C   0  0  2  0  0  0  0  0  0  0  0  0
   -3.8698    6.2102   24.3212 O   0  0  0  0  0  0  0  0  0  0  0  0
   -2.1442    7.6908   25.1426 C   0  0  2  0  0  0  0  0  0  0  0  0
   -2.0252    8.2988   23.8979 O   0  0  0  0  0  0  0  0  0  0  0  0
   -1.1215    6.5400   25.1598 C   0  0  0  0  0  0  0  0  0  0  0  0
   -9.2028    7.5132   21.1931 C   0  0  2  0  0  0  0  0  0  0  0  0
   -9.9081    7.6878   19.8980 N   0  3  0  0  0  0  0  0  0  0  0  0
   -8.0765    8.5769   21.3546 C   0  0  0  0  0  0  0  0  0  0  0  0
   -7.3246    8.3720   22.7194 C   0  0  2  0  0  0  0  0  0  0  0  0
   -6.2478    9.4207   22.8511 N   0  3  0  0  0  0  0  0  0  0  0  0
   -6.7314    6.9222   22.7719 C   0  0  2  0  0  0  0  0  0  0  0  0
   -7.8746    5.8896   22.6176 C   0  0  2  0  0  0  0  0  0  0  0  0
   -7.3265    4.5937   22.6321 O   0  0  0  0  0  0  0  0  0  0  0  0
   -8.5963    6.0953   21.2589 C   0  0  1  0  0  0  0  0  0  0  0  0
   -9.6376    5.1374   21.1379 O   0  0  0  0  0  0  0  0  0  0  0  0
  -10.5255    4.9717   22.2088 C   0  0  2  0  0  0  0  0  0  0  0  0
  -11.1791    3.5851   22.0566 C   0  0  2  0  0  0  0  0  0  0  0  0
  -10.1755    2.5944   22.1169 O   0  0  0  0  0  0  0  0  0  0  0  0
  -11.9405    3.5243   20.6886 C   0  0  1  0  0  0  0  0  0  0  0  0
  -12.5761    2.2053   20.4510 N   0  3  0  0  0  0  0  0  0  0  0  0
  -12.2457    1.6977   19.0948 C   0  0  0  0  0  0  0  0  0  0  0  0
  -13.0252    4.6552   20.6523 C   0  0  2  0  0  0  0  0  0  0  0  0
  -13.9655    4.4667   21.7264 O   0  0  0  0  0  0  0  0  0  0  0  0
  -13.7747    4.6528   19.4091 C   0  0  0  0  0  0  0  0  0  0  0  0
  -12.3588    6.0442   20.8969 C   0  0  0  0  0  0  0  0  0  0  0  0
  -11.5528    6.0261   22.1613 O   0  0  0  0  0  0  0  0  0  0  0  0
  1  2  1  1  0  0  0
  1  3  1  0  0  0  0
  1 10  1  0  0  0  0
  3  4  1  6  0  0  0
  3  5  1  0  0  0  0
  5  6  1  1  0  0  0
  5  7  1  0  0  0  0
  7  8  1  1  0  0  0
  7  9  1  0  0  0  0
  9 10  1  6  0  0  0
  9 11  1  0  0  0  0
 11 12  1  6  0  0  0
 11 13  1  0  0  0  0
 14 15  1  6  0  0  0
 14 16  1  0  0  0  0
 14 22  1  0  0  0  0
 16 17  1  0  0  0  0
 17 18  1  6  0  0  0
 17 19  1  0  0  0  0
 19  2  1  1  0  0  0
 19 20  1  0  0  0  0
 20 21  1  6  0  0  0
 20 22  1  0  0  0  0
 22 23  1  1  0  0  0
 24 23  1  6  0  0  0
 24 25  1  0  0  0  0
 24 34  1  0  0  0  0
 25 26  1  6  0  0  0
 25 27  1  0  0  0  0
 27 28  1  1  0  0  0
 27 30  1  0  0  0  0
 28 29  1  0  0  0  0
 30 31  1  1  0  0  0
 30 32  1  0  0  0  0
 30 33  1  0  0  0  0
 33 34  1  0  0  0  0
M  CHG  4   4   1  15   1  18   1  28   1
M  END
>  <CHROM.1>
-134.74611497,-165.96884558,33.58170594,-177.33418749,74.84853902,-174.25493659
175.55106203,128.98811952,-156.16338824,-53.30818142,-71.36296441,-159.26380872
-57.88687643,-10.99469241,176.90073213,-7.92269133,5.85048550,23.04628111
0.10477254,0.58128155,2.43990065

>  <Name>
1mwl

>  <RI>
0

>  <Rbt.Current_Directory>
/home/itssahil/PROJECTS/Mol_Feturizer/New_Systems/rnas/1mwl

>  <Rbt.Executable>
rbdock ($Id: //depot/dev/client3/rdock/2013.1/src/exe/rbdock.cxx#4 $)

>  <Rbt.Library>
libRbt.so (2013.1, Build901 2013/11/27)

>  <Rbt.Parameter_File>
/export/apps/rDock/src/rDock_2013.1_src/data/scripts/dock_solv.prm

>  <Rbt.Receptor>
prm/pocket_docking_7.prm

>  <SCORE>
-39.3146

>  <SCORE.INTER>
-24.6112

>  <SCORE.INTER.CONST>
1

>  <SCORE.INTER.POLAR>
-3.4531

>  <SCORE.INTER.ROT>
6

>  <SCORE.INTER.SOLV>
23.1966

>  <SCORE.INTER.VDW>
-20.2293

>  <SCORE.INTER.norm>
-0.723859

>  <SCORE.INTRA>
-14.7034

>  <SCORE.INTRA.DIHEDRAL>
-21.4126

>  <SCORE.INTRA.DIHEDRAL.0>
42.0816

>  <SCORE.INTRA.POLAR>
-0.900584

>  <SCORE.INTRA.POLAR.0>
-0.254682

>  <SCORE.INTRA.REPUL>
0

>  <SCORE.INTRA.REPUL.0>
0

>  <SCORE.INTRA.SOLV>
0.0940114

>  <SCORE.INTRA.SOLV.lig_0>
-109.803

>  <SCORE.INTRA.VDW>
-0.982104

>  <SCORE.INTRA.VDW.0>
0.32176

>  <SCORE.INTRA.norm>
-0.432453

>  <SCORE.RESTR>
0

>  <SCORE.RESTR.CAVITY>
0

>  <SCORE.RESTR.norm>
0

>  <SCORE.SYSTEM>
0

>  <SCORE.SYSTEM.CONST>
0

>  <SCORE.SYSTEM.DIHEDRAL>
0

>  <SCORE.SYSTEM.SOLV>
0

>  <SCORE.SYSTEM.norm>
0

>  <SCORE.heavy>
34

>  <SCORE.norm>
-1.15631

>  <RMSD>
6.444

$$$$
1mwl
 OpenBabel11021811403D
libRbt.so/2013.1/901 2013/11/27
 34 36  0  0  0  0  0  0  0  0999 V2000
   -8.5280    6.4140   20.5927 C   0  0  2  0  0  0  0  0  0  0  0  0
   -8.0846    5.3043   19.8710 O   0  0  0  0  0  0  0  0  0  0  0  0
   -7.5667    6.5981   21.8005 C   0  0  2  0  0  0  0  0  0  0  0  0
   -6.1921    6.7889   21.3277 N   0  3  0  0  0  0  0  0  0  0  0  0
   -7.6715    5.3883   22.7746 C   0  0  1  0  0  0  0  0  0  0  0  0
   -6.8541    5.5539   23.8444 O   0  0  0  0  0  0  0  0  0  0  0  0
   -9.1611    5.2420   23.2300 C   0  0  2  0  0  0  0  0  0  0  0  0
   -9.2937    4.1332   24.1439 O   0  0  0  0  0  0  0  0  0  0  0  0
  -10.0484    5.0366   21.9554 C   0  0  2  0  0  0  0  0  0  0  0  0
   -9.8911    6.1806   21.0303 O   0  0  0  0  0  0  0  0  0  0  0  0
  -11.5491    4.8991   22.2361 C   0  0  2  0  0  0  0  0  0  0  0  0
  -11.8966    3.5534   22.2769 O   0  0  0  0  0  0  0  0  0  0  0  0
  -12.4396    5.5417   21.1570 C   0  0  0  0  0  0  0  0  0  0  0  0
   -8.7906    3.0269   16.3250 C   0  0  2  0  0  0  0  0  0  0  0  0
   -9.4691    2.4599   15.1319 N   0  3  0  0  0  0  0  0  0  0  0  0
   -9.5298    2.6075   17.6302 C   0  0  0  0  0  0  0  0  0  0  0  0
   -8.8150    3.2274   18.8850 C   0  0  2  0  0  0  0  0  0  0  0  0
   -9.5469    2.7967   20.1322 N   0  3  0  0  0  0  0  0  0  0  0  0
   -8.7797    4.7879   18.7433 C   0  0  2  0  0  0  0  0  0  0  0  0
   -8.0321    5.1726   17.4432 C   0  0  2  0  0  0  0  0  0  0  0  0
   -8.0366    6.5733   17.3094 O   0  0  0  0  0  0  0  0  0  0  0  0
   -8.7593    4.5661   16.2132 C   0  0  1  0  0  0  0  0  0  0  0  0
   -8.0590    4.9332   15.0337 O   0  0  0  0  0  0  0  0  0  0  0  0
   -8.2231    6.2306   14.5314 C   0  0  2  0  0  0  0  0  0  0  0  0
   -8.3095    6.1244   12.9970 C   0  0  2  0  0  0  0  0  0  0  0  0
   -9.4304    5.3386   12.6527 O   0  0  0  0  0  0  0  0  0  0  0  0
   -6.9892    5.4802   12.4523 C   0  0  1  0  0  0  0  0  0  0  0  0
   -7.0044    5.3148   10.9784 N   0  3  0  0  0  0  0  0  0  0  0  0
   -7.5167    3.9720   10.6039 C   0  0  0  0  0  0  0  0  0  0  0  0
   -5.7693    6.3675   12.8786 C   0  0  2  0  0  0  0  0  0  0  0  0
   -5.9115    7.6915   12.3306 O   0  0  0  0  0  0  0  0  0  0  0  0
   -4.5091    5.8287   12.4002 C   0  0  0  0  0  0  0  0  0  0  0  0
   -5.7479    6.5389   14.4288 C   0  0  0  0  0  0  0  0  0  0  0  0
   -7.0670    7.0564   14.9197 O   0  0  0  0  0  0  0  0  0  0  0  0
  1  2  1  1  0  0  0
  1  3  1  0  0  0  0
  1 10  1  0  0  0  0
  3  4  1  6  0  0  0
  3  5  1  0  0  0  0
  5  6  1  1  0  0  0
  5  7  1  0  0  0  0
  7  8  1  1  0  0  0
  7  9  1  0  0  0  0
  9 10  1  6  0  0  0
  9 11  1  0  0  0  0
 11 12  1  6  0  0  0
 11 13  1  0  0  0  0
 14 15  1  6  0  0  0
 14 16  1  0  0  0  0
 14 22  1  0  0  0  0
 16 17  1  0  0  0  0
 17 18  1  1  0  0  0
 17 19  1  0  0  0  0
 19  2  1  1  0  0  0
 19 20  1  0  0  0  0
 20 21  1  6  0  0  0
 20 22  1  0  0  0  0
 22 23  1  6  0  0  0
 24 23  1  1  0  0  0
 24 25  1  0  0  0  0
 24 34  1  0  0  0  0
 25 26  1  1  0  0  0
 25 27  1  0  0  0  0
 27 28  1  6  0  0  0
 27 30  1  0  0  0  0
 28 29  1  0  0  0  0
 30 31  1  6  0  0  0
 30 32  1  0  0  0  0
 30 33  1  0  0  0  0
 33 34  1  0  0  0  0
M  CHG  4   4   1  15   1  18   1  28   1
M  END
>  <CHROM.1>
175.84695876,-135.81119051,-157.79468697,73.87893108,-174.06884856,-96.97616300
71.89142505,-50.99498823,56.58877573,-146.34201093,162.31441663,-139.65876636
178.86395145,27.81272923,-51.23316261,-8.34282646,5.19450899,17.66064114
-1.87131379,-0.66511317,-1.69273955

>  <Name>
1mwl

>  <RI>
0

>  <Rbt.Current_Directory>
/home/itssahil/PROJECTS/Mol_Feturizer/New_Systems/rnas/1mwl

>  <Rbt.Executable>
rbdock ($Id: //depot/dev/client3/rdock/2013.1/src/exe/rbdock.cxx#4 $)

>  <Rbt.Library>
libRbt.so (2013.1, Build901 2013/11/27)

>  <Rbt.Parameter_File>
/export/apps/rDock/src/rDock_2013.1_src/data/scripts/dock_solv.prm

>  <Rbt.Receptor>
prm/blind_docking_100.prm

>  <SCORE>
-11.6089

>  <SCORE.INTER>
-27.3222

>  <SCORE.INTER.CONST>
1

>  <SCORE.INTER.POLAR>
-4.59463

>  <SCORE.INTER.ROT>
6

>  <SCORE.INTER.SOLV>
25.5374

>  <SCORE.INTER.VDW>
-19.0118

>  <SCORE.INTER.norm>
-0.803593

>  <SCORE.INTRA>
-0.0816837

>  <SCORE.INTRA.DIHEDRAL>
-15.5692

>  <SCORE.INTRA.DIHEDRAL.0>
42.0816

>  <SCORE.INTRA.POLAR>
-0.507349

>  <SCORE.INTRA.POLAR.0>
-0.254682

>  <SCORE.INTRA.REPUL>
0.0169481

>  <SCORE.INTRA.REPUL.0>
0

>  <SCORE.INTRA.SOLV>
2.64771

>  <SCORE.INTRA.SOLV.lig_0>
-109.803

>  <SCORE.INTRA.VDW>
8.01932

>  <SCORE.INTRA.VDW.0>
0.32176

>  <SCORE.INTRA.norm>
-0.00240246

>  <SCORE.RESTR>
15.7949

>  <SCORE.RESTR.CAVITY>
15.7949

>  <SCORE.RESTR.norm>
0.464556

>  <SCORE.SYSTEM>
0

>  <SCORE.SYSTEM.CONST>
0

>  <SCORE.SYSTEM.DIHEDRAL>
0

>  <SCORE.SYSTEM.SOLV>
0

>  <SCORE.SYSTEM.norm>
0

>  <SCORE.heavy>
34

>  <SCORE.norm>
-0.34144

>  <RMSD>
6.457

$$$$
1mwl
 OpenBabel11021811403D
libRbt.so/2013.1/901 2013/11/27
 34 36  0  0  0  0  0  0  0  0999 V2000
  -13.6119    8.8558   18.4551 C   0  0  2  0  0  0  0  0  0  0  0  0
  -12.6828    9.2295   17.4826 O   0  0  0  0  0  0  0  0  0  0  0  0
  -13.7718   10.0551   19.4313 C   0  0  2  0  0  0  0  0  0  0  0  0
  -14.2196   11.2449   18.7009 N   0  3  0  0  0  0  0  0  0  0  0  0
  -12.4416   10.3222   20.1948 C   0  0  1  0  0  0  0  0  0  0  0  0
  -12.5808   11.3515   21.0674 O   0  0  0  0  0  0  0  0  0  0  0  0
  -12.0232    9.0126   20.9413 C   0  0  2  0  0  0  0  0  0  0  0  0
  -10.7961    9.2273   21.6696 O   0  0  0  0  0  0  0  0  0  0  0  0
  -11.8619    7.8708   19.8810 C   0  0  2  0  0  0  0  0  0  0  0  0
  -13.1286    7.6732   19.1422 O   0  0  0  0  0  0  0  0  0  0  0  0
  -11.4735    6.5070   20.4635 C   0  0  2  0  0  0  0  0  0  0  0  0
  -12.2054    6.2666   21.6210 O   0  0  0  0  0  0  0  0  0  0  0  0
   -9.9900    6.4070   20.8629 C   0  0  0  0  0  0  0  0  0  0  0  0
  -13.0592    6.0909   14.6073 C   0  0  2  0  0  0  0  0  0  0  0  0
  -12.9240    5.3174   13.3468 N   0  3  0  0  0  0  0  0  0  0  0  0
  -13.8400    7.4156   14.3594 C   0  0  0  0  0  0  0  0  0  0  0  0
  -13.9615    8.2351   15.6950 C   0  0  2  0  0  0  0  0  0  0  0  0
  -14.7291    9.5058   15.4256 N   0  3  0  0  0  0  0  0  0  0  0  0
  -12.5274    8.5314   16.2536 C   0  0  2  0  0  0  0  0  0  0  0  0
  -11.7812    7.1970   16.4974 C   0  0  2  0  0  0  0  0  0  0  0  0
  -10.4841    7.4764   16.9662 O   0  0  0  0  0  0  0  0  0  0  0  0
  -11.6559    6.4078   15.1667 C   0  0  1  0  0  0  0  0  0  0  0  0
  -10.9671    5.1907   15.4132 O   0  0  0  0  0  0  0  0  0  0  0  0
   -9.6098    5.2445   15.7558 C   0  0  2  0  0  0  0  0  0  0  0  0
   -8.9289    4.0069   15.1414 C   0  0  2  0  0  0  0  0  0  0  0  0
   -9.0645    4.0568   13.7373 O   0  0  0  0  0  0  0  0  0  0  0  0
   -9.5975    2.7133   15.7199 C   0  0  1  0  0  0  0  0  0  0  0  0
   -9.0159    1.4719   15.1535 N   0  3  0  0  0  0  0  0  0  0  0  0
   -9.8254    0.9863   14.0068 C   0  0  0  0  0  0  0  0  0  0  0  0
   -9.4484    2.7105   17.2803 C   0  0  2  0  0  0  0  0  0  0  0  0
   -8.0539    2.7239   17.6392 O   0  0  0  0  0  0  0  0  0  0  0  0
  -10.0442    1.5320   17.8832 C   0  0  0  0  0  0  0  0  0  0  0  0
  -10.0637    4.0127   17.8792 C   0  0  0  0  0  0  0  0  0  0  0  0
   -9.4733    5.2246   17.2222 O   0  0  0  0  0  0  0  0  0  0  0  0
  1  2  1  6  0  0  0
  1  3  1  0  0  0  0
  1 10  1  0  0  0  0
  3  4  1  6  0  0  0
  3  5  1  0  0  0  0
  5  6  1  1  0  0  0
  5  7  1  0  0  0  0
  7  8  1  6  0  0  0
  7  9  1  0  0  0  0
  9 10  1  1  0  0  0
  9 11  1  0  0  0  0
 11 12  1  1  0  0  0
 11 13  1  0  0  0  0
 14 15  1  6  0  0  0
 14 16  1  0  0  0  0
 14 22  1  0  0  0  0
 16 17  1  0  0  0  0
 17 18  1  6  0  0  0
 17 19  1  0  0  0  0
 19  2  1  1  0  0  0
 19 20  1  0  0  0  0
 20 21  1  6  0  0  0
 20 22  1  0  0  0  0
 22 23  1  1  0  0  0
 24 23  1  1  0  0  0
 24 25  1  0  0  0  0
 24 34  1  0  0  0  0
 25 26  1  6  0  0  0
 25 27  1  0  0  0  0
 27 28  1  6  0  0  0
 27 30  1  0  0  0  0
 28 29  1  0  0  0  0
 30 31  1  1  0  0  0
 30 32  1  0  0  0  0
 30 33  1  0  0  0  0
 33 34  1  0  0  0  0
M  CHG  4   4   1  15   1  18   1  28   1
M  END
>  <CHROM.1>
-164.02204284,44.11185616,159.13005949,172.65812632,69.19514750,42.37239099
-65.99931012,43.21648900,14.19094674,62.92421803,171.58876247,-145.51379269
65.59836537,24.57561036,-54.56149204,-11.45217700,6.48990586,17.39807685
2.26131777,-0.91885430,1.12636216

>  <Name>
1mwl

>  <RI>
0

>  <Rbt.Current_Directory>
/home/itssahil/PROJECTS/Mol_Feturizer/New_Systems/rnas/1mwl

>  <Rbt.Executable>
rbdock ($Id: //depot/dev/client3/rdock/2013.1/src/exe/rbdock.cxx#4 $)

>  <Rbt.Library>
libRbt.so (2013.1, Build901 2013/11/27)

>  <Rbt.Parameter_File>
/export/apps/rDock/src/rDock_2013.1_src/data/scripts/dock_solv.prm

>  <Rbt.Receptor>
prm/pocket_docking_7.prm

>  <SCORE>
-45.1447

>  <SCORE.INTER>
-32.8044

>  <SCORE.INTER.CONST>
1

>  <SCORE.INTER.POLAR>
-5.53538

>  <SCORE.INTER.ROT>
6

>  <SCORE.INTER.SOLV>
13.8788

>  <SCORE.INTER.VDW>
-15.6446

>  <SCORE.INTER.norm>
-0.964835

>  <SCORE.INTRA>
-12.3403

>  <SCORE.INTRA.DIHEDRAL>
-25.5292

>  <SCORE.INTRA.DIHEDRAL.0>
42.0816

>  <SCORE.INTRA.POLAR>
0.200554

>  <SCORE.INTRA.POLAR.0>
-0.254682

>  <SCORE.INTRA.REPUL>
0

>  <SCORE.INTRA.REPUL.0>
0

>  <SCORE.INTRA.SOLV>
0.640191

>  <SCORE.INTRA.SOLV.lig_0>
-109.803

>  <SCORE.INTRA.VDW>
-0.577708

>  <SCORE.INTRA.VDW.0>
0.32176

>  <SCORE.INTRA.norm>
-0.362951

>  <SCORE.RESTR>
0

>  <SCORE.RESTR.CAVITY>
0

>  <SCORE.RESTR.norm>
0

>  <SCORE.SYSTEM>
0

>  <SCORE.SYSTEM.CONST>
0

>  <SCORE.SYSTEM.DIHEDRAL>
0

>  <SCORE.SYSTEM.SOLV>
0

>  <SCORE.SYSTEM.norm>
0

>  <SCORE.heavy>
34

>  <SCORE.norm>
-1.32779

>  <RMSD>
6.476

$$$$
1mwl
 OpenBabel11021811403D
libRbt.so/2013.1/901 2013/11/27
 34 36  0  0  0  0  0  0  0  0999 V2000
   -5.0858    5.9357   24.7007 C   0  0  2  0  0  0  0  0  0  0  0  0
   -6.3553    6.4275   24.3925 O   0  0  0  0  0  0  0  0  0  0  0  0
   -4.9791    5.8607   26.2498 C   0  0  2  0  0  0  0  0  0  0  0  0
   -6.0290    4.9897   26.7870 N   0  3  0  0  0  0  0  0  0  0  0  0
   -5.0458    7.2853   26.8740 C   0  0  1  0  0  0  0  0  0  0  0  0
   -4.9276    7.2300   28.2242 O   0  0  0  0  0  0  0  0  0  0  0  0
   -3.9057    8.1568   26.2510 C   0  0  2  0  0  0  0  0  0  0  0  0
   -3.9316    9.4846   26.8156 O   0  0  0  0  0  0  0  0  0  0  0  0
   -4.1077    8.1960   24.6981 C   0  0  2  0  0  0  0  0  0  0  0  0
   -4.0849    6.8249   24.1424 O   0  0  0  0  0  0  0  0  0  0  0  0
   -3.0479    8.9990   23.9351 C   0  0  2  0  0  0  0  0  0  0  0  0
   -3.4639    9.1954   22.6230 O   0  0  0  0  0  0  0  0  0  0  0  0
   -1.6813    8.2947   23.8533 C   0  0  0  0  0  0  0  0  0  0  0  0
   -9.0051    7.3081   21.1579 C   0  0  2  0  0  0  0  0  0  0  0  0
   -9.5058    7.5760   19.7857 N   0  3  0  0  0  0  0  0  0  0  0  0
   -7.9872    8.4025   21.5962 C   0  0  0  0  0  0  0  0  0  0  0  0
   -7.4498    8.0998   23.0417 C   0  0  2  0  0  0  0  0  0  0  0  0
   -6.4750    9.1800   23.4414 N   0  3  0  0  0  0  0  0  0  0  0  0
   -6.7833    6.6815   23.0606 C   0  0  2  0  0  0  0  0  0  0  0  0
   -7.8210    5.6164   22.6295 C   0  0  2  0  0  0  0  0  0  0  0  0
   -7.2025    4.3526   22.6173 O   0  0  0  0  0  0  0  0  0  0  0  0
   -8.3296    5.9207   21.1949 C   0  0  1  0  0  0  0  0  0  0  0  0
   -9.2768    4.9315   20.8198 O   0  0  0  0  0  0  0  0  0  0  0  0
  -10.3742    4.6999   21.6593 C   0  0  2  0  0  0  0  0  0  0  0  0
  -10.7572    3.2144   21.5197 C   0  0  2  0  0  0  0  0  0  0  0  0
   -9.6682    2.4177   21.9344 O   0  0  0  0  0  0  0  0  0  0  0  0
  -11.1273    2.9181   20.0263 C   0  0  1  0  0  0  0  0  0  0  0  0
  -11.4811    1.4954   19.8007 N   0  3  0  0  0  0  0  0  0  0  0  0
  -10.8504    0.9864   18.5561 C   0  0  0  0  0  0  0  0  0  0  0  0
  -12.3204    3.8404   19.5988 C   0  0  2  0  0  0  0  0  0  0  0  0
  -13.4654    3.5778   20.4315 O   0  0  0  0  0  0  0  0  0  0  0  0
  -12.7194    3.6133   18.2216 C   0  0  0  0  0  0  0  0  0  0  0  0
  -11.9491    5.3377   19.8302 C   0  0  0  0  0  0  0  0  0  0  0  0
  -11.4985    5.5560   21.2437 O   0  0  0  0  0  0  0  0  0  0  0  0
  1  2  1  1  0  0  0
  1  3  1  0  0  0  0
  1 10  1  0  0  0  0
  3  4  1  1  0  0  0
  3  5  1  0  0  0  0
  5  6  1  1  0  0  0
  5  7  1  0  0  0  0
  7  8  1  1  0  0  0
  7  9  1  0  0  0  0
  9 10  1  6  0  0  0
  9 11  1  0  0  0  0
 11 12  1  6  0  0  0
 11 13  1  0  0  0  0
 14 15  1  6  0  0  0
 14 16  1  0  0  0  0
 14 22  1  0  0  0  0
 16 17  1  0  0  0  0
 17 18  1  6  0  0  0
 17 19  1  0  0  0  0
 19  2  1  1  0  0  0
 19 20  1  0  0  0  0
 20 21  1  6  0  0  0
 20 22  1  0  0  0  0
 22 23  1  1  0  0  0
 24 23  1  6  0  0  0
 24 25  1  0  0  0  0
 24 34  1  0  0  0  0
 25 26  1  6  0  0  0
 25 27  1  0  0  0  0
 27 28  1  1  0  0  0
 27 30  1  0  0  0  0
 28 29  1  0  0  0  0
 30 31  1  1  0  0  0
 30 32  1  0  0  0  0
 30 33  1  0  0  0  0
 33 34  1  0  0  0  0
M  CHG  4   4   1  15   1  18   1  28   1
M  END
>  <CHROM.1>
177.26608066,-132.88235531,67.81020218,62.61880672,-175.35231722,-168.02815729
177.95472910,-12.12018973,-73.08267936,-179.76737579,-66.01144350,-149.02075795
85.01780145,-16.58575232,178.83846389,-7.72050544,5.95488094,22.71429553
0.00627153,0.76160520,2.44729149

>  <Name>
1mwl

>  <RI>
0

>  <Rbt.Current_Directory>
/home/itssahil/PROJECTS/Mol_Feturizer/New_Systems/rnas/1mwl

>  <Rbt.Executable>
rbdock ($Id: //depot/dev/client3/rdock/2013.1/src/exe/rbdock.cxx#4 $)

>  <Rbt.Library>
libRbt.so (2013.1, Build901 2013/11/27)

>  <Rbt.Parameter_File>
/export/apps/rDock/src/rDock_2013.1_src/data/scripts/dock_solv.prm

>  <Rbt.Receptor>
prm/pocket_docking_6.prm

>  <SCORE>
-44.9883

>  <SCORE.INTER>
-29.593

>  <SCORE.INTER.CONST>
1

>  <SCORE.INTER.POLAR>
-3.20584

>  <SCORE.INTER.ROT>
6

>  <SCORE.INTER.SOLV>
22.0438

>  <SCORE.INTER.VDW>
-23.9905

>  <SCORE.INTER.norm>
-0.870382

>  <SCORE.INTRA>
-15.416

>  <SCORE.INTRA.DIHEDRAL>
-21.4713

>  <SCORE.INTRA.DIHEDRAL.0>
42.0816

>  <SCORE.INTRA.POLAR>
-1.50101

>  <SCORE.INTRA.POLAR.0>
-0.254682

>  <SCORE.INTRA.REPUL>
0

>  <SCORE.INTRA.REPUL.0>
0

>  <SCORE.INTRA.SOLV>
2.95158

>  <SCORE.INTRA.SOLV.lig_0>
-109.803

>  <SCORE.INTRA.VDW>
-1.0527

>  <SCORE.INTRA.VDW.0>
0.32176

>  <SCORE.INTRA.norm>
-0.453412

>  <SCORE.RESTR>
0.0206683

>  <SCORE.RESTR.CAVITY>
0.0206683

>  <SCORE.RESTR.norm>
0.000607892

>  <SCORE.SYSTEM>
0

>  <SCORE.SYSTEM.CONST>
0

>  <SCORE.SYSTEM.DIHEDRAL>
0

>  <SCORE.SYSTEM.SOLV>
0

>  <SCORE.SYSTEM.norm>
0

>  <SCORE.heavy>
34

>  <SCORE.norm>
-1.32319

>  <RMSD>
6.515

$$$$
1mwl
 OpenBabel11021811403D
libRbt.so/2013.1/901 2013/11/27
 34 36  0  0  0  0  0  0  0  0999 V2000
  -11.1557    9.1686   19.1261 C   0  0  2  0  0  0  0  0  0  0  0  0
  -11.4877    7.8567   19.4687 O   0  0  0  0  0  0  0  0  0  0  0  0
  -11.7376   10.0987   20.2276 C   0  0  2  0  0  0  0  0  0  0  0  0
  -11.1858    9.7376   21.5371 N   0  3  0  0  0  0  0  0  0  0  0  0
  -13.2933   10.0406   20.2292 C   0  0  1  0  0  0  0  0  0  0  0  0
  -13.8093   10.8694   21.1711 O   0  0  0  0  0  0  0  0  0  0  0  0
  -13.8085   10.4290   18.8040 C   0  0  2  0  0  0  0  0  0  0  0  0
  -15.2507   10.3953   18.7716 O   0  0  0  0  0  0  0  0  0  0  0  0
  -13.1936    9.4280   17.7677 C   0  0  2  0  0  0  0  0  0  0  0  0
  -11.7158    9.4742   17.8234 O   0  0  0  0  0  0  0  0  0  0  0  0
  -13.5887    9.6928   16.3104 C   0  0  2  0  0  0  0  0  0  0  0  0
  -13.5539   11.0594   16.0566 O   0  0  0  0  0  0  0  0  0  0  0  0
  -15.0142    9.2261   15.9634 C   0  0  0  0  0  0  0  0  0  0  0  0
   -8.6461    5.5768   17.2354 C   0  0  2  0  0  0  0  0  0  0  0  0
   -7.9687    4.4269   16.5841 N   0  3  0  0  0  0  0  0  0  0  0  0
   -8.6961    5.3836   18.7801 C   0  0  0  0  0  0  0  0  0  0  0  0
   -9.4308    6.5964   19.4579 C   0  0  2  0  0  0  0  0  0  0  0  0
   -9.4552    6.3856   20.9518 N   0  3  0  0  0  0  0  0  0  0  0  0
  -10.8767    6.7227   18.8666 C   0  0  2  0  0  0  0  0  0  0  0  0
  -10.7931    6.9222   17.3335 C   0  0  2  0  0  0  0  0  0  0  0  0
  -12.0969    7.0000   16.8098 O   0  0  0  0  0  0  0  0  0  0  0  0
  -10.0795    5.7094   16.6783 C   0  0  1  0  0  0  0  0  0  0  0  0
  -10.0164    5.9123   15.2743 O   0  0  0  0  0  0  0  0  0  0  0  0
  -11.1931    5.7884   14.5242 C   0  0  2  0  0  0  0  0  0  0  0  0
  -11.4103    4.2883   14.2497 C   0  0  2  0  0  0  0  0  0  0  0  0
  -11.5604    3.6127   15.4800 O   0  0  0  0  0  0  0  0  0  0  0  0
  -10.1820    3.7294   13.4536 C   0  0  1  0  0  0  0  0  0  0  0  0
  -10.2999    2.2775   13.1738 N   0  3  0  0  0  0  0  0  0  0  0  0
   -9.7000    1.4786   14.2728 C   0  0  0  0  0  0  0  0  0  0  0  0
  -10.0351    4.5230   12.1098 C   0  0  2  0  0  0  0  0  0  0  0  0
  -11.2257    4.3657   11.3154 O   0  0  0  0  0  0  0  0  0  0  0  0
   -8.9144    4.0509   11.3170 C   0  0  0  0  0  0  0  0  0  0  0  0
   -9.9057    6.0499   12.4013 C   0  0  0  0  0  0  0  0  0  0  0  0
  -11.0448    6.5213   13.2552 O   0  0  0  0  0  0  0  0  0  0  0  0
  1  2  1  1  0  0  0
  1  3  1  0  0  0  0
  1 10  1  0  0  0  0
  3  4  1  1  0  0  0
  3  5  1  0  0  0  0
  5  6  1  1  0  0  0
  5  7  1  0  0  0  0
  7  8  1  1  0  0  0
  7  9  1  0  0  0  0
  9 10  1  6  0  0  0
  9 11  1  0  0  0  0
 11 12  1  1  0  0  0
 11 13  1  0  0  0  0
 14 15  1  6  0  0  0
 14 16  1  0  0  0  0
 14 22  1  0  0  0  0
 16 17  1  0  0  0  0
 17 18  1  1  0  0  0
 17 19  1  0  0  0  0
 19  2  1  1  0  0  0
 19 20  1  0  0  0  0
 20 21  1  6  0  0  0
 20 22  1  0  0  0  0
 22 23  1  6  0  0  0
 24 23  1  1  0  0  0
 24 25  1  0  0  0  0
 24 34  1  0  0  0  0
 25 26  1  1  0  0  0
 25 27  1  0  0  0  0
 27 28  1  6  0  0  0
 27 30  1  0  0  0  0
 28 29  1  0  0  0  0
 30 31  1  6  0  0  0
 30 32  1  0  0  0  0
 30 33  1  0  0  0  0
 33 34  1  0  0  0  0
M  CHG  4   4   1  15   1  18   1  28   1
M  END
>  <CHROM.1>
-165.45580138,74.44916012,63.67526874,63.15263916,-57.67538499,41.77980553
55.10700471,-166.55144017,-67.82593080,-57.66607311,167.20027402,-82.24213113
59.75409276,30.21409075,-53.97402902,-11.26864233,6.90661080,16.68694110
-2.02890895,0.79983970,-1.99302203

>  <Name>
1mwl

>  <RI>
0

>  <Rbt.Current_Directory>
/home/itssahil/PROJECTS/Mol_Feturizer/New_Systems/rnas/1mwl

>  <Rbt.Executable>
rbdock ($Id: //depot/dev/client3/rdock/2013.1/src/exe/rbdock.cxx#4 $)

>  <Rbt.Library>
libRbt.so (2013.1, Build901 2013/11/27)

>  <Rbt.Parameter_File>
/export/apps/rDock/src/rDock_2013.1_src/data/scripts/dock_solv.prm

>  <Rbt.Receptor>
prm/pocket_docking_8.prm

>  <SCORE>
-45.0459

>  <SCORE.INTER>
-27.5802

>  <SCORE.INTER.CONST>
1

>  <SCORE.INTER.POLAR>
-4.21221

>  <SCORE.INTER.ROT>
6

>  <SCORE.INTER.SOLV>
13.4091

>  <SCORE.INTER.VDW>
-16.4158

>  <SCORE.INTER.norm>
-0.811182

>  <SCORE.INTRA>
-17.4657

>  <SCORE.INTRA.DIHEDRAL>
-33.1087

>  <SCORE.INTRA.DIHEDRAL.0>
42.0816

>  <SCORE.INTRA.POLAR>
0.250953

>  <SCORE.INTRA.POLAR.0>
-0.254682

>  <SCORE.INTRA.REPUL>
0.0281494

>  <SCORE.INTRA.REPUL.0>
0

>  <SCORE.INTRA.SOLV>
1.63866

>  <SCORE.INTRA.SOLV.lig_0>
-109.803

>  <SCORE.INTRA.VDW>
-2.72469

>  <SCORE.INTRA.VDW.0>
0.32176

>  <SCORE.INTRA.norm>
-0.513697

>  <SCORE.RESTR>
0

>  <SCORE.RESTR.CAVITY>
0

>  <SCORE.RESTR.norm>
0

>  <SCORE.SYSTEM>
0

>  <SCORE.SYSTEM.CONST>
0

>  <SCORE.SYSTEM.DIHEDRAL>
0

>  <SCORE.SYSTEM.SOLV>
0

>  <SCORE.SYSTEM.norm>
0

>  <SCORE.heavy>
34

>  <SCORE.norm>
-1.32488

>  <RMSD>
6.537

$$$$
1mwl
 OpenBabel11021811403D
libRbt.so/2013.1/901 2013/11/27
 34 36  0  0  0  0  0  0  0  0999 V2000
   -5.1239    5.7624   24.4092 C   0  0  2  0  0  0  0  0  0  0  0  0
   -5.9444    6.8806   24.2504 O   0  0  0  0  0  0  0  0  0  0  0  0
   -5.6796    4.9439   25.6084 C   0  0  2  0  0  0  0  0  0  0  0  0
   -7.0680    4.5495   25.3510 N   0  3  0  0  0  0  0  0  0  0  0  0
   -5.5536    5.7547   26.9314 C   0  0  1  0  0  0  0  0  0  0  0  0
   -6.0131    5.0368   27.9867 O   0  0  0  0  0  0  0  0  0  0  0  0
   -4.0526    6.1457   27.1359 C   0  0  2  0  0  0  0  0  0  0  0  0
   -3.8969    6.8918   28.3612 O   0  0  0  0  0  0  0  0  0  0  0  0
   -3.5886    6.9848   25.8972 C   0  0  2  0  0  0  0  0  0  0  0  0
   -3.7638    6.2037   24.6528 O   0  0  0  0  0  0  0  0  0  0  0  0
   -2.1214    7.4273   25.9375 C   0  0  2  0  0  0  0  0  0  0  0  0
   -1.8503    8.2499   24.8498 O   0  0  0  0  0  0  0  0  0  0  0  0
   -1.1224    6.2588   25.8539 C   0  0  0  0  0  0  0  0  0  0  0  0
   -9.1267    7.7177   21.5243 C   0  0  2  0  0  0  0  0  0  0  0  0
   -9.8527    8.0422   20.2701 N   0  3  0  0  0  0  0  0  0  0  0  0
   -8.1747    8.8830   21.9267 C   0  0  0  0  0  0  0  0  0  0  0  0
   -7.3979    8.5221   23.2445 C   0  0  2  0  0  0  0  0  0  0  0  0
   -6.4926    9.6714   23.6135 N   0  3  0  0  0  0  0  0  0  0  0  0
   -6.5914    7.1964   23.0243 C   0  0  2  0  0  0  0  0  0  0  0  0
   -7.5649    6.0572   22.6346 C   0  0  2  0  0  0  0  0  0  0  0  0
   -6.8263    4.8814   22.4065 O   0  0  0  0  0  0  0  0  0  0  0  0
   -8.3118    6.4222   21.3238 C   0  0  1  0  0  0  0  0  0  0  0  0
   -9.1958    5.3639   20.9845 O   0  0  0  0  0  0  0  0  0  0  0  0
   -8.6538    4.1600   20.5162 C   0  0  2  0  0  0  0  0  0  0  0  0
   -9.6055    3.6147   19.4346 C   0  0  2  0  0  0  0  0  0  0  0  0
   -9.6784    4.5444   18.3749 O   0  0  0  0  0  0  0  0  0  0  0  0
  -11.0195    3.3790   20.0671 C   0  0  1  0  0  0  0  0  0  0  0  0
  -12.0070    2.8797   19.0793 N   0  3  0  0  0  0  0  0  0  0  0  0
  -13.1777    3.7901   18.9981 C   0  0  0  0  0  0  0  0  0  0  0  0
  -10.8898    2.3636   21.2541 C   0  0  2  0  0  0  0  0  0  0  0  0
  -10.3718    1.1097   20.7717 O   0  0  0  0  0  0  0  0  0  0  0  0
  -12.1695    2.0950   21.8846 C   0  0  0  0  0  0  0  0  0  0  0  0
   -9.8556    2.8886   22.2971 C   0  0  0  0  0  0  0  0  0  0  0  0
   -8.5493    3.2031   21.6310 O   0  0  0  0  0  0  0  0  0  0  0  0
  1  2  1  1  0  0  0
  1  3  1  0  0  0  0
  1 10  1  0  0  0  0
  3  4  1  6  0  0  0
  3  5  1  0  0  0  0
  5  6  1  1  0  0  0
  5  7  1  0  0  0  0
  7  8  1  1  0  0  0
  7  9  1  0  0  0  0
  9 10  1  6  0  0  0
  9 11  1  0  0  0  0
 11 12  1  6  0  0  0
 11 13  1  0  0  0  0
 14 15  1  6  0  0  0
 14 16  1  0  0  0  0
 14 22  1  0  0  0  0
 16 17  1  0  0  0  0
 17 18  1  6  0  0  0
 17 19  1  0  0  0  0
 19  2  1  1  0  0  0
 19 20  1  0  0  0  0
 20 21  1  6  0  0  0
 20 22  1  0  0  0  0
 22 23  1  1  0  0  0
 24 23  1  1  0  0  0
 24 25  1  0  0  0  0
 24 34  1  0  0  0  0
 25 26  1  6  0  0  0
 25 27  1  0  0  0  0
 27 28  1  6  0  0  0
 27 30  1  0  0  0  0
 28 29  1  0  0  0  0
 30 31  1  6  0  0  0
 30 32  1  0  0  0  0
 30 33  1  0  0  0  0
 33 34  1  0  0  0  0
M  CHG  4   4   1  15   1  18   1  28   1
M  END
>  <CHROM.1>
-124.76970733,-179.31261539,45.77460246,-52.32082071,64.78279383,-175.24241494
175.42424811,39.21313738,-164.33743203,-58.31591086,168.27408379,-143.43548972
-84.62591144,-2.27902386,170.35450927,-7.38887935,5.52210473,23.01576249
0.01529212,0.76437742,2.61787670

>  <Name>
1mwl

>  <RI>
0

>  <Rbt.Current_Directory>
/home/itssahil/PROJECTS/Mol_Feturizer/New_Systems/rnas/1mwl

>  <Rbt.Executable>
rbdock ($Id: //depot/dev/client3/rdock/2013.1/src/exe/rbdock.cxx#4 $)

>  <Rbt.Library>
libRbt.so (2013.1, Build901 2013/11/27)

>  <Rbt.Parameter_File>
/export/apps/rDock/src/rDock_2013.1_src/data/scripts/dock_solv.prm

>  <Rbt.Receptor>
prm/pocket_docking_8.prm

>  <SCORE>
-25.0936

>  <SCORE.INTER>
-12.1693

>  <SCORE.INTER.CONST>
1

>  <SCORE.INTER.POLAR>
-3.41581

>  <SCORE.INTER.ROT>
6

>  <SCORE.INTER.SOLV>
23.788

>  <SCORE.INTER.VDW>
-12.2562

>  <SCORE.INTER.norm>
-0.357922

>  <SCORE.INTRA>
-12.9242

>  <SCORE.INTRA.DIHEDRAL>
-20.2894

>  <SCORE.INTRA.DIHEDRAL.0>
42.0816

>  <SCORE.INTRA.POLAR>
-0.693111

>  <SCORE.INTRA.POLAR.0>
-0.254682

>  <SCORE.INTRA.REPUL>
0.189188

>  <SCORE.INTRA.REPUL.0>
0

>  <SCORE.INTRA.SOLV>
-0.144268

>  <SCORE.INTRA.SOLV.lig_0>
-109.803

>  <SCORE.INTRA.VDW>
-1.29676

>  <SCORE.INTRA.VDW.0>
0.32176

>  <SCORE.INTRA.norm>
-0.380124

>  <SCORE.RESTR>
0

>  <SCORE.RESTR.CAVITY>
0

>  <SCORE.RESTR.norm>
0

>  <SCORE.SYSTEM>
0

>  <SCORE.SYSTEM.CONST>
0

>  <SCORE.SYSTEM.DIHEDRAL>
0

>  <SCORE.SYSTEM.SOLV>
0

>  <SCORE.SYSTEM.norm>
0

>  <SCORE.heavy>
34

>  <SCORE.norm>
-0.738046

>  <RMSD>
6.617

$$$$
1mwl
 OpenBabel11021811403D
libRbt.so/2013.1/901 2013/11/27
 34 36  0  0  0  0  0  0  0  0999 V2000
  -16.0336   10.5565   20.2482 C   0  0  2  0  0  0  0  0  0  0  0  0
  -16.4604   11.2362   19.1061 O   0  0  0  0  0  0  0  0  0  0  0  0
  -16.1535   11.5393   21.4468 C   0  0  2  0  0  0  0  0  0  0  0  0
  -17.5395   11.9957   21.5893 N   0  3  0  0  0  0  0  0  0  0  0  0
  -15.1741   12.7370   21.2743 C   0  0  1  0  0  0  0  0  0  0  0  0
  -15.2546   13.5861   22.3292 O   0  0  0  0  0  0  0  0  0  0  0  0
  -13.7217   12.1759   21.1215 C   0  0  2  0  0  0  0  0  0  0  0  0
  -12.7839   13.2619   20.9691 O   0  0  0  0  0  0  0  0  0  0  0  0
  -13.6905   11.2201   19.8807 C   0  0  2  0  0  0  0  0  0  0  0  0
  -14.6640   10.1196   20.0554 O   0  0  0  0  0  0  0  0  0  0  0  0
  -12.3302   10.5672   19.6102 C   0  0  2  0  0  0  0  0  0  0  0  0
  -12.4473    9.6560   18.5665 O   0  0  0  0  0  0  0  0  0  0  0  0
  -11.7749    9.7790   20.8105 C   0  0  0  0  0  0  0  0  0  0  0  0
  -17.3864    8.0081   16.4639 C   0  0  2  0  0  0  0  0  0  0  0  0
  -17.8409    7.2628   15.2625 N   0  3  0  0  0  0  0  0  0  0  0  0
  -18.5658    8.8046   17.0967 C   0  0  0  0  0  0  0  0  0  0  0  0
  -18.0704    9.6040   18.3559 C   0  0  2  0  0  0  0  0  0  0  0  0
  -19.2348   10.3565   18.9515 N   0  3  0  0  0  0  0  0  0  0  0  0
  -16.9108   10.5700   17.9335 C   0  0  2  0  0  0  0  0  0  0  0  0
  -15.7520    9.7488   17.3171 C   0  0  2  0  0  0  0  0  0  0  0  0
  -14.7321   10.6291   16.9109 O   0  0  0  0  0  0  0  0  0  0  0  0
  -16.2537    8.9785   16.0664 C   0  0  1  0  0  0  0  0  0  0  0  0
  -15.1755    8.2355   15.5169 O   0  0  0  0  0  0  0  0  0  0  0  0
  -14.5226    8.7375   14.3836 C   0  0  2  0  0  0  0  0  0  0  0  0
  -14.4597    7.6011   13.3454 C   0  0  2  0  0  0  0  0  0  0  0  0
  -15.7743    7.2179   13.0028 O   0  0  0  0  0  0  0  0  0  0  0  0
  -13.6681    6.3936   13.9539 C   0  0  1  0  0  0  0  0  0  0  0  0
  -13.5875    5.2412   13.0236 N   0  3  0  0  0  0  0  0  0  0  0  0
  -14.7073    4.2944   13.2591 C   0  0  0  0  0  0  0  0  0  0  0  0
  -12.2260    6.8678   14.3446 C   0  0  2  0  0  0  0  0  0  0  0  0
  -11.5345    7.3467   13.1759 O   0  0  0  0  0  0  0  0  0  0  0  0
  -11.4332    5.7924   14.9123 C   0  0  0  0  0  0  0  0  0  0  0  0
  -12.3078    8.0766   15.3270 C   0  0  0  0  0  0  0  0  0  0  0  0
  -13.1623    9.1661   14.7513 O   0  0  0  0  0  0  0  0  0  0  0  0
  1  2  1  6  0  0  0
  1  3  1  0  0  0  0
  1 10  1  0  0  0  0
  3  4  1  6  0  0  0
  3  5  1  0  0  0  0
  5  6  1  1  0  0  0
  5  7  1  0  0  0  0
  7  8  1  6  0  0  0
  7  9  1  0  0  0  0
  9 10  1  1  0  0  0
  9 11  1  0  0  0  0
 11 12  1  6  0  0  0
 11 13  1  0  0  0  0
 14 15  1  6  0  0  0
 14 16  1  0  0  0  0
 14 22  1  0  0  0  0
 16 17  1  0  0  0  0
 17 18  1  6  0  0  0
 17 19  1  0  0  0  0
 19  2  1  1  0  0  0
 19 20  1  0  0  0  0
 20 21  1  6  0  0  0
 20 22  1  0  0  0  0
 22 23  1  1  0  0  0
 24 23  1  1  0  0  0
 24 25  1  0  0  0  0
 24 34  1  0  0  0  0
 25 26  1  1  0  0  0
 25 27  1  0  0  0  0
 27 28  1  6  0  0  0
 27 30  1  0  0  0  0
 28 29  1  0  0  0  0
 30 31  1  6  0  0  0
 30 32  1  0  0  0  0
 30 33  1  0  0  0  0
 33 34  1  0  0  0  0
M  CHG  4   4   1  15   1  18   1  28   1
M  END
>  <CHROM.1>
-158.43610901,55.10353594,176.84377359,-64.05868779,66.06774718,174.78883577
-48.35211317,-75.42462169,63.30696795,-62.83632950,138.23237043,-129.63500909
163.17159037,27.59635411,-39.11688779,-14.87041956,9.34493116,17.35715750
1.73764829,-0.00743504,0.93205575

>  <Name>
1mwl

>  <RI>
0

>  <Rbt.Current_Directory>
/home/itssahil/PROJECTS/Mol_Feturizer/New_Systems/rnas/1mwl

>  <Rbt.Executable>
rbdock ($Id: //depot/dev/client3/rdock/2013.1/src/exe/rbdock.cxx#4 $)

>  <Rbt.Library>
libRbt.so (2013.1, Build901 2013/11/27)

>  <Rbt.Parameter_File>
/export/apps/rDock/src/rDock_2013.1_src/data/scripts/dock_solv.prm

>  <Rbt.Receptor>
prm/pocket_docking_6.prm

>  <SCORE>
-47.2635

>  <SCORE.INTER>
-31.3268

>  <SCORE.INTER.CONST>
1

>  <SCORE.INTER.POLAR>
-4.46235

>  <SCORE.INTER.ROT>
6

>  <SCORE.INTER.SOLV>
16.8821

>  <SCORE.INTER.VDW>
-19.2374

>  <SCORE.INTER.norm>
-0.921376

>  <SCORE.INTRA>
-15.9367

>  <SCORE.INTRA.DIHEDRAL>
-20.286

>  <SCORE.INTRA.DIHEDRAL.0>
42.0816

>  <SCORE.INTRA.POLAR>
-1.03715

>  <SCORE.INTRA.POLAR.0>
-0.254682

>  <SCORE.INTRA.REPUL>
0

>  <SCORE.INTRA.REPUL.0>
0

>  <SCORE.INTRA.SOLV>
4.07213

>  <SCORE.INTRA.SOLV.lig_0>
-109.803

>  <SCORE.INTRA.VDW>
-4.30349

>  <SCORE.INTRA.VDW.0>
0.32176

>  <SCORE.INTRA.norm>
-0.468728

>  <SCORE.RESTR>
0

>  <SCORE.RESTR.CAVITY>
0

>  <SCORE.RESTR.norm>
0

>  <SCORE.SYSTEM>
0

>  <SCORE.SYSTEM.CONST>
0

>  <SCORE.SYSTEM.DIHEDRAL>
0

>  <SCORE.SYSTEM.SOLV>
0

>  <SCORE.SYSTEM.norm>
0

>  <SCORE.heavy>
34

>  <SCORE.norm>
-1.3901

>  <RMSD>
6.715

$$$$
1mwl
 OpenBabel11021811403D
libRbt.so/2013.1/901 2013/11/27
 34 36  0  0  0  0  0  0  0  0999 V2000
   -9.7032    7.1872   20.9515 C   0  0  2  0  0  0  0  0  0  0  0  0
  -10.7910    6.5519   21.5528 O   0  0  0  0  0  0  0  0  0  0  0  0
   -9.9854    8.7158   20.9754 C   0  0  2  0  0  0  0  0  0  0  0  0
  -10.1693    9.1741   22.3559 N   0  3  0  0  0  0  0  0  0  0  0  0
  -11.2199    9.0597   20.0916 C   0  0  1  0  0  0  0  0  0  0  0  0
  -11.4571   10.3954   20.0871 O   0  0  0  0  0  0  0  0  0  0  0  0
  -10.9563    8.5366   18.6410 C   0  0  2  0  0  0  0  0  0  0  0  0
  -12.0792    8.8478   17.7897 O   0  0  0  0  0  0  0  0  0  0  0  0
  -10.7082    6.9915   18.7115 C   0  0  2  0  0  0  0  0  0  0  0  0
   -9.5583    6.6957   19.5945 O   0  0  0  0  0  0  0  0  0  0  0  0
  -10.4099    6.3291   17.3616 C   0  0  2  0  0  0  0  0  0  0  0  0
   -9.6529    7.1899   16.5747 O   0  0  0  0  0  0  0  0  0  0  0  0
  -11.6724    5.9968   16.5455 C   0  0  0  0  0  0  0  0  0  0  0  0
  -10.0045    2.4365   20.7134 C   0  0  2  0  0  0  0  0  0  0  0  0
  -10.1016    0.9548   20.7374 N   0  3  0  0  0  0  0  0  0  0  0  0
   -9.6294    2.9867   22.1214 C   0  0  0  0  0  0  0  0  0  0  0  0
   -9.5472    4.5559   22.0895 C   0  0  2  0  0  0  0  0  0  0  0  0
   -9.1737    5.0579   23.4625 N   0  3  0  0  0  0  0  0  0  0  0  0
  -10.9227    5.1375   21.6140 C   0  0  2  0  0  0  0  0  0  0  0  0
  -11.2628    4.5796   20.2103 C   0  0  2  0  0  0  0  0  0  0  0  0
  -12.5146    5.0814   19.8088 O   0  0  0  0  0  0  0  0  0  0  0  0
  -11.3557    3.0311   20.2625 C   0  0  1  0  0  0  0  0  0  0  0  0
  -11.6705    2.5421   18.9670 O   0  0  0  0  0  0  0  0  0  0  0  0
  -12.1690    1.2387   18.8439 C   0  0  2  0  0  0  0  0  0  0  0  0
  -11.3874    0.5504   17.7089 C   0  0  2  0  0  0  0  0  0  0  0  0
  -10.0198    0.5028   18.0553 O   0  0  0  0  0  0  0  0  0  0  0  0
  -11.5979    1.3540   16.3804 C   0  0  1  0  0  0  0  0  0  0  0  0
  -10.8507    0.7705   15.2397 N   0  3  0  0  0  0  0  0  0  0  0  0
   -9.4610    1.2931   15.1973 C   0  0  0  0  0  0  0  0  0  0  0  0
  -13.1286    1.4056   16.0470 C   0  0  2  0  0  0  0  0  0  0  0  0
  -13.6386    0.0697   15.8782 O   0  0  0  0  0  0  0  0  0  0  0  0
  -13.3955    2.1342   14.8201 C   0  0  0  0  0  0  0  0  0  0  0  0
  -13.9164    2.0236   17.2430 C   0  0  0  0  0  0  0  0  0  0  0  0
  -13.6035    1.2918   18.5140 O   0  0  0  0  0  0  0  0  0  0  0  0
  1  2  1  6  0  0  0
  1  3  1  0  0  0  0
  1 10  1  0  0  0  0
  3  4  1  1  0  0  0
  3  5  1  0  0  0  0
  5  6  1  6  0  0  0
  5  7  1  0  0  0  0
  7  8  1  6  0  0  0
  7  9  1  0  0  0  0
  9 10  1  1  0  0  0
  9 11  1  0  0  0  0
 11 12  1  6  0  0  0
 11 13  1  0  0  0  0
 14 15  1  1  0  0  0
 14 16  1  0  0  0  0
 14 22  1  0  0  0  0
 16 17  1  0  0  0  0
 17 18  1  1  0  0  0
 17 19  1  0  0  0  0
 19  2  1  6  0  0  0
 19 20  1  0  0  0  0
 20 21  1  1  0  0  0
 20 22  1  0  0  0  0
 22 23  1  6  0  0  0
 24 23  1  6  0  0  0
 24 25  1  0  0  0  0
 24 34  1  0  0  0  0
 25 26  1  1  0  0  0
 25 27  1  0  0  0  0
 27 28  1  6  0  0  0
 27 30  1  0  0  0  0
 28 29  1  0  0  0  0
 30 31  1  6  0  0  0
 30 32  1  0  0  0  0
 30 33  1  0  0  0  0
 33 34  1  0  0  0  0
M  CHG  4   4   1  15   1  18   1  28   1
M  END
>  <CHROM.1>
175.04637194,46.81110413,-42.02037649,32.68141547,178.73957564,36.19790026
70.43895839,94.27537928,52.05044034,48.43507134,77.57530381,-132.89441350
172.19363913,33.76998212,-57.48261937,-11.10322686,4.44549191,18.96655487
-0.97458617,1.24130863,3.06038690

>  <Name>
1mwl

>  <RI>
0

>  <Rbt.Current_Directory>
/home/itssahil/PROJECTS/Mol_Feturizer/New_Systems/rnas/1mwl

>  <Rbt.Executable>
rbdock ($Id: //depot/dev/client3/rdock/2013.1/src/exe/rbdock.cxx#4 $)

>  <Rbt.Library>
libRbt.so (2013.1, Build901 2013/11/27)

>  <Rbt.Parameter_File>
/export/apps/rDock/src/rDock_2013.1_src/data/scripts/dock_solv.prm

>  <Rbt.Receptor>
prm/pocket_docking_7.prm

>  <SCORE>
-39.0437

>  <SCORE.INTER>
-25.8332

>  <SCORE.INTER.CONST>
1

>  <SCORE.INTER.POLAR>
-4.64582

>  <SCORE.INTER.ROT>
6

>  <SCORE.INTER.SOLV>
28.3337

>  <SCORE.INTER.VDW>
-18.7806

>  <SCORE.INTER.norm>
-0.759799

>  <SCORE.INTRA>
-13.2106

>  <SCORE.INTRA.DIHEDRAL>
-22.2747

>  <SCORE.INTRA.DIHEDRAL.0>
42.0816

>  <SCORE.INTRA.POLAR>
-0.920808

>  <SCORE.INTRA.POLAR.0>
-0.254682

>  <SCORE.INTRA.REPUL>
0

>  <SCORE.INTRA.REPUL.0>
0

>  <SCORE.INTRA.SOLV>
2.58015

>  <SCORE.INTRA.SOLV.lig_0>
-109.803

>  <SCORE.INTRA.VDW>
-0.232577

>  <SCORE.INTRA.VDW.0>
0.32176

>  <SCORE.INTRA.norm>
-0.388547

>  <SCORE.RESTR>
0

>  <SCORE.RESTR.CAVITY>
0

>  <SCORE.RESTR.norm>
0

>  <SCORE.SYSTEM>
0

>  <SCORE.SYSTEM.CONST>
0

>  <SCORE.SYSTEM.DIHEDRAL>
0

>  <SCORE.SYSTEM.SOLV>
0

>  <SCORE.SYSTEM.norm>
0

>  <SCORE.heavy>
34

>  <SCORE.norm>
-1.14835

>  <RMSD>
6.728

$$$$
1mwl
 OpenBabel11021811403D
libRbt.so/2013.1/901 2013/11/27
 34 36  0  0  0  0  0  0  0  0999 V2000
   -8.7185    4.7258   20.3015 C   0  0  2  0  0  0  0  0  0  0  0  0
   -9.1704    3.5609   19.6791 O   0  0  0  0  0  0  0  0  0  0  0  0
   -9.2483    4.7082   21.7630 C   0  0  2  0  0  0  0  0  0  0  0  0
   -8.7648    3.5132   22.4613 N   0  3  0  0  0  0  0  0  0  0  0  0
  -10.8028    4.7908   21.7841 C   0  0  1  0  0  0  0  0  0  0  0  0
  -11.2713    4.8017   23.0571 O   0  0  0  0  0  0  0  0  0  0  0  0
  -11.2443    6.0812   21.0177 C   0  0  2  0  0  0  0  0  0  0  0  0
  -12.6828    6.1953   21.0260 O   0  0  0  0  0  0  0  0  0  0  0  0
  -10.6895    6.0001   19.5550 C   0  0  2  0  0  0  0  0  0  0  0  0
   -9.2152    5.8764   19.5710 O   0  0  0  0  0  0  0  0  0  0  0  0
  -11.0212    7.2120   18.6768 C   0  0  2  0  0  0  0  0  0  0  0  0
  -10.1410    7.2662   17.6017 O   0  0  0  0  0  0  0  0  0  0  0  0
  -10.8896    8.5593   19.4101 C   0  0  0  0  0  0  0  0  0  0  0  0
   -8.0384    2.1838   15.7956 C   0  0  2  0  0  0  0  0  0  0  0  0
   -8.0261    1.9870   14.3237 N   0  3  0  0  0  0  0  0  0  0  0  0
   -9.3628    1.6440   16.4124 C   0  0  0  0  0  0  0  0  0  0  0  0
   -9.3737    1.8736   17.9671 C   0  0  2  0  0  0  0  0  0  0  0  0
  -10.6623    1.3332   18.5362 N   0  3  0  0  0  0  0  0  0  0  0  0
   -9.2039    3.4027   18.2664 C   0  0  2  0  0  0  0  0  0  0  0  0
   -7.8765    3.9065   17.6491 C   0  0  2  0  0  0  0  0  0  0  0  0
   -7.7516    5.2864   17.8947 O   0  0  0  0  0  0  0  0  0  0  0  0
   -7.8884    3.6870   16.1125 C   0  0  1  0  0  0  0  0  0  0  0  0
   -6.6644    4.1578   15.5679 O   0  0  0  0  0  0  0  0  0  0  0  0
   -6.3956    5.5322   15.6089 C   0  0  2  0  0  0  0  0  0  0  0  0
   -7.4712    6.2386   14.7621 C   0  0  2  0  0  0  0  0  0  0  0  0
   -8.7399    5.9879   15.3278 O   0  0  0  0  0  0  0  0  0  0  0  0
   -7.4009    5.7019   13.2918 C   0  0  1  0  0  0  0  0  0  0  0  0
   -8.4287    6.3136   12.4145 N   0  3  0  0  0  0  0  0  0  0  0  0
   -9.4063    5.2931   11.9572 C   0  0  0  0  0  0  0  0  0  0  0  0
   -5.9707    5.9756   12.7115 C   0  0  2  0  0  0  0  0  0  0  0  0
   -5.7043    7.3907   12.7124 O   0  0  0  0  0  0  0  0  0  0  0  0
   -5.8375    5.5059   11.3444 C   0  0  0  0  0  0  0  0  0  0  0  0
   -4.8879    5.3290   13.6295 C   0  0  0  0  0  0  0  0  0  0  0  0
   -5.0580    5.7868   15.0473 O   0  0  0  0  0  0  0  0  0  0  0  0
  1  2  1  6  0  0  0
  1  3  1  0  0  0  0
  1 10  1  0  0  0  0
  3  4  1  6  0  0  0
  3  5  1  0  0  0  0
  5  6  1  1  0  0  0
  5  7  1  0  0  0  0
  7  8  1  6  0  0  0
  7  9  1  0  0  0  0
  9 10  1  1  0  0  0
  9 11  1  0  0  0  0
 11 12  1  6  0  0  0
 11 13  1  0  0  0  0
 14 15  1  6  0  0  0
 14 16  1  0  0  0  0
 14 22  1  0  0  0  0
 16 17  1  0  0  0  0
 17 18  1  6  0  0  0
 17 19  1  0  0  0  0
 19  2  1  1  0  0  0
 19 20  1  0  0  0  0
 20 21  1  6  0  0  0
 20 22  1  0  0  0  0
 22 23  1  1  0  0  0
 24 23  1  6  0  0  0
 24 25  1  0  0  0  0
 24 34  1  0  0  0  0
 25 26  1  1  0  0  0
 25 27  1  0  0  0  0
 27 28  1  6  0  0  0
 27 30  1  0  0  0  0
 28 29  1  0  0  0  0
 30 31  1  1  0  0  0
 30 32  1  0  0  0  0
 30 33  1  0  0  0  0
 33 34  1  0  0  0  0
M  CHG  4   4   1  15   1  18   1  28   1
M  END
>  <CHROM.1>
162.05871547,164.34906879,75.04727368,71.87604085,63.83004822,159.90075418
88.63180027,70.01016464,70.81396935,118.81273948,172.94284243,-62.79588314
58.46138034,5.43874243,-54.52967265,-8.66866900,4.94905817,17.16887737,-2.77436574
1.08395396,-0.34554446

>  <Name>
1mwl

>  <RI>
0

>  <Rbt.Current_Directory>
/home/itssahil/PROJECTS/Mol_Feturizer/New_Systems/rnas/1mwl

>  <Rbt.Executable>
rbdock ($Id: //depot/dev/client3/rdock/2013.1/src/exe/rbdock.cxx#4 $)

>  <Rbt.Library>
libRbt.so (2013.1, Build901 2013/11/27)

>  <Rbt.Parameter_File>
/export/apps/rDock/src/rDock_2013.1_src/data/scripts/dock_solv.prm

>  <Rbt.Receptor>
prm/blind_docking_100.prm

>  <SCORE>
-21.55

>  <SCORE.INTER>
-25.6701

>  <SCORE.INTER.CONST>
1

>  <SCORE.INTER.POLAR>
-3.35531

>  <SCORE.INTER.ROT>
6

>  <SCORE.INTER.SOLV>
20.8439

>  <SCORE.INTER.VDW>
-20.477

>  <SCORE.INTER.norm>
-0.755004

>  <SCORE.INTRA>
-12.4183

>  <SCORE.INTRA.DIHEDRAL>
-21.7372

>  <SCORE.INTRA.DIHEDRAL.0>
42.0816

>  <SCORE.INTRA.POLAR>
-1.02081

>  <SCORE.INTRA.POLAR.0>
-0.254682

>  <SCORE.INTRA.REPUL>
0

>  <SCORE.INTRA.REPUL.0>
0

>  <SCORE.INTRA.SOLV>
-0.239208

>  <SCORE.INTRA.SOLV.lig_0>
-109.803

>  <SCORE.INTRA.VDW>
2.04068

>  <SCORE.INTRA.VDW.0>
0.32176

>  <SCORE.INTRA.norm>
-0.365244

>  <SCORE.RESTR>
16.5385

>  <SCORE.RESTR.CAVITY>
16.5385

>  <SCORE.RESTR.norm>
0.486425

>  <SCORE.SYSTEM>
0

>  <SCORE.SYSTEM.CONST>
0

>  <SCORE.SYSTEM.DIHEDRAL>
0

>  <SCORE.SYSTEM.SOLV>
0

>  <SCORE.SYSTEM.norm>
0

>  <SCORE.heavy>
34

>  <SCORE.norm>
-0.633823

>  <RMSD>
6.751

$$$$
1mwl
 OpenBabel11021811403D
libRbt.so/2013.1/901 2013/11/27
 34 36  0  0  0  0  0  0  0  0999 V2000
  -13.1464    3.8044   22.6219 C   0  0  2  0  0  0  0  0  0  0  0  0
  -11.7777    3.9868   22.8272 O   0  0  0  0  0  0  0  0  0  0  0  0
  -13.8153    3.6878   24.0204 C   0  0  2  0  0  0  0  0  0  0  0  0
  -13.5546    4.8969   24.8076 N   0  3  0  0  0  0  0  0  0  0  0  0
  -13.3225    2.4093   24.7594 C   0  0  1  0  0  0  0  0  0  0  0  0
  -13.9214    2.2871   25.9704 O   0  0  0  0  0  0  0  0  0  0  0  0
  -13.6259    1.1653   23.8607 C   0  0  2  0  0  0  0  0  0  0  0  0
  -13.1900   -0.0416   24.5207 O   0  0  0  0  0  0  0  0  0  0  0  0
  -12.8948    1.3581   22.4887 C   0  0  2  0  0  0  0  0  0  0  0  0
  -13.3513    2.6039   21.8340 O   0  0  0  0  0  0  0  0  0  0  0  0
  -13.1152    0.2238   21.4814 C   0  0  2  0  0  0  0  0  0  0  0  0
  -12.5411    0.5630   20.2612 O   0  0  0  0  0  0  0  0  0  0  0  0
  -14.5997   -0.0657   21.1938 C   0  0  0  0  0  0  0  0  0  0  0  0
   -9.5124    7.4295   21.6975 C   0  0  2  0  0  0  0  0  0  0  0  0
   -8.6839    8.3636   20.8936 N   0  3  0  0  0  0  0  0  0  0  0  0
   -8.7496    6.0953   21.9505 C   0  0  0  0  0  0  0  0  0  0  0  0
   -9.6417    5.1071   22.7859 C   0  0  2  0  0  0  0  0  0  0  0  0
   -8.8739    3.8300   23.0225 N   0  3  0  0  0  0  0  0  0  0  0  0
  -10.9824    4.8438   22.0180 C   0  0  2  0  0  0  0  0  0  0  0  0
  -11.7201    6.1857   21.7898 C   0  0  2  0  0  0  0  0  0  0  0  0
  -12.9044    5.9409   21.0703 O   0  0  0  0  0  0  0  0  0  0  0  0
  -10.8327    7.1435   20.9506 C   0  0  1  0  0  0  0  0  0  0  0  0
  -11.5290    8.3650   20.7517 O   0  0  0  0  0  0  0  0  0  0  0  0
  -11.4984    9.3287   21.7680 C   0  0  2  0  0  0  0  0  0  0  0  0
  -12.9541    9.5956   22.1956 C   0  0  2  0  0  0  0  0  0  0  0  0
  -13.5135    8.3996   22.6947 O   0  0  0  0  0  0  0  0  0  0  0  0
  -13.7645   10.1163   20.9598 C   0  0  1  0  0  0  0  0  0  0  0  0
  -15.1899   10.3702   21.2819 N   0  3  0  0  0  0  0  0  0  0  0  0
  -15.9214    9.0926   21.4787 C   0  0  0  0  0  0  0  0  0  0  0  0
  -13.0959   11.4277   20.4211 C   0  0  2  0  0  0  0  0  0  0  0  0
  -13.0986   12.4366   21.4485 O   0  0  0  0  0  0  0  0  0  0  0  0
  -13.8023   11.9689   19.2743 C   0  0  0  0  0  0  0  0  0  0  0  0
  -11.5979   11.1623   20.0767 C   0  0  0  0  0  0  0  0  0  0  0  0
  -10.8850   10.5648   21.2530 O   0  0  0  0  0  0  0  0  0  0  0  0
  1  2  1  1  0  0  0
  1  3  1  0  0  0  0
  1 10  1  0  0  0  0
  3  4  1  1  0  0  0
  3  5  1  0  0  0  0
  5  6  1  1  0  0  0
  5  7  1  0  0  0  0
  7  8  1  1  0  0  0
  7  9  1  0  0  0  0
  9 10  1  6  0  0  0
  9 11  1  0  0  0  0
 11 12  1  6  0  0  0
 11 13  1  0  0  0  0
 14 15  1  6  0  0  0
 14 16  1  0  0  0  0
 14 22  1  0  0  0  0
 16 17  1  0  0  0  0
 17 18  1  6  0  0  0
 17 19  1  0  0  0  0
 19  2  1  1  0  0  0
 19 20  1  0  0  0  0
 20 21  1  6  0  0  0
 20 22  1  0  0  0  0
 22 23  1  1  0  0  0
 24 23  1  6  0  0  0
 24 25  1  0  0  0  0
 24 34  1  0  0  0  0
 25 26  1  6  0  0  0
 25 27  1  0  0  0  0
 27 28  1  1  0  0  0
 27 30  1  0  0  0  0
 28 29  1  0  0  0  0
 30 31  1  1  0  0  0
 30 32  1  0  0  0  0
 30 33  1  0  0  0  0
 33 34  1  0  0  0  0
M  CHG  4   4   1  15   1  18   1  28   1
M  END
>  <CHROM.1>
-142.46728915,163.91010016,167.52518552,-61.32353708,63.83785345,173.81731070
172.79727460,81.04516500,61.34184337,-55.23659616,-37.88669171,-120.88820313
-64.31719733,48.31088124,175.48868082,-12.41005690,6.00784388,22.08547020
1.61902430,-0.14373582,2.91493543

>  <Name>
1mwl

>  <RI>
0

>  <Rbt.Current_Directory>
/home/itssahil/PROJECTS/Mol_Feturizer/New_Systems/rnas/1mwl

>  <Rbt.Executable>
rbdock ($Id: //depot/dev/client3/rdock/2013.1/src/exe/rbdock.cxx#4 $)

>  <Rbt.Library>
libRbt.so (2013.1, Build901 2013/11/27)

>  <Rbt.Parameter_File>
/export/apps/rDock/src/rDock_2013.1_src/data/scripts/dock_solv.prm

>  <Rbt.Receptor>
prm/blind_docking_100.prm

>  <SCORE>
-17.8391

>  <SCORE.INTER>
-16.5307

>  <SCORE.INTER.CONST>
1

>  <SCORE.INTER.POLAR>
-2.04222

>  <SCORE.INTER.ROT>
6

>  <SCORE.INTER.SOLV>
24.7426

>  <SCORE.INTER.VDW>
-20.0606

>  <SCORE.INTER.norm>
-0.486197

>  <SCORE.INTRA>
-15.487

>  <SCORE.INTRA.DIHEDRAL>
-24.0538

>  <SCORE.INTRA.DIHEDRAL.0>
42.0816

>  <SCORE.INTRA.POLAR>
-1.38172

>  <SCORE.INTRA.POLAR.0>
-0.254682

>  <SCORE.INTRA.REPUL>
0

>  <SCORE.INTRA.REPUL.0>
0

>  <SCORE.INTRA.SOLV>
-0.882426

>  <SCORE.INTRA.SOLV.lig_0>
-109.803

>  <SCORE.INTRA.VDW>
1.67897

>  <SCORE.INTRA.VDW.0>
0.32176

>  <SCORE.INTRA.norm>
-0.4555

>  <SCORE.RESTR>
14.1786

>  <SCORE.RESTR.CAVITY>
14.1786

>  <SCORE.RESTR.norm>
0.417018

>  <SCORE.SYSTEM>
0

>  <SCORE.SYSTEM.CONST>
0

>  <SCORE.SYSTEM.DIHEDRAL>
0

>  <SCORE.SYSTEM.SOLV>
0

>  <SCORE.SYSTEM.norm>
0

>  <SCORE.heavy>
34

>  <SCORE.norm>
-0.52468

>  <RMSD>
6.763

$$$$
1mwl
 OpenBabel11021811403D
libRbt.so/2013.1/901 2013/11/27
 34 36  0  0  0  0  0  0  0  0999 V2000
  -12.7092    2.9846   20.4149 C   0  0  2  0  0  0  0  0  0  0  0  0
  -12.9382    2.0637   19.3911 O   0  0  0  0  0  0  0  0  0  0  0  0
  -11.8276    2.2813   21.4849 C   0  0  2  0  0  0  0  0  0  0  0  0
  -10.5673    1.8320   20.8854 N   0  3  0  0  0  0  0  0  0  0  0  0
  -12.5996    1.0996   22.1414 C   0  0  1  0  0  0  0  0  0  0  0  0
  -11.8458    0.4968   23.0946 O   0  0  0  0  0  0  0  0  0  0  0  0
  -13.9309    1.6506   22.7510 C   0  0  2  0  0  0  0  0  0  0  0  0
  -14.6693    0.5812   23.3782 O   0  0  0  0  0  0  0  0  0  0  0  0
  -14.7612    2.3161   21.6014 C   0  0  2  0  0  0  0  0  0  0  0  0
  -13.9827    3.4036   20.9687 O   0  0  0  0  0  0  0  0  0  0  0  0
  -16.0938    2.9289   22.0469 C   0  0  2  0  0  0  0  0  0  0  0  0
  -16.7680    3.4375   20.9423 O   0  0  0  0  0  0  0  0  0  0  0  0
  -15.9346    4.1013   23.0321 C   0  0  0  0  0  0  0  0  0  0  0  0
  -15.0639    2.2921   15.6913 C   0  0  2  0  0  0  0  0  0  0  0  0
  -16.1799    2.3925   14.7167 N   0  3  0  0  0  0  0  0  0  0  0  0
  -15.1805    0.9844   16.5292 C   0  0  0  0  0  0  0  0  0  0  0  0
  -14.0058    0.8968   17.5696 C   0  0  2  0  0  0  0  0  0  0  0  0
  -14.1402   -0.3825   18.3584 N   0  3  0  0  0  0  0  0  0  0  0  0
  -14.0419    2.1578   18.4996 C   0  0  2  0  0  0  0  0  0  0  0  0
  -13.9154    3.4389   17.6394 C   0  0  2  0  0  0  0  0  0  0  0  0
  -13.9832    4.5645   18.4811 O   0  0  0  0  0  0  0  0  0  0  0  0
  -15.0908    3.5181   16.6288 C   0  0  1  0  0  0  0  0  0  0  0  0
  -14.9561    4.7001   15.8535 O   0  0  0  0  0  0  0  0  0  0  0  0
  -16.1078    5.4353   15.5440 C   0  0  2  0  0  0  0  0  0  0  0  0
  -15.6765    6.6173   14.6553 C   0  0  2  0  0  0  0  0  0  0  0  0
  -15.1031    6.1144   13.4675 O   0  0  0  0  0  0  0  0  0  0  0  0
  -14.6473    7.5004   15.4402 C   0  0  1  0  0  0  0  0  0  0  0  0
  -14.1579    8.6489   14.6393 N   0  3  0  0  0  0  0  0  0  0  0  0
  -13.2578    8.1874   13.5516 C   0  0  0  0  0  0  0  0  0  0  0  0
  -15.3137    8.0153   16.7623 C   0  0  2  0  0  0  0  0  0  0  0  0
  -16.4752    8.8067   16.4493 O   0  0  0  0  0  0  0  0  0  0  0  0
  -14.4131    8.8479   17.5388 C   0  0  0  0  0  0  0  0  0  0  0  0
  -15.8249    6.8092   17.6091 C   0  0  0  0  0  0  0  0  0  0  0  0
  -16.7214    5.9315   16.7877 O   0  0  0  0  0  0  0  0  0  0  0  0
  1  2  1  6  0  0  0
  1  3  1  0  0  0  0
  1 10  1  0  0  0  0
  3  4  1  6  0  0  0
  3  5  1  0  0  0  0
  5  6  1  1  0  0  0
  5  7  1  0  0  0  0
  7  8  1  6  0  0  0
  7  9  1  0  0  0  0
  9 10  1  1  0  0  0
  9 11  1  0  0  0  0
 11 12  1  6  0  0  0
 11 13  1  0  0  0  0
 14 15  1  6  0  0  0
 14 16  1  0  0  0  0
 14 22  1  0  0  0  0
 16 17  1  0  0  0  0
 17 18  1  1  0  0  0
 17 19  1  0  0  0  0
 19  2  1  1  0  0  0
 19 20  1  0  0  0  0
 20 21  1  1  0  0  0
 20 22  1  0  0  0  0
 22 23  1  6  0  0  0
 24 23  1  1  0  0  0
 24 25  1  0  0  0  0
 24 34  1  0  0  0  0
 25 26  1  6  0  0  0
 25 27  1  0  0  0  0
 27 28  1  6  0  0  0
 27 30  1  0  0  0  0
 28 29  1  0  0  0  0
 30 31  1  6  0  0  0
 30 32  1  0  0  0  0
 30 33  1  0  0  0  0
 33 34  1  0  0  0  0
M  CHG  4   4   1  15   1  18   1  28   1
M  END
>  <CHROM.1>
157.31935454,-176.11016384,30.58298316,-176.04689514,-61.73935939,-177.48898316
69.43221937,-52.15911166,-53.97701694,85.15924618,99.70431949,-177.65609059
117.10499401,48.89176445,59.14270166,-14.49835058,3.95171315,18.36863530
0.40569992,-1.36126177,1.12059285

>  <Name>
1mwl

>  <RI>
0

>  <Rbt.Current_Directory>
/home/itssahil/PROJECTS/Mol_Feturizer/New_Systems/rnas/1mwl

>  <Rbt.Executable>
rbdock ($Id: //depot/dev/client3/rdock/2013.1/src/exe/rbdock.cxx#4 $)

>  <Rbt.Library>
libRbt.so (2013.1, Build901 2013/11/27)

>  <Rbt.Parameter_File>
/export/apps/rDock/src/rDock_2013.1_src/data/scripts/dock_solv.prm

>  <Rbt.Receptor>
prm/pocket_docking_7.prm

>  <SCORE>
-25.577

>  <SCORE.INTER>
-12.0463

>  <SCORE.INTER.CONST>
1

>  <SCORE.INTER.POLAR>
-2.79165

>  <SCORE.INTER.ROT>
6

>  <SCORE.INTER.SOLV>
14.6136

>  <SCORE.INTER.VDW>
-11.1966

>  <SCORE.INTER.norm>
-0.354302

>  <SCORE.INTRA>
-13.538

>  <SCORE.INTRA.DIHEDRAL>
-21.6219

>  <SCORE.INTRA.DIHEDRAL.0>
42.0816

>  <SCORE.INTRA.POLAR>
0.254682

>  <SCORE.INTRA.POLAR.0>
-0.254682

>  <SCORE.INTRA.REPUL>
0

>  <SCORE.INTRA.REPUL.0>
0

>  <SCORE.INTRA.SOLV>
-3.13862

>  <SCORE.INTRA.SOLV.lig_0>
-109.803

>  <SCORE.INTRA.VDW>
-2.02366

>  <SCORE.INTRA.VDW.0>
0.32176

>  <SCORE.INTRA.norm>
-0.398176

>  <SCORE.RESTR>
0.00723275

>  <SCORE.RESTR.CAVITY>
0.00723275

>  <SCORE.RESTR.norm>
0.000212728

>  <SCORE.SYSTEM>
0

>  <SCORE.SYSTEM.CONST>
0

>  <SCORE.SYSTEM.DIHEDRAL>
0

>  <SCORE.SYSTEM.SOLV>
0

>  <SCORE.SYSTEM.norm>
0

>  <SCORE.heavy>
34

>  <SCORE.norm>
-0.752265

>  <RMSD>
6.786

$$$$
1mwl
 OpenBabel11021811403D
libRbt.so/2013.1/901 2013/11/27
 34 36  0  0  0  0  0  0  0  0999 V2000
   -9.9056    5.7880   20.7379 C   0  0  2  0  0  0  0  0  0  0  0  0
   -9.2212    5.9825   19.5369 O   0  0  0  0  0  0  0  0  0  0  0  0
  -10.7739    7.0529   20.9890 C   0  0  2  0  0  0  0  0  0  0  0  0
  -11.7058    7.2553   19.8754 N   0  3  0  0  0  0  0  0  0  0  0  0
   -9.8719    8.3021   21.2114 C   0  0  1  0  0  0  0  0  0  0  0  0
  -10.6222    9.4054   21.4566 O   0  0  0  0  0  0  0  0  0  0  0  0
   -8.9030    8.0118   22.4049 C   0  0  2  0  0  0  0  0  0  0  0  0
   -8.0566    9.1554   22.6462 O   0  0  0  0  0  0  0  0  0  0  0  0
   -8.0554    6.7419   22.0542 C   0  0  2  0  0  0  0  0  0  0  0  0
   -8.9432    5.5849   21.8040 O   0  0  0  0  0  0  0  0  0  0  0  0
   -7.0666    6.3118   23.1437 C   0  0  2  0  0  0  0  0  0  0  0  0
   -5.7643    6.5129   22.7000 O   0  0  0  0  0  0  0  0  0  0  0  0
   -7.1697    4.8216   23.5167 C   0  0  0  0  0  0  0  0  0  0  0  0
   -7.8053    3.0889   16.7295 C   0  0  2  0  0  0  0  0  0  0  0  0
   -7.7833    2.1033   15.6188 N   0  3  0  0  0  0  0  0  0  0  0  0
   -8.7446    2.6071   17.8747 C   0  0  0  0  0  0  0  0  0  0  0  0
   -8.7751    3.6652   19.0364 C   0  0  2  0  0  0  0  0  0  0  0  0
   -9.6841    3.1673   20.1329 N   0  3  0  0  0  0  0  0  0  0  0  0
   -9.2541    5.0452   18.4682 C   0  0  2  0  0  0  0  0  0  0  0  0
   -8.2968    5.5004   17.3397 C   0  0  2  0  0  0  0  0  0  0  0  0
   -8.7559    6.7226   16.8147 O   0  0  0  0  0  0  0  0  0  0  0  0
   -8.2904    4.4530   16.1942 C   0  0  1  0  0  0  0  0  0  0  0  0
   -7.4092    4.8915   15.1706 O   0  0  0  0  0  0  0  0  0  0  0  0
   -6.1221    5.3140   15.5279 C   0  0  2  0  0  0  0  0  0  0  0  0
   -5.6708    6.3534   14.4845 C   0  0  2  0  0  0  0  0  0  0  0  0
   -6.5556    7.4528   14.5179 O   0  0  0  0  0  0  0  0  0  0  0  0
   -5.6637    5.6871   13.0664 C   0  0  1  0  0  0  0  0  0  0  0  0
   -5.2669    6.6343   11.9962 N   0  3  0  0  0  0  0  0  0  0  0  0
   -6.2605    7.7307   11.8678 C   0  0  0  0  0  0  0  0  0  0  0  0
   -4.6914    4.4576   13.0802 C   0  0  2  0  0  0  0  0  0  0  0  0
   -3.3577    4.8914   13.4063 O   0  0  0  0  0  0  0  0  0  0  0  0
   -4.6327    3.7940   11.7904 C   0  0  0  0  0  0  0  0  0  0  0  0
   -5.1094    3.4572   14.2016 C   0  0  0  0  0  0  0  0  0  0  0  0
   -5.2082    4.1589   15.5232 O   0  0  0  0  0  0  0  0  0  0  0  0
  1  2  1  6  0  0  0
  1  3  1  0  0  0  0
  1 10  1  0  0  0  0
  3  4  1  6  0  0  0
  3  5  1  0  0  0  0
  5  6  1  1  0  0  0
  5  7  1  0  0  0  0
  7  8  1  6  0  0  0
  7  9  1  0  0  0  0
  9 10  1  1  0  0  0
  9 11  1  0  0  0  0
 11 12  1  6  0  0  0
 11 13  1  0  0  0  0
 14 15  1  6  0  0  0
 14 16  1  0  0  0  0
 14 22  1  0  0  0  0
 16 17  1  0  0  0  0
 17 18  1  1  0  0  0
 17 19  1  0  0  0  0
 19  2  1  1  0  0  0
 19 20  1  0  0  0  0
 20 21  1  6  0  0  0
 20 22  1  0  0  0  0
 22 23  1  6  0  0  0
 24 23  1  6  0  0  0
 24 25  1  0  0  0  0
 24 34  1  0  0  0  0
 25 26  1  6  0  0  0
 25 27  1  0  0  0  0
 27 28  1  6  0  0  0
 27 30  1  0  0  0  0
 28 29  1  0  0  0  0
 30 31  1  1  0  0  0
 30 32  1  0  0  0  0
 30 33  1  0  0  0  0
 33 34  1  0  0  0  0
M  CHG  4   4   1  15   1  18   1  28   1
M  END
>  <CHROM.1>
-127.01122883,-55.94694233,-62.23157664,-177.49251220,-178.72018902,-111.98686034
-50.38328418,159.06947679,38.71600747,-176.39916348,-71.15154526,-151.34754881
85.53489097,55.69695129,62.72902744,-7.62547691,5.68091969,17.79444753,3.04133713
1.17919127,-0.10352615

>  <Name>
1mwl

>  <RI>
0

>  <Rbt.Current_Directory>
/home/itssahil/PROJECTS/Mol_Feturizer/New_Systems/rnas/1mwl

>  <Rbt.Executable>
rbdock ($Id: //depot/dev/client3/rdock/2013.1/src/exe/rbdock.cxx#4 $)

>  <Rbt.Library>
libRbt.so (2013.1, Build901 2013/11/27)

>  <Rbt.Parameter_File>
/export/apps/rDock/src/rDock_2013.1_src/data/scripts/dock_solv.prm

>  <Rbt.Receptor>
prm/blind_docking_100.prm

>  <SCORE>
-26.1449

>  <SCORE.INTER>
-28.6454

>  <SCORE.INTER.CONST>
1

>  <SCORE.INTER.POLAR>
-3.19355

>  <SCORE.INTER.ROT>
6

>  <SCORE.INTER.SOLV>
20.2238

>  <SCORE.INTER.VDW>
-22.7931

>  <SCORE.INTER.norm>
-0.842512

>  <SCORE.INTRA>
-9.07685

>  <SCORE.INTRA.DIHEDRAL>
-20.4753

>  <SCORE.INTRA.DIHEDRAL.0>
42.0816

>  <SCORE.INTRA.POLAR>
-1.11847

>  <SCORE.INTRA.POLAR.0>
-0.254682

>  <SCORE.INTRA.REPUL>
0

>  <SCORE.INTRA.REPUL.0>
0

>  <SCORE.INTRA.SOLV>
0.280412

>  <SCORE.INTRA.SOLV.lig_0>
-109.803

>  <SCORE.INTRA.VDW>
4.82342

>  <SCORE.INTRA.VDW.0>
0.32176

>  <SCORE.INTRA.norm>
-0.266966

>  <SCORE.RESTR>
11.5774

>  <SCORE.RESTR.CAVITY>
11.5774

>  <SCORE.RESTR.norm>
0.340512

>  <SCORE.SYSTEM>
0

>  <SCORE.SYSTEM.CONST>
0

>  <SCORE.SYSTEM.DIHEDRAL>
0

>  <SCORE.SYSTEM.SOLV>
0

>  <SCORE.SYSTEM.norm>
0

>  <SCORE.heavy>
34

>  <SCORE.norm>
-0.768966

>  <RMSD>
6.871

$$$$
1mwl
 OpenBabel11021811403D
libRbt.so/2013.1/901 2013/11/27
 34 36  0  0  0  0  0  0  0  0999 V2000
  -11.3099    6.0125   13.7475 C   0  0  2  0  0  0  0  0  0  0  0  0
  -12.2107    5.0981   14.2963 O   0  0  0  0  0  0  0  0  0  0  0  0
  -10.3940    5.2306   12.7643 C   0  0  2  0  0  0  0  0  0  0  0  0
  -11.2018    4.5918   11.7208 N   0  3  0  0  0  0  0  0  0  0  0  0
   -9.5278    4.1894   13.5318 C   0  0  1  0  0  0  0  0  0  0  0  0
   -8.7071    3.5206   12.6835 O   0  0  0  0  0  0  0  0  0  0  0  0
   -8.7023    4.9390   14.6291 C   0  0  2  0  0  0  0  0  0  0  0  0
   -7.8782    4.0033   15.3555 O   0  0  0  0  0  0  0  0  0  0  0  0
   -9.7038    5.6737   15.5836 C   0  0  2  0  0  0  0  0  0  0  0  0
  -10.5424    6.6215   14.8170 O   0  0  0  0  0  0  0  0  0  0  0  0
   -9.0424    6.4791   16.7077 C   0  0  2  0  0  0  0  0  0  0  0  0
   -7.7178    6.7433   16.3776 O   0  0  0  0  0  0  0  0  0  0  0  0
   -9.0112    5.7416   18.0588 C   0  0  0  0  0  0  0  0  0  0  0  0
  -15.1089    7.6830   16.0789 C   0  0  2  0  0  0  0  0  0  0  0  0
  -16.3312    8.1496   16.7815 N   0  3  0  0  0  0  0  0  0  0  0  0
  -15.4792    6.9686   14.7453 C   0  0  0  0  0  0  0  0  0  0  0  0
  -14.1805    6.4627   14.0190 C   0  0  2  0  0  0  0  0  0  0  0  0
  -14.5699    5.7845   12.7285 N   0  3  0  0  0  0  0  0  0  0  0  0
  -13.3986    5.4932   14.9704 C   0  0  2  0  0  0  0  0  0  0  0  0
  -13.0380    6.2341   16.2812 C   0  0  2  0  0  0  0  0  0  0  0  0
  -12.3668    5.3445   17.1405 O   0  0  0  0  0  0  0  0  0  0  0  0
  -14.3312    6.7129   16.9936 C   0  0  1  0  0  0  0  0  0  0  0  0
  -13.9772    7.3864   18.1926 O   0  0  0  0  0  0  0  0  0  0  0  0
  -14.6628    7.0646   19.3712 C   0  0  2  0  0  0  0  0  0  0  0  0
  -14.1775    8.0326   20.4668 C   0  0  2  0  0  0  0  0  0  0  0  0
  -14.4902    9.3548   20.0838 O   0  0  0  0  0  0  0  0  0  0  0  0
  -12.6321    7.8585   20.6574 C   0  0  1  0  0  0  0  0  0  0  0  0
  -12.0789    8.7804   21.6792 N   0  3  0  0  0  0  0  0  0  0  0  0
  -11.3465    9.9013   21.0365 C   0  0  0  0  0  0  0  0  0  0  0  0
  -12.3264    6.3734   21.0550 C   0  0  2  0  0  0  0  0  0  0  0  0
  -12.9952    6.0489   22.2882 O   0  0  0  0  0  0  0  0  0  0  0  0
  -10.9070    6.1428   21.2530 C   0  0  0  0  0  0  0  0  0  0  0  0
  -12.9028    5.4019   19.9793 C   0  0  0  0  0  0  0  0  0  0  0  0
  -14.3596    5.6741   19.7505 O   0  0  0  0  0  0  0  0  0  0  0  0
  1  2  1  1  0  0  0
  1  3  1  0  0  0  0
  1 10  1  0  0  0  0
  3  4  1  6  0  0  0
  3  5  1  0  0  0  0
  5  6  1  6  0  0  0
  5  7  1  0  0  0  0
  7  8  1  1  0  0  0
  7  9  1  0  0  0  0
  9 10  1  6  0  0  0
  9 11  1  0  0  0  0
 11 12  1  6  0  0  0
 11 13  1  0  0  0  0
 14 15  1  1  0  0  0
 14 16  1  0  0  0  0
 14 22  1  0  0  0  0
 16 17  1  0  0  0  0
 17 18  1  6  0  0  0
 17 19  1  0  0  0  0
 19  2  1  6  0  0  0
 19 20  1  0  0  0  0
 20 21  1  1  0  0  0
 20 22  1  0  0  0  0
 22 23  1  1  0  0  0
 24 23  1  6  0  0  0
 24 25  1  0  0  0  0
 24 34  1  0  0  0  0
 25 26  1  6  0  0  0
 25 27  1  0  0  0  0
 27 28  1  1  0  0  0
 27 30  1  0  0  0  0
 28 29  1  0  0  0  0
 30 31  1  1  0  0  0
 30 32  1  0  0  0  0
 30 33  1  0  0  0  0
 33 34  1  0  0  0  0
M  CHG  4   4   1  15   1  18   1  28   1
M  END
>  <CHROM.1>
-163.79468787,52.66723642,-66.27425906,-70.43334990,59.88469406,19.76919145
-57.91303320,-61.74696708,39.41731995,46.34023664,106.76201690,-174.49608234
62.83469456,15.64819342,-63.69753858,-12.09050892,6.33213104,16.93157272
1.16410590,0.26228900,-1.83177471

>  <Name>
1mwl

>  <RI>
0

>  <Rbt.Current_Directory>
/home/itssahil/PROJECTS/Mol_Feturizer/New_Systems/rnas/1mwl

>  <Rbt.Executable>
rbdock ($Id: //depot/dev/client3/rdock/2013.1/src/exe/rbdock.cxx#4 $)

>  <Rbt.Library>
libRbt.so (2013.1, Build901 2013/11/27)

>  <Rbt.Parameter_File>
/export/apps/rDock/src/rDock_2013.1_src/data/scripts/dock_solv.prm

>  <Rbt.Receptor>
prm/pocket_docking_8.prm

>  <SCORE>
-42.981

>  <SCORE.INTER>
-29.0028

>  <SCORE.INTER.CONST>
1

>  <SCORE.INTER.POLAR>
-5.70483

>  <SCORE.INTER.ROT>
6

>  <SCORE.INTER.SOLV>
16.1154

>  <SCORE.INTER.VDW>
-13.2909

>  <SCORE.INTER.norm>
-0.853023

>  <SCORE.INTRA>
-13.9782

>  <SCORE.INTRA.DIHEDRAL>
-24.4031

>  <SCORE.INTRA.DIHEDRAL.0>
42.0816

>  <SCORE.INTRA.POLAR>
-0.0364357

>  <SCORE.INTRA.POLAR.0>
-0.254682

>  <SCORE.INTRA.REPUL>
0.00128691

>  <SCORE.INTRA.REPUL.0>
0

>  <SCORE.INTRA.SOLV>
1.86807

>  <SCORE.INTRA.SOLV.lig_0>
-109.803

>  <SCORE.INTRA.VDW>
-2.59329

>  <SCORE.INTRA.VDW.0>
0.32176

>  <SCORE.INTRA.norm>
-0.411124

>  <SCORE.RESTR>
0

>  <SCORE.RESTR.CAVITY>
0

>  <SCORE.RESTR.norm>
0

>  <SCORE.SYSTEM>
0

>  <SCORE.SYSTEM.CONST>
0

>  <SCORE.SYSTEM.DIHEDRAL>
0

>  <SCORE.SYSTEM.SOLV>
0

>  <SCORE.SYSTEM.norm>
0

>  <SCORE.heavy>
34

>  <SCORE.norm>
-1.26415

>  <RMSD>
6.888

$$$$
1mwl
 OpenBabel11021811403D
libRbt.so/2013.1/901 2013/11/27
 34 36  0  0  0  0  0  0  0  0999 V2000
   -8.5880    5.0656   21.2701 C   0  0  2  0  0  0  0  0  0  0  0  0
   -8.8249    3.8118   20.7040 O   0  0  0  0  0  0  0  0  0  0  0  0
   -9.1157    5.0236   22.7318 C   0  0  2  0  0  0  0  0  0  0  0  0
   -8.4349    3.9657   23.4846 N   0  3  0  0  0  0  0  0  0  0  0  0
  -10.6607    4.8334   22.7520 C   0  0  1  0  0  0  0  0  0  0  0  0
  -11.1320    4.8214   24.0240 O   0  0  0  0  0  0  0  0  0  0  0  0
  -11.3166    5.9893   21.9266 C   0  0  2  0  0  0  0  0  0  0  0  0
  -12.7528    5.8498   21.9324 O   0  0  0  0  0  0  0  0  0  0  0  0
  -10.7469    5.9385   20.4683 C   0  0  2  0  0  0  0  0  0  0  0  0
   -9.2738    6.0760   20.4872 O   0  0  0  0  0  0  0  0  0  0  0  0
  -11.2801    7.0312   19.5347 C   0  0  2  0  0  0  0  0  0  0  0  0
  -12.6685    6.9719   19.4891 O   0  0  0  0  0  0  0  0  0  0  0  0
  -10.7946    6.8907   18.0804 C   0  0  0  0  0  0  0  0  0  0  0  0
   -9.2388    2.4381   16.6790 C   0  0  2  0  0  0  0  0  0  0  0  0
   -9.7894    2.2308   15.3154 N   0  3  0  0  0  0  0  0  0  0  0  0
  -10.2070    1.8661   17.7566 C   0  0  0  0  0  0  0  0  0  0  0  0
   -9.6242    2.1069   19.1962 C   0  0  2  0  0  0  0  0  0  0  0  0
  -10.5778    1.5349   20.2161 N   0  3  0  0  0  0  0  0  0  0  0  0
   -9.3959    3.6422   19.4129 C   0  0  2  0  0  0  0  0  0  0  0  0
   -8.4241    4.1783   18.3334 C   0  0  2  0  0  0  0  0  0  0  0  0
   -8.2537    5.5629   18.5173 O   0  0  0  0  0  0  0  0  0  0  0  0
   -9.0213    3.9472   16.9195 C   0  0  1  0  0  0  0  0  0  0  0  0
   -8.1159    4.4479   15.9468 O   0  0  0  0  0  0  0  0  0  0  0  0
   -6.7459    4.4443   16.2397 C   0  0  2  0  0  0  0  0  0  0  0  0
   -6.0942    5.5702   15.4147 C   0  0  2  0  0  0  0  0  0  0  0  0
   -6.6566    6.8065   15.7989 O   0  0  0  0  0  0  0  0  0  0  0  0
   -6.3379    5.2968   13.8913 C   0  0  1  0  0  0  0  0  0  0  0  0
   -5.7643    6.3560   13.0257 N   0  3  0  0  0  0  0  0  0  0  0  0
   -6.8344    7.0563   12.2704 C   0  0  0  0  0  0  0  0  0  0  0  0
   -5.7228    3.9055   13.5130 C   0  0  2  0  0  0  0  0  0  0  0  0
   -4.3065    3.9090   13.7730 O   0  0  0  0  0  0  0  0  0  0  0  0
   -5.9092    3.5903   12.1083 C   0  0  0  0  0  0  0  0  0  0  0  0
   -6.3280    2.7888   14.4184 C   0  0  0  0  0  0  0  0  0  0  0  0
   -6.1686    3.1414   15.8672 O   0  0  0  0  0  0  0  0  0  0  0  0
  1  2  1  6  0  0  0
  1  3  1  0  0  0  0
  1 10  1  0  0  0  0
  3  4  1  1  0  0  0
  3  5  1  0  0  0  0
  5  6  1  1  0  0  0
  5  7  1  0  0  0  0
  7  8  1  6  0  0  0
  7  9  1  0  0  0  0
  9 10  1  1  0  0  0
  9 11  1  0  0  0  0
 11 12  1  6  0  0  0
 11 13  1  0  0  0  0
 14 15  1  6  0  0  0
 14 16  1  0  0  0  0
 14 22  1  0  0  0  0
 16 17  1  0  0  0  0
 17 18  1  1  0  0  0
 17 19  1  0  0  0  0
 19  2  1  1  0  0  0
 19 20  1  0  0  0  0
 20 21  1  1  0  0  0
 20 22  1  0  0  0  0
 22 23  1  6  0  0  0
 24 23  1  6  0  0  0
 24 25  1  0  0  0  0
 24 34  1  0  0  0  0
 25 26  1  1  0  0  0
 25 27  1  0  0  0  0
 27 28  1  6  0  0  0
 27 30  1  0  0  0  0
 28 29  1  0  0  0  0
 30 31  1  1  0  0  0
 30 32  1  0  0  0  0
 30 33  1  0  0  0  0
 33 34  1  0  0  0  0
M  CHG  4   4   1  15   1  18   1  28   1
M  END
>  <CHROM.1>
133.51529067,-174.75138813,-146.09526429,-72.15214952,66.04732457,-56.53402068
172.38018442,51.98647436,-175.49118867,75.02336479,-90.73754015,-153.69712306
-61.06051571,3.27370690,61.09394174,-8.69412452,4.63081333,18.00766380,-2.80220759
1.02601505,-0.43947907

>  <Name>
1mwl

>  <RI>
0

>  <Rbt.Current_Directory>
/home/itssahil/PROJECTS/Mol_Feturizer/New_Systems/rnas/1mwl

>  <Rbt.Executable>
rbdock ($Id: //depot/dev/client3/rdock/2013.1/src/exe/rbdock.cxx#4 $)

>  <Rbt.Library>
libRbt.so (2013.1, Build901 2013/11/27)

>  <Rbt.Parameter_File>
/export/apps/rDock/src/rDock_2013.1_src/data/scripts/dock_solv.prm

>  <Rbt.Receptor>
prm/blind_docking_100.prm

>  <SCORE>
-15.4522

>  <SCORE.INTER>
-24.9595

>  <SCORE.INTER.CONST>
1

>  <SCORE.INTER.POLAR>
-3.38811

>  <SCORE.INTER.ROT>
6

>  <SCORE.INTER.SOLV>
22.5504

>  <SCORE.INTER.VDW>
-20.4628

>  <SCORE.INTER.norm>
-0.734104

>  <SCORE.INTRA>
-7.09436

>  <SCORE.INTRA.DIHEDRAL>
-20.6656

>  <SCORE.INTRA.DIHEDRAL.0>
42.0816

>  <SCORE.INTRA.POLAR>
0.145099

>  <SCORE.INTRA.POLAR.0>
-0.254682

>  <SCORE.INTRA.REPUL>
0

>  <SCORE.INTRA.REPUL.0>
0

>  <SCORE.INTRA.SOLV>
-1.42099

>  <SCORE.INTRA.SOLV.lig_0>
-109.803

>  <SCORE.INTRA.VDW>
3.4556

>  <SCORE.INTRA.VDW.0>
0.32176

>  <SCORE.INTRA.norm>
-0.208658

>  <SCORE.RESTR>
16.6018

>  <SCORE.RESTR.CAVITY>
16.6018

>  <SCORE.RESTR.norm>
0.488287

>  <SCORE.SYSTEM>
0

>  <SCORE.SYSTEM.CONST>
0

>  <SCORE.SYSTEM.DIHEDRAL>
0

>  <SCORE.SYSTEM.SOLV>
0

>  <SCORE.SYSTEM.norm>
0

>  <SCORE.heavy>
34

>  <SCORE.norm>
-0.454475

>  <RMSD>
6.919

$$$$
1mwl
 OpenBabel11021811403D
libRbt.so/2013.1/901 2013/11/27
 34 36  0  0  0  0  0  0  0  0999 V2000
  -16.6553   10.1208   19.0581 C   0  0  2  0  0  0  0  0  0  0  0  0
  -16.5419   10.2731   17.6751 O   0  0  0  0  0  0  0  0  0  0  0  0
  -16.6530   11.5436   19.6847 C   0  0  2  0  0  0  0  0  0  0  0  0
  -17.7639   12.3345   19.1464 N   0  3  0  0  0  0  0  0  0  0  0  0
  -15.2847   12.2463   19.4454 C   0  0  1  0  0  0  0  0  0  0  0  0
  -15.2661   13.4789   20.0116 O   0  0  0  0  0  0  0  0  0  0  0  0
  -14.1508   11.3452   20.0369 C   0  0  2  0  0  0  0  0  0  0  0  0
  -12.8660   11.9722   19.8411 O   0  0  0  0  0  0  0  0  0  0  0  0
  -14.2139    9.9475   19.3324 C   0  0  2  0  0  0  0  0  0  0  0  0
  -15.5410    9.3270   19.5401 O   0  0  0  0  0  0  0  0  0  0  0  0
  -13.1721    8.9359   19.8237 C   0  0  2  0  0  0  0  0  0  0  0  0
  -11.8935    9.4358   19.6032 O   0  0  0  0  0  0  0  0  0  0  0  0
  -13.2368    7.5810   19.0952 C   0  0  0  0  0  0  0  0  0  0  0  0
  -15.9475    6.2648   16.3188 C   0  0  2  0  0  0  0  0  0  0  0  0
  -15.8710    5.0815   15.4247 N   0  3  0  0  0  0  0  0  0  0  0  0
  -17.4039    6.8131   16.3831 C   0  0  0  0  0  0  0  0  0  0  0  0
  -17.4704    8.0757   17.3168 C   0  0  2  0  0  0  0  0  0  0  0  0
  -18.8925    8.5776   17.3665 N   0  3  0  0  0  0  0  0  0  0  0  0
  -16.4874    9.1711   16.7782 C   0  0  2  0  0  0  0  0  0  0  0  0
  -15.0493    8.5992   16.7344 C   0  0  2  0  0  0  0  0  0  0  0  0
  -14.1820    9.5795   16.2177 O   0  0  0  0  0  0  0  0  0  0  0  0
  -14.9975    7.3636   15.7965 C   0  0  1  0  0  0  0  0  0  0  0  0
  -13.6709    6.8578   15.7695 O   0  0  0  0  0  0  0  0  0  0  0  0
  -12.7110    7.5307   15.0024 C   0  0  2  0  0  0  0  0  0  0  0  0
  -12.6535    6.8413   13.6260 C   0  0  2  0  0  0  0  0  0  0  0  0
  -13.9162    6.9494   13.0044 O   0  0  0  0  0  0  0  0  0  0  0  0
  -12.2556    5.3385   13.8212 C   0  0  1  0  0  0  0  0  0  0  0  0
  -12.2068    4.5933   12.5397 N   0  3  0  0  0  0  0  0  0  0  0  0
  -13.4622    3.8288   12.3265 C   0  0  0  0  0  0  0  0  0  0  0  0
  -10.8631    5.2635   14.5371 C   0  0  2  0  0  0  0  0  0  0  0  0
   -9.8633    5.9177   13.7335 O   0  0  0  0  0  0  0  0  0  0  0  0
  -10.4298    3.8937   14.7454 C   0  0  0  0  0  0  0  0  0  0  0  0
  -10.9130    6.0422   15.8877 C   0  0  0  0  0  0  0  0  0  0  0  0
  -11.4009    7.4434   15.6700 O   0  0  0  0  0  0  0  0  0  0  0  0
  1  2  1  6  0  0  0
  1  3  1  0  0  0  0
  1 10  1  0  0  0  0
  3  4  1  6  0  0  0
  3  5  1  0  0  0  0
  5  6  1  1  0  0  0
  5  7  1  0  0  0  0
  7  8  1  6  0  0  0
  7  9  1  0  0  0  0
  9 10  1  1  0  0  0
  9 11  1  0  0  0  0
 11 12  1  6  0  0  0
 11 13  1  0  0  0  0
 14 15  1  6  0  0  0
 14 16  1  0  0  0  0
 14 22  1  0  0  0  0
 16 17  1  0  0  0  0
 17 18  1  6  0  0  0
 17 19  1  0  0  0  0
 19  2  1  1  0  0  0
 19 20  1  0  0  0  0
 20 21  1  6  0  0  0
 20 22  1  0  0  0  0
 22 23  1  1  0  0  0
 24 23  1  1  0  0  0
 24 25  1  0  0  0  0
 24 34  1  0  0  0  0
 25 26  1  1  0  0  0
 25 27  1  0  0  0  0
 27 28  1  6  0  0  0
 27 30  1  0  0  0  0
 28 29  1  0  0  0  0
 30 31  1  6  0  0  0
 30 32  1  0  0  0  0
 30 33  1  0  0  0  0
 33 34  1  0  0  0  0
M  CHG  4   4   1  15   1  18   1  28   1
M  END
>  <CHROM.1>
178.84477725,37.96323910,62.50538150,178.91970267,-58.84654104,-60.05488064
59.09138563,-63.50958449,41.44681943,165.32104958,162.72858389,-94.61835743
169.30932075,21.65730571,63.62177273,-14.22256168,8.22018089,16.78888972
2.00073281,-0.05303310,0.77028840

>  <Name>
1mwl

>  <RI>
0

>  <Rbt.Current_Directory>
/home/itssahil/PROJECTS/Mol_Feturizer/New_Systems/rnas/1mwl

>  <Rbt.Executable>
rbdock ($Id: //depot/dev/client3/rdock/2013.1/src/exe/rbdock.cxx#4 $)

>  <Rbt.Library>
libRbt.so (2013.1, Build901 2013/11/27)

>  <Rbt.Parameter_File>
/export/apps/rDock/src/rDock_2013.1_src/data/scripts/dock_solv.prm

>  <Rbt.Receptor>
prm/pocket_docking_5.prm

>  <SCORE>
-47.934

>  <SCORE.INTER>
-30.1964

>  <SCORE.INTER.CONST>
1

>  <SCORE.INTER.POLAR>
-5.6978

>  <SCORE.INTER.ROT>
6

>  <SCORE.INTER.SOLV>
11.7598

>  <SCORE.INTER.VDW>
-12.6582

>  <SCORE.INTER.norm>
-0.88813

>  <SCORE.INTRA>
-17.7376

>  <SCORE.INTRA.DIHEDRAL>
-28.938

>  <SCORE.INTRA.DIHEDRAL.0>
42.0816

>  <SCORE.INTRA.POLAR>
-0.0562191

>  <SCORE.INTRA.POLAR.0>
-0.254682

>  <SCORE.INTRA.REPUL>
0

>  <SCORE.INTRA.REPUL.0>
0

>  <SCORE.INTRA.SOLV>
-0.0952382

>  <SCORE.INTRA.SOLV.lig_0>
-109.803

>  <SCORE.INTRA.VDW>
-3.02982

>  <SCORE.INTRA.VDW.0>
0.32176

>  <SCORE.INTRA.norm>
-0.521694

>  <SCORE.RESTR>
0

>  <SCORE.RESTR.CAVITY>
0

>  <SCORE.RESTR.norm>
0

>  <SCORE.SYSTEM>
0

>  <SCORE.SYSTEM.CONST>
0

>  <SCORE.SYSTEM.DIHEDRAL>
0

>  <SCORE.SYSTEM.SOLV>
0

>  <SCORE.SYSTEM.norm>
0

>  <SCORE.heavy>
34

>  <SCORE.norm>
-1.40982

>  <RMSD>
6.930

$$$$
1mwl
 OpenBabel11021811403D
libRbt.so/2013.1/901 2013/11/27
 34 36  0  0  0  0  0  0  0  0999 V2000
   -9.7368    5.3184   15.3025 C   0  0  2  0  0  0  0  0  0  0  0  0
  -10.3201    6.5684   15.0877 O   0  0  0  0  0  0  0  0  0  0  0  0
   -8.4814    5.5374   16.1929 C   0  0  2  0  0  0  0  0  0  0  0  0
   -8.8644    6.1677   17.4601 N   0  3  0  0  0  0  0  0  0  0  0  0
   -7.4130    6.3806   15.4371 C   0  0  1  0  0  0  0  0  0  0  0  0
   -6.3038    6.5543   16.1985 O   0  0  0  0  0  0  0  0  0  0  0  0
   -7.0601    5.6537   14.0975 C   0  0  2  0  0  0  0  0  0  0  0  0
   -6.0626    6.4043   13.3738 O   0  0  0  0  0  0  0  0  0  0  0  0
   -8.3742    5.4998   13.2589 C   0  0  2  0  0  0  0  0  0  0  0  0
   -9.3841    4.7341   14.0226 O   0  0  0  0  0  0  0  0  0  0  0  0
   -8.1965    4.7799   11.9173 C   0  0  2  0  0  0  0  0  0  0  0  0
   -7.1778    5.3871   11.1913 O   0  0  0  0  0  0  0  0  0  0  0  0
   -9.4488    4.8243   11.0229 C   0  0  0  0  0  0  0  0  0  0  0  0
  -14.0537    8.6335   15.3224 C   0  0  2  0  0  0  0  0  0  0  0  0
  -15.5147    8.8991   15.3118 N   0  3  0  0  0  0  0  0  0  0  0  0
  -13.5751    8.1313   13.9279 C   0  0  0  0  0  0  0  0  0  0  0  0
  -12.0317    7.8357   13.9549 C   0  0  2  0  0  0  0  0  0  0  0  0
  -11.5968    7.3608   12.5904 N   0  3  0  0  0  0  0  0  0  0  0  0
  -11.7273    6.7706   15.0637 C   0  0  2  0  0  0  0  0  0  0  0  0
  -12.2059    7.3020   16.4369 C   0  0  2  0  0  0  0  0  0  0  0  0
  -11.9585    6.3241   17.4181 O   0  0  0  0  0  0  0  0  0  0  0  0
  -13.7336    7.5737   16.3980 C   0  0  1  0  0  0  0  0  0  0  0  0
  -14.1505    8.0571   17.6665 O   0  0  0  0  0  0  0  0  0  0  0  0
  -15.4466    7.7583   18.1063 C   0  0  2  0  0  0  0  0  0  0  0  0
  -15.6469    8.4590   19.4635 C   0  0  2  0  0  0  0  0  0  0  0  0
  -15.5179    9.8533   19.2846 O   0  0  0  0  0  0  0  0  0  0  0  0
  -14.5787    7.9264   20.4784 C   0  0  1  0  0  0  0  0  0  0  0  0
  -14.6851    8.5761   21.8076 N   0  3  0  0  0  0  0  0  0  0  0  0
  -13.4174    9.2648   22.1606 C   0  0  0  0  0  0  0  0  0  0  0  0
  -14.7388    6.3742   20.6273 C   0  0  2  0  0  0  0  0  0  0  0  0
  -16.0559    6.0626   21.1188 O   0  0  0  0  0  0  0  0  0  0  0  0
  -13.7792    5.8138   21.5612 C   0  0  0  0  0  0  0  0  0  0  0  0
  -14.6222    5.6878   19.2315 C   0  0  0  0  0  0  0  0  0  0  0  0
  -15.5876    6.3003   18.2611 O   0  0  0  0  0  0  0  0  0  0  0  0
  1  2  1  6  0  0  0
  1  3  1  0  0  0  0
  1 10  1  0  0  0  0
  3  4  1  1  0  0  0
  3  5  1  0  0  0  0
  5  6  1  1  0  0  0
  5  7  1  0  0  0  0
  7  8  1  6  0  0  0
  7  9  1  0  0  0  0
  9 10  1  1  0  0  0
  9 11  1  0  0  0  0
 11 12  1  6  0  0  0
 11 13  1  0  0  0  0
 14 15  1  6  0  0  0
 14 16  1  0  0  0  0
 14 22  1  0  0  0  0
 16 17  1  0  0  0  0
 17 18  1  6  0  0  0
 17 19  1  0  0  0  0
 19  2  1  1  0  0  0
 19 20  1  0  0  0  0
 20 21  1  1  0  0  0
 20 22  1  0  0  0  0
 22 23  1  1  0  0  0
 24 23  1  1  0  0  0
 24 25  1  0  0  0  0
 24 34  1  0  0  0  0
 25 26  1  6  0  0  0
 25 27  1  0  0  0  0
 27 28  1  1  0  0  0
 27 30  1  0  0  0  0
 28 29  1  0  0  0  0
 30 31  1  1  0  0  0
 30 32  1  0  0  0  0
 30 33  1  0  0  0  0
 33 34  1  0  0  0  0
M  CHG  4   4   1  15   1  18   1  28   1
M  END
>  <CHROM.1>
-141.42502481,-142.48515726,24.14227770,-165.69738789,-55.08948472,-52.69343182
175.93342836,-174.24073862,106.13367003,-60.80410220,91.11953681,-177.25739250
-172.48569563,-0.81619037,176.57332952,-11.79291812,6.85641647,16.49640743
-0.73335097,-0.30927554,1.60783884

>  <Name>
1mwl

>  <RI>
0

>  <Rbt.Current_Directory>
/home/itssahil/PROJECTS/Mol_Feturizer/New_Systems/rnas/1mwl

>  <Rbt.Executable>
rbdock ($Id: //depot/dev/client3/rdock/2013.1/src/exe/rbdock.cxx#4 $)

>  <Rbt.Library>
libRbt.so (2013.1, Build901 2013/11/27)

>  <Rbt.Parameter_File>
/export/apps/rDock/src/rDock_2013.1_src/data/scripts/dock_solv.prm

>  <Rbt.Receptor>
prm/pocket_docking_7.prm

>  <SCORE>
-41.6134

>  <SCORE.INTER>
-28.3047

>  <SCORE.INTER.CONST>
1

>  <SCORE.INTER.POLAR>
-4.8102

>  <SCORE.INTER.ROT>
6

>  <SCORE.INTER.SOLV>
17.6078

>  <SCORE.INTER.VDW>
-16.3051

>  <SCORE.INTER.norm>
-0.832491

>  <SCORE.INTRA>
-13.5638

>  <SCORE.INTRA.DIHEDRAL>
-17.2008

>  <SCORE.INTRA.DIHEDRAL.0>
42.0816

>  <SCORE.INTRA.POLAR>
-0.912444

>  <SCORE.INTRA.POLAR.0>
-0.254682

>  <SCORE.INTRA.REPUL>
0

>  <SCORE.INTRA.REPUL.0>
0

>  <SCORE.INTRA.SOLV>
1.71968

>  <SCORE.INTRA.SOLV.lig_0>
-109.803

>  <SCORE.INTRA.VDW>
-2.72092

>  <SCORE.INTRA.VDW.0>
0.32176

>  <SCORE.INTRA.norm>
-0.398935

>  <SCORE.RESTR>
0.255109

>  <SCORE.RESTR.CAVITY>
0.255109

>  <SCORE.RESTR.norm>
0.00750322

>  <SCORE.SYSTEM>
0

>  <SCORE.SYSTEM.CONST>
0

>  <SCORE.SYSTEM.DIHEDRAL>
0

>  <SCORE.SYSTEM.SOLV>
0

>  <SCORE.SYSTEM.norm>
0

>  <SCORE.heavy>
34

>  <SCORE.norm>
-1.22392

>  <RMSD>
6.936

$$$$
1mwl
 OpenBabel11021811403D
libRbt.so/2013.1/901 2013/11/27
 34 36  0  0  0  0  0  0  0  0999 V2000
  -13.4223   11.2056   19.2577 C   0  0  2  0  0  0  0  0  0  0  0  0
  -13.9003   10.2380   20.1431 O   0  0  0  0  0  0  0  0  0  0  0  0
  -13.3433   12.5495   20.0352 C   0  0  2  0  0  0  0  0  0  0  0  0
  -12.4584   12.4106   21.1958 N   0  3  0  0  0  0  0  0  0  0  0  0
  -14.7649   13.0242   20.4561 C   0  0  1  0  0  0  0  0  0  0  0  0
  -14.7064   14.2096   21.1130 O   0  0  0  0  0  0  0  0  0  0  0  0
  -15.6518   13.1425   19.1727 C   0  0  2  0  0  0  0  0  0  0  0  0
  -16.9772   13.5910   19.5254 O   0  0  0  0  0  0  0  0  0  0  0  0
  -15.6938   11.7423   18.4717 C   0  0  2  0  0  0  0  0  0  0  0  0
  -14.3249   11.2995   18.1261 O   0  0  0  0  0  0  0  0  0  0  0  0
  -16.5116   11.6999   17.1758 C   0  0  2  0  0  0  0  0  0  0  0  0
  -17.8438   11.9855   17.4532 O   0  0  0  0  0  0  0  0  0  0  0  0
  -16.5005   10.3243   16.4844 C   0  0  0  0  0  0  0  0  0  0  0  0
  -11.7063    6.7436   19.0319 C   0  0  2  0  0  0  0  0  0  0  0  0
  -11.3145    5.3186   18.8864 N   0  3  0  0  0  0  0  0  0  0  0  0
  -11.7175    7.1612   20.5323 C   0  0  0  0  0  0  0  0  0  0  0  0
  -12.1511    8.6649   20.6766 C   0  0  2  0  0  0  0  0  0  0  0  0
  -12.1434    9.0422   22.1376 N   0  3  0  0  0  0  0  0  0  0  0  0
  -13.5677    8.8599   20.0350 C   0  0  2  0  0  0  0  0  0  0  0  0
  -13.5218    8.4452   18.5440 C   0  0  2  0  0  0  0  0  0  0  0  0
  -14.8060    8.5921   17.9878 O   0  0  0  0  0  0  0  0  0  0  0  0
  -13.1076    6.9544   18.4199 C   0  0  1  0  0  0  0  0  0  0  0  0
  -13.0746    6.5958   17.0463 O   0  0  0  0  0  0  0  0  0  0  0  0
  -12.5072    7.4923   16.1315 C   0  0  2  0  0  0  0  0  0  0  0  0
  -12.9942    7.0890   14.7268 C   0  0  2  0  0  0  0  0  0  0  0  0
  -14.4011    7.1931   14.6803 O   0  0  0  0  0  0  0  0  0  0  0  0
  -12.5339    5.6219   14.4259 C   0  0  1  0  0  0  0  0  0  0  0  0
  -12.9904    5.1450   13.0976 N   0  3  0  0  0  0  0  0  0  0  0  0
  -14.4380    4.8136   13.1256 C   0  0  0  0  0  0  0  0  0  0  0  0
  -10.9708    5.5443   14.5139 C   0  0  2  0  0  0  0  0  0  0  0  0
  -10.3810    6.4335   13.5469 O   0  0  0  0  0  0  0  0  0  0  0  0
  -10.4745    4.2080   14.2396 C   0  0  0  0  0  0  0  0  0  0  0  0
  -10.4881    6.0406   15.9117 C   0  0  0  0  0  0  0  0  0  0  0  0
  -11.0388    7.4042   16.2054 O   0  0  0  0  0  0  0  0  0  0  0  0
  1  2  1  1  0  0  0
  1  3  1  0  0  0  0
  1 10  1  0  0  0  0
  3  4  1  1  0  0  0
  3  5  1  0  0  0  0
  5  6  1  6  0  0  0
  5  7  1  0  0  0  0
  7  8  1  1  0  0  0
  7  9  1  0  0  0  0
  9 10  1  6  0  0  0
  9 11  1  0  0  0  0
 11 12  1  1  0  0  0
 11 13  1  0  0  0  0
 14 15  1  1  0  0  0
 14 16  1  0  0  0  0
 14 22  1  0  0  0  0
 16 17  1  0  0  0  0
 17 18  1  1  0  0  0
 17 19  1  0  0  0  0
 19  2  1  6  0  0  0
 19 20  1  0  0  0  0
 20 21  1  1  0  0  0
 20 22  1  0  0  0  0
 22 23  1  6  0  0  0
 24 23  1  1  0  0  0
 24 25  1  0  0  0  0
 24 34  1  0  0  0  0
 25 26  1  1  0  0  0
 25 27  1  0  0  0  0
 27 28  1  6  0  0  0
 27 30  1  0  0  0  0
 28 29  1  0  0  0  0
 30 31  1  6  0  0  0
 30 32  1  0  0  0  0
 30 33  1  0  0  0  0
 33 34  1  0  0  0  0
M  CHG  4   4   1  15   1  18   1  28   1
M  END
>  <CHROM.1>
-151.12098420,80.85679547,-63.36888848,65.83064672,62.53394029,-63.05150721
50.51971673,164.96134495,-92.74343699,175.49516467,-77.56350818,-162.18592726
-57.75148910,44.53705103,177.85599585,-13.44208395,8.86846031,17.72620403
-2.05246754,0.73887434,-2.16521706

>  <Name>
1mwl

>  <RI>
0

>  <Rbt.Current_Directory>
/home/itssahil/PROJECTS/Mol_Feturizer/New_Systems/rnas/1mwl

>  <Rbt.Executable>
rbdock ($Id: //depot/dev/client3/rdock/2013.1/src/exe/rbdock.cxx#4 $)

>  <Rbt.Library>
libRbt.so (2013.1, Build901 2013/11/27)

>  <Rbt.Parameter_File>
/export/apps/rDock/src/rDock_2013.1_src/data/scripts/dock_solv.prm

>  <Rbt.Receptor>
prm/pocket_docking_5.prm

>  <SCORE>
-36.5065

>  <SCORE.INTER>
-21.4895

>  <SCORE.INTER.CONST>
1

>  <SCORE.INTER.POLAR>
-4.00948

>  <SCORE.INTER.ROT>
6

>  <SCORE.INTER.SOLV>
14.6239

>  <SCORE.INTER.VDW>
-13.436

>  <SCORE.INTER.norm>
-0.632044

>  <SCORE.INTRA>
-15.0257

>  <SCORE.INTRA.DIHEDRAL>
-29.8331

>  <SCORE.INTRA.DIHEDRAL.0>
42.0816

>  <SCORE.INTRA.POLAR>
-0.506992

>  <SCORE.INTRA.POLAR.0>
-0.254682

>  <SCORE.INTRA.REPUL>
0.00394392

>  <SCORE.INTRA.REPUL.0>
0

>  <SCORE.INTRA.SOLV>
2.49976

>  <SCORE.INTRA.SOLV.lig_0>
-109.803

>  <SCORE.INTRA.VDW>
0.345055

>  <SCORE.INTRA.VDW.0>
0.32176

>  <SCORE.INTRA.norm>
-0.441931

>  <SCORE.RESTR>
0.00869531

>  <SCORE.RESTR.CAVITY>
0.00869531

>  <SCORE.RESTR.norm>
0.000255744

>  <SCORE.SYSTEM>
0

>  <SCORE.SYSTEM.CONST>
0

>  <SCORE.SYSTEM.DIHEDRAL>
0

>  <SCORE.SYSTEM.SOLV>
0

>  <SCORE.SYSTEM.norm>
0

>  <SCORE.heavy>
34

>  <SCORE.norm>
-1.07372

>  <RMSD>
6.984

$$$$
1mwl
 OpenBabel11021811403D
libRbt.so/2013.1/901 2013/11/27
 34 36  0  0  0  0  0  0  0  0999 V2000
  -15.7075    9.9217   21.1590 C   0  0  2  0  0  0  0  0  0  0  0  0
  -16.3739   10.1855   19.9611 O   0  0  0  0  0  0  0  0  0  0  0  0
  -15.5238   11.2772   21.8977 C   0  0  2  0  0  0  0  0  0  0  0  0
  -16.8283   11.8995   22.1435 N   0  3  0  0  0  0  0  0  0  0  0  0
  -14.5860   12.2203   21.0886 C   0  0  1  0  0  0  0  0  0  0  0  0
  -14.4004   13.3959   21.7395 O   0  0  0  0  0  0  0  0  0  0  0  0
  -13.2216   11.4901   20.8589 C   0  0  2  0  0  0  0  0  0  0  0  0
  -12.3219   12.3413   20.1186 O   0  0  0  0  0  0  0  0  0  0  0  0
  -13.5007   10.1539   20.0904 C   0  0  2  0  0  0  0  0  0  0  0  0
  -14.4301    9.3010   20.8637 O   0  0  0  0  0  0  0  0  0  0  0  0
  -12.2552    9.3061   19.8080 C   0  0  2  0  0  0  0  0  0  0  0  0
  -11.3629   10.0307   19.0256 O   0  0  0  0  0  0  0  0  0  0  0  0
  -12.5543    8.0100   19.0327 C   0  0  0  0  0  0  0  0  0  0  0  0
  -16.8605    8.5190   16.0565 C   0  0  2  0  0  0  0  0  0  0  0  0
  -16.5477    7.8752   14.7554 N   0  3  0  0  0  0  0  0  0  0  0  0
  -16.1178    9.8816   16.1894 C   0  0  0  0  0  0  0  0  0  0  0  0
  -16.4409   10.5457   17.5768 C   0  0  2  0  0  0  0  0  0  0  0  0
  -15.7161   11.8656   17.6721 N   0  3  0  0  0  0  0  0  0  0  0  0
  -16.0215    9.5695   18.7290 C   0  0  2  0  0  0  0  0  0  0  0  0
  -16.7819    8.2297   18.5744 C   0  0  2  0  0  0  0  0  0  0  0  0
  -16.3723    7.3501   19.5935 O   0  0  0  0  0  0  0  0  0  0  0  0
  -16.4399    7.5797   17.2069 C   0  0  1  0  0  0  0  0  0  0  0  0
  -17.1452    6.3530   17.0879 O   0  0  0  0  0  0  0  0  0  0  0  0
  -16.5976    5.3377   16.2930 C   0  0  2  0  0  0  0  0  0  0  0  0
  -17.6430    4.2104   16.1984 C   0  0  2  0  0  0  0  0  0  0  0  0
  -18.8092    4.7150   15.5837 O   0  0  0  0  0  0  0  0  0  0  0  0
  -17.9575    3.6802   17.6388 C   0  0  1  0  0  0  0  0  0  0  0  0
  -18.9822    2.6077   17.6377 N   0  3  0  0  0  0  0  0  0  0  0  0
  -20.2517    3.0911   18.2384 C   0  0  0  0  0  0  0  0  0  0  0  0
  -16.6341    3.1550   18.2945 C   0  0  2  0  0  0  0  0  0  0  0  0
  -16.0878    2.0827   17.5039 O   0  0  0  0  0  0  0  0  0  0  0  0
  -16.8552    2.6422   19.6344 C   0  0  0  0  0  0  0  0  0  0  0  0
  -15.5562    4.2825   18.3016 C   0  0  0  0  0  0  0  0  0  0  0  0
  -15.3635    4.8355   16.9211 O   0  0  0  0  0  0  0  0  0  0  0  0
  1  2  1  6  0  0  0
  1  3  1  0  0  0  0
  1 10  1  0  0  0  0
  3  4  1  6  0  0  0
  3  5  1  0  0  0  0
  5  6  1  1  0  0  0
  5  7  1  0  0  0  0
  7  8  1  6  0  0  0
  7  9  1  0  0  0  0
  9 10  1  1  0  0  0
  9 11  1  0  0  0  0
 11 12  1  6  0  0  0
 11 13  1  0  0  0  0
 14 15  1  6  0  0  0
 14 16  1  0  0  0  0
 14 22  1  0  0  0  0
 16 17  1  0  0  0  0
 17 18  1  1  0  0  0
 17 19  1  0  0  0  0
 19  2  1  1  0  0  0
 19 20  1  0  0  0  0
 20 21  1  1  0  0  0
 20 22  1  0  0  0  0
 22 23  1  6  0  0  0
 24 23  1  1  0  0  0
 24 25  1  0  0  0  0
 24 34  1  0  0  0  0
 25 26  1  1  0  0  0
 25 27  1  0  0  0  0
 27 28  1  6  0  0  0
 27 30  1  0  0  0  0
 28 29  1  0  0  0  0
 30 31  1  6  0  0  0
 30 32  1  0  0  0  0
 30 33  1  0  0  0  0
 33 34  1  0  0  0  0
M  CHG  4   4   1  15   1  18   1  28   1
M  END
>  <CHROM.1>
138.24859726,-152.91984533,-171.57942923,73.78591777,-70.87772140,-60.34411830
167.22349920,-166.99795116,-175.51075033,68.75916809,87.75052674,-172.85994719
179.71922191,9.86026346,58.30319307,-15.82424486,7.89376831,18.62739172,-0.90235324
0.91421620,2.97607331

>  <Name>
1mwl

>  <RI>
0

>  <Rbt.Current_Directory>
/home/itssahil/PROJECTS/Mol_Feturizer/New_Systems/rnas/1mwl

>  <Rbt.Executable>
rbdock ($Id: //depot/dev/client3/rdock/2013.1/src/exe/rbdock.cxx#4 $)

>  <Rbt.Library>
libRbt.so (2013.1, Build901 2013/11/27)

>  <Rbt.Parameter_File>
/export/apps/rDock/src/rDock_2013.1_src/data/scripts/dock_solv.prm

>  <Rbt.Receptor>
prm/pocket_docking_8.prm

>  <SCORE>
-33.963

>  <SCORE.INTER>
-19.5586

>  <SCORE.INTER.CONST>
1

>  <SCORE.INTER.POLAR>
-3.68915

>  <SCORE.INTER.ROT>
6

>  <SCORE.INTER.SOLV>
12.7834

>  <SCORE.INTER.VDW>
-12.603

>  <SCORE.INTER.norm>
-0.575253

>  <SCORE.INTRA>
-14.4044

>  <SCORE.INTRA.DIHEDRAL>
-23.2578

>  <SCORE.INTRA.DIHEDRAL.0>
42.0816

>  <SCORE.INTRA.POLAR>
0.233237

>  <SCORE.INTRA.POLAR.0>
-0.254682

>  <SCORE.INTRA.REPUL>
0

>  <SCORE.INTRA.REPUL.0>
0

>  <SCORE.INTRA.SOLV>
0.584321

>  <SCORE.INTRA.SOLV.lig_0>
-109.803

>  <SCORE.INTRA.VDW>
-3.86066

>  <SCORE.INTRA.VDW.0>
0.32176

>  <SCORE.INTRA.norm>
-0.423658

>  <SCORE.RESTR>
0

>  <SCORE.RESTR.CAVITY>
0

>  <SCORE.RESTR.norm>
0

>  <SCORE.SYSTEM>
0

>  <SCORE.SYSTEM.CONST>
0

>  <SCORE.SYSTEM.DIHEDRAL>
0

>  <SCORE.SYSTEM.SOLV>
0

>  <SCORE.SYSTEM.norm>
0

>  <SCORE.heavy>
34

>  <SCORE.norm>
-0.998911

>  <RMSD>
6.991

$$$$
1mwl
 OpenBabel11021811403D
libRbt.so/2013.1/901 2013/11/27
 34 36  0  0  0  0  0  0  0  0999 V2000
  -10.3819    5.9744   15.1515 C   0  0  2  0  0  0  0  0  0  0  0  0
  -10.8844    7.2749   15.0830 O   0  0  0  0  0  0  0  0  0  0  0  0
   -9.0971    6.0172   16.0258 C   0  0  2  0  0  0  0  0  0  0  0  0
   -9.4117    6.5342   17.3612 N   0  3  0  0  0  0  0  0  0  0  0  0
   -7.9900    6.8646   15.3330 C   0  0  1  0  0  0  0  0  0  0  0  0
   -6.8567    6.8855   16.0782 O   0  0  0  0  0  0  0  0  0  0  0  0
   -7.7132    6.2613   13.9163 C   0  0  2  0  0  0  0  0  0  0  0  0
   -6.6824    7.0181   13.2478 O   0  0  0  0  0  0  0  0  0  0  0  0
   -9.0512    6.2814   13.1019 C   0  0  2  0  0  0  0  0  0  0  0  0
  -10.0946    5.5063   13.8089 O   0  0  0  0  0  0  0  0  0  0  0  0
   -8.9487    5.6965   11.6886 C   0  0  2  0  0  0  0  0  0  0  0  0
  -10.0504    6.0908   10.9376 O   0  0  0  0  0  0  0  0  0  0  0  0
   -8.9345    4.1573   11.6577 C   0  0  0  0  0  0  0  0  0  0  0  0
  -15.1439    7.4388   15.3825 C   0  0  2  0  0  0  0  0  0  0  0  0
  -16.5652    7.7155   15.0531 N   0  3  0  0  0  0  0  0  0  0  0  0
  -14.3429    8.7671   15.5247 C   0  0  0  0  0  0  0  0  0  0  0  0
  -12.8368    8.4629   15.8550 C   0  0  2  0  0  0  0  0  0  0  0  0
  -12.0901    9.7665   15.9958 N   0  3  0  0  0  0  0  0  0  0  0  0
  -12.2287    7.5659   14.7228 C   0  0  2  0  0  0  0  0  0  0  0  0
  -13.0399    6.2518   14.6121 C   0  0  2  0  0  0  0  0  0  0  0  0
  -12.5063    5.4703   13.5707 O   0  0  0  0  0  0  0  0  0  0  0  0
  -14.5204    6.5688   14.2703 C   0  0  1  0  0  0  0  0  0  0  0  0
  -15.2439    5.3509   14.1714 O   0  0  0  0  0  0  0  0  0  0  0  0
  -15.0701    4.3834   15.1697 C   0  0  2  0  0  0  0  0  0  0  0  0
  -15.0748    3.0047   14.4827 C   0  0  2  0  0  0  0  0  0  0  0  0
  -13.9992    2.9416   13.5707 O   0  0  0  0  0  0  0  0  0  0  0  0
  -16.4427    2.8035   13.7455 C   0  0  1  0  0  0  0  0  0  0  0  0
  -16.5166    1.5061   13.0304 N   0  3  0  0  0  0  0  0  0  0  0  0
  -15.6119    1.5012   11.8526 C   0  0  0  0  0  0  0  0  0  0  0  0
  -17.6092    2.9075   14.7873 C   0  0  2  0  0  0  0  0  0  0  0  0
  -17.4593    1.8887   15.7938 O   0  0  0  0  0  0  0  0  0  0  0  0
  -18.9102    2.7246   14.1698 C   0  0  0  0  0  0  0  0  0  0  0  0
  -17.5369    4.2733   15.5374 C   0  0  0  0  0  0  0  0  0  0  0  0
  -16.1771    4.4733   16.1371 O   0  0  0  0  0  0  0  0  0  0  0  0
  1  2  1  6  0  0  0
  1  3  1  0  0  0  0
  1 10  1  0  0  0  0
  3  4  1  1  0  0  0
  3  5  1  0  0  0  0
  5  6  1  1  0  0  0
  5  7  1  0  0  0  0
  7  8  1  6  0  0  0
  7  9  1  0  0  0  0
  9 10  1  1  0  0  0
  9 11  1  0  0  0  0
 11 12  1  6  0  0  0
 11 13  1  0  0  0  0
 14 15  1  6  0  0  0
 14 16  1  0  0  0  0
 14 22  1  0  0  0  0
 16 17  1  0  0  0  0
 17 18  1  6  0  0  0
 17 19  1  0  0  0  0
 19  2  1  1  0  0  0
 19 20  1  0  0  0  0
 20 21  1  6  0  0  0
 20 22  1  0  0  0  0
 22 23  1  1  0  0  0
 24 23  1  6  0  0  0
 24 25  1  0  0  0  0
 24 34  1  0  0  0  0
 25 26  1  6  0  0  0
 25 27  1  0  0  0  0
 27 28  1  1  0  0  0
 27 30  1  0  0  0  0
 28 29  1  0  0  0  0
 30 31  1  1  0  0  0
 30 32  1  0  0  0  0
 30 33  1  0  0  0  0
 33 34  1  0  0  0  0
M  CHG  4   4   1  15   1  18   1  28   1
M  END
>  <CHROM.1>
-160.60827628,126.30364649,170.79085439,-164.84862983,-53.47430297,-163.55604127
-53.23953876,-75.92805040,33.66899251,-64.71606428,-73.80254468,-141.64294715
45.03753576,49.90163409,64.31852161,-12.77243318,5.48360517,14.43370895,0.31208263
0.23540245,0.58917767

>  <Name>
1mwl

>  <RI>
0

>  <Rbt.Current_Directory>
/home/itssahil/PROJECTS/Mol_Feturizer/New_Systems/rnas/1mwl

>  <Rbt.Executable>
rbdock ($Id: //depot/dev/client3/rdock/2013.1/src/exe/rbdock.cxx#4 $)

>  <Rbt.Library>
libRbt.so (2013.1, Build901 2013/11/27)

>  <Rbt.Parameter_File>
/export/apps/rDock/src/rDock_2013.1_src/data/scripts/dock_solv.prm

>  <Rbt.Receptor>
prm/pocket_docking_7.prm

>  <SCORE>
-51.9169

>  <SCORE.INTER>
-42.6871

>  <SCORE.INTER.CONST>
1

>  <SCORE.INTER.POLAR>
-7.50875

>  <SCORE.INTER.ROT>
6

>  <SCORE.INTER.SOLV>
24.234

>  <SCORE.INTER.VDW>
-19.1069

>  <SCORE.INTER.norm>
-1.2555

>  <SCORE.INTRA>
-9.22973

>  <SCORE.INTRA.DIHEDRAL>
-21.0057

>  <SCORE.INTRA.DIHEDRAL.0>
42.0816

>  <SCORE.INTRA.POLAR>
-0.00338323

>  <SCORE.INTRA.POLAR.0>
-0.254682

>  <SCORE.INTRA.REPUL>
0

>  <SCORE.INTRA.REPUL.0>
0

>  <SCORE.INTRA.SOLV>
-2.16747

>  <SCORE.INTRA.SOLV.lig_0>
-109.803

>  <SCORE.INTRA.VDW>
2.36834

>  <SCORE.INTRA.VDW.0>
0.32176

>  <SCORE.INTRA.norm>
-0.271463

>  <SCORE.RESTR>
0

>  <SCORE.RESTR.CAVITY>
0

>  <SCORE.RESTR.norm>
0

>  <SCORE.SYSTEM>
0

>  <SCORE.SYSTEM.CONST>
0

>  <SCORE.SYSTEM.DIHEDRAL>
0

>  <SCORE.SYSTEM.SOLV>
0

>  <SCORE.SYSTEM.norm>
0

>  <SCORE.heavy>
34

>  <SCORE.norm>
-1.52697

>  <RMSD>
7.015

$$$$
1mwl
 OpenBabel11021811403D
libRbt.so/2013.1/901 2013/11/27
 34 36  0  0  0  0  0  0  0  0999 V2000
  -11.9189    7.8679   20.5511 C   0  0  2  0  0  0  0  0  0  0  0  0
  -11.5969    6.7873   21.3741 O   0  0  0  0  0  0  0  0  0  0  0  0
  -12.1237    9.1065   21.4681 C   0  0  2  0  0  0  0  0  0  0  0  0
  -10.9047    9.3722   22.2381 N   0  3  0  0  0  0  0  0  0  0  0  0
  -13.3533    8.9014   22.4005 C   0  0  1  0  0  0  0  0  0  0  0  0
  -13.5539    9.9890   23.1861 O   0  0  0  0  0  0  0  0  0  0  0  0
  -14.6101    8.6165   21.5135 C   0  0  2  0  0  0  0  0  0  0  0  0
  -15.7735    8.4307   22.3467 O   0  0  0  0  0  0  0  0  0  0  0  0
  -14.3234    7.3437   20.6466 C   0  0  2  0  0  0  0  0  0  0  0  0
  -13.1235    7.5539   19.8067 O   0  0  0  0  0  0  0  0  0  0  0  0
  -15.4609    6.9453   19.6992 C   0  0  2  0  0  0  0  0  0  0  0  0
  -15.9209    8.0688   19.0213 O   0  0  0  0  0  0  0  0  0  0  0  0
  -16.6824    6.3464   20.4200 C   0  0  0  0  0  0  0  0  0  0  0  0
  -10.1315    2.8804   20.4532 C   0  0  2  0  0  0  0  0  0  0  0  0
  -10.0872    1.4704   19.9891 N   0  3  0  0  0  0  0  0  0  0  0  0
  -11.1163    3.0355   21.6499 C   0  0  0  0  0  0  0  0  0  0  0  0
  -11.1698    4.5338   22.1214 C   0  0  2  0  0  0  0  0  0  0  0  0
  -12.1228    4.6506   23.2853 N   0  3  0  0  0  0  0  0  0  0  0  0
  -11.6080    5.4399   20.9200 C   0  0  2  0  0  0  0  0  0  0  0  0
  -10.6064    5.2703   19.7517 C   0  0  2  0  0  0  0  0  0  0  0  0
  -11.0286    6.0618   18.6676 O   0  0  0  0  0  0  0  0  0  0  0  0
  -10.5773    3.7893   19.2880 C   0  0  1  0  0  0  0  0  0  0  0  0
   -9.6554    3.6577   18.2159 O   0  0  0  0  0  0  0  0  0  0  0  0
   -9.6241    2.4533   17.5010 C   0  0  2  0  0  0  0  0  0  0  0  0
   -8.4677    2.5475   16.4877 C   0  0  2  0  0  0  0  0  0  0  0  0
   -7.2539    2.7126   17.1892 O   0  0  0  0  0  0  0  0  0  0  0  0
   -8.7248    3.7580   15.5268 C   0  0  1  0  0  0  0  0  0  0  0  0
   -7.6365    3.9363   14.5348 N   0  3  0  0  0  0  0  0  0  0  0  0
   -6.9917    5.2650   14.6930 C   0  0  0  0  0  0  0  0  0  0  0  0
  -10.0920    3.5486   14.7893 C   0  0  2  0  0  0  0  0  0  0  0  0
  -10.0517    2.3327   14.0190 O   0  0  0  0  0  0  0  0  0  0  0  0
  -10.3911    4.6360   13.8753 C   0  0  0  0  0  0  0  0  0  0  0  0
  -11.2392    3.3658   15.8302 C   0  0  0  0  0  0  0  0  0  0  0  0
  -10.9041    2.2686   16.7959 O   0  0  0  0  0  0  0  0  0  0  0  0
  1  2  1  1  0  0  0
  1  3  1  0  0  0  0
  1 10  1  0  0  0  0
  3  4  1  1  0  0  0
  3  5  1  0  0  0  0
  5  6  1  6  0  0  0
  5  7  1  0  0  0  0
  7  8  1  1  0  0  0
  7  9  1  0  0  0  0
  9 10  1  6  0  0  0
  9 11  1  0  0  0  0
 11 12  1  1  0  0  0
 11 13  1  0  0  0  0
 14 15  1  6  0  0  0
 14 16  1  0  0  0  0
 14 22  1  0  0  0  0
 16 17  1  0  0  0  0
 17 18  1  1  0  0  0
 17 19  1  0  0  0  0
 19  2  1  1  0  0  0
 19 20  1  0  0  0  0
 20 21  1  6  0  0  0
 20 22  1  0  0  0  0
 22 23  1  6  0  0  0
 24 23  1  6  0  0  0
 24 25  1  0  0  0  0
 24 34  1  0  0  0  0
 25 26  1  1  0  0  0
 25 27  1  0  0  0  0
 27 28  1  6  0  0  0
 27 30  1  0  0  0  0
 28 29  1  0  0  0  0
 30 31  1  6  0  0  0
 30 32  1  0  0  0  0
 30 33  1  0  0  0  0
 33 34  1  0  0  0  0
M  CHG  4   4   1  15   1  18   1  28   1
M  END
>  <CHROM.1>
166.74526533,179.04977125,68.89216711,-174.86826605,160.12019752,46.60711443
72.57338765,-143.91116704,49.39801865,-178.17719428,69.92387190,-175.42435037
41.55687562,0.99866466,-59.13783288,-11.43899326,5.39306713,19.12969022,2.45892285
-0.80076775,1.59520766

>  <Name>
1mwl

>  <RI>
0

>  <Rbt.Current_Directory>
/home/itssahil/PROJECTS/Mol_Feturizer/New_Systems/rnas/1mwl

>  <Rbt.Executable>
rbdock ($Id: //depot/dev/client3/rdock/2013.1/src/exe/rbdock.cxx#4 $)

>  <Rbt.Library>
libRbt.so (2013.1, Build901 2013/11/27)

>  <Rbt.Parameter_File>
/export/apps/rDock/src/rDock_2013.1_src/data/scripts/dock_solv.prm

>  <Rbt.Receptor>
prm/pocket_docking_8.prm

>  <SCORE>
-50.4345

>  <SCORE.INTER>
-35.2731

>  <SCORE.INTER.CONST>
1

>  <SCORE.INTER.POLAR>
-6.93959

>  <SCORE.INTER.ROT>
6

>  <SCORE.INTER.SOLV>
17.7519

>  <SCORE.INTER.VDW>
-13.9008

>  <SCORE.INTER.norm>
-1.03745

>  <SCORE.INTRA>
-15.1614

>  <SCORE.INTRA.DIHEDRAL>
-29.3165

>  <SCORE.INTRA.DIHEDRAL.0>
42.0816

>  <SCORE.INTRA.POLAR>
0.220363

>  <SCORE.INTRA.POLAR.0>
-0.254682

>  <SCORE.INTRA.REPUL>
0.0142667

>  <SCORE.INTRA.REPUL.0>
0

>  <SCORE.INTRA.SOLV>
-1.48767

>  <SCORE.INTRA.SOLV.lig_0>
-109.803

>  <SCORE.INTRA.VDW>
-0.579856

>  <SCORE.INTRA.VDW.0>
0.32176

>  <SCORE.INTRA.norm>
-0.445923

>  <SCORE.RESTR>
0

>  <SCORE.RESTR.CAVITY>
0

>  <SCORE.RESTR.norm>
0

>  <SCORE.SYSTEM>
0

>  <SCORE.SYSTEM.CONST>
0

>  <SCORE.SYSTEM.DIHEDRAL>
0

>  <SCORE.SYSTEM.SOLV>
0

>  <SCORE.SYSTEM.norm>
0

>  <SCORE.heavy>
34

>  <SCORE.norm>
-1.48337

>  <RMSD>
7.037

$$$$
1mwl
 OpenBabel11021811403D
libRbt.so/2013.1/901 2013/11/27
 34 36  0  0  0  0  0  0  0  0999 V2000
  -13.5280    8.2641   19.1804 C   0  0  2  0  0  0  0  0  0  0  0  0
  -12.1510    8.1370   19.3711 O   0  0  0  0  0  0  0  0  0  0  0  0
  -13.8000    9.7201   18.7081 C   0  0  2  0  0  0  0  0  0  0  0  0
  -13.0664    9.9947   17.4688 N   0  3  0  0  0  0  0  0  0  0  0  0
  -13.4303   10.7378   19.8266 C   0  0  1  0  0  0  0  0  0  0  0  0
  -13.6891   12.0094   19.4312 O   0  0  0  0  0  0  0  0  0  0  0  0
  -14.2422   10.3798   21.1151 C   0  0  2  0  0  0  0  0  0  0  0  0
  -13.9308   11.3113   22.1723 O   0  0  0  0  0  0  0  0  0  0  0  0
  -13.8873    8.9113   21.5294 C   0  0  2  0  0  0  0  0  0  0  0  0
  -14.2077    7.9756   20.4289 O   0  0  0  0  0  0  0  0  0  0  0  0
  -14.6260    8.4008   22.7718 C   0  0  2  0  0  0  0  0  0  0  0  0
  -14.3079    9.1975   23.8661 O   0  0  0  0  0  0  0  0  0  0  0  0
  -14.2507    6.9601   23.1637 C   0  0  0  0  0  0  0  0  0  0  0  0
   -9.2630    5.1325   20.3157 C   0  0  2  0  0  0  0  0  0  0  0  0
   -8.6043    3.9748   20.9722 N   0  3  0  0  0  0  0  0  0  0  0  0
   -9.4808    6.2918   21.3329 C   0  0  0  0  0  0  0  0  0  0  0  0
  -10.1948    7.5044   20.6330 C   0  0  2  0  0  0  0  0  0  0  0  0
  -10.3833    8.6130   21.6390 N   0  3  0  0  0  0  0  0  0  0  0  0
  -11.5620    7.0259   20.0346 C   0  0  2  0  0  0  0  0  0  0  0  0
  -11.3116    5.8812   19.0226 C   0  0  2  0  0  0  0  0  0  0  0  0
  -12.5478    5.4372   18.5180 O   0  0  0  0  0  0  0  0  0  0  0  0
  -10.6208    4.6863   19.7327 C   0  0  1  0  0  0  0  0  0  0  0  0
  -10.4034    3.6488   18.7878 O   0  0  0  0  0  0  0  0  0  0  0  0
  -10.3849    2.3226   19.2388 C   0  0  2  0  0  0  0  0  0  0  0  0
   -9.8664    1.4483   18.0814 C   0  0  2  0  0  0  0  0  0  0  0  0
   -8.5554    1.8535   17.7504 O   0  0  0  0  0  0  0  0  0  0  0  0
  -10.8247    1.6040   16.8516 C   0  0  1  0  0  0  0  0  0  0  0  0
  -10.3770    0.8132   15.6794 N   0  3  0  0  0  0  0  0  0  0  0  0
   -9.1430    1.3945   15.0917 C   0  0  0  0  0  0  0  0  0  0  0  0
  -12.2721    1.1700   17.2685 C   0  0  2  0  0  0  0  0  0  0  0  0
  -12.2675   -0.2056   17.6941 O   0  0  0  0  0  0  0  0  0  0  0  0
  -13.2140    1.2851   16.1699 C   0  0  0  0  0  0  0  0  0  0  0  0
  -12.7476    2.0038   18.4981 C   0  0  0  0  0  0  0  0  0  0  0  0
  -11.7493    1.9133   19.6135 O   0  0  0  0  0  0  0  0  0  0  0  0
  1  2  1  1  0  0  0
  1  3  1  0  0  0  0
  1 10  1  0  0  0  0
  3  4  1  6  0  0  0
  3  5  1  0  0  0  0
  5  6  1  6  0  0  0
  5  7  1  0  0  0  0
  7  8  1  1  0  0  0
  7  9  1  0  0  0  0
  9 10  1  6  0  0  0
  9 11  1  0  0  0  0
 11 12  1  1  0  0  0
 11 13  1  0  0  0  0
 14 15  1  1  0  0  0
 14 16  1  0  0  0  0
 14 22  1  0  0  0  0
 16 17  1  0  0  0  0
 17 18  1  1  0  0  0
 17 19  1  0  0  0  0
 19  2  1  6  0  0  0
 19 20  1  0  0  0  0
 20 21  1  1  0  0  0
 20 22  1  0  0  0  0
 22 23  1  6  0  0  0
 24 23  1  6  0  0  0
 24 25  1  0  0  0  0
 24 34  1  0  0  0  0
 25 26  1  6  0  0  0
 25 27  1  0  0  0  0
 27 28  1  6  0  0  0
 27 30  1  0  0  0  0
 28 29  1  0  0  0  0
 30 31  1  1  0  0  0
 30 32  1  0  0  0  0
 30 33  1  0  0  0  0
 33 34  1  0  0  0  0
M  CHG  4   4   1  15   1  18   1  28   1
M  END
>  <CHROM.1>
167.99277512,-154.30460856,178.38503771,-73.05618119,-63.32344701,-60.77748883
50.95389769,-172.02904053,89.67504794,-56.90535737,88.84505600,-169.21848934
67.24145660,49.92898514,-55.13527475,-11.90079489,5.77424832,19.47288342
2.04379123,-0.84752950,0.77340982

>  <Name>
1mwl

>  <RI>
0

>  <Rbt.Current_Directory>
/home/itssahil/PROJECTS/Mol_Feturizer/New_Systems/rnas/1mwl

>  <Rbt.Executable>
rbdock ($Id: //depot/dev/client3/rdock/2013.1/src/exe/rbdock.cxx#4 $)

>  <Rbt.Library>
libRbt.so (2013.1, Build901 2013/11/27)

>  <Rbt.Parameter_File>
/export/apps/rDock/src/rDock_2013.1_src/data/scripts/dock_solv.prm

>  <Rbt.Receptor>
prm/pocket_docking_8.prm

>  <SCORE>
-54.7717

>  <SCORE.INTER>
-36.5573

>  <SCORE.INTER.CONST>
1

>  <SCORE.INTER.POLAR>
-6.77915

>  <SCORE.INTER.ROT>
6

>  <SCORE.INTER.SOLV>
18.6761

>  <SCORE.INTER.VDW>
-15.5998

>  <SCORE.INTER.norm>
-1.07522

>  <SCORE.INTRA>
-18.2144

>  <SCORE.INTRA.DIHEDRAL>
-30.6633

>  <SCORE.INTRA.DIHEDRAL.0>
42.0816

>  <SCORE.INTRA.POLAR>
-0.0727944

>  <SCORE.INTRA.POLAR.0>
-0.254682

>  <SCORE.INTRA.REPUL>
0

>  <SCORE.INTRA.REPUL.0>
0

>  <SCORE.INTRA.SOLV>
0.245524

>  <SCORE.INTRA.SOLV.lig_0>
-109.803

>  <SCORE.INTRA.VDW>
-2.75799

>  <SCORE.INTRA.VDW.0>
0.32176

>  <SCORE.INTRA.norm>
-0.535718

>  <SCORE.RESTR>
0

>  <SCORE.RESTR.CAVITY>
0

>  <SCORE.RESTR.norm>
0

>  <SCORE.SYSTEM>
0

>  <SCORE.SYSTEM.CONST>
0

>  <SCORE.SYSTEM.DIHEDRAL>
0

>  <SCORE.SYSTEM.SOLV>
0

>  <SCORE.SYSTEM.norm>
0

>  <SCORE.heavy>
34

>  <SCORE.norm>
-1.61093

>  <RMSD>
7.077

$$$$
1mwl
 OpenBabel11021811403D
libRbt.so/2013.1/901 2013/11/27
 34 36  0  0  0  0  0  0  0  0999 V2000
  -11.0915    7.2485   19.8872 C   0  0  2  0  0  0  0  0  0  0  0  0
  -10.8936    6.0956   20.6490 O   0  0  0  0  0  0  0  0  0  0  0  0
  -11.1702    8.4490   20.8718 C   0  0  2  0  0  0  0  0  0  0  0  0
   -9.9361    8.5394   21.6582 N   0  3  0  0  0  0  0  0  0  0  0  0
  -12.4223    8.3255   21.7887 C   0  0  1  0  0  0  0  0  0  0  0  0
  -12.5119    9.3829   22.6336 O   0  0  0  0  0  0  0  0  0  0  0  0
  -13.6951    8.2266   20.8844 C   0  0  2  0  0  0  0  0  0  0  0  0
  -14.8785    8.1206   21.7034 O   0  0  0  0  0  0  0  0  0  0  0  0
  -13.5390    6.9805   19.9479 C   0  0  2  0  0  0  0  0  0  0  0  0
  -12.3168    7.1073   19.1237 O   0  0  0  0  0  0  0  0  0  0  0  0
  -14.7048    6.7596   18.9773 C   0  0  2  0  0  0  0  0  0  0  0  0
  -14.9796    7.9417   18.2987 O   0  0  0  0  0  0  0  0  0  0  0  0
  -16.0154    6.3463   19.6715 C   0  0  0  0  0  0  0  0  0  0  0  0
  -11.7889    1.9381   20.2324 C   0  0  2  0  0  0  0  0  0  0  0  0
  -12.5529    0.6767   20.0575 N   0  3  0  0  0  0  0  0  0  0  0  0
  -12.1999    2.6521   21.5542 C   0  0  0  0  0  0  0  0  0  0  0  0
  -11.3995    3.9944   21.7206 C   0  0  2  0  0  0  0  0  0  0  0  0
  -11.8116    4.6572   23.0119 N   0  3  0  0  0  0  0  0  0  0  0  0
  -11.6713    4.9168   20.4830 C   0  0  2  0  0  0  0  0  0  0  0  0
  -11.2451    4.1836   19.1877 C   0  0  2  0  0  0  0  0  0  0  0  0
  -11.5251    5.0072   18.0816 O   0  0  0  0  0  0  0  0  0  0  0  0
  -12.0555    2.8691   19.0304 C   0  0  1  0  0  0  0  0  0  0  0  0
  -11.6506    2.2155   17.8365 O   0  0  0  0  0  0  0  0  0  0  0  0
  -10.6337    1.2546   17.9086 C   0  0  2  0  0  0  0  0  0  0  0  0
   -9.2884    2.0050   17.9128 C   0  0  2  0  0  0  0  0  0  0  0  0
   -9.2312    2.8401   19.0493 O   0  0  0  0  0  0  0  0  0  0  0  0
   -9.1662    2.8463   16.5966 C   0  0  1  0  0  0  0  0  0  0  0  0
   -7.9057    3.6257   16.5363 N   0  3  0  0  0  0  0  0  0  0  0  0
   -8.1895    5.0769   16.3967 C   0  0  0  0  0  0  0  0  0  0  0  0
   -9.2613    1.8863   15.3612 C   0  0  2  0  0  0  0  0  0  0  0  0
   -8.1935    0.9213   15.4073 O   0  0  0  0  0  0  0  0  0  0  0  0
   -9.1497    2.6027   14.1036 C   0  0  0  0  0  0  0  0  0  0  0  0
  -10.5886    1.0689   15.4194 C   0  0  0  0  0  0  0  0  0  0  0  0
  -10.7161    0.3651   16.7374 O   0  0  0  0  0  0  0  0  0  0  0  0
  1  2  1  1  0  0  0
  1  3  1  0  0  0  0
  1 10  1  0  0  0  0
  3  4  1  1  0  0  0
  3  5  1  0  0  0  0
  5  6  1  1  0  0  0
  5  7  1  0  0  0  0
  7  8  1  1  0  0  0
  7  9  1  0  0  0  0
  9 10  1  6  0  0  0
  9 11  1  0  0  0  0
 11 12  1  1  0  0  0
 11 13  1  0  0  0  0
 14 15  1  6  0  0  0
 14 16  1  0  0  0  0
 14 22  1  0  0  0  0
 16 17  1  0  0  0  0
 17 18  1  1  0  0  0
 17 19  1  0  0  0  0
 19  2  1  1  0  0  0
 19 20  1  0  0  0  0
 20 21  1  6  0  0  0
 20 22  1  0  0  0  0
 22 23  1  6  0  0  0
 24 23  1  6  0  0  0
 24 25  1  0  0  0  0
 24 34  1  0  0  0  0
 25 26  1  1  0  0  0
 25 27  1  0  0  0  0
 27 28  1  1  0  0  0
 27 30  1  0  0  0  0
 28 29  1  0  0  0  0
 30 31  1  1  0  0  0
 30 32  1  0  0  0  0
 30 33  1  0  0  0  0
 33 34  1  0  0  0  0
M  CHG  4   4   1  15   1  18   1  28   1
M  END
>  <CHROM.1>
130.83626326,-166.38597472,22.14658576,-60.23288774,52.00154962,50.45488595
176.83049377,-80.47228269,-178.56777283,77.76593850,-27.36910566,-81.66754195
147.08119024,-1.62060966,-57.07676624,-11.41632122,4.64838525,19.09970402
-2.20827248,-0.77377455,-2.96339952

>  <Name>
1mwl

>  <RI>
0

>  <Rbt.Current_Directory>
/home/itssahil/PROJECTS/Mol_Feturizer/New_Systems/rnas/1mwl

>  <Rbt.Executable>
rbdock ($Id: //depot/dev/client3/rdock/2013.1/src/exe/rbdock.cxx#4 $)

>  <Rbt.Library>
libRbt.so (2013.1, Build901 2013/11/27)

>  <Rbt.Parameter_File>
/export/apps/rDock/src/rDock_2013.1_src/data/scripts/dock_solv.prm

>  <Rbt.Receptor>
prm/pocket_docking_8.prm

>  <SCORE>
-34.6422

>  <SCORE.INTER>
-33.2147

>  <SCORE.INTER.CONST>
1

>  <SCORE.INTER.POLAR>
-6.43685

>  <SCORE.INTER.ROT>
6

>  <SCORE.INTER.SOLV>
16.1665

>  <SCORE.INTER.VDW>
-13.6758

>  <SCORE.INTER.norm>
-0.976903

>  <SCORE.INTRA>
-1.42984

>  <SCORE.INTRA.DIHEDRAL>
-14.9439

>  <SCORE.INTRA.DIHEDRAL.0>
42.0816

>  <SCORE.INTRA.POLAR>
0.247341

>  <SCORE.INTRA.POLAR.0>
-0.254682

>  <SCORE.INTRA.REPUL>
0

>  <SCORE.INTRA.REPUL.0>
0

>  <SCORE.INTRA.SOLV>
1.53665

>  <SCORE.INTRA.SOLV.lig_0>
-109.803

>  <SCORE.INTRA.VDW>
4.43281

>  <SCORE.INTRA.VDW.0>
0.32176

>  <SCORE.INTRA.norm>
-0.0420542

>  <SCORE.RESTR>
0.00232279

>  <SCORE.RESTR.CAVITY>
0.00232279

>  <SCORE.RESTR.norm>
6.83174e-05

>  <SCORE.SYSTEM>
0

>  <SCORE.SYSTEM.CONST>
0

>  <SCORE.SYSTEM.DIHEDRAL>
0

>  <SCORE.SYSTEM.SOLV>
0

>  <SCORE.SYSTEM.norm>
0

>  <SCORE.heavy>
34

>  <SCORE.norm>
-1.01889

>  <RMSD>
7.093

$$$$
1mwl
 OpenBabel11021811403D
libRbt.so/2013.1/901 2013/11/27
 34 36  0  0  0  0  0  0  0  0999 V2000
  -11.2051    2.7003   16.9647 C   0  0  2  0  0  0  0  0  0  0  0  0
  -10.1706    3.4622   17.5105 O   0  0  0  0  0  0  0  0  0  0  0  0
  -10.9718    2.6307   15.4293 C   0  0  2  0  0  0  0  0  0  0  0  0
   -9.6648    2.0309   15.1434 N   0  3  0  0  0  0  0  0  0  0  0  0
  -11.1023    4.0441   14.7899 C   0  0  1  0  0  0  0  0  0  0  0  0
  -10.9252    3.9875   13.4462 O   0  0  0  0  0  0  0  0  0  0  0  0
  -12.5128    4.6224   15.1413 C   0  0  2  0  0  0  0  0  0  0  0  0
  -12.6725    5.9311   14.5548 O   0  0  0  0  0  0  0  0  0  0  0  0
  -12.6480    4.6787   16.7010 C   0  0  2  0  0  0  0  0  0  0  0  0
  -12.4737    3.3285   17.2807 O   0  0  0  0  0  0  0  0  0  0  0  0
  -13.9952    5.2059   17.2077 C   0  0  2  0  0  0  0  0  0  0  0  0
  -14.0755    5.0382   18.5857 O   0  0  0  0  0  0  0  0  0  0  0  0
  -15.2091    4.4694   16.6124 C   0  0  0  0  0  0  0  0  0  0  0  0
  -11.5243    4.3339   21.4687 C   0  0  2  0  0  0  0  0  0  0  0  0
  -11.5124    4.6874   22.9110 N   0  3  0  0  0  0  0  0  0  0  0  0
  -10.7748    2.9905   21.2248 C   0  0  0  0  0  0  0  0  0  0  0  0
  -10.7771    2.6350   19.6939 C   0  0  2  0  0  0  0  0  0  0  0  0
  -10.0534    1.3267   19.4906 N   0  3  0  0  0  0  0  0  0  0  0  0
  -10.1047    3.8004   18.8900 C   0  0  2  0  0  0  0  0  0  0  0  0
  -10.8765    5.1180   19.1460 C   0  0  2  0  0  0  0  0  0  0  0  0
  -10.2440    6.1627   18.4469 O   0  0  0  0  0  0  0  0  0  0  0  0
  -10.8512    5.4628   20.6592 C   0  0  1  0  0  0  0  0  0  0  0  0
  -11.5616    6.6742   20.8701 O   0  0  0  0  0  0  0  0  0  0  0  0
  -11.2250    7.7934   20.0976 C   0  0  2  0  0  0  0  0  0  0  0  0
  -11.4949    9.0444   20.9548 C   0  0  2  0  0  0  0  0  0  0  0  0
  -10.6767    8.9998   22.1042 O   0  0  0  0  0  0  0  0  0  0  0  0
  -13.0105    9.0777   21.3509 C   0  0  1  0  0  0  0  0  0  0  0  0
  -13.3482   10.2416   22.2060 N   0  3  0  0  0  0  0  0  0  0  0  0
  -14.1168    9.8116   23.4020 C   0  0  0  0  0  0  0  0  0  0  0  0
  -13.8827    9.0995   20.0487 C   0  0  2  0  0  0  0  0  0  0  0  0
  -13.5709   10.2698   19.2699 O   0  0  0  0  0  0  0  0  0  0  0  0
  -15.3035    9.1360   20.3441 C   0  0  0  0  0  0  0  0  0  0  0  0
  -13.5331    7.8735   19.1497 C   0  0  0  0  0  0  0  0  0  0  0  0
  -12.0584    7.8194   18.8834 O   0  0  0  0  0  0  0  0  0  0  0  0
  1  2  1  1  0  0  0
  1  3  1  0  0  0  0
  1 10  1  0  0  0  0
  3  4  1  1  0  0  0
  3  5  1  0  0  0  0
  5  6  1  6  0  0  0
  5  7  1  0  0  0  0
  7  8  1  6  0  0  0
  7  9  1  0  0  0  0
  9 10  1  1  0  0  0
  9 11  1  0  0  0  0
 11 12  1  1  0  0  0
 11 13  1  0  0  0  0
 14 15  1  1  0  0  0
 14 16  1  0  0  0  0
 14 22  1  0  0  0  0
 16 17  1  0  0  0  0
 17 18  1  1  0  0  0
 17 19  1  0  0  0  0
 19  2  1  6  0  0  0
 19 20  1  0  0  0  0
 20 21  1  6  0  0  0
 20 22  1  0  0  0  0
 22 23  1  6  0  0  0
 24 23  1  1  0  0  0
 24 25  1  0  0  0  0
 24 34  1  0  0  0  0
 25 26  1  1  0  0  0
 25 27  1  0  0  0  0
 27 28  1  1  0  0  0
 27 30  1  0  0  0  0
 28 29  1  0  0  0  0
 30 31  1  6  0  0  0
 30 32  1  0  0  0  0
 30 33  1  0  0  0  0
 33 34  1  0  0  0  0
M  CHG  4   4   1  15   1  18   1  28   1
M  END
>  <CHROM.1>
176.26071107,30.91714631,179.54045260,-63.75029214,-62.98262731,171.73133111
-47.02040008,-111.58875363,166.45280705,58.81059219,-171.99804215,-149.23362721
87.76520698,-10.60625684,-67.32695124,-11.98711531,5.73143887,18.81447868
-1.13197693,-1.00781264,1.11740149

>  <Name>
1mwl

>  <RI>
0

>  <Rbt.Current_Directory>
/home/itssahil/PROJECTS/Mol_Feturizer/New_Systems/rnas/1mwl

>  <Rbt.Executable>
rbdock ($Id: //depot/dev/client3/rdock/2013.1/src/exe/rbdock.cxx#4 $)

>  <Rbt.Library>
libRbt.so (2013.1, Build901 2013/11/27)

>  <Rbt.Parameter_File>
/export/apps/rDock/src/rDock_2013.1_src/data/scripts/dock_solv.prm

>  <Rbt.Receptor>
prm/pocket_docking_7.prm

>  <SCORE>
-38.3961

>  <SCORE.INTER>
-27.7952

>  <SCORE.INTER.CONST>
1

>  <SCORE.INTER.POLAR>
-5.89293

>  <SCORE.INTER.ROT>
6

>  <SCORE.INTER.SOLV>
11.4387

>  <SCORE.INTER.VDW>
-10.3

>  <SCORE.INTER.norm>
-0.817507

>  <SCORE.INTRA>
-10.6008

>  <SCORE.INTRA.DIHEDRAL>
-22.7485

>  <SCORE.INTRA.DIHEDRAL.0>
42.0816

>  <SCORE.INTRA.POLAR>
0.0617342

>  <SCORE.INTRA.POLAR.0>
-0.254682

>  <SCORE.INTRA.REPUL>
0

>  <SCORE.INTRA.REPUL.0>
0

>  <SCORE.INTRA.SOLV>
-0.767268

>  <SCORE.INTRA.SOLV.lig_0>
-109.803

>  <SCORE.INTRA.VDW>
0.947172

>  <SCORE.INTRA.VDW.0>
0.32176

>  <SCORE.INTRA.norm>
-0.311789

>  <SCORE.RESTR>
0

>  <SCORE.RESTR.CAVITY>
0

>  <SCORE.RESTR.norm>
0

>  <SCORE.SYSTEM>
0

>  <SCORE.SYSTEM.CONST>
0

>  <SCORE.SYSTEM.DIHEDRAL>
0

>  <SCORE.SYSTEM.SOLV>
0

>  <SCORE.SYSTEM.norm>
0

>  <SCORE.heavy>
34

>  <SCORE.norm>
-1.1293

>  <RMSD>
7.111

$$$$
1mwl
 OpenBabel11021811403D
libRbt.so/2013.1/901 2013/11/27
 34 36  0  0  0  0  0  0  0  0999 V2000
   -9.2718    5.6195   20.5523 C   0  0  2  0  0  0  0  0  0  0  0  0
   -8.7623    5.9008   19.2835 O   0  0  0  0  0  0  0  0  0  0  0  0
  -10.2732    6.7525   20.9135 C   0  0  2  0  0  0  0  0  0  0  0  0
  -11.3449    6.8169   19.9150 N   0  3  0  0  0  0  0  0  0  0  0  0
   -9.5343    8.1164   21.0452 C   0  0  1  0  0  0  0  0  0  0  0  0
  -10.3979    9.1057   21.3854 O   0  0  0  0  0  0  0  0  0  0  0  0
   -8.4050    7.9705   22.1179 C   0  0  2  0  0  0  0  0  0  0  0  0
   -7.7039    9.2222   22.2735 O   0  0  0  0  0  0  0  0  0  0  0  0
   -7.4346    6.8292   21.6601 C   0  0  2  0  0  0  0  0  0  0  0  0
   -8.1755    5.5584   21.5001 O   0  0  0  0  0  0  0  0  0  0  0  0
   -6.2780    6.5471   22.6258 C   0  0  2  0  0  0  0  0  0  0  0  0
   -6.4851    7.2326   23.8175 O   0  0  0  0  0  0  0  0  0  0  0  0
   -4.9070    7.0064   22.0968 C   0  0  0  0  0  0  0  0  0  0  0  0
   -7.6511    2.6839   16.6997 C   0  0  2  0  0  0  0  0  0  0  0  0
   -7.6801    1.7053   15.5831 N   0  3  0  0  0  0  0  0  0  0  0  0
   -8.8793    2.4863   17.6371 C   0  0  0  0  0  0  0  0  0  0  0  0
   -8.8490    3.5382   18.8045 C   0  0  2  0  0  0  0  0  0  0  0  0
  -10.0436    3.3162   19.6991 N   0  3  0  0  0  0  0  0  0  0  0  0
   -8.8385    4.9839   18.1994 C   0  0  2  0  0  0  0  0  0  0  0  0
   -7.6034    5.1515   17.2810 C   0  0  2  0  0  0  0  0  0  0  0  0
   -7.6232    6.4407   16.7173 O   0  0  0  0  0  0  0  0  0  0  0  0
   -7.6567    4.1166   16.1254 C   0  0  1  0  0  0  0  0  0  0  0  0
   -6.5175    4.2900   15.2955 O   0  0  0  0  0  0  0  0  0  0  0  0
   -6.6332    4.0072   13.9283 C   0  0  2  0  0  0  0  0  0  0  0  0
   -5.2470    4.2247   13.2927 C   0  0  2  0  0  0  0  0  0  0  0  0
   -4.3252    3.3337   13.8835 O   0  0  0  0  0  0  0  0  0  0  0  0
   -4.8070    5.7115   13.5177 C   0  0  1  0  0  0  0  0  0  0  0  0
   -3.4631    5.9965   12.9585 N   0  3  0  0  0  0  0  0  0  0  0  0
   -2.5123    6.3709   14.0364 C   0  0  0  0  0  0  0  0  0  0  0  0
   -5.8689    6.6661   12.8712 C   0  0  2  0  0  0  0  0  0  0  0  0
   -5.9627    6.4087   11.4575 O   0  0  0  0  0  0  0  0  0  0  0  0
   -5.5190    8.0650   13.0390 C   0  0  0  0  0  0  0  0  0  0  0  0
   -7.2826    6.3720   13.4612 C   0  0  0  0  0  0  0  0  0  0  0  0
   -7.6194    4.9175   13.3213 O   0  0  0  0  0  0  0  0  0  0  0  0
  1  2  1  6  0  0  0
  1  3  1  0  0  0  0
  1 10  1  0  0  0  0
  3  4  1  6  0  0  0
  3  5  1  0  0  0  0
  5  6  1  1  0  0  0
  5  7  1  0  0  0  0
  7  8  1  6  0  0  0
  7  9  1  0  0  0  0
  9 10  1  1  0  0  0
  9 11  1  0  0  0  0
 11 12  1  1  0  0  0
 11 13  1  0  0  0  0
 14 15  1  6  0  0  0
 14 16  1  0  0  0  0
 14 22  1  0  0  0  0
 16 17  1  0  0  0  0
 17 18  1  1  0  0  0
 17 19  1  0  0  0  0
 19  2  1  1  0  0  0
 19 20  1  0  0  0  0
 20 21  1  6  0  0  0
 20 22  1  0  0  0  0
 22 23  1  6  0  0  0
 24 23  1  1  0  0  0
 24 25  1  0  0  0  0
 24 34  1  0  0  0  0
 25 26  1  1  0  0  0
 25 27  1  0  0  0  0
 27 28  1  6  0  0  0
 27 30  1  0  0  0  0
 28 29  1  0  0  0  0
 30 31  1  6  0  0  0
 30 32  1  0  0  0  0
 30 33  1  0  0  0  0
 33 34  1  0  0  0  0
M  CHG  4   4   1  15   1  18   1  28   1
M  END
>  <CHROM.1>
-124.16984950,-28.61413510,61.88539645,-178.89636630,-178.83600649,10.01021926
67.05675971,84.27672170,-102.01149028,-62.50067973,91.30571054,-177.71543771
69.34746395,3.35195460,-60.37717713,-7.34235474,5.70643877,17.56266554,2.05679008
0.77272015,0.99786180

>  <Name>
1mwl

>  <RI>
0

>  <Rbt.Current_Directory>
/home/itssahil/PROJECTS/Mol_Feturizer/New_Systems/rnas/1mwl

>  <Rbt.Executable>
rbdock ($Id: //depot/dev/client3/rdock/2013.1/src/exe/rbdock.cxx#4 $)

>  <Rbt.Library>
libRbt.so (2013.1, Build901 2013/11/27)

>  <Rbt.Parameter_File>
/export/apps/rDock/src/rDock_2013.1_src/data/scripts/dock_solv.prm

>  <Rbt.Receptor>
prm/blind_docking_100.prm

>  <SCORE>
-23.4591

>  <SCORE.INTER>
-27.7736

>  <SCORE.INTER.CONST>
1

>  <SCORE.INTER.POLAR>
-3.59174

>  <SCORE.INTER.ROT>
6

>  <SCORE.INTER.SOLV>
18.3004

>  <SCORE.INTER.VDW>
-20.2434

>  <SCORE.INTER.norm>
-0.816872

>  <SCORE.INTRA>
-4.92907

>  <SCORE.INTRA.DIHEDRAL>
-13.765

>  <SCORE.INTRA.DIHEDRAL.0>
42.0816

>  <SCORE.INTRA.POLAR>
-0.0989744

>  <SCORE.INTRA.POLAR.0>
-0.254682

>  <SCORE.INTRA.REPUL>
0

>  <SCORE.INTRA.REPUL.0>
0

>  <SCORE.INTRA.SOLV>
2.60002

>  <SCORE.INTRA.SOLV.lig_0>
-109.803

>  <SCORE.INTRA.VDW>
0.989958

>  <SCORE.INTRA.VDW.0>
0.32176

>  <SCORE.INTRA.norm>
-0.144973

>  <SCORE.RESTR>
9.24363

>  <SCORE.RESTR.CAVITY>
9.24363

>  <SCORE.RESTR.norm>
0.271871

>  <SCORE.SYSTEM>
0

>  <SCORE.SYSTEM.CONST>
0

>  <SCORE.SYSTEM.DIHEDRAL>
0

>  <SCORE.SYSTEM.SOLV>
0

>  <SCORE.SYSTEM.norm>
0

>  <SCORE.heavy>
34

>  <SCORE.norm>
-0.689973

>  <RMSD>
7.155

$$$$
1mwl
 OpenBabel11021811403D
libRbt.so/2013.1/901 2013/11/27
 34 36  0  0  0  0  0  0  0  0999 V2000
   -4.6103    8.6751   24.6262 C   0  0  2  0  0  0  0  0  0  0  0  0
   -5.0559    7.9498   23.5198 O   0  0  0  0  0  0  0  0  0  0  0  0
   -4.5667   10.1734   24.2137 C   0  0  2  0  0  0  0  0  0  0  0  0
   -5.8972   10.6195   23.7891 N   0  3  0  0  0  0  0  0  0  0  0  0
   -3.5053   10.4047   23.0986 C   0  0  1  0  0  0  0  0  0  0  0  0
   -3.4434   11.7146   22.7512 O   0  0  0  0  0  0  0  0  0  0  0  0
   -2.1182    9.9006   23.6177 C   0  0  2  0  0  0  0  0  0  0  0  0
   -1.1061   10.1093   22.6106 O   0  0  0  0  0  0  0  0  0  0  0  0
   -2.2506    8.3833   23.9839 C   0  0  2  0  0  0  0  0  0  0  0  0
   -3.2979    8.1925   25.0117 O   0  0  0  0  0  0  0  0  0  0  0  0
   -0.9707    7.7440   24.5342 C   0  0  2  0  0  0  0  0  0  0  0  0
    0.1329    8.4938   24.1430 O   0  0  0  0  0  0  0  0  0  0  0  0
   -0.7249    6.3141   24.0190 C   0  0  0  0  0  0  0  0  0  0  0  0
   -7.5633    4.5546   22.8529 C   0  0  2  0  0  0  0  0  0  0  0  0
   -8.7535    3.6664   22.8513 N   0  3  0  0  0  0  0  0  0  0  0  0
   -7.1041    4.8574   24.3101 C   0  0  0  0  0  0  0  0  0  0  0  0
   -5.8560    5.8125   24.3012 C   0  0  2  0  0  0  0  0  0  0  0  0
   -5.4295    6.0795   25.7237 N   0  3  0  0  0  0  0  0  0  0  0  0
   -6.2221    7.1369   23.5474 C   0  0  2  0  0  0  0  0  0  0  0  0
   -6.6655    6.8039   22.1019 C   0  0  2  0  0  0  0  0  0  0  0  0
   -7.0239    7.9963   21.4463 O   0  0  0  0  0  0  0  0  0  0  0  0
   -7.9076    5.8734   22.1284 C   0  0  1  0  0  0  0  0  0  0  0  0
   -8.2977    5.5835   20.7942 O   0  0  0  0  0  0  0  0  0  0  0  0
   -9.3726    6.2907   20.2400 C   0  0  2  0  0  0  0  0  0  0  0  0
  -10.6576    5.5039   20.5603 C   0  0  2  0  0  0  0  0  0  0  0  0
  -10.8133    5.4282   21.9613 O   0  0  0  0  0  0  0  0  0  0  0  0
  -10.5519    4.0718   19.9335 C   0  0  1  0  0  0  0  0  0  0  0  0
  -11.7426    3.2362   20.2231 N   0  3  0  0  0  0  0  0  0  0  0  0
  -11.3613    2.0235   20.9913 C   0  0  0  0  0  0  0  0  0  0  0  0
  -10.3533    4.2014   18.3840 C   0  0  2  0  0  0  0  0  0  0  0  0
  -11.4753    4.8913   17.8024 O   0  0  0  0  0  0  0  0  0  0  0  0
  -10.2525    2.9060   17.7367 C   0  0  0  0  0  0  0  0  0  0  0  0
   -9.0985    5.0756   18.0765 C   0  0  0  0  0  0  0  0  0  0  0  0
   -9.1907    6.3956   18.7821 O   0  0  0  0  0  0  0  0  0  0  0  0
  1  2  1  6  0  0  0
  1  3  1  0  0  0  0
  1 10  1  0  0  0  0
  3  4  1  6  0  0  0
  3  5  1  0  0  0  0
  5  6  1  1  0  0  0
  5  7  1  0  0  0  0
  7  8  1  6  0  0  0
  7  9  1  0  0  0  0
  9 10  1  1  0  0  0
  9 11  1  0  0  0  0
 11 12  1  6  0  0  0
 11 13  1  0  0  0  0
 14 15  1  1  0  0  0
 14 16  1  0  0  0  0
 14 22  1  0  0  0  0
 16 17  1  0  0  0  0
 17 18  1  1  0  0  0
 17 19  1  0  0  0  0
 19  2  1  6  0  0  0
 19 20  1  0  0  0  0
 20 21  1  6  0  0  0
 20 22  1  0  0  0  0
 22 23  1  6  0  0  0
 24 23  1  1  0  0  0
 24 25  1  0  0  0  0
 24 34  1  0  0  0  0
 25 26  1  1  0  0  0
 25 27  1  0  0  0  0
 27 28  1  6  0  0  0
 27 30  1  0  0  0  0
 28 29  1  0  0  0  0
 30 31  1  6  0  0  0
 30 32  1  0  0  0  0
 30 33  1  0  0  0  0
 33 34  1  0  0  0  0
M  CHG  4   4   1  15   1  18   1  28   1
M  END
>  <CHROM.1>
-121.33182059,-76.98993765,-178.66298582,59.45893400,-160.98730839,-21.55417888
77.62843297,-114.56623045,171.22446504,-62.82981387,139.54880661,-89.60692280
61.35754085,0.84028081,59.48293063,-6.56304836,6.70611977,22.20162150,-0.10592950
0.66664824,2.46166891

>  <Name>
1mwl

>  <RI>
0

>  <Rbt.Current_Directory>
/home/itssahil/PROJECTS/Mol_Feturizer/New_Systems/rnas/1mwl

>  <Rbt.Executable>
rbdock ($Id: //depot/dev/client3/rdock/2013.1/src/exe/rbdock.cxx#4 $)

>  <Rbt.Library>
libRbt.so (2013.1, Build901 2013/11/27)

>  <Rbt.Parameter_File>
/export/apps/rDock/src/rDock_2013.1_src/data/scripts/dock_solv.prm

>  <Rbt.Receptor>
prm/pocket_docking_8.prm

>  <SCORE>
-44.1663

>  <SCORE.INTER>
-29.6835

>  <SCORE.INTER.CONST>
1

>  <SCORE.INTER.POLAR>
-2.56335

>  <SCORE.INTER.ROT>
6

>  <SCORE.INTER.SOLV>
20.0648

>  <SCORE.INTER.VDW>
-25.5327

>  <SCORE.INTER.norm>
-0.873043

>  <SCORE.INTRA>
-14.4828

>  <SCORE.INTRA.DIHEDRAL>
-10.2061

>  <SCORE.INTRA.DIHEDRAL.0>
42.0816

>  <SCORE.INTRA.POLAR>
-2.54825

>  <SCORE.INTRA.POLAR.0>
-0.254682

>  <SCORE.INTRA.REPUL>
0

>  <SCORE.INTRA.REPUL.0>
0

>  <SCORE.INTRA.SOLV>
4.00513

>  <SCORE.INTRA.SOLV.lig_0>
-109.803

>  <SCORE.INTRA.VDW>
-2.7183

>  <SCORE.INTRA.VDW.0>
0.32176

>  <SCORE.INTRA.norm>
-0.425965

>  <SCORE.RESTR>
0

>  <SCORE.RESTR.CAVITY>
0

>  <SCORE.RESTR.norm>
0

>  <SCORE.SYSTEM>
0

>  <SCORE.SYSTEM.CONST>
0

>  <SCORE.SYSTEM.DIHEDRAL>
0

>  <SCORE.SYSTEM.SOLV>
0

>  <SCORE.SYSTEM.norm>
0

>  <SCORE.heavy>
34

>  <SCORE.norm>
-1.29901

>  <RMSD>
7.162

$$$$
1mwl
 OpenBabel11021811403D
libRbt.so/2013.1/901 2013/11/27
 34 36  0  0  0  0  0  0  0  0999 V2000
  -15.2935    5.9640   15.2569 C   0  0  2  0  0  0  0  0  0  0  0  0
  -15.9766    6.2660   16.4363 O   0  0  0  0  0  0  0  0  0  0  0  0
  -15.2253    4.4151   15.1421 C   0  0  2  0  0  0  0  0  0  0  0  0
  -16.5778    3.8493   15.1303 N   0  3  0  0  0  0  0  0  0  0  0  0
  -14.3673    3.8168   16.2951 C   0  0  1  0  0  0  0  0  0  0  0  0
  -14.2819    2.4673   16.1870 O   0  0  0  0  0  0  0  0  0  0  0  0
  -12.9462    4.4695   16.2499 C   0  0  2  0  0  0  0  0  0  0  0  0
  -12.1187    3.9295   17.3015 O   0  0  0  0  0  0  0  0  0  0  0  0
  -13.1111    6.0204   16.3969 C   0  0  2  0  0  0  0  0  0  0  0  0
  -13.9682    6.5507   15.3136 O   0  0  0  0  0  0  0  0  0  0  0  0
  -11.7985    6.8108   16.3481 C   0  0  2  0  0  0  0  0  0  0  0  0
  -10.7676    5.9808   15.9218 O   0  0  0  0  0  0  0  0  0  0  0  0
  -11.3644    7.3702   17.7152 C   0  0  0  0  0  0  0  0  0  0  0  0
  -15.2442   10.4455   16.9411 C   0  0  2  0  0  0  0  0  0  0  0  0
  -15.3812   11.8492   17.4062 N   0  3  0  0  0  0  0  0  0  0  0  0
  -16.4993   10.0097   16.1283 C   0  0  0  0  0  0  0  0  0  0  0  0
  -16.3525    8.5177   15.6567 C   0  0  2  0  0  0  0  0  0  0  0  0
  -17.5769    8.1280   14.8657 N   0  3  0  0  0  0  0  0  0  0  0  0
  -16.1531    7.5956   16.9082 C   0  0  2  0  0  0  0  0  0  0  0  0
  -14.8950    8.0480   17.6890 C   0  0  2  0  0  0  0  0  0  0  0  0
  -14.7457    7.2352   18.8280 O   0  0  0  0  0  0  0  0  0  0  0  0
  -15.0627    9.5172   18.1609 C   0  0  1  0  0  0  0  0  0  0  0  0
  -13.9001    9.9096   18.8757 O   0  0  0  0  0  0  0  0  0  0  0  0
  -14.0562   10.5827   20.0944 C   0  0  2  0  0  0  0  0  0  0  0  0
  -12.6837   10.5967   20.7935 C   0  0  2  0  0  0  0  0  0  0  0  0
  -11.7618   11.2937   19.9831 O   0  0  0  0  0  0  0  0  0  0  0  0
  -12.2132    9.1209   21.0297 C   0  0  1  0  0  0  0  0  0  0  0  0
  -10.8798    9.0467   21.6752 N   0  3  0  0  0  0  0  0  0  0  0  0
  -10.0273    8.0297   21.0082 C   0  0  0  0  0  0  0  0  0  0  0  0
  -13.2757    8.3764   21.9095 C   0  0  2  0  0  0  0  0  0  0  0  0
  -13.4107    9.0396   23.1804 O   0  0  0  0  0  0  0  0  0  0  0  0
  -12.8982    6.9995   22.1722 C   0  0  0  0  0  0  0  0  0  0  0  0
  -14.6781    8.4485   21.2305 C   0  0  0  0  0  0  0  0  0  0  0  0
  -15.0426    9.8706   20.9247 O   0  0  0  0  0  0  0  0  0  0  0  0
  1  2  1  1  0  0  0
  1  3  1  0  0  0  0
  1 10  1  0  0  0  0
  3  4  1  1  0  0  0
  3  5  1  0  0  0  0
  5  6  1  6  0  0  0
  5  7  1  0  0  0  0
  7  8  1  1  0  0  0
  7  9  1  0  0  0  0
  9 10  1  6  0  0  0
  9 11  1  0  0  0  0
 11 12  1  1  0  0  0
 11 13  1  0  0  0  0
 14 15  1  1  0  0  0
 14 16  1  0  0  0  0
 14 22  1  0  0  0  0
 16 17  1  0  0  0  0
 17 18  1  1  0  0  0
 17 19  1  0  0  0  0
 19  2  1  6  0  0  0
 19 20  1  0  0  0  0
 20 21  1  1  0  0  0
 20 22  1  0  0  0  0
 22 23  1  6  0  0  0
 24 23  1  6  0  0  0
 24 25  1  0  0  0  0
 24 34  1  0  0  0  0
 25 26  1  6  0  0  0
 25 27  1  0  0  0  0
 27 28  1  1  0  0  0
 27 30  1  0  0  0  0
 28 29  1  0  0  0  0
 30 31  1  1  0  0  0
 30 32  1  0  0  0  0
 30 33  1  0  0  0  0
 33 34  1  0  0  0  0
M  CHG  4   4   1  15   1  18   1  28   1
M  END
>  <CHROM.1>
175.91976853,35.87388320,167.05305639,179.15189629,-177.97460360,11.55210791
178.55462499,-49.05003165,-55.30392169,59.64356282,105.97627311,167.28838568
-51.46842582,-15.28934378,178.50028268,-13.94199204,7.64427223,18.09976930
1.94586386,0.72009573,-2.51671173

>  <Name>
1mwl

>  <RI>
0

>  <Rbt.Current_Directory>
/home/itssahil/PROJECTS/Mol_Feturizer/New_Systems/rnas/1mwl

>  <Rbt.Executable>
rbdock ($Id: //depot/dev/client3/rdock/2013.1/src/exe/rbdock.cxx#4 $)

>  <Rbt.Library>
libRbt.so (2013.1, Build901 2013/11/27)

>  <Rbt.Parameter_File>
/export/apps/rDock/src/rDock_2013.1_src/data/scripts/dock_solv.prm

>  <Rbt.Receptor>
prm/pocket_docking_5.prm

>  <SCORE>
-47.0483

>  <SCORE.INTER>
-31.6982

>  <SCORE.INTER.CONST>
1

>  <SCORE.INTER.POLAR>
-5.60599

>  <SCORE.INTER.ROT>
6

>  <SCORE.INTER.SOLV>
21.1381

>  <SCORE.INTER.VDW>
-17.0915

>  <SCORE.INTER.norm>
-0.932299

>  <SCORE.INTRA>
-15.3502

>  <SCORE.INTRA.DIHEDRAL>
-23.3257

>  <SCORE.INTRA.DIHEDRAL.0>
42.0816

>  <SCORE.INTRA.POLAR>
-0.215587

>  <SCORE.INTRA.POLAR.0>
-0.254682

>  <SCORE.INTRA.REPUL>
0

>  <SCORE.INTRA.REPUL.0>
0

>  <SCORE.INTRA.SOLV>
-1.33619

>  <SCORE.INTRA.SOLV.lig_0>
-109.803

>  <SCORE.INTRA.VDW>
-2.28624

>  <SCORE.INTRA.VDW.0>
0.32176

>  <SCORE.INTRA.norm>
-0.451476

>  <SCORE.RESTR>
0

>  <SCORE.RESTR.CAVITY>
0

>  <SCORE.RESTR.norm>
0

>  <SCORE.SYSTEM>
0

>  <SCORE.SYSTEM.CONST>
0

>  <SCORE.SYSTEM.DIHEDRAL>
0

>  <SCORE.SYSTEM.SOLV>
0

>  <SCORE.SYSTEM.norm>
0

>  <SCORE.heavy>
34

>  <SCORE.norm>
-1.38377

>  <RMSD>
7.218

$$$$
1mwl
 OpenBabel11021811403D
libRbt.so/2013.1/901 2013/11/27
 34 36  0  0  0  0  0  0  0  0999 V2000
  -10.2271    5.6757   19.6400 C   0  0  2  0  0  0  0  0  0  0  0  0
   -9.1817    5.7340   18.7168 O   0  0  0  0  0  0  0  0  0  0  0  0
  -10.5489    7.1342   20.0716 C   0  0  2  0  0  0  0  0  0  0  0  0
  -10.9195    7.9371   18.9022 N   0  3  0  0  0  0  0  0  0  0  0  0
   -9.3437    7.7594   20.8334 C   0  0  1  0  0  0  0  0  0  0  0  0
   -9.6266    9.0237   21.2356 O   0  0  0  0  0  0  0  0  0  0  0  0
   -9.0015    6.8491   22.0588 C   0  0  2  0  0  0  0  0  0  0  0  0
   -7.8924    7.4053   22.7955 O   0  0  0  0  0  0  0  0  0  0  0  0
   -8.6682    5.4133   21.5286 C   0  0  2  0  0  0  0  0  0  0  0  0
   -9.8156    4.8663   20.7711 O   0  0  0  0  0  0  0  0  0  0  0  0
   -8.3319    4.3905   22.6197 C   0  0  2  0  0  0  0  0  0  0  0  0
   -9.4009    4.2777   23.5016 O   0  0  0  0  0  0  0  0  0  0  0  0
   -7.1091    4.7772   23.4717 C   0  0  0  0  0  0  0  0  0  0  0  0
   -7.4271    3.2644   15.7033 C   0  0  2  0  0  0  0  0  0  0  0  0
   -7.2877    2.3714   14.5248 N   0  3  0  0  0  0  0  0  0  0  0  0
   -8.2763    2.5801   16.8152 C   0  0  0  0  0  0  0  0  0  0  0  0
   -8.4333    3.5399   18.0498 C   0  0  2  0  0  0  0  0  0  0  0  0
   -9.2510    2.8472   19.1119 N   0  3  0  0  0  0  0  0  0  0  0  0
   -9.1025    4.8784   17.5840 C   0  0  2  0  0  0  0  0  0  0  0  0
   -8.2317    5.5377   16.4866 C   0  0  2  0  0  0  0  0  0  0  0  0
   -8.8593    6.7200   16.0525 O   0  0  0  0  0  0  0  0  0  0  0  0
   -8.0998    4.5841   15.2691 C   0  0  1  0  0  0  0  0  0  0  0  0
   -7.3006    5.2092   14.2757 O   0  0  0  0  0  0  0  0  0  0  0  0
   -6.3388    6.1449   14.6782 C   0  0  2  0  0  0  0  0  0  0  0  0
   -5.9562    6.9762   13.4390 C   0  0  2  0  0  0  0  0  0  0  0  0
   -7.1025    7.6502   12.9654 O   0  0  0  0  0  0  0  0  0  0  0  0
   -5.3773    6.0217   12.3397 C   0  0  1  0  0  0  0  0  0  0  0  0
   -5.0103    6.7438   11.0971 N   0  3  0  0  0  0  0  0  0  0  0  0
   -5.0480    5.8307    9.9262 C   0  0  0  0  0  0  0  0  0  0  0  0
   -4.1247    5.2747   12.9141 C   0  0  2  0  0  0  0  0  0  0  0  0
   -3.1152    6.2296   13.2915 O   0  0  0  0  0  0  0  0  0  0  0  0
   -3.5332    4.3738   11.9416 C   0  0  0  0  0  0  0  0  0  0  0  0
   -4.5089    4.5101   14.2184 C   0  0  0  0  0  0  0  0  0  0  0  0
   -5.1569    5.4388   15.2015 O   0  0  0  0  0  0  0  0  0  0  0  0
  1  2  1  6  0  0  0
  1  3  1  0  0  0  0
  1 10  1  0  0  0  0
  3  4  1  6  0  0  0
  3  5  1  0  0  0  0
  5  6  1  1  0  0  0
  5  7  1  0  0  0  0
  7  8  1  6  0  0  0
  7  9  1  0  0  0  0
  9 10  1  1  0  0  0
  9 11  1  0  0  0  0
 11 12  1  1  0  0  0
 11 13  1  0  0  0  0
 14 15  1  6  0  0  0
 14 16  1  0  0  0  0
 14 22  1  0  0  0  0
 16 17  1  0  0  0  0
 17 18  1  1  0  0  0
 17 19  1  0  0  0  0
 19  2  1  1  0  0  0
 19 20  1  0  0  0  0
 20 21  1  6  0  0  0
 20 22  1  0  0  0  0
 22 23  1  6  0  0  0
 24 23  1  6  0  0  0
 24 25  1  0  0  0  0
 24 34  1  0  0  0  0
 25 26  1  6  0  0  0
 25 27  1  0  0  0  0
 27 28  1  6  0  0  0
 27 30  1  0  0  0  0
 28 29  1  0  0  0  0
 30 31  1  1  0  0  0
 30 32  1  0  0  0  0
 30 33  1  0  0  0  0
 33 34  1  0  0  0  0
M  CHG  4   4   1  15   1  18   1  28   1
M  END
>  <CHROM.1>
-142.39568020,-84.55202082,12.81274048,-169.16822916,-56.49013243,58.69754195
-47.47932002,56.48061071,72.53132705,69.53363860,-92.34377266,-162.03175897
-177.85822831,-34.94185444,-55.62000596,-7.58127509,5.56209865,17.12555077
2.79630112,-1.12380080,2.72497122

>  <Name>
1mwl

>  <RI>
0

>  <Rbt.Current_Directory>
/home/itssahil/PROJECTS/Mol_Feturizer/New_Systems/rnas/1mwl

>  <Rbt.Executable>
rbdock ($Id: //depot/dev/client3/rdock/2013.1/src/exe/rbdock.cxx#4 $)

>  <Rbt.Library>
libRbt.so (2013.1, Build901 2013/11/27)

>  <Rbt.Parameter_File>
/export/apps/rDock/src/rDock_2013.1_src/data/scripts/dock_solv.prm

>  <Rbt.Receptor>
prm/blind_docking_100.prm

>  <SCORE>
-31.7333

>  <SCORE.INTER>
-37.032

>  <SCORE.INTER.CONST>
1

>  <SCORE.INTER.POLAR>
-5.40125

>  <SCORE.INTER.ROT>
6

>  <SCORE.INTER.SOLV>
24.3755

>  <SCORE.INTER.VDW>
-22.409

>  <SCORE.INTER.norm>
-1.08918

>  <SCORE.INTRA>
-7.91892

>  <SCORE.INTRA.DIHEDRAL>
-21.9998

>  <SCORE.INTRA.DIHEDRAL.0>
42.0816

>  <SCORE.INTRA.POLAR>
-0.869376

>  <SCORE.INTRA.POLAR.0>
-0.254682

>  <SCORE.INTRA.REPUL>
0.0600671

>  <SCORE.INTRA.REPUL.0>
0

>  <SCORE.INTRA.SOLV>
2.17348

>  <SCORE.INTRA.SOLV.lig_0>
-109.803

>  <SCORE.INTRA.VDW>
4.64981

>  <SCORE.INTRA.VDW.0>
0.32176

>  <SCORE.INTRA.norm>
-0.232909

>  <SCORE.RESTR>
13.2177

>  <SCORE.RESTR.CAVITY>
13.2177

>  <SCORE.RESTR.norm>
0.388755

>  <SCORE.SYSTEM>
0

>  <SCORE.SYSTEM.CONST>
0

>  <SCORE.SYSTEM.DIHEDRAL>
0

>  <SCORE.SYSTEM.SOLV>
0

>  <SCORE.SYSTEM.norm>
0

>  <SCORE.heavy>
34

>  <SCORE.norm>
-0.933331

>  <RMSD>
7.227

$$$$
1mwl
 OpenBabel11021811403D
libRbt.so/2013.1/901 2013/11/27
 34 36  0  0  0  0  0  0  0  0999 V2000
  -13.0072    3.9273   14.8796 C   0  0  2  0  0  0  0  0  0  0  0  0
  -13.7040    4.6761   13.9296 O   0  0  0  0  0  0  0  0  0  0  0  0
  -13.4819    2.4527   14.7495 C   0  0  2  0  0  0  0  0  0  0  0  0
  -13.2261    1.9573   13.3936 N   0  3  0  0  0  0  0  0  0  0  0  0
  -14.9865    2.3252   15.1283 C   0  0  1  0  0  0  0  0  0  0  0  0
  -15.4017    1.0367   15.0418 O   0  0  0  0  0  0  0  0  0  0  0  0
  -15.1843    2.8773   16.5787 C   0  0  2  0  0  0  0  0  0  0  0  0
  -16.5695    2.7652   16.9674 O   0  0  0  0  0  0  0  0  0  0  0  0
  -14.7050    4.3684   16.6084 C   0  0  2  0  0  0  0  0  0  0  0  0
  -13.2859    4.4599   16.1997 O   0  0  0  0  0  0  0  0  0  0  0  0
  -14.8146    5.0485   17.9778 C   0  0  2  0  0  0  0  0  0  0  0  0
  -14.3396    6.3525   17.8924 O   0  0  0  0  0  0  0  0  0  0  0  0
  -13.9860    4.3589   19.0769 C   0  0  0  0  0  0  0  0  0  0  0  0
  -13.1425    8.6744   15.3287 C   0  0  2  0  0  0  0  0  0  0  0  0
  -13.1288   10.1588   15.3703 N   0  3  0  0  0  0  0  0  0  0  0  0
  -12.1994    8.1463   14.2073 C   0  0  0  0  0  0  0  0  0  0  0  0
  -12.2351    6.5757   14.1595 C   0  0  2  0  0  0  0  0  0  0  0  0
  -11.3065    6.0944   13.0720 N   0  3  0  0  0  0  0  0  0  0  0  0
  -13.7081    6.0979   13.9177 C   0  0  2  0  0  0  0  0  0  0  0  0
  -14.6176    6.6307   15.0517 C   0  0  2  0  0  0  0  0  0  0  0  0
  -15.9422    6.2243   14.8058 O   0  0  0  0  0  0  0  0  0  0  0  0
  -14.5834    8.1824   15.0750 C   0  0  1  0  0  0  0  0  0  0  0  0
  -15.4252    8.6485   16.1193 O   0  0  0  0  0  0  0  0  0  0  0  0
  -16.6404    9.2580   15.7810 C   0  0  2  0  0  0  0  0  0  0  0  0
  -17.0210   10.2025   16.9369 C   0  0  2  0  0  0  0  0  0  0  0  0
  -16.0198   11.1880   17.0742 O   0  0  0  0  0  0  0  0  0  0  0  0
  -17.1656    9.3678   18.2549 C   0  0  1  0  0  0  0  0  0  0  0  0
  -17.5035   10.2117   19.4270 N   0  3  0  0  0  0  0  0  0  0  0  0
  -16.7047    9.8105   20.6132 C   0  0  0  0  0  0  0  0  0  0  0  0
  -18.2658    8.2700   18.0511 C   0  0  2  0  0  0  0  0  0  0  0  0
  -19.5275    8.8922   17.7437 O   0  0  0  0  0  0  0  0  0  0  0  0
  -18.4555    7.4602   19.2409 C   0  0  0  0  0  0  0  0  0  0  0  0
  -17.9104    7.3777   16.8221 C   0  0  0  0  0  0  0  0  0  0  0  0
  -17.6753    8.2245   15.6070 O   0  0  0  0  0  0  0  0  0  0  0  0
  1  2  1  6  0  0  0
  1  3  1  0  0  0  0
  1 10  1  0  0  0  0
  3  4  1  6  0  0  0
  3  5  1  0  0  0  0
  5  6  1  1  0  0  0
  5  7  1  0  0  0  0
  7  8  1  6  0  0  0
  7  9  1  0  0  0  0
  9 10  1  1  0  0  0
  9 11  1  0  0  0  0
 11 12  1  6  0  0  0
 11 13  1  0  0  0  0
 14 15  1  6  0  0  0
 14 16  1  0  0  0  0
 14 22  1  0  0  0  0
 16 17  1  0  0  0  0
 17 18  1  6  0  0  0
 17 19  1  0  0  0  0
 19  2  1  1  0  0  0
 19 20  1  0  0  0  0
 20 21  1  6  0  0  0
 20 22  1  0  0  0  0
 22 23  1  1  0  0  0
 24 23  1  1  0  0  0
 24 25  1  0  0  0  0
 24 34  1  0  0  0  0
 25 26  1  1  0  0  0
 25 27  1  0  0  0  0
 27 28  1  1  0  0  0
 27 30  1  0  0  0  0
 28 29  1  0  0  0  0
 30 31  1  6  0  0  0
 30 32  1  0  0  0  0
 30 33  1  0  0  0  0
 33 34  1  0  0  0  0
M  CHG  4   4   1  15   1  18   1  28   1
M  END
>  <CHROM.1>
168.27919886,44.18186793,79.83375382,-175.15635340,-63.89841868,178.83005400
70.96805375,-26.91038870,-63.84804178,-50.80228567,131.88672253,-154.52527129
60.92973708,-16.86737091,51.88628362,-15.18655800,6.54342600,16.19811662
-0.92680859,0.71062497,0.02301236

>  <Name>
1mwl

>  <RI>
0

>  <Rbt.Current_Directory>
/home/itssahil/PROJECTS/Mol_Feturizer/New_Systems/rnas/1mwl

>  <Rbt.Executable>
rbdock ($Id: //depot/dev/client3/rdock/2013.1/src/exe/rbdock.cxx#4 $)

>  <Rbt.Library>
libRbt.so (2013.1, Build901 2013/11/27)

>  <Rbt.Parameter_File>
/export/apps/rDock/src/rDock_2013.1_src/data/scripts/dock_solv.prm

>  <Rbt.Receptor>
prm/pocket_docking_5.prm

>  <SCORE>
-38.0965

>  <SCORE.INTER>
-21.2475

>  <SCORE.INTER.CONST>
1

>  <SCORE.INTER.POLAR>
-3.61924

>  <SCORE.INTER.ROT>
6

>  <SCORE.INTER.SOLV>
12.414

>  <SCORE.INTER.VDW>
-13.8389

>  <SCORE.INTER.norm>
-0.624928

>  <SCORE.INTRA>
-16.8712

>  <SCORE.INTRA.DIHEDRAL>
-23.5348

>  <SCORE.INTRA.DIHEDRAL.0>
42.0816

>  <SCORE.INTRA.POLAR>
-0.812775

>  <SCORE.INTRA.POLAR.0>
-0.254682

>  <SCORE.INTRA.REPUL>
0

>  <SCORE.INTRA.REPUL.0>
0

>  <SCORE.INTRA.SOLV>
-0.0428751

>  <SCORE.INTRA.SOLV.lig_0>
-109.803

>  <SCORE.INTRA.VDW>
-2.31894

>  <SCORE.INTRA.VDW.0>
0.32176

>  <SCORE.INTRA.norm>
-0.496211

>  <SCORE.RESTR>
0.0222646

>  <SCORE.RESTR.CAVITY>
0.0222646

>  <SCORE.RESTR.norm>
0.000654842

>  <SCORE.SYSTEM>
0

>  <SCORE.SYSTEM.CONST>
0

>  <SCORE.SYSTEM.DIHEDRAL>
0

>  <SCORE.SYSTEM.SOLV>
0

>  <SCORE.SYSTEM.norm>
0

>  <SCORE.heavy>
34

>  <SCORE.norm>
-1.12048

>  <RMSD>
7.228

$$$$
1mwl
 OpenBabel11021811403D
libRbt.so/2013.1/901 2013/11/27
 34 36  0  0  0  0  0  0  0  0999 V2000
  -10.3297    3.4711   16.0443 C   0  0  2  0  0  0  0  0  0  0  0  0
  -10.5797    4.6787   15.3901 O   0  0  0  0  0  0  0  0  0  0  0  0
   -8.7897    3.3447   16.2156 C   0  0  2  0  0  0  0  0  0  0  0  0
   -8.2719    4.4804   16.9847 N   0  3  0  0  0  0  0  0  0  0  0  0
   -8.0911    3.2293   14.8292 C   0  0  1  0  0  0  0  0  0  0  0  0
   -6.7490    3.0929   14.9715 O   0  0  0  0  0  0  0  0  0  0  0  0
   -8.6968    2.0057   14.0655 C   0  0  2  0  0  0  0  0  0  0  0  0
   -8.0637    1.8625   12.7767 O   0  0  0  0  0  0  0  0  0  0  0  0
  -10.2400    2.2311   13.9183 C   0  0  2  0  0  0  0  0  0  0  0  0
  -10.8664    2.3823   15.2502 O   0  0  0  0  0  0  0  0  0  0  0  0
  -10.9869    1.0979   13.2055 C   0  0  2  0  0  0  0  0  0  0  0  0
  -12.3427    1.1691   13.5058 O   0  0  0  0  0  0  0  0  0  0  0  0
  -10.5246   -0.3080   13.6298 C   0  0  0  0  0  0  0  0  0  0  0  0
  -13.6665    7.6195   15.1025 C   0  0  2  0  0  0  0  0  0  0  0  0
  -15.0091    8.2361   14.9526 N   0  3  0  0  0  0  0  0  0  0  0  0
  -13.2750    6.8330   13.8163 C   0  0  0  0  0  0  0  0  0  0  0  0
  -11.8613    6.1693   13.9921 C   0  0  2  0  0  0  0  0  0  0  0  0
  -11.5062    5.4240   12.7291 N   0  3  0  0  0  0  0  0  0  0  0  0
  -11.8859    5.2194   15.2384 C   0  0  2  0  0  0  0  0  0  0  0  0
  -12.2691    6.0309   16.5000 C   0  0  2  0  0  0  0  0  0  0  0  0
  -12.3213    5.1619   17.6055 O   0  0  0  0  0  0  0  0  0  0  0  0
  -13.6734    6.6662   16.3165 C   0  0  1  0  0  0  0  0  0  0  0  0
  -14.0048    7.4025   17.4847 O   0  0  0  0  0  0  0  0  0  0  0  0
  -13.0721    8.3184   17.9885 C   0  0  2  0  0  0  0  0  0  0  0  0
  -13.1645    8.2734   19.5255 C   0  0  2  0  0  0  0  0  0  0  0  0
  -12.8374    6.9735   19.9681 O   0  0  0  0  0  0  0  0  0  0  0  0
  -14.6178    8.6618   19.9637 C   0  0  1  0  0  0  0  0  0  0  0  0
  -14.7988    8.6138   21.4351 N   0  3  0  0  0  0  0  0  0  0  0  0
  -16.1276    8.0496   21.7844 C   0  0  0  0  0  0  0  0  0  0  0  0
  -14.9498   10.0979   19.4304 C   0  0  2  0  0  0  0  0  0  0  0  0
  -14.0194   11.0510   19.9778 O   0  0  0  0  0  0  0  0  0  0  0  0
  -16.2854   10.5244   19.8067 C   0  0  0  0  0  0  0  0  0  0  0  0
  -14.7651   10.1501   17.8824 C   0  0  0  0  0  0  0  0  0  0  0  0
  -13.3976    9.6688   17.4988 O   0  0  0  0  0  0  0  0  0  0  0  0
  1  2  1  6  0  0  0
  1  3  1  0  0  0  0
  1 10  1  0  0  0  0
  3  4  1  6  0  0  0
  3  5  1  0  0  0  0
  5  6  1  1  0  0  0
  5  7  1  0  0  0  0
  7  8  1  6  0  0  0
  7  9  1  0  0  0  0
  9 10  1  1  0  0  0
  9 11  1  0  0  0  0
 11 12  1  1  0  0  0
 11 13  1  0  0  0  0
 14 15  1  6  0  0  0
 14 16  1  0  0  0  0
 14 22  1  0  0  0  0
 16 17  1  0  0  0  0
 17 18  1  6  0  0  0
 17 19  1  0  0  0  0
 19  2  1  1  0  0  0
 19 20  1  0  0  0  0
 20 21  1  1  0  0  0
 20 22  1  0  0  0  0
 22 23  1  1  0  0  0
 24 23  1  6  0  0  0
 24 25  1  0  0  0  0
 24 34  1  0  0  0  0
 25 26  1  6  0  0  0
 25 27  1  0  0  0  0
 27 28  1  1  0  0  0
 27 30  1  0  0  0  0
 28 29  1  0  0  0  0
 30 31  1  1  0  0  0
 30 32  1  0  0  0  0
 30 33  1  0  0  0  0
 33 34  1  0  0  0  0
M  CHG  4   4   1  15   1  18   1  28   1
M  END
>  <CHROM.1>
-170.53688785,-155.88001662,-68.03859030,51.97649123,178.19755326,160.59509959
68.90485175,67.87778142,45.32824276,68.76925494,-70.19015147,-143.83364296
65.48036190,-20.41289345,62.03796643,-12.09662461,5.80718806,16.46974429
-0.83744411,-0.71170725,1.18070771

>  <Name>
1mwl

>  <RI>
0

>  <Rbt.Current_Directory>
/home/itssahil/PROJECTS/Mol_Feturizer/New_Systems/rnas/1mwl

>  <Rbt.Executable>
rbdock ($Id: //depot/dev/client3/rdock/2013.1/src/exe/rbdock.cxx#4 $)

>  <Rbt.Library>
libRbt.so (2013.1, Build901 2013/11/27)

>  <Rbt.Parameter_File>
/export/apps/rDock/src/rDock_2013.1_src/data/scripts/dock_solv.prm

>  <Rbt.Receptor>
prm/pocket_docking_8.prm

>  <SCORE>
-33.51

>  <SCORE.INTER>
-17.7832

>  <SCORE.INTER.CONST>
1

>  <SCORE.INTER.POLAR>
-4.32897

>  <SCORE.INTER.ROT>
6

>  <SCORE.INTER.SOLV>
8.9413

>  <SCORE.INTER.VDW>
-8.006

>  <SCORE.INTER.norm>
-0.523035

>  <SCORE.INTRA>
-15.8554

>  <SCORE.INTRA.DIHEDRAL>
-27.8228

>  <SCORE.INTRA.DIHEDRAL.0>
42.0816

>  <SCORE.INTRA.POLAR>
0.253897

>  <SCORE.INTRA.POLAR.0>
-0.254682

>  <SCORE.INTRA.REPUL>
0.0315133

>  <SCORE.INTRA.REPUL.0>
0

>  <SCORE.INTRA.SOLV>
-1.27536

>  <SCORE.INTRA.SOLV.lig_0>
-109.803

>  <SCORE.INTRA.VDW>
-2.32715

>  <SCORE.INTRA.VDW.0>
0.32176

>  <SCORE.INTRA.norm>
-0.466336

>  <SCORE.RESTR>
0.128609

>  <SCORE.RESTR.CAVITY>
0.128609

>  <SCORE.RESTR.norm>
0.00378262

>  <SCORE.SYSTEM>
0

>  <SCORE.SYSTEM.CONST>
0

>  <SCORE.SYSTEM.DIHEDRAL>
0

>  <SCORE.SYSTEM.SOLV>
0

>  <SCORE.SYSTEM.norm>
0

>  <SCORE.heavy>
34

>  <SCORE.norm>
-0.985588

>  <RMSD>
7.255

$$$$
1mwl
 OpenBabel11021811403D
libRbt.so/2013.1/901 2013/11/27
 34 36  0  0  0  0  0  0  0  0999 V2000
   -6.7131    5.2965   16.0506 C   0  0  2  0  0  0  0  0  0  0  0  0
   -8.0290    5.4226   16.4992 O   0  0  0  0  0  0  0  0  0  0  0  0
   -6.6065    6.0599   14.7005 C   0  0  2  0  0  0  0  0  0  0  0  0
   -6.9698    7.4681   14.8862 N   0  3  0  0  0  0  0  0  0  0  0  0
   -7.4923    5.3812   13.6150 C   0  0  1  0  0  0  0  0  0  0  0  0
   -7.3845    6.0269   12.4269 O   0  0  0  0  0  0  0  0  0  0  0  0
   -7.0543    3.8856   13.4772 C   0  0  2  0  0  0  0  0  0  0  0  0
   -7.8500    3.2266   12.4697 O   0  0  0  0  0  0  0  0  0  0  0  0
   -7.2181    3.1933   14.8728 C   0  0  2  0  0  0  0  0  0  0  0  0
   -6.4001    3.8892   15.8906 O   0  0  0  0  0  0  0  0  0  0  0  0
   -6.8040    1.7177   14.9075 C   0  0  2  0  0  0  0  0  0  0  0  0
   -5.4859    1.5911   14.4835 O   0  0  0  0  0  0  0  0  0  0  0  0
   -7.6433    0.8198   13.9803 C   0  0  0  0  0  0  0  0  0  0  0  0
  -10.4835    4.8936   19.9568 C   0  0  2  0  0  0  0  0  0  0  0  0
  -10.9110    4.8142   21.3768 N   0  3  0  0  0  0  0  0  0  0  0  0
   -9.4063    3.8128   19.6448 C   0  0  0  0  0  0  0  0  0  0  0  0
   -8.9474    3.9172   18.1452 C   0  0  2  0  0  0  0  0  0  0  0  0
   -7.9128    2.8537   17.8711 N   0  3  0  0  0  0  0  0  0  0  0  0
   -8.3866    5.3553   17.8737 C   0  0  2  0  0  0  0  0  0  0  0  0
   -9.4817    6.4049   18.1843 C   0  0  2  0  0  0  0  0  0  0  0  0
   -8.9563    7.6925   17.9696 O   0  0  0  0  0  0  0  0  0  0  0  0
   -9.9121    6.2990   19.6718 C   0  0  1  0  0  0  0  0  0  0  0  0
  -10.9137    7.2708   19.9344 O   0  0  0  0  0  0  0  0  0  0  0  0
  -10.6991    8.1946   20.9656 C   0  0  2  0  0  0  0  0  0  0  0  0
  -12.0334    8.3676   21.7158 C   0  0  2  0  0  0  0  0  0  0  0  0
  -12.4161    7.1253   22.2660 O   0  0  0  0  0  0  0  0  0  0  0  0
  -13.1197    8.8925   20.7161 C   0  0  1  0  0  0  0  0  0  0  0  0
  -14.4474    9.0582   21.3563 N   0  3  0  0  0  0  0  0  0  0  0  0
  -15.2214    7.7919   21.3000 C   0  0  0  0  0  0  0  0  0  0  0  0
  -12.6443   10.2572   20.1091 C   0  0  2  0  0  0  0  0  0  0  0  0
  -12.4617   11.2239   21.1605 O   0  0  0  0  0  0  0  0  0  0  0  0
  -13.6105   10.8046   19.1741 C   0  0  0  0  0  0  0  0  0  0  0  0
  -11.2504   10.0847   19.4306 C   0  0  0  0  0  0  0  0  0  0  0  0
  -10.2690    9.4803   20.3900 O   0  0  0  0  0  0  0  0  0  0  0  0
  1  2  1  6  0  0  0
  1  3  1  0  0  0  0
  1 10  1  0  0  0  0
  3  4  1  1  0  0  0
  3  5  1  0  0  0  0
  5  6  1  6  0  0  0
  5  7  1  0  0  0  0
  7  8  1  6  0  0  0
  7  9  1  0  0  0  0
  9 10  1  1  0  0  0
  9 11  1  0  0  0  0
 11 12  1  6  0  0  0
 11 13  1  0  0  0  0
 14 15  1  1  0  0  0
 14 16  1  0  0  0  0
 14 22  1  0  0  0  0
 16 17  1  0  0  0  0
 17 18  1  1  0  0  0
 17 19  1  0  0  0  0
 19  2  1  6  0  0  0
 19 20  1  0  0  0  0
 20 21  1  1  0  0  0
 20 22  1  0  0  0  0
 22 23  1  6  0  0  0
 24 23  1  6  0  0  0
 24 25  1  0  0  0  0
 24 34  1  0  0  0  0
 25 26  1  6  0  0  0
 25 27  1  0  0  0  0
 27 28  1  1  0  0  0
 27 30  1  0  0  0  0
 28 29  1  0  0  0  0
 30 31  1  1  0  0  0
 30 32  1  0  0  0  0
 30 33  1  0  0  0  0
 33 34  1  0  0  0  0
M  CHG  4   4   1  15   1  18   1  28   1
M  END
>  <CHROM.1>
-153.58295471,-100.54688511,53.97695711,66.83410734,69.95128060,56.59324048
82.40848473,-178.50220627,127.24600780,50.61962130,116.03931039,-139.23165065
174.25327083,32.38090464,60.70242306,-9.55517651,6.13763362,17.85642178,-0.16924169
0.97096020,-0.48817244

>  <Name>
1mwl

>  <RI>
0

>  <Rbt.Current_Directory>
/home/itssahil/PROJECTS/Mol_Feturizer/New_Systems/rnas/1mwl

>  <Rbt.Executable>
rbdock ($Id: //depot/dev/client3/rdock/2013.1/src/exe/rbdock.cxx#4 $)

>  <Rbt.Library>
libRbt.so (2013.1, Build901 2013/11/27)

>  <Rbt.Parameter_File>
/export/apps/rDock/src/rDock_2013.1_src/data/scripts/dock_solv.prm

>  <Rbt.Receptor>
prm/blind_docking_100.prm

>  <SCORE>
-23.8668

>  <SCORE.INTER>
-24.2358

>  <SCORE.INTER.CONST>
1

>  <SCORE.INTER.POLAR>
-4.20434

>  <SCORE.INTER.ROT>
6

>  <SCORE.INTER.SOLV>
24.1832

>  <SCORE.INTER.VDW>
-17.8038

>  <SCORE.INTER.norm>
-0.712818

>  <SCORE.INTRA>
-11.2663

>  <SCORE.INTRA.DIHEDRAL>
-12.2685

>  <SCORE.INTRA.DIHEDRAL.0>
42.0816

>  <SCORE.INTRA.POLAR>
-1.38966

>  <SCORE.INTRA.POLAR.0>
-0.254682

>  <SCORE.INTRA.REPUL>
0.0110218

>  <SCORE.INTRA.REPUL.0>
0

>  <SCORE.INTRA.SOLV>
4.8035

>  <SCORE.INTRA.SOLV.lig_0>
-109.803

>  <SCORE.INTRA.VDW>
-2.86409

>  <SCORE.INTRA.VDW.0>
0.32176

>  <SCORE.INTRA.norm>
-0.331362

>  <SCORE.RESTR>
11.6353

>  <SCORE.RESTR.CAVITY>
11.6353

>  <SCORE.RESTR.norm>
0.342216

>  <SCORE.SYSTEM>
0

>  <SCORE.SYSTEM.CONST>
0

>  <SCORE.SYSTEM.DIHEDRAL>
0

>  <SCORE.SYSTEM.SOLV>
0

>  <SCORE.SYSTEM.norm>
0

>  <SCORE.heavy>
34

>  <SCORE.norm>
-0.701964

>  <RMSD>
7.263

$$$$
1mwl
 OpenBabel11021811403D
libRbt.so/2013.1/901 2013/11/27
 34 36  0  0  0  0  0  0  0  0999 V2000
   -8.9821    5.2852   20.4845 C   0  0  2  0  0  0  0  0  0  0  0  0
   -9.0676    3.9517   20.0807 O   0  0  0  0  0  0  0  0  0  0  0  0
   -8.6200    5.2914   21.9964 C   0  0  2  0  0  0  0  0  0  0  0  0
   -7.3514    4.5897   22.2150 N   0  3  0  0  0  0  0  0  0  0  0  0
   -9.7699    4.6653   22.8386 C   0  0  1  0  0  0  0  0  0  0  0  0
   -9.4721    4.6905   24.1618 O   0  0  0  0  0  0  0  0  0  0  0  0
  -11.0879    5.4572   22.5498 C   0  0  2  0  0  0  0  0  0  0  0  0
  -12.1756    4.9088   23.3234 O   0  0  0  0  0  0  0  0  0  0  0  0
  -11.3857    5.3758   21.0141 C   0  0  2  0  0  0  0  0  0  0  0  0
  -10.2552    5.9363   20.2413 O   0  0  0  0  0  0  0  0  0  0  0  0
  -12.6433    6.1287   20.5654 C   0  0  2  0  0  0  0  0  0  0  0  0
  -12.5478    7.4645   20.9392 O   0  0  0  0  0  0  0  0  0  0  0  0
  -13.9407    5.5951   21.1998 C   0  0  0  0  0  0  0  0  0  0  0  0
   -8.4225    2.1423   16.2638 C   0  0  2  0  0  0  0  0  0  0  0  0
   -8.6367    1.7161   14.8574 N   0  3  0  0  0  0  0  0  0  0  0  0
   -9.5085    1.5288   17.1966 C   0  0  0  0  0  0  0  0  0  0  0  0
   -9.2839    2.0005   18.6788 C   0  0  2  0  0  0  0  0  0  0  0  0
  -10.3435    1.3838   19.5583 N   0  3  0  0  0  0  0  0  0  0  0  0
   -9.3222    3.5663   18.7360 C   0  0  2  0  0  0  0  0  0  0  0  0
   -8.2273    4.1449   17.8067 C   0  0  2  0  0  0  0  0  0  0  0  0
   -8.2937    5.5501   17.8401 O   0  0  0  0  0  0  0  0  0  0  0  0
   -8.4726    3.6829   16.3453 C   0  0  1  0  0  0  0  0  0  0  0  0
   -7.4598    4.2264   15.5116 O   0  0  0  0  0  0  0  0  0  0  0  0
   -6.3753    4.8800   16.1111 C   0  0  2  0  0  0  0  0  0  0  0  0
   -6.1389    6.1897   15.3353 C   0  0  2  0  0  0  0  0  0  0  0  0
   -7.2920    6.9978   15.4350 O   0  0  0  0  0  0  0  0  0  0  0  0
   -5.8248    5.8497   13.8385 C   0  0  1  0  0  0  0  0  0  0  0  0
   -5.6128    7.0638   13.0131 N   0  3  0  0  0  0  0  0  0  0  0  0
   -6.4452    7.0173   11.7838 C   0  0  0  0  0  0  0  0  0  0  0  0
   -4.5563    4.9311   13.7744 C   0  0  2  0  0  0  0  0  0  0  0  0
   -3.4276    5.6136   14.3521 O   0  0  0  0  0  0  0  0  0  0  0  0
   -4.2046    4.5807   12.4103 C   0  0  0  0  0  0  0  0  0  0  0  0
   -4.7783    3.6509   14.6376 C   0  0  0  0  0  0  0  0  0  0  0  0
   -5.1816    4.0207   16.0338 O   0  0  0  0  0  0  0  0  0  0  0  0
  1  2  1  1  0  0  0
  1  3  1  0  0  0  0
  1 10  1  0  0  0  0
  3  4  1  6  0  0  0
  3  5  1  0  0  0  0
  5  6  1  1  0  0  0
  5  7  1  0  0  0  0
  7  8  1  1  0  0  0
  7  9  1  0  0  0  0
  9 10  1  6  0  0  0
  9 11  1  0  0  0  0
 11 12  1  1  0  0  0
 11 13  1  0  0  0  0
 14 15  1  6  0  0  0
 14 16  1  0  0  0  0
 14 22  1  0  0  0  0
 16 17  1  0  0  0  0
 17 18  1  1  0  0  0
 17 19  1  0  0  0  0
 19  2  1  1  0  0  0
 19 20  1  0  0  0  0
 20 21  1  6  0  0  0
 20 22  1  0  0  0  0
 22 23  1  6  0  0  0
 24 23  1  6  0  0  0
 24 25  1  0  0  0  0
 24 34  1  0  0  0  0
 25 26  1  6  0  0  0
 25 27  1  0  0  0  0
 27 28  1  6  0  0  0
 27 30  1  0  0  0  0
 28 29  1  0  0  0  0
 30 31  1  1  0  0  0
 30 32  1  0  0  0  0
 30 33  1  0  0  0  0
 33 34  1  0  0  0  0
M  CHG  4   4   1  15   1  18   1  28   1
M  END
>  <CHROM.1>
-176.99898090,177.71574377,43.65326654,29.59290669,59.88204899,56.90551916
171.73418039,68.49094301,70.11308992,-54.16875767,-111.65291609,-134.50122531
26.23810633,-9.49265174,-54.68067975,-8.39346209,4.72977917,17.99930549,-3.08975790
-0.96896112,-3.06357105

>  <Name>
1mwl

>  <RI>
0

>  <Rbt.Current_Directory>
/home/itssahil/PROJECTS/Mol_Feturizer/New_Systems/rnas/1mwl

>  <Rbt.Executable>
rbdock ($Id: //depot/dev/client3/rdock/2013.1/src/exe/rbdock.cxx#4 $)

>  <Rbt.Library>
libRbt.so (2013.1, Build901 2013/11/27)

>  <Rbt.Parameter_File>
/export/apps/rDock/src/rDock_2013.1_src/data/scripts/dock_solv.prm

>  <Rbt.Receptor>
prm/blind_docking_100.prm

>  <SCORE>
-13.2575

>  <SCORE.INTER>
-18.75

>  <SCORE.INTER.CONST>
1

>  <SCORE.INTER.POLAR>
-2.86342

>  <SCORE.INTER.ROT>
6

>  <SCORE.INTER.SOLV>
27.4659

>  <SCORE.INTER.VDW>
-19.7106

>  <SCORE.INTER.norm>
-0.55147

>  <SCORE.INTRA>
-9.16059

>  <SCORE.INTRA.DIHEDRAL>
-15.7375

>  <SCORE.INTRA.DIHEDRAL.0>
42.0816

>  <SCORE.INTRA.POLAR>
-0.697773

>  <SCORE.INTRA.POLAR.0>
-0.254682

>  <SCORE.INTRA.REPUL>
0

>  <SCORE.INTRA.REPUL.0>
0

>  <SCORE.INTRA.SOLV>
-3.17631

>  <SCORE.INTRA.SOLV.lig_0>
-109.803

>  <SCORE.INTRA.VDW>
2.66876

>  <SCORE.INTRA.VDW.0>
0.32176

>  <SCORE.INTRA.norm>
-0.269429

>  <SCORE.RESTR>
14.6531

>  <SCORE.RESTR.CAVITY>
14.6531

>  <SCORE.RESTR.norm>
0.430972

>  <SCORE.SYSTEM>
0

>  <SCORE.SYSTEM.CONST>
0

>  <SCORE.SYSTEM.DIHEDRAL>
0

>  <SCORE.SYSTEM.SOLV>
0

>  <SCORE.SYSTEM.norm>
0

>  <SCORE.heavy>
34

>  <SCORE.norm>
-0.389927

>  <RMSD>
7.289

$$$$
1mwl
 OpenBabel11021811403D
libRbt.so/2013.1/901 2013/11/27
 34 36  0  0  0  0  0  0  0  0999 V2000
  -10.3010    9.4008   20.0773 C   0  0  2  0  0  0  0  0  0  0  0  0
  -10.6021    8.9619   21.3678 O   0  0  0  0  0  0  0  0  0  0  0  0
  -11.3117   10.5271   19.7211 C   0  0  2  0  0  0  0  0  0  0  0  0
  -11.2096   11.6226   20.6901 N   0  3  0  0  0  0  0  0  0  0  0  0
  -12.7605    9.9620   19.6504 C   0  0  1  0  0  0  0  0  0  0  0  0
  -13.6452   10.9341   19.3149 O   0  0  0  0  0  0  0  0  0  0  0  0
  -12.7914    8.7972   18.6065 C   0  0  2  0  0  0  0  0  0  0  0  0
  -14.1250    8.2550   18.5076 O   0  0  0  0  0  0  0  0  0  0  0  0
  -11.7655    7.7030   19.0581 C   0  0  2  0  0  0  0  0  0  0  0  0
  -10.4078    8.2825   19.1596 O   0  0  0  0  0  0  0  0  0  0  0  0
  -11.6612    6.4968   18.1179 C   0  0  2  0  0  0  0  0  0  0  0  0
  -12.8127    5.7239   18.2181 O   0  0  0  0  0  0  0  0  0  0  0  0
  -10.4837    5.5602   18.4446 C   0  0  0  0  0  0  0  0  0  0  0  0
   -8.8317    5.0746   21.4874 C   0  0  2  0  0  0  0  0  0  0  0  0
   -8.2753    3.8003   22.0089 N   0  3  0  0  0  0  0  0  0  0  0  0
   -7.9838    6.2864   21.9759 C   0  0  0  0  0  0  0  0  0  0  0  0
   -8.5914    7.6308   21.4340 C   0  0  2  0  0  0  0  0  0  0  0  0
   -7.7449    8.7835   21.9151 N   0  3  0  0  0  0  0  0  0  0  0  0
  -10.0765    7.7606   21.9177 C   0  0  2  0  0  0  0  0  0  0  0  0
  -10.8940    6.5478   21.4098 C   0  0  2  0  0  0  0  0  0  0  0  0
  -12.2162    6.6579   21.8784 O   0  0  0  0  0  0  0  0  0  0  0  0
  -10.2909    5.2303   21.9663 C   0  0  1  0  0  0  0  0  0  0  0  0
  -11.0566    4.1332   21.4905 O   0  0  0  0  0  0  0  0  0  0  0  0
  -11.2099    3.0124   22.3170 C   0  0  2  0  0  0  0  0  0  0  0  0
  -11.6002    1.8247   21.4170 C   0  0  2  0  0  0  0  0  0  0  0  0
  -10.5623    1.5899   20.4896 O   0  0  0  0  0  0  0  0  0  0  0  0
  -12.9414    2.1592   20.6792 C   0  0  1  0  0  0  0  0  0  0  0  0
  -13.3728    1.0730   19.7658 N   0  3  0  0  0  0  0  0  0  0  0  0
  -13.6003   -0.1880   20.5169 C   0  0  0  0  0  0  0  0  0  0  0  0
  -14.0583    2.4389   21.7429 C   0  0  2  0  0  0  0  0  0  0  0  0
  -14.2498    1.2755   22.5695 O   0  0  0  0  0  0  0  0  0  0  0  0
  -15.3341    2.7516   21.1250 C   0  0  0  0  0  0  0  0  0  0  0  0
  -13.6094    3.5843   22.7018 C   0  0  0  0  0  0  0  0  0  0  0  0
  -12.2717    3.2730   23.3040 O   0  0  0  0  0  0  0  0  0  0  0  0
  1  2  1  1  0  0  0
  1  3  1  0  0  0  0
  1 10  1  0  0  0  0
  3  4  1  1  0  0  0
  3  5  1  0  0  0  0
  5  6  1  6  0  0  0
  5  7  1  0  0  0  0
  7  8  1  1  0  0  0
  7  9  1  0  0  0  0
  9 10  1  6  0  0  0
  9 11  1  0  0  0  0
 11 12  1  1  0  0  0
 11 13  1  0  0  0  0
 14 15  1  1  0  0  0
 14 16  1  0  0  0  0
 14 22  1  0  0  0  0
 16 17  1  0  0  0  0
 17 18  1  1  0  0  0
 17 19  1  0  0  0  0
 19  2  1  6  0  0  0
 19 20  1  0  0  0  0
 20 21  1  1  0  0  0
 20 22  1  0  0  0  0
 22 23  1  6  0  0  0
 24 23  1  6  0  0  0
 24 25  1  0  0  0  0
 24 34  1  0  0  0  0
 25 26  1  6  0  0  0
 25 27  1  0  0  0  0
 27 28  1  1  0  0  0
 27 30  1  0  0  0  0
 28 29  1  0  0  0  0
 30 31  1  1  0  0  0
 30 32  1  0  0  0  0
 30 33  1  0  0  0  0
 33 34  1  0  0  0  0
M  CHG  4   4   1  15   1  18   1  28   1
M  END
>  <CHROM.1>
166.34812689,38.42623779,62.13665461,46.38254393,-49.86669692,-71.32582724
60.48513764,91.86260366,-38.37678628,62.49592141,93.35876930,-159.52946890
61.23472140,-179.39766347,178.13225967,-11.56682370,5.79570199,20.73448995
-1.34054251,0.40642251,2.87974418

>  <Name>
1mwl

>  <RI>
0

>  <Rbt.Current_Directory>
/home/itssahil/PROJECTS/Mol_Feturizer/New_Systems/rnas/1mwl

>  <Rbt.Executable>
rbdock ($Id: //depot/dev/client3/rdock/2013.1/src/exe/rbdock.cxx#4 $)

>  <Rbt.Library>
libRbt.so (2013.1, Build901 2013/11/27)

>  <Rbt.Parameter_File>
/export/apps/rDock/src/rDock_2013.1_src/data/scripts/dock_solv.prm

>  <Rbt.Receptor>
prm/blind_docking_100.prm

>  <SCORE>
-4.90816

>  <SCORE.INTER>
-10.9216

>  <SCORE.INTER.CONST>
1

>  <SCORE.INTER.POLAR>
-4.59232

>  <SCORE.INTER.ROT>
6

>  <SCORE.INTER.SOLV>
28.6248

>  <SCORE.INTER.VDW>
-9.11493

>  <SCORE.INTER.norm>
-0.321224

>  <SCORE.INTRA>
-12.3565

>  <SCORE.INTRA.DIHEDRAL>
-28.0694

>  <SCORE.INTRA.DIHEDRAL.0>
42.0816

>  <SCORE.INTRA.POLAR>
-0.0985883

>  <SCORE.INTRA.POLAR.0>
-0.254682

>  <SCORE.INTRA.REPUL>
0

>  <SCORE.INTRA.REPUL.0>
0

>  <SCORE.INTRA.SOLV>
-1.19353

>  <SCORE.INTRA.SOLV.lig_0>
-109.803

>  <SCORE.INTRA.VDW>
2.61019

>  <SCORE.INTRA.VDW.0>
0.32176

>  <SCORE.INTRA.norm>
-0.363426

>  <SCORE.RESTR>
18.3699

>  <SCORE.RESTR.CAVITY>
18.3699

>  <SCORE.RESTR.norm>
0.540292

>  <SCORE.SYSTEM>
0

>  <SCORE.SYSTEM.CONST>
0

>  <SCORE.SYSTEM.DIHEDRAL>
0

>  <SCORE.SYSTEM.SOLV>
0

>  <SCORE.SYSTEM.norm>
0

>  <SCORE.heavy>
34

>  <SCORE.norm>
-0.144358

>  <RMSD>
7.351

$$$$
1mwl
 OpenBabel11021811403D
libRbt.so/2013.1/901 2013/11/27
 34 36  0  0  0  0  0  0  0  0999 V2000
   -9.8413    5.3445   19.9515 C   0  0  2  0  0  0  0  0  0  0  0  0
   -8.7773    5.2487   19.0530 O   0  0  0  0  0  0  0  0  0  0  0  0
  -10.1099    6.8562   20.1954 C   0  0  2  0  0  0  0  0  0  0  0  0
  -10.4246    7.5243   18.9288 N   0  3  0  0  0  0  0  0  0  0  0  0
   -8.8941    7.5220   20.9041 C   0  0  1  0  0  0  0  0  0  0  0  0
   -9.1313    8.8360   21.1434 O   0  0  0  0  0  0  0  0  0  0  0  0
   -8.6133    6.7554   22.2386 C   0  0  2  0  0  0  0  0  0  0  0  0
   -7.4958    7.3534   22.9284 O   0  0  0  0  0  0  0  0  0  0  0  0
   -8.3304    5.2536   21.8943 C   0  0  2  0  0  0  0  0  0  0  0  0
   -9.4852    4.6636   21.1818 O   0  0  0  0  0  0  0  0  0  0  0  0
   -8.0576    4.3591   23.1090 C   0  0  2  0  0  0  0  0  0  0  0  0
   -9.0964    4.4834   24.0249 O   0  0  0  0  0  0  0  0  0  0  0  0
   -6.7684    4.7249   23.8670 C   0  0  0  0  0  0  0  0  0  0  0  0
   -7.6417    2.2634   16.2143 C   0  0  2  0  0  0  0  0  0  0  0  0
   -7.6447    1.4031   15.0038 N   0  3  0  0  0  0  0  0  0  0  0  0
   -8.9247    2.0229   17.0640 C   0  0  0  0  0  0  0  0  0  0  0  0
   -8.9206    2.9510   18.3324 C   0  0  2  0  0  0  0  0  0  0  0  0
  -10.1686    2.6890   19.1389 N   0  3  0  0  0  0  0  0  0  0  0  0
   -8.8270    4.4483   17.8788 C   0  0  2  0  0  0  0  0  0  0  0  0
   -7.5391    4.6568   17.0452 C   0  0  2  0  0  0  0  0  0  0  0  0
   -7.4834    5.9956   16.6153 O   0  0  0  0  0  0  0  0  0  0  0  0
   -7.5663    3.7454   15.7891 C   0  0  1  0  0  0  0  0  0  0  0  0
   -6.3786    3.9547   15.0393 O   0  0  0  0  0  0  0  0  0  0  0  0
   -6.4221    3.7805   13.6499 C   0  0  2  0  0  0  0  0  0  0  0  0
   -5.0219    4.1104   13.0989 C   0  0  2  0  0  0  0  0  0  0  0  0
   -4.0848    3.2152   13.6586 O   0  0  0  0  0  0  0  0  0  0  0  0
   -4.6633    5.5916   13.4627 C   0  0  1  0  0  0  0  0  0  0  0  0
   -3.3117    5.9805   12.9914 N   0  3  0  0  0  0  0  0  0  0  0  0
   -2.4699    6.4398   14.1256 C   0  0  0  0  0  0  0  0  0  0  0  0
   -5.7409    6.5485   12.8462 C   0  0  2  0  0  0  0  0  0  0  0  0
   -5.7617    6.4044   11.4136 O   0  0  0  0  0  0  0  0  0  0  0  0
   -5.4655    7.9428   13.1418 C   0  0  0  0  0  0  0  0  0  0  0  0
   -7.1629    6.1449   13.3443 C   0  0  0  0  0  0  0  0  0  0  0  0
   -7.4236    4.6934   13.0726 O   0  0  0  0  0  0  0  0  0  0  0  0
  1  2  1  6  0  0  0
  1  3  1  0  0  0  0
  1 10  1  0  0  0  0
  3  4  1  6  0  0  0
  3  5  1  0  0  0  0
  5  6  1  1  0  0  0
  5  7  1  0  0  0  0
  7  8  1  6  0  0  0
  7  9  1  0  0  0  0
  9 10  1  1  0  0  0
  9 11  1  0  0  0  0
 11 12  1  1  0  0  0
 11 13  1  0  0  0  0
 14 15  1  6  0  0  0
 14 16  1  0  0  0  0
 14 22  1  0  0  0  0
 16 17  1  0  0  0  0
 17 18  1  6  0  0  0
 17 19  1  0  0  0  0
 19  2  1  1  0  0  0
 19 20  1  0  0  0  0
 20 21  1  6  0  0  0
 20 22  1  0  0  0  0
 22 23  1  1  0  0  0
 24 23  1  1  0  0  0
 24 25  1  0  0  0  0
 24 34  1  0  0  0  0
 25 26  1  1  0  0  0
 25 27  1  0  0  0  0
 27 28  1  6  0  0  0
 27 30  1  0  0  0  0
 28 29  1  0  0  0  0
 30 31  1  6  0  0  0
 30 32  1  0  0  0  0
 30 33  1  0  0  0  0
 33 34  1  0  0  0  0
M  CHG  4   4   1  15   1  18   1  28   1
M  END
>  <CHROM.1>
-129.38147182,-65.67683332,-122.16274685,-61.59035263,64.27135029,53.74939349
92.97572294,-41.90613380,47.04598780,-170.45487702,89.66531208,178.34984068
177.21419035,-2.45921844,61.55276120,-7.45745753,5.13106745,17.42249563,2.45926554
1.06528012,0.68188180

>  <Name>
1mwl

>  <RI>
0

>  <Rbt.Current_Directory>
/home/itssahil/PROJECTS/Mol_Feturizer/New_Systems/rnas/1mwl

>  <Rbt.Executable>
rbdock ($Id: //depot/dev/client3/rdock/2013.1/src/exe/rbdock.cxx#4 $)

>  <Rbt.Library>
libRbt.so (2013.1, Build901 2013/11/27)

>  <Rbt.Parameter_File>
/export/apps/rDock/src/rDock_2013.1_src/data/scripts/dock_solv.prm

>  <Rbt.Receptor>
prm/blind_docking_100.prm

>  <SCORE>
-32.3945

>  <SCORE.INTER>
-30.4093

>  <SCORE.INTER.CONST>
1

>  <SCORE.INTER.POLAR>
-3.74769

>  <SCORE.INTER.ROT>
6

>  <SCORE.INTER.SOLV>
20.3119

>  <SCORE.INTER.VDW>
-22.1512

>  <SCORE.INTER.norm>
-0.894392

>  <SCORE.INTRA>
-12.545

>  <SCORE.INTRA.DIHEDRAL>
-18.3729

>  <SCORE.INTRA.DIHEDRAL.0>
42.0816

>  <SCORE.INTRA.POLAR>
-0.92014

>  <SCORE.INTRA.POLAR.0>
-0.254682

>  <SCORE.INTRA.REPUL>
0

>  <SCORE.INTRA.REPUL.0>
0

>  <SCORE.INTRA.SOLV>
0.97976

>  <SCORE.INTRA.SOLV.lig_0>
-109.803

>  <SCORE.INTRA.VDW>
-0.719925

>  <SCORE.INTRA.VDW.0>
0.32176

>  <SCORE.INTRA.norm>
-0.368969

>  <SCORE.RESTR>
10.5598

>  <SCORE.RESTR.CAVITY>
10.5598

>  <SCORE.RESTR.norm>
0.310582

>  <SCORE.SYSTEM>
0

>  <SCORE.SYSTEM.CONST>
0

>  <SCORE.SYSTEM.DIHEDRAL>
0

>  <SCORE.SYSTEM.SOLV>
0

>  <SCORE.SYSTEM.norm>
0

>  <SCORE.heavy>
34

>  <SCORE.norm>
-0.952779

>  <RMSD>
7.462

$$$$
1mwl
 OpenBabel11021811403D
libRbt.so/2013.1/901 2013/11/27
 34 36  0  0  0  0  0  0  0  0999 V2000
  -16.0037    5.4526   18.2244 C   0  0  2  0  0  0  0  0  0  0  0  0
  -16.0336    6.0345   16.9559 O   0  0  0  0  0  0  0  0  0  0  0  0
  -17.4112    5.6423   18.8567 C   0  0  2  0  0  0  0  0  0  0  0  0
  -18.4333    5.0174   18.0116 N   0  3  0  0  0  0  0  0  0  0  0  0
  -17.7093    7.1526   19.0891 C   0  0  1  0  0  0  0  0  0  0  0  0
  -18.9256    7.3247   19.6644 O   0  0  0  0  0  0  0  0  0  0  0  0
  -16.5784    7.7516   19.9890 C   0  0  2  0  0  0  0  0  0  0  0  0
  -16.8285    9.1516   20.2335 O   0  0  0  0  0  0  0  0  0  0  0  0
  -15.2063    7.5380   19.2641 C   0  0  2  0  0  0  0  0  0  0  0  0
  -14.9745    6.0976   19.0173 O   0  0  0  0  0  0  0  0  0  0  0  0
  -13.9873    8.0551   20.0365 C   0  0  2  0  0  0  0  0  0  0  0  0
  -14.2550    8.0365   21.4008 O   0  0  0  0  0  0  0  0  0  0  0  0
  -13.6089    9.5069   19.6912 C   0  0  0  0  0  0  0  0  0  0  0  0
  -12.9341    6.5907   14.0674 C   0  0  2  0  0  0  0  0  0  0  0  0
  -11.7366    7.1376   13.3801 N   0  3  0  0  0  0  0  0  0  0  0  0
  -14.0538    7.6690   14.1644 C   0  0  0  0  0  0  0  0  0  0  0  0
  -15.3090    7.0862   14.9094 C   0  0  2  0  0  0  0  0  0  0  0  0
  -16.3780    8.1488   14.9794 N   0  3  0  0  0  0  0  0  0  0  0  0
  -14.8839    6.5966   16.3362 C   0  0  2  0  0  0  0  0  0  0  0  0
  -13.7778    5.5211   16.2060 C   0  0  2  0  0  0  0  0  0  0  0  0
  -13.3806    5.1141   17.4931 O   0  0  0  0  0  0  0  0  0  0  0  0
  -12.5404    6.1168   15.4827 C   0  0  1  0  0  0  0  0  0  0  0  0
  -11.5393    5.1153   15.3767 O   0  0  0  0  0  0  0  0  0  0  0  0
  -10.3029    5.4584   14.8141 C   0  0  2  0  0  0  0  0  0  0  0  0
   -9.3140    4.3249   15.1459 C   0  0  2  0  0  0  0  0  0  0  0  0
   -9.7797    3.1243   14.5679 O   0  0  0  0  0  0  0  0  0  0  0  0
   -9.1971    4.1853   16.7021 C   0  0  1  0  0  0  0  0  0  0  0  0
   -8.2818    3.0904   17.1066 N   0  3  0  0  0  0  0  0  0  0  0  0
   -9.0137    2.0453   17.8669 C   0  0  0  0  0  0  0  0  0  0  0  0
   -8.7039    5.5453   17.3055 C   0  0  2  0  0  0  0  0  0  0  0  0
   -7.4139    5.8832   16.7622 O   0  0  0  0  0  0  0  0  0  0  0  0
   -8.5682    5.4843   18.7496 C   0  0  0  0  0  0  0  0  0  0  0  0
   -9.6676    6.6978   16.8860 C   0  0  0  0  0  0  0  0  0  0  0  0
   -9.8351    6.7280   15.3961 O   0  0  0  0  0  0  0  0  0  0  0  0
  1  2  1  6  0  0  0
  1  3  1  0  0  0  0
  1 10  1  0  0  0  0
  3  4  1  6  0  0  0
  3  5  1  0  0  0  0
  5  6  1  1  0  0  0
  5  7  1  0  0  0  0
  7  8  1  6  0  0  0
  7  9  1  0  0  0  0
  9 10  1  1  0  0  0
  9 11  1  0  0  0  0
 11 12  1  1  0  0  0
 11 13  1  0  0  0  0
 14 15  1  1  0  0  0
 14 16  1  0  0  0  0
 14 22  1  0  0  0  0
 16 17  1  0  0  0  0
 17 18  1  1  0  0  0
 17 19  1  0  0  0  0
 19  2  1  6  0  0  0
 19 20  1  0  0  0  0
 20 21  1  1  0  0  0
 20 22  1  0  0  0  0
 22 23  1  6  0  0  0
 24 23  1  1  0  0  0
 24 25  1  0  0  0  0
 24 34  1  0  0  0  0
 25 26  1  6  0  0  0
 25 27  1  0  0  0  0
 27 28  1  6  0  0  0
 27 30  1  0  0  0  0
 28 29  1  0  0  0  0
 30 31  1  6  0  0  0
 30 32  1  0  0  0  0
 30 33  1  0  0  0  0
 33 34  1  0  0  0  0
M  CHG  4   4   1  15   1  18   1  28   1
M  END
>  <CHROM.1>
150.68761944,177.56760922,-111.29445284,178.92774276,-50.41012064,27.14104919
62.89194924,-150.54934841,172.42857293,93.27482047,63.07029194,165.82657164
-179.24918303,2.51509770,64.78982209,-13.14627030,6.19006764,17.19070020
2.77818464,-0.28452929,1.46642299

>  <Name>
1mwl

>  <RI>
0

>  <Rbt.Current_Directory>
/home/itssahil/PROJECTS/Mol_Feturizer/New_Systems/rnas/1mwl

>  <Rbt.Executable>
rbdock ($Id: //depot/dev/client3/rdock/2013.1/src/exe/rbdock.cxx#4 $)

>  <Rbt.Library>
libRbt.so (2013.1, Build901 2013/11/27)

>  <Rbt.Parameter_File>
/export/apps/rDock/src/rDock_2013.1_src/data/scripts/dock_solv.prm

>  <Rbt.Receptor>
prm/pocket_docking_7.prm

>  <SCORE>
-34.0593

>  <SCORE.INTER>
-23.5308

>  <SCORE.INTER.CONST>
1

>  <SCORE.INTER.POLAR>
-4.93454

>  <SCORE.INTER.ROT>
6

>  <SCORE.INTER.SOLV>
14.7847

>  <SCORE.INTER.VDW>
-11.7669

>  <SCORE.INTER.norm>
-0.692081

>  <SCORE.INTRA>
-10.5285

>  <SCORE.INTRA.DIHEDRAL>
-20.7363

>  <SCORE.INTRA.DIHEDRAL.0>
42.0816

>  <SCORE.INTRA.POLAR>
-0.466594

>  <SCORE.INTRA.POLAR.0>
-0.254682

>  <SCORE.INTRA.REPUL>
0

>  <SCORE.INTRA.REPUL.0>
0

>  <SCORE.INTRA.SOLV>
-0.935935

>  <SCORE.INTRA.SOLV.lig_0>
-109.803

>  <SCORE.INTRA.VDW>
1.894

>  <SCORE.INTRA.VDW.0>
0.32176

>  <SCORE.INTRA.norm>
-0.309662

>  <SCORE.RESTR>
0

>  <SCORE.RESTR.CAVITY>
0

>  <SCORE.RESTR.norm>
0

>  <SCORE.SYSTEM>
0

>  <SCORE.SYSTEM.CONST>
0

>  <SCORE.SYSTEM.DIHEDRAL>
0

>  <SCORE.SYSTEM.SOLV>
0

>  <SCORE.SYSTEM.norm>
0

>  <SCORE.heavy>
34

>  <SCORE.norm>
-1.00174

>  <RMSD>
7.511

$$$$
1mwl
 OpenBabel11021811403D
libRbt.so/2013.1/901 2013/11/27
 34 36  0  0  0  0  0  0  0  0999 V2000
  -12.1186    9.1784   19.3942 C   0  0  2  0  0  0  0  0  0  0  0  0
  -12.9634    8.3003   20.0752 O   0  0  0  0  0  0  0  0  0  0  0  0
  -11.8467   10.3861   20.3346 C   0  0  2  0  0  0  0  0  0  0  0  0
  -11.2348    9.9254   21.5847 N   0  3  0  0  0  0  0  0  0  0  0  0
  -13.1590   11.1801   20.6012 C   0  0  1  0  0  0  0  0  0  0  0  0
  -12.9249   12.2507   21.4007 O   0  0  0  0  0  0  0  0  0  0  0  0
  -13.7568   11.6315   19.2278 C   0  0  2  0  0  0  0  0  0  0  0  0
  -14.9720   12.3807   19.4381 O   0  0  0  0  0  0  0  0  0  0  0  0
  -14.0203   10.3537   18.3609 C   0  0  2  0  0  0  0  0  0  0  0  0
  -12.7634    9.5980   18.1645 O   0  0  0  0  0  0  0  0  0  0  0  0
  -14.5895   10.6335   16.9653 C   0  0  2  0  0  0  0  0  0  0  0  0
  -13.9052   11.6955   16.3847 O   0  0  0  0  0  0  0  0  0  0  0  0
  -16.0766   11.0323   16.9745 C   0  0  0  0  0  0  0  0  0  0  0  0
  -13.8064    4.1440   19.5517 C   0  0  2  0  0  0  0  0  0  0  0  0
  -14.3272    2.8784   18.9751 N   0  3  0  0  0  0  0  0  0  0  0  0
  -14.9775    5.0891   19.9534 C   0  0  0  0  0  0  0  0  0  0  0  0
  -14.4157    6.4323   20.5451 C   0  0  2  0  0  0  0  0  0  0  0  0
  -15.5714    7.3216   20.9328 N   0  3  0  0  0  0  0  0  0  0  0  0
  -13.4872    7.1177   19.4846 C   0  0  2  0  0  0  0  0  0  0  0  0
  -12.3302    6.1583   19.1130 C   0  0  2  0  0  0  0  0  0  0  0  0
  -11.5233    6.7704   18.1361 O   0  0  0  0  0  0  0  0  0  0  0  0
  -12.9010    4.8442   18.5161 C   0  0  1  0  0  0  0  0  0  0  0  0
  -11.8239    3.9817   18.1807 O   0  0  0  0  0  0  0  0  0  0  0  0
  -11.1084    3.3667   19.2163 C   0  0  2  0  0  0  0  0  0  0  0  0
   -9.6101    3.4960   18.8829 C   0  0  2  0  0  0  0  0  0  0  0  0
   -9.2693    4.8644   18.8203 O   0  0  0  0  0  0  0  0  0  0  0  0
   -9.3262    2.7882   17.5142 C   0  0  1  0  0  0  0  0  0  0  0  0
   -7.9044    2.8936   17.1049 N   0  3  0  0  0  0  0  0  0  0  0  0
   -7.7895    3.4816   15.7458 C   0  0  0  0  0  0  0  0  0  0  0  0
   -9.7426    1.2806   17.6181 C   0  0  2  0  0  0  0  0  0  0  0  0
   -8.9806    0.6322   18.6537 O   0  0  0  0  0  0  0  0  0  0  0  0
   -9.5003    0.5611   16.3808 C   0  0  0  0  0  0  0  0  0  0  0  0
  -11.2390    1.1667   18.0436 C   0  0  0  0  0  0  0  0  0  0  0  0
  -11.4901    1.9465   19.2996 O   0  0  0  0  0  0  0  0  0  0  0  0
  1  2  1  1  0  0  0
  1  3  1  0  0  0  0
  1 10  1  0  0  0  0
  3  4  1  1  0  0  0
  3  5  1  0  0  0  0
  5  6  1  1  0  0  0
  5  7  1  0  0  0  0
  7  8  1  1  0  0  0
  7  9  1  0  0  0  0
  9 10  1  6  0  0  0
  9 11  1  0  0  0  0
 11 12  1  1  0  0  0
 11 13  1  0  0  0  0
 14 15  1  6  0  0  0
 14 16  1  0  0  0  0
 14 22  1  0  0  0  0
 16 17  1  0  0  0  0
 17 18  1  6  0  0  0
 17 19  1  0  0  0  0
 19  2  1  1  0  0  0
 19 20  1  0  0  0  0
 20 21  1  6  0  0  0
 20 22  1  0  0  0  0
 22 23  1  1  0  0  0
 24 23  1  6  0  0  0
 24 25  1  0  0  0  0
 24 34  1  0  0  0  0
 25 26  1  6  0  0  0
 25 27  1  0  0  0  0
 27 28  1  1  0  0  0
 27 30  1  0  0  0  0
 28 29  1  0  0  0  0
 30 31  1  1  0  0  0
 30 32  1  0  0  0  0
 30 33  1  0  0  0  0
 33 34  1  0  0  0  0
M  CHG  4   4   1  15   1  18   1  28   1
M  END
>  <CHROM.1>
176.13569265,-178.36082153,-143.99493863,-169.07252723,64.16333948,44.01660898
45.97104288,71.56402406,61.96618222,173.95568664,-48.18913481,-135.20851997
177.77337289,-5.26559274,-18.95945431,-12.20511739,6.49433616,18.82194301
-2.02150225,-0.36857698,3.12213704

>  <Name>
1mwl

>  <RI>
0

>  <Rbt.Current_Directory>
/home/itssahil/PROJECTS/Mol_Feturizer/New_Systems/rnas/1mwl

>  <Rbt.Executable>
rbdock ($Id: //depot/dev/client3/rdock/2013.1/src/exe/rbdock.cxx#4 $)

>  <Rbt.Library>
libRbt.so (2013.1, Build901 2013/11/27)

>  <Rbt.Parameter_File>
/export/apps/rDock/src/rDock_2013.1_src/data/scripts/dock_solv.prm

>  <Rbt.Receptor>
prm/pocket_docking_6.prm

>  <SCORE>
-44.8884

>  <SCORE.INTER>
-27.7148

>  <SCORE.INTER.CONST>
1

>  <SCORE.INTER.POLAR>
-5.12733

>  <SCORE.INTER.ROT>
6

>  <SCORE.INTER.SOLV>
17.199

>  <SCORE.INTER.VDW>
-14.7184

>  <SCORE.INTER.norm>
-0.81514

>  <SCORE.INTRA>
-17.1785

>  <SCORE.INTRA.DIHEDRAL>
-20.5673

>  <SCORE.INTRA.DIHEDRAL.0>
42.0816

>  <SCORE.INTRA.POLAR>
-1.2623

>  <SCORE.INTRA.POLAR.0>
-0.254682

>  <SCORE.INTRA.REPUL>
0

>  <SCORE.INTRA.REPUL.0>
0

>  <SCORE.INTRA.SOLV>
-0.628166

>  <SCORE.INTRA.SOLV.lig_0>
-109.803

>  <SCORE.INTRA.VDW>
-2.28894

>  <SCORE.INTRA.VDW.0>
0.32176

>  <SCORE.INTRA.norm>
-0.50525

>  <SCORE.RESTR>
0.00482672

>  <SCORE.RESTR.CAVITY>
0.00482672

>  <SCORE.RESTR.norm>
0.000141962

>  <SCORE.SYSTEM>
0

>  <SCORE.SYSTEM.CONST>
0

>  <SCORE.SYSTEM.DIHEDRAL>
0

>  <SCORE.SYSTEM.SOLV>
0

>  <SCORE.SYSTEM.norm>
0

>  <SCORE.heavy>
34

>  <SCORE.norm>
-1.32025

>  <RMSD>
7.525

$$$$
1mwl
 OpenBabel11021811403D
libRbt.so/2013.1/901 2013/11/27
 34 36  0  0  0  0  0  0  0  0999 V2000
  -13.6022   11.6125   19.7457 C   0  0  2  0  0  0  0  0  0  0  0  0
  -14.3027   11.3474   20.9237 O   0  0  0  0  0  0  0  0  0  0  0  0
  -12.2077   12.1692   20.1486 C   0  0  2  0  0  0  0  0  0  0  0  0
  -11.4954   11.1942   20.9802 N   0  3  0  0  0  0  0  0  0  0  0  0
  -12.3526   13.5390   20.8742 C   0  0  1  0  0  0  0  0  0  0  0  0
  -11.1380   14.0435   21.2063 O   0  0  0  0  0  0  0  0  0  0  0  0
  -13.1253   14.5222   19.9341 C   0  0  2  0  0  0  0  0  0  0  0  0
  -13.2694   15.8084   20.5724 O   0  0  0  0  0  0  0  0  0  0  0  0
  -14.5211   13.8931   19.6028 C   0  0  2  0  0  0  0  0  0  0  0  0
  -14.3492   12.5732   18.9564 O   0  0  0  0  0  0  0  0  0  0  0  0
  -15.3952   14.7333   18.6648 C   0  0  2  0  0  0  0  0  0  0  0  0
  -15.7024   15.9459   19.2719 O   0  0  0  0  0  0  0  0  0  0  0  0
  -16.7413   14.0713   18.3185 C   0  0  0  0  0  0  0  0  0  0  0  0
  -17.6362    8.7686   21.6287 C   0  0  2  0  0  0  0  0  0  0  0  0
  -19.0268    8.2485   21.6633 N   0  3  0  0  0  0  0  0  0  0  0  0
  -17.5109   10.0630   22.4859 C   0  0  0  0  0  0  0  0  0  0  0  0
  -16.0407   10.6154   22.4279 C   0  0  2  0  0  0  0  0  0  0  0  0
  -15.9485   11.8616   23.2735 N   0  3  0  0  0  0  0  0  0  0  0  0
  -15.6512   10.8969   20.9361 C   0  0  2  0  0  0  0  0  0  0  0  0
  -15.7773    9.5915   20.1132 C   0  0  2  0  0  0  0  0  0  0  0  0
  -15.4583    9.8639   18.7700 O   0  0  0  0  0  0  0  0  0  0  0  0
  -17.2376    9.0682   20.1679 C   0  0  1  0  0  0  0  0  0  0  0  0
  -17.3303    7.8737   19.4057 O   0  0  0  0  0  0  0  0  0  0  0  0
  -18.5294    7.5951   18.7368 C   0  0  2  0  0  0  0  0  0  0  0  0
  -18.3320    6.2772   17.9642 C   0  0  2  0  0  0  0  0  0  0  0  0
  -18.0518    5.2429   18.8830 O   0  0  0  0  0  0  0  0  0  0  0  0
  -17.1544    6.4513   16.9454 C   0  0  1  0  0  0  0  0  0  0  0  0
  -16.8795    5.2117   16.1785 N   0  3  0  0  0  0  0  0  0  0  0  0
  -15.4623    4.7967   16.3381 C   0  0  0  0  0  0  0  0  0  0  0  0
  -17.4932    7.6244   15.9625 C   0  0  2  0  0  0  0  0  0  0  0  0
  -18.7031    7.3253   15.2413 O   0  0  0  0  0  0  0  0  0  0  0  0
  -16.4419    7.8374   14.9843 C   0  0  0  0  0  0  0  0  0  0  0  0
  -17.7778    8.9307   16.7660 C   0  0  0  0  0  0  0  0  0  0  0  0
  -18.8353    8.6916   17.8021 O   0  0  0  0  0  0  0  0  0  0  0  0
  1  2  1  1  0  0  0
  1  3  1  0  0  0  0
  1 10  1  0  0  0  0
  3  4  1  1  0  0  0
  3  5  1  0  0  0  0
  5  6  1  6  0  0  0
  5  7  1  0  0  0  0
  7  8  1  1  0  0  0
  7  9  1  0  0  0  0
  9 10  1  6  0  0  0
  9 11  1  0  0  0  0
 11 12  1  1  0  0  0
 11 13  1  0  0  0  0
 14 15  1  6  0  0  0
 14 16  1  0  0  0  0
 14 22  1  0  0  0  0
 16 17  1  0  0  0  0
 17 18  1  1  0  0  0
 17 19  1  0  0  0  0
 19  2  1  1  0  0  0
 19 20  1  0  0  0  0
 20 21  1  6  0  0  0
 20 22  1  0  0  0  0
 22 23  1  6  0  0  0
 24 23  1  6  0  0  0
 24 25  1  0  0  0  0
 24 34  1  0  0  0  0
 25 26  1  1  0  0  0
 25 27  1  0  0  0  0
 27 28  1  6  0  0  0
 27 30  1  0  0  0  0
 28 29  1  0  0  0  0
 30 31  1  6  0  0  0
 30 32  1  0  0  0  0
 30 33  1  0  0  0  0
 33 34  1  0  0  0  0
M  CHG  4   4   1  15   1  18   1  28   1
M  END
>  <CHROM.1>
176.26592376,175.92494982,158.50384693,172.65074713,-52.47881132,-63.15745949
61.82824578,-51.14158439,-62.24740844,174.88748297,92.42376154,178.21810970
56.47202900,-3.78986714,-63.03841143,-15.86019803,10.25273795,19.29951137
-0.62065296,-0.96114874,-1.87170837

>  <Name>
1mwl

>  <RI>
0

>  <Rbt.Current_Directory>
/home/itssahil/PROJECTS/Mol_Feturizer/New_Systems/rnas/1mwl

>  <Rbt.Executable>
rbdock ($Id: //depot/dev/client3/rdock/2013.1/src/exe/rbdock.cxx#4 $)

>  <Rbt.Library>
libRbt.so (2013.1, Build901 2013/11/27)

>  <Rbt.Parameter_File>
/export/apps/rDock/src/rDock_2013.1_src/data/scripts/dock_solv.prm

>  <Rbt.Receptor>
prm/pocket_docking_8.prm

>  <SCORE>
-53.6411

>  <SCORE.INTER>
-32.759

>  <SCORE.INTER.CONST>
1

>  <SCORE.INTER.POLAR>
-5.0067

>  <SCORE.INTER.ROT>
6

>  <SCORE.INTER.SOLV>
16.3824

>  <SCORE.INTER.VDW>
-18.2111

>  <SCORE.INTER.norm>
-0.963499

>  <SCORE.INTRA>
-20.8821

>  <SCORE.INTRA.DIHEDRAL>
-32.2042

>  <SCORE.INTRA.DIHEDRAL.0>
42.0816

>  <SCORE.INTRA.POLAR>
-0.0797263

>  <SCORE.INTRA.POLAR.0>
-0.254682

>  <SCORE.INTRA.REPUL>
0

>  <SCORE.INTRA.REPUL.0>
0

>  <SCORE.INTRA.SOLV>
-2.66785

>  <SCORE.INTRA.SOLV.lig_0>
-109.803

>  <SCORE.INTRA.VDW>
-3.17502

>  <SCORE.INTRA.VDW.0>
0.32176

>  <SCORE.INTRA.norm>
-0.61418

>  <SCORE.RESTR>
0

>  <SCORE.RESTR.CAVITY>
0

>  <SCORE.RESTR.norm>
0

>  <SCORE.SYSTEM>
0

>  <SCORE.SYSTEM.CONST>
0

>  <SCORE.SYSTEM.DIHEDRAL>
0

>  <SCORE.SYSTEM.SOLV>
0

>  <SCORE.SYSTEM.norm>
0

>  <SCORE.heavy>
34

>  <SCORE.norm>
-1.57768

>  <RMSD>
7.605

$$$$
1mwl
 OpenBabel11021811403D
libRbt.so/2013.1/901 2013/11/27
 34 36  0  0  0  0  0  0  0  0999 V2000
  -14.3508    9.4743   17.1841 C   0  0  2  0  0  0  0  0  0  0  0  0
  -14.6528    8.7203   18.3194 O   0  0  0  0  0  0  0  0  0  0  0  0
  -15.6284    9.5157   16.2993 C   0  0  2  0  0  0  0  0  0  0  0  0
  -16.7419   10.1077   17.0471 N   0  3  0  0  0  0  0  0  0  0  0  0
  -15.9834    8.0912   15.7813 C   0  0  1  0  0  0  0  0  0  0  0  0
  -17.0829    8.1231   14.9873 O   0  0  0  0  0  0  0  0  0  0  0  0
  -14.7515    7.5220   15.0029 C   0  0  2  0  0  0  0  0  0  0  0  0
  -15.0495    6.2032   14.4987 O   0  0  0  0  0  0  0  0  0  0  0  0
  -13.5237    7.4942   15.9754 C   0  0  2  0  0  0  0  0  0  0  0  0
  -13.2413    8.8543   16.4851 O   0  0  0  0  0  0  0  0  0  0  0  0
  -12.2230    6.9787   15.3491 C   0  0  2  0  0  0  0  0  0  0  0  0
  -11.9921    7.6328   14.1440 O   0  0  0  0  0  0  0  0  0  0  0  0
  -12.2487    5.4739   15.0248 C   0  0  0  0  0  0  0  0  0  0  0  0
  -10.9164    8.6718   20.3921 C   0  0  2  0  0  0  0  0  0  0  0  0
   -9.9063    8.4695   21.4618 N   0  3  0  0  0  0  0  0  0  0  0  0
  -11.9955    9.7013   20.8412 C   0  0  0  0  0  0  0  0  0  0  0  0
  -13.0693    9.8942   19.7099 C   0  0  2  0  0  0  0  0  0  0  0  0
  -14.0939   10.9020   20.1695 N   0  3  0  0  0  0  0  0  0  0  0  0
  -13.7258    8.5106   19.3769 C   0  0  2  0  0  0  0  0  0  0  0  0
  -12.6305    7.5134   18.9261 C   0  0  2  0  0  0  0  0  0  0  0  0
  -13.2267    6.2662   18.6628 O   0  0  0  0  0  0  0  0  0  0  0  0
  -11.5875    7.3221   20.0596 C   0  0  1  0  0  0  0  0  0  0  0  0
  -10.5956    6.4032   19.6260 O   0  0  0  0  0  0  0  0  0  0  0  0
   -9.9440    5.6163   20.5845 C   0  0  2  0  0  0  0  0  0  0  0  0
   -8.8094    4.8601   19.8677 C   0  0  2  0  0  0  0  0  0  0  0  0
   -7.9014    5.7968   19.3284 O   0  0  0  0  0  0  0  0  0  0  0  0
   -9.4233    3.9651   18.7377 C   0  0  1  0  0  0  0  0  0  0  0  0
   -8.3889    3.2229   17.9766 N   0  3  0  0  0  0  0  0  0  0  0  0
   -8.8346    2.9799   16.5808 C   0  0  0  0  0  0  0  0  0  0  0  0
  -10.4435    2.9596   19.3744 C   0  0  2  0  0  0  0  0  0  0  0  0
   -9.7710    2.1195   20.3311 O   0  0  0  0  0  0  0  0  0  0  0  0
  -11.0483    2.0927   18.3795 C   0  0  0  0  0  0  0  0  0  0  0  0
  -11.5355    3.7378   20.1713 C   0  0  0  0  0  0  0  0  0  0  0  0
  -10.9019    4.6616   21.1682 O   0  0  0  0  0  0  0  0  0  0  0  0
  1  2  1  1  0  0  0
  1  3  1  0  0  0  0
  1 10  1  0  0  0  0
  3  4  1  1  0  0  0
  3  5  1  0  0  0  0
  5  6  1  6  0  0  0
  5  7  1  0  0  0  0
  7  8  1  1  0  0  0
  7  9  1  0  0  0  0
  9 10  1  6  0  0  0
  9 11  1  0  0  0  0
 11 12  1  6  0  0  0
 11 13  1  0  0  0  0
 14 15  1  1  0  0  0
 14 16  1  0  0  0  0
 14 22  1  0  0  0  0
 16 17  1  0  0  0  0
 17 18  1  1  0  0  0
 17 19  1  0  0  0  0
 19  2  1  6  0  0  0
 19 20  1  0  0  0  0
 20 21  1  1  0  0  0
 20 22  1  0  0  0  0
 22 23  1  6  0  0  0
 24 23  1  6  0  0  0
 24 25  1  0  0  0  0
 24 34  1  0  0  0  0
 25 26  1  6  0  0  0
 25 27  1  0  0  0  0
 27 28  1  1  0  0  0
 27 30  1  0  0  0  0
 28 29  1  0  0  0  0
 30 31  1  1  0  0  0
 30 32  1  0  0  0  0
 30 33  1  0  0  0  0
 33 34  1  0  0  0  0
M  CHG  4   4   1  15   1  18   1  28   1
M  END
>  <CHROM.1>
-177.75759904,45.79284389,61.48316570,61.24998235,61.16258568,49.39646699
176.72016095,-177.81832410,176.82507389,177.40581047,88.91966002,-172.75599256
177.14658177,-30.67269827,57.01347235,-12.24398040,6.75629454,18.15333732
-3.02137630,0.78266293,-2.29006014

>  <Name>
1mwl

>  <RI>
0

>  <Rbt.Current_Directory>
/home/itssahil/PROJECTS/Mol_Feturizer/New_Systems/rnas/1mwl

>  <Rbt.Executable>
rbdock ($Id: //depot/dev/client3/rdock/2013.1/src/exe/rbdock.cxx#4 $)

>  <Rbt.Library>
libRbt.so (2013.1, Build901 2013/11/27)

>  <Rbt.Parameter_File>
/export/apps/rDock/src/rDock_2013.1_src/data/scripts/dock_solv.prm

>  <Rbt.Receptor>
prm/pocket_docking_5.prm

>  <SCORE>
-55.28

>  <SCORE.INTER>
-37.2232

>  <SCORE.INTER.CONST>
1

>  <SCORE.INTER.POLAR>
-6.30506

>  <SCORE.INTER.ROT>
6

>  <SCORE.INTER.SOLV>
17.1721

>  <SCORE.INTER.VDW>
-17.1226

>  <SCORE.INTER.norm>
-1.0948

>  <SCORE.INTRA>
-18.0568

>  <SCORE.INTRA.DIHEDRAL>
-35.0476

>  <SCORE.INTRA.DIHEDRAL.0>
42.0816

>  <SCORE.INTRA.POLAR>
0.254143

>  <SCORE.INTRA.POLAR.0>
-0.254682

>  <SCORE.INTRA.REPUL>
0

>  <SCORE.INTRA.REPUL.0>
0

>  <SCORE.INTRA.SOLV>
-0.173063

>  <SCORE.INTRA.SOLV.lig_0>
-109.803

>  <SCORE.INTRA.VDW>
-1.31058

>  <SCORE.INTRA.VDW.0>
0.32176

>  <SCORE.INTRA.norm>
-0.531083

>  <SCORE.RESTR>
0

>  <SCORE.RESTR.CAVITY>
0

>  <SCORE.RESTR.norm>
0

>  <SCORE.SYSTEM>
0

>  <SCORE.SYSTEM.CONST>
0

>  <SCORE.SYSTEM.DIHEDRAL>
0

>  <SCORE.SYSTEM.SOLV>
0

>  <SCORE.SYSTEM.norm>
0

>  <SCORE.heavy>
34

>  <SCORE.norm>
-1.62588

>  <RMSD>
7.638

$$$$
1mwl
 OpenBabel11021811403D
libRbt.so/2013.1/901 2013/11/27
 34 36  0  0  0  0  0  0  0  0999 V2000
  -13.1134    7.7867   15.1731 C   0  0  2  0  0  0  0  0  0  0  0  0
  -13.6674    7.3568   16.3802 O   0  0  0  0  0  0  0  0  0  0  0  0
  -13.8885    7.0782   14.0268 C   0  0  2  0  0  0  0  0  0  0  0  0
  -15.3149    7.4085   14.1019 N   0  3  0  0  0  0  0  0  0  0  0  0
  -13.6564    5.5396   14.0767 C   0  0  1  0  0  0  0  0  0  0  0  0
  -14.3092    4.9169   13.0637 O   0  0  0  0  0  0  0  0  0  0  0  0
  -12.1183    5.2643   13.9997 C   0  0  2  0  0  0  0  0  0  0  0  0
  -11.8663    3.8439   14.0336 O   0  0  0  0  0  0  0  0  0  0  0  0
  -11.4262    5.9927   15.2016 C   0  0  2  0  0  0  0  0  0  0  0  0
  -11.7038    7.4452   15.1506 O   0  0  0  0  0  0  0  0  0  0  0  0
   -9.9022    5.8362   15.2527 C   0  0  2  0  0  0  0  0  0  0  0  0
   -9.5655    4.4916   15.1438 O   0  0  0  0  0  0  0  0  0  0  0  0
   -9.2751    6.3325   16.5683 C   0  0  0  0  0  0  0  0  0  0  0  0
  -11.1697    8.9310   19.4693 C   0  0  2  0  0  0  0  0  0  0  0  0
  -10.7357    9.5074   20.7674 N   0  3  0  0  0  0  0  0  0  0  0  0
  -12.1274    9.9085   18.7255 C   0  0  0  0  0  0  0  0  0  0  0  0
  -12.5952    9.2817   17.3623 C   0  0  2  0  0  0  0  0  0  0  0  0
  -13.5123   10.2536   16.6617 N   0  3  0  0  0  0  0  0  0  0  0  0
  -13.3042    7.9114   17.6380 C   0  0  2  0  0  0  0  0  0  0  0  0
  -12.3254    6.9604   18.3693 C   0  0  2  0  0  0  0  0  0  0  0  0
  -12.9834    5.7467   18.6416 O   0  0  0  0  0  0  0  0  0  0  0  0
  -11.8858    7.5867   19.7197 C   0  0  1  0  0  0  0  0  0  0  0  0
  -10.9919    6.6978   20.3734 O   0  0  0  0  0  0  0  0  0  0  0  0
   -9.7484    6.4402   19.7817 C   0  0  2  0  0  0  0  0  0  0  0  0
   -9.5119    4.9195   19.8471 C   0  0  2  0  0  0  0  0  0  0  0  0
  -10.5274    4.2643   19.1176 O   0  0  0  0  0  0  0  0  0  0  0  0
   -9.5197    4.4630   21.3459 C   0  0  1  0  0  0  0  0  0  0  0  0
   -9.3270    2.9998   21.4946 N   0  3  0  0  0  0  0  0  0  0  0  0
  -10.6326    2.3098   21.6541 C   0  0  0  0  0  0  0  0  0  0  0  0
   -8.3975    5.2322   22.1243 C   0  0  2  0  0  0  0  0  0  0  0  0
   -7.1116    4.9389   21.5466 O   0  0  0  0  0  0  0  0  0  0  0  0
   -8.3455    4.8517   23.5242 C   0  0  0  0  0  0  0  0  0  0  0  0
   -8.6006    6.7715   21.9738 C   0  0  0  0  0  0  0  0  0  0  0  0
   -8.6949    7.1511   20.5261 O   0  0  0  0  0  0  0  0  0  0  0  0
  1  2  1  1  0  0  0
  1  3  1  0  0  0  0
  1 10  1  0  0  0  0
  3  4  1  1  0  0  0
  3  5  1  0  0  0  0
  5  6  1  6  0  0  0
  5  7  1  0  0  0  0
  7  8  1  1  0  0  0
  7  9  1  0  0  0  0
  9 10  1  6  0  0  0
  9 11  1  0  0  0  0
 11 12  1  1  0  0  0
 11 13  1  0  0  0  0
 14 15  1  1  0  0  0
 14 16  1  0  0  0  0
 14 22  1  0  0  0  0
 16 17  1  0  0  0  0
 17 18  1  1  0  0  0
 17 19  1  0  0  0  0
 19  2  1  6  0  0  0
 19 20  1  0  0  0  0
 20 21  1  1  0  0  0
 20 22  1  0  0  0  0
 22 23  1  6  0  0  0
 24 23  1  1  0  0  0
 24 25  1  0  0  0  0
 24 34  1  0  0  0  0
 25 26  1  6  0  0  0
 25 27  1  0  0  0  0
 27 28  1  6  0  0  0
 27 30  1  0  0  0  0
 28 29  1  0  0  0  0
 30 31  1  6  0  0  0
 30 32  1  0  0  0  0
 30 33  1  0  0  0  0
 33 34  1  0  0  0  0
M  CHG  4   4   1  15   1  18   1  28   1
M  END
>  <CHROM.1>
-172.86604601,17.26915810,-43.45486559,-175.36352262,-170.43366336,-50.58099895
174.00458192,-75.37810089,-179.44794025,173.98099561,-54.84695581,-134.85075034
172.61195716,22.90257740,67.20510408,-11.23398025,6.33312888,18.00644548
2.69556958,0.96273303,-2.40715469

>  <Name>
1mwl

>  <RI>
0

>  <Rbt.Current_Directory>
/home/itssahil/PROJECTS/Mol_Feturizer/New_Systems/rnas/1mwl

>  <Rbt.Executable>
rbdock ($Id: //depot/dev/client3/rdock/2013.1/src/exe/rbdock.cxx#4 $)

>  <Rbt.Library>
libRbt.so (2013.1, Build901 2013/11/27)

>  <Rbt.Parameter_File>
/export/apps/rDock/src/rDock_2013.1_src/data/scripts/dock_solv.prm

>  <Rbt.Receptor>
prm/pocket_docking_5.prm

>  <SCORE>
-56.2891

>  <SCORE.INTER>
-38.6551

>  <SCORE.INTER.CONST>
1

>  <SCORE.INTER.POLAR>
-6.3298

>  <SCORE.INTER.ROT>
6

>  <SCORE.INTER.SOLV>
25.3484

>  <SCORE.INTER.VDW>
-20.7202

>  <SCORE.INTER.norm>
-1.13692

>  <SCORE.INTRA>
-17.634

>  <SCORE.INTRA.DIHEDRAL>
-24.1638

>  <SCORE.INTRA.DIHEDRAL.0>
42.0816

>  <SCORE.INTRA.POLAR>
-1.49603

>  <SCORE.INTRA.POLAR.0>
-0.254682

>  <SCORE.INTRA.REPUL>
0

>  <SCORE.INTRA.REPUL.0>
0

>  <SCORE.INTRA.SOLV>
0.65844

>  <SCORE.INTRA.SOLV.lig_0>
-109.803

>  <SCORE.INTRA.VDW>
-0.794822

>  <SCORE.INTRA.VDW.0>
0.32176

>  <SCORE.INTRA.norm>
-0.518647

>  <SCORE.RESTR>
0

>  <SCORE.RESTR.CAVITY>
0

>  <SCORE.RESTR.norm>
0

>  <SCORE.SYSTEM>
0

>  <SCORE.SYSTEM.CONST>
0

>  <SCORE.SYSTEM.DIHEDRAL>
0

>  <SCORE.SYSTEM.SOLV>
0

>  <SCORE.SYSTEM.norm>
0

>  <SCORE.heavy>
34

>  <SCORE.norm>
-1.65556

>  <RMSD>
7.649

$$$$
1mwl
 OpenBabel11021811403D
libRbt.so/2013.1/901 2013/11/27
 34 36  0  0  0  0  0  0  0  0999 V2000
  -13.4062    7.5790   14.2280 C   0  0  2  0  0  0  0  0  0  0  0  0
  -14.0894    7.4567   15.4391 O   0  0  0  0  0  0  0  0  0  0  0  0
  -14.1108    6.6494   13.2002 C   0  0  2  0  0  0  0  0  0  0  0  0
  -15.5186    7.0320   13.0549 N   0  3  0  0  0  0  0  0  0  0  0  0
  -13.9662    5.1575   13.6208 C   0  0  1  0  0  0  0  0  0  0  0  0
  -14.5567    4.3381   12.7151 O   0  0  0  0  0  0  0  0  0  0  0  0
  -12.4443    4.8244   13.7630 C   0  0  2  0  0  0  0  0  0  0  0  0
  -12.2722    3.4430   14.1432 O   0  0  0  0  0  0  0  0  0  0  0  0
  -11.8263    5.7888   14.8317 C   0  0  2  0  0  0  0  0  0  0  0  0
  -12.0206    7.1981   14.4251 O   0  0  0  0  0  0  0  0  0  0  0  0
  -10.3236    5.6013   15.0697 C   0  0  2  0  0  0  0  0  0  0  0  0
   -9.8601    6.5858   15.9353 O   0  0  0  0  0  0  0  0  0  0  0  0
   -9.4770    5.7197   13.7893 C   0  0  0  0  0  0  0  0  0  0  0  0
  -11.0963    7.8247   18.4666 C   0  0  2  0  0  0  0  0  0  0  0  0
  -10.4372    8.1450   19.7583 N   0  3  0  0  0  0  0  0  0  0  0  0
  -11.6056    9.1222   17.7716 C   0  0  0  0  0  0  0  0  0  0  0  0
  -12.3174    8.7707   16.4151 C   0  0  2  0  0  0  0  0  0  0  0  0
  -12.7906   10.0459   15.7620 N   0  3  0  0  0  0  0  0  0  0  0  0
  -13.5049    7.7862   16.6927 C   0  0  2  0  0  0  0  0  0  0  0  0
  -12.9661    6.5050   17.3749 C   0  0  2  0  0  0  0  0  0  0  0  0
  -14.0447    5.6441   17.6498 O   0  0  0  0  0  0  0  0  0  0  0  0
  -12.2806    6.8675   18.7195 C   0  0  1  0  0  0  0  0  0  0  0  0
  -11.7970    5.6791   19.3279 O   0  0  0  0  0  0  0  0  0  0  0  0
  -12.7090    4.8397   19.9810 C   0  0  2  0  0  0  0  0  0  0  0  0
  -11.9856    4.2274   21.1953 C   0  0  2  0  0  0  0  0  0  0  0  0
  -11.5904    5.2652   22.0667 O   0  0  0  0  0  0  0  0  0  0  0  0
  -10.7420    3.4156   20.6958 C   0  0  1  0  0  0  0  0  0  0  0  0
   -9.9704    2.8157   21.8115 N   0  3  0  0  0  0  0  0  0  0  0  0
   -8.9080    3.7437   22.2765 C   0  0  0  0  0  0  0  0  0  0  0  0
  -11.2211    2.2931   19.7123 C   0  0  2  0  0  0  0  0  0  0  0  0
  -12.1272    1.4023   20.3897 O   0  0  0  0  0  0  0  0  0  0  0  0
  -10.1150    1.4961   19.2135 C   0  0  0  0  0  0  0  0  0  0  0  0
  -12.0286    2.9217   18.5350 C   0  0  0  0  0  0  0  0  0  0  0  0
  -13.1437    3.7767   19.0588 O   0  0  0  0  0  0  0  0  0  0  0  0
  1  2  1  1  0  0  0
  1  3  1  0  0  0  0
  1 10  1  0  0  0  0
  3  4  1  1  0  0  0
  3  5  1  0  0  0  0
  5  6  1  6  0  0  0
  5  7  1  0  0  0  0
  7  8  1  1  0  0  0
  7  9  1  0  0  0  0
  9 10  1  6  0  0  0
  9 11  1  0  0  0  0
 11 12  1  1  0  0  0
 11 13  1  0  0  0  0
 14 15  1  1  0  0  0
 14 16  1  0  0  0  0
 14 22  1  0  0  0  0
 16 17  1  0  0  0  0
 17 18  1  1  0  0  0
 17 19  1  0  0  0  0
 19  2  1  6  0  0  0
 19 20  1  0  0  0  0
 20 21  1  1  0  0  0
 20 22  1  0  0  0  0
 22 23  1  6  0  0  0
 24 23  1  6  0  0  0
 24 25  1  0  0  0  0
 24 34  1  0  0  0  0
 25 26  1  1  0  0  0
 25 27  1  0  0  0  0
 27 28  1  1  0  0  0
 27 30  1  0  0  0  0
 28 29  1  0  0  0  0
 30 31  1  1  0  0  0
 30 32  1  0  0  0  0
 30 33  1  0  0  0  0
 33 34  1  0  0  0  0
M  CHG  4   4   1  15   1  18   1  28   1
M  END
>  <CHROM.1>
158.46434367,21.84779841,144.36753932,-174.02194766,-58.80497390,174.36051786
179.77284617,69.02382527,-21.15866113,62.33618982,162.37145944,-145.10049003
-54.05358378,29.44077152,-72.72877544,-12.10246891,5.57689530,17.27395630
-2.72949520,1.23744397,-3.12811294

>  <Name>
1mwl

>  <RI>
0

>  <Rbt.Current_Directory>
/home/itssahil/PROJECTS/Mol_Feturizer/New_Systems/rnas/1mwl

>  <Rbt.Executable>
rbdock ($Id: //depot/dev/client3/rdock/2013.1/src/exe/rbdock.cxx#4 $)

>  <Rbt.Library>
libRbt.so (2013.1, Build901 2013/11/27)

>  <Rbt.Parameter_File>
/export/apps/rDock/src/rDock_2013.1_src/data/scripts/dock_solv.prm

>  <Rbt.Receptor>
prm/pocket_docking_5.prm

>  <SCORE>
-49.9929

>  <SCORE.INTER>
-41.965

>  <SCORE.INTER.CONST>
1

>  <SCORE.INTER.POLAR>
-7.55809

>  <SCORE.INTER.ROT>
6

>  <SCORE.INTER.SOLV>
27.6689

>  <SCORE.INTER.VDW>
-19.606

>  <SCORE.INTER.norm>
-1.23427

>  <SCORE.INTRA>
-8.02783

>  <SCORE.INTRA.DIHEDRAL>
-20.8252

>  <SCORE.INTRA.DIHEDRAL.0>
42.0816

>  <SCORE.INTRA.POLAR>
0.240798

>  <SCORE.INTRA.POLAR.0>
-0.254682

>  <SCORE.INTRA.REPUL>
0.015446

>  <SCORE.INTRA.REPUL.0>
0

>  <SCORE.INTRA.SOLV>
-0.20256

>  <SCORE.INTRA.SOLV.lig_0>
-109.803

>  <SCORE.INTRA.VDW>
1.59011

>  <SCORE.INTRA.VDW.0>
0.32176

>  <SCORE.INTRA.norm>
-0.236113

>  <SCORE.RESTR>
0

>  <SCORE.RESTR.CAVITY>
0

>  <SCORE.RESTR.norm>
0

>  <SCORE.SYSTEM>
0

>  <SCORE.SYSTEM.CONST>
0

>  <SCORE.SYSTEM.DIHEDRAL>
0

>  <SCORE.SYSTEM.SOLV>
0

>  <SCORE.SYSTEM.norm>
0

>  <SCORE.heavy>
34

>  <SCORE.norm>
-1.47038

>  <RMSD>
7.675

$$$$
1mwl
 OpenBabel11021811403D
libRbt.so/2013.1/901 2013/11/27
 34 36  0  0  0  0  0  0  0  0999 V2000
  -15.6277    7.9468   17.0585 C   0  0  2  0  0  0  0  0  0  0  0  0
  -15.8188    7.9784   18.4409 O   0  0  0  0  0  0  0  0  0  0  0  0
  -16.9127    7.3436   16.4246 C   0  0  2  0  0  0  0  0  0  0  0  0
  -18.0803    8.1563   16.7791 N   0  3  0  0  0  0  0  0  0  0  0  0
  -17.0963    5.8609   16.8622 C   0  0  1  0  0  0  0  0  0  0  0  0
  -18.2021    5.3197   16.2925 O   0  0  0  0  0  0  0  0  0  0  0  0
  -15.8143    5.0595   16.4598 C   0  0  2  0  0  0  0  0  0  0  0  0
  -15.9543    3.6752   16.8424 O   0  0  0  0  0  0  0  0  0  0  0  0
  -14.5793    5.7205   17.1610 C   0  0  2  0  0  0  0  0  0  0  0  0
  -14.4598    7.1398   16.7602 O   0  0  0  0  0  0  0  0  0  0  0  0
  -13.2337    5.0579   16.8448 C   0  0  2  0  0  0  0  0  0  0  0  0
  -13.0862    4.9309   15.4680 O   0  0  0  0  0  0  0  0  0  0  0  0
  -13.0932    3.6392   17.4260 C   0  0  0  0  0  0  0  0  0  0  0  0
  -12.3713   10.0777   19.8434 C   0  0  2  0  0  0  0  0  0  0  0  0
  -11.4632   10.8580   20.7219 N   0  3  0  0  0  0  0  0  0  0  0  0
  -13.6474   10.9020   19.4995 C   0  0  0  0  0  0  0  0  0  0  0  0
  -14.6098   10.0608   18.5850 C   0  0  2  0  0  0  0  0  0  0  0  0
  -15.8300   10.8874   18.2617 N   0  3  0  0  0  0  0  0  0  0  0  0
  -14.9895    8.7290   19.3188 C   0  0  2  0  0  0  0  0  0  0  0  0
  -13.7028    7.9296   19.6387 C   0  0  2  0  0  0  0  0  0  0  0  0
  -14.0534    6.7533   20.3270 O   0  0  0  0  0  0  0  0  0  0  0  0
  -12.7711    8.7674   20.5548 C   0  0  1  0  0  0  0  0  0  0  0  0
  -11.6003    8.0150   20.8369 O   0  0  0  0  0  0  0  0  0  0  0  0
  -10.5611    8.0121   19.8975 C   0  0  2  0  0  0  0  0  0  0  0  0
  -10.2751    6.5439   19.5294 C   0  0  2  0  0  0  0  0  0  0  0  0
  -11.4341    5.9799   18.9540 O   0  0  0  0  0  0  0  0  0  0  0  0
   -9.8583    5.7628   20.8220 C   0  0  1  0  0  0  0  0  0  0  0  0
   -9.5931    4.3276   20.5572 N   0  3  0  0  0  0  0  0  0  0  0  0
  -10.3624    3.4681   21.4928 C   0  0  0  0  0  0  0  0  0  0  0  0
   -8.5862    6.4362   21.4428 C   0  0  2  0  0  0  0  0  0  0  0  0
   -7.5014    6.3994   20.4967 O   0  0  0  0  0  0  0  0  0  0  0  0
   -8.1411    5.7565   22.6458 C   0  0  0  0  0  0  0  0  0  0  0  0
   -8.8639    7.9446   21.7272 C   0  0  0  0  0  0  0  0  0  0  0  0
   -9.3628    8.6304   20.4904 O   0  0  0  0  0  0  0  0  0  0  0  0
  1  2  1  1  0  0  0
  1  3  1  0  0  0  0
  1 10  1  0  0  0  0
  3  4  1  1  0  0  0
  3  5  1  0  0  0  0
  5  6  1  6  0  0  0
  5  7  1  0  0  0  0
  7  8  1  1  0  0  0
  7  9  1  0  0  0  0
  9 10  1  6  0  0  0
  9 11  1  0  0  0  0
 11 12  1  6  0  0  0
 11 13  1  0  0  0  0
 14 15  1  1  0  0  0
 14 16  1  0  0  0  0
 14 22  1  0  0  0  0
 16 17  1  0  0  0  0
 17 18  1  1  0  0  0
 17 19  1  0  0  0  0
 19  2  1  6  0  0  0
 19 20  1  0  0  0  0
 20 21  1  1  0  0  0
 20 22  1  0  0  0  0
 22 23  1  6  0  0  0
 24 23  1  1  0  0  0
 24 25  1  0  0  0  0
 24 34  1  0  0  0  0
 25 26  1  1  0  0  0
 25 27  1  0  0  0  0
 27 28  1  6  0  0  0
 27 30  1  0  0  0  0
 28 29  1  0  0  0  0
 30 31  1  6  0  0  0
 30 32  1  0  0  0  0
 30 33  1  0  0  0  0
 33 34  1  0  0  0  0
M  CHG  4   4   1  15   1  18   1  28   1
M  END
>  <CHROM.1>
-165.64799999,36.79132413,-169.03724656,62.49276878,61.41006271,50.97945013
-57.79430180,-164.61249558,-59.29469984,64.20462982,-37.62922350,-123.89108379
59.84874713,-8.23767753,-56.83063510,-13.00876870,7.03682545,18.93005880
2.98699954,0.50804608,-2.82473274

>  <Name>
1mwl

>  <RI>
0

>  <Rbt.Current_Directory>
/home/itssahil/PROJECTS/Mol_Feturizer/New_Systems/rnas/1mwl

>  <Rbt.Executable>
rbdock ($Id: //depot/dev/client3/rdock/2013.1/src/exe/rbdock.cxx#4 $)

>  <Rbt.Library>
libRbt.so (2013.1, Build901 2013/11/27)

>  <Rbt.Parameter_File>
/export/apps/rDock/src/rDock_2013.1_src/data/scripts/dock_solv.prm

>  <Rbt.Receptor>
prm/pocket_docking_5.prm

>  <SCORE>
-42.8827

>  <SCORE.INTER>
-28.0045

>  <SCORE.INTER.CONST>
1

>  <SCORE.INTER.POLAR>
-4.43044

>  <SCORE.INTER.ROT>
6

>  <SCORE.INTER.SOLV>
14.8506

>  <SCORE.INTER.VDW>
-16.4517

>  <SCORE.INTER.norm>
-0.823663

>  <SCORE.INTRA>
-14.8782

>  <SCORE.INTRA.DIHEDRAL>
-24.5707

>  <SCORE.INTRA.DIHEDRAL.0>
42.0816

>  <SCORE.INTRA.POLAR>
-0.698279

>  <SCORE.INTRA.POLAR.0>
-0.254682

>  <SCORE.INTRA.REPUL>
0

>  <SCORE.INTRA.REPUL.0>
0

>  <SCORE.INTRA.SOLV>
2.78314

>  <SCORE.INTRA.SOLV.lig_0>
-109.803

>  <SCORE.INTRA.VDW>
-1.61021

>  <SCORE.INTRA.VDW.0>
0.32176

>  <SCORE.INTRA.norm>
-0.437593

>  <SCORE.RESTR>
0

>  <SCORE.RESTR.CAVITY>
0

>  <SCORE.RESTR.norm>
0

>  <SCORE.SYSTEM>
0

>  <SCORE.SYSTEM.CONST>
0

>  <SCORE.SYSTEM.DIHEDRAL>
0

>  <SCORE.SYSTEM.SOLV>
0

>  <SCORE.SYSTEM.norm>
0

>  <SCORE.heavy>
34

>  <SCORE.norm>
-1.26126

>  <RMSD>
7.727

$$$$
1mwl
 OpenBabel11021811403D
libRbt.so/2013.1/901 2013/11/27
 34 36  0  0  0  0  0  0  0  0999 V2000
  -13.9224    8.9970   16.8437 C   0  0  2  0  0  0  0  0  0  0  0  0
  -14.5374    8.6469   18.0469 O   0  0  0  0  0  0  0  0  0  0  0  0
  -15.0444    9.1790   15.7831 C   0  0  2  0  0  0  0  0  0  0  0  0
  -15.9867   10.2150   16.2171 N   0  3  0  0  0  0  0  0  0  0  0  0
  -15.7682    7.8275   15.5128 C   0  0  1  0  0  0  0  0  0  0  0  0
  -16.7321    7.9730   14.5693 O   0  0  0  0  0  0  0  0  0  0  0  0
  -14.7040    6.7728   15.0628 C   0  0  2  0  0  0  0  0  0  0  0  0
  -15.3429    5.5073   14.7934 O   0  0  0  0  0  0  0  0  0  0  0  0
  -13.6329    6.6380   16.1979 C   0  0  2  0  0  0  0  0  0  0  0  0
  -12.9967    7.9476   16.4619 O   0  0  0  0  0  0  0  0  0  0  0  0
  -12.5003    5.6504   15.8948 C   0  0  2  0  0  0  0  0  0  0  0  0
  -13.0192    4.3662   15.7718 O   0  0  0  0  0  0  0  0  0  0  0  0
  -11.4316    5.5794   17.0008 C   0  0  0  0  0  0  0  0  0  0  0  0
  -11.2788    7.1688   20.3828 C   0  0  2  0  0  0  0  0  0  0  0  0
  -10.4742    6.7283   21.5507 N   0  3  0  0  0  0  0  0  0  0  0  0
  -11.6521    8.6757   20.5081 C   0  0  0  0  0  0  0  0  0  0  0  0
  -12.5187    9.1270   19.2771 C   0  0  2  0  0  0  0  0  0  0  0  0
  -12.8561   10.5905   19.4219 N   0  3  0  0  0  0  0  0  0  0  0  0
  -13.8082    8.2398   19.1977 C   0  0  2  0  0  0  0  0  0  0  0  0
  -13.4045    6.7510   19.0651 C   0  0  2  0  0  0  0  0  0  0  0  0
  -14.5691    5.9619   19.0291 O   0  0  0  0  0  0  0  0  0  0  0  0
  -12.5633    6.3173   20.2954 C   0  0  1  0  0  0  0  0  0  0  0  0
  -12.2069    4.9500   20.1540 O   0  0  0  0  0  0  0  0  0  0  0  0
  -12.7514    4.0181   21.0472 C   0  0  2  0  0  0  0  0  0  0  0  0
  -11.7149    2.8934   21.2301 C   0  0  2  0  0  0  0  0  0  0  0  0
  -10.5347    3.4402   21.7785 O   0  0  0  0  0  0  0  0  0  0  0  0
  -11.4277    2.2294   19.8403 C   0  0  1  0  0  0  0  0  0  0  0  0
  -10.4129    1.1509   19.9254 N   0  3  0  0  0  0  0  0  0  0  0  0
   -9.5992    1.0937   18.6842 C   0  0  0  0  0  0  0  0  0  0  0  0
  -12.7658    1.6600   19.2554 C   0  0  2  0  0  0  0  0  0  0  0  0
  -13.3095    0.6709   20.1495 O   0  0  0  0  0  0  0  0  0  0  0  0
  -12.5702    1.0236   17.9654 C   0  0  0  0  0  0  0  0  0  0  0  0
  -13.8334    2.7933   19.1600 C   0  0  0  0  0  0  0  0  0  0  0  0
  -13.9995    3.4731   20.4863 O   0  0  0  0  0  0  0  0  0  0  0  0
  1  2  1  1  0  0  0
  1  3  1  0  0  0  0
  1 10  1  0  0  0  0
  3  4  1  1  0  0  0
  3  5  1  0  0  0  0
  5  6  1  6  0  0  0
  5  7  1  0  0  0  0
  7  8  1  1  0  0  0
  7  9  1  0  0  0  0
  9 10  1  6  0  0  0
  9 11  1  0  0  0  0
 11 12  1  1  0  0  0
 11 13  1  0  0  0  0
 14 15  1  1  0  0  0
 14 16  1  0  0  0  0
 14 22  1  0  0  0  0
 16 17  1  0  0  0  0
 17 18  1  1  0  0  0
 17 19  1  0  0  0  0
 19  2  1  6  0  0  0
 19 20  1  0  0  0  0
 20 21  1  1  0  0  0
 20 22  1  0  0  0  0
 22 23  1  6  0  0  0
 24 23  1  6  0  0  0
 24 25  1  0  0  0  0
 24 34  1  0  0  0  0
 25 26  1  6  0  0  0
 25 27  1  0  0  0  0
 27 28  1  1  0  0  0
 27 30  1  0  0  0  0
 28 29  1  0  0  0  0
 30 31  1  1  0  0  0
 30 32  1  0  0  0  0
 30 33  1  0  0  0  0
 33 34  1  0  0  0  0
M  CHG  4   4   1  15   1  18   1  28   1
M  END
>  <CHROM.1>
171.96870384,38.74651272,-148.36983669,178.36184119,66.85343420,-63.60658812
51.50617934,52.04619766,92.95148297,56.45130786,126.84053359,-148.83164558
88.50676830,-26.73834108,176.79296187,-13.07476103,5.70143130,18.42351167
-2.38214938,1.00193481,-2.93337672

>  <Name>
1mwl

>  <RI>
0

>  <Rbt.Current_Directory>
/home/itssahil/PROJECTS/Mol_Feturizer/New_Systems/rnas/1mwl

>  <Rbt.Executable>
rbdock ($Id: //depot/dev/client3/rdock/2013.1/src/exe/rbdock.cxx#4 $)

>  <Rbt.Library>
libRbt.so (2013.1, Build901 2013/11/27)

>  <Rbt.Parameter_File>
/export/apps/rDock/src/rDock_2013.1_src/data/scripts/dock_solv.prm

>  <Rbt.Receptor>
prm/pocket_docking_6.prm

>  <SCORE>
-49.8106

>  <SCORE.INTER>
-33.9569

>  <SCORE.INTER.CONST>
1

>  <SCORE.INTER.POLAR>
-6.70906

>  <SCORE.INTER.ROT>
6

>  <SCORE.INTER.SOLV>
15.8644

>  <SCORE.INTER.VDW>
-13.1625

>  <SCORE.INTER.norm>
-0.998731

>  <SCORE.INTRA>
-15.8537

>  <SCORE.INTRA.DIHEDRAL>
-18.5818

>  <SCORE.INTRA.DIHEDRAL.0>
42.0816

>  <SCORE.INTRA.POLAR>
-1.29104

>  <SCORE.INTRA.POLAR.0>
-0.254682

>  <SCORE.INTRA.REPUL>
0

>  <SCORE.INTRA.REPUL.0>
0

>  <SCORE.INTRA.SOLV>
-0.366539

>  <SCORE.INTRA.SOLV.lig_0>
-109.803

>  <SCORE.INTRA.VDW>
-1.99007

>  <SCORE.INTRA.VDW.0>
0.32176

>  <SCORE.INTRA.norm>
-0.466286

>  <SCORE.RESTR>
0

>  <SCORE.RESTR.CAVITY>
0

>  <SCORE.RESTR.norm>
0

>  <SCORE.SYSTEM>
0

>  <SCORE.SYSTEM.CONST>
0

>  <SCORE.SYSTEM.DIHEDRAL>
0

>  <SCORE.SYSTEM.SOLV>
0

>  <SCORE.SYSTEM.norm>
0

>  <SCORE.heavy>
34

>  <SCORE.norm>
-1.46502

>  <RMSD>
7.743

$$$$
1mwl
 OpenBabel11021811403D
libRbt.so/2013.1/901 2013/11/27
 34 36  0  0  0  0  0  0  0  0999 V2000
  -10.7245    5.8385   13.9639 C   0  0  2  0  0  0  0  0  0  0  0  0
  -11.9996    6.3403   13.6980 O   0  0  0  0  0  0  0  0  0  0  0  0
  -10.0516    5.5292   12.5969 C   0  0  2  0  0  0  0  0  0  0  0  0
   -9.9823    6.7454   11.7812 N   0  3  0  0  0  0  0  0  0  0  0  0
  -10.8110    4.3893   11.8571 C   0  0  1  0  0  0  0  0  0  0  0  0
  -10.2145    4.0961   10.6745 O   0  0  0  0  0  0  0  0  0  0  0  0
  -10.8516    3.1315   12.7866 C   0  0  2  0  0  0  0  0  0  0  0  0
  -11.5414    2.0493   12.1269 O   0  0  0  0  0  0  0  0  0  0  0  0
  -11.5653    3.5290   14.1231 C   0  0  2  0  0  0  0  0  0  0  0  0
  -10.8458    4.6440   14.7778 O   0  0  0  0  0  0  0  0  0  0  0  0
  -11.6639    2.4006   15.1560 C   0  0  2  0  0  0  0  0  0  0  0  0
  -12.3143    2.8632   16.2945 O   0  0  0  0  0  0  0  0  0  0  0  0
  -10.2957    1.8731   15.6253 C   0  0  0  0  0  0  0  0  0  0  0  0
  -15.1543    7.7929   16.1875 C   0  0  2  0  0  0  0  0  0  0  0  0
  -16.2596    7.8248   17.1788 N   0  3  0  0  0  0  0  0  0  0  0  0
  -15.5282    6.8901   14.9746 C   0  0  0  0  0  0  0  0  0  0  0  0
  -14.3453    6.8483   13.9407 C   0  0  2  0  0  0  0  0  0  0  0  0
  -14.7400    5.9754   12.7750 N   0  3  0  0  0  0  0  0  0  0  0  0
  -13.0538    6.3167   14.6519 C   0  0  2  0  0  0  0  0  0  0  0  0
  -12.7037    7.2386   15.8455 C   0  0  2  0  0  0  0  0  0  0  0  0
  -11.5633    6.7325   16.4962 O   0  0  0  0  0  0  0  0  0  0  0  0
  -13.8749    7.2563   16.8640 C   0  0  1  0  0  0  0  0  0  0  0  0
  -13.5315    8.1046   17.9498 O   0  0  0  0  0  0  0  0  0  0  0  0
  -13.0477    9.3895   17.6713 C   0  0  2  0  0  0  0  0  0  0  0  0
  -11.8872    9.6673   18.6455 C   0  0  2  0  0  0  0  0  0  0  0  0
  -10.8650    8.7191   18.4255 O   0  0  0  0  0  0  0  0  0  0  0  0
  -12.4202    9.5806   20.1164 C   0  0  1  0  0  0  0  0  0  0  0  0
  -11.3530    9.8078   21.1211 N   0  3  0  0  0  0  0  0  0  0  0  0
  -10.7298    8.5224   21.5278 C   0  0  0  0  0  0  0  0  0  0  0  0
  -13.5694   10.6289   20.3102 C   0  0  2  0  0  0  0  0  0  0  0  0
  -13.0680   11.9563   20.0656 O   0  0  0  0  0  0  0  0  0  0  0  0
  -14.1075   10.6057   21.6582 C   0  0  0  0  0  0  0  0  0  0  0  0
  -14.6957   10.3891   19.2579 C   0  0  0  0  0  0  0  0  0  0  0  0
  -14.1257   10.3731   17.8710 O   0  0  0  0  0  0  0  0  0  0  0  0
  1  2  1  6  0  0  0
  1  3  1  0  0  0  0
  1 10  1  0  0  0  0
  3  4  1  6  0  0  0
  3  5  1  0  0  0  0
  5  6  1  6  0  0  0
  5  7  1  0  0  0  0
  7  8  1  6  0  0  0
  7  9  1  0  0  0  0
  9 10  1  1  0  0  0
  9 11  1  0  0  0  0
 11 12  1  1  0  0  0
 11 13  1  0  0  0  0
 14 15  1  1  0  0  0
 14 16  1  0  0  0  0
 14 22  1  0  0  0  0
 16 17  1  0  0  0  0
 17 18  1  6  0  0  0
 17 19  1  0  0  0  0
 19  2  1  6  0  0  0
 19 20  1  0  0  0  0
 20 21  1  1  0  0  0
 20 22  1  0  0  0  0
 22 23  1  1  0  0  0
 24 23  1  1  0  0  0
 24 25  1  0  0  0  0
 24 34  1  0  0  0  0
 25 26  1  1  0  0  0
 25 27  1  0  0  0  0
 27 28  1  1  0  0  0
 27 30  1  0  0  0  0
 28 29  1  0  0  0  0
 30 31  1  6  0  0  0
 30 32  1  0  0  0  0
 30 33  1  0  0  0  0
 33 34  1  0  0  0  0
M  CHG  4   4   1  15   1  18   1  28   1
M  END
>  <CHROM.1>
158.41316065,-175.11142050,-72.05257077,62.95999002,-59.11433003,-179.87394710
-50.54249993,63.38573125,64.45652547,177.37367028,-70.49012733,-138.77532467
149.75222647,28.24982711,65.87558705,-12.43766120,6.88063569,16.13637241
-1.32719708,-0.55394769,0.97951199

>  <Name>
1mwl

>  <RI>
0

>  <Rbt.Current_Directory>
/home/itssahil/PROJECTS/Mol_Feturizer/New_Systems/rnas/1mwl

>  <Rbt.Executable>
rbdock ($Id: //depot/dev/client3/rdock/2013.1/src/exe/rbdock.cxx#4 $)

>  <Rbt.Library>
libRbt.so (2013.1, Build901 2013/11/27)

>  <Rbt.Parameter_File>
/export/apps/rDock/src/rDock_2013.1_src/data/scripts/dock_solv.prm

>  <Rbt.Receptor>
prm/pocket_docking_8.prm

>  <SCORE>
-63.2057

>  <SCORE.INTER>
-43.6034

>  <SCORE.INTER.CONST>
1

>  <SCORE.INTER.POLAR>
-7.98985

>  <SCORE.INTER.ROT>
6

>  <SCORE.INTER.SOLV>
21.9988

>  <SCORE.INTER.VDW>
-17.369

>  <SCORE.INTER.norm>
-1.28245

>  <SCORE.INTRA>
-19.6024

>  <SCORE.INTRA.DIHEDRAL>
-26.9135

>  <SCORE.INTRA.DIHEDRAL.0>
42.0816

>  <SCORE.INTRA.POLAR>
-0.827695

>  <SCORE.INTRA.POLAR.0>
-0.254682

>  <SCORE.INTRA.REPUL>
0

>  <SCORE.INTRA.REPUL.0>
0

>  <SCORE.INTRA.SOLV>
-2.32084

>  <SCORE.INTRA.SOLV.lig_0>
-109.803

>  <SCORE.INTRA.VDW>
-2.17102

>  <SCORE.INTRA.VDW.0>
0.32176

>  <SCORE.INTRA.norm>
-0.57654

>  <SCORE.RESTR>
0

>  <SCORE.RESTR.CAVITY>
0

>  <SCORE.RESTR.norm>
0

>  <SCORE.SYSTEM>
0

>  <SCORE.SYSTEM.CONST>
0

>  <SCORE.SYSTEM.DIHEDRAL>
0

>  <SCORE.SYSTEM.SOLV>
0

>  <SCORE.SYSTEM.norm>
0

>  <SCORE.heavy>
34

>  <SCORE.norm>
-1.85899

>  <RMSD>
7.791

$$$$
1mwl
 OpenBabel11021811403D
libRbt.so/2013.1/901 2013/11/27
 34 36  0  0  0  0  0  0  0  0999 V2000
  -15.6990    9.1459   20.9469 C   0  0  2  0  0  0  0  0  0  0  0  0
  -14.8764    9.0154   22.0671 O   0  0  0  0  0  0  0  0  0  0  0  0
  -17.1597    9.2975   21.4571 C   0  0  2  0  0  0  0  0  0  0  0  0
  -17.2698   10.4673   22.3340 N   0  3  0  0  0  0  0  0  0  0  0  0
  -17.6265    7.9990   22.1780 C   0  0  1  0  0  0  0  0  0  0  0  0
  -18.9093    8.1143   22.6038 O   0  0  0  0  0  0  0  0  0  0  0  0
  -17.4747    6.7968   21.1885 C   0  0  2  0  0  0  0  0  0  0  0  0
  -17.9089    5.5751   21.8219 O   0  0  0  0  0  0  0  0  0  0  0  0
  -15.9738    6.7064   20.7491 C   0  0  2  0  0  0  0  0  0  0  0  0
  -15.5488    7.9711   20.1094 O   0  0  0  0  0  0  0  0  0  0  0  0
  -15.6654    5.5827   19.7530 C   0  0  2  0  0  0  0  0  0  0  0  0
  -16.1042    4.3677   20.2671 O   0  0  0  0  0  0  0  0  0  0  0  0
  -14.1631    5.4109   19.4632 C   0  0  0  0  0  0  0  0  0  0  0  0
  -11.0049    8.5189   20.3281 C   0  0  2  0  0  0  0  0  0  0  0  0
   -9.5286    8.4455   20.1849 N   0  3  0  0  0  0  0  0  0  0  0  0
  -11.4469    9.9525   20.7468 C   0  0  0  0  0  0  0  0  0  0  0  0
  -13.0084   10.0148   20.9135 C   0  0  2  0  0  0  0  0  0  0  0  0
  -13.4064   11.4154   21.3096 N   0  3  0  0  0  0  0  0  0  0  0  0
  -13.4582    8.9603   21.9821 C   0  0  2  0  0  0  0  0  0  0  0  0
  -13.0126    7.5469   21.5337 C   0  0  2  0  0  0  0  0  0  0  0  0
  -13.3916    6.6137   22.5164 O   0  0  0  0  0  0  0  0  0  0  0  0
  -11.4680    7.4980   21.3892 C   0  0  1  0  0  0  0  0  0  0  0  0
  -11.0821    6.1940   20.9802 O   0  0  0  0  0  0  0  0  0  0  0  0
  -10.1740    5.4822   21.7747 C   0  0  2  0  0  0  0  0  0  0  0  0
   -9.3279    4.6031   20.8344 C   0  0  2  0  0  0  0  0  0  0  0  0
   -8.6218    5.4348   19.9387 O   0  0  0  0  0  0  0  0  0  0  0  0
  -10.2736    3.6244   20.0580 C   0  0  1  0  0  0  0  0  0  0  0  0
   -9.5363    2.7592   19.1051 N   0  3  0  0  0  0  0  0  0  0  0  0
   -9.3465    3.4502   17.8042 C   0  0  0  0  0  0  0  0  0  0  0  0
  -11.0568    2.7397   21.0881 C   0  0  2  0  0  0  0  0  0  0  0  0
  -10.1299    1.9738   21.8804 O   0  0  0  0  0  0  0  0  0  0  0  0
  -11.9514    1.8026   20.4333 C   0  0  0  0  0  0  0  0  0  0  0  0
  -11.8373    3.6471   22.0884 C   0  0  0  0  0  0  0  0  0  0  0  0
  -10.9139    4.6396   22.7297 O   0  0  0  0  0  0  0  0  0  0  0  0
  1  2  1  1  0  0  0
  1  3  1  0  0  0  0
  1 10  1  0  0  0  0
  3  4  1  1  0  0  0
  3  5  1  0  0  0  0
  5  6  1  6  0  0  0
  5  7  1  0  0  0  0
  7  8  1  1  0  0  0
  7  9  1  0  0  0  0
  9 10  1  6  0  0  0
  9 11  1  0  0  0  0
 11 12  1  1  0  0  0
 11 13  1  0  0  0  0
 14 15  1  1  0  0  0
 14 16  1  0  0  0  0
 14 22  1  0  0  0  0
 16 17  1  0  0  0  0
 17 18  1  1  0  0  0
 17 19  1  0  0  0  0
 19  2  1  6  0  0  0
 19 20  1  0  0  0  0
 20 21  1  1  0  0  0
 20 22  1  0  0  0  0
 22 23  1  6  0  0  0
 24 23  1  6  0  0  0
 24 25  1  0  0  0  0
 24 34  1  0  0  0  0
 25 26  1  6  0  0  0
 25 27  1  0  0  0  0
 27 28  1  6  0  0  0
 27 30  1  0  0  0  0
 28 29  1  0  0  0  0
 30 31  1  1  0  0  0
 30 32  1  0  0  0  0
 30 33  1  0  0  0  0
 33 34  1  0  0  0  0
M  CHG  4   4   1  15   1  18   1  28   1
M  END
>  <CHROM.1>
-174.97840506,40.96285399,-61.92898167,59.82086503,62.52832693,-54.54980799
174.33793177,-82.74785647,-62.77938358,56.73172016,116.83397831,-147.40265729
165.88908570,34.61220514,-65.57172712,-13.19757784,6.51105740,21.02288722
-2.51671053,-0.12734041,-3.06007345

>  <Name>
1mwl

>  <RI>
0

>  <Rbt.Current_Directory>
/home/itssahil/PROJECTS/Mol_Feturizer/New_Systems/rnas/1mwl

>  <Rbt.Executable>
rbdock ($Id: //depot/dev/client3/rdock/2013.1/src/exe/rbdock.cxx#4 $)

>  <Rbt.Library>
libRbt.so (2013.1, Build901 2013/11/27)

>  <Rbt.Parameter_File>
/export/apps/rDock/src/rDock_2013.1_src/data/scripts/dock_solv.prm

>  <Rbt.Receptor>
prm/pocket_docking_8.prm

>  <SCORE>
-41.5431

>  <SCORE.INTER>
-23.0911

>  <SCORE.INTER.CONST>
1

>  <SCORE.INTER.POLAR>
-4.02446

>  <SCORE.INTER.ROT>
6

>  <SCORE.INTER.SOLV>
14.8975

>  <SCORE.INTER.VDW>
-14.5451

>  <SCORE.INTER.norm>
-0.679151

>  <SCORE.INTRA>
-18.4519

>  <SCORE.INTRA.DIHEDRAL>
-25.0635

>  <SCORE.INTRA.DIHEDRAL.0>
42.0816

>  <SCORE.INTRA.POLAR>
-0.913897

>  <SCORE.INTRA.POLAR.0>
-0.254682

>  <SCORE.INTRA.REPUL>
0.00122502

>  <SCORE.INTRA.REPUL.0>
0

>  <SCORE.INTRA.SOLV>
1.02541

>  <SCORE.INTRA.SOLV.lig_0>
-109.803

>  <SCORE.INTRA.VDW>
-3.33176

>  <SCORE.INTRA.VDW.0>
0.32176

>  <SCORE.INTRA.norm>
-0.542704

>  <SCORE.RESTR>
0

>  <SCORE.RESTR.CAVITY>
0

>  <SCORE.RESTR.norm>
0

>  <SCORE.SYSTEM>
0

>  <SCORE.SYSTEM.CONST>
0

>  <SCORE.SYSTEM.DIHEDRAL>
0

>  <SCORE.SYSTEM.SOLV>
0

>  <SCORE.SYSTEM.norm>
0

>  <SCORE.heavy>
34

>  <SCORE.norm>
-1.22185

>  <RMSD>
7.823

$$$$
1mwl
 OpenBabel11021811403D
libRbt.so/2013.1/901 2013/11/27
 34 36  0  0  0  0  0  0  0  0999 V2000
  -11.8083    1.4549   16.0727 C   0  0  2  0  0  0  0  0  0  0  0  0
  -10.5032    1.8873   16.3147 O   0  0  0  0  0  0  0  0  0  0  0  0
  -11.9529    1.2474   14.5387 C   0  0  2  0  0  0  0  0  0  0  0  0
  -10.9733    0.2636   14.0674 N   0  3  0  0  0  0  0  0  0  0  0  0
  -11.8076    2.6021   13.7857 C   0  0  1  0  0  0  0  0  0  0  0  0
  -11.9581    2.4329   12.4482 O   0  0  0  0  0  0  0  0  0  0  0  0
  -12.8752    3.6002   14.3438 C   0  0  2  0  0  0  0  0  0  0  0  0
  -12.7756    4.8668   13.6596 O   0  0  0  0  0  0  0  0  0  0  0  0
  -12.6378    3.7662   15.8833 C   0  0  2  0  0  0  0  0  0  0  0  0
  -12.7372    2.4555   16.5626 O   0  0  0  0  0  0  0  0  0  0  0  0
  -13.6267    4.7034   16.5857 C   0  0  2  0  0  0  0  0  0  0  0  0
  -13.2895    4.8178   17.9298 O   0  0  0  0  0  0  0  0  0  0  0  0
  -15.0827    4.2045   16.5474 C   0  0  0  0  0  0  0  0  0  0  0  0
  -10.5986    2.8605   20.4744 C   0  0  2  0  0  0  0  0  0  0  0  0
  -10.1473    3.1880   21.8508 N   0  3  0  0  0  0  0  0  0  0  0  0
  -10.1168    1.4383   20.0607 C   0  0  0  0  0  0  0  0  0  0  0  0
  -10.5836    1.1089   18.5965 C   0  0  2  0  0  0  0  0  0  0  0  0
  -10.1110   -0.2759   18.2283 N   0  3  0  0  0  0  0  0  0  0  0  0
  -10.0196    2.1938   17.6162 C   0  0  2  0  0  0  0  0  0  0  0  0
  -10.5224    3.5930   18.0481 C   0  0  2  0  0  0  0  0  0  0  0  0
   -9.9825    4.5615   17.1818 O   0  0  0  0  0  0  0  0  0  0  0  0
  -10.0399    3.9091   19.4891 C   0  0  1  0  0  0  0  0  0  0  0  0
  -10.5098    5.1960   19.8630 O   0  0  0  0  0  0  0  0  0  0  0  0
   -9.6910    6.3066   19.6203 C   0  0  2  0  0  0  0  0  0  0  0  0
   -9.9791    7.3427   20.7232 C   0  0  2  0  0  0  0  0  0  0  0  0
   -9.6553    6.7815   21.9774 O   0  0  0  0  0  0  0  0  0  0  0  0
  -11.4924    7.7446   20.6668 C   0  0  1  0  0  0  0  0  0  0  0  0
  -11.8598    8.7216   21.7206 N   0  3  0  0  0  0  0  0  0  0  0  0
  -13.2757    8.5444   22.1331 C   0  0  0  0  0  0  0  0  0  0  0  0
  -11.8154    8.3371   19.2519 C   0  0  2  0  0  0  0  0  0  0  0  0
  -11.0062    9.5039   19.0131 O   0  0  0  0  0  0  0  0  0  0  0  0
  -13.2058    8.7367   19.1321 C   0  0  0  0  0  0  0  0  0  0  0  0
  -11.4346    7.3096   18.1418 C   0  0  0  0  0  0  0  0  0  0  0  0
  -10.0093    6.8703   18.2973 O   0  0  0  0  0  0  0  0  0  0  0  0
  1  2  1  6  0  0  0
  1  3  1  0  0  0  0
  1 10  1  0  0  0  0
  3  4  1  6  0  0  0
  3  5  1  0  0  0  0
  5  6  1  6  0  0  0
  5  7  1  0  0  0  0
  7  8  1  6  0  0  0
  7  9  1  0  0  0  0
  9 10  1  1  0  0  0
  9 11  1  0  0  0  0
 11 12  1  1  0  0  0
 11 13  1  0  0  0  0
 14 15  1  1  0  0  0
 14 16  1  0  0  0  0
 14 22  1  0  0  0  0
 16 17  1  0  0  0  0
 17 18  1  6  0  0  0
 17 19  1  0  0  0  0
 19  2  1  6  0  0  0
 19 20  1  0  0  0  0
 20 21  1  6  0  0  0
 20 22  1  0  0  0  0
 22 23  1  1  0  0  0
 24 23  1  1  0  0  0
 24 25  1  0  0  0  0
 24 34  1  0  0  0  0
 25 26  1  1  0  0  0
 25 27  1  0  0  0  0
 27 28  1  1  0  0  0
 27 30  1  0  0  0  0
 28 29  1  0  0  0  0
 30 31  1  6  0  0  0
 30 32  1  0  0  0  0
 30 33  1  0  0  0  0
 33 34  1  0  0  0  0
M  CHG  4   4   1  15   1  18   1  28   1
M  END
>  <CHROM.1>
179.18158428,40.80725787,-59.80487579,178.54439007,178.75041182,-177.58027300
175.48701219,-60.10006339,172.80261606,54.82950629,148.04978918,-148.80349236
60.16377624,-29.50679365,-59.43950181,-11.40632809,4.48950136,17.96032462
-1.68142892,-1.05811477,0.66364970

>  <Name>
1mwl

>  <RI>
0

>  <Rbt.Current_Directory>
/home/itssahil/PROJECTS/Mol_Feturizer/New_Systems/rnas/1mwl

>  <Rbt.Executable>
rbdock ($Id: //depot/dev/client3/rdock/2013.1/src/exe/rbdock.cxx#4 $)

>  <Rbt.Library>
libRbt.so (2013.1, Build901 2013/11/27)

>  <Rbt.Parameter_File>
/export/apps/rDock/src/rDock_2013.1_src/data/scripts/dock_solv.prm

>  <Rbt.Receptor>
prm/pocket_docking_8.prm

>  <SCORE>
-36.7812

>  <SCORE.INTER>
-20.4934

>  <SCORE.INTER.CONST>
1

>  <SCORE.INTER.POLAR>
-3.81082

>  <SCORE.INTER.ROT>
6

>  <SCORE.INTER.SOLV>
18.3935

>  <SCORE.INTER.VDW>
-14.6907

>  <SCORE.INTER.norm>
-0.602747

>  <SCORE.INTRA>
-16.2878

>  <SCORE.INTRA.DIHEDRAL>
-30.2716

>  <SCORE.INTRA.DIHEDRAL.0>
42.0816

>  <SCORE.INTRA.POLAR>
0.243495

>  <SCORE.INTRA.POLAR.0>
-0.254682

>  <SCORE.INTRA.REPUL>
0

>  <SCORE.INTRA.REPUL.0>
0

>  <SCORE.INTRA.SOLV>
-0.270492

>  <SCORE.INTRA.SOLV.lig_0>
-109.803

>  <SCORE.INTRA.VDW>
-1.84465

>  <SCORE.INTRA.VDW.0>
0.32176

>  <SCORE.INTRA.norm>
-0.479054

>  <SCORE.RESTR>
0

>  <SCORE.RESTR.CAVITY>
0

>  <SCORE.RESTR.norm>
0

>  <SCORE.SYSTEM>
0

>  <SCORE.SYSTEM.CONST>
0

>  <SCORE.SYSTEM.DIHEDRAL>
0

>  <SCORE.SYSTEM.SOLV>
0

>  <SCORE.SYSTEM.norm>
0

>  <SCORE.heavy>
34

>  <SCORE.norm>
-1.0818

>  <RMSD>
7.843

$$$$
1mwl
 OpenBabel11021811403D
libRbt.so/2013.1/901 2013/11/27
 34 36  0  0  0  0  0  0  0  0999 V2000
  -16.3746    8.5422   18.5679 C   0  0  2  0  0  0  0  0  0  0  0  0
  -15.4205    9.4463   19.0380 O   0  0  0  0  0  0  0  0  0  0  0  0
  -17.2972    9.3107   17.5804 C   0  0  2  0  0  0  0  0  0  0  0  0
  -16.5062    9.8664   16.4783 N   0  3  0  0  0  0  0  0  0  0  0  0
  -18.0948   10.4206   18.3258 C   0  0  1  0  0  0  0  0  0  0  0  0
  -18.9214   11.0790   17.4752 O   0  0  0  0  0  0  0  0  0  0  0  0
  -18.9056    9.7575   19.4878 C   0  0  2  0  0  0  0  0  0  0  0  0
  -19.6665   10.7585   20.1958 O   0  0  0  0  0  0  0  0  0  0  0  0
  -17.8968    9.0314   20.4412 C   0  0  2  0  0  0  0  0  0  0  0  0
  -17.1233    8.0157   19.6931 O   0  0  0  0  0  0  0  0  0  0  0  0
  -18.5449    8.3075   21.6268 C   0  0  2  0  0  0  0  0  0  0  0  0
  -17.5613    7.6982   22.3980 O   0  0  0  0  0  0  0  0  0  0  0  0
  -19.5191    7.1907   21.2097 C   0  0  0  0  0  0  0  0  0  0  0  0
  -11.5205    9.0875   20.7469 C   0  0  2  0  0  0  0  0  0  0  0  0
  -10.4258    8.7337   21.6861 N   0  3  0  0  0  0  0  0  0  0  0  0
  -12.5364   10.0544   21.4245 C   0  0  0  0  0  0  0  0  0  0  0  0
  -13.7000   10.4077   20.4289 C   0  0  2  0  0  0  0  0  0  0  0  0
  -14.6612   11.3512   21.1091 N   0  3  0  0  0  0  0  0  0  0  0  0
  -14.4097    9.0874   19.9714 C   0  0  2  0  0  0  0  0  0  0  0  0
  -13.3773    8.1526   19.2952 C   0  0  2  0  0  0  0  0  0  0  0  0
  -14.0182    6.9575   18.9197 O   0  0  0  0  0  0  0  0  0  0  0  0
  -12.2441    7.8008   20.2959 C   0  0  1  0  0  0  0  0  0  0  0  0
  -11.3115    6.9420   19.6562 O   0  0  0  0  0  0  0  0  0  0  0  0
  -10.2467    7.5148   18.9486 C   0  0  2  0  0  0  0  0  0  0  0  0
  -10.3568    7.0429   17.4864 C   0  0  2  0  0  0  0  0  0  0  0  0
  -11.5805    7.4958   16.9478 O   0  0  0  0  0  0  0  0  0  0  0  0
  -10.2747    5.4788   17.4445 C   0  0  1  0  0  0  0  0  0  0  0  0
  -10.4033    4.9403   16.0684 N   0  3  0  0  0  0  0  0  0  0  0  0
  -11.8293    4.8779   15.6580 C   0  0  0  0  0  0  0  0  0  0  0  0
   -8.9157    5.0175   18.0748 C   0  0  2  0  0  0  0  0  0  0  0  0
   -7.8163    5.5697   17.3265 O   0  0  0  0  0  0  0  0  0  0  0  0
   -8.7713    3.5731   18.0633 C   0  0  0  0  0  0  0  0  0  0  0  0
   -8.7801    5.5782   19.5240 C   0  0  0  0  0  0  0  0  0  0  0  0
   -8.9716    7.0655   19.5332 O   0  0  0  0  0  0  0  0  0  0  0  0
  1  2  1  1  0  0  0
  1  3  1  0  0  0  0
  1 10  1  0  0  0  0
  3  4  1  6  0  0  0
  3  5  1  0  0  0  0
  5  6  1  6  0  0  0
  5  7  1  0  0  0  0
  7  8  1  1  0  0  0
  7  9  1  0  0  0  0
  9 10  1  6  0  0  0
  9 11  1  0  0  0  0
 11 12  1  1  0  0  0
 11 13  1  0  0  0  0
 14 15  1  1  0  0  0
 14 16  1  0  0  0  0
 14 22  1  0  0  0  0
 16 17  1  0  0  0  0
 17 18  1  1  0  0  0
 17 19  1  0  0  0  0
 19  2  1  6  0  0  0
 19 20  1  0  0  0  0
 20 21  1  1  0  0  0
 20 22  1  0  0  0  0
 22 23  1  6  0  0  0
 24 23  1  1  0  0  0
 24 25  1  0  0  0  0
 24 34  1  0  0  0  0
 25 26  1  1  0  0  0
 25 27  1  0  0  0  0
 27 28  1  6  0  0  0
 27 30  1  0  0  0  0
 28 29  1  0  0  0  0
 30 31  1  6  0  0  0
 30 32  1  0  0  0  0
 30 33  1  0  0  0  0
 33 34  1  0  0  0  0
M  CHG  4   4   1  15   1  18   1  28   1
M  END
>  <CHROM.1>
179.69790251,-170.65546168,-49.41858864,-178.91733857,161.94522388,179.77373817
59.59611903,172.61552097,57.74550981,-56.87283240,-31.52399654,-120.28016340
61.42344947,39.10865463,-57.45788745,-13.78043422,8.01770619,19.14076218
2.80602173,-0.28865708,1.09614694

>  <Name>
1mwl

>  <RI>
0

>  <Rbt.Current_Directory>
/home/itssahil/PROJECTS/Mol_Feturizer/New_Systems/rnas/1mwl

>  <Rbt.Executable>
rbdock ($Id: //depot/dev/client3/rdock/2013.1/src/exe/rbdock.cxx#4 $)

>  <Rbt.Library>
libRbt.so (2013.1, Build901 2013/11/27)

>  <Rbt.Parameter_File>
/export/apps/rDock/src/rDock_2013.1_src/data/scripts/dock_solv.prm

>  <Rbt.Receptor>
prm/pocket_docking_8.prm

>  <SCORE>
-41.0159

>  <SCORE.INTER>
-23.0146

>  <SCORE.INTER.CONST>
1

>  <SCORE.INTER.POLAR>
-4.15066

>  <SCORE.INTER.ROT>
6

>  <SCORE.INTER.SOLV>
14.0879

>  <SCORE.INTER.VDW>
-13.8035

>  <SCORE.INTER.norm>
-0.6769

>  <SCORE.INTRA>
-18.0013

>  <SCORE.INTRA.DIHEDRAL>
-28.0515

>  <SCORE.INTRA.DIHEDRAL.0>
42.0816

>  <SCORE.INTRA.POLAR>
-0.595003

>  <SCORE.INTRA.POLAR.0>
-0.254682

>  <SCORE.INTRA.REPUL>
0

>  <SCORE.INTRA.REPUL.0>
0

>  <SCORE.INTRA.SOLV>
-1.67348

>  <SCORE.INTRA.SOLV.lig_0>
-109.803

>  <SCORE.INTRA.VDW>
-1.11578

>  <SCORE.INTRA.VDW.0>
0.32176

>  <SCORE.INTRA.norm>
-0.529449

>  <SCORE.RESTR>
0

>  <SCORE.RESTR.CAVITY>
0

>  <SCORE.RESTR.norm>
0

>  <SCORE.SYSTEM>
0

>  <SCORE.SYSTEM.CONST>
0

>  <SCORE.SYSTEM.DIHEDRAL>
0

>  <SCORE.SYSTEM.SOLV>
0

>  <SCORE.SYSTEM.norm>
0

>  <SCORE.heavy>
34

>  <SCORE.norm>
-1.20635

>  <RMSD>
7.889

$$$$
1mwl
 OpenBabel11021811403D
libRbt.so/2013.1/901 2013/11/27
 34 36  0  0  0  0  0  0  0  0999 V2000
  -15.0768    8.9737   17.2688 C   0  0  2  0  0  0  0  0  0  0  0  0
  -14.2205    8.9286   16.1673 O   0  0  0  0  0  0  0  0  0  0  0  0
  -16.1506   10.0600   16.9794 C   0  0  2  0  0  0  0  0  0  0  0  0
  -16.8832    9.7321   15.7524 N   0  3  0  0  0  0  0  0  0  0  0  0
  -15.4956   11.4696   16.8925 C   0  0  1  0  0  0  0  0  0  0  0  0
  -16.4301   12.4263   16.6655 O   0  0  0  0  0  0  0  0  0  0  0  0
  -14.7289   11.7466   18.2278 C   0  0  2  0  0  0  0  0  0  0  0  0
  -14.1159   13.0522   18.1861 O   0  0  0  0  0  0  0  0  0  0  0  0
  -13.6563   10.6216   18.4230 C   0  0  2  0  0  0  0  0  0  0  0  0
  -14.3059    9.2926   18.4554 O   0  0  0  0  0  0  0  0  0  0  0  0
  -12.8309   10.7408   19.7092 C   0  0  2  0  0  0  0  0  0  0  0  0
  -12.4240   12.0588   19.8841 O   0  0  0  0  0  0  0  0  0  0  0  0
  -11.5472    9.8910   19.6991 C   0  0  0  0  0  0  0  0  0  0  0  0
  -13.2948    4.7655   15.9011 C   0  0  2  0  0  0  0  0  0  0  0  0
  -12.6326    3.4965   15.5052 N   0  3  0  0  0  0  0  0  0  0  0  0
  -13.9428    5.4573   14.6653 C   0  0  0  0  0  0  0  0  0  0  0  0
  -14.6247    6.8077   15.0915 C   0  0  2  0  0  0  0  0  0  0  0  0
  -15.2504    7.4487   13.8773 N   0  3  0  0  0  0  0  0  0  0  0  0
  -13.5549    7.7420   15.7540 C   0  0  2  0  0  0  0  0  0  0  0  0
  -12.9364    7.0308   16.9823 C   0  0  2  0  0  0  0  0  0  0  0  0
  -11.9542    7.8647   17.5481 O   0  0  0  0  0  0  0  0  0  0  0  0
  -12.2540    5.7080   16.5421 C   0  0  1  0  0  0  0  0  0  0  0  0
  -11.6923    5.0749   17.6823 O   0  0  0  0  0  0  0  0  0  0  0  0
  -10.3589    4.6489   17.6255 C   0  0  2  0  0  0  0  0  0  0  0  0
  -10.0537    3.9094   18.9419 C   0  0  2  0  0  0  0  0  0  0  0  0
  -10.9043    2.7879   19.0474 O   0  0  0  0  0  0  0  0  0  0  0  0
  -10.2732    4.8901   20.1439 C   0  0  1  0  0  0  0  0  0  0  0  0
  -10.0275    4.2436   21.4561 N   0  3  0  0  0  0  0  0  0  0  0  0
  -11.1978    4.4135   22.3547 C   0  0  0  0  0  0  0  0  0  0  0  0
   -9.3312    6.1315   19.9744 C   0  0  2  0  0  0  0  0  0  0  0  0
   -7.9563    5.7042   19.9568 O   0  0  0  0  0  0  0  0  0  0  0  0
   -9.4803    7.0820   21.0613 C   0  0  0  0  0  0  0  0  0  0  0  0
   -9.5911    6.8165   18.5973 C   0  0  0  0  0  0  0  0  0  0  0  0
   -9.4761    5.8193   17.4832 O   0  0  0  0  0  0  0  0  0  0  0  0
  1  2  1  6  0  0  0
  1  3  1  0  0  0  0
  1 10  1  0  0  0  0
  3  4  1  6  0  0  0
  3  5  1  0  0  0  0
  5  6  1  1  0  0  0
  5  7  1  0  0  0  0
  7  8  1  6  0  0  0
  7  9  1  0  0  0  0
  9 10  1  1  0  0  0
  9 11  1  0  0  0  0
 11 12  1  6  0  0  0
 11 13  1  0  0  0  0
 14 15  1  6  0  0  0
 14 16  1  0  0  0  0
 14 22  1  0  0  0  0
 16 17  1  0  0  0  0
 17 18  1  6  0  0  0
 17 19  1  0  0  0  0
 19  2  1  1  0  0  0
 19 20  1  0  0  0  0
 20 21  1  6  0  0  0
 20 22  1  0  0  0  0
 22 23  1  1  0  0  0
 24 23  1  1  0  0  0
 24 25  1  0  0  0  0
 24 34  1  0  0  0  0
 25 26  1  1  0  0  0
 25 27  1  0  0  0  0
 27 28  1  1  0  0  0
 27 30  1  0  0  0  0
 28 29  1  0  0  0  0
 30 31  1  1  0  0  0
 30 32  1  0  0  0  0
 30 33  1  0  0  0  0
 33 34  1  0  0  0  0
M  CHG  4   4   1  15   1  18   1  28   1
M  END
>  <CHROM.1>
-149.42964382,73.34501802,40.34985943,-80.36179293,-169.52806782,-44.98246475
177.04368504,64.68195648,76.53342447,-55.49351670,109.88780871,-175.70411671
176.11526271,-6.22312982,53.23736119,-12.60408926,7.56782572,17.89591703
2.61813964,-0.79256913,0.52116042

>  <Name>
1mwl

>  <RI>
0

>  <Rbt.Current_Directory>
/home/itssahil/PROJECTS/Mol_Feturizer/New_Systems/rnas/1mwl

>  <Rbt.Executable>
rbdock ($Id: //depot/dev/client3/rdock/2013.1/src/exe/rbdock.cxx#4 $)

>  <Rbt.Library>
libRbt.so (2013.1, Build901 2013/11/27)

>  <Rbt.Parameter_File>
/export/apps/rDock/src/rDock_2013.1_src/data/scripts/dock_solv.prm

>  <Rbt.Receptor>
prm/pocket_docking_3.prm

>  <SCORE>
-38.568

>  <SCORE.INTER>
-25.2107

>  <SCORE.INTER.CONST>
1

>  <SCORE.INTER.POLAR>
-4.00204

>  <SCORE.INTER.ROT>
6

>  <SCORE.INTER.SOLV>
19.3307

>  <SCORE.INTER.VDW>
-17.5106

>  <SCORE.INTER.norm>
-0.741491

>  <SCORE.INTRA>
-14.5199

>  <SCORE.INTRA.DIHEDRAL>
-22.0287

>  <SCORE.INTRA.DIHEDRAL.0>
42.0816

>  <SCORE.INTRA.POLAR>
-0.442896

>  <SCORE.INTRA.POLAR.0>
-0.254682

>  <SCORE.INTRA.REPUL>
0

>  <SCORE.INTRA.REPUL.0>
0

>  <SCORE.INTRA.SOLV>
2.75191

>  <SCORE.INTRA.SOLV.lig_0>
-109.803

>  <SCORE.INTRA.VDW>
-3.37565

>  <SCORE.INTRA.VDW.0>
0.32176

>  <SCORE.INTRA.norm>
-0.427056

>  <SCORE.RESTR>
1.16259

>  <SCORE.RESTR.CAVITY>
1.16259

>  <SCORE.RESTR.norm>
0.0341938

>  <SCORE.SYSTEM>
0

>  <SCORE.SYSTEM.CONST>
0

>  <SCORE.SYSTEM.DIHEDRAL>
0

>  <SCORE.SYSTEM.SOLV>
0

>  <SCORE.SYSTEM.norm>
0

>  <SCORE.heavy>
34

>  <SCORE.norm>
-1.13435

>  <RMSD>
7.916

$$$$
1mwl
 OpenBabel11021811403D
libRbt.so/2013.1/901 2013/11/27
 34 36  0  0  0  0  0  0  0  0999 V2000
  -15.1185    7.2287   13.9535 C   0  0  2  0  0  0  0  0  0  0  0  0
  -15.3824    6.3546   15.0094 O   0  0  0  0  0  0  0  0  0  0  0  0
  -14.1269    6.5131   12.9935 C   0  0  2  0  0  0  0  0  0  0  0  0
  -14.7097    5.2581   12.5089 N   0  3  0  0  0  0  0  0  0  0  0  0
  -12.7594    6.2720   13.6973 C   0  0  1  0  0  0  0  0  0  0  0  0
  -11.8802    5.6706   12.8573 O   0  0  0  0  0  0  0  0  0  0  0  0
  -12.2036    7.6480   14.1924 C   0  0  2  0  0  0  0  0  0  0  0  0
  -10.9288    7.4631   14.8426 O   0  0  0  0  0  0  0  0  0  0  0  0
  -13.2525    8.2811   15.1686 C   0  0  2  0  0  0  0  0  0  0  0  0
  -14.5525    8.4546   14.4835 O   0  0  0  0  0  0  0  0  0  0  0  0
  -12.8606    9.6543   15.7258 C   0  0  2  0  0  0  0  0  0  0  0  0
  -11.8196    9.5106   16.6363 O   0  0  0  0  0  0  0  0  0  0  0  0
  -14.0003   10.3610   16.4821 C   0  0  0  0  0  0  0  0  0  0  0  0
  -16.8808    8.6588   18.2812 C   0  0  2  0  0  0  0  0  0  0  0  0
  -17.7014    9.0738   19.4473 N   0  3  0  0  0  0  0  0  0  0  0  0
  -17.7636    8.5301   17.0045 C   0  0  0  0  0  0  0  0  0  0  0  0
  -16.8895    8.0729   15.7810 C   0  0  2  0  0  0  0  0  0  0  0  0
  -17.7688    7.9663   14.5595 N   0  3  0  0  0  0  0  0  0  0  0  0
  -16.1986    6.7073   16.1190 C   0  0  2  0  0  0  0  0  0  0  0  0
  -15.3230    6.8699   17.3855 C   0  0  2  0  0  0  0  0  0  0  0  0
  -14.7354    5.6303   17.6985 O   0  0  0  0  0  0  0  0  0  0  0  0
  -16.2033    7.3060   18.5872 C   0  0  1  0  0  0  0  0  0  0  0  0
  -15.3812    7.4465   19.7365 O   0  0  0  0  0  0  0  0  0  0  0  0
  -14.0634    7.8914   19.5695 C   0  0  2  0  0  0  0  0  0  0  0  0
  -13.3475    7.7345   20.9244 C   0  0  2  0  0  0  0  0  0  0  0  0
  -13.3436    6.3703   21.2872 O   0  0  0  0  0  0  0  0  0  0  0  0
  -14.0927    8.5951   22.0010 C   0  0  1  0  0  0  0  0  0  0  0  0
  -13.4805    8.4750   23.3467 N   0  3  0  0  0  0  0  0  0  0  0  0
  -14.2196    7.4890   24.1758 C   0  0  0  0  0  0  0  0  0  0  0  0
  -14.0976   10.0955   21.5475 C   0  0  2  0  0  0  0  0  0  0  0  0
  -12.7452   10.5713   21.4139 O   0  0  0  0  0  0  0  0  0  0  0  0
  -14.7706   10.9530   22.5061 C   0  0  0  0  0  0  0  0  0  0  0  0
  -14.7456   10.2255   20.1345 C   0  0  0  0  0  0  0  0  0  0  0  0
  -14.0720    9.3062   19.1598 O   0  0  0  0  0  0  0  0  0  0  0  0
  1  2  1  1  0  0  0
  1  3  1  0  0  0  0
  1 10  1  0  0  0  0
  3  4  1  1  0  0  0
  3  5  1  0  0  0  0
  5  6  1  6  0  0  0
  5  7  1  0  0  0  0
  7  8  1  1  0  0  0
  7  9  1  0  0  0  0
  9 10  1  6  0  0  0
  9 11  1  0  0  0  0
 11 12  1  1  0  0  0
 11 13  1  0  0  0  0
 14 15  1  1  0  0  0
 14 16  1  0  0  0  0
 14 22  1  0  0  0  0
 16 17  1  0  0  0  0
 17 18  1  6  0  0  0
 17 19  1  0  0  0  0
 19  2  1  6  0  0  0
 19 20  1  0  0  0  0
 20 21  1  1  0  0  0
 20 22  1  0  0  0  0
 22 23  1  1  0  0  0
 24 23  1  1  0  0  0
 24 25  1  0  0  0  0
 24 34  1  0  0  0  0
 25 26  1  1  0  0  0
 25 27  1  0  0  0  0
 27 28  1  1  0  0  0
 27 30  1  0  0  0  0
 28 29  1  0  0  0  0
 30 31  1  6  0  0  0
 30 32  1  0  0  0  0
 30 33  1  0  0  0  0
 33 34  1  0  0  0  0
M  CHG  4   4   1  15   1  18   1  28   1
M  END
>  <CHROM.1>
176.53485202,9.77319713,-33.98539119,43.60005668,51.18043288,-71.20959745
176.52462474,-58.81514382,-137.17369591,58.75708670,-86.80106983,-171.09123216
59.28448876,22.02449786,-67.17934248,-14.42484102,8.00153086,17.62068856
1.54151480,-0.03123791,-1.82386825

>  <Name>
1mwl

>  <RI>
0

>  <Rbt.Current_Directory>
/home/itssahil/PROJECTS/Mol_Feturizer/New_Systems/rnas/1mwl

>  <Rbt.Executable>
rbdock ($Id: //depot/dev/client3/rdock/2013.1/src/exe/rbdock.cxx#4 $)

>  <Rbt.Library>
libRbt.so (2013.1, Build901 2013/11/27)

>  <Rbt.Parameter_File>
/export/apps/rDock/src/rDock_2013.1_src/data/scripts/dock_solv.prm

>  <Rbt.Receptor>
prm/pocket_docking_7.prm

>  <SCORE>
-53.1755

>  <SCORE.INTER>
-44.688

>  <SCORE.INTER.CONST>
1

>  <SCORE.INTER.POLAR>
-7.19739

>  <SCORE.INTER.ROT>
6

>  <SCORE.INTER.SOLV>
25.5134

>  <SCORE.INTER.VDW>
-21.9052

>  <SCORE.INTER.norm>
-1.31435

>  <SCORE.INTRA>
-8.48746

>  <SCORE.INTRA.DIHEDRAL>
-22.6517

>  <SCORE.INTRA.DIHEDRAL.0>
42.0816

>  <SCORE.INTRA.POLAR>
0.160269

>  <SCORE.INTRA.POLAR.0>
-0.254682

>  <SCORE.INTRA.REPUL>
0

>  <SCORE.INTRA.REPUL.0>
0

>  <SCORE.INTRA.SOLV>
0.362559

>  <SCORE.INTRA.SOLV.lig_0>
-109.803

>  <SCORE.INTRA.VDW>
2.11222

>  <SCORE.INTRA.VDW.0>
0.32176

>  <SCORE.INTRA.norm>
-0.249631

>  <SCORE.RESTR>
0

>  <SCORE.RESTR.CAVITY>
0

>  <SCORE.RESTR.norm>
0

>  <SCORE.SYSTEM>
0

>  <SCORE.SYSTEM.CONST>
0

>  <SCORE.SYSTEM.DIHEDRAL>
0

>  <SCORE.SYSTEM.SOLV>
0

>  <SCORE.SYSTEM.norm>
0

>  <SCORE.heavy>
34

>  <SCORE.norm>
-1.56399

>  <RMSD>
7.951

$$$$
1mwl
 OpenBabel11021811403D
libRbt.so/2013.1/901 2013/11/27
 34 36  0  0  0  0  0  0  0  0999 V2000
  -14.4136    9.1953   17.0451 C   0  0  2  0  0  0  0  0  0  0  0  0
  -14.9988    9.2132   18.3123 O   0  0  0  0  0  0  0  0  0  0  0  0
  -15.5562    9.3520   16.0026 C   0  0  2  0  0  0  0  0  0  0  0  0
  -16.2821   10.6048   16.2329 N   0  3  0  0  0  0  0  0  0  0  0  0
  -16.5114    8.1235   16.0468 C   0  0  1  0  0  0  0  0  0  0  0  0
  -17.4968    8.2409   15.1219 O   0  0  0  0  0  0  0  0  0  0  0  0
  -15.6697    6.8278   15.8013 C   0  0  2  0  0  0  0  0  0  0  0  0
  -16.5269    5.6673   15.8258 O   0  0  0  0  0  0  0  0  0  0  0  0
  -14.5645    6.7409   16.9081 C   0  0  2  0  0  0  0  0  0  0  0  0
  -13.7029    7.9432   16.8692 O   0  0  0  0  0  0  0  0  0  0  0  0
  -13.6348    5.5278   16.7900 C   0  0  2  0  0  0  0  0  0  0  0  0
  -13.0432    5.5118   15.5318 O   0  0  0  0  0  0  0  0  0  0  0  0
  -14.3597    4.1781   16.9426 C   0  0  0  0  0  0  0  0  0  0  0  0
  -11.5809    9.2605   20.8765 C   0  0  2  0  0  0  0  0  0  0  0  0
  -10.7437    9.3588   22.0992 N   0  3  0  0  0  0  0  0  0  0  0  0
  -12.3163   10.6060   20.6030 C   0  0  0  0  0  0  0  0  0  0  0  0
  -13.2133   10.4858   19.3181 C   0  0  2  0  0  0  0  0  0  0  0  0
  -13.9042   11.8048   19.0740 N   0  3  0  0  0  0  0  0  0  0  0  0
  -14.2422    9.3194   19.5115 C   0  0  2  0  0  0  0  0  0  0  0  0
  -13.4815    7.9964   19.7724 C   0  0  2  0  0  0  0  0  0  0  0  0
  -14.4152    6.9639   19.9781 O   0  0  0  0  0  0  0  0  0  0  0  0
  -12.6133    8.1266   21.0525 C   0  0  1  0  0  0  0  0  0  0  0  0
  -11.9277    6.9029   21.2735 O   0  0  0  0  0  0  0  0  0  0  0  0
  -11.0683    6.4248   20.2758 C   0  0  2  0  0  0  0  0  0  0  0  0
  -11.1626    4.8873   20.2827 C   0  0  2  0  0  0  0  0  0  0  0  0
  -12.4891    4.5065   19.9864 O   0  0  0  0  0  0  0  0  0  0  0  0
  -10.7311    4.3531   21.6911 C   0  0  1  0  0  0  0  0  0  0  0  0
  -10.8226    2.8760   21.7903 N   0  3  0  0  0  0  0  0  0  0  0  0
  -12.2369    2.4292   21.7116 C   0  0  0  0  0  0  0  0  0  0  0  0
   -9.2652    4.8197   21.9917 C   0  0  2  0  0  0  0  0  0  0  0  0
   -8.3700    4.2969   20.9923 O   0  0  0  0  0  0  0  0  0  0  0  0
   -8.7983    4.3530   23.2846 C   0  0  0  0  0  0  0  0  0  0  0  0
   -9.1671    6.3733   21.8930 C   0  0  0  0  0  0  0  0  0  0  0  0
   -9.6896    6.8510   20.5710 O   0  0  0  0  0  0  0  0  0  0  0  0
  1  2  1  1  0  0  0
  1  3  1  0  0  0  0
  1 10  1  0  0  0  0
  3  4  1  1  0  0  0
  3  5  1  0  0  0  0
  5  6  1  6  0  0  0
  5  7  1  0  0  0  0
  7  8  1  1  0  0  0
  7  9  1  0  0  0  0
  9 10  1  6  0  0  0
  9 11  1  0  0  0  0
 11 12  1  6  0  0  0
 11 13  1  0  0  0  0
 14 15  1  1  0  0  0
 14 16  1  0  0  0  0
 14 22  1  0  0  0  0
 16 17  1  0  0  0  0
 17 18  1  1  0  0  0
 17 19  1  0  0  0  0
 19  2  1  6  0  0  0
 19 20  1  0  0  0  0
 20 21  1  1  0  0  0
 20 22  1  0  0  0  0
 22 23  1  6  0  0  0
 24 23  1  1  0  0  0
 24 25  1  0  0  0  0
 24 34  1  0  0  0  0
 25 26  1  1  0  0  0
 25 27  1  0  0  0  0
 27 28  1  6  0  0  0
 27 30  1  0  0  0  0
 28 29  1  0  0  0  0
 30 31  1  6  0  0  0
 30 32  1  0  0  0  0
 30 33  1  0  0  0  0
 33 34  1  0  0  0  0
M  CHG  4   4   1  15   1  18   1  28   1
M  END
>  <CHROM.1>
-169.07487870,47.46202326,78.38400887,50.57575862,64.82980728,55.95139323
60.86976767,31.58145837,-127.74336708,-175.62480403,-61.31060050,-145.20611402
78.96106459,53.39977348,-52.91528737,-12.93077634,7.05050484,19.13527966
-2.86191450,0.81440147,-2.92337595

>  <Name>
1mwl

>  <RI>
0

>  <Rbt.Current_Directory>
/home/itssahil/PROJECTS/Mol_Feturizer/New_Systems/rnas/1mwl

>  <Rbt.Executable>
rbdock ($Id: //depot/dev/client3/rdock/2013.1/src/exe/rbdock.cxx#4 $)

>  <Rbt.Library>
libRbt.so (2013.1, Build901 2013/11/27)

>  <Rbt.Parameter_File>
/export/apps/rDock/src/rDock_2013.1_src/data/scripts/dock_solv.prm

>  <Rbt.Receptor>
prm/pocket_docking_4.prm

>  <SCORE>
-61.074

>  <SCORE.INTER>
-46.1238

>  <SCORE.INTER.CONST>
1

>  <SCORE.INTER.POLAR>
-7.60638

>  <SCORE.INTER.ROT>
6

>  <SCORE.INTER.SOLV>
20.53

>  <SCORE.INTER.VDW>
-19.8379

>  <SCORE.INTER.norm>
-1.35658

>  <SCORE.INTRA>
-14.9502

>  <SCORE.INTRA.DIHEDRAL>
-27.5452

>  <SCORE.INTRA.DIHEDRAL.0>
42.0816

>  <SCORE.INTRA.POLAR>
-0.620061

>  <SCORE.INTRA.POLAR.0>
-0.254682

>  <SCORE.INTRA.REPUL>
0.0764456

>  <SCORE.INTRA.REPUL.0>
0

>  <SCORE.INTRA.SOLV>
2.02778

>  <SCORE.INTRA.SOLV.lig_0>
-109.803

>  <SCORE.INTRA.VDW>
-0.465467

>  <SCORE.INTRA.VDW.0>
0.32176

>  <SCORE.INTRA.norm>
-0.439711

>  <SCORE.RESTR>
0

>  <SCORE.RESTR.CAVITY>
0

>  <SCORE.RESTR.norm>
0

>  <SCORE.SYSTEM>
0

>  <SCORE.SYSTEM.CONST>
0

>  <SCORE.SYSTEM.DIHEDRAL>
0

>  <SCORE.SYSTEM.SOLV>
0

>  <SCORE.SYSTEM.norm>
0

>  <SCORE.heavy>
34

>  <SCORE.norm>
-1.79629

>  <RMSD>
7.962

$$$$
1mwl
 OpenBabel11021811403D
libRbt.so/2013.1/901 2013/11/27
 34 36  0  0  0  0  0  0  0  0999 V2000
  -14.9502    8.6663   17.1818 C   0  0  2  0  0  0  0  0  0  0  0  0
  -14.1124    9.0129   16.1203 O   0  0  0  0  0  0  0  0  0  0  0  0
  -16.3143    9.3746   16.9486 C   0  0  2  0  0  0  0  0  0  0  0  0
  -16.8868    8.9583   15.6646 N   0  3  0  0  0  0  0  0  0  0  0  0
  -16.1498   10.9208   17.0246 C   0  0  1  0  0  0  0  0  0  0  0  0
  -17.3409   11.5453   16.8474 O   0  0  0  0  0  0  0  0  0  0  0  0
  -15.5297   11.2889   18.4129 C   0  0  2  0  0  0  0  0  0  0  0  0
  -15.3719   12.7191   18.5221 O   0  0  0  0  0  0  0  0  0  0  0  0
  -14.1532   10.5537   18.5487 C   0  0  2  0  0  0  0  0  0  0  0  0
  -14.3380    9.0907   18.4264 O   0  0  0  0  0  0  0  0  0  0  0  0
  -13.4260   10.7972   19.8760 C   0  0  2  0  0  0  0  0  0  0  0  0
  -14.2699   10.4859   20.9364 O   0  0  0  0  0  0  0  0  0  0  0  0
  -12.9948   12.2605   20.0835 C   0  0  0  0  0  0  0  0  0  0  0  0
  -11.8738    5.4625   15.3190 C   0  0  2  0  0  0  0  0  0  0  0  0
  -10.7727    4.5636   14.8889 N   0  3  0  0  0  0  0  0  0  0  0  0
  -12.4251    6.2752   14.1101 C   0  0  0  0  0  0  0  0  0  0  0  0
  -13.5769    7.2363   14.5789 C   0  0  2  0  0  0  0  0  0  0  0  0
  -14.0961    8.0018   13.3868 N   0  3  0  0  0  0  0  0  0  0  0  0
  -13.0307    8.1960   15.6911 C   0  0  2  0  0  0  0  0  0  0  0  0
  -12.4988    7.3598   16.8806 C   0  0  2  0  0  0  0  0  0  0  0  0
  -11.9805    8.2303   17.8572 O   0  0  0  0  0  0  0  0  0  0  0  0
  -11.3523    6.4283   16.4043 C   0  0  1  0  0  0  0  0  0  0  0  0
  -10.8787    5.6739   17.5102 O   0  0  0  0  0  0  0  0  0  0  0  0
   -9.8114    6.1819   18.2621 C   0  0  2  0  0  0  0  0  0  0  0  0
   -9.1666    4.9980   19.0074 C   0  0  2  0  0  0  0  0  0  0  0  0
   -8.6795    4.0697   18.0621 O   0  0  0  0  0  0  0  0  0  0  0  0
  -10.2370    4.3341   19.9393 C   0  0  1  0  0  0  0  0  0  0  0  0
   -9.7014    3.1621   20.6738 N   0  3  0  0  0  0  0  0  0  0  0  0
  -10.7363    2.1048   20.8056 C   0  0  0  0  0  0  0  0  0  0  0  0
  -10.7703    5.4033   20.9540 C   0  0  2  0  0  0  0  0  0  0  0  0
   -9.6842    5.8996   21.7587 O   0  0  0  0  0  0  0  0  0  0  0  0
  -11.7660    4.8517   21.8548 C   0  0  0  0  0  0  0  0  0  0  0  0
  -11.3389    6.6350   20.1841 C   0  0  0  0  0  0  0  0  0  0  0  0
  -10.3190    7.1736   19.2257 O   0  0  0  0  0  0  0  0  0  0  0  0
  1  2  1  6  0  0  0
  1  3  1  0  0  0  0
  1 10  1  0  0  0  0
  3  4  1  6  0  0  0
  3  5  1  0  0  0  0
  5  6  1  1  0  0  0
  5  7  1  0  0  0  0
  7  8  1  6  0  0  0
  7  9  1  0  0  0  0
  9 10  1  1  0  0  0
  9 11  1  0  0  0  0
 11 12  1  1  0  0  0
 11 13  1  0  0  0  0
 14 15  1  6  0  0  0
 14 16  1  0  0  0  0
 14 22  1  0  0  0  0
 16 17  1  0  0  0  0
 17 18  1  6  0  0  0
 17 19  1  0  0  0  0
 19  2  1  1  0  0  0
 19 20  1  0  0  0  0
 20 21  1  1  0  0  0
 20 22  1  0  0  0  0
 22 23  1  1  0  0  0
 24 23  1  1  0  0  0
 24 25  1  0  0  0  0
 24 34  1  0  0  0  0
 25 26  1  6  0  0  0
 25 27  1  0  0  0  0
 27 28  1  1  0  0  0
 27 30  1  0  0  0  0
 28 29  1  0  0  0  0
 30 31  1  1  0  0  0
 30 32  1  0  0  0  0
 30 33  1  0  0  0  0
 33 34  1  0  0  0  0
M  CHG  4   4   1  15   1  18   1  28   1
M  END
>  <CHROM.1>
-154.23581053,91.06682468,157.89081722,-178.14007505,-62.35100275,54.01816007
58.30822337,-179.68041964,178.29904437,81.77641509,148.18186328,-158.87513530
99.12914403,-23.52403743,178.85594620,-12.66757660,7.59991434,18.00081460
3.10390735,-0.87658800,1.18565507

>  <Name>
1mwl

>  <RI>
0

>  <Rbt.Current_Directory>
/home/itssahil/PROJECTS/Mol_Feturizer/New_Systems/rnas/1mwl

>  <Rbt.Executable>
rbdock ($Id: //depot/dev/client3/rdock/2013.1/src/exe/rbdock.cxx#4 $)

>  <Rbt.Library>
libRbt.so (2013.1, Build901 2013/11/27)

>  <Rbt.Parameter_File>
/export/apps/rDock/src/rDock_2013.1_src/data/scripts/dock_solv.prm

>  <Rbt.Receptor>
prm/pocket_docking_4.prm

>  <SCORE>
-40.5741

>  <SCORE.INTER>
-28.681

>  <SCORE.INTER.CONST>
1

>  <SCORE.INTER.POLAR>
-4.59542

>  <SCORE.INTER.ROT>
6

>  <SCORE.INTER.SOLV>
18.3991

>  <SCORE.INTER.VDW>
-17.5357

>  <SCORE.INTER.norm>
-0.84356

>  <SCORE.INTRA>
-11.893

>  <SCORE.INTRA.DIHEDRAL>
-18.461

>  <SCORE.INTRA.DIHEDRAL.0>
42.0816

>  <SCORE.INTRA.POLAR>
-0.580181

>  <SCORE.INTRA.POLAR.0>
-0.254682

>  <SCORE.INTRA.REPUL>
0

>  <SCORE.INTRA.REPUL.0>
0

>  <SCORE.INTRA.SOLV>
-0.441451

>  <SCORE.INTRA.SOLV.lig_0>
-109.803

>  <SCORE.INTRA.VDW>
-0.469182

>  <SCORE.INTRA.VDW.0>
0.32176

>  <SCORE.INTRA.norm>
-0.349796

>  <SCORE.RESTR>
0

>  <SCORE.RESTR.CAVITY>
0

>  <SCORE.RESTR.norm>
0

>  <SCORE.SYSTEM>
0

>  <SCORE.SYSTEM.CONST>
0

>  <SCORE.SYSTEM.DIHEDRAL>
0

>  <SCORE.SYSTEM.SOLV>
0

>  <SCORE.SYSTEM.norm>
0

>  <SCORE.heavy>
34

>  <SCORE.norm>
-1.19336

>  <RMSD>
8.035

$$$$
1mwl
 OpenBabel11021811403D
libRbt.so/2013.1/901 2013/11/27
 34 36  0  0  0  0  0  0  0  0999 V2000
  -13.9022    9.8333   17.4534 C   0  0  2  0  0  0  0  0  0  0  0  0
  -13.3355    8.5575   17.4562 O   0  0  0  0  0  0  0  0  0  0  0  0
  -13.9965   10.3039   18.9320 C   0  0  2  0  0  0  0  0  0  0  0  0
  -12.6643   10.3178   19.5439 N   0  3  0  0  0  0  0  0  0  0  0  0
  -14.9820    9.4032   19.7327 C   0  0  1  0  0  0  0  0  0  0  0  0
  -15.0892    9.8235   21.0180 O   0  0  0  0  0  0  0  0  0  0  0  0
  -16.3746    9.4311   19.0202 C   0  0  2  0  0  0  0  0  0  0  0  0
  -17.3179    8.6125   19.7428 O   0  0  0  0  0  0  0  0  0  0  0  0
  -16.1873    8.9198   17.5514 C   0  0  2  0  0  0  0  0  0  0  0  0
  -15.2115    9.7686   16.8325 O   0  0  0  0  0  0  0  0  0  0  0  0
  -17.4681    8.9098   16.7093 C   0  0  2  0  0  0  0  0  0  0  0  0
  -18.4412    8.1474   17.3458 O   0  0  0  0  0  0  0  0  0  0  0  0
  -17.2822    8.2918   15.3115 C   0  0  0  0  0  0  0  0  0  0  0  0
  -11.9307    6.2419   14.1511 C   0  0  2  0  0  0  0  0  0  0  0  0
  -11.0518    5.7238   13.0720 N   0  3  0  0  0  0  0  0  0  0  0  0
  -12.2770    7.7408   13.9072 C   0  0  0  0  0  0  0  0  0  0  0  0
  -13.1919    8.2842   15.0638 C   0  0  2  0  0  0  0  0  0  0  0  0
  -13.5176    9.7329   14.7953 N   0  3  0  0  0  0  0  0  0  0  0  0
  -12.4574    8.0997   16.4359 C   0  0  2  0  0  0  0  0  0  0  0  0
  -12.1351    6.6010   16.6528 C   0  0  2  0  0  0  0  0  0  0  0  0
  -11.4461    6.4521   17.8707 O   0  0  0  0  0  0  0  0  0  0  0  0
  -11.2186    6.0844   15.5115 C   0  0  1  0  0  0  0  0  0  0  0  0
  -10.9343    4.7107   15.7318 O   0  0  0  0  0  0  0  0  0  0  0  0
   -9.9963    4.3681   16.7144 C   0  0  2  0  0  0  0  0  0  0  0  0
   -9.2522    3.1114   16.2247 C   0  0  2  0  0  0  0  0  0  0  0  0
   -8.5843    3.4133   15.0183 O   0  0  0  0  0  0  0  0  0  0  0  0
  -10.2856    1.9526   16.0144 C   0  0  1  0  0  0  0  0  0  0  0  0
   -9.6503    0.7097   15.5126 N   0  3  0  0  0  0  0  0  0  0  0  0
   -9.7706    0.6158   14.0352 C   0  0  0  0  0  0  0  0  0  0  0  0
  -11.0224    1.6679   17.3683 C   0  0  2  0  0  0  0  0  0  0  0  0
  -10.0679    1.2749   18.3722 O   0  0  0  0  0  0  0  0  0  0  0  0
  -11.9946    0.5969   17.2456 C   0  0  0  0  0  0  0  0  0  0  0  0
  -11.6958    2.9722   17.8959 C   0  0  0  0  0  0  0  0  0  0  0  0
  -10.6940    4.0849   17.9804 O   0  0  0  0  0  0  0  0  0  0  0  0
  1  2  1  1  0  0  0
  1  3  1  0  0  0  0
  1 10  1  0  0  0  0
  3  4  1  1  0  0  0
  3  5  1  0  0  0  0
  5  6  1  1  0  0  0
  5  7  1  0  0  0  0
  7  8  1  1  0  0  0
  7  9  1  0  0  0  0
  9 10  1  6  0  0  0
  9 11  1  0  0  0  0
 11 12  1  1  0  0  0
 11 13  1  0  0  0  0
 14 15  1  6  0  0  0
 14 16  1  0  0  0  0
 14 22  1  0  0  0  0
 16 17  1  0  0  0  0
 17 18  1  6  0  0  0
 17 19  1  0  0  0  0
 19  2  1  1  0  0  0
 19 20  1  0  0  0  0
 20 21  1  1  0  0  0
 20 22  1  0  0  0  0
 22 23  1  1  0  0  0
 24 23  1  6  0  0  0
 24 25  1  0  0  0  0
 24 34  1  0  0  0  0
 25 26  1  6  0  0  0
 25 27  1  0  0  0  0
 27 28  1  1  0  0  0
 27 30  1  0  0  0  0
 28 29  1  0  0  0  0
 30 31  1  1  0  0  0
 30 32  1  0  0  0  0
 30 33  1  0  0  0  0
 33 34  1  0  0  0  0
M  CHG  4   4   1  15   1  18   1  28   1
M  END
>  <CHROM.1>
-144.83734906,-54.65219511,-174.74572861,61.54314561,-57.36555716,-56.31798869
-58.25023968,-57.94912296,41.17042227,65.34285225,163.47007748,-145.85090878
176.97678456,23.49185377,177.69789306,-12.80418553,6.31082152,16.85141568
-2.88060834,-0.90050853,2.18108432

>  <Name>
1mwl

>  <RI>
0

>  <Rbt.Current_Directory>
/home/itssahil/PROJECTS/Mol_Feturizer/New_Systems/rnas/1mwl

>  <Rbt.Executable>
rbdock ($Id: //depot/dev/client3/rdock/2013.1/src/exe/rbdock.cxx#4 $)

>  <Rbt.Library>
libRbt.so (2013.1, Build901 2013/11/27)

>  <Rbt.Parameter_File>
/export/apps/rDock/src/rDock_2013.1_src/data/scripts/dock_solv.prm

>  <Rbt.Receptor>
prm/pocket_docking_7.prm

>  <SCORE>
-37.4475

>  <SCORE.INTER>
-22.5169

>  <SCORE.INTER.CONST>
1

>  <SCORE.INTER.POLAR>
-3.73433

>  <SCORE.INTER.ROT>
6

>  <SCORE.INTER.SOLV>
14.9035

>  <SCORE.INTER.VDW>
-15.1313

>  <SCORE.INTER.norm>
-0.662262

>  <SCORE.INTRA>
-14.9306

>  <SCORE.INTRA.DIHEDRAL>
-28.064

>  <SCORE.INTRA.DIHEDRAL.0>
42.0816

>  <SCORE.INTRA.POLAR>
-0.80562

>  <SCORE.INTRA.POLAR.0>
-0.254682

>  <SCORE.INTRA.REPUL>
0

>  <SCORE.INTRA.REPUL.0>
0

>  <SCORE.INTRA.SOLV>
0.572148

>  <SCORE.INTRA.SOLV.lig_0>
-109.803

>  <SCORE.INTRA.VDW>
1.55448

>  <SCORE.INTRA.VDW.0>
0.32176

>  <SCORE.INTRA.norm>
-0.439134

>  <SCORE.RESTR>
0

>  <SCORE.RESTR.CAVITY>
0

>  <SCORE.RESTR.norm>
0

>  <SCORE.SYSTEM>
0

>  <SCORE.SYSTEM.CONST>
0

>  <SCORE.SYSTEM.DIHEDRAL>
0

>  <SCORE.SYSTEM.SOLV>
0

>  <SCORE.SYSTEM.norm>
0

>  <SCORE.heavy>
34

>  <SCORE.norm>
-1.1014

>  <RMSD>
8.049

$$$$
1mwl
 OpenBabel11021811403D
libRbt.so/2013.1/901 2013/11/27
 34 36  0  0  0  0  0  0  0  0999 V2000
  -15.5887    8.8676   17.6549 C   0  0  2  0  0  0  0  0  0  0  0  0
  -14.9581    9.1051   16.4324 O   0  0  0  0  0  0  0  0  0  0  0  0
  -16.9998    9.5163   17.5846 C   0  0  2  0  0  0  0  0  0  0  0  0
  -17.7651    8.9421   16.4738 N   0  3  0  0  0  0  0  0  0  0  0  0
  -16.8864   11.0639   17.4587 C   0  0  1  0  0  0  0  0  0  0  0  0
  -18.1143   11.6394   17.4225 O   0  0  0  0  0  0  0  0  0  0  0  0
  -16.0546   11.6034   18.6688 C   0  0  2  0  0  0  0  0  0  0  0  0
  -15.9376   13.0395   18.5894 O   0  0  0  0  0  0  0  0  0  0  0  0
  -14.6468   10.9168   18.6446 C   0  0  2  0  0  0  0  0  0  0  0  0
  -14.7912    9.4461   18.7195 O   0  0  0  0  0  0  0  0  0  0  0  0
  -13.7148   11.3276   19.7902 C   0  0  2  0  0  0  0  0  0  0  0  0
  -12.4344   10.8416   19.5496 O   0  0  0  0  0  0  0  0  0  0  0  0
  -14.1380   10.7675   21.1605 C   0  0  0  0  0  0  0  0  0  0  0  0
  -12.6748    5.5480   15.8055 C   0  0  2  0  0  0  0  0  0  0  0  0
  -11.6416    4.6155   15.2877 N   0  3  0  0  0  0  0  0  0  0  0  0
  -13.5939    6.0473   14.6514 C   0  0  0  0  0  0  0  0  0  0  0  0
  -14.6718    7.0474   15.2065 C   0  0  2  0  0  0  0  0  0  0  0  0
  -15.5512    7.5056   14.0692 N   0  3  0  0  0  0  0  0  0  0  0  0
  -13.9511    8.2519   15.9037 C   0  0  2  0  0  0  0  0  0  0  0  0
  -13.0534    7.7247   17.0497 C   0  0  2  0  0  0  0  0  0  0  0  0
  -12.3860    8.8108   17.6455 O   0  0  0  0  0  0  0  0  0  0  0  0
  -11.9853    6.7515   16.4828 C   0  0  1  0  0  0  0  0  0  0  0  0
  -11.1731    6.2831   17.5493 O   0  0  0  0  0  0  0  0  0  0  0  0
   -9.8909    6.8255   17.7053 C   0  0  2  0  0  0  0  0  0  0  0  0
   -8.8762    5.7021   17.4200 C   0  0  2  0  0  0  0  0  0  0  0  0
   -9.0433    5.2583   16.0904 O   0  0  0  0  0  0  0  0  0  0  0  0
   -9.1109    4.5295   18.4323 C   0  0  1  0  0  0  0  0  0  0  0  0
   -8.1890    3.3901   18.2046 N   0  3  0  0  0  0  0  0  0  0  0  0
   -8.6775    2.5302   17.0965 C   0  0  0  0  0  0  0  0  0  0  0  0
   -8.9427    5.0699   19.8941 C   0  0  2  0  0  0  0  0  0  0  0  0
   -7.6126    5.5915   20.0735 O   0  0  0  0  0  0  0  0  0  0  0  0
   -9.1426    4.0297   20.8867 C   0  0  0  0  0  0  0  0  0  0  0  0
   -9.9148    6.2652   20.1380 C   0  0  0  0  0  0  0  0  0  0  0  0
   -9.7311    7.3167   19.0847 O   0  0  0  0  0  0  0  0  0  0  0  0
  1  2  1  6  0  0  0
  1  3  1  0  0  0  0
  1 10  1  0  0  0  0
  3  4  1  6  0  0  0
  3  5  1  0  0  0  0
  5  6  1  1  0  0  0
  5  7  1  0  0  0  0
  7  8  1  6  0  0  0
  7  9  1  0  0  0  0
  9 10  1  1  0  0  0
  9 11  1  0  0  0  0
 11 12  1  6  0  0  0
 11 13  1  0  0  0  0
 14 15  1  6  0  0  0
 14 16  1  0  0  0  0
 14 22  1  0  0  0  0
 16 17  1  0  0  0  0
 17 18  1  6  0  0  0
 17 19  1  0  0  0  0
 19  2  1  1  0  0  0
 19 20  1  0  0  0  0
 20 21  1  6  0  0  0
 20 22  1  0  0  0  0
 22 23  1  1  0  0  0
 24 23  1  1  0  0  0
 24 25  1  0  0  0  0
 24 34  1  0  0  0  0
 25 26  1  6  0  0  0
 25 27  1  0  0  0  0
 27 28  1  6  0  0  0
 27 30  1  0  0  0  0
 28 29  1  0  0  0  0
 30 31  1  1  0  0  0
 30 32  1  0  0  0  0
 30 33  1  0  0  0  0
 33 34  1  0  0  0  0
M  CHG  4   4   1  15   1  18   1  28   1
M  END
>  <CHROM.1>
-153.01786143,81.92413699,-178.82597451,172.13792987,-64.67259096,-170.06511649
60.18243419,-82.03629528,-21.83114391,-55.45853833,136.60242697,-113.54502126
165.01288001,39.00937241,177.85234718,-12.69573517,7.72499227,17.71518822
2.74218677,-0.58867104,0.83413959

>  <Name>
1mwl

>  <RI>
0

>  <Rbt.Current_Directory>
/home/itssahil/PROJECTS/Mol_Feturizer/New_Systems/rnas/1mwl

>  <Rbt.Executable>
rbdock ($Id: //depot/dev/client3/rdock/2013.1/src/exe/rbdock.cxx#4 $)

>  <Rbt.Library>
libRbt.so (2013.1, Build901 2013/11/27)

>  <Rbt.Parameter_File>
/export/apps/rDock/src/rDock_2013.1_src/data/scripts/dock_solv.prm

>  <Rbt.Receptor>
prm/pocket_docking_7.prm

>  <SCORE>
-47.0625

>  <SCORE.INTER>
-35.8611

>  <SCORE.INTER.CONST>
1

>  <SCORE.INTER.POLAR>
-6.36932

>  <SCORE.INTER.ROT>
6

>  <SCORE.INTER.SOLV>
21.3058

>  <SCORE.INTER.VDW>
-17.3783

>  <SCORE.INTER.norm>
-1.05474

>  <SCORE.INTRA>
-11.2013

>  <SCORE.INTRA.DIHEDRAL>
-17.3826

>  <SCORE.INTRA.DIHEDRAL.0>
42.0816

>  <SCORE.INTRA.POLAR>
-0.701094

>  <SCORE.INTRA.POLAR.0>
-0.254682

>  <SCORE.INTRA.REPUL>
0.00910157

>  <SCORE.INTRA.REPUL.0>
0

>  <SCORE.INTRA.SOLV>
3.53653

>  <SCORE.INTRA.SOLV.lig_0>
-109.803

>  <SCORE.INTRA.VDW>
-1.94008

>  <SCORE.INTRA.VDW.0>
0.32176

>  <SCORE.INTRA.norm>
-0.329451

>  <SCORE.RESTR>
0

>  <SCORE.RESTR.CAVITY>
0

>  <SCORE.RESTR.norm>
0

>  <SCORE.SYSTEM>
0

>  <SCORE.SYSTEM.CONST>
0

>  <SCORE.SYSTEM.DIHEDRAL>
0

>  <SCORE.SYSTEM.SOLV>
0

>  <SCORE.SYSTEM.norm>
0

>  <SCORE.heavy>
34

>  <SCORE.norm>
-1.38419

>  <RMSD>
8.071

$$$$
1mwl
 OpenBabel11021811403D
libRbt.so/2013.1/901 2013/11/27
 34 36  0  0  0  0  0  0  0  0999 V2000
  -16.5270    9.4509   17.8749 C   0  0  2  0  0  0  0  0  0  0  0  0
  -16.6129    8.4521   18.8463 O   0  0  0  0  0  0  0  0  0  0  0  0
  -17.5664    9.1148   16.7687 C   0  0  2  0  0  0  0  0  0  0  0  0
  -18.9134    9.0502   17.3438 N   0  3  0  0  0  0  0  0  0  0  0  0
  -17.1904    7.7873   16.0476 C   0  0  1  0  0  0  0  0  0  0  0  0
  -18.0789    7.5006   15.0635 O   0  0  0  0  0  0  0  0  0  0  0  0
  -15.7440    7.9268   15.4679 C   0  0  2  0  0  0  0  0  0  0  0  0
  -15.3654    6.7148   14.7823 O   0  0  0  0  0  0  0  0  0  0  0  0
  -14.7664    8.2388   16.6515 C   0  0  2  0  0  0  0  0  0  0  0  0
  -15.1776    9.4802   17.3437 O   0  0  0  0  0  0  0  0  0  0  0  0
  -13.3021    8.4278   16.2390 C   0  0  2  0  0  0  0  0  0  0  0  0
  -12.8283    7.2626   15.6464 O   0  0  0  0  0  0  0  0  0  0  0  0
  -12.3616    8.7234   17.4215 C   0  0  0  0  0  0  0  0  0  0  0  0
  -13.3087    9.1047   21.4761 C   0  0  2  0  0  0  0  0  0  0  0  0
  -12.4861    9.1575   22.7114 N   0  3  0  0  0  0  0  0  0  0  0  0
  -14.5440   10.0456   21.5966 C   0  0  0  0  0  0  0  0  0  0  0  0
  -15.4175    9.9685   20.2922 C   0  0  2  0  0  0  0  0  0  0  0  0
  -16.5992   10.8958   20.4348 N   0  3  0  0  0  0  0  0  0  0  0  0
  -15.8688    8.4861   20.0575 C   0  0  2  0  0  0  0  0  0  0  0  0
  -14.6204    7.5787   19.9334 C   0  0  2  0  0  0  0  0  0  0  0  0
  -15.0380    6.2465   19.7571 O   0  0  0  0  0  0  0  0  0  0  0  0
  -13.7778    7.6541   21.2347 C   0  0  1  0  0  0  0  0  0  0  0  0
  -12.6411    6.8136   21.0998 O   0  0  0  0  0  0  0  0  0  0  0  0
  -12.8388    5.4602   20.7966 C   0  0  2  0  0  0  0  0  0  0  0  0
  -11.9901    4.6369   21.7839 C   0  0  2  0  0  0  0  0  0  0  0  0
  -12.4331    4.8965   23.0988 O   0  0  0  0  0  0  0  0  0  0  0  0
  -10.4826    5.0299   21.6162 C   0  0  1  0  0  0  0  0  0  0  0  0
   -9.5977    4.2996   22.5563 N   0  3  0  0  0  0  0  0  0  0  0  0
   -8.5557    5.2025   23.1084 C   0  0  0  0  0  0  0  0  0  0  0  0
  -10.0393    4.7518   20.1386 C   0  0  2  0  0  0  0  0  0  0  0  0
  -10.2011    3.3538   19.8336 O   0  0  0  0  0  0  0  0  0  0  0  0
   -8.6456    5.0903   19.9142 C   0  0  0  0  0  0  0  0  0  0  0  0
  -10.9652    5.5227   19.1479 C   0  0  0  0  0  0  0  0  0  0  0  0
  -12.4053    5.1996   19.4132 O   0  0  0  0  0  0  0  0  0  0  0  0
  1  2  1  1  0  0  0
  1  3  1  0  0  0  0
  1 10  1  0  0  0  0
  3  4  1  1  0  0  0
  3  5  1  0  0  0  0
  5  6  1  6  0  0  0
  5  7  1  0  0  0  0
  7  8  1  1  0  0  0
  7  9  1  0  0  0  0
  9 10  1  6  0  0  0
  9 11  1  0  0  0  0
 11 12  1  1  0  0  0
 11 13  1  0  0  0  0
 14 15  1  1  0  0  0
 14 16  1  0  0  0  0
 14 22  1  0  0  0  0
 16 17  1  0  0  0  0
 17 18  1  1  0  0  0
 17 19  1  0  0  0  0
 19  2  1  6  0  0  0
 19 20  1  0  0  0  0
 20 21  1  1  0  0  0
 20 22  1  0  0  0  0
 22 23  1  6  0  0  0
 24 23  1  1  0  0  0
 24 25  1  0  0  0  0
 24 34  1  0  0  0  0
 25 26  1  1  0  0  0
 25 27  1  0  0  0  0
 27 28  1  1  0  0  0
 27 30  1  0  0  0  0
 28 29  1  0  0  0  0
 30 31  1  6  0  0  0
 30 32  1  0  0  0  0
 30 33  1  0  0  0  0
 33 34  1  0  0  0  0
M  CHG  4   4   1  15   1  18   1  28   1
M  END
>  <CHROM.1>
-175.48069496,19.68591679,-150.68169716,-179.61948009,-174.31334786,-60.85098683
-63.08427966,-71.92744288,178.40659523,64.92568356,-176.37114093,-131.30894321
-68.21370867,-19.00353001,175.33388406,-13.74230758,7.25689359,19.27119566
2.76517360,0.66521565,-1.90555291

>  <Name>
1mwl

>  <RI>
0

>  <Rbt.Current_Directory>
/home/itssahil/PROJECTS/Mol_Feturizer/New_Systems/rnas/1mwl

>  <Rbt.Executable>
rbdock ($Id: //depot/dev/client3/rdock/2013.1/src/exe/rbdock.cxx#4 $)

>  <Rbt.Library>
libRbt.so (2013.1, Build901 2013/11/27)

>  <Rbt.Parameter_File>
/export/apps/rDock/src/rDock_2013.1_src/data/scripts/dock_solv.prm

>  <Rbt.Receptor>
prm/pocket_docking_4.prm

>  <SCORE>
-44.4364

>  <SCORE.INTER>
-31.2271

>  <SCORE.INTER.CONST>
1

>  <SCORE.INTER.POLAR>
-4.98919

>  <SCORE.INTER.ROT>
6

>  <SCORE.INTER.SOLV>
15.8763

>  <SCORE.INTER.VDW>
-17.0795

>  <SCORE.INTER.norm>
-0.918443

>  <SCORE.INTRA>
-13.3766

>  <SCORE.INTRA.DIHEDRAL>
-24.2386

>  <SCORE.INTRA.DIHEDRAL.0>
42.0816

>  <SCORE.INTRA.POLAR>
-0.288075

>  <SCORE.INTRA.POLAR.0>
-0.254682

>  <SCORE.INTRA.REPUL>
0.0194544

>  <SCORE.INTRA.REPUL.0>
0

>  <SCORE.INTRA.SOLV>
-1.9143

>  <SCORE.INTRA.SOLV.lig_0>
-109.803

>  <SCORE.INTRA.VDW>
0.582018

>  <SCORE.INTRA.VDW.0>
0.32176

>  <SCORE.INTRA.norm>
-0.393429

>  <SCORE.RESTR>
0.167238

>  <SCORE.RESTR.CAVITY>
0.167238

>  <SCORE.RESTR.norm>
0.00491877

>  <SCORE.SYSTEM>
0

>  <SCORE.SYSTEM.CONST>
0

>  <SCORE.SYSTEM.DIHEDRAL>
0

>  <SCORE.SYSTEM.SOLV>
0

>  <SCORE.SYSTEM.norm>
0

>  <SCORE.heavy>
34

>  <SCORE.norm>
-1.30695

>  <RMSD>
8.083

$$$$
1mwl
 OpenBabel11021811403D
libRbt.so/2013.1/901 2013/11/27
 34 36  0  0  0  0  0  0  0  0999 V2000
  -16.2480    6.5245   17.1205 C   0  0  2  0  0  0  0  0  0  0  0  0
  -15.7181    5.8908   15.9952 O   0  0  0  0  0  0  0  0  0  0  0  0
  -17.1449    7.6909   16.6186 C   0  0  2  0  0  0  0  0  0  0  0  0
  -18.2086    7.1737   15.7523 N   0  3  0  0  0  0  0  0  0  0  0  0
  -16.2884    8.7668   15.8891 C   0  0  1  0  0  0  0  0  0  0  0  0
  -17.0607    9.8005   15.4705 O   0  0  0  0  0  0  0  0  0  0  0  0
  -15.1742    9.2654   16.8676 C   0  0  2  0  0  0  0  0  0  0  0  0
  -14.3652   10.2734   16.2260 O   0  0  0  0  0  0  0  0  0  0  0  0
  -14.3091    8.0327   17.2989 C   0  0  2  0  0  0  0  0  0  0  0  0
  -15.1595    7.0100   17.9472 O   0  0  0  0  0  0  0  0  0  0  0  0
  -13.1801    8.3567   18.2839 C   0  0  2  0  0  0  0  0  0  0  0  0
  -13.6568    9.1990   19.2822 O   0  0  0  0  0  0  0  0  0  0  0  0
  -11.9881    9.0858   17.6374 C   0  0  0  0  0  0  0  0  0  0  0  0
  -12.1924    5.6153   13.5966 C   0  0  2  0  0  0  0  0  0  0  0  0
  -10.9025    5.9672   12.9502 N   0  3  0  0  0  0  0  0  0  0  0  0
  -13.3202    6.5881   13.1408 C   0  0  0  0  0  0  0  0  0  0  0  0
  -14.6762    6.2186   13.8444 C   0  0  2  0  0  0  0  0  0  0  0  0
  -15.7494    7.1706   13.3768 N   0  3  0  0  0  0  0  0  0  0  0  0
  -14.4864    6.2772   15.3990 C   0  0  2  0  0  0  0  0  0  0  0  0
  -13.3667    5.2947   15.8209 C   0  0  2  0  0  0  0  0  0  0  0  0
  -13.1821    5.3809   17.2132 O   0  0  0  0  0  0  0  0  0  0  0  0
  -12.0318    5.6826   15.1303 C   0  0  1  0  0  0  0  0  0  0  0  0
  -11.0201    4.7712   15.5330 O   0  0  0  0  0  0  0  0  0  0  0  0
   -9.7210    5.2556   15.7338 C   0  0  2  0  0  0  0  0  0  0  0  0
   -8.8272    4.0502   16.0819 C   0  0  2  0  0  0  0  0  0  0  0  0
   -8.8324    3.1456   14.9983 O   0  0  0  0  0  0  0  0  0  0  0  0
   -9.3725    3.3657   17.3816 C   0  0  1  0  0  0  0  0  0  0  0  0
   -8.5809    2.1728   17.7696 N   0  3  0  0  0  0  0  0  0  0  0  0
   -9.4737    1.0343   18.1054 C   0  0  0  0  0  0  0  0  0  0  0  0
   -9.3752    4.4095   18.5509 C   0  0  2  0  0  0  0  0  0  0  0  0
   -8.0357    4.8807   18.7901 O   0  0  0  0  0  0  0  0  0  0  0  0
   -9.8661    3.8377   19.7916 C   0  0  0  0  0  0  0  0  0  0  0  0
  -10.2113    5.6631   18.1475 C   0  0  0  0  0  0  0  0  0  0  0  0
   -9.7249    6.2232   16.8442 O   0  0  0  0  0  0  0  0  0  0  0  0
  1  2  1  6  0  0  0
  1  3  1  0  0  0  0
  1 10  1  0  0  0  0
  3  4  1  6  0  0  0
  3  5  1  0  0  0  0
  5  6  1  1  0  0  0
  5  7  1  0  0  0  0
  7  8  1  6  0  0  0
  7  9  1  0  0  0  0
  9 10  1  1  0  0  0
  9 11  1  0  0  0  0
 11 12  1  1  0  0  0
 11 13  1  0  0  0  0
 14 15  1  6  0  0  0
 14 16  1  0  0  0  0
 14 22  1  0  0  0  0
 16 17  1  0  0  0  0
 17 18  1  6  0  0  0
 17 19  1  0  0  0  0
 19  2  1  1  0  0  0
 19 20  1  0  0  0  0
 20 21  1  1  0  0  0
 20 22  1  0  0  0  0
 22 23  1  1  0  0  0
 24 23  1  1  0  0  0
 24 25  1  0  0  0  0
 24 34  1  0  0  0  0
 25 26  1  6  0  0  0
 25 27  1  0  0  0  0
 27 28  1  1  0  0  0
 27 30  1  0  0  0  0
 28 29  1  0  0  0  0
 30 31  1  1  0  0  0
 30 32  1  0  0  0  0
 30 33  1  0  0  0  0
 33 34  1  0  0  0  0
M  CHG  4   4   1  15   1  18   1  28   1
M  END
>  <CHROM.1>
89.84083743,-139.31990070,80.18293873,-145.66288016,46.02125294,44.63074716
57.39503327,-40.63550253,-57.49240924,60.10519126,96.70293698,-176.85634159
173.36538954,-13.61345292,-178.84871454,-12.69368230,6.19500933,16.42627551
-3.07656400,0.59921946,-1.96754772

>  <Name>
1mwl

>  <RI>
0

>  <Rbt.Current_Directory>
/home/itssahil/PROJECTS/Mol_Feturizer/New_Systems/rnas/1mwl

>  <Rbt.Executable>
rbdock ($Id: //depot/dev/client3/rdock/2013.1/src/exe/rbdock.cxx#4 $)

>  <Rbt.Library>
libRbt.so (2013.1, Build901 2013/11/27)

>  <Rbt.Parameter_File>
/export/apps/rDock/src/rDock_2013.1_src/data/scripts/dock_solv.prm

>  <Rbt.Receptor>
prm/pocket_docking_8.prm

>  <SCORE>
-47.587

>  <SCORE.INTER>
-41.4527

>  <SCORE.INTER.CONST>
1

>  <SCORE.INTER.POLAR>
-7.62384

>  <SCORE.INTER.ROT>
6

>  <SCORE.INTER.SOLV>
25.6784

>  <SCORE.INTER.VDW>
-18.3818

>  <SCORE.INTER.norm>
-1.2192

>  <SCORE.INTRA>
-6.13436

>  <SCORE.INTRA.DIHEDRAL>
-16.7098

>  <SCORE.INTRA.DIHEDRAL.0>
42.0816

>  <SCORE.INTRA.POLAR>
0.112673

>  <SCORE.INTRA.POLAR.0>
-0.254682

>  <SCORE.INTRA.REPUL>
0

>  <SCORE.INTRA.REPUL.0>
0

>  <SCORE.INTRA.SOLV>
5.65821

>  <SCORE.INTRA.SOLV.lig_0>
-109.803

>  <SCORE.INTRA.VDW>
-0.991638

>  <SCORE.INTRA.VDW.0>
0.32176

>  <SCORE.INTRA.norm>
-0.180422

>  <SCORE.RESTR>
0

>  <SCORE.RESTR.CAVITY>
0

>  <SCORE.RESTR.norm>
0

>  <SCORE.SYSTEM>
0

>  <SCORE.SYSTEM.CONST>
0

>  <SCORE.SYSTEM.DIHEDRAL>
0

>  <SCORE.SYSTEM.SOLV>
0

>  <SCORE.SYSTEM.norm>
0

>  <SCORE.heavy>
34

>  <SCORE.norm>
-1.39962

>  <RMSD>
8.099

$$$$
1mwl
 OpenBabel11021811403D
libRbt.so/2013.1/901 2013/11/27
 34 36  0  0  0  0  0  0  0  0999 V2000
  -16.8572    6.2320   18.9159 C   0  0  2  0  0  0  0  0  0  0  0  0
  -16.8916    6.4901   17.5444 O   0  0  0  0  0  0  0  0  0  0  0  0
  -18.3149    6.3373   19.4460 C   0  0  2  0  0  0  0  0  0  0  0  0
  -19.1768    5.3783   18.7483 N   0  3  0  0  0  0  0  0  0  0  0  0
  -18.8476    7.7929   19.3008 C   0  0  1  0  0  0  0  0  0  0  0  0
  -20.1104    7.8984   19.7850 O   0  0  0  0  0  0  0  0  0  0  0  0
  -17.8780    8.7572   20.0608 C   0  0  2  0  0  0  0  0  0  0  0  0
  -18.3479   10.1175   19.9553 O   0  0  0  0  0  0  0  0  0  0  0  0
  -16.4458    8.6017   19.4457 C   0  0  2  0  0  0  0  0  0  0  0  0
  -15.9878    7.1992   19.5583 O   0  0  0  0  0  0  0  0  0  0  0  0
  -15.3689    9.4717   20.1041 C   0  0  2  0  0  0  0  0  0  0  0  0
  -15.7296   10.8115   20.0142 O   0  0  0  0  0  0  0  0  0  0  0  0
  -13.9864    9.3517   19.4371 C   0  0  0  0  0  0  0  0  0  0  0  0
  -14.1187    5.7547   14.3775 C   0  0  2  0  0  0  0  0  0  0  0  0
  -12.9108    5.8479   13.5185 N   0  3  0  0  0  0  0  0  0  0  0  0
  -14.9022    7.1008   14.3738 C   0  0  0  0  0  0  0  0  0  0  0  0
  -16.1678    6.9975   15.2999 C   0  0  2  0  0  0  0  0  0  0  0  0
  -16.9100    8.3109   15.2686 N   0  3  0  0  0  0  0  0  0  0  0  0
  -15.7175    6.6205   16.7530 C   0  0  2  0  0  0  0  0  0  0  0  0
  -14.9503    5.2760   16.7245 C   0  0  2  0  0  0  0  0  0  0  0  0
  -14.5220    4.9652   18.0283 O   0  0  0  0  0  0  0  0  0  0  0  0
  -13.6958    5.3997   15.8189 C   0  0  1  0  0  0  0  0  0  0  0  0
  -13.0072    4.1578   15.8096 O   0  0  0  0  0  0  0  0  0  0  0  0
  -13.5993    3.0663   15.1609 C   0  0  2  0  0  0  0  0  0  0  0  0
  -13.4471    1.8424   16.0837 C   0  0  2  0  0  0  0  0  0  0  0  0
  -14.1226    2.0945   17.2972 O   0  0  0  0  0  0  0  0  0  0  0  0
  -11.9239    1.5782   16.3385 C   0  0  1  0  0  0  0  0  0  0  0  0
  -11.6913    0.4284   17.2461 N   0  3  0  0  0  0  0  0  0  0  0  0
  -10.6295    0.7442   18.2354 C   0  0  0  0  0  0  0  0  0  0  0  0
  -11.2078    1.3301   14.9664 C   0  0  2  0  0  0  0  0  0  0  0  0
  -11.7844    0.1838   14.3131 O   0  0  0  0  0  0  0  0  0  0  0  0
   -9.7886    1.0726   15.1303 C   0  0  0  0  0  0  0  0  0  0  0  0
  -11.4465    2.5402   14.0115 C   0  0  0  0  0  0  0  0  0  0  0  0
  -12.9127    2.8260   13.8801 O   0  0  0  0  0  0  0  0  0  0  0  0
  1  2  1  6  0  0  0
  1  3  1  0  0  0  0
  1 10  1  0  0  0  0
  3  4  1  6  0  0  0
  3  5  1  0  0  0  0
  5  6  1  1  0  0  0
  5  7  1  0  0  0  0
  7  8  1  6  0  0  0
  7  9  1  0  0  0  0
  9 10  1  1  0  0  0
  9 11  1  0  0  0  0
 11 12  1  6  0  0  0
 11 13  1  0  0  0  0
 14 15  1  6  0  0  0
 14 16  1  0  0  0  0
 14 22  1  0  0  0  0
 16 17  1  0  0  0  0
 17 18  1  1  0  0  0
 17 19  1  0  0  0  0
 19  2  1  1  0  0  0
 19 20  1  0  0  0  0
 20 21  1  1  0  0  0
 20 22  1  0  0  0  0
 22 23  1  6  0  0  0
 24 23  1  1  0  0  0
 24 25  1  0  0  0  0
 24 34  1  0  0  0  0
 25 26  1  1  0  0  0
 25 27  1  0  0  0  0
 27 28  1  1  0  0  0
 27 30  1  0  0  0  0
 28 29  1  0  0  0  0
 30 31  1  6  0  0  0
 30 32  1  0  0  0  0
 30 33  1  0  0  0  0
 33 34  1  0  0  0  0
M  CHG  4   4   1  15   1  18   1  28   1
M  END
>  <CHROM.1>
173.06191930,-176.33898155,158.29037459,62.37406131,-172.92591241,-58.42444138
-59.44305369,-175.85624110,44.59240402,-57.87096579,-50.60644289,-135.30013065
62.18763973,-17.00012866,-61.70511240,-14.82880398,5.37956841,17.10234335
2.88009044,0.91655828,-0.72726540

>  <Name>
1mwl

>  <RI>
0

>  <Rbt.Current_Directory>
/home/itssahil/PROJECTS/Mol_Feturizer/New_Systems/rnas/1mwl

>  <Rbt.Executable>
rbdock ($Id: //depot/dev/client3/rdock/2013.1/src/exe/rbdock.cxx#4 $)

>  <Rbt.Library>
libRbt.so (2013.1, Build901 2013/11/27)

>  <Rbt.Parameter_File>
/export/apps/rDock/src/rDock_2013.1_src/data/scripts/dock_solv.prm

>  <Rbt.Receptor>
prm/pocket_docking_7.prm

>  <SCORE>
-43.3806

>  <SCORE.INTER>
-24.2652

>  <SCORE.INTER.CONST>
1

>  <SCORE.INTER.POLAR>
-5.02112

>  <SCORE.INTER.ROT>
6

>  <SCORE.INTER.SOLV>
11.1271

>  <SCORE.INTER.VDW>
-10.7488

>  <SCORE.INTER.norm>
-0.713683

>  <SCORE.INTRA>
-19.1154

>  <SCORE.INTRA.DIHEDRAL>
-30.2722

>  <SCORE.INTRA.DIHEDRAL.0>
42.0816

>  <SCORE.INTRA.POLAR>
-0.402079

>  <SCORE.INTRA.POLAR.0>
-0.254682

>  <SCORE.INTRA.REPUL>
0

>  <SCORE.INTRA.REPUL.0>
0

>  <SCORE.INTRA.SOLV>
-1.9751

>  <SCORE.INTRA.SOLV.lig_0>
-109.803

>  <SCORE.INTRA.VDW>
-1.62464

>  <SCORE.INTRA.VDW.0>
0.32176

>  <SCORE.INTRA.norm>
-0.562216

>  <SCORE.RESTR>
0

>  <SCORE.RESTR.CAVITY>
0

>  <SCORE.RESTR.norm>
0

>  <SCORE.SYSTEM>
0

>  <SCORE.SYSTEM.CONST>
0

>  <SCORE.SYSTEM.DIHEDRAL>
0

>  <SCORE.SYSTEM.SOLV>
0

>  <SCORE.SYSTEM.norm>
0

>  <SCORE.heavy>
34

>  <SCORE.norm>
-1.2759

>  <RMSD>
8.133

$$$$
1mwl
 OpenBabel11021811403D
libRbt.so/2013.1/901 2013/11/27
 34 36  0  0  0  0  0  0  0  0999 V2000
  -14.4048    8.4365   17.2931 C   0  0  2  0  0  0  0  0  0  0  0  0
  -14.6538    8.6446   18.6508 O   0  0  0  0  0  0  0  0  0  0  0  0
  -15.6131    9.0150   16.5043 C   0  0  2  0  0  0  0  0  0  0  0  0
  -15.7734   10.4419   16.8005 N   0  3  0  0  0  0  0  0  0  0  0  0
  -16.9107    8.2171   16.8254 C   0  0  1  0  0  0  0  0  0  0  0  0
  -17.9647    8.7000   16.1211 O   0  0  0  0  0  0  0  0  0  0  0  0
  -16.6639    6.7084   16.4931 C   0  0  2  0  0  0  0  0  0  0  0  0
  -17.8525    5.9386   16.7702 O   0  0  0  0  0  0  0  0  0  0  0  0
  -15.4506    6.2073   17.3479 C   0  0  2  0  0  0  0  0  0  0  0  0
  -14.2462    7.0147   17.0531 O   0  0  0  0  0  0  0  0  0  0  0  0
  -15.0667    4.7414   17.1161 C   0  0  2  0  0  0  0  0  0  0  0  0
  -15.0488    4.4720   15.7521 O   0  0  0  0  0  0  0  0  0  0  0  0
  -16.0544    3.7391   17.7407 C   0  0  0  0  0  0  0  0  0  0  0  0
  -10.7612    8.1857   20.3527 C   0  0  2  0  0  0  0  0  0  0  0  0
   -9.6747    8.0405   21.3546 N   0  3  0  0  0  0  0  0  0  0  0  0
  -11.4796    9.5582   20.5144 C   0  0  0  0  0  0  0  0  0  0  0  0
  -12.6389    9.6941   19.4620 C   0  0  2  0  0  0  0  0  0  0  0  0
  -13.3087   11.0348   19.6369 N   0  3  0  0  0  0  0  0  0  0  0  0
  -13.6506    8.5118   19.6496 C   0  0  2  0  0  0  0  0  0  0  0  0
  -12.9092    7.1639   19.4746 C   0  0  2  0  0  0  0  0  0  0  0  0
  -13.8196    6.1104   19.6788 O   0  0  0  0  0  0  0  0  0  0  0  0
  -11.7786    7.0387   20.5307 C   0  0  1  0  0  0  0  0  0  0  0  0
  -11.1149    5.7959   20.3535 O   0  0  0  0  0  0  0  0  0  0  0  0
  -10.5715    5.1585   21.4765 C   0  0  2  0  0  0  0  0  0  0  0  0
   -9.8416    3.8951   20.9825 C   0  0  2  0  0  0  0  0  0  0  0  0
   -8.8026    4.2770   20.1066 O   0  0  0  0  0  0  0  0  0  0  0  0
  -10.8680    2.9609   20.2553 C   0  0  1  0  0  0  0  0  0  0  0  0
  -10.2358    1.7300   19.7214 N   0  3  0  0  0  0  0  0  0  0  0  0
  -10.4915    1.5956   18.2645 C   0  0  0  0  0  0  0  0  0  0  0  0
  -12.0166    2.5830   21.2528 C   0  0  2  0  0  0  0  0  0  0  0  0
  -11.4693    1.8904   22.3904 O   0  0  0  0  0  0  0  0  0  0  0  0
  -13.0039    1.7109   20.6429 C   0  0  0  0  0  0  0  0  0  0  0  0
  -12.6868    3.8757   21.8121 C   0  0  0  0  0  0  0  0  0  0  0  0
  -11.6554    4.7900   22.4032 O   0  0  0  0  0  0  0  0  0  0  0  0
  1  2  1  1  0  0  0
  1  3  1  0  0  0  0
  1 10  1  0  0  0  0
  3  4  1  1  0  0  0
  3  5  1  0  0  0  0
  5  6  1  6  0  0  0
  5  7  1  0  0  0  0
  7  8  1  1  0  0  0
  7  9  1  0  0  0  0
  9 10  1  6  0  0  0
  9 11  1  0  0  0  0
 11 12  1  6  0  0  0
 11 13  1  0  0  0  0
 14 15  1  1  0  0  0
 14 16  1  0  0  0  0
 14 22  1  0  0  0  0
 16 17  1  0  0  0  0
 17 18  1  1  0  0  0
 17 19  1  0  0  0  0
 19  2  1  6  0  0  0
 19 20  1  0  0  0  0
 20 21  1  1  0  0  0
 20 22  1  0  0  0  0
 22 23  1  6  0  0  0
 24 23  1  6  0  0  0
 24 25  1  0  0  0  0
 24 34  1  0  0  0  0
 25 26  1  6  0  0  0
 25 27  1  0  0  0  0
 27 28  1  1  0  0  0
 27 30  1  0  0  0  0
 28 29  1  0  0  0  0
 30 31  1  1  0  0  0
 30 32  1  0  0  0  0
 30 33  1  0  0  0  0
 33 34  1  0  0  0  0
M  CHG  4   4   1  15   1  18   1  28   1
M  END
>  <CHROM.1>
-165.91305523,69.32765258,-25.66161890,62.21199560,39.46246254,45.10093543
71.08429145,-164.61116370,103.41230594,-178.09432159,91.22147595,-176.37190029
179.09703844,-4.25520086,176.50261240,-13.20155724,6.10971942,19.12753190
-2.51360087,0.64979113,-3.11628137

>  <Name>
1mwl

>  <RI>
0

>  <Rbt.Current_Directory>
/home/itssahil/PROJECTS/Mol_Feturizer/New_Systems/rnas/1mwl

>  <Rbt.Executable>
rbdock ($Id: //depot/dev/client3/rdock/2013.1/src/exe/rbdock.cxx#4 $)

>  <Rbt.Library>
libRbt.so (2013.1, Build901 2013/11/27)

>  <Rbt.Parameter_File>
/export/apps/rDock/src/rDock_2013.1_src/data/scripts/dock_solv.prm

>  <Rbt.Receptor>
prm/pocket_docking_8.prm

>  <SCORE>
-53.5954

>  <SCORE.INTER>
-40.4141

>  <SCORE.INTER.CONST>
1

>  <SCORE.INTER.POLAR>
-7.46008

>  <SCORE.INTER.ROT>
6

>  <SCORE.INTER.SOLV>
15.3816

>  <SCORE.INTER.VDW>
-14.803

>  <SCORE.INTER.norm>
-1.18865

>  <SCORE.INTRA>
-13.1812

>  <SCORE.INTRA.DIHEDRAL>
-24.2005

>  <SCORE.INTRA.DIHEDRAL.0>
42.0816

>  <SCORE.INTRA.POLAR>
0.152132

>  <SCORE.INTRA.POLAR.0>
-0.254682

>  <SCORE.INTRA.REPUL>
0.0820008

>  <SCORE.INTRA.REPUL.0>
0

>  <SCORE.INTRA.SOLV>
0.885014

>  <SCORE.INTRA.SOLV.lig_0>
-109.803

>  <SCORE.INTRA.VDW>
-2.45076

>  <SCORE.INTRA.VDW.0>
0.32176

>  <SCORE.INTRA.norm>
-0.387684

>  <SCORE.RESTR>
0

>  <SCORE.RESTR.CAVITY>
0

>  <SCORE.RESTR.norm>
0

>  <SCORE.SYSTEM>
0

>  <SCORE.SYSTEM.CONST>
0

>  <SCORE.SYSTEM.DIHEDRAL>
0

>  <SCORE.SYSTEM.SOLV>
0

>  <SCORE.SYSTEM.norm>
0

>  <SCORE.heavy>
34

>  <SCORE.norm>
-1.57633

>  <RMSD>
8.167

$$$$
1mwl
 OpenBabel11021811403D
libRbt.so/2013.1/901 2013/11/27
 34 36  0  0  0  0  0  0  0  0999 V2000
  -15.2287    7.9371   16.6012 C   0  0  2  0  0  0  0  0  0  0  0  0
  -15.8340    6.7584   17.0407 O   0  0  0  0  0  0  0  0  0  0  0  0
  -15.4832    8.0486   15.0716 C   0  0  2  0  0  0  0  0  0  0  0  0
  -16.9236    8.0595   14.7985 N   0  3  0  0  0  0  0  0  0  0  0  0
  -14.7676    6.8943   14.3108 C   0  0  1  0  0  0  0  0  0  0  0  0
  -14.9639    6.9996   12.9726 O   0  0  0  0  0  0  0  0  0  0  0  0
  -13.2421    6.9405   14.6546 C   0  0  2  0  0  0  0  0  0  0  0  0
  -12.5442    5.8877   13.9568 O   0  0  0  0  0  0  0  0  0  0  0  0
  -13.0817    6.7968   16.2062 C   0  0  2  0  0  0  0  0  0  0  0  0
  -13.8105    7.8814   16.9005 O   0  0  0  0  0  0  0  0  0  0  0  0
  -11.6338    6.8470   16.7072 C   0  0  2  0  0  0  0  0  0  0  0  0
  -10.9283    5.7568   16.2104 O   0  0  0  0  0  0  0  0  0  0  0  0
  -11.5091    6.7791   18.2402 C   0  0  0  0  0  0  0  0  0  0  0  0
  -15.4315    7.0618   21.2840 C   0  0  2  0  0  0  0  0  0  0  0  0
  -15.6002    6.7880   22.7338 N   0  3  0  0  0  0  0  0  0  0  0  0
  -16.7879    7.4764   20.6404 C   0  0  0  0  0  0  0  0  0  0  0  0
  -16.6023    7.7458   19.1032 C   0  0  2  0  0  0  0  0  0  0  0  0
  -17.9287    8.1537   18.5106 N   0  3  0  0  0  0  0  0  0  0  0  0
  -16.0319    6.4578   18.4163 C   0  0  2  0  0  0  0  0  0  0  0  0
  -14.6816    6.0770   19.0711 C   0  0  2  0  0  0  0  0  0  0  0  0
  -14.1963    4.9009   18.4698 O   0  0  0  0  0  0  0  0  0  0  0  0
  -14.8851    5.7990   20.5845 C   0  0  1  0  0  0  0  0  0  0  0  0
  -13.6362    5.4497   21.1632 O   0  0  0  0  0  0  0  0  0  0  0  0
  -13.6160    4.9746   22.4810 C   0  0  2  0  0  0  0  0  0  0  0  0
  -12.2327    4.3414   22.7225 C   0  0  2  0  0  0  0  0  0  0  0  0
  -11.2393    5.3313   22.5616 O   0  0  0  0  0  0  0  0  0  0  0  0
  -12.0205    3.1688   21.7053 C   0  0  1  0  0  0  0  0  0  0  0  0
  -10.6936    2.5224   21.8529 N   0  3  0  0  0  0  0  0  0  0  0  0
   -9.6205    3.3907   21.3046 C   0  0  0  0  0  0  0  0  0  0  0  0
  -13.1572    2.1070   21.8991 C   0  0  2  0  0  0  0  0  0  0  0  0
  -13.1157    1.5841   23.2400 O   0  0  0  0  0  0  0  0  0  0  0  0
  -13.0178    0.9859   20.9875 C   0  0  0  0  0  0  0  0  0  0  0  0
  -14.5539    2.7830   21.7393 C   0  0  0  0  0  0  0  0  0  0  0  0
  -14.6745    3.9651   22.6542 O   0  0  0  0  0  0  0  0  0  0  0  0
  1  2  1  6  0  0  0
  1  3  1  0  0  0  0
  1 10  1  0  0  0  0
  3  4  1  1  0  0  0
  3  5  1  0  0  0  0
  5  6  1  6  0  0  0
  5  7  1  0  0  0  0
  7  8  1  6  0  0  0
  7  9  1  0  0  0  0
  9 10  1  1  0  0  0
  9 11  1  0  0  0  0
 11 12  1  6  0  0  0
 11 13  1  0  0  0  0
 14 15  1  1  0  0  0
 14 16  1  0  0  0  0
 14 22  1  0  0  0  0
 16 17  1  0  0  0  0
 17 18  1  6  0  0  0
 17 19  1  0  0  0  0
 19  2  1  6  0  0  0
 19 20  1  0  0  0  0
 20 21  1  6  0  0  0
 20 22  1  0  0  0  0
 22 23  1  1  0  0  0
 24 23  1  6  0  0  0
 24 25  1  0  0  0  0
 24 34  1  0  0  0  0
 25 26  1  6  0  0  0
 25 27  1  0  0  0  0
 27 28  1  1  0  0  0
 27 30  1  0  0  0  0
 28 29  1  0  0  0  0
 30 31  1  1  0  0  0
 30 32  1  0  0  0  0
 30 33  1  0  0  0  0
 33 34  1  0  0  0  0
M  CHG  4   4   1  15   1  18   1  28   1
M  END
>  <CHROM.1>
-167.36420729,45.44297200,24.27765113,-71.90737700,-54.60445785,-64.33246460
58.55491062,92.46413105,-100.16574598,-176.46331702,68.72572838,165.63062382
62.05493330,45.83898406,59.02762675,-13.92528389,5.65520736,19.00875839,1.87741025
0.52980261,-1.21461872

>  <Name>
1mwl

>  <RI>
0

>  <Rbt.Current_Directory>
/home/itssahil/PROJECTS/Mol_Feturizer/New_Systems/rnas/1mwl

>  <Rbt.Executable>
rbdock ($Id: //depot/dev/client3/rdock/2013.1/src/exe/rbdock.cxx#4 $)

>  <Rbt.Library>
libRbt.so (2013.1, Build901 2013/11/27)

>  <Rbt.Parameter_File>
/export/apps/rDock/src/rDock_2013.1_src/data/scripts/dock_solv.prm

>  <Rbt.Receptor>
prm/pocket_docking_8.prm

>  <SCORE>
-42.119

>  <SCORE.INTER>
-24.3098

>  <SCORE.INTER.CONST>
1

>  <SCORE.INTER.POLAR>
-4.55569

>  <SCORE.INTER.ROT>
6

>  <SCORE.INTER.SOLV>
13.058

>  <SCORE.INTER.VDW>
-12.9736

>  <SCORE.INTER.norm>
-0.714995

>  <SCORE.INTRA>
-17.8092

>  <SCORE.INTRA.DIHEDRAL>
-30.4008

>  <SCORE.INTRA.DIHEDRAL.0>
42.0816

>  <SCORE.INTRA.POLAR>
-0.942052

>  <SCORE.INTRA.POLAR.0>
-0.254682

>  <SCORE.INTRA.REPUL>
0

>  <SCORE.INTRA.REPUL.0>
0

>  <SCORE.INTRA.SOLV>
1.73954

>  <SCORE.INTRA.SOLV.lig_0>
-109.803

>  <SCORE.INTRA.VDW>
-0.275525

>  <SCORE.INTRA.VDW.0>
0.32176

>  <SCORE.INTRA.norm>
-0.523799

>  <SCORE.RESTR>
0

>  <SCORE.RESTR.CAVITY>
0

>  <SCORE.RESTR.norm>
0

>  <SCORE.SYSTEM>
0

>  <SCORE.SYSTEM.CONST>
0

>  <SCORE.SYSTEM.DIHEDRAL>
0

>  <SCORE.SYSTEM.SOLV>
0

>  <SCORE.SYSTEM.norm>
0

>  <SCORE.heavy>
34

>  <SCORE.norm>
-1.23879

>  <RMSD>
8.216

$$$$
1mwl
 OpenBabel11021811403D
libRbt.so/2013.1/901 2013/11/27
 34 36  0  0  0  0  0  0  0  0999 V2000
  -15.9823    8.2781   17.3654 C   0  0  2  0  0  0  0  0  0  0  0  0
  -15.3741    8.6673   16.1707 O   0  0  0  0  0  0  0  0  0  0  0  0
  -17.4699    8.7247   17.2974 C   0  0  2  0  0  0  0  0  0  0  0  0
  -18.1300    8.1089   16.1422 N   0  3  0  0  0  0  0  0  0  0  0  0
  -17.5752   10.2773   17.2531 C   0  0  1  0  0  0  0  0  0  0  0  0
  -18.8715   10.6754   17.2195 O   0  0  0  0  0  0  0  0  0  0  0  0
  -16.8457   10.8628   18.5072 C   0  0  2  0  0  0  0  0  0  0  0  0
  -16.9323   12.3032   18.5038 O   0  0  0  0  0  0  0  0  0  0  0  0
  -15.3546   10.3834   18.4788 C   0  0  2  0  0  0  0  0  0  0  0  0
  -15.2903    8.9051   18.4753 O   0  0  0  0  0  0  0  0  0  0  0  0
  -14.5070   10.8592   19.6641 C   0  0  2  0  0  0  0  0  0  0  0  0
  -13.1709   10.5462   19.4399 O   0  0  0  0  0  0  0  0  0  0  0  0
  -14.8871   10.1950   21.0000 C   0  0  0  0  0  0  0  0  0  0  0  0
  -12.6183    5.5068   15.3483 C   0  0  2  0  0  0  0  0  0  0  0  0
  -11.4439    4.7708   14.8148 N   0  3  0  0  0  0  0  0  0  0  0  0
  -13.5216    6.0183   14.1872 C   0  0  0  0  0  0  0  0  0  0  0  0
  -14.7511    6.8112   14.7615 C   0  0  2  0  0  0  0  0  0  0  0  0
  -15.6109    7.2850   13.6156 N   0  3  0  0  0  0  0  0  0  0  0  0
  -14.2353    8.0076   15.6326 C   0  0  2  0  0  0  0  0  0  0  0  0
  -13.3491    7.4669   16.7813 C   0  0  2  0  0  0  0  0  0  0  0  0
  -12.8645    8.5515   17.5356 O   0  0  0  0  0  0  0  0  0  0  0  0
  -12.1320    6.7006   16.1974 C   0  0  1  0  0  0  0  0  0  0  0  0
  -11.3331    6.2165   17.2669 O   0  0  0  0  0  0  0  0  0  0  0  0
  -10.1086    6.8449   17.5284 C   0  0  2  0  0  0  0  0  0  0  0  0
   -9.0040    5.7803   17.3888 C   0  0  2  0  0  0  0  0  0  0  0  0
   -9.0080    5.2838   16.0674 O   0  0  0  0  0  0  0  0  0  0  0  0
   -9.2687    4.6285   18.4174 C   0  0  1  0  0  0  0  0  0  0  0  0
   -8.2611    3.5438   18.3266 N   0  3  0  0  0  0  0  0  0  0  0  0
   -8.6399    2.5588   17.2814 C   0  0  0  0  0  0  0  0  0  0  0  0
   -9.2828    5.2256   19.8667 C   0  0  2  0  0  0  0  0  0  0  0  0
   -8.0119    5.8370   20.1570 O   0  0  0  0  0  0  0  0  0  0  0  0
   -9.5190    4.2074   20.8740 C   0  0  0  0  0  0  0  0  0  0  0  0
  -10.3453    6.3633   19.9665 C   0  0  0  0  0  0  0  0  0  0  0  0
  -10.1197    7.3897   18.8968 O   0  0  0  0  0  0  0  0  0  0  0  0
  1  2  1  6  0  0  0
  1  3  1  0  0  0  0
  1 10  1  0  0  0  0
  3  4  1  6  0  0  0
  3  5  1  0  0  0  0
  5  6  1  1  0  0  0
  5  7  1  0  0  0  0
  7  8  1  6  0  0  0
  7  9  1  0  0  0  0
  9 10  1  1  0  0  0
  9 11  1  0  0  0  0
 11 12  1  6  0  0  0
 11 13  1  0  0  0  0
 14 15  1  6  0  0  0
 14 16  1  0  0  0  0
 14 22  1  0  0  0  0
 16 17  1  0  0  0  0
 17 18  1  6  0  0  0
 17 19  1  0  0  0  0
 19  2  1  1  0  0  0
 19 20  1  0  0  0  0
 20 21  1  6  0  0  0
 20 22  1  0  0  0  0
 22 23  1  1  0  0  0
 24 23  1  1  0  0  0
 24 25  1  0  0  0  0
 24 34  1  0  0  0  0
 25 26  1  6  0  0  0
 25 27  1  0  0  0  0
 27 28  1  1  0  0  0
 27 30  1  0  0  0  0
 28 29  1  0  0  0  0
 30 31  1  1  0  0  0
 30 32  1  0  0  0  0
 30 33  1  0  0  0  0
 33 34  1  0  0  0  0
M  CHG  4   4   1  15   1  18   1  28   1
M  END
>  <CHROM.1>
-154.09158070,86.84719953,-90.27052002,60.63789429,-59.23883753,-171.33289398
59.39600957,-81.62170008,-127.80694685,-57.83827770,133.21774231,-120.66795275
169.36785986,34.45964540,-56.03866834,-13.04884729,7.47352745,17.52880769
2.88847993,-0.54765367,0.97964716

>  <Name>
1mwl

>  <RI>
0

>  <Rbt.Current_Directory>
/home/itssahil/PROJECTS/Mol_Feturizer/New_Systems/rnas/1mwl

>  <Rbt.Executable>
rbdock ($Id: //depot/dev/client3/rdock/2013.1/src/exe/rbdock.cxx#4 $)

>  <Rbt.Library>
libRbt.so (2013.1, Build901 2013/11/27)

>  <Rbt.Parameter_File>
/export/apps/rDock/src/rDock_2013.1_src/data/scripts/dock_solv.prm

>  <Rbt.Receptor>
prm/pocket_docking_7.prm

>  <SCORE>
-49.2861

>  <SCORE.INTER>
-39.2446

>  <SCORE.INTER.CONST>
1

>  <SCORE.INTER.POLAR>
-7.54482

>  <SCORE.INTER.ROT>
6

>  <SCORE.INTER.SOLV>
21.9701

>  <SCORE.INTER.VDW>
-15.9371

>  <SCORE.INTER.norm>
-1.15425

>  <SCORE.INTRA>
-10.0415

>  <SCORE.INTRA.DIHEDRAL>
-13.9277

>  <SCORE.INTRA.DIHEDRAL.0>
42.0816

>  <SCORE.INTRA.POLAR>
-0.916121

>  <SCORE.INTRA.POLAR.0>
-0.254682

>  <SCORE.INTRA.REPUL>
0

>  <SCORE.INTRA.REPUL.0>
0

>  <SCORE.INTRA.SOLV>
3.78052

>  <SCORE.INTRA.SOLV.lig_0>
-109.803

>  <SCORE.INTRA.VDW>
-1.85313

>  <SCORE.INTRA.VDW.0>
0.32176

>  <SCORE.INTRA.norm>
-0.295339

>  <SCORE.RESTR>
0

>  <SCORE.RESTR.CAVITY>
0

>  <SCORE.RESTR.norm>
0

>  <SCORE.SYSTEM>
0

>  <SCORE.SYSTEM.CONST>
0

>  <SCORE.SYSTEM.DIHEDRAL>
0

>  <SCORE.SYSTEM.SOLV>
0

>  <SCORE.SYSTEM.norm>
0

>  <SCORE.heavy>
34

>  <SCORE.norm>
-1.44959

>  <RMSD>
8.225

$$$$
1mwl
 OpenBabel11021811403D
libRbt.so/2013.1/901 2013/11/27
 34 36  0  0  0  0  0  0  0  0999 V2000
  -15.9714    7.8513   17.9452 C   0  0  2  0  0  0  0  0  0  0  0  0
  -15.7436    7.7162   16.5746 O   0  0  0  0  0  0  0  0  0  0  0  0
  -17.4933    7.6453   18.1867 C   0  0  2  0  0  0  0  0  0  0  0  0
  -17.9060    6.3219   17.7094 N   0  3  0  0  0  0  0  0  0  0  0  0
  -18.3151    8.7785   17.5057 C   0  0  1  0  0  0  0  0  0  0  0  0
  -19.6429    8.6197   17.7336 O   0  0  0  0  0  0  0  0  0  0  0  0
  -17.8171   10.1558   18.0559 C   0  0  2  0  0  0  0  0  0  0  0  0
  -18.5659   11.2313   17.4519 O   0  0  0  0  0  0  0  0  0  0  0  0
  -16.2868   10.2858   17.7470 C   0  0  2  0  0  0  0  0  0  0  0  0
  -15.5406    9.1699   18.3693 O   0  0  0  0  0  0  0  0  0  0  0  0
  -15.6409   11.5824   18.2485 C   0  0  2  0  0  0  0  0  0  0  0  0
  -14.2721   11.5478   18.0066 O   0  0  0  0  0  0  0  0  0  0  0  0
  -15.8056   11.8079   19.7625 C   0  0  0  0  0  0  0  0  0  0  0  0
  -12.0870    6.0252   15.1502 C   0  0  2  0  0  0  0  0  0  0  0  0
  -10.7249    5.9108   14.5696 N   0  3  0  0  0  0  0  0  0  0  0  0
  -13.0824    6.6146   14.1073 C   0  0  0  0  0  0  0  0  0  0  0  0
  -14.5161    6.7488   14.7372 C   0  0  2  0  0  0  0  0  0  0  0  0
  -15.4584    7.3124   13.7023 N   0  3  0  0  0  0  0  0  0  0  0  0
  -14.4400    7.6604   16.0097 C   0  0  2  0  0  0  0  0  0  0  0  0
  -13.4509    7.0443   17.0292 C   0  0  2  0  0  0  0  0  0  0  0  0
  -13.3651    7.8883   18.1519 O   0  0  0  0  0  0  0  0  0  0  0  0
  -12.0374    6.9335   16.3973 C   0  0  1  0  0  0  0  0  0  0  0  0
  -11.1476    6.3691   17.3492 O   0  0  0  0  0  0  0  0  0  0  0  0
  -11.0893    4.9746   17.4699 C   0  0  2  0  0  0  0  0  0  0  0  0
  -11.5917    4.6116   18.8801 C   0  0  2  0  0  0  0  0  0  0  0  0
  -12.9289    5.0426   19.0171 O   0  0  0  0  0  0  0  0  0  0  0  0
  -10.6725    5.3009   19.9455 C   0  0  1  0  0  0  0  0  0  0  0  0
  -11.1088    5.0240   21.3358 N   0  3  0  0  0  0  0  0  0  0  0  0
  -12.2849    5.8570   21.6948 C   0  0  0  0  0  0  0  0  0  0  0  0
   -9.1956    4.8166   19.7417 C   0  0  2  0  0  0  0  0  0  0  0  0
   -9.1216    3.3880   19.9056 O   0  0  0  0  0  0  0  0  0  0  0  0
   -8.2876    5.4151   20.7033 C   0  0  0  0  0  0  0  0  0  0  0  0
   -8.7324    5.1112   18.2817 C   0  0  0  0  0  0  0  0  0  0  0  0
   -9.6975    4.5254   17.2947 O   0  0  0  0  0  0  0  0  0  0  0  0
  1  2  1  6  0  0  0
  1  3  1  0  0  0  0
  1 10  1  0  0  0  0
  3  4  1  6  0  0  0
  3  5  1  0  0  0  0
  5  6  1  1  0  0  0
  5  7  1  0  0  0  0
  7  8  1  6  0  0  0
  7  9  1  0  0  0  0
  9 10  1  1  0  0  0
  9 11  1  0  0  0  0
 11 12  1  1  0  0  0
 11 13  1  0  0  0  0
 14 15  1  6  0  0  0
 14 16  1  0  0  0  0
 14 22  1  0  0  0  0
 16 17  1  0  0  0  0
 17 18  1  6  0  0  0
 17 19  1  0  0  0  0
 19  2  1  1  0  0  0
 19 20  1  0  0  0  0
 20 21  1  1  0  0  0
 20 22  1  0  0  0  0
 22 23  1  1  0  0  0
 24 23  1  1  0  0  0
 24 25  1  0  0  0  0
 24 34  1  0  0  0  0
 25 26  1  6  0  0  0
 25 27  1  0  0  0  0
 27 28  1  1  0  0  0
 27 30  1  0  0  0  0
 28 29  1  0  0  0  0
 30 31  1  1  0  0  0
 30 32  1  0  0  0  0
 30 33  1  0  0  0  0
 33 34  1  0  0  0  0
M  CHG  4   4   1  15   1  18   1  28   1
M  END
>  <CHROM.1>
-171.12662914,148.43334595,73.37401953,61.88527698,64.79061142,175.75867838
-50.03298777,62.28348120,141.58341656,-66.84868122,-35.85900613,-115.40452659
63.94528823,42.65858989,61.45077670,-13.67250344,7.21366275,17.79218802,3.10649660
0.58763026,-1.77955578

>  <Name>
1mwl

>  <RI>
0

>  <Rbt.Current_Directory>
/home/itssahil/PROJECTS/Mol_Feturizer/New_Systems/rnas/1mwl

>  <Rbt.Executable>
rbdock ($Id: //depot/dev/client3/rdock/2013.1/src/exe/rbdock.cxx#4 $)

>  <Rbt.Library>
libRbt.so (2013.1, Build901 2013/11/27)

>  <Rbt.Parameter_File>
/export/apps/rDock/src/rDock_2013.1_src/data/scripts/dock_solv.prm

>  <Rbt.Receptor>
prm/pocket_docking_6.prm

>  <SCORE>
-30.8729

>  <SCORE.INTER>
-18.7608

>  <SCORE.INTER.CONST>
1

>  <SCORE.INTER.POLAR>
-3.79896

>  <SCORE.INTER.ROT>
6

>  <SCORE.INTER.SOLV>
15.0187

>  <SCORE.INTER.VDW>
-12.4502

>  <SCORE.INTER.norm>
-0.551787

>  <SCORE.INTRA>
-12.1121

>  <SCORE.INTRA.DIHEDRAL>
-23.4195

>  <SCORE.INTRA.DIHEDRAL.0>
42.0816

>  <SCORE.INTRA.POLAR>
-0.427912

>  <SCORE.INTRA.POLAR.0>
-0.254682

>  <SCORE.INTRA.REPUL>
0.00111471

>  <SCORE.INTRA.REPUL.0>
0

>  <SCORE.INTRA.SOLV>
-1.95959

>  <SCORE.INTRA.SOLV.lig_0>
-109.803

>  <SCORE.INTRA.VDW>
2.02678

>  <SCORE.INTRA.VDW.0>
0.32176

>  <SCORE.INTRA.norm>
-0.356238

>  <SCORE.RESTR>
0

>  <SCORE.RESTR.CAVITY>
0

>  <SCORE.RESTR.norm>
0

>  <SCORE.SYSTEM>
0

>  <SCORE.SYSTEM.CONST>
0

>  <SCORE.SYSTEM.DIHEDRAL>
0

>  <SCORE.SYSTEM.SOLV>
0

>  <SCORE.SYSTEM.norm>
0

>  <SCORE.heavy>
34

>  <SCORE.norm>
-0.908025

>  <RMSD>
8.265

$$$$
1mwl
 OpenBabel11021811403D
libRbt.so/2013.1/901 2013/11/27
 34 36  0  0  0  0  0  0  0  0999 V2000
  -15.0054    7.0519   15.8130 C   0  0  2  0  0  0  0  0  0  0  0  0
  -13.7010    6.8515   15.3579 O   0  0  0  0  0  0  0  0  0  0  0  0
  -15.1087    8.5263   16.2952 C   0  0  2  0  0  0  0  0  0  0  0  0
  -14.7849    9.4412   15.1963 N   0  3  0  0  0  0  0  0  0  0  0  0
  -14.1874    8.7664   17.5269 C   0  0  1  0  0  0  0  0  0  0  0  0
  -14.2915   10.0446   17.9694 O   0  0  0  0  0  0  0  0  0  0  0  0
  -14.5843    7.7542   18.6518 C   0  0  2  0  0  0  0  0  0  0  0  0
  -13.7550    7.9555   19.8154 O   0  0  0  0  0  0  0  0  0  0  0  0
  -14.4266    6.3019   18.0863 C   0  0  2  0  0  0  0  0  0  0  0  0
  -15.2794    6.1207   16.8908 O   0  0  0  0  0  0  0  0  0  0  0  0
  -14.8031    5.1880   19.0699 C   0  0  2  0  0  0  0  0  0  0  0  0
  -16.0115    5.4952   19.6851 O   0  0  0  0  0  0  0  0  0  0  0  0
  -13.7793    4.9941   20.2033 C   0  0  0  0  0  0  0  0  0  0  0  0
  -13.7260    2.7046   14.3272 C   0  0  2  0  0  0  0  0  0  0  0  0
  -13.3087    1.3944   13.7663 N   0  3  0  0  0  0  0  0  0  0  0  0
  -13.9364    3.7483   13.1904 C   0  0  0  0  0  0  0  0  0  0  0  0
  -14.3597    5.1357   13.7954 C   0  0  2  0  0  0  0  0  0  0  0  0
  -14.5649    6.1216   12.6717 N   0  3  0  0  0  0  0  0  0  0  0  0
  -13.2581    5.6214   14.7988 C   0  0  2  0  0  0  0  0  0  0  0  0
  -13.0787    4.5685   15.9197 C   0  0  2  0  0  0  0  0  0  0  0  0
  -12.0643    4.9991   16.7947 O   0  0  0  0  0  0  0  0  0  0  0  0
  -12.6457    3.2096   15.3073 C   0  0  1  0  0  0  0  0  0  0  0  0
  -12.4849    2.2611   16.3519 O   0  0  0  0  0  0  0  0  0  0  0  0
  -11.5004    1.2736   16.2168 C   0  0  2  0  0  0  0  0  0  0  0  0
  -11.1195    0.8041   17.6336 C   0  0  2  0  0  0  0  0  0  0  0  0
  -12.2595    0.2531   18.2575 O   0  0  0  0  0  0  0  0  0  0  0  0
  -10.5737    2.0255   18.4493 C   0  0  1  0  0  0  0  0  0  0  0  0
  -10.2105    1.6620   19.8407 N   0  3  0  0  0  0  0  0  0  0  0  0
  -10.9015    2.5460   20.8138 C   0  0  0  0  0  0  0  0  0  0  0  0
   -9.3274    2.6229   17.7097 C   0  0  2  0  0  0  0  0  0  0  0  0
   -8.2953    1.6245   17.6043 O   0  0  0  0  0  0  0  0  0  0  0  0
   -8.7663    3.7595   18.4172 C   0  0  0  0  0  0  0  0  0  0  0  0
   -9.7078    3.0109   16.2476 C   0  0  0  0  0  0  0  0  0  0  0  0
  -10.3248    1.8435   15.5366 O   0  0  0  0  0  0  0  0  0  0  0  0
  1  2  1  1  0  0  0
  1  3  1  0  0  0  0
  1 10  1  0  0  0  0
  3  4  1  6  0  0  0
  3  5  1  0  0  0  0
  5  6  1  1  0  0  0
  5  7  1  0  0  0  0
  7  8  1  1  0  0  0
  7  9  1  0  0  0  0
  9 10  1  6  0  0  0
  9 11  1  0  0  0  0
 11 12  1  1  0  0  0
 11 13  1  0  0  0  0
 14 15  1  6  0  0  0
 14 16  1  0  0  0  0
 14 22  1  0  0  0  0
 16 17  1  0  0  0  0
 17 18  1  6  0  0  0
 17 19  1  0  0  0  0
 19  2  1  1  0  0  0
 19 20  1  0  0  0  0
 20 21  1  1  0  0  0
 20 22  1  0  0  0  0
 22 23  1  1  0  0  0
 24 23  1  1  0  0  0
 24 25  1  0  0  0  0
 24 34  1  0  0  0  0
 25 26  1  1  0  0  0
 25 27  1  0  0  0  0
 27 28  1  1  0  0  0
 27 30  1  0  0  0  0
 28 29  1  0  0  0  0
 30 31  1  6  0  0  0
 30 32  1  0  0  0  0
 30 33  1  0  0  0  0
 33 34  1  0  0  0  0
M  CHG  4   4   1  15   1  18   1  28   1
M  END
>  <CHROM.1>
-177.83447332,44.89426625,-61.17810745,-173.39106141,65.21611820,46.15855153
64.00409898,-172.37687359,-55.87302948,176.25092659,92.95741147,155.92275107
171.66448655,-5.96079434,-62.35260276,-12.82535737,4.59069225,16.91154211
2.90648994,-0.95512979,1.15899917

>  <Name>
1mwl

>  <RI>
0

>  <Rbt.Current_Directory>
/home/itssahil/PROJECTS/Mol_Feturizer/New_Systems/rnas/1mwl

>  <Rbt.Executable>
rbdock ($Id: //depot/dev/client3/rdock/2013.1/src/exe/rbdock.cxx#4 $)

>  <Rbt.Library>
libRbt.so (2013.1, Build901 2013/11/27)

>  <Rbt.Parameter_File>
/export/apps/rDock/src/rDock_2013.1_src/data/scripts/dock_solv.prm

>  <Rbt.Receptor>
prm/pocket_docking_6.prm

>  <SCORE>
-55.5687

>  <SCORE.INTER>
-38.1602

>  <SCORE.INTER.CONST>
1

>  <SCORE.INTER.POLAR>
-7.74512

>  <SCORE.INTER.ROT>
6

>  <SCORE.INTER.SOLV>
18.9787

>  <SCORE.INTER.VDW>
-13.5493

>  <SCORE.INTER.norm>
-1.12236

>  <SCORE.INTRA>
-17.4085

>  <SCORE.INTRA.DIHEDRAL>
-29.0649

>  <SCORE.INTRA.DIHEDRAL.0>
42.0816

>  <SCORE.INTRA.POLAR>
0.254682

>  <SCORE.INTRA.POLAR.0>
-0.254682

>  <SCORE.INTRA.REPUL>
0

>  <SCORE.INTRA.REPUL.0>
0

>  <SCORE.INTRA.SOLV>
0.304148

>  <SCORE.INTRA.SOLV.lig_0>
-109.803

>  <SCORE.INTRA.VDW>
-3.89409

>  <SCORE.INTRA.VDW.0>
0.32176

>  <SCORE.INTRA.norm>
-0.512016

>  <SCORE.RESTR>
0

>  <SCORE.RESTR.CAVITY>
0

>  <SCORE.RESTR.norm>
0

>  <SCORE.SYSTEM>
0

>  <SCORE.SYSTEM.CONST>
0

>  <SCORE.SYSTEM.DIHEDRAL>
0

>  <SCORE.SYSTEM.SOLV>
0

>  <SCORE.SYSTEM.norm>
0

>  <SCORE.heavy>
34

>  <SCORE.norm>
-1.63437

>  <RMSD>
8.291

$$$$
1mwl
 OpenBabel11021811403D
libRbt.so/2013.1/901 2013/11/27
 34 36  0  0  0  0  0  0  0  0999 V2000
  -14.0461    8.3362   16.9431 C   0  0  2  0  0  0  0  0  0  0  0  0
  -14.4433    8.4045   18.2796 O   0  0  0  0  0  0  0  0  0  0  0  0
  -14.9334    9.3306   16.1425 C   0  0  2  0  0  0  0  0  0  0  0  0
  -14.7757   10.6883   16.6729 N   0  3  0  0  0  0  0  0  0  0  0  0
  -16.4229    8.8788   16.1667 C   0  0  1  0  0  0  0  0  0  0  0  0
  -17.1998    9.7279   15.4486 O   0  0  0  0  0  0  0  0  0  0  0  0
  -16.5127    7.4250   15.5958 C   0  0  2  0  0  0  0  0  0  0  0  0
  -17.8843    6.9766   15.5942 O   0  0  0  0  0  0  0  0  0  0  0  0
  -15.6116    6.4933   16.4755 C   0  0  2  0  0  0  0  0  0  0  0  0
  -14.2129    6.9758   16.4684 O   0  0  0  0  0  0  0  0  0  0  0  0
  -15.5754    5.0282   16.0259 C   0  0  2  0  0  0  0  0  0  0  0  0
  -16.8645    4.5073   16.0228 O   0  0  0  0  0  0  0  0  0  0  0  0
  -14.7455    4.1197   16.9512 C   0  0  0  0  0  0  0  0  0  0  0  0
  -10.6924    8.2329   20.3194 C   0  0  2  0  0  0  0  0  0  0  0  0
   -9.6908    8.1583   21.4133 N   0  3  0  0  0  0  0  0  0  0  0  0
  -11.5333    9.5391   20.4309 C   0  0  0  0  0  0  0  0  0  0  0  0
  -12.6021    9.5995   19.2802 C   0  0  2  0  0  0  0  0  0  0  0  0
  -13.3933   10.8778   19.4088 N   0  3  0  0  0  0  0  0  0  0  0  0
  -13.5251    8.3356   19.3631 C   0  0  2  0  0  0  0  0  0  0  0  0
  -12.6622    7.0559   19.2407 C   0  0  2  0  0  0  0  0  0  0  0  0
  -13.4968    5.9283   19.3505 O   0  0  0  0  0  0  0  0  0  0  0  0
  -11.6233    7.0038   20.3927 C   0  0  1  0  0  0  0  0  0  0  0  0
  -10.8459    5.8226   20.2622 O   0  0  0  0  0  0  0  0  0  0  0  0
  -10.4237    5.1645   21.4247 C   0  0  2  0  0  0  0  0  0  0  0  0
   -9.7628    3.8419   20.9926 C   0  0  2  0  0  0  0  0  0  0  0  0
   -8.6451    4.1302   20.1800 O   0  0  0  0  0  0  0  0  0  0  0  0
  -10.8100    2.9759   20.2126 C   0  0  1  0  0  0  0  0  0  0  0  0
  -10.2413    1.6923   19.7341 N   0  3  0  0  0  0  0  0  0  0  0  0
  -10.5271    1.4950   18.2900 C   0  0  0  0  0  0  0  0  0  0  0  0
  -12.0440    2.7018   21.1395 C   0  0  2  0  0  0  0  0  0  0  0  0
  -11.6231    1.9887   22.3175 O   0  0  0  0  0  0  0  0  0  0  0  0
  -13.0549    1.8967   20.4783 C   0  0  0  0  0  0  0  0  0  0  0  0
  -12.6474    4.0503   21.6402 C   0  0  0  0  0  0  0  0  0  0  0  0
  -11.5883    4.8938   22.2849 O   0  0  0  0  0  0  0  0  0  0  0  0
  1  2  1  1  0  0  0
  1  3  1  0  0  0  0
  1 10  1  0  0  0  0
  3  4  1  1  0  0  0
  3  5  1  0  0  0  0
  5  6  1  6  0  0  0
  5  7  1  0  0  0  0
  7  8  1  1  0  0  0
  7  9  1  0  0  0  0
  9 10  1  6  0  0  0
  9 11  1  0  0  0  0
 11 12  1  1  0  0  0
 11 13  1  0  0  0  0
 14 15  1  1  0  0  0
 14 16  1  0  0  0  0
 14 22  1  0  0  0  0
 16 17  1  0  0  0  0
 17 18  1  1  0  0  0
 17 19  1  0  0  0  0
 19  2  1  6  0  0  0
 19 20  1  0  0  0  0
 20 21  1  1  0  0  0
 20 22  1  0  0  0  0
 22 23  1  6  0  0  0
 24 23  1  6  0  0  0
 24 25  1  0  0  0  0
 24 34  1  0  0  0  0
 25 26  1  6  0  0  0
 25 27  1  0  0  0  0
 27 28  1  1  0  0  0
 27 30  1  0  0  0  0
 28 29  1  0  0  0  0
 30 31  1  1  0  0  0
 30 32  1  0  0  0  0
 30 33  1  0  0  0  0
 33 34  1  0  0  0  0
M  CHG  4   4   1  15   1  18   1  28   1
M  END
>  <CHROM.1>
-141.78082304,64.69030382,161.80523195,-59.45824753,151.55762280,-58.08715197
94.02155679,68.09771463,-138.01234145,58.52980388,95.15397215,173.07453793
61.18030528,-9.57319226,174.43961777,-13.09595338,6.24525621,18.84481424
-2.52133384,0.72115092,-3.13931517

>  <Name>
1mwl

>  <RI>
0

>  <Rbt.Current_Directory>
/home/itssahil/PROJECTS/Mol_Feturizer/New_Systems/rnas/1mwl

>  <Rbt.Executable>
rbdock ($Id: //depot/dev/client3/rdock/2013.1/src/exe/rbdock.cxx#4 $)

>  <Rbt.Library>
libRbt.so (2013.1, Build901 2013/11/27)

>  <Rbt.Parameter_File>
/export/apps/rDock/src/rDock_2013.1_src/data/scripts/dock_solv.prm

>  <Rbt.Receptor>
prm/pocket_docking_4.prm

>  <SCORE>
-55.1615

>  <SCORE.INTER>
-46.4038

>  <SCORE.INTER.CONST>
1

>  <SCORE.INTER.POLAR>
-8.13405

>  <SCORE.INTER.ROT>
6

>  <SCORE.INTER.SOLV>
18.0405

>  <SCORE.INTER.VDW>
-17.4359

>  <SCORE.INTER.norm>
-1.36482

>  <SCORE.INTRA>
-8.76105

>  <SCORE.INTRA.DIHEDRAL>
-17.1064

>  <SCORE.INTRA.DIHEDRAL.0>
42.0816

>  <SCORE.INTRA.POLAR>
0.206464

>  <SCORE.INTRA.POLAR.0>
-0.254682

>  <SCORE.INTRA.REPUL>
0

>  <SCORE.INTRA.REPUL.0>
0

>  <SCORE.INTRA.SOLV>
4.24937

>  <SCORE.INTRA.SOLV.lig_0>
-109.803

>  <SCORE.INTRA.VDW>
-3.03453

>  <SCORE.INTRA.VDW.0>
0.32176

>  <SCORE.INTRA.norm>
-0.257678

>  <SCORE.RESTR>
0.00334753

>  <SCORE.RESTR.CAVITY>
0.00334753

>  <SCORE.RESTR.norm>
9.84568e-05

>  <SCORE.SYSTEM>
0

>  <SCORE.SYSTEM.CONST>
0

>  <SCORE.SYSTEM.DIHEDRAL>
0

>  <SCORE.SYSTEM.SOLV>
0

>  <SCORE.SYSTEM.norm>
0

>  <SCORE.heavy>
34

>  <SCORE.norm>
-1.6224

>  <RMSD>
8.294

$$$$
1mwl
 OpenBabel11021811403D
libRbt.so/2013.1/901 2013/11/27
 34 36  0  0  0  0  0  0  0  0999 V2000
  -13.2323    9.6674   17.1725 C   0  0  2  0  0  0  0  0  0  0  0  0
  -13.5799    8.8606   18.2574 O   0  0  0  0  0  0  0  0  0  0  0  0
  -14.1985   10.8854   17.1699 C   0  0  2  0  0  0  0  0  0  0  0  0
  -14.0880   11.6207   18.4335 N   0  3  0  0  0  0  0  0  0  0  0  0
  -15.6616   10.4244   16.9050 C   0  0  1  0  0  0  0  0  0  0  0  0
  -16.5072   11.4848   16.8758 O   0  0  0  0  0  0  0  0  0  0  0  0
  -15.7012    9.6439   15.5497 C   0  0  2  0  0  0  0  0  0  0  0  0
  -17.0477    9.2091   15.2668 O   0  0  0  0  0  0  0  0  0  0  0  0
  -14.7212    8.4262   15.6532 C   0  0  2  0  0  0  0  0  0  0  0  0
  -13.3495    8.8946   15.9506 O   0  0  0  0  0  0  0  0  0  0  0  0
  -14.6296    7.5690   14.3856 C   0  0  2  0  0  0  0  0  0  0  0  0
  -15.9048    7.1817   13.9891 O   0  0  0  0  0  0  0  0  0  0  0  0
  -13.8243    6.2707   14.5760 C   0  0  0  0  0  0  0  0  0  0  0  0
  -13.9164    4.6895   19.1225 C   0  0  2  0  0  0  0  0  0  0  0  0
  -14.3066    3.2605   19.0175 N   0  3  0  0  0  0  0  0  0  0  0  0
  -15.1709    5.5891   19.3294 C   0  0  0  0  0  0  0  0  0  0  0  0
  -14.7492    7.1004   19.4207 C   0  0  2  0  0  0  0  0  0  0  0  0
  -15.9822    7.9445   19.6300 N   0  3  0  0  0  0  0  0  0  0  0  0
  -13.9845    7.5051   18.1139 C   0  0  2  0  0  0  0  0  0  0  0  0
  -12.7402    6.6001   17.9412 C   0  0  2  0  0  0  0  0  0  0  0  0
  -12.0813    6.9499   16.7481 O   0  0  0  0  0  0  0  0  0  0  0  0
  -13.1749    5.1137   17.8368 C   0  0  1  0  0  0  0  0  0  0  0  0
  -12.0198    4.3035   17.6767 O   0  0  0  0  0  0  0  0  0  0  0  0
  -10.7853    4.7995   18.1157 C   0  0  2  0  0  0  0  0  0  0  0  0
   -9.7323    3.7030   17.8678 C   0  0  2  0  0  0  0  0  0  0  0  0
   -9.6678    3.4317   16.4840 O   0  0  0  0  0  0  0  0  0  0  0  0
  -10.1318    2.4174   18.6694 C   0  0  1  0  0  0  0  0  0  0  0  0
   -9.1799    1.2993   18.4600 N   0  3  0  0  0  0  0  0  0  0  0  0
   -9.9049    0.0131   18.2989 C   0  0  0  0  0  0  0  0  0  0  0  0
  -10.2182    2.7679   20.1948 C   0  0  2  0  0  0  0  0  0  0  0  0
   -8.9405    3.2395   20.6622 O   0  0  0  0  0  0  0  0  0  0  0  0
  -10.5805    1.6155   20.9997 C   0  0  0  0  0  0  0  0  0  0  0  0
  -11.2225    3.9402   20.4186 C   0  0  0  0  0  0  0  0  0  0  0  0
  -10.8657    5.1117   19.5530 O   0  0  0  0  0  0  0  0  0  0  0  0
  1  2  1  1  0  0  0
  1  3  1  0  0  0  0
  1 10  1  0  0  0  0
  3  4  1  1  0  0  0
  3  5  1  0  0  0  0
  5  6  1  6  0  0  0
  5  7  1  0  0  0  0
  7  8  1  1  0  0  0
  7  9  1  0  0  0  0
  9 10  1  6  0  0  0
  9 11  1  0  0  0  0
 11 12  1  1  0  0  0
 11 13  1  0  0  0  0
 14 15  1  6  0  0  0
 14 16  1  0  0  0  0
 14 22  1  0  0  0  0
 16 17  1  0  0  0  0
 17 18  1  6  0  0  0
 17 19  1  0  0  0  0
 19  2  1  1  0  0  0
 19 20  1  0  0  0  0
 20 21  1  6  0  0  0
 20 22  1  0  0  0  0
 22 23  1  1  0  0  0
 24 23  1  1  0  0  0
 24 25  1  0  0  0  0
 24 34  1  0  0  0  0
 25 26  1  6  0  0  0
 25 27  1  0  0  0  0
 27 28  1  1  0  0  0
 27 30  1  0  0  0  0
 28 29  1  0  0  0  0
 30 31  1  1  0  0  0
 30 32  1  0  0  0  0
 30 33  1  0  0  0  0
 33 34  1  0  0  0  0
M  CHG  4   4   1  15   1  18   1  28   1
M  END
>  <CHROM.1>
120.55062513,-160.62657156,-54.16219608,67.27906768,58.20693107,-52.85897404
59.44326083,179.56870843,-176.55657607,72.28469081,-97.09409721,177.94958883
-56.10526483,-18.18234611,176.92760563,-13.00936152,6.23663728,17.77581827
3.08332578,0.98122015,-1.85214558

>  <Name>
1mwl

>  <RI>
0

>  <Rbt.Current_Directory>
/home/itssahil/PROJECTS/Mol_Feturizer/New_Systems/rnas/1mwl

>  <Rbt.Executable>
rbdock ($Id: //depot/dev/client3/rdock/2013.1/src/exe/rbdock.cxx#4 $)

>  <Rbt.Library>
libRbt.so (2013.1, Build901 2013/11/27)

>  <Rbt.Parameter_File>
/export/apps/rDock/src/rDock_2013.1_src/data/scripts/dock_solv.prm

>  <Rbt.Receptor>
prm/pocket_docking_5.prm

>  <SCORE>
-31.322

>  <SCORE.INTER>
-21.0323

>  <SCORE.INTER.CONST>
1

>  <SCORE.INTER.POLAR>
-3.7903

>  <SCORE.INTER.ROT>
6

>  <SCORE.INTER.SOLV>
14.9238

>  <SCORE.INTER.VDW>
-13.9618

>  <SCORE.INTER.norm>
-0.618596

>  <SCORE.INTRA>
-10.2898

>  <SCORE.INTRA.DIHEDRAL>
-23.9383

>  <SCORE.INTRA.DIHEDRAL.0>
42.0816

>  <SCORE.INTRA.POLAR>
-0.193445

>  <SCORE.INTRA.POLAR.0>
-0.254682

>  <SCORE.INTRA.REPUL>
0.119872

>  <SCORE.INTRA.REPUL.0>
0

>  <SCORE.INTRA.SOLV>
-0.00758909

>  <SCORE.INTRA.SOLV.lig_0>
-109.803

>  <SCORE.INTRA.VDW>
1.74152

>  <SCORE.INTRA.VDW.0>
0.32176

>  <SCORE.INTRA.norm>
-0.302641

>  <SCORE.RESTR>
0

>  <SCORE.RESTR.CAVITY>
0

>  <SCORE.RESTR.norm>
0

>  <SCORE.SYSTEM>
0

>  <SCORE.SYSTEM.CONST>
0

>  <SCORE.SYSTEM.DIHEDRAL>
0

>  <SCORE.SYSTEM.SOLV>
0

>  <SCORE.SYSTEM.norm>
0

>  <SCORE.heavy>
34

>  <SCORE.norm>
-0.921237

>  <RMSD>
8.318

$$$$
1mwl
 OpenBabel11021811403D
libRbt.so/2013.1/901 2013/11/27
 34 36  0  0  0  0  0  0  0  0999 V2000
  -16.9755    9.1099   18.1953 C   0  0  2  0  0  0  0  0  0  0  0  0
  -16.8310    7.9275   18.9230 O   0  0  0  0  0  0  0  0  0  0  0  0
  -18.1539    8.9042   17.2023 C   0  0  2  0  0  0  0  0  0  0  0  0
  -19.3816    8.5803   17.9352 N   0  3  0  0  0  0  0  0  0  0  0  0
  -17.8059    7.8029   16.1586 C   0  0  1  0  0  0  0  0  0  0  0  0
  -18.8195    7.6355   15.2727 O   0  0  0  0  0  0  0  0  0  0  0  0
  -16.4864    8.2110   15.4236 C   0  0  2  0  0  0  0  0  0  0  0  0
  -16.1384    7.2148   14.4394 O   0  0  0  0  0  0  0  0  0  0  0  0
  -15.3546    8.3707   16.4948 C   0  0  2  0  0  0  0  0  0  0  0  0
  -15.7358    9.3907   17.4966 O   0  0  0  0  0  0  0  0  0  0  0  0
  -13.9940    8.7942   15.9296 C   0  0  2  0  0  0  0  0  0  0  0  0
  -14.1645    9.8473   15.0379 O   0  0  0  0  0  0  0  0  0  0  0  0
  -13.2771    7.6787   15.1473 C   0  0  0  0  0  0  0  0  0  0  0  0
  -13.9073    9.0233   21.8404 C   0  0  2  0  0  0  0  0  0  0  0  0
  -13.0223    8.9670   23.0316 N   0  3  0  0  0  0  0  0  0  0  0  0
  -15.4054    9.0106   22.2664 C   0  0  0  0  0  0  0  0  0  0  0  0
  -16.3333    9.0517   20.9985 C   0  0  2  0  0  0  0  0  0  0  0  0
  -17.7753    9.0478   21.4426 N   0  3  0  0  0  0  0  0  0  0  0  0
  -16.0070    7.8264   20.0774 C   0  0  2  0  0  0  0  0  0  0  0  0
  -14.5155    7.8721   19.6646 C   0  0  2  0  0  0  0  0  0  0  0  0
  -14.2263    6.7498   18.8665 O   0  0  0  0  0  0  0  0  0  0  0  0
  -13.6133    7.8147   20.9263 C   0  0  1  0  0  0  0  0  0  0  0  0
  -12.2519    7.8553   20.5245 O   0  0  0  0  0  0  0  0  0  0  0  0
  -11.7738    6.8537   19.6696 C   0  0  2  0  0  0  0  0  0  0  0  0
  -11.6375    5.5636   20.5004 C   0  0  2  0  0  0  0  0  0  0  0  0
  -12.9085    5.1976   20.9933 O   0  0  0  0  0  0  0  0  0  0  0  0
  -10.6347    5.8152   21.6777 C   0  0  1  0  0  0  0  0  0  0  0  0
  -10.4697    4.6246   22.5469 N   0  3  0  0  0  0  0  0  0  0  0  0
  -10.1264    3.4262   21.7395 C   0  0  0  0  0  0  0  0  0  0  0  0
   -9.2468    6.2444   21.0891 C   0  0  2  0  0  0  0  0  0  0  0  0
   -8.7303    5.2010   20.2418 O   0  0  0  0  0  0  0  0  0  0  0  0
   -8.2649    6.4893   22.1299 C   0  0  0  0  0  0  0  0  0  0  0  0
   -9.4166    7.4995   20.1786 C   0  0  0  0  0  0  0  0  0  0  0  0
  -10.4620    7.2532   19.1320 O   0  0  0  0  0  0  0  0  0  0  0  0
  1  2  1  6  0  0  0
  1  3  1  0  0  0  0
  1 10  1  0  0  0  0
  3  4  1  1  0  0  0
  3  5  1  0  0  0  0
  5  6  1  6  0  0  0
  5  7  1  0  0  0  0
  7  8  1  6  0  0  0
  7  9  1  0  0  0  0
  9 10  1  1  0  0  0
  9 11  1  0  0  0  0
 11 12  1  6  0  0  0
 11 13  1  0  0  0  0
 14 15  1  1  0  0  0
 14 16  1  0  0  0  0
 14 22  1  0  0  0  0
 16 17  1  0  0  0  0
 17 18  1  1  0  0  0
 17 19  1  0  0  0  0
 19  2  1  6  0  0  0
 19 20  1  0  0  0  0
 20 21  1  6  0  0  0
 20 22  1  0  0  0  0
 22 23  1  6  0  0  0
 24 23  1  1  0  0  0
 24 25  1  0  0  0  0
 24 34  1  0  0  0  0
 25 26  1  1  0  0  0
 25 27  1  0  0  0  0
 27 28  1  6  0  0  0
 27 30  1  0  0  0  0
 28 29  1  0  0  0  0
 30 31  1  6  0  0  0
 30 32  1  0  0  0  0
 30 33  1  0  0  0  0
 33 34  1  0  0  0  0
M  CHG  4   4   1  15   1  18   1  28   1
M  END
>  <CHROM.1>
-168.81077858,47.49002093,82.68532068,171.72343085,-62.21109650,46.36537371
-54.34476397,-88.89918328,-50.28227650,-72.37383689,-179.13106106,-73.66170166
178.14711412,172.49662492,179.63018269,-13.95464011,7.53179052,19.19732117
2.59196653,0.35636143,-1.59405935

>  <Name>
1mwl

>  <RI>
0

>  <Rbt.Current_Directory>
/home/itssahil/PROJECTS/Mol_Feturizer/New_Systems/rnas/1mwl

>  <Rbt.Executable>
rbdock ($Id: //depot/dev/client3/rdock/2013.1/src/exe/rbdock.cxx#4 $)

>  <Rbt.Library>
libRbt.so (2013.1, Build901 2013/11/27)

>  <Rbt.Parameter_File>
/export/apps/rDock/src/rDock_2013.1_src/data/scripts/dock_solv.prm

>  <Rbt.Receptor>
prm/pocket_docking_7.prm

>  <SCORE>
-45.0289

>  <SCORE.INTER>
-28.9361

>  <SCORE.INTER.CONST>
1

>  <SCORE.INTER.POLAR>
-4.26633

>  <SCORE.INTER.ROT>
6

>  <SCORE.INTER.SOLV>
16.027

>  <SCORE.INTER.VDW>
-18.012

>  <SCORE.INTER.norm>
-0.851063

>  <SCORE.INTRA>
-16.0927

>  <SCORE.INTRA.DIHEDRAL>
-34.6909

>  <SCORE.INTRA.DIHEDRAL.0>
42.0816

>  <SCORE.INTRA.POLAR>
-0.622571

>  <SCORE.INTRA.POLAR.0>
-0.254682

>  <SCORE.INTRA.REPUL>
0

>  <SCORE.INTRA.REPUL.0>
0

>  <SCORE.INTRA.SOLV>
-0.712799

>  <SCORE.INTRA.SOLV.lig_0>
-109.803

>  <SCORE.INTRA.VDW>
3.72589

>  <SCORE.INTRA.VDW.0>
0.32176

>  <SCORE.INTRA.norm>
-0.473315

>  <SCORE.RESTR>
0

>  <SCORE.RESTR.CAVITY>
0

>  <SCORE.RESTR.norm>
0

>  <SCORE.SYSTEM>
0

>  <SCORE.SYSTEM.CONST>
0

>  <SCORE.SYSTEM.DIHEDRAL>
0

>  <SCORE.SYSTEM.SOLV>
0

>  <SCORE.SYSTEM.norm>
0

>  <SCORE.heavy>
34

>  <SCORE.norm>
-1.32438

>  <RMSD>
8.329

$$$$
1mwl
 OpenBabel11021811403D
libRbt.so/2013.1/901 2013/11/27
 34 36  0  0  0  0  0  0  0  0999 V2000
  -15.0496    6.2046   16.6838 C   0  0  2  0  0  0  0  0  0  0  0  0
  -14.4949    6.2994   15.4063 O   0  0  0  0  0  0  0  0  0  0  0  0
  -16.5890    6.0689   16.5139 C   0  0  2  0  0  0  0  0  0  0  0  0
  -16.9062    4.8847   15.7097 N   0  3  0  0  0  0  0  0  0  0  0  0
  -17.1877    7.3614   15.8856 C   0  0  1  0  0  0  0  0  0  0  0  0
  -18.5344    7.2605   15.7578 O   0  0  0  0  0  0  0  0  0  0  0  0
  -16.8044    8.5793   16.7896 C   0  0  2  0  0  0  0  0  0  0  0  0
  -17.3527    9.7962   16.2411 O   0  0  0  0  0  0  0  0  0  0  0  0
  -15.2423    8.6518   16.8829 C   0  0  2  0  0  0  0  0  0  0  0  0
  -14.7020    7.3923   17.4405 O   0  0  0  0  0  0  0  0  0  0  0  0
  -14.7059    9.7887   17.7602 C   0  0  2  0  0  0  0  0  0  0  0  0
  -15.3128    9.7418   19.0103 O   0  0  0  0  0  0  0  0  0  0  0  0
  -14.9918   11.1917   17.1945 C   0  0  0  0  0  0  0  0  0  0  0  0
  -10.4438    5.8237   14.1328 C   0  0  2  0  0  0  0  0  0  0  0  0
   -9.0098    6.1109   13.8751 N   0  3  0  0  0  0  0  0  0  0  0  0
  -11.3536    6.8117   13.3440 C   0  0  0  0  0  0  0  0  0  0  0  0
  -12.8681    6.5113   13.6378 C   0  0  2  0  0  0  0  0  0  0  0  0
  -13.7231    7.4763   12.8540 N   0  3  0  0  0  0  0  0  0  0  0  0
  -13.1296    6.6248   15.1789 C   0  0  2  0  0  0  0  0  0  0  0  0
  -12.2182    5.6261   15.9333 C   0  0  2  0  0  0  0  0  0  0  0  0
  -12.4371    5.7610   17.3168 O   0  0  0  0  0  0  0  0  0  0  0  0
  -10.7269    5.9461   15.6452 C   0  0  1  0  0  0  0  0  0  0  0  0
   -9.9106    5.0209   16.3481 O   0  0  0  0  0  0  0  0  0  0  0  0
   -8.7038    5.4725   16.8979 C   0  0  2  0  0  0  0  0  0  0  0  0
   -8.3392    4.5228   18.0547 C   0  0  2  0  0  0  0  0  0  0  0  0
   -8.1666    3.2189   17.5423 O   0  0  0  0  0  0  0  0  0  0  0  0
   -9.4837    4.5541   19.1243 C   0  0  1  0  0  0  0  0  0  0  0  0
   -9.2220    3.6395   20.2623 N   0  3  0  0  0  0  0  0  0  0  0  0
  -10.4798    2.9972   20.7222 C   0  0  0  0  0  0  0  0  0  0  0  0
   -9.6603    6.0214   19.6467 C   0  0  2  0  0  0  0  0  0  0  0  0
   -8.4351    6.4771   20.2506 O   0  0  0  0  0  0  0  0  0  0  0  0
  -10.7059    6.1217   20.6486 C   0  0  0  0  0  0  0  0  0  0  0  0
   -9.9406    6.9847   18.4523 C   0  0  0  0  0  0  0  0  0  0  0  0
   -8.8786    6.8451   17.4028 O   0  0  0  0  0  0  0  0  0  0  0  0
  1  2  1  6  0  0  0
  1  3  1  0  0  0  0
  1 10  1  0  0  0  0
  3  4  1  6  0  0  0
  3  5  1  0  0  0  0
  5  6  1  1  0  0  0
  5  7  1  0  0  0  0
  7  8  1  6  0  0  0
  7  9  1  0  0  0  0
  9 10  1  1  0  0  0
  9 11  1  0  0  0  0
 11 12  1  1  0  0  0
 11 13  1  0  0  0  0
 14 15  1  1  0  0  0
 14 16  1  0  0  0  0
 14 22  1  0  0  0  0
 16 17  1  0  0  0  0
 17 18  1  6  0  0  0
 17 19  1  0  0  0  0
 19  2  1  6  0  0  0
 19 20  1  0  0  0  0
 20 21  1  1  0  0  0
 20 22  1  0  0  0  0
 22 23  1  1  0  0  0
 24 23  1  1  0  0  0
 24 25  1  0  0  0  0
 24 34  1  0  0  0  0
 25 26  1  6  0  0  0
 25 27  1  0  0  0  0
 27 28  1  1  0  0  0
 27 30  1  0  0  0  0
 28 29  1  0  0  0  0
 30 31  1  1  0  0  0
 30 32  1  0  0  0  0
 30 33  1  0  0  0  0
 33 34  1  0  0  0  0
M  CHG  4   4   1  15   1  18   1  28   1
M  END
>  <CHROM.1>
170.78727948,175.20477825,-84.08899513,-167.87801763,67.03111374,52.24843159
174.14740510,-167.43036303,-178.50484320,177.76753995,96.57717963,156.14319420
171.89625026,-22.52996213,-174.18388644,-12.53638712,6.52598391,16.90834771
2.90870414,0.42847397,-1.65741046

>  <Name>
1mwl

>  <RI>
0

>  <Rbt.Current_Directory>
/home/itssahil/PROJECTS/Mol_Feturizer/New_Systems/rnas/1mwl

>  <Rbt.Executable>
rbdock ($Id: //depot/dev/client3/rdock/2013.1/src/exe/rbdock.cxx#4 $)

>  <Rbt.Library>
libRbt.so (2013.1, Build901 2013/11/27)

>  <Rbt.Parameter_File>
/export/apps/rDock/src/rDock_2013.1_src/data/scripts/dock_solv.prm

>  <Rbt.Receptor>
prm/pocket_docking_4.prm

>  <SCORE>
-49.5898

>  <SCORE.INTER>
-33.9679

>  <SCORE.INTER.CONST>
1

>  <SCORE.INTER.POLAR>
-5.23687

>  <SCORE.INTER.ROT>
6

>  <SCORE.INTER.SOLV>
21.6211

>  <SCORE.INTER.VDW>
-19.996

>  <SCORE.INTER.norm>
-0.999055

>  <SCORE.INTRA>
-15.622

>  <SCORE.INTRA.DIHEDRAL>
-28.2031

>  <SCORE.INTRA.DIHEDRAL.0>
42.0816

>  <SCORE.INTRA.POLAR>
0.252364

>  <SCORE.INTRA.POLAR.0>
-0.254682

>  <SCORE.INTRA.REPUL>
0

>  <SCORE.INTRA.REPUL.0>
0

>  <SCORE.INTRA.SOLV>
-2.8715

>  <SCORE.INTRA.SOLV.lig_0>
-109.803

>  <SCORE.INTRA.VDW>
-0.942714

>  <SCORE.INTRA.VDW.0>
0.32176

>  <SCORE.INTRA.norm>
-0.459469

>  <SCORE.RESTR>
0

>  <SCORE.RESTR.CAVITY>
0

>  <SCORE.RESTR.norm>
0

>  <SCORE.SYSTEM>
0

>  <SCORE.SYSTEM.CONST>
0

>  <SCORE.SYSTEM.DIHEDRAL>
0

>  <SCORE.SYSTEM.SOLV>
0

>  <SCORE.SYSTEM.norm>
0

>  <SCORE.heavy>
34

>  <SCORE.norm>
-1.45852

>  <RMSD>
8.346

$$$$
1mwl
 OpenBabel11021811403D
libRbt.so/2013.1/901 2013/11/27
 34 36  0  0  0  0  0  0  0  0999 V2000
  -16.0794    6.7352   16.0282 C   0  0  2  0  0  0  0  0  0  0  0  0
  -15.1026    7.6017   15.5344 O   0  0  0  0  0  0  0  0  0  0  0  0
  -17.4437    7.4759   15.9451 C   0  0  2  0  0  0  0  0  0  0  0  0
  -17.7274    7.8584   14.5585 N   0  3  0  0  0  0  0  0  0  0  0  0
  -17.4551    8.7123   16.8910 C   0  0  1  0  0  0  0  0  0  0  0  0
  -18.6518    9.3493   16.8432 O   0  0  0  0  0  0  0  0  0  0  0  0
  -17.1390    8.2308   18.3455 C   0  0  2  0  0  0  0  0  0  0  0  0
  -17.1512    9.3526   19.2531 O   0  0  0  0  0  0  0  0  0  0  0  0
  -15.7421    7.5219   18.3375 C   0  0  2  0  0  0  0  0  0  0  0  0
  -15.7505    6.3807   17.3958 O   0  0  0  0  0  0  0  0  0  0  0  0
  -15.2973    6.9693   19.6964 C   0  0  2  0  0  0  0  0  0  0  0  0
  -14.1358    6.2210   19.5403 O   0  0  0  0  0  0  0  0  0  0  0  0
  -16.3297    6.0318   20.3487 C   0  0  0  0  0  0  0  0  0  0  0  0
  -12.0106    4.8795   14.3992 C   0  0  2  0  0  0  0  0  0  0  0  0
  -10.7076    4.3570   13.9149 N   0  3  0  0  0  0  0  0  0  0  0  0
  -12.7315    5.6857   13.2783 C   0  0  0  0  0  0  0  0  0  0  0  0
  -14.1001    6.2496   13.8064 C   0  0  2  0  0  0  0  0  0  0  0  0
  -14.7781    7.0163   12.6977 N   0  3  0  0  0  0  0  0  0  0  0  0
  -13.8395    7.1526   15.0605 C   0  0  2  0  0  0  0  0  0  0  0  0
  -13.1310    6.3217   16.1582 C   0  0  2  0  0  0  0  0  0  0  0  0
  -12.8718    7.1511   17.2650 O   0  0  0  0  0  0  0  0  0  0  0  0
  -11.7748    5.7858   15.6262 C   0  0  1  0  0  0  0  0  0  0  0  0
  -11.1423    5.0301   16.6486 O   0  0  0  0  0  0  0  0  0  0  0  0
   -9.7426    5.0174   16.7061 C   0  0  2  0  0  0  0  0  0  0  0  0
   -9.3338    3.9941   17.7825 C   0  0  2  0  0  0  0  0  0  0  0  0
   -9.8032    2.7174   17.4053 O   0  0  0  0  0  0  0  0  0  0  0  0
   -9.9430    4.4271   19.1596 C   0  0  1  0  0  0  0  0  0  0  0  0
   -9.6189    3.4735   20.2486 N   0  3  0  0  0  0  0  0  0  0  0  0
  -10.7772    2.5898   20.5374 C   0  0  0  0  0  0  0  0  0  0  0  0
   -9.4187    5.8577   19.5276 C   0  0  2  0  0  0  0  0  0  0  0  0
   -7.9825    5.8420   19.6290 O   0  0  0  0  0  0  0  0  0  0  0  0
   -9.9423    6.3201   20.8001 C   0  0  0  0  0  0  0  0  0  0  0  0
   -9.7627    6.8638   18.3862 C   0  0  0  0  0  0  0  0  0  0  0  0
   -9.2549    6.3591   17.0686 O   0  0  0  0  0  0  0  0  0  0  0  0
  1  2  1  1  0  0  0
  1  3  1  0  0  0  0
  1 10  1  0  0  0  0
  3  4  1  6  0  0  0
  3  5  1  0  0  0  0
  5  6  1  1  0  0  0
  5  7  1  0  0  0  0
  7  8  1  1  0  0  0
  7  9  1  0  0  0  0
  9 10  1  6  0  0  0
  9 11  1  0  0  0  0
 11 12  1  6  0  0  0
 11 13  1  0  0  0  0
 14 15  1  6  0  0  0
 14 16  1  0  0  0  0
 14 22  1  0  0  0  0
 16 17  1  0  0  0  0
 17 18  1  6  0  0  0
 17 19  1  0  0  0  0
 19  2  1  1  0  0  0
 19 20  1  0  0  0  0
 20 21  1  1  0  0  0
 20 22  1  0  0  0  0
 22 23  1  1  0  0  0
 24 23  1  1  0  0  0
 24 25  1  0  0  0  0
 24 34  1  0  0  0  0
 25 26  1  6  0  0  0
 25 27  1  0  0  0  0
 27 28  1  1  0  0  0
 27 30  1  0  0  0  0
 28 29  1  0  0  0  0
 30 31  1  1  0  0  0
 30 32  1  0  0  0  0
 30 33  1  0  0  0  0
 33 34  1  0  0  0  0
M  CHG  4   4   1  15   1  18   1  28   1
M  END
>  <CHROM.1>
-159.36694700,63.71568892,-69.83746927,178.87895689,178.49733700,172.54801638
51.16295340,-170.22933439,105.38073904,33.86432185,91.57125300,-173.06958790
64.99259006,18.38223952,54.32516500,-13.13889197,6.22753188,17.20254549,-2.92666272
-0.43632449,1.52216975

>  <Name>
1mwl

>  <RI>
0

>  <Rbt.Current_Directory>
/home/itssahil/PROJECTS/Mol_Feturizer/New_Systems/rnas/1mwl

>  <Rbt.Executable>
rbdock ($Id: //depot/dev/client3/rdock/2013.1/src/exe/rbdock.cxx#4 $)

>  <Rbt.Library>
libRbt.so (2013.1, Build901 2013/11/27)

>  <Rbt.Parameter_File>
/export/apps/rDock/src/rDock_2013.1_src/data/scripts/dock_solv.prm

>  <Rbt.Receptor>
prm/pocket_docking_6.prm

>  <SCORE>
-51.9712

>  <SCORE.INTER>
-35.9207

>  <SCORE.INTER.CONST>
1

>  <SCORE.INTER.POLAR>
-6.50909

>  <SCORE.INTER.ROT>
6

>  <SCORE.INTER.SOLV>
23.3076

>  <SCORE.INTER.VDW>
-17.6194

>  <SCORE.INTER.norm>
-1.05649

>  <SCORE.INTRA>
-16.0505

>  <SCORE.INTRA.DIHEDRAL>
-25.8303

>  <SCORE.INTRA.DIHEDRAL.0>
42.0816

>  <SCORE.INTRA.POLAR>
-0.491584

>  <SCORE.INTRA.POLAR.0>
-0.254682

>  <SCORE.INTRA.REPUL>
0

>  <SCORE.INTRA.REPUL.0>
0

>  <SCORE.INTRA.SOLV>
1.93911

>  <SCORE.INTRA.SOLV.lig_0>
-109.803

>  <SCORE.INTRA.VDW>
-2.43345

>  <SCORE.INTRA.VDW.0>
0.32176

>  <SCORE.INTRA.norm>
-0.472072

>  <SCORE.RESTR>
0

>  <SCORE.RESTR.CAVITY>
0

>  <SCORE.RESTR.norm>
0

>  <SCORE.SYSTEM>
0

>  <SCORE.SYSTEM.CONST>
0

>  <SCORE.SYSTEM.DIHEDRAL>
0

>  <SCORE.SYSTEM.SOLV>
0

>  <SCORE.SYSTEM.norm>
0

>  <SCORE.heavy>
34

>  <SCORE.norm>
-1.52856

>  <RMSD>
8.360

$$$$
1mwl
 OpenBabel11021811403D
libRbt.so/2013.1/901 2013/11/27
 34 36  0  0  0  0  0  0  0  0999 V2000
  -13.6308    5.8279   14.2486 C   0  0  2  0  0  0  0  0  0  0  0  0
  -12.7513    6.9015   14.3986 O   0  0  0  0  0  0  0  0  0  0  0  0
  -14.9523    6.3887   13.6520 C   0  0  2  0  0  0  0  0  0  0  0  0
  -14.6892    7.0410   12.3657 N   0  3  0  0  0  0  0  0  0  0  0  0
  -15.6375    7.3623   14.6551 C   0  0  1  0  0  0  0  0  0  0  0  0
  -16.8046    7.8362   14.1517 O   0  0  0  0  0  0  0  0  0  0  0  0
  -15.8798    6.6028   16.0012 C   0  0  2  0  0  0  0  0  0  0  0  0
  -16.5241    7.4746   16.9536 O   0  0  0  0  0  0  0  0  0  0  0  0
  -14.4975    6.0979   16.5381 C   0  0  2  0  0  0  0  0  0  0  0  0
  -13.8523    5.2127   15.5434 O   0  0  0  0  0  0  0  0  0  0  0  0
  -14.5705    5.3082   17.8500 C   0  0  2  0  0  0  0  0  0  0  0  0
  -15.3353    4.1619   17.6646 O   0  0  0  0  0  0  0  0  0  0  0  0
  -15.2319    6.0863   19.0021 C   0  0  0  0  0  0  0  0  0  0  0  0
   -9.3632    5.0642   16.2437 C   0  0  2  0  0  0  0  0  0  0  0  0
   -7.9858    4.8541   16.7577 N   0  3  0  0  0  0  0  0  0  0  0  0
   -9.3518    5.2468   14.6970 C   0  0  0  0  0  0  0  0  0  0  0  0
  -10.8113    5.4868   14.1655 C   0  0  2  0  0  0  0  0  0  0  0  0
  -10.7692    5.6504   12.6661 N   0  3  0  0  0  0  0  0  0  0  0  0
  -11.4184    6.7485   14.8696 C   0  0  2  0  0  0  0  0  0  0  0  0
  -11.4239    6.5330   16.4028 C   0  0  2  0  0  0  0  0  0  0  0  0
  -11.9392    7.6849   17.0256 O   0  0  0  0  0  0  0  0  0  0  0  0
   -9.9746    6.3134   16.9133 C   0  0  1  0  0  0  0  0  0  0  0  0
  -10.0034    6.1206   18.3199 O   0  0  0  0  0  0  0  0  0  0  0  0
  -10.5708    7.1184   19.1231 C   0  0  2  0  0  0  0  0  0  0  0  0
   -9.8495    7.0819   20.4838 C   0  0  2  0  0  0  0  0  0  0  0  0
   -8.4793    7.3569   20.2855 O   0  0  0  0  0  0  0  0  0  0  0  0
  -10.0460    5.6685   21.1308 C   0  0  1  0  0  0  0  0  0  0  0  0
   -9.3539    5.5408   22.4365 N   0  3  0  0  0  0  0  0  0  0  0  0
   -8.7969    4.1745   22.6063 C   0  0  0  0  0  0  0  0  0  0  0  0
  -11.5787    5.3923   21.3086 C   0  0  2  0  0  0  0  0  0  0  0  0
  -12.1602    6.3913   22.1673 O   0  0  0  0  0  0  0  0  0  0  0  0
  -11.8333    4.0960   21.9104 C   0  0  0  0  0  0  0  0  0  0  0  0
  -12.3085    5.5209   19.9360 C   0  0  0  0  0  0  0  0  0  0  0  0
  -12.0073    6.8459   19.3016 O   0  0  0  0  0  0  0  0  0  0  0  0
  1  2  1  1  0  0  0
  1  3  1  0  0  0  0
  1 10  1  0  0  0  0
  3  4  1  6  0  0  0
  3  5  1  0  0  0  0
  5  6  1  6  0  0  0
  5  7  1  0  0  0  0
  7  8  1  1  0  0  0
  7  9  1  0  0  0  0
  9 10  1  6  0  0  0
  9 11  1  0  0  0  0
 11 12  1  6  0  0  0
 11 13  1  0  0  0  0
 14 15  1  1  0  0  0
 14 16  1  0  0  0  0
 14 22  1  0  0  0  0
 16 17  1  0  0  0  0
 17 18  1  6  0  0  0
 17 19  1  0  0  0  0
 19  2  1  6  0  0  0
 19 20  1  0  0  0  0
 20 21  1  1  0  0  0
 20 22  1  0  0  0  0
 22 23  1  1  0  0  0
 24 23  1  6  0  0  0
 24 25  1  0  0  0  0
 24 34  1  0  0  0  0
 25 26  1  6  0  0  0
 25 27  1  0  0  0  0
 27 28  1  1  0  0  0
 27 30  1  0  0  0  0
 28 29  1  0  0  0  0
 30 31  1  1  0  0  0
 30 32  1  0  0  0  0
 30 33  1  0  0  0  0
 33 34  1  0  0  0  0
M  CHG  4   4   1  15   1  18   1  28   1
M  END
>  <CHROM.1>
-177.33104311,42.85762734,38.80636650,56.25235409,66.52164554,61.67681679
175.28316723,-58.79414276,-172.39118945,57.78264484,-177.57333047,-149.98357046
165.32381531,-23.48904937,61.40022782,-12.20381537,6.10920799,17.40662185
-2.16625106,-0.10702276,1.63542840

>  <Name>
1mwl

>  <RI>
0

>  <Rbt.Current_Directory>
/home/itssahil/PROJECTS/Mol_Feturizer/New_Systems/rnas/1mwl

>  <Rbt.Executable>
rbdock ($Id: //depot/dev/client3/rdock/2013.1/src/exe/rbdock.cxx#4 $)

>  <Rbt.Library>
libRbt.so (2013.1, Build901 2013/11/27)

>  <Rbt.Parameter_File>
/export/apps/rDock/src/rDock_2013.1_src/data/scripts/dock_solv.prm

>  <Rbt.Receptor>
prm/pocket_docking_5.prm

>  <SCORE>
-42.2998

>  <SCORE.INTER>
-29.1386

>  <SCORE.INTER.CONST>
1

>  <SCORE.INTER.POLAR>
-5.01723

>  <SCORE.INTER.ROT>
6

>  <SCORE.INTER.SOLV>
23.5469

>  <SCORE.INTER.VDW>
-18.1506

>  <SCORE.INTER.norm>
-0.857018

>  <SCORE.INTRA>
-13.1611

>  <SCORE.INTRA.DIHEDRAL>
-31.9761

>  <SCORE.INTRA.DIHEDRAL.0>
42.0816

>  <SCORE.INTRA.POLAR>
0.252638

>  <SCORE.INTRA.POLAR.0>
-0.254682

>  <SCORE.INTRA.REPUL>
0.189874

>  <SCORE.INTRA.REPUL.0>
0

>  <SCORE.INTRA.SOLV>
-1.24423

>  <SCORE.INTRA.SOLV.lig_0>
-109.803

>  <SCORE.INTRA.VDW>
1.64069

>  <SCORE.INTRA.VDW.0>
0.32176

>  <SCORE.INTRA.norm>
-0.387092

>  <SCORE.RESTR>
0

>  <SCORE.RESTR.CAVITY>
0

>  <SCORE.RESTR.norm>
0

>  <SCORE.SYSTEM>
0

>  <SCORE.SYSTEM.CONST>
0

>  <SCORE.SYSTEM.DIHEDRAL>
0

>  <SCORE.SYSTEM.SOLV>
0

>  <SCORE.SYSTEM.norm>
0

>  <SCORE.heavy>
34

>  <SCORE.norm>
-1.24411

>  <RMSD>
8.379

$$$$
1mwl
 OpenBabel11021811403D
libRbt.so/2013.1/901 2013/11/27
 34 36  0  0  0  0  0  0  0  0999 V2000
  -14.7924    8.4177   17.0750 C   0  0  2  0  0  0  0  0  0  0  0  0
  -15.3327    8.5250   18.3576 O   0  0  0  0  0  0  0  0  0  0  0  0
  -15.6602    9.2952   16.1295 C   0  0  2  0  0  0  0  0  0  0  0  0
  -15.6592   10.6872   16.5896 N   0  3  0  0  0  0  0  0  0  0  0  0
  -17.1069    8.7290   16.0298 C   0  0  1  0  0  0  0  0  0  0  0  0
  -17.8634    9.4749   15.1863 O   0  0  0  0  0  0  0  0  0  0  0  0
  -17.0293    7.2445   15.5422 C   0  0  2  0  0  0  0  0  0  0  0  0
  -18.3565    6.6896   15.4287 O   0  0  0  0  0  0  0  0  0  0  0  0
  -16.1607    6.4347   16.5638 C   0  0  2  0  0  0  0  0  0  0  0  0
  -14.8080    7.0251   16.6693 O   0  0  0  0  0  0  0  0  0  0  0  0
  -15.9700    4.9554   16.2101 C   0  0  2  0  0  0  0  0  0  0  0  0
  -17.2046    4.3755   15.9403 O   0  0  0  0  0  0  0  0  0  0  0  0
  -15.3429    4.1258   17.3454 C   0  0  0  0  0  0  0  0  0  0  0  0
  -11.9579    9.3926   20.8310 C   0  0  2  0  0  0  0  0  0  0  0  0
  -11.0787    9.4888   22.0240 N   0  3  0  0  0  0  0  0  0  0  0  0
  -13.2557   10.2293   21.0344 C   0  0  0  0  0  0  0  0  0  0  0  0
  -14.1871   10.1060   19.7744 C   0  0  2  0  0  0  0  0  0  0  0  0
  -15.4294   10.9330   19.9969 N   0  3  0  0  0  0  0  0  0  0  0  0
  -14.5315    8.5966   19.5301 C   0  0  2  0  0  0  0  0  0  0  0  0
  -13.2235    7.7944   19.3232 C   0  0  2  0  0  0  0  0  0  0  0  0
  -13.5431    6.4365   19.1388 O   0  0  0  0  0  0  0  0  0  0  0  0
  -12.3227    7.9136   20.5817 C   0  0  1  0  0  0  0  0  0  0  0  0
  -11.1319    7.1694   20.3710 O   0  0  0  0  0  0  0  0  0  0  0  0
  -10.4403    6.6788   21.4862 C   0  0  2  0  0  0  0  0  0  0  0  0
   -9.1828    5.9552   20.9684 C   0  0  2  0  0  0  0  0  0  0  0  0
   -8.3709    6.8810   20.2782 O   0  0  0  0  0  0  0  0  0  0  0  0
   -9.6177    4.7831   20.0239 C   0  0  1  0  0  0  0  0  0  0  0  0
   -8.4588    4.0511   19.4571 N   0  3  0  0  0  0  0  0  0  0  0  0
   -8.6548    3.7957   18.0072 C   0  0  0  0  0  0  0  0  0  0  0  0
  -10.5374    3.7946   20.8201 C   0  0  2  0  0  0  0  0  0  0  0  0
   -9.8184    3.2547   21.9448 O   0  0  0  0  0  0  0  0  0  0  0  0
  -10.9742    2.6773   20.0026 C   0  0  0  0  0  0  0  0  0  0  0  0
  -11.7599    4.5608   21.4131 C   0  0  0  0  0  0  0  0  0  0  0  0
  -11.3018    5.7375   22.2220 O   0  0  0  0  0  0  0  0  0  0  0  0
  1  2  1  1  0  0  0
  1  3  1  0  0  0  0
  1 10  1  0  0  0  0
  3  4  1  1  0  0  0
  3  5  1  0  0  0  0
  5  6  1  6  0  0  0
  5  7  1  0  0  0  0
  7  8  1  1  0  0  0
  7  9  1  0  0  0  0
  9 10  1  6  0  0  0
  9 11  1  0  0  0  0
 11 12  1  1  0  0  0
 11 13  1  0  0  0  0
 14 15  1  1  0  0  0
 14 16  1  0  0  0  0
 14 22  1  0  0  0  0
 16 17  1  0  0  0  0
 17 18  1  1  0  0  0
 17 19  1  0  0  0  0
 19  2  1  6  0  0  0
 19 20  1  0  0  0  0
 20 21  1  1  0  0  0
 20 22  1  0  0  0  0
 22 23  1  6  0  0  0
 24 23  1  6  0  0  0
 24 25  1  0  0  0  0
 24 34  1  0  0  0  0
 25 26  1  6  0  0  0
 25 27  1  0  0  0  0
 27 28  1  1  0  0  0
 27 30  1  0  0  0  0
 28 29  1  0  0  0  0
 30 31  1  1  0  0  0
 30 32  1  0  0  0  0
 30 33  1  0  0  0  0
 33 34  1  0  0  0  0
M  CHG  4   4   1  15   1  18   1  28   1
M  END
>  <CHROM.1>
-141.27857855,87.75999969,-90.90799968,60.74617446,-48.11195805,-50.53123596
60.72416788,-131.12238069,-47.55990636,72.50237865,85.37103787,-178.40953201
58.46785075,-15.67636433,169.44264349,-13.28234620,6.95081861,18.88183884
-3.01473859,0.64593082,-2.77054056

>  <Name>
1mwl

>  <RI>
0

>  <Rbt.Current_Directory>
/home/itssahil/PROJECTS/Mol_Feturizer/New_Systems/rnas/1mwl

>  <Rbt.Executable>
rbdock ($Id: //depot/dev/client3/rdock/2013.1/src/exe/rbdock.cxx#4 $)

>  <Rbt.Library>
libRbt.so (2013.1, Build901 2013/11/27)

>  <Rbt.Parameter_File>
/export/apps/rDock/src/rDock_2013.1_src/data/scripts/dock_solv.prm

>  <Rbt.Receptor>
prm/pocket_docking_5.prm

>  <SCORE>
-58.6144

>  <SCORE.INTER>
-45.7364

>  <SCORE.INTER.CONST>
1

>  <SCORE.INTER.POLAR>
-9.17807

>  <SCORE.INTER.ROT>
6

>  <SCORE.INTER.SOLV>
22.8

>  <SCORE.INTER.VDW>
-15.0974

>  <SCORE.INTER.norm>
-1.34519

>  <SCORE.INTRA>
-12.878

>  <SCORE.INTRA.DIHEDRAL>
-20.1203

>  <SCORE.INTRA.DIHEDRAL.0>
42.0816

>  <SCORE.INTRA.POLAR>
-0.895946

>  <SCORE.INTRA.POLAR.0>
-0.254682

>  <SCORE.INTRA.REPUL>
0

>  <SCORE.INTRA.REPUL.0>
0

>  <SCORE.INTRA.SOLV>
2.03894

>  <SCORE.INTRA.SOLV.lig_0>
-109.803

>  <SCORE.INTRA.VDW>
-0.791063

>  <SCORE.INTRA.VDW.0>
0.32176

>  <SCORE.INTRA.norm>
-0.378764

>  <SCORE.RESTR>
0

>  <SCORE.RESTR.CAVITY>
0

>  <SCORE.RESTR.norm>
0

>  <SCORE.SYSTEM>
0

>  <SCORE.SYSTEM.CONST>
0

>  <SCORE.SYSTEM.DIHEDRAL>
0

>  <SCORE.SYSTEM.SOLV>
0

>  <SCORE.SYSTEM.norm>
0

>  <SCORE.heavy>
34

>  <SCORE.norm>
-1.72395

>  <RMSD>
8.380

$$$$
1mwl
 OpenBabel11021811403D
libRbt.so/2013.1/901 2013/11/27
 34 36  0  0  0  0  0  0  0  0999 V2000
  -12.0537    6.3664   14.9053 C   0  0  2  0  0  0  0  0  0  0  0  0
  -11.7453    7.5701   15.5415 O   0  0  0  0  0  0  0  0  0  0  0  0
  -12.3597    6.6921   13.4162 C   0  0  2  0  0  0  0  0  0  0  0  0
  -11.2016    7.3392   12.7922 N   0  3  0  0  0  0  0  0  0  0  0  0
  -13.6371    7.5742   13.2989 C   0  0  1  0  0  0  0  0  0  0  0  0
  -13.9253    7.8414   12.0005 O   0  0  0  0  0  0  0  0  0  0  0  0
  -14.8250    6.8265   13.9899 C   0  0  2  0  0  0  0  0  0  0  0  0
  -16.0308    7.6130   13.8911 O   0  0  0  0  0  0  0  0  0  0  0  0
  -14.4392    6.5638   15.4852 C   0  0  2  0  0  0  0  0  0  0  0  0
  -13.1974    5.7629   15.5622 O   0  0  0  0  0  0  0  0  0  0  0  0
  -15.5002    5.8121   16.2971 C   0  0  2  0  0  0  0  0  0  0  0  0
  -15.9427    4.7065   15.5795 O   0  0  0  0  0  0  0  0  0  0  0  0
  -16.7513    6.6544   16.6062 C   0  0  0  0  0  0  0  0  0  0  0  0
  -11.4245    8.8913   19.5925 C   0  0  2  0  0  0  0  0  0  0  0  0
  -11.7823    9.2110   20.9980 N   0  3  0  0  0  0  0  0  0  0  0  0
  -12.2654    9.7495   18.6014 C   0  0  0  0  0  0  0  0  0  0  0  0
  -11.8925    9.3905   17.1174 C   0  0  2  0  0  0  0  0  0  0  0  0
  -12.7149   10.2429   16.1826 N   0  3  0  0  0  0  0  0  0  0  0  0
  -12.1392    7.8617   16.8762 C   0  0  2  0  0  0  0  0  0  0  0  0
  -11.2844    7.0367   17.8691 C   0  0  2  0  0  0  0  0  0  0  0  0
  -11.5398    5.6679   17.6661 O   0  0  0  0  0  0  0  0  0  0  0  0
  -11.6757    7.3913   19.3287 C   0  0  1  0  0  0  0  0  0  0  0  0
  -10.8823    6.6224   20.2207 O   0  0  0  0  0  0  0  0  0  0  0  0
   -9.6190    6.1918   19.7950 C   0  0  2  0  0  0  0  0  0  0  0  0
   -9.5646    4.6637   19.9820 C   0  0  2  0  0  0  0  0  0  0  0  0
  -10.5622    4.0666   19.1815 O   0  0  0  0  0  0  0  0  0  0  0  0
   -9.7871    4.3238   21.4952 C   0  0  1  0  0  0  0  0  0  0  0  0
   -9.7786    2.8637   21.7562 N   0  3  0  0  0  0  0  0  0  0  0  0
  -11.0577    2.2438   21.3253 C   0  0  0  0  0  0  0  0  0  0  0  0
   -8.6765    5.0264   22.3495 C   0  0  2  0  0  0  0  0  0  0  0  0
   -7.3768    4.5569   21.9448 O   0  0  0  0  0  0  0  0  0  0  0  0
   -8.8206    4.7481   23.7669 C   0  0  0  0  0  0  0  0  0  0  0  0
   -8.6865    6.5630   22.0809 C   0  0  0  0  0  0  0  0  0  0  0  0
   -8.5791    6.8413   20.6113 O   0  0  0  0  0  0  0  0  0  0  0  0
  1  2  1  1  0  0  0
  1  3  1  0  0  0  0
  1 10  1  0  0  0  0
  3  4  1  1  0  0  0
  3  5  1  0  0  0  0
  5  6  1  6  0  0  0
  5  7  1  0  0  0  0
  7  8  1  1  0  0  0
  7  9  1  0  0  0  0
  9 10  1  6  0  0  0
  9 11  1  0  0  0  0
 11 12  1  6  0  0  0
 11 13  1  0  0  0  0
 14 15  1  1  0  0  0
 14 16  1  0  0  0  0
 14 22  1  0  0  0  0
 16 17  1  0  0  0  0
 17 18  1  6  0  0  0
 17 19  1  0  0  0  0
 19  2  1  6  0  0  0
 19 20  1  0  0  0  0
 20 21  1  6  0  0  0
 20 22  1  0  0  0  0
 22 23  1  1  0  0  0
 24 23  1  1  0  0  0
 24 25  1  0  0  0  0
 24 34  1  0  0  0  0
 25 26  1  6  0  0  0
 25 27  1  0  0  0  0
 27 28  1  6  0  0  0
 27 30  1  0  0  0  0
 28 29  1  0  0  0  0
 30 31  1  6  0  0  0
 30 32  1  0  0  0  0
 30 33  1  0  0  0  0
 33 34  1  0  0  0  0
M  CHG  4   4   1  15   1  18   1  28   1
M  END
>  <CHROM.1>
142.90831789,-167.80866237,-65.64834724,-133.14778818,151.86910670,47.47858149
65.25422007,-174.93066363,41.48890960,77.61697607,-93.23004419,-125.76699465
-42.21109653,43.59528548,67.66219014,-11.82849953,6.50536205,17.85553962
2.62237112,-0.91336803,-0.33260733

>  <Name>
1mwl

>  <RI>
0

>  <Rbt.Current_Directory>
/home/itssahil/PROJECTS/Mol_Feturizer/New_Systems/rnas/1mwl

>  <Rbt.Executable>
rbdock ($Id: //depot/dev/client3/rdock/2013.1/src/exe/rbdock.cxx#4 $)

>  <Rbt.Library>
libRbt.so (2013.1, Build901 2013/11/27)

>  <Rbt.Parameter_File>
/export/apps/rDock/src/rDock_2013.1_src/data/scripts/dock_solv.prm

>  <Rbt.Receptor>
prm/pocket_docking_5.prm

>  <SCORE>
-44.665

>  <SCORE.INTER>
-39.8878

>  <SCORE.INTER.CONST>
1

>  <SCORE.INTER.POLAR>
-5.78471

>  <SCORE.INTER.ROT>
6

>  <SCORE.INTER.SOLV>
29.3123

>  <SCORE.INTER.VDW>
-24.6803

>  <SCORE.INTER.norm>
-1.17317

>  <SCORE.INTRA>
-4.77718

>  <SCORE.INTRA.DIHEDRAL>
-10.0521

>  <SCORE.INTRA.DIHEDRAL.0>
42.0816

>  <SCORE.INTRA.POLAR>
0.107531

>  <SCORE.INTRA.POLAR.0>
-0.254682

>  <SCORE.INTRA.REPUL>
0

>  <SCORE.INTRA.REPUL.0>
0

>  <SCORE.INTRA.SOLV>
-2.04148

>  <SCORE.INTRA.SOLV.lig_0>
-109.803

>  <SCORE.INTRA.VDW>
0.904017

>  <SCORE.INTRA.VDW.0>
0.32176

>  <SCORE.INTRA.norm>
-0.140505

>  <SCORE.RESTR>
0

>  <SCORE.RESTR.CAVITY>
0

>  <SCORE.RESTR.norm>
0

>  <SCORE.SYSTEM>
0

>  <SCORE.SYSTEM.CONST>
0

>  <SCORE.SYSTEM.DIHEDRAL>
0

>  <SCORE.SYSTEM.SOLV>
0

>  <SCORE.SYSTEM.norm>
0

>  <SCORE.heavy>
34

>  <SCORE.norm>
-1.31368

>  <RMSD>
8.397

$$$$
1mwl
 OpenBabel11021811403D
libRbt.so/2013.1/901 2013/11/27
 34 36  0  0  0  0  0  0  0  0999 V2000
  -14.8687    7.0947   16.5163 C   0  0  2  0  0  0  0  0  0  0  0  0
  -13.6914    7.3489   15.8106 O   0  0  0  0  0  0  0  0  0  0  0  0
  -15.9750    8.0106   15.9213 C   0  0  2  0  0  0  0  0  0  0  0  0
  -16.1448    7.7343   14.4915 N   0  3  0  0  0  0  0  0  0  0  0  0
  -15.6420    9.5098   16.1763 C   0  0  1  0  0  0  0  0  0  0  0  0
  -16.6159   10.3145   15.6822 O   0  0  0  0  0  0  0  0  0  0  0  0
  -15.4683    9.7275   17.7157 C   0  0  2  0  0  0  0  0  0  0  0  0
  -15.1678   11.1119   17.9902 O   0  0  0  0  0  0  0  0  0  0  0  0
  -14.3220    8.7867   18.2205 C   0  0  2  0  0  0  0  0  0  0  0  0
  -14.6478    7.3745   17.9224 O   0  0  0  0  0  0  0  0  0  0  0  0
  -14.0445    8.8672   19.7259 C   0  0  2  0  0  0  0  0  0  0  0  0
  -15.2452    8.8296   20.4261 O   0  0  0  0  0  0  0  0  0  0  0  0
  -13.3364   10.1656   20.1539 C   0  0  0  0  0  0  0  0  0  0  0  0
  -11.7923    3.5233   15.6776 C   0  0  2  0  0  0  0  0  0  0  0  0
  -10.7446    2.4794   15.5433 N   0  3  0  0  0  0  0  0  0  0  0  0
  -11.9597    4.3102   14.3439 C   0  0  0  0  0  0  0  0  0  0  0  0
  -13.0571    5.4241   14.5021 C   0  0  2  0  0  0  0  0  0  0  0  0
  -13.2030    6.1617   13.1939 N   0  3  0  0  0  0  0  0  0  0  0  0
  -12.6525    6.3885   15.6694 C   0  0  2  0  0  0  0  0  0  0  0  0
  -12.5026    5.5792   16.9808 C   0  0  2  0  0  0  0  0  0  0  0  0
  -12.1063    6.4491   18.0133 O   0  0  0  0  0  0  0  0  0  0  0  0
  -11.4048    4.4947   16.8129 C   0  0  1  0  0  0  0  0  0  0  0  0
  -11.2829    3.7675   18.0265 O   0  0  0  0  0  0  0  0  0  0  0  0
  -10.0107    3.3403   18.4286 C   0  0  2  0  0  0  0  0  0  0  0  0
  -10.2065    2.2200   19.4676 C   0  0  2  0  0  0  0  0  0  0  0  0
  -10.8963    1.1472   18.8628 O   0  0  0  0  0  0  0  0  0  0  0  0
  -11.0139    2.7854   20.6856 C   0  0  1  0  0  0  0  0  0  0  0  0
  -11.2717    1.7566   21.7224 N   0  3  0  0  0  0  0  0  0  0  0  0
  -12.7118    1.7222   22.0842 C   0  0  0  0  0  0  0  0  0  0  0  0
  -10.2279    3.9892   21.3101 C   0  0  2  0  0  0  0  0  0  0  0  0
   -8.9345    3.5474   21.7633 O   0  0  0  0  0  0  0  0  0  0  0  0
  -10.9202    4.5596   22.4514 C   0  0  0  0  0  0  0  0  0  0  0  0
   -9.9598    5.0752   20.2230 C   0  0  0  0  0  0  0  0  0  0  0  0
   -9.2818    4.4700   19.0301 O   0  0  0  0  0  0  0  0  0  0  0  0
  1  2  1  6  0  0  0
  1  3  1  0  0  0  0
  1 10  1  0  0  0  0
  3  4  1  6  0  0  0
  3  5  1  0  0  0  0
  5  6  1  1  0  0  0
  5  7  1  0  0  0  0
  7  8  1  6  0  0  0
  7  9  1  0  0  0  0
  9 10  1  1  0  0  0
  9 11  1  0  0  0  0
 11 12  1  1  0  0  0
 11 13  1  0  0  0  0
 14 15  1  6  0  0  0
 14 16  1  0  0  0  0
 14 22  1  0  0  0  0
 16 17  1  0  0  0  0
 17 18  1  6  0  0  0
 17 19  1  0  0  0  0
 19  2  1  1  0  0  0
 19 20  1  0  0  0  0
 20 21  1  1  0  0  0
 20 22  1  0  0  0  0
 22 23  1  1  0  0  0
 24 23  1  1  0  0  0
 24 25  1  0  0  0  0
 24 34  1  0  0  0  0
 25 26  1  6  0  0  0
 25 27  1  0  0  0  0
 27 28  1  1  0  0  0
 27 30  1  0  0  0  0
 28 29  1  0  0  0  0
 30 31  1  1  0  0  0
 30 32  1  0  0  0  0
 30 33  1  0  0  0  0
 33 34  1  0  0  0  0
M  CHG  4   4   1  15   1  18   1  28   1
M  END
>  <CHROM.1>
-153.56878695,81.61530220,-34.91093406,-150.82872627,-57.52247229,46.03894176
61.59802566,65.16413633,134.15793624,176.48354795,96.22852650,-161.55493608
-62.11691950,-9.10644570,60.54328721,-12.69532765,5.83369161,17.98287087
-2.94140080,-0.97057379,1.28753786

>  <Name>
1mwl

>  <RI>
0

>  <Rbt.Current_Directory>
/home/itssahil/PROJECTS/Mol_Feturizer/New_Systems/rnas/1mwl

>  <Rbt.Executable>
rbdock ($Id: //depot/dev/client3/rdock/2013.1/src/exe/rbdock.cxx#4 $)

>  <Rbt.Library>
libRbt.so (2013.1, Build901 2013/11/27)

>  <Rbt.Parameter_File>
/export/apps/rDock/src/rDock_2013.1_src/data/scripts/dock_solv.prm

>  <Rbt.Receptor>
prm/pocket_docking_6.prm

>  <SCORE>
-41.3731

>  <SCORE.INTER>
-30.0972

>  <SCORE.INTER.CONST>
1

>  <SCORE.INTER.POLAR>
-5.68193

>  <SCORE.INTER.ROT>
6

>  <SCORE.INTER.SOLV>
16.085

>  <SCORE.INTER.VDW>
-14.0867

>  <SCORE.INTER.norm>
-0.885211

>  <SCORE.INTRA>
-11.2759

>  <SCORE.INTRA.DIHEDRAL>
-18.5368

>  <SCORE.INTRA.DIHEDRAL.0>
42.0816

>  <SCORE.INTRA.POLAR>
0.176803

>  <SCORE.INTRA.POLAR.0>
-0.254682

>  <SCORE.INTRA.REPUL>
0

>  <SCORE.INTRA.REPUL.0>
0

>  <SCORE.INTRA.SOLV>
1.69218

>  <SCORE.INTRA.SOLV.lig_0>
-109.803

>  <SCORE.INTRA.VDW>
-3.45467

>  <SCORE.INTRA.VDW.0>
0.32176

>  <SCORE.INTRA.norm>
-0.331643

>  <SCORE.RESTR>
0

>  <SCORE.RESTR.CAVITY>
0

>  <SCORE.RESTR.norm>
0

>  <SCORE.SYSTEM>
0

>  <SCORE.SYSTEM.CONST>
0

>  <SCORE.SYSTEM.DIHEDRAL>
0

>  <SCORE.SYSTEM.SOLV>
0

>  <SCORE.SYSTEM.norm>
0

>  <SCORE.heavy>
34

>  <SCORE.norm>
-1.21685

>  <RMSD>
8.400

$$$$
1mwl
 OpenBabel11021811403D
libRbt.so/2013.1/901 2013/11/27
 34 36  0  0  0  0  0  0  0  0999 V2000
  -15.8326    7.0994   17.8680 C   0  0  2  0  0  0  0  0  0  0  0  0
  -14.6747    7.8682   17.7388 O   0  0  0  0  0  0  0  0  0  0  0  0
  -16.6078    7.1960   16.5239 C   0  0  2  0  0  0  0  0  0  0  0  0
  -15.7709    6.7115   15.4220 N   0  3  0  0  0  0  0  0  0  0  0  0
  -17.0919    8.6542   16.2733 C   0  0  1  0  0  0  0  0  0  0  0  0
  -17.7915    8.7413   15.1144 O   0  0  0  0  0  0  0  0  0  0  0  0
  -17.9692    9.1044   17.4879 C   0  0  2  0  0  0  0  0  0  0  0  0
  -18.4444   10.4516   17.2842 O   0  0  0  0  0  0  0  0  0  0  0  0
  -17.1023    8.9984   18.7884 C   0  0  2  0  0  0  0  0  0  0  0  0
  -16.6205    7.6117   18.9729 O   0  0  0  0  0  0  0  0  0  0  0  0
  -17.8339    9.3867   20.0783 C   0  0  2  0  0  0  0  0  0  0  0  0
  -18.2331   10.7167   20.0081 O   0  0  0  0  0  0  0  0  0  0  0  0
  -16.9630    9.2640   21.3420 C   0  0  0  0  0  0  0  0  0  0  0  0
  -10.7642    8.0899   19.4472 C   0  0  2  0  0  0  0  0  0  0  0  0
   -9.6713    8.1435   20.4512 N   0  3  0  0  0  0  0  0  0  0  0  0
  -11.7009    9.3265   19.5864 C   0  0  0  0  0  0  0  0  0  0  0  0
  -12.8641    9.2508   18.5322 C   0  0  2  0  0  0  0  0  0  0  0  0
  -13.7476   10.4644   18.6851 N   0  3  0  0  0  0  0  0  0  0  0  0
  -13.6659    7.9202   18.7394 C   0  0  2  0  0  0  0  0  0  0  0  0
  -12.7106    6.7114   18.5866 C   0  0  2  0  0  0  0  0  0  0  0  0
  -13.4339    5.5249   18.8082 O   0  0  0  0  0  0  0  0  0  0  0  0
  -11.5776    6.7929   19.6444 C   0  0  1  0  0  0  0  0  0  0  0  0
  -10.7163    5.6748   19.4875 O   0  0  0  0  0  0  0  0  0  0  0  0
  -10.0110    5.2084   20.6044 C   0  0  2  0  0  0  0  0  0  0  0  0
   -9.4333    3.8271   20.2423 C   0  0  2  0  0  0  0  0  0  0  0  0
   -8.5496    3.9699   19.1508 O   0  0  0  0  0  0  0  0  0  0  0  0
  -10.6101    2.8571   19.8829 C   0  0  1  0  0  0  0  0  0  0  0  0
  -10.1342    1.5077   19.4920 N   0  3  0  0  0  0  0  0  0  0  0  0
  -10.5141    1.2007   18.0893 C   0  0  0  0  0  0  0  0  0  0  0  0
  -11.5801    2.7478   21.1094 C   0  0  2  0  0  0  0  0  0  0  0  0
  -10.8707    2.2295   22.2503 O   0  0  0  0  0  0  0  0  0  0  0  0
  -12.6952    1.8566   20.8455 C   0  0  0  0  0  0  0  0  0  0  0  0
  -12.0862    4.1651   21.5195 C   0  0  0  0  0  0  0  0  0  0  0  0
  -10.9294    5.0910   21.7500 O   0  0  0  0  0  0  0  0  0  0  0  0
  1  2  1  6  0  0  0
  1  3  1  0  0  0  0
  1 10  1  0  0  0  0
  3  4  1  6  0  0  0
  3  5  1  0  0  0  0
  5  6  1  6  0  0  0
  5  7  1  0  0  0  0
  7  8  1  6  0  0  0
  7  9  1  0  0  0  0
  9 10  1  1  0  0  0
  9 11  1  0  0  0  0
 11 12  1  6  0  0  0
 11 13  1  0  0  0  0
 14 15  1  1  0  0  0
 14 16  1  0  0  0  0
 14 22  1  0  0  0  0
 16 17  1  0  0  0  0
 17 18  1  1  0  0  0
 17 19  1  0  0  0  0
 19  2  1  6  0  0  0
 19 20  1  0  0  0  0
 20 21  1  1  0  0  0
 20 22  1  0  0  0  0
 22 23  1  6  0  0  0
 24 23  1  6  0  0  0
 24 25  1  0  0  0  0
 24 34  1  0  0  0  0
 25 26  1  6  0  0  0
 25 27  1  0  0  0  0
 27 28  1  1  0  0  0
 27 30  1  0  0  0  0
 28 29  1  0  0  0  0
 30 31  1  1  0  0  0
 30 32  1  0  0  0  0
 30 33  1  0  0  0  0
 33 34  1  0  0  0  0
M  CHG  4   4   1  15   1  18   1  28   1
M  END
>  <CHROM.1>
-174.53231221,-157.70361192,46.51941991,-85.62388093,-50.46089875,-61.67134294
56.89594976,-162.26919188,-56.59986431,-56.59692511,87.17376552,166.97970415
168.65166000,2.34921080,173.58850262,-13.51131168,6.60590516,19.09912010
2.56604166,-0.51236298,0.25389315

>  <Name>
1mwl

>  <RI>
0

>  <Rbt.Current_Directory>
/home/itssahil/PROJECTS/Mol_Feturizer/New_Systems/rnas/1mwl

>  <Rbt.Executable>
rbdock ($Id: //depot/dev/client3/rdock/2013.1/src/exe/rbdock.cxx#4 $)

>  <Rbt.Library>
libRbt.so (2013.1, Build901 2013/11/27)

>  <Rbt.Parameter_File>
/export/apps/rDock/src/rDock_2013.1_src/data/scripts/dock_solv.prm

>  <Rbt.Receptor>
prm/pocket_docking_8.prm

>  <SCORE>
-61.0766

>  <SCORE.INTER>
-42.6318

>  <SCORE.INTER.CONST>
1

>  <SCORE.INTER.POLAR>
-7.98507

>  <SCORE.INTER.ROT>
6

>  <SCORE.INTER.SOLV>
16.2246

>  <SCORE.INTER.VDW>
-14.8125

>  <SCORE.INTER.norm>
-1.25388

>  <SCORE.INTRA>
-18.4449

>  <SCORE.INTRA.DIHEDRAL>
-26.9467

>  <SCORE.INTRA.DIHEDRAL.0>
42.0816

>  <SCORE.INTRA.POLAR>
-0.151267

>  <SCORE.INTRA.POLAR.0>
-0.254682

>  <SCORE.INTRA.REPUL>
0

>  <SCORE.INTRA.REPUL.0>
0

>  <SCORE.INTRA.SOLV>
-0.763746

>  <SCORE.INTRA.SOLV.lig_0>
-109.803

>  <SCORE.INTRA.VDW>
-4.07533

>  <SCORE.INTRA.VDW.0>
0.32176

>  <SCORE.INTRA.norm>
-0.542496

>  <SCORE.RESTR>
0

>  <SCORE.RESTR.CAVITY>
0

>  <SCORE.RESTR.norm>
0

>  <SCORE.SYSTEM>
0

>  <SCORE.SYSTEM.CONST>
0

>  <SCORE.SYSTEM.DIHEDRAL>
0

>  <SCORE.SYSTEM.SOLV>
0

>  <SCORE.SYSTEM.norm>
0

>  <SCORE.heavy>
34

>  <SCORE.norm>
-1.79637

>  <RMSD>
8.405

$$$$
1mwl
 OpenBabel11021811403D
libRbt.so/2013.1/901 2013/11/27
 34 36  0  0  0  0  0  0  0  0999 V2000
  -16.1945    9.6906   16.7787 C   0  0  2  0  0  0  0  0  0  0  0  0
  -15.7524    8.9486   17.8753 O   0  0  0  0  0  0  0  0  0  0  0  0
  -17.4094    8.9379   16.1668 C   0  0  2  0  0  0  0  0  0  0  0  0
  -18.4696    8.7909   17.1686 N   0  3  0  0  0  0  0  0  0  0  0  0
  -16.9692    7.5579   15.5963 C   0  0  1  0  0  0  0  0  0  0  0  0
  -18.0194    6.9059   15.0376 O   0  0  0  0  0  0  0  0  0  0  0  0
  -15.8357    7.7917   14.5437 C   0  0  2  0  0  0  0  0  0  0  0  0
  -15.4093    6.5311   13.9857 O   0  0  0  0  0  0  0  0  0  0  0  0
  -14.6493    8.5295   15.2523 C   0  0  2  0  0  0  0  0  0  0  0  0
  -15.1108    9.8144   15.8226 O   0  0  0  0  0  0  0  0  0  0  0  0
  -13.4608    8.8531   14.3398 C   0  0  2  0  0  0  0  0  0  0  0  0
  -13.0701    7.7075   13.6556 O   0  0  0  0  0  0  0  0  0  0  0  0
  -12.2163    9.3468   15.1000 C   0  0  0  0  0  0  0  0  0  0  0  0
  -12.5909    9.6967   20.6510 C   0  0  2  0  0  0  0  0  0  0  0  0
  -11.2282    9.8097   21.2305 N   0  3  0  0  0  0  0  0  0  0  0  0
  -12.9093    8.2187   20.2769 C   0  0  0  0  0  0  0  0  0  0  0  0
  -14.3457    8.1128   19.6478 C   0  0  2  0  0  0  0  0  0  0  0  0
  -14.6286    6.6709   19.3050 N   0  3  0  0  0  0  0  0  0  0  0  0
  -14.4275    9.0360   18.3840 C   0  0  2  0  0  0  0  0  0  0  0  0
  -14.1151   10.4972   18.7895 C   0  0  2  0  0  0  0  0  0  0  0  0
  -14.1581   11.3104   17.6419 O   0  0  0  0  0  0  0  0  0  0  0  0
  -12.6883   10.5871   19.3939 C   0  0  1  0  0  0  0  0  0  0  0  0
  -12.4226   11.9343   19.7558 O   0  0  0  0  0  0  0  0  0  0  0  0
  -12.9293   12.4160   20.9698 C   0  0  2  0  0  0  0  0  0  0  0  0
  -14.3040   13.0472   20.6787 C   0  0  2  0  0  0  0  0  0  0  0  0
  -15.1669   12.0542   20.1669 O   0  0  0  0  0  0  0  0  0  0  0  0
  -14.1250   14.2142   19.6486 C   0  0  1  0  0  0  0  0  0  0  0  0
  -15.4124   14.8581   19.2911 N   0  3  0  0  0  0  0  0  0  0  0  0
  -16.0184   14.2017   18.1046 C   0  0  0  0  0  0  0  0  0  0  0  0
  -13.1410   15.2795   20.2435 C   0  0  2  0  0  0  0  0  0  0  0  0
  -13.6761   15.8091   21.4710 O   0  0  0  0  0  0  0  0  0  0  0  0
  -12.9334   16.3957   19.3390 C   0  0  0  0  0  0  0  0  0  0  0  0
  -11.7842   14.6060   20.6158 C   0  0  0  0  0  0  0  0  0  0  0  0
  -12.0104   13.4288   21.5169 O   0  0  0  0  0  0  0  0  0  0  0  0
  1  2  1  1  0  0  0
  1  3  1  0  0  0  0
  1 10  1  0  0  0  0
  3  4  1  1  0  0  0
  3  5  1  0  0  0  0
  5  6  1  6  0  0  0
  5  7  1  0  0  0  0
  7  8  1  1  0  0  0
  7  9  1  0  0  0  0
  9 10  1  6  0  0  0
  9 11  1  0  0  0  0
 11 12  1  1  0  0  0
 11 13  1  0  0  0  0
 14 15  1  6  0  0  0
 14 16  1  0  0  0  0
 14 22  1  0  0  0  0
 16 17  1  0  0  0  0
 17 18  1  6  0  0  0
 17 19  1  0  0  0  0
 19  2  1  1  0  0  0
 19 20  1  0  0  0  0
 20 21  1  6  0  0  0
 20 22  1  0  0  0  0
 22 23  1  1  0  0  0
 24 23  1  6  0  0  0
 24 25  1  0  0  0  0
 24 34  1  0  0  0  0
 25 26  1  6  0  0  0
 25 27  1  0  0  0  0
 27 28  1  1  0  0  0
 27 30  1  0  0  0  0
 28 29  1  0  0  0  0
 30 31  1  1  0  0  0
 30 32  1  0  0  0  0
 30 33  1  0  0  0  0
 33 34  1  0  0  0  0
M  CHG  4   4   1  15   1  18   1  28   1
M  END
>  <CHROM.1>
156.77530535,177.26484239,-165.44936059,-171.87811749,64.16295907,-51.00415145
-53.73564018,-115.62549913,174.47231203,-166.07807624,-39.27718881,-92.04100099
174.42227461,29.10205909,177.65212031,-14.36109867,10.61444784,18.17778849
1.98469523,0.75822227,-2.76102527

>  <Name>
1mwl

>  <RI>
0

>  <Rbt.Current_Directory>
/home/itssahil/PROJECTS/Mol_Feturizer/New_Systems/rnas/1mwl

>  <Rbt.Executable>
rbdock ($Id: //depot/dev/client3/rdock/2013.1/src/exe/rbdock.cxx#4 $)

>  <Rbt.Library>
libRbt.so (2013.1, Build901 2013/11/27)

>  <Rbt.Parameter_File>
/export/apps/rDock/src/rDock_2013.1_src/data/scripts/dock_solv.prm

>  <Rbt.Receptor>
prm/blind_docking_80.prm

>  <SCORE>
-9.97598

>  <SCORE.INTER>
-18.7278

>  <SCORE.INTER.CONST>
1

>  <SCORE.INTER.POLAR>
-3.98531

>  <SCORE.INTER.ROT>
6

>  <SCORE.INTER.SOLV>
16.2641

>  <SCORE.INTER.VDW>
-12.2222

>  <SCORE.INTER.norm>
-0.550818

>  <SCORE.INTRA>
-7.03309

>  <SCORE.INTRA.DIHEDRAL>
-25.7287

>  <SCORE.INTRA.DIHEDRAL.0>
42.0816

>  <SCORE.INTRA.POLAR>
0.150666

>  <SCORE.INTRA.POLAR.0>
-0.254682

>  <SCORE.INTRA.REPUL>
0

>  <SCORE.INTRA.REPUL.0>
0

>  <SCORE.INTRA.SOLV>
-1.07038

>  <SCORE.INTRA.SOLV.lig_0>
-109.803

>  <SCORE.INTRA.VDW>
5.8542

>  <SCORE.INTRA.VDW.0>
0.32176

>  <SCORE.INTRA.norm>
-0.206856

>  <SCORE.RESTR>
15.7849

>  <SCORE.RESTR.CAVITY>
15.7849

>  <SCORE.RESTR.norm>
0.464262

>  <SCORE.SYSTEM>
0

>  <SCORE.SYSTEM.CONST>
0

>  <SCORE.SYSTEM.DIHEDRAL>
0

>  <SCORE.SYSTEM.SOLV>
0

>  <SCORE.SYSTEM.norm>
0

>  <SCORE.heavy>
34

>  <SCORE.norm>
-0.293411

>  <RMSD>
8.431

$$$$
1mwl
 OpenBabel11021811403D
libRbt.so/2013.1/901 2013/11/27
 34 36  0  0  0  0  0  0  0  0999 V2000
  -10.4580    5.1089   13.7181 C   0  0  2  0  0  0  0  0  0  0  0  0
  -11.3826    6.1485   13.6036 O   0  0  0  0  0  0  0  0  0  0  0  0
   -9.5835    5.1203   12.4328 C   0  0  2  0  0  0  0  0  0  0  0  0
   -8.9098    6.4147   12.2915 N   0  3  0  0  0  0  0  0  0  0  0  0
  -10.4451    4.7865   11.1799 C   0  0  1  0  0  0  0  0  0  0  0  0
   -9.6837    4.7693   10.0574 O   0  0  0  0  0  0  0  0  0  0  0  0
  -11.1364    3.4011   11.4045 C   0  0  2  0  0  0  0  0  0  0  0  0
  -11.9376    3.0545   10.2554 O   0  0  0  0  0  0  0  0  0  0  0  0
  -12.0115    3.4911   12.7007 C   0  0  2  0  0  0  0  0  0  0  0  0
  -11.1714    3.8543   13.8633 O   0  0  0  0  0  0  0  0  0  0  0  0
  -12.7411    2.1948   13.0713 C   0  0  2  0  0  0  0  0  0  0  0  0
  -13.6174    1.8425   12.0508 O   0  0  0  0  0  0  0  0  0  0  0  0
  -13.5916    2.3097   14.3494 C   0  0  0  0  0  0  0  0  0  0  0  0
  -13.6700    8.4478   16.3857 C   0  0  2  0  0  0  0  0  0  0  0  0
  -14.6589    8.8050   17.4345 N   0  3  0  0  0  0  0  0  0  0  0  0
  -14.3872    7.8998   15.1164 C   0  0  0  0  0  0  0  0  0  0  0  0
  -13.3315    7.5077   14.0201 C   0  0  2  0  0  0  0  0  0  0  0  0
  -14.0553    6.9902   12.8015 N   0  3  0  0  0  0  0  0  0  0  0  0
  -12.3470    6.4389   14.6073 C   0  0  2  0  0  0  0  0  0  0  0  0
  -11.6446    7.0157   15.8606 C   0  0  2  0  0  0  0  0  0  0  0  0
  -10.7895    6.0359   16.3983 O   0  0  0  0  0  0  0  0  0  0  0  0
  -12.6992    7.3828   16.9387 C   0  0  1  0  0  0  0  0  0  0  0  0
  -12.0334    7.9066   18.0784 O   0  0  0  0  0  0  0  0  0  0  0  0
  -12.7725    8.1190   19.2494 C   0  0  2  0  0  0  0  0  0  0  0  0
  -11.7679    8.3306   20.3978 C   0  0  2  0  0  0  0  0  0  0  0  0
  -10.9848    9.4716   20.1194 O   0  0  0  0  0  0  0  0  0  0  0  0
  -10.8668    7.0560   20.5325 C   0  0  1  0  0  0  0  0  0  0  0  0
   -9.8482    7.1914   21.6021 N   0  3  0  0  0  0  0  0  0  0  0  0
   -8.7605    8.1110   21.1808 C   0  0  0  0  0  0  0  0  0  0  0  0
  -11.7757    5.8103   20.8140 C   0  0  2  0  0  0  0  0  0  0  0  0
  -12.5075    6.0046   22.0388 O   0  0  0  0  0  0  0  0  0  0  0  0
  -11.0013    4.5907   20.9556 C   0  0  0  0  0  0  0  0  0  0  0  0
  -12.8448    5.6624   19.6878 C   0  0  0  0  0  0  0  0  0  0  0  0
  -13.6125    6.9396   19.5195 O   0  0  0  0  0  0  0  0  0  0  0  0
  1  2  1  6  0  0  0
  1  3  1  0  0  0  0
  1 10  1  0  0  0  0
  3  4  1  6  0  0  0
  3  5  1  0  0  0  0
  5  6  1  6  0  0  0
  5  7  1  0  0  0  0
  7  8  1  6  0  0  0
  7  9  1  0  0  0  0
  9 10  1  1  0  0  0
  9 11  1  0  0  0  0
 11 12  1  6  0  0  0
 11 13  1  0  0  0  0
 14 15  1  1  0  0  0
 14 16  1  0  0  0  0
 14 22  1  0  0  0  0
 16 17  1  0  0  0  0
 17 18  1  6  0  0  0
 17 19  1  0  0  0  0
 19  2  1  6  0  0  0
 19 20  1  0  0  0  0
 20 21  1  1  0  0  0
 20 22  1  0  0  0  0
 22 23  1  1  0  0  0
 24 23  1  6  0  0  0
 24 25  1  0  0  0  0
 24 34  1  0  0  0  0
 25 26  1  6  0  0  0
 25 27  1  0  0  0  0
 27 28  1  1  0  0  0
 27 30  1  0  0  0  0
 28 29  1  0  0  0  0
 30 31  1  1  0  0  0
 30 32  1  0  0  0  0
 30 33  1  0  0  0  0
 33 34  1  0  0  0  0
M  CHG  4   4   1  15   1  18   1  28   1
M  END
>  <CHROM.1>
-179.77370135,-171.19889054,-53.97779048,62.24277715,-55.00326392,-61.34417006
57.60720628,-26.11388994,-54.81037200,-60.89455694,69.21755008,165.62698599
-66.17403635,46.31882954,-54.77064260,-11.84744122,6.00334579,16.00460344
-1.55575877,-0.83679094,1.21974558

>  <Name>
1mwl

>  <RI>
0

>  <Rbt.Current_Directory>
/home/itssahil/PROJECTS/Mol_Feturizer/New_Systems/rnas/1mwl

>  <Rbt.Executable>
rbdock ($Id: //depot/dev/client3/rdock/2013.1/src/exe/rbdock.cxx#4 $)

>  <Rbt.Library>
libRbt.so (2013.1, Build901 2013/11/27)

>  <Rbt.Parameter_File>
/export/apps/rDock/src/rDock_2013.1_src/data/scripts/dock_solv.prm

>  <Rbt.Receptor>
prm/pocket_docking_8.prm

>  <SCORE>
-48.8168

>  <SCORE.INTER>
-26.1181

>  <SCORE.INTER.CONST>
1

>  <SCORE.INTER.POLAR>
-4.50495

>  <SCORE.INTER.ROT>
6

>  <SCORE.INTER.SOLV>
16.4468

>  <SCORE.INTER.VDW>
-15.4778

>  <SCORE.INTER.norm>
-0.76818

>  <SCORE.INTRA>
-22.6986

>  <SCORE.INTRA.DIHEDRAL>
-36.9105

>  <SCORE.INTRA.DIHEDRAL.0>
42.0816

>  <SCORE.INTRA.POLAR>
-0.986062

>  <SCORE.INTRA.POLAR.0>
-0.254682

>  <SCORE.INTRA.REPUL>
0

>  <SCORE.INTRA.REPUL.0>
0

>  <SCORE.INTRA.SOLV>
-1.21414

>  <SCORE.INTRA.SOLV.lig_0>
-109.803

>  <SCORE.INTRA.VDW>
-0.283702

>  <SCORE.INTRA.VDW.0>
0.32176

>  <SCORE.INTRA.norm>
-0.667607

>  <SCORE.RESTR>
0

>  <SCORE.RESTR.CAVITY>
0

>  <SCORE.RESTR.norm>
0

>  <SCORE.SYSTEM>
0

>  <SCORE.SYSTEM.CONST>
0

>  <SCORE.SYSTEM.DIHEDRAL>
0

>  <SCORE.SYSTEM.SOLV>
0

>  <SCORE.SYSTEM.norm>
0

>  <SCORE.heavy>
34

>  <SCORE.norm>
-1.43579

>  <RMSD>
8.449

$$$$
1mwl
 OpenBabel11021811403D
libRbt.so/2013.1/901 2013/11/27
 34 36  0  0  0  0  0  0  0  0999 V2000
  -15.2037    7.2833   17.2935 C   0  0  2  0  0  0  0  0  0  0  0  0
  -14.4602    8.4225   17.6065 O   0  0  0  0  0  0  0  0  0  0  0  0
  -15.9873    7.5840   15.9848 C   0  0  2  0  0  0  0  0  0  0  0  0
  -15.0556    7.9215   14.9043 N   0  3  0  0  0  0  0  0  0  0  0  0
  -17.0268    8.7195   16.2164 C   0  0  1  0  0  0  0  0  0  0  0  0
  -17.7324    8.9700   15.0853 O   0  0  0  0  0  0  0  0  0  0  0  0
  -17.9785    8.2944   17.3831 C   0  0  2  0  0  0  0  0  0  0  0  0
  -18.9637    9.3220   17.6190 O   0  0  0  0  0  0  0  0  0  0  0  0
  -17.1086    8.0377   18.6603 C   0  0  2  0  0  0  0  0  0  0  0  0
  -16.1017    6.9868   18.3933 O   0  0  0  0  0  0  0  0  0  0  0  0
  -17.9000    7.5874   19.8935 C   0  0  2  0  0  0  0  0  0  0  0  0
  -17.0231    7.3010   20.9338 O   0  0  0  0  0  0  0  0  0  0  0  0
  -18.7271    6.3096   19.6626 C   0  0  0  0  0  0  0  0  0  0  0  0
  -11.4698    9.0718   20.5890 C   0  0  2  0  0  0  0  0  0  0  0  0
  -10.8298    9.3049   21.9087 N   0  3  0  0  0  0  0  0  0  0  0  0
  -12.4077   10.2576   20.2148 C   0  0  0  0  0  0  0  0  0  0  0  0
  -13.0939    9.9928   18.8259 C   0  0  2  0  0  0  0  0  0  0  0  0
  -13.9873   11.1605   18.4868 N   0  3  0  0  0  0  0  0  0  0  0  0
  -13.8970    8.6485   18.8924 C   0  0  2  0  0  0  0  0  0  0  0  0
  -12.9371    7.4898   19.2573 C   0  0  2  0  0  0  0  0  0  0  0  0
  -13.6747    6.2949   19.3474 O   0  0  0  0  0  0  0  0  0  0  0  0
  -12.2803    7.7591   20.6376 C   0  0  1  0  0  0  0  0  0  0  0  0
  -11.4073    6.6843   20.9527 O   0  0  0  0  0  0  0  0  0  0  0  0
  -10.2744    6.4829   20.1536 C   0  0  2  0  0  0  0  0  0  0  0  0
  -10.0770    4.9622   20.0068 C   0  0  2  0  0  0  0  0  0  0  0  0
  -11.2094    4.4108   19.3694 O   0  0  0  0  0  0  0  0  0  0  0  0
   -9.8750    4.3318   21.4269 C   0  0  1  0  0  0  0  0  0  0  0  0
   -9.7068    2.8590   21.3754 N   0  3  0  0  0  0  0  0  0  0  0  0
  -10.9933    2.1927   21.0482 C   0  0  0  0  0  0  0  0  0  0  0  0
   -8.6264    4.9893   22.1093 C   0  0  2  0  0  0  0  0  0  0  0  0
   -7.4505    4.7502   21.3133 O   0  0  0  0  0  0  0  0  0  0  0  0
   -8.3777    4.4452   23.4319 C   0  0  0  0  0  0  0  0  0  0  0  0
   -8.8029    6.5380   22.1695 C   0  0  0  0  0  0  0  0  0  0  0  0
   -9.1005    7.0874   20.8063 O   0  0  0  0  0  0  0  0  0  0  0  0
  1  2  1  1  0  0  0
  1  3  1  0  0  0  0
  1 10  1  0  0  0  0
  3  4  1  6  0  0  0
  3  5  1  0  0  0  0
  5  6  1  6  0  0  0
  5  7  1  0  0  0  0
  7  8  1  1  0  0  0
  7  9  1  0  0  0  0
  9 10  1  6  0  0  0
  9 11  1  0  0  0  0
 11 12  1  1  0  0  0
 11 13  1  0  0  0  0
 14 15  1  1  0  0  0
 14 16  1  0  0  0  0
 14 22  1  0  0  0  0
 16 17  1  0  0  0  0
 17 18  1  1  0  0  0
 17 19  1  0  0  0  0
 19  2  1  6  0  0  0
 19 20  1  0  0  0  0
 20 21  1  1  0  0  0
 20 22  1  0  0  0  0
 22 23  1  6  0  0  0
 24 23  1  1  0  0  0
 24 25  1  0  0  0  0
 24 34  1  0  0  0  0
 25 26  1  1  0  0  0
 25 27  1  0  0  0  0
 27 28  1  6  0  0  0
 27 30  1  0  0  0  0
 28 29  1  0  0  0  0
 30 31  1  6  0  0  0
 30 32  1  0  0  0  0
 30 33  1  0  0  0  0
 33 34  1  0  0  0  0
M  CHG  4   4   1  15   1  18   1  28   1
M  END
>  <CHROM.1>
163.37145923,177.63355049,-36.75594108,-71.31372331,-52.29831730,175.88962581
67.16490680,22.62317974,-49.45708736,179.26797738,-54.83425325,-142.14692965
76.42038590,47.97530232,62.99288260,-13.23562439,7.13229465,19.45116793,2.71127430
-0.42981951,-0.15269583

>  <Name>
1mwl

>  <RI>
0

>  <Rbt.Current_Directory>
/home/itssahil/PROJECTS/Mol_Feturizer/New_Systems/rnas/1mwl

>  <Rbt.Executable>
rbdock ($Id: //depot/dev/client3/rdock/2013.1/src/exe/rbdock.cxx#4 $)

>  <Rbt.Library>
libRbt.so (2013.1, Build901 2013/11/27)

>  <Rbt.Parameter_File>
/export/apps/rDock/src/rDock_2013.1_src/data/scripts/dock_solv.prm

>  <Rbt.Receptor>
prm/pocket_docking_7.prm

>  <SCORE>
-61.141

>  <SCORE.INTER>
-43.0128

>  <SCORE.INTER.CONST>
1

>  <SCORE.INTER.POLAR>
-6.71654

>  <SCORE.INTER.ROT>
6

>  <SCORE.INTER.SOLV>
20.997

>  <SCORE.INTER.VDW>
-20.8858

>  <SCORE.INTER.norm>
-1.26508

>  <SCORE.INTRA>
-18.1282

>  <SCORE.INTRA.DIHEDRAL>
-28.7225

>  <SCORE.INTRA.DIHEDRAL.0>
42.0816

>  <SCORE.INTRA.POLAR>
-0.757866

>  <SCORE.INTRA.POLAR.0>
-0.254682

>  <SCORE.INTRA.REPUL>
0

>  <SCORE.INTRA.REPUL.0>
0

>  <SCORE.INTRA.SOLV>
-1.51049

>  <SCORE.INTRA.SOLV.lig_0>
-109.803

>  <SCORE.INTRA.VDW>
-0.434934

>  <SCORE.INTRA.VDW.0>
0.32176

>  <SCORE.INTRA.norm>
-0.533181

>  <SCORE.RESTR>
0

>  <SCORE.RESTR.CAVITY>
0

>  <SCORE.RESTR.norm>
0

>  <SCORE.SYSTEM>
0

>  <SCORE.SYSTEM.CONST>
0

>  <SCORE.SYSTEM.DIHEDRAL>
0

>  <SCORE.SYSTEM.SOLV>
0

>  <SCORE.SYSTEM.norm>
0

>  <SCORE.heavy>
34

>  <SCORE.norm>
-1.79826

>  <RMSD>
8.490

$$$$
1mwl
 OpenBabel11021811403D
libRbt.so/2013.1/901 2013/11/27
 34 36  0  0  0  0  0  0  0  0999 V2000
  -15.8416    6.8925   14.9522 C   0  0  2  0  0  0  0  0  0  0  0  0
  -14.7876    7.6187   15.5093 O   0  0  0  0  0  0  0  0  0  0  0  0
  -17.1545    7.3928   15.6177 C   0  0  2  0  0  0  0  0  0  0  0  0
  -17.3220    8.8308   15.3865 N   0  3  0  0  0  0  0  0  0  0  0  0
  -17.1625    7.0551   17.1374 C   0  0  1  0  0  0  0  0  0  0  0  0
  -18.3165    7.4660   17.7201 O   0  0  0  0  0  0  0  0  0  0  0  0
  -16.9727    5.5115   17.3065 C   0  0  2  0  0  0  0  0  0  0  0  0
  -16.9851    5.1606   18.7062 O   0  0  0  0  0  0  0  0  0  0  0  0
  -15.6194    5.1041   16.6309 C   0  0  2  0  0  0  0  0  0  0  0  0
  -15.6263    5.4795   15.1997 O   0  0  0  0  0  0  0  0  0  0  0  0
  -15.2988    3.6064   16.6927 C   0  0  2  0  0  0  0  0  0  0  0  0
  -15.3103    3.1791   18.0158 O   0  0  0  0  0  0  0  0  0  0  0  0
  -13.9080    3.2500   16.1367 C   0  0  0  0  0  0  0  0  0  0  0  0
  -11.3068    5.5676   14.1178 C   0  0  2  0  0  0  0  0  0  0  0  0
   -9.8995    5.2919   13.7317 N   0  3  0  0  0  0  0  0  0  0  0  0
  -11.9178    6.6797   13.2146 C   0  0  0  0  0  0  0  0  0  0  0  0
  -13.4004    6.9768   13.6430 C   0  0  2  0  0  0  0  0  0  0  0  0
  -13.9674    8.0493   12.7459 N   0  3  0  0  0  0  0  0  0  0  0  0
  -13.4283    7.4069   15.1499 C   0  0  2  0  0  0  0  0  0  0  0  0
  -12.8234    6.2791   16.0212 C   0  0  2  0  0  0  0  0  0  0  0  0
  -12.8225    6.6902   17.3669 O   0  0  0  0  0  0  0  0  0  0  0  0
  -11.3552    6.0091   15.5961 C   0  0  1  0  0  0  0  0  0  0  0  0
  -10.8204    4.9747   16.4087 O   0  0  0  0  0  0  0  0  0  0  0  0
   -9.7815    5.2862   17.2954 C   0  0  2  0  0  0  0  0  0  0  0  0
   -8.8820    4.0409   17.4090 C   0  0  2  0  0  0  0  0  0  0  0  0
   -8.3454    3.7436   16.1377 O   0  0  0  0  0  0  0  0  0  0  0  0
   -9.7328    2.8411   17.9489 C   0  0  1  0  0  0  0  0  0  0  0  0
   -8.9436    1.5901   18.0598 N   0  3  0  0  0  0  0  0  0  0  0  0
   -9.7991    0.4029   17.8057 C   0  0  0  0  0  0  0  0  0  0  0  0
  -10.3309    3.2220   19.3469 C   0  0  2  0  0  0  0  0  0  0  0  0
   -9.2665    3.5033   20.2749 O   0  0  0  0  0  0  0  0  0  0  0  0
  -11.1297    2.1483   19.9094 C   0  0  0  0  0  0  0  0  0  0  0  0
  -11.1658    4.5346   19.2322 C   0  0  0  0  0  0  0  0  0  0  0  0
  -10.3468    5.6271   18.6122 O   0  0  0  0  0  0  0  0  0  0  0  0
  1  2  1  1  0  0  0
  1  3  1  0  0  0  0
  1 10  1  0  0  0  0
  3  4  1  1  0  0  0
  3  5  1  0  0  0  0
  5  6  1  6  0  0  0
  5  7  1  0  0  0  0
  7  8  1  1  0  0  0
  7  9  1  0  0  0  0
  9 10  1  6  0  0  0
  9 11  1  0  0  0  0
 11 12  1  1  0  0  0
 11 13  1  0  0  0  0
 14 15  1  6  0  0  0
 14 16  1  0  0  0  0
 14 22  1  0  0  0  0
 16 17  1  0  0  0  0
 17 18  1  6  0  0  0
 17 19  1  0  0  0  0
 19  2  1  1  0  0  0
 19 20  1  0  0  0  0
 20 21  1  1  0  0  0
 20 22  1  0  0  0  0
 22 23  1  1  0  0  0
 24 23  1  6  0  0  0
 24 25  1  0  0  0  0
 24 34  1  0  0  0  0
 25 26  1  6  0  0  0
 25 27  1  0  0  0  0
 27 28  1  1  0  0  0
 27 30  1  0  0  0  0
 28 29  1  0  0  0  0
 30 31  1  1  0  0  0
 30 32  1  0  0  0  0
 30 33  1  0  0  0  0
 33 34  1  0  0  0  0
M  CHG  4   4   1  15   1  18   1  28   1
M  END
>  <CHROM.1>
178.85870699,32.30800506,174.01059204,63.63519753,64.66948254,-56.01720915
-55.26199522,-65.46573436,171.59883002,-57.81998557,126.17200142,-147.65039744
75.96658811,-27.70651794,-55.32364912,-12.93469282,5.22368759,16.63511601
-2.62477074,-0.26561771,2.20887072

>  <Name>
1mwl

>  <RI>
0

>  <Rbt.Current_Directory>
/home/itssahil/PROJECTS/Mol_Feturizer/New_Systems/rnas/1mwl

>  <Rbt.Executable>
rbdock ($Id: //depot/dev/client3/rdock/2013.1/src/exe/rbdock.cxx#4 $)

>  <Rbt.Library>
libRbt.so (2013.1, Build901 2013/11/27)

>  <Rbt.Parameter_File>
/export/apps/rDock/src/rDock_2013.1_src/data/scripts/dock_solv.prm

>  <Rbt.Receptor>
prm/pocket_docking_7.prm

>  <SCORE>
-44.8057

>  <SCORE.INTER>
-29.3788

>  <SCORE.INTER.CONST>
1

>  <SCORE.INTER.POLAR>
-5.30184

>  <SCORE.INTER.ROT>
6

>  <SCORE.INTER.SOLV>
22.0071

>  <SCORE.INTER.VDW>
-16.8488

>  <SCORE.INTER.norm>
-0.864083

>  <SCORE.INTRA>
-15.4269

>  <SCORE.INTRA.DIHEDRAL>
-23.706

>  <SCORE.INTRA.DIHEDRAL.0>
42.0816

>  <SCORE.INTRA.POLAR>
-0.397563

>  <SCORE.INTRA.POLAR.0>
-0.254682

>  <SCORE.INTRA.REPUL>
0.0160853

>  <SCORE.INTRA.REPUL.0>
0

>  <SCORE.INTRA.SOLV>
-0.0994056

>  <SCORE.INTRA.SOLV.lig_0>
-109.803

>  <SCORE.INTRA.VDW>
-2.25294

>  <SCORE.INTRA.VDW.0>
0.32176

>  <SCORE.INTRA.norm>
-0.453733

>  <SCORE.RESTR>
0

>  <SCORE.RESTR.CAVITY>
0

>  <SCORE.RESTR.norm>
0

>  <SCORE.SYSTEM>
0

>  <SCORE.SYSTEM.CONST>
0

>  <SCORE.SYSTEM.DIHEDRAL>
0

>  <SCORE.SYSTEM.SOLV>
0

>  <SCORE.SYSTEM.norm>
0

>  <SCORE.heavy>
34

>  <SCORE.norm>
-1.31782

>  <RMSD>
8.513

$$$$
1mwl
 OpenBabel11021811403D
libRbt.so/2013.1/901 2013/11/27
 34 36  0  0  0  0  0  0  0  0999 V2000
  -16.9032    9.8526   18.9150 C   0  0  2  0  0  0  0  0  0  0  0  0
  -17.4251    8.5630   19.0299 O   0  0  0  0  0  0  0  0  0  0  0  0
  -16.3864   10.2724   20.3199 C   0  0  2  0  0  0  0  0  0  0  0  0
  -15.3663    9.3281   20.7860 N   0  3  0  0  0  0  0  0  0  0  0  0
  -17.5668   10.3801   21.3291 C   0  0  1  0  0  0  0  0  0  0  0  0
  -17.1268   10.7710   22.5513 O   0  0  0  0  0  0  0  0  0  0  0  0
  -18.6150   11.3951   20.7645 C   0  0  2  0  0  0  0  0  0  0  0  0
  -19.7212   11.5274   21.6815 O   0  0  0  0  0  0  0  0  0  0  0  0
  -19.0957   10.8802   19.3653 C   0  0  2  0  0  0  0  0  0  0  0  0
  -17.9453   10.7452   18.4446 O   0  0  0  0  0  0  0  0  0  0  0  0
  -20.1163   11.7857   18.6664 C   0  0  2  0  0  0  0  0  0  0  0  0
  -20.3254   11.3394   17.3663 O   0  0  0  0  0  0  0  0  0  0  0  0
  -19.6623   13.2523   18.5511 C   0  0  0  0  0  0  0  0  0  0  0  0
  -16.8797    5.1142   16.5666 C   0  0  2  0  0  0  0  0  0  0  0  0
  -17.0015    4.1675   15.4290 N   0  3  0  0  0  0  0  0  0  0  0  0
  -18.2545    5.3059   17.2732 C   0  0  0  0  0  0  0  0  0  0  0  0
  -18.1188    6.3231   18.4635 C   0  0  2  0  0  0  0  0  0  0  0  0
  -19.4618    6.4807   19.1328 N   0  3  0  0  0  0  0  0  0  0  0  0
  -17.5788    7.6898   17.9184 C   0  0  2  0  0  0  0  0  0  0  0  0
  -16.2095    7.4678   17.2306 C   0  0  2  0  0  0  0  0  0  0  0  0
  -15.7511    8.6945   16.7158 O   0  0  0  0  0  0  0  0  0  0  0  0
  -16.3640    6.4737   16.0486 C   0  0  1  0  0  0  0  0  0  0  0  0
  -15.0985    6.2872   15.4319 O   0  0  0  0  0  0  0  0  0  0  0  0
  -14.6029    7.2970   14.5968 C   0  0  2  0  0  0  0  0  0  0  0  0
  -13.8854    6.6115   13.4187 C   0  0  2  0  0  0  0  0  0  0  0  0
  -14.8171    5.8248   12.7077 O   0  0  0  0  0  0  0  0  0  0  0  0
  -12.7179    5.7264   13.9740 C   0  0  1  0  0  0  0  0  0  0  0  0
  -11.9920    5.0054   12.9000 N   0  3  0  0  0  0  0  0  0  0  0  0
  -12.6847    3.7376   12.5550 C   0  0  0  0  0  0  0  0  0  0  0  0
  -11.7225    6.6321   14.7776 C   0  0  2  0  0  0  0  0  0  0  0  0
  -11.1776    7.6473   13.9140 O   0  0  0  0  0  0  0  0  0  0  0  0
  -10.6091    5.8734   15.3179 C   0  0  0  0  0  0  0  0  0  0  0  0
  -12.4823    7.3878   15.9111 C   0  0  0  0  0  0  0  0  0  0  0  0
  -13.6553    8.1355   15.3509 O   0  0  0  0  0  0  0  0  0  0  0  0
  1  2  1  1  0  0  0
  1  3  1  0  0  0  0
  1 10  1  0  0  0  0
  3  4  1  1  0  0  0
  3  5  1  0  0  0  0
  5  6  1  1  0  0  0
  5  7  1  0  0  0  0
  7  8  1  1  0  0  0
  7  9  1  0  0  0  0
  9 10  1  6  0  0  0
  9 11  1  0  0  0  0
 11 12  1  6  0  0  0
 11 13  1  0  0  0  0
 14 15  1  6  0  0  0
 14 16  1  0  0  0  0
 14 22  1  0  0  0  0
 16 17  1  0  0  0  0
 17 18  1  6  0  0  0
 17 19  1  0  0  0  0
 19  2  1  1  0  0  0
 19 20  1  0  0  0  0
 20 21  1  6  0  0  0
 20 22  1  0  0  0  0
 22 23  1  1  0  0  0
 24 23  1  1  0  0  0
 24 25  1  0  0  0  0
 24 34  1  0  0  0  0
 25 26  1  1  0  0  0
 25 27  1  0  0  0  0
 27 28  1  6  0  0  0
 27 30  1  0  0  0  0
 28 29  1  0  0  0  0
 30 31  1  6  0  0  0
 30 32  1  0  0  0  0
 30 33  1  0  0  0  0
 33 34  1  0  0  0  0
M  CHG  4   4   1  15   1  18   1  28   1
M  END
>  <CHROM.1>
-158.55492188,177.02887463,60.81267450,63.13580721,179.70261050,171.51231947
172.23397331,71.76849445,63.94826519,165.77600289,163.74030981,-142.24435106
67.33437629,35.54237371,-55.35237326,-16.10191260,8.06791978,17.15419500
-2.22875315,-0.27895044,-2.47136947

>  <Name>
1mwl

>  <RI>
0

>  <Rbt.Current_Directory>
/home/itssahil/PROJECTS/Mol_Feturizer/New_Systems/rnas/1mwl

>  <Rbt.Executable>
rbdock ($Id: //depot/dev/client3/rdock/2013.1/src/exe/rbdock.cxx#4 $)

>  <Rbt.Library>
libRbt.so (2013.1, Build901 2013/11/27)

>  <Rbt.Parameter_File>
/export/apps/rDock/src/rDock_2013.1_src/data/scripts/dock_solv.prm

>  <Rbt.Receptor>
prm/pocket_docking_8.prm

>  <SCORE>
-55.452

>  <SCORE.INTER>
-36.4028

>  <SCORE.INTER.CONST>
1

>  <SCORE.INTER.POLAR>
-6.2744

>  <SCORE.INTER.ROT>
6

>  <SCORE.INTER.SOLV>
12.3285

>  <SCORE.INTER.VDW>
-15.0634

>  <SCORE.INTER.norm>
-1.07067

>  <SCORE.INTRA>
-19.0492

>  <SCORE.INTRA.DIHEDRAL>
-30.0459

>  <SCORE.INTRA.DIHEDRAL.0>
42.0816

>  <SCORE.INTRA.POLAR>
-0.592739

>  <SCORE.INTRA.POLAR.0>
-0.254682

>  <SCORE.INTRA.REPUL>
0

>  <SCORE.INTRA.REPUL.0>
0

>  <SCORE.INTRA.SOLV>
-3.39189

>  <SCORE.INTRA.SOLV.lig_0>
-109.803

>  <SCORE.INTRA.VDW>
-0.314991

>  <SCORE.INTRA.VDW.0>
0.32176

>  <SCORE.INTRA.norm>
-0.560271

>  <SCORE.RESTR>
0

>  <SCORE.RESTR.CAVITY>
0

>  <SCORE.RESTR.norm>
0

>  <SCORE.SYSTEM>
0

>  <SCORE.SYSTEM.CONST>
0

>  <SCORE.SYSTEM.DIHEDRAL>
0

>  <SCORE.SYSTEM.SOLV>
0

>  <SCORE.SYSTEM.norm>
0

>  <SCORE.heavy>
34

>  <SCORE.norm>
-1.63094

>  <RMSD>
8.517

$$$$
1mwl
 OpenBabel11021811403D
libRbt.so/2013.1/901 2013/11/27
 34 36  0  0  0  0  0  0  0  0999 V2000
  -14.8169    9.5602   16.2763 C   0  0  2  0  0  0  0  0  0  0  0  0
  -14.3863    8.5990   17.1924 O   0  0  0  0  0  0  0  0  0  0  0  0
  -16.3565    9.7018   16.4393 C   0  0  2  0  0  0  0  0  0  0  0  0
  -16.6851   10.0950   17.8130 N   0  3  0  0  0  0  0  0  0  0  0  0
  -17.0746    8.3802   16.0376 C   0  0  1  0  0  0  0  0  0  0  0  0
  -18.4205    8.5043   16.1529 O   0  0  0  0  0  0  0  0  0  0  0  0
  -16.6728    8.0205   14.5691 C   0  0  2  0  0  0  0  0  0  0  0  0
  -17.3298    6.8029   14.1592 O   0  0  0  0  0  0  0  0  0  0  0  0
  -15.1145    7.8739   14.5060 C   0  0  2  0  0  0  0  0  0  0  0  0
  -14.4625    9.1304   14.9370 O   0  0  0  0  0  0  0  0  0  0  0  0
  -14.5587    7.5426   13.1163 C   0  0  2  0  0  0  0  0  0  0  0  0
  -14.8949    6.2369   12.7766 O   0  0  0  0  0  0  0  0  0  0  0  0
  -13.0240    7.6292   13.0292 C   0  0  0  0  0  0  0  0  0  0  0  0
  -12.1649    9.5924   20.7050 C   0  0  2  0  0  0  0  0  0  0  0  0
  -11.0239    9.8108   21.6301 N   0  3  0  0  0  0  0  0  0  0  0  0
  -12.2598    8.0937   20.2918 C   0  0  0  0  0  0  0  0  0  0  0  0
  -13.4585    7.8767   19.2988 C   0  0  2  0  0  0  0  0  0  0  0  0
  -13.5305    6.4167   18.9246 N   0  3  0  0  0  0  0  0  0  0  0  0
  -13.2603    8.7888   18.0397 C   0  0  2  0  0  0  0  0  0  0  0  0
  -13.1786   10.2703   18.4819 C   0  0  2  0  0  0  0  0  0  0  0  0
  -12.9667   11.0759   17.3477 O   0  0  0  0  0  0  0  0  0  0  0  0
  -11.9811   10.4706   19.4489 C   0  0  1  0  0  0  0  0  0  0  0  0
  -11.9238   11.8348   19.8389 O   0  0  0  0  0  0  0  0  0  0  0  0
  -12.6917   12.2533   20.9334 C   0  0  2  0  0  0  0  0  0  0  0  0
  -14.0741   12.6693   20.3958 C   0  0  2  0  0  0  0  0  0  0  0  0
  -14.6864   11.5520   19.7880 O   0  0  0  0  0  0  0  0  0  0  0  0
  -13.8939   13.8352   19.3647 C   0  0  1  0  0  0  0  0  0  0  0  0
  -15.1818   14.2759   18.7755 N   0  3  0  0  0  0  0  0  0  0  0  0
  -15.7105   13.2518   17.8386 C   0  0  0  0  0  0  0  0  0  0  0  0
  -13.1878   15.0430   20.0715 C   0  0  2  0  0  0  0  0  0  0  0  0
  -13.9925   15.5047   21.1727 O   0  0  0  0  0  0  0  0  0  0  0  0
  -12.9936   16.1647   19.1708 C   0  0  0  0  0  0  0  0  0  0  0  0
  -11.8305   14.5836   20.6878 C   0  0  0  0  0  0  0  0  0  0  0  0
  -12.0335   13.3988   21.5845 O   0  0  0  0  0  0  0  0  0  0  0  0
  1  2  1  1  0  0  0
  1  3  1  0  0  0  0
  1 10  1  0  0  0  0
  3  4  1  1  0  0  0
  3  5  1  0  0  0  0
  5  6  1  6  0  0  0
  5  7  1  0  0  0  0
  7  8  1  1  0  0  0
  7  9  1  0  0  0  0
  9 10  1  6  0  0  0
  9 11  1  0  0  0  0
 11 12  1  1  0  0  0
 11 13  1  0  0  0  0
 14 15  1  1  0  0  0
 14 16  1  0  0  0  0
 14 22  1  0  0  0  0
 16 17  1  0  0  0  0
 17 18  1  6  0  0  0
 17 19  1  0  0  0  0
 19  2  1  6  0  0  0
 19 20  1  0  0  0  0
 20 21  1  6  0  0  0
 20 22  1  0  0  0  0
 22 23  1  1  0  0  0
 24 23  1  6  0  0  0
 24 25  1  0  0  0  0
 24 34  1  0  0  0  0
 25 26  1  6  0  0  0
 25 27  1  0  0  0  0
 27 28  1  1  0  0  0
 27 30  1  0  0  0  0
 28 29  1  0  0  0  0
 30 31  1  1  0  0  0
 30 32  1  0  0  0  0
 30 33  1  0  0  0  0
 33 34  1  0  0  0  0
M  CHG  4   4   1  15   1  18   1  28   1
M  END
>  <CHROM.1>
-133.06057415,154.97897168,28.11925470,-162.62132738,68.59291088,-70.65476505
126.66546523,104.75323685,-58.68699979,-56.63256241,-33.88615438,-88.88154344
154.56172299,48.54586743,179.38243310,-14.14349100,10.42136914,17.95602895
2.02221277,0.79825392,-2.70827795

>  <Name>
1mwl

>  <RI>
0

>  <Rbt.Current_Directory>
/home/itssahil/PROJECTS/Mol_Feturizer/New_Systems/rnas/1mwl

>  <Rbt.Executable>
rbdock ($Id: //depot/dev/client3/rdock/2013.1/src/exe/rbdock.cxx#4 $)

>  <Rbt.Library>
libRbt.so (2013.1, Build901 2013/11/27)

>  <Rbt.Parameter_File>
/export/apps/rDock/src/rDock_2013.1_src/data/scripts/dock_solv.prm

>  <Rbt.Receptor>
prm/blind_docking_80.prm

>  <SCORE>
19.587

>  <SCORE.INTER>
8.08546

>  <SCORE.INTER.CONST>
1

>  <SCORE.INTER.POLAR>
-3.63256

>  <SCORE.INTER.ROT>
6

>  <SCORE.INTER.SOLV>
18.8603

>  <SCORE.INTER.VDW>
3.61206

>  <SCORE.INTER.norm>
0.237808

>  <SCORE.INTRA>
0.12337

>  <SCORE.INTRA.DIHEDRAL>
-9.48548

>  <SCORE.INTRA.DIHEDRAL.0>
42.0816

>  <SCORE.INTRA.POLAR>
-0.772921

>  <SCORE.INTRA.POLAR.0>
-0.254682

>  <SCORE.INTRA.REPUL>
0

>  <SCORE.INTRA.REPUL.0>
0

>  <SCORE.INTRA.SOLV>
2.57168

>  <SCORE.INTRA.SOLV.lig_0>
-109.803

>  <SCORE.INTRA.VDW>
6.2082

>  <SCORE.INTRA.VDW.0>
0.32176

>  <SCORE.INTRA.norm>
0.00362854

>  <SCORE.RESTR>
11.3781

>  <SCORE.RESTR.CAVITY>
11.3781

>  <SCORE.RESTR.norm>
0.334651

>  <SCORE.SYSTEM>
0

>  <SCORE.SYSTEM.CONST>
0

>  <SCORE.SYSTEM.DIHEDRAL>
0

>  <SCORE.SYSTEM.SOLV>
0

>  <SCORE.SYSTEM.norm>
0

>  <SCORE.heavy>
34

>  <SCORE.norm>
0.576087

>  <RMSD>
8.526

$$$$
1mwl
 OpenBabel11021811403D
libRbt.so/2013.1/901 2013/11/27
 34 36  0  0  0  0  0  0  0  0999 V2000
  -14.5442    4.6384   13.1476 C   0  0  2  0  0  0  0  0  0  0  0  0
  -13.8160    4.9727   14.2906 O   0  0  0  0  0  0  0  0  0  0  0  0
  -15.3499    3.3485   13.4697 C   0  0  2  0  0  0  0  0  0  0  0  0
  -16.2370    3.5793   14.6138 N   0  3  0  0  0  0  0  0  0  0  0  0
  -14.3887    2.1510   13.7263 C   0  0  1  0  0  0  0  0  0  0  0  0
  -15.0852    1.0156   13.9829 O   0  0  0  0  0  0  0  0  0  0  0  0
  -13.4717    1.9696   12.4718 C   0  0  2  0  0  0  0  0  0  0  0  0
  -12.5722    0.8590   12.6714 O   0  0  0  0  0  0  0  0  0  0  0  0
  -12.6841    3.3037   12.2398 C   0  0  2  0  0  0  0  0  0  0  0  0
  -13.6253    4.4286   12.0450 O   0  0  0  0  0  0  0  0  0  0  0  0
  -11.7516    3.2928   11.0231 C   0  0  2  0  0  0  0  0  0  0  0  0
  -11.1642    2.0391   10.8944 O   0  0  0  0  0  0  0  0  0  0  0  0
  -10.5941    4.3029   11.1242 C   0  0  0  0  0  0  0  0  0  0  0  0
  -12.5026    8.7400   15.8210 C   0  0  2  0  0  0  0  0  0  0  0  0
  -12.5228   10.0803   16.4602 N   0  3  0  0  0  0  0  0  0  0  0  0
  -13.3756    8.7319   14.5311 C   0  0  0  0  0  0  0  0  0  0  0  0
  -13.3624    7.3048   13.8727 C   0  0  2  0  0  0  0  0  0  0  0  0
  -14.2074    7.3307   12.6229 N   0  3  0  0  0  0  0  0  0  0  0  0
  -13.8895    6.2518   14.9071 C   0  0  2  0  0  0  0  0  0  0  0  0
  -12.9974    6.2781   16.1723 C   0  0  2  0  0  0  0  0  0  0  0  0
  -13.5001    5.3537   17.1066 O   0  0  0  0  0  0  0  0  0  0  0  0
  -13.0339    7.6888   16.8186 C   0  0  1  0  0  0  0  0  0  0  0  0
  -12.2122    7.6890   17.9767 O   0  0  0  0  0  0  0  0  0  0  0  0
  -12.6439    8.3959   19.1065 C   0  0  2  0  0  0  0  0  0  0  0  0
  -11.6183    8.1453   20.2282 C   0  0  2  0  0  0  0  0  0  0  0  0
  -10.3591    8.6336   19.8175 O   0  0  0  0  0  0  0  0  0  0  0  0
  -11.5495    6.6087   20.5265 C   0  0  1  0  0  0  0  0  0  0  0  0
  -10.5584    6.2787   21.5795 N   0  3  0  0  0  0  0  0  0  0  0  0
   -9.1760    6.3389   21.0396 C   0  0  0  0  0  0  0  0  0  0  0  0
  -12.9708    6.1027   20.9521 C   0  0  2  0  0  0  0  0  0  0  0  0
  -13.4030    6.7965   22.1376 O   0  0  0  0  0  0  0  0  0  0  0  0
  -12.9777    4.6819   21.2494 C   0  0  0  0  0  0  0  0  0  0  0  0
  -14.0144    6.4439   19.8441 C   0  0  0  0  0  0  0  0  0  0  0  0
  -13.9721    7.9059   19.5132 O   0  0  0  0  0  0  0  0  0  0  0  0
  1  2  1  1  0  0  0
  1  3  1  0  0  0  0
  1 10  1  0  0  0  0
  3  4  1  1  0  0  0
  3  5  1  0  0  0  0
  5  6  1  6  0  0  0
  5  7  1  0  0  0  0
  7  8  1  1  0  0  0
  7  9  1  0  0  0  0
  9 10  1  6  0  0  0
  9 11  1  0  0  0  0
 11 12  1  1  0  0  0
 11 13  1  0  0  0  0
 14 15  1  1  0  0  0
 14 16  1  0  0  0  0
 14 22  1  0  0  0  0
 16 17  1  0  0  0  0
 17 18  1  6  0  0  0
 17 19  1  0  0  0  0
 19  2  1  6  0  0  0
 19 20  1  0  0  0  0
 20 21  1  1  0  0  0
 20 22  1  0  0  0  0
 22 23  1  1  0  0  0
 24 23  1  6  0  0  0
 24 25  1  0  0  0  0
 24 34  1  0  0  0  0
 25 26  1  6  0  0  0
 25 27  1  0  0  0  0
 27 28  1  1  0  0  0
 27 30  1  0  0  0  0
 28 29  1  0  0  0  0
 30 31  1  1  0  0  0
 30 32  1  0  0  0  0
 30 33  1  0  0  0  0
 33 34  1  0  0  0  0
M  CHG  4   4   1  15   1  18   1  28   1
M  END
>  <CHROM.1>
-125.68137527,-62.65976117,175.51645716,-68.69490647,60.28488350,-37.11302857
-41.81979057,-177.81968040,-81.59604337,66.81085134,98.77367691,176.19656424
-59.36087976,43.65404082,63.81089939,-12.94441916,5.61509727,16.12726291
-2.64798850,1.41192755,2.15336110

>  <Name>
1mwl

>  <RI>
0

>  <Rbt.Current_Directory>
/home/itssahil/PROJECTS/Mol_Feturizer/New_Systems/rnas/1mwl

>  <Rbt.Executable>
rbdock ($Id: //depot/dev/client3/rdock/2013.1/src/exe/rbdock.cxx#4 $)

>  <Rbt.Library>
libRbt.so (2013.1, Build901 2013/11/27)

>  <Rbt.Parameter_File>
/export/apps/rDock/src/rDock_2013.1_src/data/scripts/dock_solv.prm

>  <Rbt.Receptor>
prm/pocket_docking_6.prm

>  <SCORE>
-39.3583

>  <SCORE.INTER>
-23.6656

>  <SCORE.INTER.CONST>
1

>  <SCORE.INTER.POLAR>
-3.8892

>  <SCORE.INTER.ROT>
6

>  <SCORE.INTER.SOLV>
21.9612

>  <SCORE.INTER.VDW>
-17.7335

>  <SCORE.INTER.norm>
-0.696048

>  <SCORE.INTRA>
-15.6983

>  <SCORE.INTRA.DIHEDRAL>
-23.9924

>  <SCORE.INTRA.DIHEDRAL.0>
42.0816

>  <SCORE.INTRA.POLAR>
-0.824595

>  <SCORE.INTRA.POLAR.0>
-0.254682

>  <SCORE.INTRA.REPUL>
0

>  <SCORE.INTRA.REPUL.0>
0

>  <SCORE.INTRA.SOLV>
0.699711

>  <SCORE.INTRA.SOLV.lig_0>
-109.803

>  <SCORE.INTRA.VDW>
-1.24831

>  <SCORE.INTRA.VDW.0>
0.32176

>  <SCORE.INTRA.norm>
-0.461713

>  <SCORE.RESTR>
0.00560834

>  <SCORE.RESTR.CAVITY>
0.00560834

>  <SCORE.RESTR.norm>
0.000164951

>  <SCORE.SYSTEM>
0

>  <SCORE.SYSTEM.CONST>
0

>  <SCORE.SYSTEM.DIHEDRAL>
0

>  <SCORE.SYSTEM.SOLV>
0

>  <SCORE.SYSTEM.norm>
0

>  <SCORE.heavy>
34

>  <SCORE.norm>
-1.1576

>  <RMSD>
8.536

$$$$
1mwl
 OpenBabel11021811403D
libRbt.so/2013.1/901 2013/11/27
 34 36  0  0  0  0  0  0  0  0999 V2000
  -17.2971    7.1709   17.5442 C   0  0  2  0  0  0  0  0  0  0  0  0
  -16.2744    6.4150   16.9686 O   0  0  0  0  0  0  0  0  0  0  0  0
  -17.7933    8.1780   16.4689 C   0  0  2  0  0  0  0  0  0  0  0  0
  -18.2698    7.4580   15.2839 N   0  3  0  0  0  0  0  0  0  0  0  0
  -16.6687    9.1914   16.1059 C   0  0  1  0  0  0  0  0  0  0  0  0
  -17.1025   10.0896   15.1865 O   0  0  0  0  0  0  0  0  0  0  0  0
  -16.2067    9.9138   17.4144 C   0  0  2  0  0  0  0  0  0  0  0  0
  -15.1689   10.8701   17.1131 O   0  0  0  0  0  0  0  0  0  0  0  0
  -15.7026    8.8283   18.4252 C   0  0  2  0  0  0  0  0  0  0  0  0
  -16.7795    7.8555   18.7136 O   0  0  0  0  0  0  0  0  0  0  0  0
  -15.2335    9.3807   19.7760 C   0  0  2  0  0  0  0  0  0  0  0  0
  -14.1106   10.1794   19.5909 O   0  0  0  0  0  0  0  0  0  0  0  0
  -14.8246    8.2880   20.7806 C   0  0  0  0  0  0  0  0  0  0  0  0
  -15.6920    2.3785   15.6932 C   0  0  2  0  0  0  0  0  0  0  0  0
  -15.8907    1.0848   14.9915 N   0  3  0  0  0  0  0  0  0  0  0  0
  -16.8995    2.6901   16.6263 C   0  0  0  0  0  0  0  0  0  0  0  0
  -16.6880    4.0692   17.3497 C   0  0  2  0  0  0  0  0  0  0  0  0
  -17.8672    4.3386   18.2518 N   0  3  0  0  0  0  0  0  0  0  0  0
  -16.5106    5.1963   16.2753 C   0  0  2  0  0  0  0  0  0  0  0  0
  -15.2994    4.8626   15.3705 C   0  0  2  0  0  0  0  0  0  0  0  0
  -15.1709    5.8632   14.3894 O   0  0  0  0  0  0  0  0  0  0  0  0
  -15.5310    3.5065   14.6519 C   0  0  1  0  0  0  0  0  0  0  0  0
  -14.4107    3.2222   13.8269 O   0  0  0  0  0  0  0  0  0  0  0  0
  -14.3742    3.7614   12.5345 C   0  0  2  0  0  0  0  0  0  0  0  0
  -14.2796    2.5844   11.5453 C   0  0  2  0  0  0  0  0  0  0  0  0
  -15.4252    1.7718   11.6864 O   0  0  0  0  0  0  0  0  0  0  0  0
  -12.9767    1.7669   11.8437 C   0  0  1  0  0  0  0  0  0  0  0  0
  -12.8257    0.5933   10.9493 N   0  3  0  0  0  0  0  0  0  0  0  0
  -12.5793   -0.6415   11.7372 C   0  0  0  0  0  0  0  0  0  0  0  0
  -11.7331    2.7106   11.7025 C   0  0  2  0  0  0  0  0  0  0  0  0
  -11.6664    3.2360   10.3635 O   0  0  0  0  0  0  0  0  0  0  0  0
  -10.4867    2.0132   11.9616 C   0  0  0  0  0  0  0  0  0  0  0  0
  -11.8868    3.9434   12.6458 C   0  0  0  0  0  0  0  0  0  0  0  0
  -13.1951    4.6341   12.4007 O   0  0  0  0  0  0  0  0  0  0  0  0
  1  2  1  6  0  0  0
  1  3  1  0  0  0  0
  1 10  1  0  0  0  0
  3  4  1  6  0  0  0
  3  5  1  0  0  0  0
  5  6  1  6  0  0  0
  5  7  1  0  0  0  0
  7  8  1  6  0  0  0
  7  9  1  0  0  0  0
  9 10  1  1  0  0  0
  9 11  1  0  0  0  0
 11 12  1  6  0  0  0
 11 13  1  0  0  0  0
 14 15  1  6  0  0  0
 14 16  1  0  0  0  0
 14 22  1  0  0  0  0
 16 17  1  0  0  0  0
 17 18  1  6  0  0  0
 17 19  1  0  0  0  0
 19  2  1  1  0  0  0
 19 20  1  0  0  0  0
 20 21  1  6  0  0  0
 20 22  1  0  0  0  0
 22 23  1  6  0  0  0
 24 23  1  1  0  0  0
 24 25  1  0  0  0  0
 24 34  1  0  0  0  0
 25 26  1  1  0  0  0
 25 27  1  0  0  0  0
 27 28  1  6  0  0  0
 27 30  1  0  0  0  0
 28 29  1  0  0  0  0
 30 31  1  6  0  0  0
 30 32  1  0  0  0  0
 30 33  1  0  0  0  0
 33 34  1  0  0  0  0
M  CHG  4   4   1  15   1  18   1  28   1
M  END
>  <CHROM.1>
-90.15674617,-79.94822826,-58.77339946,-78.34658454,45.51589690,-64.77727728
52.66113369,62.53326839,-69.15762729,-61.25611655,154.64794589,-120.95999824
61.21454179,-8.43672976,60.32327180,-15.09401663,5.23525253,15.15466259,2.04798719
0.79987265,0.36761414

>  <Name>
1mwl

>  <RI>
0

>  <Rbt.Current_Directory>
/home/itssahil/PROJECTS/Mol_Feturizer/New_Systems/rnas/1mwl

>  <Rbt.Executable>
rbdock ($Id: //depot/dev/client3/rdock/2013.1/src/exe/rbdock.cxx#4 $)

>  <Rbt.Library>
libRbt.so (2013.1, Build901 2013/11/27)

>  <Rbt.Parameter_File>
/export/apps/rDock/src/rDock_2013.1_src/data/scripts/dock_solv.prm

>  <Rbt.Receptor>
prm/pocket_docking_8.prm

>  <SCORE>
-41.4893

>  <SCORE.INTER>
-27.1409

>  <SCORE.INTER.CONST>
1

>  <SCORE.INTER.POLAR>
-4.52565

>  <SCORE.INTER.ROT>
6

>  <SCORE.INTER.SOLV>
13.4738

>  <SCORE.INTER.VDW>
-15.0997

>  <SCORE.INTER.norm>
-0.798261

>  <SCORE.INTRA>
-14.3484

>  <SCORE.INTRA.DIHEDRAL>
-20.1251

>  <SCORE.INTRA.DIHEDRAL.0>
42.0816

>  <SCORE.INTRA.POLAR>
-0.461871

>  <SCORE.INTRA.POLAR.0>
-0.254682

>  <SCORE.INTRA.REPUL>
0

>  <SCORE.INTRA.REPUL.0>
0

>  <SCORE.INTRA.SOLV>
1.46012

>  <SCORE.INTRA.SOLV.lig_0>
-109.803

>  <SCORE.INTRA.VDW>
-3.4456

>  <SCORE.INTRA.VDW.0>
0.32176

>  <SCORE.INTRA.norm>
-0.422013

>  <SCORE.RESTR>
0

>  <SCORE.RESTR.CAVITY>
0

>  <SCORE.RESTR.norm>
0

>  <SCORE.SYSTEM>
0

>  <SCORE.SYSTEM.CONST>
0

>  <SCORE.SYSTEM.DIHEDRAL>
0

>  <SCORE.SYSTEM.SOLV>
0

>  <SCORE.SYSTEM.norm>
0

>  <SCORE.heavy>
34

>  <SCORE.norm>
-1.22027

>  <RMSD>
8.562

$$$$
1mwl
 OpenBabel11021811403D
libRbt.so/2013.1/901 2013/11/27
 34 36  0  0  0  0  0  0  0  0999 V2000
  -12.3520    7.3621   16.5305 C   0  0  2  0  0  0  0  0  0  0  0  0
  -13.3349    7.7685   17.4346 O   0  0  0  0  0  0  0  0  0  0  0  0
  -12.3812    8.3544   15.3341 C   0  0  2  0  0  0  0  0  0  0  0  0
  -12.1350    9.7209   15.8048 N   0  3  0  0  0  0  0  0  0  0  0  0
  -13.7324    8.2504   14.5679 C   0  0  1  0  0  0  0  0  0  0  0  0
  -13.7553    9.0953   13.5069 O   0  0  0  0  0  0  0  0  0  0  0  0
  -13.9303    6.7694   14.1041 C   0  0  2  0  0  0  0  0  0  0  0  0
  -15.1715    6.6381   13.3800 O   0  0  0  0  0  0  0  0  0  0  0  0
  -13.9121    5.8492   15.3717 C   0  0  2  0  0  0  0  0  0  0  0  0
  -12.6346    6.0056   16.1017 O   0  0  0  0  0  0  0  0  0  0  0  0
  -14.0726    4.3531   15.0785 C   0  0  2  0  0  0  0  0  0  0  0  0
  -13.1948    3.9771   14.0679 O   0  0  0  0  0  0  0  0  0  0  0  0
  -15.4814    3.9678   14.5914 C   0  0  0  0  0  0  0  0  0  0  0  0
  -11.1201    9.0099   20.8716 C   0  0  2  0  0  0  0  0  0  0  0  0
  -10.7759    9.3295   22.2805 N   0  3  0  0  0  0  0  0  0  0  0  0
  -12.2696    9.9298   20.3633 C   0  0  0  0  0  0  0  0  0  0  0  0
  -12.6385    9.5714   18.8782 C   0  0  2  0  0  0  0  0  0  0  0  0
  -13.7462   10.4836   18.4116 N   0  3  0  0  0  0  0  0  0  0  0  0
  -13.0569    8.0631   18.7976 C   0  0  2  0  0  0  0  0  0  0  0  0
  -11.8922    7.1756   19.3005 C   0  0  2  0  0  0  0  0  0  0  0  0
  -12.2914    5.8270   19.2556 O   0  0  0  0  0  0  0  0  0  0  0  0
  -11.5511    7.5311   20.7725 C   0  0  1  0  0  0  0  0  0  0  0  0
  -10.4838    6.7045   21.2131 O   0  0  0  0  0  0  0  0  0  0  0  0
   -9.4262    6.4462   20.3313 C   0  0  2  0  0  0  0  0  0  0  0  0
   -8.5572    5.3423   20.9631 C   0  0  2  0  0  0  0  0  0  0  0  0
   -9.3373    4.1764   21.1204 O   0  0  0  0  0  0  0  0  0  0  0  0
   -8.0181    5.8426   22.3466 C   0  0  1  0  0  0  0  0  0  0  0  0
   -7.1923    4.8218   23.0367 N   0  3  0  0  0  0  0  0  0  0  0  0
   -7.5523    4.7374   24.4752 C   0  0  0  0  0  0  0  0  0  0  0  0
   -7.1817    7.1507   22.1307 C   0  0  2  0  0  0  0  0  0  0  0  0
   -6.0686    6.8819   21.2578 O   0  0  0  0  0  0  0  0  0  0  0  0
   -6.6458    7.6675   23.3769 C   0  0  0  0  0  0  0  0  0  0  0  0
   -8.0494    8.2278   21.4096 C   0  0  0  0  0  0  0  0  0  0  0  0
   -8.6331    7.6732   20.1445 O   0  0  0  0  0  0  0  0  0  0  0  0
  1  2  1  1  0  0  0
  1  3  1  0  0  0  0
  1 10  1  0  0  0  0
  3  4  1  1  0  0  0
  3  5  1  0  0  0  0
  5  6  1  6  0  0  0
  5  7  1  0  0  0  0
  7  8  1  1  0  0  0
  7  9  1  0  0  0  0
  9 10  1  6  0  0  0
  9 11  1  0  0  0  0
 11 12  1  6  0  0  0
 11 13  1  0  0  0  0
 14 15  1  1  0  0  0
 14 16  1  0  0  0  0
 14 22  1  0  0  0  0
 16 17  1  0  0  0  0
 17 18  1  1  0  0  0
 17 19  1  0  0  0  0
 19  2  1  6  0  0  0
 19 20  1  0  0  0  0
 20 21  1  1  0  0  0
 20 22  1  0  0  0  0
 22 23  1  6  0  0  0
 24 23  1  1  0  0  0
 24 25  1  0  0  0  0
 24 34  1  0  0  0  0
 25 26  1  1  0  0  0
 25 27  1  0  0  0  0
 27 28  1  6  0  0  0
 27 30  1  0  0  0  0
 28 29  1  0  0  0  0
 30 31  1  6  0  0  0
 30 32  1  0  0  0  0
 30 33  1  0  0  0  0
 33 34  1  0  0  0  0
M  CHG  4   4   1  15   1  18   1  28   1
M  END
>  <CHROM.1>
-123.87471402,87.28275913,153.78458706,169.76352670,-73.24653871,48.89095692
174.07661789,137.55438046,74.20370425,179.24831439,-79.51550849,-170.05764031
176.53096572,-15.66878770,-60.74237795,-11.25563135,7.06865326,18.70486894
2.89562737,0.87663734,-2.78425908

>  <Name>
1mwl

>  <RI>
0

>  <Rbt.Current_Directory>
/home/itssahil/PROJECTS/Mol_Feturizer/New_Systems/rnas/1mwl

>  <Rbt.Executable>
rbdock ($Id: //depot/dev/client3/rdock/2013.1/src/exe/rbdock.cxx#4 $)

>  <Rbt.Library>
libRbt.so (2013.1, Build901 2013/11/27)

>  <Rbt.Parameter_File>
/export/apps/rDock/src/rDock_2013.1_src/data/scripts/dock_solv.prm

>  <Rbt.Receptor>
prm/pocket_docking_2.prm

>  <SCORE>
-42.8171

>  <SCORE.INTER>
-38.514

>  <SCORE.INTER.CONST>
1

>  <SCORE.INTER.POLAR>
-5.61637

>  <SCORE.INTER.ROT>
6

>  <SCORE.INTER.SOLV>
31.7

>  <SCORE.INTER.VDW>
-25.1214

>  <SCORE.INTER.norm>
-1.13276

>  <SCORE.INTRA>
-5.41559

>  <SCORE.INTRA.DIHEDRAL>
-19.7803

>  <SCORE.INTRA.DIHEDRAL.0>
42.0816

>  <SCORE.INTRA.POLAR>
0.197752

>  <SCORE.INTRA.POLAR.0>
-0.254682

>  <SCORE.INTRA.REPUL>
0

>  <SCORE.INTRA.REPUL.0>
0

>  <SCORE.INTRA.SOLV>
5.12165

>  <SCORE.INTRA.SOLV.lig_0>
-109.803

>  <SCORE.INTRA.VDW>
1.2414

>  <SCORE.INTRA.VDW.0>
0.32176

>  <SCORE.INTRA.norm>
-0.159282

>  <SCORE.RESTR>
1.11254

>  <SCORE.RESTR.CAVITY>
1.11254

>  <SCORE.RESTR.norm>
0.0327216

>  <SCORE.SYSTEM>
0

>  <SCORE.SYSTEM.CONST>
0

>  <SCORE.SYSTEM.DIHEDRAL>
0

>  <SCORE.SYSTEM.SOLV>
0

>  <SCORE.SYSTEM.norm>
0

>  <SCORE.heavy>
34

>  <SCORE.norm>
-1.25933

>  <RMSD>
8.566

$$$$
1mwl
 OpenBabel11021811403D
libRbt.so/2013.1/901 2013/11/27
 34 36  0  0  0  0  0  0  0  0999 V2000
   -6.3112    5.8477   14.7325 C   0  0  2  0  0  0  0  0  0  0  0  0
   -6.8403    4.5562   14.7084 O   0  0  0  0  0  0  0  0  0  0  0  0
   -6.6908    6.5313   13.3887 C   0  0  2  0  0  0  0  0  0  0  0  0
   -8.1480    6.5591   13.2299 N   0  3  0  0  0  0  0  0  0  0  0  0
   -6.0008    5.8118   12.1930 C   0  0  1  0  0  0  0  0  0  0  0  0
   -6.3069    6.4185   11.0190 O   0  0  0  0  0  0  0  0  0  0  0  0
   -4.4550    5.8142   12.4340 C   0  0  2  0  0  0  0  0  0  0  0  0
   -3.7811    5.1621   11.3372 O   0  0  0  0  0  0  0  0  0  0  0  0
   -4.1665    5.0867   13.7910 C   0  0  2  0  0  0  0  0  0  0  0  0
   -4.8726    5.7672   14.8989 O   0  0  0  0  0  0  0  0  0  0  0  0
   -2.6855    5.0266   14.1824 C   0  0  2  0  0  0  0  0  0  0  0  0
   -2.1091    6.2825   14.0283 O   0  0  0  0  0  0  0  0  0  0  0  0
   -1.8569    4.0624   13.3141 C   0  0  0  0  0  0  0  0  0  0  0  0
   -9.2404    2.6651   17.6955 C   0  0  2  0  0  0  0  0  0  0  0  0
   -9.6301    1.9156   18.9169 N   0  3  0  0  0  0  0  0  0  0  0  0
   -8.4087    1.7620   16.7371 C   0  0  0  0  0  0  0  0  0  0  0  0
   -7.9859    2.5696   15.4568 C   0  0  2  0  0  0  0  0  0  0  0  0
   -7.1912    1.6674   14.5451 N   0  3  0  0  0  0  0  0  0  0  0  0
   -7.1606    3.8302   15.8882 C   0  0  2  0  0  0  0  0  0  0  0  0
   -8.0160    4.7106   16.8317 C   0  0  2  0  0  0  0  0  0  0  0  0
   -7.2534    5.8208   17.2391 O   0  0  0  0  0  0  0  0  0  0  0  0
   -8.4116    3.9038   18.0973 C   0  0  1  0  0  0  0  0  0  0  0  0
   -9.1923    4.7303   18.9482 O   0  0  0  0  0  0  0  0  0  0  0  0
   -8.5424    5.4801   19.9372 C   0  0  2  0  0  0  0  0  0  0  0  0
   -9.4219    5.4384   21.2011 C   0  0  2  0  0  0  0  0  0  0  0  0
   -9.5483    4.0993   21.6295 O   0  0  0  0  0  0  0  0  0  0  0  0
  -10.8250    6.0522   20.8702 C   0  0  1  0  0  0  0  0  0  0  0  0
  -11.7460    6.0222   22.0325 N   0  3  0  0  0  0  0  0  0  0  0  0
  -12.2168    4.6385   22.2964 C   0  0  0  0  0  0  0  0  0  0  0  0
  -10.6377    7.5272   20.3739 C   0  0  2  0  0  0  0  0  0  0  0  0
  -10.0073    8.3137   21.4023 O   0  0  0  0  0  0  0  0  0  0  0  0
  -11.9042    8.1600   20.0535 C   0  0  0  0  0  0  0  0  0  0  0  0
   -9.6735    7.5612   19.1483 C   0  0  0  0  0  0  0  0  0  0  0  0
   -8.3835    6.8692   19.4738 O   0  0  0  0  0  0  0  0  0  0  0  0
  1  2  1  6  0  0  0
  1  3  1  0  0  0  0
  1 10  1  0  0  0  0
  3  4  1  6  0  0  0
  3  5  1  0  0  0  0
  5  6  1  6  0  0  0
  5  7  1  0  0  0  0
  7  8  1  6  0  0  0
  7  9  1  0  0  0  0
  9 10  1  1  0  0  0
  9 11  1  0  0  0  0
 11 12  1  6  0  0  0
 11 13  1  0  0  0  0
 14 15  1  1  0  0  0
 14 16  1  0  0  0  0
 14 22  1  0  0  0  0
 16 17  1  0  0  0  0
 17 18  1  6  0  0  0
 17 19  1  0  0  0  0
 19  2  1  6  0  0  0
 19 20  1  0  0  0  0
 20 21  1  1  0  0  0
 20 22  1  0  0  0  0
 22 23  1  1  0  0  0
 24 23  1  6  0  0  0
 24 25  1  0  0  0  0
 24 34  1  0  0  0  0
 25 26  1  6  0  0  0
 25 27  1  0  0  0  0
 27 28  1  1  0  0  0
 27 30  1  0  0  0  0
 28 29  1  0  0  0  0
 30 31  1  1  0  0  0
 30 32  1  0  0  0  0
 30 33  1  0  0  0  0
 33 34  1  0  0  0  0
M  CHG  4   4   1  15   1  18   1  28   1
M  END
>  <CHROM.1>
-154.68767406,168.69583452,-178.69181565,50.85572797,-61.32508360,47.35655658
59.66944883,-63.63115813,49.47069444,-58.12147084,148.26605230,-140.50000751
-88.05175133,47.12796136,172.89757174,-7.63027758,5.20298408,16.81590853
-0.11390757,0.91555638,0.07189576

>  <Name>
1mwl

>  <RI>
0

>  <Rbt.Current_Directory>
/home/itssahil/PROJECTS/Mol_Feturizer/New_Systems/rnas/1mwl

>  <Rbt.Executable>
rbdock ($Id: //depot/dev/client3/rdock/2013.1/src/exe/rbdock.cxx#4 $)

>  <Rbt.Library>
libRbt.so (2013.1, Build901 2013/11/27)

>  <Rbt.Parameter_File>
/export/apps/rDock/src/rDock_2013.1_src/data/scripts/dock_solv.prm

>  <Rbt.Receptor>
prm/blind_docking_100.prm

>  <SCORE>
-30.9674

>  <SCORE.INTER>
-30.9604

>  <SCORE.INTER.CONST>
1

>  <SCORE.INTER.POLAR>
-5.41007

>  <SCORE.INTER.ROT>
6

>  <SCORE.INTER.SOLV>
20.4231

>  <SCORE.INTER.VDW>
-17.0144

>  <SCORE.INTER.norm>
-0.910601

>  <SCORE.INTRA>
-11.9346

>  <SCORE.INTRA.DIHEDRAL>
-24.3292

>  <SCORE.INTRA.DIHEDRAL.0>
42.0816

>  <SCORE.INTRA.POLAR>
0.250855

>  <SCORE.INTRA.POLAR.0>
-0.254682

>  <SCORE.INTRA.REPUL>
0.0626047

>  <SCORE.INTRA.REPUL.0>
0

>  <SCORE.INTRA.SOLV>
-2.48033

>  <SCORE.INTRA.SOLV.lig_0>
-109.803

>  <SCORE.INTRA.VDW>
0.304214

>  <SCORE.INTRA.VDW.0>
0.32176

>  <SCORE.INTRA.norm>
-0.351018

>  <SCORE.RESTR>
11.9277

>  <SCORE.RESTR.CAVITY>
11.9277

>  <SCORE.RESTR.norm>
0.350814

>  <SCORE.SYSTEM>
0

>  <SCORE.SYSTEM.CONST>
0

>  <SCORE.SYSTEM.DIHEDRAL>
0

>  <SCORE.SYSTEM.SOLV>
0

>  <SCORE.SYSTEM.norm>
0

>  <SCORE.heavy>
34

>  <SCORE.norm>
-0.910806

>  <RMSD>
8.567

$$$$
1mwl
 OpenBabel11021811403D
libRbt.so/2013.1/901 2013/11/27
 34 36  0  0  0  0  0  0  0  0999 V2000
  -14.4198    6.8747   15.2470 C   0  0  2  0  0  0  0  0  0  0  0  0
  -15.7138    7.3885   15.1465 O   0  0  0  0  0  0  0  0  0  0  0  0
  -13.9366    6.5455   13.8065 C   0  0  2  0  0  0  0  0  0  0  0  0
  -13.9635    7.7535   12.9761 N   0  3  0  0  0  0  0  0  0  0  0  0
  -14.7985    5.4076   13.1853 C   0  0  1  0  0  0  0  0  0  0  0  0
  -14.3665    5.0971   11.9374 O   0  0  0  0  0  0  0  0  0  0  0  0
  -14.7285    4.1589   14.1251 C   0  0  2  0  0  0  0  0  0  0  0  0
  -15.5103    3.0786   13.5736 O   0  0  0  0  0  0  0  0  0  0  0  0
  -15.2554    4.5765   15.5400 C   0  0  2  0  0  0  0  0  0  0  0  0
  -14.4445    5.6890   16.0822 O   0  0  0  0  0  0  0  0  0  0  0  0
  -15.2279    3.4585   16.5885 C   0  0  2  0  0  0  0  0  0  0  0  0
  -16.0165    2.3961   16.1611 O   0  0  0  0  0  0  0  0  0  0  0  0
  -15.7847    3.8848   17.9591 C   0  0  0  0  0  0  0  0  0  0  0  0
  -18.0554    9.9730   17.6157 C   0  0  2  0  0  0  0  0  0  0  0  0
  -18.8415   10.4814   18.7686 N   0  3  0  0  0  0  0  0  0  0  0  0
  -18.7496    8.7320   16.9802 C   0  0  0  0  0  0  0  0  0  0  0  0
  -17.9007    8.1909   15.7733 C   0  0  2  0  0  0  0  0  0  0  0  0
  -18.6019    6.9970   15.1736 N   0  3  0  0  0  0  0  0  0  0  0  0
  -16.4611    7.8265   16.2742 C   0  0  2  0  0  0  0  0  0  0  0  0
  -15.7952    9.0805   16.8916 C   0  0  2  0  0  0  0  0  0  0  0  0
  -14.5176    8.7332   17.3681 O   0  0  0  0  0  0  0  0  0  0  0  0
  -16.6369    9.5926   18.0910 C   0  0  1  0  0  0  0  0  0  0  0  0
  -16.0073   10.7397   18.6425 O   0  0  0  0  0  0  0  0  0  0  0  0
  -16.3695   11.1499   19.9321 C   0  0  2  0  0  0  0  0  0  0  0  0
  -15.1747   11.9212   20.5241 C   0  0  2  0  0  0  0  0  0  0  0  0
  -14.9160   13.0541   19.7227 O   0  0  0  0  0  0  0  0  0  0  0  0
  -13.9263   10.9757   20.5714 C   0  0  1  0  0  0  0  0  0  0  0  0
  -12.7199   11.6546   21.1040 N   0  3  0  0  0  0  0  0  0  0  0  0
  -11.5354   11.3672   20.2552 C   0  0  0  0  0  0  0  0  0  0  0  0
  -14.2641    9.7203   21.4472 C   0  0  2  0  0  0  0  0  0  0  0  0
  -14.5972   10.1323   22.7861 O   0  0  0  0  0  0  0  0  0  0  0  0
  -13.1444    8.8010   21.5379 C   0  0  0  0  0  0  0  0  0  0  0  0
  -15.5297    9.0012   20.8863 C   0  0  0  0  0  0  0  0  0  0  0  0
  -16.6697    9.9668   20.7565 O   0  0  0  0  0  0  0  0  0  0  0  0
  1  2  1  6  0  0  0
  1  3  1  0  0  0  0
  1 10  1  0  0  0  0
  3  4  1  6  0  0  0
  3  5  1  0  0  0  0
  5  6  1  6  0  0  0
  5  7  1  0  0  0  0
  7  8  1  6  0  0  0
  7  9  1  0  0  0  0
  9 10  1  1  0  0  0
  9 11  1  0  0  0  0
 11 12  1  6  0  0  0
 11 13  1  0  0  0  0
 14 15  1  1  0  0  0
 14 16  1  0  0  0  0
 14 22  1  0  0  0  0
 16 17  1  0  0  0  0
 17 18  1  1  0  0  0
 17 19  1  0  0  0  0
 19  2  1  6  0  0  0
 19 20  1  0  0  0  0
 20 21  1  1  0  0  0
 20 22  1  0  0  0  0
 22 23  1  6  0  0  0
 24 23  1  6  0  0  0
 24 25  1  0  0  0  0
 24 34  1  0  0  0  0
 25 26  1  6  0  0  0
 25 27  1  0  0  0  0
 27 28  1  1  0  0  0
 27 30  1  0  0  0  0
 28 29  1  0  0  0  0
 30 31  1  1  0  0  0
 30 32  1  0  0  0  0
 30 33  1  0  0  0  0
 33 34  1  0  0  0  0
M  CHG  4   4   1  15   1  18   1  28   1
M  END
>  <CHROM.1>
-178.62025800,-174.30930690,70.51488832,59.75766637,-51.53360508,-59.74478841
61.23655813,-24.73288938,-179.00155190,-52.80138561,77.21588615,154.21914948
56.02943544,-13.91952682,64.49792845,-15.42971314,8.06335580,17.43987109
-1.63021323,-0.47576225,0.77341569

>  <Name>
1mwl

>  <RI>
0

>  <Rbt.Current_Directory>
/home/itssahil/PROJECTS/Mol_Feturizer/New_Systems/rnas/1mwl

>  <Rbt.Executable>
rbdock ($Id: //depot/dev/client3/rdock/2013.1/src/exe/rbdock.cxx#4 $)

>  <Rbt.Library>
libRbt.so (2013.1, Build901 2013/11/27)

>  <Rbt.Parameter_File>
/export/apps/rDock/src/rDock_2013.1_src/data/scripts/dock_solv.prm

>  <Rbt.Receptor>
prm/pocket_docking_7.prm

>  <SCORE>
-49.7362

>  <SCORE.INTER>
-27.7777

>  <SCORE.INTER.CONST>
1

>  <SCORE.INTER.POLAR>
-4.45129

>  <SCORE.INTER.ROT>
6

>  <SCORE.INTER.SOLV>
24.2808

>  <SCORE.INTER.VDW>
-19.3745

>  <SCORE.INTER.norm>
-0.816993

>  <SCORE.INTRA>
-21.9585

>  <SCORE.INTRA.DIHEDRAL>
-31.1203

>  <SCORE.INTRA.DIHEDRAL.0>
42.0816

>  <SCORE.INTRA.POLAR>
-1.06664

>  <SCORE.INTRA.POLAR.0>
-0.254682

>  <SCORE.INTRA.REPUL>
0

>  <SCORE.INTRA.REPUL.0>
0

>  <SCORE.INTRA.SOLV>
-1.94205

>  <SCORE.INTRA.SOLV.lig_0>
-109.803

>  <SCORE.INTRA.VDW>
-1.80075

>  <SCORE.INTRA.VDW.0>
0.32176

>  <SCORE.INTRA.norm>
-0.645838

>  <SCORE.RESTR>
0

>  <SCORE.RESTR.CAVITY>
0

>  <SCORE.RESTR.norm>
0

>  <SCORE.SYSTEM>
0

>  <SCORE.SYSTEM.CONST>
0

>  <SCORE.SYSTEM.DIHEDRAL>
0

>  <SCORE.SYSTEM.SOLV>
0

>  <SCORE.SYSTEM.norm>
0

>  <SCORE.heavy>
34

>  <SCORE.norm>
-1.46283

>  <RMSD>
8.570

$$$$
1mwl
 OpenBabel11021811403D
libRbt.so/2013.1/901 2013/11/27
 34 36  0  0  0  0  0  0  0  0999 V2000
  -14.4082    7.0634   15.2025 C   0  0  2  0  0  0  0  0  0  0  0  0
  -15.6935    7.5969   15.0931 O   0  0  0  0  0  0  0  0  0  0  0  0
  -13.9580    6.6378   13.7766 C   0  0  2  0  0  0  0  0  0  0  0  0
  -13.9765    7.7937   12.8749 N   0  3  0  0  0  0  0  0  0  0  0  0
  -14.8534    5.4826   13.2405 C   0  0  1  0  0  0  0  0  0  0  0  0
  -14.4505    5.0883   12.0067 O   0  0  0  0  0  0  0  0  0  0  0  0
  -14.7906    4.2917   14.2532 C   0  0  2  0  0  0  0  0  0  0  0  0
  -15.6034    3.1965   13.7818 O   0  0  0  0  0  0  0  0  0  0  0  0
  -15.2831    4.8048   15.6489 C   0  0  2  0  0  0  0  0  0  0  0  0
  -14.4408    5.9311   16.1085 O   0  0  0  0  0  0  0  0  0  0  0  0
  -15.2584    3.7520   16.7628 C   0  0  2  0  0  0  0  0  0  0  0  0
  -16.0057    2.6446   16.3773 O   0  0  0  0  0  0  0  0  0  0  0  0
  -15.8675    4.2428   18.0888 C   0  0  0  0  0  0  0  0  0  0  0  0
  -18.0962    9.7561   17.8903 C   0  0  2  0  0  0  0  0  0  0  0  0
  -18.9694   10.0573   19.0531 N   0  3  0  0  0  0  0  0  0  0  0  0
  -18.8073    8.7811   16.9056 C   0  0  0  0  0  0  0  0  0  0  0  0
  -17.8682    8.4544   15.6884 C   0  0  2  0  0  0  0  0  0  0  0  0
  -18.5867    7.5171   14.7493 N   0  3  0  0  0  0  0  0  0  0  0  0
  -16.5309    7.8320   16.2180 C   0  0  2  0  0  0  0  0  0  0  0  0
  -15.8447    8.8269   17.1857 C   0  0  2  0  0  0  0  0  0  0  0  0
  -14.6635    8.2439   17.6806 O   0  0  0  0  0  0  0  0  0  0  0  0
  -16.7781    9.1265   18.3891 C   0  0  1  0  0  0  0  0  0  0  0  0
  -16.1286   10.0376   19.2634 O   0  0  0  0  0  0  0  0  0  0  0  0
  -16.3380    9.9100   20.6428 C   0  0  2  0  0  0  0  0  0  0  0  0
  -15.5938   11.0693   21.3321 C   0  0  2  0  0  0  0  0  0  0  0  0
  -16.1336   12.2939   20.8832 O   0  0  0  0  0  0  0  0  0  0  0  0
  -14.0677   10.9746   20.9903 C   0  0  1  0  0  0  0  0  0  0  0  0
  -13.2812   12.0773   21.5949 N   0  3  0  0  0  0  0  0  0  0  0  0
  -12.8235   13.0313   20.5525 C   0  0  0  0  0  0  0  0  0  0  0  0
  -13.5151    9.5921   21.4806 C   0  0  2  0  0  0  0  0  0  0  0  0
  -13.6898    9.4719   22.9048 O   0  0  0  0  0  0  0  0  0  0  0  0
  -12.0993    9.4395   21.1989 C   0  0  0  0  0  0  0  0  0  0  0  0
  -14.3373    8.4302   20.8423 C   0  0  0  0  0  0  0  0  0  0  0  0
  -15.8023    8.6172   21.1023 O   0  0  0  0  0  0  0  0  0  0  0  0
  1  2  1  6  0  0  0
  1  3  1  0  0  0  0
  1 10  1  0  0  0  0
  3  4  1  6  0  0  0
  3  5  1  0  0  0  0
  5  6  1  6  0  0  0
  5  7  1  0  0  0  0
  7  8  1  6  0  0  0
  7  9  1  0  0  0  0
  9 10  1  1  0  0  0
  9 11  1  0  0  0  0
 11 12  1  6  0  0  0
 11 13  1  0  0  0  0
 14 15  1  1  0  0  0
 14 16  1  0  0  0  0
 14 22  1  0  0  0  0
 16 17  1  0  0  0  0
 17 18  1  6  0  0  0
 17 19  1  0  0  0  0
 19  2  1  6  0  0  0
 19 20  1  0  0  0  0
 20 21  1  1  0  0  0
 20 22  1  0  0  0  0
 22 23  1  1  0  0  0
 24 23  1  6  0  0  0
 24 25  1  0  0  0  0
 24 34  1  0  0  0  0
 25 26  1  6  0  0  0
 25 27  1  0  0  0  0
 27 28  1  1  0  0  0
 27 30  1  0  0  0  0
 28 29  1  0  0  0  0
 30 31  1  1  0  0  0
 30 32  1  0  0  0  0
 30 33  1  0  0  0  0
 33 34  1  0  0  0  0
M  CHG  4   4   1  15   1  18   1  28   1
M  END
>  <CHROM.1>
166.46093157,179.00256503,-50.21068921,-98.38241102,65.28543952,-55.91838921
175.30350707,-167.03489228,-0.42904060,178.17319400,94.87692886,-176.46186070
174.67212190,11.18208872,-63.96015290,-15.42828067,7.99623429,17.63024160
-1.66219599,-0.56721655,0.82970504

>  <Name>
1mwl

>  <RI>
0

>  <Rbt.Current_Directory>
/home/itssahil/PROJECTS/Mol_Feturizer/New_Systems/rnas/1mwl

>  <Rbt.Executable>
rbdock ($Id: //depot/dev/client3/rdock/2013.1/src/exe/rbdock.cxx#4 $)

>  <Rbt.Library>
libRbt.so (2013.1, Build901 2013/11/27)

>  <Rbt.Parameter_File>
/export/apps/rDock/src/rDock_2013.1_src/data/scripts/dock_solv.prm

>  <Rbt.Receptor>
prm/pocket_docking_6.prm

>  <SCORE>
-47.475

>  <SCORE.INTER>
-33.3046

>  <SCORE.INTER.CONST>
1

>  <SCORE.INTER.POLAR>
-5.29304

>  <SCORE.INTER.ROT>
6

>  <SCORE.INTER.SOLV>
27.244

>  <SCORE.INTER.VDW>
-21.2409

>  <SCORE.INTER.norm>
-0.979547

>  <SCORE.INTRA>
-14.1704

>  <SCORE.INTRA.DIHEDRAL>
-23.3976

>  <SCORE.INTRA.DIHEDRAL.0>
42.0816

>  <SCORE.INTRA.POLAR>
0.228842

>  <SCORE.INTRA.POLAR.0>
-0.254682

>  <SCORE.INTRA.REPUL>
0

>  <SCORE.INTRA.REPUL.0>
0

>  <SCORE.INTRA.SOLV>
-1.59399

>  <SCORE.INTRA.SOLV.lig_0>
-109.803

>  <SCORE.INTRA.VDW>
-2.45262

>  <SCORE.INTRA.VDW.0>
0.32176

>  <SCORE.INTRA.norm>
-0.416775

>  <SCORE.RESTR>
0

>  <SCORE.RESTR.CAVITY>
0

>  <SCORE.RESTR.norm>
0

>  <SCORE.SYSTEM>
0

>  <SCORE.SYSTEM.CONST>
0

>  <SCORE.SYSTEM.DIHEDRAL>
0

>  <SCORE.SYSTEM.SOLV>
0

>  <SCORE.SYSTEM.norm>
0

>  <SCORE.heavy>
34

>  <SCORE.norm>
-1.39632

>  <RMSD>
8.573

$$$$
1mwl
 OpenBabel11021811403D
libRbt.so/2013.1/901 2013/11/27
 34 36  0  0  0  0  0  0  0  0999 V2000
  -15.0324    6.5453   16.1509 C   0  0  2  0  0  0  0  0  0  0  0  0
  -15.0382    7.0602   17.4484 O   0  0  0  0  0  0  0  0  0  0  0  0
  -16.2238    7.1906   15.3887 C   0  0  2  0  0  0  0  0  0  0  0  0
  -16.0867    8.6503   15.3796 N   0  3  0  0  0  0  0  0  0  0  0  0
  -17.5792    6.7495   16.0148 C   0  0  1  0  0  0  0  0  0  0  0  0
  -18.6246    7.2885   15.3390 O   0  0  0  0  0  0  0  0  0  0  0  0
  -17.6517    5.1869   15.9975 C   0  0  2  0  0  0  0  0  0  0  0  0
  -18.9026    4.7421   16.5630 O   0  0  0  0  0  0  0  0  0  0  0  0
  -16.4321    4.6277   16.8061 C   0  0  2  0  0  0  0  0  0  0  0  0
  -15.1620    5.1019   16.2135 O   0  0  0  0  0  0  0  0  0  0  0  0
  -16.3489    3.0980   16.8622 C   0  0  2  0  0  0  0  0  0  0  0  0
  -17.5586    2.5793   17.3102 O   0  0  0  0  0  0  0  0  0  0  0  0
  -15.2708    2.5741   17.8285 C   0  0  0  0  0  0  0  0  0  0  0  0
  -10.8738    7.4946   18.3020 C   0  0  2  0  0  0  0  0  0  0  0  0
   -9.6058    7.6776   19.0531 N   0  3  0  0  0  0  0  0  0  0  0  0
  -11.7934    8.7415   18.4620 C   0  0  0  0  0  0  0  0  0  0  0  0
  -13.1396    8.5303   17.6790 C   0  0  2  0  0  0  0  0  0  0  0  0
  -14.0038    9.7561   17.8447 N   0  3  0  0  0  0  0  0  0  0  0  0
  -13.8533    7.2413   18.2132 C   0  0  2  0  0  0  0  0  0  0  0  0
  -12.9189    6.0200   18.0326 C   0  0  2  0  0  0  0  0  0  0  0  0
  -13.5562    4.8755   18.5464 O   0  0  0  0  0  0  0  0  0  0  0  0
  -11.6016    6.2376   18.8243 C   0  0  1  0  0  0  0  0  0  0  0  0
  -10.7622    5.1061   18.6466 O   0  0  0  0  0  0  0  0  0  0  0  0
   -9.7302    4.8841   19.5677 C   0  0  2  0  0  0  0  0  0  0  0  0
   -9.1558    3.4823   19.2889 C   0  0  2  0  0  0  0  0  0  0  0  0
   -8.6340    3.4515   17.9777 O   0  0  0  0  0  0  0  0  0  0  0  0
  -10.2931    2.4183   19.4610 C   0  0  1  0  0  0  0  0  0  0  0  0
   -9.8268    1.0386   19.1798 N   0  3  0  0  0  0  0  0  0  0  0  0
   -9.9397    0.7290   17.7316 C   0  0  0  0  0  0  0  0  0  0  0  0
  -10.8620    2.5041   20.9191 C   0  0  2  0  0  0  0  0  0  0  0  0
   -9.8146    2.2358   21.8701 O   0  0  0  0  0  0  0  0  0  0  0  0
  -11.9204    1.5377   21.1495 C   0  0  0  0  0  0  0  0  0  0  0  0
  -11.3579    3.9529   21.2158 C   0  0  0  0  0  0  0  0  0  0  0  0
  -10.2722    4.9487   20.9358 O   0  0  0  0  0  0  0  0  0  0  0  0
  1  2  1  1  0  0  0
  1  3  1  0  0  0  0
  1 10  1  0  0  0  0
  3  4  1  1  0  0  0
  3  5  1  0  0  0  0
  5  6  1  6  0  0  0
  5  7  1  0  0  0  0
  7  8  1  1  0  0  0
  7  9  1  0  0  0  0
  9 10  1  6  0  0  0
  9 11  1  0  0  0  0
 11 12  1  1  0  0  0
 11 13  1  0  0  0  0
 14 15  1  1  0  0  0
 14 16  1  0  0  0  0
 14 22  1  0  0  0  0
 16 17  1  0  0  0  0
 17 18  1  1  0  0  0
 17 19  1  0  0  0  0
 19  2  1  6  0  0  0
 19 20  1  0  0  0  0
 20 21  1  1  0  0  0
 20 22  1  0  0  0  0
 22 23  1  6  0  0  0
 24 23  1  6  0  0  0
 24 25  1  0  0  0  0
 24 34  1  0  0  0  0
 25 26  1  6  0  0  0
 25 27  1  0  0  0  0
 27 28  1  1  0  0  0
 27 30  1  0  0  0  0
 28 29  1  0  0  0  0
 30 31  1  1  0  0  0
 30 32  1  0  0  0  0
 30 33  1  0  0  0  0
 33 34  1  0  0  0  0
M  CHG  4   4   1  15   1  18   1  28   1
M  END
>  <CHROM.1>
-149.03270478,77.09049159,-89.86856020,63.85449862,-56.04253571,-52.70876811
-51.62365227,-39.95868717,-168.41583354,-60.69784383,79.36360087,169.99140841
79.30150620,33.05929889,-178.81113273,-13.24745006,5.12469682,18.12781518
-2.67404003,0.40366160,2.95478948

>  <Name>
1mwl

>  <RI>
0

>  <Rbt.Current_Directory>
/home/itssahil/PROJECTS/Mol_Feturizer/New_Systems/rnas/1mwl

>  <Rbt.Executable>
rbdock ($Id: //depot/dev/client3/rdock/2013.1/src/exe/rbdock.cxx#4 $)

>  <Rbt.Library>
libRbt.so (2013.1, Build901 2013/11/27)

>  <Rbt.Parameter_File>
/export/apps/rDock/src/rDock_2013.1_src/data/scripts/dock_solv.prm

>  <Rbt.Receptor>
prm/pocket_docking_8.prm

>  <SCORE>
-54.983

>  <SCORE.INTER>
-41.687

>  <SCORE.INTER.CONST>
1

>  <SCORE.INTER.POLAR>
-7.09151

>  <SCORE.INTER.ROT>
6

>  <SCORE.INTER.SOLV>
21.4179

>  <SCORE.INTER.VDW>
-18.8923

>  <SCORE.INTER.norm>
-1.22609

>  <SCORE.INTRA>
-13.296

>  <SCORE.INTRA.DIHEDRAL>
-27.7734

>  <SCORE.INTRA.DIHEDRAL.0>
42.0816

>  <SCORE.INTRA.POLAR>
0.254229

>  <SCORE.INTRA.POLAR.0>
-0.254682

>  <SCORE.INTRA.REPUL>
0

>  <SCORE.INTRA.REPUL.0>
0

>  <SCORE.INTRA.SOLV>
2.47182

>  <SCORE.INTRA.SOLV.lig_0>
-109.803

>  <SCORE.INTRA.VDW>
-1.50958

>  <SCORE.INTRA.VDW.0>
0.32176

>  <SCORE.INTRA.norm>
-0.391059

>  <SCORE.RESTR>
0

>  <SCORE.RESTR.CAVITY>
0

>  <SCORE.RESTR.norm>
0

>  <SCORE.SYSTEM>
0

>  <SCORE.SYSTEM.CONST>
0

>  <SCORE.SYSTEM.DIHEDRAL>
0

>  <SCORE.SYSTEM.SOLV>
0

>  <SCORE.SYSTEM.norm>
0

>  <SCORE.heavy>
34

>  <SCORE.norm>
-1.61715

>  <RMSD>
8.610

$$$$
1mwl
 OpenBabel11021811403D
libRbt.so/2013.1/901 2013/11/27
 34 36  0  0  0  0  0  0  0  0999 V2000
   -6.2953    6.5036   14.0455 C   0  0  2  0  0  0  0  0  0  0  0  0
   -6.8284    5.2418   14.3145 O   0  0  0  0  0  0  0  0  0  0  0  0
   -6.4695    6.7676   12.5233 C   0  0  2  0  0  0  0  0  0  0  0  0
   -7.8880    6.7034   12.1584 N   0  3  0  0  0  0  0  0  0  0  0  0
   -5.6210    5.7618   11.6915 C   0  0  1  0  0  0  0  0  0  0  0  0
   -5.7478    6.0023   10.3625 O   0  0  0  0  0  0  0  0  0  0  0  0
   -4.1264    5.8808   12.1382 C   0  0  2  0  0  0  0  0  0  0  0  0
   -3.3074    4.9672   11.3787 O   0  0  0  0  0  0  0  0  0  0  0  0
   -4.0447    5.5756   13.6725 C   0  0  2  0  0  0  0  0  0  0  0  0
   -4.8968    6.5187   14.4300 O   0  0  0  0  0  0  0  0  0  0  0  0
   -2.6367    5.6752   14.2705 C   0  0  2  0  0  0  0  0  0  0  0  0
   -1.9842    6.7871   13.7497 O   0  0  0  0  0  0  0  0  0  0  0  0
   -1.7438    4.4624   13.9509 C   0  0  0  0  0  0  0  0  0  0  0  0
   -8.8786    3.4868   17.6275 C   0  0  2  0  0  0  0  0  0  0  0  0
   -9.1609    2.9728   18.9919 N   0  3  0  0  0  0  0  0  0  0  0  0
   -7.7247    2.6791   16.9626 C   0  0  0  0  0  0  0  0  0  0  0  0
   -7.4215    3.2425   15.5271 C   0  0  2  0  0  0  0  0  0  0  0  0
   -6.3080    2.4357   14.9059 N   0  3  0  0  0  0  0  0  0  0  0  0
   -7.0471    4.7606   15.6345 C   0  0  2  0  0  0  0  0  0  0  0  0
   -8.2154    5.5365   16.2903 C   0  0  2  0  0  0  0  0  0  0  0  0
   -7.8545    6.8911   16.4124 O   0  0  0  0  0  0  0  0  0  0  0  0
   -8.4914    4.9786   17.7122 C   0  0  1  0  0  0  0  0  0  0  0  0
   -9.5632    5.7054   18.2949 O   0  0  0  0  0  0  0  0  0  0  0  0
   -9.2874    6.9371   18.9028 C   0  0  2  0  0  0  0  0  0  0  0  0
   -8.8884    6.6524   20.3632 C   0  0  2  0  0  0  0  0  0  0  0  0
   -7.7278    5.8490   20.3746 O   0  0  0  0  0  0  0  0  0  0  0  0
  -10.0744    5.9282   21.0871 C   0  0  1  0  0  0  0  0  0  0  0  0
   -9.7579    5.5908   22.4964 N   0  3  0  0  0  0  0  0  0  0  0  0
   -8.8992    4.3810   22.5686 C   0  0  0  0  0  0  0  0  0  0  0  0
  -11.3476    6.8405   21.0284 C   0  0  2  0  0  0  0  0  0  0  0  0
  -11.0837    8.0928   21.6883 O   0  0  0  0  0  0  0  0  0  0  0  0
  -12.4874    6.2298   21.6880 C   0  0  0  0  0  0  0  0  0  0  0  0
  -11.6858    7.1928   19.5469 C   0  0  0  0  0  0  0  0  0  0  0  0
  -10.4911    7.7849   18.8606 O   0  0  0  0  0  0  0  0  0  0  0  0
  1  2  1  6  0  0  0
  1  3  1  0  0  0  0
  1 10  1  0  0  0  0
  3  4  1  6  0  0  0
  3  5  1  0  0  0  0
  5  6  1  6  0  0  0
  5  7  1  0  0  0  0
  7  8  1  6  0  0  0
  7  9  1  0  0  0  0
  9 10  1  1  0  0  0
  9 11  1  0  0  0  0
 11 12  1  6  0  0  0
 11 13  1  0  0  0  0
 14 15  1  1  0  0  0
 14 16  1  0  0  0  0
 14 22  1  0  0  0  0
 16 17  1  0  0  0  0
 17 18  1  1  0  0  0
 17 19  1  0  0  0  0
 19  2  1  6  0  0  0
 19 20  1  0  0  0  0
 20 21  1  1  0  0  0
 20 22  1  0  0  0  0
 22 23  1  6  0  0  0
 24 23  1  6  0  0  0
 24 25  1  0  0  0  0
 24 34  1  0  0  0  0
 25 26  1  6  0  0  0
 25 27  1  0  0  0  0
 27 28  1  1  0  0  0
 27 30  1  0  0  0  0
 28 29  1  0  0  0  0
 30 31  1  1  0  0  0
 30 32  1  0  0  0  0
 30 33  1  0  0  0  0
 33 34  1  0  0  0  0
M  CHG  4   4   1  15   1  18   1  28   1
M  END
>  <CHROM.1>
-169.09939431,-170.71713083,64.37758047,-65.31665514,-54.48969303,41.70822538
71.88674429,163.77588673,-155.69105963,76.63053466,157.45164252,-86.92765967
-69.32415447,41.65009449,-55.71261937,-7.45532103,5.62036770,16.62394724
0.77755870,0.60756085,-1.11068523

>  <Name>
1mwl

>  <RI>
0

>  <Rbt.Current_Directory>
/home/itssahil/PROJECTS/Mol_Feturizer/New_Systems/rnas/1mwl

>  <Rbt.Executable>
rbdock ($Id: //depot/dev/client3/rdock/2013.1/src/exe/rbdock.cxx#4 $)

>  <Rbt.Library>
libRbt.so (2013.1, Build901 2013/11/27)

>  <Rbt.Parameter_File>
/export/apps/rDock/src/rDock_2013.1_src/data/scripts/dock_solv.prm

>  <Rbt.Receptor>
prm/blind_docking_100.prm

>  <SCORE>
-44.2466

>  <SCORE.INTER>
-40.1617

>  <SCORE.INTER.CONST>
1

>  <SCORE.INTER.POLAR>
-6.68572

>  <SCORE.INTER.ROT>
6

>  <SCORE.INTER.SOLV>
26.3641

>  <SCORE.INTER.VDW>
-20.8767

>  <SCORE.INTER.norm>
-1.18123

>  <SCORE.INTRA>
-15.7688

>  <SCORE.INTRA.DIHEDRAL>
-29.1469

>  <SCORE.INTRA.DIHEDRAL.0>
42.0816

>  <SCORE.INTRA.POLAR>
0.191593

>  <SCORE.INTRA.POLAR.0>
-0.254682

>  <SCORE.INTRA.REPUL>
0

>  <SCORE.INTRA.REPUL.0>
0

>  <SCORE.INTRA.SOLV>
0.485754

>  <SCORE.INTRA.SOLV.lig_0>
-109.803

>  <SCORE.INTRA.VDW>
-2.08962

>  <SCORE.INTRA.VDW.0>
0.32176

>  <SCORE.INTRA.norm>
-0.463787

>  <SCORE.RESTR>
11.6838

>  <SCORE.RESTR.CAVITY>
11.6838

>  <SCORE.RESTR.norm>
0.343641

>  <SCORE.SYSTEM>
0

>  <SCORE.SYSTEM.CONST>
0

>  <SCORE.SYSTEM.DIHEDRAL>
0

>  <SCORE.SYSTEM.SOLV>
0

>  <SCORE.SYSTEM.norm>
0

>  <SCORE.heavy>
34

>  <SCORE.norm>
-1.30137

>  <RMSD>
8.638

$$$$
1mwl
 OpenBabel11021811403D
libRbt.so/2013.1/901 2013/11/27
 34 36  0  0  0  0  0  0  0  0999 V2000
  -15.3667    6.5621   16.8748 C   0  0  2  0  0  0  0  0  0  0  0  0
  -14.5610    6.3914   15.7477 O   0  0  0  0  0  0  0  0  0  0  0  0
  -16.8464    6.5216   16.3997 C   0  0  2  0  0  0  0  0  0  0  0  0
  -17.1290    5.2455   15.7353 N   0  3  0  0  0  0  0  0  0  0  0  0
  -17.1569    7.7299   15.4685 C   0  0  1  0  0  0  0  0  0  0  0  0
  -18.4536    7.7155   15.0702 O   0  0  0  0  0  0  0  0  0  0  0  0
  -16.8261    9.0510   16.2384 C   0  0  2  0  0  0  0  0  0  0  0  0
  -17.1122   10.1948   15.4065 O   0  0  0  0  0  0  0  0  0  0  0  0
  -15.3162    9.0145   16.6541 C   0  0  2  0  0  0  0  0  0  0  0  0
  -15.0446    7.8310   17.4995 O   0  0  0  0  0  0  0  0  0  0  0  0
  -14.8402   10.2393   17.4436 C   0  0  2  0  0  0  0  0  0  0  0  0
  -13.5055   10.0781   17.7984 O   0  0  0  0  0  0  0  0  0  0  0  0
  -15.6113   10.4642   18.7570 C   0  0  0  0  0  0  0  0  0  0  0  0
  -10.7351    4.5546   15.2497 C   0  0  2  0  0  0  0  0  0  0  0  0
   -9.2687    4.3265   15.3062 N   0  3  0  0  0  0  0  0  0  0  0  0
  -11.0637    5.8166   14.3981 C   0  0  0  0  0  0  0  0  0  0  0  0
  -12.6159    6.0597   14.3600 C   0  0  2  0  0  0  0  0  0  0  0  0
  -12.9032    7.2810   13.5218 N   0  3  0  0  0  0  0  0  0  0  0  0
  -13.1513    6.2224   15.8240 C   0  0  2  0  0  0  0  0  0  0  0  0
  -12.8174    4.9505   16.6413 C   0  0  2  0  0  0  0  0  0  0  0  0
  -13.2723    5.1219   17.9618 O   0  0  0  0  0  0  0  0  0  0  0  0
  -11.2810    4.7338   16.6824 C   0  0  1  0  0  0  0  0  0  0  0  0
  -10.9982    3.5652   17.4379 O   0  0  0  0  0  0  0  0  0  0  0  0
   -9.6717    3.3102   17.8094 C   0  0  2  0  0  0  0  0  0  0  0  0
   -9.6989    2.2310   18.9082 C   0  0  2  0  0  0  0  0  0  0  0  0
  -10.2775    1.0551   18.3838 O   0  0  0  0  0  0  0  0  0  0  0  0
  -10.5258    2.7622   20.1285 C   0  0  1  0  0  0  0  0  0  0  0  0
  -10.6253    1.7663   21.2233 N   0  3  0  0  0  0  0  0  0  0  0  0
  -11.9691    1.8096   21.8545 C   0  0  0  0  0  0  0  0  0  0  0  0
   -9.8665    4.0802   20.6626 C   0  0  2  0  0  0  0  0  0  0  0  0
   -8.5155    3.8159   21.0849 O   0  0  0  0  0  0  0  0  0  0  0  0
  -10.5823    4.6256   21.8016 C   0  0  0  0  0  0  0  0  0  0  0  0
   -9.7651    5.1313   19.5145 C   0  0  0  0  0  0  0  0  0  0  0  0
   -9.0611    4.5469   18.3263 O   0  0  0  0  0  0  0  0  0  0  0  0
  1  2  1  6  0  0  0
  1  3  1  0  0  0  0
  1 10  1  0  0  0  0
  3  4  1  6  0  0  0
  3  5  1  0  0  0  0
  5  6  1  1  0  0  0
  5  7  1  0  0  0  0
  7  8  1  6  0  0  0
  7  9  1  0  0  0  0
  9 10  1  1  0  0  0
  9 11  1  0  0  0  0
 11 12  1  1  0  0  0
 11 13  1  0  0  0  0
 14 15  1  1  0  0  0
 14 16  1  0  0  0  0
 14 22  1  0  0  0  0
 16 17  1  0  0  0  0
 17 18  1  6  0  0  0
 17 19  1  0  0  0  0
 19  2  1  6  0  0  0
 19 20  1  0  0  0  0
 20 21  1  1  0  0  0
 20 22  1  0  0  0  0
 22 23  1  1  0  0  0
 24 23  1  1  0  0  0
 24 25  1  0  0  0  0
 24 34  1  0  0  0  0
 25 26  1  6  0  0  0
 25 27  1  0  0  0  0
 27 28  1  1  0  0  0
 27 30  1  0  0  0  0
 28 29  1  0  0  0  0
 30 31  1  1  0  0  0
 30 32  1  0  0  0  0
 30 33  1  0  0  0  0
 33 34  1  0  0  0  0
M  CHG  4   4   1  15   1  18   1  28   1
M  END
>  <CHROM.1>
-172.59879484,179.85044081,-13.38611686,49.70742670,-58.25803694,177.90182654
174.34615840,-24.43461918,-51.93396249,88.67728567,71.20478821,165.03340168
-57.32863319,-22.20190275,172.95691164,-12.84642527,5.73040738,17.41580179
2.71655151,0.70281723,-1.53924545

>  <Name>
1mwl

>  <RI>
0

>  <Rbt.Current_Directory>
/home/itssahil/PROJECTS/Mol_Feturizer/New_Systems/rnas/1mwl

>  <Rbt.Executable>
rbdock ($Id: //depot/dev/client3/rdock/2013.1/src/exe/rbdock.cxx#4 $)

>  <Rbt.Library>
libRbt.so (2013.1, Build901 2013/11/27)

>  <Rbt.Parameter_File>
/export/apps/rDock/src/rDock_2013.1_src/data/scripts/dock_solv.prm

>  <Rbt.Receptor>
prm/pocket_docking_6.prm

>  <SCORE>
-47.5457

>  <SCORE.INTER>
-31.7406

>  <SCORE.INTER.CONST>
1

>  <SCORE.INTER.POLAR>
-4.96025

>  <SCORE.INTER.ROT>
6

>  <SCORE.INTER.SOLV>
17.7036

>  <SCORE.INTER.VDW>
-18.1274

>  <SCORE.INTER.norm>
-0.933548

>  <SCORE.INTRA>
-15.8051

>  <SCORE.INTRA.DIHEDRAL>
-27.6949

>  <SCORE.INTRA.DIHEDRAL.0>
42.0816

>  <SCORE.INTRA.POLAR>
-0.658122

>  <SCORE.INTRA.POLAR.0>
-0.254682

>  <SCORE.INTRA.REPUL>
0

>  <SCORE.INTRA.REPUL.0>
0

>  <SCORE.INTRA.SOLV>
-2.47481

>  <SCORE.INTRA.SOLV.lig_0>
-109.803

>  <SCORE.INTRA.VDW>
1.51735

>  <SCORE.INTRA.VDW.0>
0.32176

>  <SCORE.INTRA.norm>
-0.464856

>  <SCORE.RESTR>
0

>  <SCORE.RESTR.CAVITY>
0

>  <SCORE.RESTR.norm>
0

>  <SCORE.SYSTEM>
0

>  <SCORE.SYSTEM.CONST>
0

>  <SCORE.SYSTEM.DIHEDRAL>
0

>  <SCORE.SYSTEM.SOLV>
0

>  <SCORE.SYSTEM.norm>
0

>  <SCORE.heavy>
34

>  <SCORE.norm>
-1.3984

>  <RMSD>
8.689

$$$$
1mwl
 OpenBabel11021811403D
libRbt.so/2013.1/901 2013/11/27
 34 36  0  0  0  0  0  0  0  0999 V2000
  -17.2422    8.5389   18.8747 C   0  0  2  0  0  0  0  0  0  0  0  0
  -17.2205    7.9687   17.6007 O   0  0  0  0  0  0  0  0  0  0  0  0
  -18.7311    8.6581   19.3060 C   0  0  2  0  0  0  0  0  0  0  0  0
  -19.3643    7.3358   19.3069 N   0  3  0  0  0  0  0  0  0  0  0  0
  -19.4919    9.6536   18.3820 C   0  0  1  0  0  0  0  0  0  0  0  0
  -20.7859    9.7825   18.7680 O   0  0  0  0  0  0  0  0  0  0  0  0
  -18.7583   11.0347   18.4253 C   0  0  2  0  0  0  0  0  0  0  0  0
  -19.4439   11.9871   17.5856 O   0  0  0  0  0  0  0  0  0  0  0  0
  -17.2797   10.8227   17.9534 C   0  0  2  0  0  0  0  0  0  0  0  0
  -16.5991    9.8380   18.8233 O   0  0  0  0  0  0  0  0  0  0  0  0
  -16.4172   12.0899   17.9625 C   0  0  2  0  0  0  0  0  0  0  0  0
  -15.1182   11.7751   17.5793 O   0  0  0  0  0  0  0  0  0  0  0  0
  -16.3094   12.7526   19.3480 C   0  0  0  0  0  0  0  0  0  0  0  0
  -14.0216    6.1240   15.4505 C   0  0  2  0  0  0  0  0  0  0  0  0
  -12.7871    5.9529   14.6430 N   0  3  0  0  0  0  0  0  0  0  0  0
  -15.1069    6.8939   14.6409 C   0  0  0  0  0  0  0  0  0  0  0  0
  -16.4020    7.0858   15.5104 C   0  0  2  0  0  0  0  0  0  0  0  0
  -17.4363    7.8249   14.6977 N   0  3  0  0  0  0  0  0  0  0  0  0
  -16.0351    7.8592   16.8232 C   0  0  2  0  0  0  0  0  0  0  0  0
  -14.9624    7.0656   17.6086 C   0  0  2  0  0  0  0  0  0  0  0  0
  -14.6165    7.7857   18.7671 O   0  0  0  0  0  0  0  0  0  0  0  0
  -13.6852    6.8988   16.7425 C   0  0  1  0  0  0  0  0  0  0  0  0
  -12.7156    6.1715   17.4824 O   0  0  0  0  0  0  0  0  0  0  0  0
  -11.3612    6.3497   17.1717 C   0  0  2  0  0  0  0  0  0  0  0  0
  -10.5449    5.4868   18.1526 C   0  0  2  0  0  0  0  0  0  0  0  0
  -10.8964    4.1313   17.9750 O   0  0  0  0  0  0  0  0  0  0  0  0
  -10.8452    5.9527   19.6181 C   0  0  1  0  0  0  0  0  0  0  0  0
  -10.1172    5.1486   20.6297 N   0  3  0  0  0  0  0  0  0  0  0  0
  -10.9824    4.8713   21.8047 C   0  0  0  0  0  0  0  0  0  0  0  0
  -10.4667    7.4667   19.7647 C   0  0  2  0  0  0  0  0  0  0  0  0
   -9.0658    7.6506   19.4870 O   0  0  0  0  0  0  0  0  0  0  0  0
  -10.7160    7.9640   21.1056 C   0  0  0  0  0  0  0  0  0  0  0  0
  -11.2349    8.3156   18.7052 C   0  0  0  0  0  0  0  0  0  0  0  0
  -11.0056    7.7705   17.3271 O   0  0  0  0  0  0  0  0  0  0  0  0
  1  2  1  6  0  0  0
  1  3  1  0  0  0  0
  1 10  1  0  0  0  0
  3  4  1  6  0  0  0
  3  5  1  0  0  0  0
  5  6  1  1  0  0  0
  5  7  1  0  0  0  0
  7  8  1  6  0  0  0
  7  9  1  0  0  0  0
  9 10  1  1  0  0  0
  9 11  1  0  0  0  0
 11 12  1  1  0  0  0
 11 13  1  0  0  0  0
 14 15  1  6  0  0  0
 14 16  1  0  0  0  0
 14 22  1  0  0  0  0
 16 17  1  0  0  0  0
 17 18  1  6  0  0  0
 17 19  1  0  0  0  0
 19  2  1  1  0  0  0
 19 20  1  0  0  0  0
 20 21  1  1  0  0  0
 20 22  1  0  0  0  0
 22 23  1  1  0  0  0
 24 23  1  1  0  0  0
 24 25  1  0  0  0  0
 24 34  1  0  0  0  0
 25 26  1  1  0  0  0
 25 27  1  0  0  0  0
 27 28  1  1  0  0  0
 27 30  1  0  0  0  0
 28 29  1  0  0  0  0
 30 31  1  6  0  0  0
 30 32  1  0  0  0  0
 30 33  1  0  0  0  0
 33 34  1  0  0  0  0
M  CHG  4   4   1  15   1  18   1  28   1
M  END
>  <CHROM.1>
172.09912351,176.33057983,47.28299813,179.66719392,173.98029552,177.61913542
-49.16107527,-168.85135939,-53.48201307,-177.50826410,85.27639416,178.03871561
-59.97659971,-19.85352440,166.41495090,-14.64556746,8.03152684,18.06135393
-2.91784500,0.43041637,-2.28346398

>  <Name>
1mwl

>  <RI>
0

>  <Rbt.Current_Directory>
/home/itssahil/PROJECTS/Mol_Feturizer/New_Systems/rnas/1mwl

>  <Rbt.Executable>
rbdock ($Id: //depot/dev/client3/rdock/2013.1/src/exe/rbdock.cxx#4 $)

>  <Rbt.Library>
libRbt.so (2013.1, Build901 2013/11/27)

>  <Rbt.Parameter_File>
/export/apps/rDock/src/rDock_2013.1_src/data/scripts/dock_solv.prm

>  <Rbt.Receptor>
prm/pocket_docking_6.prm

>  <SCORE>
-48.8656

>  <SCORE.INTER>
-28.5313

>  <SCORE.INTER.CONST>
1

>  <SCORE.INTER.POLAR>
-5.15007

>  <SCORE.INTER.ROT>
6

>  <SCORE.INTER.SOLV>
17.5404

>  <SCORE.INTER.VDW>
-15.3008

>  <SCORE.INTER.norm>
-0.839156

>  <SCORE.INTRA>
-20.3342

>  <SCORE.INTRA.DIHEDRAL>
-33.8699

>  <SCORE.INTRA.DIHEDRAL.0>
42.0816

>  <SCORE.INTRA.POLAR>
0.132756

>  <SCORE.INTRA.POLAR.0>
-0.254682

>  <SCORE.INTRA.REPUL>
0

>  <SCORE.INTRA.REPUL.0>
0

>  <SCORE.INTRA.SOLV>
-3.64528

>  <SCORE.INTRA.SOLV.lig_0>
-109.803

>  <SCORE.INTRA.VDW>
-2.02803

>  <SCORE.INTRA.VDW.0>
0.32176

>  <SCORE.INTRA.norm>
-0.598066

>  <SCORE.RESTR>
0

>  <SCORE.RESTR.CAVITY>
0

>  <SCORE.RESTR.norm>
0

>  <SCORE.SYSTEM>
0

>  <SCORE.SYSTEM.CONST>
0

>  <SCORE.SYSTEM.DIHEDRAL>
0

>  <SCORE.SYSTEM.SOLV>
0

>  <SCORE.SYSTEM.norm>
0

>  <SCORE.heavy>
34

>  <SCORE.norm>
-1.43722

>  <RMSD>
8.711

$$$$
1mwl
 OpenBabel11021811403D
libRbt.so/2013.1/901 2013/11/27
 34 36  0  0  0  0  0  0  0  0999 V2000
  -13.6467    6.4846   17.3238 C   0  0  2  0  0  0  0  0  0  0  0  0
  -12.7539    7.4945   17.6868 O   0  0  0  0  0  0  0  0  0  0  0  0
  -13.0567    5.7679   16.0767 C   0  0  2  0  0  0  0  0  0  0  0  0
  -11.7338    5.2182   16.3886 N   0  3  0  0  0  0  0  0  0  0  0  0
  -12.9980    6.7399   14.8620 C   0  0  1  0  0  0  0  0  0  0  0  0
  -12.5079    6.1142   13.7627 O   0  0  0  0  0  0  0  0  0  0  0  0
  -14.4375    7.2904   14.5935 C   0  0  2  0  0  0  0  0  0  0  0  0
  -14.4222    8.1894   13.4648 O   0  0  0  0  0  0  0  0  0  0  0  0
  -14.9383    8.0142   15.8893 C   0  0  2  0  0  0  0  0  0  0  0  0
  -14.9388    7.0764   17.0338 O   0  0  0  0  0  0  0  0  0  0  0  0
  -16.3546    8.5927   15.7922 C   0  0  2  0  0  0  0  0  0  0  0  0
  -16.7043    9.1806   17.0028 O   0  0  0  0  0  0  0  0  0  0  0  0
  -17.4340    7.5349   15.4989 C   0  0  0  0  0  0  0  0  0  0  0  0
  -10.5967    8.8844   21.1036 C   0  0  2  0  0  0  0  0  0  0  0  0
  -10.2776    9.2687   22.5021 N   0  3  0  0  0  0  0  0  0  0  0  0
  -11.7292    9.7864   20.5294 C   0  0  0  0  0  0  0  0  0  0  0  0
  -12.0721    9.3597   19.0561 C   0  0  2  0  0  0  0  0  0  0  0  0
  -13.1636   10.2558   18.5248 N   0  3  0  0  0  0  0  0  0  0  0  0
  -12.5001    7.8521   19.0393 C   0  0  2  0  0  0  0  0  0  0  0  0
  -11.3521    6.9820   19.6070 C   0  0  2  0  0  0  0  0  0  0  0  0
  -11.7605    5.6355   19.6186 O   0  0  0  0  0  0  0  0  0  0  0  0
  -11.0368    7.4053   21.0667 C   0  0  1  0  0  0  0  0  0  0  0  0
   -9.9845    6.5938   21.5672 O   0  0  0  0  0  0  0  0  0  0  0  0
   -8.9014    6.3049   20.7269 C   0  0  2  0  0  0  0  0  0  0  0  0
   -7.9763    5.3329   21.4834 C   0  0  2  0  0  0  0  0  0  0  0  0
   -8.6869    4.1459   21.7638 O   0  0  0  0  0  0  0  0  0  0  0  0
   -7.4872    6.0150   22.8065 C   0  0  1  0  0  0  0  0  0  0  0  0
   -6.6111    5.1293   23.6115 N   0  3  0  0  0  0  0  0  0  0  0  0
   -7.2453    4.8037   24.9145 C   0  0  0  0  0  0  0  0  0  0  0  0
   -6.7282    7.3400   22.4525 C   0  0  2  0  0  0  0  0  0  0  0  0
   -5.5890    7.0451   21.6225 O   0  0  0  0  0  0  0  0  0  0  0  0
   -6.2414    8.0232   23.6372 C   0  0  0  0  0  0  0  0  0  0  0  0
   -7.6490    8.2757   21.6101 C   0  0  0  0  0  0  0  0  0  0  0  0
   -8.1809    7.5500   20.4104 O   0  0  0  0  0  0  0  0  0  0  0  0
  1  2  1  6  0  0  0
  1  3  1  0  0  0  0
  1 10  1  0  0  0  0
  3  4  1  1  0  0  0
  3  5  1  0  0  0  0
  5  6  1  6  0  0  0
  5  7  1  0  0  0  0
  7  8  1  6  0  0  0
  7  9  1  0  0  0  0
  9 10  1  1  0  0  0
  9 11  1  0  0  0  0
 11 12  1  1  0  0  0
 11 13  1  0  0  0  0
 14 15  1  1  0  0  0
 14 16  1  0  0  0  0
 14 22  1  0  0  0  0
 16 17  1  0  0  0  0
 17 18  1  1  0  0  0
 17 19  1  0  0  0  0
 19  2  1  6  0  0  0
 19 20  1  0  0  0  0
 20 21  1  1  0  0  0
 20 22  1  0  0  0  0
 22 23  1  6  0  0  0
 24 23  1  1  0  0  0
 24 25  1  0  0  0  0
 24 34  1  0  0  0  0
 25 26  1  1  0  0  0
 25 27  1  0  0  0  0
 27 28  1  6  0  0  0
 27 30  1  0  0  0  0
 28 29  1  0  0  0  0
 30 31  1  6  0  0  0
 30 32  1  0  0  0  0
 30 33  1  0  0  0  0
 33 34  1  0  0  0  0
M  CHG  4   4   1  15   1  18   1  28   1
M  END
>  <CHROM.1>
-144.07367850,-152.45946339,-44.07111381,61.80774885,-59.24168586,178.60666594
-47.17792742,-95.34551946,-49.15943905,-178.51271502,-78.47219529,-175.82190394
69.70328494,4.17199418,166.13731788,-11.22112199,7.21280551,19.19452742,-2.71059809
-0.65873409,0.80249536

>  <Name>
1mwl

>  <RI>
0

>  <Rbt.Current_Directory>
/home/itssahil/PROJECTS/Mol_Feturizer/New_Systems/rnas/1mwl

>  <Rbt.Executable>
rbdock ($Id: //depot/dev/client3/rdock/2013.1/src/exe/rbdock.cxx#4 $)

>  <Rbt.Library>
libRbt.so (2013.1, Build901 2013/11/27)

>  <Rbt.Parameter_File>
/export/apps/rDock/src/rDock_2013.1_src/data/scripts/dock_solv.prm

>  <Rbt.Receptor>
prm/pocket_docking_3.prm

>  <SCORE>
-46.6532

>  <SCORE.INTER>
-34.527

>  <SCORE.INTER.CONST>
1

>  <SCORE.INTER.POLAR>
-4.72413

>  <SCORE.INTER.ROT>
6

>  <SCORE.INTER.SOLV>
23.892

>  <SCORE.INTER.VDW>
-22.8349

>  <SCORE.INTER.norm>
-1.0155

>  <SCORE.INTRA>
-12.1476

>  <SCORE.INTRA.DIHEDRAL>
-23.7703

>  <SCORE.INTRA.DIHEDRAL.0>
42.0816

>  <SCORE.INTRA.POLAR>
0.0466815

>  <SCORE.INTRA.POLAR.0>
-0.254682

>  <SCORE.INTRA.REPUL>
0

>  <SCORE.INTRA.REPUL.0>
0

>  <SCORE.INTRA.SOLV>
0.822644

>  <SCORE.INTRA.SOLV.lig_0>
-109.803

>  <SCORE.INTRA.VDW>
-0.832507

>  <SCORE.INTRA.VDW.0>
0.32176

>  <SCORE.INTRA.norm>
-0.357282

>  <SCORE.RESTR>
0.0213302

>  <SCORE.RESTR.CAVITY>
0.0213302

>  <SCORE.RESTR.norm>
0.000627359

>  <SCORE.SYSTEM>
0

>  <SCORE.SYSTEM.CONST>
0

>  <SCORE.SYSTEM.DIHEDRAL>
0

>  <SCORE.SYSTEM.SOLV>
0

>  <SCORE.SYSTEM.norm>
0

>  <SCORE.heavy>
34

>  <SCORE.norm>
-1.37215

>  <RMSD>
8.733

$$$$
1mwl
 OpenBabel11021811403D
libRbt.so/2013.1/901 2013/11/27
 34 36  0  0  0  0  0  0  0  0999 V2000
   -6.2116    5.8945   14.2833 C   0  0  2  0  0  0  0  0  0  0  0  0
   -6.6449    4.5697   14.3588 O   0  0  0  0  0  0  0  0  0  0  0  0
   -6.4774    6.3892   12.8336 C   0  0  2  0  0  0  0  0  0  0  0  0
   -7.9045    6.2800   12.5161 N   0  3  0  0  0  0  0  0  0  0  0  0
   -5.6049    5.5982   11.8154 C   0  0  1  0  0  0  0  0  0  0  0  0
   -5.8124    6.0418   10.5504 O   0  0  0  0  0  0  0  0  0  0  0  0
   -4.1016    5.7537   12.2199 C   0  0  2  0  0  0  0  0  0  0  0  0
   -3.2612    5.0395   11.2894 O   0  0  0  0  0  0  0  0  0  0  0  0
   -3.9246    5.2097   13.6781 C   0  0  2  0  0  0  0  0  0  0  0  0
   -4.8001    5.9508   14.6127 O   0  0  0  0  0  0  0  0  0  0  0  0
   -2.4990    5.3150   14.2316 C   0  0  2  0  0  0  0  0  0  0  0  0
   -1.7454    6.1619   13.4265 O   0  0  0  0  0  0  0  0  0  0  0  0
   -1.7492    3.9707   14.2639 C   0  0  0  0  0  0  0  0  0  0  0  0
   -9.0280    2.8052   17.4356 C   0  0  2  0  0  0  0  0  0  0  0  0
   -9.4131    2.1406   18.7066 N   0  3  0  0  0  0  0  0  0  0  0  0
   -8.1206    1.8727   16.5795 C   0  0  0  0  0  0  0  0  0  0  0  0
   -7.7037    2.5920   15.2458 C   0  0  2  0  0  0  0  0  0  0  0  0
   -6.8348    1.6623   14.4351 N   0  3  0  0  0  0  0  0  0  0  0  0
   -6.9607    3.9288   15.5881 C   0  0  2  0  0  0  0  0  0  0  0  0
   -7.8902    4.8362   16.4307 C   0  0  2  0  0  0  0  0  0  0  0  0
   -7.2008    6.0178   16.7605 O   0  0  0  0  0  0  0  0  0  0  0  0
   -8.2795    4.1179   17.7505 C   0  0  1  0  0  0  0  0  0  0  0  0
   -9.1286    4.9681   18.5073 O   0  0  0  0  0  0  0  0  0  0  0  0
   -8.5458    5.8806   19.3964 C   0  0  2  0  0  0  0  0  0  0  0  0
   -8.9165    5.4357   20.8238 C   0  0  2  0  0  0  0  0  0  0  0  0
   -8.3890    4.1471   21.0556 O   0  0  0  0  0  0  0  0  0  0  0  0
  -10.4763    5.4340   20.9719 C   0  0  1  0  0  0  0  0  0  0  0  0
  -10.9184    4.9867   22.3152 N   0  3  0  0  0  0  0  0  0  0  0  0
  -12.0175    3.9937   22.2048 C   0  0  0  0  0  0  0  0  0  0  0  0
  -11.0227    6.8740   20.6808 C   0  0  2  0  0  0  0  0  0  0  0  0
  -10.4591    7.8106   21.6181 O   0  0  0  0  0  0  0  0  0  0  0  0
  -12.4672    6.9451   20.8060 C   0  0  0  0  0  0  0  0  0  0  0  0
  -10.5635    7.3450   19.2664 C   0  0  0  0  0  0  0  0  0  0  0  0
   -9.0745    7.2294   19.1307 O   0  0  0  0  0  0  0  0  0  0  0  0
  1  2  1  6  0  0  0
  1  3  1  0  0  0  0
  1 10  1  0  0  0  0
  3  4  1  6  0  0  0
  3  5  1  0  0  0  0
  5  6  1  6  0  0  0
  5  7  1  0  0  0  0
  7  8  1  6  0  0  0
  7  9  1  0  0  0  0
  9 10  1  1  0  0  0
  9 11  1  0  0  0  0
 11 12  1  6  0  0  0
 11 13  1  0  0  0  0
 14 15  1  1  0  0  0
 14 16  1  0  0  0  0
 14 22  1  0  0  0  0
 16 17  1  0  0  0  0
 17 18  1  1  0  0  0
 17 19  1  0  0  0  0
 19  2  1  6  0  0  0
 19 20  1  0  0  0  0
 20 21  1  1  0  0  0
 20 22  1  0  0  0  0
 22 23  1  1  0  0  0
 24 23  1  6  0  0  0
 24 25  1  0  0  0  0
 24 34  1  0  0  0  0
 25 26  1  6  0  0  0
 25 27  1  0  0  0  0
 27 28  1  1  0  0  0
 27 30  1  0  0  0  0
 28 29  1  0  0  0  0
 30 31  1  1  0  0  0
 30 32  1  0  0  0  0
 30 33  1  0  0  0  0
 33 34  1  0  0  0  0
M  CHG  4   4   1  15   1  18   1  28   1
M  END
>  <CHROM.1>
-159.24604590,167.42194382,-60.19323135,-59.55314841,-59.72014307,14.09250512
54.48966686,179.72141934,175.98288585,-14.18225723,151.39834994,-112.55515032
173.49680316,-13.50165418,-66.80596334,-7.46299326,5.09249199,16.63185249
0.01263151,0.91874421,-0.05198982

>  <Name>
1mwl

>  <RI>
0

>  <Rbt.Current_Directory>
/home/itssahil/PROJECTS/Mol_Feturizer/New_Systems/rnas/1mwl

>  <Rbt.Executable>
rbdock ($Id: //depot/dev/client3/rdock/2013.1/src/exe/rbdock.cxx#4 $)

>  <Rbt.Library>
libRbt.so (2013.1, Build901 2013/11/27)

>  <Rbt.Parameter_File>
/export/apps/rDock/src/rDock_2013.1_src/data/scripts/dock_solv.prm

>  <Rbt.Receptor>
prm/blind_docking_100.prm

>  <SCORE>
-36.7894

>  <SCORE.INTER>
-41.2622

>  <SCORE.INTER.CONST>
1

>  <SCORE.INTER.POLAR>
-7.42855

>  <SCORE.INTER.ROT>
6

>  <SCORE.INTER.SOLV>
21.2094

>  <SCORE.INTER.VDW>
-17.4162

>  <SCORE.INTER.norm>
-1.2136

>  <SCORE.INTRA>
-7.71128

>  <SCORE.INTRA.DIHEDRAL>
-14.443

>  <SCORE.INTRA.DIHEDRAL.0>
42.0816

>  <SCORE.INTRA.POLAR>
0.0871065

>  <SCORE.INTRA.POLAR.0>
-0.254682

>  <SCORE.INTRA.REPUL>
0

>  <SCORE.INTRA.REPUL.0>
0

>  <SCORE.INTRA.SOLV>
-0.970475

>  <SCORE.INTRA.SOLV.lig_0>
-109.803

>  <SCORE.INTRA.VDW>
-0.300687

>  <SCORE.INTRA.VDW.0>
0.32176

>  <SCORE.INTRA.norm>
-0.226802

>  <SCORE.RESTR>
12.1842

>  <SCORE.RESTR.CAVITY>
12.1842

>  <SCORE.RESTR.norm>
0.358358

>  <SCORE.SYSTEM>
0

>  <SCORE.SYSTEM.CONST>
0

>  <SCORE.SYSTEM.DIHEDRAL>
0

>  <SCORE.SYSTEM.SOLV>
0

>  <SCORE.SYSTEM.norm>
0

>  <SCORE.heavy>
34

>  <SCORE.norm>
-1.08204

>  <RMSD>
8.742

$$$$
1mwl
 OpenBabel11021811403D
libRbt.so/2013.1/901 2013/11/27
 34 36  0  0  0  0  0  0  0  0999 V2000
   -5.8811    5.8298   14.5590 C   0  0  2  0  0  0  0  0  0  0  0  0
   -6.5153    4.5897   14.4671 O   0  0  0  0  0  0  0  0  0  0  0  0
   -6.2486    6.6364   13.2817 C   0  0  2  0  0  0  0  0  0  0  0  0
   -7.7031    6.7917   13.1833 N   0  3  0  0  0  0  0  0  0  0  0  0
   -5.6614    5.9519   12.0128 C   0  0  1  0  0  0  0  0  0  0  0  0
   -5.9563    6.6638   10.8964 O   0  0  0  0  0  0  0  0  0  0  0  0
   -4.1134    5.8135   12.1916 C   0  0  2  0  0  0  0  0  0  0  0  0
   -3.5332    5.1903   11.0265 O   0  0  0  0  0  0  0  0  0  0  0  0
   -3.8396    4.9696   13.4827 C   0  0  2  0  0  0  0  0  0  0  0  0
   -4.4491    5.6230   14.6621 O   0  0  0  0  0  0  0  0  0  0  0  0
   -2.3562    4.7635   13.8097 C   0  0  2  0  0  0  0  0  0  0  0  0
   -2.2326    3.9588   14.9369 O   0  0  0  0  0  0  0  0  0  0  0  0
   -1.6078    6.0706   14.1290 C   0  0  0  0  0  0  0  0  0  0  0  0
   -9.0332    2.5779   17.2729 C   0  0  2  0  0  0  0  0  0  0  0  0
   -9.4721    1.7861   18.4501 N   0  3  0  0  0  0  0  0  0  0  0  0
   -8.1433    1.7151   16.3297 C   0  0  0  0  0  0  0  0  0  0  0  0
   -7.6691    2.5671   15.0971 C   0  0  2  0  0  0  0  0  0  0  0  0
   -6.8185    1.7034   14.1987 N   0  3  0  0  0  0  0  0  0  0  0  0
   -6.8832    3.8236   15.6070 C   0  0  2  0  0  0  0  0  0  0  0  0
   -7.7958    4.6639   16.5334 C   0  0  2  0  0  0  0  0  0  0  0  0
   -7.0692    5.7699   17.0116 O   0  0  0  0  0  0  0  0  0  0  0  0
   -8.2420    3.8134   17.7527 C   0  0  1  0  0  0  0  0  0  0  0  0
   -9.0747    4.6036   18.5887 O   0  0  0  0  0  0  0  0  0  0  0  0
   -8.5999    4.9723   19.8541 C   0  0  2  0  0  0  0  0  0  0  0  0
   -9.6619    4.5503   20.8870 C   0  0  2  0  0  0  0  0  0  0  0  0
   -9.8249    3.1492   20.8329 O   0  0  0  0  0  0  0  0  0  0  0  0
  -11.0100    5.2807   20.5644 C   0  0  1  0  0  0  0  0  0  0  0  0
  -12.0976    4.9041   21.4999 N   0  3  0  0  0  0  0  0  0  0  0  0
  -11.6099    4.9050   22.9029 C   0  0  0  0  0  0  0  0  0  0  0  0
  -10.7792    6.8305   20.6085 C   0  0  2  0  0  0  0  0  0  0  0  0
  -10.3304    7.2218   21.9196 O   0  0  0  0  0  0  0  0  0  0  0  0
  -11.9943    7.5715   20.3226 C   0  0  0  0  0  0  0  0  0  0  0  0
   -9.6392    7.2302   19.6217 C   0  0  0  0  0  0  0  0  0  0  0  0
   -8.4004    6.4310   19.8967 O   0  0  0  0  0  0  0  0  0  0  0  0
  1  2  1  6  0  0  0
  1  3  1  0  0  0  0
  1 10  1  0  0  0  0
  3  4  1  6  0  0  0
  3  5  1  0  0  0  0
  5  6  1  6  0  0  0
  5  7  1  0  0  0  0
  7  8  1  6  0  0  0
  7  9  1  0  0  0  0
  9 10  1  1  0  0  0
  9 11  1  0  0  0  0
 11 12  1  1  0  0  0
 11 13  1  0  0  0  0
 14 15  1  1  0  0  0
 14 16  1  0  0  0  0
 14 22  1  0  0  0  0
 16 17  1  0  0  0  0
 17 18  1  6  0  0  0
 17 19  1  0  0  0  0
 19  2  1  6  0  0  0
 19 20  1  0  0  0  0
 20 21  1  1  0  0  0
 20 22  1  0  0  0  0
 22 23  1  1  0  0  0
 24 23  1  6  0  0  0
 24 25  1  0  0  0  0
 24 34  1  0  0  0  0
 25 26  1  6  0  0  0
 25 27  1  0  0  0  0
 27 28  1  1  0  0  0
 27 30  1  0  0  0  0
 28 29  1  0  0  0  0
 30 31  1  1  0  0  0
 30 32  1  0  0  0  0
 30 33  1  0  0  0  0
 33 34  1  0  0  0  0
M  CHG  4   4   1  15   1  18   1  28   1
M  END
>  <CHROM.1>
-153.11072507,175.38771984,174.51908177,-61.98235801,-56.68199907,-177.52953311
66.37188422,61.02479563,-58.89182228,-66.04651889,127.78637311,-126.91067327
50.02236934,164.84352895,177.71871281,-7.47604544,4.95923355,16.71285591
0.01382964,0.90151349,-0.02492451

>  <Name>
1mwl

>  <RI>
0

>  <Rbt.Current_Directory>
/home/itssahil/PROJECTS/Mol_Feturizer/New_Systems/rnas/1mwl

>  <Rbt.Executable>
rbdock ($Id: //depot/dev/client3/rdock/2013.1/src/exe/rbdock.cxx#4 $)

>  <Rbt.Library>
libRbt.so (2013.1, Build901 2013/11/27)

>  <Rbt.Parameter_File>
/export/apps/rDock/src/rDock_2013.1_src/data/scripts/dock_solv.prm

>  <Rbt.Receptor>
prm/blind_docking_100.prm

>  <SCORE>
-33.956

>  <SCORE.INTER>
-31.9275

>  <SCORE.INTER.CONST>
1

>  <SCORE.INTER.POLAR>
-5.59163

>  <SCORE.INTER.ROT>
6

>  <SCORE.INTER.SOLV>
19.8867

>  <SCORE.INTER.VDW>
-16.8751

>  <SCORE.INTER.norm>
-0.939044

>  <SCORE.INTRA>
-13.5921

>  <SCORE.INTRA.DIHEDRAL>
-23.4228

>  <SCORE.INTRA.DIHEDRAL.0>
42.0816

>  <SCORE.INTRA.POLAR>
-0.417456

>  <SCORE.INTRA.POLAR.0>
-0.254682

>  <SCORE.INTRA.REPUL>
0

>  <SCORE.INTRA.REPUL.0>
0

>  <SCORE.INTRA.SOLV>
-1.73005

>  <SCORE.INTRA.SOLV.lig_0>
-109.803

>  <SCORE.INTRA.VDW>
0.403749

>  <SCORE.INTRA.VDW.0>
0.32176

>  <SCORE.INTRA.norm>
-0.399766

>  <SCORE.RESTR>
11.5635

>  <SCORE.RESTR.CAVITY>
11.5635

>  <SCORE.RESTR.norm>
0.340104

>  <SCORE.SYSTEM>
0

>  <SCORE.SYSTEM.CONST>
0

>  <SCORE.SYSTEM.DIHEDRAL>
0

>  <SCORE.SYSTEM.SOLV>
0

>  <SCORE.SYSTEM.norm>
0

>  <SCORE.heavy>
34

>  <SCORE.norm>
-0.998707

>  <RMSD>
8.760

$$$$
1mwl
 OpenBabel11021811403D
libRbt.so/2013.1/901 2013/11/27
 34 36  0  0  0  0  0  0  0  0999 V2000
  -13.5098    6.1575   17.4376 C   0  0  2  0  0  0  0  0  0  0  0  0
  -13.1325    7.4610   17.7651 O   0  0  0  0  0  0  0  0  0  0  0  0
  -12.8585    5.8147   16.0681 C   0  0  2  0  0  0  0  0  0  0  0  0
  -11.4003    5.9372   16.1573 N   0  3  0  0  0  0  0  0  0  0  0  0
  -13.4387    6.7204   14.9427 C   0  0  1  0  0  0  0  0  0  0  0  0
  -12.8937    6.4097   13.7399 O   0  0  0  0  0  0  0  0  0  0  0  0
  -14.9929    6.5438   14.9115 C   0  0  2  0  0  0  0  0  0  0  0  0
  -15.5645    7.3635   13.8706 O   0  0  0  0  0  0  0  0  0  0  0  0
  -15.5617    6.9336   16.3181 C   0  0  2  0  0  0  0  0  0  0  0  0
  -14.9569    6.0862   17.3696 O   0  0  0  0  0  0  0  0  0  0  0  0
  -17.0817    6.7901   16.4557 C   0  0  2  0  0  0  0  0  0  0  0  0
  -17.4887    5.5771   15.9116 O   0  0  0  0  0  0  0  0  0  0  0  0
  -17.8738    7.8826   15.7146 C   0  0  0  0  0  0  0  0  0  0  0  0
  -10.7764    8.9483   21.0049 C   0  0  2  0  0  0  0  0  0  0  0  0
  -10.3752    9.3747   22.3696 N   0  3  0  0  0  0  0  0  0  0  0  0
  -11.9388    9.8363   20.4700 C   0  0  0  0  0  0  0  0  0  0  0  0
  -12.3681    9.3654   19.0333 C   0  0  2  0  0  0  0  0  0  0  0  0
  -13.4872   10.2485   18.5389 N   0  3  0  0  0  0  0  0  0  0  0  0
  -12.7993    7.8596   19.0886 C   0  0  2  0  0  0  0  0  0  0  0  0
  -11.6217    7.0032   19.6151 C   0  0  2  0  0  0  0  0  0  0  0  0
  -12.0313    5.6592   19.6926 O   0  0  0  0  0  0  0  0  0  0  0  0
  -11.2207    7.4705   21.0399 C   0  0  1  0  0  0  0  0  0  0  0  0
  -10.1425    6.6710   21.5032 O   0  0  0  0  0  0  0  0  0  0  0  0
   -9.0936    6.3813   20.6208 C   0  0  2  0  0  0  0  0  0  0  0  0
   -8.2079    5.3137   21.2906 C   0  0  2  0  0  0  0  0  0  0  0  0
   -8.9764    4.1501   21.5099 O   0  0  0  0  0  0  0  0  0  0  0  0
   -7.6561    5.8800   22.6433 C   0  0  1  0  0  0  0  0  0  0  0  0
   -6.8136    4.8978   23.3682 N   0  3  0  0  0  0  0  0  0  0  0  0
   -7.1321    4.8995   24.8190 C   0  0  0  0  0  0  0  0  0  0  0  0
   -6.8333    7.1834   22.3583 C   0  0  2  0  0  0  0  0  0  0  0  0
   -5.7287    6.8842   21.4844 O   0  0  0  0  0  0  0  0  0  0  0  0
   -6.2865    7.7600   23.5732 C   0  0  0  0  0  0  0  0  0  0  0  0
   -7.7185    8.2203   21.6004 C   0  0  0  0  0  0  0  0  0  0  0  0
   -8.3130    7.6047   20.3690 O   0  0  0  0  0  0  0  0  0  0  0  0
  1  2  1  6  0  0  0
  1  3  1  0  0  0  0
  1 10  1  0  0  0  0
  3  4  1  1  0  0  0
  3  5  1  0  0  0  0
  5  6  1  6  0  0  0
  5  7  1  0  0  0  0
  7  8  1  6  0  0  0
  7  9  1  0  0  0  0
  9 10  1  1  0  0  0
  9 11  1  0  0  0  0
 11 12  1  6  0  0  0
 11 13  1  0  0  0  0
 14 15  1  1  0  0  0
 14 16  1  0  0  0  0
 14 22  1  0  0  0  0
 16 17  1  0  0  0  0
 17 18  1  1  0  0  0
 17 19  1  0  0  0  0
 19  2  1  6  0  0  0
 19 20  1  0  0  0  0
 20 21  1  1  0  0  0
 20 22  1  0  0  0  0
 22 23  1  6  0  0  0
 24 23  1  1  0  0  0
 24 25  1  0  0  0  0
 24 34  1  0  0  0  0
 25 26  1  1  0  0  0
 25 27  1  0  0  0  0
 27 28  1  6  0  0  0
 27 30  1  0  0  0  0
 28 29  1  0  0  0  0
 30 31  1  6  0  0  0
 30 32  1  0  0  0  0
 30 33  1  0  0  0  0
 33 34  1  0  0  0  0
M  CHG  4   4   1  15   1  18   1  28   1
M  END
>  <CHROM.1>
-140.82616845,177.33681561,-177.12374587,-71.63493043,158.97313416,45.21390183
60.54668862,14.56573385,-55.08243920,-64.93318429,-76.82067817,-170.16315462
63.80476831,-17.06459823,165.30211554,-11.47899132,6.96255599,19.17349003
-2.75407374,-0.62325127,0.65779273

>  <Name>
1mwl

>  <RI>
0

>  <Rbt.Current_Directory>
/home/itssahil/PROJECTS/Mol_Feturizer/New_Systems/rnas/1mwl

>  <Rbt.Executable>
rbdock ($Id: //depot/dev/client3/rdock/2013.1/src/exe/rbdock.cxx#4 $)

>  <Rbt.Library>
libRbt.so (2013.1, Build901 2013/11/27)

>  <Rbt.Parameter_File>
/export/apps/rDock/src/rDock_2013.1_src/data/scripts/dock_solv.prm

>  <Rbt.Receptor>
prm/pocket_docking_8.prm

>  <SCORE>
-53.5011

>  <SCORE.INTER>
-41.3743

>  <SCORE.INTER.CONST>
1

>  <SCORE.INTER.POLAR>
-5.89185

>  <SCORE.INTER.ROT>
6

>  <SCORE.INTER.SOLV>
25.8037

>  <SCORE.INTER.VDW>
-24.1446

>  <SCORE.INTER.norm>
-1.21689

>  <SCORE.INTRA>
-12.1268

>  <SCORE.INTRA.DIHEDRAL>
-24.3996

>  <SCORE.INTRA.DIHEDRAL.0>
42.0816

>  <SCORE.INTRA.POLAR>
0.221213

>  <SCORE.INTRA.POLAR.0>
-0.254682

>  <SCORE.INTRA.REPUL>
0

>  <SCORE.INTRA.REPUL.0>
0

>  <SCORE.INTRA.SOLV>
-0.317023

>  <SCORE.INTRA.SOLV.lig_0>
-109.803

>  <SCORE.INTRA.VDW>
-0.520585

>  <SCORE.INTRA.VDW.0>
0.32176

>  <SCORE.INTRA.norm>
-0.35667

>  <SCORE.RESTR>
0

>  <SCORE.RESTR.CAVITY>
0

>  <SCORE.RESTR.norm>
0

>  <SCORE.SYSTEM>
0

>  <SCORE.SYSTEM.CONST>
0

>  <SCORE.SYSTEM.DIHEDRAL>
0

>  <SCORE.SYSTEM.SOLV>
0

>  <SCORE.SYSTEM.norm>
0

>  <SCORE.heavy>
34

>  <SCORE.norm>
-1.57356

>  <RMSD>
8.765

$$$$
1mwl
 OpenBabel11021811403D
libRbt.so/2013.1/901 2013/11/27
 34 36  0  0  0  0  0  0  0  0999 V2000
   -6.1415    5.9948   15.0058 C   0  0  2  0  0  0  0  0  0  0  0  0
   -6.5111    4.6550   14.8751 O   0  0  0  0  0  0  0  0  0  0  0  0
   -6.9493    6.8053   13.9534 C   0  0  2  0  0  0  0  0  0  0  0  0
   -8.3877    6.6289   14.1753 N   0  3  0  0  0  0  0  0  0  0  0  0
   -6.5403    6.3906   12.5097 C   0  0  1  0  0  0  0  0  0  0  0  0
   -7.2228    7.1119   11.5855 O   0  0  0  0  0  0  0  0  0  0  0  0
   -4.9980    6.5978   12.3490 C   0  0  2  0  0  0  0  0  0  0  0  0
   -4.5845    6.2317   11.0159 O   0  0  0  0  0  0  0  0  0  0  0  0
   -4.2686    5.7283   13.4288 C   0  0  2  0  0  0  0  0  0  0  0  0
   -4.7128    6.1156   14.7860 O   0  0  0  0  0  0  0  0  0  0  0  0
   -2.7399    5.8417   13.4157 C   0  0  2  0  0  0  0  0  0  0  0  0
   -2.2742    5.7436   12.1092 O   0  0  0  0  0  0  0  0  0  0  0  0
   -2.0322    4.7291   14.2103 C   0  0  0  0  0  0  0  0  0  0  0  0
   -9.1898    2.5995   17.4940 C   0  0  2  0  0  0  0  0  0  0  0  0
   -9.6964    1.7811   18.6250 N   0  3  0  0  0  0  0  0  0  0  0  0
   -8.2642    1.7515   16.5719 C   0  0  0  0  0  0  0  0  0  0  0  0
   -7.7190    2.6312   15.3892 C   0  0  2  0  0  0  0  0  0  0  0  0
   -6.8349    1.7816   14.5099 N   0  3  0  0  0  0  0  0  0  0  0  0
   -6.9446    3.8624   15.9730 C   0  0  2  0  0  0  0  0  0  0  0  0
   -7.8923    4.6886   16.8766 C   0  0  2  0  0  0  0  0  0  0  0  0
   -7.1774    5.7712   17.4216 O   0  0  0  0  0  0  0  0  0  0  0  0
   -8.4090    3.8105   18.0475 C   0  0  1  0  0  0  0  0  0  0  0  0
   -9.2730    4.5881   18.8633 O   0  0  0  0  0  0  0  0  0  0  0  0
   -9.5926    4.1167   20.1433 C   0  0  2  0  0  0  0  0  0  0  0  0
  -10.6098    5.0978   20.7561 C   0  0  2  0  0  0  0  0  0  0  0  0
  -11.7719    5.1155   19.9550 O   0  0  0  0  0  0  0  0  0  0  0  0
   -9.9648    6.5236   20.8337 C   0  0  1  0  0  0  0  0  0  0  0  0
  -10.8946    7.5377   21.3879 N   0  3  0  0  0  0  0  0  0  0  0  0
  -10.7859    8.8166   20.6405 C   0  0  0  0  0  0  0  0  0  0  0  0
   -8.6658    6.4542   21.7082 C   0  0  2  0  0  0  0  0  0  0  0  0
   -8.9937    6.0097   23.0380 O   0  0  0  0  0  0  0  0  0  0  0  0
   -8.0179    7.7478   21.8264 C   0  0  0  0  0  0  0  0  0  0  0  0
   -7.6839    5.3919   21.1247 C   0  0  0  0  0  0  0  0  0  0  0  0
   -8.3723    4.0690   20.9668 O   0  0  0  0  0  0  0  0  0  0  0  0
  1  2  1  6  0  0  0
  1  3  1  0  0  0  0
  1 10  1  0  0  0  0
  3  4  1  1  0  0  0
  3  5  1  0  0  0  0
  5  6  1  6  0  0  0
  5  7  1  0  0  0  0
  7  8  1  6  0  0  0
  7  9  1  0  0  0  0
  9 10  1  1  0  0  0
  9 11  1  0  0  0  0
 11 12  1  6  0  0  0
 11 13  1  0  0  0  0
 14 15  1  1  0  0  0
 14 16  1  0  0  0  0
 14 22  1  0  0  0  0
 16 17  1  0  0  0  0
 17 18  1  6  0  0  0
 17 19  1  0  0  0  0
 19  2  1  6  0  0  0
 19 20  1  0  0  0  0
 20 21  1  1  0  0  0
 20 22  1  0  0  0  0
 22 23  1  1  0  0  0
 24 23  1  6  0  0  0
 24 25  1  0  0  0  0
 24 34  1  0  0  0  0
 25 26  1  6  0  0  0
 25 27  1  0  0  0  0
 27 28  1  1  0  0  0
 27 30  1  0  0  0  0
 28 29  1  0  0  0  0
 30 31  1  1  0  0  0
 30 32  1  0  0  0  0
 30 33  1  0  0  0  0
 33 34  1  0  0  0  0
M  CHG  4   4   1  15   1  18   1  28   1
M  END
>  <CHROM.1>
-127.92236759,160.82749083,-176.03381976,85.77257534,63.20776276,-46.11998951
65.50515118,-43.18654447,169.03824439,-58.96886449,75.40411895,-176.14215399
-54.93592783,-19.11132008,60.17573520,-7.48158024,5.26410040,16.90730847
-0.30935863,0.98553054,0.36815717

>  <Name>
1mwl

>  <RI>
0

>  <Rbt.Current_Directory>
/home/itssahil/PROJECTS/Mol_Feturizer/New_Systems/rnas/1mwl

>  <Rbt.Executable>
rbdock ($Id: //depot/dev/client3/rdock/2013.1/src/exe/rbdock.cxx#4 $)

>  <Rbt.Library>
libRbt.so (2013.1, Build901 2013/11/27)

>  <Rbt.Parameter_File>
/export/apps/rDock/src/rDock_2013.1_src/data/scripts/dock_solv.prm

>  <Rbt.Receptor>
prm/blind_docking_100.prm

>  <SCORE>
-37.1068

>  <SCORE.INTER>
-36.5688

>  <SCORE.INTER.CONST>
1

>  <SCORE.INTER.POLAR>
-5.51514

>  <SCORE.INTER.ROT>
6

>  <SCORE.INTER.SOLV>
22.8705

>  <SCORE.INTER.VDW>
-21.2189

>  <SCORE.INTER.norm>
-1.07555

>  <SCORE.INTRA>
-13.242

>  <SCORE.INTRA.DIHEDRAL>
-24.6661

>  <SCORE.INTRA.DIHEDRAL.0>
42.0816

>  <SCORE.INTRA.POLAR>
0.103684

>  <SCORE.INTRA.POLAR.0>
-0.254682

>  <SCORE.INTRA.REPUL>
0

>  <SCORE.INTRA.REPUL.0>
0

>  <SCORE.INTRA.SOLV>
-0.692708

>  <SCORE.INTRA.SOLV.lig_0>
-109.803

>  <SCORE.INTRA.VDW>
-0.915091

>  <SCORE.INTRA.VDW.0>
0.32176

>  <SCORE.INTRA.norm>
-0.38947

>  <SCORE.RESTR>
12.704

>  <SCORE.RESTR.CAVITY>
12.704

>  <SCORE.RESTR.norm>
0.373647

>  <SCORE.SYSTEM>
0

>  <SCORE.SYSTEM.CONST>
0

>  <SCORE.SYSTEM.DIHEDRAL>
0

>  <SCORE.SYSTEM.SOLV>
0

>  <SCORE.SYSTEM.norm>
0

>  <SCORE.heavy>
34

>  <SCORE.norm>
-1.09138

>  <RMSD>
8.778

$$$$
1mwl
 OpenBabel11021811403D
libRbt.so/2013.1/901 2013/11/27
 34 36  0  0  0  0  0  0  0  0999 V2000
  -17.3321    6.4973   16.5019 C   0  0  2  0  0  0  0  0  0  0  0  0
  -16.2098    5.6672   16.5009 O   0  0  0  0  0  0  0  0  0  0  0  0
  -16.9082    7.8540   15.8722 C   0  0  2  0  0  0  0  0  0  0  0  0
  -16.4062    7.6442   14.5108 N   0  3  0  0  0  0  0  0  0  0  0  0
  -15.8515    8.5672   16.7656 C   0  0  1  0  0  0  0  0  0  0  0  0
  -15.4955    9.7640   16.2354 O   0  0  0  0  0  0  0  0  0  0  0  0
  -16.4516    8.7500   18.1988 C   0  0  2  0  0  0  0  0  0  0  0  0
  -15.5003    9.4186   19.0533 O   0  0  0  0  0  0  0  0  0  0  0  0
  -16.8246    7.3363   18.7612 C   0  0  2  0  0  0  0  0  0  0  0  0
  -17.7945    6.6671   17.8663 O   0  0  0  0  0  0  0  0  0  0  0  0
  -17.4512    7.3492   20.1601 C   0  0  2  0  0  0  0  0  0  0  0  0
  -16.5650    7.9230   21.0649 O   0  0  0  0  0  0  0  0  0  0  0  0
  -17.7742    5.9456   20.7041 C   0  0  0  0  0  0  0  0  0  0  0  0
  -15.0627    2.0546   14.5280 C   0  0  2  0  0  0  0  0  0  0  0  0
  -14.7329    1.0859   13.4517 N   0  3  0  0  0  0  0  0  0  0  0  0
  -16.5464    2.5157   14.4181 C   0  0  0  0  0  0  0  0  0  0  0  0
  -16.8799    3.5541   15.5498 C   0  0  2  0  0  0  0  0  0  0  0  0
  -18.3235    3.9744   15.4233 N   0  3  0  0  0  0  0  0  0  0  0  0
  -15.9075    4.7777   15.4336 C   0  0  2  0  0  0  0  0  0  0  0  0
  -14.4435    4.2886   15.5552 C   0  0  2  0  0  0  0  0  0  0  0  0
  -13.5793    5.3902   15.4154 O   0  0  0  0  0  0  0  0  0  0  0  0
  -14.1259    3.2767   14.4218 C   0  0  1  0  0  0  0  0  0  0  0  0
  -12.7796    2.8440   14.5511 O   0  0  0  0  0  0  0  0  0  0  0  0
  -11.7591    3.6680   14.0590 C   0  0  2  0  0  0  0  0  0  0  0  0
  -11.6160    3.3768   12.5531 C   0  0  2  0  0  0  0  0  0  0  0  0
  -12.8308    3.6911   11.9064 O   0  0  0  0  0  0  0  0  0  0  0  0
  -11.2545    1.8652   12.3550 C   0  0  1  0  0  0  0  0  0  0  0  0
  -11.1275    1.4948   10.9243 N   0  3  0  0  0  0  0  0  0  0  0  0
  -12.4656    1.3618   10.2936 C   0  0  0  0  0  0  0  0  0  0  0  0
   -9.9164    1.5527   13.1093 C   0  0  2  0  0  0  0  0  0  0  0  0
   -8.8537    2.3673   12.5796 O   0  0  0  0  0  0  0  0  0  0  0  0
   -9.5186    0.1644   12.9623 C   0  0  0  0  0  0  0  0  0  0  0  0
  -10.0487    1.9366   14.6154 C   0  0  0  0  0  0  0  0  0  0  0  0
  -10.5000    3.3595   14.7584 O   0  0  0  0  0  0  0  0  0  0  0  0
  1  2  1  1  0  0  0
  1  3  1  0  0  0  0
  1 10  1  0  0  0  0
  3  4  1  6  0  0  0
  3  5  1  0  0  0  0
  5  6  1  6  0  0  0
  5  7  1  0  0  0  0
  7  8  1  1  0  0  0
  7  9  1  0  0  0  0
  9 10  1  6  0  0  0
  9 11  1  0  0  0  0
 11 12  1  1  0  0  0
 11 13  1  0  0  0  0
 14 15  1  6  0  0  0
 14 16  1  0  0  0  0
 14 22  1  0  0  0  0
 16 17  1  0  0  0  0
 17 18  1  6  0  0  0
 17 19  1  0  0  0  0
 19  2  1  1  0  0  0
 19 20  1  0  0  0  0
 20 21  1  6  0  0  0
 20 22  1  0  0  0  0
 22 23  1  1  0  0  0
 24 23  1  1  0  0  0
 24 25  1  0  0  0  0
 24 34  1  0  0  0  0
 25 26  1  6  0  0  0
 25 27  1  0  0  0  0
 27 28  1  6  0  0  0
 27 30  1  0  0  0  0
 28 29  1  0  0  0  0
 30 31  1  6  0  0  0
 30 32  1  0  0  0  0
 30 33  1  0  0  0  0
 33 34  1  0  0  0  0
M  CHG  4   4   1  15   1  18   1  28   1
M  END
>  <CHROM.1>
-91.51879328,-75.66621616,52.10547322,61.86725066,-174.63874790,-59.74368053
-60.48257563,61.53074994,163.25509669,60.98529017,159.15159479,-84.02220947
79.12470778,43.63211100,62.22495568,-14.37140818,4.67716890,15.31823031,2.19393570
0.15154822,0.67464585

>  <Name>
1mwl

>  <RI>
0

>  <Rbt.Current_Directory>
/home/itssahil/PROJECTS/Mol_Feturizer/New_Systems/rnas/1mwl

>  <Rbt.Executable>
rbdock ($Id: //depot/dev/client3/rdock/2013.1/src/exe/rbdock.cxx#4 $)

>  <Rbt.Library>
libRbt.so (2013.1, Build901 2013/11/27)

>  <Rbt.Parameter_File>
/export/apps/rDock/src/rDock_2013.1_src/data/scripts/dock_solv.prm

>  <Rbt.Receptor>
prm/pocket_docking_8.prm

>  <SCORE>
-37.5355

>  <SCORE.INTER>
-21.2797

>  <SCORE.INTER.CONST>
1

>  <SCORE.INTER.POLAR>
-4.28215

>  <SCORE.INTER.ROT>
6

>  <SCORE.INTER.SOLV>
11.555

>  <SCORE.INTER.VDW>
-11.3644

>  <SCORE.INTER.norm>
-0.625875

>  <SCORE.INTRA>
-16.2558

>  <SCORE.INTRA.DIHEDRAL>
-29.2304

>  <SCORE.INTRA.DIHEDRAL.0>
42.0816

>  <SCORE.INTRA.POLAR>
-0.0983285

>  <SCORE.INTRA.POLAR.0>
-0.254682

>  <SCORE.INTRA.REPUL>
0

>  <SCORE.INTRA.REPUL.0>
0

>  <SCORE.INTRA.SOLV>
2.48026

>  <SCORE.INTRA.SOLV.lig_0>
-109.803

>  <SCORE.INTRA.VDW>
-2.54636

>  <SCORE.INTRA.VDW.0>
0.32176

>  <SCORE.INTRA.norm>
-0.478111

>  <SCORE.RESTR>
0

>  <SCORE.RESTR.CAVITY>
0

>  <SCORE.RESTR.norm>
0

>  <SCORE.SYSTEM>
0

>  <SCORE.SYSTEM.CONST>
0

>  <SCORE.SYSTEM.DIHEDRAL>
0

>  <SCORE.SYSTEM.SOLV>
0

>  <SCORE.SYSTEM.norm>
0

>  <SCORE.heavy>
34

>  <SCORE.norm>
-1.10399

>  <RMSD>
8.830

$$$$
1mwl
 OpenBabel11021811403D
libRbt.so/2013.1/901 2013/11/27
 34 36  0  0  0  0  0  0  0  0999 V2000
  -12.5656    9.7830   19.3172 C   0  0  2  0  0  0  0  0  0  0  0  0
  -13.2799    8.9677   20.1968 O   0  0  0  0  0  0  0  0  0  0  0  0
  -13.1774   11.2096   19.4041 C   0  0  2  0  0  0  0  0  0  0  0  0
  -13.0934   11.7125   20.7787 N   0  3  0  0  0  0  0  0  0  0  0  0
  -14.6454   11.2094   18.8860 C   0  0  1  0  0  0  0  0  0  0  0  0
  -15.1778   12.4561   18.9348 O   0  0  0  0  0  0  0  0  0  0  0  0
  -14.6581   10.6560   17.4228 C   0  0  2  0  0  0  0  0  0  0  0  0
  -16.0054   10.6510   16.9060 O   0  0  0  0  0  0  0  0  0  0  0  0
  -14.0497    9.2125   17.4363 C   0  0  2  0  0  0  0  0  0  0  0  0
  -12.6723    9.2407   17.9761 O   0  0  0  0  0  0  0  0  0  0  0  0
  -13.9712    8.5384   16.0618 C   0  0  2  0  0  0  0  0  0  0  0  0
  -13.3334    7.3084   16.1791 O   0  0  0  0  0  0  0  0  0  0  0  0
  -13.1671    9.3438   15.0249 C   0  0  0  0  0  0  0  0  0  0  0  0
  -12.0454    5.5837   22.4956 C   0  0  2  0  0  0  0  0  0  0  0  0
  -11.6426    4.1996   22.8523 N   0  3  0  0  0  0  0  0  0  0  0  0
  -13.5015    5.6085   21.9432 C   0  0  0  0  0  0  0  0  0  0  0  0
  -13.9113    7.0744   21.5517 C   0  0  2  0  0  0  0  0  0  0  0  0
  -15.3271    7.0677   21.0298 N   0  3  0  0  0  0  0  0  0  0  0  0
  -12.9034    7.6275   20.4866 C   0  0  2  0  0  0  0  0  0  0  0  0
  -11.4687    7.5982   21.0678 C   0  0  2  0  0  0  0  0  0  0  0  0
  -10.5692    8.0646   20.0913 O   0  0  0  0  0  0  0  0  0  0  0  0
  -11.0739    6.1425   21.4342 C   0  0  1  0  0  0  0  0  0  0  0  0
   -9.7556    6.1391   21.9621 O   0  0  0  0  0  0  0  0  0  0  0  0
   -8.6832    5.9133   21.0893 C   0  0  2  0  0  0  0  0  0  0  0  0
   -7.6236    5.1026   21.8594 C   0  0  2  0  0  0  0  0  0  0  0  0
   -8.1839    3.8671   22.2496 O   0  0  0  0  0  0  0  0  0  0  0  0
   -7.1590    5.9235   23.1105 C   0  0  1  0  0  0  0  0  0  0  0  0
   -6.1557    5.1963   23.9258 N   0  3  0  0  0  0  0  0  0  0  0  0
   -6.6818    4.9223   25.2875 C   0  0  0  0  0  0  0  0  0  0  0  0
   -6.5694    7.2960   22.6358 C   0  0  2  0  0  0  0  0  0  0  0  0
   -5.4403    7.0712   21.7708 O   0  0  0  0  0  0  0  0  0  0  0  0
   -6.1130    8.1081   23.7491 C   0  0  0  0  0  0  0  0  0  0  0  0
   -7.6243    8.0653   21.7822 C   0  0  0  0  0  0  0  0  0  0  0  0
   -8.1213    7.2051   20.6590 O   0  0  0  0  0  0  0  0  0  0  0  0
  1  2  1  1  0  0  0
  1  3  1  0  0  0  0
  1 10  1  0  0  0  0
  3  4  1  1  0  0  0
  3  5  1  0  0  0  0
  5  6  1  6  0  0  0
  5  7  1  0  0  0  0
  7  8  1  1  0  0  0
  7  9  1  0  0  0  0
  9 10  1  6  0  0  0
  9 11  1  0  0  0  0
 11 12  1  1  0  0  0
 11 13  1  0  0  0  0
 14 15  1  6  0  0  0
 14 16  1  0  0  0  0
 14 22  1  0  0  0  0
 16 17  1  0  0  0  0
 17 18  1  6  0  0  0
 17 19  1  0  0  0  0
 19  2  1  1  0  0  0
 19 20  1  0  0  0  0
 20 21  1  6  0  0  0
 20 22  1  0  0  0  0
 22 23  1  1  0  0  0
 24 23  1  1  0  0  0
 24 25  1  0  0  0  0
 24 34  1  0  0  0  0
 25 26  1  1  0  0  0
 25 27  1  0  0  0  0
 27 28  1  6  0  0  0
 27 30  1  0  0  0  0
 28 29  1  0  0  0  0
 30 31  1  6  0  0  0
 30 32  1  0  0  0  0
 30 33  1  0  0  0  0
 33 34  1  0  0  0  0
M  CHG  4   4   1  15   1  18   1  28   1
M  END
>  <CHROM.1>
-173.00528457,177.72236369,-173.33774196,63.25639235,-55.98835698,175.85481955
175.72536775,-49.10131012,-176.76340430,-179.02668748,146.91640485,-144.53294667
59.97214780,2.81474051,169.44068692,-11.18944738,7.76540303,20.50737276,-2.43139255
0.24597469,2.54188885

>  <Name>
1mwl

>  <RI>
0

>  <Rbt.Current_Directory>
/home/itssahil/PROJECTS/Mol_Feturizer/New_Systems/rnas/1mwl

>  <Rbt.Executable>
rbdock ($Id: //depot/dev/client3/rdock/2013.1/src/exe/rbdock.cxx#4 $)

>  <Rbt.Library>
libRbt.so (2013.1, Build901 2013/11/27)

>  <Rbt.Parameter_File>
/export/apps/rDock/src/rDock_2013.1_src/data/scripts/dock_solv.prm

>  <Rbt.Receptor>
prm/pocket_docking_5.prm

>  <SCORE>
-44.2663

>  <SCORE.INTER>
-26.4335

>  <SCORE.INTER.CONST>
1

>  <SCORE.INTER.POLAR>
-2.56495

>  <SCORE.INTER.ROT>
6

>  <SCORE.INTER.SOLV>
18.8704

>  <SCORE.INTER.VDW>
-22.9626

>  <SCORE.INTER.norm>
-0.777456

>  <SCORE.INTRA>
-17.8328

>  <SCORE.INTRA.DIHEDRAL>
-28.2303

>  <SCORE.INTRA.DIHEDRAL.0>
42.0816

>  <SCORE.INTRA.POLAR>
-0.300691

>  <SCORE.INTRA.POLAR.0>
-0.254682

>  <SCORE.INTRA.REPUL>
0

>  <SCORE.INTRA.REPUL.0>
0

>  <SCORE.INTRA.SOLV>
-3.63651

>  <SCORE.INTRA.SOLV.lig_0>
-109.803

>  <SCORE.INTRA.VDW>
-0.877059

>  <SCORE.INTRA.VDW.0>
0.32176

>  <SCORE.INTRA.norm>
-0.524495

>  <SCORE.RESTR>
0

>  <SCORE.RESTR.CAVITY>
0

>  <SCORE.RESTR.norm>
0

>  <SCORE.SYSTEM>
0

>  <SCORE.SYSTEM.CONST>
0

>  <SCORE.SYSTEM.DIHEDRAL>
0

>  <SCORE.SYSTEM.SOLV>
0

>  <SCORE.SYSTEM.norm>
0

>  <SCORE.heavy>
34

>  <SCORE.norm>
-1.30195

>  <RMSD>
8.836

$$$$
1mwl
 OpenBabel11021811403D
libRbt.so/2013.1/901 2013/11/27
 34 36  0  0  0  0  0  0  0  0999 V2000
  -11.6683    3.7599   14.1998 C   0  0  2  0  0  0  0  0  0  0  0  0
  -12.3876    4.9403   14.3945 O   0  0  0  0  0  0  0  0  0  0  0  0
  -10.1670    4.1445   14.0778 C   0  0  2  0  0  0  0  0  0  0  0  0
   -9.7237    4.8408   15.2895 N   0  3  0  0  0  0  0  0  0  0  0  0
   -9.9229    5.0057   12.8041 C   0  0  1  0  0  0  0  0  0  0  0  0
   -8.6104    5.3239   12.6771 O   0  0  0  0  0  0  0  0  0  0  0  0
  -10.4246    4.2054   11.5570 C   0  0  2  0  0  0  0  0  0  0  0  0
  -10.2043    4.9717   10.3543 O   0  0  0  0  0  0  0  0  0  0  0  0
  -11.9451    3.8850   11.7557 C   0  0  2  0  0  0  0  0  0  0  0  0
  -12.1479    3.1059   12.9972 O   0  0  0  0  0  0  0  0  0  0  0  0
  -12.5827    3.0779   10.6191 C   0  0  2  0  0  0  0  0  0  0  0  0
  -13.9483    2.9480   10.8458 O   0  0  0  0  0  0  0  0  0  0  0  0
  -12.0286    1.6470   10.4927 C   0  0  0  0  0  0  0  0  0  0  0  0
  -14.4127    6.6667   17.7378 C   0  0  2  0  0  0  0  0  0  0  0  0
  -15.3979    6.8723   18.8299 N   0  3  0  0  0  0  0  0  0  0  0  0
  -15.1142    6.7104   16.3479 C   0  0  0  0  0  0  0  0  0  0  0  0
  -14.0664    6.4736   15.2006 C   0  0  2  0  0  0  0  0  0  0  0  0
  -14.7727    6.5308   13.8685 N   0  3  0  0  0  0  0  0  0  0  0  0
  -13.3580    5.0932   15.4224 C   0  0  2  0  0  0  0  0  0  0  0  0
  -12.6640    5.0843   16.8064 C   0  0  2  0  0  0  0  0  0  0  0  0
  -12.0609    3.8291   17.0085 O   0  0  0  0  0  0  0  0  0  0  0  0
  -13.7140    5.3036   17.9284 C   0  0  1  0  0  0  0  0  0  0  0  0
  -13.0567    5.2892   19.1870 O   0  0  0  0  0  0  0  0  0  0  0  0
  -13.7607    4.8285   20.3072 C   0  0  2  0  0  0  0  0  0  0  0  0
  -12.9125    5.1528   21.5515 C   0  0  2  0  0  0  0  0  0  0  0  0
  -12.7439    6.5514   21.6413 O   0  0  0  0  0  0  0  0  0  0  0  0
  -11.5269    4.4314   21.4301 C   0  0  1  0  0  0  0  0  0  0  0  0
  -10.6352    4.7180   22.5802 N   0  3  0  0  0  0  0  0  0  0  0  0
   -9.2502    4.9906   22.1181 C   0  0  0  0  0  0  0  0  0  0  0  0
  -11.7601    2.8863   21.3058 C   0  0  2  0  0  0  0  0  0  0  0  0
  -12.4470    2.3991   22.4738 O   0  0  0  0  0  0  0  0  0  0  0  0
  -10.5120    2.1534   21.1946 C   0  0  0  0  0  0  0  0  0  0  0  0
  -12.6936    2.5817   20.0939 C   0  0  0  0  0  0  0  0  0  0  0  0
  -13.9629    3.3738   20.1947 O   0  0  0  0  0  0  0  0  0  0  0  0
  1  2  1  6  0  0  0
  1  3  1  0  0  0  0
  1 10  1  0  0  0  0
  3  4  1  1  0  0  0
  3  5  1  0  0  0  0
  5  6  1  6  0  0  0
  5  7  1  0  0  0  0
  7  8  1  6  0  0  0
  7  9  1  0  0  0  0
  9 10  1  1  0  0  0
  9 11  1  0  0  0  0
 11 12  1  1  0  0  0
 11 13  1  0  0  0  0
 14 15  1  1  0  0  0
 14 16  1  0  0  0  0
 14 22  1  0  0  0  0
 16 17  1  0  0  0  0
 17 18  1  6  0  0  0
 17 19  1  0  0  0  0
 19  2  1  6  0  0  0
 19 20  1  0  0  0  0
 20 21  1  1  0  0  0
 20 22  1  0  0  0  0
 22 23  1  1  0  0  0
 24 23  1  6  0  0  0
 24 25  1  0  0  0  0
 24 34  1  0  0  0  0
 25 26  1  6  0  0  0
 25 27  1  0  0  0  0
 27 28  1  1  0  0  0
 27 30  1  0  0  0  0
 28 29  1  0  0  0  0
 30 31  1  1  0  0  0
 30 32  1  0  0  0  0
 30 33  1  0  0  0  0
 33 34  1  0  0  0  0
M  CHG  4   4   1  15   1  18   1  28   1
M  END
>  <CHROM.1>
-131.09722514,-172.88851388,153.76381393,-176.77116840,-176.81985741,-175.11013917
66.00207633,-165.30256057,-164.67796613,-58.99483084,90.31153258,-170.18532468
63.58476092,-16.67537394,-63.82794391,-12.24863761,4.53207654,16.62557243
-1.49724890,-0.47242805,1.56906264

>  <Name>
1mwl

>  <RI>
0

>  <Rbt.Current_Directory>
/home/itssahil/PROJECTS/Mol_Feturizer/New_Systems/rnas/1mwl

>  <Rbt.Executable>
rbdock ($Id: //depot/dev/client3/rdock/2013.1/src/exe/rbdock.cxx#4 $)

>  <Rbt.Library>
libRbt.so (2013.1, Build901 2013/11/27)

>  <Rbt.Parameter_File>
/export/apps/rDock/src/rDock_2013.1_src/data/scripts/dock_solv.prm

>  <Rbt.Receptor>
prm/pocket_docking_7.prm

>  <SCORE>
-41.6939

>  <SCORE.INTER>
-23.0268

>  <SCORE.INTER.CONST>
1

>  <SCORE.INTER.POLAR>
-3.90293

>  <SCORE.INTER.ROT>
6

>  <SCORE.INTER.SOLV>
10.658

>  <SCORE.INTER.VDW>
-13.4941

>  <SCORE.INTER.norm>
-0.677259

>  <SCORE.INTRA>
-18.6671

>  <SCORE.INTRA.DIHEDRAL>
-25.1031

>  <SCORE.INTRA.DIHEDRAL.0>
42.0816

>  <SCORE.INTRA.POLAR>
-0.895523

>  <SCORE.INTRA.POLAR.0>
-0.254682

>  <SCORE.INTRA.REPUL>
0

>  <SCORE.INTRA.REPUL.0>
0

>  <SCORE.INTRA.SOLV>
-0.383248

>  <SCORE.INTRA.SOLV.lig_0>
-109.803

>  <SCORE.INTRA.VDW>
-2.87917

>  <SCORE.INTRA.VDW.0>
0.32176

>  <SCORE.INTRA.norm>
-0.549033

>  <SCORE.RESTR>
0

>  <SCORE.RESTR.CAVITY>
0

>  <SCORE.RESTR.norm>
0

>  <SCORE.SYSTEM>
0

>  <SCORE.SYSTEM.CONST>
0

>  <SCORE.SYSTEM.DIHEDRAL>
0

>  <SCORE.SYSTEM.SOLV>
0

>  <SCORE.SYSTEM.norm>
0

>  <SCORE.heavy>
34

>  <SCORE.norm>
-1.22629

>  <RMSD>
8.837

$$$$
1mwl
 OpenBabel11021811403D
libRbt.so/2013.1/901 2013/11/27
 34 36  0  0  0  0  0  0  0  0999 V2000
  -15.5430    9.6849   16.0854 C   0  0  2  0  0  0  0  0  0  0  0  0
  -15.2128    9.2340   17.3646 O   0  0  0  0  0  0  0  0  0  0  0  0
  -16.8896    9.0165   15.6894 C   0  0  2  0  0  0  0  0  0  0  0  0
  -17.9318    9.3663   16.6594 N   0  3  0  0  0  0  0  0  0  0  0  0
  -16.7209    7.4738   15.5657 C   0  0  1  0  0  0  0  0  0  0  0  0
  -17.8860    6.8860   15.1954 O   0  0  0  0  0  0  0  0  0  0  0  0
  -15.5924    7.1772   14.5237 C   0  0  2  0  0  0  0  0  0  0  0  0
  -15.4154    5.7528   14.3761 O   0  0  0  0  0  0  0  0  0  0  0  0
  -14.2739    7.8654   15.0155 C   0  0  2  0  0  0  0  0  0  0  0  0
  -14.4806    9.3227   15.1666 O   0  0  0  0  0  0  0  0  0  0  0  0
  -13.0713    7.6847   14.0822 C   0  0  2  0  0  0  0  0  0  0  0  0
  -12.0312    8.5108   14.4933 O   0  0  0  0  0  0  0  0  0  0  0  0
  -13.3656    8.0582   12.6179 C   0  0  0  0  0  0  0  0  0  0  0  0
  -12.5434   10.2108   20.5551 C   0  0  2  0  0  0  0  0  0  0  0  0
  -11.3049   10.5795   21.2869 N   0  3  0  0  0  0  0  0  0  0  0  0
  -12.3768    8.8319   19.8502 C   0  0  0  0  0  0  0  0  0  0  0  0
  -13.6857    8.4598   19.0639 C   0  0  2  0  0  0  0  0  0  0  0  0
  -13.4976    7.1176   18.4007 N   0  3  0  0  0  0  0  0  0  0  0  0
  -13.9996    9.5842   18.0181 C   0  0  2  0  0  0  0  0  0  0  0  0
  -14.1680   10.9385   18.7494 C   0  0  2  0  0  0  0  0  0  0  0  0
  -14.4155   11.9453   17.7980 O   0  0  0  0  0  0  0  0  0  0  0  0
  -12.8623   11.2986   19.5074 C   0  0  1  0  0  0  0  0  0  0  0  0
  -13.0384   12.5435   20.1676 O   0  0  0  0  0  0  0  0  0  0  0  0
  -12.7917   13.7232   19.4535 C   0  0  2  0  0  0  0  0  0  0  0  0
  -12.4409   14.8187   20.4781 C   0  0  2  0  0  0  0  0  0  0  0  0
  -11.2761   14.4374   21.1784 O   0  0  0  0  0  0  0  0  0  0  0  0
  -13.6460   15.0058   21.4618 C   0  0  1  0  0  0  0  0  0  0  0  0
  -13.3756   16.0273   22.5028 N   0  3  0  0  0  0  0  0  0  0  0  0
  -12.9400   15.3862   23.7698 C   0  0  0  0  0  0  0  0  0  0  0  0
  -14.9226   15.4015   20.6428 C   0  0  2  0  0  0  0  0  0  0  0  0
  -14.6897   16.6359   19.9388 O   0  0  0  0  0  0  0  0  0  0  0  0
  -16.0801   15.5964   21.4968 C   0  0  0  0  0  0  0  0  0  0  0  0
  -15.2123   14.3263   19.5505 C   0  0  0  0  0  0  0  0  0  0  0  0
  -13.9989   14.1007   18.6987 O   0  0  0  0  0  0  0  0  0  0  0  0
  1  2  1  1  0  0  0
  1  3  1  0  0  0  0
  1 10  1  0  0  0  0
  3  4  1  1  0  0  0
  3  5  1  0  0  0  0
  5  6  1  6  0  0  0
  5  7  1  0  0  0  0
  7  8  1  1  0  0  0
  7  9  1  0  0  0  0
  9 10  1  6  0  0  0
  9 11  1  0  0  0  0
 11 12  1  1  0  0  0
 11 13  1  0  0  0  0
 14 15  1  6  0  0  0
 14 16  1  0  0  0  0
 14 22  1  0  0  0  0
 16 17  1  0  0  0  0
 17 18  1  6  0  0  0
 17 19  1  0  0  0  0
 19  2  1  1  0  0  0
 19 20  1  0  0  0  0
 20 21  1  6  0  0  0
 20 22  1  0  0  0  0
 22 23  1  1  0  0  0
 24 23  1  1  0  0  0
 24 25  1  0  0  0  0
 24 34  1  0  0  0  0
 25 26  1  1  0  0  0
 25 27  1  0  0  0  0
 27 28  1  1  0  0  0
 27 30  1  0  0  0  0
 28 29  1  0  0  0  0
 30 31  1  6  0  0  0
 30 32  1  0  0  0  0
 30 33  1  0  0  0  0
 33 34  1  0  0  0  0
M  CHG  4   4   1  15   1  18   1  28   1
M  END
>  <CHROM.1>
176.39594240,-155.24990520,-57.77888444,84.78111552,63.22844241,170.09155951
-42.68959706,-32.58337210,-173.01938783,-54.32023806,154.11249437,-155.30501514
176.23650184,21.83736046,67.51477471,-14.16562162,10.97086695,18.20930854
1.76876512,0.50270250,-2.53146211

>  <Name>
1mwl

>  <RI>
0

>  <Rbt.Current_Directory>
/home/itssahil/PROJECTS/Mol_Feturizer/New_Systems/rnas/1mwl

>  <Rbt.Executable>
rbdock ($Id: //depot/dev/client3/rdock/2013.1/src/exe/rbdock.cxx#4 $)

>  <Rbt.Library>
libRbt.so (2013.1, Build901 2013/11/27)

>  <Rbt.Parameter_File>
/export/apps/rDock/src/rDock_2013.1_src/data/scripts/dock_solv.prm

>  <Rbt.Receptor>
prm/blind_docking_80.prm

>  <SCORE>
-22.4697

>  <SCORE.INTER>
-24.8691

>  <SCORE.INTER.CONST>
1

>  <SCORE.INTER.POLAR>
-4.928

>  <SCORE.INTER.ROT>
6

>  <SCORE.INTER.SOLV>
23.276

>  <SCORE.INTER.VDW>
-15.5114

>  <SCORE.INTER.norm>
-0.731444

>  <SCORE.INTRA>
-14.7156

>  <SCORE.INTRA.DIHEDRAL>
-24.6708

>  <SCORE.INTRA.DIHEDRAL.0>
42.0816

>  <SCORE.INTRA.POLAR>
0.0347085

>  <SCORE.INTRA.POLAR.0>
-0.254682

>  <SCORE.INTRA.REPUL>
0

>  <SCORE.INTRA.REPUL.0>
0

>  <SCORE.INTRA.SOLV>
-2.28267

>  <SCORE.INTRA.SOLV.lig_0>
-109.803

>  <SCORE.INTRA.VDW>
-1.3569

>  <SCORE.INTRA.VDW.0>
0.32176

>  <SCORE.INTRA.norm>
-0.432813

>  <SCORE.RESTR>
17.115

>  <SCORE.RESTR.CAVITY>
17.115

>  <SCORE.RESTR.norm>
0.503383

>  <SCORE.SYSTEM>
0

>  <SCORE.SYSTEM.CONST>
0

>  <SCORE.SYSTEM.DIHEDRAL>
0

>  <SCORE.SYSTEM.SOLV>
0

>  <SCORE.SYSTEM.norm>
0

>  <SCORE.heavy>
34

>  <SCORE.norm>
-0.660874

>  <RMSD>
8.839

$$$$
1mwl
 OpenBabel11021811403D
libRbt.so/2013.1/901 2013/11/27
 34 36  0  0  0  0  0  0  0  0999 V2000
   -7.0164    5.4173   14.5209 C   0  0  2  0  0  0  0  0  0  0  0  0
   -8.3394    5.8527   14.4267 O   0  0  0  0  0  0  0  0  0  0  0  0
   -6.1513    6.3637   13.6418 C   0  0  2  0  0  0  0  0  0  0  0  0
   -6.2873    7.7482   14.1048 N   0  3  0  0  0  0  0  0  0  0  0  0
   -6.5386    6.2243   12.1404 C   0  0  1  0  0  0  0  0  0  0  0  0
   -5.7702    7.0286   11.3639 O   0  0  0  0  0  0  0  0  0  0  0  0
   -6.3768    4.7260   11.7205 C   0  0  2  0  0  0  0  0  0  0  0  0
   -6.7188    4.5613   10.3283 O   0  0  0  0  0  0  0  0  0  0  0  0
   -7.2991    3.8542   12.6388 C   0  0  2  0  0  0  0  0  0  0  0  0
   -6.9356    4.0442   14.0604 O   0  0  0  0  0  0  0  0  0  0  0  0
   -7.2347    2.3474   12.3644 C   0  0  2  0  0  0  0  0  0  0  0  0
   -7.8539    2.0652   11.1519 O   0  0  0  0  0  0  0  0  0  0  0  0
   -7.9560    1.4961   13.4253 C   0  0  0  0  0  0  0  0  0  0  0  0
  -12.1514    4.4764   15.7810 C   0  0  2  0  0  0  0  0  0  0  0  0
  -13.3371    3.6075   15.9915 N   0  3  0  0  0  0  0  0  0  0  0  0
  -11.9879    4.8291   14.2727 C   0  0  0  0  0  0  0  0  0  0  0  0
  -10.7204    5.7333   14.0584 C   0  0  2  0  0  0  0  0  0  0  0  0
  -10.5940    6.0654   12.5920 N   0  3  0  0  0  0  0  0  0  0  0  0
   -9.4525    4.9840   14.5946 C   0  0  2  0  0  0  0  0  0  0  0  0
   -9.6418    4.6556   16.0957 C   0  0  2  0  0  0  0  0  0  0  0  0
   -8.5128    3.9537   16.5570 O   0  0  0  0  0  0  0  0  0  0  0  0
  -10.8875    3.7498   16.2882 C   0  0  1  0  0  0  0  0  0  0  0  0
  -11.0401    3.4596   17.6698 O   0  0  0  0  0  0  0  0  0  0  0  0
  -10.2038    2.4973   18.2504 C   0  0  2  0  0  0  0  0  0  0  0  0
  -11.1023    1.3649   18.7824 C   0  0  2  0  0  0  0  0  0  0  0  0
  -11.8059    0.7900   17.7021 O   0  0  0  0  0  0  0  0  0  0  0  0
  -12.0941    1.9525   19.8435 C   0  0  1  0  0  0  0  0  0  0  0  0
  -13.0186    0.9270   20.3855 N   0  3  0  0  0  0  0  0  0  0  0  0
  -14.2003    0.7625   19.5010 C   0  0  0  0  0  0  0  0  0  0  0  0
  -11.2739    2.6034   21.0100 C   0  0  2  0  0  0  0  0  0  0  0  0
  -10.4425    1.6096   21.6381 O   0  0  0  0  0  0  0  0  0  0  0  0
  -12.1347    3.1653   22.0349 C   0  0  0  0  0  0  0  0  0  0  0  0
  -10.3044    3.6861   20.4434 C   0  0  0  0  0  0  0  0  0  0  0  0
   -9.4474    3.1086   19.3567 O   0  0  0  0  0  0  0  0  0  0  0  0
  1  2  1  6  0  0  0
  1  3  1  0  0  0  0
  1 10  1  0  0  0  0
  3  4  1  1  0  0  0
  3  5  1  0  0  0  0
  5  6  1  6  0  0  0
  5  7  1  0  0  0  0
  7  8  1  6  0  0  0
  7  9  1  0  0  0  0
  9 10  1  1  0  0  0
  9 11  1  0  0  0  0
 11 12  1  6  0  0  0
 11 13  1  0  0  0  0
 14 15  1  6  0  0  0
 14 16  1  0  0  0  0
 14 22  1  0  0  0  0
 16 17  1  0  0  0  0
 17 18  1  6  0  0  0
 17 19  1  0  0  0  0
 19  2  1  1  0  0  0
 19 20  1  0  0  0  0
 20 21  1  6  0  0  0
 20 22  1  0  0  0  0
 22 23  1  1  0  0  0
 24 23  1  1  0  0  0
 24 25  1  0  0  0  0
 24 34  1  0  0  0  0
 25 26  1  6  0  0  0
 25 27  1  0  0  0  0
 27 28  1  1  0  0  0
 27 30  1  0  0  0  0
 28 29  1  0  0  0  0
 30 31  1  1  0  0  0
 30 32  1  0  0  0  0
 30 33  1  0  0  0  0
 33 34  1  0  0  0  0
M  CHG  4   4   1  15   1  18   1  28   1
M  END
>  <CHROM.1>
152.67529238,-165.58697218,-160.59868737,-89.22016337,-31.83491615,-71.13481310
-55.39636776,59.57391140,159.59082756,168.49632821,162.60351786,-118.94571055
62.09214303,35.11370967,-163.07328821,-9.55237736,3.81339733,15.82435118
-0.86751171,0.68190931,1.47304004

>  <Name>
1mwl

>  <RI>
0

>  <Rbt.Current_Directory>
/home/itssahil/PROJECTS/Mol_Feturizer/New_Systems/rnas/1mwl

>  <Rbt.Executable>
rbdock ($Id: //depot/dev/client3/rdock/2013.1/src/exe/rbdock.cxx#4 $)

>  <Rbt.Library>
libRbt.so (2013.1, Build901 2013/11/27)

>  <Rbt.Parameter_File>
/export/apps/rDock/src/rDock_2013.1_src/data/scripts/dock_solv.prm

>  <Rbt.Receptor>
prm/pocket_docking_8.prm

>  <SCORE>
-44.1832

>  <SCORE.INTER>
-32.1909

>  <SCORE.INTER.CONST>
1

>  <SCORE.INTER.POLAR>
-5.35586

>  <SCORE.INTER.ROT>
6

>  <SCORE.INTER.SOLV>
17.052

>  <SCORE.INTER.VDW>
-16.8917

>  <SCORE.INTER.norm>
-0.946791

>  <SCORE.INTRA>
-12.157

>  <SCORE.INTRA.DIHEDRAL>
-16.8641

>  <SCORE.INTRA.DIHEDRAL.0>
42.0816

>  <SCORE.INTRA.POLAR>
-0.667303

>  <SCORE.INTRA.POLAR.0>
-0.254682

>  <SCORE.INTRA.REPUL>
0

>  <SCORE.INTRA.REPUL.0>
0

>  <SCORE.INTRA.SOLV>
-2.15993

>  <SCORE.INTRA.SOLV.lig_0>
-109.803

>  <SCORE.INTRA.VDW>
-0.376127

>  <SCORE.INTRA.VDW.0>
0.32176

>  <SCORE.INTRA.norm>
-0.357558

>  <SCORE.RESTR>
0.164668

>  <SCORE.RESTR.CAVITY>
0.164668

>  <SCORE.RESTR.norm>
0.00484318

>  <SCORE.SYSTEM>
0

>  <SCORE.SYSTEM.CONST>
0

>  <SCORE.SYSTEM.DIHEDRAL>
0

>  <SCORE.SYSTEM.SOLV>
0

>  <SCORE.SYSTEM.norm>
0

>  <SCORE.heavy>
34

>  <SCORE.norm>
-1.29951

>  <RMSD>
8.840

$$$$
1mwl
 OpenBabel11021811403D
libRbt.so/2013.1/901 2013/11/27
 34 36  0  0  0  0  0  0  0  0999 V2000
  -11.3665    9.8172   21.4561 C   0  0  2  0  0  0  0  0  0  0  0  0
  -11.2418    9.3282   20.1545 O   0  0  0  0  0  0  0  0  0  0  0  0
  -12.6171    9.1441   22.0883 C   0  0  2  0  0  0  0  0  0  0  0  0
  -12.4632    7.6861   22.0831 N   0  3  0  0  0  0  0  0  0  0  0  0
  -13.9119    9.5830   21.3437 C   0  0  1  0  0  0  0  0  0  0  0  0
  -15.0103    9.0196   21.9060 O   0  0  0  0  0  0  0  0  0  0  0  0
  -14.0053   11.1442   21.3834 C   0  0  2  0  0  0  0  0  0  0  0  0
  -15.2019   11.5868   20.7092 O   0  0  0  0  0  0  0  0  0  0  0  0
  -12.7212   11.7324   20.7060 C   0  0  2  0  0  0  0  0  0  0  0  0
  -11.5076   11.2600   21.4085 O   0  0  0  0  0  0  0  0  0  0  0  0
  -12.6522   13.2636   20.6869 C   0  0  2  0  0  0  0  0  0  0  0  0
  -12.8250   13.7241   19.3864 O   0  0  0  0  0  0  0  0  0  0  0  0
  -11.3020   13.8261   21.1675 C   0  0  0  0  0  0  0  0  0  0  0  0
   -9.5584    5.4039   19.9947 C   0  0  2  0  0  0  0  0  0  0  0  0
   -8.6481    4.2788   19.6620 N   0  3  0  0  0  0  0  0  0  0  0  0
  -10.2224    5.9745   18.7065 C   0  0  0  0  0  0  0  0  0  0  0  0
  -11.1691    7.1760   19.0674 C   0  0  2  0  0  0  0  0  0  0  0  0
  -11.8037    7.7005   17.8030 N   0  3  0  0  0  0  0  0  0  0  0  0
  -10.3418    8.2847   19.8040 C   0  0  2  0  0  0  0  0  0  0  0  0
   -9.7026    7.6898   21.0825 C   0  0  2  0  0  0  0  0  0  0  0  0
   -8.9353    8.6844   21.7166 O   0  0  0  0  0  0  0  0  0  0  0  0
   -8.7592    6.5156   20.7075 C   0  0  1  0  0  0  0  0  0  0  0  0
   -8.1831    5.9877   21.8932 O   0  0  0  0  0  0  0  0  0  0  0  0
   -6.9453    5.3372   21.8065 C   0  0  2  0  0  0  0  0  0  0  0  0
   -6.5067    4.9857   23.2407 C   0  0  2  0  0  0  0  0  0  0  0  0
   -7.4594    4.1152   23.8127 O   0  0  0  0  0  0  0  0  0  0  0  0
   -6.3843    6.3047   24.0775 C   0  0  1  0  0  0  0  0  0  0  0  0
   -5.9928    6.0495   25.4852 N   0  3  0  0  0  0  0  0  0  0  0  0
   -7.0019    5.1992   26.1670 C   0  0  0  0  0  0  0  0  0  0  0  0
   -5.3388    7.2523   23.3948 C   0  0  2  0  0  0  0  0  0  0  0  0
   -4.0536    6.6052   23.3400 O   0  0  0  0  0  0  0  0  0  0  0  0
   -5.1717    8.4962   24.1244 C   0  0  0  0  0  0  0  0  0  0  0  0
   -5.7507    7.5266   21.9156 C   0  0  0  0  0  0  0  0  0  0  0  0
   -5.9617    6.2369   21.1800 O   0  0  0  0  0  0  0  0  0  0  0  0
  1  2  1  6  0  0  0
  1  3  1  0  0  0  0
  1 10  1  0  0  0  0
  3  4  1  6  0  0  0
  3  5  1  0  0  0  0
  5  6  1  1  0  0  0
  5  7  1  0  0  0  0
  7  8  1  6  0  0  0
  7  9  1  0  0  0  0
  9 10  1  1  0  0  0
  9 11  1  0  0  0  0
 11 12  1  6  0  0  0
 11 13  1  0  0  0  0
 14 15  1  6  0  0  0
 14 16  1  0  0  0  0
 14 22  1  0  0  0  0
 16 17  1  0  0  0  0
 17 18  1  6  0  0  0
 17 19  1  0  0  0  0
 19  2  1  1  0  0  0
 19 20  1  0  0  0  0
 20 21  1  6  0  0  0
 20 22  1  0  0  0  0
 22 23  1  1  0  0  0
 24 23  1  1  0  0  0
 24 25  1  0  0  0  0
 24 34  1  0  0  0  0
 25 26  1  1  0  0  0
 25 27  1  0  0  0  0
 27 28  1  1  0  0  0
 27 30  1  0  0  0  0
 28 29  1  0  0  0  0
 30 31  1  6  0  0  0
 30 32  1  0  0  0  0
 30 33  1  0  0  0  0
 33 34  1  0  0  0  0
M  CHG  4   4   1  15   1  18   1  28   1
M  END
>  <CHROM.1>
-99.26984979,126.42535178,62.74505765,63.09018970,66.38858950,-109.55295302
63.87281388,-47.88469029,62.42283973,-45.22200866,85.65877730,174.97485023
-52.18999092,59.52607270,167.67666391,-9.74280968,8.14302759,21.57287508
-2.72863469,0.58771472,-2.69621938

>  <Name>
1mwl

>  <RI>
0

>  <Rbt.Current_Directory>
/home/itssahil/PROJECTS/Mol_Feturizer/New_Systems/rnas/1mwl

>  <Rbt.Executable>
rbdock ($Id: //depot/dev/client3/rdock/2013.1/src/exe/rbdock.cxx#4 $)

>  <Rbt.Library>
libRbt.so (2013.1, Build901 2013/11/27)

>  <Rbt.Parameter_File>
/export/apps/rDock/src/rDock_2013.1_src/data/scripts/dock_solv.prm

>  <Rbt.Receptor>
prm/blind_docking_100.prm

>  <SCORE>
-13.5622

>  <SCORE.INTER>
-17.4081

>  <SCORE.INTER.CONST>
1

>  <SCORE.INTER.POLAR>
-1.72433

>  <SCORE.INTER.ROT>
6

>  <SCORE.INTER.SOLV>
22.2102

>  <SCORE.INTER.VDW>
-20.8611

>  <SCORE.INTER.norm>
-0.512003

>  <SCORE.INTRA>
-3.28631

>  <SCORE.INTRA.DIHEDRAL>
-19.2271

>  <SCORE.INTRA.DIHEDRAL.0>
42.0816

>  <SCORE.INTRA.POLAR>
0.223271

>  <SCORE.INTRA.POLAR.0>
-0.254682

>  <SCORE.INTRA.REPUL>
0

>  <SCORE.INTRA.REPUL.0>
0

>  <SCORE.INTRA.SOLV>
0.984198

>  <SCORE.INTRA.SOLV.lig_0>
-109.803

>  <SCORE.INTRA.VDW>
5.07599

>  <SCORE.INTRA.VDW.0>
0.32176

>  <SCORE.INTRA.norm>
-0.0966562

>  <SCORE.RESTR>
7.13222

>  <SCORE.RESTR.CAVITY>
7.13222

>  <SCORE.RESTR.norm>
0.209771

>  <SCORE.SYSTEM>
0

>  <SCORE.SYSTEM.CONST>
0

>  <SCORE.SYSTEM.DIHEDRAL>
0

>  <SCORE.SYSTEM.SOLV>
0

>  <SCORE.SYSTEM.norm>
0

>  <SCORE.heavy>
34

>  <SCORE.norm>
-0.398888

>  <RMSD>
8.842

$$$$
1mwl
 OpenBabel11021811403D
libRbt.so/2013.1/901 2013/11/27
 34 36  0  0  0  0  0  0  0  0999 V2000
  -12.1342    8.6022   22.0583 C   0  0  2  0  0  0  0  0  0  0  0  0
  -12.2807    7.6457   21.0522 O   0  0  0  0  0  0  0  0  0  0  0  0
  -13.5049    8.7319   22.7804 C   0  0  2  0  0  0  0  0  0  0  0  0
  -13.9078    7.4364   23.3361 N   0  3  0  0  0  0  0  0  0  0  0  0
  -14.5843    9.2967   21.8111 C   0  0  1  0  0  0  0  0  0  0  0  0
  -15.7774    9.4368   22.4413 O   0  0  0  0  0  0  0  0  0  0  0  0
  -14.0848   10.6705   21.2539 C   0  0  2  0  0  0  0  0  0  0  0  0
  -15.0677   11.2291   20.3572 O   0  0  0  0  0  0  0  0  0  0  0  0
  -12.7175   10.4393   20.5251 C   0  0  2  0  0  0  0  0  0  0  0  0
  -11.7283    9.8600   21.4607 O   0  0  0  0  0  0  0  0  0  0  0  0
  -12.0824   11.7056   19.9397 C   0  0  2  0  0  0  0  0  0  0  0  0
  -10.7732   11.4382   19.5553 O   0  0  0  0  0  0  0  0  0  0  0  0
  -12.0082   12.8760   20.9372 C   0  0  0  0  0  0  0  0  0  0  0  0
  -10.1209    4.1747   22.2961 C   0  0  2  0  0  0  0  0  0  0  0  0
   -9.2607    2.9650   22.2513 N   0  3  0  0  0  0  0  0  0  0  0  0
  -11.3955    3.9766   21.4232 C   0  0  0  0  0  0  0  0  0  0  0  0
  -12.2896    5.2686   21.4625 C   0  0  2  0  0  0  0  0  0  0  0  0
  -13.5189    5.0433   20.6170 N   0  3  0  0  0  0  0  0  0  0  0  0
  -11.4535    6.4933   20.9553 C   0  0  2  0  0  0  0  0  0  0  0  0
  -10.2001    6.6690   21.8470 C   0  0  2  0  0  0  0  0  0  0  0  0
   -9.4403    7.7494   21.3617 O   0  0  0  0  0  0  0  0  0  0  0  0
   -9.3206    5.3915   21.7846 C   0  0  1  0  0  0  0  0  0  0  0  0
   -8.1773    5.5757   22.6064 O   0  0  0  0  0  0  0  0  0  0  0  0
   -6.9110    5.5661   22.0073 C   0  0  2  0  0  0  0  0  0  0  0  0
   -5.8650    5.6037   23.1376 C   0  0  2  0  0  0  0  0  0  0  0  0
   -6.0160    4.4539   23.9424 O   0  0  0  0  0  0  0  0  0  0  0  0
   -6.0702    6.9066   23.9834 C   0  0  1  0  0  0  0  0  0  0  0  0
   -5.1167    7.0045   25.1153 N   0  3  0  0  0  0  0  0  0  0  0  0
   -5.8398    7.0369   26.4123 C   0  0  0  0  0  0  0  0  0  0  0  0
   -5.9211    8.1560   23.0487 C   0  0  2  0  0  0  0  0  0  0  0  0
   -4.6064    8.1746   22.4617 O   0  0  0  0  0  0  0  0  0  0  0  0
   -6.0951    9.4025   23.7721 C   0  0  0  0  0  0  0  0  0  0  0  0
   -6.9264    8.0582   21.8600 C   0  0  0  0  0  0  0  0  0  0  0  0
   -6.7687    6.7505   21.1432 O   0  0  0  0  0  0  0  0  0  0  0  0
  1  2  1  6  0  0  0
  1  3  1  0  0  0  0
  1 10  1  0  0  0  0
  3  4  1  6  0  0  0
  3  5  1  0  0  0  0
  5  6  1  1  0  0  0
  5  7  1  0  0  0  0
  7  8  1  6  0  0  0
  7  9  1  0  0  0  0
  9 10  1  1  0  0  0
  9 11  1  0  0  0  0
 11 12  1  1  0  0  0
 11 13  1  0  0  0  0
 14 15  1  6  0  0  0
 14 16  1  0  0  0  0
 14 22  1  0  0  0  0
 16 17  1  0  0  0  0
 17 18  1  6  0  0  0
 17 19  1  0  0  0  0
 19  2  1  1  0  0  0
 19 20  1  0  0  0  0
 20 21  1  6  0  0  0
 20 22  1  0  0  0  0
 22 23  1  1  0  0  0
 24 23  1  1  0  0  0
 24 25  1  0  0  0  0
 24 34  1  0  0  0  0
 25 26  1  1  0  0  0
 25 27  1  0  0  0  0
 27 28  1  1  0  0  0
 27 30  1  0  0  0  0
 28 29  1  0  0  0  0
 30 31  1  6  0  0  0
 30 32  1  0  0  0  0
 30 33  1  0  0  0  0
 33 34  1  0  0  0  0
M  CHG  4   4   1  15   1  18   1  28   1
M  END
>  <CHROM.1>
-124.14068984,104.07091028,-71.86763051,66.96394710,57.19633302,168.42565076
-60.82179996,-70.92692030,-170.40807709,65.05727317,122.69317329,-172.87309841
-179.91550804,1.09470698,161.54268246,-10.06188348,7.64419009,22.09363151
2.69460452,-0.24193169,-0.10497812

>  <Name>
1mwl

>  <RI>
0

>  <Rbt.Current_Directory>
/home/itssahil/PROJECTS/Mol_Feturizer/New_Systems/rnas/1mwl

>  <Rbt.Executable>
rbdock ($Id: //depot/dev/client3/rdock/2013.1/src/exe/rbdock.cxx#4 $)

>  <Rbt.Library>
libRbt.so (2013.1, Build901 2013/11/27)

>  <Rbt.Parameter_File>
/export/apps/rDock/src/rDock_2013.1_src/data/scripts/dock_solv.prm

>  <Rbt.Receptor>
prm/blind_docking_100.prm

>  <SCORE>
-28.4332

>  <SCORE.INTER>
-29.073

>  <SCORE.INTER.CONST>
1

>  <SCORE.INTER.POLAR>
-3.87712

>  <SCORE.INTER.ROT>
6

>  <SCORE.INTER.SOLV>
20.4225

>  <SCORE.INTER.VDW>
-20.8657

>  <SCORE.INTER.norm>
-0.855087

>  <SCORE.INTRA>
-7.80389

>  <SCORE.INTRA.DIHEDRAL>
-14.7766

>  <SCORE.INTRA.DIHEDRAL.0>
42.0816

>  <SCORE.INTRA.POLAR>
-0.717018

>  <SCORE.INTRA.POLAR.0>
-0.254682

>  <SCORE.INTRA.REPUL>
0

>  <SCORE.INTRA.REPUL.0>
0

>  <SCORE.INTRA.SOLV>
0.594111

>  <SCORE.INTRA.SOLV.lig_0>
-109.803

>  <SCORE.INTRA.VDW>
1.72521

>  <SCORE.INTRA.VDW.0>
0.32176

>  <SCORE.INTRA.norm>
-0.229526

>  <SCORE.RESTR>
8.44363

>  <SCORE.RESTR.CAVITY>
8.44363

>  <SCORE.RESTR.norm>
0.248342

>  <SCORE.SYSTEM>
0

>  <SCORE.SYSTEM.CONST>
0

>  <SCORE.SYSTEM.DIHEDRAL>
0

>  <SCORE.SYSTEM.SOLV>
0

>  <SCORE.SYSTEM.norm>
0

>  <SCORE.heavy>
34

>  <SCORE.norm>
-0.836272

>  <RMSD>
8.860

$$$$
1mwl
 OpenBabel11021811403D
libRbt.so/2013.1/901 2013/11/27
 34 36  0  0  0  0  0  0  0  0999 V2000
  -18.7971   11.2151   18.6579 C   0  0  2  0  0  0  0  0  0  0  0  0
  -18.9427   10.5980   17.4143 O   0  0  0  0  0  0  0  0  0  0  0  0
  -19.8298   12.3753   18.7255 C   0  0  2  0  0  0  0  0  0  0  0  0
  -21.1884   11.8533   18.5493 N   0  3  0  0  0  0  0  0  0  0  0  0
  -19.4974   13.4679   17.6675 C   0  0  1  0  0  0  0  0  0  0  0  0
  -20.3795   14.4961   17.7376 O   0  0  0  0  0  0  0  0  0  0  0  0
  -18.0363   13.9708   17.9117 C   0  0  2  0  0  0  0  0  0  0  0  0
  -17.6971   14.9942   16.9525 O   0  0  0  0  0  0  0  0  0  0  0  0
  -17.0677   12.7447   17.8004 C   0  0  2  0  0  0  0  0  0  0  0  0
  -17.4383   11.7061   18.7870 O   0  0  0  0  0  0  0  0  0  0  0  0
  -15.5896   13.0732   18.0396 C   0  0  2  0  0  0  0  0  0  0  0  0
  -14.8166   11.9378   17.8233 O   0  0  0  0  0  0  0  0  0  0  0  0
  -15.2853   13.5347   19.4765 C   0  0  0  0  0  0  0  0  0  0  0  0
  -16.6400    7.0245   17.8468 C   0  0  2  0  0  0  0  0  0  0  0  0
  -16.1060    5.6600   17.6052 N   0  3  0  0  0  0  0  0  0  0  0  0
  -18.1585    6.9691   18.1886 C   0  0  0  0  0  0  0  0  0  0  0  0
  -18.7177    8.4189   18.4243 C   0  0  2  0  0  0  0  0  0  0  0  0
  -20.1857    8.3322   18.7619 N   0  3  0  0  0  0  0  0  0  0  0  0
  -18.4677    9.2856   17.1426 C   0  0  2  0  0  0  0  0  0  0  0  0
  -16.9510    9.3284   16.8347 C   0  0  2  0  0  0  0  0  0  0  0  0
  -16.7422   10.0804   15.6637 O   0  0  0  0  0  0  0  0  0  0  0  0
  -16.4182    7.8914   16.5891 C   0  0  1  0  0  0  0  0  0  0  0  0
  -15.0281    7.9548   16.3065 O   0  0  0  0  0  0  0  0  0  0  0  0
  -14.6009    8.7007   15.2002 C   0  0  2  0  0  0  0  0  0  0  0  0
  -14.9619    7.8990   13.9353 C   0  0  2  0  0  0  0  0  0  0  0  0
  -16.3626    7.7321   13.8808 O   0  0  0  0  0  0  0  0  0  0  0  0
  -14.2370    6.5108   13.9834 C   0  0  1  0  0  0  0  0  0  0  0  0
  -14.5575    5.6622   12.8098 N   0  3  0  0  0  0  0  0  0  0  0  0
  -14.8346    4.2648   13.2299 C   0  0  0  0  0  0  0  0  0  0  0  0
  -12.6890    6.7411   14.0704 C   0  0  2  0  0  0  0  0  0  0  0  0
  -12.2368    7.4718   12.9149 O   0  0  0  0  0  0  0  0  0  0  0  0
  -11.9529    5.4907   14.1132 C   0  0  0  0  0  0  0  0  0  0  0  0
  -12.3486    7.6292   15.3068 C   0  0  0  0  0  0  0  0  0  0  0  0
  -13.1436    8.9003   15.2769 O   0  0  0  0  0  0  0  0  0  0  0  0
  1  2  1  6  0  0  0
  1  3  1  0  0  0  0
  1 10  1  0  0  0  0
  3  4  1  6  0  0  0
  3  5  1  0  0  0  0
  5  6  1  1  0  0  0
  5  7  1  0  0  0  0
  7  8  1  6  0  0  0
  7  9  1  0  0  0  0
  9 10  1  1  0  0  0
  9 11  1  0  0  0  0
 11 12  1  1  0  0  0
 11 13  1  0  0  0  0
 14 15  1  6  0  0  0
 14 16  1  0  0  0  0
 14 22  1  0  0  0  0
 16 17  1  0  0  0  0
 17 18  1  6  0  0  0
 17 19  1  0  0  0  0
 19  2  1  1  0  0  0
 19 20  1  0  0  0  0
 20 21  1  6  0  0  0
 20 22  1  0  0  0  0
 22 23  1  1  0  0  0
 24 23  1  1  0  0  0
 24 25  1  0  0  0  0
 24 34  1  0  0  0  0
 25 26  1  1  0  0  0
 25 27  1  0  0  0  0
 27 28  1  6  0  0  0
 27 30  1  0  0  0  0
 28 29  1  0  0  0  0
 30 31  1  6  0  0  0
 30 32  1  0  0  0  0
 30 33  1  0  0  0  0
 33 34  1  0  0  0  0
M  CHG  4   4   1  15   1  18   1  28   1
M  END
>  <CHROM.1>
-160.77594332,37.98760216,-154.19272105,65.02962223,65.26011790,-175.79799898
174.90185541,56.19323239,-176.89331943,69.11536092,-179.76724571,-73.83460070
-128.28727339,-15.88675263,-66.06106286,-16.48527808,9.53937379,16.56149326
2.24423406,0.47356161,0.22015717

>  <Name>
1mwl

>  <RI>
0

>  <Rbt.Current_Directory>
/home/itssahil/PROJECTS/Mol_Feturizer/New_Systems/rnas/1mwl

>  <Rbt.Executable>
rbdock ($Id: //depot/dev/client3/rdock/2013.1/src/exe/rbdock.cxx#4 $)

>  <Rbt.Library>
libRbt.so (2013.1, Build901 2013/11/27)

>  <Rbt.Parameter_File>
/export/apps/rDock/src/rDock_2013.1_src/data/scripts/dock_solv.prm

>  <Rbt.Receptor>
prm/pocket_docking_8.prm

>  <SCORE>
-50.4426

>  <SCORE.INTER>
-39.7892

>  <SCORE.INTER.CONST>
1

>  <SCORE.INTER.POLAR>
-6.70209

>  <SCORE.INTER.ROT>
6

>  <SCORE.INTER.SOLV>
26.4984

>  <SCORE.INTER.VDW>
-20.6187

>  <SCORE.INTER.norm>
-1.17027

>  <SCORE.INTRA>
-10.6533

>  <SCORE.INTRA.DIHEDRAL>
-24.9709

>  <SCORE.INTRA.DIHEDRAL.0>
42.0816

>  <SCORE.INTRA.POLAR>
0.164708

>  <SCORE.INTRA.POLAR.0>
-0.254682

>  <SCORE.INTRA.REPUL>
0.119606

>  <SCORE.INTRA.REPUL.0>
0

>  <SCORE.INTRA.SOLV>
1.33667

>  <SCORE.INTRA.SOLV.lig_0>
-109.803

>  <SCORE.INTRA.VDW>
0.00571775

>  <SCORE.INTRA.VDW.0>
0.32176

>  <SCORE.INTRA.norm>
-0.313334

>  <SCORE.RESTR>
0

>  <SCORE.RESTR.CAVITY>
0

>  <SCORE.RESTR.norm>
0

>  <SCORE.SYSTEM>
0

>  <SCORE.SYSTEM.CONST>
0

>  <SCORE.SYSTEM.DIHEDRAL>
0

>  <SCORE.SYSTEM.SOLV>
0

>  <SCORE.SYSTEM.norm>
0

>  <SCORE.heavy>
34

>  <SCORE.norm>
-1.48361

>  <RMSD>
8.877

$$$$
1mwl
 OpenBabel11021811403D
libRbt.so/2013.1/901 2013/11/27
 34 36  0  0  0  0  0  0  0  0999 V2000
  -14.0111    9.5740   16.9972 C   0  0  2  0  0  0  0  0  0  0  0  0
  -13.2565    8.7658   17.8494 O   0  0  0  0  0  0  0  0  0  0  0  0
  -14.8286   10.5525   17.8867 C   0  0  2  0  0  0  0  0  0  0  0  0
  -13.9254   11.3560   18.7161 N   0  3  0  0  0  0  0  0  0  0  0  0
  -15.8587    9.7734   18.7559 C   0  0  1  0  0  0  0  0  0  0  0  0
  -16.5937   10.6230   19.5162 O   0  0  0  0  0  0  0  0  0  0  0  0
  -16.7799    8.9366   17.8078 C   0  0  2  0  0  0  0  0  0  0  0  0
  -17.7558    8.2074   18.5812 O   0  0  0  0  0  0  0  0  0  0  0  0
  -15.8767    7.9663   16.9731 C   0  0  2  0  0  0  0  0  0  0  0  0
  -14.8801    8.7345   16.1947 O   0  0  0  0  0  0  0  0  0  0  0  0
  -16.6360    7.0875   15.9725 C   0  0  2  0  0  0  0  0  0  0  0  0
  -17.4475    7.8834   15.1717 O   0  0  0  0  0  0  0  0  0  0  0  0
  -17.5655    6.0567   16.6385 C   0  0  0  0  0  0  0  0  0  0  0  0
   -9.8882    6.1391   17.7324 C   0  0  2  0  0  0  0  0  0  0  0  0
   -8.5456    5.5903   17.4135 N   0  3  0  0  0  0  0  0  0  0  0  0
  -10.7352    6.3102   16.4366 C   0  0  0  0  0  0  0  0  0  0  0  0
  -12.1467    6.9085   16.7828 C   0  0  2  0  0  0  0  0  0  0  0  0
  -12.9459    7.0536   15.5113 N   0  3  0  0  0  0  0  0  0  0  0  0
  -11.9622    8.2836   17.5119 C   0  0  2  0  0  0  0  0  0  0  0  0
  -11.1251    8.0790   18.7982 C   0  0  2  0  0  0  0  0  0  0  0  0
  -10.9374    9.3245   19.4255 O   0  0  0  0  0  0  0  0  0  0  0  0
   -9.7296    7.5030   18.4375 C   0  0  1  0  0  0  0  0  0  0  0  0
   -8.9793    7.3262   19.6301 O   0  0  0  0  0  0  0  0  0  0  0  0
   -9.5747    6.6524   20.7045 C   0  0  2  0  0  0  0  0  0  0  0  0
   -9.4028    7.5348   21.9554 C   0  0  2  0  0  0  0  0  0  0  0  0
  -10.0624    8.7649   21.7447 O   0  0  0  0  0  0  0  0  0  0  0  0
   -7.8748    7.7601   22.2184 C   0  0  1  0  0  0  0  0  0  0  0  0
   -7.6231    8.6284   23.3943 N   0  3  0  0  0  0  0  0  0  0  0  0
   -6.3954    9.4406   23.1966 C   0  0  0  0  0  0  0  0  0  0  0  0
   -7.1768    6.3711   22.4200 C   0  0  2  0  0  0  0  0  0  0  0  0
   -7.7564    5.6908   23.5490 O   0  0  0  0  0  0  0  0  0  0  0  0
   -5.7541    6.5071   22.6741 C   0  0  0  0  0  0  0  0  0  0  0  0
   -7.4355    5.4574   21.1824 C   0  0  0  0  0  0  0  0  0  0  0  0
   -8.9050    5.3554   20.9013 O   0  0  0  0  0  0  0  0  0  0  0  0
  1  2  1  1  0  0  0
  1  3  1  0  0  0  0
  1 10  1  0  0  0  0
  3  4  1  1  0  0  0
  3  5  1  0  0  0  0
  5  6  1  6  0  0  0
  5  7  1  0  0  0  0
  7  8  1  1  0  0  0
  7  9  1  0  0  0  0
  9 10  1  6  0  0  0
  9 11  1  0  0  0  0
 11 12  1  6  0  0  0
 11 13  1  0  0  0  0
 14 15  1  6  0  0  0
 14 16  1  0  0  0  0
 14 22  1  0  0  0  0
 16 17  1  0  0  0  0
 17 18  1  6  0  0  0
 17 19  1  0  0  0  0
 19  2  1  1  0  0  0
 19 20  1  0  0  0  0
 20 21  1  6  0  0  0
 20 22  1  0  0  0  0
 22 23  1  1  0  0  0
 24 23  1  6  0  0  0
 24 25  1  0  0  0  0
 24 34  1  0  0  0  0
 25 26  1  6  0  0  0
 25 27  1  0  0  0  0
 27 28  1  1  0  0  0
 27 30  1  0  0  0  0
 28 29  1  0  0  0  0
 30 31  1  1  0  0  0
 30 32  1  0  0  0  0
 30 33  1  0  0  0  0
 33 34  1  0  0  0  0
M  CHG  4   4   1  15   1  18   1  28   1
M  END
>  <CHROM.1>
-146.16532829,-89.77353184,45.84987872,-60.12444988,-56.14544141,52.17414774
164.15712815,54.64321459,65.19246121,-71.90482053,-70.59474651,-128.90877095
-73.22090507,-27.27560895,-53.42396286,-11.79489535,7.85171346,19.09220249
2.83494155,0.45820855,-2.22964375

>  <Name>
1mwl

>  <RI>
0

>  <Rbt.Current_Directory>
/home/itssahil/PROJECTS/Mol_Feturizer/New_Systems/rnas/1mwl

>  <Rbt.Executable>
rbdock ($Id: //depot/dev/client3/rdock/2013.1/src/exe/rbdock.cxx#4 $)

>  <Rbt.Library>
libRbt.so (2013.1, Build901 2013/11/27)

>  <Rbt.Parameter_File>
/export/apps/rDock/src/rDock_2013.1_src/data/scripts/dock_solv.prm

>  <Rbt.Receptor>
prm/pocket_docking_4.prm

>  <SCORE>
-48.797

>  <SCORE.INTER>
-37.3258

>  <SCORE.INTER.CONST>
1

>  <SCORE.INTER.POLAR>
-5.13895

>  <SCORE.INTER.ROT>
6

>  <SCORE.INTER.SOLV>
19.1893

>  <SCORE.INTER.VDW>
-21.7504

>  <SCORE.INTER.norm>
-1.09782

>  <SCORE.INTRA>
-11.4712

>  <SCORE.INTRA.DIHEDRAL>
-20.8831

>  <SCORE.INTRA.DIHEDRAL.0>
42.0816

>  <SCORE.INTRA.POLAR>
-0.670367

>  <SCORE.INTRA.POLAR.0>
-0.254682

>  <SCORE.INTRA.REPUL>
0.0210264

>  <SCORE.INTRA.REPUL.0>
0

>  <SCORE.INTRA.SOLV>
2.66237

>  <SCORE.INTRA.SOLV.lig_0>
-109.803

>  <SCORE.INTRA.VDW>
-0.186783

>  <SCORE.INTRA.VDW.0>
0.32176

>  <SCORE.INTRA.norm>
-0.33739

>  <SCORE.RESTR>
0

>  <SCORE.RESTR.CAVITY>
0

>  <SCORE.RESTR.norm>
0

>  <SCORE.SYSTEM>
0

>  <SCORE.SYSTEM.CONST>
0

>  <SCORE.SYSTEM.DIHEDRAL>
0

>  <SCORE.SYSTEM.SOLV>
0

>  <SCORE.SYSTEM.norm>
0

>  <SCORE.heavy>
34

>  <SCORE.norm>
-1.43521

>  <RMSD>
8.923

$$$$
1mwl
 OpenBabel11021811403D
libRbt.so/2013.1/901 2013/11/27
 34 36  0  0  0  0  0  0  0  0999 V2000
  -15.1542    9.9642   15.7364 C   0  0  2  0  0  0  0  0  0  0  0  0
  -14.5239    9.3608   16.8260 O   0  0  0  0  0  0  0  0  0  0  0  0
  -16.6670    9.6166   15.8227 C   0  0  2  0  0  0  0  0  0  0  0  0
  -17.2247   10.0983   17.0902 N   0  3  0  0  0  0  0  0  0  0  0  0
  -16.8891    8.0857   15.6477 C   0  0  1  0  0  0  0  0  0  0  0  0
  -18.2093    7.7778   15.6963 O   0  0  0  0  0  0  0  0  0  0  0  0
  -16.2646    7.6437   14.2831 C   0  0  2  0  0  0  0  0  0  0  0  0
  -16.4613    6.2283   14.0829 O   0  0  0  0  0  0  0  0  0  0  0  0
  -14.7414    8.0092   14.2965 C   0  0  2  0  0  0  0  0  0  0  0  0
  -14.5637    9.4625   14.5102 O   0  0  0  0  0  0  0  0  0  0  0  0
  -13.9876    7.6570   13.0090 C   0  0  2  0  0  0  0  0  0  0  0  0
  -14.4617    6.4516   12.5035 O   0  0  0  0  0  0  0  0  0  0  0  0
  -12.4726    7.4732   13.2121 C   0  0  0  0  0  0  0  0  0  0  0  0
  -12.2317   10.4176   20.2740 C   0  0  2  0  0  0  0  0  0  0  0  0
  -11.2262   11.0805   21.1428 N   0  3  0  0  0  0  0  0  0  0  0  0
  -11.5328    9.6035   19.1449 C   0  0  0  0  0  0  0  0  0  0  0  0
  -12.6053    8.9213   18.2206 C   0  0  2  0  0  0  0  0  0  0  0  0
  -11.8993    8.1340   17.1443 N   0  3  0  0  0  0  0  0  0  0  0  0
  -13.5421   10.0217   17.6140 C   0  0  2  0  0  0  0  0  0  0  0  0
  -14.2276   10.8064   18.7592 C   0  0  2  0  0  0  0  0  0  0  0  0
  -15.0390   11.8128   18.2034 O   0  0  0  0  0  0  0  0  0  0  0  0
  -13.1559   11.4864   19.6527 C   0  0  1  0  0  0  0  0  0  0  0  0
  -13.8062   12.2013   20.6931 O   0  0  0  0  0  0  0  0  0  0  0  0
  -13.0875   13.1873   21.3815 C   0  0  2  0  0  0  0  0  0  0  0  0
  -14.1108   14.1654   21.9891 C   0  0  2  0  0  0  0  0  0  0  0  0
  -14.9366   13.4638   22.8938 O   0  0  0  0  0  0  0  0  0  0  0  0
  -14.9610   14.8000   20.8362 C   0  0  1  0  0  0  0  0  0  0  0  0
  -15.9945   15.7360   21.3422 N   0  3  0  0  0  0  0  0  0  0  0  0
  -17.3258   15.4107   20.7697 C   0  0  0  0  0  0  0  0  0  0  0  0
  -14.0053   15.5450   19.8418 C   0  0  2  0  0  0  0  0  0  0  0  0
  -13.2938   16.5876   20.5346 O   0  0  0  0  0  0  0  0  0  0  0  0
  -14.7312   16.1633   18.7472 C   0  0  0  0  0  0  0  0  0  0  0  0
  -12.9204   14.5616   19.3041 C   0  0  0  0  0  0  0  0  0  0  0  0
  -12.2033   13.8961   20.4406 O   0  0  0  0  0  0  0  0  0  0  0  0
  1  2  1  1  0  0  0
  1  3  1  0  0  0  0
  1 10  1  0  0  0  0
  3  4  1  1  0  0  0
  3  5  1  0  0  0  0
  5  6  1  6  0  0  0
  5  7  1  0  0  0  0
  7  8  1  1  0  0  0
  7  9  1  0  0  0  0
  9 10  1  6  0  0  0
  9 11  1  0  0  0  0
 11 12  1  1  0  0  0
 11 13  1  0  0  0  0
 14 15  1  6  0  0  0
 14 16  1  0  0  0  0
 14 22  1  0  0  0  0
 16 17  1  0  0  0  0
 17 18  1  6  0  0  0
 17 19  1  0  0  0  0
 19  2  1  6  0  0  0
 19 20  1  0  0  0  0
 20 21  1  6  0  0  0
 20 22  1  0  0  0  0
 22 23  1  1  0  0  0
 24 23  1  6  0  0  0
 24 25  1  0  0  0  0
 24 34  1  0  0  0  0
 25 26  1  1  0  0  0
 25 27  1  0  0  0  0
 27 28  1  1  0  0  0
 27 30  1  0  0  0  0
 28 29  1  0  0  0  0
 30 31  1  1  0  0  0
 30 32  1  0  0  0  0
 30 33  1  0  0  0  0
 33 34  1  0  0  0  0
M  CHG  4   4   1  15   1  18   1  28   1
M  END
>  <CHROM.1>
-136.64888467,-152.78975662,-84.24498673,69.06521935,-62.88946987,-37.64582978
72.67237317,-138.93140692,169.22658507,-174.24212528,77.82993732,156.72649637
-58.03579190,-9.16569648,-58.43249735,-14.39034289,11.04552188,17.99167010
1.68272418,0.37111581,-2.42484129

>  <Name>
1mwl

>  <RI>
0

>  <Rbt.Current_Directory>
/home/itssahil/PROJECTS/Mol_Feturizer/New_Systems/rnas/1mwl

>  <Rbt.Executable>
rbdock ($Id: //depot/dev/client3/rdock/2013.1/src/exe/rbdock.cxx#4 $)

>  <Rbt.Library>
libRbt.so (2013.1, Build901 2013/11/27)

>  <Rbt.Parameter_File>
/export/apps/rDock/src/rDock_2013.1_src/data/scripts/dock_solv.prm

>  <Rbt.Receptor>
prm/blind_docking_80.prm

>  <SCORE>
4.16792

>  <SCORE.INTER>
2.1956

>  <SCORE.INTER.CONST>
1

>  <SCORE.INTER.POLAR>
-2.75522

>  <SCORE.INTER.ROT>
6

>  <SCORE.INTER.SOLV>
22.4132

>  <SCORE.INTER.VDW>
-4.42328

>  <SCORE.INTER.norm>
0.0645765

>  <SCORE.INTRA>
-16.074

>  <SCORE.INTRA.DIHEDRAL>
-18.4083

>  <SCORE.INTRA.DIHEDRAL.0>
42.0816

>  <SCORE.INTRA.POLAR>
-1.83358

>  <SCORE.INTRA.POLAR.0>
-0.254682

>  <SCORE.INTRA.REPUL>
0

>  <SCORE.INTRA.REPUL.0>
0

>  <SCORE.INTRA.SOLV>
2.24307

>  <SCORE.INTRA.SOLV.lig_0>
-109.803

>  <SCORE.INTRA.VDW>
-1.75721

>  <SCORE.INTRA.VDW.0>
0.32176

>  <SCORE.INTRA.norm>
-0.472764

>  <SCORE.RESTR>
18.0463

>  <SCORE.RESTR.CAVITY>
18.0463

>  <SCORE.RESTR.norm>
0.530773

>  <SCORE.SYSTEM>
0

>  <SCORE.SYSTEM.CONST>
0

>  <SCORE.SYSTEM.DIHEDRAL>
0

>  <SCORE.SYSTEM.SOLV>
0

>  <SCORE.SYSTEM.norm>
0

>  <SCORE.heavy>
34

>  <SCORE.norm>
0.122586

>  <RMSD>
8.938

$$$$
1mwl
 OpenBabel11021811403D
libRbt.so/2013.1/901 2013/11/27
 34 36  0  0  0  0  0  0  0  0999 V2000
  -15.3832    9.8889   15.9513 C   0  0  2  0  0  0  0  0  0  0  0  0
  -15.0055    9.1942   17.1016 O   0  0  0  0  0  0  0  0  0  0  0  0
  -16.7644    9.3328   15.5041 C   0  0  2  0  0  0  0  0  0  0  0  0
  -17.7501    9.5071   16.5753 N   0  3  0  0  0  0  0  0  0  0  0  0
  -16.6432    7.8402   15.0785 C   0  0  1  0  0  0  0  0  0  0  0  0
  -17.8398    7.3551   14.6626 O   0  0  0  0  0  0  0  0  0  0  0  0
  -15.5732    7.7306   13.9424 C   0  0  2  0  0  0  0  0  0  0  0  0
  -15.4417    6.3585   13.5156 O   0  0  0  0  0  0  0  0  0  0  0  0
  -14.2151    8.2881   14.4888 C   0  0  2  0  0  0  0  0  0  0  0  0
  -14.3752    9.6923   14.9268 O   0  0  0  0  0  0  0  0  0  0  0  0
  -13.0630    8.2699   13.4777 C   0  0  2  0  0  0  0  0  0  0  0  0
  -13.5675    8.0796   12.1961 O   0  0  0  0  0  0  0  0  0  0  0  0
  -12.0514    7.1340   13.7159 C   0  0  0  0  0  0  0  0  0  0  0  0
  -12.6205   10.1099   20.5270 C   0  0  2  0  0  0  0  0  0  0  0  0
  -11.4493   10.4625   21.3692 N   0  3  0  0  0  0  0  0  0  0  0  0
  -12.3960    8.7422   19.8163 C   0  0  0  0  0  0  0  0  0  0  0  0
  -13.6327    8.3873   18.9136 C   0  0  2  0  0  0  0  0  0  0  0  0
  -13.3903    7.0555   18.2471 N   0  3  0  0  0  0  0  0  0  0  0  0
  -13.8528    9.5297   17.8635 C   0  0  2  0  0  0  0  0  0  0  0  0
  -14.0813   10.8723   18.5998 C   0  0  2  0  0  0  0  0  0  0  0  0
  -14.2437   11.8954   17.6473 O   0  0  0  0  0  0  0  0  0  0  0  0
  -12.8454   11.2157   19.4738 C   0  0  1  0  0  0  0  0  0  0  0  0
  -13.0757   12.4502   20.1368 O   0  0  0  0  0  0  0  0  0  0  0  0
  -12.8495   13.6417   19.4355 C   0  0  2  0  0  0  0  0  0  0  0  0
  -12.5269   14.7340   20.4726 C   0  0  2  0  0  0  0  0  0  0  0  0
  -11.3582   14.3700   21.1757 O   0  0  0  0  0  0  0  0  0  0  0  0
  -13.7408   14.8868   21.4513 C   0  0  1  0  0  0  0  0  0  0  0  0
  -13.4971   15.9034   22.5036 N   0  3  0  0  0  0  0  0  0  0  0  0
  -12.9437   15.2717   23.7286 C   0  0  0  0  0  0  0  0  0  0  0  0
  -15.0208   15.2642   20.6290 C   0  0  2  0  0  0  0  0  0  0  0  0
  -14.8096   16.5099   19.9383 O   0  0  0  0  0  0  0  0  0  0  0  0
  -16.1867   15.4269   21.4784 C   0  0  0  0  0  0  0  0  0  0  0  0
  -15.2825   14.1940   19.5248 C   0  0  0  0  0  0  0  0  0  0  0  0
  -14.0601   14.0017   18.6777 O   0  0  0  0  0  0  0  0  0  0  0  0
  1  2  1  1  0  0  0
  1  3  1  0  0  0  0
  1 10  1  0  0  0  0
  3  4  1  1  0  0  0
  3  5  1  0  0  0  0
  5  6  1  6  0  0  0
  5  7  1  0  0  0  0
  7  8  1  1  0  0  0
  7  9  1  0  0  0  0
  9 10  1  6  0  0  0
  9 11  1  0  0  0  0
 11 12  1  6  0  0  0
 11 13  1  0  0  0  0
 14 15  1  6  0  0  0
 14 16  1  0  0  0  0
 14 22  1  0  0  0  0
 16 17  1  0  0  0  0
 17 18  1  6  0  0  0
 17 19  1  0  0  0  0
 19  2  1  1  0  0  0
 19 20  1  0  0  0  0
 20 21  1  6  0  0  0
 20 22  1  0  0  0  0
 22 23  1  1  0  0  0
 24 23  1  1  0  0  0
 24 25  1  0  0  0  0
 24 34  1  0  0  0  0
 25 26  1  1  0  0  0
 25 27  1  0  0  0  0
 27 28  1  1  0  0  0
 27 30  1  0  0  0  0
 28 29  1  0  0  0  0
 30 31  1  6  0  0  0
 30 32  1  0  0  0  0
 30 33  1  0  0  0  0
 33 34  1  0  0  0  0
M  CHG  4   4   1  15   1  18   1  28   1
M  END
>  <CHROM.1>
-173.68370292,-170.43904874,-57.64551785,61.54911899,123.89162683,15.28307801
69.35989785,-40.84458252,60.56873661,-57.72470603,158.26600795,-154.09372675
170.15953900,26.72897402,59.29176769,-14.16668527,10.98578695,18.00375405
1.75457324,0.61946466,-2.47081183

>  <Name>
1mwl

>  <RI>
0

>  <Rbt.Current_Directory>
/home/itssahil/PROJECTS/Mol_Feturizer/New_Systems/rnas/1mwl

>  <Rbt.Executable>
rbdock ($Id: //depot/dev/client3/rdock/2013.1/src/exe/rbdock.cxx#4 $)

>  <Rbt.Library>
libRbt.so (2013.1, Build901 2013/11/27)

>  <Rbt.Parameter_File>
/export/apps/rDock/src/rDock_2013.1_src/data/scripts/dock_solv.prm

>  <Rbt.Receptor>
prm/blind_docking_80.prm

>  <SCORE>
-20.9108

>  <SCORE.INTER>
-23.5916

>  <SCORE.INTER.CONST>
1

>  <SCORE.INTER.POLAR>
-4.39533

>  <SCORE.INTER.ROT>
6

>  <SCORE.INTER.SOLV>
23.9828

>  <SCORE.INTER.VDW>
-16.6709

>  <SCORE.INTER.norm>
-0.693871

>  <SCORE.INTRA>
-12.9469

>  <SCORE.INTRA.DIHEDRAL>
-20.9109

>  <SCORE.INTRA.DIHEDRAL.0>
42.0816

>  <SCORE.INTRA.POLAR>
0.253987

>  <SCORE.INTRA.POLAR.0>
-0.254682

>  <SCORE.INTRA.REPUL>
0

>  <SCORE.INTRA.REPUL.0>
0

>  <SCORE.INTRA.SOLV>
-2.81837

>  <SCORE.INTRA.SOLV.lig_0>
-109.803

>  <SCORE.INTRA.VDW>
-1.94577

>  <SCORE.INTRA.VDW.0>
0.32176

>  <SCORE.INTRA.norm>
-0.38079

>  <SCORE.RESTR>
15.6276

>  <SCORE.RESTR.CAVITY>
15.6276

>  <SCORE.RESTR.norm>
0.459637

>  <SCORE.SYSTEM>
0

>  <SCORE.SYSTEM.CONST>
0

>  <SCORE.SYSTEM.DIHEDRAL>
0

>  <SCORE.SYSTEM.SOLV>
0

>  <SCORE.SYSTEM.norm>
0

>  <SCORE.heavy>
34

>  <SCORE.norm>
-0.615025

>  <RMSD>
8.958

$$$$
1mwl
 OpenBabel11021811403D
libRbt.so/2013.1/901 2013/11/27
 34 36  0  0  0  0  0  0  0  0999 V2000
  -11.7029    9.8743   21.7329 C   0  0  2  0  0  0  0  0  0  0  0  0
  -11.8141    9.1046   20.5737 O   0  0  0  0  0  0  0  0  0  0  0  0
  -13.0032    9.6631   22.5584 C   0  0  2  0  0  0  0  0  0  0  0  0
  -13.1723    8.2428   22.8802 N   0  3  0  0  0  0  0  0  0  0  0  0
  -14.2367   10.2246   21.7923 C   0  0  1  0  0  0  0  0  0  0  0  0
  -15.3720   10.0669   22.5177 O   0  0  0  0  0  0  0  0  0  0  0  0
  -13.9830   11.7359   21.4776 C   0  0  2  0  0  0  0  0  0  0  0  0
  -15.1135   12.2928   20.7747 O   0  0  0  0  0  0  0  0  0  0  0  0
  -12.6729   11.8491   20.6262 C   0  0  2  0  0  0  0  0  0  0  0  0
  -11.5297   11.2660   21.3626 O   0  0  0  0  0  0  0  0  0  0  0  0
  -12.2736   13.2815   20.2539 C   0  0  2  0  0  0  0  0  0  0  0  0
  -11.8842   13.9712   21.3967 O   0  0  0  0  0  0  0  0  0  0  0  0
  -13.4188   14.0977   19.6270 C   0  0  0  0  0  0  0  0  0  0  0  0
   -9.5796    5.4955   20.0833 C   0  0  2  0  0  0  0  0  0  0  0  0
   -8.5275    4.5437   19.6442 N   0  3  0  0  0  0  0  0  0  0  0  0
  -10.3704    6.0453   18.8592 C   0  0  0  0  0  0  0  0  0  0  0  0
  -11.4685    7.0650   19.3328 C   0  0  2  0  0  0  0  0  0  0  0  0
  -12.2225    7.5722   18.1283 N   0  3  0  0  0  0  0  0  0  0  0  0
  -10.7849    8.2331   20.1231 C   0  0  2  0  0  0  0  0  0  0  0  0
  -10.0155    7.6562   21.3364 C   0  0  2  0  0  0  0  0  0  0  0  0
   -9.3784    8.7096   22.0180 O   0  0  0  0  0  0  0  0  0  0  0  0
   -8.9252    6.6639   20.8508 C   0  0  1  0  0  0  0  0  0  0  0  0
   -8.2315    6.1498   21.9782 O   0  0  0  0  0  0  0  0  0  0  0  0
   -7.0070    5.5004   21.7747 C   0  0  2  0  0  0  0  0  0  0  0  0
   -6.5067    5.0165   23.1489 C   0  0  2  0  0  0  0  0  0  0  0  0
   -7.4422    4.1050   23.6842 O   0  0  0  0  0  0  0  0  0  0  0  0
   -6.3298    6.2530   24.0949 C   0  0  1  0  0  0  0  0  0  0  0  0
   -5.8767    5.8678   25.4537 N   0  3  0  0  0  0  0  0  0  0  0  0
   -6.2563    6.9029   26.4490 C   0  0  0  0  0  0  0  0  0  0  0  0
   -5.3058    7.2506   23.4522 C   0  0  2  0  0  0  0  0  0  0  0  0
   -4.0324    6.6012   23.2784 O   0  0  0  0  0  0  0  0  0  0  0  0
   -5.0902    8.4216   24.2826 C   0  0  0  0  0  0  0  0  0  0  0  0
   -5.7824    7.6614   22.0249 C   0  0  0  0  0  0  0  0  0  0  0  0
   -6.0427    6.4457   21.1865 O   0  0  0  0  0  0  0  0  0  0  0  0
  1  2  1  6  0  0  0
  1  3  1  0  0  0  0
  1 10  1  0  0  0  0
  3  4  1  6  0  0  0
  3  5  1  0  0  0  0
  5  6  1  1  0  0  0
  5  7  1  0  0  0  0
  7  8  1  6  0  0  0
  7  9  1  0  0  0  0
  9 10  1  1  0  0  0
  9 11  1  0  0  0  0
 11 12  1  1  0  0  0
 11 13  1  0  0  0  0
 14 15  1  6  0  0  0
 14 16  1  0  0  0  0
 14 22  1  0  0  0  0
 16 17  1  0  0  0  0
 17 18  1  6  0  0  0
 17 19  1  0  0  0  0
 19  2  1  1  0  0  0
 19 20  1  0  0  0  0
 20 21  1  6  0  0  0
 20 22  1  0  0  0  0
 22 23  1  1  0  0  0
 24 23  1  1  0  0  0
 24 25  1  0  0  0  0
 24 34  1  0  0  0  0
 25 26  1  1  0  0  0
 25 27  1  0  0  0  0
 27 28  1  1  0  0  0
 27 30  1  0  0  0  0
 28 29  1  0  0  0  0
 30 31  1  6  0  0  0
 30 32  1  0  0  0  0
 30 33  1  0  0  0  0
 33 34  1  0  0  0  0
M  CHG  4   4   1  15   1  18   1  28   1
M  END
>  <CHROM.1>
-131.21488363,151.11012597,-179.87088339,-173.49520128,-54.36716736,68.23973331
177.10810836,-34.05959965,57.26977405,-174.34697715,75.34289572,-178.40047806
51.10531309,-36.13014561,171.03787255,-9.87596022,8.34755634,21.73637597
-2.75942912,0.58163371,-2.60047775

>  <Name>
1mwl

>  <RI>
0

>  <Rbt.Current_Directory>
/home/itssahil/PROJECTS/Mol_Feturizer/New_Systems/rnas/1mwl

>  <Rbt.Executable>
rbdock ($Id: //depot/dev/client3/rdock/2013.1/src/exe/rbdock.cxx#4 $)

>  <Rbt.Library>
libRbt.so (2013.1, Build901 2013/11/27)

>  <Rbt.Parameter_File>
/export/apps/rDock/src/rDock_2013.1_src/data/scripts/dock_solv.prm

>  <Rbt.Receptor>
prm/blind_docking_100.prm

>  <SCORE>
-20.7495

>  <SCORE.INTER>
-19.362

>  <SCORE.INTER.CONST>
1

>  <SCORE.INTER.POLAR>
-2.21198

>  <SCORE.INTER.ROT>
6

>  <SCORE.INTER.SOLV>
22.3733

>  <SCORE.INTER.VDW>
-20.5925

>  <SCORE.INTER.norm>
-0.569472

>  <SCORE.INTRA>
-9.03922

>  <SCORE.INTRA.DIHEDRAL>
-26.7266

>  <SCORE.INTRA.DIHEDRAL.0>
42.0816

>  <SCORE.INTRA.POLAR>
0.231069

>  <SCORE.INTRA.POLAR.0>
-0.254682

>  <SCORE.INTRA.REPUL>
0

>  <SCORE.INTRA.REPUL.0>
0

>  <SCORE.INTRA.SOLV>
-1.7028

>  <SCORE.INTRA.SOLV.lig_0>
-109.803

>  <SCORE.INTRA.VDW>
4.38984

>  <SCORE.INTRA.VDW.0>
0.32176

>  <SCORE.INTRA.norm>
-0.265859

>  <SCORE.RESTR>
7.65177

>  <SCORE.RESTR.CAVITY>
7.65177

>  <SCORE.RESTR.norm>
0.225052

>  <SCORE.SYSTEM>
0

>  <SCORE.SYSTEM.CONST>
0

>  <SCORE.SYSTEM.DIHEDRAL>
0

>  <SCORE.SYSTEM.SOLV>
0

>  <SCORE.SYSTEM.norm>
0

>  <SCORE.heavy>
34

>  <SCORE.norm>
-0.610279

>  <RMSD>
8.996

$$$$
1mwl
 OpenBabel11021811403D
libRbt.so/2013.1/901 2013/11/27
 34 36  0  0  0  0  0  0  0  0999 V2000
  -12.2685   10.4808   19.7477 C   0  0  2  0  0  0  0  0  0  0  0  0
  -12.4848    9.6892   20.8770 O   0  0  0  0  0  0  0  0  0  0  0  0
  -12.1531   11.9550   20.2278 C   0  0  2  0  0  0  0  0  0  0  0  0
  -11.0526   12.0893   21.1871 N   0  3  0  0  0  0  0  0  0  0  0  0
  -13.5014   12.4411   20.8356 C   0  0  1  0  0  0  0  0  0  0  0  0
  -13.4162   13.7352   21.2337 O   0  0  0  0  0  0  0  0  0  0  0  0
  -14.6258   12.2620   19.7627 C   0  0  2  0  0  0  0  0  0  0  0  0
  -15.8910   12.7132   20.2900 O   0  0  0  0  0  0  0  0  0  0  0  0
  -14.6856   10.7496   19.3590 C   0  0  2  0  0  0  0  0  0  0  0  0
  -13.3771   10.3075   18.8284 O   0  0  0  0  0  0  0  0  0  0  0  0
  -15.7315   10.4138   18.2898 C   0  0  2  0  0  0  0  0  0  0  0  0
  -15.6938    9.0525   18.0090 O   0  0  0  0  0  0  0  0  0  0  0  0
  -15.4986   11.1368   16.9507 C   0  0  0  0  0  0  0  0  0  0  0  0
  -11.9231    5.7369   22.4011 C   0  0  2  0  0  0  0  0  0  0  0  0
  -11.7504    4.2628   22.4522 N   0  3  0  0  0  0  0  0  0  0  0  0
  -13.3151    6.1080   21.8090 C   0  0  0  0  0  0  0  0  0  0  0  0
  -13.4805    7.6695   21.7421 C   0  0  2  0  0  0  0  0  0  0  0  0
  -14.8394    7.9974   21.1743 N   0  3  0  0  0  0  0  0  0  0  0  0
  -12.3267    8.2762   20.8719 C   0  0  2  0  0  0  0  0  0  0  0  0
  -10.9586    7.8977   21.4901 C   0  0  2  0  0  0  0  0  0  0  0  0
   -9.9309    8.4186   20.6822 O   0  0  0  0  0  0  0  0  0  0  0  0
  -10.8048    6.3538   21.5343 C   0  0  1  0  0  0  0  0  0  0  0  0
   -9.5439    6.0301   22.1017 O   0  0  0  0  0  0  0  0  0  0  0  0
   -8.4620    5.7936   21.2436 C   0  0  2  0  0  0  0  0  0  0  0  0
   -7.4042    5.0065   22.0400 C   0  0  2  0  0  0  0  0  0  0  0  0
   -7.9596    3.7756   22.4510 O   0  0  0  0  0  0  0  0  0  0  0  0
   -6.9566    5.8566   23.2778 C   0  0  1  0  0  0  0  0  0  0  0  0
   -5.9559    5.1536   24.1172 N   0  3  0  0  0  0  0  0  0  0  0  0
   -6.5288    4.8104   25.4439 C   0  0  0  0  0  0  0  0  0  0  0  0
   -6.3719    7.2230   22.7797 C   0  0  2  0  0  0  0  0  0  0  0  0
   -5.2334    6.9880   21.9299 O   0  0  0  0  0  0  0  0  0  0  0  0
   -5.9312    8.0614   23.8798 C   0  0  0  0  0  0  0  0  0  0  0  0
   -7.4241    7.9669   21.9007 C   0  0  0  0  0  0  0  0  0  0  0  0
   -7.9050    7.0799   20.7913 O   0  0  0  0  0  0  0  0  0  0  0  0
  1  2  1  1  0  0  0
  1  3  1  0  0  0  0
  1 10  1  0  0  0  0
  3  4  1  1  0  0  0
  3  5  1  0  0  0  0
  5  6  1  6  0  0  0
  5  7  1  0  0  0  0
  7  8  1  1  0  0  0
  7  9  1  0  0  0  0
  9 10  1  6  0  0  0
  9 11  1  0  0  0  0
 11 12  1  6  0  0  0
 11 13  1  0  0  0  0
 14 15  1  6  0  0  0
 14 16  1  0  0  0  0
 14 22  1  0  0  0  0
 16 17  1  0  0  0  0
 17 18  1  6  0  0  0
 17 19  1  0  0  0  0
 19  2  1  1  0  0  0
 19 20  1  0  0  0  0
 20 21  1  6  0  0  0
 20 22  1  0  0  0  0
 22 23  1  1  0  0  0
 24 23  1  1  0  0  0
 24 25  1  0  0  0  0
 24 34  1  0  0  0  0
 25 26  1  1  0  0  0
 25 27  1  0  0  0  0
 27 28  1  6  0  0  0
 27 30  1  0  0  0  0
 28 29  1  0  0  0  0
 30 31  1  6  0  0  0
 30 32  1  0  0  0  0
 30 33  1  0  0  0  0
 33 34  1  0  0  0  0
M  CHG  4   4   1  15   1  18   1  28   1
M  END
>  <CHROM.1>
-164.68423654,-140.66360321,53.56082646,-70.02377184,-177.22527806,179.86615621
71.17978580,-140.08859973,53.45014210,78.05747097,144.95803550,-160.47606252
56.06917581,7.23061176,-59.74804434,-11.04012870,8.33889680,21.22900731,-2.49769122
0.33371934,2.99163403

>  <Name>
1mwl

>  <RI>
0

>  <Rbt.Current_Directory>
/home/itssahil/PROJECTS/Mol_Feturizer/New_Systems/rnas/1mwl

>  <Rbt.Executable>
rbdock ($Id: //depot/dev/client3/rdock/2013.1/src/exe/rbdock.cxx#4 $)

>  <Rbt.Library>
libRbt.so (2013.1, Build901 2013/11/27)

>  <Rbt.Parameter_File>
/export/apps/rDock/src/rDock_2013.1_src/data/scripts/dock_solv.prm

>  <Rbt.Receptor>
prm/blind_docking_100.prm

>  <SCORE>
-33.8042

>  <SCORE.INTER>
-35.7889

>  <SCORE.INTER.CONST>
1

>  <SCORE.INTER.POLAR>
-5.38438

>  <SCORE.INTER.ROT>
6

>  <SCORE.INTER.SOLV>
26.3432

>  <SCORE.INTER.VDW>
-22.2924

>  <SCORE.INTER.norm>
-1.05261

>  <SCORE.INTRA>
-11.4552

>  <SCORE.INTRA.DIHEDRAL>
-20.2963

>  <SCORE.INTRA.DIHEDRAL.0>
42.0816

>  <SCORE.INTRA.POLAR>
0.254682

>  <SCORE.INTRA.POLAR.0>
-0.254682

>  <SCORE.INTRA.REPUL>
0.00685849

>  <SCORE.INTRA.REPUL.0>
0

>  <SCORE.INTRA.SOLV>
1.76212

>  <SCORE.INTRA.SOLV.lig_0>
-109.803

>  <SCORE.INTRA.VDW>
-3.08837

>  <SCORE.INTRA.VDW.0>
0.32176

>  <SCORE.INTRA.norm>
-0.336919

>  <SCORE.RESTR>
13.4399

>  <SCORE.RESTR.CAVITY>
13.4399

>  <SCORE.RESTR.norm>
0.395291

>  <SCORE.SYSTEM>
0

>  <SCORE.SYSTEM.CONST>
0

>  <SCORE.SYSTEM.DIHEDRAL>
0

>  <SCORE.SYSTEM.SOLV>
0

>  <SCORE.SYSTEM.norm>
0

>  <SCORE.heavy>
34

>  <SCORE.norm>
-0.994242

>  <RMSD>
8.999

$$$$
1mwl
 OpenBabel11021811403D
libRbt.so/2013.1/901 2013/11/27
 34 36  0  0  0  0  0  0  0  0999 V2000
  -11.7958    9.7846   21.6948 C   0  0  2  0  0  0  0  0  0  0  0  0
  -11.8786    8.9740   20.5613 O   0  0  0  0  0  0  0  0  0  0  0  0
  -13.0763    9.5346   22.5403 C   0  0  2  0  0  0  0  0  0  0  0  0
  -13.1707    8.1185   22.9078 N   0  3  0  0  0  0  0  0  0  0  0  0
  -14.3434   10.0091   21.7702 C   0  0  1  0  0  0  0  0  0  0  0  0
  -15.4627    9.8177   22.5123 O   0  0  0  0  0  0  0  0  0  0  0  0
  -14.1691   11.5206   21.4061 C   0  0  2  0  0  0  0  0  0  0  0  0
  -15.3326   11.9976   20.6983 O   0  0  0  0  0  0  0  0  0  0  0  0
  -12.8742   11.6723   20.5376 C   0  0  2  0  0  0  0  0  0  0  0  0
  -11.6964   11.1708   21.2797 O   0  0  0  0  0  0  0  0  0  0  0  0
  -12.5510   13.1105   20.1168 C   0  0  2  0  0  0  0  0  0  0  0  0
  -12.4036   13.9073   21.2467 O   0  0  0  0  0  0  0  0  0  0  0  0
  -13.6544   13.7671   19.2672 C   0  0  0  0  0  0  0  0  0  0  0  0
   -9.4722    5.4842   20.0227 C   0  0  2  0  0  0  0  0  0  0  0  0
   -8.3684    4.5937   19.5822 N   0  3  0  0  0  0  0  0  0  0  0  0
  -10.2593    6.0337   18.7961 C   0  0  0  0  0  0  0  0  0  0  0  0
  -11.4130    6.9891   19.2721 C   0  0  2  0  0  0  0  0  0  0  0  0
  -12.1619    7.4971   18.0647 N   0  3  0  0  0  0  0  0  0  0  0  0
  -10.8010    8.1630   20.1110 C   0  0  2  0  0  0  0  0  0  0  0  0
  -10.0338    7.5858   21.3256 C   0  0  2  0  0  0  0  0  0  0  0  0
   -9.4607    8.6462   22.0516 O   0  0  0  0  0  0  0  0  0  0  0  0
   -8.8889    6.6578   20.8383 C   0  0  1  0  0  0  0  0  0  0  0  0
   -8.1983    6.1425   21.9670 O   0  0  0  0  0  0  0  0  0  0  0  0
   -6.9649    5.5085   21.7679 C   0  0  2  0  0  0  0  0  0  0  0  0
   -6.4775    5.0052   23.1397 C   0  0  2  0  0  0  0  0  0  0  0  0
   -7.4108    4.0753   23.6466 O   0  0  0  0  0  0  0  0  0  0  0  0
   -6.3249    6.2262   24.1096 C   0  0  1  0  0  0  0  0  0  0  0  0
   -5.8854    5.8213   25.4671 N   0  3  0  0  0  0  0  0  0  0  0  0
   -6.3236    6.8142   26.4810 C   0  0  0  0  0  0  0  0  0  0  0  0
   -5.3026    7.2449   23.4979 C   0  0  2  0  0  0  0  0  0  0  0  0
   -4.0207    6.6110   23.3292 O   0  0  0  0  0  0  0  0  0  0  0  0
   -5.1092    8.4030   24.3517 C   0  0  0  0  0  0  0  0  0  0  0  0
   -5.7650    7.6765   22.0721 C   0  0  0  0  0  0  0  0  0  0  0  0
   -6.0025    6.4734   21.2090 O   0  0  0  0  0  0  0  0  0  0  0  0
  1  2  1  6  0  0  0
  1  3  1  0  0  0  0
  1 10  1  0  0  0  0
  3  4  1  6  0  0  0
  3  5  1  0  0  0  0
  5  6  1  1  0  0  0
  5  7  1  0  0  0  0
  7  8  1  6  0  0  0
  7  9  1  0  0  0  0
  9 10  1  1  0  0  0
  9 11  1  0  0  0  0
 11 12  1  1  0  0  0
 11 13  1  0  0  0  0
 14 15  1  6  0  0  0
 14 16  1  0  0  0  0
 14 22  1  0  0  0  0
 16 17  1  0  0  0  0
 17 18  1  6  0  0  0
 17 19  1  0  0  0  0
 19  2  1  1  0  0  0
 19 20  1  0  0  0  0
 20 21  1  6  0  0  0
 20 22  1  0  0  0  0
 22 23  1  1  0  0  0
 24 23  1  1  0  0  0
 24 25  1  0  0  0  0
 24 34  1  0  0  0  0
 25 26  1  1  0  0  0
 25 27  1  0  0  0  0
 27 28  1  1  0  0  0
 27 30  1  0  0  0  0
 28 29  1  0  0  0  0
 30 31  1  6  0  0  0
 30 32  1  0  0  0  0
 30 33  1  0  0  0  0
 33 34  1  0  0  0  0
M  CHG  4   4   1  15   1  18   1  28   1
M  END
>  <CHROM.1>
-132.59013611,155.62489813,-70.73545326,-65.58177568,156.31559621,58.43050580
73.26091230,88.62164658,56.30895936,-174.07880456,72.91000023,-177.76725937
47.72539762,-34.41135121,-61.91260238,-9.92492382,8.26161362,21.71120445
-2.83894065,0.59822505,-2.50669492

>  <Name>
1mwl

>  <RI>
0

>  <Rbt.Current_Directory>
/home/itssahil/PROJECTS/Mol_Feturizer/New_Systems/rnas/1mwl

>  <Rbt.Executable>
rbdock ($Id: //depot/dev/client3/rdock/2013.1/src/exe/rbdock.cxx#4 $)

>  <Rbt.Library>
libRbt.so (2013.1, Build901 2013/11/27)

>  <Rbt.Parameter_File>
/export/apps/rDock/src/rDock_2013.1_src/data/scripts/dock_solv.prm

>  <Rbt.Receptor>
prm/blind_docking_100.prm

>  <SCORE>
-15.849

>  <SCORE.INTER>
-16.0366

>  <SCORE.INTER.CONST>
1

>  <SCORE.INTER.POLAR>
-1.22513

>  <SCORE.INTER.ROT>
6

>  <SCORE.INTER.SOLV>
22.1049

>  <SCORE.INTER.VDW>
-21.5756

>  <SCORE.INTER.norm>
-0.471666

>  <SCORE.INTRA>
-8.04552

>  <SCORE.INTRA.DIHEDRAL>
-24.5118

>  <SCORE.INTRA.DIHEDRAL.0>
42.0816

>  <SCORE.INTRA.POLAR>
0.230159

>  <SCORE.INTRA.POLAR.0>
-0.254682

>  <SCORE.INTRA.REPUL>
3.63971e-05

>  <SCORE.INTRA.REPUL.0>
0

>  <SCORE.INTRA.SOLV>
-0.636495

>  <SCORE.INTRA.SOLV.lig_0>
-109.803

>  <SCORE.INTRA.VDW>
3.74588

>  <SCORE.INTRA.VDW.0>
0.32176

>  <SCORE.INTRA.norm>
-0.236633

>  <SCORE.RESTR>
8.23315

>  <SCORE.RESTR.CAVITY>
8.23315

>  <SCORE.RESTR.norm>
0.242151

>  <SCORE.SYSTEM>
0

>  <SCORE.SYSTEM.CONST>
0

>  <SCORE.SYSTEM.DIHEDRAL>
0

>  <SCORE.SYSTEM.SOLV>
0

>  <SCORE.SYSTEM.norm>
0

>  <SCORE.heavy>
34

>  <SCORE.norm>
-0.466148

>  <RMSD>
9.021

$$$$
1mwl
 OpenBabel11021811403D
libRbt.so/2013.1/901 2013/11/27
 34 36  0  0  0  0  0  0  0  0999 V2000
  -18.4710   10.0472   20.9334 C   0  0  2  0  0  0  0  0  0  0  0  0
  -17.3547    9.5100   20.2900 O   0  0  0  0  0  0  0  0  0  0  0  0
  -19.7332    9.4253   20.2724 C   0  0  2  0  0  0  0  0  0  0  0  0
  -19.7017    7.9649   20.3978 N   0  3  0  0  0  0  0  0  0  0  0  0
  -19.8472    9.8671   18.7840 C   0  0  1  0  0  0  0  0  0  0  0  0
  -20.9603    9.3489   18.2074 O   0  0  0  0  0  0  0  0  0  0  0  0
  -19.8679   11.4305   18.7278 C   0  0  2  0  0  0  0  0  0  0  0  0
  -19.9831   11.8761   17.3602 O   0  0  0  0  0  0  0  0  0  0  0  0
  -18.5531   11.9651   19.3905 C   0  0  2  0  0  0  0  0  0  0  0  0
  -18.4525   11.4903   20.7883 O   0  0  0  0  0  0  0  0  0  0  0  0
  -18.4339   13.4928   19.4338 C   0  0  2  0  0  0  0  0  0  0  0  0
  -18.5549   14.0086   18.1483 O   0  0  0  0  0  0  0  0  0  0  0  0
  -17.0802   13.9907   19.9724 C   0  0  0  0  0  0  0  0  0  0  0  0
  -13.1953    9.3845   21.2612 C   0  0  2  0  0  0  0  0  0  0  0  0
  -11.9222    9.0387   21.9432 N   0  3  0  0  0  0  0  0  0  0  0  0
  -14.1579   10.1263   22.2354 C   0  0  0  0  0  0  0  0  0  0  0  0
  -15.5087   10.4712   21.5098 C   0  0  2  0  0  0  0  0  0  0  0  0
  -16.4151   11.1960   22.4740 N   0  3  0  0  0  0  0  0  0  0  0  0
  -16.1643    9.1501   20.9793 C   0  0  2  0  0  0  0  0  0  0  0  0
  -15.1881    8.4417   20.0086 C   0  0  2  0  0  0  0  0  0  0  0  0
  -15.7731    7.2409   19.5658 O   0  0  0  0  0  0  0  0  0  0  0  0
  -13.8664    8.0941   20.7445 C   0  0  1  0  0  0  0  0  0  0  0  0
  -12.9884    7.4438   19.8373 O   0  0  0  0  0  0  0  0  0  0  0  0
  -13.1648    6.0751   19.5964 C   0  0  2  0  0  0  0  0  0  0  0  0
  -12.2188    5.3136   20.5442 C   0  0  2  0  0  0  0  0  0  0  0  0
  -12.5706    5.6078   21.8792 O   0  0  0  0  0  0  0  0  0  0  0  0
  -10.7415    5.7443   20.2495 C   0  0  1  0  0  0  0  0  0  0  0  0
   -9.7660    5.0750   21.1443 N   0  3  0  0  0  0  0  0  0  0  0  0
   -8.9207    6.0754   21.8447 C   0  0  0  0  0  0  0  0  0  0  0  0
  -10.4010    5.4255   18.7530 C   0  0  2  0  0  0  0  0  0  0  0  0
  -10.5403    4.0132   18.5090 O   0  0  0  0  0  0  0  0  0  0  0  0
   -9.0395    5.7964   18.4123 C   0  0  0  0  0  0  0  0  0  0  0  0
  -11.4224    6.1323   17.8094 C   0  0  0  0  0  0  0  0  0  0  0  0
  -12.8276    5.7770   18.1939 O   0  0  0  0  0  0  0  0  0  0  0  0
  1  2  1  6  0  0  0
  1  3  1  0  0  0  0
  1 10  1  0  0  0  0
  3  4  1  6  0  0  0
  3  5  1  0  0  0  0
  5  6  1  1  0  0  0
  5  7  1  0  0  0  0
  7  8  1  6  0  0  0
  7  9  1  0  0  0  0
  9 10  1  1  0  0  0
  9 11  1  0  0  0  0
 11 12  1  6  0  0  0
 11 13  1  0  0  0  0
 14 15  1  1  0  0  0
 14 16  1  0  0  0  0
 14 22  1  0  0  0  0
 16 17  1  0  0  0  0
 17 18  1  1  0  0  0
 17 19  1  0  0  0  0
 19  2  1  6  0  0  0
 19 20  1  0  0  0  0
 20 21  1  1  0  0  0
 20 22  1  0  0  0  0
 22 23  1  6  0  0  0
 24 23  1  6  0  0  0
 24 25  1  0  0  0  0
 24 34  1  0  0  0  0
 25 26  1  1  0  0  0
 25 27  1  0  0  0  0
 27 28  1  1  0  0  0
 27 30  1  0  0  0  0
 28 29  1  0  0  0  0
 30 31  1  6  0  0  0
 30 32  1  0  0  0  0
 30 33  1  0  0  0  0
 33 34  1  0  0  0  0
M  CHG  4   4   1  15   1  18   1  28   1
M  END
>  <CHROM.1>
-140.93860457,-67.26601137,32.17337513,-72.15065393,72.28754785,-56.02308491
173.64038385,-54.97729811,45.48864127,169.35016243,158.59866031,-94.73979341
61.87232732,-5.14849286,-65.28980787,-15.12839465,8.69363940,20.00029834
-2.65163058,0.37702025,-2.63724834

>  <Name>
1mwl

>  <RI>
0

>  <Rbt.Current_Directory>
/home/itssahil/PROJECTS/Mol_Feturizer/New_Systems/rnas/1mwl

>  <Rbt.Executable>
rbdock ($Id: //depot/dev/client3/rdock/2013.1/src/exe/rbdock.cxx#4 $)

>  <Rbt.Library>
libRbt.so (2013.1, Build901 2013/11/27)

>  <Rbt.Parameter_File>
/export/apps/rDock/src/rDock_2013.1_src/data/scripts/dock_solv.prm

>  <Rbt.Receptor>
prm/pocket_docking_8.prm

>  <SCORE>
-38.9925

>  <SCORE.INTER>
-24.451

>  <SCORE.INTER.CONST>
1

>  <SCORE.INTER.POLAR>
-4.73035

>  <SCORE.INTER.ROT>
6

>  <SCORE.INTER.SOLV>
13.6267

>  <SCORE.INTER.VDW>
-12.6751

>  <SCORE.INTER.norm>
-0.719148

>  <SCORE.INTRA>
-14.5415

>  <SCORE.INTRA.DIHEDRAL>
-21.9805

>  <SCORE.INTRA.DIHEDRAL.0>
42.0816

>  <SCORE.INTRA.POLAR>
-0.881091

>  <SCORE.INTRA.POLAR.0>
-0.254682

>  <SCORE.INTRA.REPUL>
0

>  <SCORE.INTRA.REPUL.0>
0

>  <SCORE.INTRA.SOLV>
2.51567

>  <SCORE.INTRA.SOLV.lig_0>
-109.803

>  <SCORE.INTRA.VDW>
-1.81333

>  <SCORE.INTRA.VDW.0>
0.32176

>  <SCORE.INTRA.norm>
-0.42769

>  <SCORE.RESTR>
0

>  <SCORE.RESTR.CAVITY>
0

>  <SCORE.RESTR.norm>
0

>  <SCORE.SYSTEM>
0

>  <SCORE.SYSTEM.CONST>
0

>  <SCORE.SYSTEM.DIHEDRAL>
0

>  <SCORE.SYSTEM.SOLV>
0

>  <SCORE.SYSTEM.norm>
0

>  <SCORE.heavy>
34

>  <SCORE.norm>
-1.14684

>  <RMSD>
9.022

$$$$
1mwl
 OpenBabel11021811403D
libRbt.so/2013.1/901 2013/11/27
 34 36  0  0  0  0  0  0  0  0999 V2000
  -11.5218    8.9643   19.8104 C   0  0  2  0  0  0  0  0  0  0  0  0
  -12.1096    7.7731   20.2398 O   0  0  0  0  0  0  0  0  0  0  0  0
  -11.6431    9.9888   20.9734 C   0  0  2  0  0  0  0  0  0  0  0  0
  -10.9773    9.4723   22.1732 N   0  3  0  0  0  0  0  0  0  0  0  0
  -13.1366   10.3283   21.2519 C   0  0  1  0  0  0  0  0  0  0  0  0
  -13.2493   11.2414   22.2488 O   0  0  0  0  0  0  0  0  0  0  0  0
  -13.7812   10.8643   19.9310 C   0  0  2  0  0  0  0  0  0  0  0  0
  -15.1667   11.1992   20.1556 O   0  0  0  0  0  0  0  0  0  0  0  0
  -13.6350    9.7615   18.8282 C   0  0  2  0  0  0  0  0  0  0  0  0
  -12.2083    9.4291   18.6201 O   0  0  0  0  0  0  0  0  0  0  0  0
  -14.2025   10.1480   17.4576 C   0  0  2  0  0  0  0  0  0  0  0  0
  -13.9033   11.4782   17.1851 O   0  0  0  0  0  0  0  0  0  0  0  0
  -15.7343   10.0234   17.3671 C   0  0  0  0  0  0  0  0  0  0  0  0
  -10.3222    4.4237   22.2009 C   0  0  2  0  0  0  0  0  0  0  0  0
   -9.5662    3.1647   22.4216 N   0  3  0  0  0  0  0  0  0  0  0  0
  -11.5596    4.1705   21.2895 C   0  0  0  0  0  0  0  0  0  0  0  0
  -12.3420    5.5119   21.0472 C   0  0  2  0  0  0  0  0  0  0  0  0
  -13.5380    5.2335   20.1704 N   0  3  0  0  0  0  0  0  0  0  0  0
  -11.3788    6.5636   20.3971 C   0  0  2  0  0  0  0  0  0  0  0  0
  -10.1654    6.7997   21.3294 C   0  0  2  0  0  0  0  0  0  0  0  0
   -9.2917    7.7192   20.7202 O   0  0  0  0  0  0  0  0  0  0  0  0
   -9.3952    5.4695   21.5455 C   0  0  1  0  0  0  0  0  0  0  0  0
   -8.2868    5.7098   22.4001 O   0  0  0  0  0  0  0  0  0  0  0  0
   -6.9995    5.7070   21.8474 C   0  0  2  0  0  0  0  0  0  0  0  0
   -5.9957    5.6586   23.0148 C   0  0  2  0  0  0  0  0  0  0  0  0
   -6.1986    4.4689   23.7469 O   0  0  0  0  0  0  0  0  0  0  0  0
   -6.2070    6.9159   23.9256 C   0  0  1  0  0  0  0  0  0  0  0  0
   -5.2944    6.9297   25.0948 N   0  3  0  0  0  0  0  0  0  0  0  0
   -6.0649    6.9562   26.3644 C   0  0  0  0  0  0  0  0  0  0  0  0
   -5.9993    8.2125   23.0695 C   0  0  2  0  0  0  0  0  0  0  0  0
   -4.6636    8.2360   22.5322 O   0  0  0  0  0  0  0  0  0  0  0  0
   -6.1760    9.4198   23.8561 C   0  0  0  0  0  0  0  0  0  0  0  0
   -6.9615    8.2032   21.8418 C   0  0  0  0  0  0  0  0  0  0  0  0
   -6.8025    6.9347   21.0579 O   0  0  0  0  0  0  0  0  0  0  0  0
  1  2  1  1  0  0  0
  1  3  1  0  0  0  0
  1 10  1  0  0  0  0
  3  4  1  1  0  0  0
  3  5  1  0  0  0  0
  5  6  1  1  0  0  0
  5  7  1  0  0  0  0
  7  8  1  1  0  0  0
  7  9  1  0  0  0  0
  9 10  1  6  0  0  0
  9 11  1  0  0  0  0
 11 12  1  1  0  0  0
 11 13  1  0  0  0  0
 14 15  1  6  0  0  0
 14 16  1  0  0  0  0
 14 22  1  0  0  0  0
 16 17  1  0  0  0  0
 17 18  1  6  0  0  0
 17 19  1  0  0  0  0
 19  2  1  1  0  0  0
 19 20  1  0  0  0  0
 20 21  1  6  0  0  0
 20 22  1  0  0  0  0
 22 23  1  1  0  0  0
 24 23  1  1  0  0  0
 24 25  1  0  0  0  0
 24 34  1  0  0  0  0
 25 26  1  1  0  0  0
 25 27  1  0  0  0  0
 27 28  1  1  0  0  0
 27 30  1  0  0  0  0
 28 29  1  0  0  0  0
 30 31  1  6  0  0  0
 30 32  1  0  0  0  0
 30 33  1  0  0  0  0
 33 34  1  0  0  0  0
M  CHG  4   4   1  15   1  18   1  28   1
M  END
>  <CHROM.1>
-116.32482309,173.51913035,48.00502802,-60.97600320,65.44123103,39.93690764
168.01271849,-78.18664245,63.60645541,-59.31538402,132.56441447,-166.96958064
-55.00811063,-1.03564276,156.12384538,-10.13225631,7.75079043,21.36398377
-2.72817201,0.50732505,3.09742029

>  <Name>
1mwl

>  <RI>
0

>  <Rbt.Current_Directory>
/home/itssahil/PROJECTS/Mol_Feturizer/New_Systems/rnas/1mwl

>  <Rbt.Executable>
rbdock ($Id: //depot/dev/client3/rdock/2013.1/src/exe/rbdock.cxx#4 $)

>  <Rbt.Library>
libRbt.so (2013.1, Build901 2013/11/27)

>  <Rbt.Parameter_File>
/export/apps/rDock/src/rDock_2013.1_src/data/scripts/dock_solv.prm

>  <Rbt.Receptor>
prm/blind_docking_100.prm

>  <SCORE>
-30.7664

>  <SCORE.INTER>
-31.967

>  <SCORE.INTER.CONST>
1

>  <SCORE.INTER.POLAR>
-4.48644

>  <SCORE.INTER.ROT>
6

>  <SCORE.INTER.SOLV>
23.0469

>  <SCORE.INTER.VDW>
-21.6388

>  <SCORE.INTER.norm>
-0.940206

>  <SCORE.INTRA>
-11.4665

>  <SCORE.INTRA.DIHEDRAL>
-18.1462

>  <SCORE.INTRA.DIHEDRAL.0>
42.0816

>  <SCORE.INTRA.POLAR>
-0.634426

>  <SCORE.INTRA.POLAR.0>
-0.254682

>  <SCORE.INTRA.REPUL>
0

>  <SCORE.INTRA.REPUL.0>
0

>  <SCORE.INTRA.SOLV>
1.36114

>  <SCORE.INTRA.SOLV.lig_0>
-109.803

>  <SCORE.INTRA.VDW>
-0.916942

>  <SCORE.INTRA.VDW.0>
0.32176

>  <SCORE.INTRA.norm>
-0.337251

>  <SCORE.RESTR>
12.6671

>  <SCORE.RESTR.CAVITY>
12.6671

>  <SCORE.RESTR.norm>
0.372563

>  <SCORE.SYSTEM>
0

>  <SCORE.SYSTEM.CONST>
0

>  <SCORE.SYSTEM.DIHEDRAL>
0

>  <SCORE.SYSTEM.SOLV>
0

>  <SCORE.SYSTEM.norm>
0

>  <SCORE.heavy>
34

>  <SCORE.norm>
-0.904894

>  <RMSD>
9.050

$$$$
1mwl
 OpenBabel11021811403D
libRbt.so/2013.1/901 2013/11/27
 34 36  0  0  0  0  0  0  0  0999 V2000
  -11.2781    9.9341   21.5218 C   0  0  2  0  0  0  0  0  0  0  0  0
  -10.9949    9.3772   20.2735 O   0  0  0  0  0  0  0  0  0  0  0  0
  -12.6497    9.3667   21.9842 C   0  0  2  0  0  0  0  0  0  0  0  0
  -12.5922    7.9036   22.0580 N   0  3  0  0  0  0  0  0  0  0  0  0
  -13.7888    9.8453   21.0372 C   0  0  1  0  0  0  0  0  0  0  0  0
  -14.9926    9.3749   21.4491 O   0  0  0  0  0  0  0  0  0  0  0  0
  -13.7848   11.4093   21.0025 C   0  0  2  0  0  0  0  0  0  0  0  0
  -14.8372   11.8890   20.1396 O   0  0  0  0  0  0  0  0  0  0  0  0
  -12.3791   11.8879   20.5038 C   0  0  2  0  0  0  0  0  0  0  0  0
  -11.3160   11.3789   21.3983 O   0  0  0  0  0  0  0  0  0  0  0  0
  -12.2081   13.4098   20.4367 C   0  0  2  0  0  0  0  0  0  0  0  0
  -10.9652   13.7645   20.9494 O   0  0  0  0  0  0  0  0  0  0  0  0
  -13.2518   14.1846   21.2617 C   0  0  0  0  0  0  0  0  0  0  0  0
   -9.4580    5.3946   20.4644 C   0  0  2  0  0  0  0  0  0  0  0  0
   -8.5477    4.2316   20.3089 N   0  3  0  0  0  0  0  0  0  0  0  0
   -9.8728    5.9590   19.0733 C   0  0  0  0  0  0  0  0  0  0  0  0
  -10.8209    7.2002   19.2491 C   0  0  2  0  0  0  0  0  0  0  0  0
  -11.2125    7.7182   17.8871 N   0  3  0  0  0  0  0  0  0  0  0  0
  -10.0886    8.2958   20.0975 C   0  0  2  0  0  0  0  0  0  0  0  0
   -9.6975    7.7076   21.4752 C   0  0  2  0  0  0  0  0  0  0  0  0
   -9.0114    8.6890   22.2143 O   0  0  0  0  0  0  0  0  0  0  0  0
   -8.7494    6.4936   21.2846 C   0  0  1  0  0  0  0  0  0  0  0  0
   -8.4022    5.9725   22.5591 O   0  0  0  0  0  0  0  0  0  0  0  0
   -7.5255    4.8815   22.6226 C   0  0  2  0  0  0  0  0  0  0  0  0
   -7.2995    4.5566   24.1112 C   0  0  2  0  0  0  0  0  0  0  0  0
   -8.5344    4.2056   24.6981 O   0  0  0  0  0  0  0  0  0  0  0  0
   -6.6811    5.8088   24.8215 C   0  0  1  0  0  0  0  0  0  0  0  0
   -6.4592    5.5871   26.2712 N   0  3  0  0  0  0  0  0  0  0  0  0
   -6.5385    6.8682   27.0186 C   0  0  0  0  0  0  0  0  0  0  0  0
   -5.3276    6.1804   24.1238 C   0  0  2  0  0  0  0  0  0  0  0  0
   -4.4070    5.0776   24.2218 O   0  0  0  0  0  0  0  0  0  0  0  0
   -4.6958    7.3340   24.7381 C   0  0  0  0  0  0  0  0  0  0  0  0
   -5.5589    6.4192   22.5997 C   0  0  0  0  0  0  0  0  0  0  0  0
   -6.2492    5.2405   21.9809 O   0  0  0  0  0  0  0  0  0  0  0  0
  1  2  1  6  0  0  0
  1  3  1  0  0  0  0
  1 10  1  0  0  0  0
  3  4  1  6  0  0  0
  3  5  1  0  0  0  0
  5  6  1  1  0  0  0
  5  7  1  0  0  0  0
  7  8  1  6  0  0  0
  7  9  1  0  0  0  0
  9 10  1  1  0  0  0
  9 11  1  0  0  0  0
 11 12  1  1  0  0  0
 11 13  1  0  0  0  0
 14 15  1  6  0  0  0
 14 16  1  0  0  0  0
 14 22  1  0  0  0  0
 16 17  1  0  0  0  0
 17 18  1  6  0  0  0
 17 19  1  0  0  0  0
 19  2  1  1  0  0  0
 19 20  1  0  0  0  0
 20 21  1  1  0  0  0
 20 22  1  0  0  0  0
 22 23  1  1  0  0  0
 24 23  1  1  0  0  0
 24 25  1  0  0  0  0
 24 34  1  0  0  0  0
 25 26  1  1  0  0  0
 25 27  1  0  0  0  0
 27 28  1  1  0  0  0
 27 30  1  0  0  0  0
 28 29  1  0  0  0  0
 30 31  1  1  0  0  0
 30 32  1  0  0  0  0
 30 33  1  0  0  0  0
 33 34  1  0  0  0  0
M  CHG  4   4   1  15   1  18   1  28   1
M  END
>  <CHROM.1>
-101.43973235,129.07860783,173.47098374,-66.19478865,-59.91082710,136.63793310
-44.52022063,-24.22744066,65.92205424,-31.60314111,61.13192383,178.50159139
-53.73116626,-31.70789125,52.54045437,-9.72331218,8.03827424,21.94171660
-2.78863470,0.73678838,-2.58305581

>  <Name>
1mwl

>  <RI>
0

>  <Rbt.Current_Directory>
/home/itssahil/PROJECTS/Mol_Feturizer/New_Systems/rnas/1mwl

>  <Rbt.Executable>
rbdock ($Id: //depot/dev/client3/rdock/2013.1/src/exe/rbdock.cxx#4 $)

>  <Rbt.Library>
libRbt.so (2013.1, Build901 2013/11/27)

>  <Rbt.Parameter_File>
/export/apps/rDock/src/rDock_2013.1_src/data/scripts/dock_solv.prm

>  <Rbt.Receptor>
prm/blind_docking_100.prm

>  <SCORE>
-14.2004

>  <SCORE.INTER>
-18.2076

>  <SCORE.INTER.CONST>
1

>  <SCORE.INTER.POLAR>
-2.42859

>  <SCORE.INTER.ROT>
6

>  <SCORE.INTER.SOLV>
27.775

>  <SCORE.INTER.VDW>
-20.9014

>  <SCORE.INTER.norm>
-0.535517

>  <SCORE.INTRA>
-1.50426

>  <SCORE.INTRA.DIHEDRAL>
-16.0304

>  <SCORE.INTRA.DIHEDRAL.0>
42.0816

>  <SCORE.INTRA.POLAR>
-0.623979

>  <SCORE.INTRA.POLAR.0>
-0.254682

>  <SCORE.INTRA.REPUL>
0

>  <SCORE.INTRA.REPUL.0>
0

>  <SCORE.INTRA.SOLV>
2.12349

>  <SCORE.INTRA.SOLV.lig_0>
-109.803

>  <SCORE.INTRA.VDW>
7.57071

>  <SCORE.INTRA.VDW.0>
0.32176

>  <SCORE.INTRA.norm>
-0.044243

>  <SCORE.RESTR>
5.51147

>  <SCORE.RESTR.CAVITY>
5.51147

>  <SCORE.RESTR.norm>
0.162102

>  <SCORE.SYSTEM>
0

>  <SCORE.SYSTEM.CONST>
0

>  <SCORE.SYSTEM.DIHEDRAL>
0

>  <SCORE.SYSTEM.SOLV>
0

>  <SCORE.SYSTEM.norm>
0

>  <SCORE.heavy>
34

>  <SCORE.norm>
-0.417658

>  <RMSD>
9.090

$$$$
1mwl
 OpenBabel11021811403D
libRbt.so/2013.1/901 2013/11/27
 34 36  0  0  0  0  0  0  0  0999 V2000
  -12.7651    8.4548   19.8476 C   0  0  2  0  0  0  0  0  0  0  0  0
  -12.3660    7.7499   20.9844 O   0  0  0  0  0  0  0  0  0  0  0  0
  -11.7573    9.6212   19.6455 C   0  0  2  0  0  0  0  0  0  0  0  0
  -10.3981    9.0936   19.4913 N   0  3  0  0  0  0  0  0  0  0  0  0
  -11.8454   10.6329   20.8254 C   0  0  1  0  0  0  0  0  0  0  0  0
  -10.9867   11.6672   20.6434 O   0  0  0  0  0  0  0  0  0  0  0  0
  -13.3193   11.1460   20.9338 C   0  0  2  0  0  0  0  0  0  0  0  0
  -13.4358   12.0958   22.0139 O   0  0  0  0  0  0  0  0  0  0  0  0
  -14.2559    9.9109   21.1602 C   0  0  2  0  0  0  0  0  0  0  0  0
  -14.1147    8.9480   20.0456 O   0  0  0  0  0  0  0  0  0  0  0  0
  -15.7473   10.2495   21.2645 C   0  0  2  0  0  0  0  0  0  0  0  0
  -16.1086   11.0988   20.2245 O   0  0  0  0  0  0  0  0  0  0  0  0
  -16.1246   10.9783   22.5671 C   0  0  0  0  0  0  0  0  0  0  0  0
  -10.4125    4.1951   22.3288 C   0  0  2  0  0  0  0  0  0  0  0  0
   -9.6180    2.9405   22.3207 N   0  3  0  0  0  0  0  0  0  0  0  0
  -11.6843    4.0473   21.4419 C   0  0  0  0  0  0  0  0  0  0  0  0
  -12.5081    5.3857   21.4424 C   0  0  2  0  0  0  0  0  0  0  0  0
  -13.7364    5.2089   20.5841 N   0  3  0  0  0  0  0  0  0  0  0  0
  -11.6007    6.5531   20.9226 C   0  0  2  0  0  0  0  0  0  0  0  0
  -10.3515    6.6801   21.8284 C   0  0  2  0  0  0  0  0  0  0  0  0
   -9.5284    7.7080   21.3323 O   0  0  0  0  0  0  0  0  0  0  0  0
   -9.5413    5.3564   21.8043 C   0  0  1  0  0  0  0  0  0  0  0  0
   -8.4007    5.4963   22.6386 O   0  0  0  0  0  0  0  0  0  0  0  0
   -7.1292    5.3624   22.0659 C   0  0  2  0  0  0  0  0  0  0  0  0
   -6.1065    5.3178   23.2169 C   0  0  2  0  0  0  0  0  0  0  0  0
   -6.3788    4.1973   24.0310 O   0  0  0  0  0  0  0  0  0  0  0  0
   -6.2068    6.6448   24.0440 C   0  0  1  0  0  0  0  0  0  0  0  0
   -5.2706    6.6689   25.1942 N   0  3  0  0  0  0  0  0  0  0  0  0
   -5.9534    7.1572   26.4194 C   0  0  0  0  0  0  0  0  0  0  0  0
   -5.9247    7.8631   23.0989 C   0  0  2  0  0  0  0  0  0  0  0  0
   -4.6027    7.7528   22.5390 O   0  0  0  0  0  0  0  0  0  0  0  0
   -5.9968    9.1295   23.8049 C   0  0  0  0  0  0  0  0  0  0  0  0
   -6.9113    7.8432   21.8909 C   0  0  0  0  0  0  0  0  0  0  0  0
   -6.8612    6.5174   21.1920 O   0  0  0  0  0  0  0  0  0  0  0  0
  1  2  1  1  0  0  0
  1  3  1  0  0  0  0
  1 10  1  0  0  0  0
  3  4  1  1  0  0  0
  3  5  1  0  0  0  0
  5  6  1  6  0  0  0
  5  7  1  0  0  0  0
  7  8  1  1  0  0  0
  7  9  1  0  0  0  0
  9 10  1  6  0  0  0
  9 11  1  0  0  0  0
 11 12  1  6  0  0  0
 11 13  1  0  0  0  0
 14 15  1  6  0  0  0
 14 16  1  0  0  0  0
 14 22  1  0  0  0  0
 16 17  1  0  0  0  0
 17 18  1  6  0  0  0
 17 19  1  0  0  0  0
 19  2  1  1  0  0  0
 19 20  1  0  0  0  0
 20 21  1  6  0  0  0
 20 22  1  0  0  0  0
 22 23  1  1  0  0  0
 24 23  1  1  0  0  0
 24 25  1  0  0  0  0
 24 34  1  0  0  0  0
 25 26  1  1  0  0  0
 25 27  1  0  0  0  0
 27 28  1  1  0  0  0
 27 30  1  0  0  0  0
 28 29  1  0  0  0  0
 30 31  1  6  0  0  0
 30 32  1  0  0  0  0
 30 33  1  0  0  0  0
 33 34  1  0  0  0  0
M  CHG  4   4   1  15   1  18   1  28   1
M  END
>  <CHROM.1>
-98.20068630,-113.34278222,-10.84262936,64.02696893,-60.64602877,47.78564372
62.80846338,-83.65958419,62.25261627,88.93755841,120.60229486,-170.47320199
-58.77652022,-14.70234990,61.35598106,-10.22313714,7.65078991,21.87351314
2.70049285,-0.33422146,0.01291179

>  <Name>
1mwl

>  <RI>
0

>  <Rbt.Current_Directory>
/home/itssahil/PROJECTS/Mol_Feturizer/New_Systems/rnas/1mwl

>  <Rbt.Executable>
rbdock ($Id: //depot/dev/client3/rdock/2013.1/src/exe/rbdock.cxx#4 $)

>  <Rbt.Library>
libRbt.so (2013.1, Build901 2013/11/27)

>  <Rbt.Parameter_File>
/export/apps/rDock/src/rDock_2013.1_src/data/scripts/dock_solv.prm

>  <Rbt.Receptor>
prm/blind_docking_100.prm

>  <SCORE>
-15.625

>  <SCORE.INTER>
-22.7956

>  <SCORE.INTER.CONST>
1

>  <SCORE.INTER.POLAR>
-3.48865

>  <SCORE.INTER.ROT>
6

>  <SCORE.INTER.SOLV>
22.8753

>  <SCORE.INTER.VDW>
-18.7933

>  <SCORE.INTER.norm>
-0.670457

>  <SCORE.INTRA>
-4.9132

>  <SCORE.INTRA.DIHEDRAL>
-10.6217

>  <SCORE.INTRA.DIHEDRAL.0>
42.0816

>  <SCORE.INTRA.POLAR>
0.0670726

>  <SCORE.INTRA.POLAR.0>
-0.254682

>  <SCORE.INTRA.REPUL>
0

>  <SCORE.INTRA.REPUL.0>
0

>  <SCORE.INTRA.SOLV>
2.55724

>  <SCORE.INTRA.SOLV.lig_0>
-109.803

>  <SCORE.INTRA.VDW>
-1.10905

>  <SCORE.INTRA.VDW.0>
0.32176

>  <SCORE.INTRA.norm>
-0.144506

>  <SCORE.RESTR>
12.0838

>  <SCORE.RESTR.CAVITY>
12.0838

>  <SCORE.RESTR.norm>
0.355406

>  <SCORE.SYSTEM>
0

>  <SCORE.SYSTEM.CONST>
0

>  <SCORE.SYSTEM.DIHEDRAL>
0

>  <SCORE.SYSTEM.SOLV>
0

>  <SCORE.SYSTEM.norm>
0

>  <SCORE.heavy>
34

>  <SCORE.norm>
-0.459558

>  <RMSD>
9.090

$$$$
1mwl
 OpenBabel11021811403D
libRbt.so/2013.1/901 2013/11/27
 34 36  0  0  0  0  0  0  0  0999 V2000
  -11.3699    8.6398   18.4751 C   0  0  2  0  0  0  0  0  0  0  0  0
  -12.0036    7.6797   19.2658 O   0  0  0  0  0  0  0  0  0  0  0  0
  -11.7318   10.0351   19.0574 C   0  0  2  0  0  0  0  0  0  0  0  0
  -11.2962   10.1282   20.4542 N   0  3  0  0  0  0  0  0  0  0  0  0
  -13.2579   10.3090   18.9170 C   0  0  1  0  0  0  0  0  0  0  0  0
  -13.5776   11.5357   19.3999 O   0  0  0  0  0  0  0  0  0  0  0  0
  -13.6501   10.1858   17.4075 C   0  0  2  0  0  0  0  0  0  0  0  0
  -15.0598   10.4440   17.2387 O   0  0  0  0  0  0  0  0  0  0  0  0
  -13.2735    8.7469   16.9161 C   0  0  2  0  0  0  0  0  0  0  0  0
  -11.8266    8.5018   17.1053 O   0  0  0  0  0  0  0  0  0  0  0  0
  -13.5775    8.4755   15.4383 C   0  0  2  0  0  0  0  0  0  0  0  0
  -14.9423    8.6095   15.2087 O   0  0  0  0  0  0  0  0  0  0  0  0
  -13.2010    7.0540   14.9823 C   0  0  0  0  0  0  0  0  0  0  0  0
  -10.5923    4.6843   21.9668 C   0  0  2  0  0  0  0  0  0  0  0  0
   -9.9279    3.4617   22.4855 N   0  3  0  0  0  0  0  0  0  0  0  0
  -11.7464    4.3114   20.9896 C   0  0  0  0  0  0  0  0  0  0  0  0
  -12.4307    5.6119   20.4323 C   0  0  2  0  0  0  0  0  0  0  0  0
  -13.5483    5.2190   19.4978 N   0  3  0  0  0  0  0  0  0  0  0  0
  -11.3554    6.4951   19.7112 C   0  0  2  0  0  0  0  0  0  0  0  0
  -10.2282    6.8558   20.7093 C   0  0  2  0  0  0  0  0  0  0  0  0
   -9.2526    7.6196   20.0423 O   0  0  0  0  0  0  0  0  0  0  0  0
   -9.5528    5.5620   21.2377 C   0  0  1  0  0  0  0  0  0  0  0  0
   -8.5221    5.9163   22.1481 O   0  0  0  0  0  0  0  0  0  0  0  0
   -7.1943    5.8916   21.7021 C   0  0  2  0  0  0  0  0  0  0  0  0
   -6.2907    5.7992   22.9462 C   0  0  2  0  0  0  0  0  0  0  0  0
   -6.5798    4.6025   23.6368 O   0  0  0  0  0  0  0  0  0  0  0  0
   -6.5472    7.0457   23.8603 C   0  0  1  0  0  0  0  0  0  0  0  0
   -5.7333    7.0175   25.1000 N   0  3  0  0  0  0  0  0  0  0  0  0
   -4.2992    6.7946   24.7840 C   0  0  0  0  0  0  0  0  0  0  0  0
   -6.2406    8.3511   23.0486 C   0  0  2  0  0  0  0  0  0  0  0  0
   -4.8652    8.3513   22.6223 O   0  0  0  0  0  0  0  0  0  0  0  0
   -6.4536    9.5488   23.8407 C   0  0  0  0  0  0  0  0  0  0  0  0
   -7.0991    8.3859   21.7466 C   0  0  0  0  0  0  0  0  0  0  0  0
   -6.9054    7.1274   20.9545 O   0  0  0  0  0  0  0  0  0  0  0  0
  1  2  1  1  0  0  0
  1  3  1  0  0  0  0
  1 10  1  0  0  0  0
  3  4  1  1  0  0  0
  3  5  1  0  0  0  0
  5  6  1  6  0  0  0
  5  7  1  0  0  0  0
  7  8  1  1  0  0  0
  7  9  1  0  0  0  0
  9 10  1  6  0  0  0
  9 11  1  0  0  0  0
 11 12  1  1  0  0  0
 11 13  1  0  0  0  0
 14 15  1  6  0  0  0
 14 16  1  0  0  0  0
 14 22  1  0  0  0  0
 16 17  1  0  0  0  0
 17 18  1  6  0  0  0
 17 19  1  0  0  0  0
 19  2  1  1  0  0  0
 19 20  1  0  0  0  0
 20 21  1  6  0  0  0
 20 22  1  0  0  0  0
 22 23  1  1  0  0  0
 24 23  1  1  0  0  0
 24 25  1  0  0  0  0
 24 34  1  0  0  0  0
 25 26  1  1  0  0  0
 25 27  1  0  0  0  0
 27 28  1  1  0  0  0
 27 30  1  0  0  0  0
 28 29  1  0  0  0  0
 30 31  1  6  0  0  0
 30 32  1  0  0  0  0
 30 33  1  0  0  0  0
 33 34  1  0  0  0  0
M  CHG  4   4   1  15   1  18   1  28   1
M  END
>  <CHROM.1>
-135.76507743,-174.02172510,-163.90342415,60.99075362,53.22356344,-61.12011019
150.46809293,169.60683940,-56.37566420,-50.54823449,138.55908631,-159.61875137
34.82140011,171.53406335,153.92634431,-10.13097352,7.50996852,20.38950437
-2.77553617,0.65256798,2.92661798

>  <Name>
1mwl

>  <RI>
0

>  <Rbt.Current_Directory>
/home/itssahil/PROJECTS/Mol_Feturizer/New_Systems/rnas/1mwl

>  <Rbt.Executable>
rbdock ($Id: //depot/dev/client3/rdock/2013.1/src/exe/rbdock.cxx#4 $)

>  <Rbt.Library>
libRbt.so (2013.1, Build901 2013/11/27)

>  <Rbt.Parameter_File>
/export/apps/rDock/src/rDock_2013.1_src/data/scripts/dock_solv.prm

>  <Rbt.Receptor>
prm/pocket_docking_5.prm

>  <SCORE>
-44.8723

>  <SCORE.INTER>
-36.4873

>  <SCORE.INTER.CONST>
1

>  <SCORE.INTER.POLAR>
-5.62261

>  <SCORE.INTER.ROT>
6

>  <SCORE.INTER.SOLV>
18.9413

>  <SCORE.INTER.VDW>
-19.4966

>  <SCORE.INTER.norm>
-1.07316

>  <SCORE.INTRA>
-8.38492

>  <SCORE.INTRA.DIHEDRAL>
-17.7164

>  <SCORE.INTRA.DIHEDRAL.0>
42.0816

>  <SCORE.INTRA.POLAR>
0.216754

>  <SCORE.INTRA.POLAR.0>
-0.254682

>  <SCORE.INTRA.REPUL>
0

>  <SCORE.INTRA.REPUL.0>
0

>  <SCORE.INTRA.SOLV>
-2.09338

>  <SCORE.INTRA.SOLV.lig_0>
-109.803

>  <SCORE.INTRA.VDW>
0.78302

>  <SCORE.INTRA.VDW.0>
0.32176

>  <SCORE.INTRA.norm>
-0.246615

>  <SCORE.RESTR>
0

>  <SCORE.RESTR.CAVITY>
0

>  <SCORE.RESTR.norm>
0

>  <SCORE.SYSTEM>
0

>  <SCORE.SYSTEM.CONST>
0

>  <SCORE.SYSTEM.DIHEDRAL>
0

>  <SCORE.SYSTEM.SOLV>
0

>  <SCORE.SYSTEM.norm>
0

>  <SCORE.heavy>
34

>  <SCORE.norm>
-1.31977

>  <RMSD>
9.099

$$$$
1mwl
 OpenBabel11021811403D
libRbt.so/2013.1/901 2013/11/27
 34 36  0  0  0  0  0  0  0  0999 V2000
  -15.8740    7.1185   14.6760 C   0  0  2  0  0  0  0  0  0  0  0  0
  -15.4639    6.3375   15.7579 O   0  0  0  0  0  0  0  0  0  0  0  0
  -14.6310    7.3497   13.7713 C   0  0  2  0  0  0  0  0  0  0  0  0
  -14.0878    6.0646   13.3209 N   0  3  0  0  0  0  0  0  0  0  0  0
  -13.5565    8.1916   14.5200 C   0  0  1  0  0  0  0  0  0  0  0  0
  -12.4792    8.4193   13.7277 O   0  0  0  0  0  0  0  0  0  0  0  0
  -14.2070    9.5395   14.9754 C   0  0  2  0  0  0  0  0  0  0  0  0
  -13.2342   10.3514   15.6659 O   0  0  0  0  0  0  0  0  0  0  0  0
  -15.4294    9.2101   15.8980 C   0  0  2  0  0  0  0  0  0  0  0  0
  -16.4094    8.3718   15.1724 O   0  0  0  0  0  0  0  0  0  0  0  0
  -16.1924   10.4366   16.4112 C   0  0  2  0  0  0  0  0  0  0  0  0
  -15.3377   11.2422   17.1555 O   0  0  0  0  0  0  0  0  0  0  0  0
  -17.3708   10.0864   17.3381 C   0  0  0  0  0  0  0  0  0  0  0  0
  -15.5416    2.3332   17.2474 C   0  0  2  0  0  0  0  0  0  0  0  0
  -15.5660    0.8488   17.2844 N   0  3  0  0  0  0  0  0  0  0  0  0
  -16.8225    2.8879   16.5564 C   0  0  0  0  0  0  0  0  0  0  0  0
  -16.7783    4.4581   16.5059 C   0  0  2  0  0  0  0  0  0  0  0  0
  -18.0341    4.9655   15.8409 N   0  3  0  0  0  0  0  0  0  0  0  0
  -15.4905    4.9160   15.7389 C   0  0  2  0  0  0  0  0  0  0  0  0
  -14.2362    4.3569   16.4539 C   0  0  2  0  0  0  0  0  0  0  0  0
  -13.0890    4.7457   15.7376 O   0  0  0  0  0  0  0  0  0  0  0  0
  -14.2877    2.8058   16.4812 C   0  0  1  0  0  0  0  0  0  0  0  0
  -13.1283    2.3154   17.1382 O   0  0  0  0  0  0  0  0  0  0  0  0
  -12.6545    1.0405   16.8023 C   0  0  2  0  0  0  0  0  0  0  0  0
  -11.9425    0.4704   18.0436 C   0  0  2  0  0  0  0  0  0  0  0  0
  -12.8730    0.3659   19.1000 O   0  0  0  0  0  0  0  0  0  0  0  0
  -10.7582    1.4180   18.4362 C   0  0  1  0  0  0  0  0  0  0  0  0
  -10.0362    0.9531   19.6457 N   0  3  0  0  0  0  0  0  0  0  0  0
  -10.4305    1.7516   20.8344 C   0  0  0  0  0  0  0  0  0  0  0  0
   -9.7644    1.5275   17.2290 C   0  0  2  0  0  0  0  0  0  0  0  0
   -9.2418    0.2254   16.9051 O   0  0  0  0  0  0  0  0  0  0  0  0
   -8.6358    2.3902   17.5277 C   0  0  0  0  0  0  0  0  0  0  0  0
  -10.5200    2.0212   15.9568 C   0  0  0  0  0  0  0  0  0  0  0  0
  -11.7083    1.1497   15.6788 O   0  0  0  0  0  0  0  0  0  0  0  0
  1  2  1  1  0  0  0
  1  3  1  0  0  0  0
  1 10  1  0  0  0  0
  3  4  1  1  0  0  0
  3  5  1  0  0  0  0
  5  6  1  6  0  0  0
  5  7  1  0  0  0  0
  7  8  1  1  0  0  0
  7  9  1  0  0  0  0
  9 10  1  6  0  0  0
  9 11  1  0  0  0  0
 11 12  1  1  0  0  0
 11 13  1  0  0  0  0
 14 15  1  6  0  0  0
 14 16  1  0  0  0  0
 14 22  1  0  0  0  0
 16 17  1  0  0  0  0
 17 18  1  6  0  0  0
 17 19  1  0  0  0  0
 19  2  1  1  0  0  0
 19 20  1  0  0  0  0
 20 21  1  6  0  0  0
 20 22  1  0  0  0  0
 22 23  1  1  0  0  0
 24 23  1  1  0  0  0
 24 25  1  0  0  0  0
 24 34  1  0  0  0  0
 25 26  1  1  0  0  0
 25 27  1  0  0  0  0
 27 28  1  1  0  0  0
 27 30  1  0  0  0  0
 28 29  1  0  0  0  0
 30 31  1  6  0  0  0
 30 32  1  0  0  0  0
 30 33  1  0  0  0  0
 33 34  1  0  0  0  0
M  CHG  4   4   1  15   1  18   1  28   1
M  END
>  <CHROM.1>
-89.50928463,-99.91886386,158.73008763,-52.97393448,66.38960930,-60.07639036
55.00369399,-47.30356837,41.95719636,88.62635367,87.08779869,-151.29020947
178.27831647,17.34423041,64.19878681,-13.67966336,4.72741237,16.45687937
2.04294343,-0.04148400,-0.26992237

>  <Name>
1mwl

>  <RI>
0

>  <Rbt.Current_Directory>
/home/itssahil/PROJECTS/Mol_Feturizer/New_Systems/rnas/1mwl

>  <Rbt.Executable>
rbdock ($Id: //depot/dev/client3/rdock/2013.1/src/exe/rbdock.cxx#4 $)

>  <Rbt.Library>
libRbt.so (2013.1, Build901 2013/11/27)

>  <Rbt.Parameter_File>
/export/apps/rDock/src/rDock_2013.1_src/data/scripts/dock_solv.prm

>  <Rbt.Receptor>
prm/pocket_docking_8.prm

>  <SCORE>
-62.9371

>  <SCORE.INTER>
-45.0993

>  <SCORE.INTER.CONST>
1

>  <SCORE.INTER.POLAR>
-7.04052

>  <SCORE.INTER.ROT>
6

>  <SCORE.INTER.SOLV>
19.6898

>  <SCORE.INTER.VDW>
-20.7611

>  <SCORE.INTER.norm>
-1.32645

>  <SCORE.INTRA>
-17.8626

>  <SCORE.INTRA.DIHEDRAL>
-17.6177

>  <SCORE.INTRA.DIHEDRAL.0>
42.0816

>  <SCORE.INTRA.POLAR>
-1.93029

>  <SCORE.INTRA.POLAR.0>
-0.254682

>  <SCORE.INTRA.REPUL>
0

>  <SCORE.INTRA.REPUL.0>
0

>  <SCORE.INTRA.SOLV>
2.83485

>  <SCORE.INTRA.SOLV.lig_0>
-109.803

>  <SCORE.INTRA.VDW>
-3.90815

>  <SCORE.INTRA.VDW.0>
0.32176

>  <SCORE.INTRA.norm>
-0.52537

>  <SCORE.RESTR>
0.0247946

>  <SCORE.RESTR.CAVITY>
0.0247946

>  <SCORE.RESTR.norm>
0.000729253

>  <SCORE.SYSTEM>
0

>  <SCORE.SYSTEM.CONST>
0

>  <SCORE.SYSTEM.DIHEDRAL>
0

>  <SCORE.SYSTEM.SOLV>
0

>  <SCORE.SYSTEM.norm>
0

>  <SCORE.heavy>
34

>  <SCORE.norm>
-1.85109

>  <RMSD>
9.113

$$$$
1mwl
 OpenBabel11021811403D
libRbt.so/2013.1/901 2013/11/27
 34 36  0  0  0  0  0  0  0  0999 V2000
  -11.4839    9.4511   20.0371 C   0  0  2  0  0  0  0  0  0  0  0  0
  -12.0188    8.1623   20.0768 O   0  0  0  0  0  0  0  0  0  0  0  0
  -11.8091   10.1320   21.3964 C   0  0  2  0  0  0  0  0  0  0  0  0
  -11.2371    9.3551   22.5003 N   0  3  0  0  0  0  0  0  0  0  0  0
  -13.3460   10.3149   21.5646 C   0  0  1  0  0  0  0  0  0  0  0  0
  -13.6362   10.9318   22.7374 O   0  0  0  0  0  0  0  0  0  0  0  0
  -13.8856   11.1430   20.3519 C   0  0  2  0  0  0  0  0  0  0  0  0
  -15.3092   11.3406   20.4805 O   0  0  0  0  0  0  0  0  0  0  0  0
  -13.5360   10.3721   19.0338 C   0  0  2  0  0  0  0  0  0  0  0  0
  -12.0735   10.1747   18.9268 O   0  0  0  0  0  0  0  0  0  0  0  0
  -13.9821   11.0728   17.7454 C   0  0  2  0  0  0  0  0  0  0  0  0
  -15.3094   11.4696   17.8636 O   0  0  0  0  0  0  0  0  0  0  0  0
  -13.9105   10.1734   16.4979 C   0  0  0  0  0  0  0  0  0  0  0  0
  -10.1146    4.6489   21.5899 C   0  0  2  0  0  0  0  0  0  0  0  0
   -9.2837    3.4199   21.6565 N   0  3  0  0  0  0  0  0  0  0  0  0
  -11.2725    4.4758   20.5626 C   0  0  0  0  0  0  0  0  0  0  0  0
  -12.1344    5.7879   20.4863 C   0  0  2  0  0  0  0  0  0  0  0  0
  -13.2513    5.5867   19.4919 N   0  3  0  0  0  0  0  0  0  0  0  0
  -11.2127    6.9911   20.0873 C   0  0  2  0  0  0  0  0  0  0  0  0
  -10.0788    7.1423   21.1306 C   0  0  2  0  0  0  0  0  0  0  0  0
   -9.2390    8.2031   20.7439 O   0  0  0  0  0  0  0  0  0  0  0  0
   -9.2282    5.8450   21.1822 C   0  0  1  0  0  0  0  0  0  0  0  0
   -8.1944    6.0069   22.1422 O   0  0  0  0  0  0  0  0  0  0  0  0
   -6.9138    5.5276   21.8374 C   0  0  2  0  0  0  0  0  0  0  0  0
   -6.2493    5.1100   23.1630 C   0  0  2  0  0  0  0  0  0  0  0  0
   -7.0114    4.0797   23.7549 O   0  0  0  0  0  0  0  0  0  0  0  0
   -6.1661    6.3556   24.1098 C   0  0  1  0  0  0  0  0  0  0  0  0
   -5.5625    6.0295   25.4249 N   0  3  0  0  0  0  0  0  0  0  0  0
   -6.3052    6.6954   26.5253 C   0  0  0  0  0  0  0  0  0  0  0  0
   -5.3362    7.4834   23.4052 C   0  0  2  0  0  0  0  0  0  0  0  0
   -4.0050    7.0105   23.1264 O   0  0  0  0  0  0  0  0  0  0  0  0
   -5.2149    8.6697   24.2330 C   0  0  0  0  0  0  0  0  0  0  0  0
   -5.9717    7.8319   22.0240 C   0  0  0  0  0  0  0  0  0  0  0  0
   -6.1318    6.5953   21.1909 O   0  0  0  0  0  0  0  0  0  0  0  0
  1  2  1  1  0  0  0
  1  3  1  0  0  0  0
  1 10  1  0  0  0  0
  3  4  1  1  0  0  0
  3  5  1  0  0  0  0
  5  6  1  1  0  0  0
  5  7  1  0  0  0  0
  7  8  1  1  0  0  0
  7  9  1  0  0  0  0
  9 10  1  6  0  0  0
  9 11  1  0  0  0  0
 11 12  1  1  0  0  0
 11 13  1  0  0  0  0
 14 15  1  6  0  0  0
 14 16  1  0  0  0  0
 14 22  1  0  0  0  0
 16 17  1  0  0  0  0
 17 18  1  6  0  0  0
 17 19  1  0  0  0  0
 19  2  1  1  0  0  0
 19 20  1  0  0  0  0
 20 21  1  6  0  0  0
 20 22  1  0  0  0  0
 22 23  1  1  0  0  0
 24 23  1  1  0  0  0
 24 25  1  0  0  0  0
 24 34  1  0  0  0  0
 25 26  1  1  0  0  0
 25 27  1  0  0  0  0
 27 28  1  1  0  0  0
 27 30  1  0  0  0  0
 28 29  1  0  0  0  0
 30 31  1  6  0  0  0
 30 32  1  0  0  0  0
 30 33  1  0  0  0  0
 33 34  1  0  0  0  0
M  CHG  4   4   1  15   1  18   1  28   1
M  END
>  <CHROM.1>
-112.78618696,166.32166169,173.73582151,64.96236774,-179.47746286,-48.61906134
-61.69076201,65.39491784,-169.40902634,177.70019977,101.13437280,-149.46072242
-73.76818176,-17.99003329,-63.92314432,-10.02441389,7.75536710,21.40041025
-2.82852819,0.58594149,-2.89142632

>  <Name>
1mwl

>  <RI>
0

>  <Rbt.Current_Directory>
/home/itssahil/PROJECTS/Mol_Feturizer/New_Systems/rnas/1mwl

>  <Rbt.Executable>
rbdock ($Id: //depot/dev/client3/rdock/2013.1/src/exe/rbdock.cxx#4 $)

>  <Rbt.Library>
libRbt.so (2013.1, Build901 2013/11/27)

>  <Rbt.Parameter_File>
/export/apps/rDock/src/rDock_2013.1_src/data/scripts/dock_solv.prm

>  <Rbt.Receptor>
prm/blind_docking_100.prm

>  <SCORE>
-15.0393

>  <SCORE.INTER>
-14.8905

>  <SCORE.INTER.CONST>
1

>  <SCORE.INTER.POLAR>
-1.42688

>  <SCORE.INTER.ROT>
6

>  <SCORE.INTER.SOLV>
22.1606

>  <SCORE.INTER.VDW>
-20.1576

>  <SCORE.INTER.norm>
-0.437956

>  <SCORE.INTRA>
-11.8656

>  <SCORE.INTRA.DIHEDRAL>
-20.018

>  <SCORE.INTRA.DIHEDRAL.0>
42.0816

>  <SCORE.INTRA.POLAR>
-0.555492

>  <SCORE.INTRA.POLAR.0>
-0.254682

>  <SCORE.INTRA.REPUL>
0

>  <SCORE.INTRA.REPUL.0>
0

>  <SCORE.INTRA.SOLV>
2.69147

>  <SCORE.INTRA.SOLV.lig_0>
-109.803

>  <SCORE.INTRA.VDW>
-1.31369

>  <SCORE.INTRA.VDW.0>
0.32176

>  <SCORE.INTRA.norm>
-0.348989

>  <SCORE.RESTR>
11.7168

>  <SCORE.RESTR.CAVITY>
11.7168

>  <SCORE.RESTR.norm>
0.344613

>  <SCORE.SYSTEM>
0

>  <SCORE.SYSTEM.CONST>
0

>  <SCORE.SYSTEM.DIHEDRAL>
0

>  <SCORE.SYSTEM.SOLV>
0

>  <SCORE.SYSTEM.norm>
0

>  <SCORE.heavy>
34

>  <SCORE.norm>
-0.442332

>  <RMSD>
9.143

$$$$
1mwl
 OpenBabel11021811403D
libRbt.so/2013.1/901 2013/11/27
 34 36  0  0  0  0  0  0  0  0999 V2000
  -10.8618    7.9517   17.7241 C   0  0  2  0  0  0  0  0  0  0  0  0
  -11.5082    7.2650   18.7533 O   0  0  0  0  0  0  0  0  0  0  0  0
  -11.6359    9.2800   17.4929 C   0  0  2  0  0  0  0  0  0  0  0  0
  -11.6584   10.0729   18.7259 N   0  3  0  0  0  0  0  0  0  0  0  0
  -13.0752    8.9929   16.9737 C   0  0  1  0  0  0  0  0  0  0  0  0
  -13.7485   10.1482   16.7452 O   0  0  0  0  0  0  0  0  0  0  0  0
  -12.9731    8.1405   15.6658 C   0  0  2  0  0  0  0  0  0  0  0  0
  -14.2920    7.8635   15.1501 O   0  0  0  0  0  0  0  0  0  0  0  0
  -12.2039    6.8171   15.9987 C   0  0  2  0  0  0  0  0  0  0  0  0
  -10.8586    7.1251   16.5322 O   0  0  0  0  0  0  0  0  0  0  0  0
  -12.0005    5.8776   14.8045 C   0  0  2  0  0  0  0  0  0  0  0  0
  -13.2336    5.4204   14.3531 O   0  0  0  0  0  0  0  0  0  0  0  0
  -11.1724    4.6239   15.1403 C   0  0  0  0  0  0  0  0  0  0  0  0
  -10.2671    4.9463   22.1212 C   0  0  2  0  0  0  0  0  0  0  0  0
   -9.6411    3.8712   22.9322 N   0  3  0  0  0  0  0  0  0  0  0  0
  -11.3703    4.3620   21.1898 C   0  0  0  0  0  0  0  0  0  0  0  0
  -12.0135    5.5044   20.3230 C   0  0  2  0  0  0  0  0  0  0  0  0
  -13.0827    4.9103   19.4396 N   0  3  0  0  0  0  0  0  0  0  0  0
  -10.8942    6.2107   19.4836 C   0  0  2  0  0  0  0  0  0  0  0  0
   -9.8190    6.7876   20.4366 C   0  0  2  0  0  0  0  0  0  0  0  0
   -8.8031    7.3890   19.6708 O   0  0  0  0  0  0  0  0  0  0  0  0
   -9.1832    5.6453   21.2734 C   0  0  1  0  0  0  0  0  0  0  0  0
   -8.1998    6.1961   22.1371 O   0  0  0  0  0  0  0  0  0  0  0  0
   -6.8838    6.3102   21.6704 C   0  0  2  0  0  0  0  0  0  0  0  0
   -5.9462    6.0693   22.8686 C   0  0  2  0  0  0  0  0  0  0  0  0
   -6.1604    4.7655   23.3654 O   0  0  0  0  0  0  0  0  0  0  0  0
   -6.2393    7.1413   23.9730 C   0  0  1  0  0  0  0  0  0  0  0  0
   -5.3944    6.9598   25.1786 N   0  3  0  0  0  0  0  0  0  0  0  0
   -5.9259    5.8692   26.0353 C   0  0  0  0  0  0  0  0  0  0  0  0
   -6.0160    8.5723   23.3736 C   0  0  2  0  0  0  0  0  0  0  0  0
   -4.6532    8.7102   22.9296 O   0  0  0  0  0  0  0  0  0  0  0  0
   -6.2663    9.6177   24.3493 C   0  0  0  0  0  0  0  0  0  0  0  0
   -6.9071    8.7678   22.1084 C   0  0  0  0  0  0  0  0  0  0  0  0
   -6.6731    7.6615   21.1235 O   0  0  0  0  0  0  0  0  0  0  0  0
  1  2  1  1  0  0  0
  1  3  1  0  0  0  0
  1 10  1  0  0  0  0
  3  4  1  1  0  0  0
  3  5  1  0  0  0  0
  5  6  1  6  0  0  0
  5  7  1  0  0  0  0
  7  8  1  1  0  0  0
  7  9  1  0  0  0  0
  9 10  1  6  0  0  0
  9 11  1  0  0  0  0
 11 12  1  1  0  0  0
 11 13  1  0  0  0  0
 14 15  1  6  0  0  0
 14 16  1  0  0  0  0
 14 22  1  0  0  0  0
 16 17  1  0  0  0  0
 17 18  1  6  0  0  0
 17 19  1  0  0  0  0
 19  2  1  1  0  0  0
 19 20  1  0  0  0  0
 20 21  1  6  0  0  0
 20 22  1  0  0  0  0
 22 23  1  1  0  0  0
 24 23  1  1  0  0  0
 24 25  1  0  0  0  0
 24 34  1  0  0  0  0
 25 26  1  1  0  0  0
 25 27  1  0  0  0  0
 27 28  1  1  0  0  0
 27 30  1  0  0  0  0
 28 29  1  0  0  0  0
 30 31  1  6  0  0  0
 30 32  1  0  0  0  0
 30 33  1  0  0  0  0
 33 34  1  0  0  0  0
M  CHG  4   4   1  15   1  18   1  28   1
M  END
>  <CHROM.1>
-162.10388123,-168.25293106,49.52563556,-66.00109264,66.09974010,-64.58886712
51.57807854,76.26012225,58.12465943,72.13341795,150.60626228,-145.53175181
-51.81151846,40.98876678,60.65869260,-9.70793998,6.94233708,19.99357106,-2.81989896
0.81275807,2.76074129

>  <Name>
1mwl

>  <RI>
0

>  <Rbt.Current_Directory>
/home/itssahil/PROJECTS/Mol_Feturizer/New_Systems/rnas/1mwl

>  <Rbt.Executable>
rbdock ($Id: //depot/dev/client3/rdock/2013.1/src/exe/rbdock.cxx#4 $)

>  <Rbt.Library>
libRbt.so (2013.1, Build901 2013/11/27)

>  <Rbt.Parameter_File>
/export/apps/rDock/src/rDock_2013.1_src/data/scripts/dock_solv.prm

>  <Rbt.Receptor>
prm/pocket_docking_3.prm

>  <SCORE>
-46.5506

>  <SCORE.INTER>
-28.6264

>  <SCORE.INTER.CONST>
1

>  <SCORE.INTER.POLAR>
-3.99272

>  <SCORE.INTER.ROT>
6

>  <SCORE.INTER.SOLV>
20.4582

>  <SCORE.INTER.VDW>
-20.1946

>  <SCORE.INTER.norm>
-0.841954

>  <SCORE.INTRA>
-18.6456

>  <SCORE.INTRA.DIHEDRAL>
-28.4315

>  <SCORE.INTRA.DIHEDRAL.0>
42.0816

>  <SCORE.INTRA.POLAR>
-0.480815

>  <SCORE.INTRA.POLAR.0>
-0.254682

>  <SCORE.INTRA.REPUL>
0.049302

>  <SCORE.INTRA.REPUL.0>
0

>  <SCORE.INTRA.SOLV>
-1.33854

>  <SCORE.INTRA.SOLV.lig_0>
-109.803

>  <SCORE.INTRA.VDW>
-2.37234

>  <SCORE.INTRA.VDW.0>
0.32176

>  <SCORE.INTRA.norm>
-0.548401

>  <SCORE.RESTR>
0.721422

>  <SCORE.RESTR.CAVITY>
0.721422

>  <SCORE.RESTR.norm>
0.0212183

>  <SCORE.SYSTEM>
0

>  <SCORE.SYSTEM.CONST>
0

>  <SCORE.SYSTEM.DIHEDRAL>
0

>  <SCORE.SYSTEM.SOLV>
0

>  <SCORE.SYSTEM.norm>
0

>  <SCORE.heavy>
34

>  <SCORE.norm>
-1.36914

>  <RMSD>
9.143

$$$$
1mwl
 OpenBabel11021811403D
libRbt.so/2013.1/901 2013/11/27
 34 36  0  0  0  0  0  0  0  0999 V2000
  -10.6344    7.9948   18.0241 C   0  0  2  0  0  0  0  0  0  0  0  0
  -11.1863    7.2174   19.0437 O   0  0  0  0  0  0  0  0  0  0  0  0
  -11.6829    9.0784   17.6456 C   0  0  2  0  0  0  0  0  0  0  0  0
  -12.0094    9.8967   18.8175 N   0  3  0  0  0  0  0  0  0  0  0  0
  -12.9560    8.4211   17.0369 C   0  0  1  0  0  0  0  0  0  0  0  0
  -13.8655    9.3624   16.6804 O   0  0  0  0  0  0  0  0  0  0  0  0
  -12.5313    7.5616   15.8007 C   0  0  2  0  0  0  0  0  0  0  0  0
  -13.6909    6.9438   15.2041 O   0  0  0  0  0  0  0  0  0  0  0  0
  -11.4980    6.4860   16.2796 C   0  0  2  0  0  0  0  0  0  0  0  0
  -10.3220    7.1411   16.8938 O   0  0  0  0  0  0  0  0  0  0  0  0
  -10.9648    5.5724   15.1700 C   0  0  2  0  0  0  0  0  0  0  0  0
  -12.0196    4.8790   14.5870 O   0  0  0  0  0  0  0  0  0  0  0  0
   -9.9734    4.5068   15.6719 C   0  0  0  0  0  0  0  0  0  0  0  0
   -9.7504    4.7449   22.2194 C   0  0  2  0  0  0  0  0  0  0  0  0
   -9.0232    3.6730   22.9457 N   0  3  0  0  0  0  0  0  0  0  0  0
  -10.7696    4.1341   21.2123 C   0  0  0  0  0  0  0  0  0  0  0  0
  -11.5203    5.2760   20.4360 C   0  0  2  0  0  0  0  0  0  0  0  0
  -12.5053    4.6547   19.4767 N   0  3  0  0  0  0  0  0  0  0  0  0
  -10.4722    6.1721   19.6913 C   0  0  2  0  0  0  0  0  0  0  0  0
   -9.4803    6.7706   20.7185 C   0  0  2  0  0  0  0  0  0  0  0  0
   -8.5246    7.5450   20.0350 O   0  0  0  0  0  0  0  0  0  0  0  0
   -8.7364    5.6308   21.4646 C   0  0  1  0  0  0  0  0  0  0  0  0
   -7.8317    6.2019   22.3983 O   0  0  0  0  0  0  0  0  0  0  0  0
   -6.5372    6.5228   21.9693 C   0  0  2  0  0  0  0  0  0  0  0  0
   -5.6122    6.4522   23.1990 C   0  0  2  0  0  0  0  0  0  0  0  0
   -5.6280    5.1371   23.7116 O   0  0  0  0  0  0  0  0  0  0  0  0
   -6.1108    7.4757   24.2754 C   0  0  1  0  0  0  0  0  0  0  0  0
   -5.2871    7.4488   25.5087 N   0  3  0  0  0  0  0  0  0  0  0  0
   -5.8817    6.5378   26.5199 C   0  0  0  0  0  0  0  0  0  0  0  0
   -6.1033    8.9166   23.6583 C   0  0  2  0  0  0  0  0  0  0  0  0
   -4.7673    9.2689   23.2529 O   0  0  0  0  0  0  0  0  0  0  0  0
   -6.5513    9.9191   24.6078 C   0  0  0  0  0  0  0  0  0  0  0  0
   -6.9731    8.9490   22.3639 C   0  0  0  0  0  0  0  0  0  0  0  0
   -6.5310    7.8836   21.4057 O   0  0  0  0  0  0  0  0  0  0  0  0
  1  2  1  1  0  0  0
  1  3  1  0  0  0  0
  1 10  1  0  0  0  0
  3  4  1  1  0  0  0
  3  5  1  0  0  0  0
  5  6  1  6  0  0  0
  5  7  1  0  0  0  0
  7  8  1  1  0  0  0
  7  9  1  0  0  0  0
  9 10  1  6  0  0  0
  9 11  1  0  0  0  0
 11 12  1  1  0  0  0
 11 13  1  0  0  0  0
 14 15  1  6  0  0  0
 14 16  1  0  0  0  0
 14 22  1  0  0  0  0
 16 17  1  0  0  0  0
 17 18  1  6  0  0  0
 17 19  1  0  0  0  0
 19  2  1  1  0  0  0
 19 20  1  0  0  0  0
 20 21  1  6  0  0  0
 20 22  1  0  0  0  0
 22 23  1  1  0  0  0
 24 23  1  1  0  0  0
 24 25  1  0  0  0  0
 24 34  1  0  0  0  0
 25 26  1  1  0  0  0
 25 27  1  0  0  0  0
 27 28  1  1  0  0  0
 27 30  1  0  0  0  0
 28 29  1  0  0  0  0
 30 31  1  6  0  0  0
 30 32  1  0  0  0  0
 30 33  1  0  0  0  0
 33 34  1  0  0  0  0
M  CHG  4   4   1  15   1  18   1  28   1
M  END
>  <CHROM.1>
-176.32748129,-163.21717499,30.20350337,63.12553114,-173.89898822,-60.08363224
-57.27927378,62.84601555,176.02655137,68.20203722,151.84575021,-152.90643107
173.85362369,26.10321254,178.49627115,-9.36017663,6.89432420,20.22287794
-3.04509371,0.89016447,2.96762815

>  <Name>
1mwl

>  <RI>
0

>  <Rbt.Current_Directory>
/home/itssahil/PROJECTS/Mol_Feturizer/New_Systems/rnas/1mwl

>  <Rbt.Executable>
rbdock ($Id: //depot/dev/client3/rdock/2013.1/src/exe/rbdock.cxx#4 $)

>  <Rbt.Library>
libRbt.so (2013.1, Build901 2013/11/27)

>  <Rbt.Parameter_File>
/export/apps/rDock/src/rDock_2013.1_src/data/scripts/dock_solv.prm

>  <Rbt.Receptor>
prm/pocket_docking_7.prm

>  <SCORE>
-47.9861

>  <SCORE.INTER>
-30.5531

>  <SCORE.INTER.CONST>
1

>  <SCORE.INTER.POLAR>
-3.6584

>  <SCORE.INTER.ROT>
6

>  <SCORE.INTER.SOLV>
20.1268

>  <SCORE.INTER.VDW>
-22.483

>  <SCORE.INTER.norm>
-0.898622

>  <SCORE.INTRA>
-17.4329

>  <SCORE.INTRA.DIHEDRAL>
-29.5562

>  <SCORE.INTRA.DIHEDRAL.0>
42.0816

>  <SCORE.INTRA.POLAR>
-0.0753875

>  <SCORE.INTRA.POLAR.0>
-0.254682

>  <SCORE.INTRA.REPUL>
0

>  <SCORE.INTRA.REPUL.0>
0

>  <SCORE.INTRA.SOLV>
-2.16951

>  <SCORE.INTRA.SOLV.lig_0>
-109.803

>  <SCORE.INTRA.VDW>
-1.31377

>  <SCORE.INTRA.VDW.0>
0.32176

>  <SCORE.INTRA.norm>
-0.512733

>  <SCORE.RESTR>
0

>  <SCORE.RESTR.CAVITY>
0

>  <SCORE.RESTR.norm>
0

>  <SCORE.SYSTEM>
0

>  <SCORE.SYSTEM.CONST>
0

>  <SCORE.SYSTEM.DIHEDRAL>
0

>  <SCORE.SYSTEM.SOLV>
0

>  <SCORE.SYSTEM.norm>
0

>  <SCORE.heavy>
34

>  <SCORE.norm>
-1.41136

>  <RMSD>
9.146

$$$$
1mwl
 OpenBabel11021811403D
libRbt.so/2013.1/901 2013/11/27
 34 36  0  0  0  0  0  0  0  0999 V2000
  -12.2378    8.1283   19.7633 C   0  0  2  0  0  0  0  0  0  0  0  0
  -10.9373    8.0222   20.2593 O   0  0  0  0  0  0  0  0  0  0  0  0
  -12.3578    9.5116   19.0639 C   0  0  2  0  0  0  0  0  0  0  0  0
  -11.3697    9.6203   17.9863 N   0  3  0  0  0  0  0  0  0  0  0  0
  -12.2022   10.6646   20.0983 C   0  0  1  0  0  0  0  0  0  0  0  0
  -12.3313   11.8749   19.4994 O   0  0  0  0  0  0  0  0  0  0  0  0
  -13.2797   10.4798   21.2173 C   0  0  2  0  0  0  0  0  0  0  0  0
  -13.1708   11.5396   22.1906 O   0  0  0  0  0  0  0  0  0  0  0  0
  -13.0670    9.0763   21.8798 C   0  0  2  0  0  0  0  0  0  0  0  0
  -13.1757    8.0067   20.8632 O   0  0  0  0  0  0  0  0  0  0  0  0
  -14.0680    8.7341   22.9891 C   0  0  2  0  0  0  0  0  0  0  0  0
  -13.7167    7.5258   23.5805 O   0  0  0  0  0  0  0  0  0  0  0  0
  -15.5127    8.5635   22.4849 C   0  0  0  0  0  0  0  0  0  0  0  0
   -9.8862    4.3743   22.2208 C   0  0  2  0  0  0  0  0  0  0  0  0
   -9.2403    3.0672   22.5033 N   0  3  0  0  0  0  0  0  0  0  0  0
  -10.7496    4.2936   20.9270 C   0  0  0  0  0  0  0  0  0  0  0  0
  -11.4136    5.6861   20.6268 C   0  0  2  0  0  0  0  0  0  0  0  0
  -12.2494    5.5742   19.3756 N   0  3  0  0  0  0  0  0  0  0  0  0
  -10.2944    6.7735   20.4812 C   0  0  2  0  0  0  0  0  0  0  0  0
   -9.4605    6.8355   21.7842 C   0  0  2  0  0  0  0  0  0  0  0  0
   -8.4385    7.7902   21.6291 O   0  0  0  0  0  0  0  0  0  0  0  0
   -8.7993    5.4580   22.0574 C   0  0  1  0  0  0  0  0  0  0  0  0
   -8.0387    5.5386   23.2539 O   0  0  0  0  0  0  0  0  0  0  0  0
   -6.7371    5.0205   23.2585 C   0  0  2  0  0  0  0  0  0  0  0  0
   -6.0817    5.4297   24.5912 C   0  0  2  0  0  0  0  0  0  0  0  0
   -6.8177    4.8687   25.6570 O   0  0  0  0  0  0  0  0  0  0  0  0
   -6.0582    6.9931   24.6925 C   0  0  1  0  0  0  0  0  0  0  0  0
   -5.4667    7.4704   25.9662 N   0  3  0  0  0  0  0  0  0  0  0  0
   -6.2603    6.9931   27.1274 C   0  0  0  0  0  0  0  0  0  0  0  0
   -5.2559    7.5757   23.4785 C   0  0  2  0  0  0  0  0  0  0  0  0
   -3.9044    7.0793   23.5010 O   0  0  0  0  0  0  0  0  0  0  0  0
   -5.1903    9.0255   23.5132 C   0  0  0  0  0  0  0  0  0  0  0  0
   -5.8789    7.0794   22.1374 C   0  0  0  0  0  0  0  0  0  0  0  0
   -5.9815    5.5834   22.1263 O   0  0  0  0  0  0  0  0  0  0  0  0
  1  2  1  1  0  0  0
  1  3  1  0  0  0  0
  1 10  1  0  0  0  0
  3  4  1  6  0  0  0
  3  5  1  0  0  0  0
  5  6  1  6  0  0  0
  5  7  1  0  0  0  0
  7  8  1  1  0  0  0
  7  9  1  0  0  0  0
  9 10  1  6  0  0  0
  9 11  1  0  0  0  0
 11 12  1  6  0  0  0
 11 13  1  0  0  0  0
 14 15  1  6  0  0  0
 14 16  1  0  0  0  0
 14 22  1  0  0  0  0
 16 17  1  0  0  0  0
 17 18  1  6  0  0  0
 17 19  1  0  0  0  0
 19  2  1  1  0  0  0
 19 20  1  0  0  0  0
 20 21  1  6  0  0  0
 20 22  1  0  0  0  0
 22 23  1  1  0  0  0
 24 23  1  1  0  0  0
 24 25  1  0  0  0  0
 24 34  1  0  0  0  0
 25 26  1  1  0  0  0
 25 27  1  0  0  0  0
 27 28  1  1  0  0  0
 27 30  1  0  0  0  0
 28 29  1  0  0  0  0
 30 31  1  1  0  0  0
 30 32  1  0  0  0  0
 30 33  1  0  0  0  0
 33 34  1  0  0  0  0
M  CHG  4   4   1  15   1  18   1  28   1
M  END
>  <CHROM.1>
-154.64216314,-21.83965706,59.80565781,64.02779415,-176.39771301,-174.88421324
61.10071275,147.48619584,141.74879105,162.25774836,106.61479822,171.54106771
62.65903214,58.62827818,-58.19623369,-9.68906040,7.37030898,22.14890170,2.78696008
-0.46666324,0.00698703

>  <Name>
1mwl

>  <RI>
0

>  <Rbt.Current_Directory>
/home/itssahil/PROJECTS/Mol_Feturizer/New_Systems/rnas/1mwl

>  <Rbt.Executable>
rbdock ($Id: //depot/dev/client3/rdock/2013.1/src/exe/rbdock.cxx#4 $)

>  <Rbt.Library>
libRbt.so (2013.1, Build901 2013/11/27)

>  <Rbt.Parameter_File>
/export/apps/rDock/src/rDock_2013.1_src/data/scripts/dock_solv.prm

>  <Rbt.Receptor>
prm/blind_docking_100.prm

>  <SCORE>
-14.8337

>  <SCORE.INTER>
-19.366

>  <SCORE.INTER.CONST>
1

>  <SCORE.INTER.POLAR>
-2.3801

>  <SCORE.INTER.ROT>
6

>  <SCORE.INTER.SOLV>
27.0122

>  <SCORE.INTER.VDW>
-21.5811

>  <SCORE.INTER.norm>
-0.569587

>  <SCORE.INTRA>
-4.18603

>  <SCORE.INTRA.DIHEDRAL>
-21.1064

>  <SCORE.INTRA.DIHEDRAL.0>
42.0816

>  <SCORE.INTRA.POLAR>
0.0129778

>  <SCORE.INTRA.POLAR.0>
-0.254682

>  <SCORE.INTRA.REPUL>
0

>  <SCORE.INTRA.REPUL.0>
0

>  <SCORE.INTRA.SOLV>
-0.496822

>  <SCORE.INTRA.SOLV.lig_0>
-109.803

>  <SCORE.INTRA.VDW>
6.57144

>  <SCORE.INTRA.VDW.0>
0.32176

>  <SCORE.INTRA.norm>
-0.123119

>  <SCORE.RESTR>
8.71832

>  <SCORE.RESTR.CAVITY>
8.71832

>  <SCORE.RESTR.norm>
0.256421

>  <SCORE.SYSTEM>
0

>  <SCORE.SYSTEM.CONST>
0

>  <SCORE.SYSTEM.DIHEDRAL>
0

>  <SCORE.SYSTEM.SOLV>
0

>  <SCORE.SYSTEM.norm>
0

>  <SCORE.heavy>
34

>  <SCORE.norm>
-0.436285

>  <RMSD>
9.194

$$$$
1mwl
 OpenBabel11021811403D
libRbt.so/2013.1/901 2013/11/27
 34 36  0  0  0  0  0  0  0  0999 V2000
  -10.8978    8.1734   18.0820 C   0  0  2  0  0  0  0  0  0  0  0  0
  -11.3624    7.3996   19.1470 O   0  0  0  0  0  0  0  0  0  0  0  0
  -12.1145    8.9516   17.5067 C   0  0  2  0  0  0  0  0  0  0  0  0
  -12.7159    9.7906   18.5478 N   0  3  0  0  0  0  0  0  0  0  0  0
  -13.1552    7.9685   16.8953 C   0  0  1  0  0  0  0  0  0  0  0  0
  -14.2082    8.6419   16.3681 O   0  0  0  0  0  0  0  0  0  0  0  0
  -12.4436    7.1049   15.8020 C   0  0  2  0  0  0  0  0  0  0  0  0
  -13.3835    6.1867   15.2056 O   0  0  0  0  0  0  0  0  0  0  0  0
  -11.2527    6.3413   16.4748 C   0  0  2  0  0  0  0  0  0  0  0  0
  -10.3065    7.3011   17.0853 O   0  0  0  0  0  0  0  0  0  0  0  0
  -10.4358    5.4624   15.5209 C   0  0  2  0  0  0  0  0  0  0  0  0
  -11.2637    4.5105   14.9362 O   0  0  0  0  0  0  0  0  0  0  0  0
   -9.3058    4.6818   16.2168 C   0  0  0  0  0  0  0  0  0  0  0  0
   -9.7208    4.8802   22.1830 C   0  0  2  0  0  0  0  0  0  0  0  0
   -8.9404    3.8036   22.8442 N   0  3  0  0  0  0  0  0  0  0  0  0
  -10.7854    4.2764   21.2197 C   0  0  0  0  0  0  0  0  0  0  0  0
  -11.5930    5.4237   20.5115 C   0  0  2  0  0  0  0  0  0  0  0  0
  -12.6209    4.8090   19.5937 N   0  3  0  0  0  0  0  0  0  0  0  0
  -10.5997    6.3512   19.7309 C   0  0  2  0  0  0  0  0  0  0  0  0
   -9.5610    6.9418   20.7155 C   0  0  2  0  0  0  0  0  0  0  0  0
   -8.6549    7.7449   19.9985 O   0  0  0  0  0  0  0  0  0  0  0  0
   -8.7619    5.7972   21.3941 C   0  0  1  0  0  0  0  0  0  0  0  0
   -7.8150    6.3611   22.2896 O   0  0  0  0  0  0  0  0  0  0  0  0
   -6.6211    5.6683   22.5285 C   0  0  2  0  0  0  0  0  0  0  0  0
   -6.3228    5.7681   24.0364 C   0  0  2  0  0  0  0  0  0  0  0  0
   -7.3745    5.1594   24.7546 O   0  0  0  0  0  0  0  0  0  0  0  0
   -6.1786    7.2773   24.4320 C   0  0  1  0  0  0  0  0  0  0  0  0
   -5.9186    7.4620   25.8806 N   0  3  0  0  0  0  0  0  0  0  0  0
   -4.8865    6.5060   26.3569 C   0  0  0  0  0  0  0  0  0  0  0  0
   -5.0205    7.9208   23.5943 C   0  0  2  0  0  0  0  0  0  0  0  0
   -3.7817    7.2393   23.8669 O   0  0  0  0  0  0  0  0  0  0  0  0
   -4.8285    9.3233   23.9160 C   0  0  0  0  0  0  0  0  0  0  0  0
   -5.2938    7.7325   22.0702 C   0  0  0  0  0  0  0  0  0  0  0  0
   -5.5322    6.2864   21.7527 O   0  0  0  0  0  0  0  0  0  0  0  0
  1  2  1  1  0  0  0
  1  3  1  0  0  0  0
  1 10  1  0  0  0  0
  3  4  1  1  0  0  0
  3  5  1  0  0  0  0
  5  6  1  6  0  0  0
  5  7  1  0  0  0  0
  7  8  1  1  0  0  0
  7  9  1  0  0  0  0
  9 10  1  6  0  0  0
  9 11  1  0  0  0  0
 11 12  1  1  0  0  0
 11 13  1  0  0  0  0
 14 15  1  6  0  0  0
 14 16  1  0  0  0  0
 14 22  1  0  0  0  0
 16 17  1  0  0  0  0
 17 18  1  6  0  0  0
 17 19  1  0  0  0  0
 19  2  1  1  0  0  0
 19 20  1  0  0  0  0
 20 21  1  6  0  0  0
 20 22  1  0  0  0  0
 22 23  1  1  0  0  0
 24 23  1  1  0  0  0
 24 25  1  0  0  0  0
 24 34  1  0  0  0  0
 25 26  1  1  0  0  0
 25 27  1  0  0  0  0
 27 28  1  1  0  0  0
 27 30  1  0  0  0  0
 28 29  1  0  0  0  0
 30 31  1  1  0  0  0
 30 32  1  0  0  0  0
 30 33  1  0  0  0  0
 33 34  1  0  0  0  0
M  CHG  4   4   1  15   1  18   1  28   1
M  END
>  <CHROM.1>
166.30086030,-160.66840575,-31.26506487,-174.16933176,63.23242398,-59.04503508
174.35149408,-49.18595627,59.47998281,65.90412800,89.39950421,-138.64257419
175.29607714,164.99514330,53.70645239,-9.24719644,6.61722338,20.33007418
-2.89842857,0.83488684,2.82833961

>  <Name>
1mwl

>  <RI>
0

>  <Rbt.Current_Directory>
/home/itssahil/PROJECTS/Mol_Feturizer/New_Systems/rnas/1mwl

>  <Rbt.Executable>
rbdock ($Id: //depot/dev/client3/rdock/2013.1/src/exe/rbdock.cxx#4 $)

>  <Rbt.Library>
libRbt.so (2013.1, Build901 2013/11/27)

>  <Rbt.Parameter_File>
/export/apps/rDock/src/rDock_2013.1_src/data/scripts/dock_solv.prm

>  <Rbt.Receptor>
prm/pocket_docking_4.prm

>  <SCORE>
-44.2852

>  <SCORE.INTER>
-27.4119

>  <SCORE.INTER.CONST>
1

>  <SCORE.INTER.POLAR>
-3.4767

>  <SCORE.INTER.ROT>
6

>  <SCORE.INTER.SOLV>
20.3051

>  <SCORE.INTER.VDW>
-21.054

>  <SCORE.INTER.norm>
-0.806234

>  <SCORE.INTRA>
-16.8905

>  <SCORE.INTRA.DIHEDRAL>
-27.0473

>  <SCORE.INTRA.DIHEDRAL.0>
42.0816

>  <SCORE.INTRA.POLAR>
-1.03732

>  <SCORE.INTRA.POLAR.0>
-0.254682

>  <SCORE.INTRA.REPUL>
0.00360441

>  <SCORE.INTRA.REPUL.0>
0

>  <SCORE.INTRA.SOLV>
-0.873513

>  <SCORE.INTRA.SOLV.lig_0>
-109.803

>  <SCORE.INTRA.VDW>
0.578754

>  <SCORE.INTRA.VDW.0>
0.32176

>  <SCORE.INTRA.norm>
-0.49678

>  <SCORE.RESTR>
0.017246

>  <SCORE.RESTR.CAVITY>
0.017246

>  <SCORE.RESTR.norm>
0.000507236

>  <SCORE.SYSTEM>
0

>  <SCORE.SYSTEM.CONST>
0

>  <SCORE.SYSTEM.DIHEDRAL>
0

>  <SCORE.SYSTEM.SOLV>
0

>  <SCORE.SYSTEM.norm>
0

>  <SCORE.heavy>
34

>  <SCORE.norm>
-1.30251

>  <RMSD>
9.222

$$$$
1mwl
 OpenBabel11021811403D
libRbt.so/2013.1/901 2013/11/27
 34 36  0  0  0  0  0  0  0  0999 V2000
  -16.6461    7.0641   17.2393 C   0  0  2  0  0  0  0  0  0  0  0  0
  -15.3691    7.4836   17.6160 O   0  0  0  0  0  0  0  0  0  0  0  0
  -17.0253    7.8340   15.9430 C   0  0  2  0  0  0  0  0  0  0  0  0
  -16.0453    7.5601   14.8876 N   0  3  0  0  0  0  0  0  0  0  0  0
  -17.1459    9.3600   16.2266 C   0  0  1  0  0  0  0  0  0  0  0  0
  -17.5017   10.0357   15.1055 O   0  0  0  0  0  0  0  0  0  0  0  0
  -18.1991    9.5745   17.3634 C   0  0  2  0  0  0  0  0  0  0  0  0
  -18.3440   10.9821   17.6461 O   0  0  0  0  0  0  0  0  0  0  0  0
  -17.7237    8.7867   18.6311 C   0  0  2  0  0  0  0  0  0  0  0  0
  -17.5750    7.3485   18.3164 O   0  0  0  0  0  0  0  0  0  0  0  0
  -18.6693    8.8796   19.8341 C   0  0  2  0  0  0  0  0  0  0  0  0
  -18.0733    8.2927   20.9448 O   0  0  0  0  0  0  0  0  0  0  0  0
  -20.0070    8.1468   19.6249 C   0  0  0  0  0  0  0  0  0  0  0  0
  -12.4686    5.9546   20.3563 C   0  0  2  0  0  0  0  0  0  0  0  0
  -11.8052    5.5645   21.6264 N   0  3  0  0  0  0  0  0  0  0  0  0
  -12.6918    7.4951   20.3022 C   0  0  0  0  0  0  0  0  0  0  0  0
  -13.4107    7.8952   18.9631 C   0  0  2  0  0  0  0  0  0  0  0  0
  -13.6044    9.3914   18.9356 N   0  3  0  0  0  0  0  0  0  0  0  0
  -14.7756    7.1319   18.8594 C   0  0  2  0  0  0  0  0  0  0  0  0
  -14.5198    5.6057   18.9072 C   0  0  2  0  0  0  0  0  0  0  0  0
  -15.7539    4.9322   18.8476 O   0  0  0  0  0  0  0  0  0  0  0  0
  -13.8242    5.2254   20.2416 C   0  0  1  0  0  0  0  0  0  0  0  0
  -13.6019    3.8231   20.2648 O   0  0  0  0  0  0  0  0  0  0  0  0
  -14.7090    2.9689   20.3513 C   0  0  2  0  0  0  0  0  0  0  0  0
  -15.2202    3.0208   21.8035 C   0  0  2  0  0  0  0  0  0  0  0  0
  -15.6173    4.3416   22.1043 O   0  0  0  0  0  0  0  0  0  0  0  0
  -14.0777    2.5497   22.7667 C   0  0  1  0  0  0  0  0  0  0  0  0
  -14.4816    2.5989   24.1931 N   0  3  0  0  0  0  0  0  0  0  0  0
  -13.5651    3.4716   24.9705 C   0  0  0  0  0  0  0  0  0  0  0  0
  -13.6486    1.0919   22.3822 C   0  0  2  0  0  0  0  0  0  0  0  0
  -14.7726    0.2009   22.5090 O   0  0  0  0  0  0  0  0  0  0  0  0
  -12.5924    0.5894   23.2419 C   0  0  0  0  0  0  0  0  0  0  0  0
  -13.2184    1.0383   20.8837 C   0  0  0  0  0  0  0  0  0  0  0  0
  -14.2979    1.5974   20.0057 O   0  0  0  0  0  0  0  0  0  0  0  0
  1  2  1  1  0  0  0
  1  3  1  0  0  0  0
  1 10  1  0  0  0  0
  3  4  1  6  0  0  0
  3  5  1  0  0  0  0
  5  6  1  6  0  0  0
  5  7  1  0  0  0  0
  7  8  1  1  0  0  0
  7  9  1  0  0  0  0
  9 10  1  6  0  0  0
  9 11  1  0  0  0  0
 11 12  1  1  0  0  0
 11 13  1  0  0  0  0
 14 15  1  1  0  0  0
 14 16  1  0  0  0  0
 14 22  1  0  0  0  0
 16 17  1  0  0  0  0
 17 18  1  1  0  0  0
 17 19  1  0  0  0  0
 19  2  1  6  0  0  0
 19 20  1  0  0  0  0
 20 21  1  1  0  0  0
 20 22  1  0  0  0  0
 22 23  1  6  0  0  0
 24 23  1  1  0  0  0
 24 25  1  0  0  0  0
 24 34  1  0  0  0  0
 25 26  1  1  0  0  0
 25 27  1  0  0  0  0
 27 28  1  1  0  0  0
 27 30  1  0  0  0  0
 28 29  1  0  0  0  0
 30 31  1  1  0  0  0
 30 32  1  0  0  0  0
 30 33  1  0  0  0  0
 33 34  1  0  0  0  0
M  CHG  4   4   1  15   1  18   1  28   1
M  END
>  <CHROM.1>
170.83608812,-174.90834855,83.66908175,-65.62572492,-59.06820862,-172.47405534
61.80988015,60.20802432,-179.13688287,-50.63176490,171.63852857,-75.21420082
64.04272260,-2.12071277,58.94970377,-15.33763007,5.83856523,19.76171407,-1.98872482
-0.33912045,2.35446949

>  <Name>
1mwl

>  <RI>
0

>  <Rbt.Current_Directory>
/home/itssahil/PROJECTS/Mol_Feturizer/New_Systems/rnas/1mwl

>  <Rbt.Executable>
rbdock ($Id: //depot/dev/client3/rdock/2013.1/src/exe/rbdock.cxx#4 $)

>  <Rbt.Library>
libRbt.so (2013.1, Build901 2013/11/27)

>  <Rbt.Parameter_File>
/export/apps/rDock/src/rDock_2013.1_src/data/scripts/dock_solv.prm

>  <Rbt.Receptor>
prm/pocket_docking_7.prm

>  <SCORE>
-38.2226

>  <SCORE.INTER>
-18.7444

>  <SCORE.INTER.CONST>
1

>  <SCORE.INTER.POLAR>
-4.12143

>  <SCORE.INTER.ROT>
6

>  <SCORE.INTER.SOLV>
10.4563

>  <SCORE.INTER.VDW>
-9.84358

>  <SCORE.INTER.norm>
-0.551305

>  <SCORE.INTRA>
-19.5413

>  <SCORE.INTRA.DIHEDRAL>
-34.3532

>  <SCORE.INTRA.DIHEDRAL.0>
42.0816

>  <SCORE.INTRA.POLAR>
0.170757

>  <SCORE.INTRA.POLAR.0>
-0.254682

>  <SCORE.INTRA.REPUL>
0.00815197

>  <SCORE.INTRA.REPUL.0>
0

>  <SCORE.INTRA.SOLV>
-2.51477

>  <SCORE.INTRA.SOLV.lig_0>
-109.803

>  <SCORE.INTRA.VDW>
-1.72863

>  <SCORE.INTRA.VDW.0>
0.32176

>  <SCORE.INTRA.norm>
-0.574744

>  <SCORE.RESTR>
0.0630678

>  <SCORE.RESTR.CAVITY>
0.0630678

>  <SCORE.RESTR.norm>
0.00185493

>  <SCORE.SYSTEM>
0

>  <SCORE.SYSTEM.CONST>
0

>  <SCORE.SYSTEM.DIHEDRAL>
0

>  <SCORE.SYSTEM.SOLV>
0

>  <SCORE.SYSTEM.norm>
0

>  <SCORE.heavy>
34

>  <SCORE.norm>
-1.12419

>  <RMSD>
9.246

$$$$
1mwl
 OpenBabel11021811403D
libRbt.so/2013.1/901 2013/11/27
 34 36  0  0  0  0  0  0  0  0999 V2000
  -16.9158    6.2853   17.7415 C   0  0  2  0  0  0  0  0  0  0  0  0
  -15.7806    6.7183   18.4288 O   0  0  0  0  0  0  0  0  0  0  0  0
  -16.5921    6.3476   16.2222 C   0  0  2  0  0  0  0  0  0  0  0  0
  -15.4340    5.5019   15.9172 N   0  3  0  0  0  0  0  0  0  0  0  0
  -16.3577    7.8191   15.7711 C   0  0  1  0  0  0  0  0  0  0  0  0
  -16.0998    7.8841   14.4409 O   0  0  0  0  0  0  0  0  0  0  0  0
  -17.6261    8.6601   16.1336 C   0  0  2  0  0  0  0  0  0  0  0  0
  -17.4474   10.0309   15.7196 O   0  0  0  0  0  0  0  0  0  0  0  0
  -17.8593    8.5595   17.6794 C   0  0  2  0  0  0  0  0  0  0  0  0
  -18.0326    7.1462   18.0817 O   0  0  0  0  0  0  0  0  0  0  0  0
  -19.0889    9.3181   18.1917 C   0  0  2  0  0  0  0  0  0  0  0  0
  -20.1292    9.1958   17.2773 O   0  0  0  0  0  0  0  0  0  0  0  0
  -18.8502   10.8281   18.3737 C   0  0  0  0  0  0  0  0  0  0  0  0
  -14.0469    6.6027   22.3327 C   0  0  2  0  0  0  0  0  0  0  0  0
  -13.9130    6.6342   23.8114 N   0  3  0  0  0  0  0  0  0  0  0  0
  -14.5687    7.9692   21.7977 C   0  0  0  0  0  0  0  0  0  0  0  0
  -14.7244    7.9193   20.2346 C   0  0  2  0  0  0  0  0  0  0  0  0
  -15.2214    9.2575   19.7458 N   0  3  0  0  0  0  0  0  0  0  0  0
  -15.7056    6.7600   19.8481 C   0  0  2  0  0  0  0  0  0  0  0  0
  -15.1557    5.4161   20.3854 C   0  0  2  0  0  0  0  0  0  0  0  0
  -16.0611    4.3885   20.0622 O   0  0  0  0  0  0  0  0  0  0  0  0
  -15.0230    5.4765   21.9308 C   0  0  1  0  0  0  0  0  0  0  0  0
  -14.5203    4.2346   22.4013 O   0  0  0  0  0  0  0  0  0  0  0  0
  -13.1347    4.0797   22.5390 C   0  0  2  0  0  0  0  0  0  0  0  0
  -12.6316    3.3056   21.3059 C   0  0  2  0  0  0  0  0  0  0  0  0
  -12.9101    4.0587   20.1450 O   0  0  0  0  0  0  0  0  0  0  0  0
  -13.3441    1.9113   21.2496 C   0  0  1  0  0  0  0  0  0  0  0  0
  -12.9347    1.1120   20.0692 N   0  3  0  0  0  0  0  0  0  0  0  0
  -14.1116    0.7712   19.2295 C   0  0  0  0  0  0  0  0  0  0  0  0
  -13.0316    1.1199   22.5661 C   0  0  2  0  0  0  0  0  0  0  0  0
  -11.6111    0.9211   22.6927 O   0  0  0  0  0  0  0  0  0  0  0  0
  -13.6595   -0.1889   22.5780 C   0  0  0  0  0  0  0  0  0  0  0  0
  -13.4659    1.9562   23.8092 C   0  0  0  0  0  0  0  0  0  0  0  0
  -12.8462    3.3211   23.7682 O   0  0  0  0  0  0  0  0  0  0  0  0
  1  2  1  1  0  0  0
  1  3  1  0  0  0  0
  1 10  1  0  0  0  0
  3  4  1  1  0  0  0
  3  5  1  0  0  0  0
  5  6  1  6  0  0  0
  5  7  1  0  0  0  0
  7  8  1  1  0  0  0
  7  9  1  0  0  0  0
  9 10  1  6  0  0  0
  9 11  1  0  0  0  0
 11 12  1  6  0  0  0
 11 13  1  0  0  0  0
 14 15  1  1  0  0  0
 14 16  1  0  0  0  0
 14 22  1  0  0  0  0
 16 17  1  0  0  0  0
 17 18  1  1  0  0  0
 17 19  1  0  0  0  0
 19  2  1  6  0  0  0
 19 20  1  0  0  0  0
 20 21  1  1  0  0  0
 20 22  1  0  0  0  0
 22 23  1  6  0  0  0
 24 23  1  6  0  0  0
 24 25  1  0  0  0  0
 24 34  1  0  0  0  0
 25 26  1  6  0  0  0
 25 27  1  0  0  0  0
 27 28  1  6  0  0  0
 27 30  1  0  0  0  0
 28 29  1  0  0  0  0
 30 31  1  1  0  0  0
 30 32  1  0  0  0  0
 30 33  1  0  0  0  0
 33 34  1  0  0  0  0
M  CHG  4   4   1  15   1  18   1  28   1
M  END
>  <CHROM.1>
-178.38035493,-150.46153122,66.77917699,53.30009255,-58.20276845,38.18816282
66.98599138,-74.29287824,-178.59102118,68.80331036,-28.65292096,-100.04745708
177.11814289,-1.32001696,-49.07314265,-15.25695148,5.63148841,19.74117245
-3.09327391,-1.07522012,0.94373120

>  <Name>
1mwl

>  <RI>
0

>  <Rbt.Current_Directory>
/home/itssahil/PROJECTS/Mol_Feturizer/New_Systems/rnas/1mwl

>  <Rbt.Executable>
rbdock ($Id: //depot/dev/client3/rdock/2013.1/src/exe/rbdock.cxx#4 $)

>  <Rbt.Library>
libRbt.so (2013.1, Build901 2013/11/27)

>  <Rbt.Parameter_File>
/export/apps/rDock/src/rDock_2013.1_src/data/scripts/dock_solv.prm

>  <Rbt.Receptor>
prm/pocket_docking_6.prm

>  <SCORE>
-33.8732

>  <SCORE.INTER>
-22.96

>  <SCORE.INTER.CONST>
1

>  <SCORE.INTER.POLAR>
-3.76086

>  <SCORE.INTER.ROT>
6

>  <SCORE.INTER.SOLV>
11.1907

>  <SCORE.INTER.VDW>
-14.1007

>  <SCORE.INTER.norm>
-0.675294

>  <SCORE.INTRA>
-11.0214

>  <SCORE.INTRA.DIHEDRAL>
-21.9156

>  <SCORE.INTRA.DIHEDRAL.0>
42.0816

>  <SCORE.INTRA.POLAR>
0.241087

>  <SCORE.INTRA.POLAR.0>
-0.254682

>  <SCORE.INTRA.REPUL>
0

>  <SCORE.INTRA.REPUL.0>
0

>  <SCORE.INTRA.SOLV>
1.70129

>  <SCORE.INTRA.SOLV.lig_0>
-109.803

>  <SCORE.INTRA.VDW>
-1.73396

>  <SCORE.INTRA.VDW.0>
0.32176

>  <SCORE.INTRA.norm>
-0.324159

>  <SCORE.RESTR>
0.108239

>  <SCORE.RESTR.CAVITY>
0.108239

>  <SCORE.RESTR.norm>
0.00318351

>  <SCORE.SYSTEM>
0

>  <SCORE.SYSTEM.CONST>
0

>  <SCORE.SYSTEM.DIHEDRAL>
0

>  <SCORE.SYSTEM.SOLV>
0

>  <SCORE.SYSTEM.norm>
0

>  <SCORE.heavy>
34

>  <SCORE.norm>
-0.996269

>  <RMSD>
9.301

$$$$
1mwl
 OpenBabel11021811403D
libRbt.so/2013.1/901 2013/11/27
 34 36  0  0  0  0  0  0  0  0999 V2000
  -10.7985    8.8194   19.2343 C   0  0  2  0  0  0  0  0  0  0  0  0
  -11.2729    7.9291   20.1992 O   0  0  0  0  0  0  0  0  0  0  0  0
  -11.7323   10.0623   19.2488 C   0  0  2  0  0  0  0  0  0  0  0  0
  -11.7353   10.6766   20.5800 N   0  3  0  0  0  0  0  0  0  0  0  0
  -13.1705    9.6732   18.7974 C   0  0  1  0  0  0  0  0  0  0  0  0
  -13.9851   10.7579   18.7829 O   0  0  0  0  0  0  0  0  0  0  0  0
  -13.0886    9.0201   17.3782 C   0  0  2  0  0  0  0  0  0  0  0  0
  -14.4084    8.6551   16.9232 O   0  0  0  0  0  0  0  0  0  0  0  0
  -12.1514    7.7678   17.4652 C   0  0  2  0  0  0  0  0  0  0  0  0
  -10.8073    8.1642   17.9402 O   0  0  0  0  0  0  0  0  0  0  0  0
  -11.9497    7.0264   16.1388 C   0  0  2  0  0  0  0  0  0  0  0  0
  -11.5559    7.9260   15.1545 O   0  0  0  0  0  0  0  0  0  0  0  0
  -13.2259    6.3440   15.6135 C   0  0  0  0  0  0  0  0  0  0  0  0
   -9.5170    5.0990   22.8764 C   0  0  2  0  0  0  0  0  0  0  0  0
   -8.7564    3.9275   23.3807 N   0  3  0  0  0  0  0  0  0  0  0  0
  -10.7221    4.6390   22.0035 C   0  0  0  0  0  0  0  0  0  0  0  0
  -11.5092    5.8860   21.4599 C   0  0  2  0  0  0  0  0  0  0  0  0
  -12.6738    5.4093   20.6274 N   0  3  0  0  0  0  0  0  0  0  0  0
  -10.5359    6.7921   20.6304 C   0  0  2  0  0  0  0  0  0  0  0  0
   -9.3553    7.2394   21.5266 C   0  0  2  0  0  0  0  0  0  0  0  0
   -8.4714    8.0235   20.7624 O   0  0  0  0  0  0  0  0  0  0  0  0
   -8.5796    5.9976   22.0419 C   0  0  1  0  0  0  0  0  0  0  0  0
   -7.5016    6.4309   22.8583 O   0  0  0  0  0  0  0  0  0  0  0  0
   -6.2438    6.6131   22.2690 C   0  0  2  0  0  0  0  0  0  0  0  0
   -5.1963    6.5870   23.3982 C   0  0  2  0  0  0  0  0  0  0  0  0
   -5.2410    5.3296   24.0380 O   0  0  0  0  0  0  0  0  0  0  0  0
   -5.5071    7.7397   24.4129 C   0  0  1  0  0  0  0  0  0  0  0  0
   -4.5570    7.7649   25.5517 N   0  3  0  0  0  0  0  0  0  0  0  0
   -5.2103    7.2791   26.7939 C   0  0  0  0  0  0  0  0  0  0  0  0
   -5.4740    9.1131   23.6580 C   0  0  2  0  0  0  0  0  0  0  0  0
   -4.1703    9.3255   23.0847 O   0  0  0  0  0  0  0  0  0  0  0  0
   -5.7497   10.2294   24.5440 C   0  0  0  0  0  0  0  0  0  0  0  0
   -6.4760    9.0912   22.4628 C   0  0  0  0  0  0  0  0  0  0  0  0
   -6.2112    7.9120   21.5751 O   0  0  0  0  0  0  0  0  0  0  0  0
  1  2  1  1  0  0  0
  1  3  1  0  0  0  0
  1 10  1  0  0  0  0
  3  4  1  1  0  0  0
  3  5  1  0  0  0  0
  5  6  1  6  0  0  0
  5  7  1  0  0  0  0
  7  8  1  1  0  0  0
  7  9  1  0  0  0  0
  9 10  1  6  0  0  0
  9 11  1  0  0  0  0
 11 12  1  6  0  0  0
 11 13  1  0  0  0  0
 14 15  1  6  0  0  0
 14 16  1  0  0  0  0
 14 22  1  0  0  0  0
 16 17  1  0  0  0  0
 17 18  1  6  0  0  0
 17 19  1  0  0  0  0
 19  2  1  1  0  0  0
 19 20  1  0  0  0  0
 20 21  1  6  0  0  0
 20 22  1  0  0  0  0
 22 23  1  1  0  0  0
 24 23  1  1  0  0  0
 24 25  1  0  0  0  0
 24 34  1  0  0  0  0
 25 26  1  1  0  0  0
 25 27  1  0  0  0  0
 27 28  1  1  0  0  0
 27 30  1  0  0  0  0
 28 29  1  0  0  0  0
 30 31  1  6  0  0  0
 30 32  1  0  0  0  0
 30 33  1  0  0  0  0
 33 34  1  0  0  0  0
M  CHG  4   4   1  15   1  18   1  28   1
M  END
>  <CHROM.1>
-168.58020387,-167.66375046,-65.10188449,-66.18179751,62.53621795,51.92643717
-55.71184632,59.71189453,-62.22827202,82.00672978,146.48406793,-160.40591441
175.15111777,12.99773783,64.95909986,-9.34623265,7.63806189,20.97685598,-2.84733923
0.69317361,2.83474649

>  <Name>
1mwl

>  <RI>
0

>  <Rbt.Current_Directory>
/home/itssahil/PROJECTS/Mol_Feturizer/New_Systems/rnas/1mwl

>  <Rbt.Executable>
rbdock ($Id: //depot/dev/client3/rdock/2013.1/src/exe/rbdock.cxx#4 $)

>  <Rbt.Library>
libRbt.so (2013.1, Build901 2013/11/27)

>  <Rbt.Parameter_File>
/export/apps/rDock/src/rDock_2013.1_src/data/scripts/dock_solv.prm

>  <Rbt.Receptor>
prm/pocket_docking_5.prm

>  <SCORE>
-55.2472

>  <SCORE.INTER>
-39.1435

>  <SCORE.INTER.CONST>
1

>  <SCORE.INTER.POLAR>
-4.77249

>  <SCORE.INTER.ROT>
6

>  <SCORE.INTER.SOLV>
21.053

>  <SCORE.INTER.VDW>
-24.8051

>  <SCORE.INTER.norm>
-1.15128

>  <SCORE.INTRA>
-16.1037

>  <SCORE.INTRA.DIHEDRAL>
-28.424

>  <SCORE.INTRA.DIHEDRAL.0>
42.0816

>  <SCORE.INTRA.POLAR>
0.25354

>  <SCORE.INTRA.POLAR.0>
-0.254682

>  <SCORE.INTRA.REPUL>
0

>  <SCORE.INTRA.REPUL.0>
0

>  <SCORE.INTRA.SOLV>
-2.00994

>  <SCORE.INTRA.SOLV.lig_0>
-109.803

>  <SCORE.INTRA.VDW>
-1.74877

>  <SCORE.INTRA.VDW.0>
0.32176

>  <SCORE.INTRA.norm>
-0.473638

>  <SCORE.RESTR>
0

>  <SCORE.RESTR.CAVITY>
0

>  <SCORE.RESTR.norm>
0

>  <SCORE.SYSTEM>
0

>  <SCORE.SYSTEM.CONST>
0

>  <SCORE.SYSTEM.DIHEDRAL>
0

>  <SCORE.SYSTEM.SOLV>
0

>  <SCORE.SYSTEM.norm>
0

>  <SCORE.heavy>
34

>  <SCORE.norm>
-1.62492

>  <RMSD>
9.318

$$$$
1mwl
 OpenBabel11021811403D
libRbt.so/2013.1/901 2013/11/27
 34 36  0  0  0  0  0  0  0  0999 V2000
  -12.1948    7.8723   19.4535 C   0  0  2  0  0  0  0  0  0  0  0  0
  -10.8817    7.8621   19.9272 O   0  0  0  0  0  0  0  0  0  0  0  0
  -12.4665    9.2856   18.8654 C   0  0  2  0  0  0  0  0  0  0  0  0
  -11.5135    9.5771   17.7901 N   0  3  0  0  0  0  0  0  0  0  0  0
  -12.4103   10.3658   19.9850 C   0  0  1  0  0  0  0  0  0  0  0  0
  -12.6717   11.5989   19.4837 O   0  0  0  0  0  0  0  0  0  0  0  0
  -13.4438    9.9866   21.0965 C   0  0  2  0  0  0  0  0  0  0  0  0
  -13.4258   10.9742   22.1484 O   0  0  0  0  0  0  0  0  0  0  0  0
  -13.0785    8.5656   21.6454 C   0  0  2  0  0  0  0  0  0  0  0  0
  -13.0961    7.5715   20.5495 O   0  0  0  0  0  0  0  0  0  0  0  0
  -14.0202    8.0387   22.7342 C   0  0  2  0  0  0  0  0  0  0  0  0
  -14.0192    8.9114   23.8167 O   0  0  0  0  0  0  0  0  0  0  0  0
  -13.6115    6.6623   23.2898 C   0  0  0  0  0  0  0  0  0  0  0  0
   -9.5809    4.6425   22.4175 C   0  0  2  0  0  0  0  0  0  0  0  0
   -8.8959    3.4047   22.8691 N   0  3  0  0  0  0  0  0  0  0  0  0
  -10.5873    4.3280   21.2711 C   0  0  0  0  0  0  0  0  0  0  0  0
  -11.2931    5.6465   20.7880 C   0  0  2  0  0  0  0  0  0  0  0  0
  -12.2669    5.3091   19.6860 N   0  3  0  0  0  0  0  0  0  0  0  0
  -10.2072    6.6701   20.3089 C   0  0  2  0  0  0  0  0  0  0  0  0
   -9.2288    6.9684   21.4712 C   0  0  2  0  0  0  0  0  0  0  0  0
   -8.2395    7.8614   21.0195 O   0  0  0  0  0  0  0  0  0  0  0  0
   -8.5291    5.6596   21.9256 C   0  0  1  0  0  0  0  0  0  0  0  0
   -7.6361    5.9569   22.9888 O   0  0  0  0  0  0  0  0  0  0  0  0
   -6.3409    5.4245   22.9469 C   0  0  2  0  0  0  0  0  0  0  0  0
   -5.8883    5.1954   24.4014 C   0  0  2  0  0  0  0  0  0  0  0  0
   -6.7604    4.2699   25.0141 O   0  0  0  0  0  0  0  0  0  0  0  0
   -5.9025    6.5637   25.1646 C   0  0  1  0  0  0  0  0  0  0  0  0
   -5.5057    6.4244   26.5870 N   0  3  0  0  0  0  0  0  0  0  0  0
   -6.6850    6.5634   27.4792 C   0  0  0  0  0  0  0  0  0  0  0  0
   -4.9440    7.5687   24.4377 C   0  0  2  0  0  0  0  0  0  0  0  0
   -3.6024    7.0459   24.4278 O   0  0  0  0  0  0  0  0  0  0  0  0
   -4.9054    8.8607   25.0984 C   0  0  0  0  0  0  0  0  0  0  0  0
   -5.3622    7.7211   22.9427 C   0  0  0  0  0  0  0  0  0  0  0  0
   -5.4401    6.3790   22.2783 O   0  0  0  0  0  0  0  0  0  0  0  0
  1  2  1  1  0  0  0
  1  3  1  0  0  0  0
  1 10  1  0  0  0  0
  3  4  1  6  0  0  0
  3  5  1  0  0  0  0
  5  6  1  6  0  0  0
  5  7  1  0  0  0  0
  7  8  1  1  0  0  0
  7  9  1  0  0  0  0
  9 10  1  6  0  0  0
  9 11  1  0  0  0  0
 11 12  1  1  0  0  0
 11 13  1  0  0  0  0
 14 15  1  6  0  0  0
 14 16  1  0  0  0  0
 14 22  1  0  0  0  0
 16 17  1  0  0  0  0
 17 18  1  6  0  0  0
 17 19  1  0  0  0  0
 19  2  1  1  0  0  0
 19 20  1  0  0  0  0
 20 21  1  6  0  0  0
 20 22  1  0  0  0  0
 22 23  1  1  0  0  0
 24 23  1  1  0  0  0
 24 25  1  0  0  0  0
 24 34  1  0  0  0  0
 25 26  1  1  0  0  0
 25 27  1  0  0  0  0
 27 28  1  1  0  0  0
 27 30  1  0  0  0  0
 28 29  1  0  0  0  0
 30 31  1  1  0  0  0
 30 32  1  0  0  0  0
 30 33  1  0  0  0  0
 33 34  1  0  0  0  0
M  CHG  4   4   1  15   1  18   1  28   1
M  END
>  <CHROM.1>
-168.15140815,-28.01404956,174.59059185,-172.42255754,-57.11628593,-59.28746088
174.84023769,173.45634850,-100.24672091,176.41148803,106.24392704,-148.90365134
-176.62703235,13.46766715,-53.51254490,-9.54344619,7.24155126,22.25889053
2.83111086,-0.52194801,-0.00457638

>  <Name>
1mwl

>  <RI>
0

>  <Rbt.Current_Directory>
/home/itssahil/PROJECTS/Mol_Feturizer/New_Systems/rnas/1mwl

>  <Rbt.Executable>
rbdock ($Id: //depot/dev/client3/rdock/2013.1/src/exe/rbdock.cxx#4 $)

>  <Rbt.Library>
libRbt.so (2013.1, Build901 2013/11/27)

>  <Rbt.Parameter_File>
/export/apps/rDock/src/rDock_2013.1_src/data/scripts/dock_solv.prm

>  <Rbt.Receptor>
prm/blind_docking_100.prm

>  <SCORE>
-26.9889

>  <SCORE.INTER>
-25.666

>  <SCORE.INTER.CONST>
1

>  <SCORE.INTER.POLAR>
-3.03556

>  <SCORE.INTER.ROT>
6

>  <SCORE.INTER.SOLV>
25.6248

>  <SCORE.INTER.VDW>
-23.1338

>  <SCORE.INTER.norm>
-0.754884

>  <SCORE.INTRA>
-11.8891

>  <SCORE.INTRA.DIHEDRAL>
-20.3322

>  <SCORE.INTRA.DIHEDRAL.0>
42.0816

>  <SCORE.INTRA.POLAR>
-1.4163

>  <SCORE.INTRA.POLAR.0>
-0.254682

>  <SCORE.INTRA.REPUL>
0

>  <SCORE.INTRA.REPUL.0>
0

>  <SCORE.INTRA.SOLV>
2.12358

>  <SCORE.INTRA.SOLV.lig_0>
-109.803

>  <SCORE.INTRA.VDW>
2.03055

>  <SCORE.INTRA.VDW.0>
0.32176

>  <SCORE.INTRA.norm>
-0.34968

>  <SCORE.RESTR>
10.5662

>  <SCORE.RESTR.CAVITY>
10.5662

>  <SCORE.RESTR.norm>
0.310772

>  <SCORE.SYSTEM>
0

>  <SCORE.SYSTEM.CONST>
0

>  <SCORE.SYSTEM.DIHEDRAL>
0

>  <SCORE.SYSTEM.SOLV>
0

>  <SCORE.SYSTEM.norm>
0

>  <SCORE.heavy>
34

>  <SCORE.norm>
-0.793792

>  <RMSD>
9.342

$$$$
1mwl
 OpenBabel11021811403D
libRbt.so/2013.1/901 2013/11/27
 34 36  0  0  0  0  0  0  0  0999 V2000
  -12.2796    8.2421   20.0752 C   0  0  2  0  0  0  0  0  0  0  0  0
  -10.9564    8.1641   20.5130 O   0  0  0  0  0  0  0  0  0  0  0  0
  -12.6156    9.7467   19.8746 C   0  0  2  0  0  0  0  0  0  0  0  0
  -11.6989   10.3433   18.8983 N   0  3  0  0  0  0  0  0  0  0  0  0
  -12.5725   10.5044   21.2338 C   0  0  1  0  0  0  0  0  0  0  0  0
  -12.8897   11.8132   21.0706 O   0  0  0  0  0  0  0  0  0  0  0  0
  -13.5656    9.8105   22.2236 C   0  0  2  0  0  0  0  0  0  0  0  0
  -13.5588   10.4947   23.4941 O   0  0  0  0  0  0  0  0  0  0  0  0
  -13.1367    8.3124   22.3831 C   0  0  2  0  0  0  0  0  0  0  0  0
  -13.1439    7.6333   21.0685 O   0  0  0  0  0  0  0  0  0  0  0  0
  -14.0333    7.4855   23.3117 C   0  0  2  0  0  0  0  0  0  0  0  0
  -13.5792    6.1720   23.3537 O   0  0  0  0  0  0  0  0  0  0  0  0
  -15.5016    7.4196   22.8533 C   0  0  0  0  0  0  0  0  0  0  0  0
   -9.5809    4.5526   22.3363 C   0  0  2  0  0  0  0  0  0  0  0  0
   -8.8735    3.2626   22.5389 N   0  3  0  0  0  0  0  0  0  0  0  0
  -10.5972    4.4446   21.1609 C   0  0  0  0  0  0  0  0  0  0  0  0
  -11.3268    5.8195   20.9430 C   0  0  2  0  0  0  0  0  0  0  0  0
  -12.3096    5.6812   19.8064 N   0  3  0  0  0  0  0  0  0  0  0  0
  -10.2610    6.9321   20.6557 C   0  0  2  0  0  0  0  0  0  0  0  0
   -9.2724    7.0207   21.8439 C   0  0  2  0  0  0  0  0  0  0  0  0
   -8.3010    7.9984   21.5598 O   0  0  0  0  0  0  0  0  0  0  0  0
   -8.5493    5.6607   22.0355 C   0  0  1  0  0  0  0  0  0  0  0  0
   -7.6471    5.7656   23.1271 O   0  0  0  0  0  0  0  0  0  0  0  0
   -6.2748    5.6304   22.8797 C   0  0  2  0  0  0  0  0  0  0  0  0
   -5.5736    5.4690   24.2417 C   0  0  2  0  0  0  0  0  0  0  0  0
   -6.0574    4.3027   24.8728 O   0  0  0  0  0  0  0  0  0  0  0  0
   -5.8583    6.7358   25.1187 C   0  0  1  0  0  0  0  0  0  0  0  0
   -5.2396    6.6458   26.4637 N   0  3  0  0  0  0  0  0  0  0  0  0
   -6.2815    6.5466   27.5176 C   0  0  0  0  0  0  0  0  0  0  0  0
   -5.3308    8.0086   24.3713 C   0  0  2  0  0  0  0  0  0  0  0  0
   -3.9125    7.8944   24.1506 O   0  0  0  0  0  0  0  0  0  0  0  0
   -5.5588    9.2228   25.1336 C   0  0  0  0  0  0  0  0  0  0  0  0
   -5.9838    8.1087   22.9582 C   0  0  0  0  0  0  0  0  0  0  0  0
   -5.7797    6.8355   22.1925 O   0  0  0  0  0  0  0  0  0  0  0  0
  1  2  1  1  0  0  0
  1  3  1  0  0  0  0
  1 10  1  0  0  0  0
  3  4  1  6  0  0  0
  3  5  1  0  0  0  0
  5  6  1  6  0  0  0
  5  7  1  0  0  0  0
  7  8  1  1  0  0  0
  7  9  1  0  0  0  0
  9 10  1  6  0  0  0
  9 11  1  0  0  0  0
 11 12  1  6  0  0  0
 11 13  1  0  0  0  0
 14 15  1  6  0  0  0
 14 16  1  0  0  0  0
 14 22  1  0  0  0  0
 16 17  1  0  0  0  0
 17 18  1  6  0  0  0
 17 19  1  0  0  0  0
 19  2  1  1  0  0  0
 19 20  1  0  0  0  0
 20 21  1  6  0  0  0
 20 22  1  0  0  0  0
 22 23  1  1  0  0  0
 24 23  1  1  0  0  0
 24 25  1  0  0  0  0
 24 34  1  0  0  0  0
 25 26  1  1  0  0  0
 25 27  1  0  0  0  0
 27 28  1  1  0  0  0
 27 30  1  0  0  0  0
 28 29  1  0  0  0  0
 30 31  1  6  0  0  0
 30 32  1  0  0  0  0
 30 33  1  0  0  0  0
 33 34  1  0  0  0  0
M  CHG  4   4   1  15   1  18   1  28   1
M  END
>  <CHROM.1>
-172.72917712,-27.36014002,73.09955096,-171.94495704,66.71257462,178.64048194
-50.80737048,-80.20663517,140.20532887,65.14916628,123.91983053,-167.51181437
-57.70573190,7.18671593,62.61338936,-9.64810816,7.32277244,22.53895186,2.88851599
-0.41901934,0.04608256

>  <Name>
1mwl

>  <RI>
0

>  <Rbt.Current_Directory>
/home/itssahil/PROJECTS/Mol_Feturizer/New_Systems/rnas/1mwl

>  <Rbt.Executable>
rbdock ($Id: //depot/dev/client3/rdock/2013.1/src/exe/rbdock.cxx#4 $)

>  <Rbt.Library>
libRbt.so (2013.1, Build901 2013/11/27)

>  <Rbt.Parameter_File>
/export/apps/rDock/src/rDock_2013.1_src/data/scripts/dock_solv.prm

>  <Rbt.Receptor>
prm/blind_docking_100.prm

>  <SCORE>
-20.0696

>  <SCORE.INTER>
-23.4718

>  <SCORE.INTER.CONST>
1

>  <SCORE.INTER.POLAR>
-2.51499

>  <SCORE.INTER.ROT>
6

>  <SCORE.INTER.SOLV>
24.1794

>  <SCORE.INTER.VDW>
-22.9244

>  <SCORE.INTER.norm>
-0.690347

>  <SCORE.INTRA>
-7.65061

>  <SCORE.INTRA.DIHEDRAL>
-21.1416

>  <SCORE.INTRA.DIHEDRAL.0>
42.0816

>  <SCORE.INTRA.POLAR>
-0.392789

>  <SCORE.INTRA.POLAR.0>
-0.254682

>  <SCORE.INTRA.REPUL>
0

>  <SCORE.INTRA.REPUL.0>
0

>  <SCORE.INTRA.SOLV>
1.12395

>  <SCORE.INTRA.SOLV.lig_0>
-109.803

>  <SCORE.INTRA.VDW>
3.6937

>  <SCORE.INTRA.VDW.0>
0.32176

>  <SCORE.INTRA.norm>
-0.225018

>  <SCORE.RESTR>
11.0528

>  <SCORE.RESTR.CAVITY>
11.0528

>  <SCORE.RESTR.norm>
0.325082

>  <SCORE.SYSTEM>
0

>  <SCORE.SYSTEM.CONST>
0

>  <SCORE.SYSTEM.DIHEDRAL>
0

>  <SCORE.SYSTEM.SOLV>
0

>  <SCORE.SYSTEM.norm>
0

>  <SCORE.heavy>
34

>  <SCORE.norm>
-0.590283

>  <RMSD>
9.347

$$$$
1mwl
 OpenBabel11021811403D
libRbt.so/2013.1/901 2013/11/27
 34 36  0  0  0  0  0  0  0  0999 V2000
  -13.4055    2.3747   14.5744 C   0  0  2  0  0  0  0  0  0  0  0  0
  -12.0788    2.8017   14.6531 O   0  0  0  0  0  0  0  0  0  0  0  0
  -13.8119    2.3923   13.0739 C   0  0  2  0  0  0  0  0  0  0  0  0
  -12.9269    1.5159   12.3004 N   0  3  0  0  0  0  0  0  0  0  0  0
  -13.8002    3.8469   12.5194 C   0  0  1  0  0  0  0  0  0  0  0  0
  -14.1786    3.8732   11.2169 O   0  0  0  0  0  0  0  0  0  0  0  0
  -14.7569    4.7222   13.3945 C   0  0  2  0  0  0  0  0  0  0  0  0
  -14.7783    6.0783   12.9015 O   0  0  0  0  0  0  0  0  0  0  0  0
  -14.2581    4.6652   14.8783 C   0  0  2  0  0  0  0  0  0  0  0  0
  -14.2375    3.2662   15.3599 O   0  0  0  0  0  0  0  0  0  0  0  0
  -15.1124    5.4612   15.8716 C   0  0  2  0  0  0  0  0  0  0  0  0
  -16.4384    5.0526   15.7813 O   0  0  0  0  0  0  0  0  0  0  0  0
  -15.1100    6.9783   15.6095 C   0  0  0  0  0  0  0  0  0  0  0  0
  -10.9154    1.4100   18.5221 C   0  0  2  0  0  0  0  0  0  0  0  0
  -10.1261    1.2109   19.7642 N   0  3  0  0  0  0  0  0  0  0  0  0
  -10.1342    0.8815   17.2826 C   0  0  0  0  0  0  0  0  0  0  0  0
  -10.9697    1.1135   15.9718 C   0  0  2  0  0  0  0  0  0  0  0  0
  -10.1927    0.5840   14.7918 N   0  3  0  0  0  0  0  0  0  0  0  0
  -11.2835    2.6416   15.8208 C   0  0  2  0  0  0  0  0  0  0  0  0
  -12.0667    3.1341   17.0622 C   0  0  2  0  0  0  0  0  0  0  0  0
  -12.3128    4.5134   16.9312 O   0  0  0  0  0  0  0  0  0  0  0  0
  -11.2219    2.9125   18.3454 C   0  0  1  0  0  0  0  0  0  0  0  0
  -11.9575    3.3729   19.4694 O   0  0  0  0  0  0  0  0  0  0  0  0
  -12.1062    4.7535   19.6551 C   0  0  2  0  0  0  0  0  0  0  0  0
  -11.0585    5.1954   20.6942 C   0  0  2  0  0  0  0  0  0  0  0  0
   -9.7681    4.9222   20.1912 O   0  0  0  0  0  0  0  0  0  0  0  0
  -11.3085    4.4239   22.0349 C   0  0  1  0  0  0  0  0  0  0  0  0
  -10.3188    4.7723   23.0833 N   0  3  0  0  0  0  0  0  0  0  0  0
   -8.9541    4.3442   22.6829 C   0  0  0  0  0  0  0  0  0  0  0  0
  -12.7584    4.7330   22.5440 C   0  0  2  0  0  0  0  0  0  0  0  0
  -12.9051    6.1464   22.7765 O   0  0  0  0  0  0  0  0  0  0  0  0
  -13.0559    4.0512   23.7906 C   0  0  0  0  0  0  0  0  0  0  0  0
  -13.8019    4.3627   21.4452 C   0  0  0  0  0  0  0  0  0  0  0  0
  -13.4642    5.0380   20.1495 O   0  0  0  0  0  0  0  0  0  0  0  0
  1  2  1  6  0  0  0
  1  3  1  0  0  0  0
  1 10  1  0  0  0  0
  3  4  1  6  0  0  0
  3  5  1  0  0  0  0
  5  6  1  6  0  0  0
  5  7  1  0  0  0  0
  7  8  1  6  0  0  0
  7  9  1  0  0  0  0
  9 10  1  1  0  0  0
  9 11  1  0  0  0  0
 11 12  1  6  0  0  0
 11 13  1  0  0  0  0
 14 15  1  1  0  0  0
 14 16  1  0  0  0  0
 14 22  1  0  0  0  0
 16 17  1  0  0  0  0
 17 18  1  6  0  0  0
 17 19  1  0  0  0  0
 19  2  1  6  0  0  0
 19 20  1  0  0  0  0
 20 21  1  6  0  0  0
 20 22  1  0  0  0  0
 22 23  1  1  0  0  0
 24 23  1  1  0  0  0
 24 25  1  0  0  0  0
 24 34  1  0  0  0  0
 25 26  1  6  0  0  0
 25 27  1  0  0  0  0
 27 28  1  1  0  0  0
 27 30  1  0  0  0  0
 28 29  1  0  0  0  0
 30 31  1  1  0  0  0
 30 32  1  0  0  0  0
 30 33  1  0  0  0  0
 33 34  1  0  0  0  0
M  CHG  4   4   1  15   1  18   1  28   1
M  END
>  <CHROM.1>
-166.08636387,70.58937291,-61.17160477,-175.26097977,69.66078816,54.65156010
-55.83714607,-73.27000117,-51.73260064,-54.87585810,167.04252128,-98.99397109
-64.51388808,55.44498616,-53.78062340,-12.51167197,3.76575853,17.48166553
-1.94765760,-0.74426824,1.21570291

>  <Name>
1mwl

>  <RI>
0

>  <Rbt.Current_Directory>
/home/itssahil/PROJECTS/Mol_Feturizer/New_Systems/rnas/1mwl

>  <Rbt.Executable>
rbdock ($Id: //depot/dev/client3/rdock/2013.1/src/exe/rbdock.cxx#4 $)

>  <Rbt.Library>
libRbt.so (2013.1, Build901 2013/11/27)

>  <Rbt.Parameter_File>
/export/apps/rDock/src/rDock_2013.1_src/data/scripts/dock_solv.prm

>  <Rbt.Receptor>
prm/pocket_docking_7.prm

>  <SCORE>
-56.9024

>  <SCORE.INTER>
-41.9689

>  <SCORE.INTER.CONST>
1

>  <SCORE.INTER.POLAR>
-7.07535

>  <SCORE.INTER.ROT>
6

>  <SCORE.INTER.SOLV>
16.6648

>  <SCORE.INTER.VDW>
-17.5497

>  <SCORE.INTER.norm>
-1.23438

>  <SCORE.INTRA>
-14.9335

>  <SCORE.INTRA.DIHEDRAL>
-32.6422

>  <SCORE.INTRA.DIHEDRAL.0>
42.0816

>  <SCORE.INTRA.POLAR>
0.216179

>  <SCORE.INTRA.POLAR.0>
-0.254682

>  <SCORE.INTRA.REPUL>
0

>  <SCORE.INTRA.REPUL.0>
0

>  <SCORE.INTRA.SOLV>
1.14731

>  <SCORE.INTRA.SOLV.lig_0>
-109.803

>  <SCORE.INTRA.VDW>
0.0789261

>  <SCORE.INTRA.VDW.0>
0.32176

>  <SCORE.INTRA.norm>
-0.439221

>  <SCORE.RESTR>
0

>  <SCORE.RESTR.CAVITY>
0

>  <SCORE.RESTR.norm>
0

>  <SCORE.SYSTEM>
0

>  <SCORE.SYSTEM.CONST>
0

>  <SCORE.SYSTEM.DIHEDRAL>
0

>  <SCORE.SYSTEM.SOLV>
0

>  <SCORE.SYSTEM.norm>
0

>  <SCORE.heavy>
34

>  <SCORE.norm>
-1.6736

>  <RMSD>
9.368

$$$$
1mwl
 OpenBabel11021811403D
libRbt.so/2013.1/901 2013/11/27
 34 36  0  0  0  0  0  0  0  0999 V2000
  -16.2536    6.5318   17.7131 C   0  0  2  0  0  0  0  0  0  0  0  0
  -16.8318    5.3019   17.3946 O   0  0  0  0  0  0  0  0  0  0  0  0
  -17.4088    7.5566   17.8931 C   0  0  2  0  0  0  0  0  0  0  0  0
  -18.3200    7.1101   18.9513 N   0  3  0  0  0  0  0  0  0  0  0  0
  -18.1614    7.7766   16.5482 C   0  0  1  0  0  0  0  0  0  0  0  0
  -19.1550    8.6890   16.6914 O   0  0  0  0  0  0  0  0  0  0  0  0
  -17.1291    8.2428   15.4692 C   0  0  2  0  0  0  0  0  0  0  0  0
  -17.7956    8.4664   14.2090 O   0  0  0  0  0  0  0  0  0  0  0  0
  -16.0216    7.1428   15.3385 C   0  0  2  0  0  0  0  0  0  0  0  0
  -15.3573    6.9253   16.6427 O   0  0  0  0  0  0  0  0  0  0  0  0
  -14.9150    7.4658   14.3281 C   0  0  2  0  0  0  0  0  0  0  0  0
  -14.0093    6.4123   14.2726 O   0  0  0  0  0  0  0  0  0  0  0  0
  -14.0969    8.7191   14.6893 C   0  0  0  0  0  0  0  0  0  0  0  0
  -15.3911    1.4332   16.2916 C   0  0  2  0  0  0  0  0  0  0  0  0
  -14.7014    0.3526   15.5418 N   0  3  0  0  0  0  0  0  0  0  0  0
  -16.5107    2.0786   15.4222 C   0  0  0  0  0  0  0  0  0  0  0  0
  -17.2217    3.2326   16.2177 C   0  0  2  0  0  0  0  0  0  0  0  0
  -18.3053    3.8311   15.3548 N   0  3  0  0  0  0  0  0  0  0  0  0
  -16.1579    4.3038   16.6386 C   0  0  2  0  0  0  0  0  0  0  0  0
  -15.0652    3.6343   17.5074 C   0  0  2  0  0  0  0  0  0  0  0  0
  -14.0986    4.5976   17.8506 O   0  0  0  0  0  0  0  0  0  0  0  0
  -14.3626    2.5084   16.7023 C   0  0  1  0  0  0  0  0  0  0  0  0
  -13.3642    1.9109   17.5163 O   0  0  0  0  0  0  0  0  0  0  0  0
  -12.1997    1.4281   16.9053 C   0  0  2  0  0  0  0  0  0  0  0  0
  -11.3257    0.8005   18.0077 C   0  0  2  0  0  0  0  0  0  0  0  0
  -12.0293   -0.2716   18.5978 O   0  0  0  0  0  0  0  0  0  0  0  0
  -10.9811    1.8950   19.0745 C   0  0  1  0  0  0  0  0  0  0  0  0
  -10.1627    1.3618   20.1908 N   0  3  0  0  0  0  0  0  0  0  0  0
  -10.6475    1.8817   21.4949 C   0  0  0  0  0  0  0  0  0  0  0  0
  -10.2259    3.0768   18.3744 C   0  0  2  0  0  0  0  0  0  0  0  0
   -9.0065    2.5947   17.7795 O   0  0  0  0  0  0  0  0  0  0  0  0
   -9.8706    4.1280   19.3103 C   0  0  0  0  0  0  0  0  0  0  0  0
  -11.0867    3.6429   17.2031 C   0  0  0  0  0  0  0  0  0  0  0  0
  -11.4844    2.5442   16.2632 O   0  0  0  0  0  0  0  0  0  0  0  0
  1  2  1  6  0  0  0
  1  3  1  0  0  0  0
  1 10  1  0  0  0  0
  3  4  1  1  0  0  0
  3  5  1  0  0  0  0
  5  6  1  1  0  0  0
  5  7  1  0  0  0  0
  7  8  1  6  0  0  0
  7  9  1  0  0  0  0
  9 10  1  1  0  0  0
  9 11  1  0  0  0  0
 11 12  1  1  0  0  0
 11 13  1  0  0  0  0
 14 15  1  6  0  0  0
 14 16  1  0  0  0  0
 14 22  1  0  0  0  0
 16 17  1  0  0  0  0
 17 18  1  6  0  0  0
 17 19  1  0  0  0  0
 19  2  1  1  0  0  0
 19 20  1  0  0  0  0
 20 21  1  6  0  0  0
 20 22  1  0  0  0  0
 22 23  1  1  0  0  0
 24 23  1  1  0  0  0
 24 25  1  0  0  0  0
 24 34  1  0  0  0  0
 25 26  1  1  0  0  0
 25 27  1  0  0  0  0
 27 28  1  1  0  0  0
 27 30  1  0  0  0  0
 28 29  1  0  0  0  0
 30 31  1  6  0  0  0
 30 32  1  0  0  0  0
 30 33  1  0  0  0  0
 33 34  1  0  0  0  0
M  CHG  4   4   1  15   1  18   1  28   1
M  END
>  <CHROM.1>
153.00700824,-167.36929206,-179.12392437,-82.14772981,-69.66484395,-178.61066321
63.65269805,-168.51999082,168.49477905,-28.98523605,92.80613181,-178.22337879
177.11702334,-17.30157311,-62.45138677,-14.40736502,4.32906148,17.01052614
-2.43487019,0.34071118,3.09744803

>  <Name>
1mwl

>  <RI>
0

>  <Rbt.Current_Directory>
/home/itssahil/PROJECTS/Mol_Feturizer/New_Systems/rnas/1mwl

>  <Rbt.Executable>
rbdock ($Id: //depot/dev/client3/rdock/2013.1/src/exe/rbdock.cxx#4 $)

>  <Rbt.Library>
libRbt.so (2013.1, Build901 2013/11/27)

>  <Rbt.Parameter_File>
/export/apps/rDock/src/rDock_2013.1_src/data/scripts/dock_solv.prm

>  <Rbt.Receptor>
prm/pocket_docking_7.prm

>  <SCORE>
-56.7512

>  <SCORE.INTER>
-40.0598

>  <SCORE.INTER.CONST>
1

>  <SCORE.INTER.POLAR>
-6.59466

>  <SCORE.INTER.ROT>
6

>  <SCORE.INTER.SOLV>
16.3561

>  <SCORE.INTER.VDW>
-17.7764

>  <SCORE.INTER.norm>
-1.17823

>  <SCORE.INTRA>
-16.6914

>  <SCORE.INTRA.DIHEDRAL>
-23.9945

>  <SCORE.INTRA.DIHEDRAL.0>
42.0816

>  <SCORE.INTRA.POLAR>
-0.369133

>  <SCORE.INTRA.POLAR.0>
-0.254682

>  <SCORE.INTRA.REPUL>
0

>  <SCORE.INTRA.REPUL.0>
0

>  <SCORE.INTRA.SOLV>
-1.39122

>  <SCORE.INTRA.SOLV.lig_0>
-109.803

>  <SCORE.INTRA.VDW>
-2.74351

>  <SCORE.INTRA.VDW.0>
0.32176

>  <SCORE.INTRA.norm>
-0.490924

>  <SCORE.RESTR>
0

>  <SCORE.RESTR.CAVITY>
0

>  <SCORE.RESTR.norm>
0

>  <SCORE.SYSTEM>
0

>  <SCORE.SYSTEM.CONST>
0

>  <SCORE.SYSTEM.DIHEDRAL>
0

>  <SCORE.SYSTEM.SOLV>
0

>  <SCORE.SYSTEM.norm>
0

>  <SCORE.heavy>
34

>  <SCORE.norm>
-1.66915

>  <RMSD>
9.428

$$$$
1mwl
 OpenBabel11021811403D
libRbt.so/2013.1/901 2013/11/27
 34 36  0  0  0  0  0  0  0  0999 V2000
  -12.4071    4.4166   14.4333 C   0  0  2  0  0  0  0  0  0  0  0  0
  -12.5236    3.1530   15.0149 O   0  0  0  0  0  0  0  0  0  0  0  0
  -13.6480    4.6249   13.5202 C   0  0  2  0  0  0  0  0  0  0  0  0
  -14.8793    4.5165   14.3085 N   0  3  0  0  0  0  0  0  0  0  0  0
  -13.6364    3.6109   12.3390 C   0  0  1  0  0  0  0  0  0  0  0  0
  -14.7030    3.8033   11.5233 O   0  0  0  0  0  0  0  0  0  0  0  0
  -12.2956    3.7786   11.5506 C   0  0  2  0  0  0  0  0  0  0  0  0
  -12.2550    2.8584   10.4397 O   0  0  0  0  0  0  0  0  0  0  0  0
  -11.1072    3.5274   12.5398 C   0  0  2  0  0  0  0  0  0  0  0  0
  -11.1731    4.4762   13.6732 O   0  0  0  0  0  0  0  0  0  0  0  0
   -9.7143    3.6788   11.9179 C   0  0  2  0  0  0  0  0  0  0  0  0
   -9.5537    2.7490   10.8966 O   0  0  0  0  0  0  0  0  0  0  0  0
   -8.5650    3.4303   12.9117 C   0  0  0  0  0  0  0  0  0  0  0  0
  -10.6148    1.2247   18.3160 C   0  0  2  0  0  0  0  0  0  0  0  0
   -9.5680    0.5966   19.1618 N   0  3  0  0  0  0  0  0  0  0  0  0
  -10.8302    0.4067   17.0082 C   0  0  0  0  0  0  0  0  0  0  0  0
  -11.9261    1.0895   16.1122 C   0  0  2  0  0  0  0  0  0  0  0  0
  -12.1190    0.2708   14.8596 N   0  3  0  0  0  0  0  0  0  0  0  0
  -11.4862    2.5574   15.7835 C   0  0  2  0  0  0  0  0  0  0  0  0
  -11.2889    3.3458   17.1012 C   0  0  2  0  0  0  0  0  0  0  0  0
  -10.8615    4.6510   16.7947 O   0  0  0  0  0  0  0  0  0  0  0  0
  -10.1931    2.6679   17.9667 C   0  0  1  0  0  0  0  0  0  0  0  0
  -10.0274    3.4080   19.1672 O   0  0  0  0  0  0  0  0  0  0  0  0
  -11.0952    3.4680   20.0721 C   0  0  2  0  0  0  0  0  0  0  0  0
  -11.2635    4.9408   20.4910 C   0  0  2  0  0  0  0  0  0  0  0  0
  -11.5679    5.7120   19.3486 O   0  0  0  0  0  0  0  0  0  0  0  0
   -9.9377    5.4381   21.1617 C   0  0  1  0  0  0  0  0  0  0  0  0
  -10.0074    6.8626   21.5691 N   0  3  0  0  0  0  0  0  0  0  0  0
   -8.7106    7.5445   21.3254 C   0  0  0  0  0  0  0  0  0  0  0  0
   -9.6226    4.5402   22.4074 C   0  0  2  0  0  0  0  0  0  0  0  0
  -10.6982    4.6300   23.3605 O   0  0  0  0  0  0  0  0  0  0  0  0
   -8.4046    4.9510   23.0819 C   0  0  0  0  0  0  0  0  0  0  0  0
   -9.5437    3.0419   21.9810 C   0  0  0  0  0  0  0  0  0  0  0  0
  -10.7879    2.6367   21.2485 O   0  0  0  0  0  0  0  0  0  0  0  0
  1  2  1  6  0  0  0
  1  3  1  0  0  0  0
  1 10  1  0  0  0  0
  3  4  1  1  0  0  0
  3  5  1  0  0  0  0
  5  6  1  6  0  0  0
  5  7  1  0  0  0  0
  7  8  1  6  0  0  0
  7  9  1  0  0  0  0
  9 10  1  1  0  0  0
  9 11  1  0  0  0  0
 11 12  1  6  0  0  0
 11 13  1  0  0  0  0
 14 15  1  1  0  0  0
 14 16  1  0  0  0  0
 14 22  1  0  0  0  0
 16 17  1  0  0  0  0
 17 18  1  6  0  0  0
 17 19  1  0  0  0  0
 19  2  1  6  0  0  0
 19 20  1  0  0  0  0
 20 21  1  6  0  0  0
 20 22  1  0  0  0  0
 22 23  1  1  0  0  0
 24 23  1  6  0  0  0
 24 25  1  0  0  0  0
 24 34  1  0  0  0  0
 25 26  1  6  0  0  0
 25 27  1  0  0  0  0
 27 28  1  1  0  0  0
 27 30  1  0  0  0  0
 28 29  1  0  0  0  0
 30 31  1  1  0  0  0
 30 32  1  0  0  0  0
 30 33  1  0  0  0  0
 33 34  1  0  0  0  0
M  CHG  4   4   1  15   1  18   1  28   1
M  END
>  <CHROM.1>
172.07531185,-173.34759578,40.96927841,-71.12979896,56.45840255,-61.39949806
53.65905617,10.46241160,29.89711375,176.23723447,-55.33853354,-133.06961648
69.11119620,-21.76747927,169.77190470,-11.11203818,3.60885935,16.84291055
2.24691832,1.19539576,-2.34905916

>  <Name>
1mwl

>  <RI>
0

>  <Rbt.Current_Directory>
/home/itssahil/PROJECTS/Mol_Feturizer/New_Systems/rnas/1mwl

>  <Rbt.Executable>
rbdock ($Id: //depot/dev/client3/rdock/2013.1/src/exe/rbdock.cxx#4 $)

>  <Rbt.Library>
libRbt.so (2013.1, Build901 2013/11/27)

>  <Rbt.Parameter_File>
/export/apps/rDock/src/rDock_2013.1_src/data/scripts/dock_solv.prm

>  <Rbt.Receptor>
prm/pocket_docking_8.prm

>  <SCORE>
-56.2312

>  <SCORE.INTER>
-36.6573

>  <SCORE.INTER.CONST>
1

>  <SCORE.INTER.POLAR>
-5.60826

>  <SCORE.INTER.ROT>
6

>  <SCORE.INTER.SOLV>
18.1441

>  <SCORE.INTER.VDW>
-19.392

>  <SCORE.INTER.norm>
-1.07816

>  <SCORE.INTRA>
-19.5739

>  <SCORE.INTRA.DIHEDRAL>
-24.743

>  <SCORE.INTRA.DIHEDRAL.0>
42.0816

>  <SCORE.INTRA.POLAR>
-1.35247

>  <SCORE.INTRA.POLAR.0>
-0.254682

>  <SCORE.INTRA.REPUL>
0

>  <SCORE.INTRA.REPUL.0>
0

>  <SCORE.INTRA.SOLV>
-1.8918

>  <SCORE.INTRA.SOLV.lig_0>
-109.803

>  <SCORE.INTRA.VDW>
-1.6581

>  <SCORE.INTRA.VDW.0>
0.32176

>  <SCORE.INTRA.norm>
-0.575703

>  <SCORE.RESTR>
0

>  <SCORE.RESTR.CAVITY>
0

>  <SCORE.RESTR.norm>
0

>  <SCORE.SYSTEM>
0

>  <SCORE.SYSTEM.CONST>
0

>  <SCORE.SYSTEM.DIHEDRAL>
0

>  <SCORE.SYSTEM.SOLV>
0

>  <SCORE.SYSTEM.norm>
0

>  <SCORE.heavy>
34

>  <SCORE.norm>
-1.65386

>  <RMSD>
9.481

$$$$
1mwl
 OpenBabel11021811403D
libRbt.so/2013.1/901 2013/11/27
 34 36  0  0  0  0  0  0  0  0999 V2000
  -10.6614    8.6146   19.1838 C   0  0  2  0  0  0  0  0  0  0  0  0
  -11.1170    7.7419   20.1735 O   0  0  0  0  0  0  0  0  0  0  0  0
  -11.5301    9.9015   19.2622 C   0  0  2  0  0  0  0  0  0  0  0  0
  -11.4186   10.5061   20.5932 N   0  3  0  0  0  0  0  0  0  0  0  0
  -13.0114    9.5864   18.9017 C   0  0  1  0  0  0  0  0  0  0  0  0
  -13.7709   10.7096   18.9430 O   0  0  0  0  0  0  0  0  0  0  0  0
  -13.0517    8.9397   17.4777 C   0  0  2  0  0  0  0  0  0  0  0  0
  -14.4141    8.6428   17.1061 O   0  0  0  0  0  0  0  0  0  0  0  0
  -12.1737    7.6426   17.5003 C   0  0  2  0  0  0  0  0  0  0  0  0
  -10.7843    7.9695   17.8904 O   0  0  0  0  0  0  0  0  0  0  0  0
  -12.0931    6.9012   16.1609 C   0  0  2  0  0  0  0  0  0  0  0  0
  -11.8080    7.8038   15.1424 O   0  0  0  0  0  0  0  0  0  0  0  0
  -13.4060    6.2026   15.7629 C   0  0  0  0  0  0  0  0  0  0  0  0
   -9.1962    5.3132   23.1182 C   0  0  2  0  0  0  0  0  0  0  0  0
   -8.3675    4.2470   23.7362 N   0  3  0  0  0  0  0  0  0  0  0  0
  -10.3722    4.6949   22.3052 C   0  0  0  0  0  0  0  0  0  0  0  0
  -11.2318    5.8304   21.6404 C   0  0  2  0  0  0  0  0  0  0  0  0
  -12.3663    5.2022   20.8691 N   0  3  0  0  0  0  0  0  0  0  0  0
  -10.3140    6.7012   20.7154 C   0  0  2  0  0  0  0  0  0  0  0  0
   -9.1617    7.3077   21.5530 C   0  0  2  0  0  0  0  0  0  0  0  0
   -8.3259    8.0589   20.7061 O   0  0  0  0  0  0  0  0  0  0  0  0
   -8.3138    6.1739   22.1892 C   0  0  1  0  0  0  0  0  0  0  0  0
   -7.2631    6.7522   22.9495 O   0  0  0  0  0  0  0  0  0  0  0  0
   -6.0769    6.0260   23.1170 C   0  0  2  0  0  0  0  0  0  0  0  0
   -5.4996    6.3961   24.4964 C   0  0  2  0  0  0  0  0  0  0  0  0
   -6.4251    6.0272   25.4963 O   0  0  0  0  0  0  0  0  0  0  0  0
   -5.2188    7.9370   24.5384 C   0  0  1  0  0  0  0  0  0  0  0  0
   -4.6865    8.3814   25.8496 N   0  3  0  0  0  0  0  0  0  0  0  0
   -5.1209    9.7692   26.1518 C   0  0  0  0  0  0  0  0  0  0  0  0
   -4.2096    8.3078   23.3977 C   0  0  2  0  0  0  0  0  0  0  0  0
   -2.9726    7.5957   23.5876 O   0  0  0  0  0  0  0  0  0  0  0  0
   -3.9003    9.7260   23.3826 C   0  0  0  0  0  0  0  0  0  0  0  0
   -4.7693    7.8461   22.0169 C   0  0  0  0  0  0  0  0  0  0  0  0
   -5.1252    6.3898   22.0533 O   0  0  0  0  0  0  0  0  0  0  0  0
  1  2  1  1  0  0  0
  1  3  1  0  0  0  0
  1 10  1  0  0  0  0
  3  4  1  1  0  0  0
  3  5  1  0  0  0  0
  5  6  1  6  0  0  0
  5  7  1  0  0  0  0
  7  8  1  1  0  0  0
  7  9  1  0  0  0  0
  9 10  1  6  0  0  0
  9 11  1  0  0  0  0
 11 12  1  6  0  0  0
 11 13  1  0  0  0  0
 14 15  1  6  0  0  0
 14 16  1  0  0  0  0
 14 22  1  0  0  0  0
 16 17  1  0  0  0  0
 17 18  1  6  0  0  0
 17 19  1  0  0  0  0
 19  2  1  1  0  0  0
 19 20  1  0  0  0  0
 20 21  1  6  0  0  0
 20 22  1  0  0  0  0
 22 23  1  1  0  0  0
 24 23  1  6  0  0  0
 24 25  1  0  0  0  0
 24 34  1  0  0  0  0
 25 26  1  1  0  0  0
 25 27  1  0  0  0  0
 27 28  1  1  0  0  0
 27 30  1  0  0  0  0
 28 29  1  0  0  0  0
 30 31  1  1  0  0  0
 30 32  1  0  0  0  0
 30 33  1  0  0  0  0
 33 34  1  0  0  0  0
M  CHG  4   4   1  15   1  18   1  28   1
M  END
>  <CHROM.1>
-157.42797301,-172.34648841,-58.10834761,50.95738160,164.63764681,47.89355615
175.97648976,-169.76301214,57.20652789,86.76385023,87.63936942,-148.10566770
175.28403980,-28.46176800,48.08701912,-9.07452604,7.53455773,21.11379696
-2.79103804,0.63963824,2.70174832

>  <Name>
1mwl

>  <RI>
0

>  <Rbt.Current_Directory>
/home/itssahil/PROJECTS/Mol_Feturizer/New_Systems/rnas/1mwl

>  <Rbt.Executable>
rbdock ($Id: //depot/dev/client3/rdock/2013.1/src/exe/rbdock.cxx#4 $)

>  <Rbt.Library>
libRbt.so (2013.1, Build901 2013/11/27)

>  <Rbt.Parameter_File>
/export/apps/rDock/src/rDock_2013.1_src/data/scripts/dock_solv.prm

>  <Rbt.Receptor>
prm/pocket_docking_6.prm

>  <SCORE>
-55.0766

>  <SCORE.INTER>
-38.8476

>  <SCORE.INTER.CONST>
1

>  <SCORE.INTER.POLAR>
-5.34022

>  <SCORE.INTER.ROT>
6

>  <SCORE.INTER.SOLV>
22.0223

>  <SCORE.INTER.VDW>
-23.0384

>  <SCORE.INTER.norm>
-1.14258

>  <SCORE.INTRA>
-16.229

>  <SCORE.INTRA.DIHEDRAL>
-24.3985

>  <SCORE.INTRA.DIHEDRAL.0>
42.0816

>  <SCORE.INTRA.POLAR>
-0.867658

>  <SCORE.INTRA.POLAR.0>
-0.254682

>  <SCORE.INTRA.REPUL>
0

>  <SCORE.INTRA.REPUL.0>
0

>  <SCORE.INTRA.SOLV>
-0.448606

>  <SCORE.INTRA.SOLV.lig_0>
-109.803

>  <SCORE.INTRA.VDW>
-0.855397

>  <SCORE.INTRA.VDW.0>
0.32176

>  <SCORE.INTRA.norm>
-0.477324

>  <SCORE.RESTR>
0

>  <SCORE.RESTR.CAVITY>
0

>  <SCORE.RESTR.norm>
0

>  <SCORE.SYSTEM>
0

>  <SCORE.SYSTEM.CONST>
0

>  <SCORE.SYSTEM.DIHEDRAL>
0

>  <SCORE.SYSTEM.SOLV>
0

>  <SCORE.SYSTEM.norm>
0

>  <SCORE.heavy>
34

>  <SCORE.norm>
-1.6199

>  <RMSD>
9.496

$$$$
1mwl
 OpenBabel11021811403D
libRbt.so/2013.1/901 2013/11/27
 34 36  0  0  0  0  0  0  0  0999 V2000
  -10.6954    8.8163   19.3404 C   0  0  2  0  0  0  0  0  0  0  0  0
  -11.1869    7.9253   20.2959 O   0  0  0  0  0  0  0  0  0  0  0  0
  -11.5990   10.0810   19.3749 C   0  0  2  0  0  0  0  0  0  0  0  0
  -11.5817   10.6779   20.7139 N   0  3  0  0  0  0  0  0  0  0  0  0
  -13.0480    9.7323   18.9251 C   0  0  1  0  0  0  0  0  0  0  0  0
  -13.8364   10.8362   18.9281 O   0  0  0  0  0  0  0  0  0  0  0  0
  -12.9877    9.0957   17.4973 C   0  0  2  0  0  0  0  0  0  0  0  0
  -14.3178    8.7683   17.0436 O   0  0  0  0  0  0  0  0  0  0  0  0
  -12.0805    7.8204   17.5640 C   0  0  2  0  0  0  0  0  0  0  0  0
  -10.7253    8.1783   18.0380 O   0  0  0  0  0  0  0  0  0  0  0  0
  -11.9022    7.0914   16.2273 C   0  0  2  0  0  0  0  0  0  0  0  0
  -12.3687    7.8926   15.1911 O   0  0  0  0  0  0  0  0  0  0  0  0
  -12.6860    5.7694   16.1366 C   0  0  0  0  0  0  0  0  0  0  0  0
   -9.4432    5.1201   23.0070 C   0  0  2  0  0  0  0  0  0  0  0  0
   -8.6896    3.9501   23.5252 N   0  3  0  0  0  0  0  0  0  0  0  0
  -10.6546    4.6569   22.1445 C   0  0  0  0  0  0  0  0  0  0  0  0
  -11.4342    5.9020   21.5860 C   0  0  2  0  0  0  0  0  0  0  0  0
  -12.6051    5.4224   20.7641 N   0  3  0  0  0  0  0  0  0  0  0  0
  -10.4570    6.7890   20.7406 C   0  0  2  0  0  0  0  0  0  0  0  0
   -9.2701    7.2400   21.6266 C   0  0  2  0  0  0  0  0  0  0  0  0
   -8.3829    8.0066   20.8486 O   0  0  0  0  0  0  0  0  0  0  0  0
   -8.5019    5.9998   22.1568 C   0  0  1  0  0  0  0  0  0  0  0  0
   -7.4179    6.4365   22.9635 O   0  0  0  0  0  0  0  0  0  0  0  0
   -6.1130    6.1201   22.5636 C   0  0  2  0  0  0  0  0  0  0  0  0
   -5.2931    5.8453   23.8384 C   0  0  2  0  0  0  0  0  0  0  0  0
   -5.8580    4.7463   24.5207 O   0  0  0  0  0  0  0  0  0  0  0  0
   -5.3030    7.1261   24.7408 C   0  0  1  0  0  0  0  0  0  0  0  0
   -4.5564    6.9334   26.0079 N   0  3  0  0  0  0  0  0  0  0  0  0
   -5.4114    6.2752   27.0286 C   0  0  0  0  0  0  0  0  0  0  0  0
   -4.6934    8.3264   23.9379 C   0  0  2  0  0  0  0  0  0  0  0  0
   -3.3373    8.0242   23.5594 O   0  0  0  0  0  0  0  0  0  0  0  0
   -4.6673    9.5490   24.7201 C   0  0  0  0  0  0  0  0  0  0  0  0
   -5.4799    8.5346   22.6070 C   0  0  0  0  0  0  0  0  0  0  0  0
   -5.5379    7.2568   21.8243 O   0  0  0  0  0  0  0  0  0  0  0  0
  1  2  1  1  0  0  0
  1  3  1  0  0  0  0
  1 10  1  0  0  0  0
  3  4  1  1  0  0  0
  3  5  1  0  0  0  0
  5  6  1  6  0  0  0
  5  7  1  0  0  0  0
  7  8  1  1  0  0  0
  7  9  1  0  0  0  0
  9 10  1  6  0  0  0
  9 11  1  0  0  0  0
 11 12  1  6  0  0  0
 11 13  1  0  0  0  0
 14 15  1  6  0  0  0
 14 16  1  0  0  0  0
 14 22  1  0  0  0  0
 16 17  1  0  0  0  0
 17 18  1  6  0  0  0
 17 19  1  0  0  0  0
 19  2  1  1  0  0  0
 19 20  1  0  0  0  0
 20 21  1  6  0  0  0
 20 22  1  0  0  0  0
 22 23  1  1  0  0  0
 24 23  1  1  0  0  0
 24 25  1  0  0  0  0
 24 34  1  0  0  0  0
 25 26  1  1  0  0  0
 25 27  1  0  0  0  0
 27 28  1  1  0  0  0
 27 30  1  0  0  0  0
 28 29  1  0  0  0  0
 30 31  1  6  0  0  0
 30 32  1  0  0  0  0
 30 33  1  0  0  0  0
 33 34  1  0  0  0  0
M  CHG  4   4   1  15   1  18   1  28   1
M  END
>  <CHROM.1>
-166.49475801,-169.25429568,63.67677417,51.87289161,-177.72413532,12.38499482
173.64165130,-57.57261641,56.72538704,83.49768014,121.99806528,-144.06084599
82.79301885,36.55499702,63.10435817,-9.19019062,7.38491341,21.16381807,-2.74821999
0.65323336,2.77114265

>  <Name>
1mwl

>  <RI>
0

>  <Rbt.Current_Directory>
/home/itssahil/PROJECTS/Mol_Feturizer/New_Systems/rnas/1mwl

>  <Rbt.Executable>
rbdock ($Id: //depot/dev/client3/rdock/2013.1/src/exe/rbdock.cxx#4 $)

>  <Rbt.Library>
libRbt.so (2013.1, Build901 2013/11/27)

>  <Rbt.Parameter_File>
/export/apps/rDock/src/rDock_2013.1_src/data/scripts/dock_solv.prm

>  <Rbt.Receptor>
prm/pocket_docking_5.prm

>  <SCORE>
-62.5012

>  <SCORE.INTER>
-45.3291

>  <SCORE.INTER.CONST>
1

>  <SCORE.INTER.POLAR>
-5.76898

>  <SCORE.INTER.ROT>
6

>  <SCORE.INTER.SOLV>
21.5714

>  <SCORE.INTER.VDW>
-25.78

>  <SCORE.INTER.norm>
-1.33321

>  <SCORE.INTRA>
-17.1721

>  <SCORE.INTRA.DIHEDRAL>
-17.332

>  <SCORE.INTRA.DIHEDRAL.0>
42.0816

>  <SCORE.INTRA.POLAR>
-1.33447

>  <SCORE.INTRA.POLAR.0>
-0.254682

>  <SCORE.INTRA.REPUL>
0

>  <SCORE.INTRA.REPUL.0>
0

>  <SCORE.INTRA.SOLV>
-0.950452

>  <SCORE.INTRA.SOLV.lig_0>
-109.803

>  <SCORE.INTRA.VDW>
-3.49368

>  <SCORE.INTRA.VDW.0>
0.32176

>  <SCORE.INTRA.norm>
-0.505061

>  <SCORE.RESTR>
0

>  <SCORE.RESTR.CAVITY>
0

>  <SCORE.RESTR.norm>
0

>  <SCORE.SYSTEM>
0

>  <SCORE.SYSTEM.CONST>
0

>  <SCORE.SYSTEM.DIHEDRAL>
0

>  <SCORE.SYSTEM.SOLV>
0

>  <SCORE.SYSTEM.norm>
0

>  <SCORE.heavy>
34

>  <SCORE.norm>
-1.83827

>  <RMSD>
9.499

$$$$
1mwl
 OpenBabel11021811403D
libRbt.so/2013.1/901 2013/11/27
 34 36  0  0  0  0  0  0  0  0999 V2000
   -8.9900    6.2422   18.7463 C   0  0  2  0  0  0  0  0  0  0  0  0
   -9.3964    5.6960   19.9649 O   0  0  0  0  0  0  0  0  0  0  0  0
  -10.2268    6.9397   18.1132 C   0  0  2  0  0  0  0  0  0  0  0  0
  -10.7380    7.9772   19.0141 N   0  3  0  0  0  0  0  0  0  0  0  0
  -11.3271    5.8950   17.7646 C   0  0  1  0  0  0  0  0  0  0  0  0
  -12.3995    6.4931   17.1882 O   0  0  0  0  0  0  0  0  0  0  0  0
  -10.7099    4.8199   16.8102 C   0  0  2  0  0  0  0  0  0  0  0  0
  -11.7073    3.8385   16.4578 O   0  0  0  0  0  0  0  0  0  0  0  0
   -9.4919    4.1558   17.5377 C   0  0  2  0  0  0  0  0  0  0  0  0
   -8.4864    5.1806   17.8958 O   0  0  0  0  0  0  0  0  0  0  0  0
   -8.7605    3.0881   16.7161 C   0  0  2  0  0  0  0  0  0  0  0  0
   -7.6689    2.6115   17.4334 O   0  0  0  0  0  0  0  0  0  0  0  0
   -8.2029    3.6127   15.3804 C   0  0  0  0  0  0  0  0  0  0  0  0
   -7.7197    4.9426   23.8224 C   0  0  2  0  0  0  0  0  0  0  0  0
   -6.7944    4.4705   24.8837 N   0  3  0  0  0  0  0  0  0  0  0  0
   -8.3011    3.7388   23.0232 C   0  0  0  0  0  0  0  0  0  0  0  0
   -9.2642    4.2500   21.8912 C   0  0  2  0  0  0  0  0  0  0  0  0
   -9.8178    3.0631   21.1419 N   0  3  0  0  0  0  0  0  0  0  0  0
   -8.4801    5.2203   20.9425 C   0  0  2  0  0  0  0  0  0  0  0  0
   -7.9230    6.4088   21.7637 C   0  0  2  0  0  0  0  0  0  0  0  0
   -7.1928    7.2545   20.9083 O   0  0  0  0  0  0  0  0  0  0  0  0
   -6.9623    5.8884   22.8662 C   0  0  1  0  0  0  0  0  0  0  0  0
   -6.4621    6.9938   23.6041 O   0  0  0  0  0  0  0  0  0  0  0  0
   -5.3181    7.6523   23.1348 C   0  0  2  0  0  0  0  0  0  0  0  0
   -4.4457    7.9914   24.3583 C   0  0  2  0  0  0  0  0  0  0  0  0
   -4.0706    6.7925   25.0022 O   0  0  0  0  0  0  0  0  0  0  0  0
   -5.2595    8.9138   25.3288 C   0  0  1  0  0  0  0  0  0  0  0  0
   -4.4970    9.2635   26.5521 N   0  3  0  0  0  0  0  0  0  0  0  0
   -3.2483    9.9892   26.2053 C   0  0  0  0  0  0  0  0  0  0  0  0
   -5.6785   10.2188   24.5682 C   0  0  2  0  0  0  0  0  0  0  0  0
   -4.5051   10.9221   24.1190 O   0  0  0  0  0  0  0  0  0  0  0  0
   -6.4345   11.1244   25.4141 C   0  0  0  0  0  0  0  0  0  0  0  0
   -6.4850    9.8542   23.2838 C   0  0  0  0  0  0  0  0  0  0  0  0
   -5.7151    8.8864   22.4356 O   0  0  0  0  0  0  0  0  0  0  0  0
  1  2  1  1  0  0  0
  1  3  1  0  0  0  0
  1 10  1  0  0  0  0
  3  4  1  1  0  0  0
  3  5  1  0  0  0  0
  5  6  1  6  0  0  0
  5  7  1  0  0  0  0
  7  8  1  1  0  0  0
  7  9  1  0  0  0  0
  9 10  1  6  0  0  0
  9 11  1  0  0  0  0
 11 12  1  1  0  0  0
 11 13  1  0  0  0  0
 14 15  1  1  0  0  0
 14 16  1  0  0  0  0
 14 22  1  0  0  0  0
 16 17  1  0  0  0  0
 17 18  1  6  0  0  0
 17 19  1  0  0  0  0
 19  2  1  6  0  0  0
 19 20  1  0  0  0  0
 20 21  1  6  0  0  0
 20 22  1  0  0  0  0
 22 23  1  1  0  0  0
 24 23  1  1  0  0  0
 24 25  1  0  0  0  0
 24 34  1  0  0  0  0
 25 26  1  1  0  0  0
 25 27  1  0  0  0  0
 27 28  1  1  0  0  0
 27 30  1  0  0  0  0
 28 29  1  0  0  0  0
 30 31  1  6  0  0  0
 30 32  1  0  0  0  0
 30 33  1  0  0  0  0
 33 34  1  0  0  0  0
M  CHG  4   4   1  15   1  18   1  28   1
M  END
>  <CHROM.1>
-166.90181947,-160.12324239,66.65719378,58.32407678,179.09748537,177.42199315
-51.53716598,178.25551992,53.32922416,171.20640220,153.05254970,-139.83352323
175.99376869,-179.80622107,178.04557018,-7.72288660,6.48307613,21.29803298
2.69120759,0.98028046,3.13753940

>  <Name>
1mwl

>  <RI>
0

>  <Rbt.Current_Directory>
/home/itssahil/PROJECTS/Mol_Feturizer/New_Systems/rnas/1mwl

>  <Rbt.Executable>
rbdock ($Id: //depot/dev/client3/rdock/2013.1/src/exe/rbdock.cxx#4 $)

>  <Rbt.Library>
libRbt.so (2013.1, Build901 2013/11/27)

>  <Rbt.Parameter_File>
/export/apps/rDock/src/rDock_2013.1_src/data/scripts/dock_solv.prm

>  <Rbt.Receptor>
prm/pocket_docking_6.prm

>  <SCORE>
-52.3153

>  <SCORE.INTER>
-35.474

>  <SCORE.INTER.CONST>
1

>  <SCORE.INTER.POLAR>
-4.51879

>  <SCORE.INTER.ROT>
6

>  <SCORE.INTER.SOLV>
23.4348

>  <SCORE.INTER.VDW>
-23.9983

>  <SCORE.INTER.norm>
-1.04335

>  <SCORE.INTRA>
-16.8446

>  <SCORE.INTRA.DIHEDRAL>
-29.8813

>  <SCORE.INTRA.DIHEDRAL.0>
42.0816

>  <SCORE.INTRA.POLAR>
-0.486561

>  <SCORE.INTRA.POLAR.0>
-0.254682

>  <SCORE.INTRA.REPUL>
0

>  <SCORE.INTRA.REPUL.0>
0

>  <SCORE.INTRA.SOLV>
-3.51975

>  <SCORE.INTRA.SOLV.lig_0>
-109.803

>  <SCORE.INTRA.VDW>
1.5102

>  <SCORE.INTRA.VDW.0>
0.32176

>  <SCORE.INTRA.norm>
-0.49543

>  <SCORE.RESTR>
0.00337198

>  <SCORE.RESTR.CAVITY>
0.00337198

>  <SCORE.RESTR.norm>
9.9176e-05

>  <SCORE.SYSTEM>
0

>  <SCORE.SYSTEM.CONST>
0

>  <SCORE.SYSTEM.DIHEDRAL>
0

>  <SCORE.SYSTEM.SOLV>
0

>  <SCORE.SYSTEM.norm>
0

>  <SCORE.heavy>
34

>  <SCORE.norm>
-1.53868

>  <RMSD>
9.604

$$$$
1mwl
 OpenBabel11021811403D
libRbt.so/2013.1/901 2013/11/27
 34 36  0  0  0  0  0  0  0  0999 V2000
   -9.4636    6.8641   19.4723 C   0  0  2  0  0  0  0  0  0  0  0  0
   -9.5947    6.1761   20.6798 O   0  0  0  0  0  0  0  0  0  0  0  0
  -10.8966    7.1499   18.9415 C   0  0  2  0  0  0  0  0  0  0  0  0
  -11.6503    7.9386   19.9210 N   0  3  0  0  0  0  0  0  0  0  0  0
  -11.6289    5.8204   18.5956 C   0  0  1  0  0  0  0  0  0  0  0  0
  -12.8712    6.0629   18.1076 O   0  0  0  0  0  0  0  0  0  0  0  0
  -10.7666    5.0319   17.5554 C   0  0  2  0  0  0  0  0  0  0  0  0
  -11.4219    3.7953   17.2036 O   0  0  0  0  0  0  0  0  0  0  0  0
   -9.3558    4.7684   18.1830 C   0  0  2  0  0  0  0  0  0  0  0  0
   -8.7062    6.0484   18.5422 O   0  0  0  0  0  0  0  0  0  0  0  0
   -8.3790    4.0190   17.2697 C   0  0  2  0  0  0  0  0  0  0  0  0
   -8.5055    4.4852   15.9659 O   0  0  0  0  0  0  0  0  0  0  0  0
   -8.6306    2.5012   17.2111 C   0  0  0  0  0  0  0  0  0  0  0  0
   -7.0129    5.2711   23.9623 C   0  0  2  0  0  0  0  0  0  0  0  0
   -5.8728    4.7287   24.7442 N   0  3  0  0  0  0  0  0  0  0  0  0
   -7.8598    4.1162   23.3500 C   0  0  0  0  0  0  0  0  0  0  0  0
   -9.0523    4.7008   22.5097 C   0  0  2  0  0  0  0  0  0  0  0  0
   -9.8583    3.5604   21.9381 N   0  3  0  0  0  0  0  0  0  0  0  0
   -8.4855    5.6317   21.3834 C   0  0  2  0  0  0  0  0  0  0  0  0
   -7.6572    6.7726   22.0233 C   0  0  2  0  0  0  0  0  0  0  0  0
   -7.1258    7.5814   21.0018 O   0  0  0  0  0  0  0  0  0  0  0  0
   -6.4753    6.1793   22.8359 C   0  0  1  0  0  0  0  0  0  0  0  0
   -5.7290    7.2419   23.4108 O   0  0  0  0  0  0  0  0  0  0  0  0
   -6.4108    8.2209   24.1453 C   0  0  2  0  0  0  0  0  0  0  0  0
   -5.8542    9.5916   23.7161 C   0  0  2  0  0  0  0  0  0  0  0  0
   -6.1003    9.7770   22.3385 O   0  0  0  0  0  0  0  0  0  0  0  0
   -4.3176    9.6389   24.0187 C   0  0  1  0  0  0  0  0  0  0  0  0
   -3.6970   10.9211   23.6053 N   0  3  0  0  0  0  0  0  0  0  0  0
   -2.5040   10.6790   22.7543 C   0  0  0  0  0  0  0  0  0  0  0  0
   -4.0871    9.4025   25.5510 C   0  0  2  0  0  0  0  0  0  0  0  0
   -4.7512   10.4298   26.3105 O   0  0  0  0  0  0  0  0  0  0  0  0
   -2.6792    9.4390   25.9030 C   0  0  0  0  0  0  0  0  0  0  0  0
   -4.7344    8.0521   25.9876 C   0  0  0  0  0  0  0  0  0  0  0  0
   -6.1778    8.0053   25.5836 O   0  0  0  0  0  0  0  0  0  0  0  0
  1  2  1  1  0  0  0
  1  3  1  0  0  0  0
  1 10  1  0  0  0  0
  3  4  1  1  0  0  0
  3  5  1  0  0  0  0
  5  6  1  6  0  0  0
  5  7  1  0  0  0  0
  7  8  1  1  0  0  0
  7  9  1  0  0  0  0
  9 10  1  6  0  0  0
  9 11  1  0  0  0  0
 11 12  1  6  0  0  0
 11 13  1  0  0  0  0
 14 15  1  6  0  0  0
 14 16  1  0  0  0  0
 14 22  1  0  0  0  0
 16 17  1  0  0  0  0
 17 18  1  6  0  0  0
 17 19  1  0  0  0  0
 19  2  1  1  0  0  0
 19 20  1  0  0  0  0
 20 21  1  6  0  0  0
 20 22  1  0  0  0  0
 22 23  1  1  0  0  0
 24 23  1  6  0  0  0
 24 25  1  0  0  0  0
 24 34  1  0  0  0  0
 25 26  1  6  0  0  0
 25 27  1  0  0  0  0
 27 28  1  1  0  0  0
 27 30  1  0  0  0  0
 28 29  1  0  0  0  0
 30 31  1  1  0  0  0
 30 32  1  0  0  0  0
 30 33  1  0  0  0  0
 33 34  1  0  0  0  0
M  CHG  4   4   1  15   1  18   1  28   1
M  END
>  <CHROM.1>
173.44699692,-168.62484071,60.45785808,-170.47477563,69.58927663,40.08732314
57.69376815,-59.42725519,57.00525382,-172.55173934,-68.92855105,-135.69438565
65.37744789,-8.38561618,148.76275816,-7.62186011,6.79122442,21.58856838,-3.07616225
0.92870714,2.48904222

>  <Name>
1mwl

>  <RI>
0

>  <Rbt.Current_Directory>
/home/itssahil/PROJECTS/Mol_Feturizer/New_Systems/rnas/1mwl

>  <Rbt.Executable>
rbdock ($Id: //depot/dev/client3/rdock/2013.1/src/exe/rbdock.cxx#4 $)

>  <Rbt.Library>
libRbt.so (2013.1, Build901 2013/11/27)

>  <Rbt.Parameter_File>
/export/apps/rDock/src/rDock_2013.1_src/data/scripts/dock_solv.prm

>  <Rbt.Receptor>
prm/pocket_docking_6.prm

>  <SCORE>
-51.5379

>  <SCORE.INTER>
-34.0841

>  <SCORE.INTER.CONST>
1

>  <SCORE.INTER.POLAR>
-4.34784

>  <SCORE.INTER.ROT>
6

>  <SCORE.INTER.SOLV>
17.9057

>  <SCORE.INTER.VDW>
-21.7985

>  <SCORE.INTER.norm>
-1.00247

>  <SCORE.INTRA>
-17.4538

>  <SCORE.INTRA.DIHEDRAL>
-25.037

>  <SCORE.INTRA.DIHEDRAL.0>
42.0816

>  <SCORE.INTRA.POLAR>
-0.35346

>  <SCORE.INTRA.POLAR.0>
-0.254682

>  <SCORE.INTRA.REPUL>
0

>  <SCORE.INTRA.REPUL.0>
0

>  <SCORE.INTRA.SOLV>
-2.41236

>  <SCORE.INTRA.SOLV.lig_0>
-109.803

>  <SCORE.INTRA.VDW>
-2.52732

>  <SCORE.INTRA.VDW.0>
0.32176

>  <SCORE.INTRA.norm>
-0.513346

>  <SCORE.RESTR>
0

>  <SCORE.RESTR.CAVITY>
0

>  <SCORE.RESTR.norm>
0

>  <SCORE.SYSTEM>
0

>  <SCORE.SYSTEM.CONST>
0

>  <SCORE.SYSTEM.DIHEDRAL>
0

>  <SCORE.SYSTEM.SOLV>
0

>  <SCORE.SYSTEM.norm>
0

>  <SCORE.heavy>
34

>  <SCORE.norm>
-1.51582

>  <RMSD>
9.627

$$$$
1mwl
 OpenBabel11021811403D
libRbt.so/2013.1/901 2013/11/27
 34 36  0  0  0  0  0  0  0  0999 V2000
  -12.2759    4.3600   13.9498 C   0  0  2  0  0  0  0  0  0  0  0  0
  -12.3815    3.1338   14.6083 O   0  0  0  0  0  0  0  0  0  0  0  0
  -13.5998    4.5829   13.1659 C   0  0  2  0  0  0  0  0  0  0  0  0
  -14.7403    4.5733   14.0873 N   0  3  0  0  0  0  0  0  0  0  0  0
  -13.7620    3.5124   12.0473 C   0  0  1  0  0  0  0  0  0  0  0  0
  -14.9028    3.7158   11.3421 O   0  0  0  0  0  0  0  0  0  0  0  0
  -12.5104    3.5759   11.1108 C   0  0  2  0  0  0  0  0  0  0  0  0
  -12.6319    2.6012   10.0537 O   0  0  0  0  0  0  0  0  0  0  0  0
  -11.2320    3.3166   11.9782 C   0  0  2  0  0  0  0  0  0  0  0  0
  -11.1318    4.3223   13.0589 O   0  0  0  0  0  0  0  0  0  0  0  0
   -9.9109    3.3695   11.2023 C   0  0  2  0  0  0  0  0  0  0  0  0
  -10.1624    3.2470    9.8403 O   0  0  0  0  0  0  0  0  0  0  0  0
   -8.9370    2.2336   11.5648 C   0  0  0  0  0  0  0  0  0  0  0  0
  -10.5365    1.3423   18.0210 C   0  0  2  0  0  0  0  0  0  0  0  0
   -9.4992    0.7873   18.9273 N   0  3  0  0  0  0  0  0  0  0  0  0
  -10.6221    0.5102   16.7071 C   0  0  0  0  0  0  0  0  0  0  0  0
  -11.7092    1.1165   15.7476 C   0  0  2  0  0  0  0  0  0  0  0  0
  -11.7755    0.2853   14.4901 N   0  3  0  0  0  0  0  0  0  0  0  0
  -11.3513    2.6104   15.4369 C   0  0  2  0  0  0  0  0  0  0  0  0
  -11.2823    3.4118   16.7599 C   0  0  2  0  0  0  0  0  0  0  0  0
  -10.9271    4.7425   16.4715 O   0  0  0  0  0  0  0  0  0  0  0  0
  -10.1940    2.8103   17.6889 C   0  0  1  0  0  0  0  0  0  0  0  0
  -10.1465    3.5612   18.8932 O   0  0  0  0  0  0  0  0  0  0  0  0
  -11.2916    3.6118   19.6988 C   0  0  2  0  0  0  0  0  0  0  0  0
  -11.4293    5.0563   20.2157 C   0  0  2  0  0  0  0  0  0  0  0  0
  -11.5869    5.9257   19.1149 O   0  0  0  0  0  0  0  0  0  0  0  0
  -10.1514    5.4296   21.0419 C   0  0  1  0  0  0  0  0  0  0  0  0
  -10.1922    6.8215   21.5525 N   0  3  0  0  0  0  0  0  0  0  0  0
   -8.9601    7.5587   21.1724 C   0  0  0  0  0  0  0  0  0  0  0  0
   -9.9990    4.4258   22.2361 C   0  0  2  0  0  0  0  0  0  0  0  0
  -11.1550    4.5028   23.0913 O   0  0  0  0  0  0  0  0  0  0  0  0
   -8.8327    4.7184   23.0494 C   0  0  0  0  0  0  0  0  0  0  0  0
   -9.9507    2.9612   21.7016 C   0  0  0  0  0  0  0  0  0  0  0  0
  -11.1373    2.6798   20.8289 O   0  0  0  0  0  0  0  0  0  0  0  0
  1  2  1  6  0  0  0
  1  3  1  0  0  0  0
  1 10  1  0  0  0  0
  3  4  1  1  0  0  0
  3  5  1  0  0  0  0
  5  6  1  6  0  0  0
  5  7  1  0  0  0  0
  7  8  1  6  0  0  0
  7  9  1  0  0  0  0
  9 10  1  1  0  0  0
  9 11  1  0  0  0  0
 11 12  1  6  0  0  0
 11 13  1  0  0  0  0
 14 15  1  1  0  0  0
 14 16  1  0  0  0  0
 14 22  1  0  0  0  0
 16 17  1  0  0  0  0
 17 18  1  6  0  0  0
 17 19  1  0  0  0  0
 19  2  1  6  0  0  0
 19 20  1  0  0  0  0
 20 21  1  6  0  0  0
 20 22  1  0  0  0  0
 22 23  1  1  0  0  0
 24 23  1  6  0  0  0
 24 25  1  0  0  0  0
 24 34  1  0  0  0  0
 25 26  1  6  0  0  0
 25 27  1  0  0  0  0
 27 28  1  1  0  0  0
 27 30  1  0  0  0  0
 28 29  1  0  0  0  0
 30 31  1  1  0  0  0
 30 32  1  0  0  0  0
 30 33  1  0  0  0  0
 33 34  1  0  0  0  0
M  CHG  4   4   1  15   1  18   1  28   1
M  END
>  <CHROM.1>
-179.39402573,-168.55020531,-68.64333066,-72.57325050,-171.93902073,-17.51294300
72.38432356,137.44385536,-83.94648017,72.34216460,-58.92601337,-139.19786491
-47.13171613,-7.35510425,-59.15696546,-11.22350942,3.58162594,16.47103470
2.00394436,1.09391927,-2.10755371

>  <Name>
1mwl

>  <RI>
0

>  <Rbt.Current_Directory>
/home/itssahil/PROJECTS/Mol_Feturizer/New_Systems/rnas/1mwl

>  <Rbt.Executable>
rbdock ($Id: //depot/dev/client3/rdock/2013.1/src/exe/rbdock.cxx#4 $)

>  <Rbt.Library>
libRbt.so (2013.1, Build901 2013/11/27)

>  <Rbt.Parameter_File>
/export/apps/rDock/src/rDock_2013.1_src/data/scripts/dock_solv.prm

>  <Rbt.Receptor>
prm/pocket_docking_8.prm

>  <SCORE>
-49.5937

>  <SCORE.INTER>
-35.2736

>  <SCORE.INTER.CONST>
1

>  <SCORE.INTER.POLAR>
-5.4906

>  <SCORE.INTER.ROT>
6

>  <SCORE.INTER.SOLV>
17.0356

>  <SCORE.INTER.VDW>
-18.4923

>  <SCORE.INTER.norm>
-1.03746

>  <SCORE.INTRA>
-14.3201

>  <SCORE.INTRA.DIHEDRAL>
-20.394

>  <SCORE.INTRA.DIHEDRAL.0>
42.0816

>  <SCORE.INTRA.POLAR>
-0.768662

>  <SCORE.INTRA.POLAR.0>
-0.254682

>  <SCORE.INTRA.REPUL>
0

>  <SCORE.INTRA.REPUL.0>
0

>  <SCORE.INTRA.SOLV>
-0.396883

>  <SCORE.INTRA.SOLV.lig_0>
-109.803

>  <SCORE.INTRA.VDW>
-1.31122

>  <SCORE.INTRA.VDW.0>
0.32176

>  <SCORE.INTRA.norm>
-0.42118

>  <SCORE.RESTR>
0

>  <SCORE.RESTR.CAVITY>
0

>  <SCORE.RESTR.norm>
0

>  <SCORE.SYSTEM>
0

>  <SCORE.SYSTEM.CONST>
0

>  <SCORE.SYSTEM.DIHEDRAL>
0

>  <SCORE.SYSTEM.SOLV>
0

>  <SCORE.SYSTEM.norm>
0

>  <SCORE.heavy>
34

>  <SCORE.norm>
-1.45864

>  <RMSD>
9.655

$$$$
1mwl
 OpenBabel11021811403D
libRbt.so/2013.1/901 2013/11/27
 34 36  0  0  0  0  0  0  0  0999 V2000
   -8.7561    5.8478   18.9331 C   0  0  2  0  0  0  0  0  0  0  0  0
   -9.2086    5.5929   20.2288 O   0  0  0  0  0  0  0  0  0  0  0  0
   -9.9701    6.3607   18.1085 C   0  0  2  0  0  0  0  0  0  0  0  0
  -10.5236    7.5710   18.7236 N   0  3  0  0  0  0  0  0  0  0  0  0
  -11.0492    5.2472   17.9702 C   0  0  1  0  0  0  0  0  0  0  0  0
  -12.1008    5.6791   17.2300 O   0  0  0  0  0  0  0  0  0  0  0  0
  -10.3875    3.9896   17.3159 C   0  0  2  0  0  0  0  0  0  0  0  0
  -11.3640    2.9383   17.1631 O   0  0  0  0  0  0  0  0  0  0  0  0
   -9.1963    3.5307   18.2238 C   0  0  2  0  0  0  0  0  0  0  0  0
   -8.2122    4.6256   18.3723 O   0  0  0  0  0  0  0  0  0  0  0  0
   -8.4259    2.3128   17.7012 C   0  0  2  0  0  0  0  0  0  0  0  0
   -7.5885    2.6995   16.6607 O   0  0  0  0  0  0  0  0  0  0  0  0
   -9.3334    1.2054   17.1353 C   0  0  0  0  0  0  0  0  0  0  0  0
   -7.6199    5.2694   24.1823 C   0  0  2  0  0  0  0  0  0  0  0  0
   -6.7482    4.8733   25.3175 N   0  3  0  0  0  0  0  0  0  0  0  0
   -8.3201    4.0227   23.5647 C   0  0  0  0  0  0  0  0  0  0  0  0
   -9.2254    4.4502   22.3532 C   0  0  2  0  0  0  0  0  0  0  0  0
   -9.8963    3.2250   21.7828 N   0  3  0  0  0  0  0  0  0  0  0  0
   -8.3461    5.1815   21.2816 C   0  0  2  0  0  0  0  0  0  0  0  0
   -7.6716    6.4189   21.9228 C   0  0  2  0  0  0  0  0  0  0  0  0
   -6.8586    7.0473   20.9614 O   0  0  0  0  0  0  0  0  0  0  0  0
   -6.7695    5.9781   23.1066 C   0  0  1  0  0  0  0  0  0  0  0  0
   -6.1601    7.1268   23.6772 O   0  0  0  0  0  0  0  0  0  0  0  0
   -4.9187    6.9839   24.3106 C   0  0  2  0  0  0  0  0  0  0  0  0
   -4.8872    7.9706   25.4931 C   0  0  2  0  0  0  0  0  0  0  0  0
   -5.9200    7.6390   26.3965 O   0  0  0  0  0  0  0  0  0  0  0  0
   -5.0695    9.4288   24.9496 C   0  0  1  0  0  0  0  0  0  0  0  0
   -5.0803   10.4413   26.0335 N   0  3  0  0  0  0  0  0  0  0  0  0
   -6.0666   11.5133   25.7435 C   0  0  0  0  0  0  0  0  0  0  0  0
   -3.9202    9.7464   23.9322 C   0  0  2  0  0  0  0  0  0  0  0  0
   -2.6426    9.6417   24.5880 O   0  0  0  0  0  0  0  0  0  0  0  0
   -4.0258   11.0895   23.3915 C   0  0  0  0  0  0  0  0  0  0  0  0
   -3.9097    8.6859   22.7883 C   0  0  0  0  0  0  0  0  0  0  0  0
   -3.8423    7.2996   23.3561 O   0  0  0  0  0  0  0  0  0  0  0  0
  1  2  1  1  0  0  0
  1  3  1  0  0  0  0
  1 10  1  0  0  0  0
  3  4  1  1  0  0  0
  3  5  1  0  0  0  0
  5  6  1  6  0  0  0
  5  7  1  0  0  0  0
  7  8  1  1  0  0  0
  7  9  1  0  0  0  0
  9 10  1  6  0  0  0
  9 11  1  0  0  0  0
 11 12  1  6  0  0  0
 11 13  1  0  0  0  0
 14 15  1  1  0  0  0
 14 16  1  0  0  0  0
 14 22  1  0  0  0  0
 16 17  1  0  0  0  0
 17 18  1  6  0  0  0
 17 19  1  0  0  0  0
 19  2  1  6  0  0  0
 19 20  1  0  0  0  0
 20 21  1  6  0  0  0
 20 22  1  0  0  0  0
 22 23  1  1  0  0  0
 24 23  1  6  0  0  0
 24 25  1  0  0  0  0
 24 34  1  0  0  0  0
 25 26  1  1  0  0  0
 25 27  1  0  0  0  0
 27 28  1  1  0  0  0
 27 30  1  0  0  0  0
 28 29  1  0  0  0  0
 30 31  1  1  0  0  0
 30 32  1  0  0  0  0
 30 33  1  0  0  0  0
 33 34  1  0  0  0  0
M  CHG  4   4   1  15   1  18   1  28   1
M  END
>  <CHROM.1>
-176.25057084,-157.24058290,-177.67406305,-174.56783945,-56.96485457,76.63574747
68.22783198,-166.09314468,49.56547916,-179.97637429,87.85956506,-145.69774416
176.64437545,-22.02569862,179.18860181,-7.48032628,6.22688236,21.55362088
3.11949508,1.02809491,2.52811780

>  <Name>
1mwl

>  <RI>
0

>  <Rbt.Current_Directory>
/home/itssahil/PROJECTS/Mol_Feturizer/New_Systems/rnas/1mwl

>  <Rbt.Executable>
rbdock ($Id: //depot/dev/client3/rdock/2013.1/src/exe/rbdock.cxx#4 $)

>  <Rbt.Library>
libRbt.so (2013.1, Build901 2013/11/27)

>  <Rbt.Parameter_File>
/export/apps/rDock/src/rDock_2013.1_src/data/scripts/dock_solv.prm

>  <Rbt.Receptor>
prm/pocket_docking_8.prm

>  <SCORE>
-63.6022

>  <SCORE.INTER>
-45.915

>  <SCORE.INTER.CONST>
1

>  <SCORE.INTER.POLAR>
-6.26577

>  <SCORE.INTER.ROT>
6

>  <SCORE.INTER.SOLV>
21.6396

>  <SCORE.INTER.VDW>
-24.5373

>  <SCORE.INTER.norm>
-1.35044

>  <SCORE.INTRA>
-17.6872

>  <SCORE.INTRA.DIHEDRAL>
-27.2487

>  <SCORE.INTRA.DIHEDRAL.0>
42.0816

>  <SCORE.INTRA.POLAR>
-0.916906

>  <SCORE.INTRA.POLAR.0>
-0.254682

>  <SCORE.INTRA.REPUL>
0

>  <SCORE.INTRA.REPUL.0>
0

>  <SCORE.INTRA.SOLV>
-0.538684

>  <SCORE.INTRA.SOLV.lig_0>
-109.803

>  <SCORE.INTRA.VDW>
-0.675994

>  <SCORE.INTRA.VDW.0>
0.32176

>  <SCORE.INTRA.norm>
-0.520211

>  <SCORE.RESTR>
0

>  <SCORE.RESTR.CAVITY>
0

>  <SCORE.RESTR.norm>
0

>  <SCORE.SYSTEM>
0

>  <SCORE.SYSTEM.CONST>
0

>  <SCORE.SYSTEM.DIHEDRAL>
0

>  <SCORE.SYSTEM.SOLV>
0

>  <SCORE.SYSTEM.norm>
0

>  <SCORE.heavy>
34

>  <SCORE.norm>
-1.87065

>  <RMSD>
9.671

$$$$
1mwl
 OpenBabel11021811403D
libRbt.so/2013.1/901 2013/11/27
 34 36  0  0  0  0  0  0  0  0999 V2000
   -8.8055    5.7647   19.0091 C   0  0  2  0  0  0  0  0  0  0  0  0
   -9.2255    5.5743   20.3267 O   0  0  0  0  0  0  0  0  0  0  0  0
  -10.0138    6.3329   18.2129 C   0  0  2  0  0  0  0  0  0  0  0  0
  -10.4660    7.5925   18.8115 N   0  3  0  0  0  0  0  0  0  0  0  0
  -11.1660    5.2883   18.1448 C   0  0  1  0  0  0  0  0  0  0  0  0
  -12.2144    5.7674   17.4295 O   0  0  0  0  0  0  0  0  0  0  0  0
  -10.6103    3.9734   17.5045 C   0  0  2  0  0  0  0  0  0  0  0  0
  -11.6568    2.9838   17.4165 O   0  0  0  0  0  0  0  0  0  0  0  0
   -9.4182    3.4628   18.3832 C   0  0  2  0  0  0  0  0  0  0  0  0
   -8.3615    4.4953   18.4654 O   0  0  0  0  0  0  0  0  0  0  0  0
   -8.7467    2.1841   17.8696 C   0  0  2  0  0  0  0  0  0  0  0  0
   -8.4762    2.3101   16.5116 O   0  0  0  0  0  0  0  0  0  0  0  0
   -9.6205    0.9255   18.0202 C   0  0  0  0  0  0  0  0  0  0  0  0
   -7.5010    5.1139   24.2091 C   0  0  2  0  0  0  0  0  0  0  0  0
   -6.6296    4.6312   25.3105 N   0  3  0  0  0  0  0  0  0  0  0  0
   -8.3724    3.9519   23.6468 C   0  0  0  0  0  0  0  0  0  0  0  0
   -9.2770    4.4688   22.4701 C   0  0  2  0  0  0  0  0  0  0  0  0
  -10.1146    3.3252   21.9532 N   0  3  0  0  0  0  0  0  0  0  0  0
   -8.3689    5.0765   21.3465 C   0  0  2  0  0  0  0  0  0  0  0  0
   -7.5230    6.2326   21.9338 C   0  0  2  0  0  0  0  0  0  0  0  0
   -6.6877    6.7474   20.9251 O   0  0  0  0  0  0  0  0  0  0  0  0
   -6.6245    5.7025   23.0831 C   0  0  1  0  0  0  0  0  0  0  0  0
   -5.8570    6.7776   23.6044 O   0  0  0  0  0  0  0  0  0  0  0  0
   -4.8332    7.3167   22.8146 C   0  0  2  0  0  0  0  0  0  0  0  0
   -3.7119    7.7789   23.7643 C   0  0  2  0  0  0  0  0  0  0  0  0
   -3.2222    6.6623   24.4756 O   0  0  0  0  0  0  0  0  0  0  0  0
   -4.2835    8.8579   24.7462 C   0  0  1  0  0  0  0  0  0  0  0  0
   -3.2693    9.3353   25.7176 N   0  3  0  0  0  0  0  0  0  0  0  0
   -3.3672    8.5828   26.9943 C   0  0  0  0  0  0  0  0  0  0  0  0
   -4.8399   10.0658   23.9165 C   0  0  2  0  0  0  0  0  0  0  0  0
   -3.7824   10.6508   23.1335 O   0  0  0  0  0  0  0  0  0  0  0  0
   -5.3824   11.1088   24.7680 C   0  0  0  0  0  0  0  0  0  0  0  0
   -5.9104    9.5673   22.8974 C   0  0  0  0  0  0  0  0  0  0  0  0
   -5.3557    8.4617   22.0495 O   0  0  0  0  0  0  0  0  0  0  0  0
  1  2  1  1  0  0  0
  1  3  1  0  0  0  0
  1 10  1  0  0  0  0
  3  4  1  1  0  0  0
  3  5  1  0  0  0  0
  5  6  1  6  0  0  0
  5  7  1  0  0  0  0
  7  8  1  1  0  0  0
  7  9  1  0  0  0  0
  9 10  1  6  0  0  0
  9 11  1  0  0  0  0
 11 12  1  6  0  0  0
 11 13  1  0  0  0  0
 14 15  1  1  0  0  0
 14 16  1  0  0  0  0
 14 22  1  0  0  0  0
 16 17  1  0  0  0  0
 17 18  1  6  0  0  0
 17 19  1  0  0  0  0
 19  2  1  6  0  0  0
 19 20  1  0  0  0  0
 20 21  1  6  0  0  0
 20 22  1  0  0  0  0
 22 23  1  1  0  0  0
 24 23  1  1  0  0  0
 24 25  1  0  0  0  0
 24 34  1  0  0  0  0
 25 26  1  1  0  0  0
 25 27  1  0  0  0  0
 27 28  1  1  0  0  0
 27 30  1  0  0  0  0
 28 29  1  0  0  0  0
 30 31  1  6  0  0  0
 30 32  1  0  0  0  0
 30 33  1  0  0  0  0
 33 34  1  0  0  0  0
M  CHG  4   4   1  15   1  18   1  28   1
M  END
>  <CHROM.1>
-179.29754155,-157.63837654,63.25194906,-66.89744201,-57.12204511,48.23094059
63.73860111,-167.67661003,-69.38610851,-62.25755573,169.73130255,-147.12680467
171.50596971,24.81791282,60.07390785,-7.46229667,6.08815387,21.45321847,2.92538689
0.92780709,2.75995756

>  <Name>
1mwl

>  <RI>
0

>  <Rbt.Current_Directory>
/home/itssahil/PROJECTS/Mol_Feturizer/New_Systems/rnas/1mwl

>  <Rbt.Executable>
rbdock ($Id: //depot/dev/client3/rdock/2013.1/src/exe/rbdock.cxx#4 $)

>  <Rbt.Library>
libRbt.so (2013.1, Build901 2013/11/27)

>  <Rbt.Parameter_File>
/export/apps/rDock/src/rDock_2013.1_src/data/scripts/dock_solv.prm

>  <Rbt.Receptor>
prm/pocket_docking_8.prm

>  <SCORE>
-50.5494

>  <SCORE.INTER>
-32.4058

>  <SCORE.INTER.CONST>
1

>  <SCORE.INTER.POLAR>
-2.96503

>  <SCORE.INTER.ROT>
6

>  <SCORE.INTER.SOLV>
20.5299

>  <SCORE.INTER.VDW>
-26.1637

>  <SCORE.INTER.norm>
-0.953111

>  <SCORE.INTRA>
-18.1436

>  <SCORE.INTRA.DIHEDRAL>
-31.0729

>  <SCORE.INTRA.DIHEDRAL.0>
42.0816

>  <SCORE.INTRA.POLAR>
0.251958

>  <SCORE.INTRA.POLAR.0>
-0.254682

>  <SCORE.INTRA.REPUL>
0

>  <SCORE.INTRA.REPUL.0>
0

>  <SCORE.INTRA.SOLV>
-2.17844

>  <SCORE.INTRA.SOLV.lig_0>
-109.803

>  <SCORE.INTRA.VDW>
-2.3746

>  <SCORE.INTRA.VDW.0>
0.32176

>  <SCORE.INTRA.norm>
-0.533635

>  <SCORE.RESTR>
0

>  <SCORE.RESTR.CAVITY>
0

>  <SCORE.RESTR.norm>
0

>  <SCORE.SYSTEM>
0

>  <SCORE.SYSTEM.CONST>
0

>  <SCORE.SYSTEM.DIHEDRAL>
0

>  <SCORE.SYSTEM.SOLV>
0

>  <SCORE.SYSTEM.norm>
0

>  <SCORE.heavy>
34

>  <SCORE.norm>
-1.48675

>  <RMSD>
9.693

$$$$
1mwl
 OpenBabel11021811403D
libRbt.so/2013.1/901 2013/11/27
 34 36  0  0  0  0  0  0  0  0999 V2000
   -9.6502    7.6698   20.4022 C   0  0  2  0  0  0  0  0  0  0  0  0
   -9.5649    6.7485   21.4474 O   0  0  0  0  0  0  0  0  0  0  0  0
  -11.1546    8.0049   20.1987 C   0  0  2  0  0  0  0  0  0  0  0  0
  -11.7220    8.5525   21.4346 N   0  3  0  0  0  0  0  0  0  0  0  0
  -11.9371    6.7467   19.7209 C   0  0  1  0  0  0  0  0  0  0  0  0
  -13.2462    7.0376   19.5165 O   0  0  0  0  0  0  0  0  0  0  0  0
  -11.2736    6.2154   18.4075 C   0  0  2  0  0  0  0  0  0  0  0  0
  -11.9814    5.0522   17.9297 O   0  0  0  0  0  0  0  0  0  0  0  0
   -9.7738    5.8819   18.7128 C   0  0  2  0  0  0  0  0  0  0  0  0
   -9.0703    7.0860   19.2076 O   0  0  0  0  0  0  0  0  0  0  0  0
   -8.9751    5.3675   17.5097 C   0  0  2  0  0  0  0  0  0  0  0  0
   -7.6158    5.4034   17.8000 O   0  0  0  0  0  0  0  0  0  0  0  0
   -9.1664    6.2112   16.2362 C   0  0  0  0  0  0  0  0  0  0  0  0
   -6.4205    5.7307   24.1559 C   0  0  2  0  0  0  0  0  0  0  0  0
   -5.1424    5.1899   24.6846 N   0  3  0  0  0  0  0  0  0  0  0  0
   -7.3165    4.5836   23.6017 C   0  0  0  0  0  0  0  0  0  0  0  0
   -8.6579    5.1681   23.0282 C   0  0  2  0  0  0  0  0  0  0  0  0
   -9.5072    4.0345   22.5083 N   0  3  0  0  0  0  0  0  0  0  0  0
   -8.3307    6.2101   21.9042 C   0  0  2  0  0  0  0  0  0  0  0  0
   -7.4476    7.3402   22.4874 C   0  0  2  0  0  0  0  0  0  0  0  0
   -7.1324    8.2508   21.4620 O   0  0  0  0  0  0  0  0  0  0  0  0
   -6.1211    6.7486   23.0348 C   0  0  1  0  0  0  0  0  0  0  0  0
   -5.3271    7.8014   23.5617 O   0  0  0  0  0  0  0  0  0  0  0  0
   -4.7919    8.7466   22.6768 C   0  0  2  0  0  0  0  0  0  0  0  0
   -3.4578    9.2340   23.2730 C   0  0  2  0  0  0  0  0  0  0  0  0
   -2.5757    8.1376   23.3840 O   0  0  0  0  0  0  0  0  0  0  0  0
   -3.7273    9.8764   24.6764 C   0  0  1  0  0  0  0  0  0  0  0  0
   -2.4835   10.3467   25.3337 N   0  3  0  0  0  0  0  0  0  0  0  0
   -1.7018   11.2184   24.4199 C   0  0  0  0  0  0  0  0  0  0  0  0
   -4.7299   11.0701   24.5123 C   0  0  2  0  0  0  0  0  0  0  0  0
   -4.1678   12.0650   23.6361 O   0  0  0  0  0  0  0  0  0  0  0  0
   -5.0207   11.7166   25.7791 C   0  0  0  0  0  0  0  0  0  0  0  0
   -6.0411   10.5774   23.8259 C   0  0  0  0  0  0  0  0  0  0  0  0
   -5.7293    9.8743   22.5385 O   0  0  0  0  0  0  0  0  0  0  0  0
  1  2  1  1  0  0  0
  1  3  1  0  0  0  0
  1 10  1  0  0  0  0
  3  4  1  1  0  0  0
  3  5  1  0  0  0  0
  5  6  1  6  0  0  0
  5  7  1  0  0  0  0
  7  8  1  1  0  0  0
  7  9  1  0  0  0  0
  9 10  1  6  0  0  0
  9 11  1  0  0  0  0
 11 12  1  1  0  0  0
 11 13  1  0  0  0  0
 14 15  1  6  0  0  0
 14 16  1  0  0  0  0
 14 22  1  0  0  0  0
 16 17  1  0  0  0  0
 17 18  1  6  0  0  0
 17 19  1  0  0  0  0
 19  2  1  1  0  0  0
 19 20  1  0  0  0  0
 20 21  1  6  0  0  0
 20 22  1  0  0  0  0
 22 23  1  1  0  0  0
 24 23  1  1  0  0  0
 24 25  1  0  0  0  0
 24 34  1  0  0  0  0
 25 26  1  1  0  0  0
 25 27  1  0  0  0  0
 27 28  1  6  0  0  0
 27 30  1  0  0  0  0
 28 29  1  0  0  0  0
 30 31  1  6  0  0  0
 30 32  1  0  0  0  0
 30 33  1  0  0  0  0
 33 34  1  0  0  0  0
M  CHG  4   4   1  15   1  18   1  28   1
M  END
>  <CHROM.1>
179.62111356,-177.15740872,-170.91403749,-68.53576514,-55.49046015,166.11165349
171.71787512,159.12724438,69.68066539,94.91561887,171.76733807,-149.14521251
178.36508780,171.58454073,65.07166184,-7.38208621,7.64044416,21.84623003
2.77766243,0.67297560,3.06011299

>  <Name>
1mwl

>  <RI>
0

>  <Rbt.Current_Directory>
/home/itssahil/PROJECTS/Mol_Feturizer/New_Systems/rnas/1mwl

>  <Rbt.Executable>
rbdock ($Id: //depot/dev/client3/rdock/2013.1/src/exe/rbdock.cxx#4 $)

>  <Rbt.Library>
libRbt.so (2013.1, Build901 2013/11/27)

>  <Rbt.Parameter_File>
/export/apps/rDock/src/rDock_2013.1_src/data/scripts/dock_solv.prm

>  <Rbt.Receptor>
prm/pocket_docking_7.prm

>  <SCORE>
-52.0138

>  <SCORE.INTER>
-38.2575

>  <SCORE.INTER.CONST>
1

>  <SCORE.INTER.POLAR>
-4.62268

>  <SCORE.INTER.ROT>
6

>  <SCORE.INTER.SOLV>
19.8697

>  <SCORE.INTER.VDW>
-24.3193

>  <SCORE.INTER.norm>
-1.12522

>  <SCORE.INTRA>
-13.7563

>  <SCORE.INTRA.DIHEDRAL>
-30.1404

>  <SCORE.INTRA.DIHEDRAL.0>
42.0816

>  <SCORE.INTRA.POLAR>
0.163518

>  <SCORE.INTRA.POLAR.0>
-0.254682

>  <SCORE.INTRA.REPUL>
0

>  <SCORE.INTRA.REPUL.0>
0

>  <SCORE.INTRA.SOLV>
-4.6454

>  <SCORE.INTRA.SOLV.lig_0>
-109.803

>  <SCORE.INTRA.VDW>
3.08066

>  <SCORE.INTRA.VDW.0>
0.32176

>  <SCORE.INTRA.norm>
-0.404596

>  <SCORE.RESTR>
0

>  <SCORE.RESTR.CAVITY>
0

>  <SCORE.RESTR.norm>
0

>  <SCORE.SYSTEM>
0

>  <SCORE.SYSTEM.CONST>
0

>  <SCORE.SYSTEM.DIHEDRAL>
0

>  <SCORE.SYSTEM.SOLV>
0

>  <SCORE.SYSTEM.norm>
0

>  <SCORE.heavy>
34

>  <SCORE.norm>
-1.52982

>  <RMSD>
9.702

$$$$
1mwl
 OpenBabel11021811403D
libRbt.so/2013.1/901 2013/11/27
 34 36  0  0  0  0  0  0  0  0999 V2000
  -10.5292    7.5788   20.0376 C   0  0  2  0  0  0  0  0  0  0  0  0
  -10.4646    6.5120   20.9356 O   0  0  0  0  0  0  0  0  0  0  0  0
  -11.4084    8.6830   20.6892 C   0  0  2  0  0  0  0  0  0  0  0  0
  -10.8275    9.1022   21.9683 N   0  3  0  0  0  0  0  0  0  0  0  0
  -12.8732    8.1857   20.8643 C   0  0  1  0  0  0  0  0  0  0  0  0
  -13.6527    9.1532   21.4089 O   0  0  0  0  0  0  0  0  0  0  0  0
  -13.4228    7.7502   19.4658 C   0  0  2  0  0  0  0  0  0  0  0  0
  -14.7855    7.2917   19.5892 O   0  0  0  0  0  0  0  0  0  0  0  0
  -12.4935    6.6233   18.8999 C   0  0  2  0  0  0  0  0  0  0  0  0
  -11.1016    7.1128   18.7889 O   0  0  0  0  0  0  0  0  0  0  0  0
  -12.8901    6.1029   17.5137 C   0  0  2  0  0  0  0  0  0  0  0  0
  -13.7111    7.0307   16.8824 O   0  0  0  0  0  0  0  0  0  0  0  0
  -13.6821    4.7832   17.5537 C   0  0  0  0  0  0  0  0  0  0  0  0
   -7.4376    5.5112   23.7808 C   0  0  2  0  0  0  0  0  0  0  0  0
   -6.1711    4.9977   24.3620 N   0  3  0  0  0  0  0  0  0  0  0  0
   -8.2583    4.3533   23.1392 C   0  0  0  0  0  0  0  0  0  0  0  0
   -9.5872    4.9098   22.5111 C   0  0  2  0  0  0  0  0  0  0  0  0
  -10.3636    3.7658   21.9068 N   0  3  0  0  0  0  0  0  0  0  0  0
   -9.2380    6.0019   21.4427 C   0  0  2  0  0  0  0  0  0  0  0  0
   -8.4312    7.1413   22.1120 C   0  0  2  0  0  0  0  0  0  0  0  0
   -8.0945    8.0983   21.1370 O   0  0  0  0  0  0  0  0  0  0  0  0
   -7.1155    6.5782   22.7129 C   0  0  1  0  0  0  0  0  0  0  0  0
   -6.3916    7.6392   23.3184 O   0  0  0  0  0  0  0  0  0  0  0  0
   -5.8935    8.6637   22.5029 C   0  0  2  0  0  0  0  0  0  0  0  0
   -4.3883    8.4045   22.3031 C   0  0  2  0  0  0  0  0  0  0  0  0
   -4.2174    7.1609   21.6574 O   0  0  0  0  0  0  0  0  0  0  0  0
   -3.6770    8.4097   23.6992 C   0  0  1  0  0  0  0  0  0  0  0  0
   -2.2227    8.1366   23.5963 N   0  3  0  0  0  0  0  0  0  0  0  0
   -1.8580    6.9239   24.3724 C   0  0  0  0  0  0  0  0  0  0  0  0
   -3.9134    9.7956   24.3923 C   0  0  2  0  0  0  0  0  0  0  0  0
   -3.3666   10.8500   23.5783 O   0  0  0  0  0  0  0  0  0  0  0  0
   -3.2743    9.8709   25.6935 C   0  0  0  0  0  0  0  0  0  0  0  0
   -5.4423   10.0831   24.5065 C   0  0  0  0  0  0  0  0  0  0  0  0
   -6.1023    9.9626   23.1653 O   0  0  0  0  0  0  0  0  0  0  0  0
  1  2  1  1  0  0  0
  1  3  1  0  0  0  0
  1 10  1  0  0  0  0
  3  4  1  1  0  0  0
  3  5  1  0  0  0  0
  5  6  1  6  0  0  0
  5  7  1  0  0  0  0
  7  8  1  1  0  0  0
  7  9  1  0  0  0  0
  9 10  1  6  0  0  0
  9 11  1  0  0  0  0
 11 12  1  1  0  0  0
 11 13  1  0  0  0  0
 14 15  1  6  0  0  0
 14 16  1  0  0  0  0
 14 22  1  0  0  0  0
 16 17  1  0  0  0  0
 17 18  1  6  0  0  0
 17 19  1  0  0  0  0
 19  2  1  1  0  0  0
 19 20  1  0  0  0  0
 20 21  1  6  0  0  0
 20 22  1  0  0  0  0
 22 23  1  1  0  0  0
 24 23  1  1  0  0  0
 24 25  1  0  0  0  0
 24 34  1  0  0  0  0
 25 26  1  1  0  0  0
 25 27  1  0  0  0  0
 27 28  1  6  0  0  0
 27 30  1  0  0  0  0
 28 29  1  0  0  0  0
 30 31  1  6  0  0  0
 30 32  1  0  0  0  0
 30 33  1  0  0  0  0
 33 34  1  0  0  0  0
M  CHG  4   4   1  15   1  18   1  28   1
M  END
>  <CHROM.1>
-122.51282703,174.82357145,62.69249719,-167.56742235,-56.98516454,19.42289717
-59.58784022,167.62514534,-59.14252975,145.69679075,174.46646746,-101.95025702
74.03029028,-0.51610736,55.43839689,-8.46490366,7.45289828,21.76940079,2.98427637
0.47254795,3.13548369

>  <Name>
1mwl

>  <RI>
0

>  <Rbt.Current_Directory>
/home/itssahil/PROJECTS/Mol_Feturizer/New_Systems/rnas/1mwl

>  <Rbt.Executable>
rbdock ($Id: //depot/dev/client3/rdock/2013.1/src/exe/rbdock.cxx#4 $)

>  <Rbt.Library>
libRbt.so (2013.1, Build901 2013/11/27)

>  <Rbt.Parameter_File>
/export/apps/rDock/src/rDock_2013.1_src/data/scripts/dock_solv.prm

>  <Rbt.Receptor>
prm/pocket_docking_6.prm

>  <SCORE>
-54.9215

>  <SCORE.INTER>
-45.8334

>  <SCORE.INTER.CONST>
1

>  <SCORE.INTER.POLAR>
-7.29023

>  <SCORE.INTER.ROT>
6

>  <SCORE.INTER.SOLV>
24.123

>  <SCORE.INTER.VDW>
-21.8958

>  <SCORE.INTER.norm>
-1.34804

>  <SCORE.INTRA>
-9.0881

>  <SCORE.INTRA.DIHEDRAL>
-14.6321

>  <SCORE.INTRA.DIHEDRAL.0>
42.0816

>  <SCORE.INTRA.POLAR>
-0.162902

>  <SCORE.INTRA.POLAR.0>
-0.254682

>  <SCORE.INTRA.REPUL>
0

>  <SCORE.INTRA.REPUL.0>
0

>  <SCORE.INTRA.SOLV>
-0.0956387

>  <SCORE.INTRA.SOLV.lig_0>
-109.803

>  <SCORE.INTRA.VDW>
-1.17037

>  <SCORE.INTRA.VDW.0>
0.32176

>  <SCORE.INTRA.norm>
-0.267297

>  <SCORE.RESTR>
0

>  <SCORE.RESTR.CAVITY>
0

>  <SCORE.RESTR.norm>
0

>  <SCORE.SYSTEM>
0

>  <SCORE.SYSTEM.CONST>
0

>  <SCORE.SYSTEM.DIHEDRAL>
0

>  <SCORE.SYSTEM.SOLV>
0

>  <SCORE.SYSTEM.norm>
0

>  <SCORE.heavy>
34

>  <SCORE.norm>
-1.61534

>  <RMSD>
9.715

$$$$
1mwl
 OpenBabel11021811403D
libRbt.so/2013.1/901 2013/11/27
 34 36  0  0  0  0  0  0  0  0999 V2000
  -10.7041    7.9322   20.5336 C   0  0  2  0  0  0  0  0  0  0  0  0
  -10.5381    6.7906   21.3196 O   0  0  0  0  0  0  0  0  0  0  0  0
  -12.0991    8.5302   20.8702 C   0  0  2  0  0  0  0  0  0  0  0  0
  -12.1789    8.8542   22.2978 N   0  3  0  0  0  0  0  0  0  0  0  0
  -13.2327    7.5521   20.4436 C   0  0  1  0  0  0  0  0  0  0  0  0
  -14.4542    8.0782   20.7109 O   0  0  0  0  0  0  0  0  0  0  0  0
  -13.0803    7.2472   18.9167 C   0  0  2  0  0  0  0  0  0  0  0  0
  -14.1233    6.3490   18.4838 O   0  0  0  0  0  0  0  0  0  0  0  0
  -11.6616    6.6277   18.6769 C   0  0  2  0  0  0  0  0  0  0  0  0
  -10.6092    7.5618   19.1344 O   0  0  0  0  0  0  0  0  0  0  0  0
  -11.3487    6.2927   17.2141 C   0  0  2  0  0  0  0  0  0  0  0  0
  -11.8004    7.3188   16.3917 O   0  0  0  0  0  0  0  0  0  0  0  0
  -12.0342    5.0073   16.7157 C   0  0  0  0  0  0  0  0  0  0  0  0
   -7.2547    5.6182   23.7903 C   0  0  2  0  0  0  0  0  0  0  0  0
   -5.9315    5.0911   24.2106 N   0  3  0  0  0  0  0  0  0  0  0  0
   -8.1015    4.5016   23.1104 C   0  0  0  0  0  0  0  0  0  0  0  0
   -9.4919    5.0740   22.6531 C   0  0  2  0  0  0  0  0  0  0  0  0
  -10.2917    3.9691   22.0078 N   0  3  0  0  0  0  0  0  0  0  0  0
   -9.2611    6.2727   21.6701 C   0  0  2  0  0  0  0  0  0  0  0  0
   -8.4253    7.3678   22.3769 C   0  0  2  0  0  0  0  0  0  0  0  0
   -8.1958    8.4228   21.4745 O   0  0  0  0  0  0  0  0  0  0  0  0
   -7.0502    6.7909   22.8078 C   0  0  1  0  0  0  0  0  0  0  0  0
   -6.3008    7.8115   23.4505 O   0  0  0  0  0  0  0  0  0  0  0  0
   -5.3169    8.4861   22.7160 C   0  0  2  0  0  0  0  0  0  0  0  0
   -4.0408    8.5230   23.5781 C   0  0  2  0  0  0  0  0  0  0  0  0
   -3.6182    7.2001   23.8310 O   0  0  0  0  0  0  0  0  0  0  0  0
   -4.3482    9.2753   24.9177 C   0  0  1  0  0  0  0  0  0  0  0  0
   -3.1732    9.3287   25.8212 N   0  3  0  0  0  0  0  0  0  0  0  0
   -2.9951    8.0363   26.5311 C   0  0  0  0  0  0  0  0  0  0  0  0
   -4.8388   10.7279   24.5915 C   0  0  2  0  0  0  0  0  0  0  0  0
   -3.8151   11.4407   23.8722 O   0  0  0  0  0  0  0  0  0  0  0  0
   -5.1376   11.4856   25.7932 C   0  0  0  0  0  0  0  0  0  0  0  0
   -6.0778   10.6747   23.6454 C   0  0  0  0  0  0  0  0  0  0  0  0
   -5.7745    9.8558   22.4262 O   0  0  0  0  0  0  0  0  0  0  0  0
  1  2  1  1  0  0  0
  1  3  1  0  0  0  0
  1 10  1  0  0  0  0
  3  4  1  1  0  0  0
  3  5  1  0  0  0  0
  5  6  1  6  0  0  0
  5  7  1  0  0  0  0
  7  8  1  1  0  0  0
  7  9  1  0  0  0  0
  9 10  1  6  0  0  0
  9 11  1  0  0  0  0
 11 12  1  6  0  0  0
 11 13  1  0  0  0  0
 14 15  1  6  0  0  0
 14 16  1  0  0  0  0
 14 22  1  0  0  0  0
 16 17  1  0  0  0  0
 17 18  1  6  0  0  0
 17 19  1  0  0  0  0
 19  2  1  1  0  0  0
 19 20  1  0  0  0  0
 20 21  1  6  0  0  0
 20 22  1  0  0  0  0
 22 23  1  1  0  0  0
 24 23  1  1  0  0  0
 24 25  1  0  0  0  0
 24 34  1  0  0  0  0
 25 26  1  1  0  0  0
 25 27  1  0  0  0  0
 27 28  1  1  0  0  0
 27 30  1  0  0  0  0
 28 29  1  0  0  0  0
 30 31  1  6  0  0  0
 30 32  1  0  0  0  0
 30 33  1  0  0  0  0
 33 34  1  0  0  0  0
M  CHG  4   4   1  15   1  18   1  28   1
M  END
>  <CHROM.1>
-155.68773762,175.08393158,-155.57462927,59.43299029,-58.18571842,41.98206153
172.91814472,145.73932771,-52.90319381,174.14632765,140.03671145,-132.34790478
73.75230264,41.24605956,60.51878625,-8.45787510,7.65071072,21.95935220,2.92217364
0.61020971,3.12284752

>  <Name>
1mwl

>  <RI>
0

>  <Rbt.Current_Directory>
/home/itssahil/PROJECTS/Mol_Feturizer/New_Systems/rnas/1mwl

>  <Rbt.Executable>
rbdock ($Id: //depot/dev/client3/rdock/2013.1/src/exe/rbdock.cxx#4 $)

>  <Rbt.Library>
libRbt.so (2013.1, Build901 2013/11/27)

>  <Rbt.Parameter_File>
/export/apps/rDock/src/rDock_2013.1_src/data/scripts/dock_solv.prm

>  <Rbt.Receptor>
prm/pocket_docking_5.prm

>  <SCORE>
-48.0083

>  <SCORE.INTER>
-31.0612

>  <SCORE.INTER.CONST>
1

>  <SCORE.INTER.POLAR>
-4.34269

>  <SCORE.INTER.ROT>
6

>  <SCORE.INTER.SOLV>
17.5208

>  <SCORE.INTER.VDW>
-19.6721

>  <SCORE.INTER.norm>
-0.913564

>  <SCORE.INTRA>
-17.8039

>  <SCORE.INTRA.DIHEDRAL>
-20.6637

>  <SCORE.INTRA.DIHEDRAL.0>
42.0816

>  <SCORE.INTRA.POLAR>
-1.41112

>  <SCORE.INTRA.POLAR.0>
-0.254682

>  <SCORE.INTRA.REPUL>
0

>  <SCORE.INTRA.REPUL.0>
0

>  <SCORE.INTRA.SOLV>
-1.61912

>  <SCORE.INTRA.SOLV.lig_0>
-109.803

>  <SCORE.INTRA.VDW>
-1.86474

>  <SCORE.INTRA.VDW.0>
0.32176

>  <SCORE.INTRA.norm>
-0.523646

>  <SCORE.RESTR>
0.856846

>  <SCORE.RESTR.CAVITY>
0.856846

>  <SCORE.RESTR.norm>
0.0252014

>  <SCORE.SYSTEM>
0

>  <SCORE.SYSTEM.CONST>
0

>  <SCORE.SYSTEM.DIHEDRAL>
0

>  <SCORE.SYSTEM.SOLV>
0

>  <SCORE.SYSTEM.norm>
0

>  <SCORE.heavy>
34

>  <SCORE.norm>
-1.41201

>  <RMSD>
9.739

$$$$
1mwl
 OpenBabel11021811403D
libRbt.so/2013.1/901 2013/11/27
 34 36  0  0  0  0  0  0  0  0999 V2000
   -9.5143    7.9527   20.4327 C   0  0  2  0  0  0  0  0  0  0  0  0
   -9.4469    7.0625   21.5059 O   0  0  0  0  0  0  0  0  0  0  0  0
  -10.9092    8.6373   20.4827 C   0  0  2  0  0  0  0  0  0  0  0  0
  -11.0845    9.3343   21.7606 N   0  3  0  0  0  0  0  0  0  0  0  0
  -12.0406    7.5953   20.2421 C   0  0  1  0  0  0  0  0  0  0  0  0
  -13.2599    8.1898   20.2589 O   0  0  0  0  0  0  0  0  0  0  0  0
  -11.7849    6.8891   18.8698 C   0  0  2  0  0  0  0  0  0  0  0  0
  -12.8228    5.9211   18.6090 O   0  0  0  0  0  0  0  0  0  0  0  0
  -10.3743    6.2095   18.9203 C   0  0  2  0  0  0  0  0  0  0  0  0
   -9.3277    7.2185   19.1958 O   0  0  0  0  0  0  0  0  0  0  0  0
   -9.9645    5.4894   17.6306 C   0  0  2  0  0  0  0  0  0  0  0  0
  -10.8601    4.4596   17.3644 O   0  0  0  0  0  0  0  0  0  0  0  0
   -8.5703    4.8403   17.7031 C   0  0  0  0  0  0  0  0  0  0  0  0
   -6.3238    5.8488   24.1578 C   0  0  2  0  0  0  0  0  0  0  0  0
   -5.0646    5.2429   24.6605 N   0  3  0  0  0  0  0  0  0  0  0  0
   -7.2712    4.7537   23.5840 C   0  0  0  0  0  0  0  0  0  0  0  0
   -8.5923    5.4070   23.0382 C   0  0  2  0  0  0  0  0  0  0  0  0
   -9.4920    4.3225   22.4986 N   0  3  0  0  0  0  0  0  0  0  0  0
   -8.2321    6.4627   21.9372 C   0  0  2  0  0  0  0  0  0  0  0  0
   -7.2982    7.5405   22.5397 C   0  0  2  0  0  0  0  0  0  0  0  0
   -6.9545    8.4630   21.5342 O   0  0  0  0  0  0  0  0  0  0  0  0
   -5.9925    6.8815   23.0594 C   0  0  1  0  0  0  0  0  0  0  0  0
   -5.1512    7.8873   23.6045 O   0  0  0  0  0  0  0  0  0  0  0  0
   -4.5993    8.8421   22.7406 C   0  0  2  0  0  0  0  0  0  0  0  0
   -3.2875    9.3382   23.3779 C   0  0  2  0  0  0  0  0  0  0  0  0
   -2.3990    8.2491   23.5086 O   0  0  0  0  0  0  0  0  0  0  0  0
   -3.6034    9.9702   24.7763 C   0  0  1  0  0  0  0  0  0  0  0  0
   -2.3836   10.4479   25.4719 N   0  3  0  0  0  0  0  0  0  0  0  0
   -1.6517    9.3135   26.0913 C   0  0  0  0  0  0  0  0  0  0  0  0
   -4.6117   11.1558   24.5896 C   0  0  2  0  0  0  0  0  0  0  0  0
   -4.0336   12.1606   23.7354 O   0  0  0  0  0  0  0  0  0  0  0  0
   -4.9449   11.7925   25.8509 C   0  0  0  0  0  0  0  0  0  0  0  0
   -5.8979   10.6551   23.8627 C   0  0  0  0  0  0  0  0  0  0  0  0
   -5.5425    9.9621   22.5812 O   0  0  0  0  0  0  0  0  0  0  0  0
  1  2  1  1  0  0  0
  1  3  1  0  0  0  0
  1 10  1  0  0  0  0
  3  4  1  1  0  0  0
  3  5  1  0  0  0  0
  5  6  1  6  0  0  0
  5  7  1  0  0  0  0
  7  8  1  1  0  0  0
  7  9  1  0  0  0  0
  9 10  1  6  0  0  0
  9 11  1  0  0  0  0
 11 12  1  1  0  0  0
 11 13  1  0  0  0  0
 14 15  1  6  0  0  0
 14 16  1  0  0  0  0
 14 22  1  0  0  0  0
 16 17  1  0  0  0  0
 17 18  1  6  0  0  0
 17 19  1  0  0  0  0
 19  2  1  1  0  0  0
 19 20  1  0  0  0  0
 20 21  1  6  0  0  0
 20 22  1  0  0  0  0
 22 23  1  1  0  0  0
 24 23  1  1  0  0  0
 24 25  1  0  0  0  0
 24 34  1  0  0  0  0
 25 26  1  1  0  0  0
 25 27  1  0  0  0  0
 27 28  1  6  0  0  0
 27 30  1  0  0  0  0
 28 29  1  0  0  0  0
 30 31  1  6  0  0  0
 30 32  1  0  0  0  0
 30 33  1  0  0  0  0
 33 34  1  0  0  0  0
M  CHG  4   4   1  15   1  18   1  28   1
M  END
>  <CHROM.1>
-166.84885099,-173.24353751,-65.12538161,-61.87371348,-47.67419325,-61.72040895
63.70583193,36.02446685,61.03678192,82.67095663,172.59304266,-153.25202488
74.74804664,41.41929133,-59.09051428,-7.46225196,7.77832679,22.05884642,2.68033061
0.55031923,-2.95961435

>  <Name>
1mwl

>  <RI>
0

>  <Rbt.Current_Directory>
/home/itssahil/PROJECTS/Mol_Feturizer/New_Systems/rnas/1mwl

>  <Rbt.Executable>
rbdock ($Id: //depot/dev/client3/rdock/2013.1/src/exe/rbdock.cxx#4 $)

>  <Rbt.Library>
libRbt.so (2013.1, Build901 2013/11/27)

>  <Rbt.Parameter_File>
/export/apps/rDock/src/rDock_2013.1_src/data/scripts/dock_solv.prm

>  <Rbt.Receptor>
prm/pocket_docking_7.prm

>  <SCORE>
-63.3313

>  <SCORE.INTER>
-46.3091

>  <SCORE.INTER.CONST>
1

>  <SCORE.INTER.POLAR>
-6.05007

>  <SCORE.INTER.ROT>
6

>  <SCORE.INTER.SOLV>
19.2875

>  <SCORE.INTER.VDW>
-24.735

>  <SCORE.INTER.norm>
-1.36203

>  <SCORE.INTRA>
-17.0222

>  <SCORE.INTRA.DIHEDRAL>
-31.491

>  <SCORE.INTRA.DIHEDRAL.0>
42.0816

>  <SCORE.INTRA.POLAR>
-0.163073

>  <SCORE.INTRA.POLAR.0>
-0.254682

>  <SCORE.INTRA.REPUL>
0

>  <SCORE.INTRA.REPUL.0>
0

>  <SCORE.INTRA.SOLV>
-2.38413

>  <SCORE.INTRA.SOLV.lig_0>
-109.803

>  <SCORE.INTRA.VDW>
0.469848

>  <SCORE.INTRA.VDW.0>
0.32176

>  <SCORE.INTRA.norm>
-0.500652

>  <SCORE.RESTR>
0

>  <SCORE.RESTR.CAVITY>
0

>  <SCORE.RESTR.norm>
0

>  <SCORE.SYSTEM>
0

>  <SCORE.SYSTEM.CONST>
0

>  <SCORE.SYSTEM.DIHEDRAL>
0

>  <SCORE.SYSTEM.SOLV>
0

>  <SCORE.SYSTEM.norm>
0

>  <SCORE.heavy>
34

>  <SCORE.norm>
-1.86269

>  <RMSD>
9.888

$$$$
1mwl
 OpenBabel11021811403D
libRbt.so/2013.1/901 2013/11/27
 34 36  0  0  0  0  0  0  0  0999 V2000
  -10.1144    7.6164   20.0704 C   0  0  2  0  0  0  0  0  0  0  0  0
  -10.1274    6.5492   20.9701 O   0  0  0  0  0  0  0  0  0  0  0  0
  -11.0387    8.7244   20.6493 C   0  0  2  0  0  0  0  0  0  0  0  0
  -10.5613    9.1409   21.9714 N   0  3  0  0  0  0  0  0  0  0  0  0
  -12.5150    8.2336   20.7050 C   0  0  1  0  0  0  0  0  0  0  0  0
  -13.3317    9.2044   21.1854 O   0  0  0  0  0  0  0  0  0  0  0  0
  -12.9516    7.8007   19.2665 C   0  0  2  0  0  0  0  0  0  0  0  0
  -14.3217    7.3482   19.2790 O   0  0  0  0  0  0  0  0  0  0  0  0
  -11.9844    6.6697   18.7771 C   0  0  2  0  0  0  0  0  0  0  0  0
  -10.5860    7.1531   18.7793 O   0  0  0  0  0  0  0  0  0  0  0  0
  -12.2699    6.1513   17.3630 C   0  0  2  0  0  0  0  0  0  0  0  0
  -13.5661    5.6520   17.3001 O   0  0  0  0  0  0  0  0  0  0  0  0
  -11.3432    5.0009   16.9292 C   0  0  0  0  0  0  0  0  0  0  0  0
   -7.2654    5.4458   23.9452 C   0  0  2  0  0  0  0  0  0  0  0  0
   -6.0447    4.8883   24.5814 N   0  3  0  0  0  0  0  0  0  0  0  0
   -8.0982    4.3168   23.2685 C   0  0  0  0  0  0  0  0  0  0  0  0
   -9.3776    4.9194   22.5828 C   0  0  2  0  0  0  0  0  0  0  0  0
  -10.1673    3.8028   21.9453 N   0  3  0  0  0  0  0  0  0  0  0  0
   -8.9432    5.9965   21.5305 C   0  0  2  0  0  0  0  0  0  0  0  0
   -8.1261    7.1074   22.2343 C   0  0  2  0  0  0  0  0  0  0  0  0
   -7.7130    8.0501   21.2747 O   0  0  0  0  0  0  0  0  0  0  0  0
   -6.8589    6.4987   22.8923 C   0  0  1  0  0  0  0  0  0  0  0  0
   -6.1247    7.5342   23.5287 O   0  0  0  0  0  0  0  0  0  0  0  0
   -4.8191    7.2648   23.9594 C   0  0  2  0  0  0  0  0  0  0  0  0
   -4.6102    8.0069   25.2930 C   0  0  2  0  0  0  0  0  0  0  0  0
   -5.5321    7.5154   26.2422 O   0  0  0  0  0  0  0  0  0  0  0  0
   -4.8137    9.5432   25.0625 C   0  0  1  0  0  0  0  0  0  0  0  0
   -4.6582   10.3299   26.3104 N   0  3  0  0  0  0  0  0  0  0  0  0
   -3.4039    9.9593   27.0141 C   0  0  0  0  0  0  0  0  0  0  0  0
   -3.7908   10.0421   23.9846 C   0  0  2  0  0  0  0  0  0  0  0  0
   -2.4453    9.8056   24.4397 O   0  0  0  0  0  0  0  0  0  0  0  0
   -3.9216   11.4644   23.7254 C   0  0  0  0  0  0  0  0  0  0  0  0
   -3.9555    9.2199   22.6693 C   0  0  0  0  0  0  0  0  0  0  0  0
   -3.8607    7.7502   22.9518 O   0  0  0  0  0  0  0  0  0  0  0  0
  1  2  1  1  0  0  0
  1  3  1  0  0  0  0
  1 10  1  0  0  0  0
  3  4  1  1  0  0  0
  3  5  1  0  0  0  0
  5  6  1  6  0  0  0
  5  7  1  0  0  0  0
  7  8  1  1  0  0  0
  7  9  1  0  0  0  0
  9 10  1  6  0  0  0
  9 11  1  0  0  0  0
 11 12  1  1  0  0  0
 11 13  1  0  0  0  0
 14 15  1  6  0  0  0
 14 16  1  0  0  0  0
 14 22  1  0  0  0  0
 16 17  1  0  0  0  0
 17 18  1  6  0  0  0
 17 19  1  0  0  0  0
 19  2  1  1  0  0  0
 19 20  1  0  0  0  0
 20 21  1  6  0  0  0
 20 22  1  0  0  0  0
 22 23  1  1  0  0  0
 24 23  1  6  0  0  0
 24 25  1  0  0  0  0
 24 34  1  0  0  0  0
 25 26  1  1  0  0  0
 25 27  1  0  0  0  0
 27 28  1  1  0  0  0
 27 30  1  0  0  0  0
 28 29  1  0  0  0  0
 30 31  1  1  0  0  0
 30 32  1  0  0  0  0
 30 33  1  0  0  0  0
 33 34  1  0  0  0  0
M  CHG  4   4   1  15   1  18   1  28   1
M  END
>  <CHROM.1>
-125.29006139,174.79945155,-59.36123671,53.41617399,-54.34262106,-58.84315447
54.08198163,-46.79196522,179.33149274,-176.11665895,72.25536700,-142.66757067
-165.90132936,169.59875365,177.41978268,-8.23184503,7.49910906,22.15037293
2.94848340,0.62436670,3.09945210

>  <Name>
1mwl

>  <RI>
0

>  <Rbt.Current_Directory>
/home/itssahil/PROJECTS/Mol_Feturizer/New_Systems/rnas/1mwl

>  <Rbt.Executable>
rbdock ($Id: //depot/dev/client3/rdock/2013.1/src/exe/rbdock.cxx#4 $)

>  <Rbt.Library>
libRbt.so (2013.1, Build901 2013/11/27)

>  <Rbt.Parameter_File>
/export/apps/rDock/src/rDock_2013.1_src/data/scripts/dock_solv.prm

>  <Rbt.Receptor>
prm/pocket_docking_6.prm

>  <SCORE>
-61.6662

>  <SCORE.INTER>
-47.2169

>  <SCORE.INTER.CONST>
1

>  <SCORE.INTER.POLAR>
-6.8922

>  <SCORE.INTER.ROT>
6

>  <SCORE.INTER.SOLV>
20.0543

>  <SCORE.INTER.VDW>
-22.7887

>  <SCORE.INTER.norm>
-1.38873

>  <SCORE.INTRA>
-14.4579

>  <SCORE.INTRA.DIHEDRAL>
-26.8936

>  <SCORE.INTRA.DIHEDRAL.0>
42.0816

>  <SCORE.INTRA.POLAR>
-1.21188

>  <SCORE.INTRA.POLAR.0>
-0.254682

>  <SCORE.INTRA.REPUL>
0

>  <SCORE.INTRA.REPUL.0>
0

>  <SCORE.INTRA.SOLV>
0.703121

>  <SCORE.INTRA.SOLV.lig_0>
-109.803

>  <SCORE.INTRA.VDW>
2.75773

>  <SCORE.INTRA.VDW.0>
0.32176

>  <SCORE.INTRA.norm>
-0.425232

>  <SCORE.RESTR>
0.00865762

>  <SCORE.RESTR.CAVITY>
0.00865762

>  <SCORE.RESTR.norm>
0.000254636

>  <SCORE.SYSTEM>
0

>  <SCORE.SYSTEM.CONST>
0

>  <SCORE.SYSTEM.DIHEDRAL>
0

>  <SCORE.SYSTEM.SOLV>
0

>  <SCORE.SYSTEM.norm>
0

>  <SCORE.heavy>
34

>  <SCORE.norm>
-1.81371

>  <RMSD>
9.897

$$$$
1mwl
 OpenBabel11021811403D
libRbt.so/2013.1/901 2013/11/27
 34 36  0  0  0  0  0  0  0  0999 V2000
  -10.0629    7.5614   20.1486 C   0  0  2  0  0  0  0  0  0  0  0  0
   -9.9454    6.5333   21.0854 O   0  0  0  0  0  0  0  0  0  0  0  0
  -11.0396    8.6180   20.7372 C   0  0  2  0  0  0  0  0  0  0  0  0
  -10.5281    9.1224   22.0152 N   0  3  0  0  0  0  0  0  0  0  0  0
  -12.4681    8.0187   20.8917 C   0  0  1  0  0  0  0  0  0  0  0  0
  -13.3322    8.9429   21.3810 O   0  0  0  0  0  0  0  0  0  0  0  0
  -12.9438    7.4965   19.4958 C   0  0  2  0  0  0  0  0  0  0  0  0
  -14.2718    6.9417   19.6000 O   0  0  0  0  0  0  0  0  0  0  0  0
  -11.9179    6.4238   18.9950 C   0  0  2  0  0  0  0  0  0  0  0  0
  -10.5634    7.0122   18.9028 O   0  0  0  0  0  0  0  0  0  0  0  0
  -12.2352    5.8288   17.6183 C   0  0  2  0  0  0  0  0  0  0  0  0
  -13.4639    5.1794   17.6607 O   0  0  0  0  0  0  0  0  0  0  0  0
  -11.2097    4.7811   17.1481 C   0  0  0  0  0  0  0  0  0  0  0  0
   -6.8765    5.6840   23.9350 C   0  0  2  0  0  0  0  0  0  0  0  0
   -5.5848    5.2391   24.5173 N   0  3  0  0  0  0  0  0  0  0  0  0
   -7.6271    4.4863   23.2807 C   0  0  0  0  0  0  0  0  0  0  0  0
   -8.9834    4.9709   22.6516 C   0  0  2  0  0  0  0  0  0  0  0  0
   -9.6907    3.7894   22.0348 N   0  3  0  0  0  0  0  0  0  0  0  0
   -8.6935    6.0901   21.5934 C   0  0  2  0  0  0  0  0  0  0  0  0
   -7.9558    7.2682   22.2753 C   0  0  2  0  0  0  0  0  0  0  0  0
   -7.6708    8.2510   21.3094 O   0  0  0  0  0  0  0  0  0  0  0  0
   -6.6122    6.7765   22.8771 C   0  0  1  0  0  0  0  0  0  0  0  0
   -5.9525    7.8721   23.4941 O   0  0  0  0  0  0  0  0  0  0  0  0
   -4.9614    8.5516   22.7738 C   0  0  2  0  0  0  0  0  0  0  0  0
   -3.7012    8.6034   23.6581 C   0  0  2  0  0  0  0  0  0  0  0  0
   -3.2720    7.2853   23.9249 O   0  0  0  0  0  0  0  0  0  0  0  0
   -4.0386    9.3594   24.9883 C   0  0  1  0  0  0  0  0  0  0  0  0
   -2.8802    9.4270   25.9122 N   0  3  0  0  0  0  0  0  0  0  0  0
   -3.2450    8.9050   27.2540 C   0  0  0  0  0  0  0  0  0  0  0  0
   -4.5355   10.8062   24.6465 C   0  0  2  0  0  0  0  0  0  0  0  0
   -3.5052   11.5242   23.9419 O   0  0  0  0  0  0  0  0  0  0  0  0
   -4.8619   11.5670   25.8389 C   0  0  0  0  0  0  0  0  0  0  0  0
   -5.7570   10.7380   23.6789 C   0  0  0  0  0  0  0  0  0  0  0  0
   -5.4254    9.9160   22.4693 O   0  0  0  0  0  0  0  0  0  0  0  0
  1  2  1  1  0  0  0
  1  3  1  0  0  0  0
  1 10  1  0  0  0  0
  3  4  1  1  0  0  0
  3  5  1  0  0  0  0
  5  6  1  6  0  0  0
  5  7  1  0  0  0  0
  7  8  1  1  0  0  0
  7  9  1  0  0  0  0
  9 10  1  6  0  0  0
  9 11  1  0  0  0  0
 11 12  1  1  0  0  0
 11 13  1  0  0  0  0
 14 15  1  6  0  0  0
 14 16  1  0  0  0  0
 14 22  1  0  0  0  0
 16 17  1  0  0  0  0
 17 18  1  6  0  0  0
 17 19  1  0  0  0  0
 19  2  1  1  0  0  0
 19 20  1  0  0  0  0
 20 21  1  6  0  0  0
 20 22  1  0  0  0  0
 22 23  1  1  0  0  0
 24 23  1  1  0  0  0
 24 25  1  0  0  0  0
 24 34  1  0  0  0  0
 25 26  1  1  0  0  0
 25 27  1  0  0  0  0
 27 28  1  1  0  0  0
 27 30  1  0  0  0  0
 28 29  1  0  0  0  0
 30 31  1  6  0  0  0
 30 32  1  0  0  0  0
 30 33  1  0  0  0  0
 33 34  1  0  0  0  0
M  CHG  4   4   1  15   1  18   1  28   1
M  END
>  <CHROM.1>
-125.66647070,177.87989433,56.91926302,-62.63667637,-63.48980919,-61.43121319
-55.63241670,33.33720914,-176.66869025,-179.57005301,142.71208468,-127.67576442
63.96804520,-6.56022520,59.27286311,-8.11845542,7.62975230,22.14271113,2.80226925
0.55916535,-3.03490717

>  <Name>
1mwl

>  <RI>
0

>  <Rbt.Current_Directory>
/home/itssahil/PROJECTS/Mol_Feturizer/New_Systems/rnas/1mwl

>  <Rbt.Executable>
rbdock ($Id: //depot/dev/client3/rdock/2013.1/src/exe/rbdock.cxx#4 $)

>  <Rbt.Library>
libRbt.so (2013.1, Build901 2013/11/27)

>  <Rbt.Parameter_File>
/export/apps/rDock/src/rDock_2013.1_src/data/scripts/dock_solv.prm

>  <Rbt.Receptor>
prm/pocket_docking_8.prm

>  <SCORE>
-58.5829

>  <SCORE.INTER>
-41.4306

>  <SCORE.INTER.CONST>
1

>  <SCORE.INTER.POLAR>
-5.62729

>  <SCORE.INTER.ROT>
6

>  <SCORE.INTER.SOLV>
18.8875

>  <SCORE.INTER.VDW>
-22.7586

>  <SCORE.INTER.norm>
-1.21855

>  <SCORE.INTRA>
-17.1523

>  <SCORE.INTRA.DIHEDRAL>
-17.7876

>  <SCORE.INTRA.DIHEDRAL.0>
42.0816

>  <SCORE.INTRA.POLAR>
-1.53776

>  <SCORE.INTRA.POLAR.0>
-0.254682

>  <SCORE.INTRA.REPUL>
0

>  <SCORE.INTRA.REPUL.0>
0

>  <SCORE.INTRA.SOLV>
0.79544

>  <SCORE.INTRA.SOLV.lig_0>
-109.803

>  <SCORE.INTRA.VDW>
-3.42783

>  <SCORE.INTRA.VDW.0>
0.32176

>  <SCORE.INTRA.norm>
-0.504478

>  <SCORE.RESTR>
0

>  <SCORE.RESTR.CAVITY>
0

>  <SCORE.RESTR.norm>
0

>  <SCORE.SYSTEM>
0

>  <SCORE.SYSTEM.CONST>
0

>  <SCORE.SYSTEM.DIHEDRAL>
0

>  <SCORE.SYSTEM.SOLV>
0

>  <SCORE.SYSTEM.norm>
0

>  <SCORE.heavy>
34

>  <SCORE.norm>
-1.72303

>  <RMSD>
9.899

$$$$
1mwl
 OpenBabel11021811403D
libRbt.so/2013.1/901 2013/11/27
 34 36  0  0  0  0  0  0  0  0999 V2000
  -10.8821    6.6792   20.8264 C   0  0  2  0  0  0  0  0  0  0  0  0
   -9.7985    7.1264   21.5843 O   0  0  0  0  0  0  0  0  0  0  0  0
  -10.9943    7.6056   19.5830 C   0  0  2  0  0  0  0  0  0  0  0  0
   -9.7514    7.5621   18.8067 N   0  3  0  0  0  0  0  0  0  0  0  0
  -11.3474    9.0597   20.0124 C   0  0  1  0  0  0  0  0  0  0  0  0
  -11.4722    9.8688   18.9307 O   0  0  0  0  0  0  0  0  0  0  0  0
  -12.6752    9.0274   20.8391 C   0  0  2  0  0  0  0  0  0  0  0  0
  -13.0387   10.3633   21.2461 O   0  0  0  0  0  0  0  0  0  0  0  0
  -12.4614    8.0943   22.0791 C   0  0  2  0  0  0  0  0  0  0  0  0
  -12.0827    6.7335   21.6386 O   0  0  0  0  0  0  0  0  0  0  0  0
  -13.6898    7.9398   22.9829 C   0  0  2  0  0  0  0  0  0  0  0  0
  -14.7893    7.5649   22.2187 O   0  0  0  0  0  0  0  0  0  0  0  0
  -14.0903    9.2383   23.7065 C   0  0  0  0  0  0  0  0  0  0  0  0
   -6.8072    5.3626   24.0745 C   0  0  2  0  0  0  0  0  0  0  0  0
   -5.6819    4.5046   24.5250 N   0  3  0  0  0  0  0  0  0  0  0  0
   -8.0334    4.4933   23.6664 C   0  0  0  0  0  0  0  0  0  0  0  0
   -9.2117    5.4095   23.1740 C   0  0  2  0  0  0  0  0  0  0  0  0
  -10.3861    4.5412   22.7953 N   0  3  0  0  0  0  0  0  0  0  0  0
   -8.7214    6.2805   21.9668 C   0  0  2  0  0  0  0  0  0  0  0  0
   -7.5095    7.1381   22.4060 C   0  0  2  0  0  0  0  0  0  0  0  0
   -7.0572    7.8896   21.3057 O   0  0  0  0  0  0  0  0  0  0  0  0
   -6.3500    6.2184   22.8740 C   0  0  1  0  0  0  0  0  0  0  0  0
   -5.2499    7.0248   23.2691 O   0  0  0  0  0  0  0  0  0  0  0  0
   -5.1339    7.3889   24.6169 C   0  0  2  0  0  0  0  0  0  0  0  0
   -4.9770    8.9204   24.6699 C   0  0  2  0  0  0  0  0  0  0  0  0
   -6.1284    9.5201   24.1155 O   0  0  0  0  0  0  0  0  0  0  0  0
   -3.6943    9.3326   23.8702 C   0  0  1  0  0  0  0  0  0  0  0  0
   -3.4870   10.8011   23.8477 N   0  3  0  0  0  0  0  0  0  0  0  0
   -4.4809   11.4602   22.9624 C   0  0  0  0  0  0  0  0  0  0  0  0
   -2.4453    8.6256   24.5004 C   0  0  2  0  0  0  0  0  0  0  0  0
   -2.2962    9.0280   25.8749 O   0  0  0  0  0  0  0  0  0  0  0  0
   -1.2166    8.9693   23.8080 C   0  0  0  0  0  0  0  0  0  0  0  0
   -2.6584    7.0805   24.5206 C   0  0  0  0  0  0  0  0  0  0  0  0
   -3.9497    6.7359   25.2008 O   0  0  0  0  0  0  0  0  0  0  0  0
  1  2  1  1  0  0  0
  1  3  1  0  0  0  0
  1 10  1  0  0  0  0
  3  4  1  1  0  0  0
  3  5  1  0  0  0  0
  5  6  1  6  0  0  0
  5  7  1  0  0  0  0
  7  8  1  1  0  0  0
  7  9  1  0  0  0  0
  9 10  1  6  0  0  0
  9 11  1  0  0  0  0
 11 12  1  6  0  0  0
 11 13  1  0  0  0  0
 14 15  1  6  0  0  0
 14 16  1  0  0  0  0
 14 22  1  0  0  0  0
 16 17  1  0  0  0  0
 17 18  1  6  0  0  0
 17 19  1  0  0  0  0
 19  2  1  1  0  0  0
 19 20  1  0  0  0  0
 20 21  1  6  0  0  0
 20 22  1  0  0  0  0
 22 23  1  1  0  0  0
 24 23  1  6  0  0  0
 24 25  1  0  0  0  0
 24 34  1  0  0  0  0
 25 26  1  6  0  0  0
 25 27  1  0  0  0  0
 27 28  1  1  0  0  0
 27 30  1  0  0  0  0
 28 29  1  0  0  0  0
 30 31  1  1  0  0  0
 30 32  1  0  0  0  0
 30 33  1  0  0  0  0
 33 34  1  0  0  0  0
M  CHG  4   4   1  15   1  18   1  28   1
M  END
>  <CHROM.1>
-125.19484652,-78.01971207,-117.38759692,63.34804544,-64.99614969,52.32409256
64.25287074,-62.54076556,-66.63582492,-165.17769051,-27.28305129,-127.46554961
-62.73606627,47.70079686,179.54897526,-8.02692689,7.77134765,22.70488769
3.06832931,-0.32306610,-0.31023164

>  <Name>
1mwl

>  <RI>
0

>  <Rbt.Current_Directory>
/home/itssahil/PROJECTS/Mol_Feturizer/New_Systems/rnas/1mwl

>  <Rbt.Executable>
rbdock ($Id: //depot/dev/client3/rdock/2013.1/src/exe/rbdock.cxx#4 $)

>  <Rbt.Library>
libRbt.so (2013.1, Build901 2013/11/27)

>  <Rbt.Parameter_File>
/export/apps/rDock/src/rDock_2013.1_src/data/scripts/dock_solv.prm

>  <Rbt.Receptor>
prm/pocket_docking_7.prm

>  <SCORE>
-51.0373

>  <SCORE.INTER>
-39.3815

>  <SCORE.INTER.CONST>
1

>  <SCORE.INTER.POLAR>
-4.93054

>  <SCORE.INTER.ROT>
6

>  <SCORE.INTER.SOLV>
22.8989

>  <SCORE.INTER.VDW>
-25.0522

>  <SCORE.INTER.norm>
-1.15828

>  <SCORE.INTRA>
-11.6558

>  <SCORE.INTRA.DIHEDRAL>
-16.8365

>  <SCORE.INTRA.DIHEDRAL.0>
42.0816

>  <SCORE.INTRA.POLAR>
-1.90438

>  <SCORE.INTRA.POLAR.0>
-0.254682

>  <SCORE.INTRA.REPUL>
0

>  <SCORE.INTRA.REPUL.0>
0

>  <SCORE.INTRA.SOLV>
1.47742

>  <SCORE.INTRA.SOLV.lig_0>
-109.803

>  <SCORE.INTRA.VDW>
2.49861

>  <SCORE.INTRA.VDW.0>
0.32176

>  <SCORE.INTRA.norm>
-0.342819

>  <SCORE.RESTR>
0

>  <SCORE.RESTR.CAVITY>
0

>  <SCORE.RESTR.norm>
0

>  <SCORE.SYSTEM>
0

>  <SCORE.SYSTEM.CONST>
0

>  <SCORE.SYSTEM.DIHEDRAL>
0

>  <SCORE.SYSTEM.SOLV>
0

>  <SCORE.SYSTEM.norm>
0

>  <SCORE.heavy>
34

>  <SCORE.norm>
-1.5011

>  <RMSD>
9.920

$$$$
1mwl
 OpenBabel11021811403D
libRbt.so/2013.1/901 2013/11/27
 34 36  0  0  0  0  0  0  0  0999 V2000
   -9.3793    7.8556   20.5725 C   0  0  2  0  0  0  0  0  0  0  0  0
   -9.4718    6.9850   21.6598 O   0  0  0  0  0  0  0  0  0  0  0  0
  -10.7526    8.5704   20.4305 C   0  0  2  0  0  0  0  0  0  0  0  0
  -11.0747    9.2955   21.6634 N   0  3  0  0  0  0  0  0  0  0  0  0
  -11.8677    7.5483   20.0627 C   0  0  1  0  0  0  0  0  0  0  0  0
  -13.0646    8.1687   19.9119 O   0  0  0  0  0  0  0  0  0  0  0  0
  -11.4539    6.8105   18.7467 C   0  0  2  0  0  0  0  0  0  0  0  0
  -12.4720    5.8599   18.3698 O   0  0  0  0  0  0  0  0  0  0  0  0
  -10.0780    6.1023   18.9903 C   0  0  2  0  0  0  0  0  0  0  0  0
   -9.0521    7.0939   19.3822 O   0  0  0  0  0  0  0  0  0  0  0  0
   -9.5224    5.3489   17.7764 C   0  0  2  0  0  0  0  0  0  0  0  0
   -8.2860    4.7974   18.0931 O   0  0  0  0  0  0  0  0  0  0  0  0
   -9.2920    6.2459   16.5465 C   0  0  0  0  0  0  0  0  0  0  0  0
   -6.8144    5.2063   24.4941 C   0  0  2  0  0  0  0  0  0  0  0  0
   -5.6710    4.4494   25.0644 N   0  3  0  0  0  0  0  0  0  0  0  0
   -7.7312    4.2688   23.6536 C   0  0  0  0  0  0  0  0  0  0  0  0
   -8.9272    5.0828   23.0397 C   0  0  2  0  0  0  0  0  0  0  0  0
   -9.8010    4.1479   22.2404 N   0  3  0  0  0  0  0  0  0  0  0  0
   -8.3622    6.2467   22.1551 C   0  0  2  0  0  0  0  0  0  0  0  0
   -7.4636    7.1643   23.0197 C   0  0  2  0  0  0  0  0  0  0  0  0
   -6.9353    8.1850   22.2077 O   0  0  0  0  0  0  0  0  0  0  0  0
   -6.2795    6.3492   23.6051 C   0  0  1  0  0  0  0  0  0  0  0  0
   -5.4684    7.2099   24.3911 O   0  0  0  0  0  0  0  0  0  0  0  0
   -4.0774    7.0506   24.3436 C   0  0  2  0  0  0  0  0  0  0  0  0
   -3.4582    8.1218   25.2612 C   0  0  2  0  0  0  0  0  0  0  0  0
   -3.9130    7.9152   26.5815 O   0  0  0  0  0  0  0  0  0  0  0  0
   -3.8732    9.5417   24.7449 C   0  0  1  0  0  0  0  0  0  0  0  0
   -3.3392   10.6333   25.5954 N   0  3  0  0  0  0  0  0  0  0  0  0
   -1.8598   10.5479   25.6953 C   0  0  0  0  0  0  0  0  0  0  0  0
   -3.3734    9.7195   23.2698 C   0  0  2  0  0  0  0  0  0  0  0  0
   -1.9395    9.5980   23.2205 O   0  0  0  0  0  0  0  0  0  0  0  0
   -3.7213   11.0210   22.7290 C   0  0  0  0  0  0  0  0  0  0  0  0
   -3.9376    8.5755   22.3720 C   0  0  0  0  0  0  0  0  0  0  0  0
   -3.6100    7.2351   22.9591 O   0  0  0  0  0  0  0  0  0  0  0  0
  1  2  1  1  0  0  0
  1  3  1  0  0  0  0
  1 10  1  0  0  0  0
  3  4  1  1  0  0  0
  3  5  1  0  0  0  0
  5  6  1  6  0  0  0
  5  7  1  0  0  0  0
  7  8  1  1  0  0  0
  7  9  1  0  0  0  0
  9 10  1  6  0  0  0
  9 11  1  0  0  0  0
 11 12  1  1  0  0  0
 11 13  1  0  0  0  0
 14 15  1  6  0  0  0
 14 16  1  0  0  0  0
 14 22  1  0  0  0  0
 16 17  1  0  0  0  0
 17 18  1  6  0  0  0
 17 19  1  0  0  0  0
 19  2  1  1  0  0  0
 19 20  1  0  0  0  0
 20 21  1  6  0  0  0
 20 22  1  0  0  0  0
 22 23  1  1  0  0  0
 24 23  1  6  0  0  0
 24 25  1  0  0  0  0
 24 34  1  0  0  0  0
 25 26  1  1  0  0  0
 25 27  1  0  0  0  0
 27 28  1  1  0  0  0
 27 30  1  0  0  0  0
 28 29  1  0  0  0  0
 30 31  1  1  0  0  0
 30 32  1  0  0  0  0
 30 33  1  0  0  0  0
 33 34  1  0  0  0  0
M  CHG  4   4   1  15   1  18   1  28   1
M  END
>  <CHROM.1>
-174.47051289,-162.41675342,-59.67159038,178.27790411,-63.50748996,178.18648268
60.34074984,53.98333716,66.59283484,174.23728136,98.47696238,178.93781212
-56.43954257,176.72649238,117.34723172,-7.25490696,7.32059318,22.14747573
-3.06167803,0.66203053,2.60127149

>  <Name>
1mwl

>  <RI>
0

>  <Rbt.Current_Directory>
/home/itssahil/PROJECTS/Mol_Feturizer/New_Systems/rnas/1mwl

>  <Rbt.Executable>
rbdock ($Id: //depot/dev/client3/rdock/2013.1/src/exe/rbdock.cxx#4 $)

>  <Rbt.Library>
libRbt.so (2013.1, Build901 2013/11/27)

>  <Rbt.Parameter_File>
/export/apps/rDock/src/rDock_2013.1_src/data/scripts/dock_solv.prm

>  <Rbt.Receptor>
prm/pocket_docking_6.prm

>  <SCORE>
-47.24

>  <SCORE.INTER>
-33.7223

>  <SCORE.INTER.CONST>
1

>  <SCORE.INTER.POLAR>
-4.88966

>  <SCORE.INTER.ROT>
6

>  <SCORE.INTER.SOLV>
21.1113

>  <SCORE.INTER.VDW>
-20.8198

>  <SCORE.INTER.norm>
-0.991831

>  <SCORE.INTRA>
-13.7212

>  <SCORE.INTRA.DIHEDRAL>
-27.5586

>  <SCORE.INTRA.DIHEDRAL.0>
42.0816

>  <SCORE.INTRA.POLAR>
0.242129

>  <SCORE.INTRA.POLAR.0>
-0.254682

>  <SCORE.INTRA.REPUL>
0

>  <SCORE.INTRA.REPUL.0>
0

>  <SCORE.INTRA.SOLV>
-3.85351

>  <SCORE.INTRA.SOLV.lig_0>
-109.803

>  <SCORE.INTRA.VDW>
1.16159

>  <SCORE.INTRA.VDW.0>
0.32176

>  <SCORE.INTRA.norm>
-0.403565

>  <SCORE.RESTR>
0.203466

>  <SCORE.RESTR.CAVITY>
0.203466

>  <SCORE.RESTR.norm>
0.00598428

>  <SCORE.SYSTEM>
0

>  <SCORE.SYSTEM.CONST>
0

>  <SCORE.SYSTEM.DIHEDRAL>
0

>  <SCORE.SYSTEM.SOLV>
0

>  <SCORE.SYSTEM.norm>
0

>  <SCORE.heavy>
34

>  <SCORE.norm>
-1.38941

>  <RMSD>
9.926

$$$$
1mwl
 OpenBabel11021811403D
libRbt.so/2013.1/901 2013/11/27
 34 36  0  0  0  0  0  0  0  0999 V2000
  -10.3476    6.4201   20.3581 C   0  0  2  0  0  0  0  0  0  0  0  0
   -9.8102    6.5472   21.6401 O   0  0  0  0  0  0  0  0  0  0  0  0
  -11.3015    7.6265   20.1315 C   0  0  2  0  0  0  0  0  0  0  0  0
  -10.5656    8.8865   20.2746 N   0  3  0  0  0  0  0  0  0  0  0  0
  -12.5121    7.5597   21.1081 C   0  0  1  0  0  0  0  0  0  0  0  0
  -13.3625    8.5956   20.8991 O   0  0  0  0  0  0  0  0  0  0  0  0
  -13.2420    6.1910   20.9050 C   0  0  2  0  0  0  0  0  0  0  0  0
  -14.3783    6.0987   21.7897 O   0  0  0  0  0  0  0  0  0  0  0  0
  -12.2154    5.0395   21.1771 C   0  0  2  0  0  0  0  0  0  0  0  0
  -11.0567    5.1582   20.2647 O   0  0  0  0  0  0  0  0  0  0  0  0
  -12.7774    3.6250   20.9949 C   0  0  2  0  0  0  0  0  0  0  0  0
  -11.7982    2.6882   21.3063 O   0  0  0  0  0  0  0  0  0  0  0  0
  -13.2234    3.3196   19.5534 C   0  0  0  0  0  0  0  0  0  0  0  0
   -6.3100    5.8966   24.0033 C   0  0  2  0  0  0  0  0  0  0  0  0
   -4.9434    5.4738   24.4023 N   0  3  0  0  0  0  0  0  0  0  0  0
   -7.1765    4.6624   23.6136 C   0  0  0  0  0  0  0  0  0  0  0  0
   -8.6142    5.1220   23.1756 C   0  0  2  0  0  0  0  0  0  0  0  0
   -9.4314    3.9063   22.8136 N   0  3  0  0  0  0  0  0  0  0  0  0
   -8.4955    6.1198   21.9728 C   0  0  2  0  0  0  0  0  0  0  0  0
   -7.6373    7.3378   22.3938 C   0  0  2  0  0  0  0  0  0  0  0  0
   -7.5094    8.2094   21.2965 O   0  0  0  0  0  0  0  0  0  0  0  0
   -6.2168    6.8687   22.8080 C   0  0  1  0  0  0  0  0  0  0  0  0
   -5.4475    8.0005   23.1871 O   0  0  0  0  0  0  0  0  0  0  0  0
   -6.0730    9.0275   23.9060 C   0  0  2  0  0  0  0  0  0  0  0  0
   -5.1047   10.2251   23.9379 C   0  0  2  0  0  0  0  0  0  0  0  0
   -4.8604   10.6544   22.6155 O   0  0  0  0  0  0  0  0  0  0  0  0
   -3.7721    9.7888   24.6370 C   0  0  1  0  0  0  0  0  0  0  0  0
   -2.7705   10.8819   24.6820 N   0  3  0  0  0  0  0  0  0  0  0  0
   -3.3608   12.1140   25.2647 C   0  0  0  0  0  0  0  0  0  0  0  0
   -4.0908    9.2951   26.0902 C   0  0  2  0  0  0  0  0  0  0  0  0
   -4.6964   10.3596   26.8474 O   0  0  0  0  0  0  0  0  0  0  0  0
   -2.8946    8.8789   26.7996 C   0  0  0  0  0  0  0  0  0  0  0  0
   -5.1402    8.1419   26.0456 C   0  0  0  0  0  0  0  0  0  0  0  0
   -6.3554    8.5653   25.2757 O   0  0  0  0  0  0  0  0  0  0  0  0
  1  2  1  1  0  0  0
  1  3  1  0  0  0  0
  1 10  1  0  0  0  0
  3  4  1  1  0  0  0
  3  5  1  0  0  0  0
  5  6  1  6  0  0  0
  5  7  1  0  0  0  0
  7  8  1  1  0  0  0
  7  9  1  0  0  0  0
  9 10  1  6  0  0  0
  9 11  1  0  0  0  0
 11 12  1  6  0  0  0
 11 13  1  0  0  0  0
 14 15  1  6  0  0  0
 14 16  1  0  0  0  0
 14 22  1  0  0  0  0
 16 17  1  0  0  0  0
 17 18  1  6  0  0  0
 17 19  1  0  0  0  0
 19  2  1  1  0  0  0
 19 20  1  0  0  0  0
 20 21  1  6  0  0  0
 20 22  1  0  0  0  0
 22 23  1  1  0  0  0
 24 23  1  6  0  0  0
 24 25  1  0  0  0  0
 24 34  1  0  0  0  0
 25 26  1  6  0  0  0
 25 27  1  0  0  0  0
 27 28  1  1  0  0  0
 27 30  1  0  0  0  0
 28 29  1  0  0  0  0
 30 31  1  1  0  0  0
 30 32  1  0  0  0  0
 30 33  1  0  0  0  0
 33 34  1  0  0  0  0
M  CHG  4   4   1  15   1  18   1  28   1
M  END
>  <CHROM.1>
-147.03803726,-124.56286096,-171.76252441,60.69659878,60.63328809,-177.93076302
167.47529979,144.87277184,84.59385317,127.73255306,-81.69011792,-169.04056276
60.95650625,172.17330802,162.99933843,-8.17584106,7.28822264,22.82119592
2.77816890,0.53425153,3.00042892

>  <Name>
1mwl

>  <RI>
0

>  <Rbt.Current_Directory>
/home/itssahil/PROJECTS/Mol_Feturizer/New_Systems/rnas/1mwl

>  <Rbt.Executable>
rbdock ($Id: //depot/dev/client3/rdock/2013.1/src/exe/rbdock.cxx#4 $)

>  <Rbt.Library>
libRbt.so (2013.1, Build901 2013/11/27)

>  <Rbt.Parameter_File>
/export/apps/rDock/src/rDock_2013.1_src/data/scripts/dock_solv.prm

>  <Rbt.Receptor>
prm/pocket_docking_7.prm

>  <SCORE>
-46.8545

>  <SCORE.INTER>
-41.4079

>  <SCORE.INTER.CONST>
1

>  <SCORE.INTER.POLAR>
-5.90799

>  <SCORE.INTER.ROT>
6

>  <SCORE.INTER.SOLV>
19.6247

>  <SCORE.INTER.VDW>
-22.0535

>  <SCORE.INTER.norm>
-1.21788

>  <SCORE.INTRA>
-5.44666

>  <SCORE.INTRA.DIHEDRAL>
-15.3474

>  <SCORE.INTRA.DIHEDRAL.0>
42.0816

>  <SCORE.INTRA.POLAR>
-0.108845

>  <SCORE.INTRA.POLAR.0>
-0.254682

>  <SCORE.INTRA.REPUL>
0

>  <SCORE.INTRA.REPUL.0>
0

>  <SCORE.INTRA.SOLV>
1.96772

>  <SCORE.INTRA.SOLV.lig_0>
-109.803

>  <SCORE.INTRA.VDW>
1.61326

>  <SCORE.INTRA.VDW.0>
0.32176

>  <SCORE.INTRA.norm>
-0.160196

>  <SCORE.RESTR>
0

>  <SCORE.RESTR.CAVITY>
0

>  <SCORE.RESTR.norm>
0

>  <SCORE.SYSTEM>
0

>  <SCORE.SYSTEM.CONST>
0

>  <SCORE.SYSTEM.DIHEDRAL>
0

>  <SCORE.SYSTEM.SOLV>
0

>  <SCORE.SYSTEM.norm>
0

>  <SCORE.heavy>
34

>  <SCORE.norm>
-1.37807

>  <RMSD>
9.968

$$$$
1mwl
 OpenBabel11021811403D
libRbt.so/2013.1/901 2013/11/27
 34 36  0  0  0  0  0  0  0  0999 V2000
   -9.6783    7.0076   20.2177 C   0  0  2  0  0  0  0  0  0  0  0  0
   -9.5098    6.3581   21.4418 O   0  0  0  0  0  0  0  0  0  0  0  0
  -11.1610    7.4677   20.1352 C   0  0  2  0  0  0  0  0  0  0  0  0
  -11.4765    8.3594   21.2554 N   0  3  0  0  0  0  0  0  0  0  0  0
  -12.1157    6.2385   20.0989 C   0  0  1  0  0  0  0  0  0  0  0  0
  -13.4103    6.6318   20.0011 O   0  0  0  0  0  0  0  0  0  0  0  0
  -11.7165    5.3323   18.8878 C   0  0  2  0  0  0  0  0  0  0  0  0
  -12.5894    4.1853   18.8176 O   0  0  0  0  0  0  0  0  0  0  0  0
  -10.2221    4.8985   19.0681 C   0  0  2  0  0  0  0  0  0  0  0  0
   -9.3473    6.0893   19.1448 O   0  0  0  0  0  0  0  0  0  0  0  0
   -9.6711    4.0180   17.9407 C   0  0  2  0  0  0  0  0  0  0  0  0
   -9.4396    2.7336   18.4201 O   0  0  0  0  0  0  0  0  0  0  0  0
   -8.3295    4.5138   17.3708 C   0  0  0  0  0  0  0  0  0  0  0  0
   -6.3134    5.5996   24.1744 C   0  0  2  0  0  0  0  0  0  0  0  0
   -5.0045    5.1529   24.7155 N   0  3  0  0  0  0  0  0  0  0  0  0
   -7.1323    4.3862   23.6422 C   0  0  0  0  0  0  0  0  0  0  0  0
   -8.5071    4.8715   23.0553 C   0  0  2  0  0  0  0  0  0  0  0  0
   -9.2802    3.6752   22.5572 N   0  3  0  0  0  0  0  0  0  0  0  0
   -8.2447    5.9097   21.9109 C   0  0  2  0  0  0  0  0  0  0  0  0
   -7.4378    7.1058   22.4725 C   0  0  2  0  0  0  0  0  0  0  0  0
   -7.1792    8.0141   21.4294 O   0  0  0  0  0  0  0  0  0  0  0  0
   -6.0773    6.6120   23.0334 C   0  0  1  0  0  0  0  0  0  0  0  0
   -5.3542    7.7241   23.5400 O   0  0  0  0  0  0  0  0  0  0  0  0
   -4.3799    8.3184   22.7274 C   0  0  2  0  0  0  0  0  0  0  0  0
   -3.0717    8.3726   23.5390 C   0  0  2  0  0  0  0  0  0  0  0  0
   -2.6776    7.0568   23.8645 O   0  0  0  0  0  0  0  0  0  0  0  0
   -3.3071    9.2204   24.8355 C   0  0  1  0  0  0  0  0  0  0  0  0
   -2.0978    9.2968   25.6909 N   0  3  0  0  0  0  0  0  0  0  0  0
   -2.4019    8.8507   27.0746 C   0  0  0  0  0  0  0  0  0  0  0  0
   -3.7682   10.6628   24.4307 C   0  0  2  0  0  0  0  0  0  0  0  0
   -2.7525   11.2949   23.6293 O   0  0  0  0  0  0  0  0  0  0  0  0
   -4.0000   11.5066   25.5890 C   0  0  0  0  0  0  0  0  0  0  0  0
   -5.0429   10.5857   23.5351 C   0  0  0  0  0  0  0  0  0  0  0  0
   -4.8091    9.6795   22.3633 O   0  0  0  0  0  0  0  0  0  0  0  0
  1  2  1  1  0  0  0
  1  3  1  0  0  0  0
  1 10  1  0  0  0  0
  3  4  1  1  0  0  0
  3  5  1  0  0  0  0
  5  6  1  6  0  0  0
  5  7  1  0  0  0  0
  7  8  1  1  0  0  0
  7  9  1  0  0  0  0
  9 10  1  6  0  0  0
  9 11  1  0  0  0  0
 11 12  1  1  0  0  0
 11 13  1  0  0  0  0
 14 15  1  6  0  0  0
 14 16  1  0  0  0  0
 14 22  1  0  0  0  0
 16 17  1  0  0  0  0
 17 18  1  6  0  0  0
 17 19  1  0  0  0  0
 19  2  1  1  0  0  0
 19 20  1  0  0  0  0
 20 21  1  6  0  0  0
 20 22  1  0  0  0  0
 22 23  1  1  0  0  0
 24 23  1  1  0  0  0
 24 25  1  0  0  0  0
 24 34  1  0  0  0  0
 25 26  1  1  0  0  0
 25 27  1  0  0  0  0
 27 28  1  6  0  0  0
 27 30  1  0  0  0  0
 28 29  1  0  0  0  0
 30 31  1  6  0  0  0
 30 32  1  0  0  0  0
 30 33  1  0  0  0  0
 33 34  1  0  0  0  0
M  CHG  4   4   1  15   1  18   1  28   1
M  END
>  <CHROM.1>
-174.13831230,-162.80750984,-65.76379661,-179.62229892,100.35692614,-111.50954424
-64.75856126,34.95733846,61.19138726,-170.10487261,142.32021691,-127.03221260
-176.41151093,-5.63632173,58.17484873,-7.28305819,6.97957579,22.07364308
2.67099026,0.56470123,-3.04694461

>  <Name>
1mwl

>  <RI>
0

>  <Rbt.Current_Directory>
/home/itssahil/PROJECTS/Mol_Feturizer/New_Systems/rnas/1mwl

>  <Rbt.Executable>
rbdock ($Id: //depot/dev/client3/rdock/2013.1/src/exe/rbdock.cxx#4 $)

>  <Rbt.Library>
libRbt.so (2013.1, Build901 2013/11/27)

>  <Rbt.Parameter_File>
/export/apps/rDock/src/rDock_2013.1_src/data/scripts/dock_solv.prm

>  <Rbt.Receptor>
prm/pocket_docking_7.prm

>  <SCORE>
-48.0624

>  <SCORE.INTER>
-35.3271

>  <SCORE.INTER.CONST>
1

>  <SCORE.INTER.POLAR>
-4.61723

>  <SCORE.INTER.ROT>
6

>  <SCORE.INTER.SOLV>
18.8352

>  <SCORE.INTER.VDW>
-22.039

>  <SCORE.INTER.norm>
-1.03903

>  <SCORE.INTRA>
-12.7354

>  <SCORE.INTRA.DIHEDRAL>
-12.3691

>  <SCORE.INTRA.DIHEDRAL.0>
42.0816

>  <SCORE.INTRA.POLAR>
-1.53977

>  <SCORE.INTRA.POLAR.0>
-0.254682

>  <SCORE.INTRA.REPUL>
0

>  <SCORE.INTRA.REPUL.0>
0

>  <SCORE.INTRA.SOLV>
-1.46946

>  <SCORE.INTRA.SOLV.lig_0>
-109.803

>  <SCORE.INTRA.VDW>
-0.580883

>  <SCORE.INTRA.VDW.0>
0.32176

>  <SCORE.INTRA.norm>
-0.37457

>  <SCORE.RESTR>
0

>  <SCORE.RESTR.CAVITY>
0

>  <SCORE.RESTR.norm>
0

>  <SCORE.SYSTEM>
0

>  <SCORE.SYSTEM.CONST>
0

>  <SCORE.SYSTEM.DIHEDRAL>
0

>  <SCORE.SYSTEM.SOLV>
0

>  <SCORE.SYSTEM.norm>
0

>  <SCORE.heavy>
34

>  <SCORE.norm>
-1.4136

>  <RMSD>
9.969

$$$$
1mwl
 OpenBabel11021811403D
libRbt.so/2013.1/901 2013/11/27
 34 36  0  0  0  0  0  0  0  0999 V2000
   -9.4156    7.6547   20.1592 C   0  0  2  0  0  0  0  0  0  0  0  0
   -9.5558    6.6138   21.0788 O   0  0  0  0  0  0  0  0  0  0  0  0
  -10.7086    8.5151   20.2294 C   0  0  2  0  0  0  0  0  0  0  0  0
  -10.8990    9.0313   21.5883 N   0  3  0  0  0  0  0  0  0  0  0  0
  -11.9417    7.6919   19.7545 C   0  0  1  0  0  0  0  0  0  0  0  0
  -13.0701    8.4441   19.7886 O   0  0  0  0  0  0  0  0  0  0  0  0
  -11.6650    7.1694   18.3061 C   0  0  2  0  0  0  0  0  0  0  0  0
  -12.7945    6.4084   17.8291 O   0  0  0  0  0  0  0  0  0  0  0  0
  -10.3644    6.2967   18.3368 C   0  0  2  0  0  0  0  0  0  0  0  0
   -9.2223    7.0944   18.8353 O   0  0  0  0  0  0  0  0  0  0  0  0
   -9.9444    5.7264   16.9773 C   0  0  2  0  0  0  0  0  0  0  0  0
  -10.9221    4.8535   16.5133 O   0  0  0  0  0  0  0  0  0  0  0  0
   -8.6339    4.9198   17.0253 C   0  0  0  0  0  0  0  0  0  0  0  0
   -6.9272    5.2809   24.1728 C   0  0  2  0  0  0  0  0  0  0  0  0
   -5.7851    4.6261   24.8600 N   0  3  0  0  0  0  0  0  0  0  0  0
   -7.8179    4.2235   23.4555 C   0  0  0  0  0  0  0  0  0  0  0  0
   -9.0127    4.9280   22.7165 C   0  0  2  0  0  0  0  0  0  0  0  0
   -9.8611    3.8794   22.0403 N   0  3  0  0  0  0  0  0  0  0  0  0
   -8.4463    5.9668   21.6886 C   0  0  2  0  0  0  0  0  0  0  0  0
   -7.5739    7.0076   22.4322 C   0  0  2  0  0  0  0  0  0  0  0  0
   -7.0438    7.9140   21.4955 O   0  0  0  0  0  0  0  0  0  0  0  0
   -6.3906    6.2978   23.1430 C   0  0  1  0  0  0  0  0  0  0  0  0
   -5.6038    7.2702   23.8153 O   0  0  0  0  0  0  0  0  0  0  0  0
   -4.2467    7.0008   24.0354 C   0  0  2  0  0  0  0  0  0  0  0  0
   -3.8518    7.6732   25.3639 C   0  0  2  0  0  0  0  0  0  0  0  0
   -4.6202    7.1149   26.4082 O   0  0  0  0  0  0  0  0  0  0  0  0
   -4.1014    9.2160   25.2520 C   0  0  1  0  0  0  0  0  0  0  0  0
   -3.7723    9.9365   26.5061 N   0  3  0  0  0  0  0  0  0  0  0  0
   -4.7047   11.0725   26.7214 C   0  0  0  0  0  0  0  0  0  0  0  0
   -3.2521    9.7903   24.0664 C   0  0  2  0  0  0  0  0  0  0  0  0
   -1.8523    9.5532   24.3066 O   0  0  0  0  0  0  0  0  0  0  0  0
   -3.4329   11.2220   23.9091 C   0  0  0  0  0  0  0  0  0  0  0  0
   -3.5999    9.0377   22.7451 C   0  0  0  0  0  0  0  0  0  0  0  0
   -3.4508    7.5567   22.9278 O   0  0  0  0  0  0  0  0  0  0  0  0
  1  2  1  1  0  0  0
  1  3  1  0  0  0  0
  1 10  1  0  0  0  0
  3  4  1  1  0  0  0
  3  5  1  0  0  0  0
  5  6  1  6  0  0  0
  5  7  1  0  0  0  0
  7  8  1  1  0  0  0
  7  9  1  0  0  0  0
  9 10  1  6  0  0  0
  9 11  1  0  0  0  0
 11 12  1  1  0  0  0
 11 13  1  0  0  0  0
 14 15  1  6  0  0  0
 14 16  1  0  0  0  0
 14 22  1  0  0  0  0
 16 17  1  0  0  0  0
 17 18  1  6  0  0  0
 17 19  1  0  0  0  0
 19  2  1  1  0  0  0
 19 20  1  0  0  0  0
 20 21  1  6  0  0  0
 20 22  1  0  0  0  0
 22 23  1  1  0  0  0
 24 23  1  6  0  0  0
 24 25  1  0  0  0  0
 24 34  1  0  0  0  0
 25 26  1  1  0  0  0
 25 27  1  0  0  0  0
 27 28  1  1  0  0  0
 27 30  1  0  0  0  0
 28 29  1  0  0  0  0
 30 31  1  1  0  0  0
 30 32  1  0  0  0  0
 30 33  1  0  0  0  0
 33 34  1  0  0  0  0
M  CHG  4   4   1  15   1  18   1  28   1
M  END
>  <CHROM.1>
-153.82721526,176.44852770,-50.68036047,176.88060640,67.50028805,-63.54438341
172.54669634,65.40672993,-175.75728652,179.87648553,86.40899524,-147.42177054
-74.47376390,-24.92939239,178.25174113,-7.50474823,7.26322342,22.01326578
3.00369338,0.74006266,2.99008018

>  <Name>
1mwl

>  <RI>
0

>  <Rbt.Current_Directory>
/home/itssahil/PROJECTS/Mol_Feturizer/New_Systems/rnas/1mwl

>  <Rbt.Executable>
rbdock ($Id: //depot/dev/client3/rdock/2013.1/src/exe/rbdock.cxx#4 $)

>  <Rbt.Library>
libRbt.so (2013.1, Build901 2013/11/27)

>  <Rbt.Parameter_File>
/export/apps/rDock/src/rDock_2013.1_src/data/scripts/dock_solv.prm

>  <Rbt.Receptor>
prm/pocket_docking_6.prm

>  <SCORE>
-53.3733

>  <SCORE.INTER>
-36.351

>  <SCORE.INTER.CONST>
1

>  <SCORE.INTER.POLAR>
-4.76249

>  <SCORE.INTER.ROT>
6

>  <SCORE.INTER.SOLV>
19.1689

>  <SCORE.INTER.VDW>
-22.3487

>  <SCORE.INTER.norm>
-1.06915

>  <SCORE.INTRA>
-17.0223

>  <SCORE.INTRA.DIHEDRAL>
-27.8297

>  <SCORE.INTRA.DIHEDRAL.0>
42.0816

>  <SCORE.INTRA.POLAR>
-0.292119

>  <SCORE.INTRA.POLAR.0>
-0.254682

>  <SCORE.INTRA.REPUL>
0

>  <SCORE.INTRA.REPUL.0>
0

>  <SCORE.INTRA.SOLV>
-1.49909

>  <SCORE.INTRA.SOLV.lig_0>
-109.803

>  <SCORE.INTRA.VDW>
-1.36468

>  <SCORE.INTRA.VDW.0>
0.32176

>  <SCORE.INTRA.norm>
-0.500656

>  <SCORE.RESTR>
0

>  <SCORE.RESTR.CAVITY>
0

>  <SCORE.RESTR.norm>
0

>  <SCORE.SYSTEM>
0

>  <SCORE.SYSTEM.CONST>
0

>  <SCORE.SYSTEM.DIHEDRAL>
0

>  <SCORE.SYSTEM.SOLV>
0

>  <SCORE.SYSTEM.norm>
0

>  <SCORE.heavy>
34

>  <SCORE.norm>
-1.5698

>  <RMSD>
9.994

$$$$
1mwl
 OpenBabel11021811403D
libRbt.so/2013.1/901 2013/11/27
 34 36  0  0  0  0  0  0  0  0999 V2000
   -9.3853    7.8540   20.4847 C   0  0  2  0  0  0  0  0  0  0  0  0
   -9.5707    6.8836   21.4709 O   0  0  0  0  0  0  0  0  0  0  0  0
  -10.6947    8.6879   20.4004 C   0  0  2  0  0  0  0  0  0  0  0  0
  -10.9872    9.3021   21.6992 N   0  3  0  0  0  0  0  0  0  0  0  0
  -11.8778    7.8034   19.9090 C   0  0  1  0  0  0  0  0  0  0  0  0
  -13.0186    8.5304   19.8084 O   0  0  0  0  0  0  0  0  0  0  0  0
  -11.4930    7.1780   18.5276 C   0  0  2  0  0  0  0  0  0  0  0  0
  -12.5736    6.3576   18.0363 O   0  0  0  0  0  0  0  0  0  0  0  0
  -10.1828    6.3397   18.7137 C   0  0  2  0  0  0  0  0  0  0  0  0
   -9.0916    7.1987   19.2245 O   0  0  0  0  0  0  0  0  0  0  0  0
   -9.6603    5.6767   17.4341 C   0  0  2  0  0  0  0  0  0  0  0  0
  -10.5789    4.7339   16.9864 O   0  0  0  0  0  0  0  0  0  0  0  0
   -8.3307    4.9251   17.6278 C   0  0  0  0  0  0  0  0  0  0  0  0
   -6.7274    5.2632   24.2186 C   0  0  2  0  0  0  0  0  0  0  0  0
   -5.6275    4.4362   24.7766 N   0  3  0  0  0  0  0  0  0  0  0  0
   -7.9226    4.3662   23.7795 C   0  0  0  0  0  0  0  0  0  0  0  0
   -9.0732    5.2489   23.1736 C   0  0  2  0  0  0  0  0  0  0  0  0
  -10.2184    4.3546   22.7669 N   0  3  0  0  0  0  0  0  0  0  0  0
   -8.5149    6.0651   21.9577 C   0  0  2  0  0  0  0  0  0  0  0  0
   -7.3358    6.9518   22.4275 C   0  0  2  0  0  0  0  0  0  0  0  0
   -6.8213    7.6535   21.3216 O   0  0  0  0  0  0  0  0  0  0  0  0
   -6.2024    6.0643   23.0081 C   0  0  1  0  0  0  0  0  0  0  0  0
   -5.1321    6.8969   23.4296 O   0  0  0  0  0  0  0  0  0  0  0  0
   -5.3299    7.7387   24.5318 C   0  0  2  0  0  0  0  0  0  0  0  0
   -4.6463    9.0824   24.2155 C   0  0  2  0  0  0  0  0  0  0  0  0
   -5.2519    9.6488   23.0731 O   0  0  0  0  0  0  0  0  0  0  0  0
   -3.1184    8.8357   23.9714 C   0  0  1  0  0  0  0  0  0  0  0  0
   -2.3897   10.0817   23.6300 N   0  3  0  0  0  0  0  0  0  0  0  0
   -2.5696   10.4211   22.1953 C   0  0  0  0  0  0  0  0  0  0  0  0
   -2.4914    8.1827   25.2511 C   0  0  2  0  0  0  0  0  0  0  0  0
   -2.6549    9.0619   26.3797 O   0  0  0  0  0  0  0  0  0  0  0  0
   -1.0704    7.9309   25.0947 C   0  0  0  0  0  0  0  0  0  0  0  0
   -3.2527    6.8693   25.6096 C   0  0  0  0  0  0  0  0  0  0  0  0
   -4.7247    7.1296   25.7286 O   0  0  0  0  0  0  0  0  0  0  0  0
  1  2  1  1  0  0  0
  1  3  1  0  0  0  0
  1 10  1  0  0  0  0
  3  4  1  1  0  0  0
  3  5  1  0  0  0  0
  5  6  1  6  0  0  0
  5  7  1  0  0  0  0
  7  8  1  1  0  0  0
  7  9  1  0  0  0  0
  9 10  1  6  0  0  0
  9 11  1  0  0  0  0
 11 12  1  1  0  0  0
 11 13  1  0  0  0  0
 14 15  1  6  0  0  0
 14 16  1  0  0  0  0
 14 22  1  0  0  0  0
 16 17  1  0  0  0  0
 17 18  1  6  0  0  0
 17 19  1  0  0  0  0
 19  2  1  1  0  0  0
 19 20  1  0  0  0  0
 20 21  1  6  0  0  0
 20 22  1  0  0  0  0
 22 23  1  1  0  0  0
 24 23  1  6  0  0  0
 24 25  1  0  0  0  0
 24 34  1  0  0  0  0
 25 26  1  6  0  0  0
 25 27  1  0  0  0  0
 27 28  1  1  0  0  0
 27 30  1  0  0  0  0
 28 29  1  0  0  0  0
 30 31  1  1  0  0  0
 30 32  1  0  0  0  0
 30 33  1  0  0  0  0
 33 34  1  0  0  0  0
M  CHG  4   4   1  15   1  18   1  28   1
M  END
>  <CHROM.1>
-170.54355531,172.61969439,-171.24613720,-70.21668670,66.10412938,-64.48799759
51.94362179,66.70646901,56.85790230,173.14207121,-52.00575423,-139.98674134
75.35379806,39.28600204,-179.04433757,-7.33659115,7.18219945,22.07799522
-2.97503742,0.62953318,2.59009659

>  <Name>
1mwl

>  <RI>
0

>  <Rbt.Current_Directory>
/home/itssahil/PROJECTS/Mol_Feturizer/New_Systems/rnas/1mwl

>  <Rbt.Executable>
rbdock ($Id: //depot/dev/client3/rdock/2013.1/src/exe/rbdock.cxx#4 $)

>  <Rbt.Library>
libRbt.so (2013.1, Build901 2013/11/27)

>  <Rbt.Parameter_File>
/export/apps/rDock/src/rDock_2013.1_src/data/scripts/dock_solv.prm

>  <Rbt.Receptor>
prm/pocket_docking_7.prm

>  <SCORE>
-63.6117

>  <SCORE.INTER>
-40.0224

>  <SCORE.INTER.CONST>
1

>  <SCORE.INTER.POLAR>
-5.02894

>  <SCORE.INTER.ROT>
6

>  <SCORE.INTER.SOLV>
21.4071

>  <SCORE.INTER.VDW>
-24.6542

>  <SCORE.INTER.norm>
-1.17713

>  <SCORE.INTRA>
-23.5893

>  <SCORE.INTRA.DIHEDRAL>
-31.8911

>  <SCORE.INTRA.DIHEDRAL.0>
42.0816

>  <SCORE.INTRA.POLAR>
-1.70658

>  <SCORE.INTRA.POLAR.0>
-0.254682

>  <SCORE.INTRA.REPUL>
0

>  <SCORE.INTRA.REPUL.0>
0

>  <SCORE.INTRA.SOLV>
-1.84626

>  <SCORE.INTRA.SOLV.lig_0>
-109.803

>  <SCORE.INTRA.VDW>
-0.918216

>  <SCORE.INTRA.VDW.0>
0.32176

>  <SCORE.INTRA.norm>
-0.693803

>  <SCORE.RESTR>
0

>  <SCORE.RESTR.CAVITY>
0

>  <SCORE.RESTR.norm>
0

>  <SCORE.SYSTEM>
0

>  <SCORE.SYSTEM.CONST>
0

>  <SCORE.SYSTEM.DIHEDRAL>
0

>  <SCORE.SYSTEM.SOLV>
0

>  <SCORE.SYSTEM.norm>
0

>  <SCORE.heavy>
34

>  <SCORE.norm>
-1.87093

>  <RMSD>
9.997

$$$$
1mwl
 OpenBabel11021811403D
libRbt.so/2013.1/901 2013/11/27
 34 36  0  0  0  0  0  0  0  0999 V2000
   -9.7424    7.7149   20.2861 C   0  0  2  0  0  0  0  0  0  0  0  0
   -9.8316    6.7591   21.2996 O   0  0  0  0  0  0  0  0  0  0  0  0
  -10.8519    8.7727   20.5449 C   0  0  2  0  0  0  0  0  0  0  0  0
  -10.6701    9.3829   21.8656 N   0  3  0  0  0  0  0  0  0  0  0  0
  -12.2639    8.1328   20.4024 C   0  0  1  0  0  0  0  0  0  0  0  0
  -13.2378    9.0559   20.6017 O   0  0  0  0  0  0  0  0  0  0  0  0
  -12.3825    7.4979   18.9775 C   0  0  2  0  0  0  0  0  0  0  0  0
  -13.6858    6.9026   18.8066 O   0  0  0  0  0  0  0  0  0  0  0  0
  -11.2458    6.4320   18.8166 C   0  0  2  0  0  0  0  0  0  0  0  0
   -9.9203    7.0625   19.0029 O   0  0  0  0  0  0  0  0  0  0  0  0
  -11.2137    5.7318   17.4533 C   0  0  2  0  0  0  0  0  0  0  0  0
  -12.3590    4.9591   17.2966 O   0  0  0  0  0  0  0  0  0  0  0  0
  -10.0206    4.7744   17.2797 C   0  0  0  0  0  0  0  0  0  0  0  0
   -6.9767    5.2659   24.1066 C   0  0  2  0  0  0  0  0  0  0  0  0
   -5.8086    4.5444   24.6727 N   0  3  0  0  0  0  0  0  0  0  0  0
   -7.9956    4.2638   23.4872 C   0  0  0  0  0  0  0  0  0  0  0  0
   -9.2185    5.0382   22.8749 C   0  0  2  0  0  0  0  0  0  0  0  0
  -10.1907    4.0423   22.2920 N   0  3  0  0  0  0  0  0  0  0  0  0
   -8.7035    6.0475   21.7922 C   0  0  2  0  0  0  0  0  0  0  0  0
   -7.7010    7.0339   22.4397 C   0  0  2  0  0  0  0  0  0  0  0  0
   -7.2200    7.9129   21.4516 O   0  0  0  0  0  0  0  0  0  0  0  0
   -6.4927    6.2551   23.0251 C   0  0  1  0  0  0  0  0  0  0  0  0
   -5.5864    7.1784   23.6106 O   0  0  0  0  0  0  0  0  0  0  0  0
   -4.4088    7.4934   22.9202 C   0  0  2  0  0  0  0  0  0  0  0  0
   -3.2532    7.4589   23.9382 C   0  0  2  0  0  0  0  0  0  0  0  0
   -3.1525    6.1575   24.4757 O   0  0  0  0  0  0  0  0  0  0  0  0
   -3.5331    8.5080   25.0678 C   0  0  1  0  0  0  0  0  0  0  0  0
   -2.4764    8.5168   26.1087 N   0  3  0  0  0  0  0  0  0  0  0  0
   -2.8157    7.5822   27.2120 C   0  0  0  0  0  0  0  0  0  0  0  0
   -3.6643    9.9323   24.4266 C   0  0  2  0  0  0  0  0  0  0  0  0
   -2.4415   10.2795   23.7501 O   0  0  0  0  0  0  0  0  0  0  0  0
   -3.9201   10.9574   25.4221 C   0  0  0  0  0  0  0  0  0  0  0  0
   -4.7785    9.9273   23.3350 C   0  0  0  0  0  0  0  0  0  0  0  0
   -4.5297    8.8390   22.3336 O   0  0  0  0  0  0  0  0  0  0  0  0
  1  2  1  1  0  0  0
  1  3  1  0  0  0  0
  1 10  1  0  0  0  0
  3  4  1  1  0  0  0
  3  5  1  0  0  0  0
  5  6  1  6  0  0  0
  5  7  1  0  0  0  0
  7  8  1  1  0  0  0
  7  9  1  0  0  0  0
  9 10  1  6  0  0  0
  9 11  1  0  0  0  0
 11 12  1  1  0  0  0
 11 13  1  0  0  0  0
 14 15  1  6  0  0  0
 14 16  1  0  0  0  0
 14 22  1  0  0  0  0
 16 17  1  0  0  0  0
 17 18  1  6  0  0  0
 17 19  1  0  0  0  0
 19  2  1  1  0  0  0
 19 20  1  0  0  0  0
 20 21  1  6  0  0  0
 20 22  1  0  0  0  0
 22 23  1  1  0  0  0
 24 23  1  1  0  0  0
 24 25  1  0  0  0  0
 24 34  1  0  0  0  0
 25 26  1  1  0  0  0
 25 27  1  0  0  0  0
 27 28  1  1  0  0  0
 27 30  1  0  0  0  0
 28 29  1  0  0  0  0
 30 31  1  6  0  0  0
 30 32  1  0  0  0  0
 30 33  1  0  0  0  0
 33 34  1  0  0  0  0
M  CHG  4   4   1  15   1  18   1  28   1
M  END
>  <CHROM.1>
-148.98279785,-177.89912475,-57.77776543,-70.10909608,60.03925978,-65.96504006
56.63401413,44.97500761,66.02896124,-174.90485984,135.94249497,-135.09090688
173.53157397,28.72369580,-59.18519762,-7.72466861,7.24848157,22.10417720
3.02599777,0.60726619,3.05650205

>  <Name>
1mwl

>  <RI>
0

>  <Rbt.Current_Directory>
/home/itssahil/PROJECTS/Mol_Feturizer/New_Systems/rnas/1mwl

>  <Rbt.Executable>
rbdock ($Id: //depot/dev/client3/rdock/2013.1/src/exe/rbdock.cxx#4 $)

>  <Rbt.Library>
libRbt.so (2013.1, Build901 2013/11/27)

>  <Rbt.Parameter_File>
/export/apps/rDock/src/rDock_2013.1_src/data/scripts/dock_solv.prm

>  <Rbt.Receptor>
prm/pocket_docking_6.prm

>  <SCORE>
-61.2169

>  <SCORE.INTER>
-40.1795

>  <SCORE.INTER.CONST>
1

>  <SCORE.INTER.POLAR>
-5.32354

>  <SCORE.INTER.ROT>
6

>  <SCORE.INTER.SOLV>
20.9628

>  <SCORE.INTER.VDW>
-23.6288

>  <SCORE.INTER.norm>
-1.18175

>  <SCORE.INTRA>
-21.0376

>  <SCORE.INTRA.DIHEDRAL>
-22.4705

>  <SCORE.INTRA.DIHEDRAL.0>
42.0816

>  <SCORE.INTRA.POLAR>
-1.99204

>  <SCORE.INTRA.POLAR.0>
-0.254682

>  <SCORE.INTRA.REPUL>
0

>  <SCORE.INTRA.REPUL.0>
0

>  <SCORE.INTRA.SOLV>
0.0760724

>  <SCORE.INTRA.SOLV.lig_0>
-109.803

>  <SCORE.INTRA.VDW>
-3.0674

>  <SCORE.INTRA.VDW.0>
0.32176

>  <SCORE.INTRA.norm>
-0.618752

>  <SCORE.RESTR>
0.000150611

>  <SCORE.RESTR.CAVITY>
0.000150611

>  <SCORE.RESTR.norm>
4.42973e-06

>  <SCORE.SYSTEM>
0

>  <SCORE.SYSTEM.CONST>
0

>  <SCORE.SYSTEM.DIHEDRAL>
0

>  <SCORE.SYSTEM.SOLV>
0

>  <SCORE.SYSTEM.norm>
0

>  <SCORE.heavy>
34

>  <SCORE.norm>
-1.8005

>  <RMSD>
10.053

$$$$
1mwl
 OpenBabel11021811403D
libRbt.so/2013.1/901 2013/11/27
 34 36  0  0  0  0  0  0  0  0999 V2000
   -9.2833    7.7742   20.5144 C   0  0  2  0  0  0  0  0  0  0  0  0
   -9.4001    6.8718   21.5730 O   0  0  0  0  0  0  0  0  0  0  0  0
  -10.6427    8.5171   20.3840 C   0  0  2  0  0  0  0  0  0  0  0  0
  -10.9627    9.2089   21.6364 N   0  3  0  0  0  0  0  0  0  0  0  0
  -11.7722    7.5267   19.9754 C   0  0  1  0  0  0  0  0  0  0  0  0
  -12.9569    8.1724   19.8346 O   0  0  0  0  0  0  0  0  0  0  0  0
  -11.3600    6.8232   18.6402 C   0  0  2  0  0  0  0  0  0  0  0  0
  -12.3912    5.9029   18.2256 O   0  0  0  0  0  0  0  0  0  0  0  0
   -9.9987    6.0837   18.8724 C   0  0  2  0  0  0  0  0  0  0  0  0
   -8.9592    7.0444   19.3035 O   0  0  0  0  0  0  0  0  0  0  0  0
   -9.4459    5.3589   17.6399 C   0  0  2  0  0  0  0  0  0  0  0  0
   -9.4910    6.2067   16.5387 O   0  0  0  0  0  0  0  0  0  0  0  0
  -10.2485    4.1039   17.2510 C   0  0  0  0  0  0  0  0  0  0  0  0
   -6.5011    5.3278   24.3064 C   0  0  2  0  0  0  0  0  0  0  0  0
   -5.3661    4.5424   24.8545 N   0  3  0  0  0  0  0  0  0  0  0  0
   -7.6478    4.3842   23.8368 C   0  0  0  0  0  0  0  0  0  0  0  0
   -8.8357    5.2239   23.2419 C   0  0  2  0  0  0  0  0  0  0  0  0
   -9.9330    4.2848   22.8052 N   0  3  0  0  0  0  0  0  0  0  0  0
   -8.3091    6.0944   22.0497 C   0  0  2  0  0  0  0  0  0  0  0  0
   -7.1781    7.0262   22.5495 C   0  0  2  0  0  0  0  0  0  0  0  0
   -6.6905    7.7777   21.4644 O   0  0  0  0  0  0  0  0  0  0  0  0
   -6.0070    6.1815   23.1190 C   0  0  1  0  0  0  0  0  0  0  0  0
   -4.9817    7.0551   23.5685 O   0  0  0  0  0  0  0  0  0  0  0  0
   -5.2164    7.8363   24.7074 C   0  0  2  0  0  0  0  0  0  0  0  0
   -4.6724    9.2484   24.4191 C   0  0  2  0  0  0  0  0  0  0  0  0
   -5.3694    9.7941   23.3195 O   0  0  0  0  0  0  0  0  0  0  0  0
   -3.1382    9.1550   24.1154 C   0  0  1  0  0  0  0  0  0  0  0  0
   -2.5413   10.4750   23.7969 N   0  3  0  0  0  0  0  0  0  0  0  0
   -2.5112   10.6995   22.3290 C   0  0  0  0  0  0  0  0  0  0  0  0
   -2.4069    8.5206   25.3482 C   0  0  2  0  0  0  0  0  0  0  0  0
   -2.6099    9.3414   26.5138 O   0  0  0  0  0  0  0  0  0  0  0  0
   -0.9753    8.4090   25.1354 C   0  0  0  0  0  0  0  0  0  0  0  0
   -3.0293    7.1299   25.6823 C   0  0  0  0  0  0  0  0  0  0  0  0
   -4.5139    7.2463   25.8597 O   0  0  0  0  0  0  0  0  0  0  0  0
  1  2  1  1  0  0  0
  1  3  1  0  0  0  0
  1 10  1  0  0  0  0
  3  4  1  1  0  0  0
  3  5  1  0  0  0  0
  5  6  1  6  0  0  0
  5  7  1  0  0  0  0
  7  8  1  1  0  0  0
  7  9  1  0  0  0  0
  9 10  1  6  0  0  0
  9 11  1  0  0  0  0
 11 12  1  6  0  0  0
 11 13  1  0  0  0  0
 14 15  1  6  0  0  0
 14 16  1  0  0  0  0
 14 22  1  0  0  0  0
 16 17  1  0  0  0  0
 17 18  1  6  0  0  0
 17 19  1  0  0  0  0
 19  2  1  1  0  0  0
 19 20  1  0  0  0  0
 20 21  1  6  0  0  0
 20 22  1  0  0  0  0
 22 23  1  1  0  0  0
 24 23  1  6  0  0  0
 24 25  1  0  0  0  0
 24 34  1  0  0  0  0
 25 26  1  6  0  0  0
 25 27  1  0  0  0  0
 27 28  1  1  0  0  0
 27 30  1  0  0  0  0
 28 29  1  0  0  0  0
 30 31  1  1  0  0  0
 30 32  1  0  0  0  0
 30 33  1  0  0  0  0
 33 34  1  0  0  0  0
M  CHG  4   4   1  15   1  18   1  28   1
M  END
>  <CHROM.1>
-174.77036000,179.51374054,63.14292995,-69.87345602,-54.19621229,47.86770645
60.62373426,70.46516107,-56.71267416,172.62180261,-50.46559439,-137.36098276
176.52446044,25.57681094,176.81899522,-7.23535049,7.23541719,22.15153917
-2.98160098,0.66001125,2.54528693

>  <Name>
1mwl

>  <RI>
0

>  <Rbt.Current_Directory>
/home/itssahil/PROJECTS/Mol_Feturizer/New_Systems/rnas/1mwl

>  <Rbt.Executable>
rbdock ($Id: //depot/dev/client3/rdock/2013.1/src/exe/rbdock.cxx#4 $)

>  <Rbt.Library>
libRbt.so (2013.1, Build901 2013/11/27)

>  <Rbt.Parameter_File>
/export/apps/rDock/src/rDock_2013.1_src/data/scripts/dock_solv.prm

>  <Rbt.Receptor>
prm/pocket_docking_8.prm

>  <SCORE>
-61.3805

>  <SCORE.INTER>
-39.1976

>  <SCORE.INTER.CONST>
1

>  <SCORE.INTER.POLAR>
-5.06637

>  <SCORE.INTER.ROT>
6

>  <SCORE.INTER.SOLV>
20.7115

>  <SCORE.INTER.VDW>
-23.7477

>  <SCORE.INTER.norm>
-1.15287

>  <SCORE.INTRA>
-22.1829

>  <SCORE.INTRA.DIHEDRAL>
-31.5982

>  <SCORE.INTRA.DIHEDRAL.0>
42.0816

>  <SCORE.INTRA.POLAR>
-1.13493

>  <SCORE.INTRA.POLAR.0>
-0.254682

>  <SCORE.INTRA.REPUL>
0

>  <SCORE.INTRA.REPUL.0>
0

>  <SCORE.INTRA.SOLV>
-1.4057

>  <SCORE.INTRA.SOLV.lig_0>
-109.803

>  <SCORE.INTRA.VDW>
-1.82221

>  <SCORE.INTRA.VDW.0>
0.32176

>  <SCORE.INTRA.norm>
-0.652439

>  <SCORE.RESTR>
0

>  <SCORE.RESTR.CAVITY>
0

>  <SCORE.RESTR.norm>
0

>  <SCORE.SYSTEM>
0

>  <SCORE.SYSTEM.CONST>
0

>  <SCORE.SYSTEM.DIHEDRAL>
0

>  <SCORE.SYSTEM.SOLV>
0

>  <SCORE.SYSTEM.norm>
0

>  <SCORE.heavy>
34

>  <SCORE.norm>
-1.80531

>  <RMSD>
10.083

$$$$
1mwl
 OpenBabel11021811403D
libRbt.so/2013.1/901 2013/11/27
 34 36  0  0  0  0  0  0  0  0999 V2000
   -1.7218    5.5042   14.9002 C   0  0  2  0  0  0  0  0  0  0  0  0
   -2.2521    4.8380   13.7940 O   0  0  0  0  0  0  0  0  0  0  0  0
   -1.5810    7.0042   14.5167 C   0  0  2  0  0  0  0  0  0  0  0  0
   -2.8874    7.5550   14.1431 N   0  3  0  0  0  0  0  0  0  0  0  0
   -0.5394    7.1828   13.3736 C   0  0  1  0  0  0  0  0  0  0  0  0
   -0.3922    8.4921   13.0509 O   0  0  0  0  0  0  0  0  0  0  0  0
    0.8220    6.5680   13.8387 C   0  0  2  0  0  0  0  0  0  0  0  0
    1.8162    6.7251   12.8047 O   0  0  0  0  0  0  0  0  0  0  0  0
    0.5900    5.0565   14.1784 C   0  0  2  0  0  0  0  0  0  0  0  0
   -0.4373    4.9192   15.2345 O   0  0  0  0  0  0  0  0  0  0  0  0
    1.8356    4.3139   14.6753 C   0  0  2  0  0  0  0  0  0  0  0  0
    1.5568    2.9566   14.7906 O   0  0  0  0  0  0  0  0  0  0  0  0
    2.3156    4.7749   16.0636 C   0  0  0  0  0  0  0  0  0  0  0  0
   -5.6670    2.4806   12.7742 C   0  0  2  0  0  0  0  0  0  0  0  0
   -6.7304    1.4461   12.8418 N   0  3  0  0  0  0  0  0  0  0  0  0
   -4.2601    1.8188   12.6824 C   0  0  0  0  0  0  0  0  0  0  0  0
   -3.1413    2.9214   12.6300 C   0  0  2  0  0  0  0  0  0  0  0  0
   -1.7930    2.2512   12.5321 N   0  3  0  0  0  0  0  0  0  0  0  0
   -3.2469    3.8280   13.9040 C   0  0  2  0  0  0  0  0  0  0  0  0
   -4.6513    4.4772   13.9621 C   0  0  2  0  0  0  0  0  0  0  0  0
   -4.7459    5.2611   15.1268 O   0  0  0  0  0  0  0  0  0  0  0  0
   -5.7430    3.3758   14.0294 C   0  0  1  0  0  0  0  0  0  0  0  0
   -7.0207    3.9930   14.0844 O   0  0  0  0  0  0  0  0  0  0  0  0
   -7.1175    5.3627   13.8066 C   0  0  2  0  0  0  0  0  0  0  0  0
   -7.6185    6.0593   15.0859 C   0  0  2  0  0  0  0  0  0  0  0  0
   -6.6803    5.8518   16.1200 O   0  0  0  0  0  0  0  0  0  0  0  0
   -9.0171    5.4709   15.4763 C   0  0  1  0  0  0  0  0  0  0  0  0
   -9.5581    6.0709   16.7203 N   0  3  0  0  0  0  0  0  0  0  0  0
   -8.8644    5.5237   17.9142 C   0  0  0  0  0  0  0  0  0  0  0  0
  -10.0197    5.6980   14.2929 C   0  0  2  0  0  0  0  0  0  0  0  0
  -10.1554    7.1071   14.0295 O   0  0  0  0  0  0  0  0  0  0  0  0
  -11.3422    5.1791   14.5911 C   0  0  0  0  0  0  0  0  0  0  0  0
   -9.4556    5.0636   12.9843 C   0  0  0  0  0  0  0  0  0  0  0  0
   -8.0731    5.5731   12.7056 O   0  0  0  0  0  0  0  0  0  0  0  0
  1  2  1  6  0  0  0
  1  3  1  0  0  0  0
  1 10  1  0  0  0  0
  3  4  1  6  0  0  0
  3  5  1  0  0  0  0
  5  6  1  1  0  0  0
  5  7  1  0  0  0  0
  7  8  1  6  0  0  0
  7  9  1  0  0  0  0
  9 10  1  1  0  0  0
  9 11  1  0  0  0  0
 11 12  1  1  0  0  0
 11 13  1  0  0  0  0
 14 15  1  1  0  0  0
 14 16  1  0  0  0  0
 14 22  1  0  0  0  0
 16 17  1  0  0  0  0
 17 18  1  1  0  0  0
 17 19  1  0  0  0  0
 19  2  1  6  0  0  0
 19 20  1  0  0  0  0
 20 21  1  1  0  0  0
 20 22  1  0  0  0  0
 22 23  1  6  0  0  0
 24 23  1  1  0  0  0
 24 25  1  0  0  0  0
 24 34  1  0  0  0  0
 25 26  1  1  0  0  0
 25 27  1  0  0  0  0
 27 28  1  1  0  0  0
 27 30  1  0  0  0  0
 28 29  1  0  0  0  0
 30 31  1  6  0  0  0
 30 32  1  0  0  0  0
 30 33  1  0  0  0  0
 33 34  1  0  0  0  0
M  CHG  4   4   1  15   1  18   1  28   1
M  END
>  <CHROM.1>
-139.06369838,-155.96611692,-57.41971308,-173.75971898,179.03553514,-172.86627142
73.02949379,-110.18467118,-65.56779617,143.98763207,-107.69755368,-116.80693480
-58.91668378,44.34975034,73.07654225,-4.27311356,5.03481912,14.22670629,-0.02071046
0.05736172,0.34176138

>  <Name>
1mwl

>  <RI>
0

>  <Rbt.Current_Directory>
/home/itssahil/PROJECTS/Mol_Feturizer/New_Systems/rnas/1mwl

>  <Rbt.Executable>
rbdock ($Id: //depot/dev/client3/rdock/2013.1/src/exe/rbdock.cxx#4 $)

>  <Rbt.Library>
libRbt.so (2013.1, Build901 2013/11/27)

>  <Rbt.Parameter_File>
/export/apps/rDock/src/rDock_2013.1_src/data/scripts/dock_solv.prm

>  <Rbt.Receptor>
prm/blind_docking_20.prm

>  <SCORE>
13.1002

>  <SCORE.INTER>
-19.1359

>  <SCORE.INTER.CONST>
1

>  <SCORE.INTER.POLAR>
-5.37402

>  <SCORE.INTER.ROT>
6

>  <SCORE.INTER.SOLV>
26.8971

>  <SCORE.INTER.VDW>
-11.4096

>  <SCORE.INTER.norm>
-0.56282

>  <SCORE.INTRA>
1.37673

>  <SCORE.INTRA.DIHEDRAL>
-9.44482

>  <SCORE.INTRA.DIHEDRAL.0>
42.0816

>  <SCORE.INTRA.POLAR>
0.220639

>  <SCORE.INTRA.POLAR.0>
-0.254682

>  <SCORE.INTRA.REPUL>
0

>  <SCORE.INTRA.REPUL.0>
0

>  <SCORE.INTRA.SOLV>
-0.910821

>  <SCORE.INTRA.SOLV.lig_0>
-109.803

>  <SCORE.INTRA.VDW>
5.80438

>  <SCORE.INTRA.VDW.0>
0.32176

>  <SCORE.INTRA.norm>
0.0404922

>  <SCORE.RESTR>
30.8594

>  <SCORE.RESTR.CAVITY>
30.8594

>  <SCORE.RESTR.norm>
0.907628

>  <SCORE.SYSTEM>
0

>  <SCORE.SYSTEM.CONST>
0

>  <SCORE.SYSTEM.DIHEDRAL>
0

>  <SCORE.SYSTEM.SOLV>
0

>  <SCORE.SYSTEM.norm>
0

>  <SCORE.heavy>
34

>  <SCORE.norm>
0.3853

>  <RMSD>
10.120

$$$$
1mwl
 OpenBabel11021811403D
libRbt.so/2013.1/901 2013/11/27
 34 36  0  0  0  0  0  0  0  0999 V2000
   -9.3530    7.9521   20.5516 C   0  0  2  0  0  0  0  0  0  0  0  0
   -9.3511    7.0892   21.6489 O   0  0  0  0  0  0  0  0  0  0  0  0
  -10.7683    8.5895   20.4631 C   0  0  2  0  0  0  0  0  0  0  0  0
  -11.0769    9.3088   21.7028 N   0  3  0  0  0  0  0  0  0  0  0  0
  -11.8402    7.5042   20.1520 C   0  0  1  0  0  0  0  0  0  0  0  0
  -13.0748    8.0568   20.0480 O   0  0  0  0  0  0  0  0  0  0  0  0
  -11.4429    6.7763   18.8255 C   0  0  2  0  0  0  0  0  0  0  0  0
  -12.4225    5.7677   18.5006 O   0  0  0  0  0  0  0  0  0  0  0  0
  -10.0211    6.1468   19.0153 C   0  0  2  0  0  0  0  0  0  0  0  0
   -9.0355    7.1970   19.3545 O   0  0  0  0  0  0  0  0  0  0  0  0
   -9.4772    5.4122   17.7847 C   0  0  2  0  0  0  0  0  0  0  0  0
  -10.2624    5.7099   16.6765 O   0  0  0  0  0  0  0  0  0  0  0  0
   -9.4928    3.8790   17.9248 C   0  0  0  0  0  0  0  0  0  0  0  0
   -6.4056    5.5324   24.3246 C   0  0  2  0  0  0  0  0  0  0  0  0
   -5.2028    4.8237   24.8310 N   0  3  0  0  0  0  0  0  0  0  0  0
   -7.3903    4.5324   23.6491 C   0  0  0  0  0  0  0  0  0  0  0  0
   -8.6506    5.2946   23.1006 C   0  0  2  0  0  0  0  0  0  0  0  0
   -9.5885    4.3003   22.4616 N   0  3  0  0  0  0  0  0  0  0  0  0
   -8.1895    6.3936   22.0829 C   0  0  2  0  0  0  0  0  0  0  0  0
   -7.2202    7.3754   22.7855 C   0  0  2  0  0  0  0  0  0  0  0  0
   -6.7867    8.3367   21.8538 O   0  0  0  0  0  0  0  0  0  0  0  0
   -5.9746    6.6100   23.3069 C   0  0  1  0  0  0  0  0  0  0  0  0
   -5.0997    7.5290   23.9444 O   0  0  0  0  0  0  0  0  0  0  0  0
   -4.3376    8.3937   23.1481 C   0  0  2  0  0  0  0  0  0  0  0  0
   -3.0078    8.6471   23.8831 C   0  0  2  0  0  0  0  0  0  0  0  0
   -2.3258    7.4207   24.0358 O   0  0  0  0  0  0  0  0  0  0  0  0
   -3.3078    9.2950   25.2777 C   0  0  1  0  0  0  0  0  0  0  0  0
   -2.0754    9.5447   26.0645 N   0  3  0  0  0  0  0  0  0  0  0  0
   -1.6696    8.3255   26.8092 C   0  0  0  0  0  0  0  0  0  0  0  0
   -4.0877   10.6380   25.0644 C   0  0  2  0  0  0  0  0  0  0  0  0
   -3.2922   11.5473   24.2810 O   0  0  0  0  0  0  0  0  0  0  0  0
   -4.3945   11.2962   26.3213 C   0  0  0  0  0  0  0  0  0  0  0  0
   -5.3870   10.3775   24.2416 C   0  0  0  0  0  0  0  0  0  0  0  0
   -5.0664    9.6605   22.9642 O   0  0  0  0  0  0  0  0  0  0  0  0
  1  2  1  1  0  0  0
  1  3  1  0  0  0  0
  1 10  1  0  0  0  0
  3  4  1  1  0  0  0
  3  5  1  0  0  0  0
  5  6  1  6  0  0  0
  5  7  1  0  0  0  0
  7  8  1  1  0  0  0
  7  9  1  0  0  0  0
  9 10  1  6  0  0  0
  9 11  1  0  0  0  0
 11 12  1  6  0  0  0
 11 13  1  0  0  0  0
 14 15  1  6  0  0  0
 14 16  1  0  0  0  0
 14 22  1  0  0  0  0
 16 17  1  0  0  0  0
 17 18  1  6  0  0  0
 17 19  1  0  0  0  0
 19  2  1  1  0  0  0
 19 20  1  0  0  0  0
 20 21  1  6  0  0  0
 20 22  1  0  0  0  0
 22 23  1  1  0  0  0
 24 23  1  1  0  0  0
 24 25  1  0  0  0  0
 24 34  1  0  0  0  0
 25 26  1  1  0  0  0
 25 27  1  0  0  0  0
 27 28  1  6  0  0  0
 27 30  1  0  0  0  0
 28 29  1  0  0  0  0
 30 31  1  6  0  0  0
 30 32  1  0  0  0  0
 30 33  1  0  0  0  0
 33 34  1  0  0  0  0
M  CHG  4   4   1  15   1  18   1  28   1
M  END
>  <CHROM.1>
-175.98403683,-166.99631146,-58.82193158,63.06012651,-174.86513838,12.36647508
66.66380029,171.53210076,-61.14335785,-73.38760601,164.88092786,-147.84861914
63.61296547,35.39672877,57.50822913,-7.27511851,7.50797826,22.24637906,2.78542223
0.63046044,-3.02118557

>  <Name>
1mwl

>  <RI>
0

>  <Rbt.Current_Directory>
/home/itssahil/PROJECTS/Mol_Feturizer/New_Systems/rnas/1mwl

>  <Rbt.Executable>
rbdock ($Id: //depot/dev/client3/rdock/2013.1/src/exe/rbdock.cxx#4 $)

>  <Rbt.Library>
libRbt.so (2013.1, Build901 2013/11/27)

>  <Rbt.Parameter_File>
/export/apps/rDock/src/rDock_2013.1_src/data/scripts/dock_solv.prm

>  <Rbt.Receptor>
prm/pocket_docking_6.prm

>  <SCORE>
-55.4148

>  <SCORE.INTER>
-37.6379

>  <SCORE.INTER.CONST>
1

>  <SCORE.INTER.POLAR>
-4.54856

>  <SCORE.INTER.ROT>
6

>  <SCORE.INTER.SOLV>
19.2915

>  <SCORE.INTER.VDW>
-23.9606

>  <SCORE.INTER.norm>
-1.107

>  <SCORE.INTRA>
-18.1306

>  <SCORE.INTRA.DIHEDRAL>
-28.4487

>  <SCORE.INTRA.DIHEDRAL.0>
42.0816

>  <SCORE.INTRA.POLAR>
-0.0962093

>  <SCORE.INTRA.POLAR.0>
-0.254682

>  <SCORE.INTRA.REPUL>
0

>  <SCORE.INTRA.REPUL.0>
0

>  <SCORE.INTRA.SOLV>
-2.96426

>  <SCORE.INTRA.SOLV.lig_0>
-109.803

>  <SCORE.INTRA.VDW>
-2.097

>  <SCORE.INTRA.VDW.0>
0.32176

>  <SCORE.INTRA.norm>
-0.533253

>  <SCORE.RESTR>
0.353802

>  <SCORE.RESTR.CAVITY>
0.353802

>  <SCORE.RESTR.norm>
0.0104059

>  <SCORE.SYSTEM>
0

>  <SCORE.SYSTEM.CONST>
0

>  <SCORE.SYSTEM.DIHEDRAL>
0

>  <SCORE.SYSTEM.SOLV>
0

>  <SCORE.SYSTEM.norm>
0

>  <SCORE.heavy>
34

>  <SCORE.norm>
-1.62985

>  <RMSD>
10.143

$$$$
1mwl
 OpenBabel11021811403D
libRbt.so/2013.1/901 2013/11/27
 34 36  0  0  0  0  0  0  0  0999 V2000
   -8.5470    4.4663   20.0344 C   0  0  2  0  0  0  0  0  0  0  0  0
   -8.3050    5.8298   20.2105 O   0  0  0  0  0  0  0  0  0  0  0  0
   -9.0097    4.2619   18.5643 C   0  0  2  0  0  0  0  0  0  0  0  0
   -7.9783    4.7404   17.6387 N   0  3  0  0  0  0  0  0  0  0  0  0
  -10.3729    4.9711   18.3146 C   0  0  1  0  0  0  0  0  0  0  0  0
  -10.7959    4.7756   17.0406 O   0  0  0  0  0  0  0  0  0  0  0  0
  -11.4182    4.4179   19.3388 C   0  0  2  0  0  0  0  0  0  0  0  0
  -12.6994    5.0479   19.1291 O   0  0  0  0  0  0  0  0  0  0  0  0
  -10.8820    4.6890   20.7855 C   0  0  2  0  0  0  0  0  0  0  0  0
   -9.5656    4.0406   20.9753 O   0  0  0  0  0  0  0  0  0  0  0  0
  -11.7907    4.1803   21.9104 C   0  0  2  0  0  0  0  0  0  0  0  0
  -13.0809    4.6645   21.7253 O   0  0  0  0  0  0  0  0  0  0  0  0
  -11.3538    4.6423   23.3125 C   0  0  0  0  0  0  0  0  0  0  0  0
   -6.7570    8.1542   23.4447 C   0  0  2  0  0  0  0  0  0  0  0  0
   -6.6406    8.8152   24.7695 N   0  3  0  0  0  0  0  0  0  0  0  0
   -7.9820    8.7084   22.6585 C   0  0  0  0  0  0  0  0  0  0  0  0
   -8.1070    7.9897   21.2664 C   0  0  2  0  0  0  0  0  0  0  0  0
   -9.2947    8.5531   20.5257 N   0  3  0  0  0  0  0  0  0  0  0  0
   -8.2436    6.4446   21.4911 C   0  0  2  0  0  0  0  0  0  0  0  0
   -7.0087    5.9234   22.2661 C   0  0  2  0  0  0  0  0  0  0  0  0
   -7.1586    4.5425   22.4915 O   0  0  0  0  0  0  0  0  0  0  0  0
   -6.9089    6.6311   23.6439 C   0  0  1  0  0  0  0  0  0  0  0  0
   -5.7725    6.1367   24.3373 O   0  0  0  0  0  0  0  0  0  0  0  0
   -5.9269    5.7130   25.6637 C   0  0  2  0  0  0  0  0  0  0  0  0
   -4.8178    6.3848   26.4953 C   0  0  2  0  0  0  0  0  0  0  0  0
   -4.9750    7.7858   26.4251 O   0  0  0  0  0  0  0  0  0  0  0  0
   -3.4211    5.9521   25.9323 C   0  0  1  0  0  0  0  0  0  0  0  0
   -2.2946    6.5822   26.6631 N   0  3  0  0  0  0  0  0  0  0  0  0
   -2.0948    7.9843   26.2158 C   0  0  0  0  0  0  0  0  0  0  0  0
   -3.2985    4.3910   26.0035 C   0  0  2  0  0  0  0  0  0  0  0  0
   -3.4149    3.9523   27.3700 O   0  0  0  0  0  0  0  0  0  0  0  0
   -2.0207    3.9206   25.5001 C   0  0  0  0  0  0  0  0  0  0  0  0
   -4.4792    3.7256   25.2313 C   0  0  0  0  0  0  0  0  0  0  0  0
   -5.7942    4.2475   25.7286 O   0  0  0  0  0  0  0  0  0  0  0  0
  1  2  1  6  0  0  0
  1  3  1  0  0  0  0
  1 10  1  0  0  0  0
  3  4  1  6  0  0  0
  3  5  1  0  0  0  0
  5  6  1  6  0  0  0
  5  7  1  0  0  0  0
  7  8  1  1  0  0  0
  7  9  1  0  0  0  0
  9 10  1  6  0  0  0
  9 11  1  0  0  0  0
 11 12  1  6  0  0  0
 11 13  1  0  0  0  0
 14 15  1  1  0  0  0
 14 16  1  0  0  0  0
 14 22  1  0  0  0  0
 16 17  1  0  0  0  0
 17 18  1  1  0  0  0
 17 19  1  0  0  0  0
 19  2  1  6  0  0  0
 19 20  1  0  0  0  0
 20 21  1  1  0  0  0
 20 22  1  0  0  0  0
 22 23  1  6  0  0  0
 24 23  1  6  0  0  0
 24 25  1  0  0  0  0
 24 34  1  0  0  0  0
 25 26  1  6  0  0  0
 25 27  1  0  0  0  0
 27 28  1  1  0  0  0
 27 30  1  0  0  0  0
 28 29  1  0  0  0  0
 30 31  1  1  0  0  0
 30 32  1  0  0  0  0
 30 33  1  0  0  0  0
 33 34  1  0  0  0  0
M  CHG  4   4   1  15   1  18   1  28   1
M  END
>  <CHROM.1>
161.30466655,-174.16623137,-58.97527350,63.86561664,62.90965865,-52.50305815
-48.95359799,70.36118448,153.57933112,-40.38063259,109.31720209,-130.53559819
83.78776345,41.23580714,-51.81635402,-7.43764876,5.69369733,22.73093254,-2.96372318
-0.74451683,0.12288563

>  <Name>
1mwl

>  <RI>
0

>  <Rbt.Current_Directory>
/home/itssahil/PROJECTS/Mol_Feturizer/New_Systems/rnas/1mwl

>  <Rbt.Executable>
rbdock ($Id: //depot/dev/client3/rdock/2013.1/src/exe/rbdock.cxx#4 $)

>  <Rbt.Library>
libRbt.so (2013.1, Build901 2013/11/27)

>  <Rbt.Parameter_File>
/export/apps/rDock/src/rDock_2013.1_src/data/scripts/dock_solv.prm

>  <Rbt.Receptor>
prm/pocket_docking_6.prm

>  <SCORE>
-37.5347

>  <SCORE.INTER>
-23.4507

>  <SCORE.INTER.CONST>
1

>  <SCORE.INTER.POLAR>
-4.51269

>  <SCORE.INTER.ROT>
6

>  <SCORE.INTER.SOLV>
21.7402

>  <SCORE.INTER.VDW>
-15.4382

>  <SCORE.INTER.norm>
-0.689726

>  <SCORE.INTRA>
-15.141

>  <SCORE.INTRA.DIHEDRAL>
-18.8792

>  <SCORE.INTRA.DIHEDRAL.0>
42.0816

>  <SCORE.INTRA.POLAR>
-0.99041

>  <SCORE.INTRA.POLAR.0>
-0.254682

>  <SCORE.INTRA.REPUL>
0

>  <SCORE.INTRA.REPUL.0>
0

>  <SCORE.INTRA.SOLV>
0.775118

>  <SCORE.INTRA.SOLV.lig_0>
-109.803

>  <SCORE.INTRA.VDW>
-2.72163

>  <SCORE.INTRA.VDW.0>
0.32176

>  <SCORE.INTRA.norm>
-0.445325

>  <SCORE.RESTR>
1.05707

>  <SCORE.RESTR.CAVITY>
1.05707

>  <SCORE.RESTR.norm>
0.0310902

>  <SCORE.SYSTEM>
0

>  <SCORE.SYSTEM.CONST>
0

>  <SCORE.SYSTEM.DIHEDRAL>
0

>  <SCORE.SYSTEM.SOLV>
0

>  <SCORE.SYSTEM.norm>
0

>  <SCORE.heavy>
34

>  <SCORE.norm>
-1.10396

>  <RMSD>
10.172

$$$$
1mwl
 OpenBabel11021811403D
libRbt.so/2013.1/901 2013/11/27
 34 36  0  0  0  0  0  0  0  0999 V2000
   -9.2563    7.9001   20.5101 C   0  0  2  0  0  0  0  0  0  0  0  0
   -9.2702    7.0300   21.6016 O   0  0  0  0  0  0  0  0  0  0  0  0
  -10.6798    8.5126   20.3850 C   0  0  2  0  0  0  0  0  0  0  0  0
  -11.0366    9.2179   21.6198 N   0  3  0  0  0  0  0  0  0  0  0  0
  -11.7226    7.4104   20.0366 C   0  0  1  0  0  0  0  0  0  0  0  0
  -12.9634    7.9415   19.9007 O   0  0  0  0  0  0  0  0  0  0  0  0
  -11.2745    6.6986   18.7175 C   0  0  2  0  0  0  0  0  0  0  0  0
  -12.2260    5.6749   18.3585 O   0  0  0  0  0  0  0  0  0  0  0  0
   -9.8475    6.0934   18.9441 C   0  0  2  0  0  0  0  0  0  0  0  0
   -8.8911    7.1587   19.3180 O   0  0  0  0  0  0  0  0  0  0  0  0
   -9.2555    5.3769   17.7251 C   0  0  2  0  0  0  0  0  0  0  0  0
   -9.4047    6.1736   16.5954 O   0  0  0  0  0  0  0  0  0  0  0  0
   -9.9437    4.0380   17.4024 C   0  0  0  0  0  0  0  0  0  0  0  0
   -6.3948    5.7824   24.5059 C   0  0  2  0  0  0  0  0  0  0  0  0
   -5.1792    5.1798   25.1099 N   0  3  0  0  0  0  0  0  0  0  0  0
   -7.2639    4.6914   23.8128 C   0  0  0  0  0  0  0  0  0  0  0  0
   -8.5378    5.3418   23.1613 C   0  0  2  0  0  0  0  0  0  0  0  0
   -9.3629    4.2612   22.5070 N   0  3  0  0  0  0  0  0  0  0  0  0
   -8.0920    6.4350   22.1305 C   0  0  2  0  0  0  0  0  0  0  0  0
   -7.2387    7.5076   22.8505 C   0  0  2  0  0  0  0  0  0  0  0  0
   -6.8163    8.4646   21.9093 O   0  0  0  0  0  0  0  0  0  0  0  0
   -5.9776    6.8521   23.4743 C   0  0  1  0  0  0  0  0  0  0  0  0
   -5.2097    7.8531   24.1262 O   0  0  0  0  0  0  0  0  0  0  0  0
   -3.8321    7.6497   24.2789 C   0  0  2  0  0  0  0  0  0  0  0  0
   -3.4105    8.3164   25.6020 C   0  0  2  0  0  0  0  0  0  0  0  0
   -4.1006    7.6999   26.6680 O   0  0  0  0  0  0  0  0  0  0  0  0
   -3.7425    9.8462   25.5342 C   0  0  1  0  0  0  0  0  0  0  0  0
   -3.3925   10.5590   26.7870 N   0  3  0  0  0  0  0  0  0  0  0  0
   -4.5181   11.4173   27.2370 C   0  0  0  0  0  0  0  0  0  0  0  0
   -2.9791   10.4855   24.3236 C   0  0  2  0  0  0  0  0  0  0  0  0
   -1.5595   10.3161   24.4952 O   0  0  0  0  0  0  0  0  0  0  0  0
   -3.2389   11.9088   24.2050 C   0  0  0  0  0  0  0  0  0  0  0  0
   -3.3492    9.7410   23.0039 C   0  0  0  0  0  0  0  0  0  0  0  0
   -3.1173    8.2665   23.1483 O   0  0  0  0  0  0  0  0  0  0  0  0
  1  2  1  1  0  0  0
  1  3  1  0  0  0  0
  1 10  1  0  0  0  0
  3  4  1  1  0  0  0
  3  5  1  0  0  0  0
  5  6  1  6  0  0  0
  5  7  1  0  0  0  0
  7  8  1  1  0  0  0
  7  9  1  0  0  0  0
  9 10  1  6  0  0  0
  9 11  1  0  0  0  0
 11 12  1  6  0  0  0
 11 13  1  0  0  0  0
 14 15  1  6  0  0  0
 14 16  1  0  0  0  0
 14 22  1  0  0  0  0
 16 17  1  0  0  0  0
 17 18  1  6  0  0  0
 17 19  1  0  0  0  0
 19  2  1  1  0  0  0
 19 20  1  0  0  0  0
 20 21  1  6  0  0  0
 20 22  1  0  0  0  0
 22 23  1  1  0  0  0
 24 23  1  6  0  0  0
 24 25  1  0  0  0  0
 24 34  1  0  0  0  0
 25 26  1  1  0  0  0
 25 27  1  0  0  0  0
 27 28  1  1  0  0  0
 27 30  1  0  0  0  0
 28 29  1  0  0  0  0
 30 31  1  1  0  0  0
 30 32  1  0  0  0  0
 30 33  1  0  0  0  0
 33 34  1  0  0  0  0
M  CHG  4   4   1  15   1  18   1  28   1
M  END
>  <CHROM.1>
-170.83910855,-169.98341198,61.00609235,176.07494390,-60.26659017,47.57125470
63.72790411,73.66871061,-176.83998181,178.61254198,85.51016900,-147.18567708
173.68476483,-11.81378219,176.97647791,-7.16206696,7.58519276,22.35272302
2.98929916,0.74940860,2.89841441

>  <Name>
1mwl

>  <RI>
0

>  <Rbt.Current_Directory>
/home/itssahil/PROJECTS/Mol_Feturizer/New_Systems/rnas/1mwl

>  <Rbt.Executable>
rbdock ($Id: //depot/dev/client3/rdock/2013.1/src/exe/rbdock.cxx#4 $)

>  <Rbt.Library>
libRbt.so (2013.1, Build901 2013/11/27)

>  <Rbt.Parameter_File>
/export/apps/rDock/src/rDock_2013.1_src/data/scripts/dock_solv.prm

>  <Rbt.Receptor>
prm/pocket_docking_8.prm

>  <SCORE>
-51.3675

>  <SCORE.INTER>
-29.4509

>  <SCORE.INTER.CONST>
1

>  <SCORE.INTER.POLAR>
-3.23686

>  <SCORE.INTER.ROT>
6

>  <SCORE.INTER.SOLV>
17.8495

>  <SCORE.INTER.VDW>
-22.3942

>  <SCORE.INTER.norm>
-0.866202

>  <SCORE.INTRA>
-21.9166

>  <SCORE.INTRA.DIHEDRAL>
-29.5935

>  <SCORE.INTRA.DIHEDRAL.0>
42.0816

>  <SCORE.INTRA.POLAR>
-0.893049

>  <SCORE.INTRA.POLAR.0>
-0.254682

>  <SCORE.INTRA.REPUL>
0

>  <SCORE.INTRA.REPUL.0>
0

>  <SCORE.INTRA.SOLV>
-1.22934

>  <SCORE.INTRA.SOLV.lig_0>
-109.803

>  <SCORE.INTRA.VDW>
-3.46885

>  <SCORE.INTRA.VDW.0>
0.32176

>  <SCORE.INTRA.norm>
-0.644607

>  <SCORE.RESTR>
0

>  <SCORE.RESTR.CAVITY>
0

>  <SCORE.RESTR.norm>
0

>  <SCORE.SYSTEM>
0

>  <SCORE.SYSTEM.CONST>
0

>  <SCORE.SYSTEM.DIHEDRAL>
0

>  <SCORE.SYSTEM.SOLV>
0

>  <SCORE.SYSTEM.norm>
0

>  <SCORE.heavy>
34

>  <SCORE.norm>
-1.51081

>  <RMSD>
10.204

$$$$
1mwl
 OpenBabel11021811403D
libRbt.so/2013.1/901 2013/11/27
 34 36  0  0  0  0  0  0  0  0999 V2000
   -9.2765    8.0328   20.5283 C   0  0  2  0  0  0  0  0  0  0  0  0
   -9.1471    7.2075   21.6467 O   0  0  0  0  0  0  0  0  0  0  0  0
  -10.7422    8.5502   20.4987 C   0  0  2  0  0  0  0  0  0  0  0  0
  -11.0452    9.2805   21.7334 N   0  3  0  0  0  0  0  0  0  0  0  0
  -11.7354    7.3725   20.2749 C   0  0  1  0  0  0  0  0  0  0  0  0
  -13.0150    7.8197   20.2224 O   0  0  0  0  0  0  0  0  0  0  0  0
  -11.3479    6.6381   18.9490 C   0  0  2  0  0  0  0  0  0  0  0  0
  -12.2561    5.5438   18.7044 O   0  0  0  0  0  0  0  0  0  0  0  0
   -9.8711    6.1321   19.0791 C   0  0  2  0  0  0  0  0  0  0  0  0
   -8.9594    7.2688   19.3367 O   0  0  0  0  0  0  0  0  0  0  0  0
   -9.3321    5.4060   17.8414 C   0  0  2  0  0  0  0  0  0  0  0  0
   -8.0764    4.8771   18.1184 O   0  0  0  0  0  0  0  0  0  0  0  0
   -9.1534    6.3229   16.6176 C   0  0  0  0  0  0  0  0  0  0  0  0
   -6.1761    6.2155   24.5533 C   0  0  2  0  0  0  0  0  0  0  0  0
   -4.8807    5.8091   25.1551 N   0  3  0  0  0  0  0  0  0  0  0  0
   -6.7575    5.0700   23.6725 C   0  0  0  0  0  0  0  0  0  0  0  0
   -8.1186    5.5166   23.0258 C   0  0  2  0  0  0  0  0  0  0  0  0
   -8.6608    4.3852   22.1877 N   0  3  0  0  0  0  0  0  0  0  0  0
   -7.8871    6.8108   22.1727 C   0  0  2  0  0  0  0  0  0  0  0  0
   -7.3180    7.9315   23.0767 C   0  0  2  0  0  0  0  0  0  0  0  0
   -7.0825    9.0766   22.2935 O   0  0  0  0  0  0  0  0  0  0  0  0
   -5.9673    7.4809   23.6945 C   0  0  1  0  0  0  0  0  0  0  0  0
   -5.4632    8.5235   24.5164 O   0  0  0  0  0  0  0  0  0  0  0  0
   -4.9621    9.6793   23.9035 C   0  0  2  0  0  0  0  0  0  0  0  0
   -3.6331    9.3017   23.2223 C   0  0  2  0  0  0  0  0  0  0  0  0
   -3.8821    8.3168   22.2422 O   0  0  0  0  0  0  0  0  0  0  0  0
   -2.6343    8.7693   24.3058 C   0  0  1  0  0  0  0  0  0  0  0  0
   -1.3343    8.3546   23.7245 N   0  3  0  0  0  0  0  0  0  0  0  0
   -0.8438    7.1081   24.3660 C   0  0  0  0  0  0  0  0  0  0  0  0
   -2.4066    9.8814   25.3868 C   0  0  2  0  0  0  0  0  0  0  0  0
   -1.8525   11.0584   24.7696 O   0  0  0  0  0  0  0  0  0  0  0  0
   -1.4835    9.4545   26.4226 C   0  0  0  0  0  0  0  0  0  0  0  0
   -3.7719   10.3159   26.0036 C   0  0  0  0  0  0  0  0  0  0  0  0
   -4.7336   10.7158   24.9247 O   0  0  0  0  0  0  0  0  0  0  0  0
  1  2  1  1  0  0  0
  1  3  1  0  0  0  0
  1 10  1  0  0  0  0
  3  4  1  1  0  0  0
  3  5  1  0  0  0  0
  5  6  1  6  0  0  0
  5  7  1  0  0  0  0
  7  8  1  1  0  0  0
  7  9  1  0  0  0  0
  9 10  1  6  0  0  0
  9 11  1  0  0  0  0
 11 12  1  1  0  0  0
 11 13  1  0  0  0  0
 14 15  1  6  0  0  0
 14 16  1  0  0  0  0
 14 22  1  0  0  0  0
 16 17  1  0  0  0  0
 17 18  1  6  0  0  0
 17 19  1  0  0  0  0
 19  2  1  1  0  0  0
 19 20  1  0  0  0  0
 20 21  1  6  0  0  0
 20 22  1  0  0  0  0
 22 23  1  1  0  0  0
 24 23  1  1  0  0  0
 24 25  1  0  0  0  0
 24 34  1  0  0  0  0
 25 26  1  6  0  0  0
 25 27  1  0  0  0  0
 27 28  1  6  0  0  0
 27 30  1  0  0  0  0
 28 29  1  0  0  0  0
 30 31  1  6  0  0  0
 30 32  1  0  0  0  0
 30 33  1  0  0  0  0
 33 34  1  0  0  0  0
M  CHG  4   4   1  15   1  18   1  28   1
M  END
>  <CHROM.1>
-164.73477778,-158.94690916,54.30636027,-173.01952402,-65.00278050,-173.56378333
63.49083360,-175.85010437,-58.68862990,-48.83539734,168.01496338,-70.93778456
58.02247258,-19.68187082,59.66541288,-6.88560905,7.64643754,22.25125819,2.59873576
0.37616343,-2.55269913

>  <Name>
1mwl

>  <RI>
0

>  <Rbt.Current_Directory>
/home/itssahil/PROJECTS/Mol_Feturizer/New_Systems/rnas/1mwl

>  <Rbt.Executable>
rbdock ($Id: //depot/dev/client3/rdock/2013.1/src/exe/rbdock.cxx#4 $)

>  <Rbt.Library>
libRbt.so (2013.1, Build901 2013/11/27)

>  <Rbt.Parameter_File>
/export/apps/rDock/src/rDock_2013.1_src/data/scripts/dock_solv.prm

>  <Rbt.Receptor>
prm/pocket_docking_8.prm

>  <SCORE>
-60.3364

>  <SCORE.INTER>
-40.7581

>  <SCORE.INTER.CONST>
1

>  <SCORE.INTER.POLAR>
-5.69479

>  <SCORE.INTER.ROT>
6

>  <SCORE.INTER.SOLV>
23.65

>  <SCORE.INTER.VDW>
-23.6727

>  <SCORE.INTER.norm>
-1.19877

>  <SCORE.INTRA>
-19.5808

>  <SCORE.INTRA.DIHEDRAL>
-33.6234

>  <SCORE.INTRA.DIHEDRAL.0>
42.0816

>  <SCORE.INTRA.POLAR>
0.254357

>  <SCORE.INTRA.POLAR.0>
-0.254682

>  <SCORE.INTRA.REPUL>
0.0254372

>  <SCORE.INTRA.REPUL.0>
0

>  <SCORE.INTRA.SOLV>
-1.27063

>  <SCORE.INTRA.SOLV.lig_0>
-109.803

>  <SCORE.INTRA.VDW>
-3.12578

>  <SCORE.INTRA.VDW.0>
0.32176

>  <SCORE.INTRA.norm>
-0.575906

>  <SCORE.RESTR>
0.00249385

>  <SCORE.RESTR.CAVITY>
0.00249385

>  <SCORE.RESTR.norm>
7.33486e-05

>  <SCORE.SYSTEM>
0

>  <SCORE.SYSTEM.CONST>
0

>  <SCORE.SYSTEM.DIHEDRAL>
0

>  <SCORE.SYSTEM.SOLV>
0

>  <SCORE.SYSTEM.norm>
0

>  <SCORE.heavy>
34

>  <SCORE.norm>
-1.7746

>  <RMSD>
10.223

$$$$
1mwl
 OpenBabel11021811403D
libRbt.so/2013.1/901 2013/11/27
 34 36  0  0  0  0  0  0  0  0999 V2000
   -9.3632    7.9213   20.4927 C   0  0  2  0  0  0  0  0  0  0  0  0
   -9.4648    6.9705   21.5097 O   0  0  0  0  0  0  0  0  0  0  0  0
  -10.7070    8.7019   20.4493 C   0  0  2  0  0  0  0  0  0  0  0  0
  -10.9639    9.3380   21.7450 N   0  3  0  0  0  0  0  0  0  0  0  0
  -11.8754    7.7601   20.0352 C   0  0  1  0  0  0  0  0  0  0  0  0
  -13.0475    8.4399   19.9703 O   0  0  0  0  0  0  0  0  0  0  0  0
  -11.5297    7.1141   18.6530 C   0  0  2  0  0  0  0  0  0  0  0  0
  -12.5983    6.2403   18.2327 O   0  0  0  0  0  0  0  0  0  0  0  0
  -10.1802    6.3318   18.7981 C   0  0  2  0  0  0  0  0  0  0  0  0
   -9.1017    7.2450   19.2364 O   0  0  0  0  0  0  0  0  0  0  0  0
   -9.6909    5.6562   17.5120 C   0  0  2  0  0  0  0  0  0  0  0  0
  -10.6708    4.7932   17.0343 O   0  0  0  0  0  0  0  0  0  0  0  0
   -8.4236    4.8040   17.7069 C   0  0  0  0  0  0  0  0  0  0  0  0
   -6.7223    5.2319   24.2873 C   0  0  2  0  0  0  0  0  0  0  0  0
   -5.5725    4.4673   24.8339 N   0  3  0  0  0  0  0  0  0  0  0  0
   -7.7001    4.2875   23.5272 C   0  0  0  0  0  0  0  0  0  0  0  0
   -8.9032    5.1088   22.9371 C   0  0  2  0  0  0  0  0  0  0  0  0
   -9.8362    4.1673   22.2161 N   0  3  0  0  0  0  0  0  0  0  0  0
   -8.3517    6.2227   21.9824 C   0  0  2  0  0  0  0  0  0  0  0  0
   -7.3914    7.1486   22.7681 C   0  0  2  0  0  0  0  0  0  0  0  0
   -6.8767    8.1232   21.8933 O   0  0  0  0  0  0  0  0  0  0  0  0
   -6.2016    6.3254   23.3303 C   0  0  1  0  0  0  0  0  0  0  0  0
   -5.3337    7.1938   24.0439 O   0  0  0  0  0  0  0  0  0  0  0  0
   -5.8546    7.9339   25.1133 C   0  0  2  0  0  0  0  0  0  0  0  0
   -5.0305    9.2308   25.2223 C   0  0  2  0  0  0  0  0  0  0  0  0
   -5.1702    9.9665   24.0257 O   0  0  0  0  0  0  0  0  0  0  0  0
   -3.5289    8.8644   25.4789 C   0  0  1  0  0  0  0  0  0  0  0  0
   -2.6594   10.0628   25.5672 N   0  3  0  0  0  0  0  0  0  0  0  0
   -2.1172   10.4202   24.2314 C   0  0  0  0  0  0  0  0  0  0  0  0
   -3.4217    8.0271   26.7996 C   0  0  2  0  0  0  0  0  0  0  0  0
   -3.9174    8.7981   27.9101 O   0  0  0  0  0  0  0  0  0  0  0  0
   -2.0508    7.6569   27.1012 C   0  0  0  0  0  0  0  0  0  0  0  0
   -4.3313    6.7633   26.7075 C   0  0  0  0  0  0  0  0  0  0  0  0
   -5.7365    7.1505   26.3550 O   0  0  0  0  0  0  0  0  0  0  0  0
  1  2  1  1  0  0  0
  1  3  1  0  0  0  0
  1 10  1  0  0  0  0
  3  4  1  1  0  0  0
  3  5  1  0  0  0  0
  5  6  1  6  0  0  0
  5  7  1  0  0  0  0
  7  8  1  1  0  0  0
  7  9  1  0  0  0  0
  9 10  1  6  0  0  0
  9 11  1  0  0  0  0
 11 12  1  1  0  0  0
 11 13  1  0  0  0  0
 14 15  1  6  0  0  0
 14 16  1  0  0  0  0
 14 22  1  0  0  0  0
 16 17  1  0  0  0  0
 17 18  1  6  0  0  0
 17 19  1  0  0  0  0
 19  2  1  1  0  0  0
 19 20  1  0  0  0  0
 20 21  1  6  0  0  0
 20 22  1  0  0  0  0
 22 23  1  1  0  0  0
 24 23  1  6  0  0  0
 24 25  1  0  0  0  0
 24 34  1  0  0  0  0
 25 26  1  6  0  0  0
 25 27  1  0  0  0  0
 27 28  1  1  0  0  0
 27 30  1  0  0  0  0
 28 29  1  0  0  0  0
 30 31  1  1  0  0  0
 30 32  1  0  0  0  0
 30 33  1  0  0  0  0
 33 34  1  0  0  0  0
M  CHG  4   4   1  15   1  18   1  28   1
M  END
>  <CHROM.1>
-169.42071180,-170.68414002,-172.10079591,-176.65907945,-50.22435751,-56.71825962
59.49974398,161.25610462,62.14478785,-73.10348907,-62.59661707,-151.19558460
172.17788208,29.29882441,-59.49715472,-7.50250395,7.20097018,22.57026311
2.99954290,0.77531044,3.09224724

>  <Name>
1mwl

>  <RI>
0

>  <Rbt.Current_Directory>
/home/itssahil/PROJECTS/Mol_Feturizer/New_Systems/rnas/1mwl

>  <Rbt.Executable>
rbdock ($Id: //depot/dev/client3/rdock/2013.1/src/exe/rbdock.cxx#4 $)

>  <Rbt.Library>
libRbt.so (2013.1, Build901 2013/11/27)

>  <Rbt.Parameter_File>
/export/apps/rDock/src/rDock_2013.1_src/data/scripts/dock_solv.prm

>  <Rbt.Receptor>
prm/pocket_docking_6.prm

>  <SCORE>
-57.2302

>  <SCORE.INTER>
-39.0505

>  <SCORE.INTER.CONST>
1

>  <SCORE.INTER.POLAR>
-5.05878

>  <SCORE.INTER.ROT>
6

>  <SCORE.INTER.SOLV>
19.932

>  <SCORE.INTER.VDW>
-23.4151

>  <SCORE.INTER.norm>
-1.14855

>  <SCORE.INTRA>
-18.9158

>  <SCORE.INTRA.DIHEDRAL>
-33.1168

>  <SCORE.INTRA.DIHEDRAL.0>
42.0816

>  <SCORE.INTRA.POLAR>
-0.141348

>  <SCORE.INTRA.POLAR.0>
-0.254682

>  <SCORE.INTRA.REPUL>
0

>  <SCORE.INTRA.REPUL.0>
0

>  <SCORE.INTRA.SOLV>
-0.600994

>  <SCORE.INTRA.SOLV.lig_0>
-109.803

>  <SCORE.INTRA.VDW>
-1.57638

>  <SCORE.INTRA.VDW.0>
0.32176

>  <SCORE.INTRA.norm>
-0.556349

>  <SCORE.RESTR>
0.736153

>  <SCORE.RESTR.CAVITY>
0.736153

>  <SCORE.RESTR.norm>
0.0216516

>  <SCORE.SYSTEM>
0

>  <SCORE.SYSTEM.CONST>
0

>  <SCORE.SYSTEM.DIHEDRAL>
0

>  <SCORE.SYSTEM.SOLV>
0

>  <SCORE.SYSTEM.norm>
0

>  <SCORE.heavy>
34

>  <SCORE.norm>
-1.68324

>  <RMSD>
10.290

$$$$
1mwl
 OpenBabel11021811403D
libRbt.so/2013.1/901 2013/11/27
 34 36  0  0  0  0  0  0  0  0999 V2000
   -9.3431    8.0209   20.6421 C   0  0  2  0  0  0  0  0  0  0  0  0
   -9.3389    7.1081   21.6982 O   0  0  0  0  0  0  0  0  0  0  0  0
  -10.7265    8.7302   20.6456 C   0  0  2  0  0  0  0  0  0  0  0  0
  -10.9454    9.4045   21.9289 N   0  3  0  0  0  0  0  0  0  0  0  0
  -11.8645    7.7147   20.3339 C   0  0  1  0  0  0  0  0  0  0  0  0
  -13.0726    8.3313   20.3100 O   0  0  0  0  0  0  0  0  0  0  0  0
  -11.5612    7.0316   18.9595 C   0  0  2  0  0  0  0  0  0  0  0  0
  -12.6037    6.0887   18.6335 O   0  0  0  0  0  0  0  0  0  0  0  0
  -10.1666    6.3250   19.0573 C   0  0  2  0  0  0  0  0  0  0  0  0
   -9.1153    7.3085   19.3993 O   0  0  0  0  0  0  0  0  0  0  0  0
   -9.7133    5.6236   17.7719 C   0  0  2  0  0  0  0  0  0  0  0  0
  -10.7065    4.7524   17.3384 O   0  0  0  0  0  0  0  0  0  0  0  0
   -8.4416    4.7738   17.9486 C   0  0  0  0  0  0  0  0  0  0  0  0
   -6.3829    5.5074   24.3362 C   0  0  2  0  0  0  0  0  0  0  0  0
   -5.1728    4.7987   24.8252 N   0  3  0  0  0  0  0  0  0  0  0  0
   -7.3525    4.5162   23.6268 C   0  0  0  0  0  0  0  0  0  0  0  0
   -8.6205    5.2789   23.0972 C   0  0  2  0  0  0  0  0  0  0  0  0
   -9.5436    4.2929   22.4245 N   0  3  0  0  0  0  0  0  0  0  0  0
   -8.1699    6.4142   22.1151 C   0  0  2  0  0  0  0  0  0  0  0  0
   -7.2156    7.3862   22.8510 C   0  0  2  0  0  0  0  0  0  0  0  0
   -6.7912    8.3809   21.9507 O   0  0  0  0  0  0  0  0  0  0  0  0
   -5.9622    6.6209   23.3535 C   0  0  1  0  0  0  0  0  0  0  0  0
   -5.1011    7.5309   24.0220 O   0  0  0  0  0  0  0  0  0  0  0  0
   -5.6442    8.3749   24.9994 C   0  0  2  0  0  0  0  0  0  0  0  0
   -4.6398    9.5197   25.2311 C   0  0  2  0  0  0  0  0  0  0  0  0
   -4.4736   10.2366   24.0266 O   0  0  0  0  0  0  0  0  0  0  0  0
   -3.2764    8.9163   25.7128 C   0  0  1  0  0  0  0  0  0  0  0  0
   -2.2412    9.9559   25.9311 N   0  3  0  0  0  0  0  0  0  0  0  0
   -1.6472   10.3874   24.6399 C   0  0  0  0  0  0  0  0  0  0  0  0
   -3.5098    8.1077   27.0353 C   0  0  2  0  0  0  0  0  0  0  0  0
   -4.0294    8.9792   28.0570 O   0  0  0  0  0  0  0  0  0  0  0  0
   -2.2812    7.5235   27.5416 C   0  0  0  0  0  0  0  0  0  0  0  0
   -4.5946    7.0102   26.8073 C   0  0  0  0  0  0  0  0  0  0  0  0
   -5.8461    7.6157   26.2453 O   0  0  0  0  0  0  0  0  0  0  0  0
  1  2  1  1  0  0  0
  1  3  1  0  0  0  0
  1 10  1  0  0  0  0
  3  4  1  1  0  0  0
  3  5  1  0  0  0  0
  5  6  1  6  0  0  0
  5  7  1  0  0  0  0
  7  8  1  1  0  0  0
  7  9  1  0  0  0  0
  9 10  1  6  0  0  0
  9 11  1  0  0  0  0
 11 12  1  1  0  0  0
 11 13  1  0  0  0  0
 14 15  1  6  0  0  0
 14 16  1  0  0  0  0
 14 22  1  0  0  0  0
 16 17  1  0  0  0  0
 17 18  1  6  0  0  0
 17 19  1  0  0  0  0
 19  2  1  1  0  0  0
 19 20  1  0  0  0  0
 20 21  1  6  0  0  0
 20 22  1  0  0  0  0
 22 23  1  1  0  0  0
 24 23  1  6  0  0  0
 24 25  1  0  0  0  0
 24 34  1  0  0  0  0
 25 26  1  6  0  0  0
 25 27  1  0  0  0  0
 27 28  1  1  0  0  0
 27 30  1  0  0  0  0
 28 29  1  0  0  0  0
 30 31  1  1  0  0  0
 30 32  1  0  0  0  0
 30 33  1  0  0  0  0
 33 34  1  0  0  0  0
M  CHG  4   4   1  15   1  18   1  28   1
M  END
>  <CHROM.1>
-170.90308235,-168.10410668,65.73651036,61.83862513,61.73733270,-53.13024424
-54.22682107,-83.41815293,-55.81127169,-66.27230519,-70.82096416,-162.54567362
62.85761948,41.14357879,-57.50776091,-7.37777399,7.32163219,22.74006048,2.89194064
0.73501776,-3.05983222

>  <Name>
1mwl

>  <RI>
0

>  <Rbt.Current_Directory>
/home/itssahil/PROJECTS/Mol_Feturizer/New_Systems/rnas/1mwl

>  <Rbt.Executable>
rbdock ($Id: //depot/dev/client3/rdock/2013.1/src/exe/rbdock.cxx#4 $)

>  <Rbt.Library>
libRbt.so (2013.1, Build901 2013/11/27)

>  <Rbt.Parameter_File>
/export/apps/rDock/src/rDock_2013.1_src/data/scripts/dock_solv.prm

>  <Rbt.Receptor>
prm/pocket_docking_7.prm

>  <SCORE>
-59.0336

>  <SCORE.INTER>
-40.2132

>  <SCORE.INTER.CONST>
1

>  <SCORE.INTER.POLAR>
-5.2167

>  <SCORE.INTER.ROT>
6

>  <SCORE.INTER.SOLV>
20.3358

>  <SCORE.INTER.VDW>
-23.7984

>  <SCORE.INTER.norm>
-1.18274

>  <SCORE.INTRA>
-18.8204

>  <SCORE.INTRA.DIHEDRAL>
-36.158

>  <SCORE.INTRA.DIHEDRAL.0>
42.0816

>  <SCORE.INTRA.POLAR>
0.207356

>  <SCORE.INTRA.POLAR.0>
-0.254682

>  <SCORE.INTRA.REPUL>
0

>  <SCORE.INTRA.REPUL.0>
0

>  <SCORE.INTRA.SOLV>
-0.58674

>  <SCORE.INTRA.SOLV.lig_0>
-109.803

>  <SCORE.INTRA.VDW>
-1.15302

>  <SCORE.INTRA.VDW.0>
0.32176

>  <SCORE.INTRA.norm>
-0.553541

>  <SCORE.RESTR>
0

>  <SCORE.RESTR.CAVITY>
0

>  <SCORE.RESTR.norm>
0

>  <SCORE.SYSTEM>
0

>  <SCORE.SYSTEM.CONST>
0

>  <SCORE.SYSTEM.DIHEDRAL>
0

>  <SCORE.SYSTEM.SOLV>
0

>  <SCORE.SYSTEM.norm>
0

>  <SCORE.heavy>
34

>  <SCORE.norm>
-1.73628

>  <RMSD>
10.399

$$$$
1mwl
 OpenBabel11021811403D
libRbt.so/2013.1/901 2013/11/27
 34 36  0  0  0  0  0  0  0  0999 V2000
   -1.1080    4.5575   15.0932 C   0  0  2  0  0  0  0  0  0  0  0  0
   -1.0329    3.9922   13.8191 O   0  0  0  0  0  0  0  0  0  0  0  0
   -1.2093    6.0984   14.9136 C   0  0  2  0  0  0  0  0  0  0  0  0
   -2.3903    6.4373   14.1136 N   0  3  0  0  0  0  0  0  0  0  0  0
    0.0930    6.6630   14.2744 C   0  0  1  0  0  0  0  0  0  0  0  0
    0.0223    8.0108   14.1379 O   0  0  0  0  0  0  0  0  0  0  0  0
    1.3068    6.2580   15.1744 C   0  0  2  0  0  0  0  0  0  0  0  0
    2.5329    6.7746   14.6157 O   0  0  0  0  0  0  0  0  0  0  0  0
    1.3440    4.6953   15.2779 C   0  0  2  0  0  0  0  0  0  0  0  0
    0.0755    4.1878   15.8459 O   0  0  0  0  0  0  0  0  0  0  0  0
    2.4731    4.1388   16.1528 C   0  0  2  0  0  0  0  0  0  0  0  0
    2.3705    4.6604   17.4376 O   0  0  0  0  0  0  0  0  0  0  0  0
    3.8811    4.5059   15.6497 C   0  0  0  0  0  0  0  0  0  0  0  0
   -4.9421    4.1588   12.1013 C   0  0  2  0  0  0  0  0  0  0  0  0
   -6.1661    3.7701   11.3558 N   0  3  0  0  0  0  0  0  0  0  0  0
   -3.7135    4.2256   11.1463 C   0  0  0  0  0  0  0  0  0  0  0  0
   -2.4204    4.6195   11.9481 C   0  0  2  0  0  0  0  0  0  0  0  0
   -1.2512    4.6851   10.9965 N   0  3  0  0  0  0  0  0  0  0  0  0
   -2.1801    3.5739   13.0905 C   0  0  2  0  0  0  0  0  0  0  0  0
   -3.4130    3.5373   14.0262 C   0  0  2  0  0  0  0  0  0  0  0  0
   -3.2001    2.5716   15.0272 O   0  0  0  0  0  0  0  0  0  0  0  0
   -4.6776    3.1316   13.2227 C   0  0  1  0  0  0  0  0  0  0  0  0
   -5.7939    3.1022   14.0999 O   0  0  0  0  0  0  0  0  0  0  0  0
   -5.7227    3.8181   15.3020 C   0  0  2  0  0  0  0  0  0  0  0  0
   -7.1662    4.0580   15.7831 C   0  0  2  0  0  0  0  0  0  0  0  0
   -7.7880    2.8114   16.0113 O   0  0  0  0  0  0  0  0  0  0  0  0
   -7.9408    4.8757   14.6939 C   0  0  1  0  0  0  0  0  0  0  0  0
   -9.3541    5.1243   15.0692 N   0  3  0  0  0  0  0  0  0  0  0  0
  -10.2404    5.0236   13.8816 C   0  0  0  0  0  0  0  0  0  0  0  0
   -7.2039    6.2378   14.4519 C   0  0  2  0  0  0  0  0  0  0  0  0
   -7.1638    6.9971   15.6747 O   0  0  0  0  0  0  0  0  0  0  0  0
   -7.8744    7.0510   13.4536 C   0  0  0  0  0  0  0  0  0  0  0  0
   -5.7186    5.9792   14.0520 C   0  0  0  0  0  0  0  0  0  0  0  0
   -5.0448    5.1045   15.0667 O   0  0  0  0  0  0  0  0  0  0  0  0
  1  2  1  6  0  0  0
  1  3  1  0  0  0  0
  1 10  1  0  0  0  0
  3  4  1  6  0  0  0
  3  5  1  0  0  0  0
  5  6  1  1  0  0  0
  5  7  1  0  0  0  0
  7  8  1  6  0  0  0
  7  9  1  0  0  0  0
  9 10  1  1  0  0  0
  9 11  1  0  0  0  0
 11 12  1  1  0  0  0
 11 13  1  0  0  0  0
 14 15  1  6  0  0  0
 14 16  1  0  0  0  0
 14 22  1  0  0  0  0
 16 17  1  0  0  0  0
 17 18  1  6  0  0  0
 17 19  1  0  0  0  0
 19  2  1  1  0  0  0
 19 20  1  0  0  0  0
 20 21  1  1  0  0  0
 20 22  1  0  0  0  0
 22 23  1  1  0  0  0
 24 23  1  6  0  0  0
 24 25  1  0  0  0  0
 24 34  1  0  0  0  0
 25 26  1  6  0  0  0
 25 27  1  0  0  0  0
 27 28  1  1  0  0  0
 27 30  1  0  0  0  0
 28 29  1  0  0  0  0
 30 31  1  1  0  0  0
 30 32  1  0  0  0  0
 30 33  1  0  0  0  0
 33 34  1  0  0  0  0
M  CHG  4   4   1  15   1  18   1  28   1
M  END
>  <CHROM.1>
-91.22722243,106.20453125,-89.40941521,-162.69930650,52.54493450,57.84068748
177.27621945,-58.65177349,-179.36091631,15.56776858,-99.35606365,159.20214732
58.09061412,-21.88792312,172.04492987,-3.24459430,4.88099449,14.33178405
0.09677756,0.04066397,1.44766041

>  <Name>
1mwl

>  <RI>
0

>  <Rbt.Current_Directory>
/home/itssahil/PROJECTS/Mol_Feturizer/New_Systems/rnas/1mwl

>  <Rbt.Executable>
rbdock ($Id: //depot/dev/client3/rdock/2013.1/src/exe/rbdock.cxx#4 $)

>  <Rbt.Library>
libRbt.so (2013.1, Build901 2013/11/27)

>  <Rbt.Parameter_File>
/export/apps/rDock/src/rDock_2013.1_src/data/scripts/dock_solv.prm

>  <Rbt.Receptor>
prm/blind_docking_20.prm

>  <SCORE>
31.3216

>  <SCORE.INTER>
1.08325

>  <SCORE.INTER.CONST>
1

>  <SCORE.INTER.POLAR>
-3.37147

>  <SCORE.INTER.ROT>
6

>  <SCORE.INTER.SOLV>
18.2023

>  <SCORE.INTER.VDW>
-1.70703

>  <SCORE.INTER.norm>
0.0318602

>  <SCORE.INTRA>
4.13264

>  <SCORE.INTRA.DIHEDRAL>
-12.3588

>  <SCORE.INTRA.DIHEDRAL.0>
42.0816

>  <SCORE.INTRA.POLAR>
-0.851328

>  <SCORE.INTRA.POLAR.0>
-0.254682

>  <SCORE.INTRA.REPUL>
0

>  <SCORE.INTRA.REPUL.0>
0

>  <SCORE.INTRA.SOLV>
5.63487

>  <SCORE.INTRA.SOLV.lig_0>
-109.803

>  <SCORE.INTRA.VDW>
10.3891

>  <SCORE.INTRA.VDW.0>
0.32176

>  <SCORE.INTRA.norm>
0.121548

>  <SCORE.RESTR>
26.1057

>  <SCORE.RESTR.CAVITY>
26.1057

>  <SCORE.RESTR.norm>
0.767814

>  <SCORE.SYSTEM>
0

>  <SCORE.SYSTEM.CONST>
0

>  <SCORE.SYSTEM.DIHEDRAL>
0

>  <SCORE.SYSTEM.SOLV>
0

>  <SCORE.SYSTEM.norm>
0

>  <SCORE.heavy>
34

>  <SCORE.norm>
0.921223

>  <RMSD>
10.601

$$$$
1mwl
 OpenBabel11021811403D
libRbt.so/2013.1/901 2013/11/27
 34 36  0  0  0  0  0  0  0  0999 V2000
   -8.7339    5.1026   14.1257 C   0  0  2  0  0  0  0  0  0  0  0  0
   -8.0972    6.3079   13.8247 O   0  0  0  0  0  0  0  0  0  0  0  0
   -9.2449    5.1995   15.5908 C   0  0  2  0  0  0  0  0  0  0  0  0
  -10.1638    6.3332   15.7315 N   0  3  0  0  0  0  0  0  0  0  0  0
   -8.0499    5.3080   16.5826 C   0  0  1  0  0  0  0  0  0  0  0  0
   -8.4872    5.3672   17.8654 O   0  0  0  0  0  0  0  0  0  0  0  0
   -7.1121    4.0738   16.3710 C   0  0  2  0  0  0  0  0  0  0  0  0
   -5.9959    4.1367   17.2833 O   0  0  0  0  0  0  0  0  0  0  0  0
   -6.6284    4.0719   14.8810 C   0  0  2  0  0  0  0  0  0  0  0  0
   -7.7886    4.0143   13.9644 O   0  0  0  0  0  0  0  0  0  0  0  0
   -5.7123    2.9010   14.5073 C   0  0  2  0  0  0  0  0  0  0  0  0
   -4.5834    2.9121   15.3189 O   0  0  0  0  0  0  0  0  0  0  0  0
   -5.2007    2.9571   13.0562 C   0  0  0  0  0  0  0  0  0  0  0  0
   -4.9347    5.2544   11.1511 C   0  0  2  0  0  0  0  0  0  0  0  0
   -3.9282    5.3418   10.0626 N   0  3  0  0  0  0  0  0  0  0  0  0
   -6.3780    5.3695   10.5770 C   0  0  0  0  0  0  0  0  0  0  0  0
   -7.4343    5.2944   11.7384 C   0  0  2  0  0  0  0  0  0  0  0  0
   -8.8204    5.3990   11.1515 N   0  3  0  0  0  0  0  0  0  0  0  0
   -7.1533    6.4407   12.7696 C   0  0  2  0  0  0  0  0  0  0  0  0
   -5.7165    6.2939   13.3276 C   0  0  2  0  0  0  0  0  0  0  0  0
   -5.4641    7.3472   14.2259 O   0  0  0  0  0  0  0  0  0  0  0  0
   -4.6856    6.3860   12.1709 C   0  0  1  0  0  0  0  0  0  0  0  0
   -3.3769    6.2516   12.7051 O   0  0  0  0  0  0  0  0  0  0  0  0
   -3.2151    6.2621   14.0967 C   0  0  2  0  0  0  0  0  0  0  0  0
   -1.8150    6.8311   14.3947 C   0  0  2  0  0  0  0  0  0  0  0  0
   -1.7400    8.1510   13.9000 O   0  0  0  0  0  0  0  0  0  0  0  0
   -0.7359    5.9199   13.7163 C   0  0  1  0  0  0  0  0  0  0  0  0
    0.6445    6.4181   13.9319 N   0  3  0  0  0  0  0  0  0  0  0  0
    1.3554    6.5774   12.6376 C   0  0  0  0  0  0  0  0  0  0  0  0
   -0.8709    4.4606   14.2726 C   0  0  2  0  0  0  0  0  0  0  0  0
   -0.6645    4.4585   15.6976 O   0  0  0  0  0  0  0  0  0  0  0  0
    0.1067    3.5610   13.6874 C   0  0  0  0  0  0  0  0  0  0  0  0
   -2.3203    3.9321   14.0426 C   0  0  0  0  0  0  0  0  0  0  0  0
   -3.3258    4.8872   14.6133 O   0  0  0  0  0  0  0  0  0  0  0  0
  1  2  1  1  0  0  0
  1  3  1  0  0  0  0
  1 10  1  0  0  0  0
  3  4  1  6  0  0  0
  3  5  1  0  0  0  0
  5  6  1  1  0  0  0
  5  7  1  0  0  0  0
  7  8  1  1  0  0  0
  7  9  1  0  0  0  0
  9 10  1  6  0  0  0
  9 11  1  0  0  0  0
 11 12  1  1  0  0  0
 11 13  1  0  0  0  0
 14 15  1  6  0  0  0
 14 16  1  0  0  0  0
 14 22  1  0  0  0  0
 16 17  1  0  0  0  0
 17 18  1  6  0  0  0
 17 19  1  0  0  0  0
 19  2  1  1  0  0  0
 19 20  1  0  0  0  0
 20 21  1  1  0  0  0
 20 22  1  0  0  0  0
 22 23  1  1  0  0  0
 24 23  1  6  0  0  0
 24 25  1  0  0  0  0
 24 34  1  0  0  0  0
 25 26  1  6  0  0  0
 25 27  1  0  0  0  0
 27 28  1  1  0  0  0
 27 30  1  0  0  0  0
 28 29  1  0  0  0  0
 30 31  1  1  0  0  0
 30 32  1  0  0  0  0
 30 33  1  0  0  0  0
 33 34  1  0  0  0  0
M  CHG  4   4   1  15   1  18   1  28   1
M  END
>  <CHROM.1>
159.24497357,23.36749567,125.30879888,-56.21538518,16.32166529,-58.65928299
179.73386869,-165.37580934,-45.89431401,70.86056345,-129.12732816,-150.93696524
-175.71517960,-6.09142692,47.11697125,-4.88543763,5.29810582,13.96922453
2.99098905,0.01616173,1.81861300

>  <Name>
1mwl

>  <RI>
0

>  <Rbt.Current_Directory>
/home/itssahil/PROJECTS/Mol_Feturizer/New_Systems/rnas/1mwl

>  <Rbt.Executable>
rbdock ($Id: //depot/dev/client3/rdock/2013.1/src/exe/rbdock.cxx#4 $)

>  <Rbt.Library>
libRbt.so (2013.1, Build901 2013/11/27)

>  <Rbt.Parameter_File>
/export/apps/rDock/src/rDock_2013.1_src/data/scripts/dock_solv.prm

>  <Rbt.Receptor>
prm/blind_docking_20.prm

>  <SCORE>
29.8407

>  <SCORE.INTER>
5.29356

>  <SCORE.INTER.CONST>
1

>  <SCORE.INTER.POLAR>
-4.99197

>  <SCORE.INTER.ROT>
6

>  <SCORE.INTER.SOLV>
22.6205

>  <SCORE.INTER.VDW>
5.02878

>  <SCORE.INTER.norm>
0.155693

>  <SCORE.INTRA>
4.03352

>  <SCORE.INTRA.DIHEDRAL>
-9.69499

>  <SCORE.INTRA.DIHEDRAL.0>
42.0816

>  <SCORE.INTRA.POLAR>
0.210446

>  <SCORE.INTRA.POLAR.0>
-0.254682

>  <SCORE.INTRA.REPUL>
0.0425075

>  <SCORE.INTRA.REPUL.0>
0

>  <SCORE.INTRA.SOLV>
-0.0521677

>  <SCORE.INTRA.SOLV.lig_0>
-109.803

>  <SCORE.INTRA.VDW>
7.97904

>  <SCORE.INTRA.VDW.0>
0.32176

>  <SCORE.INTRA.norm>
0.118633

>  <SCORE.RESTR>
20.5137

>  <SCORE.RESTR.CAVITY>
20.5137

>  <SCORE.RESTR.norm>
0.603343

>  <SCORE.SYSTEM>
0

>  <SCORE.SYSTEM.CONST>
0

>  <SCORE.SYSTEM.DIHEDRAL>
0

>  <SCORE.SYSTEM.SOLV>
0

>  <SCORE.SYSTEM.norm>
0

>  <SCORE.heavy>
34

>  <SCORE.norm>
0.877669

>  <RMSD>
10.689

$$$$
1mwl
 OpenBabel11021811403D
libRbt.so/2013.1/901 2013/11/27
 34 36  0  0  0  0  0  0  0  0999 V2000
   -8.3861    5.5469   14.5617 C   0  0  2  0  0  0  0  0  0  0  0  0
   -7.5809    6.6872   14.5543 O   0  0  0  0  0  0  0  0  0  0  0  0
   -8.9142    5.3595   16.0118 C   0  0  2  0  0  0  0  0  0  0  0  0
   -9.6698    6.5438   16.4315 N   0  3  0  0  0  0  0  0  0  0  0  0
   -7.7402    5.0569   16.9885 C   0  0  1  0  0  0  0  0  0  0  0  0
   -8.1962    4.8668   18.2518 O   0  0  0  0  0  0  0  0  0  0  0  0
   -6.9782    3.7906   16.4755 C   0  0  2  0  0  0  0  0  0  0  0  0
   -5.8866    3.4745   17.3647 O   0  0  0  0  0  0  0  0  0  0  0  0
   -6.4634    4.0790   15.0244 C   0  0  2  0  0  0  0  0  0  0  0  0
   -7.5976    4.4075   14.1328 O   0  0  0  0  0  0  0  0  0  0  0  0
   -5.7101    2.9155   14.3697 C   0  0  2  0  0  0  0  0  0  0  0  0
   -4.5422    2.6559   15.0782 O   0  0  0  0  0  0  0  0  0  0  0  0
   -5.2803    3.1978   12.9186 C   0  0  0  0  0  0  0  0  0  0  0  0
   -4.7479    5.8255   11.4736 C   0  0  2  0  0  0  0  0  0  0  0  0
   -3.6955    6.0092   10.4420 N   0  3  0  0  0  0  0  0  0  0  0  0
   -6.0373    6.6109   11.0910 C   0  0  0  0  0  0  0  0  0  0  0  0
   -7.1376    6.4249   12.1976 C   0  0  2  0  0  0  0  0  0  0  0  0
   -8.3754    7.1882   11.7952 N   0  3  0  0  0  0  0  0  0  0  0  0
   -6.5755    6.9169   13.5755 C   0  0  2  0  0  0  0  0  0  0  0  0
   -5.3014    6.1125   13.9314 C   0  0  2  0  0  0  0  0  0  0  0  0
   -4.7870    6.5859   15.1526 O   0  0  0  0  0  0  0  0  0  0  0  0
   -4.2199    6.3195   12.8374 C   0  0  1  0  0  0  0  0  0  0  0  0
   -3.0612    5.5759   13.1851 O   0  0  0  0  0  0  0  0  0  0  0  0
   -2.5133    5.7447   14.4634 C   0  0  2  0  0  0  0  0  0  0  0  0
   -1.2542    6.6195   14.3146 C   0  0  2  0  0  0  0  0  0  0  0  0
   -1.6264    7.8760   13.7899 O   0  0  0  0  0  0  0  0  0  0  0  0
   -0.2378    5.8983   13.3649 C   0  0  1  0  0  0  0  0  0  0  0  0
    0.9953    6.6926   13.1449 N   0  3  0  0  0  0  0  0  0  0  0  0
    0.8799    7.5150   11.9134 C   0  0  0  0  0  0  0  0  0  0  0  0
    0.1278    4.4990   13.9694 C   0  0  2  0  0  0  0  0  0  0  0  0
    0.7297    4.6680   15.2665 O   0  0  0  0  0  0  0  0  0  0  0  0
    1.0738    3.7762   13.1387 C   0  0  0  0  0  0  0  0  0  0  0  0
   -1.1669    3.6594   14.1970 C   0  0  0  0  0  0  0  0  0  0  0  0
   -2.1556    4.4291   15.0209 O   0  0  0  0  0  0  0  0  0  0  0  0
  1  2  1  1  0  0  0
  1  3  1  0  0  0  0
  1 10  1  0  0  0  0
  3  4  1  1  0  0  0
  3  5  1  0  0  0  0
  5  6  1  1  0  0  0
  5  7  1  0  0  0  0
  7  8  1  1  0  0  0
  7  9  1  0  0  0  0
  9 10  1  6  0  0  0
  9 11  1  0  0  0  0
 11 12  1  1  0  0  0
 11 13  1  0  0  0  0
 14 15  1  6  0  0  0
 14 16  1  0  0  0  0
 14 22  1  0  0  0  0
 16 17  1  0  0  0  0
 17 18  1  6  0  0  0
 17 19  1  0  0  0  0
 19  2  1  1  0  0  0
 19 20  1  0  0  0  0
 20 21  1  1  0  0  0
 20 22  1  0  0  0  0
 22 23  1  1  0  0  0
 24 23  1  6  0  0  0
 24 25  1  0  0  0  0
 24 34  1  0  0  0  0
 25 26  1  6  0  0  0
 25 27  1  0  0  0  0
 27 28  1  1  0  0  0
 27 30  1  0  0  0  0
 28 29  1  0  0  0  0
 30 31  1  1  0  0  0
 30 32  1  0  0  0  0
 30 33  1  0  0  0  0
 33 34  1  0  0  0  0
M  CHG  4   4   1  15   1  18   1  28   1
M  END
>  <CHROM.1>
157.34149971,38.99932906,167.56124322,68.87541032,-176.73344278,-64.31277721
-57.64422673,-161.86438396,73.00493928,-50.36097163,-172.14010942,-103.97692132
72.34797474,25.91717006,67.07538018,-4.46584565,5.41230075,14.15602524,2.91720513
-0.10411140,2.13713834

>  <Name>
1mwl

>  <RI>
0

>  <Rbt.Current_Directory>
/home/itssahil/PROJECTS/Mol_Feturizer/New_Systems/rnas/1mwl

>  <Rbt.Executable>
rbdock ($Id: //depot/dev/client3/rdock/2013.1/src/exe/rbdock.cxx#4 $)

>  <Rbt.Library>
libRbt.so (2013.1, Build901 2013/11/27)

>  <Rbt.Parameter_File>
/export/apps/rDock/src/rDock_2013.1_src/data/scripts/dock_solv.prm

>  <Rbt.Receptor>
prm/blind_docking_20.prm

>  <SCORE>
12.0667

>  <SCORE.INTER>
7.29803

>  <SCORE.INTER.CONST>
1

>  <SCORE.INTER.POLAR>
-5.41365

>  <SCORE.INTER.ROT>
6

>  <SCORE.INTER.SOLV>
29.4005

>  <SCORE.INTER.VDW>
5.51071

>  <SCORE.INTER.norm>
0.214648

>  <SCORE.INTRA>
-12.9674

>  <SCORE.INTRA.DIHEDRAL>
-25.7599

>  <SCORE.INTRA.DIHEDRAL.0>
42.0816

>  <SCORE.INTRA.POLAR>
-1.03967

>  <SCORE.INTRA.POLAR.0>
-0.254682

>  <SCORE.INTRA.REPUL>
0

>  <SCORE.INTRA.REPUL.0>
0

>  <SCORE.INTRA.SOLV>
-1.36392

>  <SCORE.INTRA.SOLV.lig_0>
-109.803

>  <SCORE.INTRA.VDW>
4.12942

>  <SCORE.INTRA.VDW.0>
0.32176

>  <SCORE.INTRA.norm>
-0.381393

>  <SCORE.RESTR>
17.7361

>  <SCORE.RESTR.CAVITY>
17.7361

>  <SCORE.RESTR.norm>
0.521649

>  <SCORE.SYSTEM>
0

>  <SCORE.SYSTEM.CONST>
0

>  <SCORE.SYSTEM.DIHEDRAL>
0

>  <SCORE.SYSTEM.SOLV>
0

>  <SCORE.SYSTEM.norm>
0

>  <SCORE.heavy>
34

>  <SCORE.norm>
0.354903

>  <RMSD>
10.816

$$$$
1mwl
 OpenBabel11021811403D
libRbt.so/2013.1/901 2013/11/27
 34 36  0  0  0  0  0  0  0  0999 V2000
   -8.3941    5.6765   14.5996 C   0  0  2  0  0  0  0  0  0  0  0  0
   -7.5787    6.8094   14.5802 O   0  0  0  0  0  0  0  0  0  0  0  0
   -8.8782    5.4766   16.0634 C   0  0  2  0  0  0  0  0  0  0  0  0
   -9.6088    6.6627   16.5205 N   0  3  0  0  0  0  0  0  0  0  0  0
   -7.6770    5.1516   16.9989 C   0  0  1  0  0  0  0  0  0  0  0  0
   -8.0948    4.9505   18.2738 O   0  0  0  0  0  0  0  0  0  0  0  0
   -6.9437    3.8845   16.4475 C   0  0  2  0  0  0  0  0  0  0  0  0
   -5.8277    3.5477   17.2981 O   0  0  0  0  0  0  0  0  0  0  0  0
   -6.4719    4.1855   14.9843 C   0  0  2  0  0  0  0  0  0  0  0  0
   -7.6304    4.5351   14.1328 O   0  0  0  0  0  0  0  0  0  0  0  0
   -5.7507    3.0230   14.2927 C   0  0  2  0  0  0  0  0  0  0  0  0
   -4.4090    3.3426   14.1166 O   0  0  0  0  0  0  0  0  0  0  0  0
   -6.3041    2.6994   12.8929 C   0  0  0  0  0  0  0  0  0  0  0  0
   -4.7212    5.8933   11.5380 C   0  0  2  0  0  0  0  0  0  0  0  0
   -3.6716    6.0608   10.5008 N   0  3  0  0  0  0  0  0  0  0  0  0
   -6.0277    6.6331   11.1238 C   0  0  0  0  0  0  0  0  0  0  0  0
   -7.1254    6.4652   12.2360 C   0  0  2  0  0  0  0  0  0  0  0  0
   -8.3798    7.1832   11.8029 N   0  3  0  0  0  0  0  0  0  0  0  0
   -6.5772    7.0237   13.5939 C   0  0  2  0  0  0  0  0  0  0  0  0
   -5.2854    6.2636   13.9821 C   0  0  2  0  0  0  0  0  0  0  0  0
   -4.7842    6.7963   15.1843 O   0  0  0  0  0  0  0  0  0  0  0  0
   -4.2071    6.4525   12.8817 C   0  0  1  0  0  0  0  0  0  0  0  0
   -3.0321    5.7502   13.2593 O   0  0  0  0  0  0  0  0  0  0  0  0
   -2.4827    5.9919   14.5252 C   0  0  2  0  0  0  0  0  0  0  0  0
   -1.1735    6.7769   14.3183 C   0  0  2  0  0  0  0  0  0  0  0  0
   -1.4684    8.0053   13.6884 O   0  0  0  0  0  0  0  0  0  0  0  0
   -0.1958    5.9221   13.4418 C   0  0  1  0  0  0  0  0  0  0  0  0
    1.0831    6.6227   13.1703 N   0  3  0  0  0  0  0  0  0  0  0  0
    1.0230    7.3461   11.8745 C   0  0  0  0  0  0  0  0  0  0  0  0
    0.0837    4.5587   14.1629 C   0  0  2  0  0  0  0  0  0  0  0  0
    0.6870    4.7990   15.4481 O   0  0  0  0  0  0  0  0  0  0  0  0
    0.9904    3.7161   13.4045 C   0  0  0  0  0  0  0  0  0  0  0  0
   -1.2593    3.8172   14.4451 C   0  0  0  0  0  0  0  0  0  0  0  0
   -2.2058    4.7084   15.1925 O   0  0  0  0  0  0  0  0  0  0  0  0
  1  2  1  1  0  0  0
  1  3  1  0  0  0  0
  1 10  1  0  0  0  0
  3  4  1  1  0  0  0
  3  5  1  0  0  0  0
  5  6  1  1  0  0  0
  5  7  1  0  0  0  0
  7  8  1  1  0  0  0
  7  9  1  0  0  0  0
  9 10  1  6  0  0  0
  9 11  1  0  0  0  0
 11 12  1  6  0  0  0
 11 13  1  0  0  0  0
 14 15  1  6  0  0  0
 14 16  1  0  0  0  0
 14 22  1  0  0  0  0
 16 17  1  0  0  0  0
 17 18  1  6  0  0  0
 17 19  1  0  0  0  0
 19  2  1  1  0  0  0
 19 20  1  0  0  0  0
 20 21  1  1  0  0  0
 20 22  1  0  0  0  0
 22 23  1  1  0  0  0
 24 23  1  6  0  0  0
 24 25  1  0  0  0  0
 24 34  1  0  0  0  0
 25 26  1  6  0  0  0
 25 27  1  0  0  0  0
 27 28  1  1  0  0  0
 27 30  1  0  0  0  0
 28 29  1  0  0  0  0
 30 31  1  1  0  0  0
 30 32  1  0  0  0  0
 30 33  1  0  0  0  0
 33 34  1  0  0  0  0
M  CHG  4   4   1  15   1  18   1  28   1
M  END
>  <CHROM.1>
155.54878339,36.32802939,-71.21069132,-166.53533115,178.27378775,-111.41658392
59.90124316,-164.57798893,69.20922963,47.35750101,-172.79299622,-108.93532461
67.30869507,25.93043066,-55.61345949,-4.46900377,5.50734110,14.16986694,2.93083303
-0.08017124,2.08195582

>  <Name>
1mwl

>  <RI>
0

>  <Rbt.Current_Directory>
/home/itssahil/PROJECTS/Mol_Feturizer/New_Systems/rnas/1mwl

>  <Rbt.Executable>
rbdock ($Id: //depot/dev/client3/rdock/2013.1/src/exe/rbdock.cxx#4 $)

>  <Rbt.Library>
libRbt.so (2013.1, Build901 2013/11/27)

>  <Rbt.Parameter_File>
/export/apps/rDock/src/rDock_2013.1_src/data/scripts/dock_solv.prm

>  <Rbt.Receptor>
prm/blind_docking_20.prm

>  <SCORE>
23.9621

>  <SCORE.INTER>
13.8673

>  <SCORE.INTER.CONST>
1

>  <SCORE.INTER.POLAR>
-4.55609

>  <SCORE.INTER.ROT>
6

>  <SCORE.INTER.SOLV>
29.5483

>  <SCORE.INTER.VDW>
6.9824

>  <SCORE.INTER.norm>
0.407862

>  <SCORE.INTRA>
-6.62281

>  <SCORE.INTRA.DIHEDRAL>
-19.7795

>  <SCORE.INTRA.DIHEDRAL.0>
42.0816

>  <SCORE.INTRA.POLAR>
-0.122318

>  <SCORE.INTRA.POLAR.0>
-0.254682

>  <SCORE.INTRA.REPUL>
0

>  <SCORE.INTRA.REPUL.0>
0

>  <SCORE.INTRA.SOLV>
-0.776675

>  <SCORE.INTRA.SOLV.lig_0>
-109.803

>  <SCORE.INTRA.VDW>
4.07118

>  <SCORE.INTRA.VDW.0>
0.32176

>  <SCORE.INTRA.norm>
-0.194789

>  <SCORE.RESTR>
16.7176

>  <SCORE.RESTR.CAVITY>
16.7176

>  <SCORE.RESTR.norm>
0.491695

>  <SCORE.SYSTEM>
0

>  <SCORE.SYSTEM.CONST>
0

>  <SCORE.SYSTEM.DIHEDRAL>
0

>  <SCORE.SYSTEM.SOLV>
0

>  <SCORE.SYSTEM.norm>
0

>  <SCORE.heavy>
34

>  <SCORE.norm>
0.704769

>  <RMSD>
10.829

$$$$
1mwl
 OpenBabel11021811403D
libRbt.so/2013.1/901 2013/11/27
 34 36  0  0  0  0  0  0  0  0999 V2000
   -8.4913    5.3852   14.5173 C   0  0  2  0  0  0  0  0  0  0  0  0
   -7.6177    6.4709   14.5997 O   0  0  0  0  0  0  0  0  0  0  0  0
   -9.1691    5.2267   15.9074 C   0  0  2  0  0  0  0  0  0  0  0  0
   -9.8844    6.4559   16.2639 N   0  3  0  0  0  0  0  0  0  0  0  0
   -8.1178    4.8448   16.9902 C   0  0  1  0  0  0  0  0  0  0  0  0
   -8.7059    4.6797   18.2014 O   0  0  0  0  0  0  0  0  0  0  0  0
   -7.3923    3.5337   16.5406 C   0  0  2  0  0  0  0  0  0  0  0  0
   -6.4151    3.1440   17.5283 O   0  0  0  0  0  0  0  0  0  0  0  0
   -6.7210    3.7938   15.1493 C   0  0  2  0  0  0  0  0  0  0  0  0
   -7.7395    4.1987   14.1553 O   0  0  0  0  0  0  0  0  0  0  0  0
   -5.9837    2.5864   14.5590 C   0  0  2  0  0  0  0  0  0  0  0  0
   -5.0496    3.0192   13.6244 O   0  0  0  0  0  0  0  0  0  0  0  0
   -6.9074    1.6005   13.8206 C   0  0  0  0  0  0  0  0  0  0  0  0
   -4.7348    5.7438   11.5306 C   0  0  2  0  0  0  0  0  0  0  0  0
   -3.7031    5.9791   10.4886 N   0  3  0  0  0  0  0  0  0  0  0  0
   -6.0828    6.4146   11.1321 C   0  0  0  0  0  0  0  0  0  0  0  0
   -7.1621    6.1755   12.2493 C   0  0  2  0  0  0  0  0  0  0  0  0
   -8.4570    6.8277   11.8315 N   0  3  0  0  0  0  0  0  0  0  0  0
   -6.6362    6.7498   13.6095 C   0  0  2  0  0  0  0  0  0  0  0  0
   -5.3020    6.0582   13.9818 C   0  0  2  0  0  0  0  0  0  0  0  0
   -4.8226    6.6056   15.1863 O   0  0  0  0  0  0  0  0  0  0  0  0
   -4.2432    6.3171   12.8768 C   0  0  1  0  0  0  0  0  0  0  0  0
   -3.0288    5.6767   13.2398 O   0  0  0  0  0  0  0  0  0  0  0  0
   -2.4924    5.9246   14.5100 C   0  0  2  0  0  0  0  0  0  0  0  0
   -1.1962    6.7335   14.3143 C   0  0  2  0  0  0  0  0  0  0  0  0
   -1.5087    7.9582   13.6858 O   0  0  0  0  0  0  0  0  0  0  0  0
   -0.1974    5.8988   13.4422 C   0  0  1  0  0  0  0  0  0  0  0  0
    1.0706    6.6230   13.1815 N   0  3  0  0  0  0  0  0  0  0  0  0
    0.9883    7.3896   11.9120 C   0  0  0  0  0  0  0  0  0  0  0  0
    0.1016    4.5385   14.1615 C   0  0  2  0  0  0  0  0  0  0  0  0
    0.6917    4.7859   15.4514 O   0  0  0  0  0  0  0  0  0  0  0  0
    1.0284    3.7145   13.4069 C   0  0  0  0  0  0  0  0  0  0  0  0
   -1.2298    3.7723   14.4323 C   0  0  0  0  0  0  0  0  0  0  0  0
   -2.1973    4.6442   15.1757 O   0  0  0  0  0  0  0  0  0  0  0  0
  1  2  1  1  0  0  0
  1  3  1  0  0  0  0
  1 10  1  0  0  0  0
  3  4  1  1  0  0  0
  3  5  1  0  0  0  0
  5  6  1  1  0  0  0
  5  7  1  0  0  0  0
  7  8  1  1  0  0  0
  7  9  1  0  0  0  0
  9 10  1  6  0  0  0
  9 11  1  0  0  0  0
 11 12  1  6  0  0  0
 11 13  1  0  0  0  0
 14 15  1  6  0  0  0
 14 16  1  0  0  0  0
 14 22  1  0  0  0  0
 16 17  1  0  0  0  0
 17 18  1  6  0  0  0
 17 19  1  0  0  0  0
 19  2  1  1  0  0  0
 19 20  1  0  0  0  0
 20 21  1  1  0  0  0
 20 22  1  0  0  0  0
 22 23  1  1  0  0  0
 24 23  1  6  0  0  0
 24 25  1  0  0  0  0
 24 34  1  0  0  0  0
 25 26  1  6  0  0  0
 25 27  1  0  0  0  0
 27 28  1  1  0  0  0
 27 30  1  0  0  0  0
 28 29  1  0  0  0  0
 30 31  1  1  0  0  0
 30 32  1  0  0  0  0
 30 33  1  0  0  0  0
 33 34  1  0  0  0  0
M  CHG  4   4   1  15   1  18   1  28   1
M  END
>  <CHROM.1>
167.18687268,27.55779056,44.67494890,64.62175042,-96.84136706,-158.47250592
67.50616631,76.47248078,-140.97500603,-45.56408155,-172.11546796,-111.48160728
62.86716446,28.02919799,63.23394697,-4.62421871,5.29699451,14.18470688,2.89343834
-0.05015311,2.17823727

>  <Name>
1mwl

>  <RI>
0

>  <Rbt.Current_Directory>
/home/itssahil/PROJECTS/Mol_Feturizer/New_Systems/rnas/1mwl

>  <Rbt.Executable>
rbdock ($Id: //depot/dev/client3/rdock/2013.1/src/exe/rbdock.cxx#4 $)

>  <Rbt.Library>
libRbt.so (2013.1, Build901 2013/11/27)

>  <Rbt.Parameter_File>
/export/apps/rDock/src/rDock_2013.1_src/data/scripts/dock_solv.prm

>  <Rbt.Receptor>
prm/blind_docking_20.prm

>  <SCORE>
17.0617

>  <SCORE.INTER>
3.3717

>  <SCORE.INTER.CONST>
1

>  <SCORE.INTER.POLAR>
-4.73182

>  <SCORE.INTER.ROT>
6

>  <SCORE.INTER.SOLV>
25.4524

>  <SCORE.INTER.VDW>
1.9364

>  <SCORE.INTER.norm>
0.0991675

>  <SCORE.INTRA>
-7.23817

>  <SCORE.INTRA.DIHEDRAL>
-16.3239

>  <SCORE.INTRA.DIHEDRAL.0>
42.0816

>  <SCORE.INTRA.POLAR>
0.254164

>  <SCORE.INTRA.POLAR.0>
-0.254682

>  <SCORE.INTRA.REPUL>
0

>  <SCORE.INTRA.REPUL.0>
0

>  <SCORE.INTRA.SOLV>
-2.05521

>  <SCORE.INTRA.SOLV.lig_0>
-109.803

>  <SCORE.INTRA.VDW>
1.08722

>  <SCORE.INTRA.VDW.0>
0.32176

>  <SCORE.INTRA.norm>
-0.212887

>  <SCORE.RESTR>
20.9282

>  <SCORE.RESTR.CAVITY>
20.9282

>  <SCORE.RESTR.norm>
0.615535

>  <SCORE.SYSTEM>
0

>  <SCORE.SYSTEM.CONST>
0

>  <SCORE.SYSTEM.DIHEDRAL>
0

>  <SCORE.SYSTEM.SOLV>
0

>  <SCORE.SYSTEM.norm>
0

>  <SCORE.heavy>
34

>  <SCORE.norm>
0.501815

>  <RMSD>
10.844

$$$$
1mwl
 OpenBabel11021811403D
libRbt.so/2013.1/901 2013/11/27
 34 36  0  0  0  0  0  0  0  0999 V2000
   -8.6004    5.3564   14.3836 C   0  0  2  0  0  0  0  0  0  0  0  0
   -7.6139    6.3166   14.6146 O   0  0  0  0  0  0  0  0  0  0  0  0
   -9.4200    5.2060   15.6961 C   0  0  2  0  0  0  0  0  0  0  0  0
  -10.0121    6.4934   16.0724 N   0  3  0  0  0  0  0  0  0  0  0  0
   -8.5287    4.6335   16.8369 C   0  0  1  0  0  0  0  0  0  0  0  0
   -9.2435    4.4754   17.9789 O   0  0  0  0  0  0  0  0  0  0  0  0
   -7.9276    3.2690   16.3634 C   0  0  2  0  0  0  0  0  0  0  0  0
   -7.1016    2.7035   17.4028 O   0  0  0  0  0  0  0  0  0  0  0  0
   -7.1022    3.5209   15.0561 C   0  0  2  0  0  0  0  0  0  0  0  0
   -7.9665    4.1069   14.0078 O   0  0  0  0  0  0  0  0  0  0  0  0
   -6.4637    2.2656   14.4507 C   0  0  2  0  0  0  0  0  0  0  0  0
   -5.4778    2.6335   13.5418 O   0  0  0  0  0  0  0  0  0  0  0  0
   -7.4571    1.3815   13.6749 C   0  0  0  0  0  0  0  0  0  0  0  0
   -4.6860    5.7993   11.5455 C   0  0  2  0  0  0  0  0  0  0  0  0
   -3.6522    6.1066   10.5246 N   0  3  0  0  0  0  0  0  0  0  0  0
   -6.0484    6.4499   11.1628 C   0  0  0  0  0  0  0  0  0  0  0  0
   -7.1302    6.1343   12.2583 C   0  0  2  0  0  0  0  0  0  0  0  0
   -8.4389    6.7685   11.8559 N   0  3  0  0  0  0  0  0  0  0  0  0
   -6.6320    6.6640   13.6467 C   0  0  2  0  0  0  0  0  0  0  0  0
   -5.2825    5.9933   14.0023 C   0  0  2  0  0  0  0  0  0  0  0  0
   -4.8287    6.5016   15.2335 O   0  0  0  0  0  0  0  0  0  0  0  0
   -4.2218    6.3276   12.9196 C   0  0  1  0  0  0  0  0  0  0  0  0
   -2.9935    5.7054   13.2669 O   0  0  0  0  0  0  0  0  0  0  0  0
   -2.4291    5.9852   14.5182 C   0  0  2  0  0  0  0  0  0  0  0  0
   -1.1241    6.7659   14.2722 C   0  0  2  0  0  0  0  0  0  0  0  0
   -1.4291    7.9746   13.6101 O   0  0  0  0  0  0  0  0  0  0  0  0
   -0.1555    5.8871   13.4093 C   0  0  1  0  0  0  0  0  0  0  0  0
    1.1186    6.5815   13.1017 N   0  3  0  0  0  0  0  0  0  0  0  0
    0.9982    7.3742   11.8515 C   0  0  0  0  0  0  0  0  0  0  0  0
    0.1354    4.5460   14.1668 C   0  0  2  0  0  0  0  0  0  0  0  0
    0.7539    4.8250   15.4369 O   0  0  0  0  0  0  0  0  0  0  0  0
    1.0344    3.6829   13.4225 C   0  0  0  0  0  0  0  0  0  0  0  0
   -1.2026    3.8110   14.4872 C   0  0  0  0  0  0  0  0  0  0  0  0
   -2.1416    4.7223   15.2196 O   0  0  0  0  0  0  0  0  0  0  0  0
  1  2  1  1  0  0  0
  1  3  1  0  0  0  0
  1 10  1  0  0  0  0
  3  4  1  1  0  0  0
  3  5  1  0  0  0  0
  5  6  1  1  0  0  0
  5  7  1  0  0  0  0
  7  8  1  1  0  0  0
  7  9  1  0  0  0  0
  9 10  1  6  0  0  0
  9 11  1  0  0  0  0
 11 12  1  6  0  0  0
 11 13  1  0  0  0  0
 14 15  1  6  0  0  0
 14 16  1  0  0  0  0
 14 22  1  0  0  0  0
 16 17  1  0  0  0  0
 17 18  1  6  0  0  0
 17 19  1  0  0  0  0
 19  2  1  1  0  0  0
 19 20  1  0  0  0  0
 20 21  1  1  0  0  0
 20 22  1  0  0  0  0
 22 23  1  1  0  0  0
 24 23  1  6  0  0  0
 24 25  1  0  0  0  0
 24 34  1  0  0  0  0
 25 26  1  6  0  0  0
 25 27  1  0  0  0  0
 27 28  1  1  0  0  0
 27 30  1  0  0  0  0
 28 29  1  0  0  0  0
 30 31  1  1  0  0  0
 30 32  1  0  0  0  0
 30 33  1  0  0  0  0
 33 34  1  0  0  0  0
M  CHG  4   4   1  15   1  18   1  28   1
M  END
>  <CHROM.1>
176.79812074,16.57822997,-74.24200705,-177.32524030,-73.68356769,-163.66168191
-49.09052146,76.17763942,-15.05552699,-48.00268401,-176.39192738,-113.05721449
65.17177022,31.43147681,-56.50186708,-4.73878798,5.22411778,14.13370989,2.88439535
-0.03609726,2.27335439

>  <Name>
1mwl

>  <RI>
0

>  <Rbt.Current_Directory>
/home/itssahil/PROJECTS/Mol_Feturizer/New_Systems/rnas/1mwl

>  <Rbt.Executable>
rbdock ($Id: //depot/dev/client3/rdock/2013.1/src/exe/rbdock.cxx#4 $)

>  <Rbt.Library>
libRbt.so (2013.1, Build901 2013/11/27)

>  <Rbt.Parameter_File>
/export/apps/rDock/src/rDock_2013.1_src/data/scripts/dock_solv.prm

>  <Rbt.Receptor>
prm/blind_docking_20.prm

>  <SCORE>
-2.13286

>  <SCORE.INTER>
-18.0641

>  <SCORE.INTER.CONST>
1

>  <SCORE.INTER.POLAR>
-5.28452

>  <SCORE.INTER.ROT>
6

>  <SCORE.INTER.SOLV>
23.8641

>  <SCORE.INTER.VDW>
-9.98239

>  <SCORE.INTER.norm>
-0.531297

>  <SCORE.INTRA>
-8.85648

>  <SCORE.INTRA.DIHEDRAL>
-19.8255

>  <SCORE.INTRA.DIHEDRAL.0>
42.0816

>  <SCORE.INTRA.POLAR>
0.254682

>  <SCORE.INTRA.POLAR.0>
-0.254682

>  <SCORE.INTRA.REPUL>
0

>  <SCORE.INTRA.REPUL.0>
0

>  <SCORE.INTRA.SOLV>
-2.16603

>  <SCORE.INTRA.SOLV.lig_0>
-109.803

>  <SCORE.INTRA.VDW>
1.27334

>  <SCORE.INTRA.VDW.0>
0.32176

>  <SCORE.INTRA.norm>
-0.260485

>  <SCORE.RESTR>
24.7877

>  <SCORE.RESTR.CAVITY>
24.7877

>  <SCORE.RESTR.norm>
0.729051

>  <SCORE.SYSTEM>
0

>  <SCORE.SYSTEM.CONST>
0

>  <SCORE.SYSTEM.DIHEDRAL>
0

>  <SCORE.SYSTEM.SOLV>
0

>  <SCORE.SYSTEM.norm>
0

>  <SCORE.heavy>
34

>  <SCORE.norm>
-0.0627312

>  <RMSD>
10.907

$$$$
1mwl
 OpenBabel11021811403D
libRbt.so/2013.1/901 2013/11/27
 34 36  0  0  0  0  0  0  0  0999 V2000
   -8.2778    5.8211   14.6243 C   0  0  2  0  0  0  0  0  0  0  0  0
   -7.4709    6.9578   14.5503 O   0  0  0  0  0  0  0  0  0  0  0  0
   -8.4440    5.4655   16.1286 C   0  0  2  0  0  0  0  0  0  0  0  0
   -9.0467    6.5904   16.8502 N   0  3  0  0  0  0  0  0  0  0  0  0
   -7.0764    5.0568   16.7500 C   0  0  1  0  0  0  0  0  0  0  0  0
   -7.2178    4.7203   18.0565 O   0  0  0  0  0  0  0  0  0  0  0  0
   -6.4920    3.8611   15.9277 C   0  0  2  0  0  0  0  0  0  0  0  0
   -5.2258    3.4488   16.4834 O   0  0  0  0  0  0  0  0  0  0  0  0
   -6.3365    4.3172   14.4371 C   0  0  2  0  0  0  0  0  0  0  0  0
   -7.6443    4.7419   13.8908 O   0  0  0  0  0  0  0  0  0  0  0  0
   -5.7923    3.2399   13.4920 C   0  0  2  0  0  0  0  0  0  0  0  0
   -6.5153    2.0638   13.6566 O   0  0  0  0  0  0  0  0  0  0  0  0
   -4.3181    2.8796   13.7513 C   0  0  0  0  0  0  0  0  0  0  0  0
   -4.5977    5.8716   11.5797 C   0  0  2  0  0  0  0  0  0  0  0  0
   -3.5216    5.9772   10.5617 N   0  3  0  0  0  0  0  0  0  0  0  0
   -5.8618    6.6619   11.1288 C   0  0  0  0  0  0  0  0  0  0  0  0
   -6.9874    6.5592   12.2208 C   0  0  2  0  0  0  0  0  0  0  0  0
   -8.2001    7.3252   11.7524 N   0  3  0  0  0  0  0  0  0  0  0  0
   -6.4417    7.1131   13.5815 C   0  0  2  0  0  0  0  0  0  0  0  0
   -5.1928    6.3027   14.0065 C   0  0  2  0  0  0  0  0  0  0  0  0
   -4.6920    6.8306   15.2109 O   0  0  0  0  0  0  0  0  0  0  0  0
   -4.0858    6.4275   12.9256 C   0  0  1  0  0  0  0  0  0  0  0  0
   -2.9507    5.6798   13.3367 O   0  0  0  0  0  0  0  0  0  0  0  0
   -2.3683    5.9704   14.5773 C   0  0  2  0  0  0  0  0  0  0  0  0
   -1.0787    6.7681   14.3067 C   0  0  2  0  0  0  0  0  0  0  0  0
   -1.4117    7.9710   13.6473 O   0  0  0  0  0  0  0  0  0  0  0  0
   -0.1134    5.9005   13.4289 C   0  0  1  0  0  0  0  0  0  0  0  0
    1.1455    6.6115   13.0974 N   0  3  0  0  0  0  0  0  0  0  0  0
    1.0062    7.3641   11.8245 C   0  0  0  0  0  0  0  0  0  0  0  0
    0.2091    4.5654   14.1841 C   0  0  2  0  0  0  0  0  0  0  0  0
    0.8458    4.8559   15.4425 O   0  0  0  0  0  0  0  0  0  0  0  0
    1.1066    3.7128   13.4260 C   0  0  0  0  0  0  0  0  0  0  0  0
   -1.1129    3.8130   14.5295 C   0  0  0  0  0  0  0  0  0  0  0  0
   -2.0514    4.7132   15.2763 O   0  0  0  0  0  0  0  0  0  0  0  0
  1  2  1  1  0  0  0
  1  3  1  0  0  0  0
  1 10  1  0  0  0  0
  3  4  1  1  0  0  0
  3  5  1  0  0  0  0
  5  6  1  1  0  0  0
  5  7  1  0  0  0  0
  7  8  1  1  0  0  0
  7  9  1  0  0  0  0
  9 10  1  6  0  0  0
  9 11  1  0  0  0  0
 11 12  1  1  0  0  0
 11 13  1  0  0  0  0
 14 15  1  6  0  0  0
 14 16  1  0  0  0  0
 14 22  1  0  0  0  0
 16 17  1  0  0  0  0
 17 18  1  6  0  0  0
 17 19  1  0  0  0  0
 19  2  1  1  0  0  0
 19 20  1  0  0  0  0
 20 21  1  1  0  0  0
 20 22  1  0  0  0  0
 22 23  1  1  0  0  0
 24 23  1  6  0  0  0
 24 25  1  0  0  0  0
 24 34  1  0  0  0  0
 25 26  1  6  0  0  0
 25 27  1  0  0  0  0
 27 28  1  1  0  0  0
 27 30  1  0  0  0  0
 28 29  1  0  0  0  0
 30 31  1  1  0  0  0
 30 32  1  0  0  0  0
 30 33  1  0  0  0  0
 33 34  1  0  0  0  0
M  CHG  4   4   1  15   1  18   1  28   1
M  END
>  <CHROM.1>
138.39481982,40.73657273,-58.73879958,70.12201888,77.23134822,49.90035669
-59.18567991,75.56910491,-49.17816128,21.24086617,-176.48999729,-103.95523117
164.80359887,29.59837843,-62.32443012,-4.29643943,5.48092410,14.10220743
2.96589004,-0.07808886,2.16930574

>  <Name>
1mwl

>  <RI>
0

>  <Rbt.Current_Directory>
/home/itssahil/PROJECTS/Mol_Feturizer/New_Systems/rnas/1mwl

>  <Rbt.Executable>
rbdock ($Id: //depot/dev/client3/rdock/2013.1/src/exe/rbdock.cxx#4 $)

>  <Rbt.Library>
libRbt.so (2013.1, Build901 2013/11/27)

>  <Rbt.Parameter_File>
/export/apps/rDock/src/rDock_2013.1_src/data/scripts/dock_solv.prm

>  <Rbt.Receptor>
prm/blind_docking_20.prm

>  <SCORE>
34.8736

>  <SCORE.INTER>
11.1781

>  <SCORE.INTER.CONST>
1

>  <SCORE.INTER.POLAR>
-5.1343

>  <SCORE.INTER.ROT>
6

>  <SCORE.INTER.SOLV>
31.8138

>  <SCORE.INTER.VDW>
6.3618

>  <SCORE.INTER.norm>
0.328768

>  <SCORE.INTRA>
7.90744

>  <SCORE.INTRA.DIHEDRAL>
-17.4194

>  <SCORE.INTRA.DIHEDRAL.0>
42.0816

>  <SCORE.INTRA.POLAR>
0.21249

>  <SCORE.INTRA.POLAR.0>
-0.254682

>  <SCORE.INTRA.REPUL>
0.471125

>  <SCORE.INTRA.REPUL.0>
0

>  <SCORE.INTRA.SOLV>
-0.524911

>  <SCORE.INTRA.SOLV.lig_0>
-109.803

>  <SCORE.INTRA.VDW>
13.8015

>  <SCORE.INTRA.VDW.0>
0.32176

>  <SCORE.INTRA.norm>
0.232572

>  <SCORE.RESTR>
15.788

>  <SCORE.RESTR.CAVITY>
15.788

>  <SCORE.RESTR.norm>
0.464354

>  <SCORE.SYSTEM>
0

>  <SCORE.SYSTEM.CONST>
0

>  <SCORE.SYSTEM.DIHEDRAL>
0

>  <SCORE.SYSTEM.SOLV>
0

>  <SCORE.SYSTEM.norm>
0

>  <SCORE.heavy>
34

>  <SCORE.norm>
1.02569

>  <RMSD>
10.964

$$$$
1mwl
 OpenBabel11021811403D
libRbt.so/2013.1/901 2013/11/27
 34 36  0  0  0  0  0  0  0  0999 V2000
   -0.7744    6.7562   12.9121 C   0  0  2  0  0  0  0  0  0  0  0  0
   -0.9941    5.4125   12.6038 O   0  0  0  0  0  0  0  0  0  0  0  0
    0.1514    7.3415   11.8088 C   0  0  2  0  0  0  0  0  0  0  0  0
   -0.4773    7.1963   10.4922 N   0  3  0  0  0  0  0  0  0  0  0  0
    1.5514    6.6617   11.8498 C   0  0  1  0  0  0  0  0  0  0  0  0
    2.3734    7.1854   10.9062 O   0  0  0  0  0  0  0  0  0  0  0  0
    2.1557    6.8500   13.2805 C   0  0  2  0  0  0  0  0  0  0  0  0
    3.4610    6.2391   13.3519 O   0  0  0  0  0  0  0  0  0  0  0  0
    1.1722    6.2112   14.3191 C   0  0  2  0  0  0  0  0  0  0  0  0
   -0.1604    6.8471   14.2231 O   0  0  0  0  0  0  0  0  0  0  0  0
    1.6162    6.3356   15.7810 C   0  0  2  0  0  0  0  0  0  0  0  0
    2.6824    5.4760   16.0214 O   0  0  0  0  0  0  0  0  0  0  0  0
    0.5197    5.9559   16.7929 C   0  0  0  0  0  0  0  0  0  0  0  0
   -4.4209    3.0367   13.5375 C   0  0  2  0  0  0  0  0  0  0  0  0
   -5.3664    2.1677   14.2833 N   0  3  0  0  0  0  0  0  0  0  0  0
   -3.0574    2.3138   13.3273 C   0  0  0  0  0  0  0  0  0  0  0  0
   -2.0583    3.2483   12.5536 C   0  0  2  0  0  0  0  0  0  0  0  0
   -0.7524    2.5185   12.3572 N   0  3  0  0  0  0  0  0  0  0  0  0
   -1.8636    4.5786   13.3590 C   0  0  2  0  0  0  0  0  0  0  0  0
   -3.2331    5.2769   13.5435 C   0  0  2  0  0  0  0  0  0  0  0  0
   -3.0507    6.4515   14.2965 O   0  0  0  0  0  0  0  0  0  0  0  0
   -4.2022    4.3477   14.3224 C   0  0  1  0  0  0  0  0  0  0  0  0
   -5.4490    5.0083   14.4821 O   0  0  0  0  0  0  0  0  0  0  0  0
   -5.5471    6.3562   14.1130 C   0  0  2  0  0  0  0  0  0  0  0  0
   -6.9485    6.8467   14.5232 C   0  0  2  0  0  0  0  0  0  0  0  0
   -7.0855    6.7286   15.9232 O   0  0  0  0  0  0  0  0  0  0  0  0
   -8.0298    5.9875   13.7833 C   0  0  1  0  0  0  0  0  0  0  0  0
   -9.4131    6.3789   14.1484 N   0  3  0  0  0  0  0  0  0  0  0  0
   -9.6694    6.1261   15.5894 C   0  0  0  0  0  0  0  0  0  0  0  0
   -7.8258    6.1250   12.2352 C   0  0  2  0  0  0  0  0  0  0  0  0
   -7.9665    7.5034   11.8432 O   0  0  0  0  0  0  0  0  0  0  0  0
   -8.8018    5.3550   11.4857 C   0  0  0  0  0  0  0  0  0  0  0  0
   -6.3732    5.7091   11.8477 C   0  0  0  0  0  0  0  0  0  0  0  0
   -5.3717    6.4792   12.6557 O   0  0  0  0  0  0  0  0  0  0  0  0
  1  2  1  6  0  0  0
  1  3  1  0  0  0  0
  1 10  1  0  0  0  0
  3  4  1  6  0  0  0
  3  5  1  0  0  0  0
  5  6  1  6  0  0  0
  5  7  1  0  0  0  0
  7  8  1  6  0  0  0
  7  9  1  0  0  0  0
  9 10  1  1  0  0  0
  9 11  1  0  0  0  0
 11 12  1  6  0  0  0
 11 13  1  0  0  0  0
 14 15  1  1  0  0  0
 14 16  1  0  0  0  0
 14 22  1  0  0  0  0
 16 17  1  0  0  0  0
 17 18  1  1  0  0  0
 17 19  1  0  0  0  0
 19  2  1  6  0  0  0
 19 20  1  0  0  0  0
 20 21  1  1  0  0  0
 20 22  1  0  0  0  0
 22 23  1  6  0  0  0
 24 23  1  6  0  0  0
 24 25  1  0  0  0  0
 24 34  1  0  0  0  0
 25 26  1  1  0  0  0
 25 27  1  0  0  0  0
 27 28  1  6  0  0  0
 27 30  1  0  0  0  0
 28 29  1  0  0  0  0
 30 31  1  6  0  0  0
 30 32  1  0  0  0  0
 30 33  1  0  0  0  0
 33 34  1  0  0  0  0
M  CHG  4   4   1  15   1  18   1  28   1
M  END
>  <CHROM.1>
-176.20742746,169.27067413,142.63653224,64.34398339,-159.74801554,-72.64173061
173.40565059,72.00290218,-52.21871687,89.36654883,-128.49396970,-174.33913545
-47.12485362,56.21058510,80.96006596,-3.01441282,5.68522211,13.48966414,0.03770879
-0.01361301,-0.95683509

>  <Name>
1mwl

>  <RI>
0

>  <Rbt.Current_Directory>
/home/itssahil/PROJECTS/Mol_Feturizer/New_Systems/rnas/1mwl

>  <Rbt.Executable>
rbdock ($Id: //depot/dev/client3/rdock/2013.1/src/exe/rbdock.cxx#4 $)

>  <Rbt.Library>
libRbt.so (2013.1, Build901 2013/11/27)

>  <Rbt.Parameter_File>
/export/apps/rDock/src/rDock_2013.1_src/data/scripts/dock_solv.prm

>  <Rbt.Receptor>
prm/blind_docking_20.prm

>  <SCORE>
-0.445694

>  <SCORE.INTER>
-18.7968

>  <SCORE.INTER.CONST>
1

>  <SCORE.INTER.POLAR>
-4.79459

>  <SCORE.INTER.ROT>
6

>  <SCORE.INTER.SOLV>
23.9482

>  <SCORE.INTER.VDW>
-12.132

>  <SCORE.INTER.norm>
-0.552847

>  <SCORE.INTRA>
-6.72624

>  <SCORE.INTRA.DIHEDRAL>
-22.2832

>  <SCORE.INTRA.DIHEDRAL.0>
42.0816

>  <SCORE.INTRA.POLAR>
-0.463601

>  <SCORE.INTRA.POLAR.0>
-0.254682

>  <SCORE.INTRA.REPUL>
0

>  <SCORE.INTRA.REPUL.0>
0

>  <SCORE.INTRA.SOLV>
-4.88844

>  <SCORE.INTRA.SOLV.lig_0>
-109.803

>  <SCORE.INTRA.VDW>
8.43582

>  <SCORE.INTRA.VDW.0>
0.32176

>  <SCORE.INTRA.norm>
-0.197831

>  <SCORE.RESTR>
25.0773

>  <SCORE.RESTR.CAVITY>
25.0773

>  <SCORE.RESTR.norm>
0.737569

>  <SCORE.SYSTEM>
0

>  <SCORE.SYSTEM.CONST>
0

>  <SCORE.SYSTEM.DIHEDRAL>
0

>  <SCORE.SYSTEM.SOLV>
0

>  <SCORE.SYSTEM.norm>
0

>  <SCORE.heavy>
34

>  <SCORE.norm>
-0.0131086

>  <RMSD>
11.002

$$$$
1mwl
 OpenBabel11021811403D
libRbt.so/2013.1/901 2013/11/27
 34 36  0  0  0  0  0  0  0  0999 V2000
   -8.4058    5.5895   14.4530 C   0  0  2  0  0  0  0  0  0  0  0  0
   -7.4960    6.6432   14.5558 O   0  0  0  0  0  0  0  0  0  0  0  0
   -8.8561    5.2210   15.8946 C   0  0  2  0  0  0  0  0  0  0  0  0
   -9.4650    6.3844   16.5467 N   0  3  0  0  0  0  0  0  0  0  0  0
   -7.6571    4.6681   16.7194 C   0  0  1  0  0  0  0  0  0  0  0  0
   -8.0478    4.3203   17.9710 O   0  0  0  0  0  0  0  0  0  0  0  0
   -7.0556    3.4382   15.9624 C   0  0  2  0  0  0  0  0  0  0  0  0
   -5.9453    2.8928   16.7054 O   0  0  0  0  0  0  0  0  0  0  0  0
   -6.6088    3.9073   14.5362 C   0  0  2  0  0  0  0  0  0  0  0  0
   -7.7604    4.4689   13.7960 O   0  0  0  0  0  0  0  0  0  0  0  0
   -6.0151    2.8017   13.6558 C   0  0  2  0  0  0  0  0  0  0  0  0
   -5.4525    3.3630   12.5148 O   0  0  0  0  0  0  0  0  0  0  0  0
   -7.0557    1.7788   13.1648 C   0  0  0  0  0  0  0  0  0  0  0  0
   -4.6195    5.7986   11.5109 C   0  0  2  0  0  0  0  0  0  0  0  0
   -3.5493    5.9873   10.4987 N   0  3  0  0  0  0  0  0  0  0  0  0
   -5.8969    6.5980   11.1172 C   0  0  0  0  0  0  0  0  0  0  0  0
   -7.0164    6.4066   12.2036 C   0  0  2  0  0  0  0  0  0  0  0  0
   -8.2420    7.1837   11.7906 N   0  3  0  0  0  0  0  0  0  0  0  0
   -6.4732    6.8775   13.5962 C   0  0  2  0  0  0  0  0  0  0  0  0
   -5.2108    6.0596   13.9627 C   0  0  2  0  0  0  0  0  0  0  0  0
   -4.7129    6.5142   15.1979 O   0  0  0  0  0  0  0  0  0  0  0  0
   -4.1102    6.2721   12.8890 C   0  0  1  0  0  0  0  0  0  0  0  0
   -2.9626    5.5159   13.2462 O   0  0  0  0  0  0  0  0  0  0  0  0
   -2.4213    5.6814   14.5277 C   0  0  2  0  0  0  0  0  0  0  0  0
   -1.1729    6.5734   14.3901 C   0  0  2  0  0  0  0  0  0  0  0  0
   -1.5595    7.8292   13.8742 O   0  0  0  0  0  0  0  0  0  0  0  0
   -0.1443    5.8729   13.4382 C   0  0  1  0  0  0  0  0  0  0  0  0
    1.0793    6.6848   13.2288 N   0  3  0  0  0  0  0  0  0  0  0  0
    0.9956    7.4456   11.9560 C   0  0  0  0  0  0  0  0  0  0  0  0
    0.2373    4.4737   14.0328 C   0  0  2  0  0  0  0  0  0  0  0  0
    0.8326    4.6399   15.3334 O   0  0  0  0  0  0  0  0  0  0  0  0
    1.1953    3.7697   13.1997 C   0  0  0  0  0  0  0  0  0  0  0  0
   -1.0473    3.6157   14.2493 C   0  0  0  0  0  0  0  0  0  0  0  0
   -2.0485    4.3661   15.0759 O   0  0  0  0  0  0  0  0  0  0  0  0
  1  2  1  1  0  0  0
  1  3  1  0  0  0  0
  1 10  1  0  0  0  0
  3  4  1  1  0  0  0
  3  5  1  0  0  0  0
  5  6  1  1  0  0  0
  5  7  1  0  0  0  0
  7  8  1  1  0  0  0
  7  9  1  0  0  0  0
  9 10  1  6  0  0  0
  9 11  1  0  0  0  0
 11 12  1  6  0  0  0
 11 13  1  0  0  0  0
 14 15  1  6  0  0  0
 14 16  1  0  0  0  0
 14 22  1  0  0  0  0
 16 17  1  0  0  0  0
 17 18  1  6  0  0  0
 17 19  1  0  0  0  0
 19  2  1  1  0  0  0
 19 20  1  0  0  0  0
 20 21  1  1  0  0  0
 20 22  1  0  0  0  0
 22 23  1  1  0  0  0
 24 23  1  6  0  0  0
 24 25  1  0  0  0  0
 24 34  1  0  0  0  0
 25 26  1  6  0  0  0
 25 27  1  0  0  0  0
 27 28  1  1  0  0  0
 27 30  1  0  0  0  0
 28 29  1  0  0  0  0
 30 31  1  1  0  0  0
 30 32  1  0  0  0  0
 30 33  1  0  0  0  0
 33 34  1  0  0  0  0
M  CHG  4   4   1  15   1  18   1  28   1
M  END
>  <CHROM.1>
152.51197568,31.61990908,-58.38762915,62.29293348,55.89581732,-170.07314703
174.43363351,-44.98410482,-168.65314721,-43.73626893,-173.17945865,-102.43946522
-41.60125135,22.09265136,-57.33615836,-4.48728312,5.29592297,14.00854779
2.93766185,-0.04146055,2.17665941

>  <Name>
1mwl

>  <RI>
0

>  <Rbt.Current_Directory>
/home/itssahil/PROJECTS/Mol_Feturizer/New_Systems/rnas/1mwl

>  <Rbt.Executable>
rbdock ($Id: //depot/dev/client3/rdock/2013.1/src/exe/rbdock.cxx#4 $)

>  <Rbt.Library>
libRbt.so (2013.1, Build901 2013/11/27)

>  <Rbt.Parameter_File>
/export/apps/rDock/src/rDock_2013.1_src/data/scripts/dock_solv.prm

>  <Rbt.Receptor>
prm/blind_docking_20.prm

>  <SCORE>
20.6047

>  <SCORE.INTER>
5.58741

>  <SCORE.INTER.CONST>
1

>  <SCORE.INTER.POLAR>
-4.95484

>  <SCORE.INTER.ROT>
6

>  <SCORE.INTER.SOLV>
26.9257

>  <SCORE.INTER.VDW>
3.66583

>  <SCORE.INTER.norm>
0.164336

>  <SCORE.INTRA>
-6.11928

>  <SCORE.INTRA.DIHEDRAL>
-22.7321

>  <SCORE.INTRA.DIHEDRAL.0>
42.0816

>  <SCORE.INTRA.POLAR>
0.254667

>  <SCORE.INTRA.POLAR.0>
-0.254682

>  <SCORE.INTRA.REPUL>
0

>  <SCORE.INTRA.REPUL.0>
0

>  <SCORE.INTRA.SOLV>
-0.52541

>  <SCORE.INTRA.SOLV.lig_0>
-109.803

>  <SCORE.INTRA.VDW>
4.6436

>  <SCORE.INTRA.VDW.0>
0.32176

>  <SCORE.INTRA.norm>
-0.179979

>  <SCORE.RESTR>
21.1365

>  <SCORE.RESTR.CAVITY>
21.1365

>  <SCORE.RESTR.norm>
0.621662

>  <SCORE.SYSTEM>
0

>  <SCORE.SYSTEM.CONST>
0

>  <SCORE.SYSTEM.DIHEDRAL>
0

>  <SCORE.SYSTEM.SOLV>
0

>  <SCORE.SYSTEM.norm>
0

>  <SCORE.heavy>
34

>  <SCORE.norm>
0.606019

>  <RMSD>
11.007

$$$$
1mwl
 OpenBabel11021811403D
libRbt.so/2013.1/901 2013/11/27
 34 36  0  0  0  0  0  0  0  0999 V2000
   -8.1963    6.2855   15.5873 C   0  0  2  0  0  0  0  0  0  0  0  0
   -7.7261    4.9713   15.5666 O   0  0  0  0  0  0  0  0  0  0  0  0
   -9.7092    6.2442   15.2320 C   0  0  2  0  0  0  0  0  0  0  0  0
  -10.4319    5.4082   16.1955 N   0  3  0  0  0  0  0  0  0  0  0  0
   -9.9167    5.7417   13.7732 C   0  0  1  0  0  0  0  0  0  0  0  0
  -11.2333    5.7272   13.4472 O   0  0  0  0  0  0  0  0  0  0  0  0
   -9.1141    6.6731   12.8058 C   0  0  2  0  0  0  0  0  0  0  0  0
   -9.2921    6.2414   11.4404 O   0  0  0  0  0  0  0  0  0  0  0  0
   -7.6045    6.6327   13.2220 C   0  0  2  0  0  0  0  0  0  0  0  0
   -7.4468    7.0719   14.6261 O   0  0  0  0  0  0  0  0  0  0  0  0
   -6.6838    7.5198   12.3762 C   0  0  2  0  0  0  0  0  0  0  0  0
   -6.1563    6.7789   11.3245 O   0  0  0  0  0  0  0  0  0  0  0  0
   -5.4798    8.0792   13.1559 C   0  0  0  0  0  0  0  0  0  0  0  0
   -4.4936    2.6975   13.9417 C   0  0  2  0  0  0  0  0  0  0  0  0
   -3.4855    2.1757   12.9842 N   0  3  0  0  0  0  0  0  0  0  0  0
   -5.9369    2.3856   13.4462 C   0  0  0  0  0  0  0  0  0  0  0  0
   -6.9960    2.9579   14.4567 C   0  0  2  0  0  0  0  0  0  0  0  0
   -8.3815    2.6326   13.9554 N   0  3  0  0  0  0  0  0  0  0  0  0
   -6.7831    4.5029   14.6111 C   0  0  2  0  0  0  0  0  0  0  0  0
   -5.3446    4.7795   15.1124 C   0  0  2  0  0  0  0  0  0  0  0  0
   -5.1544    6.1700   15.2146 O   0  0  0  0  0  0  0  0  0  0  0  0
   -4.3119    4.2225   14.0963 C   0  0  1  0  0  0  0  0  0  0  0  0
   -3.0016    4.4892   14.5744 O   0  0  0  0  0  0  0  0  0  0  0  0
   -1.9231    3.8107   13.9920 C   0  0  2  0  0  0  0  0  0  0  0  0
   -0.6478    4.2406   14.7415 C   0  0  2  0  0  0  0  0  0  0  0  0
   -0.7639    3.8680   16.0981 O   0  0  0  0  0  0  0  0  0  0  0  0
   -0.4695    5.7911   14.6031 C   0  0  1  0  0  0  0  0  0  0  0  0
    0.7255    6.2917   15.3253 N   0  3  0  0  0  0  0  0  0  0  0  0
    0.5108    6.2464   16.7943 C   0  0  0  0  0  0  0  0  0  0  0  0
   -0.3718    6.1644   13.0838 C   0  0  2  0  0  0  0  0  0  0  0  0
    0.7600    5.5025   12.4885 O   0  0  0  0  0  0  0  0  0  0  0  0
   -0.1996    7.5917   12.8827 C   0  0  0  0  0  0  0  0  0  0  0  0
   -1.6297    5.6436   12.3226 C   0  0  0  0  0  0  0  0  0  0  0  0
   -1.8245    4.1772   12.5688 O   0  0  0  0  0  0  0  0  0  0  0  0
  1  2  1  6  0  0  0
  1  3  1  0  0  0  0
  1 10  1  0  0  0  0
  3  4  1  1  0  0  0
  3  5  1  0  0  0  0
  5  6  1  6  0  0  0
  5  7  1  0  0  0  0
  7  8  1  6  0  0  0
  7  9  1  0  0  0  0
  9 10  1  1  0  0  0
  9 11  1  0  0  0  0
 11 12  1  6  0  0  0
 11 13  1  0  0  0  0
 14 15  1  6  0  0  0
 14 16  1  0  0  0  0
 14 22  1  0  0  0  0
 16 17  1  0  0  0  0
 17 18  1  6  0  0  0
 17 19  1  0  0  0  0
 19  2  1  1  0  0  0
 19 20  1  0  0  0  0
 20 21  1  6  0  0  0
 20 22  1  0  0  0  0
 22 23  1  1  0  0  0
 24 23  1  1  0  0  0
 24 25  1  0  0  0  0
 24 34  1  0  0  0  0
 25 26  1  1  0  0  0
 25 27  1  0  0  0  0
 27 28  1  1  0  0  0
 27 30  1  0  0  0  0
 28 29  1  0  0  0  0
 30 31  1  6  0  0  0
 30 32  1  0  0  0  0
 30 33  1  0  0  0  0
 33 34  1  0  0  0  0
M  CHG  4   4   1  15   1  18   1  28   1
M  END
>  <CHROM.1>
113.57783837,-154.12978753,-53.84462829,-58.00742635,-51.12622151,-92.53219815
172.81879618,31.93401724,-27.74454585,57.17576465,44.96065062,-177.40061360
162.88971939,48.20013968,-45.36896218,-4.96709826,5.27953112,13.99682180
-3.09841860,0.00428341,2.71658777

>  <Name>
1mwl

>  <RI>
0

>  <Rbt.Current_Directory>
/home/itssahil/PROJECTS/Mol_Feturizer/New_Systems/rnas/1mwl

>  <Rbt.Executable>
rbdock ($Id: //depot/dev/client3/rdock/2013.1/src/exe/rbdock.cxx#4 $)

>  <Rbt.Library>
libRbt.so (2013.1, Build901 2013/11/27)

>  <Rbt.Parameter_File>
/export/apps/rDock/src/rDock_2013.1_src/data/scripts/dock_solv.prm

>  <Rbt.Receptor>
prm/blind_docking_20.prm

>  <SCORE>
9.28767

>  <SCORE.INTER>
-17.1946

>  <SCORE.INTER.CONST>
1

>  <SCORE.INTER.POLAR>
-4.08567

>  <SCORE.INTER.ROT>
6

>  <SCORE.INTER.SOLV>
18.2671

>  <SCORE.INTER.VDW>
-11.5332

>  <SCORE.INTER.norm>
-0.505724

>  <SCORE.INTRA>
6.94449

>  <SCORE.INTRA.DIHEDRAL>
-20.8377

>  <SCORE.INTRA.DIHEDRAL.0>
42.0816

>  <SCORE.INTRA.POLAR>
-0.788801

>  <SCORE.INTRA.POLAR.0>
-0.254682

>  <SCORE.INTRA.REPUL>
0.0126905

>  <SCORE.INTRA.REPUL.0>
0

>  <SCORE.INTRA.SOLV>
3.98068

>  <SCORE.INTRA.SOLV.lig_0>
-109.803

>  <SCORE.INTRA.VDW>
17.9915

>  <SCORE.INTRA.VDW.0>
0.32176

>  <SCORE.INTRA.norm>
0.20425

>  <SCORE.RESTR>
19.5378

>  <SCORE.RESTR.CAVITY>
19.5378

>  <SCORE.RESTR.norm>
0.574642

>  <SCORE.SYSTEM>
0

>  <SCORE.SYSTEM.CONST>
0

>  <SCORE.SYSTEM.DIHEDRAL>
0

>  <SCORE.SYSTEM.SOLV>
0

>  <SCORE.SYSTEM.norm>
0

>  <SCORE.heavy>
34

>  <SCORE.norm>
0.273167

>  <RMSD>
11.283

$$$$
1mwl
 OpenBabel11021811403D
libRbt.so/2013.1/901 2013/11/27
 34 36  0  0  0  0  0  0  0  0999 V2000
   -6.1726    5.6417   15.5403 C   0  0  2  0  0  0  0  0  0  0  0  0
   -6.4646    5.8080   14.1854 O   0  0  0  0  0  0  0  0  0  0  0  0
   -6.3260    4.1296   15.8673 C   0  0  2  0  0  0  0  0  0  0  0  0
   -5.4207    3.3371   15.0295 N   0  3  0  0  0  0  0  0  0  0  0  0
   -7.8055    3.6779   15.6930 C   0  0  1  0  0  0  0  0  0  0  0  0
   -7.9521    2.3650   16.0014 O   0  0  0  0  0  0  0  0  0  0  0  0
   -8.7101    4.5684   16.6074 C   0  0  2  0  0  0  0  0  0  0  0  0
  -10.0909    4.1698   16.4783 O   0  0  0  0  0  0  0  0  0  0  0  0
   -8.5098    6.0653   16.1913 C   0  0  2  0  0  0  0  0  0  0  0  0
   -7.0872    6.4495   16.3245 O   0  0  0  0  0  0  0  0  0  0  0  0
   -9.3181    7.0726   17.0171 C   0  0  2  0  0  0  0  0  0  0  0  0
   -9.1570    6.8040   18.3718 O   0  0  0  0  0  0  0  0  0  0  0  0
  -10.8324    7.0196   16.7442 C   0  0  0  0  0  0  0  0  0  0  0  0
   -3.1329    4.9421   11.6537 C   0  0  2  0  0  0  0  0  0  0  0  0
   -2.0649    5.1016   10.6342 N   0  3  0  0  0  0  0  0  0  0  0  0
   -4.5411    5.0715   11.0009 C   0  0  0  0  0  0  0  0  0  0  0  0
   -5.6634    4.9196   12.0907 C   0  0  2  0  0  0  0  0  0  0  0  0
   -7.0136    5.0399   11.4279 N   0  3  0  0  0  0  0  0  0  0  0  0
   -5.4618    6.0103   13.1979 C   0  0  2  0  0  0  0  0  0  0  0  0
   -4.0587    5.8500   13.8326 C   0  0  2  0  0  0  0  0  0  0  0  0
   -3.8762    6.8550   14.8006 O   0  0  0  0  0  0  0  0  0  0  0  0
   -2.9623    6.0184   12.7469 C   0  0  1  0  0  0  0  0  0  0  0  0
   -1.6857    5.8703   13.3509 O   0  0  0  0  0  0  0  0  0  0  0  0
   -1.1523    4.5820   13.4866 C   0  0  2  0  0  0  0  0  0  0  0  0
   -0.5341    4.4839   14.8941 C   0  0  2  0  0  0  0  0  0  0  0  0
   -1.5481    4.6796   15.8565 O   0  0  0  0  0  0  0  0  0  0  0  0
    0.5876    5.5682   15.0385 C   0  0  1  0  0  0  0  0  0  0  0  0
    1.2158    5.5596   16.3821 N   0  3  0  0  0  0  0  0  0  0  0  0
    1.0815    6.8868   17.0352 C   0  0  0  0  0  0  0  0  0  0  0  0
    1.6774    5.3314   13.9369 C   0  0  2  0  0  0  0  0  0  0  0  0
    2.2592    4.0240   14.0964 O   0  0  0  0  0  0  0  0  0  0  0  0
    2.7538    6.3022   14.0167 C   0  0  0  0  0  0  0  0  0  0  0  0
    1.0203    5.3450   12.5223 C   0  0  0  0  0  0  0  0  0  0  0  0
   -0.1171    4.3696   12.4606 O   0  0  0  0  0  0  0  0  0  0  0  0
  1  2  1  6  0  0  0
  1  3  1  0  0  0  0
  1 10  1  0  0  0  0
  3  4  1  6  0  0  0
  3  5  1  0  0  0  0
  5  6  1  1  0  0  0
  5  7  1  0  0  0  0
  7  8  1  6  0  0  0
  7  9  1  0  0  0  0
  9 10  1  1  0  0  0
  9 11  1  0  0  0  0
 11 12  1  1  0  0  0
 11 13  1  0  0  0  0
 14 15  1  6  0  0  0
 14 16  1  0  0  0  0
 14 22  1  0  0  0  0
 16 17  1  0  0  0  0
 17 18  1  6  0  0  0
 17 19  1  0  0  0  0
 19  2  1  1  0  0  0
 19 20  1  0  0  0  0
 20 21  1  1  0  0  0
 20 22  1  0  0  0  0
 22 23  1  1  0  0  0
 24 23  1  6  0  0  0
 24 25  1  0  0  0  0
 24 34  1  0  0  0  0
 25 26  1  1  0  0  0
 25 27  1  0  0  0  0
 27 28  1  1  0  0  0
 27 30  1  0  0  0  0
 28 29  1  0  0  0  0
 30 31  1  1  0  0  0
 30 32  1  0  0  0  0
 30 33  1  0  0  0  0
 33 34  1  0  0  0  0
M  CHG  4   4   1  15   1  18   1  28   1
M  END
>  <CHROM.1>
-103.82126905,125.61785231,47.25570519,60.24022557,64.34855173,48.30165607
172.22774398,-45.97072477,63.86665659,-62.62798973,-33.95052569,-137.00389579
-162.49833424,-2.05303182,-53.08276077,-4.04257599,5.27512805,14.56950546
-2.91517375,-0.02999819,-1.74177808

>  <Name>
1mwl

>  <RI>
0

>  <Rbt.Current_Directory>
/home/itssahil/PROJECTS/Mol_Feturizer/New_Systems/rnas/1mwl

>  <Rbt.Executable>
rbdock ($Id: //depot/dev/client3/rdock/2013.1/src/exe/rbdock.cxx#4 $)

>  <Rbt.Library>
libRbt.so (2013.1, Build901 2013/11/27)

>  <Rbt.Parameter_File>
/export/apps/rDock/src/rDock_2013.1_src/data/scripts/dock_solv.prm

>  <Rbt.Receptor>
prm/blind_docking_20.prm

>  <SCORE>
-9.2002

>  <SCORE.INTER>
-34.352

>  <SCORE.INTER.CONST>
1

>  <SCORE.INTER.POLAR>
-7.46304

>  <SCORE.INTER.ROT>
6

>  <SCORE.INTER.SOLV>
20.1175

>  <SCORE.INTER.VDW>
-12.3303

>  <SCORE.INTER.norm>
-1.01035

>  <SCORE.INTRA>
-5.89587

>  <SCORE.INTRA.DIHEDRAL>
-13.18

>  <SCORE.INTRA.DIHEDRAL.0>
42.0816

>  <SCORE.INTRA.POLAR>
-0.722774

>  <SCORE.INTRA.POLAR.0>
-0.254682

>  <SCORE.INTRA.REPUL>
0

>  <SCORE.INTRA.REPUL.0>
0

>  <SCORE.INTRA.SOLV>
4.03506

>  <SCORE.INTRA.SOLV.lig_0>
-109.803

>  <SCORE.INTRA.VDW>
1.13405

>  <SCORE.INTRA.VDW.0>
0.32176

>  <SCORE.INTRA.norm>
-0.173408

>  <SCORE.RESTR>
31.0477

>  <SCORE.RESTR.CAVITY>
31.0477

>  <SCORE.RESTR.norm>
0.913167

>  <SCORE.SYSTEM>
0

>  <SCORE.SYSTEM.CONST>
0

>  <SCORE.SYSTEM.DIHEDRAL>
0

>  <SCORE.SYSTEM.SOLV>
0

>  <SCORE.SYSTEM.norm>
0

>  <SCORE.heavy>
34

>  <SCORE.norm>
-0.270594

>  <RMSD>
11.513

$$$$
1mwl
 OpenBabel11021811403D
libRbt.so/2013.1/901 2013/11/27
 34 36  0  0  0  0  0  0  0  0999 V2000
   -7.0980    6.2339   15.4316 C   0  0  2  0  0  0  0  0  0  0  0  0
   -6.6327    4.9185   15.4747 O   0  0  0  0  0  0  0  0  0  0  0  0
   -8.6495    6.1817   15.5162 C   0  0  2  0  0  0  0  0  0  0  0  0
   -9.0659    5.5132   16.7527 N   0  3  0  0  0  0  0  0  0  0  0  0
   -9.2441    5.4793   14.2605 C   0  0  1  0  0  0  0  0  0  0  0  0
  -10.5993    5.4527   14.3150 O   0  0  0  0  0  0  0  0  0  0  0  0
   -8.7534    6.2395   12.9843 C   0  0  2  0  0  0  0  0  0  0  0  0
   -9.2950    5.6198   11.7990 O   0  0  0  0  0  0  0  0  0  0  0  0
   -7.1871    6.2198   12.9703 C   0  0  2  0  0  0  0  0  0  0  0  0
   -6.6545    6.8529   14.1970 O   0  0  0  0  0  0  0  0  0  0  0  0
   -6.5486    6.9505   11.7837 C   0  0  2  0  0  0  0  0  0  0  0  0
   -5.5210    6.1771   11.2553 O   0  0  0  0  0  0  0  0  0  0  0  0
   -5.9196    8.3046   12.1594 C   0  0  0  0  0  0  0  0  0  0  0  0
   -3.5187    2.7434   13.5174 C   0  0  2  0  0  0  0  0  0  0  0  0
   -2.7077    2.1079   12.4478 N   0  3  0  0  0  0  0  0  0  0  0  0
   -4.9344    2.0983   13.5918 C   0  0  0  0  0  0  0  0  0  0  0  0
   -5.7905    2.7899   14.7137 C   0  0  2  0  0  0  0  0  0  0  0  0
   -7.1505    2.1387   14.7680 N   0  3  0  0  0  0  0  0  0  0  0  0
   -5.8942    4.3249   14.4145 C   0  0  2  0  0  0  0  0  0  0  0  0
   -4.4736    4.9377   14.3555 C   0  0  2  0  0  0  0  0  0  0  0  0
   -4.5779    6.3079   14.0528 O   0  0  0  0  0  0  0  0  0  0  0  0
   -3.6471    4.2551   13.2329 C   0  0  1  0  0  0  0  0  0  0  0  0
   -2.3507    4.8335   13.1953 O   0  0  0  0  0  0  0  0  0  0  0  0
   -2.1869    6.1454   13.6586 C   0  0  2  0  0  0  0  0  0  0  0  0
   -0.8290    6.6531   13.1379 C   0  0  2  0  0  0  0  0  0  0  0  0
   -0.8469    6.6488   11.7264 O   0  0  0  0  0  0  0  0  0  0  0  0
    0.3092    5.7246   13.6833 C   0  0  1  0  0  0  0  0  0  0  0  0
    1.6521    6.1300   13.2013 N   0  3  0  0  0  0  0  0  0  0  0  0
    1.8472    5.7279   11.7849 C   0  0  0  0  0  0  0  0  0  0  0  0
    0.2770    5.7369   15.2504 C   0  0  2  0  0  0  0  0  0  0  0  0
    0.4862    7.0769   15.7342 O   0  0  0  0  0  0  0  0  0  0  0  0
    1.3133    4.8977   15.8241 C   0  0  0  0  0  0  0  0  0  0  0  0
   -1.1329    5.3061   15.7602 C   0  0  0  0  0  0  0  0  0  0  0  0
   -2.2008    6.1504   15.1314 O   0  0  0  0  0  0  0  0  0  0  0  0
  1  2  1  6  0  0  0
  1  3  1  0  0  0  0
  1 10  1  0  0  0  0
  3  4  1  1  0  0  0
  3  5  1  0  0  0  0
  5  6  1  1  0  0  0
  5  7  1  0  0  0  0
  7  8  1  6  0  0  0
  7  9  1  0  0  0  0
  9 10  1  1  0  0  0
  9 11  1  0  0  0  0
 11 12  1  1  0  0  0
 11 13  1  0  0  0  0
 14 15  1  6  0  0  0
 14 16  1  0  0  0  0
 14 22  1  0  0  0  0
 16 17  1  0  0  0  0
 17 18  1  6  0  0  0
 17 19  1  0  0  0  0
 19  2  1  1  0  0  0
 19 20  1  0  0  0  0
 20 21  1  6  0  0  0
 20 22  1  0  0  0  0
 22 23  1  1  0  0  0
 24 23  1  1  0  0  0
 24 25  1  0  0  0  0
 24 34  1  0  0  0  0
 25 26  1  6  0  0  0
 25 27  1  0  0  0  0
 27 28  1  1  0  0  0
 27 30  1  0  0  0  0
 28 29  1  0  0  0  0
 30 31  1  1  0  0  0
 30 32  1  0  0  0  0
 30 33  1  0  0  0  0
 33 34  1  0  0  0  0
M  CHG  4   4   1  15   1  18   1  28   1
M  END
>  <CHROM.1>
118.50020713,-169.56840283,64.11331478,-170.90940091,-55.77817314,-135.35398684
-58.05079301,-171.77297382,166.54540069,73.32839999,-146.24292832,-163.85482230
46.81876600,44.20288081,-47.43120635,-4.34966003,5.38083850,13.87295947,3.09531979
-0.00828695,2.56889563

>  <Name>
1mwl

>  <RI>
0

>  <Rbt.Current_Directory>
/home/itssahil/PROJECTS/Mol_Feturizer/New_Systems/rnas/1mwl

>  <Rbt.Executable>
rbdock ($Id: //depot/dev/client3/rdock/2013.1/src/exe/rbdock.cxx#4 $)

>  <Rbt.Library>
libRbt.so (2013.1, Build901 2013/11/27)

>  <Rbt.Parameter_File>
/export/apps/rDock/src/rDock_2013.1_src/data/scripts/dock_solv.prm

>  <Rbt.Receptor>
prm/blind_docking_20.prm

>  <SCORE>
16.9614

>  <SCORE.INTER>
-3.85932

>  <SCORE.INTER.CONST>
1

>  <SCORE.INTER.POLAR>
-2.34398

>  <SCORE.INTER.ROT>
6

>  <SCORE.INTER.SOLV>
17.3442

>  <SCORE.INTER.VDW>
-8.14103

>  <SCORE.INTER.norm>
-0.11351

>  <SCORE.INTRA>
1.92267

>  <SCORE.INTRA.DIHEDRAL>
-19.9377

>  <SCORE.INTRA.DIHEDRAL.0>
42.0816

>  <SCORE.INTRA.POLAR>
-0.519748

>  <SCORE.INTRA.POLAR.0>
-0.254682

>  <SCORE.INTRA.REPUL>
0.0560312

>  <SCORE.INTRA.REPUL.0>
0

>  <SCORE.INTRA.SOLV>
-1.11928

>  <SCORE.INTRA.SOLV.lig_0>
-109.803

>  <SCORE.INTRA.VDW>
13.9382

>  <SCORE.INTRA.VDW.0>
0.32176

>  <SCORE.INTRA.norm>
0.0565493

>  <SCORE.RESTR>
18.898

>  <SCORE.RESTR.CAVITY>
18.898

>  <SCORE.RESTR.norm>
0.555824

>  <SCORE.SYSTEM>
0

>  <SCORE.SYSTEM.CONST>
0

>  <SCORE.SYSTEM.DIHEDRAL>
0

>  <SCORE.SYSTEM.SOLV>
0

>  <SCORE.SYSTEM.norm>
0

>  <SCORE.heavy>
34

>  <SCORE.norm>
0.498864

>  <RMSD>
11.632

$$$$
1mwl
 OpenBabel11021811403D
libRbt.so/2013.1/901 2013/11/27
 34 36  0  0  0  0  0  0  0  0999 V2000
   -8.4486    6.7949   13.9202 C   0  0  2  0  0  0  0  0  0  0  0  0
   -7.7552    5.9306   14.7693 O   0  0  0  0  0  0  0  0  0  0  0  0
   -9.9660    6.5130   14.1073 C   0  0  2  0  0  0  0  0  0  0  0  0
  -10.3504    6.7239   15.5063 N   0  3  0  0  0  0  0  0  0  0  0  0
  -10.3196    5.0740   13.6298 C   0  0  1  0  0  0  0  0  0  0  0  0
  -11.6469    4.8295   13.7662 O   0  0  0  0  0  0  0  0  0  0  0  0
   -9.8760    4.9203   12.1375 C   0  0  2  0  0  0  0  0  0  0  0  0
  -10.1984    3.5981   11.6578 O   0  0  0  0  0  0  0  0  0  0  0  0
   -8.3366    5.1966   12.0497 C   0  0  2  0  0  0  0  0  0  0  0  0
   -8.0288    6.5536   12.5529 O   0  0  0  0  0  0  0  0  0  0  0  0
   -7.7500    5.1065   10.6363 C   0  0  2  0  0  0  0  0  0  0  0  0
   -8.0993    3.8898   10.0610 O   0  0  0  0  0  0  0  0  0  0  0  0
   -6.2123    5.1742   10.6015 C   0  0  0  0  0  0  0  0  0  0  0  0
   -4.2319    3.5184   14.9329 C   0  0  2  0  0  0  0  0  0  0  0  0
   -3.1159    2.6323   14.5148 N   0  3  0  0  0  0  0  0  0  0  0  0
   -5.6035    2.8078   14.7336 C   0  0  0  0  0  0  0  0  0  0  0  0
   -6.7782    3.7602   15.1614 C   0  0  2  0  0  0  0  0  0  0  0  0
   -8.0909    3.0421   14.9663 N   0  3  0  0  0  0  0  0  0  0  0  0
   -6.7085    5.0800   14.3191 C   0  0  2  0  0  0  0  0  0  0  0  0
   -5.3391    5.7662   14.5449 C   0  0  2  0  0  0  0  0  0  0  0  0
   -5.2751    6.9310   13.7581 O   0  0  0  0  0  0  0  0  0  0  0  0
   -4.1914    4.8193   14.1031 C   0  0  1  0  0  0  0  0  0  0  0  0
   -2.9469    5.4690   14.3164 O   0  0  0  0  0  0  0  0  0  0  0  0
   -2.2889    6.0374   13.2179 C   0  0  2  0  0  0  0  0  0  0  0  0
   -1.1864    5.0545   12.7805 C   0  0  2  0  0  0  0  0  0  0  0  0
   -1.7839    3.8351   12.3948 O   0  0  0  0  0  0  0  0  0  0  0  0
   -0.1924    4.8355   13.9717 C   0  0  1  0  0  0  0  0  0  0  0  0
    0.8876    3.8744   13.6402 N   0  3  0  0  0  0  0  0  0  0  0  0
    1.6209    4.3050   12.4225 C   0  0  0  0  0  0  0  0  0  0  0  0
    0.4271    6.2146   14.3855 C   0  0  2  0  0  0  0  0  0  0  0  0
    1.1403    6.7850   13.2722 O   0  0  0  0  0  0  0  0  0  0  0  0
    1.3653    6.0833   15.4854 C   0  0  0  0  0  0  0  0  0  0  0  0
   -0.7065    7.2259   14.7396 C   0  0  0  0  0  0  0  0  0  0  0  0
   -1.6940    7.3248   13.6154 O   0  0  0  0  0  0  0  0  0  0  0  0
  1  2  1  1  0  0  0
  1  3  1  0  0  0  0
  1 10  1  0  0  0  0
  3  4  1  1  0  0  0
  3  5  1  0  0  0  0
  5  6  1  6  0  0  0
  5  7  1  0  0  0  0
  7  8  1  1  0  0  0
  7  9  1  0  0  0  0
  9 10  1  6  0  0  0
  9 11  1  0  0  0  0
 11 12  1  1  0  0  0
 11 13  1  0  0  0  0
 14 15  1  6  0  0  0
 14 16  1  0  0  0  0
 14 22  1  0  0  0  0
 16 17  1  0  0  0  0
 17 18  1  6  0  0  0
 17 19  1  0  0  0  0
 19  2  1  1  0  0  0
 19 20  1  0  0  0  0
 20 21  1  6  0  0  0
 20 22  1  0  0  0  0
 22 23  1  1  0  0  0
 24 23  1  1  0  0  0
 24 25  1  0  0  0  0
 24 34  1  0  0  0  0
 25 26  1  1  0  0  0
 25 27  1  0  0  0  0
 27 28  1  6  0  0  0
 27 30  1  0  0  0  0
 28 29  1  0  0  0  0
 30 31  1  6  0  0  0
 30 32  1  0  0  0  0
 30 33  1  0  0  0  0
 33 34  1  0  0  0  0
M  CHG  4   4   1  15   1  18   1  28   1
M  END
>  <CHROM.1>
127.30206060,-145.87026189,-35.39293415,-166.03848854,82.36522014,-52.69194294
70.36248132,-172.82438961,68.72414724,134.78554266,138.25633285,-100.24161596
178.60844272,175.72925692,179.80386192,-5.06780151,5.14708430,13.53661380
3.07312083,0.01113897,-2.21154874

>  <Name>
1mwl

>  <RI>
0

>  <Rbt.Current_Directory>
/home/itssahil/PROJECTS/Mol_Feturizer/New_Systems/rnas/1mwl

>  <Rbt.Executable>
rbdock ($Id: //depot/dev/client3/rdock/2013.1/src/exe/rbdock.cxx#4 $)

>  <Rbt.Library>
libRbt.so (2013.1, Build901 2013/11/27)

>  <Rbt.Parameter_File>
/export/apps/rDock/src/rDock_2013.1_src/data/scripts/dock_solv.prm

>  <Rbt.Receptor>
prm/blind_docking_20.prm

>  <SCORE>
21.1293

>  <SCORE.INTER>
-6.82657

>  <SCORE.INTER.CONST>
1

>  <SCORE.INTER.POLAR>
-3.02098

>  <SCORE.INTER.ROT>
6

>  <SCORE.INTER.SOLV>
16.7331

>  <SCORE.INTER.VDW>
-7.65883

>  <SCORE.INTER.norm>
-0.200781

>  <SCORE.INTRA>
-3.70824

>  <SCORE.INTRA.DIHEDRAL>
-7.90592

>  <SCORE.INTRA.DIHEDRAL.0>
42.0816

>  <SCORE.INTRA.POLAR>
-0.200265

>  <SCORE.INTRA.POLAR.0>
-0.254682

>  <SCORE.INTRA.REPUL>
0

>  <SCORE.INTRA.REPUL.0>
0

>  <SCORE.INTRA.SOLV>
3.4289

>  <SCORE.INTRA.SOLV.lig_0>
-109.803

>  <SCORE.INTRA.VDW>
-0.78883

>  <SCORE.INTRA.VDW.0>
0.32176

>  <SCORE.INTRA.norm>
-0.109066

>  <SCORE.RESTR>
31.6641

>  <SCORE.RESTR.CAVITY>
31.6641

>  <SCORE.RESTR.norm>
0.931298

>  <SCORE.SYSTEM>
0

>  <SCORE.SYSTEM.CONST>
0

>  <SCORE.SYSTEM.DIHEDRAL>
0

>  <SCORE.SYSTEM.SOLV>
0

>  <SCORE.SYSTEM.norm>
0

>  <SCORE.heavy>
34

>  <SCORE.norm>
0.62145

>  <RMSD>
11.668

$$$$
1mwl
 OpenBabel11021811403D
libRbt.so/2013.1/901 2013/11/27
 34 36  0  0  0  0  0  0  0  0999 V2000
   -6.9498    5.9581   15.3264 C   0  0  2  0  0  0  0  0  0  0  0  0
   -6.5564    4.6337   15.1268 O   0  0  0  0  0  0  0  0  0  0  0  0
   -8.2000    5.9382   16.2503 C   0  0  2  0  0  0  0  0  0  0  0  0
   -7.8779    5.2842   17.5223 N   0  3  0  0  0  0  0  0  0  0  0  0
   -9.3969    5.2422   15.5387 C   0  0  1  0  0  0  0  0  0  0  0  0
  -10.4994    5.2436   16.3291 O   0  0  0  0  0  0  0  0  0  0  0  0
   -9.6775    5.9861   14.1913 C   0  0  2  0  0  0  0  0  0  0  0  0
  -10.7903    5.3721   13.5081 O   0  0  0  0  0  0  0  0  0  0  0  0
   -8.3771    5.9342   13.3194 C   0  0  2  0  0  0  0  0  0  0  0  0
   -7.2488    6.5622   14.0420 O   0  0  0  0  0  0  0  0  0  0  0  0
   -8.4854    6.6462   11.9662 C   0  0  2  0  0  0  0  0  0  0  0  0
   -7.4991    7.6215   11.8699 O   0  0  0  0  0  0  0  0  0  0  0  0
   -9.8284    7.3688   11.7553 C   0  0  0  0  0  0  0  0  0  0  0  0
   -2.8656    3.2830   13.4498 C   0  0  2  0  0  0  0  0  0  0  0  0
   -1.8408    2.8746   12.4555 N   0  3  0  0  0  0  0  0  0  0  0  0
   -4.0919    2.3239   13.4023 C   0  0  0  0  0  0  0  0  0  0  0  0
   -5.1779    2.7753   14.4449 C   0  0  2  0  0  0  0  0  0  0  0  0
   -6.3471    1.8237   14.3821 N   0  3  0  0  0  0  0  0  0  0  0  0
   -5.6126    4.2490   14.1354 C   0  0  2  0  0  0  0  0  0  0  0  0
   -4.3752    5.1775   14.1987 C   0  0  2  0  0  0  0  0  0  0  0  0
   -4.7716    6.4910   13.8861 O   0  0  0  0  0  0  0  0  0  0  0  0
   -3.3199    4.7280   13.1530 C   0  0  1  0  0  0  0  0  0  0  0  0
   -2.1967    5.5937   13.2269 O   0  0  0  0  0  0  0  0  0  0  0  0
   -1.9058    6.2135   14.4491 C   0  0  2  0  0  0  0  0  0  0  0  0
   -0.5871    6.9896   14.2712 C   0  0  2  0  0  0  0  0  0  0  0  0
   -0.7626    7.9719   13.2728 O   0  0  0  0  0  0  0  0  0  0  0  0
    0.5486    5.9866   13.8721 C   0  0  1  0  0  0  0  0  0  0  0  0
    1.8507    6.6619   13.6521 N   0  3  0  0  0  0  0  0  0  0  0  0
    2.0201    7.0270   12.2224 C   0  0  0  0  0  0  0  0  0  0  0  0
    0.6923    4.8994   14.9922 C   0  0  2  0  0  0  0  0  0  0  0  0
    1.0322    5.5266   16.2429 O   0  0  0  0  0  0  0  0  0  0  0  0
    1.7352    3.9367   14.6876 C   0  0  0  0  0  0  0  0  0  0  0  0
   -0.6746    4.1840   15.2222 C   0  0  0  0  0  0  0  0  0  0  0  0
   -1.7549    5.1876   15.4952 O   0  0  0  0  0  0  0  0  0  0  0  0
  1  2  1  6  0  0  0
  1  3  1  0  0  0  0
  1 10  1  0  0  0  0
  3  4  1  1  0  0  0
  3  5  1  0  0  0  0
  5  6  1  1  0  0  0
  5  7  1  0  0  0  0
  7  8  1  6  0  0  0
  7  9  1  0  0  0  0
  9 10  1  1  0  0  0
  9 11  1  0  0  0  0
 11 12  1  1  0  0  0
 11 13  1  0  0  0  0
 14 15  1  6  0  0  0
 14 16  1  0  0  0  0
 14 22  1  0  0  0  0
 16 17  1  0  0  0  0
 17 18  1  6  0  0  0
 17 19  1  0  0  0  0
 19  2  1  1  0  0  0
 19 20  1  0  0  0  0
 20 21  1  6  0  0  0
 20 22  1  0  0  0  0
 22 23  1  1  0  0  0
 24 23  1  6  0  0  0
 24 25  1  0  0  0  0
 24 34  1  0  0  0  0
 25 26  1  6  0  0  0
 25 27  1  0  0  0  0
 27 28  1  1  0  0  0
 27 30  1  0  0  0  0
 28 29  1  0  0  0  0
 30 31  1  1  0  0  0
 30 32  1  0  0  0  0
 30 33  1  0  0  0  0
 33 34  1  0  0  0  0
M  CHG  4   4   1  15   1  18   1  28   1
M  END
>  <CHROM.1>
167.51424138,166.52347338,141.79383316,-176.86644042,-59.47654566,122.80401334
64.34683808,-55.94663269,61.12004045,105.97154491,-91.94472730,175.36933044
168.22952342,27.70119276,163.76983158,-4.41573864,5.35272945,14.17913595
-3.13750516,0.02708038,-0.57481086

>  <Name>
1mwl

>  <RI>
0

>  <Rbt.Current_Directory>
/home/itssahil/PROJECTS/Mol_Feturizer/New_Systems/rnas/1mwl

>  <Rbt.Executable>
rbdock ($Id: //depot/dev/client3/rdock/2013.1/src/exe/rbdock.cxx#4 $)

>  <Rbt.Library>
libRbt.so (2013.1, Build901 2013/11/27)

>  <Rbt.Parameter_File>
/export/apps/rDock/src/rDock_2013.1_src/data/scripts/dock_solv.prm

>  <Rbt.Receptor>
prm/blind_docking_20.prm

>  <SCORE>
-0.192812

>  <SCORE.INTER>
-18.2752

>  <SCORE.INTER.CONST>
1

>  <SCORE.INTER.POLAR>
-4.01825

>  <SCORE.INTER.ROT>
6

>  <SCORE.INTER.SOLV>
24.6888

>  <SCORE.INTER.VDW>
-14.6189

>  <SCORE.INTER.norm>
-0.537505

>  <SCORE.INTRA>
-3.86544

>  <SCORE.INTRA.DIHEDRAL>
-18.264

>  <SCORE.INTRA.DIHEDRAL.0>
42.0816

>  <SCORE.INTRA.POLAR>
0.254682

>  <SCORE.INTRA.POLAR.0>
-0.254682

>  <SCORE.INTRA.REPUL>
0

>  <SCORE.INTRA.REPUL.0>
0

>  <SCORE.INTRA.SOLV>
-2.27701

>  <SCORE.INTRA.SOLV.lig_0>
-109.803

>  <SCORE.INTRA.VDW>
5.53913

>  <SCORE.INTRA.VDW.0>
0.32176

>  <SCORE.INTRA.norm>
-0.113689

>  <SCORE.RESTR>
21.9478

>  <SCORE.RESTR.CAVITY>
21.9478

>  <SCORE.RESTR.norm>
0.645523

>  <SCORE.SYSTEM>
0

>  <SCORE.SYSTEM.CONST>
0

>  <SCORE.SYSTEM.DIHEDRAL>
0

>  <SCORE.SYSTEM.SOLV>
0

>  <SCORE.SYSTEM.norm>
0

>  <SCORE.heavy>
34

>  <SCORE.norm>
-0.00567094

>  <RMSD>
11.686

$$$$
1mwl
 OpenBabel11021811403D
libRbt.so/2013.1/901 2013/11/27
 34 36  0  0  0  0  0  0  0  0999 V2000
   -8.0686    5.2549   12.8035 C   0  0  2  0  0  0  0  0  0  0  0  0
   -7.2001    6.2806   12.4261 O   0  0  0  0  0  0  0  0  0  0  0  0
   -9.1020    5.8609   13.7943 C   0  0  2  0  0  0  0  0  0  0  0  0
   -9.8292    6.9619   13.1553 N   0  3  0  0  0  0  0  0  0  0  0  0
   -8.3994    6.3259   15.1035 C   0  0  1  0  0  0  0  0  0  0  0  0
   -9.2987    6.8326   15.9836 O   0  0  0  0  0  0  0  0  0  0  0  0
   -7.6411    5.1059   15.7232 C   0  0  2  0  0  0  0  0  0  0  0  0
   -6.9847    5.4993   16.9466 O   0  0  0  0  0  0  0  0  0  0  0  0
   -6.6091    4.5795   14.6689 C   0  0  2  0  0  0  0  0  0  0  0  0
   -7.3028    4.1892   13.4215 O   0  0  0  0  0  0  0  0  0  0  0  0
   -5.7967    3.3610   15.1218 C   0  0  2  0  0  0  0  0  0  0  0  0
   -5.1365    3.6536   16.3100 O   0  0  0  0  0  0  0  0  0  0  0  0
   -4.7095    2.9367   14.1176 C   0  0  0  0  0  0  0  0  0  0  0  0
   -3.6021    4.2284   11.3763 C   0  0  2  0  0  0  0  0  0  0  0  0
   -2.2863    3.9281   10.7567 N   0  3  0  0  0  0  0  0  0  0  0  0
   -4.6989    4.3998   10.2838 C   0  0  0  0  0  0  0  0  0  0  0  0
   -6.0830    4.7354   10.9485 C   0  0  2  0  0  0  0  0  0  0  0  0
   -7.1252    4.8861    9.8679 N   0  3  0  0  0  0  0  0  0  0  0  0
   -5.9436    6.0401   11.8056 C   0  0  2  0  0  0  0  0  0  0  0  0
   -4.8539    5.8354   12.8862 C   0  0  2  0  0  0  0  0  0  0  0  0
   -4.7140    7.0237   13.6268 O   0  0  0  0  0  0  0  0  0  0  0  0
   -3.4911    5.5207   12.2132 C   0  0  1  0  0  0  0  0  0  0  0  0
   -2.5076    5.3394   13.2213 O   0  0  0  0  0  0  0  0  0  0  0  0
   -1.9337    6.4731   13.8113 C   0  0  2  0  0  0  0  0  0  0  0  0
   -0.5784    6.7171   13.1210 C   0  0  2  0  0  0  0  0  0  0  0  0
   -0.7986    6.9589   11.7478 O   0  0  0  0  0  0  0  0  0  0  0  0
    0.3352    5.4609   13.3258 C   0  0  1  0  0  0  0  0  0  0  0  0
    1.6544    5.6042   12.6629 N   0  3  0  0  0  0  0  0  0  0  0  0
    2.2887    6.8973   13.0257 C   0  0  0  0  0  0  0  0  0  0  0  0
    0.5321    5.2123   14.8609 C   0  0  2  0  0  0  0  0  0  0  0  0
    1.1598    6.3582   15.4662 O   0  0  0  0  0  0  0  0  0  0  0  0
    1.3766    4.0611   15.1233 C   0  0  0  0  0  0  0  0  0  0  0  0
   -0.8536    5.0560   15.5599 C   0  0  0  0  0  0  0  0  0  0  0  0
   -1.7348    6.2292   15.2502 O   0  0  0  0  0  0  0  0  0  0  0  0
  1  2  1  1  0  0  0
  1  3  1  0  0  0  0
  1 10  1  0  0  0  0
  3  4  1  6  0  0  0
  3  5  1  0  0  0  0
  5  6  1  1  0  0  0
  5  7  1  0  0  0  0
  7  8  1  1  0  0  0
  7  9  1  0  0  0  0
  9 10  1  6  0  0  0
  9 11  1  0  0  0  0
 11 12  1  1  0  0  0
 11 13  1  0  0  0  0
 14 15  1  6  0  0  0
 14 16  1  0  0  0  0
 14 22  1  0  0  0  0
 16 17  1  0  0  0  0
 17 18  1  6  0  0  0
 17 19  1  0  0  0  0
 19  2  1  1  0  0  0
 19 20  1  0  0  0  0
 20 21  1  6  0  0  0
 20 22  1  0  0  0  0
 22 23  1  1  0  0  0
 24 23  1  6  0  0  0
 24 25  1  0  0  0  0
 24 34  1  0  0  0  0
 25 26  1  6  0  0  0
 25 27  1  0  0  0  0
 27 28  1  6  0  0  0
 27 30  1  0  0  0  0
 28 29  1  0  0  0  0
 30 31  1  1  0  0  0
 30 32  1  0  0  0  0
 30 33  1  0  0  0  0
 33 34  1  0  0  0  0
M  CHG  4   4   1  15   1  18   1  28   1
M  END
>  <CHROM.1>
163.71169230,31.48224461,79.64546943,-173.77031673,74.58333771,-56.39217412
56.98805034,47.82588027,-136.12173100,-65.43046341,159.79506754,-98.74022356
-66.52206726,170.20728584,169.69460530,-4.11841350,5.42644258,13.55663633
3.12137648,0.01326826,1.53979889

>  <Name>
1mwl

>  <RI>
0

>  <Rbt.Current_Directory>
/home/itssahil/PROJECTS/Mol_Feturizer/New_Systems/rnas/1mwl

>  <Rbt.Executable>
rbdock ($Id: //depot/dev/client3/rdock/2013.1/src/exe/rbdock.cxx#4 $)

>  <Rbt.Library>
libRbt.so (2013.1, Build901 2013/11/27)

>  <Rbt.Parameter_File>
/export/apps/rDock/src/rDock_2013.1_src/data/scripts/dock_solv.prm

>  <Rbt.Receptor>
prm/blind_docking_20.prm

>  <SCORE>
-0.459025

>  <SCORE.INTER>
-14.1506

>  <SCORE.INTER.CONST>
1

>  <SCORE.INTER.POLAR>
-2.86701

>  <SCORE.INTER.ROT>
6

>  <SCORE.INTER.SOLV>
18.1981

>  <SCORE.INTER.VDW>
-13.5431

>  <SCORE.INTER.norm>
-0.416194

>  <SCORE.INTRA>
-11.4639

>  <SCORE.INTRA.DIHEDRAL>
-23.925

>  <SCORE.INTRA.DIHEDRAL.0>
42.0816

>  <SCORE.INTRA.POLAR>
-0.320979

>  <SCORE.INTRA.POLAR.0>
-0.254682

>  <SCORE.INTRA.REPUL>
0

>  <SCORE.INTRA.REPUL.0>
0

>  <SCORE.INTRA.SOLV>
-1.39587

>  <SCORE.INTRA.SOLV.lig_0>
-109.803

>  <SCORE.INTRA.VDW>
2.28785

>  <SCORE.INTRA.VDW.0>
0.32176

>  <SCORE.INTRA.norm>
-0.337174

>  <SCORE.RESTR>
25.1555

>  <SCORE.RESTR.CAVITY>
25.1555

>  <SCORE.RESTR.norm>
0.739868

>  <SCORE.SYSTEM>
0

>  <SCORE.SYSTEM.CONST>
0

>  <SCORE.SYSTEM.DIHEDRAL>
0

>  <SCORE.SYSTEM.SOLV>
0

>  <SCORE.SYSTEM.norm>
0

>  <SCORE.heavy>
34

>  <SCORE.norm>
-0.0135007

>  <RMSD>
11.709

$$$$
1mwl
 OpenBabel11021811403D
libRbt.so/2013.1/901 2013/11/27
 34 36  0  0  0  0  0  0  0  0999 V2000
   -7.1618    6.5613   15.5653 C   0  0  2  0  0  0  0  0  0  0  0  0
   -6.5342    5.3292   15.7572 O   0  0  0  0  0  0  0  0  0  0  0  0
   -8.6745    6.2829   15.3392 C   0  0  2  0  0  0  0  0  0  0  0  0
   -9.2365    5.5768   16.4947 N   0  3  0  0  0  0  0  0  0  0  0  0
   -8.8943    5.4842   14.0211 C   0  0  1  0  0  0  0  0  0  0  0  0
  -10.2143    5.2595   13.8038 O   0  0  0  0  0  0  0  0  0  0  0  0
   -8.2652    6.2913   12.8378 C   0  0  2  0  0  0  0  0  0  0  0  0
   -8.4597    5.5832   11.5956 O   0  0  0  0  0  0  0  0  0  0  0  0
   -6.7424    6.5018   13.1391 C   0  0  2  0  0  0  0  0  0  0  0  0
   -6.5669    7.2225   14.4194 O   0  0  0  0  0  0  0  0  0  0  0  0
   -5.9843    7.3027   12.0744 C   0  0  2  0  0  0  0  0  0  0  0  0
   -6.8220    8.2708   11.5319 O   0  0  0  0  0  0  0  0  0  0  0  0
   -5.4925    6.4468   10.8929 C   0  0  0  0  0  0  0  0  0  0  0  0
   -3.4565    2.9486   13.9910 C   0  0  2  0  0  0  0  0  0  0  0  0
   -2.6273    2.2554   12.9725 N   0  3  0  0  0  0  0  0  0  0  0  0
   -4.9119    2.3939   13.9866 C   0  0  0  0  0  0  0  0  0  0  0  0
   -5.7854    3.1464   15.0547 C   0  0  2  0  0  0  0  0  0  0  0  0
   -7.1846    2.5819   15.0334 N   0  3  0  0  0  0  0  0  0  0  0  0
   -5.7752    4.6824   14.7437 C   0  0  2  0  0  0  0  0  0  0  0  0
   -4.3178    5.2047   14.7639 C   0  0  2  0  0  0  0  0  0  0  0  0
   -4.3183    6.5764   14.4501 O   0  0  0  0  0  0  0  0  0  0  0  0
   -3.4731    4.4631   13.6935 C   0  0  1  0  0  0  0  0  0  0  0  0
   -2.1429    4.9590   13.7280 O   0  0  0  0  0  0  0  0  0  0  0  0
   -1.7743    5.8209   14.7691 C   0  0  2  0  0  0  0  0  0  0  0  0
   -0.6840    6.7631   14.2246 C   0  0  2  0  0  0  0  0  0  0  0  0
   -1.2175    7.5144   13.1552 O   0  0  0  0  0  0  0  0  0  0  0  0
    0.5410    5.9097   13.7492 C   0  0  1  0  0  0  0  0  0  0  0  0
    1.6278    6.7441   13.1812 N   0  3  0  0  0  0  0  0  0  0  0  0
    1.2568    7.2469   11.8338 C   0  0  0  0  0  0  0  0  0  0  0  0
    1.0851    5.0724   14.9576 C   0  0  2  0  0  0  0  0  0  0  0  0
    1.5045    5.9547   16.0155 O   0  0  0  0  0  0  0  0  0  0  0  0
    2.2288    4.2590   14.5867 C   0  0  0  0  0  0  0  0  0  0  0  0
   -0.0547    4.1900   15.5538 C   0  0  0  0  0  0  0  0  0  0  0  0
   -1.2479    5.0316   15.8957 O   0  0  0  0  0  0  0  0  0  0  0  0
  1  2  1  6  0  0  0
  1  3  1  0  0  0  0
  1 10  1  0  0  0  0
  3  4  1  1  0  0  0
  3  5  1  0  0  0  0
  5  6  1  6  0  0  0
  5  7  1  0  0  0  0
  7  8  1  6  0  0  0
  7  9  1  0  0  0  0
  9 10  1  1  0  0  0
  9 11  1  0  0  0  0
 11 12  1  6  0  0  0
 11 13  1  0  0  0  0
 14 15  1  6  0  0  0
 14 16  1  0  0  0  0
 14 22  1  0  0  0  0
 16 17  1  0  0  0  0
 17 18  1  6  0  0  0
 17 19  1  0  0  0  0
 19  2  1  1  0  0  0
 19 20  1  0  0  0  0
 20 21  1  6  0  0  0
 20 22  1  0  0  0  0
 22 23  1  1  0  0  0
 24 23  1  6  0  0  0
 24 25  1  0  0  0  0
 24 34  1  0  0  0  0
 25 26  1  6  0  0  0
 25 27  1  0  0  0  0
 27 28  1  1  0  0  0
 27 30  1  0  0  0  0
 28 29  1  0  0  0  0
 30 31  1  1  0  0  0
 30 32  1  0  0  0  0
 30 33  1  0  0  0  0
 33 34  1  0  0  0  0
M  CHG  4   4   1  15   1  18   1  28   1
M  END
>  <CHROM.1>
102.36957716,-155.05352911,-28.82027710,60.37510803,172.45739702,34.18896319
169.98008822,-39.95663930,62.50417033,59.06557438,-111.24365712,-149.88788413
-68.14390771,46.14865778,54.32524394,-4.13357310,5.48156767,14.03828522,3.11928660
-0.01535382,-0.66111405

>  <Name>
1mwl

>  <RI>
0

>  <Rbt.Current_Directory>
/home/itssahil/PROJECTS/Mol_Feturizer/New_Systems/rnas/1mwl

>  <Rbt.Executable>
rbdock ($Id: //depot/dev/client3/rdock/2013.1/src/exe/rbdock.cxx#4 $)

>  <Rbt.Library>
libRbt.so (2013.1, Build901 2013/11/27)

>  <Rbt.Parameter_File>
/export/apps/rDock/src/rDock_2013.1_src/data/scripts/dock_solv.prm

>  <Rbt.Receptor>
prm/blind_docking_20.prm

>  <SCORE>
11.5073

>  <SCORE.INTER>
-2.81361

>  <SCORE.INTER.CONST>
1

>  <SCORE.INTER.POLAR>
-4.59406

>  <SCORE.INTER.ROT>
6

>  <SCORE.INTER.SOLV>
22.0928

>  <SCORE.INTER.VDW>
-1.52645

>  <SCORE.INTER.norm>
-0.0827532

>  <SCORE.INTRA>
-1.47995

>  <SCORE.INTRA.DIHEDRAL>
-16.6034

>  <SCORE.INTRA.DIHEDRAL.0>
42.0816

>  <SCORE.INTRA.POLAR>
0.0369363

>  <SCORE.INTRA.POLAR.0>
-0.254682

>  <SCORE.INTRA.REPUL>
0

>  <SCORE.INTRA.REPUL.0>
0

>  <SCORE.INTRA.SOLV>
0.4021

>  <SCORE.INTRA.SOLV.lig_0>
-109.803

>  <SCORE.INTRA.VDW>
6.49512

>  <SCORE.INTRA.VDW.0>
0.32176

>  <SCORE.INTRA.norm>
-0.0435279

>  <SCORE.RESTR>
15.8008

>  <SCORE.RESTR.CAVITY>
15.8008

>  <SCORE.RESTR.norm>
0.46473

>  <SCORE.SYSTEM>
0

>  <SCORE.SYSTEM.CONST>
0

>  <SCORE.SYSTEM.DIHEDRAL>
0

>  <SCORE.SYSTEM.SOLV>
0

>  <SCORE.SYSTEM.norm>
0

>  <SCORE.heavy>
34

>  <SCORE.norm>
0.338449

>  <RMSD>
11.720

$$$$
1mwl
 OpenBabel11021811403D
libRbt.so/2013.1/901 2013/11/27
 34 36  0  0  0  0  0  0  0  0999 V2000
   -6.3225    5.3554   15.6026 C   0  0  2  0  0  0  0  0  0  0  0  0
   -6.2909    4.0866   15.0215 O   0  0  0  0  0  0  0  0  0  0  0  0
   -7.7276    5.5397   16.2418 C   0  0  2  0  0  0  0  0  0  0  0  0
   -7.9696    4.4939   17.2404 N   0  3  0  0  0  0  0  0  0  0  0  0
   -8.8325    5.5471   15.1451 C   0  0  1  0  0  0  0  0  0  0  0  0
  -10.0594    5.7332   15.6931 O   0  0  0  0  0  0  0  0  0  0  0  0
   -8.5058    6.6784   14.1152 C   0  0  2  0  0  0  0  0  0  0  0  0
   -9.5175    6.7206   13.0872 O   0  0  0  0  0  0  0  0  0  0  0  0
   -7.0897    6.3978   13.5072 C   0  0  2  0  0  0  0  0  0  0  0  0
   -6.0705    6.3516   14.5789 O   0  0  0  0  0  0  0  0  0  0  0  0
   -6.6126    7.4397   12.4891 C   0  0  2  0  0  0  0  0  0  0  0  0
   -6.0429    6.7985   11.3947 O   0  0  0  0  0  0  0  0  0  0  0  0
   -5.5352    8.3918   13.0398 C   0  0  0  0  0  0  0  0  0  0  0  0
   -3.3081    1.9516   12.8296 C   0  0  2  0  0  0  0  0  0  0  0  0
   -2.3779    1.5580   11.7409 N   0  3  0  0  0  0  0  0  0  0  0  0
   -4.7876    1.8491   12.3536 C   0  0  0  0  0  0  0  0  0  0  0  0
   -5.7627    2.2852   13.5065 C   0  0  2  0  0  0  0  0  0  0  0  0
   -7.1859    2.1667   13.0195 N   0  3  0  0  0  0  0  0  0  0  0  0
   -5.4212    3.7496   13.9483 C   0  0  2  0  0  0  0  0  0  0  0  0
   -3.9491    3.8166   14.4233 C   0  0  2  0  0  0  0  0  0  0  0  0
   -3.6443    5.1419   14.7849 O   0  0  0  0  0  0  0  0  0  0  0  0
   -2.9991    3.3986   13.2692 C   0  0  1  0  0  0  0  0  0  0  0  0
   -1.6564    3.4698   13.7258 O   0  0  0  0  0  0  0  0  0  0  0  0
   -0.6662    3.9044   12.8350 C   0  0  2  0  0  0  0  0  0  0  0  0
    0.4756    4.5099   13.6732 C   0  0  2  0  0  0  0  0  0  0  0  0
    1.0053    3.5111   14.5184 O   0  0  0  0  0  0  0  0  0  0  0  0
   -0.0838    5.7097   14.5113 C   0  0  1  0  0  0  0  0  0  0  0  0
    0.9513    6.3321   15.3723 N   0  3  0  0  0  0  0  0  0  0  0  0
    0.7409    5.9676   16.7967 C   0  0  0  0  0  0  0  0  0  0  0  0
   -0.6853    6.7814   13.5382 C   0  0  2  0  0  0  0  0  0  0  0  0
    0.3378    7.2627   12.6467 O   0  0  0  0  0  0  0  0  0  0  0  0
   -1.2190    7.9275   14.2515 C   0  0  0  0  0  0  0  0  0  0  0  0
   -1.7780    6.1307   12.6349 C   0  0  0  0  0  0  0  0  0  0  0  0
   -1.2309    4.9233   11.9337 O   0  0  0  0  0  0  0  0  0  0  0  0
  1  2  1  6  0  0  0
  1  3  1  0  0  0  0
  1 10  1  0  0  0  0
  3  4  1  1  0  0  0
  3  5  1  0  0  0  0
  5  6  1  1  0  0  0
  5  7  1  0  0  0  0
  7  8  1  6  0  0  0
  7  9  1  0  0  0  0
  9 10  1  1  0  0  0
  9 11  1  0  0  0  0
 11 12  1  6  0  0  0
 11 13  1  0  0  0  0
 14 15  1  6  0  0  0
 14 16  1  0  0  0  0
 14 22  1  0  0  0  0
 16 17  1  0  0  0  0
 17 18  1  6  0  0  0
 17 19  1  0  0  0  0
 19  2  1  1  0  0  0
 19 20  1  0  0  0  0
 20 21  1  6  0  0  0
 20 22  1  0  0  0  0
 22 23  1  1  0  0  0
 24 23  1  1  0  0  0
 24 25  1  0  0  0  0
 24 34  1  0  0  0  0
 25 26  1  1  0  0  0
 25 27  1  0  0  0  0
 27 28  1  6  0  0  0
 27 30  1  0  0  0  0
 28 29  1  0  0  0  0
 30 31  1  6  0  0  0
 30 32  1  0  0  0  0
 30 33  1  0  0  0  0
 33 34  1  0  0  0  0
M  CHG  4   4   1  15   1  18   1  28   1
M  END
>  <CHROM.1>
155.45831713,-175.61144397,-96.44046211,-174.76127419,70.65845063,-136.23460191
72.24387857,-168.35769268,-59.84057754,-161.52519716,96.51478025,153.89351662
-179.13587423,13.87523112,-67.13697448,-4.11934705,5.05952382,13.92536071
-3.07972650,-0.06484100,-2.92831460

>  <Name>
1mwl

>  <RI>
0

>  <Rbt.Current_Directory>
/home/itssahil/PROJECTS/Mol_Feturizer/New_Systems/rnas/1mwl

>  <Rbt.Executable>
rbdock ($Id: //depot/dev/client3/rdock/2013.1/src/exe/rbdock.cxx#4 $)

>  <Rbt.Library>
libRbt.so (2013.1, Build901 2013/11/27)

>  <Rbt.Parameter_File>
/export/apps/rDock/src/rDock_2013.1_src/data/scripts/dock_solv.prm

>  <Rbt.Receptor>
prm/blind_docking_20.prm

>  <SCORE>
-14.0372

>  <SCORE.INTER>
-26.164

>  <SCORE.INTER.CONST>
1

>  <SCORE.INTER.POLAR>
-4.62216

>  <SCORE.INTER.ROT>
6

>  <SCORE.INTER.SOLV>
20.8317

>  <SCORE.INTER.VDW>
-16.5794

>  <SCORE.INTER.norm>
-0.769529

>  <SCORE.INTRA>
-9.54929

>  <SCORE.INTRA.DIHEDRAL>
-18.2007

>  <SCORE.INTRA.DIHEDRAL.0>
42.0816

>  <SCORE.INTRA.POLAR>
0.214024

>  <SCORE.INTRA.POLAR.0>
-0.254682

>  <SCORE.INTRA.REPUL>
0

>  <SCORE.INTRA.REPUL.0>
0

>  <SCORE.INTRA.SOLV>
-2.16321

>  <SCORE.INTRA.SOLV.lig_0>
-109.803

>  <SCORE.INTRA.VDW>
-0.0950248

>  <SCORE.INTRA.VDW.0>
0.32176

>  <SCORE.INTRA.norm>
-0.280861

>  <SCORE.RESTR>
21.6761

>  <SCORE.RESTR.CAVITY>
21.6761

>  <SCORE.RESTR.norm>
0.637532

>  <SCORE.SYSTEM>
0

>  <SCORE.SYSTEM.CONST>
0

>  <SCORE.SYSTEM.DIHEDRAL>
0

>  <SCORE.SYSTEM.SOLV>
0

>  <SCORE.SYSTEM.norm>
0

>  <SCORE.heavy>
34

>  <SCORE.norm>
-0.412859

>  <RMSD>
11.742

$$$$
1mwl
 OpenBabel11021811403D
libRbt.so/2013.1/901 2013/11/27
 34 36  0  0  0  0  0  0  0  0999 V2000
   -6.6876    5.7236   15.6902 C   0  0  2  0  0  0  0  0  0  0  0  0
   -6.5346    4.3870   15.3174 O   0  0  0  0  0  0  0  0  0  0  0  0
   -8.2035    5.9686   15.9325 C   0  0  2  0  0  0  0  0  0  0  0  0
   -8.7005    5.0675   16.9768 N   0  3  0  0  0  0  0  0  0  0  0  0
   -9.0046    5.8026   14.6080 C   0  0  1  0  0  0  0  0  0  0  0  0
  -10.3254    6.0401   14.8062 O   0  0  0  0  0  0  0  0  0  0  0  0
   -8.4164    6.7857   13.5425 C   0  0  2  0  0  0  0  0  0  0  0  0
   -9.1435    6.6655   12.3019 O   0  0  0  0  0  0  0  0  0  0  0  0
   -6.8990    6.4497   13.3463 C   0  0  2  0  0  0  0  0  0  0  0  0
   -6.1755    6.5723   14.6312 O   0  0  0  0  0  0  0  0  0  0  0  0
   -6.1695    7.3487   12.3416 C   0  0  2  0  0  0  0  0  0  0  0  0
   -7.0919    8.1370   11.6626 O   0  0  0  0  0  0  0  0  0  0  0  0
   -5.3943    6.5677   11.2648 C   0  0  0  0  0  0  0  0  0  0  0  0
   -3.3964    2.2490   13.3579 C   0  0  2  0  0  0  0  0  0  0  0  0
   -2.4612    1.7814   12.3033 N   0  3  0  0  0  0  0  0  0  0  0  0
   -4.8685    1.9103   12.9780 C   0  0  0  0  0  0  0  0  0  0  0  0
   -5.8512    2.4254   14.0911 C   0  0  2  0  0  0  0  0  0  0  0  0
   -7.2658    2.0752   13.7002 N   0  3  0  0  0  0  0  0  0  0  0  0
   -5.6654    3.9710   14.2719 C   0  0  2  0  0  0  0  0  0  0  0  0
   -4.1967    4.2741   14.6570 C   0  0  2  0  0  0  0  0  0  0  0  0
   -4.0340    5.6661   14.7831 O   0  0  0  0  0  0  0  0  0  0  0  0
   -3.2411    3.7737   13.5409 C   0  0  1  0  0  0  0  0  0  0  0  0
   -1.9019    4.0639   13.9134 O   0  0  0  0  0  0  0  0  0  0  0  0
   -1.6771    4.9427   14.9811 C   0  0  2  0  0  0  0  0  0  0  0  0
   -1.2623    6.3001   14.3826 C   0  0  2  0  0  0  0  0  0  0  0  0
   -2.3154    6.7902   13.5805 O   0  0  0  0  0  0  0  0  0  0  0  0
    0.0416    6.1101   13.5349 C   0  0  1  0  0  0  0  0  0  0  0  0
    0.4927    7.3710   12.8971 N   0  3  0  0  0  0  0  0  0  0  0  0
    0.9032    7.1322   11.4897 C   0  0  0  0  0  0  0  0  0  0  0  0
    1.1756    5.5405   14.4551 C   0  0  2  0  0  0  0  0  0  0  0  0
    1.4404    6.4592   15.5318 O   0  0  0  0  0  0  0  0  0  0  0  0
    2.4186    5.3444   13.7314 C   0  0  0  0  0  0  0  0  0  0  0  0
    0.7057    4.2117   15.1233 C   0  0  0  0  0  0  0  0  0  0  0  0
   -0.5995    4.4123   15.8338 O   0  0  0  0  0  0  0  0  0  0  0  0
  1  2  1  6  0  0  0
  1  3  1  0  0  0  0
  1 10  1  0  0  0  0
  3  4  1  1  0  0  0
  3  5  1  0  0  0  0
  5  6  1  1  0  0  0
  5  7  1  0  0  0  0
  7  8  1  6  0  0  0
  7  9  1  0  0  0  0
  9 10  1  1  0  0  0
  9 11  1  0  0  0  0
 11 12  1  6  0  0  0
 11 13  1  0  0  0  0
 14 15  1  6  0  0  0
 14 16  1  0  0  0  0
 14 22  1  0  0  0  0
 16 17  1  0  0  0  0
 17 18  1  6  0  0  0
 17 19  1  0  0  0  0
 19  2  1  1  0  0  0
 19 20  1  0  0  0  0
 20 21  1  6  0  0  0
 20 22  1  0  0  0  0
 22 23  1  1  0  0  0
 24 23  1  6  0  0  0
 24 25  1  0  0  0  0
 24 34  1  0  0  0  0
 25 26  1  6  0  0  0
 25 27  1  0  0  0  0
 27 28  1  1  0  0  0
 27 30  1  0  0  0  0
 28 29  1  0  0  0  0
 30 31  1  1  0  0  0
 30 32  1  0  0  0  0
 30 33  1  0  0  0  0
 33 34  1  0  0  0  0
M  CHG  4   4   1  15   1  18   1  28   1
M  END
>  <CHROM.1>
137.88207353,-175.95510847,178.57566815,-68.30057575,-166.93399106,-9.62771652
179.19332126,-172.89493987,-172.16751865,-59.14912825,-133.33564163,-102.99747472
168.45651213,-16.47746319,-50.43101166,-4.15388345,5.26899674,13.97400291
3.13845885,0.03198453,-0.30885736

>  <Name>
1mwl

>  <RI>
0

>  <Rbt.Current_Directory>
/home/itssahil/PROJECTS/Mol_Feturizer/New_Systems/rnas/1mwl

>  <Rbt.Executable>
rbdock ($Id: //depot/dev/client3/rdock/2013.1/src/exe/rbdock.cxx#4 $)

>  <Rbt.Library>
libRbt.so (2013.1, Build901 2013/11/27)

>  <Rbt.Parameter_File>
/export/apps/rDock/src/rDock_2013.1_src/data/scripts/dock_solv.prm

>  <Rbt.Receptor>
prm/blind_docking_20.prm

>  <SCORE>
-3.55779

>  <SCORE.INTER>
-21.6775

>  <SCORE.INTER.CONST>
1

>  <SCORE.INTER.POLAR>
-4.35726

>  <SCORE.INTER.ROT>
6

>  <SCORE.INTER.SOLV>
22.664

>  <SCORE.INTER.VDW>
-15.0821

>  <SCORE.INTER.norm>
-0.637573

>  <SCORE.INTRA>
-0.565473

>  <SCORE.INTRA.DIHEDRAL>
-13.3417

>  <SCORE.INTRA.DIHEDRAL.0>
42.0816

>  <SCORE.INTRA.POLAR>
-0.325899

>  <SCORE.INTRA.POLAR.0>
-0.254682

>  <SCORE.INTRA.REPUL>
0.171441

>  <SCORE.INTRA.REPUL.0>
0

>  <SCORE.INTRA.SOLV>
-0.832187

>  <SCORE.INTRA.SOLV.lig_0>
-109.803

>  <SCORE.INTRA.VDW>
6.77232

>  <SCORE.INTRA.VDW.0>
0.32176

>  <SCORE.INTRA.norm>
-0.0166316

>  <SCORE.RESTR>
18.6852

>  <SCORE.RESTR.CAVITY>
18.6852

>  <SCORE.RESTR.norm>
0.549563

>  <SCORE.SYSTEM>
0

>  <SCORE.SYSTEM.CONST>
0

>  <SCORE.SYSTEM.DIHEDRAL>
0

>  <SCORE.SYSTEM.SOLV>
0

>  <SCORE.SYSTEM.norm>
0

>  <SCORE.heavy>
34

>  <SCORE.norm>
-0.104641

>  <RMSD>
11.751

$$$$
1mwl
 OpenBabel11021811403D
libRbt.so/2013.1/901 2013/11/27
 34 36  0  0  0  0  0  0  0  0999 V2000
   -6.5032    5.3466   15.5012 C   0  0  2  0  0  0  0  0  0  0  0  0
   -6.4520    4.1055   14.8643 O   0  0  0  0  0  0  0  0  0  0  0  0
   -7.9474    5.5306   16.0465 C   0  0  2  0  0  0  0  0  0  0  0  0
   -8.2792    4.4452   16.9746 N   0  3  0  0  0  0  0  0  0  0  0  0
   -8.9699    5.6116   14.8754 C   0  0  1  0  0  0  0  0  0  0  0  0
  -10.2297    5.7979   15.3426 O   0  0  0  0  0  0  0  0  0  0  0  0
   -8.5498    6.7821   13.9263 C   0  0  2  0  0  0  0  0  0  0  0  0
   -9.4836    6.8928   12.8318 O   0  0  0  0  0  0  0  0  0  0  0  0
   -7.0985    6.5002   13.4082 C   0  0  2  0  0  0  0  0  0  0  0  0
   -6.1604    6.3835   14.5465 O   0  0  0  0  0  0  0  0  0  0  0  0
   -6.5309    7.5778   12.4774 C   0  0  2  0  0  0  0  0  0  0  0  0
   -5.8578    6.9760   11.4200 O   0  0  0  0  0  0  0  0  0  0  0  0
   -5.5140    8.5099   13.1610 C   0  0  0  0  0  0  0  0  0  0  0  0
   -3.2535    1.9916   12.9772 C   0  0  2  0  0  0  0  0  0  0  0  0
   -2.2135    1.6088   11.9887 N   0  3  0  0  0  0  0  0  0  0  0  0
   -4.6745    1.8948   12.3469 C   0  0  0  0  0  0  0  0  0  0  0  0
   -5.7660    2.3195   13.3950 C   0  0  2  0  0  0  0  0  0  0  0  0
   -7.1299    2.2067   12.7595 N   0  3  0  0  0  0  0  0  0  0  0  0
   -5.4738    3.7791   13.8853 C   0  0  2  0  0  0  0  0  0  0  0  0
   -4.0600    3.8406   14.5135 C   0  0  2  0  0  0  0  0  0  0  0  0
   -3.7958    5.1620   14.9188 O   0  0  0  0  0  0  0  0  0  0  0  0
   -2.9934    3.4339   13.4617 C   0  0  1  0  0  0  0  0  0  0  0  0
   -1.7064    3.4998   14.0580 O   0  0  0  0  0  0  0  0  0  0  0  0
   -0.6241    3.9216   13.2748 C   0  0  2  0  0  0  0  0  0  0  0  0
    0.3778    4.6235   14.2110 C   0  0  2  0  0  0  0  0  0  0  0  0
    0.8267    3.7001   15.1798 O   0  0  0  0  0  0  0  0  0  0  0  0
   -0.3263    5.8467   14.8916 C   0  0  1  0  0  0  0  0  0  0  0  0
    0.5663    6.5623   15.8357 N   0  3  0  0  0  0  0  0  0  0  0  0
    1.9895    6.3949   15.4450 C   0  0  0  0  0  0  0  0  0  0  0  0
   -0.8322    6.8321   13.7824 C   0  0  2  0  0  0  0  0  0  0  0  0
    0.2814    7.3019   12.9996 O   0  0  0  0  0  0  0  0  0  0  0  0
   -1.4927    7.9954   14.3461 C   0  0  0  0  0  0  0  0  0  0  0  0
   -1.7753    6.0834   12.7909 C   0  0  0  0  0  0  0  0  0  0  0  0
   -1.1010    4.8603   12.2448 O   0  0  0  0  0  0  0  0  0  0  0  0
  1  2  1  6  0  0  0
  1  3  1  0  0  0  0
  1 10  1  0  0  0  0
  3  4  1  1  0  0  0
  3  5  1  0  0  0  0
  5  6  1  1  0  0  0
  5  7  1  0  0  0  0
  7  8  1  6  0  0  0
  7  9  1  0  0  0  0
  9 10  1  1  0  0  0
  9 11  1  0  0  0  0
 11 12  1  6  0  0  0
 11 13  1  0  0  0  0
 14 15  1  6  0  0  0
 14 16  1  0  0  0  0
 14 22  1  0  0  0  0
 16 17  1  0  0  0  0
 17 18  1  6  0  0  0
 17 19  1  0  0  0  0
 19  2  1  1  0  0  0
 19 20  1  0  0  0  0
 20 21  1  6  0  0  0
 20 22  1  0  0  0  0
 22 23  1  1  0  0  0
 24 23  1  1  0  0  0
 24 25  1  0  0  0  0
 24 34  1  0  0  0  0
 25 26  1  1  0  0  0
 25 27  1  0  0  0  0
 27 28  1  1  0  0  0
 27 30  1  0  0  0  0
 28 29  1  0  0  0  0
 30 31  1  6  0  0  0
 30 32  1  0  0  0  0
 30 33  1  0  0  0  0
 33 34  1  0  0  0  0
M  CHG  4   4   1  15   1  18   1  28   1
M  END
>  <CHROM.1>
158.47196036,-178.96166701,36.75800581,-177.93534076,-61.71198466,-138.14143370
169.88136660,65.54320937,62.04445463,-44.24958798,95.45925982,149.59629040
-76.96432669,147.15630320,178.50221719,-4.15203926,5.13244487,13.95625303
-3.10265154,-0.01770242,-3.00133648

>  <Name>
1mwl

>  <RI>
0

>  <Rbt.Current_Directory>
/home/itssahil/PROJECTS/Mol_Feturizer/New_Systems/rnas/1mwl

>  <Rbt.Executable>
rbdock ($Id: //depot/dev/client3/rdock/2013.1/src/exe/rbdock.cxx#4 $)

>  <Rbt.Library>
libRbt.so (2013.1, Build901 2013/11/27)

>  <Rbt.Parameter_File>
/export/apps/rDock/src/rDock_2013.1_src/data/scripts/dock_solv.prm

>  <Rbt.Receptor>
prm/blind_docking_20.prm

>  <SCORE>
-2.82481

>  <SCORE.INTER>
-16.2596

>  <SCORE.INTER.CONST>
1

>  <SCORE.INTER.POLAR>
-2.84638

>  <SCORE.INTER.ROT>
6

>  <SCORE.INTER.SOLV>
23.9804

>  <SCORE.INTER.VDW>
-16.9453

>  <SCORE.INTER.norm>
-0.478225

>  <SCORE.INTRA>
-6.67388

>  <SCORE.INTRA.DIHEDRAL>
-21.0504

>  <SCORE.INTRA.DIHEDRAL.0>
42.0816

>  <SCORE.INTRA.POLAR>
0.0953924

>  <SCORE.INTRA.POLAR.0>
-0.254682

>  <SCORE.INTRA.REPUL>
0

>  <SCORE.INTRA.REPUL.0>
0

>  <SCORE.INTRA.SOLV>
-3.80217

>  <SCORE.INTRA.SOLV.lig_0>
-109.803

>  <SCORE.INTRA.VDW>
5.42804

>  <SCORE.INTRA.VDW.0>
0.32176

>  <SCORE.INTRA.norm>
-0.196291

>  <SCORE.RESTR>
20.1087

>  <SCORE.RESTR.CAVITY>
20.1087

>  <SCORE.RESTR.norm>
0.591433

>  <SCORE.SYSTEM>
0

>  <SCORE.SYSTEM.CONST>
0

>  <SCORE.SYSTEM.DIHEDRAL>
0

>  <SCORE.SYSTEM.SOLV>
0

>  <SCORE.SYSTEM.norm>
0

>  <SCORE.heavy>
34

>  <SCORE.norm>
-0.0830827

>  <RMSD>
11.752

$$$$
1mwl
 OpenBabel11021811403D
libRbt.so/2013.1/901 2013/11/27
 34 36  0  0  0  0  0  0  0  0999 V2000
   -6.8722    5.6284   15.4071 C   0  0  2  0  0  0  0  0  0  0  0  0
   -6.7134    4.3257   14.9312 O   0  0  0  0  0  0  0  0  0  0  0  0
   -8.3791    5.8233   15.7360 C   0  0  2  0  0  0  0  0  0  0  0  0
   -8.8099    4.8391   16.7336 N   0  3  0  0  0  0  0  0  0  0  0  0
   -9.2390    5.7361   14.4412 C   0  0  1  0  0  0  0  0  0  0  0  0
  -10.5530    5.9307   14.7168 O   0  0  0  0  0  0  0  0  0  0  0  0
   -8.7196    6.8055   13.4243 C   0  0  2  0  0  0  0  0  0  0  0  0
   -9.5024    6.7595   12.2130 O   0  0  0  0  0  0  0  0  0  0  0  0
   -7.2074    6.5168   13.1346 C   0  0  2  0  0  0  0  0  0  0  0  0
   -6.4261    6.5618   14.3903 O   0  0  0  0  0  0  0  0  0  0  0  0
   -6.5424    7.5009   12.1655 C   0  0  2  0  0  0  0  0  0  0  0  0
   -5.8170    6.7989   11.2094 O   0  0  0  0  0  0  0  0  0  0  0  0
   -5.5464    8.4579   12.8456 C   0  0  0  0  0  0  0  0  0  0  0  0
   -3.3049    2.2872   13.3544 C   0  0  2  0  0  0  0  0  0  0  0  0
   -2.2228    1.8703   12.4267 N   0  3  0  0  0  0  0  0  0  0  0  0
   -4.7034    1.9615   12.7509 C   0  0  0  0  0  0  0  0  0  0  0  0
   -5.8414    2.4231   13.7317 C   0  0  2  0  0  0  0  0  0  0  0  0
   -7.1814    2.0865   13.1252 N   0  3  0  0  0  0  0  0  0  0  0  0
   -5.6984    3.9597   14.0052 C   0  0  2  0  0  0  0  0  0  0  0  0
   -4.3036    4.2496   14.6117 C   0  0  2  0  0  0  0  0  0  0  0  0
   -4.1741    5.6351   14.8211 O   0  0  0  0  0  0  0  0  0  0  0  0
   -3.1921    3.8027   13.6248 C   0  0  1  0  0  0  0  0  0  0  0  0
   -1.9236    4.0800   14.1996 O   0  0  0  0  0  0  0  0  0  0  0  0
   -1.8173    5.1344   15.1158 C   0  0  2  0  0  0  0  0  0  0  0  0
   -1.3555    6.3797   14.3354 C   0  0  2  0  0  0  0  0  0  0  0  0
   -2.3251    6.6968   13.3598 O   0  0  0  0  0  0  0  0  0  0  0  0
    0.0301    6.0818   13.6674 C   0  0  1  0  0  0  0  0  0  0  0  0
    0.5330    7.2261   12.8688 N   0  3  0  0  0  0  0  0  0  0  0  0
    1.2263    6.7502   11.6445 C   0  0  0  0  0  0  0  0  0  0  0  0
    1.0688    5.7087   14.7805 C   0  0  2  0  0  0  0  0  0  0  0  0
    1.2136    6.8051   15.7027 O   0  0  0  0  0  0  0  0  0  0  0  0
    2.3812    5.4244   14.2290 C   0  0  0  0  0  0  0  0  0  0  0  0
    0.5448    4.5021   15.6188 C   0  0  0  0  0  0  0  0  0  0  0  0
   -0.8282    4.7869   16.1504 O   0  0  0  0  0  0  0  0  0  0  0  0
  1  2  1  6  0  0  0
  1  3  1  0  0  0  0
  1 10  1  0  0  0  0
  3  4  1  1  0  0  0
  3  5  1  0  0  0  0
  5  6  1  1  0  0  0
  5  7  1  0  0  0  0
  7  8  1  6  0  0  0
  7  9  1  0  0  0  0
  9 10  1  1  0  0  0
  9 11  1  0  0  0  0
 11 12  1  6  0  0  0
 11 13  1  0  0  0  0
 14 15  1  6  0  0  0
 14 16  1  0  0  0  0
 14 22  1  0  0  0  0
 16 17  1  0  0  0  0
 17 18  1  6  0  0  0
 17 19  1  0  0  0  0
 19  2  1  1  0  0  0
 19 20  1  0  0  0  0
 20 21  1  6  0  0  0
 20 22  1  0  0  0  0
 22 23  1  1  0  0  0
 24 23  1  6  0  0  0
 24 25  1  0  0  0  0
 24 34  1  0  0  0  0
 25 26  1  6  0  0  0
 25 27  1  0  0  0  0
 27 28  1  1  0  0  0
 27 30  1  0  0  0  0
 28 29  1  0  0  0  0
 30 31  1  1  0  0  0
 30 32  1  0  0  0  0
 30 33  1  0  0  0  0
 33 34  1  0  0  0  0
M  CHG  4   4   1  15   1  18   1  28   1
M  END
>  <CHROM.1>
150.82018323,179.47754092,-63.00931113,63.63510107,-161.23798125,-132.97947891
-51.43660471,63.71938951,58.58879999,-46.07299865,-147.84780605,-95.26196235
-62.71531488,-22.95211096,62.53290509,-4.20398526,5.29429418,13.97171118
-3.13961021,0.00822843,2.96884542

>  <Name>
1mwl

>  <RI>
0

>  <Rbt.Current_Directory>
/home/itssahil/PROJECTS/Mol_Feturizer/New_Systems/rnas/1mwl

>  <Rbt.Executable>
rbdock ($Id: //depot/dev/client3/rdock/2013.1/src/exe/rbdock.cxx#4 $)

>  <Rbt.Library>
libRbt.so (2013.1, Build901 2013/11/27)

>  <Rbt.Parameter_File>
/export/apps/rDock/src/rDock_2013.1_src/data/scripts/dock_solv.prm

>  <Rbt.Receptor>
prm/blind_docking_20.prm

>  <SCORE>
-1.85977

>  <SCORE.INTER>
-16.4964

>  <SCORE.INTER.CONST>
1

>  <SCORE.INTER.POLAR>
-2.953

>  <SCORE.INTER.ROT>
6

>  <SCORE.INTER.SOLV>
20.5627

>  <SCORE.INTER.VDW>
-15.6085

>  <SCORE.INTER.norm>
-0.48519

>  <SCORE.INTRA>
-4.46266

>  <SCORE.INTRA.DIHEDRAL>
-19.6372

>  <SCORE.INTRA.DIHEDRAL.0>
42.0816

>  <SCORE.INTRA.POLAR>
0.17553

>  <SCORE.INTRA.POLAR.0>
-0.254682

>  <SCORE.INTRA.REPUL>
0.0898354

>  <SCORE.INTRA.REPUL.0>
0

>  <SCORE.INTRA.SOLV>
-3.4957

>  <SCORE.INTRA.SOLV.lig_0>
-109.803

>  <SCORE.INTRA.VDW>
6.05779

>  <SCORE.INTRA.VDW.0>
0.32176

>  <SCORE.INTRA.norm>
-0.131255

>  <SCORE.RESTR>
19.0993

>  <SCORE.RESTR.CAVITY>
19.0993

>  <SCORE.RESTR.norm>
0.561745

>  <SCORE.SYSTEM>
0

>  <SCORE.SYSTEM.CONST>
0

>  <SCORE.SYSTEM.DIHEDRAL>
0

>  <SCORE.SYSTEM.SOLV>
0

>  <SCORE.SYSTEM.norm>
0

>  <SCORE.heavy>
34

>  <SCORE.norm>
-0.054699

>  <RMSD>
11.765

$$$$
1mwl
 OpenBabel11021811403D
libRbt.so/2013.1/901 2013/11/27
 34 36  0  0  0  0  0  0  0  0999 V2000
   -6.2754    5.7020   15.6019 C   0  0  2  0  0  0  0  0  0  0  0  0
   -6.2193    4.3709   15.1854 O   0  0  0  0  0  0  0  0  0  0  0  0
   -7.7577    6.0197   15.9466 C   0  0  2  0  0  0  0  0  0  0  0  0
   -8.2372    5.1159   16.9966 N   0  3  0  0  0  0  0  0  0  0  0  0
   -8.6476    5.9355   14.6720 C   0  0  1  0  0  0  0  0  0  0  0  0
   -9.9385    6.2366   14.9602 O   0  0  0  0  0  0  0  0  0  0  0  0
   -8.0740    6.9170   13.5972 C   0  0  2  0  0  0  0  0  0  0  0  0
   -8.8824    6.8720   12.4028 O   0  0  0  0  0  0  0  0  0  0  0  0
   -6.5924    6.5071   13.2960 C   0  0  2  0  0  0  0  0  0  0  0  0
   -5.7846    6.5533   14.5348 O   0  0  0  0  0  0  0  0  0  0  0  0
   -5.8787    7.3954   12.2705 C   0  0  2  0  0  0  0  0  0  0  0  0
   -6.7926    8.2681   11.6904 O   0  0  0  0  0  0  0  0  0  0  0  0
   -5.2389    6.6084   11.1122 C   0  0  0  0  0  0  0  0  0  0  0  0
   -3.4099    1.9832   13.0253 C   0  0  2  0  0  0  0  0  0  0  0  0
   -2.5386    1.4855   11.9305 N   0  3  0  0  0  0  0  0  0  0  0  0
   -4.9095    1.9139   12.6103 C   0  0  0  0  0  0  0  0  0  0  0  0
   -5.8215    2.4599   13.7680 C   0  0  2  0  0  0  0  0  0  0  0  0
   -7.2660    2.3715   13.3410 N   0  3  0  0  0  0  0  0  0  0  0  0
   -5.4056    3.9329   14.1047 C   0  0  2  0  0  0  0  0  0  0  0  0
   -3.9148    3.9673   14.5212 C   0  0  2  0  0  0  0  0  0  0  0  0
   -3.5441    5.2983   14.7880 O   0  0  0  0  0  0  0  0  0  0  0  0
   -3.0272    3.4402   13.3620 C   0  0  1  0  0  0  0  0  0  0  0  0
   -1.6661    3.4830   13.7645 O   0  0  0  0  0  0  0  0  0  0  0  0
   -0.7098    3.9451   12.8511 C   0  0  2  0  0  0  0  0  0  0  0  0
    0.4503    4.5509   13.6636 C   0  0  2  0  0  0  0  0  0  0  0  0
    1.0184    3.5448   14.4745 O   0  0  0  0  0  0  0  0  0  0  0  0
   -0.0971    5.7292   14.5393 C   0  0  1  0  0  0  0  0  0  0  0  0
    0.9568    6.3500   15.3783 N   0  3  0  0  0  0  0  0  0  0  0  0
    0.7382    6.0398   16.8143 C   0  0  0  0  0  0  0  0  0  0  0  0
   -0.7419    6.8093   13.6041 C   0  0  2  0  0  0  0  0  0  0  0  0
    0.2469    7.3186   12.6896 O   0  0  0  0  0  0  0  0  0  0  0  0
   -1.2668    7.9364   14.3534 C   0  0  0  0  0  0  0  0  0  0  0  0
   -1.8543    6.1602   12.7242 C   0  0  0  0  0  0  0  0  0  0  0  0
   -1.3148    4.9719   11.9855 O   0  0  0  0  0  0  0  0  0  0  0  0
  1  2  1  6  0  0  0
  1  3  1  0  0  0  0
  1 10  1  0  0  0  0
  3  4  1  1  0  0  0
  3  5  1  0  0  0  0
  5  6  1  1  0  0  0
  5  7  1  0  0  0  0
  7  8  1  6  0  0  0
  7  9  1  0  0  0  0
  9 10  1  1  0  0  0
  9 11  1  0  0  0  0
 11 12  1  6  0  0  0
 11 13  1  0  0  0  0
 14 15  1  6  0  0  0
 14 16  1  0  0  0  0
 14 22  1  0  0  0  0
 16 17  1  0  0  0  0
 17 18  1  6  0  0  0
 17 19  1  0  0  0  0
 19  2  1  1  0  0  0
 19 20  1  0  0  0  0
 20 21  1  6  0  0  0
 20 22  1  0  0  0  0
 22 23  1  1  0  0  0
 24 23  1  1  0  0  0
 24 25  1  0  0  0  0
 24 34  1  0  0  0  0
 25 26  1  1  0  0  0
 25 27  1  0  0  0  0
 27 28  1  6  0  0  0
 27 30  1  0  0  0  0
 28 29  1  0  0  0  0
 30 31  1  6  0  0  0
 30 32  1  0  0  0  0
 30 33  1  0  0  0  0
 33 34  1  0  0  0  0
M  CHG  4   4   1  15   1  18   1  28   1
M  END
>  <CHROM.1>
140.09510386,-169.14293357,23.46653621,-177.26143842,66.94010444,-8.52594422
-56.80793316,66.41209133,-177.81963555,-40.50366800,102.62079615,152.03445171
173.82978817,9.74680833,-66.33420539,-4.08682230,5.19399052,13.83552380,-3.05441177
-0.01455185,-3.05517930

>  <Name>
1mwl

>  <RI>
0

>  <Rbt.Current_Directory>
/home/itssahil/PROJECTS/Mol_Feturizer/New_Systems/rnas/1mwl

>  <Rbt.Executable>
rbdock ($Id: //depot/dev/client3/rdock/2013.1/src/exe/rbdock.cxx#4 $)

>  <Rbt.Library>
libRbt.so (2013.1, Build901 2013/11/27)

>  <Rbt.Parameter_File>
/export/apps/rDock/src/rDock_2013.1_src/data/scripts/dock_solv.prm

>  <Rbt.Receptor>
prm/blind_docking_20.prm

>  <SCORE>
-9.28736

>  <SCORE.INTER>
-18.6715

>  <SCORE.INTER.CONST>
1

>  <SCORE.INTER.POLAR>
-4.08431

>  <SCORE.INTER.ROT>
6

>  <SCORE.INTER.SOLV>
22.5516

>  <SCORE.INTER.VDW>
-13.9505

>  <SCORE.INTER.norm>
-0.549161

>  <SCORE.INTRA>
-9.7194

>  <SCORE.INTRA.DIHEDRAL>
-13.6899

>  <SCORE.INTRA.DIHEDRAL.0>
42.0816

>  <SCORE.INTRA.POLAR>
-0.428483

>  <SCORE.INTRA.POLAR.0>
-0.254682

>  <SCORE.INTRA.REPUL>
0

>  <SCORE.INTRA.REPUL.0>
0

>  <SCORE.INTRA.SOLV>
-0.693698

>  <SCORE.INTRA.SOLV.lig_0>
-109.803

>  <SCORE.INTRA.VDW>
-1.07076

>  <SCORE.INTRA.VDW.0>
0.32176

>  <SCORE.INTRA.norm>
-0.285865

>  <SCORE.RESTR>
19.1035

>  <SCORE.RESTR.CAVITY>
19.1035

>  <SCORE.RESTR.norm>
0.561868

>  <SCORE.SYSTEM>
0

>  <SCORE.SYSTEM.CONST>
0

>  <SCORE.SYSTEM.DIHEDRAL>
0

>  <SCORE.SYSTEM.SOLV>
0

>  <SCORE.SYSTEM.norm>
0

>  <SCORE.heavy>
34

>  <SCORE.norm>
-0.273158

>  <RMSD>
11.786

$$$$
1mwl
 OpenBabel11021811403D
libRbt.so/2013.1/901 2013/11/27
 34 36  0  0  0  0  0  0  0  0999 V2000
   -7.4378    5.1903   13.5312 C   0  0  2  0  0  0  0  0  0  0  0  0
   -6.5680    6.2777   13.4333 O   0  0  0  0  0  0  0  0  0  0  0  0
   -8.2212    5.3396   14.8657 C   0  0  2  0  0  0  0  0  0  0  0  0
   -8.9559    6.6082   14.8811 N   0  3  0  0  0  0  0  0  0  0  0  0
   -7.2579    5.2241   16.0832 C   0  0  1  0  0  0  0  0  0  0  0  0
   -7.9381    5.3279   17.2523 O   0  0  0  0  0  0  0  0  0  0  0  0
   -6.5062    3.8548   15.9966 C   0  0  2  0  0  0  0  0  0  0  0  0
   -5.6096    3.7095   17.1179 O   0  0  0  0  0  0  0  0  0  0  0  0
   -5.7288    3.8042   14.6376 C   0  0  2  0  0  0  0  0  0  0  0  0
   -6.6660    3.9624   13.5036 O   0  0  0  0  0  0  0  0  0  0  0  0
   -4.9540    2.5046   14.3917 C   0  0  2  0  0  0  0  0  0  0  0  0
   -3.7427    2.5454   15.0732 O   0  0  0  0  0  0  0  0  0  0  0  0
   -4.6078    2.2638   12.9110 C   0  0  0  0  0  0  0  0  0  0  0  0
   -3.0168    4.6150   11.7352 C   0  0  2  0  0  0  0  0  0  0  0  0
   -1.7290    4.5028   11.0041 N   0  3  0  0  0  0  0  0  0  0  0  0
   -4.1607    5.0507   10.7720 C   0  0  0  0  0  0  0  0  0  0  0  0
   -5.5147    5.1842   11.5587 C   0  0  2  0  0  0  0  0  0  0  0  0
   -6.6035    5.5976   10.5994 N   0  3  0  0  0  0  0  0  0  0  0  0
   -5.3396    6.2228   12.7193 C   0  0  2  0  0  0  0  0  0  0  0  0
   -4.2033    5.7579   13.6626 C   0  0  2  0  0  0  0  0  0  0  0  0
   -4.0326    6.7145   14.6805 O   0  0  0  0  0  0  0  0  0  0  0  0
   -2.8709    5.6464   12.8742 C   0  0  1  0  0  0  0  0  0  0  0  0
   -1.8439    5.2217   13.7582 O   0  0  0  0  0  0  0  0  0  0  0  0
   -1.5636    6.0029   14.8868 C   0  0  2  0  0  0  0  0  0  0  0  0
   -0.3397    6.8762   14.5517 C   0  0  2  0  0  0  0  0  0  0  0  0
   -0.6581    7.7159   13.4627 O   0  0  0  0  0  0  0  0  0  0  0  0
    0.8732    5.9476   14.2031 C   0  0  1  0  0  0  0  0  0  0  0  0
    2.0890    6.7148   13.8383 N   0  3  0  0  0  0  0  0  0  0  0  0
    2.0572    7.1025   12.4049 C   0  0  0  0  0  0  0  0  0  0  0  0
    1.1759    5.0151   15.4262 C   0  0  2  0  0  0  0  0  0  0  0  0
    1.5055    5.8116   16.5796 O   0  0  0  0  0  0  0  0  0  0  0  0
    2.2967    4.1283   15.1719 C   0  0  0  0  0  0  0  0  0  0  0  0
   -0.0998    4.2031   15.8089 C   0  0  0  0  0  0  0  0  0  0  0  0
   -1.2632    5.1233   16.0293 O   0  0  0  0  0  0  0  0  0  0  0  0
  1  2  1  1  0  0  0
  1  3  1  0  0  0  0
  1 10  1  0  0  0  0
  3  4  1  6  0  0  0
  3  5  1  0  0  0  0
  5  6  1  1  0  0  0
  5  7  1  0  0  0  0
  7  8  1  1  0  0  0
  7  9  1  0  0  0  0
  9 10  1  6  0  0  0
  9 11  1  0  0  0  0
 11 12  1  1  0  0  0
 11 13  1  0  0  0  0
 14 15  1  6  0  0  0
 14 16  1  0  0  0  0
 14 22  1  0  0  0  0
 16 17  1  0  0  0  0
 17 18  1  6  0  0  0
 17 19  1  0  0  0  0
 19  2  1  1  0  0  0
 19 20  1  0  0  0  0
 20 21  1  1  0  0  0
 20 22  1  0  0  0  0
 22 23  1  1  0  0  0
 24 23  1  6  0  0  0
 24 25  1  0  0  0  0
 24 34  1  0  0  0  0
 25 26  1  6  0  0  0
 25 27  1  0  0  0  0
 27 28  1  1  0  0  0
 27 30  1  0  0  0  0
 28 29  1  0  0  0  0
 30 31  1  1  0  0  0
 30 32  1  0  0  0  0
 30 33  1  0  0  0  0
 33 34  1  0  0  0  0
M  CHG  4   4   1  15   1  18   1  28   1
M  END
>  <CHROM.1>
152.02801855,29.40385490,-61.38271696,-60.99551415,164.41822592,-80.96302478
176.91756620,68.31454493,139.18586073,29.98717729,-178.62327669,-98.65129016
74.25649219,36.13578170,149.60840007,-3.45449126,5.18673930,14.11880861,3.12302534
0.09820712,1.77454171

>  <Name>
1mwl

>  <RI>
0

>  <Rbt.Current_Directory>
/home/itssahil/PROJECTS/Mol_Feturizer/New_Systems/rnas/1mwl

>  <Rbt.Executable>
rbdock ($Id: //depot/dev/client3/rdock/2013.1/src/exe/rbdock.cxx#4 $)

>  <Rbt.Library>
libRbt.so (2013.1, Build901 2013/11/27)

>  <Rbt.Parameter_File>
/export/apps/rDock/src/rDock_2013.1_src/data/scripts/dock_solv.prm

>  <Rbt.Receptor>
prm/blind_docking_20.prm

>  <SCORE>
6.7129

>  <SCORE.INTER>
-12.1669

>  <SCORE.INTER.CONST>
1

>  <SCORE.INTER.POLAR>
-5.84284

>  <SCORE.INTER.ROT>
6

>  <SCORE.INTER.SOLV>
26.9423

>  <SCORE.INTER.VDW>
-5.21589

>  <SCORE.INTER.norm>
-0.35785

>  <SCORE.INTRA>
-2.23326

>  <SCORE.INTRA.DIHEDRAL>
-15.0791

>  <SCORE.INTRA.DIHEDRAL.0>
42.0816

>  <SCORE.INTRA.POLAR>
0.192348

>  <SCORE.INTRA.POLAR.0>
-0.254682

>  <SCORE.INTRA.REPUL>
0

>  <SCORE.INTRA.REPUL.0>
0

>  <SCORE.INTRA.SOLV>
-1.31451

>  <SCORE.INTRA.SOLV.lig_0>
-109.803

>  <SCORE.INTRA.VDW>
5.30957

>  <SCORE.INTRA.VDW.0>
0.32176

>  <SCORE.INTRA.norm>
-0.0656841

>  <SCORE.RESTR>
21.113

>  <SCORE.RESTR.CAVITY>
21.113

>  <SCORE.RESTR.norm>
0.620972

>  <SCORE.SYSTEM>
0

>  <SCORE.SYSTEM.CONST>
0

>  <SCORE.SYSTEM.DIHEDRAL>
0

>  <SCORE.SYSTEM.SOLV>
0

>  <SCORE.SYSTEM.norm>
0

>  <SCORE.heavy>
34

>  <SCORE.norm>
0.197438

>  <RMSD>
11.832

$$$$
1mwl
 OpenBabel11021811403D
libRbt.so/2013.1/901 2013/11/27
 34 36  0  0  0  0  0  0  0  0999 V2000
   -6.9928    6.6653   15.4530 C   0  0  2  0  0  0  0  0  0  0  0  0
   -6.4053    5.4196   15.6804 O   0  0  0  0  0  0  0  0  0  0  0  0
   -8.4959    6.4208   15.1402 C   0  0  2  0  0  0  0  0  0  0  0  0
   -9.1393    5.7288   16.2612 N   0  3  0  0  0  0  0  0  0  0  0  0
   -8.6576    5.6259   13.8115 C   0  0  1  0  0  0  0  0  0  0  0  0
   -9.9677    5.4308   13.5185 O   0  0  0  0  0  0  0  0  0  0  0  0
   -7.9434    6.4174   12.6665 C   0  0  2  0  0  0  0  0  0  0  0  0
   -8.0821    5.7125   11.4150 O   0  0  0  0  0  0  0  0  0  0  0  0
   -6.4361    6.5938   13.0549 C   0  0  2  0  0  0  0  0  0  0  0  0
   -6.3183    7.3117   14.3433 O   0  0  0  0  0  0  0  0  0  0  0  0
   -5.6002    7.3763   12.0357 C   0  0  2  0  0  0  0  0  0  0  0  0
   -6.3037    8.5002   11.6172 O   0  0  0  0  0  0  0  0  0  0  0  0
   -5.2710    6.5749   10.7630 C   0  0  0  0  0  0  0  0  0  0  0  0
   -3.3795    2.9050   14.0128 C   0  0  2  0  0  0  0  0  0  0  0  0
   -2.5568    2.1656   13.0219 N   0  3  0  0  0  0  0  0  0  0  0  0
   -4.8525    2.3991   13.9926 C   0  0  0  0  0  0  0  0  0  0  0  0
   -5.7184    3.2002   15.0311 C   0  0  2  0  0  0  0  0  0  0  0  0
   -7.1352    2.6824   14.9951 N   0  3  0  0  0  0  0  0  0  0  0  0
   -5.6512    4.7290   14.6924 C   0  0  2  0  0  0  0  0  0  0  0  0
   -4.1776    5.2027   14.7290 C   0  0  2  0  0  0  0  0  0  0  0  0
   -4.1266    6.5675   14.3904 O   0  0  0  0  0  0  0  0  0  0  0  0
   -3.3401    4.4134   13.6875 C   0  0  1  0  0  0  0  0  0  0  0  0
   -1.9948    4.8653   13.7367 O   0  0  0  0  0  0  0  0  0  0  0  0
   -1.6940    5.9968   14.5059 C   0  0  2  0  0  0  0  0  0  0  0  0
   -0.5515    6.7476   13.7962 C   0  0  2  0  0  0  0  0  0  0  0  0
   -0.9905    7.1491   12.5161 O   0  0  0  0  0  0  0  0  0  0  0  0
    0.6934    5.8025   13.6870 C   0  0  1  0  0  0  0  0  0  0  0  0
    1.8328    6.4433   12.9860 N   0  3  0  0  0  0  0  0  0  0  0  0
    1.6043    6.4641   11.5186 C   0  0  0  0  0  0  0  0  0  0  0  0
    1.1311    5.3595   15.1255 C   0  0  2  0  0  0  0  0  0  0  0  0
    1.4815    6.5158   15.9088 O   0  0  0  0  0  0  0  0  0  0  0  0
    2.2877    4.4826   15.0980 C   0  0  0  0  0  0  0  0  0  0  0  0
   -0.0638    4.6806   15.8633 C   0  0  0  0  0  0  0  0  0  0  0  0
   -1.2670    5.5755   15.8512 O   0  0  0  0  0  0  0  0  0  0  0  0
  1  2  1  6  0  0  0
  1  3  1  0  0  0  0
  1 10  1  0  0  0  0
  3  4  1  1  0  0  0
  3  5  1  0  0  0  0
  5  6  1  6  0  0  0
  5  7  1  0  0  0  0
  7  8  1  6  0  0  0
  7  9  1  0  0  0  0
  9 10  1  1  0  0  0
  9 11  1  0  0  0  0
 11 12  1  6  0  0  0
 11 13  1  0  0  0  0
 14 15  1  6  0  0  0
 14 16  1  0  0  0  0
 14 22  1  0  0  0  0
 16 17  1  0  0  0  0
 17 18  1  6  0  0  0
 17 19  1  0  0  0  0
 19  2  1  1  0  0  0
 19 20  1  0  0  0  0
 20 21  1  6  0  0  0
 20 22  1  0  0  0  0
 22 23  1  1  0  0  0
 24 23  1  6  0  0  0
 24 25  1  0  0  0  0
 24 34  1  0  0  0  0
 25 26  1  6  0  0  0
 25 27  1  0  0  0  0
 27 28  1  1  0  0  0
 27 30  1  0  0  0  0
 28 29  1  0  0  0  0
 30 31  1  1  0  0  0
 30 32  1  0  0  0  0
 30 33  1  0  0  0  0
 33 34  1  0  0  0  0
M  CHG  4   4   1  15   1  18   1  28   1
M  END
>  <CHROM.1>
99.62374832,-154.75132622,92.97179283,-177.17315359,-59.40258185,44.42738355
-53.65153941,83.05602361,177.18322807,56.01555318,-129.01058813,-146.49029625
24.07044591,43.22458161,-163.79967361,-3.96602159,5.54095125,13.95303082
3.11498566,-0.01672399,-0.71986083

>  <Name>
1mwl

>  <RI>
0

>  <Rbt.Current_Directory>
/home/itssahil/PROJECTS/Mol_Feturizer/New_Systems/rnas/1mwl

>  <Rbt.Executable>
rbdock ($Id: //depot/dev/client3/rdock/2013.1/src/exe/rbdock.cxx#4 $)

>  <Rbt.Library>
libRbt.so (2013.1, Build901 2013/11/27)

>  <Rbt.Parameter_File>
/export/apps/rDock/src/rDock_2013.1_src/data/scripts/dock_solv.prm

>  <Rbt.Receptor>
prm/blind_docking_20.prm

>  <SCORE>
22.7393

>  <SCORE.INTER>
2.66234

>  <SCORE.INTER.CONST>
1

>  <SCORE.INTER.POLAR>
-3.68906

>  <SCORE.INTER.ROT>
6

>  <SCORE.INTER.SOLV>
22.5379

>  <SCORE.INTER.VDW>
-1.04086

>  <SCORE.INTER.norm>
0.0783041

>  <SCORE.INTRA>
4.90978

>  <SCORE.INTRA.DIHEDRAL>
-11.7882

>  <SCORE.INTRA.DIHEDRAL.0>
42.0816

>  <SCORE.INTRA.POLAR>
-0.0551783

>  <SCORE.INTRA.POLAR.0>
-0.254682

>  <SCORE.INTRA.REPUL>
0

>  <SCORE.INTRA.REPUL.0>
0

>  <SCORE.INTRA.SOLV>
0.219008

>  <SCORE.INTRA.SOLV.lig_0>
-109.803

>  <SCORE.INTRA.VDW>
10.882

>  <SCORE.INTRA.VDW.0>
0.32176

>  <SCORE.INTRA.norm>
0.144405

>  <SCORE.RESTR>
15.1672

>  <SCORE.RESTR.CAVITY>
15.1672

>  <SCORE.RESTR.norm>
0.446094

>  <SCORE.SYSTEM>
0

>  <SCORE.SYSTEM.CONST>
0

>  <SCORE.SYSTEM.DIHEDRAL>
0

>  <SCORE.SYSTEM.SOLV>
0

>  <SCORE.SYSTEM.norm>
0

>  <SCORE.heavy>
34

>  <SCORE.norm>
0.668804

>  <RMSD>
11.836

$$$$
1mwl
 OpenBabel11021811403D
libRbt.so/2013.1/901 2013/11/27
 34 36  0  0  0  0  0  0  0  0999 V2000
   -6.8458    5.7246   15.4280 C   0  0  2  0  0  0  0  0  0  0  0  0
   -6.3266    4.4448   15.2251 O   0  0  0  0  0  0  0  0  0  0  0  0
   -8.1546    5.5706   16.2527 C   0  0  2  0  0  0  0  0  0  0  0  0
   -7.8727    4.9054   17.5284 N   0  3  0  0  0  0  0  0  0  0  0  0
   -9.2315    4.8001   15.4340 C   0  0  1  0  0  0  0  0  0  0  0  0
  -10.3855    4.6841   16.1376 O   0  0  0  0  0  0  0  0  0  0  0  0
   -9.4743    5.5608   14.0887 C   0  0  2  0  0  0  0  0  0  0  0  0
  -10.4767    4.8781   13.3068 O   0  0  0  0  0  0  0  0  0  0  0  0
   -8.1133    5.6458   13.3178 C   0  0  2  0  0  0  0  0  0  0  0  0
   -7.0997    6.3424   14.1404 O   0  0  0  0  0  0  0  0  0  0  0  0
   -8.1817    6.3892   11.9789 C   0  0  2  0  0  0  0  0  0  0  0  0
   -7.1123    7.2721   11.8783 O   0  0  0  0  0  0  0  0  0  0  0  0
   -9.4567    7.2351   11.8077 C   0  0  0  0  0  0  0  0  0  0  0  0
   -2.9299    2.8872   13.1526 C   0  0  2  0  0  0  0  0  0  0  0  0
   -1.9985    2.5289   12.0528 N   0  3  0  0  0  0  0  0  0  0  0  0
   -4.2984    2.1656   12.9724 C   0  0  0  0  0  0  0  0  0  0  0  0
   -5.2825    2.5657   14.1307 C   0  0  2  0  0  0  0  0  0  0  0  0
   -6.5936    1.8452   13.9344 N   0  3  0  0  0  0  0  0  0  0  0  0
   -5.4711    4.1216   14.1365 C   0  0  2  0  0  0  0  0  0  0  0  0
   -4.0966    4.8087   14.3257 C   0  0  2  0  0  0  0  0  0  0  0  0
   -4.2739    6.2043   14.2951 O   0  0  0  0  0  0  0  0  0  0  0  0
   -3.1425    4.4160   13.1660 C   0  0  1  0  0  0  0  0  0  0  0  0
   -1.8908    5.0585   13.3584 O   0  0  0  0  0  0  0  0  0  0  0  0
   -1.7374    5.9156   14.4559 C   0  0  2  0  0  0  0  0  0  0  0  0
   -0.4894    6.7803   14.1959 C   0  0  2  0  0  0  0  0  0  0  0  0
   -0.6937    7.5426   13.0255 O   0  0  0  0  0  0  0  0  0  0  0  0
    0.7589    5.8460   14.0413 C   0  0  1  0  0  0  0  0  0  0  0  0
    2.0026    6.6029   13.7579 N   0  3  0  0  0  0  0  0  0  0  0  0
    2.1648    6.8227   12.2980 C   0  0  0  0  0  0  0  0  0  0  0  0
    0.9338    4.9998   15.3491 C   0  0  2  0  0  0  0  0  0  0  0  0
    1.1333    5.8744   16.4754 O   0  0  0  0  0  0  0  0  0  0  0  0
    2.0802    4.1124   15.2755 C   0  0  0  0  0  0  0  0  0  0  0  0
   -0.3712    4.1987   15.6468 C   0  0  0  0  0  0  0  0  0  0  0  0
   -1.5565    5.1167   15.6801 O   0  0  0  0  0  0  0  0  0  0  0  0
  1  2  1  6  0  0  0
  1  3  1  0  0  0  0
  1 10  1  0  0  0  0
  3  4  1  1  0  0  0
  3  5  1  0  0  0  0
  5  6  1  1  0  0  0
  5  7  1  0  0  0  0
  7  8  1  6  0  0  0
  7  9  1  0  0  0  0
  9 10  1  1  0  0  0
  9 11  1  0  0  0  0
 11 12  1  1  0  0  0
 11 13  1  0  0  0  0
 14 15  1  6  0  0  0
 14 16  1  0  0  0  0
 14 22  1  0  0  0  0
 16 17  1  0  0  0  0
 17 18  1  6  0  0  0
 17 19  1  0  0  0  0
 19  2  1  1  0  0  0
 19 20  1  0  0  0  0
 20 21  1  6  0  0  0
 20 22  1  0  0  0  0
 22 23  1  1  0  0  0
 24 23  1  6  0  0  0
 24 25  1  0  0  0  0
 24 34  1  0  0  0  0
 25 26  1  6  0  0  0
 25 27  1  0  0  0  0
 27 28  1  1  0  0  0
 27 30  1  0  0  0  0
 28 29  1  0  0  0  0
 30 31  1  1  0  0  0
 30 32  1  0  0  0  0
 30 33  1  0  0  0  0
 33 34  1  0  0  0  0
M  CHG  4   4   1  15   1  18   1  28   1
M  END
>  <CHROM.1>
155.28160868,-171.58836361,-21.52370514,-172.31084852,-54.11936065,134.31464105
80.35567427,65.59250741,69.61220520,-52.14686239,-122.09257907,-163.20069611
171.46667018,32.65888318,-67.81634050,-4.25894182,5.12393027,14.18215034
-3.11392546,-0.01936029,-0.68244439

>  <Name>
1mwl

>  <RI>
0

>  <Rbt.Current_Directory>
/home/itssahil/PROJECTS/Mol_Feturizer/New_Systems/rnas/1mwl

>  <Rbt.Executable>
rbdock ($Id: //depot/dev/client3/rdock/2013.1/src/exe/rbdock.cxx#4 $)

>  <Rbt.Library>
libRbt.so (2013.1, Build901 2013/11/27)

>  <Rbt.Parameter_File>
/export/apps/rDock/src/rDock_2013.1_src/data/scripts/dock_solv.prm

>  <Rbt.Receptor>
prm/blind_docking_20.prm

>  <SCORE>
-1.38985

>  <SCORE.INTER>
-19.5998

>  <SCORE.INTER.CONST>
1

>  <SCORE.INTER.POLAR>
-4.12884

>  <SCORE.INTER.ROT>
6

>  <SCORE.INTER.SOLV>
21.2405

>  <SCORE.INTER.VDW>
-13.9839

>  <SCORE.INTER.norm>
-0.576464

>  <SCORE.INTRA>
-4.89784

>  <SCORE.INTRA.DIHEDRAL>
-18.3628

>  <SCORE.INTRA.DIHEDRAL.0>
42.0816

>  <SCORE.INTRA.POLAR>
0.128747

>  <SCORE.INTRA.POLAR.0>
-0.254682

>  <SCORE.INTRA.REPUL>
0

>  <SCORE.INTRA.REPUL.0>
0

>  <SCORE.INTRA.SOLV>
-2.84013

>  <SCORE.INTRA.SOLV.lig_0>
-109.803

>  <SCORE.INTRA.VDW>
5.26589

>  <SCORE.INTRA.VDW.0>
0.32176

>  <SCORE.INTRA.norm>
-0.144054

>  <SCORE.RESTR>
23.1078

>  <SCORE.RESTR.CAVITY>
23.1078

>  <SCORE.RESTR.norm>
0.67964

>  <SCORE.SYSTEM>
0

>  <SCORE.SYSTEM.CONST>
0

>  <SCORE.SYSTEM.DIHEDRAL>
0

>  <SCORE.SYSTEM.SOLV>
0

>  <SCORE.SYSTEM.norm>
0

>  <SCORE.heavy>
34

>  <SCORE.norm>
-0.0408779

>  <RMSD>
11.838

$$$$
1mwl
 OpenBabel11021811403D
libRbt.so/2013.1/901 2013/11/27
 34 36  0  0  0  0  0  0  0  0999 V2000
   -6.0326    4.8539   15.8393 C   0  0  2  0  0  0  0  0  0  0  0  0
   -5.9244    3.6755   15.0989 O   0  0  0  0  0  0  0  0  0  0  0  0
   -7.5369    5.0554   16.1763 C   0  0  2  0  0  0  0  0  0  0  0  0
   -8.0435    3.9064   16.9329 N   0  3  0  0  0  0  0  0  0  0  0  0
   -8.3630    5.2919   14.8782 C   0  0  1  0  0  0  0  0  0  0  0  0
   -9.6731    5.4941   15.1663 O   0  0  0  0  0  0  0  0  0  0  0  0
   -7.7632    6.5234   14.1224 C   0  0  2  0  0  0  0  0  0  0  0  0
   -8.5127    6.7782   12.9159 O   0  0  0  0  0  0  0  0  0  0  0  0
   -6.2594    6.2217   13.8037 C   0  0  2  0  0  0  0  0  0  0  0  0
   -5.5127    5.9566   15.0533 O   0  0  0  0  0  0  0  0  0  0  0  0
   -5.5197    7.3520   13.0790 C   0  0  2  0  0  0  0  0  0  0  0  0
   -5.8767    8.5762   13.6334 O   0  0  0  0  0  0  0  0  0  0  0  0
   -5.8530    7.4445   11.5788 C   0  0  0  0  0  0  0  0  0  0  0  0
   -2.7702    1.9830   12.7653 C   0  0  2  0  0  0  0  0  0  0  0  0
   -1.7889    1.7763   11.6699 N   0  3  0  0  0  0  0  0  0  0  0  0
   -4.2276    1.8699   12.2276 C   0  0  0  0  0  0  0  0  0  0  0  0
   -5.2578    2.1084   13.3904 C   0  0  2  0  0  0  0  0  0  0  0  0
   -6.6578    1.9835   12.8418 N   0  3  0  0  0  0  0  0  0  0  0  0
   -5.0070    3.5199   14.0237 C   0  0  2  0  0  0  0  0  0  0  0  0
   -3.5551    3.5977   14.5558 C   0  0  2  0  0  0  0  0  0  0  0  0
   -3.3313    4.8798   15.0909 O   0  0  0  0  0  0  0  0  0  0  0  0
   -2.5510    3.3760   13.3931 C   0  0  1  0  0  0  0  0  0  0  0  0
   -1.2278    3.4539   13.9028 O   0  0  0  0  0  0  0  0  0  0  0  0
   -0.2281    4.0095   13.0937 C   0  0  2  0  0  0  0  0  0  0  0  0
    0.7228    4.8004   14.0119 C   0  0  2  0  0  0  0  0  0  0  0  0
    1.3061    3.9141   14.9429 O   0  0  0  0  0  0  0  0  0  0  0  0
   -0.0877    5.9236   14.7444 C   0  0  1  0  0  0  0  0  0  0  0  0
    0.7535    6.7158   15.6744 N   0  3  0  0  0  0  0  0  0  0  0  0
    1.2374    5.8714   16.7964 C   0  0  0  0  0  0  0  0  0  0  0  0
   -0.7396    6.8679   13.6764 C   0  0  2  0  0  0  0  0  0  0  0  0
    0.2859    7.4745   12.8678 O   0  0  0  0  0  0  0  0  0  0  0  0
   -1.5043    7.9387   14.2893 C   0  0  0  0  0  0  0  0  0  0  0  0
   -1.6289    6.0380   12.6999 C   0  0  0  0  0  0  0  0  0  0  0  0
   -0.8432    4.9090   12.1027 O   0  0  0  0  0  0  0  0  0  0  0  0
  1  2  1  6  0  0  0
  1  3  1  0  0  0  0
  1 10  1  0  0  0  0
  3  4  1  6  0  0  0
  3  5  1  0  0  0  0
  5  6  1  1  0  0  0
  5  7  1  0  0  0  0
  7  8  1  6  0  0  0
  7  9  1  0  0  0  0
  9 10  1  1  0  0  0
  9 11  1  0  0  0  0
 11 12  1  1  0  0  0
 11 13  1  0  0  0  0
 14 15  1  6  0  0  0
 14 16  1  0  0  0  0
 14 22  1  0  0  0  0
 16 17  1  0  0  0  0
 17 18  1  6  0  0  0
 17 19  1  0  0  0  0
 19  2  1  1  0  0  0
 19 20  1  0  0  0  0
 20 21  1  6  0  0  0
 20 22  1  0  0  0  0
 22 23  1  1  0  0  0
 24 23  1  1  0  0  0
 24 25  1  0  0  0  0
 24 34  1  0  0  0  0
 25 26  1  1  0  0  0
 25 27  1  0  0  0  0
 27 28  1  1  0  0  0
 27 30  1  0  0  0  0
 28 29  1  0  0  0  0
 30 31  1  6  0  0  0
 30 32  1  0  0  0  0
 30 33  1  0  0  0  0
 33 34  1  0  0  0  0
M  CHG  4   4   1  15   1  18   1  28   1
M  END
>  <CHROM.1>
143.00270120,-176.12535999,171.31413003,-61.21119851,64.20488745,41.81494166
178.39537771,-49.47549948,-176.62129453,-168.94842396,94.64329362,143.56198530
-66.14058442,54.53521158,176.83610904,-3.77944071,5.01850883,14.03488710
-3.12505639,-0.05407452,-2.98135721

>  <Name>
1mwl

>  <RI>
0

>  <Rbt.Current_Directory>
/home/itssahil/PROJECTS/Mol_Feturizer/New_Systems/rnas/1mwl

>  <Rbt.Executable>
rbdock ($Id: //depot/dev/client3/rdock/2013.1/src/exe/rbdock.cxx#4 $)

>  <Rbt.Library>
libRbt.so (2013.1, Build901 2013/11/27)

>  <Rbt.Parameter_File>
/export/apps/rDock/src/rDock_2013.1_src/data/scripts/dock_solv.prm

>  <Rbt.Receptor>
prm/blind_docking_20.prm

>  <SCORE>
-7.60015

>  <SCORE.INTER>
-17.1728

>  <SCORE.INTER.CONST>
1

>  <SCORE.INTER.POLAR>
-2.47251

>  <SCORE.INTER.ROT>
6

>  <SCORE.INTER.SOLV>
24.3965

>  <SCORE.INTER.VDW>
-18.939

>  <SCORE.INTER.norm>
-0.505084

>  <SCORE.INTRA>
-11.0836

>  <SCORE.INTRA.DIHEDRAL>
-25.229

>  <SCORE.INTRA.DIHEDRAL.0>
42.0816

>  <SCORE.INTRA.POLAR>
0.226156

>  <SCORE.INTRA.POLAR.0>
-0.254682

>  <SCORE.INTRA.REPUL>
0

>  <SCORE.INTRA.REPUL.0>
0

>  <SCORE.INTRA.SOLV>
-1.27199

>  <SCORE.INTRA.SOLV.lig_0>
-109.803

>  <SCORE.INTRA.VDW>
1.39793

>  <SCORE.INTRA.VDW.0>
0.32176

>  <SCORE.INTRA.norm>
-0.325989

>  <SCORE.RESTR>
20.6563

>  <SCORE.RESTR.CAVITY>
20.6563

>  <SCORE.RESTR.norm>
0.607539

>  <SCORE.SYSTEM>
0

>  <SCORE.SYSTEM.CONST>
0

>  <SCORE.SYSTEM.DIHEDRAL>
0

>  <SCORE.SYSTEM.SOLV>
0

>  <SCORE.SYSTEM.norm>
0

>  <SCORE.heavy>
34

>  <SCORE.norm>
-0.223534

>  <RMSD>
11.861

$$$$
1mwl
 OpenBabel11021811403D
libRbt.so/2013.1/901 2013/11/27
 34 36  0  0  0  0  0  0  0  0999 V2000
   -6.2794    5.6457   15.7658 C   0  0  2  0  0  0  0  0  0  0  0  0
   -5.9869    4.3682   15.2850 O   0  0  0  0  0  0  0  0  0  0  0  0
   -7.7277    5.6105   16.3298 C   0  0  2  0  0  0  0  0  0  0  0  0
   -7.8311    4.6077   17.3944 N   0  3  0  0  0  0  0  0  0  0  0  0
   -8.7537    5.3401   15.1906 C   0  0  1  0  0  0  0  0  0  0  0  0
  -10.0223    5.3333   15.6710 O   0  0  0  0  0  0  0  0  0  0  0  0
   -8.5808    6.4403   14.0919 C   0  0  2  0  0  0  0  0  0  0  0  0
   -9.5253    6.2258   13.0223 O   0  0  0  0  0  0  0  0  0  0  0  0
   -7.1059    6.3851   13.5667 C   0  0  2  0  0  0  0  0  0  0  0  0
   -6.1558    6.6001   14.6804 O   0  0  0  0  0  0  0  0  0  0  0  0
   -6.7699    7.4262   12.4929 C   0  0  2  0  0  0  0  0  0  0  0  0
   -7.9205    7.7587   11.7866 O   0  0  0  0  0  0  0  0  0  0  0  0
   -5.7521    6.9296   11.4498 C   0  0  0  0  0  0  0  0  0  0  0  0
   -2.8283    2.9516   12.7799 C   0  0  2  0  0  0  0  0  0  0  0  0
   -2.0026    2.6896   11.5737 N   0  3  0  0  0  0  0  0  0  0  0  0
   -4.2328    2.2929   12.6394 C   0  0  0  0  0  0  0  0  0  0  0  0
   -5.1048    2.5915   13.9124 C   0  0  2  0  0  0  0  0  0  0  0  0
   -6.4534    1.9341   13.7513 N   0  3  0  0  0  0  0  0  0  0  0  0
   -5.2344    4.1421   14.1000 C   0  0  2  0  0  0  0  0  0  0  0  0
   -3.8246    4.7653   14.2452 C   0  0  2  0  0  0  0  0  0  0  0  0
   -3.9518    6.1603   14.3788 O   0  0  0  0  0  0  0  0  0  0  0  0
   -2.9822    4.4751   12.9742 C   0  0  1  0  0  0  0  0  0  0  0  0
   -1.6961    5.0571   13.1281 O   0  0  0  0  0  0  0  0  0  0  0  0
   -1.5994    6.3290   13.7073 C   0  0  2  0  0  0  0  0  0  0  0  0
   -0.1692    6.8433   13.4566 C   0  0  2  0  0  0  0  0  0  0  0  0
    0.0475    6.9397   12.0650 O   0  0  0  0  0  0  0  0  0  0  0  0
    0.8539    5.8544   14.1124 C   0  0  1  0  0  0  0  0  0  0  0  0
    2.2620    6.2642   13.8898 N   0  3  0  0  0  0  0  0  0  0  0  0
    2.7270    5.8427   12.5436 C   0  0  0  0  0  0  0  0  0  0  0  0
    0.5620    5.7559   15.6494 C   0  0  2  0  0  0  0  0  0  0  0  0
    0.7004    7.0534   16.2583 O   0  0  0  0  0  0  0  0  0  0  0  0
    1.4808    4.8561   16.3227 C   0  0  0  0  0  0  0  0  0  0  0  0
   -0.9168    5.3201   15.8865 C   0  0  0  0  0  0  0  0  0  0  0  0
   -1.8577    6.2296   15.1540 O   0  0  0  0  0  0  0  0  0  0  0  0
  1  2  1  6  0  0  0
  1  3  1  0  0  0  0
  1 10  1  0  0  0  0
  3  4  1  1  0  0  0
  3  5  1  0  0  0  0
  5  6  1  1  0  0  0
  5  7  1  0  0  0  0
  7  8  1  6  0  0  0
  7  9  1  0  0  0  0
  9 10  1  1  0  0  0
  9 11  1  0  0  0  0
 11 12  1  6  0  0  0
 11 13  1  0  0  0  0
 14 15  1  6  0  0  0
 14 16  1  0  0  0  0
 14 22  1  0  0  0  0
 16 17  1  0  0  0  0
 17 18  1  6  0  0  0
 17 19  1  0  0  0  0
 19  2  1  1  0  0  0
 19 20  1  0  0  0  0
 20 21  1  6  0  0  0
 20 22  1  0  0  0  0
 22 23  1  1  0  0  0
 24 23  1  6  0  0  0
 24 25  1  0  0  0  0
 24 34  1  0  0  0  0
 25 26  1  6  0  0  0
 25 27  1  0  0  0  0
 27 28  1  1  0  0  0
 27 30  1  0  0  0  0
 28 29  1  0  0  0  0
 30 31  1  1  0  0  0
 30 32  1  0  0  0  0
 30 33  1  0  0  0  0
 33 34  1  0  0  0  0
M  CHG  4   4   1  15   1  18   1  28   1
M  END
>  <CHROM.1>
141.76284107,179.13233416,-114.79605667,-175.37744513,84.82146364,-27.66904153
-179.30550517,-72.38977464,-76.14397020,-161.76493745,-161.03922734,-167.17757956
164.53442687,38.76424843,49.33917587,-3.92151866,5.39681737,14.08438038,-3.09961597
-0.01813101,-1.30210785

>  <Name>
1mwl

>  <RI>
0

>  <Rbt.Current_Directory>
/home/itssahil/PROJECTS/Mol_Feturizer/New_Systems/rnas/1mwl

>  <Rbt.Executable>
rbdock ($Id: //depot/dev/client3/rdock/2013.1/src/exe/rbdock.cxx#4 $)

>  <Rbt.Library>
libRbt.so (2013.1, Build901 2013/11/27)

>  <Rbt.Parameter_File>
/export/apps/rDock/src/rDock_2013.1_src/data/scripts/dock_solv.prm

>  <Rbt.Receptor>
prm/blind_docking_20.prm

>  <SCORE>
12.8318

>  <SCORE.INTER>
-14.5955

>  <SCORE.INTER.CONST>
1

>  <SCORE.INTER.POLAR>
-3.35993

>  <SCORE.INTER.ROT>
6

>  <SCORE.INTER.SOLV>
20.7729

>  <SCORE.INTER.VDW>
-13.0549

>  <SCORE.INTER.norm>
-0.42928

>  <SCORE.INTRA>
8.62888

>  <SCORE.INTRA.DIHEDRAL>
-20.136

>  <SCORE.INTRA.DIHEDRAL.0>
42.0816

>  <SCORE.INTRA.POLAR>
0.00403023

>  <SCORE.INTRA.POLAR.0>
-0.254682

>  <SCORE.INTRA.REPUL>
0.0356851

>  <SCORE.INTRA.REPUL.0>
0

>  <SCORE.INTRA.SOLV>
-3.3276

>  <SCORE.INTRA.SOLV.lig_0>
-109.803

>  <SCORE.INTRA.VDW>
20.1685

>  <SCORE.INTRA.VDW.0>
0.32176

>  <SCORE.INTRA.norm>
0.253791

>  <SCORE.RESTR>
18.7984

>  <SCORE.RESTR.CAVITY>
18.7984

>  <SCORE.RESTR.norm>
0.552895

>  <SCORE.SYSTEM>
0

>  <SCORE.SYSTEM.CONST>
0

>  <SCORE.SYSTEM.DIHEDRAL>
0

>  <SCORE.SYSTEM.SOLV>
0

>  <SCORE.SYSTEM.norm>
0

>  <SCORE.heavy>
34

>  <SCORE.norm>
0.377406

>  <RMSD>
11.886

$$$$
1mwl
 OpenBabel11021811403D
libRbt.so/2013.1/901 2013/11/27
 34 36  0  0  0  0  0  0  0  0999 V2000
   -7.5664    3.9170   13.8582 C   0  0  2  0  0  0  0  0  0  0  0  0
   -6.3034    4.4705   14.0748 O   0  0  0  0  0  0  0  0  0  0  0  0
   -8.3741    4.9248   12.9928 C   0  0  2  0  0  0  0  0  0  0  0  0
   -7.6800    5.1722   11.7253 N   0  3  0  0  0  0  0  0  0  0  0  0
   -8.6187    6.2477   13.7762 C   0  0  1  0  0  0  0  0  0  0  0  0
   -9.3451    7.1228   13.0368 O   0  0  0  0  0  0  0  0  0  0  0  0
   -9.3532    5.9065   15.1147 C   0  0  2  0  0  0  0  0  0  0  0  0
   -9.6055    7.1137   15.8638 O   0  0  0  0  0  0  0  0  0  0  0  0
   -8.4589    4.9100   15.9277 C   0  0  2  0  0  0  0  0  0  0  0  0
   -8.2074    3.6840   15.1383 O   0  0  0  0  0  0  0  0  0  0  0  0
   -9.0569    4.4587   17.2651 C   0  0  2  0  0  0  0  0  0  0  0  0
  -10.4450    4.4976   17.1944 O   0  0  0  0  0  0  0  0  0  0  0  0
   -8.6604    5.3558   18.4519 C   0  0  0  0  0  0  0  0  0  0  0  0
   -2.2802    3.2231   13.3555 C   0  0  2  0  0  0  0  0  0  0  0  0
   -1.0456    2.8042   12.6443 N   0  3  0  0  0  0  0  0  0  0  0  0
   -3.4242    2.1911   13.1270 C   0  0  0  0  0  0  0  0  0  0  0  0
   -4.7310    2.6528   13.8682 C   0  0  2  0  0  0  0  0  0  0  0  0
   -5.8164    1.6305   13.6366 N   0  3  0  0  0  0  0  0  0  0  0  0
   -5.1492    4.0705   13.3471 C   0  0  2  0  0  0  0  0  0  0  0  0
   -3.9966    5.0739   13.5959 C   0  0  2  0  0  0  0  0  0  0  0  0
   -4.3699    6.3342   13.0936 O   0  0  0  0  0  0  0  0  0  0  0  0
   -2.7191    4.6120   12.8448 C   0  0  1  0  0  0  0  0  0  0  0  0
   -1.6774    5.5468   13.0847 O   0  0  0  0  0  0  0  0  0  0  0  0
   -1.5987    6.1563   14.3437 C   0  0  2  0  0  0  0  0  0  0  0  0
   -0.2981    6.9810   14.3772 C   0  0  2  0  0  0  0  0  0  0  0  0
   -0.3565    7.9729   13.3745 O   0  0  0  0  0  0  0  0  0  0  0  0
    0.9216    6.0253   14.1448 C   0  0  1  0  0  0  0  0  0  0  0  0
    2.2160    6.7495   14.1330 N   0  3  0  0  0  0  0  0  0  0  0  0
    2.5620    7.1881   12.7569 C   0  0  0  0  0  0  0  0  0  0  0  0
    0.9339    4.9255   15.2617 C   0  0  2  0  0  0  0  0  0  0  0  0
    1.0565    5.5436   16.5564 O   0  0  0  0  0  0  0  0  0  0  0  0
    2.0462    4.0052   15.1090 C   0  0  0  0  0  0  0  0  0  0  0  0
   -0.4244    4.1588   15.2730 C   0  0  0  0  0  0  0  0  0  0  0  0
   -1.5702    5.1192   15.3893 O   0  0  0  0  0  0  0  0  0  0  0  0
  1  2  1  1  0  0  0
  1  3  1  0  0  0  0
  1 10  1  0  0  0  0
  3  4  1  6  0  0  0
  3  5  1  0  0  0  0
  5  6  1  6  0  0  0
  5  7  1  0  0  0  0
  7  8  1  1  0  0  0
  7  9  1  0  0  0  0
  9 10  1  6  0  0  0
  9 11  1  0  0  0  0
 11 12  1  6  0  0  0
 11 13  1  0  0  0  0
 14 15  1  6  0  0  0
 14 16  1  0  0  0  0
 14 22  1  0  0  0  0
 16 17  1  0  0  0  0
 17 18  1  6  0  0  0
 17 19  1  0  0  0  0
 19  2  1  1  0  0  0
 19 20  1  0  0  0  0
 20 21  1  6  0  0  0
 20 22  1  0  0  0  0
 22 23  1  1  0  0  0
 24 23  1  6  0  0  0
 24 25  1  0  0  0  0
 24 34  1  0  0  0  0
 25 26  1  6  0  0  0
 25 27  1  0  0  0  0
 27 28  1  1  0  0  0
 27 30  1  0  0  0  0
 28 29  1  0  0  0  0
 30 31  1  1  0  0  0
 30 32  1  0  0  0  0
 30 33  1  0  0  0  0
 33 34  1  0  0  0  0
M  CHG  4   4   1  15   1  18   1  28   1
M  END
>  <CHROM.1>
-101.26915439,-73.36152417,70.44234909,139.44186272,-178.53305854,28.10710583
60.71703620,-54.75987948,157.05398059,72.44450111,-84.53333138,173.43761274
-49.72276863,29.81311001,167.54122283,-4.17839881,5.04368130,14.34175846
3.13324779,0.10648923,0.54180113

>  <Name>
1mwl

>  <RI>
0

>  <Rbt.Current_Directory>
/home/itssahil/PROJECTS/Mol_Feturizer/New_Systems/rnas/1mwl

>  <Rbt.Executable>
rbdock ($Id: //depot/dev/client3/rdock/2013.1/src/exe/rbdock.cxx#4 $)

>  <Rbt.Library>
libRbt.so (2013.1, Build901 2013/11/27)

>  <Rbt.Parameter_File>
/export/apps/rDock/src/rDock_2013.1_src/data/scripts/dock_solv.prm

>  <Rbt.Receptor>
prm/blind_docking_20.prm

>  <SCORE>
8.6035

>  <SCORE.INTER>
-14.1175

>  <SCORE.INTER.CONST>
1

>  <SCORE.INTER.POLAR>
-4.02491

>  <SCORE.INTER.ROT>
6

>  <SCORE.INTER.SOLV>
20.1559

>  <SCORE.INTER.VDW>
-10.314

>  <SCORE.INTER.norm>
-0.415222

>  <SCORE.INTRA>
-6.64705

>  <SCORE.INTRA.DIHEDRAL>
-19.1866

>  <SCORE.INTRA.DIHEDRAL.0>
42.0816

>  <SCORE.INTRA.POLAR>
0.102875

>  <SCORE.INTRA.POLAR.0>
-0.254682

>  <SCORE.INTRA.REPUL>
0

>  <SCORE.INTRA.REPUL.0>
0

>  <SCORE.INTRA.SOLV>
1.68759

>  <SCORE.INTRA.SOLV.lig_0>
-109.803

>  <SCORE.INTRA.VDW>
1.75269

>  <SCORE.INTRA.VDW.0>
0.32176

>  <SCORE.INTRA.norm>
-0.195502

>  <SCORE.RESTR>
29.3681

>  <SCORE.RESTR.CAVITY>
29.3681

>  <SCORE.RESTR.norm>
0.863767

>  <SCORE.SYSTEM>
0

>  <SCORE.SYSTEM.CONST>
0

>  <SCORE.SYSTEM.DIHEDRAL>
0

>  <SCORE.SYSTEM.SOLV>
0

>  <SCORE.SYSTEM.norm>
0

>  <SCORE.heavy>
34

>  <SCORE.norm>
0.253044

>  <RMSD>
11.887

$$$$
1mwl
 OpenBabel11021811403D
libRbt.so/2013.1/901 2013/11/27
 34 36  0  0  0  0  0  0  0  0999 V2000
   -7.4095    5.2981   12.5623 C   0  0  2  0  0  0  0  0  0  0  0  0
   -6.4834    6.3271   12.3829 O   0  0  0  0  0  0  0  0  0  0  0  0
   -8.7947    5.9574   12.8141 C   0  0  2  0  0  0  0  0  0  0  0  0
   -9.1629    6.8090   11.6789 N   0  3  0  0  0  0  0  0  0  0  0  0
   -8.7864    6.7589   14.1487 C   0  0  1  0  0  0  0  0  0  0  0  0
   -9.9998    7.3162   14.3881 O   0  0  0  0  0  0  0  0  0  0  0  0
   -8.3797    5.7917   15.3091 C   0  0  2  0  0  0  0  0  0  0  0  0
   -8.3712    6.5007   16.5659 O   0  0  0  0  0  0  0  0  0  0  0  0
   -6.9676    5.1969   14.9831 C   0  0  2  0  0  0  0  0  0  0  0  0
   -6.9981    4.4814   13.6883 O   0  0  0  0  0  0  0  0  0  0  0  0
   -6.4358    4.2043   16.0233 C   0  0  2  0  0  0  0  0  0  0  0  0
   -5.4036    3.4546   15.4703 O   0  0  0  0  0  0  0  0  0  0  0  0
   -7.4915    3.1936   16.5072 C   0  0  0  0  0  0  0  0  0  0  0  0
   -2.8351    4.1909   11.7615 C   0  0  2  0  0  0  0  0  0  0  0  0
   -1.4269    3.8930   11.3959 N   0  3  0  0  0  0  0  0  0  0  0  0
   -3.6434    4.6492   10.5115 C   0  0  0  0  0  0  0  0  0  0  0  0
   -5.1267    4.9795   10.9123 C   0  0  2  0  0  0  0  0  0  0  0  0
   -5.8856    5.4107    9.6815 N   0  3  0  0  0  0  0  0  0  0  0  0
   -5.1300    6.0931   12.0152 C   0  0  2  0  0  0  0  0  0  0  0  0
   -4.3274    5.6048   13.2458 C   0  0  2  0  0  0  0  0  0  0  0  0
   -4.3085    6.6251   14.2147 O   0  0  0  0  0  0  0  0  0  0  0  0
   -2.8618    5.2983   12.8364 C   0  0  1  0  0  0  0  0  0  0  0  0
   -2.1448    4.8552   13.9793 O   0  0  0  0  0  0  0  0  0  0  0  0
   -1.7746    5.7980   14.9471 C   0  0  2  0  0  0  0  0  0  0  0  0
   -0.7661    6.7607   14.2922 C   0  0  2  0  0  0  0  0  0  0  0  0
   -1.3917    7.4154   13.2093 O   0  0  0  0  0  0  0  0  0  0  0  0
    0.4800    5.9451   13.8053 C   0  0  1  0  0  0  0  0  0  0  0  0
    1.4899    6.7987   13.1335 N   0  3  0  0  0  0  0  0  0  0  0  0
    1.1538    6.9828   11.6985 C   0  0  0  0  0  0  0  0  0  0  0  0
    1.1277    5.2138   15.0312 C   0  0  2  0  0  0  0  0  0  0  0  0
    1.5483    6.1806   16.0120 O   0  0  0  0  0  0  0  0  0  0  0  0
    2.2956    4.4403   14.6503 C   0  0  0  0  0  0  0  0  0  0  0  0
    0.0690    4.3113   15.7367 C   0  0  0  0  0  0  0  0  0  0  0  0
   -1.1511    5.1085   16.0896 O   0  0  0  0  0  0  0  0  0  0  0  0
  1  2  1  1  0  0  0
  1  3  1  0  0  0  0
  1 10  1  0  0  0  0
  3  4  1  6  0  0  0
  3  5  1  0  0  0  0
  5  6  1  1  0  0  0
  5  7  1  0  0  0  0
  7  8  1  1  0  0  0
  7  9  1  0  0  0  0
  9 10  1  6  0  0  0
  9 11  1  0  0  0  0
 11 12  1  6  0  0  0
 11 13  1  0  0  0  0
 14 15  1  6  0  0  0
 14 16  1  0  0  0  0
 14 22  1  0  0  0  0
 16 17  1  0  0  0  0
 17 18  1  6  0  0  0
 17 19  1  0  0  0  0
 19  2  1  1  0  0  0
 19 20  1  0  0  0  0
 20 21  1  1  0  0  0
 20 22  1  0  0  0  0
 22 23  1  1  0  0  0
 24 23  1  6  0  0  0
 24 25  1  0  0  0  0
 24 34  1  0  0  0  0
 25 26  1  6  0  0  0
 25 27  1  0  0  0  0
 27 28  1  1  0  0  0
 27 30  1  0  0  0  0
 28 29  1  0  0  0  0
 30 31  1  1  0  0  0
 30 32  1  0  0  0  0
 30 33  1  0  0  0  0
 33 34  1  0  0  0  0
M  CHG  4   4   1  15   1  18   1  28   1
M  END
>  <CHROM.1>
-174.38963330,41.94317998,-153.42542774,64.59698245,-28.93590936,162.50921202
70.64079440,62.04558704,-172.44497089,52.35767664,165.36319942,-65.26198683
-87.37560043,35.31795246,-26.56120757,-3.98808984,5.54941932,13.69236460
-3.11431465,-0.01604322,1.68872720

>  <Name>
1mwl

>  <RI>
0

>  <Rbt.Current_Directory>
/home/itssahil/PROJECTS/Mol_Feturizer/New_Systems/rnas/1mwl

>  <Rbt.Executable>
rbdock ($Id: //depot/dev/client3/rdock/2013.1/src/exe/rbdock.cxx#4 $)

>  <Rbt.Library>
libRbt.so (2013.1, Build901 2013/11/27)

>  <Rbt.Parameter_File>
/export/apps/rDock/src/rDock_2013.1_src/data/scripts/dock_solv.prm

>  <Rbt.Receptor>
prm/blind_docking_20.prm

>  <SCORE>
-15.1427

>  <SCORE.INTER>
-30.0439

>  <SCORE.INTER.CONST>
1

>  <SCORE.INTER.POLAR>
-5.1668

>  <SCORE.INTER.ROT>
6

>  <SCORE.INTER.SOLV>
24.5192

>  <SCORE.INTER.VDW>
-18.5796

>  <SCORE.INTER.norm>
-0.883644

>  <SCORE.INTRA>
-9.23362

>  <SCORE.INTRA.DIHEDRAL>
-22.9931

>  <SCORE.INTRA.DIHEDRAL.0>
42.0816

>  <SCORE.INTRA.POLAR>
0.146356

>  <SCORE.INTRA.POLAR.0>
-0.254682

>  <SCORE.INTRA.REPUL>
0

>  <SCORE.INTRA.REPUL.0>
0

>  <SCORE.INTRA.SOLV>
2.07217

>  <SCORE.INTRA.SOLV.lig_0>
-109.803

>  <SCORE.INTRA.VDW>
0.729225

>  <SCORE.INTRA.VDW.0>
0.32176

>  <SCORE.INTRA.norm>
-0.271577

>  <SCORE.RESTR>
24.1348

>  <SCORE.RESTR.CAVITY>
24.1348

>  <SCORE.RESTR.norm>
0.709847

>  <SCORE.SYSTEM>
0

>  <SCORE.SYSTEM.CONST>
0

>  <SCORE.SYSTEM.DIHEDRAL>
0

>  <SCORE.SYSTEM.SOLV>
0

>  <SCORE.SYSTEM.norm>
0

>  <SCORE.heavy>
34

>  <SCORE.norm>
-0.445374

>  <RMSD>
11.896

$$$$
1mwl
 OpenBabel11021811403D
libRbt.so/2013.1/901 2013/11/27
 34 36  0  0  0  0  0  0  0  0999 V2000
   -6.6652    5.7667   15.2051 C   0  0  2  0  0  0  0  0  0  0  0  0
   -6.3283    4.4449   14.9084 O   0  0  0  0  0  0  0  0  0  0  0  0
   -7.8821    5.7310   16.1720 C   0  0  2  0  0  0  0  0  0  0  0  0
   -7.5399    4.9863   17.3876 N   0  3  0  0  0  0  0  0  0  0  0  0
   -9.1282    5.1237   15.4634 C   0  0  1  0  0  0  0  0  0  0  0  0
  -10.2014    5.1128   16.2931 O   0  0  0  0  0  0  0  0  0  0  0  0
   -9.4282    5.9616   14.1768 C   0  0  2  0  0  0  0  0  0  0  0  0
  -10.5862    5.4313   13.4985 O   0  0  0  0  0  0  0  0  0  0  0  0
   -8.1620    5.9205   13.2553 C   0  0  2  0  0  0  0  0  0  0  0  0
   -6.9867    6.4616   13.9731 O   0  0  0  0  0  0  0  0  0  0  0  0
   -8.2914    6.7208   11.9543 C   0  0  2  0  0  0  0  0  0  0  0  0
   -7.3493    7.7433   11.9378 O   0  0  0  0  0  0  0  0  0  0  0  0
   -9.6638    7.3963   11.7797 C   0  0  0  0  0  0  0  0  0  0  0  0
   -2.5915    3.0848   13.3445 C   0  0  2  0  0  0  0  0  0  0  0  0
   -1.5250    2.7102   12.3813 N   0  3  0  0  0  0  0  0  0  0  0  0
   -3.8421    2.1744   13.1629 C   0  0  0  0  0  0  0  0  0  0  0  0
   -4.9712    2.5908   14.1738 C   0  0  2  0  0  0  0  0  0  0  0  0
   -6.1637    1.6868   13.9806 N   0  3  0  0  0  0  0  0  0  0  0  0
   -5.3419    4.0964   13.9454 C   0  0  2  0  0  0  0  0  0  0  0  0
   -4.0821    4.9749   14.1412 C   0  0  2  0  0  0  0  0  0  0  0  0
   -4.4194    6.3197   13.9005 O   0  0  0  0  0  0  0  0  0  0  0  0
   -2.9835    4.5617   13.1256 C   0  0  1  0  0  0  0  0  0  0  0  0
   -1.8401    5.3808   13.3214 O   0  0  0  0  0  0  0  0  0  0  0  0
   -1.7022    6.0619   14.5378 C   0  0  2  0  0  0  0  0  0  0  0  0
   -0.4285    6.9230   14.4432 C   0  0  2  0  0  0  0  0  0  0  0  0
   -0.5802    7.8550   13.3940 O   0  0  0  0  0  0  0  0  0  0  0  0
    0.8036    5.9900   14.1856 C   0  0  1  0  0  0  0  0  0  0  0  0
    2.0715    6.7480   14.0518 N   0  3  0  0  0  0  0  0  0  0  0  0
    2.9847    6.0818   13.0884 C   0  0  0  0  0  0  0  0  0  0  0  0
    0.9199    4.9554   15.3575 C   0  0  2  0  0  0  0  0  0  0  0  0
    1.1035    5.6484   16.6063 O   0  0  0  0  0  0  0  0  0  0  0  0
    2.0487    4.0593   15.1841 C   0  0  0  0  0  0  0  0  0  0  0  0
   -0.4105    4.1531   15.4972 C   0  0  0  0  0  0  0  0  0  0  0  0
   -1.5762    5.0864   15.6342 O   0  0  0  0  0  0  0  0  0  0  0  0
  1  2  1  6  0  0  0
  1  3  1  0  0  0  0
  1 10  1  0  0  0  0
  3  4  1  1  0  0  0
  3  5  1  0  0  0  0
  5  6  1  1  0  0  0
  5  7  1  0  0  0  0
  7  8  1  6  0  0  0
  7  9  1  0  0  0  0
  9 10  1  1  0  0  0
  9 11  1  0  0  0  0
 11 12  1  1  0  0  0
 11 13  1  0  0  0  0
 14 15  1  6  0  0  0
 14 16  1  0  0  0  0
 14 22  1  0  0  0  0
 16 17  1  0  0  0  0
 17 18  1  6  0  0  0
 17 19  1  0  0  0  0
 19  2  1  1  0  0  0
 19 20  1  0  0  0  0
 20 21  1  6  0  0  0
 20 22  1  0  0  0  0
 22 23  1  1  0  0  0
 24 23  1  6  0  0  0
 24 25  1  0  0  0  0
 24 34  1  0  0  0  0
 25 26  1  6  0  0  0
 25 27  1  0  0  0  0
 27 28  1  1  0  0  0
 27 30  1  0  0  0  0
 28 29  1  0  0  0  0
 30 31  1  1  0  0  0
 30 32  1  0  0  0  0
 30 33  1  0  0  0  0
 33 34  1  0  0  0  0
M  CHG  4   4   1  15   1  18   1  28   1
M  END
>  <CHROM.1>
173.56428545,164.71118784,-64.73105008,61.26382828,47.61744878,117.47881929
65.24913221,-57.35245508,-37.39866406,90.94781227,-101.11936807,-176.91509448
168.45203848,-26.64466449,-70.02908964,-4.15004698,5.25100854,14.22811897
-3.11510698,0.01102102,2.71708450

>  <Name>
1mwl

>  <RI>
0

>  <Rbt.Current_Directory>
/home/itssahil/PROJECTS/Mol_Feturizer/New_Systems/rnas/1mwl

>  <Rbt.Executable>
rbdock ($Id: //depot/dev/client3/rdock/2013.1/src/exe/rbdock.cxx#4 $)

>  <Rbt.Library>
libRbt.so (2013.1, Build901 2013/11/27)

>  <Rbt.Parameter_File>
/export/apps/rDock/src/rDock_2013.1_src/data/scripts/dock_solv.prm

>  <Rbt.Receptor>
prm/blind_docking_20.prm

>  <SCORE>
13.182

>  <SCORE.INTER>
-5.45686

>  <SCORE.INTER.CONST>
1

>  <SCORE.INTER.POLAR>
-2.6897

>  <SCORE.INTER.ROT>
6

>  <SCORE.INTER.SOLV>
26.5204

>  <SCORE.INTER.VDW>
-11.1124

>  <SCORE.INTER.norm>
-0.160496

>  <SCORE.INTRA>
-2.98926

>  <SCORE.INTRA.DIHEDRAL>
-20.7519

>  <SCORE.INTRA.DIHEDRAL.0>
42.0816

>  <SCORE.INTRA.POLAR>
0.236062

>  <SCORE.INTRA.POLAR.0>
-0.254682

>  <SCORE.INTRA.REPUL>
0

>  <SCORE.INTRA.REPUL.0>
0

>  <SCORE.INTRA.SOLV>
-2.4392

>  <SCORE.INTRA.SOLV.lig_0>
-109.803

>  <SCORE.INTRA.VDW>
7.80366

>  <SCORE.INTRA.VDW.0>
0.32176

>  <SCORE.INTRA.norm>
-0.0879194

>  <SCORE.RESTR>
21.6281

>  <SCORE.RESTR.CAVITY>
21.6281

>  <SCORE.RESTR.norm>
0.63612

>  <SCORE.SYSTEM>
0

>  <SCORE.SYSTEM.CONST>
0

>  <SCORE.SYSTEM.DIHEDRAL>
0

>  <SCORE.SYSTEM.SOLV>
0

>  <SCORE.SYSTEM.norm>
0

>  <SCORE.heavy>
34

>  <SCORE.norm>
0.387705

>  <RMSD>
11.919

$$$$
1mwl
 OpenBabel11021811403D
libRbt.so/2013.1/901 2013/11/27
 34 36  0  0  0  0  0  0  0  0999 V2000
   -6.5868    5.8151   15.2718 C   0  0  2  0  0  0  0  0  0  0  0  0
   -6.2406    4.4937   14.9841 O   0  0  0  0  0  0  0  0  0  0  0  0
   -7.8235    5.7778   16.2131 C   0  0  2  0  0  0  0  0  0  0  0  0
   -7.5050    5.0356   17.4367 N   0  3  0  0  0  0  0  0  0  0  0  0
   -9.0531    5.1665   15.4796 C   0  0  1  0  0  0  0  0  0  0  0  0
  -10.1433    5.1541   16.2867 O   0  0  0  0  0  0  0  0  0  0  0  0
   -9.3282    6.0017   14.1857 C   0  0  2  0  0  0  0  0  0  0  0  0
  -10.4705    5.4677   13.4841 O   0  0  0  0  0  0  0  0  0  0  0  0
   -8.0429    5.9625   13.2909 C   0  0  2  0  0  0  0  0  0  0  0  0
   -6.8841    6.5074   14.0323 O   0  0  0  0  0  0  0  0  0  0  0  0
   -8.1470    6.7607   11.9863 C   0  0  2  0  0  0  0  0  0  0  0  0
   -7.2577    7.8290   12.0187 O   0  0  0  0  0  0  0  0  0  0  0  0
   -9.5412    7.3674   11.7442 C   0  0  0  0  0  0  0  0  0  0  0  0
   -2.6609    2.9464   13.2373 C   0  0  2  0  0  0  0  0  0  0  0  0
   -1.6443    2.5626   12.2251 N   0  3  0  0  0  0  0  0  0  0  0  0
   -3.9907    2.1697   13.0042 C   0  0  0  0  0  0  0  0  0  0  0  0
   -5.0652    2.5964   14.0688 C   0  0  2  0  0  0  0  0  0  0  0  0
   -6.3367    1.8219   13.8235 N   0  3  0  0  0  0  0  0  0  0  0  0
   -5.3014    4.1430   13.9758 C   0  0  2  0  0  0  0  0  0  0  0  0
   -3.9652    4.8860   14.2202 C   0  0  2  0  0  0  0  0  0  0  0  0
   -4.1826    6.2711   14.1007 O   0  0  0  0  0  0  0  0  0  0  0  0
   -2.9207    4.4655   13.1518 C   0  0  1  0  0  0  0  0  0  0  0  0
   -1.7058    5.1600   13.3934 O   0  0  0  0  0  0  0  0  0  0  0  0
   -1.6103    5.9700   14.5325 C   0  0  2  0  0  0  0  0  0  0  0  0
   -0.3404    6.8290   14.3833 C   0  0  2  0  0  0  0  0  0  0  0  0
   -0.4663    7.6405   13.2352 O   0  0  0  0  0  0  0  0  0  0  0  0
    0.9057    5.8864   14.2652 C   0  0  1  0  0  0  0  0  0  0  0  0
    2.1716    6.6387   14.0880 N   0  3  0  0  0  0  0  0  0  0  0  0
    2.4618    6.8501   12.6467 C   0  0  0  0  0  0  0  0  0  0  0  0
    0.9931    4.9858   15.5451 C   0  0  2  0  0  0  0  0  0  0  0  0
    1.1333    5.8116   16.7164 O   0  0  0  0  0  0  0  0  0  0  0  0
    2.1331    4.0880   15.5037 C   0  0  0  0  0  0  0  0  0  0  0  0
   -0.3352    4.1896   15.7312 C   0  0  0  0  0  0  0  0  0  0  0  0
   -1.5112    5.1200   15.7314 O   0  0  0  0  0  0  0  0  0  0  0  0
  1  2  1  6  0  0  0
  1  3  1  0  0  0  0
  1 10  1  0  0  0  0
  3  4  1  1  0  0  0
  3  5  1  0  0  0  0
  5  6  1  1  0  0  0
  5  7  1  0  0  0  0
  7  8  1  6  0  0  0
  7  9  1  0  0  0  0
  9 10  1  1  0  0  0
  9 11  1  0  0  0  0
 11 12  1  1  0  0  0
 11 13  1  0  0  0  0
 14 15  1  6  0  0  0
 14 16  1  0  0  0  0
 14 22  1  0  0  0  0
 16 17  1  0  0  0  0
 17 18  1  6  0  0  0
 17 19  1  0  0  0  0
 19  2  1  1  0  0  0
 19 20  1  0  0  0  0
 20 21  1  6  0  0  0
 20 22  1  0  0  0  0
 22 23  1  1  0  0  0
 24 23  1  6  0  0  0
 24 25  1  0  0  0  0
 24 34  1  0  0  0  0
 25 26  1  6  0  0  0
 25 27  1  0  0  0  0
 27 28  1  1  0  0  0
 27 30  1  0  0  0  0
 28 29  1  0  0  0  0
 30 31  1  1  0  0  0
 30 32  1  0  0  0  0
 30 33  1  0  0  0  0
 33 34  1  0  0  0  0
M  CHG  4   4   1  15   1  18   1  28   1
M  END
>  <CHROM.1>
168.99202710,173.71090613,43.70157274,-62.03659480,-57.64172757,114.26635854
64.55112448,-53.16868107,-52.87204102,-73.76162328,-115.37822032,-167.62240352
166.05890532,29.52627113,-71.60695740,-4.10351925,5.25867181,14.23868752
3.12087775,-0.01671828,-0.48032808

>  <Name>
1mwl

>  <RI>
0

>  <Rbt.Current_Directory>
/home/itssahil/PROJECTS/Mol_Feturizer/New_Systems/rnas/1mwl

>  <Rbt.Executable>
rbdock ($Id: //depot/dev/client3/rdock/2013.1/src/exe/rbdock.cxx#4 $)

>  <Rbt.Library>
libRbt.so (2013.1, Build901 2013/11/27)

>  <Rbt.Parameter_File>
/export/apps/rDock/src/rDock_2013.1_src/data/scripts/dock_solv.prm

>  <Rbt.Receptor>
prm/blind_docking_20.prm

>  <SCORE>
1.68104

>  <SCORE.INTER>
-14.1219

>  <SCORE.INTER.CONST>
1

>  <SCORE.INTER.POLAR>
-4.04874

>  <SCORE.INTER.ROT>
6

>  <SCORE.INTER.SOLV>
24.9967

>  <SCORE.INTER.VDW>
-11.8511

>  <SCORE.INTER.norm>
-0.415351

>  <SCORE.INTRA>
-5.49667

>  <SCORE.INTRA.DIHEDRAL>
-22.9589

>  <SCORE.INTRA.DIHEDRAL.0>
42.0816

>  <SCORE.INTRA.POLAR>
0.254682

>  <SCORE.INTRA.POLAR.0>
-0.254682

>  <SCORE.INTRA.REPUL>
0.0727808

>  <SCORE.INTRA.REPUL.0>
0

>  <SCORE.INTRA.SOLV>
-3.06778

>  <SCORE.INTRA.SOLV.lig_0>
-109.803

>  <SCORE.INTRA.VDW>
6.28683

>  <SCORE.INTRA.VDW.0>
0.32176

>  <SCORE.INTRA.norm>
-0.161667

>  <SCORE.RESTR>
21.2996

>  <SCORE.RESTR.CAVITY>
21.2996

>  <SCORE.RESTR.norm>
0.62646

>  <SCORE.SYSTEM>
0

>  <SCORE.SYSTEM.CONST>
0

>  <SCORE.SYSTEM.DIHEDRAL>
0

>  <SCORE.SYSTEM.SOLV>
0

>  <SCORE.SYSTEM.norm>
0

>  <SCORE.heavy>
34

>  <SCORE.norm>
0.0494423

>  <RMSD>
11.934

$$$$
1mwl
 OpenBabel11021811403D
libRbt.so/2013.1/901 2013/11/27
 34 36  0  0  0  0  0  0  0  0999 V2000
   -6.6267    5.6917   15.4527 C   0  0  2  0  0  0  0  0  0  0  0  0
   -6.4796    4.3635   15.0490 O   0  0  0  0  0  0  0  0  0  0  0  0
   -8.1473    5.9552   15.6409 C   0  0  2  0  0  0  0  0  0  0  0  0
   -8.7000    5.0343   16.6388 N   0  3  0  0  0  0  0  0  0  0  0  0
   -8.8966    5.8389   14.2813 C   0  0  1  0  0  0  0  0  0  0  0  0
  -10.2205    6.0928   14.4331 O   0  0  0  0  0  0  0  0  0  0  0  0
   -8.2506    6.8408   13.2682 C   0  0  2  0  0  0  0  0  0  0  0  0
   -8.9287    6.7667   11.9966 O   0  0  0  0  0  0  0  0  0  0  0  0
   -6.7319    6.4852   13.1235 C   0  0  2  0  0  0  0  0  0  0  0  0
   -6.0591    6.5605   14.4392 O   0  0  0  0  0  0  0  0  0  0  0  0
   -5.9484    7.3991   12.1744 C   0  0  2  0  0  0  0  0  0  0  0  0
   -6.8134    8.3148   11.5857 O   0  0  0  0  0  0  0  0  0  0  0  0
   -5.2650    6.6466   11.0181 C   0  0  0  0  0  0  0  0  0  0  0  0
   -3.1205    2.2719   13.4363 C   0  0  2  0  0  0  0  0  0  0  0  0
   -2.0814    1.8069   12.4826 N   0  3  0  0  0  0  0  0  0  0  0  0
   -4.5425    1.8814   12.9348 C   0  0  0  0  0  0  0  0  0  0  0  0
   -5.6354    2.3940   13.9412 C   0  0  2  0  0  0  0  0  0  0  0  0
   -6.9990    1.9934   13.4342 N   0  3  0  0  0  0  0  0  0  0  0  0
   -5.5084    3.9483   14.0971 C   0  0  2  0  0  0  0  0  0  0  0  0
   -4.0893    4.3032   14.6044 C   0  0  2  0  0  0  0  0  0  0  0  0
   -3.9762    5.7020   14.7078 O   0  0  0  0  0  0  0  0  0  0  0  0
   -3.0235    3.8045   13.5922 C   0  0  1  0  0  0  0  0  0  0  0  0
   -1.7318    4.1424   14.0757 O   0  0  0  0  0  0  0  0  0  0  0  0
   -1.6070    5.2207   14.9614 C   0  0  2  0  0  0  0  0  0  0  0  0
   -0.9185    6.3680   14.1982 C   0  0  2  0  0  0  0  0  0  0  0  0
   -1.7287    6.7449   13.1055 O   0  0  0  0  0  0  0  0  0  0  0  0
    0.4892    5.8857   13.7076 C   0  0  1  0  0  0  0  0  0  0  0  0
    1.2085    6.9274   12.9346 N   0  3  0  0  0  0  0  0  0  0  0  0
    0.6021    7.0985   11.5896 C   0  0  0  0  0  0  0  0  0  0  0  0
    1.3456    5.4521   14.9468 C   0  0  2  0  0  0  0  0  0  0  0  0
    1.5126    6.5680   15.8414 O   0  0  0  0  0  0  0  0  0  0  0  0
    2.6695    4.9970   14.5628 C   0  0  0  0  0  0  0  0  0  0  0  0
    0.5938    4.3528   15.7588 C   0  0  0  0  0  0  0  0  0  0  0  0
   -0.7877    4.8143   16.1159 O   0  0  0  0  0  0  0  0  0  0  0  0
  1  2  1  6  0  0  0
  1  3  1  0  0  0  0
  1 10  1  0  0  0  0
  3  4  1  1  0  0  0
  3  5  1  0  0  0  0
  5  6  1  1  0  0  0
  5  7  1  0  0  0  0
  7  8  1  6  0  0  0
  7  9  1  0  0  0  0
  9 10  1  1  0  0  0
  9 11  1  0  0  0  0
 11 12  1  6  0  0  0
 11 13  1  0  0  0  0
 14 15  1  6  0  0  0
 14 16  1  0  0  0  0
 14 22  1  0  0  0  0
 16 17  1  0  0  0  0
 17 18  1  6  0  0  0
 17 19  1  0  0  0  0
 19  2  1  1  0  0  0
 19 20  1  0  0  0  0
 20 21  1  6  0  0  0
 20 22  1  0  0  0  0
 22 23  1  1  0  0  0
 24 23  1  6  0  0  0
 24 25  1  0  0  0  0
 24 34  1  0  0  0  0
 25 26  1  6  0  0  0
 25 27  1  0  0  0  0
 27 28  1  1  0  0  0
 27 30  1  0  0  0  0
 28 29  1  0  0  0  0
 30 31  1  1  0  0  0
 30 32  1  0  0  0  0
 30 33  1  0  0  0  0
 33 34  1  0  0  0  0
M  CHG  4   4   1  15   1  18   1  28   1
M  END
>  <CHROM.1>
142.55124055,178.60225027,-46.52094531,61.43011702,-60.66797474,-3.43583606
-52.22476075,-57.32656882,-53.79777037,-59.08403120,-144.68433624,-108.91180425
-56.93463523,47.13677919,-171.45305481,-3.97940810,5.27115495,13.93043025
3.09985716,-0.02683326,-0.35568965

>  <Name>
1mwl

>  <RI>
0

>  <Rbt.Current_Directory>
/home/itssahil/PROJECTS/Mol_Feturizer/New_Systems/rnas/1mwl

>  <Rbt.Executable>
rbdock ($Id: //depot/dev/client3/rdock/2013.1/src/exe/rbdock.cxx#4 $)

>  <Rbt.Library>
libRbt.so (2013.1, Build901 2013/11/27)

>  <Rbt.Parameter_File>
/export/apps/rDock/src/rDock_2013.1_src/data/scripts/dock_solv.prm

>  <Rbt.Receptor>
prm/blind_docking_20.prm

>  <SCORE>
-4.30134

>  <SCORE.INTER>
-19.0796

>  <SCORE.INTER.CONST>
1

>  <SCORE.INTER.POLAR>
-3.72533

>  <SCORE.INTER.ROT>
6

>  <SCORE.INTER.SOLV>
20.991

>  <SCORE.INTER.VDW>
-14.899

>  <SCORE.INTER.norm>
-0.561164

>  <SCORE.INTRA>
-3.53092

>  <SCORE.INTRA.DIHEDRAL>
-18.7617

>  <SCORE.INTRA.DIHEDRAL.0>
42.0816

>  <SCORE.INTRA.POLAR>
-0.136692

>  <SCORE.INTRA.POLAR.0>
-0.254682

>  <SCORE.INTRA.REPUL>
0

>  <SCORE.INTRA.REPUL.0>
0

>  <SCORE.INTRA.SOLV>
-2.89336

>  <SCORE.INTRA.SOLV.lig_0>
-109.803

>  <SCORE.INTRA.VDW>
7.76137

>  <SCORE.INTRA.VDW.0>
0.32176

>  <SCORE.INTRA.norm>
-0.103851

>  <SCORE.RESTR>
18.3092

>  <SCORE.RESTR.CAVITY>
18.3092

>  <SCORE.RESTR.norm>
0.538505

>  <SCORE.SYSTEM>
0

>  <SCORE.SYSTEM.CONST>
0

>  <SCORE.SYSTEM.DIHEDRAL>
0

>  <SCORE.SYSTEM.SOLV>
0

>  <SCORE.SYSTEM.norm>
0

>  <SCORE.heavy>
34

>  <SCORE.norm>
-0.12651

>  <RMSD>
11.945

$$$$
1mwl
 OpenBabel11021811403D
libRbt.so/2013.1/901 2013/11/27
 34 36  0  0  0  0  0  0  0  0999 V2000
   -7.5506    5.2926   13.4571 C   0  0  2  0  0  0  0  0  0  0  0  0
   -6.7340    6.4015   13.2287 O   0  0  0  0  0  0  0  0  0  0  0  0
   -8.0134    5.3530   14.9400 C   0  0  2  0  0  0  0  0  0  0  0  0
   -8.7357    6.6035   15.1934 N   0  3  0  0  0  0  0  0  0  0  0  0
   -6.7992    5.1915   15.9008 C   0  0  1  0  0  0  0  0  0  0  0  0
   -7.1986    5.2176   17.1969 O   0  0  0  0  0  0  0  0  0  0  0  0
   -6.0757    3.8448   15.5685 C   0  0  2  0  0  0  0  0  0  0  0  0
   -4.9479    3.6572   16.4489 O   0  0  0  0  0  0  0  0  0  0  0  0
   -5.6250    3.8842   14.0688 C   0  0  2  0  0  0  0  0  0  0  0  0
   -6.7954    4.0843   13.1858 O   0  0  0  0  0  0  0  0  0  0  0  0
   -4.9156    2.6160   13.5804 C   0  0  2  0  0  0  0  0  0  0  0  0
   -5.4623    1.5023   14.2081 O   0  0  0  0  0  0  0  0  0  0  0  0
   -3.4088    2.5922   13.8955 C   0  0  0  0  0  0  0  0  0  0  0  0
   -3.1322    4.7765   11.6022 C   0  0  2  0  0  0  0  0  0  0  0  0
   -1.8700    4.6548   10.8291 N   0  3  0  0  0  0  0  0  0  0  0  0
   -4.3451    4.9829   10.6472 C   0  0  0  0  0  0  0  0  0  0  0  0
   -5.6727    5.1289   11.4757 C   0  0  2  0  0  0  0  0  0  0  0  0
   -6.8289    5.3178   10.5248 N   0  3  0  0  0  0  0  0  0  0  0  0
   -5.5349    6.3345   12.4675 C   0  0  2  0  0  0  0  0  0  0  0  0
   -4.3279    6.0959   13.4074 C   0  0  2  0  0  0  0  0  0  0  0  0
   -4.1936    7.1995   14.2700 O   0  0  0  0  0  0  0  0  0  0  0  0
   -3.0237    5.9698   12.5753 C   0  0  1  0  0  0  0  0  0  0  0  0
   -1.9312    5.7542   13.4564 O   0  0  0  0  0  0  0  0  0  0  0  0
   -1.1300    6.8468   13.8128 C   0  0  2  0  0  0  0  0  0  0  0  0
    0.2193    6.6864   13.0871 C   0  0  2  0  0  0  0  0  0  0  0  0
   -0.0038    6.6984   11.6934 O   0  0  0  0  0  0  0  0  0  0  0  0
    0.8848    5.3399   13.5332 C   0  0  1  0  0  0  0  0  0  0  0  0
    2.1806    5.0950   12.8541 N   0  3  0  0  0  0  0  0  0  0  0  0
    1.9655    4.6395   11.4569 C   0  0  0  0  0  0  0  0  0  0  0  0
    1.0900    5.3570   15.0871 C   0  0  2  0  0  0  0  0  0  0  0  0
    1.9469    6.4539   15.4560 O   0  0  0  0  0  0  0  0  0  0  0  0
    1.7099    4.1361   15.5691 C   0  0  0  0  0  0  0  0  0  0  0  0
   -0.2721    5.6094   15.8041 C   0  0  0  0  0  0  0  0  0  0  0  0
   -0.9257    6.8495   15.2715 O   0  0  0  0  0  0  0  0  0  0  0  0
  1  2  1  1  0  0  0
  1  3  1  0  0  0  0
  1 10  1  0  0  0  0
  3  4  1  1  0  0  0
  3  5  1  0  0  0  0
  5  6  1  1  0  0  0
  5  7  1  0  0  0  0
  7  8  1  1  0  0  0
  7  9  1  0  0  0  0
  9 10  1  6  0  0  0
  9 11  1  0  0  0  0
 11 12  1  1  0  0  0
 11 13  1  0  0  0  0
 14 15  1  6  0  0  0
 14 16  1  0  0  0  0
 14 22  1  0  0  0  0
 16 17  1  0  0  0  0
 17 18  1  6  0  0  0
 17 19  1  0  0  0  0
 19  2  1  1  0  0  0
 19 20  1  0  0  0  0
 20 21  1  1  0  0  0
 20 22  1  0  0  0  0
 22 23  1  1  0  0  0
 24 23  1  1  0  0  0
 24 25  1  0  0  0  0
 24 34  1  0  0  0  0
 25 26  1  6  0  0  0
 25 27  1  0  0  0  0
 27 28  1  6  0  0  0
 27 30  1  0  0  0  0
 28 29  1  0  0  0  0
 30 31  1  1  0  0  0
 30 32  1  0  0  0  0
 30 33  1  0  0  0  0
 33 34  1  0  0  0  0
M  CHG  4   4   1  15   1  18   1  28   1
M  END
>  <CHROM.1>
138.60556417,25.50845005,-173.55653336,64.53971798,87.01882449,34.39534315
156.06643758,-93.65449894,13.47318160,-67.91726481,141.21713349,-107.63412471
73.91001846,43.49353873,59.74968365,-3.39639736,5.18691591,13.70777782,3.06477405
0.07891071,1.63423373

>  <Name>
1mwl

>  <RI>
0

>  <Rbt.Current_Directory>
/home/itssahil/PROJECTS/Mol_Feturizer/New_Systems/rnas/1mwl

>  <Rbt.Executable>
rbdock ($Id: //depot/dev/client3/rdock/2013.1/src/exe/rbdock.cxx#4 $)

>  <Rbt.Library>
libRbt.so (2013.1, Build901 2013/11/27)

>  <Rbt.Parameter_File>
/export/apps/rDock/src/rDock_2013.1_src/data/scripts/dock_solv.prm

>  <Rbt.Receptor>
prm/blind_docking_20.prm

>  <SCORE>
14.6462

>  <SCORE.INTER>
-13.3983

>  <SCORE.INTER.CONST>
1

>  <SCORE.INTER.POLAR>
-4.01607

>  <SCORE.INTER.ROT>
6

>  <SCORE.INTER.SOLV>
22.1634

>  <SCORE.INTER.VDW>
-10.5331

>  <SCORE.INTER.norm>
-0.394067

>  <SCORE.INTRA>
3.91647

>  <SCORE.INTRA.DIHEDRAL>
-5.37896

>  <SCORE.INTRA.DIHEDRAL.0>
42.0816

>  <SCORE.INTRA.POLAR>
-0.853356

>  <SCORE.INTRA.POLAR.0>
-0.254682

>  <SCORE.INTRA.REPUL>
0

>  <SCORE.INTRA.REPUL.0>
0

>  <SCORE.INTRA.SOLV>
2.01363

>  <SCORE.INTRA.SOLV.lig_0>
-109.803

>  <SCORE.INTRA.VDW>
8.50054

>  <SCORE.INTRA.VDW.0>
0.32176

>  <SCORE.INTRA.norm>
0.11519

>  <SCORE.RESTR>
24.128

>  <SCORE.RESTR.CAVITY>
24.128

>  <SCORE.RESTR.norm>
0.709648

>  <SCORE.SYSTEM>
0

>  <SCORE.SYSTEM.CONST>
0

>  <SCORE.SYSTEM.DIHEDRAL>
0

>  <SCORE.SYSTEM.SOLV>
0

>  <SCORE.SYSTEM.norm>
0

>  <SCORE.heavy>
34

>  <SCORE.norm>
0.430771

>  <RMSD>
11.979

$$$$
1mwl
 OpenBabel11021811403D
libRbt.so/2013.1/901 2013/11/27
 34 36  0  0  0  0  0  0  0  0999 V2000
   -6.3364    5.4145   15.6062 C   0  0  2  0  0  0  0  0  0  0  0  0
   -6.1331    4.1416   15.0704 O   0  0  0  0  0  0  0  0  0  0  0  0
   -7.7891    5.4606   16.1580 C   0  0  2  0  0  0  0  0  0  0  0  0
   -7.9763    4.4218   17.1756 N   0  3  0  0  0  0  0  0  0  0  0  0
   -8.8204    5.3170   15.0007 C   0  0  1  0  0  0  0  0  0  0  0  0
  -10.0909    5.3820   15.4716 O   0  0  0  0  0  0  0  0  0  0  0  0
   -8.5565    6.4493   13.9539 C   0  0  2  0  0  0  0  0  0  0  0  0
   -9.5032    6.3525   12.8692 O   0  0  0  0  0  0  0  0  0  0  0  0
   -7.0843    6.3095   13.4370 C   0  0  2  0  0  0  0  0  0  0  0  0
   -6.1324    6.4045   14.5658 O   0  0  0  0  0  0  0  0  0  0  0  0
   -6.6623    7.3698   12.4135 C   0  0  2  0  0  0  0  0  0  0  0  0
   -6.0066    6.7594   11.3501 O   0  0  0  0  0  0  0  0  0  0  0  0
   -5.6855    8.4175   12.9781 C   0  0  0  0  0  0  0  0  0  0  0  0
   -2.6457    2.6698   13.0876 C   0  0  2  0  0  0  0  0  0  0  0  0
   -1.6547    2.3777   12.0208 N   0  3  0  0  0  0  0  0  0  0  0  0
   -4.0147    2.0005   12.7657 C   0  0  0  0  0  0  0  0  0  0  0  0
   -5.0612    2.3309   13.8909 C   0  0  2  0  0  0  0  0  0  0  0  0
   -6.3719    1.6625   13.5566 N   0  3  0  0  0  0  0  0  0  0  0  0
   -5.2177    3.8855   14.0129 C   0  0  2  0  0  0  0  0  0  0  0  0
   -3.8439    4.5196   14.3413 C   0  0  2  0  0  0  0  0  0  0  0  0
   -3.9902    5.9172   14.4148 O   0  0  0  0  0  0  0  0  0  0  0  0
   -2.8272    4.1975   13.2136 C   0  0  1  0  0  0  0  0  0  0  0  0
   -1.5771    4.7900   13.5340 O   0  0  0  0  0  0  0  0  0  0  0  0
   -1.5239    5.7234   14.5774 C   0  0  2  0  0  0  0  0  0  0  0  0
   -0.3295    6.6564   14.3022 C   0  0  2  0  0  0  0  0  0  0  0  0
   -0.5420    7.3269   13.0784 O   0  0  0  0  0  0  0  0  0  0  0  0
    0.9849    5.8052   14.2501 C   0  0  1  0  0  0  0  0  0  0  0  0
    2.1834    6.6290   13.9586 N   0  3  0  0  0  0  0  0  0  0  0  0
    2.3303    6.8470   12.4968 C   0  0  0  0  0  0  0  0  0  0  0  0
    1.1688    5.0577   15.6155 C   0  0  2  0  0  0  0  0  0  0  0  0
    1.2657    6.0135   16.6881 O   0  0  0  0  0  0  0  0  0  0  0  0
    2.3754    4.2509   15.6378 C   0  0  0  0  0  0  0  0  0  0  0  0
   -0.0882    4.1864   15.9222 C   0  0  0  0  0  0  0  0  0  0  0  0
   -1.3342    5.0181   15.8565 O   0  0  0  0  0  0  0  0  0  0  0  0
  1  2  1  6  0  0  0
  1  3  1  0  0  0  0
  1 10  1  0  0  0  0
  3  4  1  1  0  0  0
  3  5  1  0  0  0  0
  5  6  1  1  0  0  0
  5  7  1  0  0  0  0
  7  8  1  6  0  0  0
  7  9  1  0  0  0  0
  9 10  1  1  0  0  0
  9 11  1  0  0  0  0
 11 12  1  6  0  0  0
 11 13  1  0  0  0  0
 14 15  1  6  0  0  0
 14 16  1  0  0  0  0
 14 22  1  0  0  0  0
 16 17  1  0  0  0  0
 17 18  1  6  0  0  0
 17 19  1  0  0  0  0
 19  2  1  1  0  0  0
 19 20  1  0  0  0  0
 20 21  1  6  0  0  0
 20 22  1  0  0  0  0
 22 23  1  1  0  0  0
 24 23  1  6  0  0  0
 24 25  1  0  0  0  0
 24 34  1  0  0  0  0
 25 26  1  6  0  0  0
 25 27  1  0  0  0  0
 27 28  1  1  0  0  0
 27 30  1  0  0  0  0
 28 29  1  0  0  0  0
 30 31  1  1  0  0  0
 30 32  1  0  0  0  0
 30 33  1  0  0  0  0
 33 34  1  0  0  0  0
M  CHG  4   4   1  15   1  18   1  28   1
M  END
>  <CHROM.1>
152.15451377,168.85092652,157.30458766,-67.15354436,62.96819212,-133.97350661
70.19898059,66.86118814,58.71666125,-61.76264317,-132.34782632,-153.81504923
162.63613824,36.63464020,156.97487545,-3.76841835,5.18652067,14.20818683
-3.13458807,-0.01271599,-0.22432693

>  <Name>
1mwl

>  <RI>
0

>  <Rbt.Current_Directory>
/home/itssahil/PROJECTS/Mol_Feturizer/New_Systems/rnas/1mwl

>  <Rbt.Executable>
rbdock ($Id: //depot/dev/client3/rdock/2013.1/src/exe/rbdock.cxx#4 $)

>  <Rbt.Library>
libRbt.so (2013.1, Build901 2013/11/27)

>  <Rbt.Parameter_File>
/export/apps/rDock/src/rDock_2013.1_src/data/scripts/dock_solv.prm

>  <Rbt.Receptor>
prm/blind_docking_20.prm

>  <SCORE>
-18.516

>  <SCORE.INTER>
-39.3775

>  <SCORE.INTER.CONST>
1

>  <SCORE.INTER.POLAR>
-6.1789

>  <SCORE.INTER.ROT>
6

>  <SCORE.INTER.SOLV>
21.0989

>  <SCORE.INTER.VDW>
-20.2883

>  <SCORE.INTER.norm>
-1.15816

>  <SCORE.INTRA>
0.684145

>  <SCORE.INTRA.DIHEDRAL>
-17.4084

>  <SCORE.INTRA.DIHEDRAL.0>
42.0816

>  <SCORE.INTRA.POLAR>
0.254682

>  <SCORE.INTRA.POLAR.0>
-0.254682

>  <SCORE.INTRA.REPUL>
0

>  <SCORE.INTRA.REPUL.0>
0

>  <SCORE.INTRA.SOLV>
-3.62196

>  <SCORE.INTRA.SOLV.lig_0>
-109.803

>  <SCORE.INTRA.VDW>
10.3334

>  <SCORE.INTRA.VDW.0>
0.32176

>  <SCORE.INTRA.norm>
0.0201219

>  <SCORE.RESTR>
20.1774

>  <SCORE.RESTR.CAVITY>
20.1774

>  <SCORE.RESTR.norm>
0.593452

>  <SCORE.SYSTEM>
0

>  <SCORE.SYSTEM.CONST>
0

>  <SCORE.SYSTEM.DIHEDRAL>
0

>  <SCORE.SYSTEM.SOLV>
0

>  <SCORE.SYSTEM.norm>
0

>  <SCORE.heavy>
34

>  <SCORE.norm>
-0.544589

>  <RMSD>
12.008

$$$$
1mwl
 OpenBabel11021811403D
libRbt.so/2013.1/901 2013/11/27
 34 36  0  0  0  0  0  0  0  0999 V2000
   -7.1794    5.3850   12.3007 C   0  0  2  0  0  0  0  0  0  0  0  0
   -6.2231    6.3992   12.2259 O   0  0  0  0  0  0  0  0  0  0  0  0
   -8.4465    5.9885   12.9695 C   0  0  2  0  0  0  0  0  0  0  0  0
   -8.9397    7.1244   12.1846 N   0  3  0  0  0  0  0  0  0  0  0  0
   -8.1472    6.3996   14.4409 C   0  0  1  0  0  0  0  0  0  0  0  0
   -9.2554    6.9037   15.0393 O   0  0  0  0  0  0  0  0  0  0  0  0
   -7.6205    5.1447   15.2123 C   0  0  2  0  0  0  0  0  0  0  0  0
   -7.3415    5.4878   16.5859 O   0  0  0  0  0  0  0  0  0  0  0  0
   -6.3350    4.6226   14.4851 C   0  0  2  0  0  0  0  0  0  0  0  0
   -6.6426    4.2842   13.0779 O   0  0  0  0  0  0  0  0  0  0  0  0
   -5.7081    3.3724   15.1127 C   0  0  2  0  0  0  0  0  0  0  0  0
   -5.0905    3.7098   16.3118 O   0  0  0  0  0  0  0  0  0  0  0  0
   -4.6222    2.7211   14.2368 C   0  0  0  0  0  0  0  0  0  0  0  0
   -2.5738    4.2136   11.8196 C   0  0  2  0  0  0  0  0  0  0  0  0
   -1.1486    3.8984   11.5461 N   0  3  0  0  0  0  0  0  0  0  0  0
   -3.2876    4.7041   10.5251 C   0  0  0  0  0  0  0  0  0  0  0  0
   -4.7897    5.0524   10.8293 C   0  0  2  0  0  0  0  0  0  0  0  0
   -5.4559    5.5147    9.5568 N   0  3  0  0  0  0  0  0  0  0  0  0
   -4.8514    6.1489   11.9474 C   0  0  2  0  0  0  0  0  0  0  0  0
   -4.1424    5.6288   13.2218 C   0  0  2  0  0  0  0  0  0  0  0  0
   -4.1743    6.6336   14.2063 O   0  0  0  0  0  0  0  0  0  0  0  0
   -2.6572    5.3047   12.9083 C   0  0  1  0  0  0  0  0  0  0  0  0
   -2.0268    4.8325   14.0899 O   0  0  0  0  0  0  0  0  0  0  0  0
   -1.6458    5.7629   15.0656 C   0  0  2  0  0  0  0  0  0  0  0  0
   -0.6747    6.7573   14.4015 C   0  0  2  0  0  0  0  0  0  0  0  0
   -1.3436    7.4212   13.3507 O   0  0  0  0  0  0  0  0  0  0  0  0
    0.5713    5.9751   13.8624 C   0  0  1  0  0  0  0  0  0  0  0  0
    1.5454    6.8608   13.1792 N   0  3  0  0  0  0  0  0  0  0  0  0
    0.9958    7.3537   11.8904 C   0  0  0  0  0  0  0  0  0  0  0  0
    1.2679    5.2322   15.0540 C   0  0  2  0  0  0  0  0  0  0  0  0
    1.6992    6.1872   16.0417 O   0  0  0  0  0  0  0  0  0  0  0  0
    2.4381    4.4886   14.6240 C   0  0  0  0  0  0  0  0  0  0  0  0
    0.2470    4.2961   15.7713 C   0  0  0  0  0  0  0  0  0  0  0  0
   -0.9767    5.0629   16.1754 O   0  0  0  0  0  0  0  0  0  0  0  0
  1  2  1  1  0  0  0
  1  3  1  0  0  0  0
  1 10  1  0  0  0  0
  3  4  1  6  0  0  0
  3  5  1  0  0  0  0
  5  6  1  1  0  0  0
  5  7  1  0  0  0  0
  7  8  1  1  0  0  0
  7  9  1  0  0  0  0
  9 10  1  6  0  0  0
  9 11  1  0  0  0  0
 11 12  1  1  0  0  0
 11 13  1  0  0  0  0
 14 15  1  6  0  0  0
 14 16  1  0  0  0  0
 14 22  1  0  0  0  0
 16 17  1  0  0  0  0
 17 18  1  6  0  0  0
 17 19  1  0  0  0  0
 19  2  1  1  0  0  0
 19 20  1  0  0  0  0
 20 21  1  1  0  0  0
 20 22  1  0  0  0  0
 22 23  1  1  0  0  0
 24 23  1  6  0  0  0
 24 25  1  0  0  0  0
 24 34  1  0  0  0  0
 25 26  1  6  0  0  0
 25 27  1  0  0  0  0
 27 28  1  1  0  0  0
 27 30  1  0  0  0  0
 28 29  1  0  0  0  0
 30 31  1  1  0  0  0
 30 32  1  0  0  0  0
 30 33  1  0  0  0  0
 33 34  1  0  0  0  0
M  CHG  4   4   1  15   1  18   1  28   1
M  END
>  <CHROM.1>
165.70901202,40.73762573,-50.72581834,164.97243618,-179.67666578,-72.49766898
121.42944782,-45.79526635,-174.16384123,56.70439976,162.05467520,-58.51137619
-85.39879724,50.12064991,-24.86544404,-3.61207121,5.46100321,13.66643838
-3.06992951,0.00992365,1.72903735

>  <Name>
1mwl

>  <RI>
0

>  <Rbt.Current_Directory>
/home/itssahil/PROJECTS/Mol_Feturizer/New_Systems/rnas/1mwl

>  <Rbt.Executable>
rbdock ($Id: //depot/dev/client3/rdock/2013.1/src/exe/rbdock.cxx#4 $)

>  <Rbt.Library>
libRbt.so (2013.1, Build901 2013/11/27)

>  <Rbt.Parameter_File>
/export/apps/rDock/src/rDock_2013.1_src/data/scripts/dock_solv.prm

>  <Rbt.Receptor>
prm/blind_docking_20.prm

>  <SCORE>
-10.5545

>  <SCORE.INTER>
-29.5169

>  <SCORE.INTER.CONST>
1

>  <SCORE.INTER.POLAR>
-5.08382

>  <SCORE.INTER.ROT>
6

>  <SCORE.INTER.SOLV>
25.5196

>  <SCORE.INTER.VDW>
-18.8384

>  <SCORE.INTER.norm>
-0.868143

>  <SCORE.INTRA>
-2.69238

>  <SCORE.INTRA.DIHEDRAL>
-20.6099

>  <SCORE.INTRA.DIHEDRAL.0>
42.0816

>  <SCORE.INTRA.POLAR>
0.163826

>  <SCORE.INTRA.POLAR.0>
-0.254682

>  <SCORE.INTRA.REPUL>
0.0308048

>  <SCORE.INTRA.REPUL.0>
0

>  <SCORE.INTRA.SOLV>
1.27329

>  <SCORE.INTRA.SOLV.lig_0>
-109.803

>  <SCORE.INTRA.VDW>
6.26491

>  <SCORE.INTRA.VDW.0>
0.32176

>  <SCORE.INTRA.norm>
-0.0791876

>  <SCORE.RESTR>
21.6548

>  <SCORE.RESTR.CAVITY>
21.6548

>  <SCORE.RESTR.norm>
0.636905

>  <SCORE.SYSTEM>
0

>  <SCORE.SYSTEM.CONST>
0

>  <SCORE.SYSTEM.DIHEDRAL>
0

>  <SCORE.SYSTEM.SOLV>
0

>  <SCORE.SYSTEM.norm>
0

>  <SCORE.heavy>
34

>  <SCORE.norm>
-0.310425

>  <RMSD>
12.029

$$$$
1mwl
 OpenBabel11021811403D
libRbt.so/2013.1/901 2013/11/27
 34 36  0  0  0  0  0  0  0  0999 V2000
   -7.0927    5.3128   12.3803 C   0  0  2  0  0  0  0  0  0  0  0  0
   -6.1109    6.3021   12.3037 O   0  0  0  0  0  0  0  0  0  0  0  0
   -8.3696    5.9696   12.9762 C   0  0  2  0  0  0  0  0  0  0  0  0
   -8.8063    7.0845   12.1301 N   0  3  0  0  0  0  0  0  0  0  0  0
   -8.1164    6.4312   14.4413 C   0  0  1  0  0  0  0  0  0  0  0  0
   -9.2343    6.9824   14.9769 O   0  0  0  0  0  0  0  0  0  0  0  0
   -7.6486    5.1961   15.2798 C   0  0  2  0  0  0  0  0  0  0  0  0
   -7.4136    5.5864   16.6490 O   0  0  0  0  0  0  0  0  0  0  0  0
   -6.3492    4.6180   14.6231 C   0  0  2  0  0  0  0  0  0  0  0  0
   -6.6114    4.2317   13.2190 O   0  0  0  0  0  0  0  0  0  0  0  0
   -5.7757    3.3798   15.3216 C   0  0  2  0  0  0  0  0  0  0  0  0
   -4.5857    3.7112   15.9598 O   0  0  0  0  0  0  0  0  0  0  0  0
   -5.4413    2.2272   14.3572 C   0  0  0  0  0  0  0  0  0  0  0  0
   -2.5081    4.0212   12.0268 C   0  0  2  0  0  0  0  0  0  0  0  0
   -1.0852    3.6660   11.7928 N   0  3  0  0  0  0  0  0  0  0  0  0
   -3.1802    4.5013   10.7063 C   0  0  0  0  0  0  0  0  0  0  0  0
   -4.6798    4.8920   10.9685 C   0  0  2  0  0  0  0  0  0  0  0  0
   -5.3055    5.3433    9.6718 N   0  3  0  0  0  0  0  0  0  0  0  0
   -4.7398    6.0130   12.0622 C   0  0  2  0  0  0  0  0  0  0  0  0
   -4.0727    5.5030   13.3630 C   0  0  2  0  0  0  0  0  0  0  0  0
   -4.1022    6.5289   14.3257 O   0  0  0  0  0  0  0  0  0  0  0  0
   -2.5892    5.1367   13.0906 C   0  0  1  0  0  0  0  0  0  0  0  0
   -1.9974    4.6746   14.2959 O   0  0  0  0  0  0  0  0  0  0  0  0
   -1.5855    5.6176   15.2465 C   0  0  2  0  0  0  0  0  0  0  0  0
   -0.6903    6.6417   14.5236 C   0  0  2  0  0  0  0  0  0  0  0  0
   -1.4449    7.2830   13.5176 O   0  0  0  0  0  0  0  0  0  0  0  0
    0.5435    5.8990   13.9063 C   0  0  1  0  0  0  0  0  0  0  0  0
    1.4439    6.8146   13.1639 N   0  3  0  0  0  0  0  0  0  0  0  0
    0.7745    7.3394   11.9463 C   0  0  0  0  0  0  0  0  0  0  0  0
    1.3371    5.1799   15.0509 C   0  0  2  0  0  0  0  0  0  0  0  0
    1.7991    6.1491   16.0103 O   0  0  0  0  0  0  0  0  0  0  0  0
    2.5010    4.4735   14.5472 C   0  0  0  0  0  0  0  0  0  0  0  0
    0.3937    4.2125   15.8302 C   0  0  0  0  0  0  0  0  0  0  0  0
   -0.8259    4.9404   16.3113 O   0  0  0  0  0  0  0  0  0  0  0  0
  1  2  1  1  0  0  0
  1  3  1  0  0  0  0
  1 10  1  0  0  0  0
  3  4  1  6  0  0  0
  3  5  1  0  0  0  0
  5  6  1  1  0  0  0
  5  7  1  0  0  0  0
  7  8  1  1  0  0  0
  7  9  1  0  0  0  0
  9 10  1  6  0  0  0
  9 11  1  0  0  0  0
 11 12  1  6  0  0  0
 11 13  1  0  0  0  0
 14 15  1  6  0  0  0
 14 16  1  0  0  0  0
 14 22  1  0  0  0  0
 16 17  1  0  0  0  0
 17 18  1  6  0  0  0
 17 19  1  0  0  0  0
 19  2  1  1  0  0  0
 19 20  1  0  0  0  0
 20 21  1  1  0  0  0
 20 22  1  0  0  0  0
 22 23  1  1  0  0  0
 24 23  1  6  0  0  0
 24 25  1  0  0  0  0
 24 34  1  0  0  0  0
 25 26  1  6  0  0  0
 25 27  1  0  0  0  0
 27 28  1  1  0  0  0
 27 30  1  0  0  0  0
 28 29  1  0  0  0  0
 30 31  1  1  0  0  0
 30 32  1  0  0  0  0
 30 33  1  0  0  0  0
 33 34  1  0  0  0  0
M  CHG  4   4   1  15   1  18   1  28   1
M  END
>  <CHROM.1>
166.96739198,40.88810759,-175.35295819,63.91215097,178.22276277,-109.73724461
-61.00999142,-172.46815964,-174.36332831,52.33883801,160.49221571,-51.92045893
54.22315625,52.83163250,-31.39214464,-3.58347742,5.37519469,13.74046050,-3.06447884
0.00430933,1.71555880

>  <Name>
1mwl

>  <RI>
0

>  <Rbt.Current_Directory>
/home/itssahil/PROJECTS/Mol_Feturizer/New_Systems/rnas/1mwl

>  <Rbt.Executable>
rbdock ($Id: //depot/dev/client3/rdock/2013.1/src/exe/rbdock.cxx#4 $)

>  <Rbt.Library>
libRbt.so (2013.1, Build901 2013/11/27)

>  <Rbt.Parameter_File>
/export/apps/rDock/src/rDock_2013.1_src/data/scripts/dock_solv.prm

>  <Rbt.Receptor>
prm/blind_docking_20.prm

>  <SCORE>
-19.1692

>  <SCORE.INTER>
-29.9175

>  <SCORE.INTER.CONST>
1

>  <SCORE.INTER.POLAR>
-5.09587

>  <SCORE.INTER.ROT>
6

>  <SCORE.INTER.SOLV>
23.9297

>  <SCORE.INTER.VDW>
-18.5354

>  <SCORE.INTER.norm>
-0.879927

>  <SCORE.INTRA>
-10.5021

>  <SCORE.INTRA.DIHEDRAL>
-28.0498

>  <SCORE.INTRA.DIHEDRAL.0>
42.0816

>  <SCORE.INTRA.POLAR>
-0.66908

>  <SCORE.INTRA.POLAR.0>
-0.254682

>  <SCORE.INTRA.REPUL>
0

>  <SCORE.INTRA.REPUL.0>
0

>  <SCORE.INTRA.SOLV>
1.85764

>  <SCORE.INTRA.SOLV.lig_0>
-109.803

>  <SCORE.INTRA.VDW>
4.86892

>  <SCORE.INTRA.VDW.0>
0.32176

>  <SCORE.INTRA.norm>
-0.308884

>  <SCORE.RESTR>
21.2504

>  <SCORE.RESTR.CAVITY>
21.2504

>  <SCORE.RESTR.norm>
0.625011

>  <SCORE.SYSTEM>
0

>  <SCORE.SYSTEM.CONST>
0

>  <SCORE.SYSTEM.DIHEDRAL>
0

>  <SCORE.SYSTEM.SOLV>
0

>  <SCORE.SYSTEM.norm>
0

>  <SCORE.heavy>
34

>  <SCORE.norm>
-0.5638

>  <RMSD>
12.038

$$$$
1mwl
 OpenBabel11021811403D
libRbt.so/2013.1/901 2013/11/27
 34 36  0  0  0  0  0  0  0  0999 V2000
   -7.1649    5.3898   12.3094 C   0  0  2  0  0  0  0  0  0  0  0  0
   -6.1995    6.3940   12.2187 O   0  0  0  0  0  0  0  0  0  0  0  0
   -8.4317    6.0189   12.9547 C   0  0  2  0  0  0  0  0  0  0  0  0
   -8.9095    7.1406   12.1404 N   0  3  0  0  0  0  0  0  0  0  0  0
   -8.1398    6.4610   14.4185 C   0  0  1  0  0  0  0  0  0  0  0  0
   -9.2480    6.9877   14.9969 O   0  0  0  0  0  0  0  0  0  0  0  0
   -7.6293    5.2196   15.2223 C   0  0  2  0  0  0  0  0  0  0  0  0
   -7.3576    5.5917   16.5898 O   0  0  0  0  0  0  0  0  0  0  0  0
   -6.3430    4.6704   14.5168 C   0  0  2  0  0  0  0  0  0  0  0  0
   -6.6431    4.3025   13.1154 O   0  0  0  0  0  0  0  0  0  0  0  0
   -5.7314    3.4297   15.1774 C   0  0  2  0  0  0  0  0  0  0  0  0
   -5.0450    3.8020   16.3279 O   0  0  0  0  0  0  0  0  0  0  0  0
   -4.7128    2.6955   14.2864 C   0  0  0  0  0  0  0  0  0  0  0  0
   -2.5722    4.1750   11.7967 C   0  0  2  0  0  0  0  0  0  0  0  0
   -1.1535    3.8447   11.5075 N   0  3  0  0  0  0  0  0  0  0  0  0
   -3.3019    4.6480   10.5045 C   0  0  0  0  0  0  0  0  0  0  0  0
   -4.7967    5.0125   10.8248 C   0  0  2  0  0  0  0  0  0  0  0  0
   -5.4787    5.4573    9.5545 N   0  3  0  0  0  0  0  0  0  0  0  0
   -4.8340    6.1288   11.9243 C   0  0  2  0  0  0  0  0  0  0  0  0
   -4.1096    5.6260   13.1969 C   0  0  2  0  0  0  0  0  0  0  0  0
   -4.1196    6.6481   14.1640 O   0  0  0  0  0  0  0  0  0  0  0  0
   -2.6315    5.2856   12.8671 C   0  0  1  0  0  0  0  0  0  0  0  0
   -1.9868    4.8297   14.0473 O   0  0  0  0  0  0  0  0  0  0  0  0
   -1.6446    5.7670   15.0306 C   0  0  2  0  0  0  0  0  0  0  0  0
   -0.6305    6.7433   14.4052 C   0  0  2  0  0  0  0  0  0  0  0  0
   -1.2386    7.4023   13.3150 O   0  0  0  0  0  0  0  0  0  0  0  0
    0.6321    5.9419   13.9377 C   0  0  1  0  0  0  0  0  0  0  0  0
    1.6489    6.8093   13.2944 N   0  3  0  0  0  0  0  0  0  0  0  0
    1.1638    7.3053   11.9812 C   0  0  0  0  0  0  0  0  0  0  0  0
    1.2600    5.2053   15.1706 C   0  0  2  0  0  0  0  0  0  0  0  0
    1.6520    6.1668   16.1682 O   0  0  0  0  0  0  0  0  0  0  0  0
    2.4418    4.4443   14.8078 C   0  0  0  0  0  0  0  0  0  0  0  0
    0.1941    4.2883   15.8461 C   0  0  0  0  0  0  0  0  0  0  0  0
   -1.0396    5.0726   16.1801 O   0  0  0  0  0  0  0  0  0  0  0  0
  1  2  1  1  0  0  0
  1  3  1  0  0  0  0
  1 10  1  0  0  0  0
  3  4  1  6  0  0  0
  3  5  1  0  0  0  0
  5  6  1  1  0  0  0
  5  7  1  0  0  0  0
  7  8  1  1  0  0  0
  7  9  1  0  0  0  0
  9 10  1  6  0  0  0
  9 11  1  0  0  0  0
 11 12  1  1  0  0  0
 11 13  1  0  0  0  0
 14 15  1  6  0  0  0
 14 16  1  0  0  0  0
 14 22  1  0  0  0  0
 16 17  1  0  0  0  0
 17 18  1  6  0  0  0
 17 19  1  0  0  0  0
 19  2  1  1  0  0  0
 19 20  1  0  0  0  0
 20 21  1  1  0  0  0
 20 22  1  0  0  0  0
 22 23  1  1  0  0  0
 24 23  1  6  0  0  0
 24 25  1  0  0  0  0
 24 34  1  0  0  0  0
 25 26  1  6  0  0  0
 25 27  1  0  0  0  0
 27 28  1  1  0  0  0
 27 30  1  0  0  0  0
 28 29  1  0  0  0  0
 30 31  1  1  0  0  0
 30 32  1  0  0  0  0
 30 33  1  0  0  0  0
 33 34  1  0  0  0  0
M  CHG  4   4   1  15   1  18   1  28   1
M  END
>  <CHROM.1>
167.28012638,39.92529458,-56.84635473,67.22732723,176.97257100,-76.36141107
123.96499347,-177.16673723,61.34899284,-55.18228589,165.19551757,-62.55492554
99.61649002,50.74371924,65.72089635,-3.60043671,5.46407558,13.68326135,-3.05580011
0.00454285,1.70468081

>  <Name>
1mwl

>  <RI>
0

>  <Rbt.Current_Directory>
/home/itssahil/PROJECTS/Mol_Feturizer/New_Systems/rnas/1mwl

>  <Rbt.Executable>
rbdock ($Id: //depot/dev/client3/rdock/2013.1/src/exe/rbdock.cxx#4 $)

>  <Rbt.Library>
libRbt.so (2013.1, Build901 2013/11/27)

>  <Rbt.Parameter_File>
/export/apps/rDock/src/rDock_2013.1_src/data/scripts/dock_solv.prm

>  <Rbt.Receptor>
prm/blind_docking_20.prm

>  <SCORE>
-24.0373

>  <SCORE.INTER>
-34.9627

>  <SCORE.INTER.CONST>
1

>  <SCORE.INTER.POLAR>
-6.21166

>  <SCORE.INTER.ROT>
6

>  <SCORE.INTER.SOLV>
25.6616

>  <SCORE.INTER.VDW>
-18.7568

>  <SCORE.INTER.norm>
-1.02832

>  <SCORE.INTRA>
-10.808

>  <SCORE.INTRA.DIHEDRAL>
-24.163

>  <SCORE.INTRA.DIHEDRAL.0>
42.0816

>  <SCORE.INTRA.POLAR>
0.251003

>  <SCORE.INTRA.POLAR.0>
-0.254682

>  <SCORE.INTRA.REPUL>
0.00473271

>  <SCORE.INTRA.REPUL.0>
0

>  <SCORE.INTRA.SOLV>
0.285209

>  <SCORE.INTRA.SOLV.lig_0>
-109.803

>  <SCORE.INTRA.VDW>
0.25381

>  <SCORE.INTRA.VDW.0>
0.32176

>  <SCORE.INTRA.norm>
-0.317883

>  <SCORE.RESTR>
21.7335

>  <SCORE.RESTR.CAVITY>
21.7335

>  <SCORE.RESTR.norm>
0.63922

>  <SCORE.SYSTEM>
0

>  <SCORE.SYSTEM.CONST>
0

>  <SCORE.SYSTEM.DIHEDRAL>
0

>  <SCORE.SYSTEM.SOLV>
0

>  <SCORE.SYSTEM.norm>
0

>  <SCORE.heavy>
34

>  <SCORE.norm>
-0.706978

>  <RMSD>
12.052

$$$$
1mwl
 OpenBabel11021811403D
libRbt.so/2013.1/901 2013/11/27
 34 36  0  0  0  0  0  0  0  0999 V2000
   -7.2562    5.4681   13.1450 C   0  0  2  0  0  0  0  0  0  0  0  0
   -6.3392    6.5098   12.9950 O   0  0  0  0  0  0  0  0  0  0  0  0
   -7.8707    5.5902   14.5678 C   0  0  2  0  0  0  0  0  0  0  0  0
   -8.5207    6.8947   14.7272 N   0  3  0  0  0  0  0  0  0  0  0  0
   -6.7828    5.3587   15.6570 C   0  0  1  0  0  0  0  0  0  0  0  0
   -7.3168    5.4385   16.9015 O   0  0  0  0  0  0  0  0  0  0  0  0
   -6.1303    3.9567   15.4205 C   0  0  2  0  0  0  0  0  0  0  0  0
   -5.1213    3.7040   16.4207 O   0  0  0  0  0  0  0  0  0  0  0  0
   -5.5186    3.9345   13.9785 C   0  0  2  0  0  0  0  0  0  0  0  0
   -6.5685    4.2029   12.9710 O   0  0  0  0  0  0  0  0  0  0  0  0
   -4.8573    2.6089   13.5844 C   0  0  2  0  0  0  0  0  0  0  0  0
   -5.3784    1.5775   14.3576 O   0  0  0  0  0  0  0  0  0  0  0  0
   -3.3343    2.5889   13.8088 C   0  0  0  0  0  0  0  0  0  0  0  0
   -2.7968    4.5624   11.6098 C   0  0  2  0  0  0  0  0  0  0  0  0
   -1.4815    4.3368   10.9583 N   0  3  0  0  0  0  0  0  0  0  0  0
   -3.8675    4.9806   10.5587 C   0  0  0  0  0  0  0  0  0  0  0  0
   -5.2505    5.2347   11.2606 C   0  0  2  0  0  0  0  0  0  0  0  0
   -6.2676    5.6283   10.2178 N   0  3  0  0  0  0  0  0  0  0  0  0
   -5.0810    6.3453   12.3534 C   0  0  2  0  0  0  0  0  0  0  0  0
   -4.0184    5.8969   13.3863 C   0  0  2  0  0  0  0  0  0  0  0  0
   -3.8504    6.9156   14.3424 O   0  0  0  0  0  0  0  0  0  0  0  0
   -2.6557    5.6657   12.6800 C   0  0  1  0  0  0  0  0  0  0  0  0
   -1.6971    5.2582   13.6452 O   0  0  0  0  0  0  0  0  0  0  0  0
   -1.5049    6.0572   14.7798 C   0  0  2  0  0  0  0  0  0  0  0  0
   -0.2493    6.9149   14.5335 C   0  0  2  0  0  0  0  0  0  0  0  0
   -0.4679    7.7375   13.4074 O   0  0  0  0  0  0  0  0  0  0  0  0
    0.9799    5.9709   14.3035 C   0  0  1  0  0  0  0  0  0  0  0  0
    2.2289    6.7221   14.0286 N   0  3  0  0  0  0  0  0  0  0  0  0
    2.3513    7.0294   12.5806 C   0  0  0  0  0  0  0  0  0  0  0  0
    1.1708    5.0580   15.5633 C   0  0  2  0  0  0  0  0  0  0  0  0
    1.4102    5.8724   16.7265 O   0  0  0  0  0  0  0  0  0  0  0  0
    2.3007    4.1582   15.4190 C   0  0  0  0  0  0  0  0  0  0  0  0
   -0.1398    4.2628   15.8518 C   0  0  0  0  0  0  0  0  0  0  0  0
   -1.3090    5.1957   15.9584 O   0  0  0  0  0  0  0  0  0  0  0  0
  1  2  1  1  0  0  0
  1  3  1  0  0  0  0
  1 10  1  0  0  0  0
  3  4  1  1  0  0  0
  3  5  1  0  0  0  0
  5  6  1  1  0  0  0
  5  7  1  0  0  0  0
  7  8  1  1  0  0  0
  7  9  1  0  0  0  0
  9 10  1  6  0  0  0
  9 11  1  0  0  0  0
 11 12  1  1  0  0  0
 11 13  1  0  0  0  0
 14 15  1  6  0  0  0
 14 16  1  0  0  0  0
 14 22  1  0  0  0  0
 16 17  1  0  0  0  0
 17 18  1  6  0  0  0
 17 19  1  0  0  0  0
 19  2  1  1  0  0  0
 19 20  1  0  0  0  0
 20 21  1  1  0  0  0
 20 22  1  0  0  0  0
 22 23  1  1  0  0  0
 24 23  1  6  0  0  0
 24 25  1  0  0  0  0
 24 34  1  0  0  0  0
 25 26  1  6  0  0  0
 25 27  1  0  0  0  0
 27 28  1  1  0  0  0
 27 30  1  0  0  0  0
 28 29  1  0  0  0  0
 30 31  1  1  0  0  0
 30 32  1  0  0  0  0
 30 33  1  0  0  0  0
 33 34  1  0  0  0  0
M  CHG  4   4   1  15   1  18   1  28   1
M  END
>  <CHROM.1>
139.51178281,30.68264913,-170.35379662,71.60372757,84.82581580,22.88017918
62.77612905,-173.67148621,-23.91731023,-58.21234636,-174.00775944,-99.48685930
-56.48493501,33.49453664,157.77880920,-3.27705126,5.23378089,13.92107921
-3.08331880,0.11812791,1.78644646

>  <Name>
1mwl

>  <RI>
0

>  <Rbt.Current_Directory>
/home/itssahil/PROJECTS/Mol_Feturizer/New_Systems/rnas/1mwl

>  <Rbt.Executable>
rbdock ($Id: //depot/dev/client3/rdock/2013.1/src/exe/rbdock.cxx#4 $)

>  <Rbt.Library>
libRbt.so (2013.1, Build901 2013/11/27)

>  <Rbt.Parameter_File>
/export/apps/rDock/src/rDock_2013.1_src/data/scripts/dock_solv.prm

>  <Rbt.Receptor>
prm/blind_docking_20.prm

>  <SCORE>
2.21348

>  <SCORE.INTER>
-23.1617

>  <SCORE.INTER.CONST>
1

>  <SCORE.INTER.POLAR>
-5.63873

>  <SCORE.INTER.ROT>
6

>  <SCORE.INTER.SOLV>
28.7772

>  <SCORE.INTER.VDW>
-13.8378

>  <SCORE.INTER.norm>
-0.681228

>  <SCORE.INTRA>
3.79107

>  <SCORE.INTRA.DIHEDRAL>
-14.3996

>  <SCORE.INTRA.DIHEDRAL.0>
42.0816

>  <SCORE.INTRA.POLAR>
0.227537

>  <SCORE.INTRA.POLAR.0>
-0.254682

>  <SCORE.INTRA.REPUL>
0.100684

>  <SCORE.INTRA.REPUL.0>
0

>  <SCORE.INTRA.SOLV>
-1.09493

>  <SCORE.INTRA.SOLV.lig_0>
-109.803

>  <SCORE.INTRA.VDW>
10.2613

>  <SCORE.INTRA.VDW.0>
0.32176

>  <SCORE.INTRA.norm>
0.111502

>  <SCORE.RESTR>
21.5842

>  <SCORE.RESTR.CAVITY>
21.5842

>  <SCORE.RESTR.norm>
0.634828

>  <SCORE.SYSTEM>
0

>  <SCORE.SYSTEM.CONST>
0

>  <SCORE.SYSTEM.DIHEDRAL>
0

>  <SCORE.SYSTEM.SOLV>
0

>  <SCORE.SYSTEM.norm>
0

>  <SCORE.heavy>
34

>  <SCORE.norm>
0.0651024

>  <RMSD>
12.063

$$$$
1mwl
 OpenBabel11021811403D
libRbt.so/2013.1/901 2013/11/27
 34 36  0  0  0  0  0  0  0  0999 V2000
   -7.1014    5.3217   13.1788 C   0  0  2  0  0  0  0  0  0  0  0  0
   -6.2059    6.3904   13.1101 O   0  0  0  0  0  0  0  0  0  0  0  0
   -8.0835    5.6120   14.3485 C   0  0  2  0  0  0  0  0  0  0  0  0
   -8.7863    6.8775   14.1159 N   0  3  0  0  0  0  0  0  0  0  0  0
   -7.3281    5.6215   15.7096 C   0  0  1  0  0  0  0  0  0  0  0  0
   -8.1831    5.8489   16.7380 O   0  0  0  0  0  0  0  0  0  0  0  0
   -6.5992    4.2484   15.8854 C   0  0  2  0  0  0  0  0  0  0  0  0
   -5.8949    4.2183   17.1445 O   0  0  0  0  0  0  0  0  0  0  0  0
   -5.6172    4.0537   14.6805 C   0  0  2  0  0  0  0  0  0  0  0  0
   -6.3593    4.0954   13.4011 O   0  0  0  0  0  0  0  0  0  0  0  0
   -4.8389    2.7332   14.6965 C   0  0  2  0  0  0  0  0  0  0  0  0
   -3.6508    2.8812   13.9896 O   0  0  0  0  0  0  0  0  0  0  0  0
   -5.5922    1.5654   14.0337 C   0  0  0  0  0  0  0  0  0  0  0  0
   -2.5857    4.5696   11.7543 C   0  0  2  0  0  0  0  0  0  0  0  0
   -1.2379    4.4004   11.1539 N   0  3  0  0  0  0  0  0  0  0  0  0
   -3.6053    5.0674   10.6873 C   0  0  0  0  0  0  0  0  0  0  0  0
   -5.0234    5.2608   11.3367 C   0  0  2  0  0  0  0  0  0  0  0  0
   -5.9897    5.7336   10.2787 N   0  3  0  0  0  0  0  0  0  0  0  0
   -4.9162    6.2811   12.5215 C   0  0  2  0  0  0  0  0  0  0  0  0
   -3.9035    5.7546   13.5677 C   0  0  2  0  0  0  0  0  0  0  0  0
   -3.7903    6.6942   14.6090 O   0  0  0  0  0  0  0  0  0  0  0  0
   -2.5057    5.5843   12.9147 C   0  0  1  0  0  0  0  0  0  0  0  0
   -1.5937    5.1038   13.8914 O   0  0  0  0  0  0  0  0  0  0  0  0
   -1.3646    5.8791   15.0355 C   0  0  2  0  0  0  0  0  0  0  0  0
   -0.1609    6.7938   14.7403 C   0  0  2  0  0  0  0  0  0  0  0  0
   -0.4793    7.6368   13.6538 O   0  0  0  0  0  0  0  0  0  0  0  0
    1.0882    5.9073   14.4101 C   0  0  1  0  0  0  0  0  0  0  0  0
    2.2879    6.7162   14.0837 N   0  3  0  0  0  0  0  0  0  0  0  0
    2.3980    6.9277   12.6177 C   0  0  0  0  0  0  0  0  0  0  0  0
    1.3907    4.9695   15.6291 C   0  0  2  0  0  0  0  0  0  0  0  0
    1.6679    5.7613   16.7994 O   0  0  0  0  0  0  0  0  0  0  0  0
    2.5442    4.1208   15.3914 C   0  0  0  0  0  0  0  0  0  0  0  0
    0.1322    4.1138   15.9714 C   0  0  0  0  0  0  0  0  0  0  0  0
   -1.0642    4.9949   16.1746 O   0  0  0  0  0  0  0  0  0  0  0  0
  1  2  1  1  0  0  0
  1  3  1  0  0  0  0
  1 10  1  0  0  0  0
  3  4  1  6  0  0  0
  3  5  1  0  0  0  0
  5  6  1  1  0  0  0
  5  7  1  0  0  0  0
  7  8  1  1  0  0  0
  7  9  1  0  0  0  0
  9 10  1  6  0  0  0
  9 11  1  0  0  0  0
 11 12  1  6  0  0  0
 11 13  1  0  0  0  0
 14 15  1  6  0  0  0
 14 16  1  0  0  0  0
 14 22  1  0  0  0  0
 16 17  1  0  0  0  0
 17 18  1  6  0  0  0
 17 19  1  0  0  0  0
 19  2  1  1  0  0  0
 19 20  1  0  0  0  0
 20 21  1  1  0  0  0
 20 22  1  0  0  0  0
 22 23  1  1  0  0  0
 24 23  1  6  0  0  0
 24 25  1  0  0  0  0
 24 34  1  0  0  0  0
 25 26  1  6  0  0  0
 25 27  1  0  0  0  0
 27 28  1  1  0  0  0
 27 30  1  0  0  0  0
 28 29  1  0  0  0  0
 30 31  1  1  0  0  0
 30 32  1  0  0  0  0
 30 33  1  0  0  0  0
 33 34  1  0  0  0  0
M  CHG  4   4   1  15   1  18   1  28   1
M  END
>  <CHROM.1>
156.78677818,33.37230682,148.62161849,65.96461459,-177.37615914,-154.59414607
-179.63257617,-57.72053390,84.57865205,-58.92395091,179.73125114,-91.73195880
69.87070143,26.62958576,144.67846787,-3.26478633,5.24437197,14.07703782,-3.10360354
0.07853378,1.76633312

>  <Name>
1mwl

>  <RI>
0

>  <Rbt.Current_Directory>
/home/itssahil/PROJECTS/Mol_Feturizer/New_Systems/rnas/1mwl

>  <Rbt.Executable>
rbdock ($Id: //depot/dev/client3/rdock/2013.1/src/exe/rbdock.cxx#4 $)

>  <Rbt.Library>
libRbt.so (2013.1, Build901 2013/11/27)

>  <Rbt.Parameter_File>
/export/apps/rDock/src/rDock_2013.1_src/data/scripts/dock_solv.prm

>  <Rbt.Receptor>
prm/blind_docking_20.prm

>  <SCORE>
7.79242

>  <SCORE.INTER>
-7.5998

>  <SCORE.INTER.CONST>
1

>  <SCORE.INTER.POLAR>
-5.16446

>  <SCORE.INTER.ROT>
6

>  <SCORE.INTER.SOLV>
27.4462

>  <SCORE.INTER.VDW>
-4.60041

>  <SCORE.INTER.norm>
-0.223524

>  <SCORE.INTRA>
-5.93315

>  <SCORE.INTRA.DIHEDRAL>
-20.2764

>  <SCORE.INTRA.DIHEDRAL.0>
42.0816

>  <SCORE.INTRA.POLAR>
0.254682

>  <SCORE.INTRA.POLAR.0>
-0.254682

>  <SCORE.INTRA.REPUL>
0

>  <SCORE.INTRA.REPUL.0>
0

>  <SCORE.INTRA.SOLV>
-0.879536

>  <SCORE.INTRA.SOLV.lig_0>
-109.803

>  <SCORE.INTRA.VDW>
3.77889

>  <SCORE.INTRA.VDW.0>
0.32176

>  <SCORE.INTRA.norm>
-0.174504

>  <SCORE.RESTR>
21.3254

>  <SCORE.RESTR.CAVITY>
21.3254

>  <SCORE.RESTR.norm>
0.627217

>  <SCORE.SYSTEM>
0

>  <SCORE.SYSTEM.CONST>
0

>  <SCORE.SYSTEM.DIHEDRAL>
0

>  <SCORE.SYSTEM.SOLV>
0

>  <SCORE.SYSTEM.norm>
0

>  <SCORE.heavy>
34

>  <SCORE.norm>
0.229189

>  <RMSD>
12.067

$$$$
1mwl
 OpenBabel11021811403D
libRbt.so/2013.1/901 2013/11/27
 34 36  0  0  0  0  0  0  0  0999 V2000
   -6.7331    5.7595   14.9611 C   0  0  2  0  0  0  0  0  0  0  0  0
   -6.2626    4.4495   14.8554 O   0  0  0  0  0  0  0  0  0  0  0  0
   -7.9063    5.7517   15.9812 C   0  0  2  0  0  0  0  0  0  0  0  0
   -7.4445    5.2487   17.2786 N   0  3  0  0  0  0  0  0  0  0  0  0
   -9.1005    4.9139   15.4375 C   0  0  1  0  0  0  0  0  0  0  0  0
  -10.1382    4.9236   16.3112 O   0  0  0  0  0  0  0  0  0  0  0  0
   -9.5330    5.5014   14.0535 C   0  0  2  0  0  0  0  0  0  0  0  0
  -10.6472    4.7532   13.5234 O   0  0  0  0  0  0  0  0  0  0  0  0
   -8.3009    5.4461   13.0877 C   0  0  2  0  0  0  0  0  0  0  0  0
   -7.1694    6.2130   13.6542 O   0  0  0  0  0  0  0  0  0  0  0  0
   -8.5602    6.0122   11.6869 C   0  0  2  0  0  0  0  0  0  0  0  0
   -8.7777    7.3830   11.7686 O   0  0  0  0  0  0  0  0  0  0  0  0
   -9.8049    5.4182   11.0025 C   0  0  0  0  0  0  0  0  0  0  0  0
   -2.6668    2.7017   13.3471 C   0  0  2  0  0  0  0  0  0  0  0  0
   -1.6017    2.2719   12.4057 N   0  3  0  0  0  0  0  0  0  0  0  0
   -4.0224    2.0216   12.9926 C   0  0  0  0  0  0  0  0  0  0  0  0
   -5.1464    2.4971   13.9828 C   0  0  2  0  0  0  0  0  0  0  0  0
   -6.4430    1.8154   13.6208 N   0  3  0  0  0  0  0  0  0  0  0  0
   -5.2727    4.0577   13.9129 C   0  0  2  0  0  0  0  0  0  0  0  0
   -3.9138    4.7036   14.2782 C   0  0  2  0  0  0  0  0  0  0  0  0
   -4.0300    6.1024   14.1790 O   0  0  0  0  0  0  0  0  0  0  0  0
   -2.8189    4.2364   13.2820 C   0  0  1  0  0  0  0  0  0  0  0  0
   -1.5837    4.8421   13.6340 O   0  0  0  0  0  0  0  0  0  0  0  0
   -1.5291    5.6352   14.7876 C   0  0  2  0  0  0  0  0  0  0  0  0
   -0.3476    6.6097   14.6227 C   0  0  2  0  0  0  0  0  0  0  0  0
   -0.5804    7.4284   13.4966 O   0  0  0  0  0  0  0  0  0  0  0  0
    0.9751    5.7877   14.4500 C   0  0  1  0  0  0  0  0  0  0  0  0
    2.1616    6.6561   14.2549 N   0  3  0  0  0  0  0  0  0  0  0  0
    2.5539    6.6986   12.8230 C   0  0  0  0  0  0  0  0  0  0  0  0
    1.1815    4.8743   15.7070 C   0  0  2  0  0  0  0  0  0  0  0  0
    1.2799    5.6865   16.8919 O   0  0  0  0  0  0  0  0  0  0  0  0
    2.3967    4.0856   15.6147 C   0  0  0  0  0  0  0  0  0  0  0  0
   -0.0629    3.9562   15.9116 C   0  0  0  0  0  0  0  0  0  0  0  0
   -1.3182    4.7748   15.9643 O   0  0  0  0  0  0  0  0  0  0  0  0
  1  2  1  6  0  0  0
  1  3  1  0  0  0  0
  1 10  1  0  0  0  0
  3  4  1  1  0  0  0
  3  5  1  0  0  0  0
  5  6  1  1  0  0  0
  5  7  1  0  0  0  0
  7  8  1  6  0  0  0
  7  9  1  0  0  0  0
  9 10  1  1  0  0  0
  9 11  1  0  0  0  0
 11 12  1  1  0  0  0
 11 13  1  0  0  0  0
 14 15  1  6  0  0  0
 14 16  1  0  0  0  0
 14 22  1  0  0  0  0
 16 17  1  0  0  0  0
 17 18  1  6  0  0  0
 17 19  1  0  0  0  0
 19  2  1  1  0  0  0
 19 20  1  0  0  0  0
 20 21  1  6  0  0  0
 20 22  1  0  0  0  0
 22 23  1  1  0  0  0
 24 23  1  6  0  0  0
 24 25  1  0  0  0  0
 24 34  1  0  0  0  0
 25 26  1  6  0  0  0
 25 27  1  0  0  0  0
 27 28  1  1  0  0  0
 27 30  1  0  0  0  0
 28 29  1  0  0  0  0
 30 31  1  1  0  0  0
 30 32  1  0  0  0  0
 30 33  1  0  0  0  0
 33 34  1  0  0  0  0
M  CHG  4   4   1  15   1  18   1  28   1
M  END
>  <CHROM.1>
173.78326897,-173.07411653,141.36510602,60.33812812,61.34377156,66.98136781
53.65958994,63.68511309,99.22161239,-45.77914135,-116.28542761,-156.32225624
169.92773508,18.07582813,100.14362358,-4.17250730,4.99684880,14.23525369
3.11833717,0.08024198,-3.03444482

>  <Name>
1mwl

>  <RI>
0

>  <Rbt.Current_Directory>
/home/itssahil/PROJECTS/Mol_Feturizer/New_Systems/rnas/1mwl

>  <Rbt.Executable>
rbdock ($Id: //depot/dev/client3/rdock/2013.1/src/exe/rbdock.cxx#4 $)

>  <Rbt.Library>
libRbt.so (2013.1, Build901 2013/11/27)

>  <Rbt.Parameter_File>
/export/apps/rDock/src/rDock_2013.1_src/data/scripts/dock_solv.prm

>  <Rbt.Receptor>
prm/blind_docking_20.prm

>  <SCORE>
8.58282

>  <SCORE.INTER>
-11.9708

>  <SCORE.INTER.CONST>
1

>  <SCORE.INTER.POLAR>
-3.85988

>  <SCORE.INTER.ROT>
6

>  <SCORE.INTER.SOLV>
24.6748

>  <SCORE.INTER.VDW>
-10.9392

>  <SCORE.INTER.norm>
-0.352081

>  <SCORE.INTRA>
-5.06751

>  <SCORE.INTRA.DIHEDRAL>
-16.5086

>  <SCORE.INTRA.DIHEDRAL.0>
42.0816

>  <SCORE.INTRA.POLAR>
0.162229

>  <SCORE.INTRA.POLAR.0>
-0.254682

>  <SCORE.INTRA.REPUL>
0

>  <SCORE.INTRA.REPUL.0>
0

>  <SCORE.INTRA.SOLV>
-3.28946

>  <SCORE.INTRA.SOLV.lig_0>
-109.803

>  <SCORE.INTRA.VDW>
4.27996

>  <SCORE.INTRA.VDW.0>
0.32176

>  <SCORE.INTRA.norm>
-0.149044

>  <SCORE.RESTR>
25.6211

>  <SCORE.RESTR.CAVITY>
25.6211

>  <SCORE.RESTR.norm>
0.753562

>  <SCORE.SYSTEM>
0

>  <SCORE.SYSTEM.CONST>
0

>  <SCORE.SYSTEM.DIHEDRAL>
0

>  <SCORE.SYSTEM.SOLV>
0

>  <SCORE.SYSTEM.norm>
0

>  <SCORE.heavy>
34

>  <SCORE.norm>
0.252436

>  <RMSD>
12.094

$$$$
1mwl
 OpenBabel11021811403D
libRbt.so/2013.1/901 2013/11/27
 34 36  0  0  0  0  0  0  0  0999 V2000
   -6.1303    4.9408   15.9606 C   0  0  2  0  0  0  0  0  0  0  0  0
   -5.6344    3.7496   15.4280 O   0  0  0  0  0  0  0  0  0  0  0  0
   -7.6784    4.8128   16.0252 C   0  0  2  0  0  0  0  0  0  0  0  0
   -8.0563    3.6643   16.8544 N   0  3  0  0  0  0  0  0  0  0  0  0
   -8.2801    4.7046   14.5935 C   0  0  1  0  0  0  0  0  0  0  0  0
   -9.6331    4.6183   14.6406 O   0  0  0  0  0  0  0  0  0  0  0  0
   -7.8308    5.9550   13.7676 C   0  0  2  0  0  0  0  0  0  0  0  0
   -8.3801    5.8925   12.4347 O   0  0  0  0  0  0  0  0  0  0  0  0
   -6.2650    5.9880   13.7356 C   0  0  2  0  0  0  0  0  0  0  0  0
   -5.7242    6.0446   15.1117 O   0  0  0  0  0  0  0  0  0  0  0  0
   -5.6655    7.1775   12.9767 C   0  0  2  0  0  0  0  0  0  0  0  0
   -6.2517    8.3584   13.4185 O   0  0  0  0  0  0  0  0  0  0  0  0
   -5.9018    7.1213   11.4564 C   0  0  0  0  0  0  0  0  0  0  0  0
   -2.4906    2.7543   12.7104 C   0  0  2  0  0  0  0  0  0  0  0  0
   -1.6851    2.6675   11.4658 N   0  3  0  0  0  0  0  0  0  0  0  0
   -3.8756    2.0681   12.5189 C   0  0  0  0  0  0  0  0  0  0  0  0
   -4.7270    2.1816   13.8351 C   0  0  2  0  0  0  0  0  0  0  0  0
   -6.0568    1.5011   13.6223 N   0  3  0  0  0  0  0  0  0  0  0  0
   -4.9028    3.6932   14.2101 C   0  0  2  0  0  0  0  0  0  0  0  0
   -3.5111    4.3439   14.4019 C   0  0  2  0  0  0  0  0  0  0  0  0
   -3.6807    5.7076   14.7045 O   0  0  0  0  0  0  0  0  0  0  0  0
   -2.6896    4.2374   13.0892 C   0  0  1  0  0  0  0  0  0  0  0  0
   -1.4200    4.8418   13.2871 O   0  0  0  0  0  0  0  0  0  0  0  0
   -1.3625    6.0948   13.9111 C   0  0  2  0  0  0  0  0  0  0  0  0
   -0.0125    6.7356   13.5372 C   0  0  2  0  0  0  0  0  0  0  0  0
    0.0457    6.9017   12.1367 O   0  0  0  0  0  0  0  0  0  0  0  0
    1.1499    5.8116   14.0373 C   0  0  1  0  0  0  0  0  0  0  0  0
    2.4892    6.3454   13.6889 N   0  3  0  0  0  0  0  0  0  0  0  0
    2.7643    6.1736   12.2395 C   0  0  0  0  0  0  0  0  0  0  0  0
    1.0330    5.6318   15.5901 C   0  0  2  0  0  0  0  0  0  0  0  0
    1.1329    6.9126   16.2404 O   0  0  0  0  0  0  0  0  0  0  0  0
    2.0868    4.7872   16.1224 C   0  0  0  0  0  0  0  0  0  0  0  0
   -0.3729    5.0656   15.9590 C   0  0  0  0  0  0  0  0  0  0  0  0
   -1.4556    5.9202   15.3706 O   0  0  0  0  0  0  0  0  0  0  0  0
  1  2  1  6  0  0  0
  1  3  1  0  0  0  0
  1 10  1  0  0  0  0
  3  4  1  1  0  0  0
  3  5  1  0  0  0  0
  5  6  1  1  0  0  0
  5  7  1  0  0  0  0
  7  8  1  6  0  0  0
  7  9  1  0  0  0  0
  9 10  1  1  0  0  0
  9 11  1  0  0  0  0
 11 12  1  1  0  0  0
 11 13  1  0  0  0  0
 14 15  1  6  0  0  0
 14 16  1  0  0  0  0
 14 22  1  0  0  0  0
 16 17  1  0  0  0  0
 17 18  1  6  0  0  0
 17 19  1  0  0  0  0
 19  2  1  1  0  0  0
 19 20  1  0  0  0  0
 20 21  1  6  0  0  0
 20 22  1  0  0  0  0
 22 23  1  1  0  0  0
 24 23  1  6  0  0  0
 24 25  1  0  0  0  0
 24 34  1  0  0  0  0
 25 26  1  6  0  0  0
 25 27  1  0  0  0  0
 27 28  1  1  0  0  0
 27 30  1  0  0  0  0
 28 29  1  0  0  0  0
 30 31  1  1  0  0  0
 30 32  1  0  0  0  0
 30 33  1  0  0  0  0
 33 34  1  0  0  0  0
M  CHG  4   4   1  15   1  18   1  28   1
M  END
>  <CHROM.1>
118.48309619,-170.97713768,38.75624452,63.64113524,-47.11567101,49.95151624
170.49694781,-171.81975837,55.55660357,-162.46160018,-166.50316067,-159.28014822
80.65107374,46.24121313,-28.13891126,-3.51587964,5.11853692,14.08031141,-3.02584375
0.02131046,-0.07863332

>  <Name>
1mwl

>  <RI>
0

>  <Rbt.Current_Directory>
/home/itssahil/PROJECTS/Mol_Feturizer/New_Systems/rnas/1mwl

>  <Rbt.Executable>
rbdock ($Id: //depot/dev/client3/rdock/2013.1/src/exe/rbdock.cxx#4 $)

>  <Rbt.Library>
libRbt.so (2013.1, Build901 2013/11/27)

>  <Rbt.Parameter_File>
/export/apps/rDock/src/rDock_2013.1_src/data/scripts/dock_solv.prm

>  <Rbt.Receptor>
prm/blind_docking_20.prm

>  <SCORE>
4.53279

>  <SCORE.INTER>
-27.999

>  <SCORE.INTER.CONST>
1

>  <SCORE.INTER.POLAR>
-4.59117

>  <SCORE.INTER.ROT>
6

>  <SCORE.INTER.SOLV>
20.0247

>  <SCORE.INTER.VDW>
-17.637

>  <SCORE.INTER.norm>
-0.8235

>  <SCORE.INTRA>
11.4039

>  <SCORE.INTRA.DIHEDRAL>
-20.8816

>  <SCORE.INTRA.DIHEDRAL.0>
42.0816

>  <SCORE.INTRA.POLAR>
-0.0884279

>  <SCORE.INTRA.POLAR.0>
-0.254682

>  <SCORE.INTRA.REPUL>
0.126911

>  <SCORE.INTRA.REPUL.0>
0

>  <SCORE.INTRA.SOLV>
-1.74399

>  <SCORE.INTRA.SOLV.lig_0>
-109.803

>  <SCORE.INTRA.VDW>
22.3828

>  <SCORE.INTRA.VDW.0>
0.32176

>  <SCORE.INTRA.norm>
0.335409

>  <SCORE.RESTR>
21.1279

>  <SCORE.RESTR.CAVITY>
21.1279

>  <SCORE.RESTR.norm>
0.621409

>  <SCORE.SYSTEM>
0

>  <SCORE.SYSTEM.CONST>
0

>  <SCORE.SYSTEM.DIHEDRAL>
0

>  <SCORE.SYSTEM.SOLV>
0

>  <SCORE.SYSTEM.norm>
0

>  <SCORE.heavy>
34

>  <SCORE.norm>
0.133317

>  <RMSD>
12.107

$$$$
1mwl
 OpenBabel11021811403D
libRbt.so/2013.1/901 2013/11/27
 34 36  0  0  0  0  0  0  0  0999 V2000
   -7.0634    5.3836   12.2338 C   0  0  2  0  0  0  0  0  0  0  0  0
   -6.0524    6.3427   12.1516 O   0  0  0  0  0  0  0  0  0  0  0  0
   -8.3023    6.0672   12.8776 C   0  0  2  0  0  0  0  0  0  0  0  0
   -8.7249    7.2136   12.0672 N   0  3  0  0  0  0  0  0  0  0  0  0
   -7.9961    6.4884   14.3447 C   0  0  1  0  0  0  0  0  0  0  0  0
   -9.0811    7.0629   14.9216 O   0  0  0  0  0  0  0  0  0  0  0  0
   -7.5464    5.2211   15.1441 C   0  0  2  0  0  0  0  0  0  0  0  0
   -7.2632    5.5737   16.5144 O   0  0  0  0  0  0  0  0  0  0  0  0
   -6.2840    4.6166   14.4407 C   0  0  2  0  0  0  0  0  0  0  0  0
   -6.5953    4.2696   13.0364 O   0  0  0  0  0  0  0  0  0  0  0  0
   -5.7327    3.3459   15.0974 C   0  0  2  0  0  0  0  0  0  0  0  0
   -5.1451    3.6658   16.3163 O   0  0  0  0  0  0  0  0  0  0  0  0
   -4.6441    2.6442   14.2650 C   0  0  0  0  0  0  0  0  0  0  0  0
   -2.5084    3.9671   11.9145 C   0  0  2  0  0  0  0  0  0  0  0  0
   -1.0976    3.5696   11.6762 N   0  3  0  0  0  0  0  0  0  0  0  0
   -3.1862    4.4151   10.5856 C   0  0  0  0  0  0  0  0  0  0  0  0
   -4.6726    4.8510   10.8516 C   0  0  2  0  0  0  0  0  0  0  0  0
   -5.3044    5.2699    9.5469 N   0  3  0  0  0  0  0  0  0  0  0  0
   -4.6919    6.0121   11.9042 C   0  0  2  0  0  0  0  0  0  0  0  0
   -4.0201    5.5337   13.2145 C   0  0  2  0  0  0  0  0  0  0  0  0
   -4.0128    6.5942   14.1393 O   0  0  0  0  0  0  0  0  0  0  0  0
   -2.5493    5.1221   12.9377 C   0  0  1  0  0  0  0  0  0  0  0  0
   -1.9530    4.6899   14.1518 O   0  0  0  0  0  0  0  0  0  0  0  0
   -1.6087    5.6515   15.1106 C   0  0  2  0  0  0  0  0  0  0  0  0
   -0.6372    6.6429   14.4425 C   0  0  2  0  0  0  0  0  0  0  0  0
   -1.2912    7.2683   13.3592 O   0  0  0  0  0  0  0  0  0  0  0  0
    0.6325    5.8660   13.9533 C   0  0  1  0  0  0  0  0  0  0  0  0
    1.6090    6.7483   13.2691 N   0  3  0  0  0  0  0  0  0  0  0  0
    1.1741    7.0373   11.8786 C   0  0  0  0  0  0  0  0  0  0  0  0
    1.3121    5.1658   15.1801 C   0  0  2  0  0  0  0  0  0  0  0  0
    1.7059    6.1531   16.1514 O   0  0  0  0  0  0  0  0  0  0  0  0
    2.5029    4.4292   14.7971 C   0  0  0  0  0  0  0  0  0  0  0  0
    0.2887    4.2333   15.8986 C   0  0  0  0  0  0  0  0  0  0  0  0
   -0.9553    4.9916   16.2539 O   0  0  0  0  0  0  0  0  0  0  0  0
  1  2  1  1  0  0  0
  1  3  1  0  0  0  0
  1 10  1  0  0  0  0
  3  4  1  6  0  0  0
  3  5  1  0  0  0  0
  5  6  1  1  0  0  0
  5  7  1  0  0  0  0
  7  8  1  1  0  0  0
  7  9  1  0  0  0  0
  9 10  1  6  0  0  0
  9 11  1  0  0  0  0
 11 12  1  1  0  0  0
 11 13  1  0  0  0  0
 14 15  1  6  0  0  0
 14 16  1  0  0  0  0
 14 22  1  0  0  0  0
 16 17  1  0  0  0  0
 17 18  1  6  0  0  0
 17 19  1  0  0  0  0
 19  2  1  1  0  0  0
 19 20  1  0  0  0  0
 20 21  1  1  0  0  0
 20 22  1  0  0  0  0
 22 23  1  1  0  0  0
 24 23  1  6  0  0  0
 24 25  1  0  0  0  0
 24 34  1  0  0  0  0
 25 26  1  6  0  0  0
 25 27  1  0  0  0  0
 27 28  1  1  0  0  0
 27 30  1  0  0  0  0
 28 29  1  0  0  0  0
 30 31  1  1  0  0  0
 30 32  1  0  0  0  0
 30 33  1  0  0  0  0
 33 34  1  0  0  0  0
M  CHG  4   4   1  15   1  18   1  28   1
M  END
>  <CHROM.1>
165.16197159,38.77875121,-62.34362395,63.46381225,66.07702983,-70.72391476
63.20151564,65.07673692,-177.98889040,-60.29096677,165.76644820,-57.83891938
165.62790665,41.84147822,-174.28505147,-3.52828463,5.38411939,13.67704337
-3.04354623,-0.00964775,1.67535495

>  <Name>
1mwl

>  <RI>
0

>  <Rbt.Current_Directory>
/home/itssahil/PROJECTS/Mol_Feturizer/New_Systems/rnas/1mwl

>  <Rbt.Executable>
rbdock ($Id: //depot/dev/client3/rdock/2013.1/src/exe/rbdock.cxx#4 $)

>  <Rbt.Library>
libRbt.so (2013.1, Build901 2013/11/27)

>  <Rbt.Parameter_File>
/export/apps/rDock/src/rDock_2013.1_src/data/scripts/dock_solv.prm

>  <Rbt.Receptor>
prm/blind_docking_20.prm

>  <SCORE>
-25.4803

>  <SCORE.INTER>
-30.1318

>  <SCORE.INTER.CONST>
1

>  <SCORE.INTER.POLAR>
-5.7053

>  <SCORE.INTER.ROT>
6

>  <SCORE.INTER.SOLV>
25.0023

>  <SCORE.INTER.VDW>
-17.0043

>  <SCORE.INTER.norm>
-0.886228

>  <SCORE.INTRA>
-17.3978

>  <SCORE.INTRA.DIHEDRAL>
-35.2602

>  <SCORE.INTRA.DIHEDRAL.0>
42.0816

>  <SCORE.INTRA.POLAR>
-0.621028

>  <SCORE.INTRA.POLAR.0>
-0.254682

>  <SCORE.INTRA.REPUL>
0

>  <SCORE.INTRA.REPUL.0>
0

>  <SCORE.INTRA.SOLV>
0.638799

>  <SCORE.INTRA.SOLV.lig_0>
-109.803

>  <SCORE.INTRA.VDW>
2.02439

>  <SCORE.INTRA.VDW.0>
0.32176

>  <SCORE.INTRA.norm>
-0.511701

>  <SCORE.RESTR>
22.0493

>  <SCORE.RESTR.CAVITY>
22.0493

>  <SCORE.RESTR.norm>
0.648509

>  <SCORE.SYSTEM>
0

>  <SCORE.SYSTEM.CONST>
0

>  <SCORE.SYSTEM.DIHEDRAL>
0

>  <SCORE.SYSTEM.SOLV>
0

>  <SCORE.SYSTEM.norm>
0

>  <SCORE.heavy>
34

>  <SCORE.norm>
-0.74942

>  <RMSD>
12.119

$$$$
1mwl
 OpenBabel11021811403D
libRbt.so/2013.1/901 2013/11/27
 34 36  0  0  0  0  0  0  0  0999 V2000
   -6.7765    5.5202   13.5094 C   0  0  2  0  0  0  0  0  0  0  0  0
   -5.7988    6.5038   13.6680 O   0  0  0  0  0  0  0  0  0  0  0  0
   -7.7628    5.6472   14.7044 C   0  0  2  0  0  0  0  0  0  0  0  0
   -8.3584    6.9867   14.7277 N   0  3  0  0  0  0  0  0  0  0  0  0
   -7.0443    5.3196   16.0460 C   0  0  1  0  0  0  0  0  0  0  0  0
   -7.9051    5.4035   17.0910 O   0  0  0  0  0  0  0  0  0  0  0  0
   -6.4297    3.8845   15.9453 C   0  0  2  0  0  0  0  0  0  0  0  0
   -5.7626    3.5429   17.1784 O   0  0  0  0  0  0  0  0  0  0  0  0
   -5.4351    3.8578   14.7353 C   0  0  2  0  0  0  0  0  0  0  0  0
   -6.1385    4.2178   13.4843 O   0  0  0  0  0  0  0  0  0  0  0  0
   -4.7630    2.5022   14.4893 C   0  0  2  0  0  0  0  0  0  0  0  0
   -3.5464    2.4540   15.1606 O   0  0  0  0  0  0  0  0  0  0  0  0
   -4.4486    2.2298   13.0070 C   0  0  0  0  0  0  0  0  0  0  0  0
   -2.0314    5.2134   12.1185 C   0  0  2  0  0  0  0  0  0  0  0  0
   -0.7629    5.1933   11.3465 N   0  3  0  0  0  0  0  0  0  0  0  0
   -3.2592    5.2214   11.1602 C   0  0  0  0  0  0  0  0  0  0  0  0
   -4.5956    5.2613   11.9865 C   0  0  2  0  0  0  0  0  0  0  0  0
   -5.7649    5.2587   11.0329 N   0  3  0  0  0  0  0  0  0  0  0  0
   -4.5993    6.5312   12.9050 C   0  0  2  0  0  0  0  0  0  0  0  0
   -3.3737    6.4897   13.8502 C   0  0  2  0  0  0  0  0  0  0  0  0
   -3.3690    7.6505   14.6456 O   0  0  0  0  0  0  0  0  0  0  0  0
   -2.0629    6.4666   13.0192 C   0  0  1  0  0  0  0  0  0  0  0  0
   -0.9536    6.4312   13.9050 O   0  0  0  0  0  0  0  0  0  0  0  0
   -1.0922    5.7632   15.1286 C   0  0  2  0  0  0  0  0  0  0  0  0
    0.2208    5.9551   15.9110 C   0  0  2  0  0  0  0  0  0  0  0  0
    0.4200    7.3330   16.1444 O   0  0  0  0  0  0  0  0  0  0  0  0
    1.4055    5.3539   15.0804 C   0  0  1  0  0  0  0  0  0  0  0  0
    2.7157    5.5254   15.7543 N   0  3  0  0  0  0  0  0  0  0  0  0
    3.5549    6.5147   15.0310 C   0  0  0  0  0  0  0  0  0  0  0  0
    1.1324    3.8324   14.8210 C   0  0  2  0  0  0  0  0  0  0  0  0
    1.0301    3.1323   16.0751 O   0  0  0  0  0  0  0  0  0  0  0  0
    2.1983    3.2091   14.0575 C   0  0  0  0  0  0  0  0  0  0  0  0
   -0.2426    3.6494   14.1077 C   0  0  0  0  0  0  0  0  0  0  0  0
   -1.3318    4.3312   14.8808 O   0  0  0  0  0  0  0  0  0  0  0  0
  1  2  1  1  0  0  0
  1  3  1  0  0  0  0
  1 10  1  0  0  0  0
  3  4  1  1  0  0  0
  3  5  1  0  0  0  0
  5  6  1  1  0  0  0
  5  7  1  0  0  0  0
  7  8  1  1  0  0  0
  7  9  1  0  0  0  0
  9 10  1  6  0  0  0
  9 11  1  0  0  0  0
 11 12  1  1  0  0  0
 11 13  1  0  0  0  0
 14 15  1  6  0  0  0
 14 16  1  0  0  0  0
 14 22  1  0  0  0  0
 16 17  1  0  0  0  0
 17 18  1  6  0  0  0
 17 19  1  0  0  0  0
 19  2  1  1  0  0  0
 19 20  1  0  0  0  0
 20 21  1  1  0  0  0
 20 22  1  0  0  0  0
 22 23  1  1  0  0  0
 24 23  1  6  0  0  0
 24 25  1  0  0  0  0
 24 34  1  0  0  0  0
 25 26  1  6  0  0  0
 25 27  1  0  0  0  0
 27 28  1  1  0  0  0
 27 30  1  0  0  0  0
 28 29  1  0  0  0  0
 30 31  1  1  0  0  0
 30 32  1  0  0  0  0
 30 33  1  0  0  0  0
 33 34  1  0  0  0  0
M  CHG  4   4   1  15   1  18   1  28   1
M  END
>  <CHROM.1>
167.98470426,-3.05161024,-18.54930534,65.95460742,177.05540417,-92.85486291
-63.39183482,64.19593849,137.58242305,65.99243165,-87.74443295,-176.70426075
-54.70452366,10.09584048,52.34004427,-2.97156734,5.07828111,14.33991239,-3.10202781
0.00870140,1.89755014

>  <Name>
1mwl

>  <RI>
0

>  <Rbt.Current_Directory>
/home/itssahil/PROJECTS/Mol_Feturizer/New_Systems/rnas/1mwl

>  <Rbt.Executable>
rbdock ($Id: //depot/dev/client3/rdock/2013.1/src/exe/rbdock.cxx#4 $)

>  <Rbt.Library>
libRbt.so (2013.1, Build901 2013/11/27)

>  <Rbt.Parameter_File>
/export/apps/rDock/src/rDock_2013.1_src/data/scripts/dock_solv.prm

>  <Rbt.Receptor>
prm/blind_docking_20.prm

>  <SCORE>
29.4787

>  <SCORE.INTER>
13.4221

>  <SCORE.INTER.CONST>
1

>  <SCORE.INTER.POLAR>
-5.04322

>  <SCORE.INTER.ROT>
6

>  <SCORE.INTER.SOLV>
28.9994

>  <SCORE.INTER.VDW>
8.4923

>  <SCORE.INTER.norm>
0.394767

>  <SCORE.INTRA>
-4.32203

>  <SCORE.INTRA.DIHEDRAL>
-18.018

>  <SCORE.INTRA.DIHEDRAL.0>
42.0816

>  <SCORE.INTRA.POLAR>
-1.05577

>  <SCORE.INTRA.POLAR.0>
-0.254682

>  <SCORE.INTRA.REPUL>
0

>  <SCORE.INTRA.REPUL.0>
0

>  <SCORE.INTRA.SOLV>
1.00143

>  <SCORE.INTRA.SOLV.lig_0>
-109.803

>  <SCORE.INTRA.VDW>
7.77588

>  <SCORE.INTRA.VDW.0>
0.32176

>  <SCORE.INTRA.norm>
-0.127118

>  <SCORE.RESTR>
20.3787

>  <SCORE.RESTR.CAVITY>
20.3787

>  <SCORE.RESTR.norm>
0.599373

>  <SCORE.SYSTEM>
0

>  <SCORE.SYSTEM.CONST>
0

>  <SCORE.SYSTEM.DIHEDRAL>
0

>  <SCORE.SYSTEM.SOLV>
0

>  <SCORE.SYSTEM.norm>
0

>  <SCORE.heavy>
34

>  <SCORE.norm>
0.867021

>  <RMSD>
12.134

$$$$
1mwl
 OpenBabel11021811403D
libRbt.so/2013.1/901 2013/11/27
 34 36  0  0  0  0  0  0  0  0999 V2000
   -6.9686    5.4430   12.3894 C   0  0  2  0  0  0  0  0  0  0  0  0
   -6.0904    6.5168   12.5460 O   0  0  0  0  0  0  0  0  0  0  0  0
   -8.3472    5.8826   12.9580 C   0  0  2  0  0  0  0  0  0  0  0  0
   -8.8312    7.0703   12.2477 N   0  3  0  0  0  0  0  0  0  0  0  0
   -8.2532    6.1345   14.4914 C   0  0  1  0  0  0  0  0  0  0  0  0
   -9.4586    6.4938   14.9993 O   0  0  0  0  0  0  0  0  0  0  0  0
   -7.7252    4.8325   15.1795 C   0  0  2  0  0  0  0  0  0  0  0  0
   -7.6348    5.0273   16.6064 O   0  0  0  0  0  0  0  0  0  0  0  0
   -6.3279    4.4817   14.5645 C   0  0  2  0  0  0  0  0  0  0  0  0
   -6.4431    4.2937   13.1014 O   0  0  0  0  0  0  0  0  0  0  0  0
   -5.6844    3.2076   15.1238 C   0  0  2  0  0  0  0  0  0  0  0  0
   -4.3353    3.1784   14.7886 O   0  0  0  0  0  0  0  0  0  0  0  0
   -6.2961    1.9107   14.5632 C   0  0  0  0  0  0  0  0  0  0  0  0
   -2.2759    4.7277   11.8329 C   0  0  2  0  0  0  0  0  0  0  0  0
   -0.8281    4.5776   11.5386 N   0  3  0  0  0  0  0  0  0  0  0  0
   -3.0163    5.3889   10.6326 C   0  0  0  0  0  0  0  0  0  0  0  0
   -4.5436    5.5600   10.9613 C   0  0  2  0  0  0  0  0  0  0  0  0
   -5.2344    6.1932    9.7788 N   0  3  0  0  0  0  0  0  0  0  0  0
   -4.7010    6.4271   12.2573 C   0  0  2  0  0  0  0  0  0  0  0  0
   -3.9630    5.7402   13.4323 C   0  0  2  0  0  0  0  0  0  0  0  0
   -4.0823    6.5441   14.5810 O   0  0  0  0  0  0  0  0  0  0  0  0
   -2.4542    5.5933   13.0984 C   0  0  1  0  0  0  0  0  0  0  0  0
   -1.7977    4.9642   14.1891 O   0  0  0  0  0  0  0  0  0  0  0  0
   -1.3684    5.7562   15.2620 C   0  0  2  0  0  0  0  0  0  0  0  0
   -0.3100    6.7350   14.7192 C   0  0  2  0  0  0  0  0  0  0  0  0
   -0.9032    7.5541   13.7344 O   0  0  0  0  0  0  0  0  0  0  0  0
    0.8843    5.9178   14.1185 C   0  0  1  0  0  0  0  0  0  0  0  0
    1.9378    6.7906   13.5453 N   0  3  0  0  0  0  0  0  0  0  0  0
    1.5535    7.2596   12.1894 C   0  0  0  0  0  0  0  0  0  0  0  0
    1.4960    5.0037   15.2353 C   0  0  2  0  0  0  0  0  0  0  0  0
    1.9770    5.8150   16.3234 O   0  0  0  0  0  0  0  0  0  0  0  0
    2.6153    4.2194   14.7461 C   0  0  0  0  0  0  0  0  0  0  0  0
    0.3913    4.0811   15.8365 C   0  0  0  0  0  0  0  0  0  0  0  0
   -0.7790    4.8952   16.3017 O   0  0  0  0  0  0  0  0  0  0  0  0
  1  2  1  1  0  0  0
  1  3  1  0  0  0  0
  1 10  1  0  0  0  0
  3  4  1  6  0  0  0
  3  5  1  0  0  0  0
  5  6  1  1  0  0  0
  5  7  1  0  0  0  0
  7  8  1  1  0  0  0
  7  9  1  0  0  0  0
  9 10  1  6  0  0  0
  9 11  1  0  0  0  0
 11 12  1  6  0  0  0
 11 13  1  0  0  0  0
 14 15  1  6  0  0  0
 14 16  1  0  0  0  0
 14 22  1  0  0  0  0
 16 17  1  0  0  0  0
 17 18  1  6  0  0  0
 17 19  1  0  0  0  0
 19  2  1  1  0  0  0
 19 20  1  0  0  0  0
 20 21  1  1  0  0  0
 20 22  1  0  0  0  0
 22 23  1  1  0  0  0
 24 23  1  6  0  0  0
 24 25  1  0  0  0  0
 24 34  1  0  0  0  0
 25 26  1  6  0  0  0
 25 27  1  0  0  0  0
 27 28  1  1  0  0  0
 27 30  1  0  0  0  0
 28 29  1  0  0  0  0
 30 31  1  1  0  0  0
 30 32  1  0  0  0  0
 30 33  1  0  0  0  0
 33 34  1  0  0  0  0
M  CHG  4   4   1  15   1  18   1  28   1
M  END
>  <CHROM.1>
173.54152477,39.39444563,-48.57474950,174.60093650,-168.56878460,-164.44220726
-172.91506574,70.38143382,158.46440310,57.65517612,155.15279525,-63.13901704
74.58069321,39.84522337,-175.83546610,-3.47066495,5.43666386,13.77180120
-3.07570117,0.04933076,1.95309943

>  <Name>
1mwl

>  <RI>
0

>  <Rbt.Current_Directory>
/home/itssahil/PROJECTS/Mol_Feturizer/New_Systems/rnas/1mwl

>  <Rbt.Executable>
rbdock ($Id: //depot/dev/client3/rdock/2013.1/src/exe/rbdock.cxx#4 $)

>  <Rbt.Library>
libRbt.so (2013.1, Build901 2013/11/27)

>  <Rbt.Parameter_File>
/export/apps/rDock/src/rDock_2013.1_src/data/scripts/dock_solv.prm

>  <Rbt.Receptor>
prm/blind_docking_20.prm

>  <SCORE>
-12.3538

>  <SCORE.INTER>
-20.7211

>  <SCORE.INTER.CONST>
1

>  <SCORE.INTER.POLAR>
-4.51248

>  <SCORE.INTER.ROT>
6

>  <SCORE.INTER.SOLV>
26.0345

>  <SCORE.INTER.VDW>
-15.0507

>  <SCORE.INTER.norm>
-0.609446

>  <SCORE.INTRA>
-14.0565

>  <SCORE.INTRA.DIHEDRAL>
-31.654

>  <SCORE.INTRA.DIHEDRAL.0>
42.0816

>  <SCORE.INTRA.POLAR>
0.189538

>  <SCORE.INTRA.POLAR.0>
-0.254682

>  <SCORE.INTRA.REPUL>
0

>  <SCORE.INTRA.REPUL.0>
0

>  <SCORE.INTRA.SOLV>
1.62792

>  <SCORE.INTRA.SOLV.lig_0>
-109.803

>  <SCORE.INTRA.VDW>
0.312052

>  <SCORE.INTRA.VDW.0>
0.32176

>  <SCORE.INTRA.norm>
-0.413428

>  <SCORE.RESTR>
22.4239

>  <SCORE.RESTR.CAVITY>
22.4239

>  <SCORE.RESTR.norm>
0.659527

>  <SCORE.SYSTEM>
0

>  <SCORE.SYSTEM.CONST>
0

>  <SCORE.SYSTEM.DIHEDRAL>
0

>  <SCORE.SYSTEM.SOLV>
0

>  <SCORE.SYSTEM.norm>
0

>  <SCORE.heavy>
34

>  <SCORE.norm>
-0.363347

>  <RMSD>
12.162

$$$$
1mwl
 OpenBabel11021811403D
libRbt.so/2013.1/901 2013/11/27
 34 36  0  0  0  0  0  0  0  0999 V2000
   -7.0773    5.5255   12.7652 C   0  0  2  0  0  0  0  0  0  0  0  0
   -6.1506    6.5363   13.0265 O   0  0  0  0  0  0  0  0  0  0  0  0
   -8.1560    5.5827   13.8831 C   0  0  2  0  0  0  0  0  0  0  0  0
   -8.7995    6.9000   13.8976 N   0  3  0  0  0  0  0  0  0  0  0  0
   -7.5310    5.2386   15.2668 C   0  0  1  0  0  0  0  0  0  0  0  0
   -8.4717    5.2615   16.2439 O   0  0  0  0  0  0  0  0  0  0  0  0
   -6.8592    3.8288   15.1741 C   0  0  2  0  0  0  0  0  0  0  0  0
   -6.2766    3.4725   16.4453 O   0  0  0  0  0  0  0  0  0  0  0  0
   -5.7746    3.8727   14.0446 C   0  0  2  0  0  0  0  0  0  0  0  0
   -6.3927    4.2468   12.7533 O   0  0  0  0  0  0  0  0  0  0  0  0
   -5.0374    2.5487   13.8138 C   0  0  2  0  0  0  0  0  0  0  0  0
   -4.3624    2.1803   14.9723 O   0  0  0  0  0  0  0  0  0  0  0  0
   -3.9761    2.6198   12.7007 C   0  0  0  0  0  0  0  0  0  0  0  0
   -2.4101    4.8773   11.7952 C   0  0  2  0  0  0  0  0  0  0  0  0
   -1.0091    4.7767   11.3131 N   0  3  0  0  0  0  0  0  0  0  0  0
   -3.3196    5.5300   10.7122 C   0  0  0  0  0  0  0  0  0  0  0  0
   -4.7956    5.6487   11.2390 C   0  0  2  0  0  0  0  0  0  0  0  0
   -5.6528    6.2748   10.1667 N   0  3  0  0  0  0  0  0  0  0  0  0
   -4.8086    6.4941   12.5587 C   0  0  2  0  0  0  0  0  0  0  0  0
   -3.9039    5.8159   13.6164 C   0  0  2  0  0  0  0  0  0  0  0  0
   -3.8965    6.6011   14.7841 O   0  0  0  0  0  0  0  0  0  0  0  0
   -2.4478    5.7208   13.0873 C   0  0  1  0  0  0  0  0  0  0  0  0
   -1.6366    5.0990   14.0731 O   0  0  0  0  0  0  0  0  0  0  0  0
   -1.2852    5.8321   15.2140 C   0  0  2  0  0  0  0  0  0  0  0  0
   -0.1130    6.7539   14.8280 C   0  0  2  0  0  0  0  0  0  0  0  0
   -0.5374    7.6362   13.8111 O   0  0  0  0  0  0  0  0  0  0  0  0
    1.0896    5.8770   14.3384 C   0  0  1  0  0  0  0  0  0  0  0  0
    2.2538    6.6942   13.9180 N   0  3  0  0  0  0  0  0  0  0  0  0
    2.2388    6.9167   12.4496 C   0  0  0  0  0  0  0  0  0  0  0  0
    1.5112    4.8951   15.4853 C   0  0  2  0  0  0  0  0  0  0  0  0
    1.9133    5.6437   16.6478 O   0  0  0  0  0  0  0  0  0  0  0  0
    2.6287    4.0528   15.0991 C   0  0  0  0  0  0  0  0  0  0  0  0
    0.2898    4.0308   15.9260 C   0  0  0  0  0  0  0  0  0  0  0  0
   -0.8736    4.9068   16.2835 O   0  0  0  0  0  0  0  0  0  0  0  0
  1  2  1  1  0  0  0
  1  3  1  0  0  0  0
  1 10  1  0  0  0  0
  3  4  1  1  0  0  0
  3  5  1  0  0  0  0
  5  6  1  1  0  0  0
  5  7  1  0  0  0  0
  7  8  1  1  0  0  0
  7  9  1  0  0  0  0
  9 10  1  6  0  0  0
  9 11  1  0  0  0  0
 11 12  1  1  0  0  0
 11 13  1  0  0  0  0
 14 15  1  6  0  0  0
 14 16  1  0  0  0  0
 14 22  1  0  0  0  0
 16 17  1  0  0  0  0
 17 18  1  6  0  0  0
 17 19  1  0  0  0  0
 19  2  1  1  0  0  0
 19 20  1  0  0  0  0
 20 21  1  1  0  0  0
 20 22  1  0  0  0  0
 22 23  1  1  0  0  0
 24 23  1  6  0  0  0
 24 25  1  0  0  0  0
 24 34  1  0  0  0  0
 25 26  1  6  0  0  0
 25 27  1  0  0  0  0
 27 28  1  1  0  0  0
 27 30  1  0  0  0  0
 28 29  1  0  0  0  0
 30 31  1  1  0  0  0
 30 32  1  0  0  0  0
 30 33  1  0  0  0  0
 33 34  1  0  0  0  0
M  CHG  4   4   1  15   1  18   1  28   1
M  END
>  <CHROM.1>
155.69461150,28.09694588,-76.43036253,-172.71123572,63.93743933,-61.16342394
63.46800128,62.05871865,-74.73529939,20.64683413,165.99595898,-80.01965677
172.90060946,24.58692919,-65.63663147,-3.22785621,5.25020920,13.91338252
-3.09591092,0.09421680,1.97458582

>  <Name>
1mwl

>  <RI>
0

>  <Rbt.Current_Directory>
/home/itssahil/PROJECTS/Mol_Feturizer/New_Systems/rnas/1mwl

>  <Rbt.Executable>
rbdock ($Id: //depot/dev/client3/rdock/2013.1/src/exe/rbdock.cxx#4 $)

>  <Rbt.Library>
libRbt.so (2013.1, Build901 2013/11/27)

>  <Rbt.Parameter_File>
/export/apps/rDock/src/rDock_2013.1_src/data/scripts/dock_solv.prm

>  <Rbt.Receptor>
prm/blind_docking_20.prm

>  <SCORE>
-7.27043

>  <SCORE.INTER>
-20.065

>  <SCORE.INTER.CONST>
1

>  <SCORE.INTER.POLAR>
-5.70547

>  <SCORE.INTER.ROT>
6

>  <SCORE.INTER.SOLV>
28.0372

>  <SCORE.INTER.VDW>
-11.3042

>  <SCORE.INTER.norm>
-0.590147

>  <SCORE.INTRA>
-9.78924

>  <SCORE.INTRA.DIHEDRAL>
-23.2935

>  <SCORE.INTRA.DIHEDRAL.0>
42.0816

>  <SCORE.INTRA.POLAR>
-0.248554

>  <SCORE.INTRA.POLAR.0>
-0.254682

>  <SCORE.INTRA.REPUL>
0

>  <SCORE.INTRA.REPUL.0>
0

>  <SCORE.INTRA.SOLV>
0.657762

>  <SCORE.INTRA.SOLV.lig_0>
-109.803

>  <SCORE.INTRA.VDW>
2.3737

>  <SCORE.INTRA.VDW.0>
0.32176

>  <SCORE.INTRA.norm>
-0.287919

>  <SCORE.RESTR>
22.5838

>  <SCORE.RESTR.CAVITY>
22.5838

>  <SCORE.RESTR.norm>
0.66423

>  <SCORE.SYSTEM>
0

>  <SCORE.SYSTEM.CONST>
0

>  <SCORE.SYSTEM.DIHEDRAL>
0

>  <SCORE.SYSTEM.SOLV>
0

>  <SCORE.SYSTEM.norm>
0

>  <SCORE.heavy>
34

>  <SCORE.norm>
-0.213836

>  <RMSD>
12.187

$$$$
1mwl
 OpenBabel11021811403D
libRbt.so/2013.1/901 2013/11/27
 34 36  0  0  0  0  0  0  0  0999 V2000
   -7.1050    5.3015   12.2731 C   0  0  2  0  0  0  0  0  0  0  0  0
   -6.1652    6.3328   12.3162 O   0  0  0  0  0  0  0  0  0  0  0  0
   -8.2208    5.6455   13.2996 C   0  0  2  0  0  0  0  0  0  0  0  0
   -8.8340    6.9349   12.9663 N   0  3  0  0  0  0  0  0  0  0  0  0
   -7.6527    5.6424   14.7490 C   0  0  1  0  0  0  0  0  0  0  0  0
   -8.6264    5.9167   15.6529 O   0  0  0  0  0  0  0  0  0  0  0  0
   -7.0106    4.2438   15.0303 C   0  0  2  0  0  0  0  0  0  0  0  0
   -6.4812    4.2018   16.3720 O   0  0  0  0  0  0  0  0  0  0  0  0
   -5.8863    3.9949   13.9682 C   0  0  2  0  0  0  0  0  0  0  0  0
   -6.4499    4.0496   12.6012 O   0  0  0  0  0  0  0  0  0  0  0  0
   -5.1719    2.6448   14.0972 C   0  0  2  0  0  0  0  0  0  0  0  0
   -4.1892    2.7267   15.0774 O   0  0  0  0  0  0  0  0  0  0  0  0
   -4.4586    2.1989   12.8077 C   0  0  0  0  0  0  0  0  0  0  0  0
   -2.4514    4.3445   11.5993 C   0  0  2  0  0  0  0  0  0  0  0  0
   -1.0369    4.1072   11.2143 N   0  3  0  0  0  0  0  0  0  0  0  0
   -3.2848    4.8157   10.3707 C   0  0  0  0  0  0  0  0  0  0  0  0
   -4.7753    5.0816   10.7924 C   0  0  2  0  0  0  0  0  0  0  0  0
   -5.5582    5.5267    9.5818 N   0  3  0  0  0  0  0  0  0  0  0  0
   -4.8076    6.1576   11.9315 C   0  0  2  0  0  0  0  0  0  0  0  0
   -3.9790    5.6570   13.1398 C   0  0  2  0  0  0  0  0  0  0  0  0
   -3.9871    6.6449   14.1418 O   0  0  0  0  0  0  0  0  0  0  0  0
   -2.5072    5.4145   12.7104 C   0  0  1  0  0  0  0  0  0  0  0  0
   -1.7664    4.9589   13.8330 O   0  0  0  0  0  0  0  0  0  0  0  0
   -1.5181    5.8538   14.8819 C   0  0  2  0  0  0  0  0  0  0  0  0
   -0.3563    6.7663   14.4454 C   0  0  2  0  0  0  0  0  0  0  0  0
   -0.7432    7.4840   13.2931 O   0  0  0  0  0  0  0  0  0  0  0  0
    0.9066    5.8856   14.1552 C   0  0  1  0  0  0  0  0  0  0  0  0
    2.0665    6.6896   13.6985 N   0  3  0  0  0  0  0  0  0  0  0  0
    1.9685    6.9776   12.2448 C   0  0  0  0  0  0  0  0  0  0  0  0
    1.2857    5.0867   15.4494 C   0  0  2  0  0  0  0  0  0  0  0  0
    1.5826    6.0020   16.5207 O   0  0  0  0  0  0  0  0  0  0  0  0
    2.4556    4.2505   15.2514 C   0  0  0  0  0  0  0  0  0  0  0  0
    0.0692    4.2363   15.9291 C   0  0  0  0  0  0  0  0  0  0  0  0
   -1.1458    5.1001   16.0914 O   0  0  0  0  0  0  0  0  0  0  0  0
  1  2  1  1  0  0  0
  1  3  1  0  0  0  0
  1 10  1  0  0  0  0
  3  4  1  6  0  0  0
  3  5  1  0  0  0  0
  5  6  1  1  0  0  0
  5  7  1  0  0  0  0
  7  8  1  1  0  0  0
  7  9  1  0  0  0  0
  9 10  1  6  0  0  0
  9 11  1  0  0  0  0
 11 12  1  1  0  0  0
 11 13  1  0  0  0  0
 14 15  1  6  0  0  0
 14 16  1  0  0  0  0
 14 22  1  0  0  0  0
 16 17  1  0  0  0  0
 17 18  1  6  0  0  0
 17 19  1  0  0  0  0
 19  2  1  1  0  0  0
 19 20  1  0  0  0  0
 20 21  1  1  0  0  0
 20 22  1  0  0  0  0
 22 23  1  1  0  0  0
 24 23  1  6  0  0  0
 24 25  1  0  0  0  0
 24 34  1  0  0  0  0
 25 26  1  6  0  0  0
 25 27  1  0  0  0  0
 27 28  1  1  0  0  0
 27 30  1  0  0  0  0
 28 29  1  0  0  0  0
 30 31  1  1  0  0  0
 30 32  1  0  0  0  0
 30 33  1  0  0  0  0
 33 34  1  0  0  0  0
M  CHG  4   4   1  15   1  18   1  28   1
M  END
>  <CHROM.1>
155.43188610,31.95451870,-32.97796425,64.15396028,-33.58342649,-81.89286014
-170.09388974,-52.24700597,-173.03007113,-55.90503547,170.68902087,-78.67801636
-72.27485903,37.76340682,67.67969670,-3.35094029,5.22250826,13.61416398,-3.02652668
0.08195958,1.74091114

>  <Name>
1mwl

>  <RI>
0

>  <Rbt.Current_Directory>
/home/itssahil/PROJECTS/Mol_Feturizer/New_Systems/rnas/1mwl

>  <Rbt.Executable>
rbdock ($Id: //depot/dev/client3/rdock/2013.1/src/exe/rbdock.cxx#4 $)

>  <Rbt.Library>
libRbt.so (2013.1, Build901 2013/11/27)

>  <Rbt.Parameter_File>
/export/apps/rDock/src/rDock_2013.1_src/data/scripts/dock_solv.prm

>  <Rbt.Receptor>
prm/blind_docking_20.prm

>  <SCORE>
-6.13748

>  <SCORE.INTER>
-23.4693

>  <SCORE.INTER.CONST>
1

>  <SCORE.INTER.POLAR>
-4.06074

>  <SCORE.INTER.ROT>
6

>  <SCORE.INTER.SOLV>
23.2237

>  <SCORE.INTER.VDW>
-17.4516

>  <SCORE.INTER.norm>
-0.690273

>  <SCORE.INTRA>
-7.71718

>  <SCORE.INTRA.DIHEDRAL>
-25.1091

>  <SCORE.INTRA.DIHEDRAL.0>
42.0816

>  <SCORE.INTRA.POLAR>
0.151167

>  <SCORE.INTRA.POLAR.0>
-0.254682

>  <SCORE.INTRA.REPUL>
0

>  <SCORE.INTRA.REPUL.0>
0

>  <SCORE.INTRA.SOLV>
-0.19871

>  <SCORE.INTRA.SOLV.lig_0>
-109.803

>  <SCORE.INTRA.VDW>
4.42278

>  <SCORE.INTRA.VDW.0>
0.32176

>  <SCORE.INTRA.norm>
-0.226976

>  <SCORE.RESTR>
25.049

>  <SCORE.RESTR.CAVITY>
25.049

>  <SCORE.RESTR.norm>
0.736734

>  <SCORE.SYSTEM>
0

>  <SCORE.SYSTEM.CONST>
0

>  <SCORE.SYSTEM.DIHEDRAL>
0

>  <SCORE.SYSTEM.SOLV>
0

>  <SCORE.SYSTEM.norm>
0

>  <SCORE.heavy>
34

>  <SCORE.norm>
-0.180514

>  <RMSD>
12.262

$$$$
1mwl
 OpenBabel11021811403D
libRbt.so/2013.1/901 2013/11/27
 34 36  0  0  0  0  0  0  0  0999 V2000
   -7.0448    3.8616   13.6295 C   0  0  2  0  0  0  0  0  0  0  0  0
   -5.8132    4.4005   14.0054 O   0  0  0  0  0  0  0  0  0  0  0  0
   -7.6979    4.8506   12.6233 C   0  0  2  0  0  0  0  0  0  0  0  0
   -6.8251    5.0381   11.4604 N   0  3  0  0  0  0  0  0  0  0  0  0
   -8.0213    6.2059   13.3176 C   0  0  1  0  0  0  0  0  0  0  0  0
   -8.6150    7.0654   12.4522 O   0  0  0  0  0  0  0  0  0  0  0  0
   -8.9465    5.9279   14.5481 C   0  0  2  0  0  0  0  0  0  0  0  0
   -9.2753    7.1665   15.2114 O   0  0  0  0  0  0  0  0  0  0  0  0
   -8.1999    4.9469   15.5146 C   0  0  2  0  0  0  0  0  0  0  0  0
   -7.8667    3.6880   14.8120 O   0  0  0  0  0  0  0  0  0  0  0  0
   -8.9923    4.5565   16.7675 C   0  0  2  0  0  0  0  0  0  0  0  0
   -8.1550    4.5795   17.8773 O   0  0  0  0  0  0  0  0  0  0  0  0
   -9.5857    3.1372   16.7044 C   0  0  0  0  0  0  0  0  0  0  0  0
   -1.7304    3.2596   13.4684 C   0  0  2  0  0  0  0  0  0  0  0  0
   -0.4370    2.9359   12.8143 N   0  3  0  0  0  0  0  0  0  0  0  0
   -2.8398    2.2635   13.0179 C   0  0  0  0  0  0  0  0  0  0  0  0
   -4.2080    2.6257   13.7011 C   0  0  2  0  0  0  0  0  0  0  0  0
   -5.2588    1.6397   13.2536 N   0  3  0  0  0  0  0  0  0  0  0  0
   -4.5988    4.0976   13.3306 C   0  0  2  0  0  0  0  0  0  0  0  0
   -3.4823    5.0627   13.7983 C   0  0  2  0  0  0  0  0  0  0  0  0
   -3.8281    6.3761   13.4303 O   0  0  0  0  0  0  0  0  0  0  0  0
   -2.1424    4.7015   13.1029 C   0  0  1  0  0  0  0  0  0  0  0  0
   -1.1348    5.5997   13.5440 O   0  0  0  0  0  0  0  0  0  0  0  0
   -1.1967    6.0866   14.8561 C   0  0  2  0  0  0  0  0  0  0  0  0
    0.0636    6.9404   15.0920 C   0  0  2  0  0  0  0  0  0  0  0  0
    0.0623    8.0224   14.1855 O   0  0  0  0  0  0  0  0  0  0  0  0
    1.3342    6.0461   14.8902 C   0  0  1  0  0  0  0  0  0  0  0  0
    2.5963    6.8040   15.0712 N   0  3  0  0  0  0  0  0  0  0  0  0
    3.6249    6.3549   14.0985 C   0  0  0  0  0  0  0  0  0  0  0  0
    1.2829    4.8444   15.8953 C   0  0  2  0  0  0  0  0  0  0  0  0
    1.2610    5.3377   17.2479 O   0  0  0  0  0  0  0  0  0  0  0  0
    2.4379    3.9747   15.7653 C   0  0  0  0  0  0  0  0  0  0  0  0
   -0.0412    4.0424   15.7036 C   0  0  0  0  0  0  0  0  0  0  0  0
   -1.2276    4.9546   15.7980 O   0  0  0  0  0  0  0  0  0  0  0  0
  1  2  1  1  0  0  0
  1  3  1  0  0  0  0
  1 10  1  0  0  0  0
  3  4  1  6  0  0  0
  3  5  1  0  0  0  0
  5  6  1  6  0  0  0
  5  7  1  0  0  0  0
  7  8  1  1  0  0  0
  7  9  1  0  0  0  0
  9 10  1  6  0  0  0
  9 11  1  0  0  0  0
 11 12  1  1  0  0  0
 11 13  1  0  0  0  0
 14 15  1  6  0  0  0
 14 16  1  0  0  0  0
 14 22  1  0  0  0  0
 16 17  1  0  0  0  0
 17 18  1  6  0  0  0
 17 19  1  0  0  0  0
 19  2  1  1  0  0  0
 19 20  1  0  0  0  0
 20 21  1  6  0  0  0
 20 22  1  0  0  0  0
 22 23  1  1  0  0  0
 24 23  1  6  0  0  0
 24 25  1  0  0  0  0
 24 34  1  0  0  0  0
 25 26  1  6  0  0  0
 25 27  1  0  0  0  0
 27 28  1  1  0  0  0
 27 30  1  0  0  0  0
 28 29  1  0  0  0  0
 30 31  1  1  0  0  0
 30 32  1  0  0  0  0
 30 33  1  0  0  0  0
 33 34  1  0  0  0  0
M  CHG  4   4   1  15   1  18   1  28   1
M  END
>  <CHROM.1>
-91.75164721,-72.37597120,176.15192838,-51.55870760,142.44306061,-137.27208941
178.23758139,-53.14188940,-74.55445127,67.62713356,-87.06384415,175.72540734
-50.49667918,-22.23559465,-58.79897839,-3.66841115,4.94750298,14.43891666
-3.07220432,0.01023962,0.66918598

>  <Name>
1mwl

>  <RI>
0

>  <Rbt.Current_Directory>
/home/itssahil/PROJECTS/Mol_Feturizer/New_Systems/rnas/1mwl

>  <Rbt.Executable>
rbdock ($Id: //depot/dev/client3/rdock/2013.1/src/exe/rbdock.cxx#4 $)

>  <Rbt.Library>
libRbt.so (2013.1, Build901 2013/11/27)

>  <Rbt.Parameter_File>
/export/apps/rDock/src/rDock_2013.1_src/data/scripts/dock_solv.prm

>  <Rbt.Receptor>
prm/blind_docking_20.prm

>  <SCORE>
14.1741

>  <SCORE.INTER>
-6.70307

>  <SCORE.INTER.CONST>
1

>  <SCORE.INTER.POLAR>
-5.98155

>  <SCORE.INTER.ROT>
6

>  <SCORE.INTER.SOLV>
24.0878

>  <SCORE.INTER.VDW>
-0.159482

>  <SCORE.INTER.norm>
-0.197149

>  <SCORE.INTRA>
-4.67255

>  <SCORE.INTRA.DIHEDRAL>
-20.5848

>  <SCORE.INTRA.DIHEDRAL.0>
42.0816

>  <SCORE.INTRA.POLAR>
0.214714

>  <SCORE.INTRA.POLAR.0>
-0.254682

>  <SCORE.INTRA.REPUL>
0

>  <SCORE.INTRA.REPUL.0>
0

>  <SCORE.INTRA.SOLV>
2.01929

>  <SCORE.INTRA.SOLV.lig_0>
-109.803

>  <SCORE.INTRA.VDW>
3.88016

>  <SCORE.INTRA.VDW.0>
0.32176

>  <SCORE.INTRA.norm>
-0.137428

>  <SCORE.RESTR>
25.5497

>  <SCORE.RESTR.CAVITY>
25.5497

>  <SCORE.RESTR.norm>
0.751463

>  <SCORE.SYSTEM>
0

>  <SCORE.SYSTEM.CONST>
0

>  <SCORE.SYSTEM.DIHEDRAL>
0

>  <SCORE.SYSTEM.SOLV>
0

>  <SCORE.SYSTEM.norm>
0

>  <SCORE.heavy>
34

>  <SCORE.norm>
0.416886

>  <RMSD>
12.293

$$$$
1mwl
 OpenBabel11021811403D
libRbt.so/2013.1/901 2013/11/27
 34 36  0  0  0  0  0  0  0  0999 V2000
   -6.0962    5.2999   15.3638 C   0  0  2  0  0  0  0  0  0  0  0  0
   -5.6535    4.0409   14.9544 O   0  0  0  0  0  0  0  0  0  0  0  0
   -7.6174    5.1838   15.6629 C   0  0  2  0  0  0  0  0  0  0  0  0
   -7.8526    4.1763   16.7017 N   0  3  0  0  0  0  0  0  0  0  0  0
   -8.4088    4.8572   14.3627 C   0  0  1  0  0  0  0  0  0  0  0  0
   -9.7402    4.7796   14.6111 O   0  0  0  0  0  0  0  0  0  0  0  0
   -8.1046    5.9659   13.3017 C   0  0  2  0  0  0  0  0  0  0  0  0
   -8.8315    5.6997   12.0838 O   0  0  0  0  0  0  0  0  0  0  0  0
   -6.5593    5.9932   13.0463 C   0  0  2  0  0  0  0  0  0  0  0  0
   -5.8348    6.2601   14.3085 O   0  0  0  0  0  0  0  0  0  0  0  0
   -6.0959    7.0518   12.0391 C   0  0  2  0  0  0  0  0  0  0  0  0
   -4.9234    6.6299   11.4222 O   0  0  0  0  0  0  0  0  0  0  0  0
   -5.7794    8.4156   12.6797 C   0  0  0  0  0  0  0  0  0  0  0  0
   -2.1545    2.8046   12.8358 C   0  0  2  0  0  0  0  0  0  0  0  0
   -1.1851    2.5850   11.7325 N   0  3  0  0  0  0  0  0  0  0  0  0
   -3.4914    2.0579   12.5510 C   0  0  0  0  0  0  0  0  0  0  0  0
   -4.5164    2.3117   13.7150 C   0  0  2  0  0  0  0  0  0  0  0  0
   -5.7956    1.5695   13.4159 N   0  3  0  0  0  0  0  0  0  0  0  0
   -4.7613    3.8526   13.8634 C   0  0  2  0  0  0  0  0  0  0  0  0
   -3.4174    4.5644   14.1540 C   0  0  2  0  0  0  0  0  0  0  0  0
   -3.6444    5.9497   14.2513 O   0  0  0  0  0  0  0  0  0  0  0  0
   -2.4226    4.3171   12.9885 C   0  0  1  0  0  0  0  0  0  0  0  0
   -1.1999    4.9800   13.2748 O   0  0  0  0  0  0  0  0  0  0  0  0
   -1.2394    6.1798   13.9970 C   0  0  2  0  0  0  0  0  0  0  0  0
    0.1421    6.8472   13.8600 C   0  0  2  0  0  0  0  0  0  0  0  0
    0.3864    7.1234   12.4974 O   0  0  0  0  0  0  0  0  0  0  0  0
    1.2359    5.8859   14.4383 C   0  0  1  0  0  0  0  0  0  0  0  0
    2.6044    6.4448   14.3166 N   0  3  0  0  0  0  0  0  0  0  0  0
    3.2511    5.9866   13.0604 C   0  0  0  0  0  0  0  0  0  0  0  0
    0.9130    5.5841   15.9422 C   0  0  2  0  0  0  0  0  0  0  0  0
    0.9117    6.8095   16.6984 O   0  0  0  0  0  0  0  0  0  0  0  0
    1.8941    4.6995   16.5440 C   0  0  0  0  0  0  0  0  0  0  0  0
   -0.5239    4.9915   16.0727 C   0  0  0  0  0  0  0  0  0  0  0  0
   -1.5263    5.8905   15.4125 O   0  0  0  0  0  0  0  0  0  0  0  0
  1  2  1  6  0  0  0
  1  3  1  0  0  0  0
  1 10  1  0  0  0  0
  3  4  1  1  0  0  0
  3  5  1  0  0  0  0
  5  6  1  1  0  0  0
  5  7  1  0  0  0  0
  7  8  1  6  0  0  0
  7  9  1  0  0  0  0
  9 10  1  1  0  0  0
  9 11  1  0  0  0  0
 11 12  1  1  0  0  0
 11 13  1  0  0  0  0
 14 15  1  6  0  0  0
 14 16  1  0  0  0  0
 14 22  1  0  0  0  0
 16 17  1  0  0  0  0
 17 18  1  6  0  0  0
 17 19  1  0  0  0  0
 19  2  1  1  0  0  0
 19 20  1  0  0  0  0
 20 21  1  6  0  0  0
 20 22  1  0  0  0  0
 22 23  1  1  0  0  0
 24 23  1  6  0  0  0
 24 25  1  0  0  0  0
 24 34  1  0  0  0  0
 25 26  1  6  0  0  0
 25 27  1  0  0  0  0
 27 28  1  1  0  0  0
 27 30  1  0  0  0  0
 28 29  1  0  0  0  0
 30 31  1  1  0  0  0
 30 32  1  0  0  0  0
 30 33  1  0  0  0  0
 33 34  1  0  0  0  0
M  CHG  4   4   1  15   1  18   1  28   1
M  END
>  <CHROM.1>
137.34480585,-179.58181231,-80.62910907,64.35965571,-175.36088703,-152.40324133
72.81662841,-176.26446006,-58.32761141,-70.94357491,-152.87024094,-166.14180259
69.36653353,26.99707471,-79.22890662,-3.42398937,5.18113618,13.99236542,3.06302904
0.06928762,3.06585197

>  <Name>
1mwl

>  <RI>
0

>  <Rbt.Current_Directory>
/home/itssahil/PROJECTS/Mol_Feturizer/New_Systems/rnas/1mwl

>  <Rbt.Executable>
rbdock ($Id: //depot/dev/client3/rdock/2013.1/src/exe/rbdock.cxx#4 $)

>  <Rbt.Library>
libRbt.so (2013.1, Build901 2013/11/27)

>  <Rbt.Parameter_File>
/export/apps/rDock/src/rDock_2013.1_src/data/scripts/dock_solv.prm

>  <Rbt.Receptor>
prm/blind_docking_20.prm

>  <SCORE>
-16.7996

>  <SCORE.INTER>
-33.2697

>  <SCORE.INTER.CONST>
1

>  <SCORE.INTER.POLAR>
-5.89621

>  <SCORE.INTER.ROT>
6

>  <SCORE.INTER.SOLV>
19.9049

>  <SCORE.INTER.VDW>
-16.7607

>  <SCORE.INTER.norm>
-0.97852

>  <SCORE.INTRA>
-5.31758

>  <SCORE.INTRA.DIHEDRAL>
-23.2967

>  <SCORE.INTRA.DIHEDRAL.0>
42.0816

>  <SCORE.INTRA.POLAR>
-0.568313

>  <SCORE.INTRA.POLAR.0>
-0.254682

>  <SCORE.INTRA.REPUL>
0

>  <SCORE.INTRA.REPUL.0>
0

>  <SCORE.INTRA.SOLV>
-2.64477

>  <SCORE.INTRA.SOLV.lig_0>
-109.803

>  <SCORE.INTRA.VDW>
9.58544

>  <SCORE.INTRA.VDW.0>
0.32176

>  <SCORE.INTRA.norm>
-0.156399

>  <SCORE.RESTR>
21.7877

>  <SCORE.RESTR.CAVITY>
21.7877

>  <SCORE.RESTR.norm>
0.640814

>  <SCORE.SYSTEM>
0

>  <SCORE.SYSTEM.CONST>
0

>  <SCORE.SYSTEM.DIHEDRAL>
0

>  <SCORE.SYSTEM.SOLV>
0

>  <SCORE.SYSTEM.norm>
0

>  <SCORE.heavy>
34

>  <SCORE.norm>
-0.494106

>  <RMSD>
12.295

$$$$
1mwl
 OpenBabel11021811403D
libRbt.so/2013.1/901 2013/11/27
 34 36  0  0  0  0  0  0  0  0999 V2000
   -6.1631    5.3925   15.3318 C   0  0  2  0  0  0  0  0  0  0  0  0
   -5.8235    4.1105   14.8960 O   0  0  0  0  0  0  0  0  0  0  0  0
   -7.6631    5.3634   15.7394 C   0  0  2  0  0  0  0  0  0  0  0  0
   -7.8806    4.3703   16.7957 N   0  3  0  0  0  0  0  0  0  0  0  0
   -8.5630    5.0837   14.5002 C   0  0  1  0  0  0  0  0  0  0  0  0
   -9.8753    5.0823   14.8434 O   0  0  0  0  0  0  0  0  0  0  0  0
   -8.2726    6.1740   13.4164 C   0  0  2  0  0  0  0  0  0  0  0  0
   -9.0988    5.9508   12.2546 O   0  0  0  0  0  0  0  0  0  0  0  0
   -6.7505    6.1130   13.0511 C   0  0  2  0  0  0  0  0  0  0  0  0
   -5.9234    6.3370   14.2574 O   0  0  0  0  0  0  0  0  0  0  0  0
   -6.3006    7.1441   12.0099 C   0  0  2  0  0  0  0  0  0  0  0  0
   -5.2998    6.5992   11.2132 O   0  0  0  0  0  0  0  0  0  0  0  0
   -5.7111    8.4260   12.6262 C   0  0  0  0  0  0  0  0  0  0  0  0
   -2.3133    2.6600   12.9380 C   0  0  2  0  0  0  0  0  0  0  0  0
   -1.3067    2.3851   11.8813 N   0  3  0  0  0  0  0  0  0  0  0  0
   -3.6810    2.0071   12.5790 C   0  0  0  0  0  0  0  0  0  0  0  0
   -4.7437    2.3193   13.6940 C   0  0  2  0  0  0  0  0  0  0  0  0
   -6.0530    1.6672   13.3236 N   0  3  0  0  0  0  0  0  0  0  0  0
   -4.8925    3.8719   13.8482 C   0  0  2  0  0  0  0  0  0  0  0  0
   -3.5204    4.4894   14.2130 C   0  0  2  0  0  0  0  0  0  0  0  0
   -3.6591    5.8860   14.3152 O   0  0  0  0  0  0  0  0  0  0  0  0
   -2.4873    4.1857   13.0951 C   0  0  1  0  0  0  0  0  0  0  0  0
   -1.2389    4.7626   13.4490 O   0  0  0  0  0  0  0  0  0  0  0  0
   -1.2024    5.6966   14.4926 C   0  0  2  0  0  0  0  0  0  0  0  0
    0.1077    6.4948   14.3525 C   0  0  2  0  0  0  0  0  0  0  0  0
    0.1042    7.1705   13.1131 O   0  0  0  0  0  0  0  0  0  0  0  0
    1.3217    5.5087   14.4460 C   0  0  1  0  0  0  0  0  0  0  0  0
    2.6259    6.1978   14.2900 N   0  3  0  0  0  0  0  0  0  0  0  0
    2.8886    7.0961   15.4433 C   0  0  0  0  0  0  0  0  0  0  0  0
    1.2729    4.7611   15.8228 C   0  0  2  0  0  0  0  0  0  0  0  0
    1.3519    5.7131   16.9002 O   0  0  0  0  0  0  0  0  0  0  0  0
    2.3770    3.8315   15.9783 C   0  0  0  0  0  0  0  0  0  0  0  0
   -0.0958    4.0312   15.9874 C   0  0  0  0  0  0  0  0  0  0  0  0
   -1.2313    4.9894   15.7843 O   0  0  0  0  0  0  0  0  0  0  0  0
  1  2  1  6  0  0  0
  1  3  1  0  0  0  0
  1 10  1  0  0  0  0
  3  4  1  1  0  0  0
  3  5  1  0  0  0  0
  5  6  1  1  0  0  0
  5  7  1  0  0  0  0
  7  8  1  6  0  0  0
  7  9  1  0  0  0  0
  9 10  1  1  0  0  0
  9 11  1  0  0  0  0
 11 12  1  6  0  0  0
 11 13  1  0  0  0  0
 14 15  1  6  0  0  0
 14 16  1  0  0  0  0
 14 22  1  0  0  0  0
 16 17  1  0  0  0  0
 17 18  1  6  0  0  0
 17 19  1  0  0  0  0
 19  2  1  1  0  0  0
 19 20  1  0  0  0  0
 20 21  1  6  0  0  0
 20 22  1  0  0  0  0
 22 23  1  1  0  0  0
 24 23  1  6  0  0  0
 24 25  1  0  0  0  0
 24 34  1  0  0  0  0
 25 26  1  6  0  0  0
 25 27  1  0  0  0  0
 27 28  1  1  0  0  0
 27 30  1  0  0  0  0
 28 29  1  0  0  0  0
 30 31  1  1  0  0  0
 30 32  1  0  0  0  0
 30 33  1  0  0  0  0
 33 34  1  0  0  0  0
M  CHG  4   4   1  15   1  18   1  28   1
M  END
>  <CHROM.1>
145.38249656,177.91942690,166.78036027,-52.67771914,-165.22364261,-145.80101698
-78.29973206,-55.63159693,63.28625219,-35.08164377,-133.87201755,-161.02701027
173.27356808,-172.67338254,-96.62616422,-3.46966786,5.06439047,14.13564985
-3.13984610,0.11567512,3.02257244

>  <Name>
1mwl

>  <RI>
0

>  <Rbt.Current_Directory>
/home/itssahil/PROJECTS/Mol_Feturizer/New_Systems/rnas/1mwl

>  <Rbt.Executable>
rbdock ($Id: //depot/dev/client3/rdock/2013.1/src/exe/rbdock.cxx#4 $)

>  <Rbt.Library>
libRbt.so (2013.1, Build901 2013/11/27)

>  <Rbt.Parameter_File>
/export/apps/rDock/src/rDock_2013.1_src/data/scripts/dock_solv.prm

>  <Rbt.Receptor>
prm/blind_docking_20.prm

>  <SCORE>
-0.642575

>  <SCORE.INTER>
-30.8318

>  <SCORE.INTER.CONST>
1

>  <SCORE.INTER.POLAR>
-5.96395

>  <SCORE.INTER.ROT>
6

>  <SCORE.INTER.SOLV>
17.6853

>  <SCORE.INTER.VDW>
-14.1698

>  <SCORE.INTER.norm>
-0.906817

>  <SCORE.INTRA>
8.91726

>  <SCORE.INTRA.DIHEDRAL>
-15.3695

>  <SCORE.INTRA.DIHEDRAL.0>
42.0816

>  <SCORE.INTRA.POLAR>
0.00113951

>  <SCORE.INTRA.POLAR.0>
-0.254682

>  <SCORE.INTRA.REPUL>
0.00835203

>  <SCORE.INTRA.REPUL.0>
0

>  <SCORE.INTRA.SOLV>
-4.27117

>  <SCORE.INTRA.SOLV.lig_0>
-109.803

>  <SCORE.INTRA.VDW>
18.692

>  <SCORE.INTRA.VDW.0>
0.32176

>  <SCORE.INTRA.norm>
0.262272

>  <SCORE.RESTR>
21.2719

>  <SCORE.RESTR.CAVITY>
21.2719

>  <SCORE.RESTR.norm>
0.625645

>  <SCORE.SYSTEM>
0

>  <SCORE.SYSTEM.CONST>
0

>  <SCORE.SYSTEM.DIHEDRAL>
0

>  <SCORE.SYSTEM.SOLV>
0

>  <SCORE.SYSTEM.norm>
0

>  <SCORE.heavy>
34

>  <SCORE.norm>
-0.0188993

>  <RMSD>
12.316

$$$$
1mwl
 OpenBabel11021811403D
libRbt.so/2013.1/901 2013/11/27
 34 36  0  0  0  0  0  0  0  0999 V2000
   -6.5914    5.2941   12.4409 C   0  0  2  0  0  0  0  0  0  0  0  0
   -5.7547    6.3920   12.6490 O   0  0  0  0  0  0  0  0  0  0  0  0
   -7.9703    5.6333   13.0739 C   0  0  2  0  0  0  0  0  0  0  0  0
   -8.5237    6.8445   12.4605 N   0  3  0  0  0  0  0  0  0  0  0  0
   -7.8429    5.7837   14.6181 C   0  0  1  0  0  0  0  0  0  0  0  0
   -9.0473    6.0545   15.1807 O   0  0  0  0  0  0  0  0  0  0  0  0
   -7.2416    4.4619   15.2003 C   0  0  2  0  0  0  0  0  0  0  0  0
   -7.1185    4.5625   16.6345 O   0  0  0  0  0  0  0  0  0  0  0  0
   -5.8490    4.2152   14.5267 C   0  0  2  0  0  0  0  0  0  0  0  0
   -5.9983    4.1228   13.0575 O   0  0  0  0  0  0  0  0  0  0  0  0
   -5.1372    2.9352   14.9792 C   0  0  2  0  0  0  0  0  0  0  0  0
   -3.7919    3.0004   14.6339 O   0  0  0  0  0  0  0  0  0  0  0  0
   -5.6896    1.6572   14.3221 C   0  0  0  0  0  0  0  0  0  0  0  0
   -1.8916    4.8379   11.6895 C   0  0  2  0  0  0  0  0  0  0  0  0
   -0.4508    4.7769   11.3346 N   0  3  0  0  0  0  0  0  0  0  0  0
   -2.7079    5.5336   10.5601 C   0  0  0  0  0  0  0  0  0  0  0  0
   -4.2277    5.6096   10.9534 C   0  0  2  0  0  0  0  0  0  0  0  0
   -4.9926    6.2787    9.8381 N   0  3  0  0  0  0  0  0  0  0  0  0
   -4.3749    6.3879   12.3057 C   0  0  2  0  0  0  0  0  0  0  0  0
   -3.5606    5.6680   13.4083 C   0  0  2  0  0  0  0  0  0  0  0  0
   -3.6727    6.3941   14.6085 O   0  0  0  0  0  0  0  0  0  0  0  0
   -2.0608    5.6155   13.0121 C   0  0  1  0  0  0  0  0  0  0  0  0
   -1.3338    4.9543   14.0372 O   0  0  0  0  0  0  0  0  0  0  0  0
   -1.2848    5.5385   15.3096 C   0  0  2  0  0  0  0  0  0  0  0  0
   -0.1196    6.5461   15.3107 C   0  0  2  0  0  0  0  0  0  0  0  0
   -0.3719    7.5420   14.3426 O   0  0  0  0  0  0  0  0  0  0  0  0
    1.2147    5.7879   14.9952 C   0  0  1  0  0  0  0  0  0  0  0  0
    2.3863    6.6963   14.9484 N   0  3  0  0  0  0  0  0  0  0  0  0
    3.3739    6.2310   13.9413 C   0  0  0  0  0  0  0  0  0  0  0  0
    1.4428    4.6758   16.0761 C   0  0  2  0  0  0  0  0  0  0  0  0
    1.5356    5.2741   17.3825 O   0  0  0  0  0  0  0  0  0  0  0  0
    2.6697    3.9347   15.8459 C   0  0  0  0  0  0  0  0  0  0  0  0
    0.2143    3.7158   16.1240 C   0  0  0  0  0  0  0  0  0  0  0  0
   -1.0534    4.4925   16.3205 O   0  0  0  0  0  0  0  0  0  0  0  0
  1  2  1  1  0  0  0
  1  3  1  0  0  0  0
  1 10  1  0  0  0  0
  3  4  1  6  0  0  0
  3  5  1  0  0  0  0
  5  6  1  1  0  0  0
  5  7  1  0  0  0  0
  7  8  1  1  0  0  0
  7  9  1  0  0  0  0
  9 10  1  6  0  0  0
  9 11  1  0  0  0  0
 11 12  1  6  0  0  0
 11 13  1  0  0  0  0
 14 15  1  6  0  0  0
 14 16  1  0  0  0  0
 14 22  1  0  0  0  0
 16 17  1  0  0  0  0
 17 18  1  6  0  0  0
 17 19  1  0  0  0  0
 19  2  1  1  0  0  0
 19 20  1  0  0  0  0
 20 21  1  1  0  0  0
 20 22  1  0  0  0  0
 22 23  1  1  0  0  0
 24 23  1  6  0  0  0
 24 25  1  0  0  0  0
 24 34  1  0  0  0  0
 25 26  1  6  0  0  0
 25 27  1  0  0  0  0
 27 28  1  1  0  0  0
 27 30  1  0  0  0  0
 28 29  1  0  0  0  0
 30 31  1  1  0  0  0
 30 32  1  0  0  0  0
 30 33  1  0  0  0  0
 33 34  1  0  0  0  0
M  CHG  4   4   1  15   1  18   1  28   1
M  END
>  <CHROM.1>
174.24838458,38.50924004,-59.36690084,-171.06164419,-63.26336013,-163.16295674
179.98650309,-58.73975110,139.22847785,-55.01153467,176.21642928,-85.84873017
-74.59969282,-26.30038096,57.76667253,-3.11715726,5.24287089,14.01353361
-2.97435396,0.07879647,1.92426065

>  <Name>
1mwl

>  <RI>
0

>  <Rbt.Current_Directory>
/home/itssahil/PROJECTS/Mol_Feturizer/New_Systems/rnas/1mwl

>  <Rbt.Executable>
rbdock ($Id: //depot/dev/client3/rdock/2013.1/src/exe/rbdock.cxx#4 $)

>  <Rbt.Library>
libRbt.so (2013.1, Build901 2013/11/27)

>  <Rbt.Parameter_File>
/export/apps/rDock/src/rDock_2013.1_src/data/scripts/dock_solv.prm

>  <Rbt.Receptor>
prm/blind_docking_20.prm

>  <SCORE>
-3.70424

>  <SCORE.INTER>
-11.013

>  <SCORE.INTER.CONST>
1

>  <SCORE.INTER.POLAR>
-4.80591

>  <SCORE.INTER.ROT>
6

>  <SCORE.INTER.SOLV>
27.7967

>  <SCORE.INTER.VDW>
-8.1879

>  <SCORE.INTER.norm>
-0.323913

>  <SCORE.INTRA>
-14.6198

>  <SCORE.INTRA.DIHEDRAL>
-29.4103

>  <SCORE.INTRA.DIHEDRAL.0>
42.0816

>  <SCORE.INTRA.POLAR>
0.253973

>  <SCORE.INTRA.POLAR.0>
-0.254682

>  <SCORE.INTRA.REPUL>
0

>  <SCORE.INTRA.REPUL.0>
0

>  <SCORE.INTRA.SOLV>
-1.22111

>  <SCORE.INTRA.SOLV.lig_0>
-109.803

>  <SCORE.INTRA.VDW>
-0.167567

>  <SCORE.INTRA.VDW.0>
0.32176

>  <SCORE.INTRA.norm>
-0.429993

>  <SCORE.RESTR>
21.9286

>  <SCORE.RESTR.CAVITY>
21.9286

>  <SCORE.RESTR.norm>
0.644957

>  <SCORE.SYSTEM>
0

>  <SCORE.SYSTEM.CONST>
0

>  <SCORE.SYSTEM.DIHEDRAL>
0

>  <SCORE.SYSTEM.SOLV>
0

>  <SCORE.SYSTEM.norm>
0

>  <SCORE.heavy>
34

>  <SCORE.norm>
-0.108948

>  <RMSD>
12.395

$$$$
1mwl
 OpenBabel11021811403D
libRbt.so/2013.1/901 2013/11/27
 34 36  0  0  0  0  0  0  0  0999 V2000
   -6.3457   -8.1863   17.5754 C   0  0  2  0  0  0  0  0  0  0  0  0
   -5.2943   -9.1046   17.5695 O   0  0  0  0  0  0  0  0  0  0  0  0
   -5.7274   -6.7699   17.4068 C   0  0  2  0  0  0  0  0  0  0  0  0
   -4.9670   -6.6961   16.1555 N   0  3  0  0  0  0  0  0  0  0  0  0
   -4.8410   -6.4086   18.6345 C   0  0  1  0  0  0  0  0  0  0  0  0
   -4.3183   -5.1633   18.5065 O   0  0  0  0  0  0  0  0  0  0  0  0
   -5.7134   -6.5154   19.9287 C   0  0  2  0  0  0  0  0  0  0  0  0
   -4.9242   -6.1767   21.0883 O   0  0  0  0  0  0  0  0  0  0  0  0
   -6.2711   -7.9759   20.0281 C   0  0  2  0  0  0  0  0  0  0  0  0
   -7.0701   -8.3036   18.8266 O   0  0  0  0  0  0  0  0  0  0  0  0
   -7.1717   -8.2357   21.2411 C   0  0  2  0  0  0  0  0  0  0  0  0
   -8.3203   -7.4578   21.1468 O   0  0  0  0  0  0  0  0  0  0  0  0
   -6.5148   -7.8733   22.5856 C   0  0  0  0  0  0  0  0  0  0  0  0
   -3.8287  -11.6381   14.4562 C   0  0  2  0  0  0  0  0  0  0  0  0
   -3.7226  -12.7672   13.4974 N   0  3  0  0  0  0  0  0  0  0  0  0
   -3.7503  -12.1528   15.9241 C   0  0  0  0  0  0  0  0  0  0  0  0
   -3.8820  -10.9529   16.9305 C   0  0  2  0  0  0  0  0  0  0  0  0
   -3.7932  -11.4807   18.3412 N   0  3  0  0  0  0  0  0  0  0  0  0
   -5.2369  -10.2079   16.6745 C   0  0  2  0  0  0  0  0  0  0  0  0
   -5.2806   -9.7016   15.2120 C   0  0  2  0  0  0  0  0  0  0  0  0
   -6.5147   -9.0649   14.9843 O   0  0  0  0  0  0  0  0  0  0  0  0
   -5.1654  -10.8995   14.2317 C   0  0  1  0  0  0  0  0  0  0  0  0
   -5.2102  -10.4128   12.8984 O   0  0  0  0  0  0  0  0  0  0  0  0
   -4.2246   -9.5095   12.4797 C   0  0  2  0  0  0  0  0  0  0  0  0
   -4.7804   -8.7525   11.2586 C   0  0  2  0  0  0  0  0  0  0  0  0
   -5.9382   -8.0435   11.6450 O   0  0  0  0  0  0  0  0  0  0  0  0
   -5.1101   -9.7813   10.1238 C   0  0  1  0  0  0  0  0  0  0  0  0
   -5.6806   -9.1327    8.9180 N   0  3  0  0  0  0  0  0  0  0  0  0
   -7.1643   -9.1992    8.9358 C   0  0  0  0  0  0  0  0  0  0  0  0
   -3.8063  -10.5642    9.7439 C   0  0  2  0  0  0  0  0  0  0  0  0
   -2.8027   -9.6452    9.2732 O   0  0  0  0  0  0  0  0  0  0  0  0
   -4.0402  -11.5346    8.6898 C   0  0  0  0  0  0  0  0  0  0  0  0
   -3.2069  -11.2516   11.0093 C   0  0  0  0  0  0  0  0  0  0  0  0
   -3.0071  -10.2504   12.1077 O   0  0  0  0  0  0  0  0  0  0  0  0
  1  2  1  1  0  0  0
  1  3  1  0  0  0  0
  1 10  1  0  0  0  0
  3  4  1  6  0  0  0
  3  5  1  0  0  0  0
  5  6  1  6  0  0  0
  5  7  1  0  0  0  0
  7  8  1  1  0  0  0
  7  9  1  0  0  0  0
  9 10  1  6  0  0  0
  9 11  1  0  0  0  0
 11 12  1  6  0  0  0
 11 13  1  0  0  0  0
 14 15  1  6  0  0  0
 14 16  1  0  0  0  0
 14 22  1  0  0  0  0
 16 17  1  0  0  0  0
 17 18  1  1  0  0  0
 17 19  1  0  0  0  0
 19  2  1  1  0  0  0
 19 20  1  0  0  0  0
 20 21  1  6  0  0  0
 20 22  1  0  0  0  0
 22 23  1  6  0  0  0
 24 23  1  6  0  0  0
 24 25  1  0  0  0  0
 24 34  1  0  0  0  0
 25 26  1  1  0  0  0
 25 27  1  0  0  0  0
 27 28  1  6  0  0  0
 27 30  1  0  0  0  0
 28 29  1  0  0  0  0
 30 31  1  6  0  0  0
 30 32  1  0  0  0  0
 30 33  1  0  0  0  0
 33 34  1  0  0  0  0
M  CHG  4   4   1  15   1  18   1  28   1
M  END
>  <CHROM.1>
-125.04968056,177.22374351,-81.11504012,61.44932581,-54.03206163,64.20475416
62.92610943,19.44872835,-56.95515468,-57.01090199,-60.00667443,-158.74872439
-53.38002266,23.67818849,166.36851161,-5.11071374,-9.14779444,15.23925050
1.96531875,-1.15047976,1.65888801

>  <Name>
1mwl

>  <RI>
0

>  <Rbt.Current_Directory>
/home/itssahil/PROJECTS/Mol_Feturizer/New_Systems/rnas/1mwl

>  <Rbt.Executable>
rbdock ($Id: //depot/dev/client3/rdock/2013.1/src/exe/rbdock.cxx#4 $)

>  <Rbt.Library>
libRbt.so (2013.1, Build901 2013/11/27)

>  <Rbt.Parameter_File>
/export/apps/rDock/src/rDock_2013.1_src/data/scripts/dock_solv.prm

>  <Rbt.Receptor>
prm/blind_docking_80.prm

>  <SCORE>
-25.0191

>  <SCORE.INTER>
-25.892

>  <SCORE.INTER.CONST>
1

>  <SCORE.INTER.POLAR>
-4.90194

>  <SCORE.INTER.ROT>
6

>  <SCORE.INTER.SOLV>
28.1849

>  <SCORE.INTER.VDW>
-17.9165

>  <SCORE.INTER.norm>
-0.76153

>  <SCORE.INTRA>
-13.6974

>  <SCORE.INTRA.DIHEDRAL>
-25.4444

>  <SCORE.INTRA.DIHEDRAL.0>
42.0816

>  <SCORE.INTRA.POLAR>
-0.753492

>  <SCORE.INTRA.POLAR.0>
-0.254682

>  <SCORE.INTRA.REPUL>
0

>  <SCORE.INTRA.REPUL.0>
0

>  <SCORE.INTRA.SOLV>
1.39772

>  <SCORE.INTRA.SOLV.lig_0>
-109.803

>  <SCORE.INTRA.VDW>
0.88781

>  <SCORE.INTRA.VDW.0>
0.32176

>  <SCORE.INTRA.norm>
-0.402865

>  <SCORE.RESTR>
14.5703

>  <SCORE.RESTR.CAVITY>
14.5703

>  <SCORE.RESTR.norm>
0.428539

>  <SCORE.SYSTEM>
0

>  <SCORE.SYSTEM.CONST>
0

>  <SCORE.SYSTEM.DIHEDRAL>
0

>  <SCORE.SYSTEM.SOLV>
0

>  <SCORE.SYSTEM.norm>
0

>  <SCORE.heavy>
34

>  <SCORE.norm>
-0.735857

>  <RMSD>
18.802

$$$$
1mwl
 OpenBabel11021811403D
libRbt.so/2013.1/901 2013/11/27
 34 36  0  0  0  0  0  0  0  0999 V2000
   -6.1818   -7.9810   17.4579 C   0  0  2  0  0  0  0  0  0  0  0  0
   -5.1034   -8.8608   17.5660 O   0  0  0  0  0  0  0  0  0  0  0  0
   -5.6119   -6.5361   17.5234 C   0  0  2  0  0  0  0  0  0  0  0  0
   -4.6455   -6.3245   16.4415 N   0  3  0  0  0  0  0  0  0  0  0  0
   -4.9763   -6.2597   18.9174 C   0  0  1  0  0  0  0  0  0  0  0  0
   -4.4995   -4.9919   18.9911 O   0  0  0  0  0  0  0  0  0  0  0  0
   -6.0590   -6.5117   20.0183 C   0  0  2  0  0  0  0  0  0  0  0  0
   -5.5058   -6.2548   21.3260 O   0  0  0  0  0  0  0  0  0  0  0  0
   -6.5549   -7.9923   19.8923 C   0  0  2  0  0  0  0  0  0  0  0  0
   -7.1108   -8.2347   18.5426 O   0  0  0  0  0  0  0  0  0  0  0  0
   -7.6434   -8.3900   20.8958 C   0  0  2  0  0  0  0  0  0  0  0  0
   -7.2715   -7.9881   22.1738 O   0  0  0  0  0  0  0  0  0  0  0  0
   -7.8845   -9.9086   20.9744 C   0  0  0  0  0  0  0  0  0  0  0  0
   -3.5665  -11.7356   14.8032 C   0  0  2  0  0  0  0  0  0  0  0  0
   -3.4281  -12.9766   13.9994 N   0  3  0  0  0  0  0  0  0  0  0  0
   -3.4725  -12.0521   16.3254 C   0  0  0  0  0  0  0  0  0  0  0  0
   -3.6385  -10.7355   17.1674 C   0  0  2  0  0  0  0  0  0  0  0  0
   -3.5338  -11.0721   18.6345 N   0  3  0  0  0  0  0  0  0  0  0  0
   -5.0145  -10.0693   16.8221 C   0  0  2  0  0  0  0  0  0  0  0  0
   -5.0735   -9.7595   15.3063 C   0  0  2  0  0  0  0  0  0  0  0  0
   -6.3256   -9.1935   15.0028 O   0  0  0  0  0  0  0  0  0  0  0  0
   -4.9241  -11.0712   14.4900 C   0  0  1  0  0  0  0  0  0  0  0  0
   -4.9835  -10.7640   13.1049 O   0  0  0  0  0  0  0  0  0  0  0  0
   -3.9651   -9.9807   12.5463 C   0  0  2  0  0  0  0  0  0  0  0  0
   -4.6354   -8.9209   11.6517 C   0  0  2  0  0  0  0  0  0  0  0  0
   -5.4729   -8.1101   12.4478 O   0  0  0  0  0  0  0  0  0  0  0  0
   -5.4598   -9.6424   10.5315 C   0  0  1  0  0  0  0  0  0  0  0  0
   -6.1637   -8.6877    9.6408 N   0  3  0  0  0  0  0  0  0  0  0  0
   -7.4106   -9.2896    9.1033 C   0  0  0  0  0  0  0  0  0  0  0  0
   -4.4992  -10.5509    9.6896 C   0  0  2  0  0  0  0  0  0  0  0  0
   -3.4737   -9.7456    9.0787 O   0  0  0  0  0  0  0  0  0  0  0  0
   -5.2000  -11.2478    8.6262 C   0  0  0  0  0  0  0  0  0  0  0  0
   -3.7614  -11.5594   10.6232 C   0  0  0  0  0  0  0  0  0  0  0  0
   -3.0746  -10.8352   11.7424 O   0  0  0  0  0  0  0  0  0  0  0  0
  1  2  1  1  0  0  0
  1  3  1  0  0  0  0
  1 10  1  0  0  0  0
  3  4  1  6  0  0  0
  3  5  1  0  0  0  0
  5  6  1  6  0  0  0
  5  7  1  0  0  0  0
  7  8  1  1  0  0  0
  7  9  1  0  0  0  0
  9 10  1  6  0  0  0
  9 11  1  0  0  0  0
 11 12  1  1  0  0  0
 11 13  1  0  0  0  0
 14 15  1  6  0  0  0
 14 16  1  0  0  0  0
 14 22  1  0  0  0  0
 16 17  1  0  0  0  0
 17 18  1  1  0  0  0
 17 19  1  0  0  0  0
 19  2  1  1  0  0  0
 19 20  1  0  0  0  0
 20 21  1  1  0  0  0
 20 22  1  0  0  0  0
 22 23  1  6  0  0  0
 24 23  1  6  0  0  0
 24 25  1  0  0  0  0
 24 34  1  0  0  0  0
 25 26  1  1  0  0  0
 25 27  1  0  0  0  0
 27 28  1  6  0  0  0
 27 30  1  0  0  0  0
 28 29  1  0  0  0  0
 30 31  1  6  0  0  0
 30 32  1  0  0  0  0
 30 33  1  0  0  0  0
 33 34  1  0  0  0  0
M  CHG  4   4   1  15   1  18   1  28   1
M  END
>  <CHROM.1>
-141.45335818,177.31266220,-66.99695317,-173.30359851,104.08463327,-48.01769557
-50.23675144,-142.73442214,-59.50560634,-52.26908230,-55.04687908,-134.78827483
-44.69441660,-30.42975221,-86.89230272,-5.17722938,-9.21582702,15.37271373
1.93591803,-1.18067887,1.63893427

>  <Name>
1mwl

>  <RI>
0

>  <Rbt.Current_Directory>
/home/itssahil/PROJECTS/Mol_Feturizer/New_Systems/rnas/1mwl

>  <Rbt.Executable>
rbdock ($Id: //depot/dev/client3/rdock/2013.1/src/exe/rbdock.cxx#4 $)

>  <Rbt.Library>
libRbt.so (2013.1, Build901 2013/11/27)

>  <Rbt.Parameter_File>
/export/apps/rDock/src/rDock_2013.1_src/data/scripts/dock_solv.prm

>  <Rbt.Receptor>
prm/blind_docking_80.prm

>  <SCORE>
-25.0019

>  <SCORE.INTER>
-30.7476

>  <SCORE.INTER.CONST>
1

>  <SCORE.INTER.POLAR>
-6.08837

>  <SCORE.INTER.ROT>
6

>  <SCORE.INTER.SOLV>
31.9827

>  <SCORE.INTER.VDW>
-18.4647

>  <SCORE.INTER.norm>
-0.904342

>  <SCORE.INTRA>
-9.53782

>  <SCORE.INTRA.DIHEDRAL>
-14.7429

>  <SCORE.INTRA.DIHEDRAL.0>
42.0816

>  <SCORE.INTRA.POLAR>
-0.771159

>  <SCORE.INTRA.POLAR.0>
-0.254682

>  <SCORE.INTRA.REPUL>
0

>  <SCORE.INTRA.REPUL.0>
0

>  <SCORE.INTRA.SOLV>
-0.46063

>  <SCORE.INTRA.SOLV.lig_0>
-109.803

>  <SCORE.INTRA.VDW>
0.685883

>  <SCORE.INTRA.VDW.0>
0.32176

>  <SCORE.INTRA.norm>
-0.280524

>  <SCORE.RESTR>
15.2835

>  <SCORE.RESTR.CAVITY>
15.2835

>  <SCORE.RESTR.norm>
0.449516

>  <SCORE.SYSTEM>
0

>  <SCORE.SYSTEM.CONST>
0

>  <SCORE.SYSTEM.DIHEDRAL>
0

>  <SCORE.SYSTEM.SOLV>
0

>  <SCORE.SYSTEM.norm>
0

>  <SCORE.heavy>
34

>  <SCORE.norm>
-0.735351

>  <RMSD>
18.822

$$$$
1mwl
 OpenBabel11021811403D
libRbt.so/2013.1/901 2013/11/27
 34 36  0  0  0  0  0  0  0  0999 V2000
   -6.2670   -8.0655   17.5019 C   0  0  2  0  0  0  0  0  0  0  0  0
   -5.2102   -8.9768   17.5383 O   0  0  0  0  0  0  0  0  0  0  0  0
   -5.6502   -6.6391   17.4564 C   0  0  2  0  0  0  0  0  0  0  0  0
   -4.7889   -6.4983   16.2784 N   0  3  0  0  0  0  0  0  0  0  0  0
   -4.8725   -6.3356   18.7705 C   0  0  1  0  0  0  0  0  0  0  0  0
   -4.3528   -5.0827   18.7488 O   0  0  0  0  0  0  0  0  0  0  0  0
   -5.8487   -6.5121   19.9801 C   0  0  2  0  0  0  0  0  0  0  0  0
   -5.1621   -6.2282   21.2172 O   0  0  0  0  0  0  0  0  0  0  0  0
   -6.3990   -7.9786   19.9597 C   0  0  2  0  0  0  0  0  0  0  0  0
   -7.0919   -8.2495   18.6807 O   0  0  0  0  0  0  0  0  0  0  0  0
   -7.3950   -8.3039   21.0787 C   0  0  2  0  0  0  0  0  0  0  0  0
   -7.7955   -9.6316   20.9778 O   0  0  0  0  0  0  0  0  0  0  0  0
   -8.6816   -7.4601   21.0235 C   0  0  0  0  0  0  0  0  0  0  0  0
   -3.7413  -11.5559   14.4642 C   0  0  2  0  0  0  0  0  0  0  0  0
   -3.6187  -12.7130   13.5414 N   0  3  0  0  0  0  0  0  0  0  0  0
   -3.5922  -12.0144   15.9452 C   0  0  0  0  0  0  0  0  0  0  0  0
   -3.7418  -10.7860   16.9141 C   0  0  2  0  0  0  0  0  0  0  0  0
   -3.5836  -11.2592   18.3381 N   0  3  0  0  0  0  0  0  0  0  0  0
   -5.1352  -10.1078   16.6799 C   0  0  2  0  0  0  0  0  0  0  0  0
   -5.2492   -9.6561   15.2034 C   0  0  2  0  0  0  0  0  0  0  0  0
   -6.5163   -9.0799   14.9971 O   0  0  0  0  0  0  0  0  0  0  0  0
   -5.1152  -10.8822   14.2611 C   0  0  1  0  0  0  0  0  0  0  0  0
   -5.2251  -10.4455   12.9144 O   0  0  0  0  0  0  0  0  0  0  0  0
   -4.3344   -9.4689   12.4502 C   0  0  2  0  0  0  0  0  0  0  0  0
   -4.9569   -8.8372   11.1907 C   0  0  2  0  0  0  0  0  0  0  0  0
   -6.1836   -8.2315   11.5382 O   0  0  0  0  0  0  0  0  0  0  0  0
   -5.1722   -9.9517   10.1107 C   0  0  1  0  0  0  0  0  0  0  0  0
   -5.7982   -9.4284    8.8720 N   0  3  0  0  0  0  0  0  0  0  0  0
   -6.9858  -10.2385    8.4989 C   0  0  0  0  0  0  0  0  0  0  0  0
   -3.7927  -10.6155    9.7737 C   0  0  2  0  0  0  0  0  0  0  0  0
   -2.8853   -9.6241    9.2568 O   0  0  0  0  0  0  0  0  0  0  0  0
   -3.9192  -11.6580    8.7715 C   0  0  0  0  0  0  0  0  0  0  0  0
   -3.1343  -11.1713   11.0740 C   0  0  0  0  0  0  0  0  0  0  0  0
   -3.0451  -10.0993   12.1188 O   0  0  0  0  0  0  0  0  0  0  0  0
  1  2  1  1  0  0  0
  1  3  1  0  0  0  0
  1 10  1  0  0  0  0
  3  4  1  6  0  0  0
  3  5  1  0  0  0  0
  5  6  1  6  0  0  0
  5  7  1  0  0  0  0
  7  8  1  1  0  0  0
  7  9  1  0  0  0  0
  9 10  1  6  0  0  0
  9 11  1  0  0  0  0
 11 12  1  6  0  0  0
 11 13  1  0  0  0  0
 14 15  1  6  0  0  0
 14 16  1  0  0  0  0
 14 22  1  0  0  0  0
 16 17  1  0  0  0  0
 17 18  1  1  0  0  0
 17 19  1  0  0  0  0
 19  2  1  1  0  0  0
 19 20  1  0  0  0  0
 20 21  1  1  0  0  0
 20 22  1  0  0  0  0
 22 23  1  6  0  0  0
 24 23  1  6  0  0  0
 24 25  1  0  0  0  0
 24 34  1  0  0  0  0
 25 26  1  1  0  0  0
 25 27  1  0  0  0  0
 27 28  1  6  0  0  0
 27 30  1  0  0  0  0
 28 29  1  0  0  0  0
 30 31  1  6  0  0  0
 30 32  1  0  0  0  0
 30 33  1  0  0  0  0
 33 34  1  0  0  0  0
M  CHG  4   4   1  15   1  18   1  28   1
M  END
>  <CHROM.1>
-131.29549496,173.85813161,-61.01514097,48.98393302,61.44796502,-178.88919708
175.31214937,16.48474921,-143.66647780,83.88456655,-63.08890401,-160.47699944
175.56123683,-8.29292870,160.07824999,-5.15627105,-9.20635657,15.18432541
2.00869750,-1.15424556,1.69413029

>  <Name>
1mwl

>  <RI>
0

>  <Rbt.Current_Directory>
/home/itssahil/PROJECTS/Mol_Feturizer/New_Systems/rnas/1mwl

>  <Rbt.Executable>
rbdock ($Id: //depot/dev/client3/rdock/2013.1/src/exe/rbdock.cxx#4 $)

>  <Rbt.Library>
libRbt.so (2013.1, Build901 2013/11/27)

>  <Rbt.Parameter_File>
/export/apps/rDock/src/rDock_2013.1_src/data/scripts/dock_solv.prm

>  <Rbt.Receptor>
prm/blind_docking_80.prm

>  <SCORE>
-22.0232

>  <SCORE.INTER>
-30.2378

>  <SCORE.INTER.CONST>
1

>  <SCORE.INTER.POLAR>
-5.87266

>  <SCORE.INTER.ROT>
6

>  <SCORE.INTER.SOLV>
28.7011

>  <SCORE.INTER.VDW>
-17.75

>  <SCORE.INTER.norm>
-0.889347

>  <SCORE.INTRA>
-5.89704

>  <SCORE.INTRA.DIHEDRAL>
-19.7961

>  <SCORE.INTRA.DIHEDRAL.0>
42.0816

>  <SCORE.INTRA.POLAR>
0.214845

>  <SCORE.INTRA.POLAR.0>
-0.254682

>  <SCORE.INTRA.REPUL>
0.0545463

>  <SCORE.INTRA.REPUL.0>
0

>  <SCORE.INTRA.SOLV>
1.06422

>  <SCORE.INTRA.SOLV.lig_0>
-109.803

>  <SCORE.INTRA.VDW>
2.46567

>  <SCORE.INTRA.VDW.0>
0.32176

>  <SCORE.INTRA.norm>
-0.173442

>  <SCORE.RESTR>
14.1116

>  <SCORE.RESTR.CAVITY>
14.1116

>  <SCORE.RESTR.norm>
0.415047

>  <SCORE.SYSTEM>
0

>  <SCORE.SYSTEM.CONST>
0

>  <SCORE.SYSTEM.DIHEDRAL>
0

>  <SCORE.SYSTEM.SOLV>
0

>  <SCORE.SYSTEM.norm>
0

>  <SCORE.heavy>
34

>  <SCORE.norm>
-0.647742

>  <RMSD>
18.867

$$$$
1mwl
 OpenBabel11021811403D
libRbt.so/2013.1/901 2013/11/27
 34 36  0  0  0  0  0  0  0  0999 V2000
   -4.3540   -8.7565   20.0616 C   0  0  2  0  0  0  0  0  0  0  0  0
   -3.5168   -9.0453   18.9826 O   0  0  0  0  0  0  0  0  0  0  0  0
   -5.6615   -8.1439   19.4852 C   0  0  2  0  0  0  0  0  0  0  0  0
   -6.2966   -9.0875   18.5601 N   0  3  0  0  0  0  0  0  0  0  0  0
   -5.3704   -6.7787   18.7961 C   0  0  1  0  0  0  0  0  0  0  0  0
   -6.5109   -6.2256   18.3129 O   0  0  0  0  0  0  0  0  0  0  0  0
   -4.6893   -5.8296   19.8367 C   0  0  2  0  0  0  0  0  0  0  0  0
   -4.4135   -4.5482   19.2332 O   0  0  0  0  0  0  0  0  0  0  0  0
   -3.3740   -6.5144   20.3416 C   0  0  2  0  0  0  0  0  0  0  0  0
   -3.6797   -7.8284   20.9493 O   0  0  0  0  0  0  0  0  0  0  0  0
   -2.5977   -5.7123   21.3922 C   0  0  2  0  0  0  0  0  0  0  0  0
   -2.1209   -4.5358   20.8250 O   0  0  0  0  0  0  0  0  0  0  0  0
   -1.3675   -6.4524   21.9480 C   0  0  0  0  0  0  0  0  0  0  0  0
   -2.9967  -11.6033   15.5995 C   0  0  2  0  0  0  0  0  0  0  0  0
   -3.2651  -12.6303   14.5609 N   0  3  0  0  0  0  0  0  0  0  0  0
   -2.9835  -12.2455   17.0184 C   0  0  0  0  0  0  0  0  0  0  0  0
   -2.7171  -11.1478   18.1112 C   0  0  2  0  0  0  0  0  0  0  0  0
   -2.7008  -11.8003   19.4716 N   0  3  0  0  0  0  0  0  0  0  0  0
   -3.8211  -10.0397   18.0129 C   0  0  2  0  0  0  0  0  0  0  0  0
   -3.8031   -9.4157   16.5961 C   0  0  2  0  0  0  0  0  0  0  0  0
   -4.8200   -8.4470   16.5092 O   0  0  0  0  0  0  0  0  0  0  0  0
   -4.0833  -10.5092   15.5307 C   0  0  1  0  0  0  0  0  0  0  0  0
   -4.0646   -9.9149   14.2411 O   0  0  0  0  0  0  0  0  0  0  0  0
   -5.2792   -9.5180   13.6668 C   0  0  2  0  0  0  0  0  0  0  0  0
   -5.9033  -10.7596   13.0020 C   0  0  2  0  0  0  0  0  0  0  0  0
   -6.1450  -11.7379   13.9905 O   0  0  0  0  0  0  0  0  0  0  0  0
   -4.9224  -11.3035   11.9080 C   0  0  1  0  0  0  0  0  0  0  0  0
   -5.4388  -12.5219   11.2380 N   0  3  0  0  0  0  0  0  0  0  0  0
   -5.0517  -13.7419   11.9915 C   0  0  0  0  0  0  0  0  0  0  0  0
   -4.6602  -10.1798   10.8471 C   0  0  2  0  0  0  0  0  0  0  0  0
   -5.9000   -9.7963   10.2231 O   0  0  0  0  0  0  0  0  0  0  0  0
   -3.7596  -10.6202    9.7972 C   0  0  0  0  0  0  0  0  0  0  0  0
   -4.1122   -8.8988   11.5484 C   0  0  0  0  0  0  0  0  0  0  0  0
   -5.0266   -8.4743   12.6586 O   0  0  0  0  0  0  0  0  0  0  0  0
  1  2  1  6  0  0  0
  1  3  1  0  0  0  0
  1 10  1  0  0  0  0
  3  4  1  6  0  0  0
  3  5  1  0  0  0  0
  5  6  1  1  0  0  0
  5  7  1  0  0  0  0
  7  8  1  6  0  0  0
  7  9  1  0  0  0  0
  9 10  1  1  0  0  0
  9 11  1  0  0  0  0
 11 12  1  6  0  0  0
 11 13  1  0  0  0  0
 14 15  1  6  0  0  0
 14 16  1  0  0  0  0
 14 22  1  0  0  0  0
 16 17  1  0  0  0  0
 17 18  1  1  0  0  0
 17 19  1  0  0  0  0
 19  2  1  1  0  0  0
 19 20  1  0  0  0  0
 20 21  1  1  0  0  0
 20 22  1  0  0  0  0
 22 23  1  6  0  0  0
 24 23  1  6  0  0  0
 24 25  1  0  0  0  0
 24 34  1  0  0  0  0
 25 26  1  1  0  0  0
 25 27  1  0  0  0  0
 27 28  1  6  0  0  0
 27 30  1  0  0  0  0
 28 29  1  0  0  0  0
 30 31  1  6  0  0  0
 30 32  1  0  0  0  0
 30 33  1  0  0  0  0
 33 34  1  0  0  0  0
M  CHG  4   4   1  15   1  18   1  28   1
M  END
>  <CHROM.1>
-66.45250548,-116.46539735,30.18150948,162.87701296,-174.85505885,-65.55975812
171.55763589,92.84585836,60.17703999,174.40488025,144.17340148,-83.51421421
167.70262135,32.76521284,61.52792633,-4.29647579,-9.24596284,16.32687574
-1.18089048,1.20924035,-2.42359626

>  <Name>
1mwl

>  <RI>
0

>  <Rbt.Current_Directory>
/home/itssahil/PROJECTS/Mol_Feturizer/New_Systems/rnas/1mwl

>  <Rbt.Executable>
rbdock ($Id: //depot/dev/client3/rdock/2013.1/src/exe/rbdock.cxx#4 $)

>  <Rbt.Library>
libRbt.so (2013.1, Build901 2013/11/27)

>  <Rbt.Parameter_File>
/export/apps/rDock/src/rDock_2013.1_src/data/scripts/dock_solv.prm

>  <Rbt.Receptor>
prm/blind_docking_80.prm

>  <SCORE>
-20.4329

>  <SCORE.INTER>
-20.2838

>  <SCORE.INTER.CONST>
1

>  <SCORE.INTER.POLAR>
-3.83904

>  <SCORE.INTER.ROT>
6

>  <SCORE.INTER.SOLV>
16.7223

>  <SCORE.INTER.VDW>
-13.8999

>  <SCORE.INTER.norm>
-0.596583

>  <SCORE.INTRA>
-15.9498

>  <SCORE.INTRA.DIHEDRAL>
-19.3704

>  <SCORE.INTRA.DIHEDRAL.0>
42.0816

>  <SCORE.INTRA.POLAR>
-2.50445

>  <SCORE.INTRA.POLAR.0>
-0.254682

>  <SCORE.INTRA.REPUL>
0

>  <SCORE.INTRA.REPUL.0>
0

>  <SCORE.INTRA.SOLV>
6.5051

>  <SCORE.INTRA.SOLV.lig_0>
-109.803

>  <SCORE.INTRA.VDW>
-1.00201

>  <SCORE.INTRA.VDW.0>
0.32176

>  <SCORE.INTRA.norm>
-0.469111

>  <SCORE.RESTR>
15.8006

>  <SCORE.RESTR.CAVITY>
15.8006

>  <SCORE.RESTR.norm>
0.464725

>  <SCORE.SYSTEM>
0

>  <SCORE.SYSTEM.CONST>
0

>  <SCORE.SYSTEM.DIHEDRAL>
0

>  <SCORE.SYSTEM.SOLV>
0

>  <SCORE.SYSTEM.norm>
0

>  <SCORE.heavy>
34

>  <SCORE.norm>
-0.600969

>  <RMSD>
18.869

$$$$
1mwl
 OpenBabel11021811403D
libRbt.so/2013.1/901 2013/11/27
 34 36  0  0  0  0  0  0  0  0999 V2000
   -5.2798   -7.7421   17.3476 C   0  0  2  0  0  0  0  0  0  0  0  0
   -4.7060   -8.9370   17.7856 O   0  0  0  0  0  0  0  0  0  0  0  0
   -4.9361   -6.6484   18.3977 C   0  0  2  0  0  0  0  0  0  0  0  0
   -3.4822   -6.5186   18.5348 N   0  3  0  0  0  0  0  0  0  0  0  0
   -5.6110   -6.9681   19.7637 C   0  0  1  0  0  0  0  0  0  0  0  0
   -5.3366   -6.0045   20.6783 O   0  0  0  0  0  0  0  0  0  0  0  0
   -7.1537   -7.0991   19.5395 C   0  0  2  0  0  0  0  0  0  0  0  0
   -7.8141   -7.3862   20.7900 O   0  0  0  0  0  0  0  0  0  0  0  0
   -7.4048   -8.2353   18.4907 C   0  0  2  0  0  0  0  0  0  0  0  0
   -6.7132   -7.9237   17.2203 O   0  0  0  0  0  0  0  0  0  0  0  0
   -8.8792   -8.4716   18.1441 C   0  0  2  0  0  0  0  0  0  0  0  0
   -9.4826   -7.2628   17.8155 O   0  0  0  0  0  0  0  0  0  0  0  0
   -9.6991   -9.0609   19.3063 C   0  0  0  0  0  0  0  0  0  0  0  0
   -3.4226  -11.7259   14.8134 C   0  0  2  0  0  0  0  0  0  0  0  0
   -3.3606  -12.9398   13.9602 N   0  3  0  0  0  0  0  0  0  0  0  0
   -3.2087  -12.0943   16.3115 C   0  0  0  0  0  0  0  0  0  0  0  0
   -3.2946  -10.8058   17.2075 C   0  0  2  0  0  0  0  0  0  0  0  0
   -3.0746  -11.1925   18.6493 N   0  3  0  0  0  0  0  0  0  0  0  0
   -4.6881  -10.1202   16.9972 C   0  0  2  0  0  0  0  0  0  0  0  0
   -4.8668   -9.7589   15.5023 C   0  0  2  0  0  0  0  0  0  0  0  0
   -6.1343   -9.1754   15.3203 O   0  0  0  0  0  0  0  0  0  0  0  0
   -4.7953  -11.0431   14.6335 C   0  0  1  0  0  0  0  0  0  0  0  0
   -4.9638  -10.6889   13.2687 O   0  0  0  0  0  0  0  0  0  0  0  0
   -3.9923   -9.8848   12.6586 C   0  0  2  0  0  0  0  0  0  0  0  0
   -4.7268   -8.8879   11.7423 C   0  0  2  0  0  0  0  0  0  0  0  0
   -5.5806   -8.0840   12.5280 O   0  0  0  0  0  0  0  0  0  0  0  0
   -5.5439   -9.6842   10.6684 C   0  0  1  0  0  0  0  0  0  0  0  0
   -6.3072   -8.7936    9.7606 N   0  3  0  0  0  0  0  0  0  0  0  0
   -7.5724   -9.4406    9.3286 C   0  0  0  0  0  0  0  0  0  0  0  0
   -4.5639  -10.5822    9.8375 C   0  0  2  0  0  0  0  0  0  0  0  0
   -3.5874   -9.7578    9.1742 O   0  0  0  0  0  0  0  0  0  0  0  0
   -5.2573  -11.3467    8.8167 C   0  0  0  0  0  0  0  0  0  0  0  0
   -3.7633  -11.5236   10.7893 C   0  0  0  0  0  0  0  0  0  0  0  0
   -3.0839  -10.7304   11.8654 O   0  0  0  0  0  0  0  0  0  0  0  0
  1  2  1  1  0  0  0
  1  3  1  0  0  0  0
  1 10  1  0  0  0  0
  3  4  1  1  0  0  0
  3  5  1  0  0  0  0
  5  6  1  1  0  0  0
  5  7  1  0  0  0  0
  7  8  1  1  0  0  0
  7  9  1  0  0  0  0
  9 10  1  6  0  0  0
  9 11  1  0  0  0  0
 11 12  1  1  0  0  0
 11 13  1  0  0  0  0
 14 15  1  6  0  0  0
 14 16  1  0  0  0  0
 14 22  1  0  0  0  0
 16 17  1  0  0  0  0
 17 18  1  1  0  0  0
 17 19  1  0  0  0  0
 19  2  1  1  0  0  0
 19 20  1  0  0  0  0
 20 21  1  1  0  0  0
 20 22  1  0  0  0  0
 22 23  1  6  0  0  0
 24 23  1  6  0  0  0
 24 25  1  0  0  0  0
 24 34  1  0  0  0  0
 25 26  1  1  0  0  0
 25 27  1  0  0  0  0
 27 28  1  6  0  0  0
 27 30  1  0  0  0  0
 28 29  1  0  0  0  0
 30 31  1  6  0  0  0
 30 32  1  0  0  0  0
 30 33  1  0  0  0  0
 33 34  1  0  0  0  0
M  CHG  4   4   1  15   1  18   1  28   1
M  END
>  <CHROM.1>
-172.68436949,140.58496844,174.66608315,-178.11584435,162.06149391,50.57400348
175.48660263,-25.37553772,56.86274501,-60.50508353,-55.53297074,-140.49497445
-47.20219757,-27.58798254,-78.42935959,-5.37697295,-9.28626915,15.24337147
-1.81409752,0.59598798,-1.73788138

>  <Name>
1mwl

>  <RI>
0

>  <Rbt.Current_Directory>
/home/itssahil/PROJECTS/Mol_Feturizer/New_Systems/rnas/1mwl

>  <Rbt.Executable>
rbdock ($Id: //depot/dev/client3/rdock/2013.1/src/exe/rbdock.cxx#4 $)

>  <Rbt.Library>
libRbt.so (2013.1, Build901 2013/11/27)

>  <Rbt.Parameter_File>
/export/apps/rDock/src/rDock_2013.1_src/data/scripts/dock_solv.prm

>  <Rbt.Receptor>
prm/blind_docking_80.prm

>  <SCORE>
-13.605

>  <SCORE.INTER>
-18.3027

>  <SCORE.INTER.CONST>
1

>  <SCORE.INTER.POLAR>
-3.40965

>  <SCORE.INTER.ROT>
6

>  <SCORE.INTER.SOLV>
30.8998

>  <SCORE.INTER.VDW>
-18.7363

>  <SCORE.INTER.norm>
-0.538315

>  <SCORE.INTRA>
-9.96615

>  <SCORE.INTRA.DIHEDRAL>
-22.6126

>  <SCORE.INTRA.DIHEDRAL.0>
42.0816

>  <SCORE.INTRA.POLAR>
-0.596993

>  <SCORE.INTRA.POLAR.0>
-0.254682

>  <SCORE.INTRA.REPUL>
0

>  <SCORE.INTRA.REPUL.0>
0

>  <SCORE.INTRA.SOLV>
-1.38584

>  <SCORE.INTRA.SOLV.lig_0>
-109.803

>  <SCORE.INTRA.VDW>
4.06283

>  <SCORE.INTRA.VDW.0>
0.32176

>  <SCORE.INTRA.norm>
-0.293122

>  <SCORE.RESTR>
14.6639

>  <SCORE.RESTR.CAVITY>
14.6639

>  <SCORE.RESTR.norm>
0.431291

>  <SCORE.SYSTEM>
0

>  <SCORE.SYSTEM.CONST>
0

>  <SCORE.SYSTEM.DIHEDRAL>
0

>  <SCORE.SYSTEM.SOLV>
0

>  <SCORE.SYSTEM.norm>
0

>  <SCORE.heavy>
34

>  <SCORE.norm>
-0.400146

>  <RMSD>
18.901

$$$$
1mwl
 OpenBabel11021811403D
libRbt.so/2013.1/901 2013/11/27
 34 36  0  0  0  0  0  0  0  0999 V2000
   -4.0774   -8.7010   20.0710 C   0  0  2  0  0  0  0  0  0  0  0  0
   -3.3223   -8.9624   18.9264 O   0  0  0  0  0  0  0  0  0  0  0  0
   -5.4434   -8.1230   19.6055 C   0  0  2  0  0  0  0  0  0  0  0  0
   -6.1249   -9.0804   18.7289 N   0  3  0  0  0  0  0  0  0  0  0  0
   -5.2465   -6.7476   18.9033 C   0  0  1  0  0  0  0  0  0  0  0  0
   -6.4370   -6.2247   18.5168 O   0  0  0  0  0  0  0  0  0  0  0  0
   -4.5101   -5.7838   19.8913 C   0  0  2  0  0  0  0  0  0  0  0  0
   -4.3192   -4.4930   19.2753 O   0  0  0  0  0  0  0  0  0  0  0  0
   -3.1400   -6.4336   20.2846 C   0  0  2  0  0  0  0  0  0  0  0  0
   -3.3594   -7.7579   20.9071 O   0  0  0  0  0  0  0  0  0  0  0  0
   -2.3039   -5.6140   21.2741 C   0  0  2  0  0  0  0  0  0  0  0  0
   -1.2083   -6.3610   21.6926 O   0  0  0  0  0  0  0  0  0  0  0  0
   -3.0698   -5.2199   22.5502 C   0  0  0  0  0  0  0  0  0  0  0  0
   -2.9239  -11.6005   15.5886 C   0  0  2  0  0  0  0  0  0  0  0  0
   -3.2285  -12.6531   14.5863 N   0  3  0  0  0  0  0  0  0  0  0  0
   -2.8537  -12.2079   17.0211 C   0  0  0  0  0  0  0  0  0  0  0  0
   -2.5492  -11.0832   18.0759 C   0  0  2  0  0  0  0  0  0  0  0  0
   -2.4781  -11.7024   19.4500 N   0  3  0  0  0  0  0  0  0  0  0  0
   -3.6602   -9.9808   17.9936 C   0  0  2  0  0  0  0  0  0  0  0  0
   -3.6992   -9.3914   16.5624 C   0  0  2  0  0  0  0  0  0  0  0  0
   -4.7222   -8.4278   16.4915 O   0  0  0  0  0  0  0  0  0  0  0  0
   -4.0163  -10.5112   15.5354 C   0  0  1  0  0  0  0  0  0  0  0  0
   -4.0495   -9.9484   14.2321 O   0  0  0  0  0  0  0  0  0  0  0  0
   -5.2911   -9.6121   13.6771 C   0  0  2  0  0  0  0  0  0  0  0  0
   -5.8518  -10.8766   12.9992 C   0  0  2  0  0  0  0  0  0  0  0  0
   -6.0265  -11.8822   13.9744 O   0  0  0  0  0  0  0  0  0  0  0  0
   -4.8544  -11.3472   11.8863 C   0  0  1  0  0  0  0  0  0  0  0  0
   -5.3089  -12.5824   11.2023 N   0  3  0  0  0  0  0  0  0  0  0  0
   -5.0920  -13.7724   12.0642 C   0  0  0  0  0  0  0  0  0  0  0  0
   -4.6683  -10.1942   10.8408 C   0  0  2  0  0  0  0  0  0  0  0  0
   -5.9349   -9.8720   10.2363 O   0  0  0  0  0  0  0  0  0  0  0  0
   -3.7565  -10.5666    9.7744 C   0  0  0  0  0  0  0  0  0  0  0  0
   -4.1855   -8.8952   11.5567 C   0  0  0  0  0  0  0  0  0  0  0  0
   -5.1096   -8.5404   12.6832 O   0  0  0  0  0  0  0  0  0  0  0  0
  1  2  1  6  0  0  0
  1  3  1  0  0  0  0
  1 10  1  0  0  0  0
  3  4  1  6  0  0  0
  3  5  1  0  0  0  0
  5  6  1  1  0  0  0
  5  7  1  0  0  0  0
  7  8  1  6  0  0  0
  7  9  1  0  0  0  0
  9 10  1  1  0  0  0
  9 11  1  0  0  0  0
 11 12  1  1  0  0  0
 11 13  1  0  0  0  0
 14 15  1  6  0  0  0
 14 16  1  0  0  0  0
 14 22  1  0  0  0  0
 16 17  1  0  0  0  0
 17 18  1  1  0  0  0
 17 19  1  0  0  0  0
 19  2  1  1  0  0  0
 19 20  1  0  0  0  0
 20 21  1  1  0  0  0
 20 22  1  0  0  0  0
 22 23  1  6  0  0  0
 24 23  1  6  0  0  0
 24 25  1  0  0  0  0
 24 34  1  0  0  0  0
 25 26  1  1  0  0  0
 25 27  1  0  0  0  0
 27 28  1  6  0  0  0
 27 30  1  0  0  0  0
 28 29  1  0  0  0  0
 30 31  1  6  0  0  0
 30 32  1  0  0  0  0
 30 33  1  0  0  0  0
 33 34  1  0  0  0  0
M  CHG  4   4   1  15   1  18   1  28   1
M  END
>  <CHROM.1>
-67.87245644,-112.66988068,156.53054459,174.17937801,178.59860799,171.81380608
-176.86698425,-147.93291933,71.57370803,96.60175897,141.96947335,-86.11609215
70.11537984,44.37623714,68.26368827,-4.21839601,-9.26310443,16.38968986,-1.23286205
1.14452327,-2.35558350

>  <Name>
1mwl

>  <RI>
0

>  <Rbt.Current_Directory>
/home/itssahil/PROJECTS/Mol_Feturizer/New_Systems/rnas/1mwl

>  <Rbt.Executable>
rbdock ($Id: //depot/dev/client3/rdock/2013.1/src/exe/rbdock.cxx#4 $)

>  <Rbt.Library>
libRbt.so (2013.1, Build901 2013/11/27)

>  <Rbt.Parameter_File>
/export/apps/rDock/src/rDock_2013.1_src/data/scripts/dock_solv.prm

>  <Rbt.Receptor>
prm/blind_docking_80.prm

>  <SCORE>
-17.2525

>  <SCORE.INTER>
-20.4658

>  <SCORE.INTER.CONST>
1

>  <SCORE.INTER.POLAR>
-3.57798

>  <SCORE.INTER.ROT>
6

>  <SCORE.INTER.SOLV>
16.9499

>  <SCORE.INTER.VDW>
-14.9672

>  <SCORE.INTER.norm>
-0.601935

>  <SCORE.INTRA>
-13.5054

>  <SCORE.INTRA.DIHEDRAL>
-16.5629

>  <SCORE.INTRA.DIHEDRAL.0>
42.0816

>  <SCORE.INTRA.POLAR>
-2.06821

>  <SCORE.INTRA.POLAR.0>
-0.254682

>  <SCORE.INTRA.REPUL>
0

>  <SCORE.INTRA.REPUL.0>
0

>  <SCORE.INTRA.SOLV>
5.4713

>  <SCORE.INTRA.SOLV.lig_0>
-109.803

>  <SCORE.INTRA.VDW>
-0.927691

>  <SCORE.INTRA.VDW.0>
0.32176

>  <SCORE.INTRA.norm>
-0.397217

>  <SCORE.RESTR>
16.7186

>  <SCORE.RESTR.CAVITY>
16.7186

>  <SCORE.RESTR.norm>
0.491725

>  <SCORE.SYSTEM>
0

>  <SCORE.SYSTEM.CONST>
0

>  <SCORE.SYSTEM.DIHEDRAL>
0

>  <SCORE.SYSTEM.SOLV>
0

>  <SCORE.SYSTEM.norm>
0

>  <SCORE.heavy>
34

>  <SCORE.norm>
-0.507427

>  <RMSD>
18.902

$$$$
1mwl
 OpenBabel11021811403D
libRbt.so/2013.1/901 2013/11/27
 34 36  0  0  0  0  0  0  0  0999 V2000
   -6.0201   -8.3835   17.4532 C   0  0  2  0  0  0  0  0  0  0  0  0
   -4.8456   -9.1308   17.5567 O   0  0  0  0  0  0  0  0  0  0  0  0
   -5.6102   -6.8939   17.2803 C   0  0  2  0  0  0  0  0  0  0  0  0
   -4.7746   -6.7350   16.0862 N   0  3  0  0  0  0  0  0  0  0  0  0
   -4.8860   -6.3726   18.5560 C   0  0  1  0  0  0  0  0  0  0  0  0
   -4.5478   -5.0656   18.4227 O   0  0  0  0  0  0  0  0  0  0  0  0
   -5.8304   -6.5802   19.7859 C   0  0  2  0  0  0  0  0  0  0  0  0
   -5.1934   -6.0976   20.9874 O   0  0  0  0  0  0  0  0  0  0  0  0
   -6.1686   -8.1058   19.8958 C   0  0  2  0  0  0  0  0  0  0  0  0
   -6.8136   -8.5799   18.6514 O   0  0  0  0  0  0  0  0  0  0  0  0
   -7.1115   -8.4706   21.0481 C   0  0  2  0  0  0  0  0  0  0  0  0
   -8.3413   -7.8493   20.8617 O   0  0  0  0  0  0  0  0  0  0  0  0
   -6.6033   -8.0154   22.4283 C   0  0  0  0  0  0  0  0  0  0  0  0
   -3.1592  -12.1775   15.0801 C   0  0  2  0  0  0  0  0  0  0  0  0
   -2.9470  -13.4867   14.4121 N   0  3  0  0  0  0  0  0  0  0  0  0
   -3.0118  -12.3169   16.6244 C   0  0  0  0  0  0  0  0  0  0  0  0
   -3.2563  -10.9304   17.3229 C   0  0  2  0  0  0  0  0  0  0  0  0
   -3.0979  -11.0952   18.8144 N   0  3  0  0  0  0  0  0  0  0  0  0
   -4.6839  -10.4047   16.9461 C   0  0  2  0  0  0  0  0  0  0  0  0
   -4.7958  -10.2687   15.4079 C   0  0  2  0  0  0  0  0  0  0  0  0
   -6.0916   -9.8289   15.0799 O   0  0  0  0  0  0  0  0  0  0  0  0
   -4.5676  -11.6486   14.7348 C   0  0  1  0  0  0  0  0  0  0  0  0
   -4.6771  -11.5008   13.3267 O   0  0  0  0  0  0  0  0  0  0  0  0
   -3.6337  -10.8730   12.6341 C   0  0  2  0  0  0  0  0  0  0  0  0
   -4.0663   -9.4192   12.3657 C   0  0  2  0  0  0  0  0  0  0  0  0
   -4.2749   -8.7662   13.5997 O   0  0  0  0  0  0  0  0  0  0  0  0
   -5.3783   -9.4241   11.5093 C   0  0  1  0  0  0  0  0  0  0  0  0
   -5.8796   -8.0561   11.2311 N   0  3  0  0  0  0  0  0  0  0  0  0
   -6.7411   -7.5746   12.3410 C   0  0  0  0  0  0  0  0  0  0  0  0
   -5.1112  -10.1803   10.1625 C   0  0  2  0  0  0  0  0  0  0  0  0
   -4.0675   -9.5156    9.4262 O   0  0  0  0  0  0  0  0  0  0  0  0
   -6.2892  -10.2178    9.3150 C   0  0  0  0  0  0  0  0  0  0  0  0
   -4.5887  -11.6212   10.4522 C   0  0  0  0  0  0  0  0  0  0  0  0
   -3.3972  -11.5763   11.3617 O   0  0  0  0  0  0  0  0  0  0  0  0
  1  2  1  1  0  0  0
  1  3  1  0  0  0  0
  1 10  1  0  0  0  0
  3  4  1  6  0  0  0
  3  5  1  0  0  0  0
  5  6  1  6  0  0  0
  5  7  1  0  0  0  0
  7  8  1  1  0  0  0
  7  9  1  0  0  0  0
  9 10  1  6  0  0  0
  9 11  1  0  0  0  0
 11 12  1  6  0  0  0
 11 13  1  0  0  0  0
 14 15  1  6  0  0  0
 14 16  1  0  0  0  0
 14 22  1  0  0  0  0
 16 17  1  0  0  0  0
 17 18  1  1  0  0  0
 17 19  1  0  0  0  0
 19  2  1  1  0  0  0
 19 20  1  0  0  0  0
 20 21  1  1  0  0  0
 20 22  1  0  0  0  0
 22 23  1  6  0  0  0
 24 23  1  6  0  0  0
 24 25  1  0  0  0  0
 24 34  1  0  0  0  0
 25 26  1  1  0  0  0
 25 27  1  0  0  0  0
 27 28  1  6  0  0  0
 27 30  1  0  0  0  0
 28 29  1  0  0  0  0
 30 31  1  6  0  0  0
 30 32  1  0  0  0  0
 30 33  1  0  0  0  0
 33 34  1  0  0  0  0
M  CHG  4   4   1  15   1  18   1  28   1
M  END
>  <CHROM.1>
-140.50060288,-178.51836351,-52.81913220,51.32023556,139.27262110,62.56831069
-55.10592438,-34.71404782,67.98215294,171.51935010,-46.31329134,-100.24036477
51.93426819,33.95302836,177.68275429,-5.01451210,-9.29492243,15.62982296
1.91608140,-1.11477815,1.55658485

>  <Name>
1mwl

>  <RI>
0

>  <Rbt.Current_Directory>
/home/itssahil/PROJECTS/Mol_Feturizer/New_Systems/rnas/1mwl

>  <Rbt.Executable>
rbdock ($Id: //depot/dev/client3/rdock/2013.1/src/exe/rbdock.cxx#4 $)

>  <Rbt.Library>
libRbt.so (2013.1, Build901 2013/11/27)

>  <Rbt.Parameter_File>
/export/apps/rDock/src/rDock_2013.1_src/data/scripts/dock_solv.prm

>  <Rbt.Receptor>
prm/blind_docking_80.prm

>  <SCORE>
-30.5692

>  <SCORE.INTER>
-41.1239

>  <SCORE.INTER.CONST>
1

>  <SCORE.INTER.POLAR>
-7.79016

>  <SCORE.INTER.ROT>
6

>  <SCORE.INTER.SOLV>
32.6969

>  <SCORE.INTER.VDW>
-19.9477

>  <SCORE.INTER.norm>
-1.20953

>  <SCORE.INTRA>
-4.52795

>  <SCORE.INTRA.DIHEDRAL>
-20.5774

>  <SCORE.INTRA.DIHEDRAL.0>
42.0816

>  <SCORE.INTRA.POLAR>
0.126625

>  <SCORE.INTRA.POLAR.0>
-0.254682

>  <SCORE.INTRA.REPUL>
0

>  <SCORE.INTRA.REPUL.0>
0

>  <SCORE.INTRA.SOLV>
1.52044

>  <SCORE.INTRA.SOLV.lig_0>
-109.803

>  <SCORE.INTRA.VDW>
4.56998

>  <SCORE.INTRA.VDW.0>
0.32176

>  <SCORE.INTRA.norm>
-0.133175

>  <SCORE.RESTR>
15.0826

>  <SCORE.RESTR.CAVITY>
15.0826

>  <SCORE.RESTR.norm>
0.443606

>  <SCORE.SYSTEM>
0

>  <SCORE.SYSTEM.CONST>
0

>  <SCORE.SYSTEM.DIHEDRAL>
0

>  <SCORE.SYSTEM.SOLV>
0

>  <SCORE.SYSTEM.norm>
0

>  <SCORE.heavy>
34

>  <SCORE.norm>
-0.899095

>  <RMSD>
18.913

$$$$
1mwl
 OpenBabel11021811403D
libRbt.so/2013.1/901 2013/11/27
 34 36  0  0  0  0  0  0  0  0999 V2000
   -6.1944   -8.0771   17.5027 C   0  0  2  0  0  0  0  0  0  0  0  0
   -5.1045   -8.9492   17.4984 O   0  0  0  0  0  0  0  0  0  0  0  0
   -5.6313   -6.6282   17.4790 C   0  0  2  0  0  0  0  0  0  0  0  0
   -4.7986   -6.4291   16.2888 N   0  3  0  0  0  0  0  0  0  0  0  0
   -4.8401   -6.3257   18.7852 C   0  0  1  0  0  0  0  0  0  0  0  0
   -4.3672   -5.0543   18.7831 O   0  0  0  0  0  0  0  0  0  0  0  0
   -5.7858   -6.5655   20.0082 C   0  0  2  0  0  0  0  0  0  0  0  0
   -5.0863   -6.2842   21.2386 O   0  0  0  0  0  0  0  0  0  0  0  0
   -6.2822   -8.0506   19.9638 C   0  0  2  0  0  0  0  0  0  0  0  0
   -6.9893   -8.3180   18.6918 O   0  0  0  0  0  0  0  0  0  0  0  0
   -7.2439   -8.4376   21.0931 C   0  0  2  0  0  0  0  0  0  0  0  0
   -7.6447   -9.7596   20.9344 O   0  0  0  0  0  0  0  0  0  0  0  0
   -8.5332   -7.5966   21.1205 C   0  0  0  0  0  0  0  0  0  0  0  0
   -3.7204  -11.6494   14.4897 C   0  0  2  0  0  0  0  0  0  0  0  0
   -3.6210  -12.8438   13.6128 N   0  3  0  0  0  0  0  0  0  0  0  0
   -3.5217  -12.0446   15.9831 C   0  0  0  0  0  0  0  0  0  0  0  0
   -3.6470  -10.7771   16.9039 C   0  0  2  0  0  0  0  0  0  0  0  0
   -3.4410  -11.1894   18.3407 N   0  3  0  0  0  0  0  0  0  0  0  0
   -5.0508  -10.1150   16.6863 C   0  0  2  0  0  0  0  0  0  0  0  0
   -5.2141   -9.7263   15.1966 C   0  0  2  0  0  0  0  0  0  0  0  0
   -6.4903   -9.1645   15.0069 O   0  0  0  0  0  0  0  0  0  0  0  0
   -5.1036  -10.9904   14.3027 C   0  0  1  0  0  0  0  0  0  0  0  0
   -5.2587  -10.6112   12.9430 O   0  0  0  0  0  0  0  0  0  0  0  0
   -4.4820   -9.5559   12.4473 C   0  0  2  0  0  0  0  0  0  0  0  0
   -5.1627   -9.0448   11.1635 C   0  0  2  0  0  0  0  0  0  0  0  0
   -6.4534   -8.5718   11.4843 O   0  0  0  0  0  0  0  0  0  0  0  0
   -5.2405  -10.2142   10.1236 C   0  0  1  0  0  0  0  0  0  0  0  0
   -5.9125   -9.8103    8.8645 N   0  3  0  0  0  0  0  0  0  0  0  0
   -5.3678   -8.5214    8.3664 C   0  0  0  0  0  0  0  0  0  0  0  0
   -3.7915  -10.7269    9.8160 C   0  0  2  0  0  0  0  0  0  0  0  0
   -2.9995   -9.6569    9.2671 O   0  0  0  0  0  0  0  0  0  0  0  0
   -3.7899  -11.8119    8.8516 C   0  0  0  0  0  0  0  0  0  0  0  0
   -3.0841  -11.1572   11.1380 C   0  0  0  0  0  0  0  0  0  0  0  0
   -3.1264  -10.0457   12.1437 O   0  0  0  0  0  0  0  0  0  0  0  0
  1  2  1  1  0  0  0
  1  3  1  0  0  0  0
  1 10  1  0  0  0  0
  3  4  1  6  0  0  0
  3  5  1  0  0  0  0
  5  6  1  6  0  0  0
  5  7  1  0  0  0  0
  7  8  1  1  0  0  0
  7  9  1  0  0  0  0
  9 10  1  6  0  0  0
  9 11  1  0  0  0  0
 11 12  1  6  0  0  0
 11 13  1  0  0  0  0
 14 15  1  6  0  0  0
 14 16  1  0  0  0  0
 14 22  1  0  0  0  0
 16 17  1  0  0  0  0
 17 18  1  1  0  0  0
 17 19  1  0  0  0  0
 19  2  1  1  0  0  0
 19 20  1  0  0  0  0
 20 21  1  1  0  0  0
 20 22  1  0  0  0  0
 22 23  1  6  0  0  0
 24 23  1  6  0  0  0
 24 25  1  0  0  0  0
 24 34  1  0  0  0  0
 25 26  1  1  0  0  0
 25 27  1  0  0  0  0
 27 28  1  6  0  0  0
 27 30  1  0  0  0  0
 28 29  1  0  0  0  0
 30 31  1  6  0  0  0
 30 32  1  0  0  0  0
 30 33  1  0  0  0  0
 33 34  1  0  0  0  0
M  CHG  4   4   1  15   1  18   1  28   1
M  END
>  <CHROM.1>
-136.30509082,176.88965695,57.13399350,47.55275027,-63.28322200,178.44338895
-51.43729922,-92.17556560,56.62469459,-174.90751516,-69.55645636,-160.89757213
65.23564247,167.90087149,170.40992062,-5.09028509,-9.23929925,15.19235523
2.07199407,-1.20546795,1.77242963

>  <Name>
1mwl

>  <RI>
0

>  <Rbt.Current_Directory>
/home/itssahil/PROJECTS/Mol_Feturizer/New_Systems/rnas/1mwl

>  <Rbt.Executable>
rbdock ($Id: //depot/dev/client3/rdock/2013.1/src/exe/rbdock.cxx#4 $)

>  <Rbt.Library>
libRbt.so (2013.1, Build901 2013/11/27)

>  <Rbt.Parameter_File>
/export/apps/rDock/src/rDock_2013.1_src/data/scripts/dock_solv.prm

>  <Rbt.Receptor>
prm/blind_docking_80.prm

>  <SCORE>
-23.1081

>  <SCORE.INTER>
-24.2392

>  <SCORE.INTER.CONST>
1

>  <SCORE.INTER.POLAR>
-4.84514

>  <SCORE.INTER.ROT>
6

>  <SCORE.INTER.SOLV>
26.2558

>  <SCORE.INTER.VDW>
-16.3609

>  <SCORE.INTER.norm>
-0.712917

>  <SCORE.INTRA>
-12.8862

>  <SCORE.INTRA.DIHEDRAL>
-29.7239

>  <SCORE.INTRA.DIHEDRAL.0>
42.0816

>  <SCORE.INTRA.POLAR>
0.12831

>  <SCORE.INTRA.POLAR.0>
-0.254682

>  <SCORE.INTRA.REPUL>
0

>  <SCORE.INTRA.REPUL.0>
0

>  <SCORE.INTRA.SOLV>
-1.66116

>  <SCORE.INTRA.SOLV.lig_0>
-109.803

>  <SCORE.INTRA.VDW>
2.3701

>  <SCORE.INTRA.VDW.0>
0.32176

>  <SCORE.INTRA.norm>
-0.379006

>  <SCORE.RESTR>
14.0173

>  <SCORE.RESTR.CAVITY>
14.0173

>  <SCORE.RESTR.norm>
0.412272

>  <SCORE.SYSTEM>
0

>  <SCORE.SYSTEM.CONST>
0

>  <SCORE.SYSTEM.DIHEDRAL>
0

>  <SCORE.SYSTEM.SOLV>
0

>  <SCORE.SYSTEM.norm>
0

>  <SCORE.heavy>
34

>  <SCORE.norm>
-0.67965

>  <RMSD>
18.914

$$$$
1mwl
 OpenBabel11021811403D
libRbt.so/2013.1/901 2013/11/27
 34 36  0  0  0  0  0  0  0  0999 V2000
   -4.5316   -6.4458   17.9108 C   0  0  2  0  0  0  0  0  0  0  0  0
   -3.6468   -7.5234   17.9769 O   0  0  0  0  0  0  0  0  0  0  0  0
   -4.7220   -5.9105   19.3579 C   0  0  2  0  0  0  0  0  0  0  0  0
   -3.4309   -5.5016   19.9194 N   0  3  0  0  0  0  0  0  0  0  0  0
   -5.4192   -6.9785   20.2506 C   0  0  1  0  0  0  0  0  0  0  0  0
   -5.6119   -6.5091   21.5087 O   0  0  0  0  0  0  0  0  0  0  0  0
   -6.7812   -7.3704   19.5883 C   0  0  2  0  0  0  0  0  0  0  0  0
   -7.4609   -8.3540   20.3963 O   0  0  0  0  0  0  0  0  0  0  0  0
   -6.4903   -7.9195   18.1503 C   0  0  2  0  0  0  0  0  0  0  0  0
   -5.7874   -6.8981   17.3429 O   0  0  0  0  0  0  0  0  0  0  0  0
   -7.7369   -8.3279   17.3571 C   0  0  2  0  0  0  0  0  0  0  0  0
   -8.4430   -9.2973   18.0607 O   0  0  0  0  0  0  0  0  0  0  0  0
   -7.4188   -8.9402   15.9808 C   0  0  0  0  0  0  0  0  0  0  0  0
   -3.3228  -11.6018   16.7435 C   0  0  2  0  0  0  0  0  0  0  0  0
   -3.6819  -13.0117   16.4456 N   0  3  0  0  0  0  0  0  0  0  0  0
   -3.4846  -11.3016   18.2632 C   0  0  0  0  0  0  0  0  0  0  0  0
   -3.1201   -9.8029   18.5649 C   0  0  2  0  0  0  0  0  0  0  0  0
   -3.2770   -9.5453   20.0433 N   0  3  0  0  0  0  0  0  0  0  0  0
   -4.0403   -8.8638   17.7119 C   0  0  2  0  0  0  0  0  0  0  0  0
   -3.8506   -9.1802   16.2082 C   0  0  2  0  0  0  0  0  0  0  0  0
   -4.7061   -8.3552   15.4549 O   0  0  0  0  0  0  0  0  0  0  0  0
   -4.2296  -10.6584   15.9247 C   0  0  1  0  0  0  0  0  0  0  0  0
   -4.0507  -10.9253   14.5415 O   0  0  0  0  0  0  0  0  0  0  0  0
   -5.0911  -11.5447   13.8368 C   0  0  2  0  0  0  0  0  0  0  0  0
   -4.5580  -11.8880   12.4330 C   0  0  2  0  0  0  0  0  0  0  0  0
   -3.4737  -12.7830   12.5589 O   0  0  0  0  0  0  0  0  0  0  0  0
   -4.1104  -10.5680   11.7172 C   0  0  1  0  0  0  0  0  0  0  0  0
   -3.5546  -10.8162   10.3646 N   0  3  0  0  0  0  0  0  0  0  0  0
   -4.5230  -11.5688    9.5268 C   0  0  0  0  0  0  0  0  0  0  0  0
   -5.3345   -9.5934   11.6221 C   0  0  2  0  0  0  0  0  0  0  0  0
   -6.3924  -10.2084   10.8632 O   0  0  0  0  0  0  0  0  0  0  0  0
   -4.9897   -8.3473   10.9621 C   0  0  0  0  0  0  0  0  0  0  0  0
   -5.9180   -9.3266   13.0439 C   0  0  0  0  0  0  0  0  0  0  0  0
   -6.2328  -10.6196   13.7351 O   0  0  0  0  0  0  0  0  0  0  0  0
  1  2  1  1  0  0  0
  1  3  1  0  0  0  0
  1 10  1  0  0  0  0
  3  4  1  1  0  0  0
  3  5  1  0  0  0  0
  5  6  1  1  0  0  0
  5  7  1  0  0  0  0
  7  8  1  1  0  0  0
  7  9  1  0  0  0  0
  9 10  1  6  0  0  0
  9 11  1  0  0  0  0
 11 12  1  1  0  0  0
 11 13  1  0  0  0  0
 14 15  1  1  0  0  0
 14 16  1  0  0  0  0
 14 22  1  0  0  0  0
 16 17  1  0  0  0  0
 17 18  1  1  0  0  0
 17 19  1  0  0  0  0
 19  2  1  6  0  0  0
 19 20  1  0  0  0  0
 20 21  1  6  0  0  0
 20 22  1  0  0  0  0
 22 23  1  6  0  0  0
 24 23  1  1  0  0  0
 24 25  1  0  0  0  0
 24 34  1  0  0  0  0
 25 26  1  1  0  0  0
 25 27  1  0  0  0  0
 27 28  1  6  0  0  0
 27 30  1  0  0  0  0
 28 29  1  0  0  0  0
 30 31  1  6  0  0  0
 30 32  1  0  0  0  0
 30 33  1  0  0  0  0
 33 34  1  0  0  0  0
M  CHG  4   4   1  15   1  18   1  28   1
M  END
>  <CHROM.1>
112.10978127,-150.53545225,-113.00365199,-66.83170585,59.34820910,-57.87444078
50.36114233,65.54482375,-53.71701840,49.33808639,109.42025593,-172.19272512
-56.17980451,175.34101457,62.90242127,-4.98659713,-9.31305904,16.03350425
1.68187782,-0.82981452,1.23416683

>  <Name>
1mwl

>  <RI>
0

>  <Rbt.Current_Directory>
/home/itssahil/PROJECTS/Mol_Feturizer/New_Systems/rnas/1mwl

>  <Rbt.Executable>
rbdock ($Id: //depot/dev/client3/rdock/2013.1/src/exe/rbdock.cxx#4 $)

>  <Rbt.Library>
libRbt.so (2013.1, Build901 2013/11/27)

>  <Rbt.Parameter_File>
/export/apps/rDock/src/rDock_2013.1_src/data/scripts/dock_solv.prm

>  <Rbt.Receptor>
prm/blind_docking_80.prm

>  <SCORE>
-2.39061

>  <SCORE.INTER>
-7.55501

>  <SCORE.INTER.CONST>
1

>  <SCORE.INTER.POLAR>
-1.02813

>  <SCORE.INTER.ROT>
6

>  <SCORE.INTER.SOLV>
21.2386

>  <SCORE.INTER.VDW>
-16.2891

>  <SCORE.INTER.norm>
-0.222206

>  <SCORE.INTRA>
-8.3516

>  <SCORE.INTRA.DIHEDRAL>
-19.5798

>  <SCORE.INTRA.DIHEDRAL.0>
42.0816

>  <SCORE.INTRA.POLAR>
-0.66879

>  <SCORE.INTRA.POLAR.0>
-0.254682

>  <SCORE.INTRA.REPUL>
0

>  <SCORE.INTRA.REPUL.0>
0

>  <SCORE.INTRA.SOLV>
0.928598

>  <SCORE.INTRA.SOLV.lig_0>
-109.803

>  <SCORE.INTRA.VDW>
3.24788

>  <SCORE.INTRA.VDW.0>
0.32176

>  <SCORE.INTRA.norm>
-0.245635

>  <SCORE.RESTR>
13.516

>  <SCORE.RESTR.CAVITY>
13.516

>  <SCORE.RESTR.norm>
0.397529

>  <SCORE.SYSTEM>
0

>  <SCORE.SYSTEM.CONST>
0

>  <SCORE.SYSTEM.DIHEDRAL>
0

>  <SCORE.SYSTEM.SOLV>
0

>  <SCORE.SYSTEM.norm>
0

>  <SCORE.heavy>
34

>  <SCORE.norm>
-0.0703121

>  <RMSD>
18.923

$$$$
1mwl
 OpenBabel11021811403D
libRbt.so/2013.1/901 2013/11/27
 34 36  0  0  0  0  0  0  0  0999 V2000
   -4.2677   -8.4176   19.8363 C   0  0  2  0  0  0  0  0  0  0  0  0
   -3.4499   -8.8193   18.7787 O   0  0  0  0  0  0  0  0  0  0  0  0
   -5.2127   -7.3067   19.2980 C   0  0  2  0  0  0  0  0  0  0  0  0
   -6.0086   -7.8191   18.1785 N   0  3  0  0  0  0  0  0  0  0  0  0
   -4.3983   -6.0449   18.8878 C   0  0  1  0  0  0  0  0  0  0  0  0
   -5.2187   -5.0614   18.4409 O   0  0  0  0  0  0  0  0  0  0  0  0
   -3.5717   -5.5607   20.1247 C   0  0  2  0  0  0  0  0  0  0  0  0
   -2.8103   -4.3836   19.7824 O   0  0  0  0  0  0  0  0  0  0  0  0
   -2.6349   -6.7305   20.5803 C   0  0  2  0  0  0  0  0  0  0  0  0
   -3.4357   -7.9278   20.9189 O   0  0  0  0  0  0  0  0  0  0  0  0
   -1.7699   -6.4170   21.8065 C   0  0  2  0  0  0  0  0  0  0  0  0
   -1.0376   -7.5437   22.1635 O   0  0  0  0  0  0  0  0  0  0  0  0
   -2.5850   -6.0203   23.0509 C   0  0  0  0  0  0  0  0  0  0  0  0
   -3.0098  -11.6981   15.6518 C   0  0  2  0  0  0  0  0  0  0  0  0
   -3.3078  -12.8132   14.7173 N   0  3  0  0  0  0  0  0  0  0  0  0
   -2.9990  -12.2025   17.1253 C   0  0  0  0  0  0  0  0  0  0  0  0
   -2.7011  -11.0118   18.1070 C   0  0  2  0  0  0  0  0  0  0  0  0
   -2.6879  -11.5322   19.5233 N   0  3  0  0  0  0  0  0  0  0  0  0
   -3.7825   -9.8946   17.9100 C   0  0  2  0  0  0  0  0  0  0  0  0
   -3.7625   -9.4087   16.4401 C   0  0  2  0  0  0  0  0  0  0  0  0
   -4.7596   -8.4310   16.2671 O   0  0  0  0  0  0  0  0  0  0  0  0
   -4.0738  -10.5923   15.4853 C   0  0  1  0  0  0  0  0  0  0  0  0
   -4.0527  -10.1239   14.1449 O   0  0  0  0  0  0  0  0  0  0  0  0
   -5.2627   -9.7535   13.5438 C   0  0  2  0  0  0  0  0  0  0  0  0
   -5.8061  -10.9881   12.8000 C   0  0  2  0  0  0  0  0  0  0  0  0
   -6.0385  -12.0216   13.7330 O   0  0  0  0  0  0  0  0  0  0  0  0
   -4.7632  -11.4367   11.7202 C   0  0  1  0  0  0  0  0  0  0  0  0
   -5.1998  -12.6433   10.9762 N   0  3  0  0  0  0  0  0  0  0  0  0
   -5.0370  -13.8630   11.8081 C   0  0  0  0  0  0  0  0  0  0  0  0
   -4.5142  -10.2538   10.7223 C   0  0  2  0  0  0  0  0  0  0  0  0
   -5.7469   -9.8955   10.0700 O   0  0  0  0  0  0  0  0  0  0  0  0
   -3.5577  -10.6046    9.6881 C   0  0  0  0  0  0  0  0  0  0  0  0
   -4.0500   -8.9848   11.5015 C   0  0  0  0  0  0  0  0  0  0  0  0
   -5.0217   -8.6533   12.5945 O   0  0  0  0  0  0  0  0  0  0  0  0
  1  2  1  6  0  0  0
  1  3  1  0  0  0  0
  1 10  1  0  0  0  0
  3  4  1  6  0  0  0
  3  5  1  0  0  0  0
  5  6  1  1  0  0  0
  5  7  1  0  0  0  0
  7  8  1  6  0  0  0
  7  9  1  0  0  0  0
  9 10  1  1  0  0  0
  9 11  1  0  0  0  0
 11 12  1  1  0  0  0
 11 13  1  0  0  0  0
 14 15  1  6  0  0  0
 14 16  1  0  0  0  0
 14 22  1  0  0  0  0
 16 17  1  0  0  0  0
 17 18  1  1  0  0  0
 17 19  1  0  0  0  0
 19  2  1  1  0  0  0
 19 20  1  0  0  0  0
 20 21  1  1  0  0  0
 20 22  1  0  0  0  0
 22 23  1  6  0  0  0
 24 23  1  6  0  0  0
 24 25  1  0  0  0  0
 24 34  1  0  0  0  0
 25 26  1  1  0  0  0
 25 27  1  0  0  0  0
 27 28  1  6  0  0  0
 27 30  1  0  0  0  0
 28 29  1  0  0  0  0
 30 31  1  6  0  0  0
 30 32  1  0  0  0  0
 30 33  1  0  0  0  0
 33 34  1  0  0  0  0
M  CHG  4   4   1  15   1  18   1  28   1
M  END
>  <CHROM.1>
-91.71371893,-115.96843094,77.82236421,-108.27877059,-106.53937513,176.76002681
174.16306171,93.96288277,-175.24335107,176.93701157,144.37028692,-92.90124889
64.14861818,44.32780096,177.14201845,-4.02745863,-9.25562137,16.36134226
-1.06382573,1.20926231,-2.50867386

>  <Name>
1mwl

>  <RI>
0

>  <Rbt.Current_Directory>
/home/itssahil/PROJECTS/Mol_Feturizer/New_Systems/rnas/1mwl

>  <Rbt.Executable>
rbdock ($Id: //depot/dev/client3/rdock/2013.1/src/exe/rbdock.cxx#4 $)

>  <Rbt.Library>
libRbt.so (2013.1, Build901 2013/11/27)

>  <Rbt.Parameter_File>
/export/apps/rDock/src/rDock_2013.1_src/data/scripts/dock_solv.prm

>  <Rbt.Receptor>
prm/blind_docking_80.prm

>  <SCORE>
-8.03647

>  <SCORE.INTER>
-23.3755

>  <SCORE.INTER.CONST>
1

>  <SCORE.INTER.POLAR>
-4.23345

>  <SCORE.INTER.ROT>
6

>  <SCORE.INTER.SOLV>
17.9994

>  <SCORE.INTER.VDW>
-15.072

>  <SCORE.INTER.norm>
-0.687515

>  <SCORE.INTRA>
-3.08053

>  <SCORE.INTRA.DIHEDRAL>
-5.42287

>  <SCORE.INTRA.DIHEDRAL.0>
42.0816

>  <SCORE.INTRA.POLAR>
-1.35481

>  <SCORE.INTRA.POLAR.0>
-0.254682

>  <SCORE.INTRA.REPUL>
0

>  <SCORE.INTRA.REPUL.0>
0

>  <SCORE.INTRA.SOLV>
4.6872

>  <SCORE.INTRA.SOLV.lig_0>
-109.803

>  <SCORE.INTRA.VDW>
1.89367

>  <SCORE.INTRA.VDW.0>
0.32176

>  <SCORE.INTRA.norm>
-0.0906037

>  <SCORE.RESTR>
18.4196

>  <SCORE.RESTR.CAVITY>
18.4196

>  <SCORE.RESTR.norm>
0.541752

>  <SCORE.SYSTEM>
0

>  <SCORE.SYSTEM.CONST>
0

>  <SCORE.SYSTEM.DIHEDRAL>
0

>  <SCORE.SYSTEM.SOLV>
0

>  <SCORE.SYSTEM.norm>
0

>  <SCORE.heavy>
34

>  <SCORE.norm>
-0.236367

>  <RMSD>
18.968

$$$$
1mwl
 OpenBabel11021811403D
libRbt.so/2013.1/901 2013/11/27
 34 36  0  0  0  0  0  0  0  0999 V2000
   -4.4705   -9.4568   18.9608 C   0  0  2  0  0  0  0  0  0  0  0  0
   -3.9013   -9.5988   17.6941 O   0  0  0  0  0  0  0  0  0  0  0  0
   -5.9198   -8.9300   18.7635 C   0  0  2  0  0  0  0  0  0  0  0  0
   -6.6899   -9.8663   17.9391 N   0  3  0  0  0  0  0  0  0  0  0  0
   -5.9048   -7.5027   18.1421 C   0  0  1  0  0  0  0  0  0  0  0  0
   -7.1657   -7.0258   17.9905 O   0  0  0  0  0  0  0  0  0  0  0  0
   -5.0626   -6.5642   19.0680 C   0  0  2  0  0  0  0  0  0  0  0  0
   -5.0356   -5.2270   18.5261 O   0  0  0  0  0  0  0  0  0  0  0  0
   -3.6178   -7.1575   19.1882 C   0  0  2  0  0  0  0  0  0  0  0  0
   -3.6703   -8.5300   19.7385 O   0  0  0  0  0  0  0  0  0  0  0  0
   -2.6703   -6.3569   20.0889 C   0  0  2  0  0  0  0  0  0  0  0  0
   -1.9829   -7.2226   20.9323 O   0  0  0  0  0  0  0  0  0  0  0  0
   -3.3921   -5.3486   21.0015 C   0  0  0  0  0  0  0  0  0  0  0  0
   -3.9729  -11.9702   14.1402 C   0  0  2  0  0  0  0  0  0  0  0  0
   -4.4194  -12.9392   13.1072 N   0  3  0  0  0  0  0  0  0  0  0  0
   -3.7316  -12.6883   15.5011 C   0  0  0  0  0  0  0  0  0  0  0  0
   -3.2774  -11.6516   16.5916 C   0  0  2  0  0  0  0  0  0  0  0  0
   -3.0428  -12.3769   17.8937 N   0  3  0  0  0  0  0  0  0  0  0  0
   -4.3715  -10.5389   16.7366 C   0  0  2  0  0  0  0  0  0  0  0  0
   -4.5819   -9.8391   15.3717 C   0  0  2  0  0  0  0  0  0  0  0  0
   -5.5897   -8.8662   15.5061 O   0  0  0  0  0  0  0  0  0  0  0  0
   -5.0451  -10.8730   14.3107 C   0  0  1  0  0  0  0  0  0  0  0  0
   -5.2340  -10.2097   13.0693 O   0  0  0  0  0  0  0  0  0  0  0  0
   -4.2304   -9.3474   12.6090 C   0  0  2  0  0  0  0  0  0  0  0  0
   -4.7700   -8.6404   11.3513 C   0  0  2  0  0  0  0  0  0  0  0  0
   -5.9141   -7.8908   11.7002 O   0  0  0  0  0  0  0  0  0  0  0  0
   -5.1185   -9.7167   10.2674 C   0  0  1  0  0  0  0  0  0  0  0  0
   -5.6748   -9.1169    9.0301 N   0  3  0  0  0  0  0  0  0  0  0  0
   -7.1597   -9.1372    9.0561 C   0  0  0  0  0  0  0  0  0  0  0  0
   -3.8299  -10.5426    9.9289 C   0  0  2  0  0  0  0  0  0  0  0  0
   -2.8079   -9.6675    9.4159 O   0  0  0  0  0  0  0  0  0  0  0  0
   -4.0816  -11.5586    8.9231 C   0  0  0  0  0  0  0  0  0  0  0  0
   -3.2455  -11.1789   11.2277 C   0  0  0  0  0  0  0  0  0  0  0  0
   -3.0273  -10.1292   12.2762 O   0  0  0  0  0  0  0  0  0  0  0  0
  1  2  1  6  0  0  0
  1  3  1  0  0  0  0
  1 10  1  0  0  0  0
  3  4  1  6  0  0  0
  3  5  1  0  0  0  0
  5  6  1  1  0  0  0
  5  7  1  0  0  0  0
  7  8  1  6  0  0  0
  7  9  1  0  0  0  0
  9 10  1  1  0  0  0
  9 11  1  0  0  0  0
 11 12  1  1  0  0  0
 11 13  1  0  0  0  0
 14 15  1  6  0  0  0
 14 16  1  0  0  0  0
 14 22  1  0  0  0  0
 16 17  1  0  0  0  0
 17 18  1  1  0  0  0
 17 19  1  0  0  0  0
 19  2  1  1  0  0  0
 19 20  1  0  0  0  0
 20 21  1  1  0  0  0
 20 22  1  0  0  0  0
 22 23  1  6  0  0  0
 24 23  1  6  0  0  0
 24 25  1  0  0  0  0
 24 34  1  0  0  0  0
 25 26  1  1  0  0  0
 25 27  1  0  0  0  0
 27 28  1  6  0  0  0
 27 30  1  0  0  0  0
 28 29  1  0  0  0  0
 30 31  1  6  0  0  0
 30 32  1  0  0  0  0
 30 33  1  0  0  0  0
 33 34  1  0  0  0  0
M  CHG  4   4   1  15   1  18   1  28   1
M  END
>  <CHROM.1>
-65.47996231,-110.26746063,-83.48592125,-42.57884904,46.48720238,134.31816302
64.30414633,157.30824064,58.82676228,106.76794810,-72.19107986,-172.99106063
98.16427672,24.42552473,168.48376382,-4.50186230,-9.32678603,15.17647353
-1.45663302,1.17455526,-1.96540608

>  <Name>
1mwl

>  <RI>
0

>  <Rbt.Current_Directory>
/home/itssahil/PROJECTS/Mol_Feturizer/New_Systems/rnas/1mwl

>  <Rbt.Executable>
rbdock ($Id: //depot/dev/client3/rdock/2013.1/src/exe/rbdock.cxx#4 $)

>  <Rbt.Library>
libRbt.so (2013.1, Build901 2013/11/27)

>  <Rbt.Parameter_File>
/export/apps/rDock/src/rDock_2013.1_src/data/scripts/dock_solv.prm

>  <Rbt.Receptor>
prm/blind_docking_80.prm

>  <SCORE>
-19.6993

>  <SCORE.INTER>
-29.2628

>  <SCORE.INTER.CONST>
1

>  <SCORE.INTER.POLAR>
-5.35944

>  <SCORE.INTER.ROT>
6

>  <SCORE.INTER.SOLV>
21.209

>  <SCORE.INTER.VDW>
-16.3134

>  <SCORE.INTER.norm>
-0.86067

>  <SCORE.INTRA>
-2.18094

>  <SCORE.INTRA.DIHEDRAL>
-10.5754

>  <SCORE.INTRA.DIHEDRAL.0>
42.0816

>  <SCORE.INTRA.POLAR>
-0.974948

>  <SCORE.INTRA.POLAR.0>
-0.254682

>  <SCORE.INTRA.REPUL>
0

>  <SCORE.INTRA.REPUL.0>
0

>  <SCORE.INTRA.SOLV>
4.43316

>  <SCORE.INTRA.SOLV.lig_0>
-109.803

>  <SCORE.INTRA.VDW>
4.20501

>  <SCORE.INTRA.VDW.0>
0.32176

>  <SCORE.INTRA.norm>
-0.0641452

>  <SCORE.RESTR>
11.7444

>  <SCORE.RESTR.CAVITY>
11.7444

>  <SCORE.RESTR.norm>
0.345425

>  <SCORE.SYSTEM>
0

>  <SCORE.SYSTEM.CONST>
0

>  <SCORE.SYSTEM.DIHEDRAL>
0

>  <SCORE.SYSTEM.SOLV>
0

>  <SCORE.SYSTEM.norm>
0

>  <SCORE.heavy>
34

>  <SCORE.norm>
-0.57939

>  <RMSD>
19.002

$$$$
1mwl
 OpenBabel11021811403D
libRbt.so/2013.1/901 2013/11/27
 34 36  0  0  0  0  0  0  0  0999 V2000
   -4.8401   -9.3894   18.7409 C   0  0  2  0  0  0  0  0  0  0  0  0
   -4.2241   -9.4917   17.4924 O   0  0  0  0  0  0  0  0  0  0  0  0
   -6.0675   -8.4491   18.5786 C   0  0  2  0  0  0  0  0  0  0  0  0
   -6.9898   -8.9907   17.5760 N   0  3  0  0  0  0  0  0  0  0  0  0
   -5.6093   -7.0073   18.2115 C   0  0  1  0  0  0  0  0  0  0  0  0
   -6.6737   -6.1747   18.0933 O   0  0  0  0  0  0  0  0  0  0  0  0
   -4.6259   -6.4995   19.3173 C   0  0  2  0  0  0  0  0  0  0  0  0
   -4.1877   -5.1586   19.0136 O   0  0  0  0  0  0  0  0  0  0  0  0
   -3.4144   -7.4896   19.3921 C   0  0  2  0  0  0  0  0  0  0  0  0
   -3.8874   -8.8580   19.6970 O   0  0  0  0  0  0  0  0  0  0  0  0
   -2.3658   -7.1384   20.4537 C   0  0  2  0  0  0  0  0  0  0  0  0
   -1.7292   -8.2971   20.8845 O   0  0  0  0  0  0  0  0  0  0  0  0
   -2.9591   -6.4793   21.7122 C   0  0  0  0  0  0  0  0  0  0  0  0
   -3.8585  -12.0022   14.0540 C   0  0  2  0  0  0  0  0  0  0  0  0
   -4.1520  -13.0474   13.0406 N   0  3  0  0  0  0  0  0  0  0  0  0
   -3.6491  -12.6409   15.4590 C   0  0  0  0  0  0  0  0  0  0  0  0
   -3.3575  -11.5255   16.5271 C   0  0  2  0  0  0  0  0  0  0  0  0
   -3.1502  -12.1743   17.8735 N   0  3  0  0  0  0  0  0  0  0  0  0
   -4.5486  -10.5071   16.5515 C   0  0  2  0  0  0  0  0  0  0  0  0
   -4.7255   -9.8840   15.1452 C   0  0  2  0  0  0  0  0  0  0  0  0
   -5.8182   -8.9978   15.1709 O   0  0  0  0  0  0  0  0  0  0  0  0
   -5.0282  -10.9964   14.1058 C   0  0  1  0  0  0  0  0  0  0  0  0
   -5.1889  -10.4028   12.8259 O   0  0  0  0  0  0  0  0  0  0  0  0
   -4.2437   -9.4611   12.3987 C   0  0  2  0  0  0  0  0  0  0  0  0
   -4.8194   -8.7609   11.1532 C   0  0  2  0  0  0  0  0  0  0  0  0
   -6.0163   -8.1020   11.5081 O   0  0  0  0  0  0  0  0  0  0  0  0
   -5.0817   -9.8305   10.0387 C   0  0  1  0  0  0  0  0  0  0  0  0
   -5.6669   -9.2389    8.8108 N   0  3  0  0  0  0  0  0  0  0  0  0
   -7.1264   -9.0182    8.9761 C   0  0  0  0  0  0  0  0  0  0  0  0
   -3.7355  -10.5557    9.6940 C   0  0  2  0  0  0  0  0  0  0  0  0
   -2.7723   -9.5986    9.2147 O   0  0  0  0  0  0  0  0  0  0  0  0
   -3.9061  -11.5603    8.6601 C   0  0  0  0  0  0  0  0  0  0  0  0
   -3.1204  -11.1832   10.9827 C   0  0  0  0  0  0  0  0  0  0  0  0
   -2.9858  -10.1485   12.0597 O   0  0  0  0  0  0  0  0  0  0  0  0
  1  2  1  6  0  0  0
  1  3  1  0  0  0  0
  1 10  1  0  0  0  0
  3  4  1  6  0  0  0
  3  5  1  0  0  0  0
  5  6  1  1  0  0  0
  5  7  1  0  0  0  0
  7  8  1  6  0  0  0
  7  9  1  0  0  0  0
  9 10  1  1  0  0  0
  9 11  1  0  0  0  0
 11 12  1  1  0  0  0
 11 13  1  0  0  0  0
 14 15  1  6  0  0  0
 14 16  1  0  0  0  0
 14 22  1  0  0  0  0
 16 17  1  0  0  0  0
 17 18  1  1  0  0  0
 17 19  1  0  0  0  0
 19  2  1  1  0  0  0
 19 20  1  0  0  0  0
 20 21  1  1  0  0  0
 20 22  1  0  0  0  0
 22 23  1  6  0  0  0
 24 23  1  6  0  0  0
 24 25  1  0  0  0  0
 24 34  1  0  0  0  0
 25 26  1  1  0  0  0
 25 27  1  0  0  0  0
 27 28  1  6  0  0  0
 27 30  1  0  0  0  0
 28 29  1  0  0  0  0
 30 31  1  6  0  0  0
 30 32  1  0  0  0  0
 30 33  1  0  0  0  0
 33 34  1  0  0  0  0
M  CHG  4   4   1  15   1  18   1  28   1
M  END
>  <CHROM.1>
-91.42854212,-106.95146790,-82.66189776,173.26557167,52.09728405,151.93845554
179.83593208,-74.70917032,-45.73423161,-92.07409587,-73.12341315,-167.48477083
-48.83387327,40.12426364,172.14331277,-4.44030645,-9.36599573,15.10176213
-1.45212592,1.06464734,-1.94147003

>  <Name>
1mwl

>  <RI>
0

>  <Rbt.Current_Directory>
/home/itssahil/PROJECTS/Mol_Feturizer/New_Systems/rnas/1mwl

>  <Rbt.Executable>
rbdock ($Id: //depot/dev/client3/rdock/2013.1/src/exe/rbdock.cxx#4 $)

>  <Rbt.Library>
libRbt.so (2013.1, Build901 2013/11/27)

>  <Rbt.Parameter_File>
/export/apps/rDock/src/rDock_2013.1_src/data/scripts/dock_solv.prm

>  <Rbt.Receptor>
prm/blind_docking_80.prm

>  <SCORE>
-7.93062

>  <SCORE.INTER>
-15.345

>  <SCORE.INTER.CONST>
1

>  <SCORE.INTER.POLAR>
-3.76917

>  <SCORE.INTER.ROT>
6

>  <SCORE.INTER.SOLV>
21.5187

>  <SCORE.INTER.VDW>
-12.439

>  <SCORE.INTER.norm>
-0.451323

>  <SCORE.INTRA>
-6.93045

>  <SCORE.INTRA.DIHEDRAL>
-19.4749

>  <SCORE.INTRA.DIHEDRAL.0>
42.0816

>  <SCORE.INTRA.POLAR>
-0.816418

>  <SCORE.INTRA.POLAR.0>
-0.254682

>  <SCORE.INTRA.REPUL>
0

>  <SCORE.INTRA.REPUL.0>
0

>  <SCORE.INTRA.SOLV>
2.61456

>  <SCORE.INTRA.SOLV.lig_0>
-109.803

>  <SCORE.INTRA.VDW>
4.27555

>  <SCORE.INTRA.VDW.0>
0.32176

>  <SCORE.INTRA.norm>
-0.203837

>  <SCORE.RESTR>
14.3448

>  <SCORE.RESTR.CAVITY>
14.3448

>  <SCORE.RESTR.norm>
0.421906

>  <SCORE.SYSTEM>
0

>  <SCORE.SYSTEM.CONST>
0

>  <SCORE.SYSTEM.DIHEDRAL>
0

>  <SCORE.SYSTEM.SOLV>
0

>  <SCORE.SYSTEM.norm>
0

>  <SCORE.heavy>
34

>  <SCORE.norm>
-0.233253

>  <RMSD>
19.078

$$$$
1mwl
 OpenBabel11021811403D
libRbt.so/2013.1/901 2013/11/27
 34 36  0  0  0  0  0  0  0  0999 V2000
   -4.4267   -9.5854   18.7236 C   0  0  2  0  0  0  0  0  0  0  0  0
   -3.8542   -9.7093   17.4565 O   0  0  0  0  0  0  0  0  0  0  0  0
   -5.9552   -9.3817   18.5258 C   0  0  2  0  0  0  0  0  0  0  0  0
   -6.5261  -10.5178   17.7957 N   0  3  0  0  0  0  0  0  0  0  0  0
   -6.2396   -8.0355   17.7976 C   0  0  1  0  0  0  0  0  0  0  0  0
   -7.5730   -7.8385   17.6442 O   0  0  0  0  0  0  0  0  0  0  0  0
   -5.5976   -6.8744   18.6267 C   0  0  2  0  0  0  0  0  0  0  0  0
   -5.8509   -5.6074   17.9843 O   0  0  0  0  0  0  0  0  0  0  0  0
   -4.0607   -7.1500   18.7528 C   0  0  2  0  0  0  0  0  0  0  0  0
   -3.8251   -8.4562   19.4069 O   0  0  0  0  0  0  0  0  0  0  0  0
   -3.2877   -6.1043   19.5644 C   0  0  2  0  0  0  0  0  0  0  0  0
   -2.2721   -6.7258   20.2825 O   0  0  0  0  0  0  0  0  0  0  0  0
   -4.1543   -5.3619   20.5979 C   0  0  0  0  0  0  0  0  0  0  0  0
   -3.7197  -12.1587   13.9577 C   0  0  2  0  0  0  0  0  0  0  0  0
   -4.0578  -13.2120   12.9669 N   0  3  0  0  0  0  0  0  0  0  0  0
   -3.3098  -12.7945   15.3192 C   0  0  0  0  0  0  0  0  0  0  0  0
   -2.9720  -11.6717   16.3657 C   0  0  2  0  0  0  0  0  0  0  0  0
   -2.5703  -12.3172   17.6689 N   0  3  0  0  0  0  0  0  0  0  0  0
   -4.2167  -10.7357   16.5417 C   0  0  2  0  0  0  0  0  0  0  0  0
   -4.5935  -10.1132   15.1751 C   0  0  2  0  0  0  0  0  0  0  0  0
   -5.7318   -9.3025   15.3391 O   0  0  0  0  0  0  0  0  0  0  0  0
   -4.9393  -11.2340   14.1584 C   0  0  1  0  0  0  0  0  0  0  0  0
   -5.2836  -10.6411   12.9149 O   0  0  0  0  0  0  0  0  0  0  0  0
   -4.4979   -9.5859   12.4334 C   0  0  2  0  0  0  0  0  0  0  0  0
   -5.1842   -9.0391   11.1674 C   0  0  2  0  0  0  0  0  0  0  0  0
   -6.4654   -8.5561   11.5109 O   0  0  0  0  0  0  0  0  0  0  0  0
   -5.2878  -10.1854   10.1042 C   0  0  1  0  0  0  0  0  0  0  0  0
   -5.9666   -9.7464    8.8606 N   0  3  0  0  0  0  0  0  0  0  0  0
   -5.3310   -8.5184    8.3185 C   0  0  0  0  0  0  0  0  0  0  0  0
   -3.8488  -10.7105    9.7715 C   0  0  2  0  0  0  0  0  0  0  0  0
   -3.0480   -9.6397    9.2370 O   0  0  0  0  0  0  0  0  0  0  0  0
   -3.8710  -11.7749    8.7847 C   0  0  0  0  0  0  0  0  0  0  0  0
   -3.1343  -11.1776   11.0770 C   0  0  0  0  0  0  0  0  0  0  0  0
   -3.1520  -10.0869   12.1061 O   0  0  0  0  0  0  0  0  0  0  0  0
  1  2  1  6  0  0  0
  1  3  1  0  0  0  0
  1 10  1  0  0  0  0
  3  4  1  6  0  0  0
  3  5  1  0  0  0  0
  5  6  1  1  0  0  0
  5  7  1  0  0  0  0
  7  8  1  6  0  0  0
  7  9  1  0  0  0  0
  9 10  1  1  0  0  0
  9 11  1  0  0  0  0
 11 12  1  1  0  0  0
 11 13  1  0  0  0  0
 14 15  1  6  0  0  0
 14 16  1  0  0  0  0
 14 22  1  0  0  0  0
 16 17  1  0  0  0  0
 17 18  1  1  0  0  0
 17 19  1  0  0  0  0
 19  2  1  1  0  0  0
 19 20  1  0  0  0  0
 20 21  1  1  0  0  0
 20 22  1  0  0  0  0
 22 23  1  6  0  0  0
 24 23  1  6  0  0  0
 24 25  1  0  0  0  0
 24 34  1  0  0  0  0
 25 26  1  1  0  0  0
 25 27  1  0  0  0  0
 27 28  1  6  0  0  0
 27 30  1  0  0  0  0
 28 29  1  0  0  0  0
 30 31  1  6  0  0  0
 30 32  1  0  0  0  0
 30 33  1  0  0  0  0
 33 34  1  0  0  0  0
M  CHG  4   4   1  15   1  18   1  28   1
M  END
>  <CHROM.1>
-59.98397471,-113.34041996,152.42177275,64.00960039,-169.51207492,144.46308079
170.43950691,-78.49265259,-55.25377804,175.06337909,-76.48160391,-173.73954649
169.09170826,172.87745862,175.25791813,-4.56913085,-9.52991927,14.91026660
-1.57660031,1.14096943,-1.86450637

>  <Name>
1mwl

>  <RI>
0

>  <Rbt.Current_Directory>
/home/itssahil/PROJECTS/Mol_Feturizer/New_Systems/rnas/1mwl

>  <Rbt.Executable>
rbdock ($Id: //depot/dev/client3/rdock/2013.1/src/exe/rbdock.cxx#4 $)

>  <Rbt.Library>
libRbt.so (2013.1, Build901 2013/11/27)

>  <Rbt.Parameter_File>
/export/apps/rDock/src/rDock_2013.1_src/data/scripts/dock_solv.prm

>  <Rbt.Receptor>
prm/blind_docking_80.prm

>  <SCORE>
-9.32733

>  <SCORE.INTER>
-14.4091

>  <SCORE.INTER.CONST>
1

>  <SCORE.INTER.POLAR>
-2.46065

>  <SCORE.INTER.ROT>
6

>  <SCORE.INTER.SOLV>
18.2776

>  <SCORE.INTER.VDW>
-15.0964

>  <SCORE.INTER.norm>
-0.423797

>  <SCORE.INTRA>
-6.61958

>  <SCORE.INTRA.DIHEDRAL>
-25.829

>  <SCORE.INTRA.DIHEDRAL.0>
42.0816

>  <SCORE.INTRA.POLAR>
-0.918743

>  <SCORE.INTRA.POLAR.0>
-0.254682

>  <SCORE.INTRA.REPUL>
0

>  <SCORE.INTRA.REPUL.0>
0

>  <SCORE.INTRA.SOLV>
2.92553

>  <SCORE.INTRA.SOLV.lig_0>
-109.803

>  <SCORE.INTRA.VDW>
7.95591

>  <SCORE.INTRA.VDW.0>
0.32176

>  <SCORE.INTRA.norm>
-0.194694

>  <SCORE.RESTR>
11.7014

>  <SCORE.RESTR.CAVITY>
11.7014

>  <SCORE.RESTR.norm>
0.344157

>  <SCORE.SYSTEM>
0

>  <SCORE.SYSTEM.CONST>
0

>  <SCORE.SYSTEM.DIHEDRAL>
0

>  <SCORE.SYSTEM.SOLV>
0

>  <SCORE.SYSTEM.norm>
0

>  <SCORE.heavy>
34

>  <SCORE.norm>
-0.274333

>  <RMSD>
19.241

$$$$
1mwl
 OpenBabel11021811403D
libRbt.so/2013.1/901 2013/11/27
 34 36  0  0  0  0  0  0  0  0999 V2000
   -4.7719  -11.1016   13.3135 C   0  0  2  0  0  0  0  0  0  0  0  0
   -3.5590  -10.7014   13.8768 O   0  0  0  0  0  0  0  0  0  0  0  0
   -4.7925  -10.5944   11.8441 C   0  0  2  0  0  0  0  0  0  0  0  0
   -3.6559  -11.1487   11.1023 N   0  3  0  0  0  0  0  0  0  0  0  0
   -4.7969   -9.0383   11.8008 C   0  0  1  0  0  0  0  0  0  0  0  0
   -4.8407   -8.5881   10.5218 O   0  0  0  0  0  0  0  0  0  0  0  0
   -6.0278   -8.5199   12.6154 C   0  0  2  0  0  0  0  0  0  0  0  0
   -6.0690   -7.0778   12.5882 O   0  0  0  0  0  0  0  0  0  0  0  0
   -5.9100   -9.0571   14.0822 C   0  0  2  0  0  0  0  0  0  0  0  0
   -5.8621  -10.5360   14.0853 O   0  0  0  0  0  0  0  0  0  0  0  0
   -7.0632   -8.6510   15.0069 C   0  0  2  0  0  0  0  0  0  0  0  0
   -7.1180   -9.5154   16.0946 O   0  0  0  0  0  0  0  0  0  0  0  0
   -8.4461   -8.7171   14.3335 C   0  0  0  0  0  0  0  0  0  0  0  0
   -4.1641  -11.1306   18.0850 C   0  0  2  0  0  0  0  0  0  0  0  0
   -3.8876  -11.3285   19.5306 N   0  3  0  0  0  0  0  0  0  0  0  0
   -3.7490  -12.3896   17.2675 C   0  0  0  0  0  0  0  0  0  0  0  0
   -4.0284  -12.1630   15.7376 C   0  0  2  0  0  0  0  0  0  0  0  0
   -3.6257  -13.4006   14.9743 N   0  3  0  0  0  0  0  0  0  0  0  0
   -3.2417  -10.8987   15.2487 C   0  0  2  0  0  0  0  0  0  0  0  0
   -3.6821   -9.6644   16.0732 C   0  0  2  0  0  0  0  0  0  0  0  0
   -2.9452   -8.5432   15.6489 O   0  0  0  0  0  0  0  0  0  0  0  0
   -3.3850   -9.8980   17.5787 C   0  0  1  0  0  0  0  0  0  0  0  0
   -3.7939   -8.7543   18.3143 O   0  0  0  0  0  0  0  0  0  0  0  0
   -4.8493   -7.9783   17.8177 C   0  0  2  0  0  0  0  0  0  0  0  0
   -4.8067   -6.6209   18.5448 C   0  0  2  0  0  0  0  0  0  0  0  0
   -3.5785   -5.9856   18.2612 O   0  0  0  0  0  0  0  0  0  0  0  0
   -4.9683   -6.8587   20.0850 C   0  0  1  0  0  0  0  0  0  0  0  0
   -4.9080   -5.5976   20.8634 N   0  3  0  0  0  0  0  0  0  0  0  0
   -3.9535   -5.7215   21.9946 C   0  0  0  0  0  0  0  0  0  0  0  0
   -6.3293   -7.5885   20.3533 C   0  0  2  0  0  0  0  0  0  0  0  0
   -7.4215   -6.7770   19.8822 O   0  0  0  0  0  0  0  0  0  0  0  0
   -6.5462   -7.8363   21.7671 C   0  0  0  0  0  0  0  0  0  0  0  0
   -6.3933   -8.9179   19.5397 C   0  0  0  0  0  0  0  0  0  0  0  0
   -6.1273   -8.6594   18.0868 O   0  0  0  0  0  0  0  0  0  0  0  0
  1  2  1  1  0  0  0
  1  3  1  0  0  0  0
  1 10  1  0  0  0  0
  3  4  1  6  0  0  0
  3  5  1  0  0  0  0
  5  6  1  6  0  0  0
  5  7  1  0  0  0  0
  7  8  1  1  0  0  0
  7  9  1  0  0  0  0
  9 10  1  6  0  0  0
  9 11  1  0  0  0  0
 11 12  1  1  0  0  0
 11 13  1  0  0  0  0
 14 15  1  1  0  0  0
 14 16  1  0  0  0  0
 14 22  1  0  0  0  0
 16 17  1  0  0  0  0
 17 18  1  6  0  0  0
 17 19  1  0  0  0  0
 19  2  1  6  0  0  0
 19 20  1  0  0  0  0
 20 21  1  6  0  0  0
 20 22  1  0  0  0  0
 22 23  1  1  0  0  0
 24 23  1  1  0  0  0
 24 25  1  0  0  0  0
 24 34  1  0  0  0  0
 25 26  1  1  0  0  0
 25 27  1  0  0  0  0
 27 28  1  1  0  0  0
 27 30  1  0  0  0  0
 28 29  1  0  0  0  0
 30 31  1  6  0  0  0
 30 32  1  0  0  0  0
 30 33  1  0  0  0  0
 33 34  1  0  0  0  0
M  CHG  4   4   1  15   1  18   1  28   1
M  END
>  <CHROM.1>
174.69288897,28.26849155,-160.74701179,59.88706230,36.24564017,159.62805912
171.55593650,176.20478533,59.35267463,-69.53254408,-91.46480972,-163.44367467
45.58572416,-10.34993433,67.74290867,-4.97448875,-9.10035230,16.36040034
-1.44827155,-1.05743951,1.31020443

>  <Name>
1mwl

>  <RI>
0

>  <Rbt.Current_Directory>
/home/itssahil/PROJECTS/Mol_Feturizer/New_Systems/rnas/1mwl

>  <Rbt.Executable>
rbdock ($Id: //depot/dev/client3/rdock/2013.1/src/exe/rbdock.cxx#4 $)

>  <Rbt.Library>
libRbt.so (2013.1, Build901 2013/11/27)

>  <Rbt.Parameter_File>
/export/apps/rDock/src/rDock_2013.1_src/data/scripts/dock_solv.prm

>  <Rbt.Receptor>
prm/blind_docking_80.prm

>  <SCORE>
-21.101

>  <SCORE.INTER>
-25.7682

>  <SCORE.INTER.CONST>
1

>  <SCORE.INTER.POLAR>
-4.93224

>  <SCORE.INTER.ROT>
6

>  <SCORE.INTER.SOLV>
27.4583

>  <SCORE.INTER.VDW>
-17.4908

>  <SCORE.INTER.norm>
-0.757887

>  <SCORE.INTRA>
-10.1322

>  <SCORE.INTRA.DIHEDRAL>
-22.6482

>  <SCORE.INTRA.DIHEDRAL.0>
42.0816

>  <SCORE.INTRA.POLAR>
0.166024

>  <SCORE.INTRA.POLAR.0>
-0.254682

>  <SCORE.INTRA.REPUL>
0

>  <SCORE.INTRA.REPUL.0>
0

>  <SCORE.INTRA.SOLV>
-0.00994034

>  <SCORE.INTRA.SOLV.lig_0>
-109.803

>  <SCORE.INTRA.VDW>
0.63243

>  <SCORE.INTRA.VDW.0>
0.32176

>  <SCORE.INTRA.norm>
-0.298005

>  <SCORE.RESTR>
14.7993

>  <SCORE.RESTR.CAVITY>
14.7993

>  <SCORE.RESTR.norm>
0.435274

>  <SCORE.SYSTEM>
0

>  <SCORE.SYSTEM.CONST>
0

>  <SCORE.SYSTEM.DIHEDRAL>
0

>  <SCORE.SYSTEM.SOLV>
0

>  <SCORE.SYSTEM.norm>
0

>  <SCORE.heavy>
34

>  <SCORE.norm>
-0.620618

>  <RMSD>
19.439

$$$$
1mwl
 OpenBabel11021811403D
libRbt.so/2013.1/901 2013/11/27
 34 36  0  0  0  0  0  0  0  0999 V2000
   -4.4697  -11.0664   13.0365 C   0  0  2  0  0  0  0  0  0  0  0  0
   -3.4279  -10.5136   13.7834 O   0  0  0  0  0  0  0  0  0  0  0  0
   -4.4542  -10.3839   11.6398 C   0  0  2  0  0  0  0  0  0  0  0  0
   -3.1604  -10.6013   10.9855 N   0  3  0  0  0  0  0  0  0  0  0  0
   -4.7809   -8.8671   11.7668 C   0  0  1  0  0  0  0  0  0  0  0  0
   -4.7945   -8.2696   10.5490 O   0  0  0  0  0  0  0  0  0  0  0  0
   -6.1660   -8.7128   12.4776 C   0  0  2  0  0  0  0  0  0  0  0  0
   -6.5061   -7.3161   12.6035 O   0  0  0  0  0  0  0  0  0  0  0  0
   -6.0802   -9.4051   13.8802 C   0  0  2  0  0  0  0  0  0  0  0  0
   -5.7236  -10.8330   13.7273 O   0  0  0  0  0  0  0  0  0  0  0  0
   -7.3767   -9.3591   14.6968 C   0  0  2  0  0  0  0  0  0  0  0  0
   -7.7151   -8.0372   14.9642 O   0  0  0  0  0  0  0  0  0  0  0  0
   -7.2706  -10.0617   16.0625 C   0  0  0  0  0  0  0  0  0  0  0  0
   -4.3761  -11.2015   17.8928 C   0  0  2  0  0  0  0  0  0  0  0  0
   -4.2198  -11.4974   19.3396 N   0  3  0  0  0  0  0  0  0  0  0  0
   -3.9137  -12.4129   17.0299 C   0  0  0  0  0  0  0  0  0  0  0  0
   -4.0658  -12.0829   15.5008 C   0  0  2  0  0  0  0  0  0  0  0  0
   -3.6198  -13.2762   14.6922 N   0  3  0  0  0  0  0  0  0  0  0  0
   -3.2250  -10.8048   15.1602 C   0  0  2  0  0  0  0  0  0  0  0  0
   -3.7135   -9.6181   16.0264 C   0  0  2  0  0  0  0  0  0  0  0  0
   -2.9295   -8.4861   15.7367 O   0  0  0  0  0  0  0  0  0  0  0  0
   -3.5419   -9.9538   17.5321 C   0  0  1  0  0  0  0  0  0  0  0  0
   -3.9932   -8.8523   18.3065 O   0  0  0  0  0  0  0  0  0  0  0  0
   -5.1332   -8.1564   17.8839 C   0  0  2  0  0  0  0  0  0  0  0  0
   -5.0287   -6.7213   18.4339 C   0  0  2  0  0  0  0  0  0  0  0  0
   -3.8750   -6.1072   17.9006 O   0  0  0  0  0  0  0  0  0  0  0  0
   -4.9583   -6.7753   19.9983 C   0  0  1  0  0  0  0  0  0  0  0  0
   -4.8259   -5.4293   20.6073 N   0  3  0  0  0  0  0  0  0  0  0  0
   -3.6716   -5.3845   21.5409 C   0  0  0  0  0  0  0  0  0  0  0  0
   -6.2425   -7.4870   20.5472 C   0  0  2  0  0  0  0  0  0  0  0  0
   -7.4164   -6.7531   20.1510 O   0  0  0  0  0  0  0  0  0  0  0  0
   -6.2447   -7.5668   21.9966 C   0  0  0  0  0  0  0  0  0  0  0  0
   -6.3815   -8.9049   19.9122 C   0  0  0  0  0  0  0  0  0  0  0  0
   -6.3367   -8.8184   18.4157 O   0  0  0  0  0  0  0  0  0  0  0  0
  1  2  1  1  0  0  0
  1  3  1  0  0  0  0
  1 10  1  0  0  0  0
  3  4  1  1  0  0  0
  3  5  1  0  0  0  0
  5  6  1  6  0  0  0
  5  7  1  0  0  0  0
  7  8  1  1  0  0  0
  7  9  1  0  0  0  0
  9 10  1  6  0  0  0
  9 11  1  0  0  0  0
 11 12  1  1  0  0  0
 11 13  1  0  0  0  0
 14 15  1  1  0  0  0
 14 16  1  0  0  0  0
 14 22  1  0  0  0  0
 16 17  1  0  0  0  0
 17 18  1  6  0  0  0
 17 19  1  0  0  0  0
 19  2  1  6  0  0  0
 19 20  1  0  0  0  0
 20 21  1  6  0  0  0
 20 22  1  0  0  0  0
 22 23  1  1  0  0  0
 24 23  1  1  0  0  0
 24 25  1  0  0  0  0
 24 34  1  0  0  0  0
 25 26  1  6  0  0  0
 25 27  1  0  0  0  0
 27 28  1  1  0  0  0
 27 30  1  0  0  0  0
 28 29  1  0  0  0  0
 30 31  1  6  0  0  0
 30 32  1  0  0  0  0
 30 33  1  0  0  0  0
 33 34  1  0  0  0  0
M  CHG  4   4   1  15   1  18   1  28   1
M  END
>  <CHROM.1>
173.49561151,15.72604030,132.99625054,-167.61267655,17.64998810,-61.99238137
51.09002478,-52.85885813,124.61104040,-62.79108363,-81.33276569,-153.92929821
-38.94318804,-7.48957085,178.66562955,-4.98286985,-9.08093087,16.29818989
-1.36555264,-1.13216945,1.39381315

>  <Name>
1mwl

>  <RI>
0

>  <Rbt.Current_Directory>
/home/itssahil/PROJECTS/Mol_Feturizer/New_Systems/rnas/1mwl

>  <Rbt.Executable>
rbdock ($Id: //depot/dev/client3/rdock/2013.1/src/exe/rbdock.cxx#4 $)

>  <Rbt.Library>
libRbt.so (2013.1, Build901 2013/11/27)

>  <Rbt.Parameter_File>
/export/apps/rDock/src/rDock_2013.1_src/data/scripts/dock_solv.prm

>  <Rbt.Receptor>
prm/blind_docking_80.prm

>  <SCORE>
-28.6045

>  <SCORE.INTER>
-38.0885

>  <SCORE.INTER.CONST>
1

>  <SCORE.INTER.POLAR>
-8.19386

>  <SCORE.INTER.ROT>
6

>  <SCORE.INTER.SOLV>
32.9002

>  <SCORE.INTER.VDW>
-16.6462

>  <SCORE.INTER.norm>
-1.12025

>  <SCORE.INTRA>
-5.35781

>  <SCORE.INTRA.DIHEDRAL>
-11.6593

>  <SCORE.INTRA.DIHEDRAL.0>
42.0816

>  <SCORE.INTRA.POLAR>
-0.517534

>  <SCORE.INTRA.POLAR.0>
-0.254682

>  <SCORE.INTRA.REPUL>
0.024229

>  <SCORE.INTRA.REPUL.0>
0

>  <SCORE.INTRA.SOLV>
-0.685762

>  <SCORE.INTRA.SOLV.lig_0>
-109.803

>  <SCORE.INTRA.VDW>
2.4532

>  <SCORE.INTRA.VDW.0>
0.32176

>  <SCORE.INTRA.norm>
-0.157583

>  <SCORE.RESTR>
14.8417

>  <SCORE.RESTR.CAVITY>
14.8417

>  <SCORE.RESTR.norm>
0.436521

>  <SCORE.SYSTEM>
0

>  <SCORE.SYSTEM.CONST>
0

>  <SCORE.SYSTEM.DIHEDRAL>
0

>  <SCORE.SYSTEM.SOLV>
0

>  <SCORE.SYSTEM.norm>
0

>  <SCORE.heavy>
34

>  <SCORE.norm>
-0.84131

>  <RMSD>
19.455

$$$$
1mwl
 OpenBabel11021811403D
libRbt.so/2013.1/901 2013/11/27
 34 36  0  0  0  0  0  0  0  0999 V2000
   -4.8084  -11.1684   13.2739 C   0  0  2  0  0  0  0  0  0  0  0  0
   -3.6050  -10.6845   13.7899 O   0  0  0  0  0  0  0  0  0  0  0  0
   -4.7724  -10.9586   11.7339 C   0  0  2  0  0  0  0  0  0  0  0  0
   -3.6258  -11.6650   11.1544 N   0  3  0  0  0  0  0  0  0  0  0  0
   -4.7413   -9.4411   11.3876 C   0  0  1  0  0  0  0  0  0  0  0  0
   -4.7356   -9.2495   10.0446 O   0  0  0  0  0  0  0  0  0  0  0  0
   -5.9851   -8.7543   12.0423 C   0  0  2  0  0  0  0  0  0  0  0  0
   -5.9937   -7.3449   11.7326 O   0  0  0  0  0  0  0  0  0  0  0  0
   -5.9245   -8.9956   13.5889 C   0  0  2  0  0  0  0  0  0  0  0  0
   -5.9092  -10.4458   13.8822 O   0  0  0  0  0  0  0  0  0  0  0  0
   -7.0965   -8.3985   14.3760 C   0  0  2  0  0  0  0  0  0  0  0  0
   -7.2694   -9.1009   15.5635 O   0  0  0  0  0  0  0  0  0  0  0  0
   -8.4417   -8.4736   13.6309 C   0  0  0  0  0  0  0  0  0  0  0  0
   -4.0261  -11.0251   18.0285 C   0  0  2  0  0  0  0  0  0  0  0  0
   -3.6862  -11.1860   19.4652 N   0  3  0  0  0  0  0  0  0  0  0  0
   -3.6273  -12.2969   17.2225 C   0  0  0  0  0  0  0  0  0  0  0  0
   -3.9742  -12.1092   15.7011 C   0  0  2  0  0  0  0  0  0  0  0  0
   -3.5858  -13.3585   14.9493 N   0  3  0  0  0  0  0  0  0  0  0  0
   -3.2274  -10.8458   15.1512 C   0  0  2  0  0  0  0  0  0  0  0  0
   -3.6508   -9.5991   15.9658 C   0  0  2  0  0  0  0  0  0  0  0  0
   -2.9489   -8.4780   15.4856 O   0  0  0  0  0  0  0  0  0  0  0  0
   -3.2872   -9.7939   17.4621 C   0  0  1  0  0  0  0  0  0  0  0  0
   -3.6817   -8.6393   18.1887 O   0  0  0  0  0  0  0  0  0  0  0  0
   -4.5168   -7.7047   17.5628 C   0  0  2  0  0  0  0  0  0  0  0  0
   -4.6721   -6.5090   18.5215 C   0  0  2  0  0  0  0  0  0  0  0  0
   -3.4034   -5.9329   18.7474 O   0  0  0  0  0  0  0  0  0  0  0  0
   -5.3046   -7.0078   19.8654 C   0  0  1  0  0  0  0  0  0  0  0  0
   -5.4609   -5.9171   20.8583 N   0  3  0  0  0  0  0  0  0  0  0  0
   -4.9752   -6.3471   22.1944 C   0  0  0  0  0  0  0  0  0  0  0  0
   -6.6969   -7.6633   19.5671 C   0  0  2  0  0  0  0  0  0  0  0  0
   -7.5742   -6.6955   18.9611 O   0  0  0  0  0  0  0  0  0  0  0  0
   -7.3433   -8.1445   20.7745 C   0  0  0  0  0  0  0  0  0  0  0  0
   -6.5348   -8.8142   18.5268 C   0  0  0  0  0  0  0  0  0  0  0  0
   -5.8293   -8.3193   17.2996 O   0  0  0  0  0  0  0  0  0  0  0  0
  1  2  1  1  0  0  0
  1  3  1  0  0  0  0
  1 10  1  0  0  0  0
  3  4  1  1  0  0  0
  3  5  1  0  0  0  0
  5  6  1  6  0  0  0
  5  7  1  0  0  0  0
  7  8  1  1  0  0  0
  7  9  1  0  0  0  0
  9 10  1  6  0  0  0
  9 11  1  0  0  0  0
 11 12  1  1  0  0  0
 11 13  1  0  0  0  0
 14 15  1  1  0  0  0
 14 16  1  0  0  0  0
 14 22  1  0  0  0  0
 16 17  1  0  0  0  0
 17 18  1  6  0  0  0
 17 19  1  0  0  0  0
 19  2  1  6  0  0  0
 19 20  1  0  0  0  0
 20 21  1  6  0  0  0
 20 22  1  0  0  0  0
 22 23  1  1  0  0  0
 24 23  1  1  0  0  0
 24 25  1  0  0  0  0
 24 34  1  0  0  0  0
 25 26  1  1  0  0  0
 25 27  1  0  0  0  0
 27 28  1  1  0  0  0
 27 30  1  0  0  0  0
 28 29  1  0  0  0  0
 30 31  1  6  0  0  0
 30 32  1  0  0  0  0
 30 33  1  0  0  0  0
 33 34  1  0  0  0  0
M  CHG  4   4   1  15   1  18   1  28   1
M  END
>  <CHROM.1>
-172.92919023,25.24919387,-44.79290256,60.93380178,-172.65241025,155.02112062
50.64931018,-63.62612191,179.51907427,-76.00079617,-107.80229254,-174.81302668
-77.15090760,-13.62384155,175.96148864,-5.02180753,-9.13778186,16.06884905
-1.45370070,-0.91595341,1.29827921

>  <Name>
1mwl

>  <RI>
0

>  <Rbt.Current_Directory>
/home/itssahil/PROJECTS/Mol_Feturizer/New_Systems/rnas/1mwl

>  <Rbt.Executable>
rbdock ($Id: //depot/dev/client3/rdock/2013.1/src/exe/rbdock.cxx#4 $)

>  <Rbt.Library>
libRbt.so (2013.1, Build901 2013/11/27)

>  <Rbt.Parameter_File>
/export/apps/rDock/src/rDock_2013.1_src/data/scripts/dock_solv.prm

>  <Rbt.Receptor>
prm/blind_docking_80.prm

>  <SCORE>
-23.8662

>  <SCORE.INTER>
-28.8356

>  <SCORE.INTER.CONST>
1

>  <SCORE.INTER.POLAR>
-5.98098

>  <SCORE.INTER.ROT>
6

>  <SCORE.INTER.SOLV>
27.4367

>  <SCORE.INTER.VDW>
-16.0327

>  <SCORE.INTER.norm>
-0.848107

>  <SCORE.INTRA>
-8.87739

>  <SCORE.INTRA.DIHEDRAL>
-21.6938

>  <SCORE.INTRA.DIHEDRAL.0>
42.0816

>  <SCORE.INTRA.POLAR>
-0.302645

>  <SCORE.INTRA.POLAR.0>
-0.254682

>  <SCORE.INTRA.REPUL>
0

>  <SCORE.INTRA.REPUL.0>
0

>  <SCORE.INTRA.SOLV>
-0.69638

>  <SCORE.INTRA.SOLV.lig_0>
-109.803

>  <SCORE.INTRA.VDW>
3.3467

>  <SCORE.INTRA.VDW.0>
0.32176

>  <SCORE.INTRA.norm>
-0.2611

>  <SCORE.RESTR>
13.8468

>  <SCORE.RESTR.CAVITY>
13.8468

>  <SCORE.RESTR.norm>
0.407259

>  <SCORE.SYSTEM>
0

>  <SCORE.SYSTEM.CONST>
0

>  <SCORE.SYSTEM.DIHEDRAL>
0

>  <SCORE.SYSTEM.SOLV>
0

>  <SCORE.SYSTEM.norm>
0

>  <SCORE.heavy>
34

>  <SCORE.norm>
-0.701947

>  <RMSD>
19.461

$$$$
1mwl
 OpenBabel11021811403D
libRbt.so/2013.1/901 2013/11/27
 34 36  0  0  0  0  0  0  0  0999 V2000
   -4.4259  -11.1091   13.1530 C   0  0  2  0  0  0  0  0  0  0  0  0
   -3.3990  -10.4864   13.8646 O   0  0  0  0  0  0  0  0  0  0  0  0
   -4.4467  -10.4892   11.7275 C   0  0  2  0  0  0  0  0  0  0  0  0
   -3.1511  -10.6885   11.0708 N   0  3  0  0  0  0  0  0  0  0  0  0
   -4.8276   -8.9810   11.7907 C   0  0  1  0  0  0  0  0  0  0  0  0
   -4.8728   -8.4391   10.5479 O   0  0  0  0  0  0  0  0  0  0  0  0
   -6.2116   -8.8455   12.5074 C   0  0  2  0  0  0  0  0  0  0  0  0
   -6.6014   -7.4578   12.5749 O   0  0  0  0  0  0  0  0  0  0  0  0
   -6.0891   -9.4712   13.9383 C   0  0  2  0  0  0  0  0  0  0  0  0
   -5.6818  -10.8907   13.8450 O   0  0  0  0  0  0  0  0  0  0  0  0
   -7.3798   -9.4359   14.7646 C   0  0  2  0  0  0  0  0  0  0  0  0
   -7.6502   -8.1292   15.1552 O   0  0  0  0  0  0  0  0  0  0  0  0
   -7.3063  -10.2664   16.0589 C   0  0  0  0  0  0  0  0  0  0  0  0
   -4.1463  -11.1207   18.0238 C   0  0  2  0  0  0  0  0  0  0  0  0
   -3.9201  -11.4001   19.4647 N   0  3  0  0  0  0  0  0  0  0  0  0
   -3.7323  -12.3446   17.1539 C   0  0  0  0  0  0  0  0  0  0  0  0
   -3.9582  -12.0320   15.6303 C   0  0  2  0  0  0  0  0  0  0  0  0
   -3.5578  -13.2370   14.8153 N   0  3  0  0  0  0  0  0  0  0  0  0
   -3.1297  -10.7622   15.2333 C   0  0  2  0  0  0  0  0  0  0  0  0
   -3.5697   -9.5629   16.1080 C   0  0  2  0  0  0  0  0  0  0  0  0
   -2.7961   -8.4383   15.7663 O   0  0  0  0  0  0  0  0  0  0  0  0
   -3.3256   -9.8815   17.6074 C   0  0  1  0  0  0  0  0  0  0  0  0
   -3.7333   -8.7687   18.3897 O   0  0  0  0  0  0  0  0  0  0  0  0
   -4.6513   -7.8631   17.8422 C   0  0  2  0  0  0  0  0  0  0  0  0
   -4.7388   -6.6588   18.7987 C   0  0  2  0  0  0  0  0  0  0  0  0
   -3.4688   -6.0490   18.8878 O   0  0  0  0  0  0  0  0  0  0  0  0
   -5.2184   -7.1548   20.2054 C   0  0  1  0  0  0  0  0  0  0  0  0
   -5.3007   -6.0550   21.1973 N   0  3  0  0  0  0  0  0  0  0  0  0
   -3.9903   -5.3693   21.3338 C   0  0  0  0  0  0  0  0  0  0  0  0
   -6.6166   -7.8478   20.0578 C   0  0  2  0  0  0  0  0  0  0  0  0
   -7.5754   -6.9098   19.5340 O   0  0  0  0  0  0  0  0  0  0  0  0
   -7.1244   -8.3284   21.3300 C   0  0  0  0  0  0  0  0  0  0  0  0
   -6.5318   -9.0083   19.0189 C   0  0  0  0  0  0  0  0  0  0  0  0
   -5.9676   -8.5128   17.7208 O   0  0  0  0  0  0  0  0  0  0  0  0
  1  2  1  1  0  0  0
  1  3  1  0  0  0  0
  1 10  1  0  0  0  0
  3  4  1  1  0  0  0
  3  5  1  0  0  0  0
  5  6  1  6  0  0  0
  5  7  1  0  0  0  0
  7  8  1  1  0  0  0
  7  9  1  0  0  0  0
  9 10  1  6  0  0  0
  9 11  1  0  0  0  0
 11 12  1  1  0  0  0
 11 13  1  0  0  0  0
 14 15  1  1  0  0  0
 14 16  1  0  0  0  0
 14 22  1  0  0  0  0
 16 17  1  0  0  0  0
 17 18  1  6  0  0  0
 17 19  1  0  0  0  0
 19  2  1  6  0  0  0
 19 20  1  0  0  0  0
 20 21  1  6  0  0  0
 20 22  1  0  0  0  0
 22 23  1  1  0  0  0
 24 23  1  1  0  0  0
 24 25  1  0  0  0  0
 24 34  1  0  0  0  0
 25 26  1  1  0  0  0
 25 27  1  0  0  0  0
 27 28  1  1  0  0  0
 27 30  1  0  0  0  0
 28 29  1  0  0  0  0
 30 31  1  6  0  0  0
 30 32  1  0  0  0  0
 30 33  1  0  0  0  0
 33 34  1  0  0  0  0
M  CHG  4   4   1  15   1  18   1  28   1
M  END
>  <CHROM.1>
176.95153958,11.42521285,131.28809105,-168.69044376,66.52723274,-71.28293661
46.65035915,-47.77064414,-1.61358989,59.78926178,-98.23362831,-171.15786175
-66.87252762,62.92378589,36.47535343,-4.96826560,-9.14651045,16.30870608
-1.40866115,-0.98050437,1.34782710

>  <Name>
1mwl

>  <RI>
0

>  <Rbt.Current_Directory>
/home/itssahil/PROJECTS/Mol_Feturizer/New_Systems/rnas/1mwl

>  <Rbt.Executable>
rbdock ($Id: //depot/dev/client3/rdock/2013.1/src/exe/rbdock.cxx#4 $)

>  <Rbt.Library>
libRbt.so (2013.1, Build901 2013/11/27)

>  <Rbt.Parameter_File>
/export/apps/rDock/src/rDock_2013.1_src/data/scripts/dock_solv.prm

>  <Rbt.Receptor>
prm/blind_docking_80.prm

>  <SCORE>
-19.2574

>  <SCORE.INTER>
-27.6737

>  <SCORE.INTER.CONST>
1

>  <SCORE.INTER.POLAR>
-6.85879

>  <SCORE.INTER.ROT>
6

>  <SCORE.INTER.SOLV>
29.8743

>  <SCORE.INTER.VDW>
-13.1446

>  <SCORE.INTER.norm>
-0.813931

>  <SCORE.INTRA>
-5.07226

>  <SCORE.INTRA.DIHEDRAL>
-18.1267

>  <SCORE.INTRA.DIHEDRAL.0>
42.0816

>  <SCORE.INTRA.POLAR>
-0.524966

>  <SCORE.INTRA.POLAR.0>
-0.254682

>  <SCORE.INTRA.REPUL>
0

>  <SCORE.INTRA.REPUL.0>
0

>  <SCORE.INTRA.SOLV>
-0.792877

>  <SCORE.INTRA.SOLV.lig_0>
-109.803

>  <SCORE.INTRA.VDW>
6.1724

>  <SCORE.INTRA.VDW.0>
0.32176

>  <SCORE.INTRA.norm>
-0.149184

>  <SCORE.RESTR>
13.4885

>  <SCORE.RESTR.CAVITY>
13.4885

>  <SCORE.RESTR.norm>
0.396721

>  <SCORE.SYSTEM>
0

>  <SCORE.SYSTEM.CONST>
0

>  <SCORE.SYSTEM.DIHEDRAL>
0

>  <SCORE.SYSTEM.SOLV>
0

>  <SCORE.SYSTEM.norm>
0

>  <SCORE.heavy>
34

>  <SCORE.norm>
-0.566394

>  <RMSD>
19.472

$$$$
1mwl
 OpenBabel11021811403D
libRbt.so/2013.1/901 2013/11/27
 34 36  0  0  0  0  0  0  0  0999 V2000
   -5.9405   -7.6278   16.7228 C   0  0  2  0  0  0  0  0  0  0  0  0
   -4.8533   -8.2725   16.1303 O   0  0  0  0  0  0  0  0  0  0  0  0
   -5.4398   -6.9982   18.0531 C   0  0  2  0  0  0  0  0  0  0  0  0
   -4.3472   -6.0575   17.7871 N   0  3  0  0  0  0  0  0  0  0  0  0
   -5.0056   -8.1072   19.0557 C   0  0  1  0  0  0  0  0  0  0  0  0
   -4.5914   -7.5663   20.2287 O   0  0  0  0  0  0  0  0  0  0  0  0
   -6.2143   -9.0737   19.2848 C   0  0  2  0  0  0  0  0  0  0  0  0
   -5.8496  -10.1112   20.2191 O   0  0  0  0  0  0  0  0  0  0  0  0
   -6.6324   -9.6769   17.9009 C   0  0  2  0  0  0  0  0  0  0  0  0
   -6.9948   -8.5960   16.9578 O   0  0  0  0  0  0  0  0  0  0  0  0
   -7.8284  -10.6343   17.9554 C   0  0  2  0  0  0  0  0  0  0  0  0
   -8.4550  -10.5310   19.1924 O   0  0  0  0  0  0  0  0  0  0  0  0
   -7.4409  -12.1152   17.7907 C   0  0  0  0  0  0  0  0  0  0  0  0
   -3.9568  -11.3408   13.2946 C   0  0  2  0  0  0  0  0  0  0  0  0
   -4.0403  -12.6050   12.5198 N   0  3  0  0  0  0  0  0  0  0  0  0
   -3.7066  -11.6352   14.8034 C   0  0  0  0  0  0  0  0  0  0  0  0
   -3.6383  -10.2922   15.6170 C   0  0  2  0  0  0  0  0  0  0  0  0
   -3.3861  -10.6088   17.0706 N   0  3  0  0  0  0  0  0  0  0  0  0
   -4.9751   -9.4982   15.4200 C   0  0  2  0  0  0  0  0  0  0  0  0
   -5.1907   -9.2139   13.9134 C   0  0  2  0  0  0  0  0  0  0  0  0
   -6.4097   -8.5311   13.7459 O   0  0  0  0  0  0  0  0  0  0  0  0
   -5.2717  -10.5497   13.1272 C   0  0  1  0  0  0  0  0  0  0  0  0
   -5.4718  -10.2654   11.7504 O   0  0  0  0  0  0  0  0  0  0  0  0
   -4.7786   -9.1905   11.1788 C   0  0  2  0  0  0  0  0  0  0  0  0
   -5.2074   -9.0969    9.7023 C   0  0  2  0  0  0  0  0  0  0  0  0
   -6.5959   -8.8500    9.6414 O   0  0  0  0  0  0  0  0  0  0  0  0
   -4.8479  -10.4387    8.9776 C   0  0  1  0  0  0  0  0  0  0  0  0
   -5.2572  -10.4412    7.5519 N   0  3  0  0  0  0  0  0  0  0  0  0
   -6.7368  -10.4807    7.4284 C   0  0  0  0  0  0  0  0  0  0  0  0
   -3.3046  -10.6880    9.0916 C   0  0  2  0  0  0  0  0  0  0  0  0
   -2.5864   -9.6063    8.4690 O   0  0  0  0  0  0  0  0  0  0  0  0
   -2.9004  -11.9175    8.4341 C   0  0  0  0  0  0  0  0  0  0  0  0
   -2.8721  -10.6910   10.5903 C   0  0  0  0  0  0  0  0  0  0  0  0
   -3.3294   -9.4364   11.2728 O   0  0  0  0  0  0  0  0  0  0  0  0
  1  2  1  1  0  0  0
  1  3  1  0  0  0  0
  1 10  1  0  0  0  0
  3  4  1  6  0  0  0
  3  5  1  0  0  0  0
  5  6  1  1  0  0  0
  5  7  1  0  0  0  0
  7  8  1  1  0  0  0
  7  9  1  0  0  0  0
  9 10  1  6  0  0  0
  9 11  1  0  0  0  0
 11 12  1  1  0  0  0
 11 13  1  0  0  0  0
 14 15  1  6  0  0  0
 14 16  1  0  0  0  0
 14 22  1  0  0  0  0
 16 17  1  0  0  0  0
 17 18  1  1  0  0  0
 17 19  1  0  0  0  0
 19  2  1  1  0  0  0
 19 20  1  0  0  0  0
 20 21  1  1  0  0  0
 20 22  1  0  0  0  0
 22 23  1  6  0  0  0
 24 23  1  6  0  0  0
 24 25  1  0  0  0  0
 24 34  1  0  0  0  0
 25 26  1  1  0  0  0
 25 27  1  0  0  0  0
 27 28  1  6  0  0  0
 27 30  1  0  0  0  0
 28 29  1  0  0  0  0
 30 31  1  6  0  0  0
 30 32  1  0  0  0  0
 30 33  1  0  0  0  0
 33 34  1  0  0  0  0
M  CHG  4   4   1  15   1  18   1  28   1
M  END
>  <CHROM.1>
143.21899109,-148.34250868,-171.66626079,-65.07747083,69.25243351,12.66949105
70.95713812,169.38750800,-49.71015372,71.41894574,-80.19195328,-178.74369016
69.22598993,50.53969717,-55.65283603,-5.12236105,-9.71187810,14.16245291
-1.86183874,-1.00148022,-1.95985424

>  <Name>
1mwl

>  <RI>
0

>  <Rbt.Current_Directory>
/home/itssahil/PROJECTS/Mol_Feturizer/New_Systems/rnas/1mwl

>  <Rbt.Executable>
rbdock ($Id: //depot/dev/client3/rdock/2013.1/src/exe/rbdock.cxx#4 $)

>  <Rbt.Library>
libRbt.so (2013.1, Build901 2013/11/27)

>  <Rbt.Parameter_File>
/export/apps/rDock/src/rDock_2013.1_src/data/scripts/dock_solv.prm

>  <Rbt.Receptor>
prm/blind_docking_60.prm

>  <SCORE>
2.46009

>  <SCORE.INTER>
-14.1814

>  <SCORE.INTER.CONST>
1

>  <SCORE.INTER.POLAR>
-3.28212

>  <SCORE.INTER.ROT>
6

>  <SCORE.INTER.SOLV>
23.2623

>  <SCORE.INTER.VDW>
-13.868

>  <SCORE.INTER.norm>
-0.417101

>  <SCORE.INTRA>
-9.90687

>  <SCORE.INTRA.DIHEDRAL>
-23.4219

>  <SCORE.INTRA.DIHEDRAL.0>
42.0816

>  <SCORE.INTRA.POLAR>
0.217449

>  <SCORE.INTRA.POLAR.0>
-0.254682

>  <SCORE.INTRA.REPUL>
0

>  <SCORE.INTRA.REPUL.0>
0

>  <SCORE.INTRA.SOLV>
2.66826

>  <SCORE.INTRA.SOLV.lig_0>
-109.803

>  <SCORE.INTRA.VDW>
-0.269373

>  <SCORE.INTRA.VDW.0>
0.32176

>  <SCORE.INTRA.norm>
-0.291379

>  <SCORE.RESTR>
26.5484

>  <SCORE.RESTR.CAVITY>
26.5484

>  <SCORE.RESTR.norm>
0.780835

>  <SCORE.SYSTEM>
0

>  <SCORE.SYSTEM.CONST>
0

>  <SCORE.SYSTEM.DIHEDRAL>
0

>  <SCORE.SYSTEM.SOLV>
0

>  <SCORE.SYSTEM.norm>
0

>  <SCORE.heavy>
34

>  <SCORE.norm>
0.0723557

>  <RMSD>
19.484

$$$$
1mwl
 OpenBabel11021811403D
libRbt.so/2013.1/901 2013/11/27
 34 36  0  0  0  0  0  0  0  0999 V2000
   -4.8545  -11.6214   14.4904 C   0  0  2  0  0  0  0  0  0  0  0  0
   -3.5074  -11.4364   14.8061 O   0  0  0  0  0  0  0  0  0  0  0  0
   -4.9587  -11.7343   12.9434 C   0  0  2  0  0  0  0  0  0  0  0  0
   -4.1437  -12.8541   12.4624 N   0  3  0  0  0  0  0  0  0  0  0  0
   -4.5437  -10.3953   12.2664 C   0  0  1  0  0  0  0  0  0  0  0  0
   -4.6565  -10.4779   10.9171 O   0  0  0  0  0  0  0  0  0  0  0  0
   -5.4470   -9.2497   12.8311 C   0  0  2  0  0  0  0  0  0  0  0  0
   -5.0956   -7.9923   12.2165 O   0  0  0  0  0  0  0  0  0  0  0  0
   -5.2590   -9.1942   14.3853 C   0  0  2  0  0  0  0  0  0  0  0  0
   -5.6178  -10.4949   14.9928 O   0  0  0  0  0  0  0  0  0  0  0  0
   -6.1025   -8.1285   15.0942 C   0  0  2  0  0  0  0  0  0  0  0  0
   -5.2703   -7.1493   15.6251 O   0  0  0  0  0  0  0  0  0  0  0  0
   -6.9276   -8.6780   16.2721 C   0  0  0  0  0  0  0  0  0  0  0  0
   -3.6492  -10.8774   19.0401 C   0  0  2  0  0  0  0  0  0  0  0  0
   -3.2140  -10.7178   20.4510 N   0  3  0  0  0  0  0  0  0  0  0  0
   -3.2456  -12.2793   18.4945 C   0  0  0  0  0  0  0  0  0  0  0  0
   -3.6941  -12.4310   16.9959 C   0  0  2  0  0  0  0  0  0  0  0  0
   -3.2985  -13.7997   16.4991 N   0  3  0  0  0  0  0  0  0  0  0  0
   -3.0393  -11.2923   16.1410 C   0  0  2  0  0  0  0  0  0  0  0  0
   -3.4658   -9.9137   16.7020 C   0  0  2  0  0  0  0  0  0  0  0  0
   -2.8452   -8.9004   15.9483 O   0  0  0  0  0  0  0  0  0  0  0  0
   -3.0018   -9.7738   18.1766 C   0  0  1  0  0  0  0  0  0  0  0  0
   -3.4008   -8.5031   18.6691 O   0  0  0  0  0  0  0  0  0  0  0  0
   -4.6904   -8.0427   18.3729 C   0  0  2  0  0  0  0  0  0  0  0  0
   -4.7422   -6.5471   18.7383 C   0  0  2  0  0  0  0  0  0  0  0  0
   -3.7990   -5.8490   17.9537 O   0  0  0  0  0  0  0  0  0  0  0  0
   -4.4293   -6.3808   20.2646 C   0  0  1  0  0  0  0  0  0  0  0  0
   -4.4304   -4.9607   20.6927 N   0  3  0  0  0  0  0  0  0  0  0  0
   -3.2351   -4.6591   21.5212 C   0  0  0  0  0  0  0  0  0  0  0  0
   -5.4813   -7.1914   21.0972 C   0  0  2  0  0  0  0  0  0  0  0  0
   -6.8061   -6.6952   20.8285 O   0  0  0  0  0  0  0  0  0  0  0  0
   -5.2522   -7.0763   22.5260 C   0  0  0  0  0  0  0  0  0  0  0  0
   -5.4788   -8.6865   20.6525 C   0  0  0  0  0  0  0  0  0  0  0  0
   -5.6745   -8.7952   19.1697 O   0  0  0  0  0  0  0  0  0  0  0  0
  1  2  1  6  0  0  0
  1  3  1  0  0  0  0
  1 10  1  0  0  0  0
  3  4  1  6  0  0  0
  3  5  1  0  0  0  0
  5  6  1  6  0  0  0
  5  7  1  0  0  0  0
  7  8  1  6  0  0  0
  7  9  1  0  0  0  0
  9 10  1  1  0  0  0
  9 11  1  0  0  0  0
 11 12  1  1  0  0  0
 11 13  1  0  0  0  0
 14 15  1  1  0  0  0
 14 16  1  0  0  0  0
 14 22  1  0  0  0  0
 16 17  1  0  0  0  0
 17 18  1  6  0  0  0
 17 19  1  0  0  0  0
 19  2  1  6  0  0  0
 19 20  1  0  0  0  0
 20 21  1  6  0  0  0
 20 22  1  0  0  0  0
 22 23  1  1  0  0  0
 24 23  1  1  0  0  0
 24 25  1  0  0  0  0
 24 34  1  0  0  0  0
 25 26  1  6  0  0  0
 25 27  1  0  0  0  0
 27 28  1  1  0  0  0
 27 30  1  0  0  0  0
 28 29  1  0  0  0  0
 30 31  1  6  0  0  0
 30 32  1  0  0  0  0
 30 33  1  0  0  0  0
 33 34  1  0  0  0  0
M  CHG  4   4   1  15   1  18   1  28   1
M  END
>  <CHROM.1>
179.97498146,47.61683224,171.99230367,60.94257324,58.91688600,-113.04759150
178.98834719,32.44438602,-177.24011818,-165.00308704,-76.75198756,-167.30846519
61.89141176,-13.07097261,-68.09089363,-4.50514583,-9.17933358,16.98352747
-1.50242279,-1.24135447,1.11231359

>  <Name>
1mwl

>  <RI>
0

>  <Rbt.Current_Directory>
/home/itssahil/PROJECTS/Mol_Feturizer/New_Systems/rnas/1mwl

>  <Rbt.Executable>
rbdock ($Id: //depot/dev/client3/rdock/2013.1/src/exe/rbdock.cxx#4 $)

>  <Rbt.Library>
libRbt.so (2013.1, Build901 2013/11/27)

>  <Rbt.Parameter_File>
/export/apps/rDock/src/rDock_2013.1_src/data/scripts/dock_solv.prm

>  <Rbt.Receptor>
prm/blind_docking_80.prm

>  <SCORE>
-23.361

>  <SCORE.INTER>
-23.9329

>  <SCORE.INTER.CONST>
1

>  <SCORE.INTER.POLAR>
-5.40988

>  <SCORE.INTER.ROT>
6

>  <SCORE.INTER.SOLV>
24.8546

>  <SCORE.INTER.VDW>
-13.8072

>  <SCORE.INTER.norm>
-0.70391

>  <SCORE.INTRA>
-14.0497

>  <SCORE.INTRA.DIHEDRAL>
-27.7703

>  <SCORE.INTRA.DIHEDRAL.0>
42.0816

>  <SCORE.INTRA.POLAR>
-0.556498

>  <SCORE.INTRA.POLAR.0>
-0.254682

>  <SCORE.INTRA.REPUL>
0

>  <SCORE.INTRA.REPUL.0>
0

>  <SCORE.INTRA.SOLV>
2.27499

>  <SCORE.INTRA.SOLV.lig_0>
-109.803

>  <SCORE.INTRA.VDW>
0.590053

>  <SCORE.INTRA.VDW.0>
0.32176

>  <SCORE.INTRA.norm>
-0.413227

>  <SCORE.RESTR>
14.6216

>  <SCORE.RESTR.CAVITY>
14.6216

>  <SCORE.RESTR.norm>
0.430048

>  <SCORE.SYSTEM>
0

>  <SCORE.SYSTEM.CONST>
0

>  <SCORE.SYSTEM.DIHEDRAL>
0

>  <SCORE.SYSTEM.SOLV>
0

>  <SCORE.SYSTEM.norm>
0

>  <SCORE.heavy>
34

>  <SCORE.norm>
-0.687089

>  <RMSD>
19.541

$$$$
1mwl
 OpenBabel11021811403D
libRbt.so/2013.1/901 2013/11/27
 34 36  0  0  0  0  0  0  0  0999 V2000
   -4.8019  -11.2051   13.3394 C   0  0  2  0  0  0  0  0  0  0  0  0
   -3.5776  -10.7658   13.8461 O   0  0  0  0  0  0  0  0  0  0  0  0
   -4.7824  -10.9666   11.8033 C   0  0  2  0  0  0  0  0  0  0  0  0
   -3.6653  -11.6940   11.1931 N   0  3  0  0  0  0  0  0  0  0  0  0
   -4.7127   -9.4442   11.4854 C   0  0  1  0  0  0  0  0  0  0  0  0
   -4.7211   -9.2268   10.1464 O   0  0  0  0  0  0  0  0  0  0  0  0
   -5.9265   -8.7350   12.1718 C   0  0  2  0  0  0  0  0  0  0  0  0
   -5.8990   -7.3202   11.8891 O   0  0  0  0  0  0  0  0  0  0  0  0
   -5.8502   -9.0079   13.7124 C   0  0  2  0  0  0  0  0  0  0  0  0
   -5.8724  -10.4633   13.9780 O   0  0  0  0  0  0  0  0  0  0  0  0
   -6.9929   -8.3929   14.5285 C   0  0  2  0  0  0  0  0  0  0  0  0
   -6.6304   -8.3314   15.8694 O   0  0  0  0  0  0  0  0  0  0  0  0
   -8.2986   -9.2067   14.4717 C   0  0  0  0  0  0  0  0  0  0  0  0
   -4.0295  -11.0872   18.0831 C   0  0  2  0  0  0  0  0  0  0  0  0
   -3.6993  -11.2335   19.5236 N   0  3  0  0  0  0  0  0  0  0  0  0
   -3.6025  -12.3570   17.2886 C   0  0  0  0  0  0  0  0  0  0  0  0
   -3.9393  -12.1847   15.7632 C   0  0  2  0  0  0  0  0  0  0  0  0
   -3.5235  -13.4319   15.0226 N   0  3  0  0  0  0  0  0  0  0  0  0
   -3.2091  -10.9123   15.2116 C   0  0  2  0  0  0  0  0  0  0  0  0
   -3.6604   -9.6679   16.0146 C   0  0  2  0  0  0  0  0  0  0  0  0
   -2.9733   -8.5381   15.5334 O   0  0  0  0  0  0  0  0  0  0  0  0
   -3.3065   -9.8473   17.5153 C   0  0  1  0  0  0  0  0  0  0  0  0
   -3.7264   -8.6950   18.2311 O   0  0  0  0  0  0  0  0  0  0  0  0
   -4.9571   -8.1118   17.9026 C   0  0  2  0  0  0  0  0  0  0  0  0
   -4.9513   -6.6758   18.4602 C   0  0  2  0  0  0  0  0  0  0  0  0
   -3.9059   -5.9497   17.8498 O   0  0  0  0  0  0  0  0  0  0  0  0
   -4.7586   -6.7297   20.0142 C   0  0  1  0  0  0  0  0  0  0  0  0
   -4.7121   -5.3800   20.6274 N   0  3  0  0  0  0  0  0  0  0  0  0
   -3.5597   -5.2630   21.5571 C   0  0  0  0  0  0  0  0  0  0  0  0
   -5.9229   -7.5657   20.6486 C   0  0  2  0  0  0  0  0  0  0  0  0
   -7.1889   -6.9482   20.3494 O   0  0  0  0  0  0  0  0  0  0  0  0
   -5.8085   -7.6518   22.0932 C   0  0  0  0  0  0  0  0  0  0  0  0
   -5.9711   -8.9876   20.0091 C   0  0  0  0  0  0  0  0  0  0  0  0
   -6.0474   -8.8905   18.5145 O   0  0  0  0  0  0  0  0  0  0  0  0
  1  2  1  1  0  0  0
  1  3  1  0  0  0  0
  1 10  1  0  0  0  0
  3  4  1  1  0  0  0
  3  5  1  0  0  0  0
  5  6  1  6  0  0  0
  5  7  1  0  0  0  0
  7  8  1  1  0  0  0
  7  9  1  0  0  0  0
  9 10  1  6  0  0  0
  9 11  1  0  0  0  0
 11 12  1  1  0  0  0
 11 13  1  0  0  0  0
 14 15  1  1  0  0  0
 14 16  1  0  0  0  0
 14 22  1  0  0  0  0
 16 17  1  0  0  0  0
 17 18  1  6  0  0  0
 17 19  1  0  0  0  0
 19  2  1  6  0  0  0
 19 20  1  0  0  0  0
 20 21  1  6  0  0  0
 20 22  1  0  0  0  0
 22 23  1  1  0  0  0
 24 23  1  1  0  0  0
 24 25  1  0  0  0  0
 24 34  1  0  0  0  0
 25 26  1  6  0  0  0
 25 27  1  0  0  0  0
 27 28  1  1  0  0  0
 27 30  1  0  0  0  0
 28 29  1  0  0  0  0
 30 31  1  6  0  0  0
 30 32  1  0  0  0  0
 30 33  1  0  0  0  0
 33 34  1  0  0  0  0
M  CHG  4   4   1  15   1  18   1  28   1
M  END
>  <CHROM.1>
-175.75029449,29.04428111,-165.56419640,61.52484999,-178.28419596,-161.81555387
173.50331467,168.29873568,-154.96258303,52.12310909,-79.72062777,-161.51087894
91.14555930,-11.97703114,57.89250831,-4.85887012,-9.12406343,16.29241382
-1.49456196,-1.10165356,1.25902650

>  <Name>
1mwl

>  <RI>
0

>  <Rbt.Current_Directory>
/home/itssahil/PROJECTS/Mol_Feturizer/New_Systems/rnas/1mwl

>  <Rbt.Executable>
rbdock ($Id: //depot/dev/client3/rdock/2013.1/src/exe/rbdock.cxx#4 $)

>  <Rbt.Library>
libRbt.so (2013.1, Build901 2013/11/27)

>  <Rbt.Parameter_File>
/export/apps/rDock/src/rDock_2013.1_src/data/scripts/dock_solv.prm

>  <Rbt.Receptor>
prm/blind_docking_80.prm

>  <SCORE>
-24.4365

>  <SCORE.INTER>
-28.1488

>  <SCORE.INTER.CONST>
1

>  <SCORE.INTER.POLAR>
-6.61403

>  <SCORE.INTER.ROT>
6

>  <SCORE.INTER.SOLV>
26.7077

>  <SCORE.INTER.VDW>
-13.2216

>  <SCORE.INTER.norm>
-0.827905

>  <SCORE.INTRA>
-11.2804

>  <SCORE.INTRA.DIHEDRAL>
-23.9066

>  <SCORE.INTRA.DIHEDRAL.0>
42.0816

>  <SCORE.INTRA.POLAR>
0.173191

>  <SCORE.INTRA.POLAR.0>
-0.254682

>  <SCORE.INTRA.REPUL>
0.138271

>  <SCORE.INTRA.REPUL.0>
0

>  <SCORE.INTRA.SOLV>
0.809559

>  <SCORE.INTRA.SOLV.lig_0>
-109.803

>  <SCORE.INTRA.VDW>
-1.0121

>  <SCORE.INTRA.VDW.0>
0.32176

>  <SCORE.INTRA.norm>
-0.331777

>  <SCORE.RESTR>
14.9927

>  <SCORE.RESTR.CAVITY>
14.9927

>  <SCORE.RESTR.norm>
0.44096

>  <SCORE.SYSTEM>
0

>  <SCORE.SYSTEM.CONST>
0

>  <SCORE.SYSTEM.DIHEDRAL>
0

>  <SCORE.SYSTEM.SOLV>
0

>  <SCORE.SYSTEM.norm>
0

>  <SCORE.heavy>
34

>  <SCORE.norm>
-0.718722

>  <RMSD>
19.546

$$$$
1mwl
 OpenBabel11021811403D
libRbt.so/2013.1/901 2013/11/27
 34 36  0  0  0  0  0  0  0  0999 V2000
   -4.7882  -11.1597   13.3270 C   0  0  2  0  0  0  0  0  0  0  0  0
   -3.5621  -10.6982   13.8090 O   0  0  0  0  0  0  0  0  0  0  0  0
   -4.7944  -10.9432   11.7876 C   0  0  2  0  0  0  0  0  0  0  0  0
   -3.6775  -11.6656   11.1711 N   0  3  0  0  0  0  0  0  0  0  0  0
   -4.7483   -9.4248   11.4469 C   0  0  1  0  0  0  0  0  0  0  0  0
   -4.7793   -9.2269   10.1053 O   0  0  0  0  0  0  0  0  0  0  0  0
   -5.9606   -8.7206   12.1413 C   0  0  2  0  0  0  0  0  0  0  0  0
   -5.9549   -7.3099   11.8381 O   0  0  0  0  0  0  0  0  0  0  0  0
   -5.8581   -8.9703   13.6843 C   0  0  2  0  0  0  0  0  0  0  0  0
   -5.8583  -10.4219   13.9709 O   0  0  0  0  0  0  0  0  0  0  0  0
   -6.9961   -8.3576   14.5086 C   0  0  2  0  0  0  0  0  0  0  0  0
   -6.6831   -8.4248   15.8616 O   0  0  0  0  0  0  0  0  0  0  0  0
   -8.3413   -9.0874   14.3405 C   0  0  0  0  0  0  0  0  0  0  0  0
   -3.8738  -11.2858   18.0300 C   0  0  2  0  0  0  0  0  0  0  0  0
   -3.4950  -11.4677   19.4544 N   0  3  0  0  0  0  0  0  0  0  0  0
   -3.3271  -12.4569   17.1609 C   0  0  0  0  0  0  0  0  0  0  0  0
   -3.7174  -12.2454   15.6532 C   0  0  2  0  0  0  0  0  0  0  0  0
   -3.1831  -13.3982   14.8393 N   0  3  0  0  0  0  0  0  0  0  0  0
   -3.1470  -10.8723   15.1578 C   0  0  2  0  0  0  0  0  0  0  0  0
   -3.7148   -9.7295   16.0345 C   0  0  2  0  0  0  0  0  0  0  0  0
   -3.1696   -8.5063   15.6024 O   0  0  0  0  0  0  0  0  0  0  0  0
   -3.3073   -9.9448   17.5167 C   0  0  1  0  0  0  0  0  0  0  0  0
   -3.8358   -8.8854   18.3009 O   0  0  0  0  0  0  0  0  0  0  0  0
   -4.9713   -8.2084   17.8372 C   0  0  2  0  0  0  0  0  0  0  0  0
   -4.9290   -6.7829   18.4195 C   0  0  2  0  0  0  0  0  0  0  0  0
   -3.7667   -6.1304   17.9548 O   0  0  0  0  0  0  0  0  0  0  0  0
   -4.9324   -6.8676   19.9841 C   0  0  1  0  0  0  0  0  0  0  0  0
   -4.8629   -5.5317   20.6249 N   0  3  0  0  0  0  0  0  0  0  0  0
   -3.7516   -5.4763   21.6088 C   0  0  0  0  0  0  0  0  0  0  0  0
   -6.2234   -7.6209   20.4561 C   0  0  2  0  0  0  0  0  0  0  0  0
   -7.3948   -6.9074   20.0179 O   0  0  0  0  0  0  0  0  0  0  0  0
   -6.2931   -7.7307   21.9020 C   0  0  0  0  0  0  0  0  0  0  0  0
   -6.2964   -9.0284   19.7876 C   0  0  0  0  0  0  0  0  0  0  0  0
   -6.1820   -8.9098   18.2971 O   0  0  0  0  0  0  0  0  0  0  0  0
  1  2  1  1  0  0  0
  1  3  1  0  0  0  0
  1 10  1  0  0  0  0
  3  4  1  6  0  0  0
  3  5  1  0  0  0  0
  5  6  1  6  0  0  0
  5  7  1  0  0  0  0
  7  8  1  1  0  0  0
  7  9  1  0  0  0  0
  9 10  1  6  0  0  0
  9 11  1  0  0  0  0
 11 12  1  1  0  0  0
 11 13  1  0  0  0  0
 14 15  1  1  0  0  0
 14 16  1  0  0  0  0
 14 22  1  0  0  0  0
 16 17  1  0  0  0  0
 17 18  1  6  0  0  0
 17 19  1  0  0  0  0
 19  2  1  6  0  0  0
 19 20  1  0  0  0  0
 20 21  1  6  0  0  0
 20 22  1  0  0  0  0
 22 23  1  1  0  0  0
 24 23  1  1  0  0  0
 24 25  1  0  0  0  0
 24 34  1  0  0  0  0
 25 26  1  1  0  0  0
 25 27  1  0  0  0  0
 27 28  1  1  0  0  0
 27 30  1  0  0  0  0
 28 29  1  0  0  0  0
 30 31  1  6  0  0  0
 30 32  1  0  0  0  0
 30 33  1  0  0  0  0
 33 34  1  0  0  0  0
M  CHG  4   4   1  15   1  18   1  28   1
M  END
>  <CHROM.1>
-172.92636651,33.99579482,-173.63146926,65.64308997,-173.60550603,-169.18178392
167.44635201,66.14077177,131.78849473,41.91335476,-95.21020126,-152.87777267
64.35026041,-7.18315853,65.49002611,-4.89212365,-9.16965076,16.23283661,-1.46097748
-1.01513187,1.29323269

>  <Name>
1mwl

>  <RI>
0

>  <Rbt.Current_Directory>
/home/itssahil/PROJECTS/Mol_Feturizer/New_Systems/rnas/1mwl

>  <Rbt.Executable>
rbdock ($Id: //depot/dev/client3/rdock/2013.1/src/exe/rbdock.cxx#4 $)

>  <Rbt.Library>
libRbt.so (2013.1, Build901 2013/11/27)

>  <Rbt.Parameter_File>
/export/apps/rDock/src/rDock_2013.1_src/data/scripts/dock_solv.prm

>  <Rbt.Receptor>
prm/blind_docking_80.prm

>  <SCORE>
-23.165

>  <SCORE.INTER>
-29.4657

>  <SCORE.INTER.CONST>
1

>  <SCORE.INTER.POLAR>
-6.58217

>  <SCORE.INTER.ROT>
6

>  <SCORE.INTER.SOLV>
27.6429

>  <SCORE.INTER.VDW>
-14.5175

>  <SCORE.INTER.norm>
-0.866637

>  <SCORE.INTRA>
-8.57605

>  <SCORE.INTRA.DIHEDRAL>
-21.0112

>  <SCORE.INTRA.DIHEDRAL.0>
42.0816

>  <SCORE.INTRA.POLAR>
0.204309

>  <SCORE.INTRA.POLAR.0>
-0.254682

>  <SCORE.INTRA.REPUL>
0.294063

>  <SCORE.INTRA.REPUL.0>
0

>  <SCORE.INTRA.SOLV>
-0.227429

>  <SCORE.INTRA.SOLV.lig_0>
-109.803

>  <SCORE.INTRA.VDW>
-0.121692

>  <SCORE.INTRA.VDW.0>
0.32176

>  <SCORE.INTRA.norm>
-0.252237

>  <SCORE.RESTR>
14.8767

>  <SCORE.RESTR.CAVITY>
14.8767

>  <SCORE.RESTR.norm>
0.437549

>  <SCORE.SYSTEM>
0

>  <SCORE.SYSTEM.CONST>
0

>  <SCORE.SYSTEM.DIHEDRAL>
0

>  <SCORE.SYSTEM.SOLV>
0

>  <SCORE.SYSTEM.norm>
0

>  <SCORE.heavy>
34

>  <SCORE.norm>
-0.681325

>  <RMSD>
19.574

$$$$
1mwl
 OpenBabel11021811403D
libRbt.so/2013.1/901 2013/11/27
 34 36  0  0  0  0  0  0  0  0999 V2000
   -5.6354   -8.6675   15.9743 C   0  0  2  0  0  0  0  0  0  0  0  0
   -5.4918  -10.0076   16.3378 O   0  0  0  0  0  0  0  0  0  0  0  0
   -4.3589   -7.9173   16.4482 C   0  0  2  0  0  0  0  0  0  0  0  0
   -3.1673   -8.5082   15.8315 N   0  3  0  0  0  0  0  0  0  0  0  0
   -4.2612   -7.9279   18.0019 C   0  0  1  0  0  0  0  0  0  0  0  0
   -3.1629   -7.2529   18.4242 O   0  0  0  0  0  0  0  0  0  0  0  0
   -5.5647   -7.2918   18.5882 C   0  0  2  0  0  0  0  0  0  0  0  0
   -5.5041   -7.2762   20.0298 O   0  0  0  0  0  0  0  0  0  0  0  0
   -6.7910   -8.1238   18.0803 C   0  0  2  0  0  0  0  0  0  0  0  0
   -6.8289   -8.1320   16.6011 O   0  0  0  0  0  0  0  0  0  0  0  0
   -8.1546   -7.6077   18.5538 C   0  0  2  0  0  0  0  0  0  0  0  0
   -8.2602   -7.7600   19.9318 O   0  0  0  0  0  0  0  0  0  0  0  0
   -9.3470   -8.3667   17.9435 C   0  0  0  0  0  0  0  0  0  0  0  0
   -3.7545  -12.3108   13.1856 C   0  0  2  0  0  0  0  0  0  0  0  0
   -3.5526  -13.3782   12.1731 N   0  3  0  0  0  0  0  0  0  0  0  0
   -3.7504  -12.9082   14.6240 C   0  0  0  0  0  0  0  0  0  0  0  0
   -3.9831  -11.7735   15.6863 C   0  0  2  0  0  0  0  0  0  0  0  0
   -3.9646  -12.3803   17.0677 N   0  3  0  0  0  0  0  0  0  0  0  0
   -5.3432  -11.0544   15.3872 C   0  0  2  0  0  0  0  0  0  0  0  0
   -5.3128  -10.4648   13.9559 C   0  0  2  0  0  0  0  0  0  0  0  0
   -6.5505   -9.8518   13.6865 O   0  0  0  0  0  0  0  0  0  0  0  0
   -5.0981  -11.5994   12.9186 C   0  0  1  0  0  0  0  0  0  0  0  0
   -5.0762  -11.0369   11.6149 O   0  0  0  0  0  0  0  0  0  0  0  0
   -4.2554   -9.9270   11.3760 C   0  0  2  0  0  0  0  0  0  0  0  0
   -4.9125   -9.0991   10.2554 C   0  0  2  0  0  0  0  0  0  0  0  0
   -6.1827   -8.6630   10.6902 O   0  0  0  0  0  0  0  0  0  0  0  0
   -5.0380   -9.9851    8.9692 C   0  0  1  0  0  0  0  0  0  0  0  0
   -5.6909   -9.2676    7.8472 N   0  3  0  0  0  0  0  0  0  0  0  0
   -7.1693   -9.3732    7.9434 C   0  0  0  0  0  0  0  0  0  0  0  0
   -3.6113  -10.4694    8.5365 C   0  0  2  0  0  0  0  0  0  0  0  0
   -2.7745   -9.3333    8.2493 O   0  0  0  0  0  0  0  0  0  0  0  0
   -3.6540  -11.2945    7.3429 C   0  0  0  0  0  0  0  0  0  0  0  0
   -2.9242  -11.2289    9.7130 C   0  0  0  0  0  0  0  0  0  0  0  0
   -2.9212  -10.3861   10.9534 O   0  0  0  0  0  0  0  0  0  0  0  0
  1  2  1  1  0  0  0
  1  3  1  0  0  0  0
  1 10  1  0  0  0  0
  3  4  1  6  0  0  0
  3  5  1  0  0  0  0
  5  6  1  6  0  0  0
  5  7  1  0  0  0  0
  7  8  1  1  0  0  0
  7  9  1  0  0  0  0
  9 10  1  6  0  0  0
  9 11  1  0  0  0  0
 11 12  1  1  0  0  0
 11 13  1  0  0  0  0
 14 15  1  6  0  0  0
 14 16  1  0  0  0  0
 14 22  1  0  0  0  0
 16 17  1  0  0  0  0
 17 18  1  1  0  0  0
 17 19  1  0  0  0  0
 19  2  1  1  0  0  0
 19 20  1  0  0  0  0
 20 21  1  6  0  0  0
 20 22  1  0  0  0  0
 22 23  1  6  0  0  0
 24 23  1  6  0  0  0
 24 25  1  0  0  0  0
 24 34  1  0  0  0  0
 25 26  1  1  0  0  0
 25 27  1  0  0  0  0
 27 28  1  6  0  0  0
 27 30  1  0  0  0  0
 28 29  1  0  0  0  0
 30 31  1  6  0  0  0
 30 32  1  0  0  0  0
 30 33  1  0  0  0  0
 33 34  1  0  0  0  0
M  CHG  4   4   1  15   1  18   1  28   1
M  END
>  <CHROM.1>
-112.81544079,121.30724379,49.62210931,50.72270223,66.90248265,-66.27447544
61.24074792,-166.27425101,-173.53372702,-178.90608628,-70.80667785,-150.73865202
171.68136871,34.58238953,-63.50751968,-5.05647882,-9.70281498,13.92246058
1.83532775,-0.79569264,1.52378999

>  <Name>
1mwl

>  <RI>
0

>  <Rbt.Current_Directory>
/home/itssahil/PROJECTS/Mol_Feturizer/New_Systems/rnas/1mwl

>  <Rbt.Executable>
rbdock ($Id: //depot/dev/client3/rdock/2013.1/src/exe/rbdock.cxx#4 $)

>  <Rbt.Library>
libRbt.so (2013.1, Build901 2013/11/27)

>  <Rbt.Parameter_File>
/export/apps/rDock/src/rDock_2013.1_src/data/scripts/dock_solv.prm

>  <Rbt.Receptor>
prm/blind_docking_60.prm

>  <SCORE>
6.78888

>  <SCORE.INTER>
-6.92334

>  <SCORE.INTER.CONST>
1

>  <SCORE.INTER.POLAR>
-1.42091

>  <SCORE.INTER.ROT>
6

>  <SCORE.INTER.SOLV>
23.7465

>  <SCORE.INTER.VDW>
-15.3947

>  <SCORE.INTER.norm>
-0.203628

>  <SCORE.INTRA>
-12.3553

>  <SCORE.INTRA.DIHEDRAL>
-20.5085

>  <SCORE.INTRA.DIHEDRAL.0>
42.0816

>  <SCORE.INTRA.POLAR>
-1.07774

>  <SCORE.INTRA.POLAR.0>
-0.254682

>  <SCORE.INTRA.REPUL>
0

>  <SCORE.INTRA.REPUL.0>
0

>  <SCORE.INTRA.SOLV>
1.86072

>  <SCORE.INTRA.SOLV.lig_0>
-109.803

>  <SCORE.INTRA.VDW>
0.632884

>  <SCORE.INTRA.VDW.0>
0.32176

>  <SCORE.INTRA.norm>
-0.363391

>  <SCORE.RESTR>
26.0675

>  <SCORE.RESTR.CAVITY>
26.0675

>  <SCORE.RESTR.norm>
0.766692

>  <SCORE.SYSTEM>
0

>  <SCORE.SYSTEM.CONST>
0

>  <SCORE.SYSTEM.DIHEDRAL>
0

>  <SCORE.SYSTEM.SOLV>
0

>  <SCORE.SYSTEM.norm>
0

>  <SCORE.heavy>
34

>  <SCORE.norm>
0.199673

>  <RMSD>
19.597

$$$$
1mwl
 OpenBabel11021811403D
libRbt.so/2013.1/901 2013/11/27
 34 36  0  0  0  0  0  0  0  0999 V2000
   -4.9928  -10.8747   13.5317 C   0  0  2  0  0  0  0  0  0  0  0  0
   -3.8197  -10.3906   14.1133 O   0  0  0  0  0  0  0  0  0  0  0  0
   -4.9099  -10.5852   12.0065 C   0  0  2  0  0  0  0  0  0  0  0  0
   -3.7273  -11.2345   11.4325 N   0  3  0  0  0  0  0  0  0  0  0  0
   -4.9044   -9.0517   11.7386 C   0  0  1  0  0  0  0  0  0  0  0  0
   -4.8580   -8.7912   10.4081 O   0  0  0  0  0  0  0  0  0  0  0  0
   -6.1862   -8.4280   12.3832 C   0  0  2  0  0  0  0  0  0  0  0  0
   -6.2190   -7.0051   12.1452 O   0  0  0  0  0  0  0  0  0  0  0  0
   -6.1720   -8.7470   13.9168 C   0  0  2  0  0  0  0  0  0  0  0  0
   -6.1310  -10.2097   14.1368 O   0  0  0  0  0  0  0  0  0  0  0  0
   -7.3843   -8.2181   14.6916 C   0  0  2  0  0  0  0  0  0  0  0  0
   -7.2403   -8.5107   16.0433 O   0  0  0  0  0  0  0  0  0  0  0  0
   -8.7189   -8.8485   14.2538 C   0  0  0  0  0  0  0  0  0  0  0  0
   -3.9063  -11.2980   18.2880 C   0  0  2  0  0  0  0  0  0  0  0  0
   -3.4715  -11.7308   19.6404 N   0  3  0  0  0  0  0  0  0  0  0  0
   -3.8224  -12.4806   17.2779 C   0  0  0  0  0  0  0  0  0  0  0  0
   -4.2668  -12.0077   15.8465 C   0  0  2  0  0  0  0  0  0  0  0  0
   -4.1841  -13.1749   14.8939 N   0  3  0  0  0  0  0  0  0  0  0  0
   -3.3550  -10.8186   15.3871 C   0  0  2  0  0  0  0  0  0  0  0  0
   -3.4668   -9.6576   16.4052 C   0  0  2  0  0  0  0  0  0  0  0  0
   -2.6186   -8.6102   16.0006 O   0  0  0  0  0  0  0  0  0  0  0  0
   -3.0096  -10.1365   17.8091 C   0  0  1  0  0  0  0  0  0  0  0  0
   -3.1179   -9.0566   18.7248 O   0  0  0  0  0  0  0  0  0  0  0  0
   -4.3420   -8.3830   18.8273 C   0  0  2  0  0  0  0  0  0  0  0  0
   -4.0320   -6.9044   19.1278 C   0  0  2  0  0  0  0  0  0  0  0  0
   -3.2835   -6.3651   18.0593 O   0  0  0  0  0  0  0  0  0  0  0  0
   -3.2317   -6.8108   20.4715 C   0  0  1  0  0  0  0  0  0  0  0  0
   -2.8667   -5.4157   20.8188 N   0  3  0  0  0  0  0  0  0  0  0  0
   -4.0074   -4.4963   20.5748 C   0  0  0  0  0  0  0  0  0  0  0  0
   -4.0851   -7.4433   21.6242 C   0  0  2  0  0  0  0  0  0  0  0  0
   -5.3277   -6.7290   21.7622 O   0  0  0  0  0  0  0  0  0  0  0  0
   -3.4022   -7.3850   22.9038 C   0  0  0  0  0  0  0  0  0  0  0  0
   -4.4661   -8.9124   21.2638 C   0  0  0  0  0  0  0  0  0  0  0  0
   -5.1338   -8.9693   19.9223 O   0  0  0  0  0  0  0  0  0  0  0  0
  1  2  1  1  0  0  0
  1  3  1  0  0  0  0
  1 10  1  0  0  0  0
  3  4  1  1  0  0  0
  3  5  1  0  0  0  0
  5  6  1  6  0  0  0
  5  7  1  0  0  0  0
  7  8  1  1  0  0  0
  7  9  1  0  0  0  0
  9 10  1  6  0  0  0
  9 11  1  0  0  0  0
 11 12  1  1  0  0  0
 11 13  1  0  0  0  0
 14 15  1  1  0  0  0
 14 16  1  0  0  0  0
 14 22  1  0  0  0  0
 16 17  1  0  0  0  0
 17 18  1  6  0  0  0
 17 19  1  0  0  0  0
 19  2  1  6  0  0  0
 19 20  1  0  0  0  0
 20 21  1  6  0  0  0
 20 22  1  0  0  0  0
 22 23  1  1  0  0  0
 24 23  1  1  0  0  0
 24 25  1  0  0  0  0
 24 34  1  0  0  0  0
 25 26  1  6  0  0  0
 25 27  1  0  0  0  0
 27 28  1  1  0  0  0
 27 30  1  0  0  0  0
 28 29  1  0  0  0  0
 30 31  1  1  0  0  0
 30 32  1  0  0  0  0
 30 33  1  0  0  0  0
 33 34  1  0  0  0  0
M  CHG  4   4   1  15   1  18   1  28   1
M  END
>  <CHROM.1>
-160.46311045,7.65982308,-39.60296726,165.27697101,176.67364549,-177.63818030
-48.16802369,-178.42230088,133.71419579,177.26665326,-66.86688181,-146.32057072
68.80212099,162.97491108,178.71561826,-4.54764493,-9.03285189,16.64406510
-1.98803788,-1.15627232,0.88627862

>  <Name>
1mwl

>  <RI>
0

>  <Rbt.Current_Directory>
/home/itssahil/PROJECTS/Mol_Feturizer/New_Systems/rnas/1mwl

>  <Rbt.Executable>
rbdock ($Id: //depot/dev/client3/rdock/2013.1/src/exe/rbdock.cxx#4 $)

>  <Rbt.Library>
libRbt.so (2013.1, Build901 2013/11/27)

>  <Rbt.Parameter_File>
/export/apps/rDock/src/rDock_2013.1_src/data/scripts/dock_solv.prm

>  <Rbt.Receptor>
prm/blind_docking_80.prm

>  <SCORE>
1.72

>  <SCORE.INTER>
-9.81317

>  <SCORE.INTER.CONST>
1

>  <SCORE.INTER.POLAR>
-3.89414

>  <SCORE.INTER.ROT>
6

>  <SCORE.INTER.SOLV>
24.1798

>  <SCORE.INTER.VDW>
-9.22157

>  <SCORE.INTER.norm>
-0.288623

>  <SCORE.INTRA>
-8.19105

>  <SCORE.INTRA.DIHEDRAL>
-21.916

>  <SCORE.INTRA.DIHEDRAL.0>
42.0816

>  <SCORE.INTRA.POLAR>
-0.415963

>  <SCORE.INTRA.POLAR.0>
-0.254682

>  <SCORE.INTRA.REPUL>
0

>  <SCORE.INTRA.REPUL.0>
0

>  <SCORE.INTRA.SOLV>
-1.03178

>  <SCORE.INTRA.SOLV.lig_0>
-109.803

>  <SCORE.INTRA.VDW>
4.69713

>  <SCORE.INTRA.VDW.0>
0.32176

>  <SCORE.INTRA.norm>
-0.240913

>  <SCORE.RESTR>
19.7242

>  <SCORE.RESTR.CAVITY>
19.7242

>  <SCORE.RESTR.norm>
0.580124

>  <SCORE.SYSTEM>
0

>  <SCORE.SYSTEM.CONST>
0

>  <SCORE.SYSTEM.DIHEDRAL>
0

>  <SCORE.SYSTEM.SOLV>
0

>  <SCORE.SYSTEM.norm>
0

>  <SCORE.heavy>
34

>  <SCORE.norm>
0.0505884

>  <RMSD>
19.700

$$$$
1mwl
 OpenBabel11021811403D
libRbt.so/2013.1/901 2013/11/27
 34 36  0  0  0  0  0  0  0  0999 V2000
   -4.8320  -11.5008   12.7208 C   0  0  2  0  0  0  0  0  0  0  0  0
   -3.7218  -11.0924   13.4620 O   0  0  0  0  0  0  0  0  0  0  0  0
   -4.6287  -10.9991   11.2634 C   0  0  2  0  0  0  0  0  0  0  0  0
   -3.3891  -11.5504   10.7075 N   0  3  0  0  0  0  0  0  0  0  0  0
   -4.6332   -9.4432   11.2131 C   0  0  1  0  0  0  0  0  0  0  0  0
   -4.4819   -8.9979    9.9407 O   0  0  0  0  0  0  0  0  0  0  0  0
   -5.9770   -8.9281   11.8266 C   0  0  2  0  0  0  0  0  0  0  0  0
   -6.0199   -7.4862   11.7870 O   0  0  0  0  0  0  0  0  0  0  0  0
   -6.0836   -9.4593   13.2964 C   0  0  2  0  0  0  0  0  0  0  0  0
   -6.0303  -10.9378   13.3133 O   0  0  0  0  0  0  0  0  0  0  0  0
   -7.3670   -9.0556   14.0311 C   0  0  2  0  0  0  0  0  0  0  0  0
   -7.4882   -7.6704   14.0356 O   0  0  0  0  0  0  0  0  0  0  0  0
   -7.3977   -9.4958   15.5061 C   0  0  0  0  0  0  0  0  0  0  0  0
   -5.1709  -11.3317   17.4748 C   0  0  2  0  0  0  0  0  0  0  0  0
   -5.1972  -11.3541   18.9594 N   0  3  0  0  0  0  0  0  0  0  0  0
   -4.3337  -12.5225   16.9208 C   0  0  0  0  0  0  0  0  0  0  0  0
   -4.2968  -12.4792   15.3502 C   0  0  2  0  0  0  0  0  0  0  0  0
   -3.4881  -13.6480   14.8437 N   0  3  0  0  0  0  0  0  0  0  0  0
   -3.6926  -11.1104   14.8835 C   0  0  2  0  0  0  0  0  0  0  0  0
   -4.5505   -9.9489   15.4420 C   0  0  2  0  0  0  0  0  0  0  0  0
   -3.9794   -8.7256   15.0451 O   0  0  0  0  0  0  0  0  0  0  0  0
   -4.5636   -9.9968   16.9934 C   0  0  1  0  0  0  0  0  0  0  0  0
   -5.3528   -8.9227   17.4832 O   0  0  0  0  0  0  0  0  0  0  0  0
   -4.9695   -7.6115   17.1729 C   0  0  2  0  0  0  0  0  0  0  0  0
   -3.6555   -7.3243   17.9238 C   0  0  2  0  0  0  0  0  0  0  0  0
   -2.6644   -8.2249   17.4774 O   0  0  0  0  0  0  0  0  0  0  0  0
   -3.8993   -7.4827   19.4634 C   0  0  1  0  0  0  0  0  0  0  0  0
   -2.6696   -7.2508   20.2597 N   0  3  0  0  0  0  0  0  0  0  0  0
   -2.7521   -7.9438   21.5707 C   0  0  0  0  0  0  0  0  0  0  0  0
   -5.0230   -6.4861   19.9119 C   0  0  2  0  0  0  0  0  0  0  0  0
   -4.6173   -5.1329   19.6334 O   0  0  0  0  0  0  0  0  0  0  0  0
   -5.2968   -6.5769   21.3346 C   0  0  0  0  0  0  0  0  0  0  0  0
   -6.3193   -6.7312   19.0796 C   0  0  0  0  0  0  0  0  0  0  0  0
   -6.0203   -6.6769   17.6111 O   0  0  0  0  0  0  0  0  0  0  0  0
  1  2  1  1  0  0  0
  1  3  1  0  0  0  0
  1 10  1  0  0  0  0
  3  4  1  1  0  0  0
  3  5  1  0  0  0  0
  5  6  1  6  0  0  0
  5  7  1  0  0  0  0
  7  8  1  1  0  0  0
  7  9  1  0  0  0  0
  9 10  1  6  0  0  0
  9 11  1  0  0  0  0
 11 12  1  1  0  0  0
 11 13  1  0  0  0  0
 14 15  1  1  0  0  0
 14 16  1  0  0  0  0
 14 22  1  0  0  0  0
 16 17  1  0  0  0  0
 17 18  1  1  0  0  0
 17 19  1  0  0  0  0
 19  2  1  6  0  0  0
 19 20  1  0  0  0  0
 20 21  1  1  0  0  0
 20 22  1  0  0  0  0
 22 23  1  1  0  0  0
 24 23  1  1  0  0  0
 24 25  1  0  0  0  0
 24 34  1  0  0  0  0
 25 26  1  6  0  0  0
 25 27  1  0  0  0  0
 27 28  1  1  0  0  0
 27 30  1  0  0  0  0
 28 29  1  0  0  0  0
 30 31  1  6  0  0  0
 30 32  1  0  0  0  0
 30 33  1  0  0  0  0
 33 34  1  0  0  0  0
M  CHG  4   4   1  15   1  18   1  28   1
M  END
>  <CHROM.1>
165.62931070,44.85872844,90.04332907,142.38769576,-166.04492327,-56.72836099
68.52070058,71.28493325,63.63914471,30.87453649,179.37937210,-68.35847778
62.38598951,-35.72874339,-63.49449346,-4.82029944,-9.21765945,15.80119633
-1.71796571,-1.15270729,1.04675174

>  <Name>
1mwl

>  <RI>
0

>  <Rbt.Current_Directory>
/home/itssahil/PROJECTS/Mol_Feturizer/New_Systems/rnas/1mwl

>  <Rbt.Executable>
rbdock ($Id: //depot/dev/client3/rdock/2013.1/src/exe/rbdock.cxx#4 $)

>  <Rbt.Library>
libRbt.so (2013.1, Build901 2013/11/27)

>  <Rbt.Parameter_File>
/export/apps/rDock/src/rDock_2013.1_src/data/scripts/dock_solv.prm

>  <Rbt.Receptor>
prm/blind_docking_80.prm

>  <SCORE>
-5.94188

>  <SCORE.INTER>
-20.6103

>  <SCORE.INTER.CONST>
1

>  <SCORE.INTER.POLAR>
-5.02243

>  <SCORE.INTER.ROT>
6

>  <SCORE.INTER.SOLV>
27.2112

>  <SCORE.INTER.VDW>
-13.6692

>  <SCORE.INTER.norm>
-0.606186

>  <SCORE.INTRA>
-0.759895

>  <SCORE.INTRA.DIHEDRAL>
-26.4171

>  <SCORE.INTRA.DIHEDRAL.0>
42.0816

>  <SCORE.INTRA.POLAR>
-0.380362

>  <SCORE.INTRA.POLAR.0>
-0.254682

>  <SCORE.INTRA.REPUL>
0.0779236

>  <SCORE.INTRA.REPUL.0>
0

>  <SCORE.INTRA.SOLV>
-0.732527

>  <SCORE.INTRA.SOLV.lig_0>
-109.803

>  <SCORE.INTRA.VDW>
13.7185

>  <SCORE.INTRA.VDW.0>
0.32176

>  <SCORE.INTRA.norm>
-0.0223499

>  <SCORE.RESTR>
15.4283

>  <SCORE.RESTR.CAVITY>
15.4283

>  <SCORE.RESTR.norm>
0.453775

>  <SCORE.SYSTEM>
0

>  <SCORE.SYSTEM.CONST>
0

>  <SCORE.SYSTEM.DIHEDRAL>
0

>  <SCORE.SYSTEM.SOLV>
0

>  <SCORE.SYSTEM.norm>
0

>  <SCORE.heavy>
34

>  <SCORE.norm>
-0.174761

>  <RMSD>
19.733

$$$$
1mwl
 OpenBabel11021811403D
libRbt.so/2013.1/901 2013/11/27
 34 36  0  0  0  0  0  0  0  0999 V2000
   -4.7474  -11.3913   13.6308 C   0  0  2  0  0  0  0  0  0  0  0  0
   -3.4540  -11.0531   14.0325 O   0  0  0  0  0  0  0  0  0  0  0  0
   -4.6676  -11.8588   12.1502 C   0  0  2  0  0  0  0  0  0  0  0  0
   -3.7596  -13.0036   12.0300 N   0  3  0  0  0  0  0  0  0  0  0  0
   -4.2295  -10.6845   11.2269 C   0  0  1  0  0  0  0  0  0  0  0  0
   -4.1824  -11.0782    9.9296 O   0  0  0  0  0  0  0  0  0  0  0  0
   -5.2359   -9.5013   11.4130 C   0  0  2  0  0  0  0  0  0  0  0  0
   -4.8649   -8.3962   10.5624 O   0  0  0  0  0  0  0  0  0  0  0  0
   -5.2310   -9.0826   12.9225 C   0  0  2  0  0  0  0  0  0  0  0  0
   -5.6068  -10.2318   13.7755 O   0  0  0  0  0  0  0  0  0  0  0  0
   -6.1916   -7.9404   13.2727 C   0  0  2  0  0  0  0  0  0  0  0  0
   -5.8050   -7.3548   14.4731 O   0  0  0  0  0  0  0  0  0  0  0  0
   -7.6490   -8.3977   13.4658 C   0  0  0  0  0  0  0  0  0  0  0  0
   -3.7282  -11.2345   18.2929 C   0  0  2  0  0  0  0  0  0  0  0  0
   -3.3366  -11.2882   19.7244 N   0  3  0  0  0  0  0  0  0  0  0  0
   -3.2115  -12.4920   17.5330 C   0  0  0  0  0  0  0  0  0  0  0  0
   -3.6151  -12.4165   16.0159 C   0  0  2  0  0  0  0  0  0  0  0  0
   -3.1098  -13.6503   15.3095 N   0  3  0  0  0  0  0  0  0  0  0  0
   -3.0268  -11.1068   15.3876 C   0  0  2  0  0  0  0  0  0  0  0  0
   -3.5650   -9.8763   16.1579 C   0  0  2  0  0  0  0  0  0  0  0  0
   -3.0038   -8.7094   15.6070 O   0  0  0  0  0  0  0  0  0  0  0  0
   -3.1446   -9.9583   17.6498 C   0  0  1  0  0  0  0  0  0  0  0  0
   -3.6460   -8.8204   18.3355 O   0  0  0  0  0  0  0  0  0  0  0  0
   -4.4375   -7.9053   17.6291 C   0  0  2  0  0  0  0  0  0  0  0  0
   -4.6370   -6.6735   18.5322 C   0  0  2  0  0  0  0  0  0  0  0  0
   -3.3786   -6.0964   18.8076 O   0  0  0  0  0  0  0  0  0  0  0  0
   -5.3479   -7.1176   19.8560 C   0  0  1  0  0  0  0  0  0  0  0  0
   -5.5512   -5.9894   20.7971 N   0  3  0  0  0  0  0  0  0  0  0  0
   -5.1722   -6.3808   22.1789 C   0  0  0  0  0  0  0  0  0  0  0  0
   -6.7262   -7.7760   19.5043 C   0  0  2  0  0  0  0  0  0  0  0  0
   -7.5606   -6.8268   18.8142 O   0  0  0  0  0  0  0  0  0  0  0  0
   -7.4431   -8.2077   20.6905 C   0  0  0  0  0  0  0  0  0  0  0  0
   -6.5149   -8.9663   18.5185 C   0  0  0  0  0  0  0  0  0  0  0  0
   -5.7378   -8.5219   17.3154 O   0  0  0  0  0  0  0  0  0  0  0  0
  1  2  1  6  0  0  0
  1  3  1  0  0  0  0
  1 10  1  0  0  0  0
  3  4  1  1  0  0  0
  3  5  1  0  0  0  0
  5  6  1  6  0  0  0
  5  7  1  0  0  0  0
  7  8  1  6  0  0  0
  7  9  1  0  0  0  0
  9 10  1  1  0  0  0
  9 11  1  0  0  0  0
 11 12  1  1  0  0  0
 11 13  1  0  0  0  0
 14 15  1  1  0  0  0
 14 16  1  0  0  0  0
 14 22  1  0  0  0  0
 16 17  1  0  0  0  0
 17 18  1  6  0  0  0
 17 19  1  0  0  0  0
 19  2  1  6  0  0  0
 19 20  1  0  0  0  0
 20 21  1  6  0  0  0
 20 22  1  0  0  0  0
 22 23  1  1  0  0  0
 24 23  1  1  0  0  0
 24 25  1  0  0  0  0
 24 34  1  0  0  0  0
 25 26  1  1  0  0  0
 25 27  1  0  0  0  0
 27 28  1  1  0  0  0
 27 30  1  0  0  0  0
 28 29  1  0  0  0  0
 30 31  1  6  0  0  0
 30 32  1  0  0  0  0
 30 33  1  0  0  0  0
 33 34  1  0  0  0  0
M  CHG  4   4   1  15   1  18   1  28   1
M  END
>  <CHROM.1>
-153.72056973,41.62146560,-170.79657649,-70.31980451,-142.76476794,-160.13784027
-61.37934282,-69.31030998,65.95557924,61.95913133,-117.22350277,-170.57428923
-69.41371724,-14.84869100,177.10080093,-4.74106320,-9.40229727,16.03191699
-1.35031544,-1.02411961,1.34370469

>  <Name>
1mwl

>  <RI>
0

>  <Rbt.Current_Directory>
/home/itssahil/PROJECTS/Mol_Feturizer/New_Systems/rnas/1mwl

>  <Rbt.Executable>
rbdock ($Id: //depot/dev/client3/rdock/2013.1/src/exe/rbdock.cxx#4 $)

>  <Rbt.Library>
libRbt.so (2013.1, Build901 2013/11/27)

>  <Rbt.Parameter_File>
/export/apps/rDock/src/rDock_2013.1_src/data/scripts/dock_solv.prm

>  <Rbt.Receptor>
prm/blind_docking_80.prm

>  <SCORE>
-20.8785

>  <SCORE.INTER>
-24.8796

>  <SCORE.INTER.CONST>
1

>  <SCORE.INTER.POLAR>
-5.32288

>  <SCORE.INTER.ROT>
6

>  <SCORE.INTER.SOLV>
26.5265

>  <SCORE.INTER.VDW>
-15.2857

>  <SCORE.INTER.norm>
-0.731754

>  <SCORE.INTRA>
-9.18896

>  <SCORE.INTRA.DIHEDRAL>
-19.1138

>  <SCORE.INTRA.DIHEDRAL.0>
42.0816

>  <SCORE.INTRA.POLAR>
-0.773765

>  <SCORE.INTRA.POLAR.0>
-0.254682

>  <SCORE.INTRA.REPUL>
0.118147

>  <SCORE.INTRA.REPUL.0>
0

>  <SCORE.INTRA.SOLV>
1.37289

>  <SCORE.INTRA.SOLV.lig_0>
-109.803

>  <SCORE.INTRA.VDW>
1.72157

>  <SCORE.INTRA.VDW.0>
0.32176

>  <SCORE.INTRA.norm>
-0.270264

>  <SCORE.RESTR>
13.1901

>  <SCORE.RESTR.CAVITY>
13.1901

>  <SCORE.RESTR.norm>
0.387945

>  <SCORE.SYSTEM>
0

>  <SCORE.SYSTEM.CONST>
0

>  <SCORE.SYSTEM.DIHEDRAL>
0

>  <SCORE.SYSTEM.SOLV>
0

>  <SCORE.SYSTEM.norm>
0

>  <SCORE.heavy>
34

>  <SCORE.norm>
-0.614072

>  <RMSD>
19.754

$$$$
1mwl
 OpenBabel11021811403D
libRbt.so/2013.1/901 2013/11/27
 34 36  0  0  0  0  0  0  0  0999 V2000
   -4.6911  -11.5361   13.8144 C   0  0  2  0  0  0  0  0  0  0  0  0
   -3.3964  -11.2631   14.2591 O   0  0  0  0  0  0  0  0  0  0  0  0
   -4.6218  -11.7358   12.2742 C   0  0  2  0  0  0  0  0  0  0  0  0
   -3.7073  -12.8343   11.9478 N   0  3  0  0  0  0  0  0  0  0  0  0
   -4.1999  -10.4141   11.5680 C   0  0  1  0  0  0  0  0  0  0  0  0
   -4.1620  -10.5736   10.2214 O   0  0  0  0  0  0  0  0  0  0  0  0
   -5.2124   -9.2901   11.9668 C   0  0  2  0  0  0  0  0  0  0  0  0
   -4.8565   -8.0499   11.3206 O   0  0  0  0  0  0  0  0  0  0  0  0
   -5.1965   -9.1429   13.5262 C   0  0  2  0  0  0  0  0  0  0  0  0
   -5.5568  -10.4270   14.1671 O   0  0  0  0  0  0  0  0  0  0  0  0
   -6.1614   -8.0878   14.0791 C   0  0  2  0  0  0  0  0  0  0  0  0
   -5.9451   -7.9241   15.4428 O   0  0  0  0  0  0  0  0  0  0  0  0
   -7.6454   -8.4658   13.9202 C   0  0  0  0  0  0  0  0  0  0  0  0
   -3.8611  -11.3200   18.5065 C   0  0  2  0  0  0  0  0  0  0  0  0
   -3.5339  -11.3401   19.9549 N   0  3  0  0  0  0  0  0  0  0  0  0
   -3.3343  -12.6070   17.8050 C   0  0  0  0  0  0  0  0  0  0  0  0
   -3.6693  -12.5673   16.2699 C   0  0  2  0  0  0  0  0  0  0  0  0
   -3.1560  -13.8289   15.6206 N   0  3  0  0  0  0  0  0  0  0  0  0
   -3.0303  -11.2859   15.6328 C   0  0  2  0  0  0  0  0  0  0  0  0
   -3.5794  -10.0253   16.3446 C   0  0  2  0  0  0  0  0  0  0  0  0
   -2.9734   -8.8841   15.7875 O   0  0  0  0  0  0  0  0  0  0  0  0
   -3.2266  -10.0725   17.8554 C   0  0  1  0  0  0  0  0  0  0  0  0
   -3.7370   -8.9074   18.4867 O   0  0  0  0  0  0  0  0  0  0  0  0
   -4.9121   -8.3322   17.9859 C   0  0  2  0  0  0  0  0  0  0  0  0
   -5.0084   -6.9053   18.5584 C   0  0  2  0  0  0  0  0  0  0  0  0
   -3.8930   -6.1584   18.1218 O   0  0  0  0  0  0  0  0  0  0  0  0
   -5.0496   -6.9819   20.1228 C   0  0  1  0  0  0  0  0  0  0  0  0
   -5.1128   -5.6417   20.7552 N   0  3  0  0  0  0  0  0  0  0  0  0
   -4.1464   -5.5430   21.8787 C   0  0  0  0  0  0  0  0  0  0  0  0
   -6.2848   -7.8403   20.5639 C   0  0  2  0  0  0  0  0  0  0  0  0
   -7.4996   -7.2317   20.0873 O   0  0  0  0  0  0  0  0  0  0  0  0
   -6.3865   -7.9482   22.0079 C   0  0  0  0  0  0  0  0  0  0  0  0
   -6.2183   -9.2523   19.9042 C   0  0  0  0  0  0  0  0  0  0  0  0
   -6.0715   -9.1322   18.4167 O   0  0  0  0  0  0  0  0  0  0  0  0
  1  2  1  6  0  0  0
  1  3  1  0  0  0  0
  1 10  1  0  0  0  0
  3  4  1  1  0  0  0
  3  5  1  0  0  0  0
  5  6  1  6  0  0  0
  5  7  1  0  0  0  0
  7  8  1  6  0  0  0
  7  9  1  0  0  0  0
  9 10  1  1  0  0  0
  9 11  1  0  0  0  0
 11 12  1  1  0  0  0
 11 13  1  0  0  0  0
 14 15  1  1  0  0  0
 14 16  1  0  0  0  0
 14 22  1  0  0  0  0
 16 17  1  0  0  0  0
 17 18  1  6  0  0  0
 17 19  1  0  0  0  0
 19  2  1  6  0  0  0
 19 20  1  0  0  0  0
 20 21  1  6  0  0  0
 20 22  1  0  0  0  0
 22 23  1  1  0  0  0
 24 23  1  1  0  0  0
 24 25  1  0  0  0  0
 24 34  1  0  0  0  0
 25 26  1  1  0  0  0
 25 27  1  0  0  0  0
 27 28  1  1  0  0  0
 27 30  1  0  0  0  0
 28 29  1  0  0  0  0
 30 31  1  6  0  0  0
 30 32  1  0  0  0  0
 30 33  1  0  0  0  0
 33 34  1  0  0  0  0
M  CHG  4   4   1  15   1  18   1  28   1
M  END
>  <CHROM.1>
-167.16677694,44.38226810,-54.08953773,-65.29911240,-50.20296386,-172.56953499
44.28003799,-157.67066070,78.86363607,-68.67400120,-88.66050975,-163.78636847
-42.61210779,-13.91941811,-73.94456269,-4.69141387,-9.44495632,16.43109003
-1.30815092,-1.13111393,1.39432496

>  <Name>
1mwl

>  <RI>
0

>  <Rbt.Current_Directory>
/home/itssahil/PROJECTS/Mol_Feturizer/New_Systems/rnas/1mwl

>  <Rbt.Executable>
rbdock ($Id: //depot/dev/client3/rdock/2013.1/src/exe/rbdock.cxx#4 $)

>  <Rbt.Library>
libRbt.so (2013.1, Build901 2013/11/27)

>  <Rbt.Parameter_File>
/export/apps/rDock/src/rDock_2013.1_src/data/scripts/dock_solv.prm

>  <Rbt.Receptor>
prm/blind_docking_80.prm

>  <SCORE>
-16.5742

>  <SCORE.INTER>
-18.0504

>  <SCORE.INTER.CONST>
1

>  <SCORE.INTER.POLAR>
-4.48263

>  <SCORE.INTER.ROT>
6

>  <SCORE.INTER.SOLV>
24.3886

>  <SCORE.INTER.VDW>
-12.8211

>  <SCORE.INTER.norm>
-0.530896

>  <SCORE.INTRA>
-14.6619

>  <SCORE.INTRA.DIHEDRAL>
-25.8838

>  <SCORE.INTRA.DIHEDRAL.0>
42.0816

>  <SCORE.INTRA.POLAR>
-0.655158

>  <SCORE.INTRA.POLAR.0>
-0.254682

>  <SCORE.INTRA.REPUL>
0

>  <SCORE.INTRA.REPUL.0>
0

>  <SCORE.INTRA.SOLV>
2.11737

>  <SCORE.INTRA.SOLV.lig_0>
-109.803

>  <SCORE.INTRA.VDW>
-0.55112

>  <SCORE.INTRA.VDW.0>
0.32176

>  <SCORE.INTRA.norm>
-0.431231

>  <SCORE.RESTR>
16.1381

>  <SCORE.RESTR.CAVITY>
16.1381

>  <SCORE.RESTR.norm>
0.474651

>  <SCORE.SYSTEM>
0

>  <SCORE.SYSTEM.CONST>
0

>  <SCORE.SYSTEM.DIHEDRAL>
0

>  <SCORE.SYSTEM.SOLV>
0

>  <SCORE.SYSTEM.norm>
0

>  <SCORE.heavy>
34

>  <SCORE.norm>
-0.487475

>  <RMSD>
19.787

$$$$
1mwl
 OpenBabel11021811403D
libRbt.so/2013.1/901 2013/11/27
 34 36  0  0  0  0  0  0  0  0999 V2000
   -4.9802  -11.3929   12.9684 C   0  0  2  0  0  0  0  0  0  0  0  0
   -3.6611  -11.1692   13.3665 O   0  0  0  0  0  0  0  0  0  0  0  0
   -4.9696  -11.6241   11.4310 C   0  0  2  0  0  0  0  0  0  0  0  0
   -4.1149  -12.7678   11.0979 N   0  3  0  0  0  0  0  0  0  0  0  0
   -4.5135  -10.3357   10.6856 C   0  0  1  0  0  0  0  0  0  0  0  0
   -4.5262  -10.5217    9.3420 O   0  0  0  0  0  0  0  0  0  0  0  0
   -5.4626   -9.1608   11.0936 C   0  0  2  0  0  0  0  0  0  0  0  0
   -5.0741   -7.9498   10.4119 O   0  0  0  0  0  0  0  0  0  0  0  0
   -5.3898   -8.9855   12.6486 C   0  0  2  0  0  0  0  0  0  0  0  0
   -5.7849  -10.2403   13.3260 O   0  0  0  0  0  0  0  0  0  0  0  0
   -6.2894   -7.8787   13.2104 C   0  0  2  0  0  0  0  0  0  0  0  0
   -5.9355   -7.6114   14.5282 O   0  0  0  0  0  0  0  0  0  0  0  0
   -7.7834   -8.2498   13.2319 C   0  0  0  0  0  0  0  0  0  0  0  0
   -3.9956  -11.1647   17.6264 C   0  0  2  0  0  0  0  0  0  0  0  0
   -3.6242  -11.1681   19.0643 N   0  3  0  0  0  0  0  0  0  0  0  0
   -3.5014  -12.4656   16.9270 C   0  0  0  0  0  0  0  0  0  0  0  0
   -3.8831  -12.4437   15.4025 C   0  0  2  0  0  0  0  0  0  0  0  0
   -3.4005  -13.7184   14.7552 N   0  3  0  0  0  0  0  0  0  0  0  0
   -3.2531  -11.1767   14.7285 C   0  0  2  0  0  0  0  0  0  0  0  0
   -3.7696   -9.9019   15.4393 C   0  0  2  0  0  0  0  0  0  0  0  0
   -3.1714   -8.7736   14.8482 O   0  0  0  0  0  0  0  0  0  0  0  0
   -3.3710   -9.9317   16.9391 C   0  0  1  0  0  0  0  0  0  0  0  0
   -3.8519   -8.7538   17.5697 O   0  0  0  0  0  0  0  0  0  0  0  0
   -5.0156   -8.1530   17.0723 C   0  0  2  0  0  0  0  0  0  0  0  0
   -5.3055   -6.9160   17.9434 C   0  0  2  0  0  0  0  0  0  0  0  0
   -4.2248   -6.0143   17.8359 O   0  0  0  0  0  0  0  0  0  0  0  0
   -5.5059   -7.3706   19.4294 C   0  0  1  0  0  0  0  0  0  0  0  0
   -5.7613   -6.2299   20.3424 N   0  3  0  0  0  0  0  0  0  0  0  0
   -4.4994   -5.5106   20.6529 C   0  0  0  0  0  0  0  0  0  0  0  0
   -6.6952   -8.3892   19.5002 C   0  0  2  0  0  0  0  0  0  0  0  0
   -7.9039   -7.7645   19.0289 O   0  0  0  0  0  0  0  0  0  0  0  0
   -6.9398   -8.8491   20.8552 C   0  0  0  0  0  0  0  0  0  0  0  0
   -6.4269   -9.5926   18.5447 C   0  0  0  0  0  0  0  0  0  0  0  0
   -6.1342   -9.1075   17.1563 O   0  0  0  0  0  0  0  0  0  0  0  0
  1  2  1  6  0  0  0
  1  3  1  0  0  0  0
  1 10  1  0  0  0  0
  3  4  1  1  0  0  0
  3  5  1  0  0  0  0
  5  6  1  6  0  0  0
  5  7  1  0  0  0  0
  7  8  1  6  0  0  0
  7  9  1  0  0  0  0
  9 10  1  1  0  0  0
  9 11  1  0  0  0  0
 11 12  1  1  0  0  0
 11 13  1  0  0  0  0
 14 15  1  1  0  0  0
 14 16  1  0  0  0  0
 14 22  1  0  0  0  0
 16 17  1  0  0  0  0
 17 18  1  6  0  0  0
 17 19  1  0  0  0  0
 19  2  1  6  0  0  0
 19 20  1  0  0  0  0
 20 21  1  6  0  0  0
 20 22  1  0  0  0  0
 22 23  1  1  0  0  0
 24 23  1  1  0  0  0
 24 25  1  0  0  0  0
 24 34  1  0  0  0  0
 25 26  1  1  0  0  0
 25 27  1  0  0  0  0
 27 28  1  1  0  0  0
 27 30  1  0  0  0  0
 28 29  1  0  0  0  0
 30 31  1  6  0  0  0
 30 32  1  0  0  0  0
 30 33  1  0  0  0  0
 33 34  1  0  0  0  0
M  CHG  4   4   1  15   1  18   1  28   1
M  END
>  <CHROM.1>
-167.46043210,46.57946533,179.70403396,-67.43813841,-107.04643452,-166.95165040
-159.47060680,58.39490221,59.17379764,-161.49710672,-90.50478857,179.58309429
79.76691684,42.48018472,-59.19144523,-4.95676084,-9.43215353,15.54738441
-1.30462459,-1.12645483,1.44204861

>  <Name>
1mwl

>  <RI>
0

>  <Rbt.Current_Directory>
/home/itssahil/PROJECTS/Mol_Feturizer/New_Systems/rnas/1mwl

>  <Rbt.Executable>
rbdock ($Id: //depot/dev/client3/rdock/2013.1/src/exe/rbdock.cxx#4 $)

>  <Rbt.Library>
libRbt.so (2013.1, Build901 2013/11/27)

>  <Rbt.Parameter_File>
/export/apps/rDock/src/rDock_2013.1_src/data/scripts/dock_solv.prm

>  <Rbt.Receptor>
prm/blind_docking_80.prm

>  <SCORE>
-19.4913

>  <SCORE.INTER>
-25.6039

>  <SCORE.INTER.CONST>
1

>  <SCORE.INTER.POLAR>
-5.79375

>  <SCORE.INTER.ROT>
6

>  <SCORE.INTER.SOLV>
24.0199

>  <SCORE.INTER.VDW>
-13.3634

>  <SCORE.INTER.norm>
-0.753055

>  <SCORE.INTRA>
-7.45077

>  <SCORE.INTRA.DIHEDRAL>
-23.4753

>  <SCORE.INTRA.DIHEDRAL.0>
42.0816

>  <SCORE.INTRA.POLAR>
0.253404

>  <SCORE.INTRA.POLAR.0>
-0.254682

>  <SCORE.INTRA.REPUL>
0.151759

>  <SCORE.INTRA.REPUL.0>
0

>  <SCORE.INTRA.SOLV>
2.49071

>  <SCORE.INTRA.SOLV.lig_0>
-109.803

>  <SCORE.INTRA.VDW>
1.42116

>  <SCORE.INTRA.VDW.0>
0.32176

>  <SCORE.INTRA.norm>
-0.21914

>  <SCORE.RESTR>
13.5633

>  <SCORE.RESTR.CAVITY>
13.5633

>  <SCORE.RESTR.norm>
0.398922

>  <SCORE.SYSTEM>
0

>  <SCORE.SYSTEM.CONST>
0

>  <SCORE.SYSTEM.DIHEDRAL>
0

>  <SCORE.SYSTEM.SOLV>
0

>  <SCORE.SYSTEM.norm>
0

>  <SCORE.heavy>
34

>  <SCORE.norm>
-0.573273

>  <RMSD>
19.792

$$$$
1mwl
 OpenBabel11021811403D
libRbt.so/2013.1/901 2013/11/27
 34 36  0  0  0  0  0  0  0  0999 V2000
   -4.5429  -11.4312   13.3948 C   0  0  2  0  0  0  0  0  0  0  0  0
   -3.3456  -11.0057   13.9729 O   0  0  0  0  0  0  0  0  0  0  0  0
   -4.5476  -10.9407   11.9196 C   0  0  2  0  0  0  0  0  0  0  0  0
   -3.3906  -11.4851   11.2024 N   0  3  0  0  0  0  0  0  0  0  0  0
   -4.5756   -9.3853   11.8587 C   0  0  1  0  0  0  0  0  0  0  0  0
   -4.6057   -8.9500   10.5743 O   0  0  0  0  0  0  0  0  0  0  0  0
   -5.8275   -8.8775   12.6477 C   0  0  2  0  0  0  0  0  0  0  0  0
   -5.8906   -7.4366   12.6035 O   0  0  0  0  0  0  0  0  0  0  0  0
   -5.7249   -9.3966   14.1221 C   0  0  2  0  0  0  0  0  0  0  0  0
   -5.6541  -10.8744   14.1427 O   0  0  0  0  0  0  0  0  0  0  0  0
   -6.8991   -8.9985   15.0236 C   0  0  2  0  0  0  0  0  0  0  0  0
   -6.5053   -7.9785   15.8825 O   0  0  0  0  0  0  0  0  0  0  0  0
   -7.4054  -10.1444   15.9187 C   0  0  0  0  0  0  0  0  0  0  0  0
   -3.9135  -11.9250   18.1071 C   0  0  2  0  0  0  0  0  0  0  0  0
   -3.6253  -12.1825   19.5410 N   0  3  0  0  0  0  0  0  0  0  0  0
   -3.2126  -12.9843   17.2057 C   0  0  0  0  0  0  0  0  0  0  0  0
   -3.5087  -12.6921   15.6901 C   0  0  2  0  0  0  0  0  0  0  0  0
   -2.8257  -13.7381   14.8439 N   0  3  0  0  0  0  0  0  0  0  0  0
   -3.0165  -11.2471   15.3349 C   0  0  2  0  0  0  0  0  0  0  0  0
   -3.7365  -10.2181   16.2404 C   0  0  2  0  0  0  0  0  0  0  0  0
   -3.2620   -8.9289   15.9361 O   0  0  0  0  0  0  0  0  0  0  0  0
   -3.4213  -10.5109   17.7318 C   0  0  1  0  0  0  0  0  0  0  0  0
   -4.0889   -9.5551   18.5425 O   0  0  0  0  0  0  0  0  0  0  0  0
   -5.0004   -8.6804   17.9371 C   0  0  2  0  0  0  0  0  0  0  0  0
   -4.6636   -7.2564   18.4183 C   0  0  2  0  0  0  0  0  0  0  0  0
   -3.3525   -6.9307   18.0090 O   0  0  0  0  0  0  0  0  0  0  0  0
   -4.7904   -7.1989   19.9790 C   0  0  1  0  0  0  0  0  0  0  0  0
   -4.4520   -5.8628   20.5270 N   0  3  0  0  0  0  0  0  0  0  0  0
   -2.9803   -5.6662   20.5656 C   0  0  0  0  0  0  0  0  0  0  0  0
   -6.2504   -7.5924   20.3918 C   0  0  2  0  0  0  0  0  0  0  0  0
   -7.1900   -6.6719   19.8061 O   0  0  0  0  0  0  0  0  0  0  0  0
   -6.4396   -7.5546   21.8306 C   0  0  0  0  0  0  0  0  0  0  0  0
   -6.6072   -8.9995   19.8210 C   0  0  0  0  0  0  0  0  0  0  0  0
   -6.3697   -9.0431   18.3409 O   0  0  0  0  0  0  0  0  0  0  0  0
  1  2  1  1  0  0  0
  1  3  1  0  0  0  0
  1 10  1  0  0  0  0
  3  4  1  1  0  0  0
  3  5  1  0  0  0  0
  5  6  1  6  0  0  0
  5  7  1  0  0  0  0
  7  8  1  1  0  0  0
  7  9  1  0  0  0  0
  9 10  1  6  0  0  0
  9 11  1  0  0  0  0
 11 12  1  1  0  0  0
 11 13  1  0  0  0  0
 14 15  1  1  0  0  0
 14 16  1  0  0  0  0
 14 22  1  0  0  0  0
 16 17  1  0  0  0  0
 17 18  1  6  0  0  0
 17 19  1  0  0  0  0
 19  2  1  6  0  0  0
 19 20  1  0  0  0  0
 20 21  1  6  0  0  0
 20 22  1  0  0  0  0
 22 23  1  1  0  0  0
 24 23  1  1  0  0  0
 24 25  1  0  0  0  0
 24 34  1  0  0  0  0
 25 26  1  1  0  0  0
 25 27  1  0  0  0  0
 27 28  1  6  0  0  0
 27 30  1  0  0  0  0
 28 29  1  0  0  0  0
 30 31  1  6  0  0  0
 30 32  1  0  0  0  0
 30 33  1  0  0  0  0
 33 34  1  0  0  0  0
M  CHG  4   4   1  15   1  18   1  28   1
M  END
>  <CHROM.1>
178.21372698,39.23657383,-166.40424434,69.15559056,72.87682414,-104.64018711
94.32500912,-46.12875472,-115.21146865,66.02990086,-112.13613651,-131.43419955
-48.02455542,42.38135691,68.26683948,-4.74594454,-9.45608490,16.39043348
-1.33375892,-1.09949948,1.37045464

>  <Name>
1mwl

>  <RI>
0

>  <Rbt.Current_Directory>
/home/itssahil/PROJECTS/Mol_Feturizer/New_Systems/rnas/1mwl

>  <Rbt.Executable>
rbdock ($Id: //depot/dev/client3/rdock/2013.1/src/exe/rbdock.cxx#4 $)

>  <Rbt.Library>
libRbt.so (2013.1, Build901 2013/11/27)

>  <Rbt.Parameter_File>
/export/apps/rDock/src/rDock_2013.1_src/data/scripts/dock_solv.prm

>  <Rbt.Receptor>
prm/blind_docking_80.prm

>  <SCORE>
-7.65705

>  <SCORE.INTER>
-21.5642

>  <SCORE.INTER.CONST>
1

>  <SCORE.INTER.POLAR>
-4.68414

>  <SCORE.INTER.ROT>
6

>  <SCORE.INTER.SOLV>
24.727

>  <SCORE.INTER.VDW>
-14.6046

>  <SCORE.INTER.norm>
-0.63424

>  <SCORE.INTRA>
-0.219392

>  <SCORE.INTRA.DIHEDRAL>
-10.0785

>  <SCORE.INTRA.DIHEDRAL.0>
42.0816

>  <SCORE.INTRA.POLAR>
0.190322

>  <SCORE.INTRA.POLAR.0>
-0.254682

>  <SCORE.INTRA.REPUL>
0.0835391

>  <SCORE.INTRA.REPUL.0>
0

>  <SCORE.INTRA.SOLV>
-0.816292

>  <SCORE.INTRA.SOLV.lig_0>
-109.803

>  <SCORE.INTRA.VDW>
4.16319

>  <SCORE.INTRA.VDW.0>
0.32176

>  <SCORE.INTRA.norm>
-0.00645272

>  <SCORE.RESTR>
14.1265

>  <SCORE.RESTR.CAVITY>
14.1265

>  <SCORE.RESTR.norm>
0.415485

>  <SCORE.SYSTEM>
0

>  <SCORE.SYSTEM.CONST>
0

>  <SCORE.SYSTEM.DIHEDRAL>
0

>  <SCORE.SYSTEM.SOLV>
0

>  <SCORE.SYSTEM.norm>
0

>  <SCORE.heavy>
34

>  <SCORE.norm>
-0.225207

>  <RMSD>
19.802

$$$$
1mwl
 OpenBabel11021811403D
libRbt.so/2013.1/901 2013/11/27
 34 36  0  0  0  0  0  0  0  0999 V2000
   -4.3821  -11.2139   13.0529 C   0  0  2  0  0  0  0  0  0  0  0  0
   -3.2559  -10.8121   13.7733 O   0  0  0  0  0  0  0  0  0  0  0  0
   -4.3793  -10.4309   11.7099 C   0  0  2  0  0  0  0  0  0  0  0  0
   -3.1474  -10.7094   10.9652 N   0  3  0  0  0  0  0  0  0  0  0  0
   -4.5593   -8.9056   11.9637 C   0  0  1  0  0  0  0  0  0  0  0  0
   -4.5835   -8.2182   10.7945 O   0  0  0  0  0  0  0  0  0  0  0  0
   -5.8846   -8.6862   12.7656 C   0  0  2  0  0  0  0  0  0  0  0  0
   -6.0889   -7.2789   13.0106 O   0  0  0  0  0  0  0  0  0  0  0  0
   -5.7873   -9.4881   14.1078 C   0  0  2  0  0  0  0  0  0  0  0  0
   -5.5708  -10.9257   13.8326 O   0  0  0  0  0  0  0  0  0  0  0  0
   -7.0287   -9.3920   15.0019 C   0  0  2  0  0  0  0  0  0  0  0  0
   -7.0436   -8.1630   15.6521 O   0  0  0  0  0  0  0  0  0  0  0  0
   -7.0782  -10.4643   16.1055 C   0  0  0  0  0  0  0  0  0  0  0  0
   -4.2107  -11.8130   17.8163 C   0  0  2  0  0  0  0  0  0  0  0  0
   -4.0539  -12.1633   19.2509 N   0  3  0  0  0  0  0  0  0  0  0  0
   -3.5939  -12.9185   16.9089 C   0  0  0  0  0  0  0  0  0  0  0  0
   -3.7485  -12.5296   15.3940 C   0  0  2  0  0  0  0  0  0  0  0  0
   -3.1513  -13.6217   14.5413 N   0  3  0  0  0  0  0  0  0  0  0  0
   -3.0518  -11.1489   15.1395 C   0  0  2  0  0  0  0  0  0  0  0  0
   -3.6918  -10.0711   16.0483 C   0  0  2  0  0  0  0  0  0  0  0  0
   -3.0359   -8.8444   15.8359 O   0  0  0  0  0  0  0  0  0  0  0  0
   -3.5166  -10.4622   17.5401 C   0  0  1  0  0  0  0  0  0  0  0  0
   -4.1078   -9.4600   18.3541 O   0  0  0  0  0  0  0  0  0  0  0  0
   -3.5818   -8.1623   18.3101 C   0  0  2  0  0  0  0  0  0  0  0  0
   -3.3009   -7.7282   19.7611 C   0  0  2  0  0  0  0  0  0  0  0  0
   -2.3503   -8.6047   20.3275 O   0  0  0  0  0  0  0  0  0  0  0  0
   -4.6400   -7.7581   20.5739 C   0  0  1  0  0  0  0  0  0  0  0  0
   -4.4497   -7.3797   21.9955 N   0  3  0  0  0  0  0  0  0  0  0  0
   -3.5130   -6.2333   22.1148 C   0  0  0  0  0  0  0  0  0  0  0  0
   -5.6744   -6.7939   19.8976 C   0  0  2  0  0  0  0  0  0  0  0  0
   -5.1571   -5.4502   19.8865 O   0  0  0  0  0  0  0  0  0  0  0  0
   -6.9413   -6.7693   20.6059 C   0  0  0  0  0  0  0  0  0  0  0  0
   -5.8804   -7.1927   18.4037 C   0  0  0  0  0  0  0  0  0  0  0  0
   -4.5635   -7.2564   17.6893 O   0  0  0  0  0  0  0  0  0  0  0  0
  1  2  1  1  0  0  0
  1  3  1  0  0  0  0
  1 10  1  0  0  0  0
  3  4  1  1  0  0  0
  3  5  1  0  0  0  0
  5  6  1  6  0  0  0
  5  7  1  0  0  0  0
  7  8  1  1  0  0  0
  7  9  1  0  0  0  0
  9 10  1  6  0  0  0
  9 11  1  0  0  0  0
 11 12  1  1  0  0  0
 11 13  1  0  0  0  0
 14 15  1  1  0  0  0
 14 16  1  0  0  0  0
 14 22  1  0  0  0  0
 16 17  1  0  0  0  0
 17 18  1  6  0  0  0
 17 19  1  0  0  0  0
 19  2  1  6  0  0  0
 19 20  1  0  0  0  0
 20 21  1  1  0  0  0
 20 22  1  0  0  0  0
 22 23  1  1  0  0  0
 24 23  1  1  0  0  0
 24 25  1  0  0  0  0
 24 34  1  0  0  0  0
 25 26  1  1  0  0  0
 25 27  1  0  0  0  0
 27 28  1  1  0  0  0
 27 30  1  0  0  0  0
 28 29  1  0  0  0  0
 30 31  1  1  0  0  0
 30 32  1  0  0  0  0
 30 33  1  0  0  0  0
 33 34  1  0  0  0  0
M  CHG  4   4   1  15   1  18   1  28   1
M  END
>  <CHROM.1>
169.09000951,30.18997391,6.05048524,-175.63767871,152.74333754,-76.96350361
69.79727566,61.25025790,-15.92857218,154.37390599,176.91956062,-128.32095212
-179.57212606,161.41019606,-70.40897927,-4.55009742,-9.30014880,16.44519790
-1.55079523,-1.09859219,1.22239938

>  <Name>
1mwl

>  <RI>
0

>  <Rbt.Current_Directory>
/home/itssahil/PROJECTS/Mol_Feturizer/New_Systems/rnas/1mwl

>  <Rbt.Executable>
rbdock ($Id: //depot/dev/client3/rdock/2013.1/src/exe/rbdock.cxx#4 $)

>  <Rbt.Library>
libRbt.so (2013.1, Build901 2013/11/27)

>  <Rbt.Parameter_File>
/export/apps/rDock/src/rDock_2013.1_src/data/scripts/dock_solv.prm

>  <Rbt.Receptor>
prm/blind_docking_80.prm

>  <SCORE>
-8.36266

>  <SCORE.INTER>
-19.7406

>  <SCORE.INTER.CONST>
1

>  <SCORE.INTER.POLAR>
-5.23436

>  <SCORE.INTER.ROT>
6

>  <SCORE.INTER.SOLV>
25.0909

>  <SCORE.INTER.VDW>
-11.6762

>  <SCORE.INTER.norm>
-0.580607

>  <SCORE.INTRA>
-4.63078

>  <SCORE.INTRA.DIHEDRAL>
-15.871

>  <SCORE.INTRA.DIHEDRAL.0>
42.0816

>  <SCORE.INTRA.POLAR>
-0.529184

>  <SCORE.INTRA.POLAR.0>
-0.254682

>  <SCORE.INTRA.REPUL>
0

>  <SCORE.INTRA.REPUL.0>
0

>  <SCORE.INTRA.SOLV>
-2.18076

>  <SCORE.INTRA.SOLV.lig_0>
-109.803

>  <SCORE.INTRA.VDW>
6.19435

>  <SCORE.INTRA.VDW.0>
0.32176

>  <SCORE.INTRA.norm>
-0.1362

>  <SCORE.RESTR>
16.0088

>  <SCORE.RESTR.CAVITY>
16.0088

>  <SCORE.RESTR.norm>
0.470846

>  <SCORE.SYSTEM>
0

>  <SCORE.SYSTEM.CONST>
0

>  <SCORE.SYSTEM.DIHEDRAL>
0

>  <SCORE.SYSTEM.SOLV>
0

>  <SCORE.SYSTEM.norm>
0

>  <SCORE.heavy>
34

>  <SCORE.norm>
-0.245961

>  <RMSD>
19.807

$$$$
1mwl
 OpenBabel11021811403D
libRbt.so/2013.1/901 2013/11/27
 34 36  0  0  0  0  0  0  0  0999 V2000
   -4.7590  -11.6978   13.5971 C   0  0  2  0  0  0  0  0  0  0  0  0
   -3.4647  -11.3122   13.9501 O   0  0  0  0  0  0  0  0  0  0  0  0
   -4.7684  -11.9462   12.0625 C   0  0  2  0  0  0  0  0  0  0  0  0
   -3.7930  -12.9834   11.7125 N   0  3  0  0  0  0  0  0  0  0  0  0
   -4.4941  -10.6224   11.2907 C   0  0  1  0  0  0  0  0  0  0  0  0
   -4.5260  -10.8262    9.9499 O   0  0  0  0  0  0  0  0  0  0  0  0
   -5.5645   -9.5646   11.7182 C   0  0  2  0  0  0  0  0  0  0  0  0
   -5.3460   -8.3248   11.0130 O   0  0  0  0  0  0  0  0  0  0  0  0
   -5.4651   -9.3614   13.2683 C   0  0  2  0  0  0  0  0  0  0  0  0
   -5.6850  -10.6454   13.9699 O   0  0  0  0  0  0  0  0  0  0  0  0
   -6.4735   -8.3632   13.8486 C   0  0  2  0  0  0  0  0  0  0  0  0
   -5.9093   -7.0927   13.8807 O   0  0  0  0  0  0  0  0  0  0  0  0
   -6.8965   -8.6837   15.2939 C   0  0  0  0  0  0  0  0  0  0  0  0
   -3.6708  -11.1698   18.2159 C   0  0  2  0  0  0  0  0  0  0  0  0
   -3.2565  -11.1073   19.6406 N   0  3  0  0  0  0  0  0  0  0  0  0
   -3.1449  -12.4740   17.5462 C   0  0  0  0  0  0  0  0  0  0  0  0
   -3.5728  -12.5215   16.0346 C   0  0  2  0  0  0  0  0  0  0  0  0
   -3.0579  -13.7980   15.4165 N   0  3  0  0  0  0  0  0  0  0  0  0
   -3.0160  -11.2550   15.2981 C   0  0  2  0  0  0  0  0  0  0  0  0
   -3.5627   -9.9774   15.9807 C   0  0  2  0  0  0  0  0  0  0  0  0
   -3.0295   -8.8478   15.3328 O   0  0  0  0  0  0  0  0  0  0  0  0
   -3.1183   -9.9381   17.4674 C   0  0  1  0  0  0  0  0  0  0  0  0
   -3.6280   -8.7586   18.0721 O   0  0  0  0  0  0  0  0  0  0  0  0
   -4.8372   -8.2309   17.6007 C   0  0  2  0  0  0  0  0  0  0  0  0
   -5.0079   -6.8347   18.2288 C   0  0  2  0  0  0  0  0  0  0  0  0
   -3.9391   -6.0105   17.8153 O   0  0  0  0  0  0  0  0  0  0  0  0
   -5.0326   -6.9737   19.7893 C   0  0  1  0  0  0  0  0  0  0  0  0
   -5.1650   -5.6645   20.4737 N   0  3  0  0  0  0  0  0  0  0  0  0
   -4.2399   -5.5796   21.6326 C   0  0  0  0  0  0  0  0  0  0  0  0
   -6.2147   -7.9160   20.2036 C   0  0  2  0  0  0  0  0  0  0  0  0
   -7.4651   -7.3580   19.7579 O   0  0  0  0  0  0  0  0  0  0  0  0
   -6.2991   -8.0849   21.6429 C   0  0  0  0  0  0  0  0  0  0  0  0
   -6.0752   -9.2956   19.4891 C   0  0  0  0  0  0  0  0  0  0  0  0
   -5.9469   -9.1102   18.0066 O   0  0  0  0  0  0  0  0  0  0  0  0
  1  2  1  6  0  0  0
  1  3  1  0  0  0  0
  1 10  1  0  0  0  0
  3  4  1  1  0  0  0
  3  5  1  0  0  0  0
  5  6  1  6  0  0  0
  5  7  1  0  0  0  0
  7  8  1  6  0  0  0
  7  9  1  0  0  0  0
  9 10  1  1  0  0  0
  9 11  1  0  0  0  0
 11 12  1  1  0  0  0
 11 13  1  0  0  0  0
 14 15  1  1  0  0  0
 14 16  1  0  0  0  0
 14 22  1  0  0  0  0
 16 17  1  0  0  0  0
 17 18  1  6  0  0  0
 17 19  1  0  0  0  0
 19  2  1  6  0  0  0
 19 20  1  0  0  0  0
 20 21  1  6  0  0  0
 20 22  1  0  0  0  0
 22 23  1  1  0  0  0
 24 23  1  1  0  0  0
 24 25  1  0  0  0  0
 24 34  1  0  0  0  0
 25 26  1  1  0  0  0
 25 27  1  0  0  0  0
 27 28  1  1  0  0  0
 27 30  1  0  0  0  0
 28 29  1  0  0  0  0
 30 31  1  6  0  0  0
 30 32  1  0  0  0  0
 30 33  1  0  0  0  0
 33 34  1  0  0  0  0
M  CHG  4   4   1  15   1  18   1  28   1
M  END
>  <CHROM.1>
-167.34791942,41.74426023,-62.97780748,64.16018336,174.14786695,-91.77760587
70.28825151,-57.53180458,53.11671683,64.08665992,-89.83724431,-169.21710298
93.85438169,-16.48562297,175.58196397,-4.71752571,-9.46167181,16.12548891
-1.38044043,-1.11141607,1.30643526

>  <Name>
1mwl

>  <RI>
0

>  <Rbt.Current_Directory>
/home/itssahil/PROJECTS/Mol_Feturizer/New_Systems/rnas/1mwl

>  <Rbt.Executable>
rbdock ($Id: //depot/dev/client3/rdock/2013.1/src/exe/rbdock.cxx#4 $)

>  <Rbt.Library>
libRbt.so (2013.1, Build901 2013/11/27)

>  <Rbt.Parameter_File>
/export/apps/rDock/src/rDock_2013.1_src/data/scripts/dock_solv.prm

>  <Rbt.Receptor>
prm/blind_docking_80.prm

>  <SCORE>
-9.78005

>  <SCORE.INTER>
-13.3253

>  <SCORE.INTER.CONST>
1

>  <SCORE.INTER.POLAR>
-4.97471

>  <SCORE.INTER.ROT>
6

>  <SCORE.INTER.SOLV>
26.2014

>  <SCORE.INTER.VDW>
-8.63495

>  <SCORE.INTER.norm>
-0.391921

>  <SCORE.INTRA>
-11.4217

>  <SCORE.INTRA.DIHEDRAL>
-24.3555

>  <SCORE.INTRA.DIHEDRAL.0>
42.0816

>  <SCORE.INTRA.POLAR>
0.254682

>  <SCORE.INTRA.POLAR.0>
-0.254682

>  <SCORE.INTRA.REPUL>
0.0143922

>  <SCORE.INTRA.REPUL.0>
0

>  <SCORE.INTRA.SOLV>
0.38671

>  <SCORE.INTRA.SOLV.lig_0>
-109.803

>  <SCORE.INTRA.VDW>
-0.375155

>  <SCORE.INTRA.VDW.0>
0.32176

>  <SCORE.INTRA.norm>
-0.335931

>  <SCORE.RESTR>
14.9669

>  <SCORE.RESTR.CAVITY>
14.9669

>  <SCORE.RESTR.norm>
0.440203

>  <SCORE.SYSTEM>
0

>  <SCORE.SYSTEM.CONST>
0

>  <SCORE.SYSTEM.DIHEDRAL>
0

>  <SCORE.SYSTEM.SOLV>
0

>  <SCORE.SYSTEM.norm>
0

>  <SCORE.heavy>
34

>  <SCORE.norm>
-0.287648

>  <RMSD>
19.823

$$$$
1mwl
 OpenBabel11021811403D
libRbt.so/2013.1/901 2013/11/27
 34 36  0  0  0  0  0  0  0  0999 V2000
   -4.7114   -8.8472   12.3487 C   0  0  2  0  0  0  0  0  0  0  0  0
   -4.8675   -9.8864   13.2677 O   0  0  0  0  0  0  0  0  0  0  0  0
   -6.1203   -8.5085   11.7854 C   0  0  2  0  0  0  0  0  0  0  0  0
   -7.0205   -8.1204   12.8755 N   0  3  0  0  0  0  0  0  0  0  0  0
   -6.6906   -9.7096   10.9756 C   0  0  1  0  0  0  0  0  0  0  0  0
   -7.9092   -9.4123   10.4592 O   0  0  0  0  0  0  0  0  0  0  0  0
   -5.6779  -10.0711    9.8393 C   0  0  2  0  0  0  0  0  0  0  0  0
   -6.1804  -11.1770    9.0604 O   0  0  0  0  0  0  0  0  0  0  0  0
   -4.3007  -10.4204   10.4989 C   0  0  2  0  0  0  0  0  0  0  0  0
   -3.8087   -9.2761   11.2975 O   0  0  0  0  0  0  0  0  0  0  0  0
   -3.1881  -10.7768    9.5065 C   0  0  2  0  0  0  0  0  0  0  0  0
   -3.6843  -10.7262    8.2086 O   0  0  0  0  0  0  0  0  0  0  0  0
   -2.6231  -12.1962    9.6970 C   0  0  0  0  0  0  0  0  0  0  0  0
   -3.7376  -10.7920   17.2879 C   0  0  2  0  0  0  0  0  0  0  0  0
   -2.9097  -10.9694   18.5080 N   0  3  0  0  0  0  0  0  0  0  0  0
   -3.2599  -11.7477   16.1546 C   0  0  0  0  0  0  0  0  0  0  0  0
   -4.1301  -11.5391   14.8626 C   0  0  2  0  0  0  0  0  0  0  0  0
   -3.6507  -12.4833   13.7876 N   0  3  0  0  0  0  0  0  0  0  0  0
   -4.0308  -10.0430   14.4066 C   0  0  2  0  0  0  0  0  0  0  0  0
   -4.5200   -9.1202   15.5495 C   0  0  2  0  0  0  0  0  0  0  0  0
   -4.3942   -7.7794   15.1415 O   0  0  0  0  0  0  0  0  0  0  0  0
   -3.6409   -9.3269   16.8120 C   0  0  1  0  0  0  0  0  0  0  0  0
   -4.1051   -8.4702   17.8449 O   0  0  0  0  0  0  0  0  0  0  0  0
   -5.1996   -7.6355   17.5841 C   0  0  2  0  0  0  0  0  0  0  0  0
   -5.1824   -6.5091   18.6348 C   0  0  2  0  0  0  0  0  0  0  0  0
   -3.9847   -5.7740   18.5013 O   0  0  0  0  0  0  0  0  0  0  0  0
   -5.2925   -7.1398   20.0648 C   0  0  1  0  0  0  0  0  0  0  0  0
   -5.2529   -6.1188   21.1400 N   0  3  0  0  0  0  0  0  0  0  0  0
   -3.9496   -5.4065   21.1427 C   0  0  0  0  0  0  0  0  0  0  0  0
   -6.6201   -7.9676   20.1616 C   0  0  2  0  0  0  0  0  0  0  0  0
   -7.7518   -7.1066   19.9353 O   0  0  0  0  0  0  0  0  0  0  0  0
   -6.7886   -8.5777   21.4680 C   0  0  0  0  0  0  0  0  0  0  0  0
   -6.6620   -9.0456   19.0350 C   0  0  0  0  0  0  0  0  0  0  0  0
   -6.4458   -8.4131   17.6927 O   0  0  0  0  0  0  0  0  0  0  0  0
  1  2  1  1  0  0  0
  1  3  1  0  0  0  0
  1 10  1  0  0  0  0
  3  4  1  1  0  0  0
  3  5  1  0  0  0  0
  5  6  1  6  0  0  0
  5  7  1  0  0  0  0
  7  8  1  1  0  0  0
  7  9  1  0  0  0  0
  9 10  1  6  0  0  0
  9 11  1  0  0  0  0
 11 12  1  6  0  0  0
 11 13  1  0  0  0  0
 14 15  1  1  0  0  0
 14 16  1  0  0  0  0
 14 22  1  0  0  0  0
 16 17  1  0  0  0  0
 17 18  1  6  0  0  0
 17 19  1  0  0  0  0
 19  2  1  6  0  0  0
 19 20  1  0  0  0  0
 20 21  1  6  0  0  0
 20 22  1  0  0  0  0
 22 23  1  1  0  0  0
 24 23  1  1  0  0  0
 24 25  1  0  0  0  0
 24 34  1  0  0  0  0
 25 26  1  1  0  0  0
 25 27  1  0  0  0  0
 27 28  1  1  0  0  0
 27 30  1  0  0  0  0
 28 29  1  0  0  0  0
 30 31  1  6  0  0  0
 30 32  1  0  0  0  0
 30 33  1  0  0  0  0
 33 34  1  0  0  0  0
M  CHG  4   4   1  15   1  18   1  28   1
M  END
>  <CHROM.1>
-148.76452369,-158.67769216,-117.01544792,49.85251609,-173.18073013,-1.00356398
79.86310173,-15.62156553,69.00962971,131.72915943,-120.18257201,-160.63858657
-49.42695317,56.75269204,-70.47882432,-4.96234100,-9.13668728,15.14535166
1.48852855,0.74762694,-1.82547999

>  <Name>
1mwl

>  <RI>
0

>  <Rbt.Current_Directory>
/home/itssahil/PROJECTS/Mol_Feturizer/New_Systems/rnas/1mwl

>  <Rbt.Executable>
rbdock ($Id: //depot/dev/client3/rdock/2013.1/src/exe/rbdock.cxx#4 $)

>  <Rbt.Library>
libRbt.so (2013.1, Build901 2013/11/27)

>  <Rbt.Parameter_File>
/export/apps/rDock/src/rDock_2013.1_src/data/scripts/dock_solv.prm

>  <Rbt.Receptor>
prm/blind_docking_80.prm

>  <SCORE>
-17.0512

>  <SCORE.INTER>
-34.7778

>  <SCORE.INTER.CONST>
1

>  <SCORE.INTER.POLAR>
-6.21043

>  <SCORE.INTER.ROT>
6

>  <SCORE.INTER.SOLV>
28.0488

>  <SCORE.INTER.VDW>
-19.4334

>  <SCORE.INTER.norm>
-1.02288

>  <SCORE.INTRA>
1.30089

>  <SCORE.INTRA.DIHEDRAL>
-5.10221

>  <SCORE.INTRA.DIHEDRAL.0>
42.0816

>  <SCORE.INTRA.POLAR>
-0.293242

>  <SCORE.INTRA.POLAR.0>
-0.254682

>  <SCORE.INTRA.REPUL>
0

>  <SCORE.INTRA.REPUL.0>
0

>  <SCORE.INTRA.SOLV>
-1.24569

>  <SCORE.INTRA.SOLV.lig_0>
-109.803

>  <SCORE.INTRA.VDW>
5.47186

>  <SCORE.INTRA.VDW.0>
0.32176

>  <SCORE.INTRA.norm>
0.0382615

>  <SCORE.RESTR>
16.4257

>  <SCORE.RESTR.CAVITY>
16.4257

>  <SCORE.RESTR.norm>
0.483107

>  <SCORE.SYSTEM>
0

>  <SCORE.SYSTEM.CONST>
0

>  <SCORE.SYSTEM.DIHEDRAL>
0

>  <SCORE.SYSTEM.SOLV>
0

>  <SCORE.SYSTEM.norm>
0

>  <SCORE.heavy>
34

>  <SCORE.norm>
-0.501507

>  <RMSD>
19.865

$$$$
1mwl
 OpenBabel11021811403D
libRbt.so/2013.1/901 2013/11/27
 34 36  0  0  0  0  0  0  0  0999 V2000
   -4.7218  -11.4059   12.7911 C   0  0  2  0  0  0  0  0  0  0  0  0
   -3.5424  -11.0408   13.4424 O   0  0  0  0  0  0  0  0  0  0  0  0
   -4.4155  -11.4578   11.2678 C   0  0  2  0  0  0  0  0  0  0  0  0
   -3.3432  -12.4212   11.0006 N   0  3  0  0  0  0  0  0  0  0  0  0
   -4.0553  -10.0411   10.7321 C   0  0  1  0  0  0  0  0  0  0  0  0
   -3.8115  -10.0739    9.3980 O   0  0  0  0  0  0  0  0  0  0  0  0
   -5.2370   -9.0691   11.0579 C   0  0  2  0  0  0  0  0  0  0  0  0
   -4.9407   -7.7455   10.5655 O   0  0  0  0  0  0  0  0  0  0  0  0
   -5.4562   -9.0621   12.6090 C   0  0  2  0  0  0  0  0  0  0  0  0
   -5.7511  -10.4291   13.0923 O   0  0  0  0  0  0  0  0  0  0  0  0
   -6.6046   -8.1672   13.0888 C   0  0  2  0  0  0  0  0  0  0  0  0
   -6.1747   -7.3847   14.1547 O   0  0  0  0  0  0  0  0  0  0  0  0
   -7.8277   -8.9526   13.5963 C   0  0  0  0  0  0  0  0  0  0  0  0
   -4.6341  -11.5036   17.5477 C   0  0  2  0  0  0  0  0  0  0  0  0
   -4.5579  -11.4946   19.0307 N   0  3  0  0  0  0  0  0  0  0  0  0
   -3.5848  -12.4864   16.9483 C   0  0  0  0  0  0  0  0  0  0  0  0
   -3.6611  -12.4747   15.3786 C   0  0  2  0  0  0  0  0  0  0  0  0
   -2.6415  -13.4413   14.8283 N   0  3  0  0  0  0  0  0  0  0  0  0
   -3.4173  -11.0165   14.8585 C   0  0  2  0  0  0  0  0  0  0  0  0
   -4.4796  -10.0668   15.4641 C   0  0  2  0  0  0  0  0  0  0  0  0
   -4.2302   -8.7560   15.0175 O   0  0  0  0  0  0  0  0  0  0  0  0
   -4.3805  -10.0780   17.0131 C   0  0  1  0  0  0  0  0  0  0  0  0
   -5.3606   -9.1996   17.5463 O   0  0  0  0  0  0  0  0  0  0  0  0
   -5.2075   -7.8215   17.3463 C   0  0  2  0  0  0  0  0  0  0  0  0
   -3.9532   -7.3786   18.1232 C   0  0  2  0  0  0  0  0  0  0  0  0
   -2.8289   -8.0589   17.6079 O   0  0  0  0  0  0  0  0  0  0  0  0
   -4.1510   -7.7013   19.6437 C   0  0  1  0  0  0  0  0  0  0  0  0
   -2.9700   -7.3305   20.4608 N   0  3  0  0  0  0  0  0  0  0  0  0
   -2.7740   -5.8582   20.4663 C   0  0  0  0  0  0  0  0  0  0  0  0
   -5.4222   -6.9492   20.1685 C   0  0  2  0  0  0  0  0  0  0  0  0
   -5.2538   -5.5287   20.0038 O   0  0  0  0  0  0  0  0  0  0  0  0
   -5.6621   -7.2010   21.5779 C   0  0  0  0  0  0  0  0  0  0  0  0
   -6.6669   -7.3412   19.3140 C   0  0  0  0  0  0  0  0  0  0  0  0
   -6.3965   -7.1172   17.8561 O   0  0  0  0  0  0  0  0  0  0  0  0
  1  2  1  1  0  0  0
  1  3  1  0  0  0  0
  1 10  1  0  0  0  0
  3  4  1  1  0  0  0
  3  5  1  0  0  0  0
  5  6  1  6  0  0  0
  5  7  1  0  0  0  0
  7  8  1  1  0  0  0
  7  9  1  0  0  0  0
  9 10  1  6  0  0  0
  9 11  1  0  0  0  0
 11 12  1  1  0  0  0
 11 13  1  0  0  0  0
 14 15  1  1  0  0  0
 14 16  1  0  0  0  0
 14 22  1  0  0  0  0
 16 17  1  0  0  0  0
 17 18  1  6  0  0  0
 17 19  1  0  0  0  0
 19  2  1  6  0  0  0
 19 20  1  0  0  0  0
 20 21  1  6  0  0  0
 20 22  1  0  0  0  0
 22 23  1  1  0  0  0
 24 23  1  1  0  0  0
 24 25  1  0  0  0  0
 24 34  1  0  0  0  0
 25 26  1  6  0  0  0
 25 27  1  0  0  0  0
 27 28  1  1  0  0  0
 27 30  1  0  0  0  0
 28 29  1  0  0  0  0
 30 31  1  6  0  0  0
 30 32  1  0  0  0  0
 30 33  1  0  0  0  0
 33 34  1  0  0  0  0
M  CHG  4   4   1  15   1  18   1  28   1
M  END
>  <CHROM.1>
-173.91824855,61.37929983,-178.10838745,56.27144614,-80.76033114,-132.46896463
-50.79354202,-170.83959895,-134.29425695,-48.47296394,170.95795428,-66.14382888
78.11349071,-174.12383942,64.59533977,-4.62428550,-9.28484595,15.66082112
-1.51354709,-1.12179614,1.24825311

>  <Name>
1mwl

>  <RI>
0

>  <Rbt.Current_Directory>
/home/itssahil/PROJECTS/Mol_Feturizer/New_Systems/rnas/1mwl

>  <Rbt.Executable>
rbdock ($Id: //depot/dev/client3/rdock/2013.1/src/exe/rbdock.cxx#4 $)

>  <Rbt.Library>
libRbt.so (2013.1, Build901 2013/11/27)

>  <Rbt.Parameter_File>
/export/apps/rDock/src/rDock_2013.1_src/data/scripts/dock_solv.prm

>  <Rbt.Receptor>
prm/blind_docking_80.prm

>  <SCORE>
-32.0989

>  <SCORE.INTER>
-36.8036

>  <SCORE.INTER.CONST>
1

>  <SCORE.INTER.POLAR>
-6.84529

>  <SCORE.INTER.ROT>
6

>  <SCORE.INTER.SOLV>
26.462

>  <SCORE.INTER.VDW>
-18.1387

>  <SCORE.INTER.norm>
-1.08246

>  <SCORE.INTRA>
-8.46338

>  <SCORE.INTRA.DIHEDRAL>
-28.2803

>  <SCORE.INTRA.DIHEDRAL.0>
42.0816

>  <SCORE.INTRA.POLAR>
-0.453776

>  <SCORE.INTRA.POLAR.0>
-0.254682

>  <SCORE.INTRA.REPUL>
0.000627403

>  <SCORE.INTRA.REPUL.0>
0

>  <SCORE.INTRA.SOLV>
-0.84009

>  <SCORE.INTRA.SOLV.lig_0>
-109.803

>  <SCORE.INTRA.VDW>
7.6365

>  <SCORE.INTRA.VDW.0>
0.32176

>  <SCORE.INTRA.norm>
-0.248923

>  <SCORE.RESTR>
13.1681

>  <SCORE.RESTR.CAVITY>
13.1681

>  <SCORE.RESTR.norm>
0.387296

>  <SCORE.SYSTEM>
0

>  <SCORE.SYSTEM.CONST>
0

>  <SCORE.SYSTEM.DIHEDRAL>
0

>  <SCORE.SYSTEM.SOLV>
0

>  <SCORE.SYSTEM.norm>
0

>  <SCORE.heavy>
34

>  <SCORE.norm>
-0.944085

>  <RMSD>
19.885

$$$$
1mwl
 OpenBabel11021811403D
libRbt.so/2013.1/901 2013/11/27
 34 36  0  0  0  0  0  0  0  0999 V2000
   -4.2862   -9.1627   12.4263 C   0  0  2  0  0  0  0  0  0  0  0  0
   -4.6646  -10.1292   13.3598 O   0  0  0  0  0  0  0  0  0  0  0  0
   -5.5875   -8.5271   11.8610 C   0  0  2  0  0  0  0  0  0  0  0  0
   -6.3739   -7.9347   12.9473 N   0  3  0  0  0  0  0  0  0  0  0  0
   -6.4141   -9.5821   11.0689 C   0  0  1  0  0  0  0  0  0  0  0  0
   -7.5388   -9.0285   10.5507 O   0  0  0  0  0  0  0  0  0  0  0  0
   -5.5124  -10.1741    9.9357 C   0  0  2  0  0  0  0  0  0  0  0  0
   -6.2516  -11.1509    9.1731 O   0  0  0  0  0  0  0  0  0  0  0  0
   -4.2438  -10.8118   10.5976 C   0  0  2  0  0  0  0  0  0  0  0  0
   -3.5063   -9.7949   11.3794 O   0  0  0  0  0  0  0  0  0  0  0  0
   -3.2428  -11.4191    9.6081 C   0  0  2  0  0  0  0  0  0  0  0  0
   -2.0903  -11.8033   10.2843 O   0  0  0  0  0  0  0  0  0  0  0  0
   -2.7916  -10.4404    8.5086 C   0  0  0  0  0  0  0  0  0  0  0  0
   -4.0111  -10.9792   17.4962 C   0  0  2  0  0  0  0  0  0  0  0  0
   -3.3200  -11.2173   18.7889 N   0  3  0  0  0  0  0  0  0  0  0  0
   -3.6073  -12.0589   16.4488 C   0  0  0  0  0  0  0  0  0  0  0  0
   -4.3295  -11.7873   15.0796 C   0  0  2  0  0  0  0  0  0  0  0  0
   -3.9267  -12.8527   14.0899 N   0  3  0  0  0  0  0  0  0  0  0  0
   -3.9550  -10.3527   14.5715 C   0  0  2  0  0  0  0  0  0  0  0  0
   -4.3762   -9.3031   15.6289 C   0  0  2  0  0  0  0  0  0  0  0  0
   -4.0045   -8.0232   15.1774 O   0  0  0  0  0  0  0  0  0  0  0  0
   -3.6427   -9.5758   16.9694 C   0  0  1  0  0  0  0  0  0  0  0  0
   -4.0414   -8.6013   17.9222 O   0  0  0  0  0  0  0  0  0  0  0  0
   -5.2859   -7.9776   17.7644 C   0  0  2  0  0  0  0  0  0  0  0  0
   -5.1772   -6.5682   18.3765 C   0  0  2  0  0  0  0  0  0  0  0  0
   -4.1907   -5.8385   17.6788 O   0  0  0  0  0  0  0  0  0  0  0  0
   -4.8072   -6.6951   19.8938 C   0  0  1  0  0  0  0  0  0  0  0  0
   -4.6539   -5.3752   20.5529 N   0  3  0  0  0  0  0  0  0  0  0  0
   -3.4628   -5.3643   21.4401 C   0  0  0  0  0  0  0  0  0  0  0  0
   -5.9120   -7.5330   20.6248 C   0  0  2  0  0  0  0  0  0  0  0  0
   -7.1871   -6.8756   20.5016 O   0  0  0  0  0  0  0  0  0  0  0  0
   -5.6332   -7.6855   22.0412 C   0  0  0  0  0  0  0  0  0  0  0  0
   -6.0718   -8.9238   19.9368 C   0  0  0  0  0  0  0  0  0  0  0  0
   -6.3182   -8.7588   18.4668 O   0  0  0  0  0  0  0  0  0  0  0  0
  1  2  1  1  0  0  0
  1  3  1  0  0  0  0
  1 10  1  0  0  0  0
  3  4  1  1  0  0  0
  3  5  1  0  0  0  0
  5  6  1  6  0  0  0
  5  7  1  0  0  0  0
  7  8  1  1  0  0  0
  7  9  1  0  0  0  0
  9 10  1  6  0  0  0
  9 11  1  0  0  0  0
 11 12  1  1  0  0  0
 11 13  1  0  0  0  0
 14 15  1  1  0  0  0
 14 16  1  0  0  0  0
 14 22  1  0  0  0  0
 16 17  1  0  0  0  0
 17 18  1  6  0  0  0
 17 19  1  0  0  0  0
 19  2  1  6  0  0  0
 19 20  1  0  0  0  0
 20 21  1  6  0  0  0
 20 22  1  0  0  0  0
 22 23  1  1  0  0  0
 24 23  1  1  0  0  0
 24 25  1  0  0  0  0
 24 34  1  0  0  0  0
 25 26  1  6  0  0  0
 25 27  1  0  0  0  0
 27 28  1  1  0  0  0
 27 30  1  0  0  0  0
 28 29  1  0  0  0  0
 30 31  1  6  0  0  0
 30 32  1  0  0  0  0
 30 33  1  0  0  0  0
 33 34  1  0  0  0  0
M  CHG  4   4   1  15   1  18   1  28   1
M  END
>  <CHROM.1>
-141.77120093,-159.89593885,130.71675215,49.53396458,-176.97001631,172.67119758
-65.15866542,62.72972980,50.55061336,-161.89692463,-95.12070249,-150.81628152
-52.56364985,-16.97589982,67.73464478,-4.72116226,-9.17087249,15.31311379
1.46500221,1.01596211,-1.81178208

>  <Name>
1mwl

>  <RI>
0

>  <Rbt.Current_Directory>
/home/itssahil/PROJECTS/Mol_Feturizer/New_Systems/rnas/1mwl

>  <Rbt.Executable>
rbdock ($Id: //depot/dev/client3/rdock/2013.1/src/exe/rbdock.cxx#4 $)

>  <Rbt.Library>
libRbt.so (2013.1, Build901 2013/11/27)

>  <Rbt.Parameter_File>
/export/apps/rDock/src/rDock_2013.1_src/data/scripts/dock_solv.prm

>  <Rbt.Receptor>
prm/blind_docking_80.prm

>  <SCORE>
-23.3076

>  <SCORE.INTER>
-29.7166

>  <SCORE.INTER.CONST>
1

>  <SCORE.INTER.POLAR>
-4.94673

>  <SCORE.INTER.ROT>
6

>  <SCORE.INTER.SOLV>
30.9431

>  <SCORE.INTER.VDW>
-21.2364

>  <SCORE.INTER.norm>
-0.874019

>  <SCORE.INTRA>
-9.97842

>  <SCORE.INTRA.DIHEDRAL>
-17.5953

>  <SCORE.INTRA.DIHEDRAL.0>
42.0816

>  <SCORE.INTRA.POLAR>
-0.350451

>  <SCORE.INTRA.POLAR.0>
-0.254682

>  <SCORE.INTRA.REPUL>
0

>  <SCORE.INTRA.REPUL.0>
0

>  <SCORE.INTRA.SOLV>
-1.76787

>  <SCORE.INTRA.SOLV.lig_0>
-109.803

>  <SCORE.INTRA.VDW>
0.894696

>  <SCORE.INTRA.VDW.0>
0.32176

>  <SCORE.INTRA.norm>
-0.293483

>  <SCORE.RESTR>
16.3875

>  <SCORE.RESTR.CAVITY>
16.3875

>  <SCORE.RESTR.norm>
0.481984

>  <SCORE.SYSTEM>
0

>  <SCORE.SYSTEM.CONST>
0

>  <SCORE.SYSTEM.DIHEDRAL>
0

>  <SCORE.SYSTEM.SOLV>
0

>  <SCORE.SYSTEM.norm>
0

>  <SCORE.heavy>
34

>  <SCORE.norm>
-0.685517

>  <RMSD>
19.960

$$$$
1mwl
 OpenBabel11021811403D
libRbt.so/2013.1/901 2013/11/27
 34 36  0  0  0  0  0  0  0  0999 V2000
   -3.9900   -9.3229   12.6525 C   0  0  2  0  0  0  0  0  0  0  0  0
   -4.1957  -10.4701   13.4208 O   0  0  0  0  0  0  0  0  0  0  0  0
   -5.3880   -8.7823   12.2398 C   0  0  2  0  0  0  0  0  0  0  0  0
   -6.1868   -8.4845   13.4326 N   0  3  0  0  0  0  0  0  0  0  0  0
   -6.1139   -9.7945   11.3060 C   0  0  1  0  0  0  0  0  0  0  0  0
   -7.3243   -9.3183   10.9210 O   0  0  0  0  0  0  0  0  0  0  0  0
   -5.2033  -10.0690   10.0639 C   0  0  2  0  0  0  0  0  0  0  0  0
   -5.8510  -10.9980    9.1696 O   0  0  0  0  0  0  0  0  0  0  0  0
   -3.8326  -10.6317   10.5721 C   0  0  2  0  0  0  0  0  0  0  0  0
   -3.1906   -9.6669   11.4921 O   0  0  0  0  0  0  0  0  0  0  0  0
   -2.8143  -10.9314    9.4661 C   0  0  2  0  0  0  0  0  0  0  0  0
   -2.7664   -9.8670    8.5727 O   0  0  0  0  0  0  0  0  0  0  0  0
   -3.1589  -12.1789    8.6322 C   0  0  0  0  0  0  0  0  0  0  0  0
   -4.0104  -11.0924   17.6442 C   0  0  2  0  0  0  0  0  0  0  0  0
   -3.4674  -11.2798   19.0137 N   0  3  0  0  0  0  0  0  0  0  0  0
   -3.5534  -12.2499   16.7076 C   0  0  0  0  0  0  0  0  0  0  0  0
   -4.1179  -12.0326   15.2569 C   0  0  2  0  0  0  0  0  0  0  0  0
   -3.6671  -13.1722   14.3768 N   0  3  0  0  0  0  0  0  0  0  0  0
   -3.6254  -10.6485   14.7110 C   0  0  2  0  0  0  0  0  0  0  0  0
   -4.1021   -9.5197   15.6574 C   0  0  2  0  0  0  0  0  0  0  0  0
   -3.6256   -8.2863   15.1760 O   0  0  0  0  0  0  0  0  0  0  0  0
   -3.5235   -9.7404   17.0807 C   0  0  1  0  0  0  0  0  0  0  0  0
   -3.9709   -8.6939   17.9299 O   0  0  0  0  0  0  0  0  0  0  0  0
   -4.9750   -7.8346   17.4651 C   0  0  2  0  0  0  0  0  0  0  0  0
   -4.9692   -6.5864   18.3678 C   0  0  2  0  0  0  0  0  0  0  0  0
   -3.7146   -5.9482   18.2621 O   0  0  0  0  0  0  0  0  0  0  0  0
   -5.2502   -7.0213   19.8466 C   0  0  1  0  0  0  0  0  0  0  0  0
   -5.2320   -5.8756   20.7884 N   0  3  0  0  0  0  0  0  0  0  0  0
   -4.3789   -6.1754   21.9667 C   0  0  0  0  0  0  0  0  0  0  0  0
   -6.6374   -7.7480   19.9148 C   0  0  2  0  0  0  0  0  0  0  0  0
   -7.6797   -6.8560   19.4773 O   0  0  0  0  0  0  0  0  0  0  0  0
   -6.9640   -8.1749   21.2633 C   0  0  0  0  0  0  0  0  0  0  0  0
   -6.6575   -8.9567   18.9289 C   0  0  0  0  0  0  0  0  0  0  0  0
   -6.2788   -8.5151   17.5467 O   0  0  0  0  0  0  0  0  0  0  0  0
  1  2  1  1  0  0  0
  1  3  1  0  0  0  0
  1 10  1  0  0  0  0
  3  4  1  1  0  0  0
  3  5  1  0  0  0  0
  5  6  1  6  0  0  0
  5  7  1  0  0  0  0
  7  8  1  6  0  0  0
  7  9  1  0  0  0  0
  9 10  1  1  0  0  0
  9 11  1  0  0  0  0
 11 12  1  6  0  0  0
 11 13  1  0  0  0  0
 14 15  1  1  0  0  0
 14 16  1  0  0  0  0
 14 22  1  0  0  0  0
 16 17  1  0  0  0  0
 17 18  1  6  0  0  0
 17 19  1  0  0  0  0
 19  2  1  6  0  0  0
 19 20  1  0  0  0  0
 20 21  1  6  0  0  0
 20 22  1  0  0  0  0
 22 23  1  1  0  0  0
 24 23  1  1  0  0  0
 24 25  1  0  0  0  0
 24 34  1  0  0  0  0
 25 26  1  1  0  0  0
 25 27  1  0  0  0  0
 27 28  1  1  0  0  0
 27 30  1  0  0  0  0
 28 29  1  0  0  0  0
 30 31  1  6  0  0  0
 30 32  1  0  0  0  0
 30 33  1  0  0  0  0
 33 34  1  0  0  0  0
M  CHG  4   4   1  15   1  18   1  28   1
M  END
>  <CHROM.1>
-127.03654899,178.50440213,30.13166506,54.68661916,164.80917567,46.04775132
-66.36806954,-50.06710914,-84.74133845,-66.72482231,-109.37568852,-163.48402409
-58.51867891,-10.94292688,174.93576495,-4.72719707,-9.30581677,15.25519547
1.36533362,0.98334817,-1.71052407

>  <Name>
1mwl

>  <RI>
0

>  <Rbt.Current_Directory>
/home/itssahil/PROJECTS/Mol_Feturizer/New_Systems/rnas/1mwl

>  <Rbt.Executable>
rbdock ($Id: //depot/dev/client3/rdock/2013.1/src/exe/rbdock.cxx#4 $)

>  <Rbt.Library>
libRbt.so (2013.1, Build901 2013/11/27)

>  <Rbt.Parameter_File>
/export/apps/rDock/src/rDock_2013.1_src/data/scripts/dock_solv.prm

>  <Rbt.Receptor>
prm/blind_docking_80.prm

>  <SCORE>
-22.2547

>  <SCORE.INTER>
-26.0245

>  <SCORE.INTER.CONST>
1

>  <SCORE.INTER.POLAR>
-4.81596

>  <SCORE.INTER.ROT>
6

>  <SCORE.INTER.SOLV>
27.3859

>  <SCORE.INTER.VDW>
-18.0251

>  <SCORE.INTER.norm>
-0.765425

>  <SCORE.INTRA>
-10.2365

>  <SCORE.INTRA.DIHEDRAL>
-18.1003

>  <SCORE.INTRA.DIHEDRAL.0>
42.0816

>  <SCORE.INTRA.POLAR>
-0.853784

>  <SCORE.INTRA.POLAR.0>
-0.254682

>  <SCORE.INTRA.REPUL>
0

>  <SCORE.INTRA.REPUL.0>
0

>  <SCORE.INTRA.SOLV>
-1.15484

>  <SCORE.INTRA.SOLV.lig_0>
-109.803

>  <SCORE.INTRA.VDW>
2.2939

>  <SCORE.INTRA.VDW.0>
0.32176

>  <SCORE.INTRA.norm>
-0.301074

>  <SCORE.RESTR>
14.0062

>  <SCORE.RESTR.CAVITY>
14.0062

>  <SCORE.RESTR.norm>
0.411948

>  <SCORE.SYSTEM>
0

>  <SCORE.SYSTEM.CONST>
0

>  <SCORE.SYSTEM.DIHEDRAL>
0

>  <SCORE.SYSTEM.SOLV>
0

>  <SCORE.SYSTEM.norm>
0

>  <SCORE.heavy>
34

>  <SCORE.norm>
-0.654551

>  <RMSD>
20.007

$$$$
1mwl
 OpenBabel11021811403D
libRbt.so/2013.1/901 2013/11/27
 34 36  0  0  0  0  0  0  0  0999 V2000
   -4.5969  -11.4458   12.8022 C   0  0  2  0  0  0  0  0  0  0  0  0
   -3.4338  -11.1694   13.5231 O   0  0  0  0  0  0  0  0  0  0  0  0
   -4.5047  -10.6736   11.4561 C   0  0  2  0  0  0  0  0  0  0  0  0
   -3.3106  -11.0912   10.7148 N   0  3  0  0  0  0  0  0  0  0  0  0
   -4.5133   -9.1367   11.7035 C   0  0  1  0  0  0  0  0  0  0  0  0
   -4.4589   -8.4558   10.5314 O   0  0  0  0  0  0  0  0  0  0  0  0
   -5.8069   -8.7671   12.5020 C   0  0  2  0  0  0  0  0  0  0  0  0
   -5.8529   -7.3448   12.7410 O   0  0  0  0  0  0  0  0  0  0  0  0
   -5.8017   -9.5692   13.8475 C   0  0  2  0  0  0  0  0  0  0  0  0
   -5.7470  -11.0232   13.5786 O   0  0  0  0  0  0  0  0  0  0  0  0
   -7.0259   -9.3312   14.7390 C   0  0  2  0  0  0  0  0  0  0  0  0
   -7.8364   -8.3548   14.1706 O   0  0  0  0  0  0  0  0  0  0  0  0
   -6.6723   -8.8296   16.1510 C   0  0  0  0  0  0  0  0  0  0  0  0
   -4.4180  -12.6396   17.4127 C   0  0  2  0  0  0  0  0  0  0  0  0
   -4.2828  -13.0636   18.8295 N   0  3  0  0  0  0  0  0  0  0  0  0
   -3.5471  -13.5366   16.4839 C   0  0  0  0  0  0  0  0  0  0  0  0
   -3.6828  -13.0683   14.9898 C   0  0  2  0  0  0  0  0  0  0  0  0
   -2.8369  -13.9601   14.1148 N   0  3  0  0  0  0  0  0  0  0  0  0
   -3.2507  -11.5660   14.8762 C   0  0  2  0  0  0  0  0  0  0  0  0
   -4.1392  -10.7006   15.8028 C   0  0  2  0  0  0  0  0  0  0  0  0
   -3.7199   -9.3600   15.7182 O   0  0  0  0  0  0  0  0  0  0  0  0
   -3.9815  -11.1655   17.2754 C   0  0  1  0  0  0  0  0  0  0  0  0
   -4.8019  -10.3576   18.1064 O   0  0  0  0  0  0  0  0  0  0  0  0
   -4.2311   -9.7623   19.2389 C   0  0  2  0  0  0  0  0  0  0  0  0
   -5.3354   -8.9476   19.9387 C   0  0  2  0  0  0  0  0  0  0  0  0
   -6.3706   -9.8216   20.3350 O   0  0  0  0  0  0  0  0  0  0  0  0
   -5.8740   -7.8582   18.9498 C   0  0  1  0  0  0  0  0  0  0  0  0
   -6.9660   -7.0461   19.5399 N   0  3  0  0  0  0  0  0  0  0  0  0
   -8.2623   -7.7664   19.4573 C   0  0  0  0  0  0  0  0  0  0  0  0
   -4.6903   -6.9275   18.5146 C   0  0  2  0  0  0  0  0  0  0  0  0
   -4.1256   -6.2803   19.6703 O   0  0  0  0  0  0  0  0  0  0  0  0
   -5.1222   -5.8879   17.5981 C   0  0  0  0  0  0  0  0  0  0  0  0
   -3.5425   -7.7785   17.8888 C   0  0  0  0  0  0  0  0  0  0  0  0
   -3.1304   -8.8757   18.8243 O   0  0  0  0  0  0  0  0  0  0  0  0
  1  2  1  1  0  0  0
  1  3  1  0  0  0  0
  1 10  1  0  0  0  0
  3  4  1  1  0  0  0
  3  5  1  0  0  0  0
  5  6  1  6  0  0  0
  5  7  1  0  0  0  0
  7  8  1  1  0  0  0
  7  9  1  0  0  0  0
  9 10  1  6  0  0  0
  9 11  1  0  0  0  0
 11 12  1  6  0  0  0
 11 13  1  0  0  0  0
 14 15  1  1  0  0  0
 14 16  1  0  0  0  0
 14 22  1  0  0  0  0
 16 17  1  0  0  0  0
 17 18  1  6  0  0  0
 17 19  1  0  0  0  0
 19  2  1  6  0  0  0
 19 20  1  0  0  0  0
 20 21  1  1  0  0  0
 20 22  1  0  0  0  0
 22 23  1  1  0  0  0
 24 23  1  6  0  0  0
 24 25  1  0  0  0  0
 24 34  1  0  0  0  0
 25 26  1  6  0  0  0
 25 27  1  0  0  0  0
 27 28  1  1  0  0  0
 27 30  1  0  0  0  0
 28 29  1  0  0  0  0
 30 31  1  1  0  0  0
 30 32  1  0  0  0  0
 30 33  1  0  0  0  0
 33 34  1  0  0  0  0
M  CHG  4   4   1  15   1  18   1  28   1
M  END
>  <CHROM.1>
171.55022950,47.03730677,80.44753252,61.91205899,53.27315093,-4.33846271
-48.33129374,-52.29050376,-23.30040755,-51.23732225,110.61638627,179.66707856
67.96073027,39.17678703,-53.20575102,-4.88044056,-9.73038300,15.93352879
-1.20433180,-1.13948835,1.57157226

>  <Name>
1mwl

>  <RI>
0

>  <Rbt.Current_Directory>
/home/itssahil/PROJECTS/Mol_Feturizer/New_Systems/rnas/1mwl

>  <Rbt.Executable>
rbdock ($Id: //depot/dev/client3/rdock/2013.1/src/exe/rbdock.cxx#4 $)

>  <Rbt.Library>
libRbt.so (2013.1, Build901 2013/11/27)

>  <Rbt.Parameter_File>
/export/apps/rDock/src/rDock_2013.1_src/data/scripts/dock_solv.prm

>  <Rbt.Receptor>
prm/blind_docking_80.prm

>  <SCORE>
-20.4411

>  <SCORE.INTER>
-25.0735

>  <SCORE.INTER.CONST>
1

>  <SCORE.INTER.POLAR>
-5.10677

>  <SCORE.INTER.ROT>
6

>  <SCORE.INTER.SOLV>
24.4136

>  <SCORE.INTER.VDW>
-15.4309

>  <SCORE.INTER.norm>
-0.737455

>  <SCORE.INTRA>
-11.756

>  <SCORE.INTRA.DIHEDRAL>
-22.4512

>  <SCORE.INTRA.DIHEDRAL.0>
42.0816

>  <SCORE.INTRA.POLAR>
-0.484354

>  <SCORE.INTRA.POLAR.0>
-0.254682

>  <SCORE.INTRA.REPUL>
0

>  <SCORE.INTRA.REPUL.0>
0

>  <SCORE.INTRA.SOLV>
-0.0175937

>  <SCORE.INTRA.SOLV.lig_0>
-109.803

>  <SCORE.INTRA.VDW>
1.12519

>  <SCORE.INTRA.VDW.0>
0.32176

>  <SCORE.INTRA.norm>
-0.345765

>  <SCORE.RESTR>
16.3884

>  <SCORE.RESTR.CAVITY>
16.3884

>  <SCORE.RESTR.norm>
0.48201

>  <SCORE.SYSTEM>
0

>  <SCORE.SYSTEM.CONST>
0

>  <SCORE.SYSTEM.DIHEDRAL>
0

>  <SCORE.SYSTEM.SOLV>
0

>  <SCORE.SYSTEM.norm>
0

>  <SCORE.heavy>
34

>  <SCORE.norm>
-0.601209

>  <RMSD>
20.007

$$$$
1mwl
 OpenBabel11021811403D
libRbt.so/2013.1/901 2013/11/27
 34 36  0  0  0  0  0  0  0  0999 V2000
   -4.1533   -9.3260   12.6676 C   0  0  2  0  0  0  0  0  0  0  0  0
   -4.3774  -10.4697   13.4360 O   0  0  0  0  0  0  0  0  0  0  0  0
   -5.5373   -8.8188   12.1734 C   0  0  2  0  0  0  0  0  0  0  0  0
   -6.4061   -8.5260   13.3175 N   0  3  0  0  0  0  0  0  0  0  0  0
   -6.1902   -9.8551   11.2125 C   0  0  1  0  0  0  0  0  0  0  0  0
   -7.3871   -9.4079   10.7568 O   0  0  0  0  0  0  0  0  0  0  0  0
   -5.2075  -10.1226   10.0249 C   0  0  2  0  0  0  0  0  0  0  0  0
   -5.7863  -11.0737    9.1069 O   0  0  0  0  0  0  0  0  0  0  0  0
   -3.8556  -10.6516   10.6134 C   0  0  2  0  0  0  0  0  0  0  0  0
   -3.2846   -9.6647   11.5564 O   0  0  0  0  0  0  0  0  0  0  0  0
   -2.7724  -10.9408    9.5679 C   0  0  2  0  0  0  0  0  0  0  0  0
   -2.7289   -9.9062    8.6401 O   0  0  0  0  0  0  0  0  0  0  0  0
   -3.0197  -12.2305    8.7642 C   0  0  0  0  0  0  0  0  0  0  0  0
   -4.0662  -10.9282   17.6730 C   0  0  2  0  0  0  0  0  0  0  0  0
   -3.4865  -11.1372   19.0242 N   0  3  0  0  0  0  0  0  0  0  0  0
   -3.8408  -12.1822   16.7771 C   0  0  0  0  0  0  0  0  0  0  0  0
   -4.4414  -11.9438   15.3444 C   0  0  2  0  0  0  0  0  0  0  0  0
   -4.2164  -13.1767   14.5042 N   0  3  0  0  0  0  0  0  0  0  0  0
   -3.7736  -10.6776   14.7064 C   0  0  2  0  0  0  0  0  0  0  0  0
   -4.0223   -9.4485   15.6145 C   0  0  2  0  0  0  0  0  0  0  0  0
   -3.3897   -8.3258   15.0493 O   0  0  0  0  0  0  0  0  0  0  0  0
   -3.4097   -9.6936   17.0194 C   0  0  1  0  0  0  0  0  0  0  0  0
   -3.6470   -8.5544   17.8333 O   0  0  0  0  0  0  0  0  0  0  0  0
   -4.6507   -7.6543   17.4526 C   0  0  2  0  0  0  0  0  0  0  0  0
   -4.6998   -6.5404   18.5155 C   0  0  2  0  0  0  0  0  0  0  0  0
   -3.4547   -5.8761   18.5433 O   0  0  0  0  0  0  0  0  0  0  0  0
   -5.0232   -7.1764   19.9105 C   0  0  1  0  0  0  0  0  0  0  0  0
   -5.0593   -6.1692   20.9987 N   0  3  0  0  0  0  0  0  0  0  0  0
   -3.8345   -6.2525   21.8347 C   0  0  0  0  0  0  0  0  0  0  0  0
   -6.3978   -7.9252   19.8287 C   0  0  2  0  0  0  0  0  0  0  0  0
   -7.4412   -6.9969   19.4780 O   0  0  0  0  0  0  0  0  0  0  0  0
   -6.7625   -8.5360   21.0941 C   0  0  0  0  0  0  0  0  0  0  0  0
   -6.3610   -8.9887   18.6882 C   0  0  0  0  0  0  0  0  0  0  0  0
   -5.9434   -8.3580   17.3934 O   0  0  0  0  0  0  0  0  0  0  0  0
  1  2  1  1  0  0  0
  1  3  1  0  0  0  0
  1 10  1  0  0  0  0
  3  4  1  1  0  0  0
  3  5  1  0  0  0  0
  5  6  1  6  0  0  0
  5  7  1  0  0  0  0
  7  8  1  6  0  0  0
  7  9  1  0  0  0  0
  9 10  1  1  0  0  0
  9 11  1  0  0  0  0
 11 12  1  6  0  0  0
 11 13  1  0  0  0  0
 14 15  1  1  0  0  0
 14 16  1  0  0  0  0
 14 22  1  0  0  0  0
 16 17  1  0  0  0  0
 17 18  1  6  0  0  0
 17 19  1  0  0  0  0
 19  2  1  6  0  0  0
 19 20  1  0  0  0  0
 20 21  1  6  0  0  0
 20 22  1  0  0  0  0
 22 23  1  1  0  0  0
 24 23  1  1  0  0  0
 24 25  1  0  0  0  0
 24 34  1  0  0  0  0
 25 26  1  1  0  0  0
 25 27  1  0  0  0  0
 27 28  1  1  0  0  0
 27 30  1  0  0  0  0
 28 29  1  0  0  0  0
 30 31  1  6  0  0  0
 30 32  1  0  0  0  0
 30 33  1  0  0  0  0
 33 34  1  0  0  0  0
M  CHG  4   4   1  15   1  18   1  28   1
M  END
>  <CHROM.1>
-133.07953197,171.08313290,-59.35838160,47.28571593,-53.99648135,43.99730333
-179.04372777,174.95909088,173.90206054,-143.85152771,-101.62413966,179.22070420
-146.37046993,15.38713367,33.57279675,-4.67347829,-9.32229302,15.25433496
1.42439375,1.03619998,-1.75151208

>  <Name>
1mwl

>  <RI>
0

>  <Rbt.Current_Directory>
/home/itssahil/PROJECTS/Mol_Feturizer/New_Systems/rnas/1mwl

>  <Rbt.Executable>
rbdock ($Id: //depot/dev/client3/rdock/2013.1/src/exe/rbdock.cxx#4 $)

>  <Rbt.Library>
libRbt.so (2013.1, Build901 2013/11/27)

>  <Rbt.Parameter_File>
/export/apps/rDock/src/rDock_2013.1_src/data/scripts/dock_solv.prm

>  <Rbt.Receptor>
prm/blind_docking_80.prm

>  <SCORE>
-12.964

>  <SCORE.INTER>
-24.2594

>  <SCORE.INTER.CONST>
1

>  <SCORE.INTER.POLAR>
-3.285

>  <SCORE.INTER.ROT>
6

>  <SCORE.INTER.SOLV>
23.8076

>  <SCORE.INTER.VDW>
-20.7588

>  <SCORE.INTER.norm>
-0.713513

>  <SCORE.INTRA>
-2.39977

>  <SCORE.INTRA.DIHEDRAL>
-12.8124

>  <SCORE.INTRA.DIHEDRAL.0>
42.0816

>  <SCORE.INTRA.POLAR>
0.245704

>  <SCORE.INTRA.POLAR.0>
-0.254682

>  <SCORE.INTRA.REPUL>
0

>  <SCORE.INTRA.REPUL.0>
0

>  <SCORE.INTRA.SOLV>
-0.519425

>  <SCORE.INTRA.SOLV.lig_0>
-109.803

>  <SCORE.INTRA.VDW>
3.43076

>  <SCORE.INTRA.VDW.0>
0.32176

>  <SCORE.INTRA.norm>
-0.0705815

>  <SCORE.RESTR>
13.6952

>  <SCORE.RESTR.CAVITY>
13.6952

>  <SCORE.RESTR.norm>
0.4028

>  <SCORE.SYSTEM>
0

>  <SCORE.SYSTEM.CONST>
0

>  <SCORE.SYSTEM.DIHEDRAL>
0

>  <SCORE.SYSTEM.SOLV>
0

>  <SCORE.SYSTEM.norm>
0

>  <SCORE.heavy>
34

>  <SCORE.norm>
-0.381294

>  <RMSD>
20.041

$$$$
1mwl
 OpenBabel11021811403D
libRbt.so/2013.1/901 2013/11/27
 34 36  0  0  0  0  0  0  0  0999 V2000
   -3.8742   -9.2698   12.3974 C   0  0  2  0  0  0  0  0  0  0  0  0
   -4.3452  -10.2096   13.3158 O   0  0  0  0  0  0  0  0  0  0  0  0
   -5.1127   -8.6325   11.7070 C   0  0  2  0  0  0  0  0  0  0  0  0
   -5.9821   -8.0055   12.7073 N   0  3  0  0  0  0  0  0  0  0  0  0
   -5.8820   -9.6960   10.8699 C   0  0  1  0  0  0  0  0  0  0  0  0
   -6.9499   -9.1415   10.2435 O   0  0  0  0  0  0  0  0  0  0  0  0
   -4.8937  -10.3249    9.8329 C   0  0  2  0  0  0  0  0  0  0  0  0
   -5.5773  -11.3107    9.0309 O   0  0  0  0  0  0  0  0  0  0  0  0
   -3.6961  -10.9617   10.6166 C   0  0  2  0  0  0  0  0  0  0  0  0
   -3.0152   -9.9355   11.4367 O   0  0  0  0  0  0  0  0  0  0  0  0
   -2.6216  -11.6038    9.7318 C   0  0  2  0  0  0  0  0  0  0  0  0
   -2.2565  -10.7199    8.7225 O   0  0  0  0  0  0  0  0  0  0  0  0
   -3.0898  -12.8911    9.0290 C   0  0  0  0  0  0  0  0  0  0  0  0
   -3.9492  -10.9696   17.5021 C   0  0  2  0  0  0  0  0  0  0  0  0
   -3.3385  -11.2244   18.8316 N   0  3  0  0  0  0  0  0  0  0  0  0
   -3.6038  -12.1180   16.5083 C   0  0  0  0  0  0  0  0  0  0  0  0
   -4.2391  -11.8298   15.0999 C   0  0  2  0  0  0  0  0  0  0  0  0
   -3.8957  -12.9618   14.1633 N   0  3  0  0  0  0  0  0  0  0  0  0
   -3.7115  -10.4544   14.5649 C   0  0  2  0  0  0  0  0  0  0  0  0
   -4.0774   -9.3340   15.5689 C   0  0  2  0  0  0  0  0  0  0  0  0
   -3.5693   -8.1103   15.0950 O   0  0  0  0  0  0  0  0  0  0  0  0
   -3.4298   -9.6254   16.9491 C   0  0  1  0  0  0  0  0  0  0  0  0
   -3.7760   -8.5855   17.8519 O   0  0  0  0  0  0  0  0  0  0  0  0
   -4.5810   -7.5359   17.3906 C   0  0  2  0  0  0  0  0  0  0  0  0
   -4.7519   -6.5396   18.5530 C   0  0  2  0  0  0  0  0  0  0  0  0
   -3.4843   -6.0377   18.9187 O   0  0  0  0  0  0  0  0  0  0  0  0
   -5.4308   -7.2716   19.7605 C   0  0  1  0  0  0  0  0  0  0  0  0
   -5.6049   -6.3848   20.9367 N   0  3  0  0  0  0  0  0  0  0  0  0
   -4.2894   -5.9188   21.4447 C   0  0  0  0  0  0  0  0  0  0  0  0
   -6.8206   -7.8357   19.3053 C   0  0  2  0  0  0  0  0  0  0  0  0
   -7.6680   -6.7565   18.8687 O   0  0  0  0  0  0  0  0  0  0  0  0
   -7.5090   -8.5246   20.3818 C   0  0  0  0  0  0  0  0  0  0  0  0
   -6.6399   -8.7728   18.0715 C   0  0  0  0  0  0  0  0  0  0  0  0
   -5.8917   -8.0676   16.9798 O   0  0  0  0  0  0  0  0  0  0  0  0
  1  2  1  1  0  0  0
  1  3  1  0  0  0  0
  1 10  1  0  0  0  0
  3  4  1  1  0  0  0
  3  5  1  0  0  0  0
  5  6  1  6  0  0  0
  5  7  1  0  0  0  0
  7  8  1  1  0  0  0
  7  9  1  0  0  0  0
  9 10  1  6  0  0  0
  9 11  1  0  0  0  0
 11 12  1  6  0  0  0
 11 13  1  0  0  0  0
 14 15  1  1  0  0  0
 14 16  1  0  0  0  0
 14 22  1  0  0  0  0
 16 17  1  0  0  0  0
 17 18  1  6  0  0  0
 17 19  1  0  0  0  0
 19  2  1  6  0  0  0
 19 20  1  0  0  0  0
 20 21  1  6  0  0  0
 20 22  1  0  0  0  0
 22 23  1  1  0  0  0
 24 23  1  1  0  0  0
 24 25  1  0  0  0  0
 24 34  1  0  0  0  0
 25 26  1  1  0  0  0
 25 27  1  0  0  0  0
 27 28  1  1  0  0  0
 27 30  1  0  0  0  0
 28 29  1  0  0  0  0
 30 31  1  6  0  0  0
 30 32  1  0  0  0  0
 30 33  1  0  0  0  0
 33 34  1  0  0  0  0
M  CHG  4   4   1  15   1  18   1  28   1
M  END
>  <CHROM.1>
-144.63066127,-162.98598726,97.87899555,34.96886302,61.71217909,48.99308082
-58.08390967,-60.51021886,42.06685890,-65.81615069,-120.42640911,-178.01963044
-61.71554591,57.77446474,-178.89315582,-4.64381483,-9.32490493,15.05270655
1.36601900,0.91324365,-1.75399842

>  <Name>
1mwl

>  <RI>
0

>  <Rbt.Current_Directory>
/home/itssahil/PROJECTS/Mol_Feturizer/New_Systems/rnas/1mwl

>  <Rbt.Executable>
rbdock ($Id: //depot/dev/client3/rdock/2013.1/src/exe/rbdock.cxx#4 $)

>  <Rbt.Library>
libRbt.so (2013.1, Build901 2013/11/27)

>  <Rbt.Parameter_File>
/export/apps/rDock/src/rDock_2013.1_src/data/scripts/dock_solv.prm

>  <Rbt.Receptor>
prm/blind_docking_80.prm

>  <SCORE>
-19.547

>  <SCORE.INTER>
-27.4838

>  <SCORE.INTER.CONST>
1

>  <SCORE.INTER.POLAR>
-5.14535

>  <SCORE.INTER.ROT>
6

>  <SCORE.INTER.SOLV>
29.4608

>  <SCORE.INTER.VDW>
-18.5916

>  <SCORE.INTER.norm>
-0.808346

>  <SCORE.INTRA>
-5.33317

>  <SCORE.INTRA.DIHEDRAL>
-22.271

>  <SCORE.INTRA.DIHEDRAL.0>
42.0816

>  <SCORE.INTRA.POLAR>
0.221893

>  <SCORE.INTRA.POLAR.0>
-0.254682

>  <SCORE.INTRA.REPUL>
0

>  <SCORE.INTRA.REPUL.0>
0

>  <SCORE.INTRA.SOLV>
-2.17584

>  <SCORE.INTRA.SOLV.lig_0>
-109.803

>  <SCORE.INTRA.VDW>
6.13582

>  <SCORE.INTRA.VDW.0>
0.32176

>  <SCORE.INTRA.norm>
-0.156858

>  <SCORE.RESTR>
13.2699

>  <SCORE.RESTR.CAVITY>
13.2699

>  <SCORE.RESTR.norm>
0.390292

>  <SCORE.SYSTEM>
0

>  <SCORE.SYSTEM.CONST>
0

>  <SCORE.SYSTEM.DIHEDRAL>
0

>  <SCORE.SYSTEM.SOLV>
0

>  <SCORE.SYSTEM.norm>
0

>  <SCORE.heavy>
34

>  <SCORE.norm>
-0.574913

>  <RMSD>
20.053

$$$$
1mwl
 OpenBabel11021811403D
libRbt.so/2013.1/901 2013/11/27
 34 36  0  0  0  0  0  0  0  0999 V2000
   -4.6268  -11.9019   13.6432 C   0  0  2  0  0  0  0  0  0  0  0  0
   -3.3705  -11.5695   14.1528 O   0  0  0  0  0  0  0  0  0  0  0  0
   -4.4421  -12.2492   12.1391 C   0  0  2  0  0  0  0  0  0  0  0  0
   -3.4989  -13.3616   11.9895 N   0  3  0  0  0  0  0  0  0  0  0  0
   -3.9773  -10.9966   11.3400 C   0  0  1  0  0  0  0  0  0  0  0  0
   -3.8385  -11.2854   10.0218 O   0  0  0  0  0  0  0  0  0  0  0  0
   -5.0237   -9.8531   11.5517 C   0  0  2  0  0  0  0  0  0  0  0  0
   -4.6288   -8.6767   10.8152 O   0  0  0  0  0  0  0  0  0  0  0  0
   -5.1247   -9.5551   13.0863 C   0  0  2  0  0  0  0  0  0  0  0  0
   -5.5234  -10.7757   13.8214 O   0  0  0  0  0  0  0  0  0  0  0  0
   -6.1347   -8.4645   13.4611 C   0  0  2  0  0  0  0  0  0  0  0  0
   -5.7951   -7.2741   12.8279 O   0  0  0  0  0  0  0  0  0  0  0  0
   -6.1762   -8.1544   14.9686 C   0  0  0  0  0  0  0  0  0  0  0  0
   -3.9975  -11.9097   18.3659 C   0  0  2  0  0  0  0  0  0  0  0  0
   -3.7296  -11.9673   19.8255 N   0  3  0  0  0  0  0  0  0  0  0  0
   -3.2872  -13.0837   17.6289 C   0  0  0  0  0  0  0  0  0  0  0  0
   -3.5617  -13.0030   16.0835 C   0  0  2  0  0  0  0  0  0  0  0  0
   -2.8700  -14.1562   15.3991 N   0  3  0  0  0  0  0  0  0  0  0  0
   -3.0607  -11.6211   15.5395 C   0  0  2  0  0  0  0  0  0  0  0  0
   -3.7902  -10.4766   16.2844 C   0  0  2  0  0  0  0  0  0  0  0  0
   -3.3080   -9.2419   15.8120 O   0  0  0  0  0  0  0  0  0  0  0  0
   -3.4963  -10.5613   17.8061 C   0  0  1  0  0  0  0  0  0  0  0  0
   -4.1723   -9.5023   18.4680 O   0  0  0  0  0  0  0  0  0  0  0  0
   -5.2677   -8.9035   17.8323 C   0  0  2  0  0  0  0  0  0  0  0  0
   -5.1917   -7.3900   18.1089 C   0  0  2  0  0  0  0  0  0  0  0  0
   -3.9929   -6.8824   17.5634 O   0  0  0  0  0  0  0  0  0  0  0  0
   -5.2461   -7.1479   19.6560 C   0  0  1  0  0  0  0  0  0  0  0  0
   -5.1480   -5.7107   20.0093 N   0  3  0  0  0  0  0  0  0  0  0  0
   -3.7906   -5.3839   20.5158 C   0  0  0  0  0  0  0  0  0  0  0  0
   -6.5774   -7.7490   20.2246 C   0  0  2  0  0  0  0  0  0  0  0  0
   -7.7082   -7.1082   19.6049 O   0  0  0  0  0  0  0  0  0  0  0  0
   -6.6954   -7.5542   21.6583 C   0  0  0  0  0  0  0  0  0  0  0  0
   -6.6808   -9.2619   19.8589 C   0  0  0  0  0  0  0  0  0  0  0  0
   -6.5166   -9.4587   18.3814 O   0  0  0  0  0  0  0  0  0  0  0  0
  1  2  1  6  0  0  0
  1  3  1  0  0  0  0
  1 10  1  0  0  0  0
  3  4  1  1  0  0  0
  3  5  1  0  0  0  0
  5  6  1  6  0  0  0
  5  7  1  0  0  0  0
  7  8  1  6  0  0  0
  7  9  1  0  0  0  0
  9 10  1  1  0  0  0
  9 11  1  0  0  0  0
 11 12  1  6  0  0  0
 11 13  1  0  0  0  0
 14 15  1  1  0  0  0
 14 16  1  0  0  0  0
 14 22  1  0  0  0  0
 16 17  1  0  0  0  0
 17 18  1  6  0  0  0
 17 19  1  0  0  0  0
 19  2  1  6  0  0  0
 19 20  1  0  0  0  0
 20 21  1  6  0  0  0
 20 22  1  0  0  0  0
 22 23  1  1  0  0  0
 24 23  1  1  0  0  0
 24 25  1  0  0  0  0
 24 34  1  0  0  0  0
 25 26  1  1  0  0  0
 25 27  1  0  0  0  0
 27 28  1  6  0  0  0
 27 30  1  0  0  0  0
 28 29  1  0  0  0  0
 30 31  1  6  0  0  0
 30 32  1  0  0  0  0
 30 33  1  0  0  0  0
 33 34  1  0  0  0  0
M  CHG  4   4   1  15   1  18   1  28   1
M  END
>  <CHROM.1>
-158.82763167,48.11524869,-56.65221788,-177.96602764,-70.75489728,-59.08810266
151.65011267,-171.75060795,62.07946381,-59.54551642,-98.80257346,-140.84172414
167.96752332,16.39538523,62.99255597,-4.69965105,-9.74851037,16.10167083
-1.10778465,-1.19045871,1.55072880

>  <Name>
1mwl

>  <RI>
0

>  <Rbt.Current_Directory>
/home/itssahil/PROJECTS/Mol_Feturizer/New_Systems/rnas/1mwl

>  <Rbt.Executable>
rbdock ($Id: //depot/dev/client3/rdock/2013.1/src/exe/rbdock.cxx#4 $)

>  <Rbt.Library>
libRbt.so (2013.1, Build901 2013/11/27)

>  <Rbt.Parameter_File>
/export/apps/rDock/src/rDock_2013.1_src/data/scripts/dock_solv.prm

>  <Rbt.Receptor>
prm/blind_docking_80.prm

>  <SCORE>
-19.4992

>  <SCORE.INTER>
-25.0877

>  <SCORE.INTER.CONST>
1

>  <SCORE.INTER.POLAR>
-5.52729

>  <SCORE.INTER.ROT>
6

>  <SCORE.INTER.SOLV>
23.1713

>  <SCORE.INTER.VDW>
-13.6246

>  <SCORE.INTER.norm>
-0.737874

>  <SCORE.INTRA>
-10.7575

>  <SCORE.INTRA.DIHEDRAL>
-21.0779

>  <SCORE.INTRA.DIHEDRAL.0>
42.0816

>  <SCORE.INTRA.POLAR>
0.251283

>  <SCORE.INTRA.POLAR.0>
-0.254682

>  <SCORE.INTRA.REPUL>
0

>  <SCORE.INTRA.REPUL.0>
0

>  <SCORE.INTRA.SOLV>
1.32023

>  <SCORE.INTRA.SOLV.lig_0>
-109.803

>  <SCORE.INTRA.VDW>
-1.73305

>  <SCORE.INTRA.VDW.0>
0.32176

>  <SCORE.INTRA.norm>
-0.316398

>  <SCORE.RESTR>
16.346

>  <SCORE.RESTR.CAVITY>
16.346

>  <SCORE.RESTR.norm>
0.480765

>  <SCORE.SYSTEM>
0

>  <SCORE.SYSTEM.CONST>
0

>  <SCORE.SYSTEM.DIHEDRAL>
0

>  <SCORE.SYSTEM.SOLV>
0

>  <SCORE.SYSTEM.norm>
0

>  <SCORE.heavy>
34

>  <SCORE.norm>
-0.573507

>  <RMSD>
20.075

$$$$
1mwl
 OpenBabel11021811403D
libRbt.so/2013.1/901 2013/11/27
 34 36  0  0  0  0  0  0  0  0999 V2000
   -3.9514   -9.2152   12.3187 C   0  0  2  0  0  0  0  0  0  0  0  0
   -4.5917  -10.1408   13.1444 O   0  0  0  0  0  0  0  0  0  0  0  0
   -5.0514   -8.4828   11.4998 C   0  0  2  0  0  0  0  0  0  0  0  0
   -5.9973   -7.8208   12.4034 N   0  3  0  0  0  0  0  0  0  0  0  0
   -5.7759   -9.4751   10.5438 C   0  0  1  0  0  0  0  0  0  0  0  0
   -6.7202   -8.8380    9.8072 O   0  0  0  0  0  0  0  0  0  0  0  0
   -4.7077  -10.1463    9.6186 C   0  0  2  0  0  0  0  0  0  0  0  0
   -5.3469  -11.0675    8.7102 O   0  0  0  0  0  0  0  0  0  0  0  0
   -3.6599  -10.8774   10.5249 C   0  0  2  0  0  0  0  0  0  0  0  0
   -3.0231   -9.9161   11.4520 O   0  0  0  0  0  0  0  0  0  0  0  0
   -2.5261  -11.5706    9.7607 C   0  0  2  0  0  0  0  0  0  0  0  0
   -2.2728  -10.8867    8.5769 O   0  0  0  0  0  0  0  0  0  0  0  0
   -2.8496  -13.0214    9.3597 C   0  0  0  0  0  0  0  0  0  0  0  0
   -4.6560  -11.0537   17.3184 C   0  0  2  0  0  0  0  0  0  0  0  0
   -4.1986  -11.4176   18.6836 N   0  3  0  0  0  0  0  0  0  0  0  0
   -4.3690  -12.2099   16.3150 C   0  0  0  0  0  0  0  0  0  0  0  0
   -4.8398  -11.8077   14.8704 C   0  0  2  0  0  0  0  0  0  0  0  0
   -4.5578  -12.9489   13.9245 N   0  3  0  0  0  0  0  0  0  0  0  0
   -4.1033  -10.4956   14.4318 C   0  0  2  0  0  0  0  0  0  0  0  0
   -4.4149   -9.3648   15.4425 C   0  0  2  0  0  0  0  0  0  0  0  0
   -3.7217   -8.2023   15.0575 O   0  0  0  0  0  0  0  0  0  0  0  0
   -3.9299   -9.7710   16.8599 C   0  0  1  0  0  0  0  0  0  0  0  0
   -4.2231   -8.7200   17.7686 O   0  0  0  0  0  0  0  0  0  0  0  0
   -5.4283   -8.0211   17.6210 C   0  0  2  0  0  0  0  0  0  0  0  0
   -5.2308   -6.6240   18.2390 C   0  0  2  0  0  0  0  0  0  0  0  0
   -4.2058   -5.9520   17.5387 O   0  0  0  0  0  0  0  0  0  0  0  0
   -4.8607   -6.7805   19.7534 C   0  0  1  0  0  0  0  0  0  0  0  0
   -4.6239   -5.4756   20.4176 N   0  3  0  0  0  0  0  0  0  0  0  0
   -3.4278   -5.5406   21.2959 C   0  0  0  0  0  0  0  0  0  0  0  0
   -6.0101   -7.5536   20.4871 C   0  0  2  0  0  0  0  0  0  0  0  0
   -7.2437   -6.8194   20.3745 O   0  0  0  0  0  0  0  0  0  0  0  0
   -5.7331   -7.7297   21.9012 C   0  0  0  0  0  0  0  0  0  0  0  0
   -6.2579   -8.9287   19.7937 C   0  0  0  0  0  0  0  0  0  0  0  0
   -6.5021   -8.7418   18.3260 O   0  0  0  0  0  0  0  0  0  0  0  0
  1  2  1  1  0  0  0
  1  3  1  0  0  0  0
  1 10  1  0  0  0  0
  3  4  1  1  0  0  0
  3  5  1  0  0  0  0
  5  6  1  6  0  0  0
  5  7  1  0  0  0  0
  7  8  1  6  0  0  0
  7  9  1  0  0  0  0
  9 10  1  1  0  0  0
  9 11  1  0  0  0  0
 11 12  1  6  0  0  0
 11 13  1  0  0  0  0
 14 15  1  1  0  0  0
 14 16  1  0  0  0  0
 14 22  1  0  0  0  0
 16 17  1  0  0  0  0
 17 18  1  6  0  0  0
 17 19  1  0  0  0  0
 19  2  1  6  0  0  0
 19 20  1  0  0  0  0
 20 21  1  6  0  0  0
 20 22  1  0  0  0  0
 22 23  1  1  0  0  0
 24 23  1  1  0  0  0
 24 25  1  0  0  0  0
 24 34  1  0  0  0  0
 25 26  1  6  0  0  0
 25 27  1  0  0  0  0
 27 28  1  1  0  0  0
 27 30  1  0  0  0  0
 28 29  1  0  0  0  0
 30 31  1  6  0  0  0
 30 32  1  0  0  0  0
 30 33  1  0  0  0  0
 33 34  1  0  0  0  0
M  CHG  4   4   1  15   1  18   1  28   1
M  END
>  <CHROM.1>
-147.39920677,-164.84736901,107.95301782,-37.39309543,-58.69787079,30.02409428
175.28257333,62.80727770,65.70711801,-168.67330521,-81.94924325,-154.84986333
-52.26537547,-16.86566497,65.40015623,-4.68435631,-9.26785748,15.09932370
1.12349404,1.32030038,-1.46868135

>  <Name>
1mwl

>  <RI>
0

>  <Rbt.Current_Directory>
/home/itssahil/PROJECTS/Mol_Feturizer/New_Systems/rnas/1mwl

>  <Rbt.Executable>
rbdock ($Id: //depot/dev/client3/rdock/2013.1/src/exe/rbdock.cxx#4 $)

>  <Rbt.Library>
libRbt.so (2013.1, Build901 2013/11/27)

>  <Rbt.Parameter_File>
/export/apps/rDock/src/rDock_2013.1_src/data/scripts/dock_solv.prm

>  <Rbt.Receptor>
prm/blind_docking_80.prm

>  <SCORE>
-18.6352

>  <SCORE.INTER>
-25.1918

>  <SCORE.INTER.CONST>
1

>  <SCORE.INTER.POLAR>
-3.97778

>  <SCORE.INTER.ROT>
6

>  <SCORE.INTER.SOLV>
29.435

>  <SCORE.INTER.VDW>
-20.947

>  <SCORE.INTER.norm>
-0.740935

>  <SCORE.INTRA>
-9.04329

>  <SCORE.INTRA.DIHEDRAL>
-19.6434

>  <SCORE.INTRA.DIHEDRAL.0>
42.0816

>  <SCORE.INTRA.POLAR>
0.212713

>  <SCORE.INTRA.POLAR.0>
-0.254682

>  <SCORE.INTRA.REPUL>
0

>  <SCORE.INTRA.REPUL.0>
0

>  <SCORE.INTRA.SOLV>
-0.530476

>  <SCORE.INTRA.SOLV.lig_0>
-109.803

>  <SCORE.INTRA.VDW>
0.320425

>  <SCORE.INTRA.VDW.0>
0.32176

>  <SCORE.INTRA.norm>
-0.265979

>  <SCORE.RESTR>
15.5998

>  <SCORE.RESTR.CAVITY>
15.5998

>  <SCORE.RESTR.norm>
0.458819

>  <SCORE.SYSTEM>
0

>  <SCORE.SYSTEM.CONST>
0

>  <SCORE.SYSTEM.DIHEDRAL>
0

>  <SCORE.SYSTEM.SOLV>
0

>  <SCORE.SYSTEM.norm>
0

>  <SCORE.heavy>
34

>  <SCORE.norm>
-0.548095

>  <RMSD>
20.091

$$$$
1mwl
 OpenBabel11021811403D
libRbt.so/2013.1/901 2013/11/27
 34 36  0  0  0  0  0  0  0  0999 V2000
   -3.8624   -9.2973   12.3306 C   0  0  2  0  0  0  0  0  0  0  0  0
   -4.3426  -10.2679   13.2115 O   0  0  0  0  0  0  0  0  0  0  0  0
   -5.0948   -8.6138   11.6742 C   0  0  2  0  0  0  0  0  0  0  0  0
   -5.9500   -8.0169   12.7047 N   0  3  0  0  0  0  0  0  0  0  0  0
   -5.8835   -9.6301   10.7975 C   0  0  1  0  0  0  0  0  0  0  0  0
   -6.9463   -9.0346   10.2008 O   0  0  0  0  0  0  0  0  0  0  0  0
   -4.9096  -10.2292    9.7298 C   0  0  2  0  0  0  0  0  0  0  0  0
   -5.6114  -11.1705    8.8910 O   0  0  0  0  0  0  0  0  0  0  0  0
   -3.7177  -10.9155   10.4797 C   0  0  2  0  0  0  0  0  0  0  0  0
   -3.0179   -9.9344   11.3382 O   0  0  0  0  0  0  0  0  0  0  0  0
   -2.6569  -11.5353    9.5628 C   0  0  2  0  0  0  0  0  0  0  0  0
   -2.3932  -10.6747    8.5031 O   0  0  0  0  0  0  0  0  0  0  0  0
   -3.0900  -12.8725    8.9348 C   0  0  0  0  0  0  0  0  0  0  0  0
   -4.1470  -11.0276   17.4119 C   0  0  2  0  0  0  0  0  0  0  0  0
   -3.6004  -11.2720   18.7710 N   0  3  0  0  0  0  0  0  0  0  0  0
   -3.7261  -12.1664   16.4362 C   0  0  0  0  0  0  0  0  0  0  0  0
   -4.2939  -11.8890   14.9972 C   0  0  2  0  0  0  0  0  0  0  0  0
   -3.8784  -13.0116   14.0785 N   0  3  0  0  0  0  0  0  0  0  0  0
   -3.7691  -10.5015   14.4914 C   0  0  2  0  0  0  0  0  0  0  0  0
   -4.2103   -9.3912   15.4761 C   0  0  2  0  0  0  0  0  0  0  0  0
   -3.7049   -8.1560   15.0302 O   0  0  0  0  0  0  0  0  0  0  0  0
   -3.6287   -9.6715   16.8876 C   0  0  1  0  0  0  0  0  0  0  0  0
   -4.0433   -8.6411   17.7724 O   0  0  0  0  0  0  0  0  0  0  0  0
   -5.1757   -7.8860   17.4403 C   0  0  2  0  0  0  0  0  0  0  0  0
   -5.1130   -6.5781   18.2516 C   0  0  2  0  0  0  0  0  0  0  0  0
   -3.9482   -5.8677   17.8896 O   0  0  0  0  0  0  0  0  0  0  0  0
   -5.1030   -6.9225   19.7801 C   0  0  1  0  0  0  0  0  0  0  0  0
   -5.0135   -5.7129   20.6339 N   0  3  0  0  0  0  0  0  0  0  0  0
   -4.0818   -5.9366   21.7687 C   0  0  0  0  0  0  0  0  0  0  0  0
   -6.3975   -7.7325   20.1338 C   0  0  2  0  0  0  0  0  0  0  0  0
   -7.5653   -6.9454   19.8333 O   0  0  0  0  0  0  0  0  0  0  0  0
   -6.4552   -8.0813   21.5418 C   0  0  0  0  0  0  0  0  0  0  0  0
   -6.4916   -9.0080   19.2409 C   0  0  0  0  0  0  0  0  0  0  0  0
   -6.3896   -8.6436   17.7898 O   0  0  0  0  0  0  0  0  0  0  0  0
  1  2  1  1  0  0  0
  1  3  1  0  0  0  0
  1 10  1  0  0  0  0
  3  4  1  1  0  0  0
  3  5  1  0  0  0  0
  5  6  1  6  0  0  0
  5  7  1  0  0  0  0
  7  8  1  1  0  0  0
  7  9  1  0  0  0  0
  9 10  1  6  0  0  0
  9 11  1  0  0  0  0
 11 12  1  6  0  0  0
 11 13  1  0  0  0  0
 14 15  1  1  0  0  0
 14 16  1  0  0  0  0
 14 22  1  0  0  0  0
 16 17  1  0  0  0  0
 17 18  1  6  0  0  0
 17 19  1  0  0  0  0
 19  2  1  6  0  0  0
 19 20  1  0  0  0  0
 20 21  1  6  0  0  0
 20 22  1  0  0  0  0
 22 23  1  1  0  0  0
 24 23  1  1  0  0  0
 24 25  1  0  0  0  0
 24 34  1  0  0  0  0
 25 26  1  6  0  0  0
 25 27  1  0  0  0  0
 27 28  1  1  0  0  0
 27 30  1  0  0  0  0
 28 29  1  0  0  0  0
 30 31  1  6  0  0  0
 30 32  1  0  0  0  0
 30 33  1  0  0  0  0
 33 34  1  0  0  0  0
M  CHG  4   4   1  15   1  18   1  28   1
M  END
>  <CHROM.1>
-139.53924841,-164.35771035,104.91647510,60.40797310,-59.16798083,42.35805473
52.74527957,71.75994918,164.01042915,-69.48854174,-98.70034973,-160.39061017
73.92676408,-18.47546602,169.16806437,-4.66182747,-9.31251932,15.09762982
1.29853435,1.11067620,-1.65814411

>  <Name>
1mwl

>  <RI>
0

>  <Rbt.Current_Directory>
/home/itssahil/PROJECTS/Mol_Feturizer/New_Systems/rnas/1mwl

>  <Rbt.Executable>
rbdock ($Id: //depot/dev/client3/rdock/2013.1/src/exe/rbdock.cxx#4 $)

>  <Rbt.Library>
libRbt.so (2013.1, Build901 2013/11/27)

>  <Rbt.Parameter_File>
/export/apps/rDock/src/rDock_2013.1_src/data/scripts/dock_solv.prm

>  <Rbt.Receptor>
prm/blind_docking_80.prm

>  <SCORE>
-24.5498

>  <SCORE.INTER>
-29.391

>  <SCORE.INTER.CONST>
1

>  <SCORE.INTER.POLAR>
-5.30387

>  <SCORE.INTER.ROT>
6

>  <SCORE.INTER.SOLV>
30.3343

>  <SCORE.INTER.VDW>
-19.6259

>  <SCORE.INTER.norm>
-0.864442

>  <SCORE.INTRA>
-10.1579

>  <SCORE.INTRA.DIHEDRAL>
-18.5794

>  <SCORE.INTRA.DIHEDRAL.0>
42.0816

>  <SCORE.INTRA.POLAR>
0.121939

>  <SCORE.INTRA.POLAR.0>
-0.254682

>  <SCORE.INTRA.REPUL>
0

>  <SCORE.INTRA.REPUL.0>
0

>  <SCORE.INTRA.SOLV>
-1.55354

>  <SCORE.INTRA.SOLV.lig_0>
-109.803

>  <SCORE.INTRA.VDW>
-0.506033

>  <SCORE.INTRA.VDW.0>
0.32176

>  <SCORE.INTRA.norm>
-0.298762

>  <SCORE.RESTR>
14.9992

>  <SCORE.RESTR.CAVITY>
14.9992

>  <SCORE.RESTR.norm>
0.441152

>  <SCORE.SYSTEM>
0

>  <SCORE.SYSTEM.CONST>
0

>  <SCORE.SYSTEM.DIHEDRAL>
0

>  <SCORE.SYSTEM.SOLV>
0

>  <SCORE.SYSTEM.norm>
0

>  <SCORE.heavy>
34

>  <SCORE.norm>
-0.722052

>  <RMSD>
20.105

$$$$
1mwl
 OpenBabel11021811403D
libRbt.so/2013.1/901 2013/11/27
 34 36  0  0  0  0  0  0  0  0999 V2000
   -4.6428  -11.7539   13.1991 C   0  0  2  0  0  0  0  0  0  0  0  0
   -3.3812  -11.4643   13.7218 O   0  0  0  0  0  0  0  0  0  0  0  0
   -4.6339  -11.3345   11.7021 C   0  0  2  0  0  0  0  0  0  0  0  0
   -3.5830  -12.0587   10.9807 N   0  3  0  0  0  0  0  0  0  0  0  0
   -4.4609   -9.7934   11.5652 C   0  0  1  0  0  0  0  0  0  0  0  0
   -4.4779   -9.4167   10.2621 O   0  0  0  0  0  0  0  0  0  0  0  0
   -5.6082   -9.0897   12.3627 C   0  0  2  0  0  0  0  0  0  0  0  0
   -5.4845   -7.6565   12.2491 O   0  0  0  0  0  0  0  0  0  0  0  0
   -5.5240   -9.5504   13.8576 C   0  0  2  0  0  0  0  0  0  0  0  0
   -5.6457  -11.0221   13.9492 O   0  0  0  0  0  0  0  0  0  0  0  0
   -6.6048   -8.9605   14.7707 C   0  0  2  0  0  0  0  0  0  0  0  0
   -6.1925   -7.7195   15.2432 O   0  0  0  0  0  0  0  0  0  0  0  0
   -6.8977   -9.8197   16.0142 C   0  0  0  0  0  0  0  0  0  0  0  0
   -3.9741  -12.1445   17.8985 C   0  0  2  0  0  0  0  0  0  0  0  0
   -3.6958  -12.3100   19.3479 N   0  3  0  0  0  0  0  0  0  0  0  0
   -3.2446  -13.2424   17.0688 C   0  0  0  0  0  0  0  0  0  0  0  0
   -3.5306  -13.0474   15.5358 C   0  0  2  0  0  0  0  0  0  0  0  0
   -2.8198  -14.1291   14.7603 N   0  3  0  0  0  0  0  0  0  0  0  0
   -3.0616  -11.6172   15.0988 C   0  0  2  0  0  0  0  0  0  0  0  0
   -3.8097  -10.5497   15.9341 C   0  0  2  0  0  0  0  0  0  0  0  0
   -3.3560   -9.2721   15.5571 O   0  0  0  0  0  0  0  0  0  0  0  0
   -3.5043  -10.7464   17.4432 C   0  0  1  0  0  0  0  0  0  0  0  0
   -4.1977   -9.7566   18.1889 O   0  0  0  0  0  0  0  0  0  0  0  0
   -3.7079   -8.4441   18.1811 C   0  0  2  0  0  0  0  0  0  0  0  0
   -3.6211   -7.9747   19.6457 C   0  0  2  0  0  0  0  0  0  0  0  0
   -2.7231   -8.8103   20.3441 O   0  0  0  0  0  0  0  0  0  0  0  0
   -5.0491   -8.0315   20.2881 C   0  0  1  0  0  0  0  0  0  0  0  0
   -5.0470   -7.6212   21.7135 N   0  3  0  0  0  0  0  0  0  0  0  0
   -4.4612   -8.6858   22.5675 C   0  0  0  0  0  0  0  0  0  0  0  0
   -6.0193   -7.1129   19.4683 C   0  0  2  0  0  0  0  0  0  0  0  0
   -5.5435   -5.7541   19.4911 O   0  0  0  0  0  0  0  0  0  0  0  0
   -7.3643   -7.1149   20.0146 C   0  0  0  0  0  0  0  0  0  0  0  0
   -6.0274   -7.5454   17.9697 C   0  0  0  0  0  0  0  0  0  0  0  0
   -4.6309   -7.5810   17.4244 O   0  0  0  0  0  0  0  0  0  0  0  0
  1  2  1  1  0  0  0
  1  3  1  0  0  0  0
  1 10  1  0  0  0  0
  3  4  1  6  0  0  0
  3  5  1  0  0  0  0
  5  6  1  6  0  0  0
  5  7  1  0  0  0  0
  7  8  1  1  0  0  0
  7  9  1  0  0  0  0
  9 10  1  6  0  0  0
  9 11  1  0  0  0  0
 11 12  1  1  0  0  0
 11 13  1  0  0  0  0
 14 15  1  1  0  0  0
 14 16  1  0  0  0  0
 14 22  1  0  0  0  0
 16 17  1  0  0  0  0
 17 18  1  6  0  0  0
 17 19  1  0  0  0  0
 19  2  1  6  0  0  0
 19 20  1  0  0  0  0
 20 21  1  6  0  0  0
 20 22  1  0  0  0  0
 22 23  1  1  0  0  0
 24 23  1  1  0  0  0
 24 25  1  0  0  0  0
 24 34  1  0  0  0  0
 25 26  1  1  0  0  0
 25 27  1  0  0  0  0
 27 28  1  1  0  0  0
 27 30  1  0  0  0  0
 28 29  1  0  0  0  0
 30 31  1  1  0  0  0
 30 32  1  0  0  0  0
 30 33  1  0  0  0  0
 33 34  1  0  0  0  0
M  CHG  4   4   1  15   1  18   1  28   1
M  END
>  <CHROM.1>
174.73315069,49.59235694,-167.33694424,60.49118910,61.82199012,-85.79262447
166.99577701,62.40268894,-179.01316975,157.48913071,164.63091339,-130.20276025
61.38875747,45.68250621,60.96455154,-4.59081810,-9.71928265,16.27878196,-1.44471019
-1.08294357,1.32915105

>  <Name>
1mwl

>  <RI>
0

>  <Rbt.Current_Directory>
/home/itssahil/PROJECTS/Mol_Feturizer/New_Systems/rnas/1mwl

>  <Rbt.Executable>
rbdock ($Id: //depot/dev/client3/rdock/2013.1/src/exe/rbdock.cxx#4 $)

>  <Rbt.Library>
libRbt.so (2013.1, Build901 2013/11/27)

>  <Rbt.Parameter_File>
/export/apps/rDock/src/rDock_2013.1_src/data/scripts/dock_solv.prm

>  <Rbt.Receptor>
prm/blind_docking_80.prm

>  <SCORE>
-13.976

>  <SCORE.INTER>
-16.2806

>  <SCORE.INTER.CONST>
1

>  <SCORE.INTER.POLAR>
-4.26127

>  <SCORE.INTER.ROT>
6

>  <SCORE.INTER.SOLV>
17.6175

>  <SCORE.INTER.VDW>
-10.122

>  <SCORE.INTER.norm>
-0.478842

>  <SCORE.INTRA>
-15.9772

>  <SCORE.INTRA.DIHEDRAL>
-27.5279

>  <SCORE.INTRA.DIHEDRAL.0>
42.0816

>  <SCORE.INTRA.POLAR>
-0.879594

>  <SCORE.INTRA.POLAR.0>
-0.254682

>  <SCORE.INTRA.REPUL>
0

>  <SCORE.INTRA.REPUL.0>
0

>  <SCORE.INTRA.SOLV>
-0.15719

>  <SCORE.INTRA.SOLV.lig_0>
-109.803

>  <SCORE.INTRA.VDW>
0.855949

>  <SCORE.INTRA.VDW.0>
0.32176

>  <SCORE.INTRA.norm>
-0.469919

>  <SCORE.RESTR>
18.2818

>  <SCORE.RESTR.CAVITY>
18.2818

>  <SCORE.RESTR.norm>
0.537701

>  <SCORE.SYSTEM>
0

>  <SCORE.SYSTEM.CONST>
0

>  <SCORE.SYSTEM.DIHEDRAL>
0

>  <SCORE.SYSTEM.SOLV>
0

>  <SCORE.SYSTEM.norm>
0

>  <SCORE.heavy>
34

>  <SCORE.norm>
-0.41106

>  <RMSD>
20.111

$$$$
1mwl
 OpenBabel11021811403D
libRbt.so/2013.1/901 2013/11/27
 34 36  0  0  0  0  0  0  0  0999 V2000
   -3.8984   -9.3471   12.1470 C   0  0  2  0  0  0  0  0  0  0  0  0
   -4.5057  -10.3250   12.9366 O   0  0  0  0  0  0  0  0  0  0  0  0
   -5.0289   -8.5779   11.4074 C   0  0  2  0  0  0  0  0  0  0  0  0
   -5.9503   -7.9781   12.3774 N   0  3  0  0  0  0  0  0  0  0  0  0
   -5.7764   -9.5190   10.4179 C   0  0  1  0  0  0  0  0  0  0  0  0
   -6.7480   -8.8484    9.7499 O   0  0  0  0  0  0  0  0  0  0  0  0
   -4.7335  -10.1256    9.4219 C   0  0  2  0  0  0  0  0  0  0  0  0
   -5.3948  -10.9977    8.4815 O   0  0  0  0  0  0  0  0  0  0  0  0
   -3.6524  -10.8991   10.2506 C   0  0  2  0  0  0  0  0  0  0  0  0
   -2.9932   -9.9880   11.2121 O   0  0  0  0  0  0  0  0  0  0  0  0
   -2.5386  -11.5364    9.4119 C   0  0  2  0  0  0  0  0  0  0  0  0
   -2.4016  -10.8457    8.2130 O   0  0  0  0  0  0  0  0  0  0  0  0
   -2.8131  -13.0038    9.0353 C   0  0  0  0  0  0  0  0  0  0  0  0
   -4.7011  -10.9976   17.1519 C   0  0  2  0  0  0  0  0  0  0  0  0
   -4.2926  -11.3163   18.5437 N   0  3  0  0  0  0  0  0  0  0  0  0
   -4.4812  -12.2251   16.2187 C   0  0  0  0  0  0  0  0  0  0  0  0
   -4.8991  -11.8718   14.7454 C   0  0  2  0  0  0  0  0  0  0  0  0
   -4.6840  -13.0808   13.8687 N   0  3  0  0  0  0  0  0  0  0  0  0
   -4.0643  -10.6410   14.2508 C   0  0  2  0  0  0  0  0  0  0  0  0
   -4.3107   -9.4368   15.1922 C   0  0  2  0  0  0  0  0  0  0  0  0
   -3.5305   -8.3490   14.7584 O   0  0  0  0  0  0  0  0  0  0  0  0
   -3.8784   -9.7966   16.6389 C   0  0  1  0  0  0  0  0  0  0  0  0
   -4.1105   -8.6786   17.4832 O   0  0  0  0  0  0  0  0  0  0  0  0
   -5.2295   -7.8723   17.2376 C   0  0  2  0  0  0  0  0  0  0  0  0
   -5.1325   -6.6507   18.1710 C   0  0  2  0  0  0  0  0  0  0  0  0
   -3.9561   -5.9321   17.8673 O   0  0  0  0  0  0  0  0  0  0  0  0
   -5.1169   -7.1419   19.6587 C   0  0  1  0  0  0  0  0  0  0  0  0
   -4.9948   -6.0228   20.6246 N   0  3  0  0  0  0  0  0  0  0  0  0
   -3.6445   -5.4086   20.5516 C   0  0  0  0  0  0  0  0  0  0  0  0
   -6.4251   -7.9562   19.9459 C   0  0  2  0  0  0  0  0  0  0  0  0
   -7.5785   -7.1203   19.7352 O   0  0  0  0  0  0  0  0  0  0  0  0
   -6.4782   -8.4386   21.3140 C   0  0  0  0  0  0  0  0  0  0  0  0
   -6.5535   -9.1369   18.9347 C   0  0  0  0  0  0  0  0  0  0  0  0
   -6.4561   -8.6356   17.5248 O   0  0  0  0  0  0  0  0  0  0  0  0
  1  2  1  1  0  0  0
  1  3  1  0  0  0  0
  1 10  1  0  0  0  0
  3  4  1  1  0  0  0
  3  5  1  0  0  0  0
  5  6  1  6  0  0  0
  5  7  1  0  0  0  0
  7  8  1  6  0  0  0
  7  9  1  0  0  0  0
  9 10  1  1  0  0  0
  9 11  1  0  0  0  0
 11 12  1  6  0  0  0
 11 13  1  0  0  0  0
 14 15  1  1  0  0  0
 14 16  1  0  0  0  0
 14 22  1  0  0  0  0
 16 17  1  0  0  0  0
 17 18  1  6  0  0  0
 17 19  1  0  0  0  0
 19  2  1  6  0  0  0
 19 20  1  0  0  0  0
 20 21  1  6  0  0  0
 20 22  1  0  0  0  0
 22 23  1  1  0  0  0
 24 23  1  1  0  0  0
 24 25  1  0  0  0  0
 24 34  1  0  0  0  0
 25 26  1  6  0  0  0
 25 27  1  0  0  0  0
 27 28  1  1  0  0  0
 27 30  1  0  0  0  0
 28 29  1  0  0  0  0
 30 31  1  6  0  0  0
 30 32  1  0  0  0  0
 30 33  1  0  0  0  0
 33 34  1  0  0  0  0
M  CHG  4   4   1  15   1  18   1  28   1
M  END
>  <CHROM.1>
-139.90782827,-174.50792640,-10.85245577,-44.56472291,-57.83592341,25.23520068
173.29581048,59.00388988,54.71762074,-147.32135515,-84.68371103,-172.75869910
72.18015270,50.53454523,179.99974952,-4.74428930,-9.35877235,14.84966004
0.96796849,1.34126790,-1.30040415

>  <Name>
1mwl

>  <RI>
0

>  <Rbt.Current_Directory>
/home/itssahil/PROJECTS/Mol_Feturizer/New_Systems/rnas/1mwl

>  <Rbt.Executable>
rbdock ($Id: //depot/dev/client3/rdock/2013.1/src/exe/rbdock.cxx#4 $)

>  <Rbt.Library>
libRbt.so (2013.1, Build901 2013/11/27)

>  <Rbt.Parameter_File>
/export/apps/rDock/src/rDock_2013.1_src/data/scripts/dock_solv.prm

>  <Rbt.Receptor>
prm/blind_docking_80.prm

>  <SCORE>
-20.904

>  <SCORE.INTER>
-28.9779

>  <SCORE.INTER.CONST>
1

>  <SCORE.INTER.POLAR>
-4.92328

>  <SCORE.INTER.ROT>
6

>  <SCORE.INTER.SOLV>
26.1223

>  <SCORE.INTER.VDW>
-19.2151

>  <SCORE.INTER.norm>
-0.85229

>  <SCORE.INTRA>
-6.56204

>  <SCORE.INTRA.DIHEDRAL>
-20.5145

>  <SCORE.INTRA.DIHEDRAL.0>
42.0816

>  <SCORE.INTRA.POLAR>
0.247207

>  <SCORE.INTRA.POLAR.0>
-0.254682

>  <SCORE.INTRA.REPUL>
0

>  <SCORE.INTRA.REPUL.0>
0

>  <SCORE.INTRA.SOLV>
-0.42437

>  <SCORE.INTRA.SOLV.lig_0>
-109.803

>  <SCORE.INTRA.VDW>
3.06689

>  <SCORE.INTRA.VDW.0>
0.32176

>  <SCORE.INTRA.norm>
-0.193001

>  <SCORE.RESTR>
14.6359

>  <SCORE.RESTR.CAVITY>
14.6359

>  <SCORE.RESTR.norm>
0.430467

>  <SCORE.SYSTEM>
0

>  <SCORE.SYSTEM.CONST>
0

>  <SCORE.SYSTEM.DIHEDRAL>
0

>  <SCORE.SYSTEM.SOLV>
0

>  <SCORE.SYSTEM.norm>
0

>  <SCORE.heavy>
34

>  <SCORE.norm>
-0.614824

>  <RMSD>
20.154

$$$$
1mwl
 OpenBabel11021811403D
libRbt.so/2013.1/901 2013/11/27
 34 36  0  0  0  0  0  0  0  0999 V2000
   -4.4214   -9.0797   12.0807 C   0  0  2  0  0  0  0  0  0  0  0  0
   -4.6636  -10.2334   12.8284 O   0  0  0  0  0  0  0  0  0  0  0  0
   -5.7812   -8.6159   11.4868 C   0  0  2  0  0  0  0  0  0  0  0  0
   -6.7410   -8.3566   12.5642 N   0  3  0  0  0  0  0  0  0  0  0  0
   -6.3272   -9.6689   10.4784 C   0  0  1  0  0  0  0  0  0  0  0  0
   -7.5014   -9.2592    9.9366 O   0  0  0  0  0  0  0  0  0  0  0  0
   -5.2514   -9.8991    9.3660 C   0  0  2  0  0  0  0  0  0  0  0  0
   -5.7294  -10.8646    8.4061 O   0  0  0  0  0  0  0  0  0  0  0  0
   -3.9298  -10.3861   10.0515 C   0  0  2  0  0  0  0  0  0  0  0  0
   -3.4626   -9.3850   11.0359 O   0  0  0  0  0  0  0  0  0  0  0  0
   -2.7636  -10.6352    9.0882 C   0  0  2  0  0  0  0  0  0  0  0  0
   -2.7590   -9.6606    8.0965 O   0  0  0  0  0  0  0  0  0  0  0  0
   -2.8431  -11.9899    8.3610 C   0  0  0  0  0  0  0  0  0  0  0  0
   -4.8823  -11.1675   16.9924 C   0  0  2  0  0  0  0  0  0  0  0  0
   -4.4939  -11.3390   18.4155 N   0  3  0  0  0  0  0  0  0  0  0  0
   -4.0281  -12.0905   16.0734 C   0  0  0  0  0  0  0  0  0  0  0  0
   -4.4339  -11.8880   14.5686 C   0  0  2  0  0  0  0  0  0  0  0  0
   -3.5975  -12.8003   13.7055 N   0  3  0  0  0  0  0  0  0  0  0  0
   -4.2411  -10.3825   14.1778 C   0  0  2  0  0  0  0  0  0  0  0  0
   -5.1081   -9.4929   15.1019 C   0  0  2  0  0  0  0  0  0  0  0  0
   -4.9009   -8.1427   14.7642 O   0  0  0  0  0  0  0  0  0  0  0  0
   -4.6843   -9.6928   16.5816 C   0  0  1  0  0  0  0  0  0  0  0  0
   -5.4897   -8.8668   17.4096 O   0  0  0  0  0  0  0  0  0  0  0  0
   -5.2898   -7.4807   17.3732 C   0  0  2  0  0  0  0  0  0  0  0  0
   -3.9991   -7.1793   18.1582 C   0  0  2  0  0  0  0  0  0  0  0  0
   -2.9157   -7.8300   17.5294 O   0  0  0  0  0  0  0  0  0  0  0  0
   -4.1679   -7.6781   19.6339 C   0  0  1  0  0  0  0  0  0  0  0  0
   -2.9521   -7.4507   20.4525 N   0  3  0  0  0  0  0  0  0  0  0  0
   -2.8397   -8.4725   21.5245 C   0  0  0  0  0  0  0  0  0  0  0  0
   -5.3951   -6.9524   20.2855 C   0  0  2  0  0  0  0  0  0  0  0  0
   -5.1773   -5.5290   20.2886 O   0  0  0  0  0  0  0  0  0  0  0  0
   -5.6063   -7.3659   21.6609 C   0  0  0  0  0  0  0  0  0  0  0  0
   -6.6764   -7.1941   19.4293 C   0  0  0  0  0  0  0  0  0  0  0  0
   -6.4370   -6.8034   18.0014 O   0  0  0  0  0  0  0  0  0  0  0  0
  1  2  1  6  0  0  0
  1  3  1  0  0  0  0
  1 10  1  0  0  0  0
  3  4  1  1  0  0  0
  3  5  1  0  0  0  0
  5  6  1  6  0  0  0
  5  7  1  0  0  0  0
  7  8  1  6  0  0  0
  7  9  1  0  0  0  0
  9 10  1  1  0  0  0
  9 11  1  0  0  0  0
 11 12  1  6  0  0  0
 11 13  1  0  0  0  0
 14 15  1  1  0  0  0
 14 16  1  0  0  0  0
 14 22  1  0  0  0  0
 16 17  1  0  0  0  0
 17 18  1  6  0  0  0
 17 19  1  0  0  0  0
 19  2  1  6  0  0  0
 19 20  1  0  0  0  0
 20 21  1  6  0  0  0
 20 22  1  0  0  0  0
 22 23  1  1  0  0  0
 24 23  1  1  0  0  0
 24 25  1  0  0  0  0
 24 34  1  0  0  0  0
 25 26  1  6  0  0  0
 25 27  1  0  0  0  0
 27 28  1  1  0  0  0
 27 30  1  0  0  0  0
 28 29  1  0  0  0  0
 30 31  1  1  0  0  0
 30 32  1  0  0  0  0
 30 33  1  0  0  0  0
 33 34  1  0  0  0  0
M  CHG  4   4   1  15   1  18   1  28   1
M  END
>  <CHROM.1>
-127.81654315,-168.78363569,-66.17535130,46.72668447,174.74733272,38.69650239
179.27785646,-59.02679888,52.57892853,159.49140588,168.81045504,-75.61565426
-79.83185183,-30.91763701,57.00493695,-4.68708526,-9.22074848,14.85667807
1.54372107,0.94639749,-1.80735328

>  <Name>
1mwl

>  <RI>
0

>  <Rbt.Current_Directory>
/home/itssahil/PROJECTS/Mol_Feturizer/New_Systems/rnas/1mwl

>  <Rbt.Executable>
rbdock ($Id: //depot/dev/client3/rdock/2013.1/src/exe/rbdock.cxx#4 $)

>  <Rbt.Library>
libRbt.so (2013.1, Build901 2013/11/27)

>  <Rbt.Parameter_File>
/export/apps/rDock/src/rDock_2013.1_src/data/scripts/dock_solv.prm

>  <Rbt.Receptor>
prm/blind_docking_80.prm

>  <SCORE>
-23.577

>  <SCORE.INTER>
-29.9931

>  <SCORE.INTER.CONST>
1

>  <SCORE.INTER.POLAR>
-5.0785

>  <SCORE.INTER.ROT>
6

>  <SCORE.INTER.SOLV>
26.5876

>  <SCORE.INTER.VDW>
-19.5296

>  <SCORE.INTER.norm>
-0.882151

>  <SCORE.INTRA>
-10.622

>  <SCORE.INTRA.DIHEDRAL>
-24.6984

>  <SCORE.INTRA.DIHEDRAL.0>
42.0816

>  <SCORE.INTRA.POLAR>
0.108141

>  <SCORE.INTRA.POLAR.0>
-0.254682

>  <SCORE.INTRA.REPUL>
0

>  <SCORE.INTRA.REPUL.0>
0

>  <SCORE.INTRA.SOLV>
0.949214

>  <SCORE.INTRA.SOLV.lig_0>
-109.803

>  <SCORE.INTRA.VDW>
0.884937

>  <SCORE.INTRA.VDW.0>
0.32176

>  <SCORE.INTRA.norm>
-0.31241

>  <SCORE.RESTR>
17.0381

>  <SCORE.RESTR.CAVITY>
17.0381

>  <SCORE.RESTR.norm>
0.50112

>  <SCORE.SYSTEM>
0

>  <SCORE.SYSTEM.CONST>
0

>  <SCORE.SYSTEM.DIHEDRAL>
0

>  <SCORE.SYSTEM.SOLV>
0

>  <SCORE.SYSTEM.norm>
0

>  <SCORE.heavy>
34

>  <SCORE.norm>
-0.693442

>  <RMSD>
20.164

$$$$
1mwl
 OpenBabel11021811403D
libRbt.so/2013.1/901 2013/11/27
 34 36  0  0  0  0  0  0  0  0999 V2000
   -3.8674   -9.2990   12.2417 C   0  0  2  0  0  0  0  0  0  0  0  0
   -4.3324  -10.2800   13.1192 O   0  0  0  0  0  0  0  0  0  0  0  0
   -5.1099   -8.6418   11.5775 C   0  0  2  0  0  0  0  0  0  0  0  0
   -5.9843   -8.0637   12.6026 N   0  3  0  0  0  0  0  0  0  0  0  0
   -5.8711   -9.6744   10.6955 C   0  0  1  0  0  0  0  0  0  0  0  0
   -6.9424   -9.1015   10.0921 O   0  0  0  0  0  0  0  0  0  0  0  0
   -4.8777  -10.2521    9.6340 C   0  0  2  0  0  0  0  0  0  0  0  0
   -5.5539  -11.2079    8.7905 O   0  0  0  0  0  0  0  0  0  0  0  0
   -3.6762  -10.9131   10.3913 C   0  0  2  0  0  0  0  0  0  0  0  0
   -3.0031   -9.9176   11.2546 O   0  0  0  0  0  0  0  0  0  0  0  0
   -2.5966  -11.5097    9.4812 C   0  0  2  0  0  0  0  0  0  0  0  0
   -2.4219  -10.6969    8.3667 O   0  0  0  0  0  0  0  0  0  0  0  0
   -2.9476  -12.9090    8.9435 C   0  0  0  0  0  0  0  0  0  0  0  0
   -4.0978  -11.0468   17.3164 C   0  0  2  0  0  0  0  0  0  0  0  0
   -3.5386  -11.2952   18.6695 N   0  3  0  0  0  0  0  0  0  0  0  0
   -3.6910  -12.1856   16.3348 C   0  0  0  0  0  0  0  0  0  0  0  0
   -4.2720  -11.9039   14.9020 C   0  0  2  0  0  0  0  0  0  0  0  0
   -3.8700  -13.0267   13.9776 N   0  3  0  0  0  0  0  0  0  0  0  0
   -3.7470  -10.5177   14.3930 C   0  0  2  0  0  0  0  0  0  0  0  0
   -4.1742   -9.4072   15.3837 C   0  0  2  0  0  0  0  0  0  0  0  0
   -3.6686   -8.1732   14.9345 O   0  0  0  0  0  0  0  0  0  0  0  0
   -3.5796   -9.6918   16.7889 C   0  0  1  0  0  0  0  0  0  0  0  0
   -3.9815   -8.6611   17.6793 O   0  0  0  0  0  0  0  0  0  0  0  0
   -5.1308   -7.9205   17.3743 C   0  0  2  0  0  0  0  0  0  0  0  0
   -5.0897   -6.6342   18.2209 C   0  0  2  0  0  0  0  0  0  0  0  0
   -3.9416   -5.8906   17.8722 O   0  0  0  0  0  0  0  0  0  0  0  0
   -5.0635   -7.0201   19.7392 C   0  0  1  0  0  0  0  0  0  0  0  0
   -4.9933   -5.8327   20.6254 N   0  3  0  0  0  0  0  0  0  0  0  0
   -3.9838   -6.0333   21.6963 C   0  0  0  0  0  0  0  0  0  0  0  0
   -6.3393   -7.8656   20.0776 C   0  0  2  0  0  0  0  0  0  0  0  0
   -7.5245   -7.0945   19.8053 O   0  0  0  0  0  0  0  0  0  0  0  0
   -6.3815   -8.2539   21.4758 C   0  0  0  0  0  0  0  0  0  0  0  0
   -6.4130   -9.1178   19.1505 C   0  0  0  0  0  0  0  0  0  0  0  0
   -6.3271   -8.7118   17.7094 O   0  0  0  0  0  0  0  0  0  0  0  0
  1  2  1  1  0  0  0
  1  3  1  0  0  0  0
  1 10  1  0  0  0  0
  3  4  1  1  0  0  0
  3  5  1  0  0  0  0
  5  6  1  6  0  0  0
  5  7  1  0  0  0  0
  7  8  1  1  0  0  0
  7  9  1  0  0  0  0
  9 10  1  6  0  0  0
  9 11  1  0  0  0  0
 11 12  1  6  0  0  0
 11 13  1  0  0  0  0
 14 15  1  1  0  0  0
 14 16  1  0  0  0  0
 14 22  1  0  0  0  0
 16 17  1  0  0  0  0
 17 18  1  6  0  0  0
 17 19  1  0  0  0  0
 19  2  1  6  0  0  0
 19 20  1  0  0  0  0
 20 21  1  6  0  0  0
 20 22  1  0  0  0  0
 22 23  1  1  0  0  0
 24 23  1  1  0  0  0
 24 25  1  0  0  0  0
 24 34  1  0  0  0  0
 25 26  1  6  0  0  0
 25 27  1  0  0  0  0
 27 28  1  1  0  0  0
 27 30  1  0  0  0  0
 28 29  1  0  0  0  0
 30 31  1  6  0  0  0
 30 32  1  0  0  0  0
 30 33  1  0  0  0  0
 33 34  1  0  0  0  0
M  CHG  4   4   1  15   1  18   1  28   1
M  END
>  <CHROM.1>
-140.69553006,-165.15193992,-20.65245472,-175.04523651,172.71074102,37.54933569
176.14886278,-166.50274081,162.86273261,-70.39845376,-97.33699425,-162.69788068
70.76498831,-14.69240877,-77.27804367,-4.62388316,-9.35979581,15.01531109
1.31318688,1.09605265,-1.66579224

>  <Name>
1mwl

>  <RI>
0

>  <Rbt.Current_Directory>
/home/itssahil/PROJECTS/Mol_Feturizer/New_Systems/rnas/1mwl

>  <Rbt.Executable>
rbdock ($Id: //depot/dev/client3/rdock/2013.1/src/exe/rbdock.cxx#4 $)

>  <Rbt.Library>
libRbt.so (2013.1, Build901 2013/11/27)

>  <Rbt.Parameter_File>
/export/apps/rDock/src/rDock_2013.1_src/data/scripts/dock_solv.prm

>  <Rbt.Receptor>
prm/blind_docking_80.prm

>  <SCORE>
-23.009

>  <SCORE.INTER>
-29.5202

>  <SCORE.INTER.CONST>
1

>  <SCORE.INTER.POLAR>
-5.69801

>  <SCORE.INTER.ROT>
6

>  <SCORE.INTER.SOLV>
29.4535

>  <SCORE.INTER.VDW>
-18.1046

>  <SCORE.INTER.norm>
-0.868241

>  <SCORE.INTRA>
-8.61438

>  <SCORE.INTRA.DIHEDRAL>
-18.1731

>  <SCORE.INTRA.DIHEDRAL.0>
42.0816

>  <SCORE.INTRA.POLAR>
0.210865

>  <SCORE.INTRA.POLAR.0>
-0.254682

>  <SCORE.INTRA.REPUL>
0

>  <SCORE.INTRA.REPUL.0>
0

>  <SCORE.INTRA.SOLV>
-1.01362

>  <SCORE.INTRA.SOLV.lig_0>
-109.803

>  <SCORE.INTRA.VDW>
0.262034

>  <SCORE.INTRA.VDW.0>
0.32176

>  <SCORE.INTRA.norm>
-0.253364

>  <SCORE.RESTR>
15.1256

>  <SCORE.RESTR.CAVITY>
15.1256

>  <SCORE.RESTR.norm>
0.444872

>  <SCORE.SYSTEM>
0

>  <SCORE.SYSTEM.CONST>
0

>  <SCORE.SYSTEM.DIHEDRAL>
0

>  <SCORE.SYSTEM.SOLV>
0

>  <SCORE.SYSTEM.norm>
0

>  <SCORE.heavy>
34

>  <SCORE.norm>
-0.676734

>  <RMSD>
20.171

$$$$
1mwl
 OpenBabel11021811403D
libRbt.so/2013.1/901 2013/11/27
 34 36  0  0  0  0  0  0  0  0999 V2000
   -3.7365   -9.8416   15.1679 C   0  0  2  0  0  0  0  0  0  0  0  0
   -4.9663   -9.8567   14.5076 O   0  0  0  0  0  0  0  0  0  0  0  0
   -3.7088  -11.0640   16.1281 C   0  0  2  0  0  0  0  0  0  0  0  0
   -3.8875  -12.3062   15.3700 N   0  3  0  0  0  0  0  0  0  0  0  0
   -4.7893  -10.9139   17.2388 C   0  0  1  0  0  0  0  0  0  0  0  0
   -4.7542  -11.9648   18.0958 O   0  0  0  0  0  0  0  0  0  0  0  0
   -4.5411   -9.5686   17.9977 C   0  0  2  0  0  0  0  0  0  0  0  0
   -5.5210   -9.4010   19.0436 O   0  0  0  0  0  0  0  0  0  0  0  0
   -4.6117   -8.3969   16.9603 C   0  0  2  0  0  0  0  0  0  0  0  0
   -3.6043   -8.5932   15.8945 O   0  0  0  0  0  0  0  0  0  0  0  0
   -4.3639   -7.0040   17.5505 C   0  0  2  0  0  0  0  0  0  0  0  0
   -3.4238   -7.0884   18.5715 O   0  0  0  0  0  0  0  0  0  0  0  0
   -5.6194   -6.3655   18.1722 C   0  0  0  0  0  0  0  0  0  0  0  0
   -6.3634   -9.2702   10.5121 C   0  0  2  0  0  0  0  0  0  0  0  0
   -6.6140   -8.6421    9.1900 N   0  3  0  0  0  0  0  0  0  0  0  0
   -7.0165   -8.4335   11.6520 C   0  0  0  0  0  0  0  0  0  0  0  0
   -6.7299   -9.0965   13.0479 C   0  0  2  0  0  0  0  0  0  0  0  0
   -7.3818   -8.2702   14.1291 N   0  3  0  0  0  0  0  0  0  0  0  0
   -5.1812   -9.2103   13.2595 C   0  0  2  0  0  0  0  0  0  0  0  0
   -4.5635  -10.0534   12.1172 C   0  0  2  0  0  0  0  0  0  0  0  0
   -3.1697  -10.1200   12.2991 O   0  0  0  0  0  0  0  0  0  0  0  0
   -4.8417   -9.3773   10.7480 C   0  0  1  0  0  0  0  0  0  0  0  0
   -4.2650  -10.1650    9.7169 O   0  0  0  0  0  0  0  0  0  0  0  0
   -2.8842  -10.4007    9.7442 C   0  0  2  0  0  0  0  0  0  0  0  0
   -2.3709  -10.3074    8.2949 C   0  0  2  0  0  0  0  0  0  0  0  0
   -2.6191   -9.0082    7.8018 O   0  0  0  0  0  0  0  0  0  0  0  0
   -3.1015  -11.3837    7.4215 C   0  0  1  0  0  0  0  0  0  0  0  0
   -2.6830  -11.3398    5.9992 N   0  3  0  0  0  0  0  0  0  0  0  0
   -3.2246  -10.1308    5.3275 C   0  0  0  0  0  0  0  0  0  0  0  0
   -2.8225  -12.8063    8.0176 C   0  0  2  0  0  0  0  0  0  0  0  0
   -1.4072  -13.0716    8.0102 O   0  0  0  0  0  0  0  0  0  0  0  0
   -3.4685  -13.8557    7.2503 C   0  0  0  0  0  0  0  0  0  0  0  0
   -3.2663  -12.8569    9.5121 C   0  0  0  0  0  0  0  0  0  0  0  0
   -2.6273  -11.7448   10.2891 O   0  0  0  0  0  0  0  0  0  0  0  0
  1  2  1  1  0  0  0
  1  3  1  0  0  0  0
  1 10  1  0  0  0  0
  3  4  1  6  0  0  0
  3  5  1  0  0  0  0
  5  6  1  1  0  0  0
  5  7  1  0  0  0  0
  7  8  1  1  0  0  0
  7  9  1  0  0  0  0
  9 10  1  6  0  0  0
  9 11  1  0  0  0  0
 11 12  1  1  0  0  0
 11 13  1  0  0  0  0
 14 15  1  6  0  0  0
 14 16  1  0  0  0  0
 14 22  1  0  0  0  0
 16 17  1  0  0  0  0
 17 18  1  1  0  0  0
 17 19  1  0  0  0  0
 19  2  1  1  0  0  0
 19 20  1  0  0  0  0
 20 21  1  1  0  0  0
 20 22  1  0  0  0  0
 22 23  1  6  0  0  0
 24 23  1  6  0  0  0
 24 25  1  0  0  0  0
 24 34  1  0  0  0  0
 25 26  1  6  0  0  0
 25 27  1  0  0  0  0
 27 28  1  6  0  0  0
 27 30  1  0  0  0  0
 28 29  1  0  0  0  0
 30 31  1  6  0  0  0
 30 32  1  0  0  0  0
 30 33  1  0  0  0  0
 33 34  1  0  0  0  0
M  CHG  4   4   1  15   1  18   1  28   1
M  END
>  <CHROM.1>
-157.42724172,-164.15793855,-161.19443390,66.14990763,-53.69714617,34.78769937
39.11761227,-20.10506462,57.66933521,96.57390862,-179.45921224,-139.98550366
-73.24512397,48.41300279,-23.34072403,-4.23034420,-10.06038760,12.51462896
-1.86150627,0.96410687,-1.56544182

>  <Name>
1mwl

>  <RI>
0

>  <Rbt.Current_Directory>
/home/itssahil/PROJECTS/Mol_Feturizer/New_Systems/rnas/1mwl

>  <Rbt.Executable>
rbdock ($Id: //depot/dev/client3/rdock/2013.1/src/exe/rbdock.cxx#4 $)

>  <Rbt.Library>
libRbt.so (2013.1, Build901 2013/11/27)

>  <Rbt.Parameter_File>
/export/apps/rDock/src/rDock_2013.1_src/data/scripts/dock_solv.prm

>  <Rbt.Receptor>
prm/blind_docking_60.prm

>  <SCORE>
-9.16148

>  <SCORE.INTER>
-23.5708

>  <SCORE.INTER.CONST>
1

>  <SCORE.INTER.POLAR>
-4.5904

>  <SCORE.INTER.ROT>
6

>  <SCORE.INTER.SOLV>
29.4525

>  <SCORE.INTER.VDW>
-17.83

>  <SCORE.INTER.norm>
-0.693258

>  <SCORE.INTRA>
-7.33894

>  <SCORE.INTRA.DIHEDRAL>
-14.4183

>  <SCORE.INTRA.DIHEDRAL.0>
42.0816

>  <SCORE.INTRA.POLAR>
0.192494

>  <SCORE.INTRA.POLAR.0>
-0.254682

>  <SCORE.INTRA.REPUL>
0.0201921

>  <SCORE.INTRA.REPUL.0>
0

>  <SCORE.INTRA.SOLV>
-2.03566

>  <SCORE.INTRA.SOLV.lig_0>
-109.803

>  <SCORE.INTRA.VDW>
0.132606

>  <SCORE.INTRA.VDW.0>
0.32176

>  <SCORE.INTRA.norm>
-0.215851

>  <SCORE.RESTR>
21.7482

>  <SCORE.RESTR.CAVITY>
21.7482

>  <SCORE.RESTR.norm>
0.639654

>  <SCORE.SYSTEM>
0

>  <SCORE.SYSTEM.CONST>
0

>  <SCORE.SYSTEM.DIHEDRAL>
0

>  <SCORE.SYSTEM.SOLV>
0

>  <SCORE.SYSTEM.norm>
0

>  <SCORE.heavy>
34

>  <SCORE.norm>
-0.269455

>  <RMSD>
20.371

$$$$
1mwl
 OpenBabel11021811403D
libRbt.so/2013.1/901 2013/11/27
 34 36  0  0  0  0  0  0  0  0999 V2000
   -5.8409   -9.7743   14.4642 C   0  0  2  0  0  0  0  0  0  0  0  0
   -5.0742   -9.3464   13.3789 O   0  0  0  0  0  0  0  0  0  0  0  0
   -6.3905   -8.5055   15.1748 C   0  0  2  0  0  0  0  0  0  0  0  0
   -7.1931   -7.7106   14.2402 N   0  3  0  0  0  0  0  0  0  0  0  0
   -5.2262   -7.6683   15.7808 C   0  0  1  0  0  0  0  0  0  0  0  0
   -5.7000   -6.5725   16.4249 O   0  0  0  0  0  0  0  0  0  0  0  0
   -4.4126   -8.5796   16.7581 C   0  0  2  0  0  0  0  0  0  0  0  0
   -3.3285   -7.8313   17.3473 O   0  0  0  0  0  0  0  0  0  0  0  0
   -3.8796   -9.8133   15.9533 C   0  0  2  0  0  0  0  0  0  0  0  0
   -5.0067  -10.5607   15.3528 O   0  0  0  0  0  0  0  0  0  0  0  0
   -3.0753  -10.8200   16.7838 C   0  0  2  0  0  0  0  0  0  0  0  0
   -2.6533  -11.8664   15.9712 O   0  0  0  0  0  0  0  0  0  0  0  0
   -3.8829  -11.4608   17.9273 C   0  0  0  0  0  0  0  0  0  0  0  0
   -3.1738  -10.8829    9.8737 C   0  0  2  0  0  0  0  0  0  0  0  0
   -2.9291  -11.6750    8.6415 N   0  3  0  0  0  0  0  0  0  0  0  0
   -3.3023  -11.8179   11.1128 C   0  0  0  0  0  0  0  0  0  0  0  0
   -3.5793  -10.9717   12.4079 C   0  0  2  0  0  0  0  0  0  0  0  0
   -3.6894  -11.9023   13.5905 N   0  3  0  0  0  0  0  0  0  0  0  0
   -4.8869  -10.1310   12.2080 C   0  0  2  0  0  0  0  0  0  0  0  0
   -4.7248   -9.2072   10.9762 C   0  0  2  0  0  0  0  0  0  0  0  0
   -5.9163   -8.4830   10.7866 O   0  0  0  0  0  0  0  0  0  0  0  0
   -4.4677  -10.0586    9.7040 C   0  0  1  0  0  0  0  0  0  0  0  0
   -4.3249   -9.1923    8.5880 O   0  0  0  0  0  0  0  0  0  0  0  0
   -5.3316   -9.1804    7.6138 C   0  0  2  0  0  0  0  0  0  0  0  0
   -4.8573  -10.0692    6.4485 C   0  0  2  0  0  0  0  0  0  0  0  0
   -4.6719  -11.3865    6.9208 O   0  0  0  0  0  0  0  0  0  0  0  0
   -3.5199   -9.4903    5.8731 C   0  0  1  0  0  0  0  0  0  0  0  0
   -2.9787  -10.3095    4.7614 N   0  3  0  0  0  0  0  0  0  0  0  0
   -2.1361  -11.4156    5.2835 C   0  0  0  0  0  0  0  0  0  0  0  0
   -3.7627   -8.0205    5.3856 C   0  0  2  0  0  0  0  0  0  0  0  0
   -4.7675   -8.0061    4.3543 O   0  0  0  0  0  0  0  0  0  0  0  0
   -2.5603   -7.4231    4.8336 C   0  0  0  0  0  0  0  0  0  0  0  0
   -4.3272   -7.1552    6.5544 C   0  0  0  0  0  0  0  0  0  0  0  0
   -5.5449   -7.8000    7.1463 O   0  0  0  0  0  0  0  0  0  0  0  0
  1  2  1  6  0  0  0
  1  3  1  0  0  0  0
  1 10  1  0  0  0  0
  3  4  1  6  0  0  0
  3  5  1  0  0  0  0
  5  6  1  1  0  0  0
  5  7  1  0  0  0  0
  7  8  1  6  0  0  0
  7  9  1  0  0  0  0
  9 10  1  1  0  0  0
  9 11  1  0  0  0  0
 11 12  1  6  0  0  0
 11 13  1  0  0  0  0
 14 15  1  6  0  0  0
 14 16  1  0  0  0  0
 14 22  1  0  0  0  0
 16 17  1  0  0  0  0
 17 18  1  1  0  0  0
 17 19  1  0  0  0  0
 19  2  1  1  0  0  0
 19 20  1  0  0  0  0
 20 21  1  6  0  0  0
 20 22  1  0  0  0  0
 22 23  1  6  0  0  0
 24 23  1  1  0  0  0
 24 25  1  0  0  0  0
 24 34  1  0  0  0  0
 25 26  1  1  0  0  0
 25 27  1  0  0  0  0
 27 28  1  6  0  0  0
 27 30  1  0  0  0  0
 28 29  1  0  0  0  0
 30 31  1  6  0  0  0
 30 32  1  0  0  0  0
 30 33  1  0  0  0  0
 33 34  1  0  0  0  0
M  CHG  4   4   1  15   1  18   1  28   1
M  END
>  <CHROM.1>
-152.53316596,-92.22848876,-78.55928244,-144.32317389,-60.69061868,-179.91446610
172.12866938,-156.97633180,102.91838966,60.25935800,129.39053300,-98.91171260
62.97727624,33.70029545,175.66267202,-4.33122103,-9.55992665,11.13955095
1.69314926,-1.04051753,1.69460686

>  <Name>
1mwl

>  <RI>
0

>  <Rbt.Current_Directory>
/home/itssahil/PROJECTS/Mol_Feturizer/New_Systems/rnas/1mwl

>  <Rbt.Executable>
rbdock ($Id: //depot/dev/client3/rdock/2013.1/src/exe/rbdock.cxx#4 $)

>  <Rbt.Library>
libRbt.so (2013.1, Build901 2013/11/27)

>  <Rbt.Parameter_File>
/export/apps/rDock/src/rDock_2013.1_src/data/scripts/dock_solv.prm

>  <Rbt.Receptor>
prm/blind_docking_60.prm

>  <SCORE>
-11.1228

>  <SCORE.INTER>
-19.5379

>  <SCORE.INTER.CONST>
1

>  <SCORE.INTER.POLAR>
-4.73325

>  <SCORE.INTER.ROT>
6

>  <SCORE.INTER.SOLV>
28.6411

>  <SCORE.INTER.VDW>
-14.3948

>  <SCORE.INTER.norm>
-0.574644

>  <SCORE.INTRA>
-9.10461

>  <SCORE.INTRA.DIHEDRAL>
-11.5043

>  <SCORE.INTRA.DIHEDRAL.0>
42.0816

>  <SCORE.INTRA.POLAR>
-1.92986

>  <SCORE.INTRA.POLAR.0>
-0.254682

>  <SCORE.INTRA.REPUL>
0

>  <SCORE.INTRA.REPUL.0>
0

>  <SCORE.INTRA.SOLV>
8.95185

>  <SCORE.INTRA.SOLV.lig_0>
-109.803

>  <SCORE.INTRA.VDW>
-1.26685

>  <SCORE.INTRA.VDW.0>
0.32176

>  <SCORE.INTRA.norm>
-0.267783

>  <SCORE.RESTR>
17.5197

>  <SCORE.RESTR.CAVITY>
17.5197

>  <SCORE.RESTR.norm>
0.515285

>  <SCORE.SYSTEM>
0

>  <SCORE.SYSTEM.CONST>
0

>  <SCORE.SYSTEM.DIHEDRAL>
0

>  <SCORE.SYSTEM.SOLV>
0

>  <SCORE.SYSTEM.norm>
0

>  <SCORE.heavy>
34

>  <SCORE.norm>
-0.327141

>  <RMSD>
20.488

$$$$
1mwl
 OpenBabel11021811403D
libRbt.so/2013.1/901 2013/11/27
 34 36  0  0  0  0  0  0  0  0999 V2000
   -5.2382  -10.4515   14.1889 C   0  0  2  0  0  0  0  0  0  0  0  0
   -4.5018  -10.0395   13.0769 O   0  0  0  0  0  0  0  0  0  0  0  0
   -6.5981   -9.6990   14.1515 C   0  0  2  0  0  0  0  0  0  0  0  0
   -7.3083  -10.0006   12.9049 N   0  3  0  0  0  0  0  0  0  0  0  0
   -6.3826   -8.1673   14.3283 C   0  0  1  0  0  0  0  0  0  0  0  0
   -7.5672   -7.5064   14.3222 O   0  0  0  0  0  0  0  0  0  0  0  0
   -5.6159   -7.9229   15.6699 C   0  0  2  0  0  0  0  0  0  0  0  0
   -5.4072   -6.5094   15.8714 O   0  0  0  0  0  0  0  0  0  0  0  0
   -4.2543   -8.6948   15.6074 C   0  0  2  0  0  0  0  0  0  0  0  0
   -4.4922  -10.1394   15.3931 O   0  0  0  0  0  0  0  0  0  0  0  0
   -3.3907   -8.5720   16.8680 C   0  0  2  0  0  0  0  0  0  0  0  0
   -2.5131   -9.6480   16.9411 O   0  0  0  0  0  0  0  0  0  0  0  0
   -4.2029   -8.5885   18.1758 C   0  0  0  0  0  0  0  0  0  0  0  0
   -3.2951  -11.3854    9.2050 C   0  0  2  0  0  0  0  0  0  0  0  0
   -3.3274  -12.0414    7.8730 N   0  3  0  0  0  0  0  0  0  0  0  0
   -3.4348  -12.4406   10.3420 C   0  0  0  0  0  0  0  0  0  0  0  0
   -3.4181  -11.7347   11.7461 C   0  0  2  0  0  0  0  0  0  0  0  0
   -3.5455  -12.7812   12.8256 N   0  3  0  0  0  0  0  0  0  0  0  0
   -4.5821  -10.6874   11.8137 C   0  0  2  0  0  0  0  0  0  0  0  0
   -4.4104   -9.6490   10.6782 C   0  0  2  0  0  0  0  0  0  0  0  0
   -5.4789   -8.7347   10.7280 O   0  0  0  0  0  0  0  0  0  0  0  0
   -4.4450  -10.3600    9.2988 C   0  0  1  0  0  0  0  0  0  0  0  0
   -4.2886   -9.3899    8.2737 O   0  0  0  0  0  0  0  0  0  0  0  0
   -5.3474   -9.1796    7.3808 C   0  0  2  0  0  0  0  0  0  0  0  0
   -5.0451   -9.9906    6.1065 C   0  0  2  0  0  0  0  0  0  0  0  0
   -4.9725  -11.3604    6.4396 O   0  0  0  0  0  0  0  0  0  0  0  0
   -3.6922   -9.4944    5.4915 C   0  0  1  0  0  0  0  0  0  0  0  0
   -3.3127  -10.2486    4.2719 N   0  3  0  0  0  0  0  0  0  0  0  0
   -1.8742  -10.6169    4.3063 C   0  0  0  0  0  0  0  0  0  0  0  0
   -3.8064   -7.9663    5.1616 C   0  0  2  0  0  0  0  0  0  0  0  0
   -4.8666   -7.7480    4.2120 O   0  0  0  0  0  0  0  0  0  0  0  0
   -2.5840   -7.4405    4.5814 C   0  0  0  0  0  0  0  0  0  0  0  0
   -4.2004   -7.1699    6.4437 C   0  0  0  0  0  0  0  0  0  0  0  0
   -5.4406   -7.7450    7.0603 O   0  0  0  0  0  0  0  0  0  0  0  0
  1  2  1  6  0  0  0
  1  3  1  0  0  0  0
  1 10  1  0  0  0  0
  3  4  1  6  0  0  0
  3  5  1  0  0  0  0
  5  6  1  1  0  0  0
  5  7  1  0  0  0  0
  7  8  1  6  0  0  0
  7  9  1  0  0  0  0
  9 10  1  1  0  0  0
  9 11  1  0  0  0  0
 11 12  1  1  0  0  0
 11 13  1  0  0  0  0
 14 15  1  6  0  0  0
 14 16  1  0  0  0  0
 14 22  1  0  0  0  0
 16 17  1  0  0  0  0
 17 18  1  1  0  0  0
 17 19  1  0  0  0  0
 19  2  1  1  0  0  0
 19 20  1  0  0  0  0
 20 21  1  6  0  0  0
 20 22  1  0  0  0  0
 22 23  1  6  0  0  0
 24 23  1  1  0  0  0
 24 25  1  0  0  0  0
 24 34  1  0  0  0  0
 25 26  1  1  0  0  0
 25 27  1  0  0  0  0
 27 28  1  6  0  0  0
 27 30  1  0  0  0  0
 28 29  1  0  0  0  0
 30 31  1  6  0  0  0
 30 32  1  0  0  0  0
 30 33  1  0  0  0  0
 33 34  1  0  0  0  0
M  CHG  4   4   1  15   1  18   1  28   1
M  END
>  <CHROM.1>
-89.07541391,-94.68626700,-71.18391082,64.07285850,-177.91965353,156.94885869
-49.09812780,79.76562742,171.48618064,108.61814782,124.27027004,-97.91836055
171.82223623,-15.19705426,177.51314949,-4.51111247,-9.53558444,10.63946862
-1.78685951,1.08813259,-1.41434147

>  <Name>
1mwl

>  <RI>
0

>  <Rbt.Current_Directory>
/home/itssahil/PROJECTS/Mol_Feturizer/New_Systems/rnas/1mwl

>  <Rbt.Executable>
rbdock ($Id: //depot/dev/client3/rdock/2013.1/src/exe/rbdock.cxx#4 $)

>  <Rbt.Library>
libRbt.so (2013.1, Build901 2013/11/27)

>  <Rbt.Parameter_File>
/export/apps/rDock/src/rDock_2013.1_src/data/scripts/dock_solv.prm

>  <Rbt.Receptor>
prm/blind_docking_60.prm

>  <SCORE>
0.606257

>  <SCORE.INTER>
-8.97801

>  <SCORE.INTER.CONST>
1

>  <SCORE.INTER.POLAR>
-2.31821

>  <SCORE.INTER.ROT>
6

>  <SCORE.INTER.SOLV>
19.8898

>  <SCORE.INTER.VDW>
-12.4879

>  <SCORE.INTER.norm>
-0.264059

>  <SCORE.INTRA>
-6.84794

>  <SCORE.INTRA.DIHEDRAL>
-8.25805

>  <SCORE.INTRA.DIHEDRAL.0>
42.0816

>  <SCORE.INTRA.POLAR>
-1.42733

>  <SCORE.INTRA.POLAR.0>
-0.254682

>  <SCORE.INTRA.REPUL>
0

>  <SCORE.INTRA.REPUL.0>
0

>  <SCORE.INTRA.SOLV>
5.32497

>  <SCORE.INTRA.SOLV.lig_0>
-109.803

>  <SCORE.INTRA.VDW>
-0.528459

>  <SCORE.INTRA.VDW.0>
0.32176

>  <SCORE.INTRA.norm>
-0.20141

>  <SCORE.RESTR>
16.4322

>  <SCORE.RESTR.CAVITY>
16.4322

>  <SCORE.RESTR.norm>
0.4833

>  <SCORE.SYSTEM>
0

>  <SCORE.SYSTEM.CONST>
0

>  <SCORE.SYSTEM.DIHEDRAL>
0

>  <SCORE.SYSTEM.SOLV>
0

>  <SCORE.SYSTEM.norm>
0

>  <SCORE.heavy>
34

>  <SCORE.norm>
0.0178311

>  <RMSD>
20.627

$$$$
1mwl
 OpenBabel11021811403D
libRbt.so/2013.1/901 2013/11/27
 34 36  0  0  0  0  0  0  0  0999 V2000
   -4.5435  -10.3356    8.3277 C   0  0  2  0  0  0  0  0  0  0  0  0
   -4.3192   -9.5576    9.4648 O   0  0  0  0  0  0  0  0  0  0  0  0
   -3.1635  -10.5915    7.6592 C   0  0  2  0  0  0  0  0  0  0  0  0
   -2.2658  -11.2719    8.5976 N   0  3  0  0  0  0  0  0  0  0  0  0
   -2.5466   -9.2574    7.1462 C   0  0  1  0  0  0  0  0  0  0  0  0
   -1.3536   -9.4759    6.5386 O   0  0  0  0  0  0  0  0  0  0  0  0
   -3.5587   -8.5865    6.1597 C   0  0  2  0  0  0  0  0  0  0  0  0
   -3.0139   -7.3490    5.6557 O   0  0  0  0  0  0  0  0  0  0  0  0
   -4.9050   -8.3450    6.9233 C   0  0  2  0  0  0  0  0  0  0  0  0
   -5.4410   -9.6249    7.4369 O   0  0  0  0  0  0  0  0  0  0  0  0
   -6.0148   -7.7093    6.0782 C   0  0  2  0  0  0  0  0  0  0  0  0
   -7.2407   -7.8767    6.7125 O   0  0  0  0  0  0  0  0  0  0  0  0
   -6.1629   -8.3386    4.6809 C   0  0  0  0  0  0  0  0  0  0  0  0
   -6.5061   -8.2336   12.8888 C   0  0  2  0  0  0  0  0  0  0  0  0
   -7.3537   -8.2542   14.1081 N   0  3  0  0  0  0  0  0  0  0  0  0
   -7.3071   -8.7400   11.6527 C   0  0  0  0  0  0  0  0  0  0  0  0
   -6.3963   -8.7317   10.3720 C   0  0  2  0  0  0  0  0  0  0  0  0
   -7.2010   -9.2174    9.1916 N   0  3  0  0  0  0  0  0  0  0  0  0
   -5.1378   -9.6309   10.6251 C   0  0  2  0  0  0  0  0  0  0  0  0
   -4.3593   -9.0976   11.8526 C   0  0  2  0  0  0  0  0  0  0  0  0
   -3.2515   -9.9322   12.0905 O   0  0  0  0  0  0  0  0  0  0  0  0
   -5.2673   -9.1272   13.1111 C   0  0  1  0  0  0  0  0  0  0  0  0
   -4.5332   -8.6371   14.2235 O   0  0  0  0  0  0  0  0  0  0  0  0
   -4.0430   -9.5547   15.1617 C   0  0  2  0  0  0  0  0  0  0  0  0
   -5.1841   -9.8580   16.1511 C   0  0  2  0  0  0  0  0  0  0  0  0
   -6.2632  -10.4334   15.4461 O   0  0  0  0  0  0  0  0  0  0  0  0
   -5.6229   -8.5270   16.8517 C   0  0  1  0  0  0  0  0  0  0  0  0
   -6.7431   -8.7289   17.8028 N   0  3  0  0  0  0  0  0  0  0  0  0
   -8.0317   -8.8680   17.0775 C   0  0  0  0  0  0  0  0  0  0  0  0
   -4.3916   -7.9083   17.5988 C   0  0  2  0  0  0  0  0  0  0  0  0
   -3.9084   -8.8303   18.5937 O   0  0  0  0  0  0  0  0  0  0  0  0
   -4.7306   -6.6704   18.2772 C   0  0  0  0  0  0  0  0  0  0  0  0
   -3.2136   -7.6902   16.5999 C   0  0  0  0  0  0  0  0  0  0  0  0
   -2.8969   -8.9631   15.8732 O   0  0  0  0  0  0  0  0  0  0  0  0
  1  2  1  1  0  0  0
  1  3  1  0  0  0  0
  1 10  1  0  0  0  0
  3  4  1  1  0  0  0
  3  5  1  0  0  0  0
  5  6  1  6  0  0  0
  5  7  1  0  0  0  0
  7  8  1  1  0  0  0
  7  9  1  0  0  0  0
  9 10  1  6  0  0  0
  9 11  1  0  0  0  0
 11 12  1  1  0  0  0
 11 13  1  0  0  0  0
 14 15  1  1  0  0  0
 14 16  1  0  0  0  0
 14 22  1  0  0  0  0
 16 17  1  0  0  0  0
 17 18  1  6  0  0  0
 17 19  1  0  0  0  0
 19  2  1  6  0  0  0
 19 20  1  0  0  0  0
 20 21  1  1  0  0  0
 20 22  1  0  0  0  0
 22 23  1  1  0  0  0
 24 23  1  6  0  0  0
 24 25  1  0  0  0  0
 24 34  1  0  0  0  0
 25 26  1  6  0  0  0
 25 27  1  0  0  0  0
 27 28  1  1  0  0  0
 27 30  1  0  0  0  0
 28 29  1  0  0  0  0
 30 31  1  1  0  0  0
 30 32  1  0  0  0  0
 30 33  1  0  0  0  0
 33 34  1  0  0  0  0
M  CHG  4   4   1  15   1  18   1  28   1
M  END
>  <CHROM.1>
-149.59358198,-82.51243000,173.02409439,-152.85771933,-60.17973403,163.63914762
-61.13017632,102.91809969,71.49770710,-54.41175266,136.28829345,-83.71835414
55.49523553,42.75894835,163.01749848,-4.90327207,-8.95332716,11.67166935
-1.48694461,-0.19236942,1.55530894

>  <Name>
1mwl

>  <RI>
0

>  <Rbt.Current_Directory>
/home/itssahil/PROJECTS/Mol_Feturizer/New_Systems/rnas/1mwl

>  <Rbt.Executable>
rbdock ($Id: //depot/dev/client3/rdock/2013.1/src/exe/rbdock.cxx#4 $)

>  <Rbt.Library>
libRbt.so (2013.1, Build901 2013/11/27)

>  <Rbt.Parameter_File>
/export/apps/rDock/src/rDock_2013.1_src/data/scripts/dock_solv.prm

>  <Rbt.Receptor>
prm/blind_docking_60.prm

>  <SCORE>
-13.0173

>  <SCORE.INTER>
-20.0927

>  <SCORE.INTER.CONST>
1

>  <SCORE.INTER.POLAR>
-6.79824

>  <SCORE.INTER.ROT>
6

>  <SCORE.INTER.SOLV>
30.3921

>  <SCORE.INTER.VDW>
-8.46499

>  <SCORE.INTER.norm>
-0.59096

>  <SCORE.INTRA>
-9.40553

>  <SCORE.INTRA.DIHEDRAL>
-18.253

>  <SCORE.INTRA.DIHEDRAL.0>
42.0816

>  <SCORE.INTRA.POLAR>
-1.57681

>  <SCORE.INTRA.POLAR.0>
-0.254682

>  <SCORE.INTRA.REPUL>
0

>  <SCORE.INTRA.REPUL.0>
0

>  <SCORE.INTRA.SOLV>
8.19719

>  <SCORE.INTRA.SOLV.lig_0>
-109.803

>  <SCORE.INTRA.VDW>
0.983571

>  <SCORE.INTRA.VDW.0>
0.32176

>  <SCORE.INTRA.norm>
-0.276633

>  <SCORE.RESTR>
16.4809

>  <SCORE.RESTR.CAVITY>
16.4809

>  <SCORE.RESTR.norm>
0.484732

>  <SCORE.SYSTEM>
0

>  <SCORE.SYSTEM.CONST>
0

>  <SCORE.SYSTEM.DIHEDRAL>
0

>  <SCORE.SYSTEM.SOLV>
0

>  <SCORE.SYSTEM.norm>
0

>  <SCORE.heavy>
34

>  <SCORE.norm>
-0.382862

>  <RMSD>
20.679

$$$$
1mwl
 OpenBabel11021811403D
libRbt.so/2013.1/901 2013/11/27
 34 36  0  0  0  0  0  0  0  0999 V2000
   -5.4451   -8.5999    9.7922 C   0  0  2  0  0  0  0  0  0  0  0  0
   -5.0592   -9.9089   10.0860 O   0  0  0  0  0  0  0  0  0  0  0  0
   -6.9279   -8.6449    9.3275 C   0  0  2  0  0  0  0  0  0  0  0  0
   -7.7701   -9.2215   10.3800 N   0  3  0  0  0  0  0  0  0  0  0  0
   -7.0610   -9.4366    7.9936 C   0  0  1  0  0  0  0  0  0  0  0  0
   -8.3489   -9.4584    7.5682 O   0  0  0  0  0  0  0  0  0  0  0  0
   -6.1330   -8.7715    6.9240 C   0  0  2  0  0  0  0  0  0  0  0  0
   -6.2390   -9.4755    5.6688 O   0  0  0  0  0  0  0  0  0  0  0  0
   -4.6630   -8.7930    7.4648 C   0  0  2  0  0  0  0  0  0  0  0  0
   -4.5796   -8.0725    8.7545 O   0  0  0  0  0  0  0  0  0  0  0  0
   -3.6290   -8.1509    6.5330 C   0  0  2  0  0  0  0  0  0  0  0  0
   -3.9288   -8.4665    5.2124 O   0  0  0  0  0  0  0  0  0  0  0  0
   -2.1901   -8.6410    6.7774 C   0  0  0  0  0  0  0  0  0  0  0  0
   -4.5368  -11.7654   13.8991 C   0  0  2  0  0  0  0  0  0  0  0  0
   -3.9280  -12.1739   15.1906 N   0  3  0  0  0  0  0  0  0  0  0  0
   -3.6910  -12.2904   12.7012 C   0  0  0  0  0  0  0  0  0  0  0  0
   -4.3332  -11.8373   11.3402 C   0  0  2  0  0  0  0  0  0  0  0  0
   -3.4985  -12.3678   10.2006 N   0  3  0  0  0  0  0  0  0  0  0  0
   -4.4310  -10.2734   11.3083 C   0  0  2  0  0  0  0  0  0  0  0  0
   -5.2835   -9.7839   12.5044 C   0  0  2  0  0  0  0  0  0  0  0  0
   -5.3358   -8.3778   12.4847 O   0  0  0  0  0  0  0  0  0  0  0  0
   -4.6277  -10.2256   13.8401 C   0  0  1  0  0  0  0  0  0  0  0  0
   -5.4238   -9.7644   14.9217 O   0  0  0  0  0  0  0  0  0  0  0  0
   -5.5650   -8.3835   15.1108 C   0  0  2  0  0  0  0  0  0  0  0  0
   -4.5298   -7.9537   16.1674 C   0  0  2  0  0  0  0  0  0  0  0  0
   -3.2341   -8.2346   15.6828 O   0  0  0  0  0  0  0  0  0  0  0  0
   -4.8058   -8.7286   17.5009 C   0  0  1  0  0  0  0  0  0  0  0  0
   -3.8295   -8.3918   18.5656 N   0  3  0  0  0  0  0  0  0  0  0  0
   -3.8139   -6.9291   18.8229 C   0  0  0  0  0  0  0  0  0  0  0  0
   -6.2609   -8.4106   17.9894 C   0  0  2  0  0  0  0  0  0  0  0  0
   -6.4005   -6.9970   18.2254 O   0  0  0  0  0  0  0  0  0  0  0  0
   -6.5823   -9.0951   19.2286 C   0  0  0  0  0  0  0  0  0  0  0  0
   -7.2904   -8.7686   16.8735 C   0  0  0  0  0  0  0  0  0  0  0  0
   -6.9281   -8.0907   15.5858 O   0  0  0  0  0  0  0  0  0  0  0  0
  1  2  1  6  0  0  0
  1  3  1  0  0  0  0
  1 10  1  0  0  0  0
  3  4  1  1  0  0  0
  3  5  1  0  0  0  0
  5  6  1  6  0  0  0
  5  7  1  0  0  0  0
  7  8  1  6  0  0  0
  7  9  1  0  0  0  0
  9 10  1  1  0  0  0
  9 11  1  0  0  0  0
 11 12  1  6  0  0  0
 11 13  1  0  0  0  0
 14 15  1  1  0  0  0
 14 16  1  0  0  0  0
 14 22  1  0  0  0  0
 16 17  1  0  0  0  0
 17 18  1  6  0  0  0
 17 19  1  0  0  0  0
 19  2  1  6  0  0  0
 19 20  1  0  0  0  0
 20 21  1  1  0  0  0
 20 22  1  0  0  0  0
 22 23  1  1  0  0  0
 24 23  1  1  0  0  0
 24 25  1  0  0  0  0
 24 34  1  0  0  0  0
 25 26  1  6  0  0  0
 25 27  1  0  0  0  0
 27 28  1  1  0  0  0
 27 30  1  0  0  0  0
 28 29  1  0  0  0  0
 30 31  1  1  0  0  0
 30 32  1  0  0  0  0
 30 33  1  0  0  0  0
 33 34  1  0  0  0  0
M  CHG  4   4   1  15   1  18   1  28   1
M  END
>  <CHROM.1>
-129.39576308,172.50822117,-55.94050206,-177.32911996,173.73073197,-38.71027734
-64.88186838,-60.00112012,67.69389311,153.38713872,175.82022058,-96.34802091
-72.02487389,176.46042936,-167.51878440,-5.18767322,-9.25122619,12.35311806
1.56507888,0.68584518,-1.62610317

>  <Name>
1mwl

>  <RI>
0

>  <Rbt.Current_Directory>
/home/itssahil/PROJECTS/Mol_Feturizer/New_Systems/rnas/1mwl

>  <Rbt.Executable>
rbdock ($Id: //depot/dev/client3/rdock/2013.1/src/exe/rbdock.cxx#4 $)

>  <Rbt.Library>
libRbt.so (2013.1, Build901 2013/11/27)

>  <Rbt.Parameter_File>
/export/apps/rDock/src/rDock_2013.1_src/data/scripts/dock_solv.prm

>  <Rbt.Receptor>
prm/blind_docking_60.prm

>  <SCORE>
3.68357

>  <SCORE.INTER>
-9.51691

>  <SCORE.INTER.CONST>
1

>  <SCORE.INTER.POLAR>
-2.86549

>  <SCORE.INTER.ROT>
6

>  <SCORE.INTER.SOLV>
21.5899

>  <SCORE.INTER.VDW>
-11.5896

>  <SCORE.INTER.norm>
-0.279909

>  <SCORE.INTRA>
-8.7522

>  <SCORE.INTRA.DIHEDRAL>
-23.4753

>  <SCORE.INTRA.DIHEDRAL.0>
42.0816

>  <SCORE.INTRA.POLAR>
-0.011708

>  <SCORE.INTRA.POLAR.0>
-0.254682

>  <SCORE.INTRA.REPUL>
0

>  <SCORE.INTRA.REPUL.0>
0

>  <SCORE.INTRA.SOLV>
-2.04525

>  <SCORE.INTRA.SOLV.lig_0>
-109.803

>  <SCORE.INTRA.VDW>
4.0479

>  <SCORE.INTRA.VDW.0>
0.32176

>  <SCORE.INTRA.norm>
-0.257418

>  <SCORE.RESTR>
21.9527

>  <SCORE.RESTR.CAVITY>
21.9527

>  <SCORE.RESTR.norm>
0.645667

>  <SCORE.SYSTEM>
0

>  <SCORE.SYSTEM.CONST>
0

>  <SCORE.SYSTEM.DIHEDRAL>
0

>  <SCORE.SYSTEM.SOLV>
0

>  <SCORE.SYSTEM.norm>
0

>  <SCORE.heavy>
34

>  <SCORE.norm>
0.10834

>  <RMSD>
20.703

$$$$
1mwl
 OpenBabel11021811403D
libRbt.so/2013.1/901 2013/11/27
 34 36  0  0  0  0  0  0  0  0999 V2000
   -4.9385  -11.1714    9.7943 C   0  0  2  0  0  0  0  0  0  0  0  0
   -4.6359  -10.3456   10.8784 O   0  0  0  0  0  0  0  0  0  0  0  0
   -3.5985  -11.5233    9.0891 C   0  0  2  0  0  0  0  0  0  0  0  0
   -2.6938  -12.1931   10.0284 N   0  3  0  0  0  0  0  0  0  0  0  0
   -2.9464  -10.2468    8.4817 C   0  0  1  0  0  0  0  0  0  0  0  0
   -1.7890  -10.5500    7.8423 O   0  0  0  0  0  0  0  0  0  0  0  0
   -3.9676   -9.5840    7.4993 C   0  0  2  0  0  0  0  0  0  0  0  0
   -3.3911   -8.4002    6.9089 O   0  0  0  0  0  0  0  0  0  0  0  0
   -5.2707   -9.2428    8.2989 C   0  0  2  0  0  0  0  0  0  0  0  0
   -5.8398  -10.4689    8.9008 O   0  0  0  0  0  0  0  0  0  0  0  0
   -6.3853   -8.6034    7.4630 C   0  0  2  0  0  0  0  0  0  0  0  0
   -7.1097   -9.5952    6.8112 O   0  0  0  0  0  0  0  0  0  0  0  0
   -5.8669   -7.6563    6.3655 C   0  0  0  0  0  0  0  0  0  0  0  0
   -6.0172  -11.1347   14.8443 C   0  0  2  0  0  0  0  0  0  0  0  0
   -6.0469  -11.5982   16.2549 N   0  3  0  0  0  0  0  0  0  0  0  0
   -5.8377  -12.3388   13.8727 C   0  0  0  0  0  0  0  0  0  0  0  0
   -5.7890  -11.8360   12.3845 C   0  0  2  0  0  0  0  0  0  0  0  0
   -5.6242  -13.0233   11.4682 N   0  3  0  0  0  0  0  0  0  0  0  0
   -4.6148  -10.8108   12.2218 C   0  0  2  0  0  0  0  0  0  0  0  0
   -4.8262   -9.6236   13.1929 C   0  0  2  0  0  0  0  0  0  0  0  0
   -3.7492   -8.7274   13.0623 O   0  0  0  0  0  0  0  0  0  0  0  0
   -4.8560  -10.1349   14.6582 C   0  0  1  0  0  0  0  0  0  0  0  0
   -5.0481   -9.0307   15.5302 O   0  0  0  0  0  0  0  0  0  0  0  0
   -3.9906   -8.1312   15.7179 C   0  0  2  0  0  0  0  0  0  0  0  0
   -3.2465   -8.5538   16.9987 C   0  0  2  0  0  0  0  0  0  0  0  0
   -2.7333   -9.8571   16.8237 O   0  0  0  0  0  0  0  0  0  0  0  0
   -4.2400   -8.5044   18.2092 C   0  0  1  0  0  0  0  0  0  0  0  0
   -3.6060   -8.9278   19.4816 N   0  3  0  0  0  0  0  0  0  0  0  0
   -3.8203  -10.3780   19.7201 C   0  0  0  0  0  0  0  0  0  0  0  0
   -4.8060   -7.0496   18.3517 C   0  0  2  0  0  0  0  0  0  0  0  0
   -3.7272   -6.1251   18.5863 O   0  0  0  0  0  0  0  0  0  0  0  0
   -5.7332   -6.9312   19.4623 C   0  0  0  0  0  0  0  0  0  0  0  0
   -5.4780   -6.6035   17.0165 C   0  0  0  0  0  0  0  0  0  0  0  0
   -4.5277   -6.7679   15.8682 O   0  0  0  0  0  0  0  0  0  0  0  0
  1  2  1  1  0  0  0
  1  3  1  0  0  0  0
  1 10  1  0  0  0  0
  3  4  1  1  0  0  0
  3  5  1  0  0  0  0
  5  6  1  6  0  0  0
  5  7  1  0  0  0  0
  7  8  1  1  0  0  0
  7  9  1  0  0  0  0
  9 10  1  6  0  0  0
  9 11  1  0  0  0  0
 11 12  1  6  0  0  0
 11 13  1  0  0  0  0
 14 15  1  1  0  0  0
 14 16  1  0  0  0  0
 14 22  1  0  0  0  0
 16 17  1  0  0  0  0
 17 18  1  6  0  0  0
 17 19  1  0  0  0  0
 19  2  1  6  0  0  0
 19 20  1  0  0  0  0
 20 21  1  1  0  0  0
 20 22  1  0  0  0  0
 22 23  1  1  0  0  0
 24 23  1  1  0  0  0
 24 25  1  0  0  0  0
 24 34  1  0  0  0  0
 25 26  1  6  0  0  0
 25 27  1  0  0  0  0
 27 28  1  1  0  0  0
 27 30  1  0  0  0  0
 28 29  1  0  0  0  0
 30 31  1  1  0  0  0
 30 32  1  0  0  0  0
 30 33  1  0  0  0  0
 33 34  1  0  0  0  0
M  CHG  4   4   1  15   1  18   1  28   1
M  END
>  <CHROM.1>
-102.91571888,-37.82985310,-126.19133349,164.30904080,-3.56123709,83.16390768
173.87440619,58.06896899,144.12345988,48.52961604,167.81149368,-96.04325827
-71.50437830,26.74788741,59.39010647,-4.58365644,-9.58520362,12.98691658
2.45444198,-1.53804148,-0.84542272

>  <Name>
1mwl

>  <RI>
0

>  <Rbt.Current_Directory>
/home/itssahil/PROJECTS/Mol_Feturizer/New_Systems/rnas/1mwl

>  <Rbt.Executable>
rbdock ($Id: //depot/dev/client3/rdock/2013.1/src/exe/rbdock.cxx#4 $)

>  <Rbt.Library>
libRbt.so (2013.1, Build901 2013/11/27)

>  <Rbt.Parameter_File>
/export/apps/rDock/src/rDock_2013.1_src/data/scripts/dock_solv.prm

>  <Rbt.Receptor>
prm/blind_docking_60.prm

>  <SCORE>
16.0875

>  <SCORE.INTER>
-11.0268

>  <SCORE.INTER.CONST>
1

>  <SCORE.INTER.POLAR>
-4.34368

>  <SCORE.INTER.ROT>
6

>  <SCORE.INTER.SOLV>
22.3654

>  <SCORE.INTER.VDW>
-7.92739

>  <SCORE.INTER.norm>
-0.324316

>  <SCORE.INTRA>
6.62518

>  <SCORE.INTRA.DIHEDRAL>
-9.1199

>  <SCORE.INTRA.DIHEDRAL.0>
42.0816

>  <SCORE.INTRA.POLAR>
0.224552

>  <SCORE.INTRA.POLAR.0>
-0.254682

>  <SCORE.INTRA.REPUL>
0

>  <SCORE.INTRA.REPUL.0>
0

>  <SCORE.INTRA.SOLV>
4.12466

>  <SCORE.INTRA.SOLV.lig_0>
-109.803

>  <SCORE.INTRA.VDW>
8.35933

>  <SCORE.INTRA.VDW.0>
0.32176

>  <SCORE.INTRA.norm>
0.194858

>  <SCORE.RESTR>
20.489

>  <SCORE.RESTR.CAVITY>
20.489

>  <SCORE.RESTR.norm>
0.602619

>  <SCORE.SYSTEM>
0

>  <SCORE.SYSTEM.CONST>
0

>  <SCORE.SYSTEM.DIHEDRAL>
0

>  <SCORE.SYSTEM.SOLV>
0

>  <SCORE.SYSTEM.norm>
0

>  <SCORE.heavy>
34

>  <SCORE.norm>
0.47316

>  <RMSD>
20.974

$$$$
1mwl
 OpenBabel11021811403D
libRbt.so/2013.1/901 2013/11/27
 34 36  0  0  0  0  0  0  0  0999 V2000
   -5.9211  -10.0927   14.1870 C   0  0  2  0  0  0  0  0  0  0  0  0
   -4.9912   -9.7627   13.1996 O   0  0  0  0  0  0  0  0  0  0  0  0
   -6.4217   -8.7629   14.8179 C   0  0  2  0  0  0  0  0  0  0  0  0
   -7.0231   -7.9099   13.7882 N   0  3  0  0  0  0  0  0  0  0  0  0
   -5.2602   -8.0339   15.5548 C   0  0  1  0  0  0  0  0  0  0  0  0
   -5.6953   -6.8849   16.1299 O   0  0  0  0  0  0  0  0  0  0  0  0
   -4.6648   -9.0029   16.6290 C   0  0  2  0  0  0  0  0  0  0  0  0
   -3.5894   -8.3547   17.3400 O   0  0  0  0  0  0  0  0  0  0  0  0
   -4.1658  -10.2979   15.9023 C   0  0  2  0  0  0  0  0  0  0  0  0
   -5.2822  -10.9411   15.1748 O   0  0  0  0  0  0  0  0  0  0  0  0
   -3.5716  -11.3636   16.8303 C   0  0  2  0  0  0  0  0  0  0  0  0
   -4.5389  -11.7901   17.7334 O   0  0  0  0  0  0  0  0  0  0  0  0
   -2.3880  -10.8560   17.6740 C   0  0  0  0  0  0  0  0  0  0  0  0
   -2.9315  -11.5622    9.9164 C   0  0  2  0  0  0  0  0  0  0  0  0
   -2.6637  -12.3695    8.6991 N   0  3  0  0  0  0  0  0  0  0  0  0
   -3.3804  -12.4758   11.0953 C   0  0  0  0  0  0  0  0  0  0  0  0
   -3.6789  -11.6103   12.3728 C   0  0  2  0  0  0  0  0  0  0  0  0
   -4.1016  -12.5221   13.4982 N   0  3  0  0  0  0  0  0  0  0  0  0
   -4.7863  -10.5535   12.0358 C   0  0  2  0  0  0  0  0  0  0  0  0
   -4.3074   -9.6568   10.8681 C   0  0  2  0  0  0  0  0  0  0  0  0
   -5.3226   -8.7350   10.5522 O   0  0  0  0  0  0  0  0  0  0  0  0
   -4.0324  -10.5243    9.6107 C   0  0  1  0  0  0  0  0  0  0  0  0
   -3.5975   -9.6822    8.5532 O   0  0  0  0  0  0  0  0  0  0  0  0
   -4.4716   -9.4385    7.4858 C   0  0  2  0  0  0  0  0  0  0  0  0
   -4.2387  -10.5422    6.4368 C   0  0  2  0  0  0  0  0  0  0  0  0
   -4.5354  -11.7956    7.0142 O   0  0  0  0  0  0  0  0  0  0  0  0
   -2.7478  -10.4885    5.9579 C   0  0  1  0  0  0  0  0  0  0  0  0
   -2.4326  -11.5432    4.9638 N   0  3  0  0  0  0  0  0  0  0  0  0
   -3.3613  -11.4715    3.8069 C   0  0  0  0  0  0  0  0  0  0  0  0
   -2.4533   -9.0743    5.3491 C   0  0  2  0  0  0  0  0  0  0  0  0
   -3.3207   -8.8346    4.2251 O   0  0  0  0  0  0  0  0  0  0  0  0
   -1.0849   -8.9570    4.8789 C   0  0  0  0  0  0  0  0  0  0  0  0
   -2.7791   -7.9632    6.3943 C   0  0  0  0  0  0  0  0  0  0  0  0
   -4.1804   -8.1162    6.9060 O   0  0  0  0  0  0  0  0  0  0  0  0
  1  2  1  6  0  0  0
  1  3  1  0  0  0  0
  1 10  1  0  0  0  0
  3  4  1  6  0  0  0
  3  5  1  0  0  0  0
  5  6  1  1  0  0  0
  5  7  1  0  0  0  0
  7  8  1  6  0  0  0
  7  9  1  0  0  0  0
  9 10  1  1  0  0  0
  9 11  1  0  0  0  0
 11 12  1  1  0  0  0
 11 13  1  0  0  0  0
 14 15  1  6  0  0  0
 14 16  1  0  0  0  0
 14 22  1  0  0  0  0
 16 17  1  0  0  0  0
 17 18  1  1  0  0  0
 17 19  1  0  0  0  0
 19  2  1  1  0  0  0
 19 20  1  0  0  0  0
 20 21  1  6  0  0  0
 20 22  1  0  0  0  0
 22 23  1  6  0  0  0
 24 23  1  1  0  0  0
 24 25  1  0  0  0  0
 24 34  1  0  0  0  0
 25 26  1  1  0  0  0
 25 27  1  0  0  0  0
 27 28  1  6  0  0  0
 27 30  1  0  0  0  0
 28 29  1  0  0  0  0
 30 31  1  6  0  0  0
 30 32  1  0  0  0  0
 30 33  1  0  0  0  0
 33 34  1  0  0  0  0
M  CHG  4   4   1  15   1  18   1  28   1
M  END
>  <CHROM.1>
-149.71326262,-89.69131573,-75.49250370,-172.36717384,-38.47121393,61.37867998
175.44473487,-150.14737334,-59.33788784,-177.10385706,132.08443636,-88.95980906
60.47257995,175.35820483,59.19626499,-4.06881376,-10.05438951,11.05783493
1.94861177,-1.15725900,1.89058334

>  <Name>
1mwl

>  <RI>
0

>  <Rbt.Current_Directory>
/home/itssahil/PROJECTS/Mol_Feturizer/New_Systems/rnas/1mwl

>  <Rbt.Executable>
rbdock ($Id: //depot/dev/client3/rdock/2013.1/src/exe/rbdock.cxx#4 $)

>  <Rbt.Library>
libRbt.so (2013.1, Build901 2013/11/27)

>  <Rbt.Parameter_File>
/export/apps/rDock/src/rDock_2013.1_src/data/scripts/dock_solv.prm

>  <Rbt.Receptor>
prm/blind_docking_60.prm

>  <SCORE>
-1.59637

>  <SCORE.INTER>
-11.7394

>  <SCORE.INTER.CONST>
1

>  <SCORE.INTER.POLAR>
-3.0402

>  <SCORE.INTER.ROT>
6

>  <SCORE.INTER.SOLV>
23.6924

>  <SCORE.INTER.VDW>
-13.1897

>  <SCORE.INTER.norm>
-0.345277

>  <SCORE.INTRA>
-10.9418

>  <SCORE.INTRA.DIHEDRAL>
-20.0081

>  <SCORE.INTRA.DIHEDRAL.0>
42.0816

>  <SCORE.INTRA.POLAR>
-1.67508

>  <SCORE.INTRA.POLAR.0>
-0.254682

>  <SCORE.INTRA.REPUL>
0

>  <SCORE.INTRA.REPUL.0>
0

>  <SCORE.INTRA.SOLV>
5.32677

>  <SCORE.INTRA.SOLV.lig_0>
-109.803

>  <SCORE.INTRA.VDW>
2.09415

>  <SCORE.INTRA.VDW.0>
0.32176

>  <SCORE.INTRA.norm>
-0.321816

>  <SCORE.RESTR>
21.0848

>  <SCORE.RESTR.CAVITY>
21.0848

>  <SCORE.RESTR.norm>
0.620141

>  <SCORE.SYSTEM>
0

>  <SCORE.SYSTEM.CONST>
0

>  <SCORE.SYSTEM.DIHEDRAL>
0

>  <SCORE.SYSTEM.SOLV>
0

>  <SCORE.SYSTEM.norm>
0

>  <SCORE.heavy>
34

>  <SCORE.norm>
-0.0469521

>  <RMSD>
21.077

$$$$
1mwl
 OpenBabel11021811403D
libRbt.so/2013.1/901 2013/11/27
 34 36  0  0  0  0  0  0  0  0999 V2000
   -4.5481  -10.5984    8.0690 C   0  0  2  0  0  0  0  0  0  0  0  0
   -4.1055  -10.0683    9.2821 O   0  0  0  0  0  0  0  0  0  0  0  0
   -3.4524  -11.5776    7.5615 C   0  0  2  0  0  0  0  0  0  0  0  0
   -3.2237  -12.6361    8.5498 N   0  3  0  0  0  0  0  0  0  0  0  0
   -2.1384  -10.8091    7.2352 C   0  0  1  0  0  0  0  0  0  0  0  0
   -1.1853  -11.6535    6.7674 O   0  0  0  0  0  0  0  0  0  0  0  0
   -2.4594   -9.6956    6.1843 C   0  0  2  0  0  0  0  0  0  0  0  0
   -1.2590   -8.9678    5.8503 O   0  0  0  0  0  0  0  0  0  0  0  0
   -3.5492   -8.7465    6.7889 C   0  0  2  0  0  0  0  0  0  0  0  0
   -4.7670   -9.5145    7.1302 O   0  0  0  0  0  0  0  0  0  0  0  0
   -3.9909   -7.6077    5.8627 C   0  0  2  0  0  0  0  0  0  0  0  0
   -5.1814   -7.0605    6.3280 O   0  0  0  0  0  0  0  0  0  0  0  0
   -4.2604   -8.0590    4.4156 C   0  0  0  0  0  0  0  0  0  0  0  0
   -5.8886   -8.1228   12.6429 C   0  0  2  0  0  0  0  0  0  0  0  0
   -6.7593   -7.8668   13.8184 N   0  3  0  0  0  0  0  0  0  0  0  0
   -6.7428   -8.2954   11.3520 C   0  0  0  0  0  0  0  0  0  0  0  0
   -5.8136   -8.5840   10.1178 C   0  0  2  0  0  0  0  0  0  0  0  0
   -6.6674   -8.7369    8.8831 N   0  3  0  0  0  0  0  0  0  0  0  0
   -4.9640   -9.8708   10.3982 C   0  0  2  0  0  0  0  0  0  0  0  0
   -4.1210   -9.6650   11.6804 C   0  0  2  0  0  0  0  0  0  0  0  0
   -3.3890  -10.8382   11.9407 O   0  0  0  0  0  0  0  0  0  0  0  0
   -5.0536   -9.3969   12.8918 C   0  0  1  0  0  0  0  0  0  0  0  0
   -4.2605   -9.2139   14.0554 O   0  0  0  0  0  0  0  0  0  0  0  0
   -4.2817  -10.2048   15.0454 C   0  0  2  0  0  0  0  0  0  0  0  0
   -5.5875  -10.0319   15.8442 C   0  0  2  0  0  0  0  0  0  0  0  0
   -6.6853  -10.2086   14.9746 O   0  0  0  0  0  0  0  0  0  0  0  0
   -5.6103   -8.6032   16.4869 C   0  0  1  0  0  0  0  0  0  0  0  0
   -6.8543   -8.3450   17.2524 N   0  3  0  0  0  0  0  0  0  0  0  0
   -7.3458   -9.5906   17.8950 C   0  0  0  0  0  0  0  0  0  0  0  0
   -4.3630   -8.4393   17.4219 C   0  0  2  0  0  0  0  0  0  0  0  0
   -4.4006   -9.4293   18.4668 O   0  0  0  0  0  0  0  0  0  0  0  0
   -4.3246   -7.1343   18.0566 C   0  0  0  0  0  0  0  0  0  0  0  0
   -3.0529   -8.7053   16.6182 C   0  0  0  0  0  0  0  0  0  0  0  0
   -3.1174  -10.0370   15.9319 O   0  0  0  0  0  0  0  0  0  0  0  0
  1  2  1  1  0  0  0
  1  3  1  0  0  0  0
  1 10  1  0  0  0  0
  3  4  1  1  0  0  0
  3  5  1  0  0  0  0
  5  6  1  6  0  0  0
  5  7  1  0  0  0  0
  7  8  1  1  0  0  0
  7  9  1  0  0  0  0
  9 10  1  6  0  0  0
  9 11  1  0  0  0  0
 11 12  1  1  0  0  0
 11 13  1  0  0  0  0
 14 15  1  1  0  0  0
 14 16  1  0  0  0  0
 14 22  1  0  0  0  0
 16 17  1  0  0  0  0
 17 18  1  6  0  0  0
 17 19  1  0  0  0  0
 19  2  1  6  0  0  0
 19 20  1  0  0  0  0
 20 21  1  1  0  0  0
 20 22  1  0  0  0  0
 22 23  1  1  0  0  0
 24 23  1  6  0  0  0
 24 25  1  0  0  0  0
 24 34  1  0  0  0  0
 25 26  1  6  0  0  0
 25 27  1  0  0  0  0
 27 28  1  1  0  0  0
 27 30  1  0  0  0  0
 28 29  1  0  0  0  0
 30 31  1  1  0  0  0
 30 32  1  0  0  0  0
 30 33  1  0  0  0  0
 33 34  1  0  0  0  0
M  CHG  4   4   1  15   1  18   1  28   1
M  END
>  <CHROM.1>
-139.22583572,-77.07277881,56.37923004,-59.41883377,-61.60203220,164.04402697
-177.51365855,-32.87145872,166.00736302,-173.03323355,129.95759945,-77.72895811
67.98306984,153.75279274,-68.37126328,-4.51552511,-9.37415054,11.52206893
-1.34369960,-0.66090865,1.65555464

>  <Name>
1mwl

>  <RI>
0

>  <Rbt.Current_Directory>
/home/itssahil/PROJECTS/Mol_Feturizer/New_Systems/rnas/1mwl

>  <Rbt.Executable>
rbdock ($Id: //depot/dev/client3/rdock/2013.1/src/exe/rbdock.cxx#4 $)

>  <Rbt.Library>
libRbt.so (2013.1, Build901 2013/11/27)

>  <Rbt.Parameter_File>
/export/apps/rDock/src/rDock_2013.1_src/data/scripts/dock_solv.prm

>  <Rbt.Receptor>
prm/blind_docking_60.prm

>  <SCORE>
-7.09748

>  <SCORE.INTER>
-11.245

>  <SCORE.INTER.CONST>
1

>  <SCORE.INTER.POLAR>
-4.86799

>  <SCORE.INTER.ROT>
6

>  <SCORE.INTER.SOLV>
29.7803

>  <SCORE.INTER.VDW>
-8.79679

>  <SCORE.INTER.norm>
-0.330734

>  <SCORE.INTRA>
-9.89423

>  <SCORE.INTRA.DIHEDRAL>
-21.7886

>  <SCORE.INTRA.DIHEDRAL.0>
42.0816

>  <SCORE.INTRA.POLAR>
-1.9549

>  <SCORE.INTRA.POLAR.0>
-0.254682

>  <SCORE.INTRA.REPUL>
0

>  <SCORE.INTRA.REPUL.0>
0

>  <SCORE.INTRA.SOLV>
7.75821

>  <SCORE.INTRA.SOLV.lig_0>
-109.803

>  <SCORE.INTRA.VDW>
3.76763

>  <SCORE.INTRA.VDW.0>
0.32176

>  <SCORE.INTRA.norm>
-0.291007

>  <SCORE.RESTR>
14.0417

>  <SCORE.RESTR.CAVITY>
14.0417

>  <SCORE.RESTR.norm>
0.412991

>  <SCORE.SYSTEM>
0

>  <SCORE.SYSTEM.CONST>
0

>  <SCORE.SYSTEM.DIHEDRAL>
0

>  <SCORE.SYSTEM.SOLV>
0

>  <SCORE.SYSTEM.norm>
0

>  <SCORE.heavy>
34

>  <SCORE.norm>
-0.20875

>  <RMSD>
21.087

$$$$
1mwl
 OpenBabel11021811403D
libRbt.so/2013.1/901 2013/11/27
 34 36  0  0  0  0  0  0  0  0999 V2000
   -5.7117  -10.7932   12.5900 C   0  0  2  0  0  0  0  0  0  0  0  0
   -4.8245  -10.3015   11.6310 O   0  0  0  0  0  0  0  0  0  0  0  0
   -6.8784   -9.7729   12.7112 C   0  0  2  0  0  0  0  0  0  0  0  0
   -7.5404   -9.6058   11.4138 N   0  3  0  0  0  0  0  0  0  0  0  0
   -6.3626   -8.4133   13.2671 C   0  0  1  0  0  0  0  0  0  0  0  0
   -7.3797   -7.5256   13.3999 O   0  0  0  0  0  0  0  0  0  0  0  0
   -5.6646   -8.6696   14.6436 C   0  0  2  0  0  0  0  0  0  0  0  0
   -5.1818   -7.4261   15.1940 O   0  0  0  0  0  0  0  0  0  0  0  0
   -4.4928   -9.6850   14.4207 C   0  0  2  0  0  0  0  0  0  0  0  0
   -5.0095  -10.9484   13.8497 O   0  0  0  0  0  0  0  0  0  0  0  0
   -3.7196  -10.0584   15.6906 C   0  0  2  0  0  0  0  0  0  0  0  0
   -2.9697  -11.2067   15.4617 O   0  0  0  0  0  0  0  0  0  0  0  0
   -4.6261  -10.3685   16.8957 C   0  0  0  0  0  0  0  0  0  0  0  0
   -2.7592  -11.3652    8.0446 C   0  0  2  0  0  0  0  0  0  0  0  0
   -2.4184  -12.0458    6.7694 N   0  3  0  0  0  0  0  0  0  0  0  0
   -2.7505  -12.3774    9.2284 C   0  0  0  0  0  0  0  0  0  0  0  0
   -3.1301  -11.6512   10.5695 C   0  0  2  0  0  0  0  0  0  0  0  0
   -3.1041  -12.6533   11.6972 N   0  3  0  0  0  0  0  0  0  0  0  0
   -4.5411  -10.9861   10.4174 C   0  0  2  0  0  0  0  0  0  0  0  0
   -4.5150   -9.9807    9.2402 C   0  0  2  0  0  0  0  0  0  0  0  0
   -5.7951   -9.4156    9.0918 O   0  0  0  0  0  0  0  0  0  0  0  0
   -4.1543  -10.7161    7.9217 C   0  0  1  0  0  0  0  0  0  0  0  0
   -4.1386   -9.7768    6.8569 O   0  0  0  0  0  0  0  0  0  0  0  0
   -3.5752   -8.5143    7.0832 C   0  0  2  0  0  0  0  0  0  0  0  0
   -4.0828   -7.5760    5.9720 C   0  0  2  0  0  0  0  0  0  0  0  0
   -5.4893   -7.4873    6.0519 O   0  0  0  0  0  0  0  0  0  0  0  0
   -3.6385   -8.1418    4.5801 C   0  0  1  0  0  0  0  0  0  0  0  0
   -4.1154   -7.3078    3.4500 N   0  3  0  0  0  0  0  0  0  0  0  0
   -5.4551   -7.7569    2.9922 C   0  0  0  0  0  0  0  0  0  0  0  0
   -2.0751   -8.2492    4.5432 C   0  0  2  0  0  0  0  0  0  0  0  0
   -1.4900   -6.9475    4.7340 O   0  0  0  0  0  0  0  0  0  0  0  0
   -1.5934   -8.7640    3.2743 C   0  0  0  0  0  0  0  0  0  0  0  0
   -1.5711   -9.1301    5.7278 C   0  0  0  0  0  0  0  0  0  0  0  0
   -2.1067   -8.6165    7.0309 O   0  0  0  0  0  0  0  0  0  0  0  0
  1  2  1  6  0  0  0
  1  3  1  0  0  0  0
  1 10  1  0  0  0  0
  3  4  1  6  0  0  0
  3  5  1  0  0  0  0
  5  6  1  1  0  0  0
  5  7  1  0  0  0  0
  7  8  1  6  0  0  0
  7  9  1  0  0  0  0
  9 10  1  1  0  0  0
  9 11  1  0  0  0  0
 11 12  1  6  0  0  0
 11 13  1  0  0  0  0
 14 15  1  6  0  0  0
 14 16  1  0  0  0  0
 14 22  1  0  0  0  0
 16 17  1  0  0  0  0
 17 18  1  1  0  0  0
 17 19  1  0  0  0  0
 19  2  1  1  0  0  0
 19 20  1  0  0  0  0
 20 21  1  6  0  0  0
 20 22  1  0  0  0  0
 22 23  1  6  0  0  0
 24 23  1  6  0  0  0
 24 25  1  0  0  0  0
 24 34  1  0  0  0  0
 25 26  1  6  0  0  0
 25 27  1  0  0  0  0
 27 28  1  6  0  0  0
 27 30  1  0  0  0  0
 28 29  1  0  0  0  0
 30 31  1  1  0  0  0
 30 32  1  0  0  0  0
 30 33  1  0  0  0  0
 33 34  1  0  0  0  0
M  CHG  4   4   1  15   1  18   1  28   1
M  END
>  <CHROM.1>
-117.46577221,-103.91599645,65.20281067,110.26985691,178.36936221,163.78233186
177.64359989,152.60567985,27.77543969,174.08276387,-79.25626963,-162.05209919
73.68459186,30.56716102,39.58279960,-4.21678086,-9.51764292,9.61217707,-1.84906084
0.79132226,-1.22155850

>  <Name>
1mwl

>  <RI>
0

>  <Rbt.Current_Directory>
/home/itssahil/PROJECTS/Mol_Feturizer/New_Systems/rnas/1mwl

>  <Rbt.Executable>
rbdock ($Id: //depot/dev/client3/rdock/2013.1/src/exe/rbdock.cxx#4 $)

>  <Rbt.Library>
libRbt.so (2013.1, Build901 2013/11/27)

>  <Rbt.Parameter_File>
/export/apps/rDock/src/rDock_2013.1_src/data/scripts/dock_solv.prm

>  <Rbt.Receptor>
prm/blind_docking_60.prm

>  <SCORE>
-25.7869

>  <SCORE.INTER>
-34.9671

>  <SCORE.INTER.CONST>
1

>  <SCORE.INTER.POLAR>
-6.36932

>  <SCORE.INTER.ROT>
6

>  <SCORE.INTER.SOLV>
27.6883

>  <SCORE.INTER.VDW>
-18.9098

>  <SCORE.INTER.norm>
-1.02844

>  <SCORE.INTRA>
-7.41476

>  <SCORE.INTRA.DIHEDRAL>
-9.90029

>  <SCORE.INTRA.DIHEDRAL.0>
42.0816

>  <SCORE.INTRA.POLAR>
-0.969148

>  <SCORE.INTRA.POLAR.0>
-0.254682

>  <SCORE.INTRA.REPUL>
0

>  <SCORE.INTRA.REPUL.0>
0

>  <SCORE.INTRA.SOLV>
1.89644

>  <SCORE.INTRA.SOLV.lig_0>
-109.803

>  <SCORE.INTRA.VDW>
-0.11773

>  <SCORE.INTRA.VDW.0>
0.32176

>  <SCORE.INTRA.norm>
-0.218081

>  <SCORE.RESTR>
16.595

>  <SCORE.RESTR.CAVITY>
16.595

>  <SCORE.RESTR.norm>
0.488087

>  <SCORE.SYSTEM>
0

>  <SCORE.SYSTEM.CONST>
0

>  <SCORE.SYSTEM.DIHEDRAL>
0

>  <SCORE.SYSTEM.SOLV>
0

>  <SCORE.SYSTEM.norm>
0

>  <SCORE.heavy>
34

>  <SCORE.norm>
-0.758438

>  <RMSD>
21.166

$$$$
1mwl
 OpenBabel11021811403D
libRbt.so/2013.1/901 2013/11/27
 34 36  0  0  0  0  0  0  0  0999 V2000
   -5.4882  -10.6381   13.7877 C   0  0  2  0  0  0  0  0  0  0  0  0
   -4.7069  -10.1317   12.7477 O   0  0  0  0  0  0  0  0  0  0  0  0
   -6.8117   -9.8229   13.8150 C   0  0  2  0  0  0  0  0  0  0  0  0
   -7.5037   -9.9398   12.5277 N   0  3  0  0  0  0  0  0  0  0  0  0
   -6.5325   -8.3353   14.1788 C   0  0  1  0  0  0  0  0  0  0  0  0
   -7.6858   -7.6229   14.2296 O   0  0  0  0  0  0  0  0  0  0  0  0
   -5.7891   -8.2891   15.5546 C   0  0  2  0  0  0  0  0  0  0  0  0
   -5.5224   -6.9212   15.9286 O   0  0  0  0  0  0  0  0  0  0  0  0
   -4.4621   -9.1117   15.4258 C   0  0  2  0  0  0  0  0  0  0  0  0
   -4.7590  -10.5075   15.0348 O   0  0  0  0  0  0  0  0  0  0  0  0
   -3.6254   -9.1811   16.7083 C   0  0  2  0  0  0  0  0  0  0  0  0
   -2.8614  -10.3428   16.7068 O   0  0  0  0  0  0  0  0  0  0  0  0
   -4.4706   -9.2228   17.9945 C   0  0  0  0  0  0  0  0  0  0  0  0
   -2.5972  -11.7379    9.3967 C   0  0  2  0  0  0  0  0  0  0  0  0
   -2.3146  -12.4564    8.1281 N   0  3  0  0  0  0  0  0  0  0  0  0
   -3.1128  -12.7250   10.4856 C   0  0  0  0  0  0  0  0  0  0  0  0
   -3.4262  -11.9522   11.8178 C   0  0  2  0  0  0  0  0  0  0  0  0
   -3.9138  -12.9343   12.8543 N   0  3  0  0  0  0  0  0  0  0  0  0
   -4.4884  -10.8359   11.5318 C   0  0  2  0  0  0  0  0  0  0  0  0
   -3.9437   -9.8674   10.4537 C   0  0  2  0  0  0  0  0  0  0  0  0
   -4.9188   -8.8902   10.1809 O   0  0  0  0  0  0  0  0  0  0  0  0
   -3.6545  -10.6429    9.1406 C   0  0  1  0  0  0  0  0  0  0  0  0
   -3.1591   -9.7360    8.1666 O   0  0  0  0  0  0  0  0  0  0  0  0
   -4.0530   -9.2034    7.2286 C   0  0  2  0  0  0  0  0  0  0  0  0
   -4.1474  -10.2036    6.0608 C   0  0  2  0  0  0  0  0  0  0  0  0
   -4.6471  -11.4313    6.5460 O   0  0  0  0  0  0  0  0  0  0  0  0
   -2.7256  -10.3912    5.4298 C   0  0  1  0  0  0  0  0  0  0  0  0
   -2.7249  -11.3662    4.3120 N   0  3  0  0  0  0  0  0  0  0  0  0
   -1.4232  -12.0771    4.2337 C   0  0  0  0  0  0  0  0  0  0  0  0
   -2.1973   -9.0029    4.9290 C   0  0  2  0  0  0  0  0  0  0  0  0
   -3.0905   -8.4689    3.9338 O   0  0  0  0  0  0  0  0  0  0  0  0
   -0.8809   -9.1054    4.3259 C   0  0  0  0  0  0  0  0  0  0  0  0
   -2.1922   -7.9767    6.1038 C   0  0  0  0  0  0  0  0  0  0  0  0
   -3.5446   -7.9072    6.7481 O   0  0  0  0  0  0  0  0  0  0  0  0
  1  2  1  6  0  0  0
  1  3  1  0  0  0  0
  1 10  1  0  0  0  0
  3  4  1  6  0  0  0
  3  5  1  0  0  0  0
  5  6  1  1  0  0  0
  5  7  1  0  0  0  0
  7  8  1  6  0  0  0
  7  9  1  0  0  0  0
  9 10  1  1  0  0  0
  9 11  1  0  0  0  0
 11 12  1  6  0  0  0
 11 13  1  0  0  0  0
 14 15  1  6  0  0  0
 14 16  1  0  0  0  0
 14 22  1  0  0  0  0
 16 17  1  0  0  0  0
 17 18  1  1  0  0  0
 17 19  1  0  0  0  0
 19  2  1  1  0  0  0
 19 20  1  0  0  0  0
 20 21  1  6  0  0  0
 20 22  1  0  0  0  0
 22 23  1  6  0  0  0
 24 23  1  1  0  0  0
 24 25  1  0  0  0  0
 24 34  1  0  0  0  0
 25 26  1  1  0  0  0
 25 27  1  0  0  0  0
 27 28  1  6  0  0  0
 27 30  1  0  0  0  0
 28 29  1  0  0  0  0
 30 31  1  6  0  0  0
 30 32  1  0  0  0  0
 30 33  1  0  0  0  0
 33 34  1  0  0  0  0
M  CHG  4   4   1  15   1  18   1  28   1
M  END
>  <CHROM.1>
-107.64112473,-77.11886480,-63.88877160,96.53915810,-45.42142760,153.19501553
-47.30213271,-148.93179800,-61.73860587,54.43781324,142.83595353,-85.90183827
170.01738604,-28.70453725,-176.09335121,-4.06221740,-9.97080639,10.48795220
-2.07891675,1.03848702,-1.20241206

>  <Name>
1mwl

>  <RI>
0

>  <Rbt.Current_Directory>
/home/itssahil/PROJECTS/Mol_Feturizer/New_Systems/rnas/1mwl

>  <Rbt.Executable>
rbdock ($Id: //depot/dev/client3/rdock/2013.1/src/exe/rbdock.cxx#4 $)

>  <Rbt.Library>
libRbt.so (2013.1, Build901 2013/11/27)

>  <Rbt.Parameter_File>
/export/apps/rDock/src/rDock_2013.1_src/data/scripts/dock_solv.prm

>  <Rbt.Receptor>
prm/blind_docking_60.prm

>  <SCORE>
0.965688

>  <SCORE.INTER>
-7.50292

>  <SCORE.INTER.CONST>
1

>  <SCORE.INTER.POLAR>
-2.06141

>  <SCORE.INTER.ROT>
6

>  <SCORE.INTER.SOLV>
19.2423

>  <SCORE.INTER.VDW>
-12.1447

>  <SCORE.INTER.norm>
-0.220674

>  <SCORE.INTRA>
-8.69824

>  <SCORE.INTRA.DIHEDRAL>
-13.043

>  <SCORE.INTRA.DIHEDRAL.0>
42.0816

>  <SCORE.INTRA.POLAR>
-1.30493

>  <SCORE.INTRA.POLAR.0>
-0.254682

>  <SCORE.INTRA.REPUL>
0

>  <SCORE.INTRA.REPUL.0>
0

>  <SCORE.INTRA.SOLV>
3.17869

>  <SCORE.INTRA.SOLV.lig_0>
-109.803

>  <SCORE.INTRA.VDW>
0.670684

>  <SCORE.INTRA.VDW.0>
0.32176

>  <SCORE.INTRA.norm>
-0.255831

>  <SCORE.RESTR>
17.1668

>  <SCORE.RESTR.CAVITY>
17.1668

>  <SCORE.RESTR.norm>
0.504907

>  <SCORE.SYSTEM>
0

>  <SCORE.SYSTEM.CONST>
0

>  <SCORE.SYSTEM.DIHEDRAL>
0

>  <SCORE.SYSTEM.SOLV>
0

>  <SCORE.SYSTEM.norm>
0

>  <SCORE.heavy>
34

>  <SCORE.norm>
0.0284026

>  <RMSD>
21.276

$$$$
1mwl
 OpenBabel11021811403D
libRbt.so/2013.1/901 2013/11/27
 34 36  0  0  0  0  0  0  0  0999 V2000
   -5.8867  -10.8724   12.2930 C   0  0  2  0  0  0  0  0  0  0  0  0
   -4.8928  -10.4500   11.4086 O   0  0  0  0  0  0  0  0  0  0  0  0
   -7.0148   -9.8029   12.2707 C   0  0  2  0  0  0  0  0  0  0  0  0
   -7.5438   -9.6547   10.9114 N   0  3  0  0  0  0  0  0  0  0  0  0
   -6.4959   -8.4464   12.8313 C   0  0  1  0  0  0  0  0  0  0  0  0
   -7.4820   -7.5149   12.8388 O   0  0  0  0  0  0  0  0  0  0  0  0
   -5.9424   -8.6823   14.2754 C   0  0  2  0  0  0  0  0  0  0  0  0
   -5.4608   -7.4407   14.8310 O   0  0  0  0  0  0  0  0  0  0  0  0
   -4.7994   -9.7506   14.1969 C   0  0  2  0  0  0  0  0  0  0  0  0
   -5.3137  -11.0116   13.6182 O   0  0  0  0  0  0  0  0  0  0  0  0
   -4.1661  -10.1102   15.5458 C   0  0  2  0  0  0  0  0  0  0  0  0
   -3.4121   -9.0381   16.0099 O   0  0  0  0  0  0  0  0  0  0  0  0
   -3.2076  -11.3131   15.4759 C   0  0  0  0  0  0  0  0  0  0  0  0
   -2.4483  -11.8297    8.1867 C   0  0  2  0  0  0  0  0  0  0  0  0
   -1.9965  -12.5838    6.9898 N   0  3  0  0  0  0  0  0  0  0  0  0
   -2.7099  -12.7958    9.3801 C   0  0  0  0  0  0  0  0  0  0  0  0
   -3.2049  -11.9903   10.6355 C   0  0  2  0  0  0  0  0  0  0  0  0
   -3.4404  -12.9501   11.7756 N   0  3  0  0  0  0  0  0  0  0  0  0
   -4.5067  -11.2004   10.2643 C   0  0  2  0  0  0  0  0  0  0  0  0
   -4.2125  -10.2441    9.0828 C   0  0  2  0  0  0  0  0  0  0  0  0
   -5.3959   -9.5660    8.7365 O   0  0  0  0  0  0  0  0  0  0  0  0
   -3.7403  -11.0562    7.8472 C   0  0  1  0  0  0  0  0  0  0  0  0
   -3.4790  -10.1606    6.7766 O   0  0  0  0  0  0  0  0  0  0  0  0
   -2.9937   -8.8807    7.0749 C   0  0  2  0  0  0  0  0  0  0  0  0
   -3.7479   -7.8803    6.1787 C   0  0  2  0  0  0  0  0  0  0  0  0
   -5.1263   -7.9446    6.4764 O   0  0  0  0  0  0  0  0  0  0  0  0
   -3.4853   -8.2383    4.6761 C   0  0  1  0  0  0  0  0  0  0  0  0
   -4.2036   -7.3358    3.7436 N   0  3  0  0  0  0  0  0  0  0  0  0
   -5.3317   -8.0451    3.0877 C   0  0  0  0  0  0  0  0  0  0  0  0
   -1.9442   -8.1814    4.3951 C   0  0  2  0  0  0  0  0  0  0  0  0
   -1.4465   -6.8565    4.6602 O   0  0  0  0  0  0  0  0  0  0  0  0
   -1.6294   -8.4990    3.0140 C   0  0  0  0  0  0  0  0  0  0  0  0
   -1.1866   -9.1336    5.3710 C   0  0  0  0  0  0  0  0  0  0  0  0
   -1.5489   -8.8265    6.7934 O   0  0  0  0  0  0  0  0  0  0  0  0
  1  2  1  6  0  0  0
  1  3  1  0  0  0  0
  1 10  1  0  0  0  0
  3  4  1  6  0  0  0
  3  5  1  0  0  0  0
  5  6  1  1  0  0  0
  5  7  1  0  0  0  0
  7  8  1  6  0  0  0
  7  9  1  0  0  0  0
  9 10  1  1  0  0  0
  9 11  1  0  0  0  0
 11 12  1  6  0  0  0
 11 13  1  0  0  0  0
 14 15  1  6  0  0  0
 14 16  1  0  0  0  0
 14 22  1  0  0  0  0
 16 17  1  0  0  0  0
 17 18  1  1  0  0  0
 17 19  1  0  0  0  0
 19  2  1  1  0  0  0
 19 20  1  0  0  0  0
 20 21  1  6  0  0  0
 20 22  1  0  0  0  0
 22 23  1  6  0  0  0
 24 23  1  6  0  0  0
 24 25  1  0  0  0  0
 24 34  1  0  0  0  0
 25 26  1  1  0  0  0
 25 27  1  0  0  0  0
 27 28  1  6  0  0  0
 27 30  1  0  0  0  0
 28 29  1  0  0  0  0
 30 31  1  1  0  0  0
 30 32  1  0  0  0  0
 30 33  1  0  0  0  0
 33 34  1  0  0  0  0
M  CHG  4   4   1  15   1  18   1  28   1
M  END
>  <CHROM.1>
-118.80086946,-99.00907805,-152.15649760,-66.68642224,91.93491494,-70.36658677
169.47667018,-130.56806531,-154.61529654,-178.94176366,-87.49913142,-137.20745859
-81.40298243,11.81343540,-55.70768472,-4.11879340,-9.62758113,9.46432634
-1.93033090,0.83992129,-1.16508125

>  <Name>
1mwl

>  <RI>
0

>  <Rbt.Current_Directory>
/home/itssahil/PROJECTS/Mol_Feturizer/New_Systems/rnas/1mwl

>  <Rbt.Executable>
rbdock ($Id: //depot/dev/client3/rdock/2013.1/src/exe/rbdock.cxx#4 $)

>  <Rbt.Library>
libRbt.so (2013.1, Build901 2013/11/27)

>  <Rbt.Parameter_File>
/export/apps/rDock/src/rDock_2013.1_src/data/scripts/dock_solv.prm

>  <Rbt.Receptor>
prm/blind_docking_60.prm

>  <SCORE>
-22.4252

>  <SCORE.INTER>
-32.6186

>  <SCORE.INTER.CONST>
1

>  <SCORE.INTER.POLAR>
-5.8393

>  <SCORE.INTER.ROT>
6

>  <SCORE.INTER.SOLV>
27.5317

>  <SCORE.INTER.VDW>
-19.0586

>  <SCORE.INTER.norm>
-0.95937

>  <SCORE.INTRA>
-6.53722

>  <SCORE.INTRA.DIHEDRAL>
-3.81475

>  <SCORE.INTRA.DIHEDRAL.0>
42.0816

>  <SCORE.INTRA.POLAR>
-2.03617

>  <SCORE.INTRA.POLAR.0>
-0.254682

>  <SCORE.INTRA.REPUL>
0

>  <SCORE.INTRA.REPUL.0>
0

>  <SCORE.INTRA.SOLV>
2.11516

>  <SCORE.INTRA.SOLV.lig_0>
-109.803

>  <SCORE.INTRA.VDW>
1.23554

>  <SCORE.INTRA.VDW.0>
0.32176

>  <SCORE.INTRA.norm>
-0.192271

>  <SCORE.RESTR>
16.7306

>  <SCORE.RESTR.CAVITY>
16.7306

>  <SCORE.RESTR.norm>
0.492077

>  <SCORE.SYSTEM>
0

>  <SCORE.SYSTEM.CONST>
0

>  <SCORE.SYSTEM.DIHEDRAL>
0

>  <SCORE.SYSTEM.SOLV>
0

>  <SCORE.SYSTEM.norm>
0

>  <SCORE.heavy>
34

>  <SCORE.norm>
-0.659565

>  <RMSD>
21.387

$$$$
1mwl
 OpenBabel11021811403D
libRbt.so/2013.1/901 2013/11/27
 34 36  0  0  0  0  0  0  0  0999 V2000
   -5.9237  -10.7546   12.2479 C   0  0  2  0  0  0  0  0  0  0  0  0
   -4.8824  -10.3520   11.4098 O   0  0  0  0  0  0  0  0  0  0  0  0
   -6.8919   -9.5478   12.3999 C   0  0  2  0  0  0  0  0  0  0  0  0
   -7.3979   -9.1374   11.0865 N   0  3  0  0  0  0  0  0  0  0  0  0
   -6.1879   -8.3687   13.1332 C   0  0  1  0  0  0  0  0  0  0  0  0
   -7.0347   -7.3209   13.2924 O   0  0  0  0  0  0  0  0  0  0  0  0
   -5.6696   -8.8805   14.5178 C   0  0  2  0  0  0  0  0  0  0  0  0
   -5.0186   -7.8081   15.2309 O   0  0  0  0  0  0  0  0  0  0  0  0
   -4.6867  -10.0739   14.2658 C   0  0  2  0  0  0  0  0  0  0  0  0
   -5.3728  -11.1574   13.5278 O   0  0  0  0  0  0  0  0  0  0  0  0
   -4.1068  -10.7044   15.5371 C   0  0  2  0  0  0  0  0  0  0  0  0
   -3.3195   -9.7729   16.2047 O   0  0  0  0  0  0  0  0  0  0  0  0
   -3.2004  -11.9188   15.2648 C   0  0  0  0  0  0  0  0  0  0  0  0
   -2.5404  -11.5223    8.0327 C   0  0  2  0  0  0  0  0  0  0  0  0
   -2.0972  -12.2456    6.8137 N   0  3  0  0  0  0  0  0  0  0  0  0
   -2.6116  -12.4895    9.2515 C   0  0  0  0  0  0  0  0  0  0  0  0
   -3.0992  -11.7186   10.5315 C   0  0  2  0  0  0  0  0  0  0  0  0
   -3.1490  -12.6777   11.6953 N   0  3  0  0  0  0  0  0  0  0  0  0
   -4.5010  -11.0776   10.2480 C   0  0  2  0  0  0  0  0  0  0  0  0
   -4.3955  -10.1166    9.0387 C   0  0  2  0  0  0  0  0  0  0  0  0
   -5.6662   -9.5738    8.7726 O   0  0  0  0  0  0  0  0  0  0  0  0
   -3.9285  -10.8960    7.7802 C   0  0  1  0  0  0  0  0  0  0  0  0
   -3.8413   -9.9970    6.6846 O   0  0  0  0  0  0  0  0  0  0  0  0
   -3.1073   -8.8142    6.8430 C   0  0  2  0  0  0  0  0  0  0  0  0
   -3.6878   -7.7757    5.8645 C   0  0  2  0  0  0  0  0  0  0  0  0
   -5.0404   -7.5404    6.1927 O   0  0  0  0  0  0  0  0  0  0  0  0
   -3.5562   -8.3199    4.4012 C   0  0  1  0  0  0  0  0  0  0  0  0
   -4.1217   -7.3875    3.3958 N   0  3  0  0  0  0  0  0  0  0  0  0
   -5.5168   -7.7648    3.0531 C   0  0  0  0  0  0  0  0  0  0  0  0
   -2.0449   -8.5928    4.0873 C   0  0  2  0  0  0  0  0  0  0  0  0
   -1.2913   -7.3717    4.2081 O   0  0  0  0  0  0  0  0  0  0  0  0
   -1.8497   -9.0961    2.7398 C   0  0  0  0  0  0  0  0  0  0  0  0
   -1.4488   -9.5773    5.1402 C   0  0  0  0  0  0  0  0  0  0  0  0
   -1.6909   -9.0709    6.5308 O   0  0  0  0  0  0  0  0  0  0  0  0
  1  2  1  6  0  0  0
  1  3  1  0  0  0  0
  1 10  1  0  0  0  0
  3  4  1  6  0  0  0
  3  5  1  0  0  0  0
  5  6  1  1  0  0  0
  5  7  1  0  0  0  0
  7  8  1  6  0  0  0
  7  9  1  0  0  0  0
  9 10  1  1  0  0  0
  9 11  1  0  0  0  0
 11 12  1  6  0  0  0
 11 13  1  0  0  0  0
 14 15  1  6  0  0  0
 14 16  1  0  0  0  0
 14 22  1  0  0  0  0
 16 17  1  0  0  0  0
 17 18  1  1  0  0  0
 17 19  1  0  0  0  0
 19  2  1  1  0  0  0
 19 20  1  0  0  0  0
 20 21  1  6  0  0  0
 20 22  1  0  0  0  0
 22 23  1  6  0  0  0
 24 23  1  6  0  0  0
 24 25  1  0  0  0  0
 24 34  1  0  0  0  0
 25 26  1  1  0  0  0
 25 27  1  0  0  0  0
 27 28  1  6  0  0  0
 27 30  1  0  0  0  0
 28 29  1  0  0  0  0
 30 31  1  1  0  0  0
 30 32  1  0  0  0  0
 30 33  1  0  0  0  0
 33 34  1  0  0  0  0
M  CHG  4   4   1  15   1  18   1  28   1
M  END
>  <CHROM.1>
-126.85728420,-110.25405902,-151.68787637,109.60472423,87.83245756,-64.15938425
-174.89200434,152.38022244,152.66645076,-58.08899022,-68.47071361,-153.62560614
83.96216004,24.07827280,-161.00322625,-4.09628045,-9.66257992,9.40859095
1.86731685,-0.79936251,1.91816337

>  <Name>
1mwl

>  <RI>
0

>  <Rbt.Current_Directory>
/home/itssahil/PROJECTS/Mol_Feturizer/New_Systems/rnas/1mwl

>  <Rbt.Executable>
rbdock ($Id: //depot/dev/client3/rdock/2013.1/src/exe/rbdock.cxx#4 $)

>  <Rbt.Library>
libRbt.so (2013.1, Build901 2013/11/27)

>  <Rbt.Parameter_File>
/export/apps/rDock/src/rDock_2013.1_src/data/scripts/dock_solv.prm

>  <Rbt.Receptor>
prm/blind_docking_60.prm

>  <SCORE>
-18.1446

>  <SCORE.INTER>
-33.1433

>  <SCORE.INTER.CONST>
1

>  <SCORE.INTER.POLAR>
-6.40173

>  <SCORE.INTER.ROT>
6

>  <SCORE.INTER.SOLV>
27.8109

>  <SCORE.INTER.VDW>
-17.6267

>  <SCORE.INTER.norm>
-0.974802

>  <SCORE.INTRA>
-1.96608

>  <SCORE.INTRA.DIHEDRAL>
-3.56914

>  <SCORE.INTRA.DIHEDRAL.0>
42.0816

>  <SCORE.INTRA.POLAR>
-0.625254

>  <SCORE.INTRA.POLAR.0>
-0.254682

>  <SCORE.INTRA.REPUL>
0

>  <SCORE.INTRA.REPUL.0>
0

>  <SCORE.INTRA.SOLV>
3.19419

>  <SCORE.INTRA.SOLV.lig_0>
-109.803

>  <SCORE.INTRA.VDW>
0.347261

>  <SCORE.INTRA.VDW.0>
0.32176

>  <SCORE.INTRA.norm>
-0.0578259

>  <SCORE.RESTR>
16.9648

>  <SCORE.RESTR.CAVITY>
16.9648

>  <SCORE.RESTR.norm>
0.498964

>  <SCORE.SYSTEM>
0

>  <SCORE.SYSTEM.CONST>
0

>  <SCORE.SYSTEM.DIHEDRAL>
0

>  <SCORE.SYSTEM.SOLV>
0

>  <SCORE.SYSTEM.norm>
0

>  <SCORE.heavy>
34

>  <SCORE.norm>
-0.533665

>  <RMSD>
21.421

$$$$
1mwl
 OpenBabel11021811403D
libRbt.so/2013.1/901 2013/11/27
 34 36  0  0  0  0  0  0  0  0999 V2000
   -5.0590  -10.8159   13.6938 C   0  0  2  0  0  0  0  0  0  0  0  0
   -4.1928  -10.3980   12.6820 O   0  0  0  0  0  0  0  0  0  0  0  0
   -6.3827  -10.0166   13.5330 C   0  0  2  0  0  0  0  0  0  0  0  0
   -6.9611  -10.2584   12.2077 N   0  3  0  0  0  0  0  0  0  0  0  0
   -6.1406   -8.4989   13.7809 C   0  0  1  0  0  0  0  0  0  0  0  0
   -7.2964   -7.7979   13.6674 O   0  0  0  0  0  0  0  0  0  0  0  0
   -5.5184   -8.3189   15.2050 C   0  0  2  0  0  0  0  0  0  0  0  0
   -5.2894   -6.9196   15.4730 O   0  0  0  0  0  0  0  0  0  0  0  0
   -4.1825   -9.1349   15.2660 C   0  0  2  0  0  0  0  0  0  0  0  0
   -4.4401  -10.5639   14.9813 O   0  0  0  0  0  0  0  0  0  0  0  0
   -3.4589   -9.0775   16.6162 C   0  0  2  0  0  0  0  0  0  0  0  0
   -2.6556  -10.2025   16.7652 O   0  0  0  0  0  0  0  0  0  0  0  0
   -4.4110   -9.0642   17.8260 C   0  0  0  0  0  0  0  0  0  0  0  0
   -2.5113  -11.9186    9.0599 C   0  0  2  0  0  0  0  0  0  0  0  0
   -2.3973  -12.5589    7.7248 N   0  3  0  0  0  0  0  0  0  0  0  0
   -3.0300  -12.9381   10.1170 C   0  0  0  0  0  0  0  0  0  0  0  0
   -3.1646  -12.2462   11.5217 C   0  0  2  0  0  0  0  0  0  0  0  0
   -3.6591  -13.2590   12.5248 N   0  3  0  0  0  0  0  0  0  0  0  0
   -4.1370  -11.0225   11.4058 C   0  0  2  0  0  0  0  0  0  0  0  0
   -3.5903  -10.0249   10.3556 C   0  0  2  0  0  0  0  0  0  0  0  0
   -4.4882   -8.9481   10.2356 O   0  0  0  0  0  0  0  0  0  0  0  0
   -3.4785  -10.7189    8.9717 C   0  0  1  0  0  0  0  0  0  0  0  0
   -2.9783   -9.7863    8.0249 O   0  0  0  0  0  0  0  0  0  0  0  0
   -3.8851   -9.1412    7.1739 C   0  0  2  0  0  0  0  0  0  0  0  0
   -4.1203  -10.0650    5.9638 C   0  0  2  0  0  0  0  0  0  0  0  0
   -4.6779  -11.2808    6.4149 O   0  0  0  0  0  0  0  0  0  0  0  0
   -2.7554  -10.3144    5.2359 C   0  0  1  0  0  0  0  0  0  0  0  0
   -2.8910  -11.2226    4.0710 N   0  3  0  0  0  0  0  0  0  0  0  0
   -1.7030  -12.1058    3.9503 C   0  0  0  0  0  0  0  0  0  0  0  0
   -2.1586   -8.9399    4.7759 C   0  0  2  0  0  0  0  0  0  0  0  0
   -3.0679   -8.2903    3.8679 O   0  0  0  0  0  0  0  0  0  0  0  0
   -0.8909   -9.0987    4.0868 C   0  0  0  0  0  0  0  0  0  0  0  0
   -2.0101   -7.9843    5.9999 C   0  0  0  0  0  0  0  0  0  0  0  0
   -3.3135   -7.8582    6.7306 O   0  0  0  0  0  0  0  0  0  0  0  0
  1  2  1  6  0  0  0
  1  3  1  0  0  0  0
  1 10  1  0  0  0  0
  3  4  1  6  0  0  0
  3  5  1  0  0  0  0
  5  6  1  1  0  0  0
  5  7  1  0  0  0  0
  7  8  1  6  0  0  0
  7  9  1  0  0  0  0
  9 10  1  1  0  0  0
  9 11  1  0  0  0  0
 11 12  1  1  0  0  0
 11 13  1  0  0  0  0
 14 15  1  6  0  0  0
 14 16  1  0  0  0  0
 14 22  1  0  0  0  0
 16 17  1  0  0  0  0
 17 18  1  1  0  0  0
 17 19  1  0  0  0  0
 19  2  1  1  0  0  0
 19 20  1  0  0  0  0
 20 21  1  6  0  0  0
 20 22  1  0  0  0  0
 22 23  1  6  0  0  0
 24 23  1  1  0  0  0
 24 25  1  0  0  0  0
 24 34  1  0  0  0  0
 25 26  1  1  0  0  0
 25 27  1  0  0  0  0
 27 28  1  6  0  0  0
 27 30  1  0  0  0  0
 28 29  1  0  0  0  0
 30 31  1  6  0  0  0
 30 32  1  0  0  0  0
 30 33  1  0  0  0  0
 33 34  1  0  0  0  0
M  CHG  4   4   1  15   1  18   1  28   1
M  END
>  <CHROM.1>
-90.26423005,-85.27733050,51.27781665,106.66750484,177.87451088,155.36242469
-48.48518441,-29.92461621,176.99613262,54.85403044,140.63580052,-85.36230790
170.07454794,-23.39241277,61.10452975,-3.87464144,-10.02462802,10.29409856
-2.13890170,1.16396019,-1.10925612

>  <Name>
1mwl

>  <RI>
0

>  <Rbt.Current_Directory>
/home/itssahil/PROJECTS/Mol_Feturizer/New_Systems/rnas/1mwl

>  <Rbt.Executable>
rbdock ($Id: //depot/dev/client3/rdock/2013.1/src/exe/rbdock.cxx#4 $)

>  <Rbt.Library>
libRbt.so (2013.1, Build901 2013/11/27)

>  <Rbt.Parameter_File>
/export/apps/rDock/src/rDock_2013.1_src/data/scripts/dock_solv.prm

>  <Rbt.Receptor>
prm/blind_docking_60.prm

>  <SCORE>
-7.43094

>  <SCORE.INTER>
-13.9965

>  <SCORE.INTER.CONST>
1

>  <SCORE.INTER.POLAR>
-2.64621

>  <SCORE.INTER.ROT>
6

>  <SCORE.INTER.SOLV>
19.4347

>  <SCORE.INTER.VDW>
-14.5885

>  <SCORE.INTER.norm>
-0.411662

>  <SCORE.INTRA>
-9.82673

>  <SCORE.INTRA.DIHEDRAL>
-13.646

>  <SCORE.INTRA.DIHEDRAL.0>
42.0816

>  <SCORE.INTRA.POLAR>
-1.07354

>  <SCORE.INTRA.POLAR.0>
-0.254682

>  <SCORE.INTRA.REPUL>
0

>  <SCORE.INTRA.REPUL.0>
0

>  <SCORE.INTRA.SOLV>
4.06042

>  <SCORE.INTRA.SOLV.lig_0>
-109.803

>  <SCORE.INTRA.VDW>
-1.38387

>  <SCORE.INTRA.VDW.0>
0.32176

>  <SCORE.INTRA.norm>
-0.289022

>  <SCORE.RESTR>
16.3923

>  <SCORE.RESTR.CAVITY>
16.3923

>  <SCORE.RESTR.norm>
0.482127

>  <SCORE.SYSTEM>
0

>  <SCORE.SYSTEM.CONST>
0

>  <SCORE.SYSTEM.DIHEDRAL>
0

>  <SCORE.SYSTEM.SOLV>
0

>  <SCORE.SYSTEM.norm>
0

>  <SCORE.heavy>
34

>  <SCORE.norm>
-0.218557

>  <RMSD>
21.442

$$$$
1mwl
 OpenBabel11021811403D
libRbt.so/2013.1/901 2013/11/27
 34 36  0  0  0  0  0  0  0  0999 V2000
   -6.0290  -10.7332   12.3699 C   0  0  2  0  0  0  0  0  0  0  0  0
   -4.9805  -10.3666   11.5244 O   0  0  0  0  0  0  0  0  0  0  0  0
   -6.9002   -9.4675   12.6067 C   0  0  2  0  0  0  0  0  0  0  0  0
   -7.4048   -8.9551   11.3291 N   0  3  0  0  0  0  0  0  0  0  0  0
   -6.0929   -8.3821   13.3771 C   0  0  1  0  0  0  0  0  0  0  0  0
   -6.8548   -7.2841   13.6100 O   0  0  0  0  0  0  0  0  0  0  0  0
   -5.5820   -8.9999   14.7206 C   0  0  2  0  0  0  0  0  0  0  0  0
   -4.8359   -8.0159   15.4670 O   0  0  0  0  0  0  0  0  0  0  0  0
   -4.6975  -10.2483   14.3843 C   0  0  2  0  0  0  0  0  0  0  0  0
   -5.4799  -11.2396   13.6133 O   0  0  0  0  0  0  0  0  0  0  0  0
   -4.1367  -10.9832   15.6071 C   0  0  2  0  0  0  0  0  0  0  0  0
   -3.4381  -10.0894   16.4111 O   0  0  0  0  0  0  0  0  0  0  0  0
   -3.1467  -12.1071   15.2506 C   0  0  0  0  0  0  0  0  0  0  0  0
   -2.6489  -11.6909    8.1974 C   0  0  2  0  0  0  0  0  0  0  0  0
   -2.2326  -12.4356    6.9818 N   0  3  0  0  0  0  0  0  0  0  0  0
   -2.8335  -12.6615    9.4014 C   0  0  0  0  0  0  0  0  0  0  0  0
   -3.2917  -11.8665   10.6774 C   0  0  2  0  0  0  0  0  0  0  0  0
   -3.4528  -12.8302   11.8272 N   0  3  0  0  0  0  0  0  0  0  0  0
   -4.6276  -11.1091   10.3643 C   0  0  2  0  0  0  0  0  0  0  0  0
   -4.4096  -10.1475    9.1705 C   0  0  2  0  0  0  0  0  0  0  0  0
   -5.6233   -9.4988    8.8771 O   0  0  0  0  0  0  0  0  0  0  0  0
   -3.9731  -10.9496    7.9154 C   0  0  1  0  0  0  0  0  0  0  0  0
   -3.7816  -10.0494    6.8340 O   0  0  0  0  0  0  0  0  0  0  0  0
   -2.8069   -9.0506    6.9561 C   0  0  2  0  0  0  0  0  0  0  0  0
   -3.2341   -7.8757    6.0560 C   0  0  2  0  0  0  0  0  0  0  0  0
   -4.4773   -7.3806    6.5052 O   0  0  0  0  0  0  0  0  0  0  0  0
   -3.3359   -8.3752    4.5744 C   0  0  1  0  0  0  0  0  0  0  0  0
   -3.7728   -7.3060    3.6438 N   0  3  0  0  0  0  0  0  0  0  0  0
   -4.9573   -7.7408    2.8604 C   0  0  0  0  0  0  0  0  0  0  0  0
   -1.9446   -8.9402    4.1249 C   0  0  2  0  0  0  0  0  0  0  0  0
   -0.9458   -7.9064    4.2086 O   0  0  0  0  0  0  0  0  0  0  0  0
   -1.9667   -9.4175    2.7541 C   0  0  0  0  0  0  0  0  0  0  0  0
   -1.4850  -10.0685    5.0990 C   0  0  0  0  0  0  0  0  0  0  0  0
   -1.5046   -9.5803    6.5168 O   0  0  0  0  0  0  0  0  0  0  0  0
  1  2  1  6  0  0  0
  1  3  1  0  0  0  0
  1 10  1  0  0  0  0
  3  4  1  6  0  0  0
  3  5  1  0  0  0  0
  5  6  1  1  0  0  0
  5  7  1  0  0  0  0
  7  8  1  6  0  0  0
  7  9  1  0  0  0  0
  9 10  1  1  0  0  0
  9 11  1  0  0  0  0
 11 12  1  1  0  0  0
 11 13  1  0  0  0  0
 14 15  1  6  0  0  0
 14 16  1  0  0  0  0
 14 22  1  0  0  0  0
 16 17  1  0  0  0  0
 17 18  1  1  0  0  0
 17 19  1  0  0  0  0
 19  2  1  1  0  0  0
 19 20  1  0  0  0  0
 20 21  1  6  0  0  0
 20 22  1  0  0  0  0
 22 23  1  6  0  0  0
 24 23  1  6  0  0  0
 24 25  1  0  0  0  0
 24 34  1  0  0  0  0
 25 26  1  1  0  0  0
 25 27  1  0  0  0  0
 27 28  1  6  0  0  0
 27 30  1  0  0  0  0
 28 29  1  0  0  0  0
 30 31  1  1  0  0  0
 30 32  1  0  0  0  0
 30 33  1  0  0  0  0
 33 34  1  0  0  0  0
M  CHG  4   4   1  15   1  18   1  28   1
M  END
>  <CHROM.1>
-131.02937458,-106.60599116,75.20730876,-69.41372880,-106.63238668,-54.79507128
-65.01661334,-103.14754872,-137.42007417,-66.59986273,-58.95422735,-153.20195729
60.79156654,-6.03369280,167.25829237,-4.03049353,-9.78870383,9.53348714,1.92784614
-0.86850565,1.96888804

>  <Name>
1mwl

>  <RI>
0

>  <Rbt.Current_Directory>
/home/itssahil/PROJECTS/Mol_Feturizer/New_Systems/rnas/1mwl

>  <Rbt.Executable>
rbdock ($Id: //depot/dev/client3/rdock/2013.1/src/exe/rbdock.cxx#4 $)

>  <Rbt.Library>
libRbt.so (2013.1, Build901 2013/11/27)

>  <Rbt.Parameter_File>
/export/apps/rDock/src/rDock_2013.1_src/data/scripts/dock_solv.prm

>  <Rbt.Receptor>
prm/blind_docking_60.prm

>  <SCORE>
-19.802

>  <SCORE.INTER>
-28.4341

>  <SCORE.INTER.CONST>
1

>  <SCORE.INTER.POLAR>
-6.48001

>  <SCORE.INTER.ROT>
6

>  <SCORE.INTER.SOLV>
26.7052

>  <SCORE.INTER.VDW>
-13.8578

>  <SCORE.INTER.norm>
-0.836298

>  <SCORE.INTRA>
-8.59121

>  <SCORE.INTRA.DIHEDRAL>
-8.27568

>  <SCORE.INTRA.DIHEDRAL.0>
42.0816

>  <SCORE.INTRA.POLAR>
-1.63821

>  <SCORE.INTRA.POLAR.0>
-0.254682

>  <SCORE.INTRA.REPUL>
0

>  <SCORE.INTRA.REPUL.0>
0

>  <SCORE.INTRA.SOLV>
3.87069

>  <SCORE.INTRA.SOLV.lig_0>
-109.803

>  <SCORE.INTRA.VDW>
-0.81878

>  <SCORE.INTRA.VDW.0>
0.32176

>  <SCORE.INTRA.norm>
-0.252683

>  <SCORE.RESTR>
17.2233

>  <SCORE.RESTR.CAVITY>
17.2233

>  <SCORE.RESTR.norm>
0.506568

>  <SCORE.SYSTEM>
0

>  <SCORE.SYSTEM.CONST>
0

>  <SCORE.SYSTEM.DIHEDRAL>
0

>  <SCORE.SYSTEM.SOLV>
0

>  <SCORE.SYSTEM.norm>
0

>  <SCORE.heavy>
34

>  <SCORE.norm>
-0.582412

>  <RMSD>
21.504

$$$$
1mwl
 OpenBabel11021811403D
libRbt.so/2013.1/901 2013/11/27
 34 36  0  0  0  0  0  0  0  0999 V2000
   -5.3200  -11.2520   12.1571 C   0  0  2  0  0  0  0  0  0  0  0  0
   -4.3850  -10.7459   11.2525 O   0  0  0  0  0  0  0  0  0  0  0  0
   -6.6010  -10.3790   12.0397 C   0  0  2  0  0  0  0  0  0  0  0  0
   -7.1161  -10.4196   10.6677 N   0  3  0  0  0  0  0  0  0  0  0  0
   -6.3139   -8.9190   12.4976 C   0  0  1  0  0  0  0  0  0  0  0  0
   -7.4338   -8.1573   12.4222 O   0  0  0  0  0  0  0  0  0  0  0  0
   -5.7626   -8.9545   13.9613 C   0  0  2  0  0  0  0  0  0  0  0  0
   -5.4942   -7.6139   14.4228 O   0  0  0  0  0  0  0  0  0  0  0  0
   -4.4648   -9.8315   13.9783 C   0  0  2  0  0  0  0  0  0  0  0  0
   -4.7619  -11.1980   13.4949 O   0  0  0  0  0  0  0  0  0  0  0  0
   -3.8132   -9.9833   15.3575 C   0  0  2  0  0  0  0  0  0  0  0  0
   -4.6631  -10.6891   16.2019 O   0  0  0  0  0  0  0  0  0  0  0  0
   -3.5285   -8.6411   16.0561 C   0  0  0  0  0  0  0  0  0  0  0  0
   -2.4294  -11.5369    7.5363 C   0  0  2  0  0  0  0  0  0  0  0  0
   -2.1276  -12.1204    6.2045 N   0  3  0  0  0  0  0  0  0  0  0  0
   -2.3852  -12.6340    8.6411 C   0  0  0  0  0  0  0  0  0  0  0  0
   -2.7240  -12.0099   10.0432 C   0  0  2  0  0  0  0  0  0  0  0  0
   -2.6642  -13.0928   11.0921 N   0  3  0  0  0  0  0  0  0  0  0  0
   -4.1387  -11.3380    9.9834 C   0  0  2  0  0  0  0  0  0  0  0  0
   -4.1478  -10.2481    8.8838 C   0  0  2  0  0  0  0  0  0  0  0  0
   -5.4316   -9.6760    8.8164 O   0  0  0  0  0  0  0  0  0  0  0  0
   -3.8273  -10.8831    7.5041 C   0  0  1  0  0  0  0  0  0  0  0  0
   -3.8435   -9.8674    6.5119 O   0  0  0  0  0  0  0  0  0  0  0  0
   -3.2148   -8.6468    6.7899 C   0  0  2  0  0  0  0  0  0  0  0  0
   -3.7687   -7.6056    5.7989 C   0  0  2  0  0  0  0  0  0  0  0  0
   -5.1603   -7.4766    5.9972 O   0  0  0  0  0  0  0  0  0  0  0  0
   -3.4553   -8.0720    4.3363 C   0  0  1  0  0  0  0  0  0  0  0  0
   -3.9842   -7.1343    3.3160 N   0  3  0  0  0  0  0  0  0  0  0  0
   -5.2898   -7.6088    2.7904 C   0  0  0  0  0  0  0  0  0  0  0  0
   -1.9049   -8.2283    4.1668 C   0  0  2  0  0  0  0  0  0  0  0  0
   -1.2557   -6.9664    4.4108 O   0  0  0  0  0  0  0  0  0  0  0  0
   -1.5427   -8.6550    2.8274 C   0  0  0  0  0  0  0  0  0  0  0  0
   -1.3467   -9.2180    5.2355 C   0  0  0  0  0  0  0  0  0  0  0  0
   -1.7599   -8.7934    6.6131 O   0  0  0  0  0  0  0  0  0  0  0  0
  1  2  1  6  0  0  0
  1  3  1  0  0  0  0
  1 10  1  0  0  0  0
  3  4  1  6  0  0  0
  3  5  1  0  0  0  0
  5  6  1  1  0  0  0
  5  7  1  0  0  0  0
  7  8  1  6  0  0  0
  7  9  1  0  0  0  0
  9 10  1  1  0  0  0
  9 11  1  0  0  0  0
 11 12  1  1  0  0  0
 11 13  1  0  0  0  0
 14 15  1  6  0  0  0
 14 16  1  0  0  0  0
 14 22  1  0  0  0  0
 16 17  1  0  0  0  0
 17 18  1  1  0  0  0
 17 19  1  0  0  0  0
 19  2  1  1  0  0  0
 19 20  1  0  0  0  0
 20 21  1  6  0  0  0
 20 22  1  0  0  0  0
 22 23  1  6  0  0  0
 24 23  1  6  0  0  0
 24 25  1  0  0  0  0
 24 34  1  0  0  0  0
 25 26  1  6  0  0  0
 25 27  1  0  0  0  0
 27 28  1  6  0  0  0
 27 30  1  0  0  0  0
 28 29  1  0  0  0  0
 30 31  1  1  0  0  0
 30 32  1  0  0  0  0
 30 33  1  0  0  0  0
 33 34  1  0  0  0  0
M  CHG  4   4   1  15   1  18   1  28   1
M  END
>  <CHROM.1>
-100.53916333,-109.02189755,46.48689548,-71.38353229,84.81433419,65.40040772
176.19185638,160.00381035,48.03378182,-78.80290292,-76.13193358,-161.36726860
-51.43275827,22.42862651,-50.93982509,-4.02916820,-9.64777253,9.18213175
-1.92116511,0.87481019,-1.14407535

>  <Name>
1mwl

>  <RI>
0

>  <Rbt.Current_Directory>
/home/itssahil/PROJECTS/Mol_Feturizer/New_Systems/rnas/1mwl

>  <Rbt.Executable>
rbdock ($Id: //depot/dev/client3/rdock/2013.1/src/exe/rbdock.cxx#4 $)

>  <Rbt.Library>
libRbt.so (2013.1, Build901 2013/11/27)

>  <Rbt.Parameter_File>
/export/apps/rDock/src/rDock_2013.1_src/data/scripts/dock_solv.prm

>  <Rbt.Receptor>
prm/blind_docking_60.prm

>  <SCORE>
-26.4005

>  <SCORE.INTER>
-32.5363

>  <SCORE.INTER.CONST>
1

>  <SCORE.INTER.POLAR>
-5.35678

>  <SCORE.INTER.ROT>
6

>  <SCORE.INTER.SOLV>
24.8621

>  <SCORE.INTER.VDW>
-19.7223

>  <SCORE.INTER.norm>
-0.95695

>  <SCORE.INTRA>
-10.0368

>  <SCORE.INTRA.DIHEDRAL>
-17.0428

>  <SCORE.INTRA.DIHEDRAL.0>
42.0816

>  <SCORE.INTRA.POLAR>
-0.871991

>  <SCORE.INTRA.POLAR.0>
-0.254682

>  <SCORE.INTRA.REPUL>
0

>  <SCORE.INTRA.REPUL.0>
0

>  <SCORE.INTRA.SOLV>
3.6693

>  <SCORE.INTRA.SOLV.lig_0>
-109.803

>  <SCORE.INTRA.VDW>
-0.385222

>  <SCORE.INTRA.VDW.0>
0.32176

>  <SCORE.INTRA.norm>
-0.295199

>  <SCORE.RESTR>
16.1726

>  <SCORE.RESTR.CAVITY>
16.1726

>  <SCORE.RESTR.norm>
0.475664

>  <SCORE.SYSTEM>
0

>  <SCORE.SYSTEM.CONST>
0

>  <SCORE.SYSTEM.DIHEDRAL>
0

>  <SCORE.SYSTEM.SOLV>
0

>  <SCORE.SYSTEM.norm>
0

>  <SCORE.heavy>
34

>  <SCORE.norm>
-0.776484

>  <RMSD>
21.539

$$$$
1mwl
 OpenBabel11021811403D
libRbt.so/2013.1/901 2013/11/27
 34 36  0  0  0  0  0  0  0  0999 V2000
   -5.7747  -10.7670   11.7515 C   0  0  2  0  0  0  0  0  0  0  0  0
   -4.6476  -10.4595   10.9876 O   0  0  0  0  0  0  0  0  0  0  0  0
   -6.6122   -9.4647   11.8906 C   0  0  2  0  0  0  0  0  0  0  0  0
   -6.9911   -8.9637   10.5659 N   0  3  0  0  0  0  0  0  0  0  0  0
   -5.8283   -8.3924   12.7026 C   0  0  1  0  0  0  0  0  0  0  0  0
   -6.5632   -7.2617   12.8501 O   0  0  0  0  0  0  0  0  0  0  0  0
   -5.4526   -8.9974   14.0955 C   0  0  2  0  0  0  0  0  0  0  0  0
   -4.7317   -8.0247   14.8807 O   0  0  0  0  0  0  0  0  0  0  0  0
   -4.5930  -10.2853   13.8580 C   0  0  2  0  0  0  0  0  0  0  0  0
   -5.3485  -11.2645   13.0457 O   0  0  0  0  0  0  0  0  0  0  0  0
   -4.1624  -11.0120   15.1373 C   0  0  2  0  0  0  0  0  0  0  0  0
   -5.2778  -11.5542   15.7659 O   0  0  0  0  0  0  0  0  0  0  0  0
   -3.4888  -10.0922   16.1720 C   0  0  0  0  0  0  0  0  0  0  0  0
   -2.5242  -11.4298    7.4086 C   0  0  2  0  0  0  0  0  0  0  0  0
   -2.1442  -12.0998    6.1389 N   0  3  0  0  0  0  0  0  0  0  0  0
   -2.4553  -12.4295    8.6009 C   0  0  0  0  0  0  0  0  0  0  0  0
   -2.8768  -11.7156    9.9362 C   0  0  2  0  0  0  0  0  0  0  0  0
   -2.7912  -12.7049   11.0723 N   0  3  0  0  0  0  0  0  0  0  0  0
   -4.3246  -11.1364    9.7796 C   0  0  2  0  0  0  0  0  0  0  0  0
   -4.3583  -10.1413    8.5939 C   0  0  2  0  0  0  0  0  0  0  0  0
   -5.6697   -9.6541    8.4418 O   0  0  0  0  0  0  0  0  0  0  0  0
   -3.9552  -10.8653    7.2814 C   0  0  1  0  0  0  0  0  0  0  0  0
   -3.9954   -9.9358    6.2087 O   0  0  0  0  0  0  0  0  0  0  0  0
   -3.5664   -8.6226    6.4413 C   0  0  2  0  0  0  0  0  0  0  0  0
   -3.9895   -7.7762    5.2258 C   0  0  2  0  0  0  0  0  0  0  0  0
   -5.3965   -7.8013    5.1152 O   0  0  0  0  0  0  0  0  0  0  0  0
   -3.3188   -8.3599    3.9357 C   0  0  1  0  0  0  0  0  0  0  0  0
   -3.7009   -7.6156    2.7109 N   0  3  0  0  0  0  0  0  0  0  0  0
   -3.2113   -6.2147    2.7713 C   0  0  0  0  0  0  0  0  0  0  0  0
   -1.7612   -8.3386    4.1106 C   0  0  2  0  0  0  0  0  0  0  0  0
   -1.3090   -6.9860    4.3089 O   0  0  0  0  0  0  0  0  0  0  0  0
   -1.0740   -8.8634    2.9445 C   0  0  0  0  0  0  0  0  0  0  0  0
   -1.3560   -9.1251    5.3953 C   0  0  0  0  0  0  0  0  0  0  0  0
   -2.1009   -8.6046    6.5882 O   0  0  0  0  0  0  0  0  0  0  0  0
  1  2  1  6  0  0  0
  1  3  1  0  0  0  0
  1 10  1  0  0  0  0
  3  4  1  6  0  0  0
  3  5  1  0  0  0  0
  5  6  1  1  0  0  0
  5  7  1  0  0  0  0
  7  8  1  1  0  0  0
  7  9  1  0  0  0  0
  9 10  1  6  0  0  0
  9 11  1  0  0  0  0
 11 12  1  1  0  0  0
 11 13  1  0  0  0  0
 14 15  1  6  0  0  0
 14 16  1  0  0  0  0
 14 22  1  0  0  0  0
 16 17  1  0  0  0  0
 17 18  1  1  0  0  0
 17 19  1  0  0  0  0
 19  2  1  1  0  0  0
 19 20  1  0  0  0  0
 20 21  1  6  0  0  0
 20 22  1  0  0  0  0
 22 23  1  6  0  0  0
 24 23  1  6  0  0  0
 24 25  1  0  0  0  0
 24 34  1  0  0  0  0
 25 26  1  6  0  0  0
 25 27  1  0  0  0  0
 27 28  1  6  0  0  0
 27 30  1  0  0  0  0
 28 29  1  0  0  0  0
 30 31  1  1  0  0  0
 30 32  1  0  0  0  0
 30 33  1  0  0  0  0
 33 34  1  0  0  0  0
M  CHG  4   4   1  15   1  18   1  28   1
M  END
>  <CHROM.1>
-122.84931865,-123.88282447,-44.92472688,-108.07423176,87.51780130,67.40838525
66.19345063,50.21447351,37.92120012,-175.73523220,-82.23765219,-168.29970348
73.77196998,-176.06426700,47.23396034,-4.00438459,-9.59380361,9.02776807
1.96408331,-0.92725210,2.06667926

>  <Name>
1mwl

>  <RI>
0

>  <Rbt.Current_Directory>
/home/itssahil/PROJECTS/Mol_Feturizer/New_Systems/rnas/1mwl

>  <Rbt.Executable>
rbdock ($Id: //depot/dev/client3/rdock/2013.1/src/exe/rbdock.cxx#4 $)

>  <Rbt.Library>
libRbt.so (2013.1, Build901 2013/11/27)

>  <Rbt.Parameter_File>
/export/apps/rDock/src/rDock_2013.1_src/data/scripts/dock_solv.prm

>  <Rbt.Receptor>
prm/blind_docking_60.prm

>  <SCORE>
-16.8907

>  <SCORE.INTER>
-29.7291

>  <SCORE.INTER.CONST>
1

>  <SCORE.INTER.POLAR>
-5.23724

>  <SCORE.INTER.ROT>
6

>  <SCORE.INTER.SOLV>
24.3078

>  <SCORE.INTER.VDW>
-18.0646

>  <SCORE.INTER.norm>
-0.874387

>  <SCORE.INTRA>
-3.1471

>  <SCORE.INTRA.DIHEDRAL>
-11.3266

>  <SCORE.INTRA.DIHEDRAL.0>
42.0816

>  <SCORE.INTRA.POLAR>
-0.735293

>  <SCORE.INTRA.POLAR.0>
-0.254682

>  <SCORE.INTRA.REPUL>
0

>  <SCORE.INTRA.REPUL.0>
0

>  <SCORE.INTRA.SOLV>
1.20397

>  <SCORE.INTRA.SOLV.lig_0>
-109.803

>  <SCORE.INTRA.VDW>
4.41419

>  <SCORE.INTRA.VDW.0>
0.32176

>  <SCORE.INTRA.norm>
-0.0925619

>  <SCORE.RESTR>
15.9856

>  <SCORE.RESTR.CAVITY>
15.9856

>  <SCORE.RESTR.norm>
0.470164

>  <SCORE.SYSTEM>
0

>  <SCORE.SYSTEM.CONST>
0

>  <SCORE.SYSTEM.DIHEDRAL>
0

>  <SCORE.SYSTEM.SOLV>
0

>  <SCORE.SYSTEM.norm>
0

>  <SCORE.heavy>
34

>  <SCORE.norm>
-0.496785

>  <RMSD>
21.610

$$$$
1mwl
 OpenBabel11021811403D
libRbt.so/2013.1/901 2013/11/27
 34 36  0  0  0  0  0  0  0  0999 V2000
   -4.7675   -8.2221    7.8027 C   0  0  2  0  0  0  0  0  0  0  0  0
   -4.8969   -9.5549    8.1969 O   0  0  0  0  0  0  0  0  0  0  0  0
   -5.9131   -7.9212    6.7957 C   0  0  2  0  0  0  0  0  0  0  0  0
   -7.2152   -8.1633    7.4245 N   0  3  0  0  0  0  0  0  0  0  0  0
   -5.7402   -8.7662    5.4997 C   0  0  1  0  0  0  0  0  0  0  0  0
   -6.7221   -8.4902    4.6054 O   0  0  0  0  0  0  0  0  0  0  0  0
   -4.3315   -8.4628    4.8904 C   0  0  2  0  0  0  0  0  0  0  0  0
   -4.1407   -9.2236    3.6792 O   0  0  0  0  0  0  0  0  0  0  0  0
   -3.2445   -8.8176    5.9611 C   0  0  2  0  0  0  0  0  0  0  0  0
   -3.4639   -8.0320    7.1957 O   0  0  0  0  0  0  0  0  0  0  0  0
   -1.8008   -8.5516    5.5196 C   0  0  2  0  0  0  0  0  0  0  0  0
   -1.7072   -7.2794    4.9662 O   0  0  0  0  0  0  0  0  0  0  0  0
   -1.2955   -9.5286    4.4423 C   0  0  0  0  0  0  0  0  0  0  0  0
   -4.2547  -11.8468   11.7457 C   0  0  2  0  0  0  0  0  0  0  0  0
   -3.5885  -12.4403   12.9329 N   0  3  0  0  0  0  0  0  0  0  0  0
   -3.5543  -12.3080   10.4332 C   0  0  0  0  0  0  0  0  0  0  0  0
   -4.2550  -11.6601    9.1845 C   0  0  2  0  0  0  0  0  0  0  0  0
   -3.5617  -12.1320    7.9302 N   0  3  0  0  0  0  0  0  0  0  0  0
   -4.2126  -10.0991    9.3182 C   0  0  2  0  0  0  0  0  0  0  0  0
   -4.9230   -9.6723   10.6259 C   0  0  2  0  0  0  0  0  0  0  0  0
   -4.8488   -8.2727   10.7519 O   0  0  0  0  0  0  0  0  0  0  0  0
   -4.2097  -10.3074   11.8494 C   0  0  1  0  0  0  0  0  0  0  0  0
   -4.8755   -9.9010   13.0361 O   0  0  0  0  0  0  0  0  0  0  0  0
   -4.6920  -10.6565   14.2015 C   0  0  2  0  0  0  0  0  0  0  0  0
   -5.9575  -10.4902   15.0639 C   0  0  2  0  0  0  0  0  0  0  0  0
   -7.0694  -10.9857   14.3493 O   0  0  0  0  0  0  0  0  0  0  0  0
   -6.1478   -8.9736   15.4085 C   0  0  1  0  0  0  0  0  0  0  0  0
   -7.3667   -8.7236   16.2159 N   0  3  0  0  0  0  0  0  0  0  0  0
   -7.2980   -9.4466   17.5116 C   0  0  0  0  0  0  0  0  0  0  0  0
   -4.8823   -8.4573   16.1762 C   0  0  2  0  0  0  0  0  0  0  0  0
   -4.7118   -9.2026   17.3964 O   0  0  0  0  0  0  0  0  0  0  0  0
   -4.9947   -7.0545   16.5321 C   0  0  0  0  0  0  0  0  0  0  0  0
   -3.5994   -8.7143   15.3270 C   0  0  0  0  0  0  0  0  0  0  0  0
   -3.5121  -10.1573   14.9283 O   0  0  0  0  0  0  0  0  0  0  0  0
  1  2  1  6  0  0  0
  1  3  1  0  0  0  0
  1 10  1  0  0  0  0
  3  4  1  1  0  0  0
  3  5  1  0  0  0  0
  5  6  1  6  0  0  0
  5  7  1  0  0  0  0
  7  8  1  6  0  0  0
  7  9  1  0  0  0  0
  9 10  1  1  0  0  0
  9 11  1  0  0  0  0
 11 12  1  6  0  0  0
 11 13  1  0  0  0  0
 14 15  1  1  0  0  0
 14 16  1  0  0  0  0
 14 22  1  0  0  0  0
 16 17  1  0  0  0  0
 17 18  1  6  0  0  0
 17 19  1  0  0  0  0
 19  2  1  6  0  0  0
 19 20  1  0  0  0  0
 20 21  1  1  0  0  0
 20 22  1  0  0  0  0
 22 23  1  1  0  0  0
 24 23  1  6  0  0  0
 24 25  1  0  0  0  0
 24 34  1  0  0  0  0
 25 26  1  6  0  0  0
 25 27  1  0  0  0  0
 27 28  1  1  0  0  0
 27 30  1  0  0  0  0
 28 29  1  0  0  0  0
 30 31  1  1  0  0  0
 30 32  1  0  0  0  0
 30 33  1  0  0  0  0
 33 34  1  0  0  0  0
M  CHG  4   4   1  15   1  18   1  28   1
M  END
>  <CHROM.1>
-165.90783573,-163.08779514,177.93152287,-168.93776334,58.41568779,47.95346379
45.60284166,-139.82697108,-35.86458431,-172.68347616,39.98149782,-152.13654588
72.71562397,-179.14272035,-176.68456276,-4.65707566,-9.48327926,10.50989261
1.37175509,0.74594137,-1.36648909

>  <Name>
1mwl

>  <RI>
0

>  <Rbt.Current_Directory>
/home/itssahil/PROJECTS/Mol_Feturizer/New_Systems/rnas/1mwl

>  <Rbt.Executable>
rbdock ($Id: //depot/dev/client3/rdock/2013.1/src/exe/rbdock.cxx#4 $)

>  <Rbt.Library>
libRbt.so (2013.1, Build901 2013/11/27)

>  <Rbt.Parameter_File>
/export/apps/rDock/src/rDock_2013.1_src/data/scripts/dock_solv.prm

>  <Rbt.Receptor>
prm/blind_docking_60.prm

>  <SCORE>
-7.92891

>  <SCORE.INTER>
-19.1083

>  <SCORE.INTER.CONST>
1

>  <SCORE.INTER.POLAR>
-4.54658

>  <SCORE.INTER.ROT>
6

>  <SCORE.INTER.SOLV>
24.4742

>  <SCORE.INTER.VDW>
-13.3417

>  <SCORE.INTER.norm>
-0.562008

>  <SCORE.INTRA>
-4.90747

>  <SCORE.INTRA.DIHEDRAL>
-27.5694

>  <SCORE.INTRA.DIHEDRAL.0>
42.0816

>  <SCORE.INTRA.POLAR>
-0.125066

>  <SCORE.INTRA.POLAR.0>
-0.254682

>  <SCORE.INTRA.REPUL>
0

>  <SCORE.INTRA.REPUL.0>
0

>  <SCORE.INTRA.SOLV>
-1.2761

>  <SCORE.INTRA.SOLV.lig_0>
-109.803

>  <SCORE.INTRA.VDW>
9.94053

>  <SCORE.INTRA.VDW.0>
0.32176

>  <SCORE.INTRA.norm>
-0.144337

>  <SCORE.RESTR>
16.0868

>  <SCORE.RESTR.CAVITY>
16.0868

>  <SCORE.RESTR.norm>
0.473142

>  <SCORE.SYSTEM>
0

>  <SCORE.SYSTEM.CONST>
0

>  <SCORE.SYSTEM.DIHEDRAL>
0

>  <SCORE.SYSTEM.SOLV>
0

>  <SCORE.SYSTEM.norm>
0

>  <SCORE.heavy>
34

>  <SCORE.norm>
-0.233203

>  <RMSD>
21.657

$$$$
1mwl
 OpenBabel11021811403D
libRbt.so/2013.1/901 2013/11/27
 34 36  0  0  0  0  0  0  0  0999 V2000
   -4.7535  -11.2610   13.6293 C   0  0  2  0  0  0  0  0  0  0  0  0
   -3.9207  -10.7707   12.6220 O   0  0  0  0  0  0  0  0  0  0  0  0
   -6.2174  -10.9263   13.2269 C   0  0  2  0  0  0  0  0  0  0  0  0
   -6.5374  -11.5354   11.9323 N   0  3  0  0  0  0  0  0  0  0  0  0
   -6.4412   -9.3859   13.2028 C   0  0  1  0  0  0  0  0  0  0  0  0
   -7.7236   -9.0864   12.8773 O   0  0  0  0  0  0  0  0  0  0  0  0
   -6.0744   -8.8063   14.6089 C   0  0  2  0  0  0  0  0  0  0  0  0
   -6.2800   -7.3782   14.6258 O   0  0  0  0  0  0  0  0  0  0  0  0
   -4.5820   -9.1689   14.9176 C   0  0  2  0  0  0  0  0  0  0  0  0
   -4.3932  -10.6362   14.8878 O   0  0  0  0  0  0  0  0  0  0  0  0
   -4.0753   -8.6864   16.2815 C   0  0  2  0  0  0  0  0  0  0  0  0
   -2.6849   -8.6754   16.2874 O   0  0  0  0  0  0  0  0  0  0  0  0
   -4.5043   -9.5885   17.4530 C   0  0  0  0  0  0  0  0  0  0  0  0
   -2.3583  -12.0299    8.8493 C   0  0  2  0  0  0  0  0  0  0  0  0
   -2.2882  -12.5737    7.4692 N   0  3  0  0  0  0  0  0  0  0  0  0
   -2.8451  -13.1220    9.8475 C   0  0  0  0  0  0  0  0  0  0  0  0
   -2.9335  -12.5315   11.3013 C   0  0  2  0  0  0  0  0  0  0  0  0
   -3.3977  -13.6132   12.2453 N   0  3  0  0  0  0  0  0  0  0  0  0
   -3.9067  -11.3031   11.3036 C   0  0  2  0  0  0  0  0  0  0  0  0
   -3.3919  -10.2332   10.3098 C   0  0  2  0  0  0  0  0  0  0  0  0
   -4.2911   -9.1510   10.2953 O   0  0  0  0  0  0  0  0  0  0  0  0
   -3.3256  -10.8273    8.8773 C   0  0  1  0  0  0  0  0  0  0  0  0
   -2.8541   -9.8296    7.9836 O   0  0  0  0  0  0  0  0  0  0  0  0
   -3.7811   -9.1616    7.1731 C   0  0  2  0  0  0  0  0  0  0  0  0
   -4.0163  -10.0334    5.9250 C   0  0  2  0  0  0  0  0  0  0  0  0
   -4.5492  -11.2773    6.3266 O   0  0  0  0  0  0  0  0  0  0  0  0
   -2.6565  -10.2273    5.1711 C   0  0  1  0  0  0  0  0  0  0  0  0
   -2.7919  -11.0839    3.9678 N   0  3  0  0  0  0  0  0  0  0  0  0
   -1.5672  -11.8982    3.7601 C   0  0  0  0  0  0  0  0  0  0  0  0
   -2.0870   -8.8238    4.7673 C   0  0  2  0  0  0  0  0  0  0  0  0
   -3.0174   -8.1487    3.9001 O   0  0  0  0  0  0  0  0  0  0  0  0
   -0.8253   -8.9306    4.0574 C   0  0  0  0  0  0  0  0  0  0  0  0
   -1.9388   -7.9224    6.0317 C   0  0  0  0  0  0  0  0  0  0  0  0
   -3.2352   -7.8506    6.7821 O   0  0  0  0  0  0  0  0  0  0  0  0
  1  2  1  6  0  0  0
  1  3  1  0  0  0  0
  1 10  1  0  0  0  0
  3  4  1  6  0  0  0
  3  5  1  0  0  0  0
  5  6  1  1  0  0  0
  5  7  1  0  0  0  0
  7  8  1  6  0  0  0
  7  9  1  0  0  0  0
  9 10  1  1  0  0  0
  9 11  1  0  0  0  0
 11 12  1  6  0  0  0
 11 13  1  0  0  0  0
 14 15  1  6  0  0  0
 14 16  1  0  0  0  0
 14 22  1  0  0  0  0
 16 17  1  0  0  0  0
 17 18  1  1  0  0  0
 17 19  1  0  0  0  0
 19  2  1  1  0  0  0
 19 20  1  0  0  0  0
 20 21  1  6  0  0  0
 20 22  1  0  0  0  0
 22 23  1  6  0  0  0
 24 23  1  1  0  0  0
 24 25  1  0  0  0  0
 24 34  1  0  0  0  0
 25 26  1  1  0  0  0
 25 27  1  0  0  0  0
 27 28  1  6  0  0  0
 27 30  1  0  0  0  0
 28 29  1  0  0  0  0
 30 31  1  6  0  0  0
 30 32  1  0  0  0  0
 30 33  1  0  0  0  0
 33 34  1  0  0  0  0
M  CHG  4   4   1  15   1  18   1  28   1
M  END
>  <CHROM.1>
-67.00761534,-85.18000207,-85.36361189,-59.97053033,-34.14952682,-161.42565450
115.88786632,-30.20565627,-64.36746897,54.84321272,138.24479308,-84.36801025
169.17343831,-25.86184440,68.51408029,-3.85329102,-10.18862018,10.07730413
-2.38182382,1.22224347,-0.82353961

>  <Name>
1mwl

>  <RI>
0

>  <Rbt.Current_Directory>
/home/itssahil/PROJECTS/Mol_Feturizer/New_Systems/rnas/1mwl

>  <Rbt.Executable>
rbdock ($Id: //depot/dev/client3/rdock/2013.1/src/exe/rbdock.cxx#4 $)

>  <Rbt.Library>
libRbt.so (2013.1, Build901 2013/11/27)

>  <Rbt.Parameter_File>
/export/apps/rDock/src/rDock_2013.1_src/data/scripts/dock_solv.prm

>  <Rbt.Receptor>
prm/blind_docking_60.prm

>  <SCORE>
0.426374

>  <SCORE.INTER>
-10.5583

>  <SCORE.INTER.CONST>
1

>  <SCORE.INTER.POLAR>
-2.65813

>  <SCORE.INTER.ROT>
6

>  <SCORE.INTER.SOLV>
17.9206

>  <SCORE.INTER.VDW>
-11.752

>  <SCORE.INTER.norm>
-0.310539

>  <SCORE.INTRA>
-7.56703

>  <SCORE.INTRA.DIHEDRAL>
-13.2478

>  <SCORE.INTRA.DIHEDRAL.0>
42.0816

>  <SCORE.INTRA.POLAR>
-0.921968

>  <SCORE.INTRA.POLAR.0>
-0.254682

>  <SCORE.INTRA.REPUL>
0.0611014

>  <SCORE.INTRA.REPUL.0>
0

>  <SCORE.INTRA.SOLV>
7.29471

>  <SCORE.INTRA.SOLV.lig_0>
-109.803

>  <SCORE.INTRA.VDW>
-1.7613

>  <SCORE.INTRA.VDW.0>
0.32176

>  <SCORE.INTRA.norm>
-0.22256

>  <SCORE.RESTR>
18.5517

>  <SCORE.RESTR.CAVITY>
18.5517

>  <SCORE.RESTR.norm>
0.545639

>  <SCORE.SYSTEM>
0

>  <SCORE.SYSTEM.CONST>
0

>  <SCORE.SYSTEM.DIHEDRAL>
0

>  <SCORE.SYSTEM.SOLV>
0

>  <SCORE.SYSTEM.norm>
0

>  <SCORE.heavy>
34

>  <SCORE.norm>
0.0125404

>  <RMSD>
21.675

$$$$
1mwl
 OpenBabel11021811403D
libRbt.so/2013.1/901 2013/11/27
 34 36  0  0  0  0  0  0  0  0999 V2000
   -5.6602  -10.7916   12.0802 C   0  0  2  0  0  0  0  0  0  0  0  0
   -4.4551  -10.6664   11.3869 O   0  0  0  0  0  0  0  0  0  0  0  0
   -5.9320   -9.4352   12.7897 C   0  0  2  0  0  0  0  0  0  0  0  0
   -5.9990   -8.3532   11.8028 N   0  3  0  0  0  0  0  0  0  0  0  0
   -4.8473   -9.1544   13.8705 C   0  0  1  0  0  0  0  0  0  0  0  0
   -5.0922   -7.9844   14.5118 O   0  0  0  0  0  0  0  0  0  0  0  0
   -4.8282  -10.3490   14.8805 C   0  0  2  0  0  0  0  0  0  0  0  0
   -3.8383  -10.1170   15.9045 O   0  0  0  0  0  0  0  0  0  0  0  0
   -4.5241  -11.6632   14.0840 C   0  0  2  0  0  0  0  0  0  0  0  0
   -5.5464  -11.8768   13.0359 O   0  0  0  0  0  0  0  0  0  0  0  0
   -4.4944  -12.9362   14.9375 C   0  0  2  0  0  0  0  0  0  0  0  0
   -3.5467  -12.8020   15.9460 O   0  0  0  0  0  0  0  0  0  0  0  0
   -4.1072  -14.1995   14.1473 C   0  0  0  0  0  0  0  0  0  0  0  0
   -2.6021  -11.4104    7.6090 C   0  0  2  0  0  0  0  0  0  0  0  0
   -2.3254  -11.9917    6.2708 N   0  3  0  0  0  0  0  0  0  0  0  0
   -2.4785  -12.4973    8.7178 C   0  0  0  0  0  0  0  0  0  0  0  0
   -2.7912  -11.8763   10.1273 C   0  0  2  0  0  0  0  0  0  0  0  0
   -2.6545  -12.9489   11.1798 N   0  3  0  0  0  0  0  0  0  0  0  0
   -4.2312  -11.2579   10.1134 C   0  0  2  0  0  0  0  0  0  0  0  0
   -4.3195  -10.1769    9.0085 C   0  0  2  0  0  0  0  0  0  0  0  0
   -5.6254   -9.6534    8.9830 O   0  0  0  0  0  0  0  0  0  0  0  0
   -4.0238  -10.8093    7.6222 C   0  0  1  0  0  0  0  0  0  0  0  0
   -4.1125   -9.8019    6.6253 O   0  0  0  0  0  0  0  0  0  0  0  0
   -3.5856   -8.5339    6.9029 C   0  0  2  0  0  0  0  0  0  0  0  0
   -4.0835   -7.5760    5.8041 C   0  0  2  0  0  0  0  0  0  0  0  0
   -5.4934   -7.5216    5.8456 O   0  0  0  0  0  0  0  0  0  0  0  0
   -3.5867   -8.0916    4.4104 C   0  0  1  0  0  0  0  0  0  0  0  0
   -4.0508   -7.2367    3.2907 N   0  3  0  0  0  0  0  0  0  0  0  0
   -5.3155   -7.7621    2.7156 C   0  0  0  0  0  0  0  0  0  0  0  0
   -2.0208   -8.1624    4.4160 C   0  0  2  0  0  0  0  0  0  0  0  0
   -1.4721   -6.8536    4.6599 O   0  0  0  0  0  0  0  0  0  0  0  0
   -1.4913   -8.6296    3.1477 C   0  0  0  0  0  0  0  0  0  0  0  0
   -1.5300   -9.0650    5.5896 C   0  0  0  0  0  0  0  0  0  0  0  0
   -2.1143   -8.6012    6.8905 O   0  0  0  0  0  0  0  0  0  0  0  0
  1  2  1  1  0  0  0
  1  3  1  0  0  0  0
  1 10  1  0  0  0  0
  3  4  1  6  0  0  0
  3  5  1  0  0  0  0
  5  6  1  1  0  0  0
  5  7  1  0  0  0  0
  7  8  1  1  0  0  0
  7  9  1  0  0  0  0
  9 10  1  6  0  0  0
  9 11  1  0  0  0  0
 11 12  1  1  0  0  0
 11 13  1  0  0  0  0
 14 15  1  6  0  0  0
 14 16  1  0  0  0  0
 14 22  1  0  0  0  0
 16 17  1  0  0  0  0
 17 18  1  1  0  0  0
 17 19  1  0  0  0  0
 19  2  1  1  0  0  0
 19 20  1  0  0  0  0
 20 21  1  6  0  0  0
 20 22  1  0  0  0  0
 22 23  1  6  0  0  0
 24 23  1  6  0  0  0
 24 25  1  0  0  0  0
 24 34  1  0  0  0  0
 25 26  1  6  0  0  0
 25 27  1  0  0  0  0
 27 28  1  6  0  0  0
 27 30  1  0  0  0  0
 28 29  1  0  0  0  0
 30 31  1  1  0  0  0
 30 32  1  0  0  0  0
 30 33  1  0  0  0  0
 33 34  1  0  0  0  0
M  CHG  4   4   1  15   1  18   1  28   1
M  END
>  <CHROM.1>
-142.62864161,-137.46756394,-134.23437167,57.78194734,-47.57888067,-57.63905745
64.39052148,32.92607563,50.59194338,-59.33145987,-79.61779012,-167.82101626
173.37851195,26.34755149,45.66269291,-3.91196518,-10.00062948,9.40796820
1.82052362,-1.00197368,2.08629365

>  <Name>
1mwl

>  <RI>
0

>  <Rbt.Current_Directory>
/home/itssahil/PROJECTS/Mol_Feturizer/New_Systems/rnas/1mwl

>  <Rbt.Executable>
rbdock ($Id: //depot/dev/client3/rdock/2013.1/src/exe/rbdock.cxx#4 $)

>  <Rbt.Library>
libRbt.so (2013.1, Build901 2013/11/27)

>  <Rbt.Parameter_File>
/export/apps/rDock/src/rDock_2013.1_src/data/scripts/dock_solv.prm

>  <Rbt.Receptor>
prm/blind_docking_60.prm

>  <SCORE>
-30.1694

>  <SCORE.INTER>
-36.0344

>  <SCORE.INTER.CONST>
1

>  <SCORE.INTER.POLAR>
-7.14446

>  <SCORE.INTER.ROT>
6

>  <SCORE.INTER.SOLV>
27.7044

>  <SCORE.INTER.VDW>
-17.0429

>  <SCORE.INTER.norm>
-1.05983

>  <SCORE.INTRA>
-14.8984

>  <SCORE.INTRA.DIHEDRAL>
-19.9087

>  <SCORE.INTRA.DIHEDRAL.0>
42.0816

>  <SCORE.INTRA.POLAR>
-1.28705

>  <SCORE.INTRA.POLAR.0>
-0.254682

>  <SCORE.INTRA.REPUL>
0

>  <SCORE.INTRA.REPUL.0>
0

>  <SCORE.INTRA.SOLV>
2.84199

>  <SCORE.INTRA.SOLV.lig_0>
-109.803

>  <SCORE.INTRA.VDW>
-1.98906

>  <SCORE.INTRA.VDW.0>
0.32176

>  <SCORE.INTRA.norm>
-0.438188

>  <SCORE.RESTR>
20.7634

>  <SCORE.RESTR.CAVITY>
20.7634

>  <SCORE.RESTR.norm>
0.610688

>  <SCORE.SYSTEM>
0

>  <SCORE.SYSTEM.CONST>
0

>  <SCORE.SYSTEM.DIHEDRAL>
0

>  <SCORE.SYSTEM.SOLV>
0

>  <SCORE.SYSTEM.norm>
0

>  <SCORE.heavy>
34

>  <SCORE.norm>
-0.887335

>  <RMSD>
21.735

$$$$
1mwl
 OpenBabel11021811403D
libRbt.so/2013.1/901 2013/11/27
 34 36  0  0  0  0  0  0  0  0999 V2000
   -5.4833  -11.0139   12.9330 C   0  0  2  0  0  0  0  0  0  0  0  0
   -4.5906  -10.5178   11.9814 O   0  0  0  0  0  0  0  0  0  0  0  0
   -6.2547   -9.8008   13.5246 C   0  0  2  0  0  0  0  0  0  0  0  0
   -6.9615   -9.0832   12.4593 N   0  3  0  0  0  0  0  0  0  0  0  0
   -5.2865   -8.8602   14.3001 C   0  0  1  0  0  0  0  0  0  0  0  0
   -5.9569   -7.8123   14.8411 O   0  0  0  0  0  0  0  0  0  0  0  0
   -4.5654   -9.6926   15.4112 C   0  0  2  0  0  0  0  0  0  0  0  0
   -3.6651   -8.8479   16.1582 O   0  0  0  0  0  0  0  0  0  0  0  0
   -3.7980  -10.8724   14.7234 C   0  0  2  0  0  0  0  0  0  0  0  0
   -4.7386  -11.7202   13.9581 O   0  0  0  0  0  0  0  0  0  0  0  0
   -3.0533  -11.8008   15.6896 C   0  0  2  0  0  0  0  0  0  0  0  0
   -2.6815  -12.9653   15.0272 O   0  0  0  0  0  0  0  0  0  0  0  0
   -3.9010  -12.2431   16.8963 C   0  0  0  0  0  0  0  0  0  0  0  0
   -2.2372  -12.2664    8.8728 C   0  0  2  0  0  0  0  0  0  0  0  0
   -1.8668  -12.9732    7.6203 N   0  3  0  0  0  0  0  0  0  0  0  0
   -3.0157  -13.2159    9.8312 C   0  0  0  0  0  0  0  0  0  0  0  0
   -3.4189  -12.4535   11.1451 C   0  0  2  0  0  0  0  0  0  0  0  0
   -4.1619  -13.3997   12.0558 N   0  3  0  0  0  0  0  0  0  0  0  0
   -4.2888  -11.2039   10.7732 C   0  0  2  0  0  0  0  0  0  0  0  0
   -3.4855  -10.2770    9.8284 C   0  0  2  0  0  0  0  0  0  0  0  0
   -4.2883   -9.1768    9.4744 O   0  0  0  0  0  0  0  0  0  0  0  0
   -3.1091  -11.0397    8.5300 C   0  0  1  0  0  0  0  0  0  0  0  0
   -2.3763  -10.1710    7.6785 O   0  0  0  0  0  0  0  0  0  0  0  0
   -2.9736   -8.9724    7.2671 C   0  0  2  0  0  0  0  0  0  0  0  0
   -3.9186   -9.3051    6.0970 C   0  0  2  0  0  0  0  0  0  0  0  0
   -4.9137  -10.1984    6.5491 O   0  0  0  0  0  0  0  0  0  0  0  0
   -3.0873   -9.9409    4.9310 C   0  0  1  0  0  0  0  0  0  0  0  0
   -3.9323  -10.3189    3.7720 N   0  3  0  0  0  0  0  0  0  0  0  0
   -3.4760  -11.6043    3.1841 C   0  0  0  0  0  0  0  0  0  0  0  0
   -1.9789   -8.9294    4.4778 C   0  0  2  0  0  0  0  0  0  0  0  0
   -2.5885   -7.7099    4.0145 O   0  0  0  0  0  0  0  0  0  0  0  0
   -1.1716   -9.4552    3.3919 C   0  0  0  0  0  0  0  0  0  0  0  0
   -1.0855   -8.5341    5.6937 C   0  0  0  0  0  0  0  0  0  0  0  0
   -1.9301   -8.0310    6.8262 O   0  0  0  0  0  0  0  0  0  0  0  0
  1  2  1  6  0  0  0
  1  3  1  0  0  0  0
  1 10  1  0  0  0  0
  3  4  1  6  0  0  0
  3  5  1  0  0  0  0
  5  6  1  1  0  0  0
  5  7  1  0  0  0  0
  7  8  1  6  0  0  0
  7  9  1  0  0  0  0
  9 10  1  1  0  0  0
  9 11  1  0  0  0  0
 11 12  1  6  0  0  0
 11 13  1  0  0  0  0
 14 15  1  6  0  0  0
 14 16  1  0  0  0  0
 14 22  1  0  0  0  0
 16 17  1  0  0  0  0
 17 18  1  1  0  0  0
 17 19  1  0  0  0  0
 19  2  1  1  0  0  0
 19 20  1  0  0  0  0
 20 21  1  6  0  0  0
 20 22  1  0  0  0  0
 22 23  1  6  0  0  0
 24 23  1  6  0  0  0
 24 25  1  0  0  0  0
 24 34  1  0  0  0  0
 25 26  1  1  0  0  0
 25 27  1  0  0  0  0
 27 28  1  6  0  0  0
 27 30  1  0  0  0  0
 28 29  1  0  0  0  0
 30 31  1  6  0  0  0
 30 32  1  0  0  0  0
 30 33  1  0  0  0  0
 33 34  1  0  0  0  0
M  CHG  4   4   1  15   1  18   1  28   1
M  END
>  <CHROM.1>
-143.34661247,-71.51899044,-59.34562009,-59.65584574,-87.32690404,166.05095388
-65.78371436,-170.93453445,-71.82990671,-74.77547909,-178.57199768,-80.58076604
175.79010029,-21.18351067,177.68906008,-3.67620252,-10.41527056,9.99506460
2.02411346,-1.14480330,2.09019765

>  <Name>
1mwl

>  <RI>
0

>  <Rbt.Current_Directory>
/home/itssahil/PROJECTS/Mol_Feturizer/New_Systems/rnas/1mwl

>  <Rbt.Executable>
rbdock ($Id: //depot/dev/client3/rdock/2013.1/src/exe/rbdock.cxx#4 $)

>  <Rbt.Library>
libRbt.so (2013.1, Build901 2013/11/27)

>  <Rbt.Parameter_File>
/export/apps/rDock/src/rDock_2013.1_src/data/scripts/dock_solv.prm

>  <Rbt.Receptor>
prm/blind_docking_60.prm

>  <SCORE>
-7.31956

>  <SCORE.INTER>
-14.6774

>  <SCORE.INTER.CONST>
1

>  <SCORE.INTER.POLAR>
-3.06779

>  <SCORE.INTER.ROT>
6

>  <SCORE.INTER.SOLV>
18.9625

>  <SCORE.INTER.VDW>
-13.4798

>  <SCORE.INTER.norm>
-0.431688

>  <SCORE.INTRA>
-14.3871

>  <SCORE.INTRA.DIHEDRAL>
-26.4574

>  <SCORE.INTRA.DIHEDRAL.0>
42.0816

>  <SCORE.INTRA.POLAR>
-1.19408

>  <SCORE.INTRA.POLAR.0>
-0.254682

>  <SCORE.INTRA.REPUL>
0

>  <SCORE.INTRA.REPUL.0>
0

>  <SCORE.INTRA.SOLV>
2.06515

>  <SCORE.INTRA.SOLV.lig_0>
-109.803

>  <SCORE.INTRA.VDW>
1.86887

>  <SCORE.INTRA.VDW.0>
0.32176

>  <SCORE.INTRA.norm>
-0.423151

>  <SCORE.RESTR>
21.745

>  <SCORE.RESTR.CAVITY>
21.745

>  <SCORE.RESTR.norm>
0.639558

>  <SCORE.SYSTEM>
0

>  <SCORE.SYSTEM.CONST>
0

>  <SCORE.SYSTEM.DIHEDRAL>
0

>  <SCORE.SYSTEM.SOLV>
0

>  <SCORE.SYSTEM.norm>
0

>  <SCORE.heavy>
34

>  <SCORE.norm>
-0.215281

>  <RMSD>
21.902

$$$$
1mwl
 OpenBabel11021811403D
libRbt.so/2013.1/901 2013/11/27
 34 36  0  0  0  0  0  0  0  0999 V2000
   -5.1227  -11.3906   12.4535 C   0  0  2  0  0  0  0  0  0  0  0  0
   -4.0022  -11.1139   11.6682 O   0  0  0  0  0  0  0  0  0  0  0  0
   -6.1021  -10.1923   12.3056 C   0  0  2  0  0  0  0  0  0  0  0  0
   -6.4729  -10.0135   10.8985 N   0  3  0  0  0  0  0  0  0  0  0  0
   -5.4768   -8.8962   12.8994 C   0  0  1  0  0  0  0  0  0  0  0  0
   -6.3360   -7.8515   12.7970 O   0  0  0  0  0  0  0  0  0  0  0  0
   -5.1010   -9.1630   14.3944 C   0  0  2  0  0  0  0  0  0  0  0  0
   -4.5262   -7.9764   14.9807 O   0  0  0  0  0  0  0  0  0  0  0  0
   -4.0968  -10.3643   14.4435 C   0  0  2  0  0  0  0  0  0  0  0  0
   -4.7039  -11.5667   13.8310 O   0  0  0  0  0  0  0  0  0  0  0  0
   -3.6481  -10.7659   15.8532 C   0  0  2  0  0  0  0  0  0  0  0  0
   -2.9386  -11.9603   15.7964 O   0  0  0  0  0  0  0  0  0  0  0  0
   -4.8160  -11.0041   16.8276 C   0  0  0  0  0  0  0  0  0  0  0  0
   -1.9369  -12.5854    8.2289 C   0  0  2  0  0  0  0  0  0  0  0  0
   -1.6808  -13.1570    6.8824 N   0  3  0  0  0  0  0  0  0  0  0  0
   -2.6980  -13.6069    9.1252 C   0  0  0  0  0  0  0  0  0  0  0  0
   -2.9802  -12.9858   10.5410 C   0  0  2  0  0  0  0  0  0  0  0  0
   -3.7087  -14.0001   11.3879 N   0  3  0  0  0  0  0  0  0  0  0  0
   -3.8108  -11.6674   10.3726 C   0  0  2  0  0  0  0  0  0  0  0  0
   -3.0252  -10.6708    9.4856 C   0  0  2  0  0  0  0  0  0  0  0  0
   -3.7949   -9.5054    9.3136 O   0  0  0  0  0  0  0  0  0  0  0  0
   -2.7687  -11.2929    8.0869 C   0  0  1  0  0  0  0  0  0  0  0  0
   -2.0503  -10.3620    7.2907 O   0  0  0  0  0  0  0  0  0  0  0  0
   -2.4783   -9.0283    7.2659 C   0  0  2  0  0  0  0  0  0  0  0  0
   -3.7033   -8.9534    6.3350 C   0  0  2  0  0  0  0  0  0  0  0  0
   -4.7292   -9.7696    6.8583 O   0  0  0  0  0  0  0  0  0  0  0  0
   -3.2882   -9.4309    4.9016 C   0  0  1  0  0  0  0  0  0  0  0  0
   -4.4239   -9.4168    3.9476 N   0  3  0  0  0  0  0  0  0  0  0  0
   -5.0557   -8.0734    3.9001 C   0  0  0  0  0  0  0  0  0  0  0  0
   -2.1312   -8.5171    4.3694 C   0  0  2  0  0  0  0  0  0  0  0  0
   -2.5782   -7.1499    4.3022 O   0  0  0  0  0  0  0  0  0  0  0  0
   -1.7000   -8.9025    3.0379 C   0  0  0  0  0  0  0  0  0  0  0  0
   -0.9332   -8.5340    5.3683 C   0  0  0  0  0  0  0  0  0  0  0  0
   -1.3942   -8.1753    6.7495 O   0  0  0  0  0  0  0  0  0  0  0  0
  1  2  1  6  0  0  0
  1  3  1  0  0  0  0
  1 10  1  0  0  0  0
  3  4  1  6  0  0  0
  3  5  1  0  0  0  0
  5  6  1  1  0  0  0
  5  7  1  0  0  0  0
  7  8  1  6  0  0  0
  7  9  1  0  0  0  0
  9 10  1  1  0  0  0
  9 11  1  0  0  0  0
 11 12  1  6  0  0  0
 11 13  1  0  0  0  0
 14 15  1  6  0  0  0
 14 16  1  0  0  0  0
 14 22  1  0  0  0  0
 16 17  1  0  0  0  0
 17 18  1  1  0  0  0
 17 19  1  0  0  0  0
 19  2  1  1  0  0  0
 19 20  1  0  0  0  0
 20 21  1  6  0  0  0
 20 22  1  0  0  0  0
 22 23  1  6  0  0  0
 24 23  1  6  0  0  0
 24 25  1  0  0  0  0
 24 34  1  0  0  0  0
 25 26  1  1  0  0  0
 25 27  1  0  0  0  0
 27 28  1  6  0  0  0
 27 30  1  0  0  0  0
 28 29  1  0  0  0  0
 30 31  1  6  0  0  0
 30 32  1  0  0  0  0
 30 33  1  0  0  0  0
 33 34  1  0  0  0  0
M  CHG  4   4   1  15   1  18   1  28   1
M  END
>  <CHROM.1>
-99.73973441,-92.47924873,53.52638209,-138.14260129,-172.81494541,170.54462728
-47.06689042,-166.64591311,58.39677222,-71.07974585,-166.52176901,-77.90665907
-78.71337793,175.04929771,178.30769634,-3.67334379,-10.22856064,9.61471738
-1.98797218,1.08440445,-1.04012708

>  <Name>
1mwl

>  <RI>
0

>  <Rbt.Current_Directory>
/home/itssahil/PROJECTS/Mol_Feturizer/New_Systems/rnas/1mwl

>  <Rbt.Executable>
rbdock ($Id: //depot/dev/client3/rdock/2013.1/src/exe/rbdock.cxx#4 $)

>  <Rbt.Library>
libRbt.so (2013.1, Build901 2013/11/27)

>  <Rbt.Parameter_File>
/export/apps/rDock/src/rDock_2013.1_src/data/scripts/dock_solv.prm

>  <Rbt.Receptor>
prm/blind_docking_60.prm

>  <SCORE>
-10.9751

>  <SCORE.INTER>
-20.0892

>  <SCORE.INTER.CONST>
1

>  <SCORE.INTER.POLAR>
-3.41411

>  <SCORE.INTER.ROT>
6

>  <SCORE.INTER.SOLV>
18.9816

>  <SCORE.INTER.VDW>
-15.9396

>  <SCORE.INTER.norm>
-0.590858

>  <SCORE.INTRA>
-8.30137

>  <SCORE.INTRA.DIHEDRAL>
-20.4343

>  <SCORE.INTRA.DIHEDRAL.0>
42.0816

>  <SCORE.INTRA.POLAR>
-0.856082

>  <SCORE.INTRA.POLAR.0>
-0.254682

>  <SCORE.INTRA.REPUL>
0

>  <SCORE.INTRA.REPUL.0>
0

>  <SCORE.INTRA.SOLV>
-1.25394

>  <SCORE.INTRA.SOLV.lig_0>
-109.803

>  <SCORE.INTRA.VDW>
5.45345

>  <SCORE.INTRA.VDW.0>
0.32176

>  <SCORE.INTRA.norm>
-0.244158

>  <SCORE.RESTR>
17.4154

>  <SCORE.RESTR.CAVITY>
17.4154

>  <SCORE.RESTR.norm>
0.512218

>  <SCORE.SYSTEM>
0

>  <SCORE.SYSTEM.CONST>
0

>  <SCORE.SYSTEM.DIHEDRAL>
0

>  <SCORE.SYSTEM.SOLV>
0

>  <SCORE.SYSTEM.norm>
0

>  <SCORE.heavy>
34

>  <SCORE.norm>
-0.322798

>  <RMSD>
21.928

$$$$
1mwl
 OpenBabel11021811403D
libRbt.so/2013.1/901 2013/11/27
 34 36  0  0  0  0  0  0  0  0999 V2000
   -5.6661  -10.9400   12.0438 C   0  0  2  0  0  0  0  0  0  0  0  0
   -4.4635  -10.7428   11.3629 O   0  0  0  0  0  0  0  0  0  0  0  0
   -6.4703   -9.6120   11.9623 C   0  0  2  0  0  0  0  0  0  0  0  0
   -6.7082   -9.2506   10.5615 N   0  3  0  0  0  0  0  0  0  0  0  0
   -5.7308   -8.4750   12.7265 C   0  0  1  0  0  0  0  0  0  0  0  0
   -6.4393   -7.3190   12.6814 O   0  0  0  0  0  0  0  0  0  0  0  0
   -5.5058   -8.9323   14.2056 C   0  0  2  0  0  0  0  0  0  0  0  0
   -4.8298   -7.8959   14.9478 O   0  0  0  0  0  0  0  0  0  0  0  0
   -4.6701  -10.2572   14.1903 C   0  0  2  0  0  0  0  0  0  0  0  0
   -5.3781  -11.3023   13.4185 O   0  0  0  0  0  0  0  0  0  0  0  0
   -4.3838  -10.8490   15.5751 C   0  0  2  0  0  0  0  0  0  0  0  0
   -5.5631  -10.9164   16.3085 O   0  0  0  0  0  0  0  0  0  0  0  0
   -3.4021  -10.0100   16.4134 C   0  0  0  0  0  0  0  0  0  0  0  0
   -2.1779  -12.0189    7.9855 C   0  0  2  0  0  0  0  0  0  0  0  0
   -1.8216  -12.6399    6.6844 N   0  3  0  0  0  0  0  0  0  0  0  0
   -2.6670  -13.0990    8.9956 C   0  0  0  0  0  0  0  0  0  0  0  0
   -3.0588  -12.4295   10.3625 C   0  0  2  0  0  0  0  0  0  0  0  0
   -3.5188  -13.4997   11.3215 N   0  3  0  0  0  0  0  0  0  0  0  0
   -4.1734  -11.3563   10.1134 C   0  0  2  0  0  0  0  0  0  0  0  0
   -3.6546  -10.2939    9.1137 C   0  0  2  0  0  0  0  0  0  0  0  0
   -4.6748   -9.3554    8.8719 O   0  0  0  0  0  0  0  0  0  0  0  0
   -3.2873  -10.9686    7.7650 C   0  0  1  0  0  0  0  0  0  0  0  0
   -2.8170   -9.9768    6.8640 O   0  0  0  0  0  0  0  0  0  0  0  0
   -3.7394   -9.3438    6.0207 C   0  0  2  0  0  0  0  0  0  0  0  0
   -3.6808  -10.0549    4.6555 C   0  0  2  0  0  0  0  0  0  0  0  0
   -4.0464  -11.4077    4.8254 O   0  0  0  0  0  0  0  0  0  0  0  0
   -2.2288   -9.9386    4.0783 C   0  0  1  0  0  0  0  0  0  0  0  0
   -2.0803  -10.6265    2.7727 N   0  3  0  0  0  0  0  0  0  0  0  0
   -0.8529  -11.4627    2.7543 C   0  0  0  0  0  0  0  0  0  0  0  0
   -1.8533   -8.4239    3.9307 C   0  0  2  0  0  0  0  0  0  0  0  0
   -2.7734   -7.7764    3.0321 O   0  0  0  0  0  0  0  0  0  0  0  0
   -0.5167   -8.2429    3.3939 C   0  0  0  0  0  0  0  0  0  0  0  0
   -2.0038   -7.6989    5.3036 C   0  0  0  0  0  0  0  0  0  0  0  0
   -3.3733   -7.9250    5.8712 O   0  0  0  0  0  0  0  0  0  0  0  0
  1  2  1  6  0  0  0
  1  3  1  0  0  0  0
  1 10  1  0  0  0  0
  3  4  1  6  0  0  0
  3  5  1  0  0  0  0
  5  6  1  1  0  0  0
  5  7  1  0  0  0  0
  7  8  1  1  0  0  0
  7  9  1  0  0  0  0
  9 10  1  6  0  0  0
  9 11  1  0  0  0  0
 11 12  1  1  0  0  0
 11 13  1  0  0  0  0
 14 15  1  6  0  0  0
 14 16  1  0  0  0  0
 14 22  1  0  0  0  0
 16 17  1  0  0  0  0
 17 18  1  1  0  0  0
 17 19  1  0  0  0  0
 19  2  1  1  0  0  0
 19 20  1  0  0  0  0
 20 21  1  6  0  0  0
 20 22  1  0  0  0  0
 22 23  1  6  0  0  0
 24 23  1  1  0  0  0
 24 25  1  0  0  0  0
 24 34  1  0  0  0  0
 25 26  1  1  0  0  0
 25 27  1  0  0  0  0
 27 28  1  6  0  0  0
 27 30  1  0  0  0  0
 28 29  1  0  0  0  0
 30 31  1  6  0  0  0
 30 32  1  0  0  0  0
 30 33  1  0  0  0  0
 33 34  1  0  0  0  0
M  CHG  4   4   1  15   1  18   1  28   1
M  END
>  <CHROM.1>
-109.34197389,-110.08282884,57.27370493,-136.92575893,156.60637248,49.36268278
-59.40597698,-133.88295735,176.17491370,-71.00721453,148.84308359,-97.46297763
64.06200674,-13.33717210,-55.88931808,-3.79484537,-10.13934764,9.15034464
-2.28425074,1.13423273,-0.88325767

>  <Name>
1mwl

>  <RI>
0

>  <Rbt.Current_Directory>
/home/itssahil/PROJECTS/Mol_Feturizer/New_Systems/rnas/1mwl

>  <Rbt.Executable>
rbdock ($Id: //depot/dev/client3/rdock/2013.1/src/exe/rbdock.cxx#4 $)

>  <Rbt.Library>
libRbt.so (2013.1, Build901 2013/11/27)

>  <Rbt.Parameter_File>
/export/apps/rDock/src/rDock_2013.1_src/data/scripts/dock_solv.prm

>  <Rbt.Receptor>
prm/blind_docking_60.prm

>  <SCORE>
-11.4736

>  <SCORE.INTER>
-20.5166

>  <SCORE.INTER.CONST>
1

>  <SCORE.INTER.POLAR>
-4.67882

>  <SCORE.INTER.ROT>
6

>  <SCORE.INTER.SOLV>
17.9725

>  <SCORE.INTER.VDW>
-11.6725

>  <SCORE.INTER.norm>
-0.603429

>  <SCORE.INTRA>
-9.24455

>  <SCORE.INTRA.DIHEDRAL>
-4.03289

>  <SCORE.INTRA.DIHEDRAL.0>
42.0816

>  <SCORE.INTRA.POLAR>
-1.97095

>  <SCORE.INTRA.POLAR.0>
-0.254682

>  <SCORE.INTRA.REPUL>
0

>  <SCORE.INTRA.REPUL.0>
0

>  <SCORE.INTRA.SOLV>
3.97859

>  <SCORE.INTRA.SOLV.lig_0>
-109.803

>  <SCORE.INTRA.VDW>
-2.51618

>  <SCORE.INTRA.VDW.0>
0.32176

>  <SCORE.INTRA.norm>
-0.271899

>  <SCORE.RESTR>
18.2876

>  <SCORE.RESTR.CAVITY>
18.2876

>  <SCORE.RESTR.norm>
0.53787

>  <SCORE.SYSTEM>
0

>  <SCORE.SYSTEM.CONST>
0

>  <SCORE.SYSTEM.DIHEDRAL>
0

>  <SCORE.SYSTEM.SOLV>
0

>  <SCORE.SYSTEM.norm>
0

>  <SCORE.heavy>
34

>  <SCORE.norm>
-0.337458

>  <RMSD>
22.120

$$$$
1mwl
 OpenBabel11021811403D
libRbt.so/2013.1/901 2013/11/27
 34 36  0  0  0  0  0  0  0  0999 V2000
   -3.7660  -10.8018    6.9242 C   0  0  2  0  0  0  0  0  0  0  0  0
   -2.7501  -10.4687    7.8218 O   0  0  0  0  0  0  0  0  0  0  0  0
   -3.3015  -10.3558    5.5092 C   0  0  2  0  0  0  0  0  0  0  0  0
   -2.0440  -11.0221    5.1568 N   0  3  0  0  0  0  0  0  0  0  0  0
   -3.1644   -8.8066    5.4398 C   0  0  1  0  0  0  0  0  0  0  0  0
   -2.7840   -8.4078    4.2002 O   0  0  0  0  0  0  0  0  0  0  0  0
   -4.5364   -8.1662    5.8336 C   0  0  2  0  0  0  0  0  0  0  0  0
   -4.4484   -6.7273    5.7703 O   0  0  0  0  0  0  0  0  0  0  0  0
   -4.9101   -8.6494    7.2761 C   0  0  2  0  0  0  0  0  0  0  0  0
   -4.9874  -10.1264    7.3191 O   0  0  0  0  0  0  0  0  0  0  0  0
   -6.2505   -8.1219    7.8003 C   0  0  2  0  0  0  0  0  0  0  0  0
   -6.4352   -8.5363    9.1146 O   0  0  0  0  0  0  0  0  0  0  0  0
   -7.4674   -8.6377    7.0107 C   0  0  0  0  0  0  0  0  0  0  0  0
   -3.7255  -12.8103   11.2605 C   0  0  2  0  0  0  0  0  0  0  0  0
   -3.6015  -13.5090   12.5651 N   0  3  0  0  0  0  0  0  0  0  0  0
   -2.7320  -13.4068   10.2198 C   0  0  0  0  0  0  0  0  0  0  0  0
   -2.8582  -12.6487    8.8488 C   0  0  2  0  0  0  0  0  0  0  0  0
   -1.8921  -13.2538    7.8603 N   0  3  0  0  0  0  0  0  0  0  0  0
   -2.5789  -11.1228    9.0726 C   0  0  2  0  0  0  0  0  0  0  0  0
   -3.5865  -10.5582   10.1038 C   0  0  2  0  0  0  0  0  0  0  0  0
   -3.3045   -9.1970   10.3218 O   0  0  0  0  0  0  0  0  0  0  0  0
   -3.4381  -11.3064   11.4557 C   0  0  1  0  0  0  0  0  0  0  0  0
   -4.3684  -10.7714   12.3855 O   0  0  0  0  0  0  0  0  0  0  0  0
   -4.0304   -9.5998   13.0754 C   0  0  2  0  0  0  0  0  0  0  0  0
   -4.1773   -9.8915   14.5808 C   0  0  2  0  0  0  0  0  0  0  0  0
   -3.2848  -10.9250   14.9383 O   0  0  0  0  0  0  0  0  0  0  0  0
   -5.6583  -10.3058   14.8809 C   0  0  1  0  0  0  0  0  0  0  0  0
   -5.8773  -10.6336   16.3109 N   0  3  0  0  0  0  0  0  0  0  0  0
   -5.4766   -9.4972   17.1794 C   0  0  0  0  0  0  0  0  0  0  0  0
   -6.6163   -9.1440   14.4455 C   0  0  2  0  0  0  0  0  0  0  0  0
   -6.3008   -7.9472   15.1815 O   0  0  0  0  0  0  0  0  0  0  0  0
   -8.0096   -9.4608   14.7015 C   0  0  0  0  0  0  0  0  0  0  0  0
   -6.3917   -8.8006   12.9406 C   0  0  0  0  0  0  0  0  0  0  0  0
   -4.9434   -8.5152   12.6761 O   0  0  0  0  0  0  0  0  0  0  0  0
  1  2  1  1  0  0  0
  1  3  1  0  0  0  0
  1 10  1  0  0  0  0
  3  4  1  1  0  0  0
  3  5  1  0  0  0  0
  5  6  1  6  0  0  0
  5  7  1  0  0  0  0
  7  8  1  1  0  0  0
  7  9  1  0  0  0  0
  9 10  1  6  0  0  0
  9 11  1  0  0  0  0
 11 12  1  1  0  0  0
 11 13  1  0  0  0  0
 14 15  1  1  0  0  0
 14 16  1  0  0  0  0
 14 22  1  0  0  0  0
 16 17  1  0  0  0  0
 17 18  1  6  0  0  0
 17 19  1  0  0  0  0
 19  2  1  6  0  0  0
 19 20  1  0  0  0  0
 20 21  1  1  0  0  0
 20 22  1  0  0  0  0
 22 23  1  1  0  0  0
 24 23  1  6  0  0  0
 24 25  1  0  0  0  0
 24 34  1  0  0  0  0
 25 26  1  6  0  0  0
 25 27  1  0  0  0  0
 27 28  1  1  0  0  0
 27 30  1  0  0  0  0
 28 29  1  0  0  0  0
 30 31  1  1  0  0  0
 30 32  1  0  0  0  0
 30 33  1  0  0  0  0
 33 34  1  0  0  0  0
M  CHG  4   4   1  15   1  18   1  28   1
M  END
>  <CHROM.1>
-156.40619003,39.53841251,-38.86011006,-172.63856890,-53.75165312,-175.92094863
171.56210487,75.55676650,-112.75103224,175.09901089,157.28537100,-125.59943890
-179.46452111,176.15726652,52.65697635,-4.38829634,-10.05203580,10.30384904
-1.24172395,-0.89040272,1.87255046

>  <Name>
1mwl

>  <RI>
0

>  <Rbt.Current_Directory>
/home/itssahil/PROJECTS/Mol_Feturizer/New_Systems/rnas/1mwl

>  <Rbt.Executable>
rbdock ($Id: //depot/dev/client3/rdock/2013.1/src/exe/rbdock.cxx#4 $)

>  <Rbt.Library>
libRbt.so (2013.1, Build901 2013/11/27)

>  <Rbt.Parameter_File>
/export/apps/rDock/src/rDock_2013.1_src/data/scripts/dock_solv.prm

>  <Rbt.Receptor>
prm/blind_docking_60.prm

>  <SCORE>
-22.4278

>  <SCORE.INTER>
-32.9145

>  <SCORE.INTER.CONST>
1

>  <SCORE.INTER.POLAR>
-6.44516

>  <SCORE.INTER.ROT>
6

>  <SCORE.INTER.SOLV>
23.4573

>  <SCORE.INTER.VDW>
-15.8782

>  <SCORE.INTER.norm>
-0.968073

>  <SCORE.INTRA>
-10.6727

>  <SCORE.INTRA.DIHEDRAL>
-22.1656

>  <SCORE.INTRA.DIHEDRAL.0>
42.0816

>  <SCORE.INTRA.POLAR>
-0.662403

>  <SCORE.INTRA.POLAR.0>
-0.254682

>  <SCORE.INTRA.REPUL>
0.0105159

>  <SCORE.INTRA.REPUL.0>
0

>  <SCORE.INTRA.SOLV>
0.915772

>  <SCORE.INTRA.SOLV.lig_0>
-109.803

>  <SCORE.INTRA.VDW>
2.15175

>  <SCORE.INTRA.VDW.0>
0.32176

>  <SCORE.INTRA.norm>
-0.313904

>  <SCORE.RESTR>
21.1594

>  <SCORE.RESTR.CAVITY>
21.1594

>  <SCORE.RESTR.norm>
0.622336

>  <SCORE.SYSTEM>
0

>  <SCORE.SYSTEM.CONST>
0

>  <SCORE.SYSTEM.DIHEDRAL>
0

>  <SCORE.SYSTEM.SOLV>
0

>  <SCORE.SYSTEM.norm>
0

>  <SCORE.heavy>
34

>  <SCORE.norm>
-0.659642

>  <RMSD>
22.155

$$$$
1mwl
 OpenBabel11021811403D
libRbt.so/2013.1/901 2013/11/27
 34 36  0  0  0  0  0  0  0  0999 V2000
   -5.6148  -10.8588   12.0096 C   0  0  2  0  0  0  0  0  0  0  0  0
   -4.4877  -10.5601   11.2421 O   0  0  0  0  0  0  0  0  0  0  0  0
   -6.4775   -9.5680   12.0915 C   0  0  2  0  0  0  0  0  0  0  0  0
   -6.8554   -9.1266   10.7455 N   0  3  0  0  0  0  0  0  0  0  0  0
   -5.7200   -8.4501   12.8662 C   0  0  1  0  0  0  0  0  0  0  0  0
   -6.4769   -7.3287   12.9640 O   0  0  0  0  0  0  0  0  0  0  0  0
   -5.3439   -8.9929   14.2844 C   0  0  2  0  0  0  0  0  0  0  0  0
   -4.6473   -7.9767   15.0357 O   0  0  0  0  0  0  0  0  0  0  0  0
   -4.4587  -10.2726   14.1038 C   0  0  2  0  0  0  0  0  0  0  0  0
   -5.1894  -11.2970   13.3253 O   0  0  0  0  0  0  0  0  0  0  0  0
   -4.0245  -10.9403   15.4136 C   0  0  2  0  0  0  0  0  0  0  0  0
   -3.3135  -12.1020   15.1338 O   0  0  0  0  0  0  0  0  0  0  0  0
   -5.2025  -11.3614   16.3110 C   0  0  0  0  0  0  0  0  0  0  0  0
   -1.9900  -12.1473    8.1597 C   0  0  2  0  0  0  0  0  0  0  0  0
   -1.5460  -12.9101    6.9653 N   0  3  0  0  0  0  0  0  0  0  0  0
   -2.4873  -13.1128    9.2761 C   0  0  0  0  0  0  0  0  0  0  0  0
   -2.9718  -12.2954   10.5279 C   0  0  2  0  0  0  0  0  0  0  0  0
   -3.4380  -13.2563   11.5938 N   0  3  0  0  0  0  0  0  0  0  0  0
   -4.1127  -11.3119   10.0949 C   0  0  2  0  0  0  0  0  0  0  0  0
   -3.5855  -10.3612    8.9924 C   0  0  2  0  0  0  0  0  0  0  0  0
   -4.6274   -9.5063    8.5880 O   0  0  0  0  0  0  0  0  0  0  0  0
   -3.1261  -11.1827    7.7581 C   0  0  1  0  0  0  0  0  0  0  0  0
   -2.6496  -10.2918    6.7602 O   0  0  0  0  0  0  0  0  0  0  0  0
   -3.5530   -9.3973    6.1717 C   0  0  2  0  0  0  0  0  0  0  0  0
   -3.7476   -9.8338    4.7073 C   0  0  2  0  0  0  0  0  0  0  0  0
   -4.2895  -11.1370    4.6839 O   0  0  0  0  0  0  0  0  0  0  0  0
   -2.3648   -9.7923    3.9715 C   0  0  1  0  0  0  0  0  0  0  0  0
   -2.4611  -10.2292    2.5573 N   0  3  0  0  0  0  0  0  0  0  0  0
   -1.3615  -11.1689    2.2200 C   0  0  0  0  0  0  0  0  0  0  0  0
   -1.7866   -8.3372    4.0438 C   0  0  2  0  0  0  0  0  0  0  0  0
   -2.6915   -7.4181    3.4036 O   0  0  0  0  0  0  0  0  0  0  0  0
   -0.5035   -8.2260    3.3741 C   0  0  0  0  0  0  0  0  0  0  0  0
   -1.6795   -7.8770    5.5304 C   0  0  0  0  0  0  0  0  0  0  0  0
   -2.9985   -8.0338    6.2265 O   0  0  0  0  0  0  0  0  0  0  0  0
  1  2  1  6  0  0  0
  1  3  1  0  0  0  0
  1 10  1  0  0  0  0
  3  4  1  6  0  0  0
  3  5  1  0  0  0  0
  5  6  1  1  0  0  0
  5  7  1  0  0  0  0
  7  8  1  6  0  0  0
  7  9  1  0  0  0  0
  9 10  1  6  0  0  0
  9 11  1  0  0  0  0
 11 12  1  6  0  0  0
 11 13  1  0  0  0  0
 14 15  1  6  0  0  0
 14 16  1  0  0  0  0
 14 22  1  0  0  0  0
 16 17  1  0  0  0  0
 17 18  1  1  0  0  0
 17 19  1  0  0  0  0
 19  2  1  1  0  0  0
 19 20  1  0  0  0  0
 20 21  1  6  0  0  0
 20 22  1  0  0  0  0
 22 23  1  6  0  0  0
 24 23  1  6  0  0  0
 24 25  1  0  0  0  0
 24 34  1  0  0  0  0
 25 26  1  1  0  0  0
 25 27  1  0  0  0  0
 27 28  1  6  0  0  0
 27 30  1  0  0  0  0
 28 29  1  0  0  0  0
 30 31  1  6  0  0  0
 30 32  1  0  0  0  0
 30 33  1  0  0  0  0
 33 34  1  0  0  0  0
M  CHG  4   4   1  15   1  18   1  28   1
M  END
>  <CHROM.1>
-125.49986990,-99.93068969,67.61901097,-107.39103254,175.14201891,176.58084531
172.76453899,75.07618558,-38.14720506,-66.01772075,174.87849958,-111.30117848
-56.53593403,-14.69241121,-57.11683693,-3.71384366,-10.19448773,9.14871709
2.15488742,-1.07569115,2.16374205

>  <Name>
1mwl

>  <RI>
0

>  <Rbt.Current_Directory>
/home/itssahil/PROJECTS/Mol_Feturizer/New_Systems/rnas/1mwl

>  <Rbt.Executable>
rbdock ($Id: //depot/dev/client3/rdock/2013.1/src/exe/rbdock.cxx#4 $)

>  <Rbt.Library>
libRbt.so (2013.1, Build901 2013/11/27)

>  <Rbt.Parameter_File>
/export/apps/rDock/src/rDock_2013.1_src/data/scripts/dock_solv.prm

>  <Rbt.Receptor>
prm/blind_docking_60.prm

>  <SCORE>
-7.84975

>  <SCORE.INTER>
-14.6112

>  <SCORE.INTER.CONST>
1

>  <SCORE.INTER.POLAR>
-3.91729

>  <SCORE.INTER.ROT>
6

>  <SCORE.INTER.SOLV>
21.4554

>  <SCORE.INTER.VDW>
-11.435

>  <SCORE.INTER.norm>
-0.429741

>  <SCORE.INTRA>
-12.3071

>  <SCORE.INTRA.DIHEDRAL>
-10.6301

>  <SCORE.INTRA.DIHEDRAL.0>
42.0816

>  <SCORE.INTRA.POLAR>
-1.58924

>  <SCORE.INTRA.POLAR.0>
-0.254682

>  <SCORE.INTRA.REPUL>
0

>  <SCORE.INTRA.REPUL.0>
0

>  <SCORE.INTRA.SOLV>
1.076

>  <SCORE.INTRA.SOLV.lig_0>
-109.803

>  <SCORE.INTRA.VDW>
-2.12657

>  <SCORE.INTRA.VDW.0>
0.32176

>  <SCORE.INTRA.norm>
-0.361973

>  <SCORE.RESTR>
19.0685

>  <SCORE.RESTR.CAVITY>
19.0685

>  <SCORE.RESTR.norm>
0.560838

>  <SCORE.SYSTEM>
0

>  <SCORE.SYSTEM.CONST>
0

>  <SCORE.SYSTEM.DIHEDRAL>
0

>  <SCORE.SYSTEM.SOLV>
0

>  <SCORE.SYSTEM.norm>
0

>  <SCORE.heavy>
34

>  <SCORE.norm>
-0.230875

>  <RMSD>
22.165

$$$$
1mwl
 OpenBabel11021811403D
libRbt.so/2013.1/901 2013/11/27
 34 36  0  0  0  0  0  0  0  0999 V2000
   -3.4132  -10.8857   10.8294 C   0  0  2  0  0  0  0  0  0  0  0  0
   -4.2293  -10.8570    9.6972 O   0  0  0  0  0  0  0  0  0  0  0  0
   -3.3457  -12.3604   11.3171 C   0  0  2  0  0  0  0  0  0  0  0  0
   -2.8101  -13.2193   10.2566 N   0  3  0  0  0  0  0  0  0  0  0  0
   -4.7468  -12.8462   11.7908 C   0  0  1  0  0  0  0  0  0  0  0  0
   -4.6907  -14.1243   12.2419 O   0  0  0  0  0  0  0  0  0  0  0  0
   -5.2562  -11.8822   12.9127 C   0  0  2  0  0  0  0  0  0  0  0  0
   -6.5517  -12.3095   13.3834 O   0  0  0  0  0  0  0  0  0  0  0  0
   -5.3155  -10.4308   12.3261 C   0  0  2  0  0  0  0  0  0  0  0  0
   -3.9794  -10.0169   11.8436 O   0  0  0  0  0  0  0  0  0  0  0  0
   -5.7781   -9.3580   13.3187 C   0  0  2  0  0  0  0  0  0  0  0  0
   -5.5611   -8.0954   12.7783 O   0  0  0  0  0  0  0  0  0  0  0  0
   -5.0202   -9.3897   14.6584 C   0  0  0  0  0  0  0  0  0  0  0  0
   -5.4201   -8.4492    6.3740 C   0  0  2  0  0  0  0  0  0  0  0  0
   -5.6123   -7.2709    5.4907 N   0  3  0  0  0  0  0  0  0  0  0  0
   -6.1520   -8.2436    7.7334 C   0  0  0  0  0  0  0  0  0  0  0  0
   -5.9272   -9.4875    8.6673 C   0  0  2  0  0  0  0  0  0  0  0  0
   -6.6544   -9.2634    9.9703 N   0  3  0  0  0  0  0  0  0  0  0  0
   -4.3901   -9.6976    8.8899 C   0  0  2  0  0  0  0  0  0  0  0  0
   -3.6934   -9.9076    7.5232 C   0  0  2  0  0  0  0  0  0  0  0  0
   -2.3104  -10.0610    7.7328 O   0  0  0  0  0  0  0  0  0  0  0  0
   -3.9115   -8.6646    6.6195 C   0  0  1  0  0  0  0  0  0  0  0  0
   -3.2629   -8.8777    5.3744 O   0  0  0  0  0  0  0  0  0  0  0  0
   -1.8716   -8.7279    5.3075 C   0  0  2  0  0  0  0  0  0  0  0  0
   -1.5612   -7.8343    4.0917 C   0  0  2  0  0  0  0  0  0  0  0  0
   -2.1641   -6.5723    4.2826 O   0  0  0  0  0  0  0  0  0  0  0  0
   -2.1092   -8.5231    2.7955 C   0  0  1  0  0  0  0  0  0  0  0  0
   -1.8757   -7.7088    1.5780 N   0  3  0  0  0  0  0  0  0  0  0  0
   -2.7149   -6.4835    1.5944 C   0  0  0  0  0  0  0  0  0  0  0  0
   -1.4358   -9.9295    2.6358 C   0  0  2  0  0  0  0  0  0  0  0  0
   -0.0081   -9.7792    2.5248 O   0  0  0  0  0  0  0  0  0  0  0  0
   -1.8966  -10.6233    1.4469 C   0  0  0  0  0  0  0  0  0  0  0  0
   -1.6842  -10.7900    3.9129 C   0  0  0  0  0  0  0  0  0  0  0  0
   -1.2438  -10.0498    5.1405 O   0  0  0  0  0  0  0  0  0  0  0  0
  1  2  1  6  0  0  0
  1  3  1  0  0  0  0
  1 10  1  0  0  0  0
  3  4  1  6  0  0  0
  3  5  1  0  0  0  0
  5  6  1  1  0  0  0
  5  7  1  0  0  0  0
  7  8  1  6  0  0  0
  7  9  1  0  0  0  0
  9 10  1  1  0  0  0
  9 11  1  0  0  0  0
 11 12  1  6  0  0  0
 11 13  1  0  0  0  0
 14 15  1  6  0  0  0
 14 16  1  0  0  0  0
 14 22  1  0  0  0  0
 16 17  1  0  0  0  0
 17 18  1  1  0  0  0
 17 19  1  0  0  0  0
 19  2  1  1  0  0  0
 19 20  1  0  0  0  0
 20 21  1  1  0  0  0
 20 22  1  0  0  0  0
 22 23  1  6  0  0  0
 24 23  1  6  0  0  0
 24 25  1  0  0  0  0
 24 34  1  0  0  0  0
 25 26  1  1  0  0  0
 25 27  1  0  0  0  0
 27 28  1  6  0  0  0
 27 30  1  0  0  0  0
 28 29  1  0  0  0  0
 30 31  1  6  0  0  0
 30 32  1  0  0  0  0
 30 33  1  0  0  0  0
 33 34  1  0  0  0  0
M  CHG  4   4   1  15   1  18   1  28   1
M  END
>  <CHROM.1>
-172.30584731,-131.24248152,-163.84921232,-174.99730644,-179.98504808,169.15603678
159.33789212,34.12233440,139.85451272,64.76624509,162.54785228,-131.36206333
38.04615626,51.03093020,-57.35408371,-3.72333026,-9.78305754,7.86423404,-2.09739655
0.90634713,-0.88334704

>  <Name>
1mwl

>  <RI>
0

>  <Rbt.Current_Directory>
/home/itssahil/PROJECTS/Mol_Feturizer/New_Systems/rnas/1mwl

>  <Rbt.Executable>
rbdock ($Id: //depot/dev/client3/rdock/2013.1/src/exe/rbdock.cxx#4 $)

>  <Rbt.Library>
libRbt.so (2013.1, Build901 2013/11/27)

>  <Rbt.Parameter_File>
/export/apps/rDock/src/rDock_2013.1_src/data/scripts/dock_solv.prm

>  <Rbt.Receptor>
prm/blind_docking_60.prm

>  <SCORE>
-4.76107

>  <SCORE.INTER>
-16.2553

>  <SCORE.INTER.CONST>
1

>  <SCORE.INTER.POLAR>
-3.32882

>  <SCORE.INTER.ROT>
6

>  <SCORE.INTER.SOLV>
23.3947

>  <SCORE.INTER.VDW>
-15.139

>  <SCORE.INTER.norm>
-0.478097

>  <SCORE.INTRA>
-9.63405

>  <SCORE.INTRA.DIHEDRAL>
-17.4895

>  <SCORE.INTRA.DIHEDRAL.0>
42.0816

>  <SCORE.INTRA.POLAR>
-0.438824

>  <SCORE.INTRA.POLAR.0>
-0.254682

>  <SCORE.INTRA.REPUL>
0

>  <SCORE.INTRA.REPUL.0>
0

>  <SCORE.INTRA.SOLV>
2.43445

>  <SCORE.INTRA.SOLV.lig_0>
-109.803

>  <SCORE.INTRA.VDW>
-0.614542

>  <SCORE.INTRA.VDW.0>
0.32176

>  <SCORE.INTRA.norm>
-0.283354

>  <SCORE.RESTR>
21.1283

>  <SCORE.RESTR.CAVITY>
21.1283

>  <SCORE.RESTR.norm>
0.62142

>  <SCORE.SYSTEM>
0

>  <SCORE.SYSTEM.CONST>
0

>  <SCORE.SYSTEM.DIHEDRAL>
0

>  <SCORE.SYSTEM.SOLV>
0

>  <SCORE.SYSTEM.norm>
0

>  <SCORE.heavy>
34

>  <SCORE.norm>
-0.140031

>  <RMSD>
22.242

$$$$
1mwl
 OpenBabel11021811403D
libRbt.so/2013.1/901 2013/11/27
 34 36  0  0  0  0  0  0  0  0999 V2000
   -4.2702   -8.1674    6.8476 C   0  0  2  0  0  0  0  0  0  0  0  0
   -4.3587   -9.5399    7.0865 O   0  0  0  0  0  0  0  0  0  0  0  0
   -5.5792   -7.7348    6.1290 C   0  0  2  0  0  0  0  0  0  0  0  0
   -6.7423   -8.0531    6.9629 N   0  3  0  0  0  0  0  0  0  0  0  0
   -5.6826   -8.4042    4.7273 C   0  0  1  0  0  0  0  0  0  0  0  0
   -6.8101   -8.0114    4.0835 O   0  0  0  0  0  0  0  0  0  0  0  0
   -4.4095   -8.0280    3.8996 C   0  0  2  0  0  0  0  0  0  0  0  0
   -4.4766   -8.6251    2.5876 O   0  0  0  0  0  0  0  0  0  0  0  0
   -3.1472   -8.5222    4.6845 C   0  0  2  0  0  0  0  0  0  0  0  0
   -3.1029   -7.9036    6.0279 O   0  0  0  0  0  0  0  0  0  0  0  0
   -1.8085   -8.2050    4.0083 C   0  0  2  0  0  0  0  0  0  0  0  0
   -0.7860   -8.2506    4.9494 O   0  0  0  0  0  0  0  0  0  0  0  0
   -1.7530   -6.8010    3.3790 C   0  0  0  0  0  0  0  0  0  0  0  0
   -3.3663  -12.3504   10.1485 C   0  0  2  0  0  0  0  0  0  0  0  0
   -2.6018  -13.0758   11.1947 N   0  3  0  0  0  0  0  0  0  0  0  0
   -2.6761  -12.4982    8.7600 C   0  0  0  0  0  0  0  0  0  0  0  0
   -3.4825  -11.7120    7.6638 C   0  0  2  0  0  0  0  0  0  0  0  0
   -2.7961  -11.8813    6.3308 N   0  3  0  0  0  0  0  0  0  0  0  0
   -3.5833  -10.2035    8.0766 C   0  0  2  0  0  0  0  0  0  0  0  0
   -4.2805  -10.0895    9.4543 C   0  0  2  0  0  0  0  0  0  0  0  0
   -4.3347   -8.7344    9.8297 O   0  0  0  0  0  0  0  0  0  0  0  0
   -3.4637  -10.8574   10.5278 C   0  0  1  0  0  0  0  0  0  0  0  0
   -4.1191  -10.7375   11.7818 O   0  0  0  0  0  0  0  0  0  0  0  0
   -3.6647   -9.7700   12.6874 C   0  0  2  0  0  0  0  0  0  0  0  0
   -4.1193  -10.2039   14.0938 C   0  0  2  0  0  0  0  0  0  0  0  0
   -3.5347  -11.4514   14.4016 O   0  0  0  0  0  0  0  0  0  0  0  0
   -5.6829  -10.2997   14.1207 C   0  0  1  0  0  0  0  0  0  0  0  0
   -6.2018  -10.7425   15.4378 N   0  3  0  0  0  0  0  0  0  0  0  0
   -5.5325  -10.0084   16.5419 C   0  0  0  0  0  0  0  0  0  0  0  0
   -6.2907   -8.9038   13.7481 C   0  0  2  0  0  0  0  0  0  0  0  0
   -5.8605   -7.9124   14.6997 O   0  0  0  0  0  0  0  0  0  0  0  0
   -7.7423   -8.9202   13.7591 C   0  0  0  0  0  0  0  0  0  0  0  0
   -5.7506   -8.4379   12.3609 C   0  0  0  0  0  0  0  0  0  0  0  0
   -4.2513   -8.4633   12.3440 O   0  0  0  0  0  0  0  0  0  0  0  0
  1  2  1  6  0  0  0
  1  3  1  0  0  0  0
  1 10  1  0  0  0  0
  3  4  1  1  0  0  0
  3  5  1  0  0  0  0
  5  6  1  6  0  0  0
  5  7  1  0  0  0  0
  7  8  1  6  0  0  0
  7  9  1  0  0  0  0
  9 10  1  1  0  0  0
  9 11  1  0  0  0  0
 11 12  1  1  0  0  0
 11 13  1  0  0  0  0
 14 15  1  1  0  0  0
 14 16  1  0  0  0  0
 14 22  1  0  0  0  0
 16 17  1  0  0  0  0
 17 18  1  6  0  0  0
 17 19  1  0  0  0  0
 19  2  1  6  0  0  0
 19 20  1  0  0  0  0
 20 21  1  1  0  0  0
 20 22  1  0  0  0  0
 22 23  1  1  0  0  0
 24 23  1  6  0  0  0
 24 25  1  0  0  0  0
 24 34  1  0  0  0  0
 25 26  1  6  0  0  0
 25 27  1  0  0  0  0
 27 28  1  1  0  0  0
 27 30  1  0  0  0  0
 28 29  1  0  0  0  0
 30 31  1  1  0  0  0
 30 32  1  0  0  0  0
 30 33  1  0  0  0  0
 33 34  1  0  0  0  0
M  CHG  4   4   1  15   1  18   1  28   1
M  END
>  <CHROM.1>
-159.08104260,-156.42252564,178.84879418,-67.27934281,70.03703417,159.51528252
125.37717323,-91.85373818,66.40009021,85.03293333,141.54057291,-157.75673295
-63.21910053,165.72706898,-145.37941453,-4.30992118,-9.51414953,9.21141242
1.36375129,0.74640423,-1.26156243

>  <Name>
1mwl

>  <RI>
0

>  <Rbt.Current_Directory>
/home/itssahil/PROJECTS/Mol_Feturizer/New_Systems/rnas/1mwl

>  <Rbt.Executable>
rbdock ($Id: //depot/dev/client3/rdock/2013.1/src/exe/rbdock.cxx#4 $)

>  <Rbt.Library>
libRbt.so (2013.1, Build901 2013/11/27)

>  <Rbt.Parameter_File>
/export/apps/rDock/src/rDock_2013.1_src/data/scripts/dock_solv.prm

>  <Rbt.Receptor>
prm/blind_docking_60.prm

>  <SCORE>
-21.5977

>  <SCORE.INTER>
-34.8465

>  <SCORE.INTER.CONST>
1

>  <SCORE.INTER.POLAR>
-6.37114

>  <SCORE.INTER.ROT>
6

>  <SCORE.INTER.SOLV>
25.3338

>  <SCORE.INTER.VDW>
-18.0385

>  <SCORE.INTER.norm>
-1.0249

>  <SCORE.INTRA>
-3.51331

>  <SCORE.INTRA.DIHEDRAL>
-11.2709

>  <SCORE.INTRA.DIHEDRAL.0>
42.0816

>  <SCORE.INTRA.POLAR>
0.230143

>  <SCORE.INTRA.POLAR.0>
-0.254682

>  <SCORE.INTRA.REPUL>
0

>  <SCORE.INTRA.REPUL.0>
0

>  <SCORE.INTRA.SOLV>
-1.85882

>  <SCORE.INTRA.SOLV.lig_0>
-109.803

>  <SCORE.INTRA.VDW>
2.26907

>  <SCORE.INTRA.VDW.0>
0.32176

>  <SCORE.INTRA.norm>
-0.103333

>  <SCORE.RESTR>
16.7622

>  <SCORE.RESTR.CAVITY>
16.7622

>  <SCORE.RESTR.norm>
0.493006

>  <SCORE.SYSTEM>
0

>  <SCORE.SYSTEM.CONST>
0

>  <SCORE.SYSTEM.DIHEDRAL>
0

>  <SCORE.SYSTEM.SOLV>
0

>  <SCORE.SYSTEM.norm>
0

>  <SCORE.heavy>
34

>  <SCORE.norm>
-0.635225

>  <RMSD>
22.271

$$$$
1mwl
 OpenBabel11021811403D
libRbt.so/2013.1/901 2013/11/27
 34 36  0  0  0  0  0  0  0  0999 V2000
   -3.4778   -8.7410    7.3752 C   0  0  2  0  0  0  0  0  0  0  0  0
   -3.7984  -10.0827    7.5889 O   0  0  0  0  0  0  0  0  0  0  0  0
   -4.7543   -8.0380    6.8336 C   0  0  2  0  0  0  0  0  0  0  0  0
   -5.8523   -8.1732    7.7956 N   0  3  0  0  0  0  0  0  0  0  0  0
   -5.1450   -8.6088    5.4389 C   0  0  1  0  0  0  0  0  0  0  0  0
   -6.2436   -7.9823    4.9481 O   0  0  0  0  0  0  0  0  0  0  0  0
   -3.9280   -8.4377    4.4709 C   0  0  2  0  0  0  0  0  0  0  0  0
   -4.2591   -8.9485    3.1626 O   0  0  0  0  0  0  0  0  0  0  0  0
   -2.7011   -9.1955    5.0827 C   0  0  2  0  0  0  0  0  0  0  0  0
   -2.3844   -8.6607    6.4254 O   0  0  0  0  0  0  0  0  0  0  0  0
   -1.4138   -9.1017    4.2555 C   0  0  2  0  0  0  0  0  0  0  0  0
   -0.3097   -9.2086    5.0938 O   0  0  0  0  0  0  0  0  0  0  0  0
   -1.2585   -7.7658    3.5060 C   0  0  0  0  0  0  0  0  0  0  0  0
   -4.0608  -12.6332   11.0073 C   0  0  2  0  0  0  0  0  0  0  0  0
   -3.6774  -13.4021   12.2186 N   0  3  0  0  0  0  0  0  0  0  0  0
   -3.2870  -13.1509    9.7587 C   0  0  0  0  0  0  0  0  0  0  0  0
   -3.6860  -12.3190    8.4863 C   0  0  2  0  0  0  0  0  0  0  0  0
   -2.9287  -12.8488    7.2936 N   0  3  0  0  0  0  0  0  0  0  0  0
   -3.3796  -10.8032    8.7410 C   0  0  2  0  0  0  0  0  0  0  0  0
   -4.1689  -10.3171    9.9811 C   0  0  2  0  0  0  0  0  0  0  0  0
   -3.8598   -8.9652   10.2199 O   0  0  0  0  0  0  0  0  0  0  0  0
   -3.7519  -11.1375   11.2310 C   0  0  1  0  0  0  0  0  0  0  0  0
   -4.4852  -10.6738   12.3552 O   0  0  0  0  0  0  0  0  0  0  0  0
   -3.9952   -9.5723   13.0689 C   0  0  2  0  0  0  0  0  0  0  0  0
   -4.0723   -9.9213   14.5672 C   0  0  2  0  0  0  0  0  0  0  0  0
   -3.2598  -11.0477   14.8195 O   0  0  0  0  0  0  0  0  0  0  0  0
   -5.5634  -10.2132   14.9499 C   0  0  1  0  0  0  0  0  0  0  0  0
   -5.7203  -10.5879   16.3765 N   0  3  0  0  0  0  0  0  0  0  0  0
   -5.8181  -12.0624   16.5264 C   0  0  0  0  0  0  0  0  0  0  0  0
   -6.4339   -8.9495   14.6299 C   0  0  2  0  0  0  0  0  0  0  0  0
   -5.9610   -7.8231   15.3921 O   0  0  0  0  0  0  0  0  0  0  0  0
   -7.8316   -9.1503   14.9667 C   0  0  0  0  0  0  0  0  0  0  0  0
   -6.2747   -8.5561   13.1289 C   0  0  0  0  0  0  0  0  0  0  0  0
   -4.8260   -8.3912   12.7785 O   0  0  0  0  0  0  0  0  0  0  0  0
  1  2  1  6  0  0  0
  1  3  1  0  0  0  0
  1 10  1  0  0  0  0
  3  4  1  1  0  0  0
  3  5  1  0  0  0  0
  5  6  1  6  0  0  0
  5  7  1  0  0  0  0
  7  8  1  6  0  0  0
  7  9  1  0  0  0  0
  9 10  1  1  0  0  0
  9 11  1  0  0  0  0
 11 12  1  1  0  0  0
 11 13  1  0  0  0  0
 14 15  1  1  0  0  0
 14 16  1  0  0  0  0
 14 22  1  0  0  0  0
 16 17  1  0  0  0  0
 17 18  1  6  0  0  0
 17 19  1  0  0  0  0
 19  2  1  6  0  0  0
 19 20  1  0  0  0  0
 20 21  1  1  0  0  0
 20 22  1  0  0  0  0
 22 23  1  1  0  0  0
 24 23  1  6  0  0  0
 24 25  1  0  0  0  0
 24 34  1  0  0  0  0
 25 26  1  6  0  0  0
 25 27  1  0  0  0  0
 27 28  1  1  0  0  0
 27 30  1  0  0  0  0
 28 29  1  0  0  0  0
 30 31  1  1  0  0  0
 30 32  1  0  0  0  0
 30 33  1  0  0  0  0
 33 34  1  0  0  0  0
M  CHG  4   4   1  15   1  18   1  28   1
M  END
>  <CHROM.1>
-137.50342871,-169.09448578,-84.51234027,63.57339485,-54.04218381,151.79141362
-63.43373840,71.63862849,64.98874350,-98.86496299,154.52692327,-133.67011757
176.84399749,20.91061282,45.62698629,-4.18768399,-9.86060219,9.84174559,1.18937557
0.93378991,-1.13077105

>  <Name>
1mwl

>  <RI>
0

>  <Rbt.Current_Directory>
/home/itssahil/PROJECTS/Mol_Feturizer/New_Systems/rnas/1mwl

>  <Rbt.Executable>
rbdock ($Id: //depot/dev/client3/rdock/2013.1/src/exe/rbdock.cxx#4 $)

>  <Rbt.Library>
libRbt.so (2013.1, Build901 2013/11/27)

>  <Rbt.Parameter_File>
/export/apps/rDock/src/rDock_2013.1_src/data/scripts/dock_solv.prm

>  <Rbt.Receptor>
prm/blind_docking_60.prm

>  <SCORE>
-11.6709

>  <SCORE.INTER>
-19.9891

>  <SCORE.INTER.CONST>
1

>  <SCORE.INTER.POLAR>
-5.70289

>  <SCORE.INTER.ROT>
6

>  <SCORE.INTER.SOLV>
23.193

>  <SCORE.INTER.VDW>
-9.64741

>  <SCORE.INTER.norm>
-0.587913

>  <SCORE.INTRA>
-8.07303

>  <SCORE.INTRA.DIHEDRAL>
-13.499

>  <SCORE.INTRA.DIHEDRAL.0>
42.0816

>  <SCORE.INTRA.POLAR>
-0.239633

>  <SCORE.INTRA.POLAR.0>
-0.254682

>  <SCORE.INTRA.REPUL>
0

>  <SCORE.INTRA.REPUL.0>
0

>  <SCORE.INTRA.SOLV>
-0.888878

>  <SCORE.INTRA.SOLV.lig_0>
-109.803

>  <SCORE.INTRA.VDW>
-0.0643471

>  <SCORE.INTRA.VDW.0>
0.32176

>  <SCORE.INTRA.norm>
-0.237442

>  <SCORE.RESTR>
16.3912

>  <SCORE.RESTR.CAVITY>
16.3912

>  <SCORE.RESTR.norm>
0.482095

>  <SCORE.SYSTEM>
0

>  <SCORE.SYSTEM.CONST>
0

>  <SCORE.SYSTEM.DIHEDRAL>
0

>  <SCORE.SYSTEM.SOLV>
0

>  <SCORE.SYSTEM.norm>
0

>  <SCORE.heavy>
34

>  <SCORE.norm>
-0.343261

>  <RMSD>
22.304

$$$$
1mwl
 OpenBabel11021811403D
libRbt.so/2013.1/901 2013/11/27
 34 36  0  0  0  0  0  0  0  0999 V2000
   -2.9478   -8.8870    7.0217 C   0  0  2  0  0  0  0  0  0  0  0  0
   -3.6358   -9.9698    7.5719 O   0  0  0  0  0  0  0  0  0  0  0  0
   -4.0089   -7.8860    6.4840 C   0  0  2  0  0  0  0  0  0  0  0  0
   -4.8928   -7.4543    7.5711 N   0  3  0  0  0  0  0  0  0  0  0  0
   -4.8144   -8.5178    5.3112 C   0  0  1  0  0  0  0  0  0  0  0  0
   -5.7253   -7.6409    4.8197 O   0  0  0  0  0  0  0  0  0  0  0  0
   -3.8095   -8.9593    4.1965 C   0  0  2  0  0  0  0  0  0  0  0  0
   -4.5244   -9.5419    3.0866 O   0  0  0  0  0  0  0  0  0  0  0  0
   -2.7990   -9.9810    4.8201 C   0  0  2  0  0  0  0  0  0  0  0  0
   -2.0835   -9.3653    5.9595 O   0  0  0  0  0  0  0  0  0  0  0  0
   -1.7275  -10.4936    3.8512 C   0  0  2  0  0  0  0  0  0  0  0  0
   -0.4934  -10.5242    4.4911 O   0  0  0  0  0  0  0  0  0  0  0  0
   -1.5459   -9.6056    2.6067 C   0  0  0  0  0  0  0  0  0  0  0  0
   -3.8280  -12.4973   11.0120 C   0  0  2  0  0  0  0  0  0  0  0  0
   -3.4338  -13.2164   12.2502 N   0  3  0  0  0  0  0  0  0  0  0  0
   -2.9559  -12.9577    9.8065 C   0  0  0  0  0  0  0  0  0  0  0  0
   -3.3683  -12.1778    8.5058 C   0  0  2  0  0  0  0  0  0  0  0  0
   -2.5142  -12.6512    7.3555 N   0  3  0  0  0  0  0  0  0  0  0  0
   -3.2081  -10.6383    8.7517 C   0  0  2  0  0  0  0  0  0  0  0  0
   -4.0923  -10.2107    9.9485 C   0  0  2  0  0  0  0  0  0  0  0  0
   -3.9143   -8.8344   10.1811 O   0  0  0  0  0  0  0  0  0  0  0  0
   -3.6620  -10.9778   11.2274 C   0  0  1  0  0  0  0  0  0  0  0  0
   -4.4834  -10.5688   12.3112 O   0  0  0  0  0  0  0  0  0  0  0  0
   -4.0652   -9.4899   13.1010 C   0  0  2  0  0  0  0  0  0  0  0  0
   -4.2769   -9.8865   14.5743 C   0  0  2  0  0  0  0  0  0  0  0  0
   -3.4858  -11.0192   14.8640 O   0  0  0  0  0  0  0  0  0  0  0  0
   -5.7954  -10.1926   14.8101 C   0  0  1  0  0  0  0  0  0  0  0  0
   -6.0799  -10.6128   16.2039 N   0  3  0  0  0  0  0  0  0  0  0  0
   -5.5679   -9.6092   17.1718 C   0  0  0  0  0  0  0  0  0  0  0  0
   -6.6386   -8.9207   14.4520 C   0  0  2  0  0  0  0  0  0  0  0  0
   -6.2420   -7.8184   15.2894 O   0  0  0  0  0  0  0  0  0  0  0  0
   -8.0603   -9.1340   14.6535 C   0  0  0  0  0  0  0  0  0  0  0  0
   -6.3451   -8.4795   12.9849 C   0  0  0  0  0  0  0  0  0  0  0  0
   -4.8712   -8.3014   12.7735 O   0  0  0  0  0  0  0  0  0  0  0  0
  1  2  1  6  0  0  0
  1  3  1  0  0  0  0
  1 10  1  0  0  0  0
  3  4  1  1  0  0  0
  3  5  1  0  0  0  0
  5  6  1  6  0  0  0
  5  7  1  0  0  0  0
  7  8  1  6  0  0  0
  7  9  1  0  0  0  0
  9 10  1  1  0  0  0
  9 11  1  0  0  0  0
 11 12  1  1  0  0  0
 11 13  1  0  0  0  0
 14 15  1  1  0  0  0
 14 16  1  0  0  0  0
 14 22  1  0  0  0  0
 16 17  1  0  0  0  0
 17 18  1  6  0  0  0
 17 19  1  0  0  0  0
 19  2  1  6  0  0  0
 19 20  1  0  0  0  0
 20 21  1  1  0  0  0
 20 22  1  0  0  0  0
 22 23  1  1  0  0  0
 24 23  1  6  0  0  0
 24 25  1  0  0  0  0
 24 34  1  0  0  0  0
 25 26  1  6  0  0  0
 25 27  1  0  0  0  0
 27 28  1  1  0  0  0
 27 30  1  0  0  0  0
 28 29  1  0  0  0  0
 30 31  1  1  0  0  0
 30 32  1  0  0  0  0
 30 33  1  0  0  0  0
 33 34  1  0  0  0  0
M  CHG  4   4   1  15   1  18   1  28   1
M  END
>  <CHROM.1>
-142.13572351,-137.15814314,-40.78277013,57.28146990,66.75195567,137.36724690
-62.40110330,85.43324309,-77.90788943,176.49971774,149.13342473,-134.95560961
-2.06215474,174.32460032,53.52205432,-4.11070565,-9.90143046,9.70450233,1.16397299
0.91116730,-1.21948075

>  <Name>
1mwl

>  <RI>
0

>  <Rbt.Current_Directory>
/home/itssahil/PROJECTS/Mol_Feturizer/New_Systems/rnas/1mwl

>  <Rbt.Executable>
rbdock ($Id: //depot/dev/client3/rdock/2013.1/src/exe/rbdock.cxx#4 $)

>  <Rbt.Library>
libRbt.so (2013.1, Build901 2013/11/27)

>  <Rbt.Parameter_File>
/export/apps/rDock/src/rDock_2013.1_src/data/scripts/dock_solv.prm

>  <Rbt.Receptor>
prm/blind_docking_60.prm

>  <SCORE>
-9.60205

>  <SCORE.INTER>
-23.8342

>  <SCORE.INTER.CONST>
1

>  <SCORE.INTER.POLAR>
-5.94591

>  <SCORE.INTER.ROT>
6

>  <SCORE.INTER.SOLV>
27.6186

>  <SCORE.INTER.VDW>
-12.876

>  <SCORE.INTER.norm>
-0.701006

>  <SCORE.INTRA>
-0.97747

>  <SCORE.INTRA.DIHEDRAL>
-6.21792

>  <SCORE.INTRA.DIHEDRAL.0>
42.0816

>  <SCORE.INTRA.POLAR>
-0.529493

>  <SCORE.INTRA.POLAR.0>
-0.254682

>  <SCORE.INTRA.REPUL>
0

>  <SCORE.INTRA.REPUL.0>
0

>  <SCORE.INTRA.SOLV>
0.0375625

>  <SCORE.INTRA.SOLV.lig_0>
-109.803

>  <SCORE.INTRA.VDW>
3.91298

>  <SCORE.INTRA.VDW.0>
0.32176

>  <SCORE.INTRA.norm>
-0.0287491

>  <SCORE.RESTR>
15.2096

>  <SCORE.RESTR.CAVITY>
15.2096

>  <SCORE.RESTR.norm>
0.447342

>  <SCORE.SYSTEM>
0

>  <SCORE.SYSTEM.CONST>
0

>  <SCORE.SYSTEM.DIHEDRAL>
0

>  <SCORE.SYSTEM.SOLV>
0

>  <SCORE.SYSTEM.norm>
0

>  <SCORE.heavy>
34

>  <SCORE.norm>
-0.282413

>  <RMSD>
22.438

$$$$
1mwl
 OpenBabel11021811403D
libRbt.so/2013.1/901 2013/11/27
 34 36  0  0  0  0  0  0  0  0999 V2000
   -2.9927   -8.5536    6.8964 C   0  0  2  0  0  0  0  0  0  0  0  0
   -3.3920   -9.8779    7.0851 O   0  0  0  0  0  0  0  0  0  0  0  0
   -4.2089   -7.7791    6.3152 C   0  0  2  0  0  0  0  0  0  0  0  0
   -5.3476   -7.8627    7.2350 N   0  3  0  0  0  0  0  0  0  0  0  0
   -4.5775   -8.3172    4.9017 C   0  0  1  0  0  0  0  0  0  0  0  0
   -5.6221   -7.6289    4.3771 O   0  0  0  0  0  0  0  0  0  0  0  0
   -3.3179   -8.2039    3.9807 C   0  0  2  0  0  0  0  0  0  0  0  0
   -3.6270   -8.6860    2.6562 O   0  0  0  0  0  0  0  0  0  0  0  0
   -2.1567   -9.0312    4.6295 C   0  0  2  0  0  0  0  0  0  0  0  0
   -1.8621   -8.5247    5.9882 O   0  0  0  0  0  0  0  0  0  0  0  0
   -0.8365   -9.0000    3.8511 C   0  0  2  0  0  0  0  0  0  0  0  0
   -0.4125   -7.6844    3.7006 O   0  0  0  0  0  0  0  0  0  0  0  0
   -0.9444   -9.5834    2.4304 C   0  0  0  0  0  0  0  0  0  0  0  0
   -4.2721  -12.5855   10.2715 C   0  0  2  0  0  0  0  0  0  0  0  0
   -4.1686  -13.3244   11.5556 N   0  3  0  0  0  0  0  0  0  0  0  0
   -3.0485  -12.8939    9.3585 C   0  0  0  0  0  0  0  0  0  0  0  0
   -3.1584  -12.0933    8.0106 C   0  0  2  0  0  0  0  0  0  0  0  0
   -1.9662  -12.4192    7.1451 N   0  3  0  0  0  0  0  0  0  0  0  0
   -3.2455  -10.5601    8.3239 C   0  0  2  0  0  0  0  0  0  0  0  0
   -4.4746  -10.2851    9.2244 C   0  0  2  0  0  0  0  0  0  0  0  0
   -4.5229   -8.9117    9.5268 O   0  0  0  0  0  0  0  0  0  0  0  0
   -4.3429  -11.0702   10.5569 C   0  0  1  0  0  0  0  0  0  0  0  0
   -5.4779  -10.8015   11.3669 O   0  0  0  0  0  0  0  0  0  0  0  0
   -5.8515   -9.4680   11.5786 C   0  0  2  0  0  0  0  0  0  0  0  0
   -4.8856   -8.8780   12.6235 C   0  0  2  0  0  0  0  0  0  0  0  0
   -3.5705   -8.9253   12.1126 O   0  0  0  0  0  0  0  0  0  0  0  0
   -4.9978   -9.7042   13.9500 C   0  0  1  0  0  0  0  0  0  0  0  0
   -4.0737   -9.2161   15.0026 N   0  3  0  0  0  0  0  0  0  0  0  0
   -3.5887  -10.3418   15.8415 C   0  0  0  0  0  0  0  0  0  0  0  0
   -6.4762   -9.6480   14.4681 C   0  0  2  0  0  0  0  0  0  0  0  0
   -6.8529   -8.2826   14.7272 O   0  0  0  0  0  0  0  0  0  0  0  0
   -6.6505  -10.3919   15.7024 C   0  0  0  0  0  0  0  0  0  0  0  0
   -7.4500  -10.1656   13.3649 C   0  0  0  0  0  0  0  0  0  0  0  0
   -7.2352   -9.4206   12.0813 O   0  0  0  0  0  0  0  0  0  0  0  0
  1  2  1  6  0  0  0
  1  3  1  0  0  0  0
  1 10  1  0  0  0  0
  3  4  1  1  0  0  0
  3  5  1  0  0  0  0
  5  6  1  6  0  0  0
  5  7  1  0  0  0  0
  7  8  1  6  0  0  0
  7  9  1  0  0  0  0
  9 10  1  1  0  0  0
  9 11  1  0  0  0  0
 11 12  1  6  0  0  0
 11 13  1  0  0  0  0
 14 15  1  1  0  0  0
 14 16  1  0  0  0  0
 14 22  1  0  0  0  0
 16 17  1  0  0  0  0
 17 18  1  6  0  0  0
 17 19  1  0  0  0  0
 19  2  1  6  0  0  0
 19 20  1  0  0  0  0
 20 21  1  1  0  0  0
 20 22  1  0  0  0  0
 22 23  1  1  0  0  0
 24 23  1  1  0  0  0
 24 25  1  0  0  0  0
 24 34  1  0  0  0  0
 25 26  1  6  0  0  0
 25 27  1  0  0  0  0
 27 28  1  1  0  0  0
 27 30  1  0  0  0  0
 28 29  1  0  0  0  0
 30 31  1  1  0  0  0
 30 32  1  0  0  0  0
 30 33  1  0  0  0  0
 33 34  1  0  0  0  0
M  CHG  4   4   1  15   1  18   1  28   1
M  END
>  <CHROM.1>
-127.06025605,-154.33086051,-92.02435550,65.46379983,-52.28031015,57.55236131
-54.79540390,-159.96670399,-77.48458012,178.79368037,-170.38507820,-77.19098641
177.77179508,-26.30514474,63.26836615,-4.10466292,-9.68424731,9.13005063
1.09219664,0.87225050,-1.07110926

>  <Name>
1mwl

>  <RI>
0

>  <Rbt.Current_Directory>
/home/itssahil/PROJECTS/Mol_Feturizer/New_Systems/rnas/1mwl

>  <Rbt.Executable>
rbdock ($Id: //depot/dev/client3/rdock/2013.1/src/exe/rbdock.cxx#4 $)

>  <Rbt.Library>
libRbt.so (2013.1, Build901 2013/11/27)

>  <Rbt.Parameter_File>
/export/apps/rDock/src/rDock_2013.1_src/data/scripts/dock_solv.prm

>  <Rbt.Receptor>
prm/blind_docking_60.prm

>  <SCORE>
-7.49507

>  <SCORE.INTER>
-20.3017

>  <SCORE.INTER.CONST>
1

>  <SCORE.INTER.POLAR>
-4.87471

>  <SCORE.INTER.ROT>
6

>  <SCORE.INTER.SOLV>
29.149

>  <SCORE.INTER.VDW>
-14.6018

>  <SCORE.INTER.norm>
-0.597108

>  <SCORE.INTRA>
-3.01429

>  <SCORE.INTRA.DIHEDRAL>
-24.0164

>  <SCORE.INTRA.DIHEDRAL.0>
42.0816

>  <SCORE.INTRA.POLAR>
-0.821016

>  <SCORE.INTRA.POLAR.0>
-0.254682

>  <SCORE.INTRA.REPUL>
0

>  <SCORE.INTRA.REPUL.0>
0

>  <SCORE.INTRA.SOLV>
0.63302

>  <SCORE.INTRA.SOLV.lig_0>
-109.803

>  <SCORE.INTRA.VDW>
11.4688

>  <SCORE.INTRA.VDW.0>
0.32176

>  <SCORE.INTRA.norm>
-0.0886556

>  <SCORE.RESTR>
15.8209

>  <SCORE.RESTR.CAVITY>
15.8209

>  <SCORE.RESTR.norm>
0.46532

>  <SCORE.SYSTEM>
0

>  <SCORE.SYSTEM.CONST>
0

>  <SCORE.SYSTEM.DIHEDRAL>
0

>  <SCORE.SYSTEM.SOLV>
0

>  <SCORE.SYSTEM.norm>
0

>  <SCORE.heavy>
34

>  <SCORE.norm>
-0.220443

>  <RMSD>
22.458

$$$$
1mwl
 OpenBabel11021811403D
libRbt.so/2013.1/901 2013/11/27
 34 36  0  0  0  0  0  0  0  0999 V2000
   -3.1988   -8.6437    7.1838 C   0  0  2  0  0  0  0  0  0  0  0  0
   -3.5310   -9.9809    7.4077 O   0  0  0  0  0  0  0  0  0  0  0  0
   -4.4584   -7.9421    6.6025 C   0  0  2  0  0  0  0  0  0  0  0  0
   -5.5798   -8.0593    7.5396 N   0  3  0  0  0  0  0  0  0  0  0  0
   -4.8186   -8.5298    5.2066 C   0  0  1  0  0  0  0  0  0  0  0  0
   -5.9020   -7.9049    4.6813 O   0  0  0  0  0  0  0  0  0  0  0  0
   -3.5779   -8.3773    4.2658 C   0  0  2  0  0  0  0  0  0  0  0  0
   -3.8803   -8.9041    2.9569 O   0  0  0  0  0  0  0  0  0  0  0  0
   -2.3697   -9.1326    4.9168 C   0  0  2  0  0  0  0  0  0  0  0  0
   -2.0826   -8.5812    6.2595 O   0  0  0  0  0  0  0  0  0  0  0  0
   -1.0627   -9.0558    4.1195 C   0  0  2  0  0  0  0  0  0  0  0  0
   -0.7932   -7.7326    3.7882 O   0  0  0  0  0  0  0  0  0  0  0  0
   -1.1041   -9.8330    2.7912 C   0  0  0  0  0  0  0  0  0  0  0  0
   -3.8699  -12.5737   10.7873 C   0  0  2  0  0  0  0  0  0  0  0  0
   -3.5235  -13.3299   12.0176 N   0  3  0  0  0  0  0  0  0  0  0  0
   -2.9852  -13.0337    9.5907 C   0  0  0  0  0  0  0  0  0  0  0  0
   -3.3468  -12.2149    8.2988 C   0  0  2  0  0  0  0  0  0  0  0  0
   -2.4816  -12.6884    7.1569 N   0  3  0  0  0  0  0  0  0  0  0  0
   -3.1483  -10.6862    8.5814 C   0  0  2  0  0  0  0  0  0  0  0  0
   -4.0459  -10.2586    9.7683 C   0  0  2  0  0  0  0  0  0  0  0  0
   -3.8339   -8.8932   10.0344 O   0  0  0  0  0  0  0  0  0  0  0  0
   -3.6656  -11.0646   11.0391 C   0  0  1  0  0  0  0  0  0  0  0  0
   -4.4984  -10.6550   12.1138 O   0  0  0  0  0  0  0  0  0  0  0  0
   -4.0893   -9.5747   12.9065 C   0  0  2  0  0  0  0  0  0  0  0  0
   -4.1699  -10.0245   14.3776 C   0  0  2  0  0  0  0  0  0  0  0  0
   -3.2939  -11.1138   14.5741 O   0  0  0  0  0  0  0  0  0  0  0  0
   -5.6464  -10.4303   14.7097 C   0  0  1  0  0  0  0  0  0  0  0  0
   -5.8039  -10.9058   16.1059 N   0  3  0  0  0  0  0  0  0  0  0  0
   -5.7354  -12.3882   16.1685 C   0  0  0  0  0  0  0  0  0  0  0  0
   -6.5877   -9.2034   14.4531 C   0  0  2  0  0  0  0  0  0  0  0  0
   -6.1981   -8.1024   15.2954 O   0  0  0  0  0  0  0  0  0  0  0  0
   -7.9758   -9.5097   14.7473 C   0  0  0  0  0  0  0  0  0  0  0  0
   -6.4278   -8.7042   12.9839 C   0  0  0  0  0  0  0  0  0  0  0  0
   -4.9863   -8.4296   12.6750 O   0  0  0  0  0  0  0  0  0  0  0  0
  1  2  1  6  0  0  0
  1  3  1  0  0  0  0
  1 10  1  0  0  0  0
  3  4  1  1  0  0  0
  3  5  1  0  0  0  0
  5  6  1  6  0  0  0
  5  7  1  0  0  0  0
  7  8  1  6  0  0  0
  7  9  1  0  0  0  0
  9 10  1  1  0  0  0
  9 11  1  0  0  0  0
 11 12  1  6  0  0  0
 11 13  1  0  0  0  0
 14 15  1  1  0  0  0
 14 16  1  0  0  0  0
 14 22  1  0  0  0  0
 16 17  1  0  0  0  0
 17 18  1  6  0  0  0
 17 19  1  0  0  0  0
 19  2  1  6  0  0  0
 19 20  1  0  0  0  0
 20 21  1  1  0  0  0
 20 22  1  0  0  0  0
 22 23  1  1  0  0  0
 24 23  1  6  0  0  0
 24 25  1  0  0  0  0
 24 34  1  0  0  0  0
 25 26  1  6  0  0  0
 25 27  1  0  0  0  0
 27 28  1  1  0  0  0
 27 30  1  0  0  0  0
 28 29  1  0  0  0  0
 30 31  1  1  0  0  0
 30 32  1  0  0  0  0
 30 33  1  0  0  0  0
 33 34  1  0  0  0  0
M  CHG  4   4   1  15   1  18   1  28   1
M  END
>  <CHROM.1>
-137.23090388,-164.68500392,33.18074608,-174.61928829,-57.99792819,50.09130197
179.96390170,-156.62308933,-78.38490955,178.89176481,151.36237386,-128.87646088
178.35141090,24.14486105,-173.18303848,-4.08206069,-9.88740422,9.58596316
1.14547237,0.90947132,-1.08720818

>  <Name>
1mwl

>  <RI>
0

>  <Rbt.Current_Directory>
/home/itssahil/PROJECTS/Mol_Feturizer/New_Systems/rnas/1mwl

>  <Rbt.Executable>
rbdock ($Id: //depot/dev/client3/rdock/2013.1/src/exe/rbdock.cxx#4 $)

>  <Rbt.Library>
libRbt.so (2013.1, Build901 2013/11/27)

>  <Rbt.Parameter_File>
/export/apps/rDock/src/rDock_2013.1_src/data/scripts/dock_solv.prm

>  <Rbt.Receptor>
prm/blind_docking_60.prm

>  <SCORE>
-25.4532

>  <SCORE.INTER>
-28.6088

>  <SCORE.INTER.CONST>
1

>  <SCORE.INTER.POLAR>
-5.73295

>  <SCORE.INTER.ROT>
6

>  <SCORE.INTER.SOLV>
23.0042

>  <SCORE.INTER.VDW>
-15.2308

>  <SCORE.INTER.norm>
-0.841436

>  <SCORE.INTRA>
-13.6151

>  <SCORE.INTRA.DIHEDRAL>
-18.3061

>  <SCORE.INTRA.DIHEDRAL.0>
42.0816

>  <SCORE.INTRA.POLAR>
-0.91972

>  <SCORE.INTRA.POLAR.0>
-0.254682

>  <SCORE.INTRA.REPUL>
0

>  <SCORE.INTRA.REPUL.0>
0

>  <SCORE.INTRA.SOLV>
-0.188883

>  <SCORE.INTRA.SOLV.lig_0>
-109.803

>  <SCORE.INTRA.VDW>
-1.24059

>  <SCORE.INTRA.VDW.0>
0.32176

>  <SCORE.INTRA.norm>
-0.400445

>  <SCORE.RESTR>
16.7707

>  <SCORE.RESTR.CAVITY>
16.7707

>  <SCORE.RESTR.norm>
0.493257

>  <SCORE.SYSTEM>
0

>  <SCORE.SYSTEM.CONST>
0

>  <SCORE.SYSTEM.DIHEDRAL>
0

>  <SCORE.SYSTEM.SOLV>
0

>  <SCORE.SYSTEM.norm>
0

>  <SCORE.heavy>
34

>  <SCORE.norm>
-0.748624

>  <RMSD>
22.471

$$$$
1mwl
 OpenBabel11021811403D
libRbt.so/2013.1/901 2013/11/27
 34 36  0  0  0  0  0  0  0  0999 V2000
   -3.0474   -8.8992    7.3336 C   0  0  2  0  0  0  0  0  0  0  0  0
   -3.3631  -10.2500    7.4898 O   0  0  0  0  0  0  0  0  0  0  0  0
   -4.3315   -8.1752    6.8398 C   0  0  2  0  0  0  0  0  0  0  0  0
   -5.4176   -8.3564    7.8078 N   0  3  0  0  0  0  0  0  0  0  0  0
   -4.7381   -8.6828    5.4254 C   0  0  1  0  0  0  0  0  0  0  0  0
   -5.8436   -8.0371    4.9769 O   0  0  0  0  0  0  0  0  0  0  0  0
   -3.5332   -8.4651    4.4517 C   0  0  2  0  0  0  0  0  0  0  0  0
   -3.8792   -8.9166    3.1256 O   0  0  0  0  0  0  0  0  0  0  0  0
   -2.2976   -9.2472    5.0135 C   0  0  2  0  0  0  0  0  0  0  0  0
   -1.9657   -8.7734    6.3754 O   0  0  0  0  0  0  0  0  0  0  0  0
   -1.0207   -9.1130    4.1761 C   0  0  2  0  0  0  0  0  0  0  0  0
   -0.8012   -7.7750    3.8680 O   0  0  0  0  0  0  0  0  0  0  0  0
   -1.0836   -9.8604    2.8316 C   0  0  0  0  0  0  0  0  0  0  0  0
   -3.8070  -12.8536   10.8489 C   0  0  2  0  0  0  0  0  0  0  0  0
   -3.4856  -13.6514   12.0595 N   0  3  0  0  0  0  0  0  0  0  0  0
   -2.9975  -13.3658    9.6209 C   0  0  0  0  0  0  0  0  0  0  0  0
   -3.3309  -12.5035    8.3499 C   0  0  2  0  0  0  0  0  0  0  0  0
   -2.5402  -13.0284    7.1768 N   0  3  0  0  0  0  0  0  0  0  0  0
   -3.0031  -10.9993    8.6434 C   0  0  2  0  0  0  0  0  0  0  0  0
   -3.8284  -10.5181    9.8618 C   0  0  2  0  0  0  0  0  0  0  0  0
   -3.5007   -9.1775   10.1366 O   0  0  0  0  0  0  0  0  0  0  0  0
   -3.4760  -11.3689   11.1113 C   0  0  1  0  0  0  0  0  0  0  0  0
   -4.2414  -10.9093   12.2155 O   0  0  0  0  0  0  0  0  0  0  0  0
   -3.7832   -9.7974   12.9341 C   0  0  2  0  0  0  0  0  0  0  0  0
   -4.2508   -9.9650   14.3922 C   0  0  2  0  0  0  0  0  0  0  0  0
   -3.6804  -11.1408   14.9259 O   0  0  0  0  0  0  0  0  0  0  0  0
   -5.8154  -10.0411   14.4237 C   0  0  1  0  0  0  0  0  0  0  0  0
   -6.3469  -10.2331   15.7951 N   0  3  0  0  0  0  0  0  0  0  0  0
   -6.0744  -11.6111   16.2778 C   0  0  0  0  0  0  0  0  0  0  0  0
   -6.4072   -8.7308   13.7991 C   0  0  2  0  0  0  0  0  0  0  0  0
   -5.9733   -7.5869   14.5584 O   0  0  0  0  0  0  0  0  0  0  0  0
   -7.8589   -8.7327   13.8015 C   0  0  0  0  0  0  0  0  0  0  0  0
   -5.8539   -8.5290   12.3547 C   0  0  0  0  0  0  0  0  0  0  0  0
   -4.3549   -8.5698   12.3547 O   0  0  0  0  0  0  0  0  0  0  0  0
  1  2  1  6  0  0  0
  1  3  1  0  0  0  0
  1 10  1  0  0  0  0
  3  4  1  1  0  0  0
  3  5  1  0  0  0  0
  5  6  1  6  0  0  0
  5  7  1  0  0  0  0
  7  8  1  6  0  0  0
  7  9  1  0  0  0  0
  9 10  1  1  0  0  0
  9 11  1  0  0  0  0
 11 12  1  6  0  0  0
 11 13  1  0  0  0  0
 14 15  1  1  0  0  0
 14 16  1  0  0  0  0
 14 22  1  0  0  0  0
 16 17  1  0  0  0  0
 17 18  1  6  0  0  0
 17 19  1  0  0  0  0
 19  2  1  6  0  0  0
 19 20  1  0  0  0  0
 20 21  1  1  0  0  0
 20 22  1  0  0  0  0
 22 23  1  1  0  0  0
 24 23  1  6  0  0  0
 24 25  1  0  0  0  0
 24 34  1  0  0  0  0
 25 26  1  6  0  0  0
 25 27  1  0  0  0  0
 27 28  1  1  0  0  0
 27 30  1  0  0  0  0
 28 29  1  0  0  0  0
 30 31  1  1  0  0  0
 30 32  1  0  0  0  0
 30 33  1  0  0  0  0
 33 34  1  0  0  0  0
M  CHG  4   4   1  15   1  18   1  28   1
M  END
>  <CHROM.1>
-133.31984682,-171.40161702,29.09160746,-63.92171179,160.75916433,47.68371744
-176.28154773,-158.35021841,63.99711950,-89.49976404,157.06144703,-149.41203630
34.53132146,48.03393966,-78.18410356,-3.99943513,-9.92575196,9.56569027,1.07718921
0.97041802,-1.04381124

>  <Name>
1mwl

>  <RI>
0

>  <Rbt.Current_Directory>
/home/itssahil/PROJECTS/Mol_Feturizer/New_Systems/rnas/1mwl

>  <Rbt.Executable>
rbdock ($Id: //depot/dev/client3/rdock/2013.1/src/exe/rbdock.cxx#4 $)

>  <Rbt.Library>
libRbt.so (2013.1, Build901 2013/11/27)

>  <Rbt.Parameter_File>
/export/apps/rDock/src/rDock_2013.1_src/data/scripts/dock_solv.prm

>  <Rbt.Receptor>
prm/blind_docking_60.prm

>  <SCORE>
-26.1366

>  <SCORE.INTER>
-33.2409

>  <SCORE.INTER.CONST>
1

>  <SCORE.INTER.POLAR>
-6.4436

>  <SCORE.INTER.ROT>
6

>  <SCORE.INTER.SOLV>
21.9341

>  <SCORE.INTER.VDW>
-15.5933

>  <SCORE.INTER.norm>
-0.977674

>  <SCORE.INTRA>
-9.72902

>  <SCORE.INTRA.DIHEDRAL>
-16.0384

>  <SCORE.INTRA.DIHEDRAL.0>
42.0816

>  <SCORE.INTRA.POLAR>
-0.824637

>  <SCORE.INTRA.POLAR.0>
-0.254682

>  <SCORE.INTRA.REPUL>
0

>  <SCORE.INTRA.REPUL.0>
0

>  <SCORE.INTRA.SOLV>
-0.197485

>  <SCORE.INTRA.SOLV.lig_0>
-109.803

>  <SCORE.INTRA.VDW>
1.19267

>  <SCORE.INTRA.VDW.0>
0.32176

>  <SCORE.INTRA.norm>
-0.286148

>  <SCORE.RESTR>
16.8333

>  <SCORE.RESTR.CAVITY>
16.8333

>  <SCORE.RESTR.norm>
0.495096

>  <SCORE.SYSTEM>
0

>  <SCORE.SYSTEM.CONST>
0

>  <SCORE.SYSTEM.DIHEDRAL>
0

>  <SCORE.SYSTEM.SOLV>
0

>  <SCORE.SYSTEM.norm>
0

>  <SCORE.heavy>
34

>  <SCORE.norm>
-0.768725

>  <RMSD>
22.479

$$$$
1mwl
 OpenBabel11021811403D
libRbt.so/2013.1/901 2013/11/27
 34 36  0  0  0  0  0  0  0  0999 V2000
   -3.0039   -8.8517    7.3162 C   0  0  2  0  0  0  0  0  0  0  0  0
   -3.3743  -10.1787    7.5414 O   0  0  0  0  0  0  0  0  0  0  0  0
   -4.2504   -8.1089    6.7582 C   0  0  2  0  0  0  0  0  0  0  0  0
   -5.3592   -8.1943    7.7136 N   0  3  0  0  0  0  0  0  0  0  0  0
   -4.6520   -8.6799    5.3667 C   0  0  1  0  0  0  0  0  0  0  0  0
   -5.7238   -8.0194    4.8615 O   0  0  0  0  0  0  0  0  0  0  0  0
   -3.4229   -8.5630    4.4058 C   0  0  2  0  0  0  0  0  0  0  0  0
   -3.7634   -9.0753    3.1004 O   0  0  0  0  0  0  0  0  0  0  0  0
   -2.2284   -9.3581    5.0341 C   0  0  2  0  0  0  0  0  0  0  0  0
   -1.9019   -8.8210    6.3736 O   0  0  0  0  0  0  0  0  0  0  0  0
   -0.9330   -9.3195    4.2154 C   0  0  2  0  0  0  0  0  0  0  0  0
   -0.5527   -7.9991    4.0026 O   0  0  0  0  0  0  0  0  0  0  0  0
   -1.0651   -9.9601    2.8217 C   0  0  0  0  0  0  0  0  0  0  0  0
   -3.8162  -12.7530   10.9232 C   0  0  2  0  0  0  0  0  0  0  0  0
   -3.5030  -13.5135   12.1598 N   0  3  0  0  0  0  0  0  0  0  0  0
   -2.9276  -13.2371    9.7391 C   0  0  0  0  0  0  0  0  0  0  0  0
   -3.2537  -12.4138    8.4407 C   0  0  2  0  0  0  0  0  0  0  0  0
   -2.3857  -12.9108    7.3110 N   0  3  0  0  0  0  0  0  0  0  0  0
   -3.0229  -10.8893    8.7218 C   0  0  2  0  0  0  0  0  0  0  0  0
   -3.9250  -10.4374    9.8961 C   0  0  2  0  0  0  0  0  0  0  0  0
   -3.6843   -9.0765   10.1613 O   0  0  0  0  0  0  0  0  0  0  0  0
   -3.5796  -11.2484   11.1737 C   0  0  1  0  0  0  0  0  0  0  0  0
   -4.4160  -10.8162   12.2368 O   0  0  0  0  0  0  0  0  0  0  0  0
   -4.0207   -9.7053   12.9932 C   0  0  2  0  0  0  0  0  0  0  0  0
   -4.1885  -10.0748   14.4792 C   0  0  2  0  0  0  0  0  0  0  0  0
   -3.3519  -11.1719   14.7776 O   0  0  0  0  0  0  0  0  0  0  0  0
   -5.6901  -10.4286   14.7535 C   0  0  1  0  0  0  0  0  0  0  0  0
   -5.9314  -10.8260   16.1620 N   0  3  0  0  0  0  0  0  0  0  0  0
   -5.4509   -9.7757   17.0957 C   0  0  0  0  0  0  0  0  0  0  0  0
   -6.5851   -9.1957   14.3846 C   0  0  2  0  0  0  0  0  0  0  0  0
   -6.2113   -8.0610   15.1885 O   0  0  0  0  0  0  0  0  0  0  0  0
   -7.9939   -9.4542   14.6205 C   0  0  0  0  0  0  0  0  0  0  0  0
   -6.3371   -8.7786   12.9022 C   0  0  0  0  0  0  0  0  0  0  0  0
   -4.8750   -8.5537   12.6560 O   0  0  0  0  0  0  0  0  0  0  0  0
  1  2  1  6  0  0  0
  1  3  1  0  0  0  0
  1 10  1  0  0  0  0
  3  4  1  1  0  0  0
  3  5  1  0  0  0  0
  5  6  1  6  0  0  0
  5  7  1  0  0  0  0
  7  8  1  6  0  0  0
  7  9  1  0  0  0  0
  9 10  1  1  0  0  0
  9 11  1  0  0  0  0
 11 12  1  6  0  0  0
 11 13  1  0  0  0  0
 14 15  1  1  0  0  0
 14 16  1  0  0  0  0
 14 22  1  0  0  0  0
 16 17  1  0  0  0  0
 17 18  1  6  0  0  0
 17 19  1  0  0  0  0
 19  2  1  6  0  0  0
 19 20  1  0  0  0  0
 20 21  1  1  0  0  0
 20 22  1  0  0  0  0
 22 23  1  1  0  0  0
 24 23  1  6  0  0  0
 24 25  1  0  0  0  0
 24 34  1  0  0  0  0
 25 26  1  6  0  0  0
 25 27  1  0  0  0  0
 27 28  1  1  0  0  0
 27 30  1  0  0  0  0
 28 29  1  0  0  0  0
 30 31  1  1  0  0  0
 30 32  1  0  0  0  0
 30 33  1  0  0  0  0
 33 34  1  0  0  0  0
M  CHG  4   4   1  15   1  18   1  28   1
M  END
>  <CHROM.1>
-135.59877018,-164.45409920,33.16386295,61.39421500,69.40375960,56.24779470
-53.69216148,-151.14829643,156.62428594,-91.66063514,154.23434485,-132.86918166
-177.35962587,175.00481485,49.88780807,-3.98288254,-9.94155578,9.71010686
1.11414695,0.92541612,-1.10292395

>  <Name>
1mwl

>  <RI>
0

>  <Rbt.Current_Directory>
/home/itssahil/PROJECTS/Mol_Feturizer/New_Systems/rnas/1mwl

>  <Rbt.Executable>
rbdock ($Id: //depot/dev/client3/rdock/2013.1/src/exe/rbdock.cxx#4 $)

>  <Rbt.Library>
libRbt.so (2013.1, Build901 2013/11/27)

>  <Rbt.Parameter_File>
/export/apps/rDock/src/rDock_2013.1_src/data/scripts/dock_solv.prm

>  <Rbt.Receptor>
prm/blind_docking_60.prm

>  <SCORE>
-26.6004

>  <SCORE.INTER>
-33.188

>  <SCORE.INTER.CONST>
1

>  <SCORE.INTER.POLAR>
-6.92899

>  <SCORE.INTER.ROT>
6

>  <SCORE.INTER.SOLV>
22.7995

>  <SCORE.INTER.VDW>
-14.2285

>  <SCORE.INTER.norm>
-0.976116

>  <SCORE.INTRA>
-9.3922

>  <SCORE.INTRA.DIHEDRAL>
-16.1393

>  <SCORE.INTRA.DIHEDRAL.0>
42.0816

>  <SCORE.INTRA.POLAR>
-0.84795

>  <SCORE.INTRA.POLAR.0>
-0.254682

>  <SCORE.INTRA.REPUL>
0

>  <SCORE.INTRA.REPUL.0>
0

>  <SCORE.INTRA.SOLV>
-1.52647

>  <SCORE.INTRA.SOLV.lig_0>
-109.803

>  <SCORE.INTRA.VDW>
2.32371

>  <SCORE.INTRA.VDW.0>
0.32176

>  <SCORE.INTRA.norm>
-0.276241

>  <SCORE.RESTR>
15.9798

>  <SCORE.RESTR.CAVITY>
15.9798

>  <SCORE.RESTR.norm>
0.469993

>  <SCORE.SYSTEM>
0

>  <SCORE.SYSTEM.CONST>
0

>  <SCORE.SYSTEM.DIHEDRAL>
0

>  <SCORE.SYSTEM.SOLV>
0

>  <SCORE.SYSTEM.norm>
0

>  <SCORE.heavy>
34

>  <SCORE.norm>
-0.782364

>  <RMSD>
22.483

$$$$
1mwl
 OpenBabel11021811403D
libRbt.so/2013.1/901 2013/11/27
 34 36  0  0  0  0  0  0  0  0999 V2000
   -3.7964   -8.1809    6.7505 C   0  0  2  0  0  0  0  0  0  0  0  0
   -4.1098   -9.4969    7.0946 O   0  0  0  0  0  0  0  0  0  0  0  0
   -4.9277   -7.6613    5.8192 C   0  0  2  0  0  0  0  0  0  0  0  0
   -6.2211   -7.7354    6.5055 N   0  3  0  0  0  0  0  0  0  0  0  0
   -4.9460   -8.4574    4.4815 C   0  0  1  0  0  0  0  0  0  0  0  0
   -5.9143   -7.9926    3.6529 O   0  0  0  0  0  0  0  0  0  0  0  0
   -3.5371   -8.3399    3.8116 C   0  0  2  0  0  0  0  0  0  0  0  0
   -3.5209   -9.0597    2.5611 O   0  0  0  0  0  0  0  0  0  0  0  0
   -2.4689   -8.9070    4.8072 C   0  0  2  0  0  0  0  0  0  0  0  0
   -2.5085   -8.1595    6.0836 O   0  0  0  0  0  0  0  0  0  0  0  0
   -1.0234   -8.8399    4.3012 C   0  0  2  0  0  0  0  0  0  0  0  0
   -0.7163   -7.5348    3.9326 O   0  0  0  0  0  0  0  0  0  0  0  0
   -0.7640   -9.7112    3.0587 C   0  0  0  0  0  0  0  0  0  0  0  0
   -3.4375  -12.4603   10.0989 C   0  0  2  0  0  0  0  0  0  0  0  0
   -2.7924  -13.2298   11.1930 N   0  3  0  0  0  0  0  0  0  0  0  0
   -2.5728  -12.5131    8.8045 C   0  0  0  0  0  0  0  0  0  0  0  0
   -3.2548  -11.6809    7.6589 C   0  0  2  0  0  0  0  0  0  0  0  0
   -2.4003  -11.7584    6.4177 N   0  3  0  0  0  0  0  0  0  0  0  0
   -3.4485  -10.2012    8.1379 C   0  0  2  0  0  0  0  0  0  0  0  0
   -4.3178  -10.1817    9.4189 C   0  0  2  0  0  0  0  0  0  0  0  0
   -4.4563   -8.8521    9.8584 O   0  0  0  0  0  0  0  0  0  0  0  0
   -3.6231  -10.9941   10.5444 C   0  0  1  0  0  0  0  0  0  0  0  0
   -4.4355  -10.9606   11.7087 O   0  0  0  0  0  0  0  0  0  0  0  0
   -5.5457  -10.1064   11.7286 C   0  0  2  0  0  0  0  0  0  0  0  0
   -5.3176   -9.0785   12.8531 C   0  0  2  0  0  0  0  0  0  0  0  0
   -4.1532   -8.3339   12.5662 O   0  0  0  0  0  0  0  0  0  0  0  0
   -5.1731   -9.8347   14.2178 C   0  0  1  0  0  0  0  0  0  0  0  0
   -4.9203   -8.9139   15.3528 N   0  3  0  0  0  0  0  0  0  0  0  0
   -3.4915   -8.9546   15.7563 C   0  0  0  0  0  0  0  0  0  0  0  0
   -6.4735  -10.6683   14.4846 C   0  0  2  0  0  0  0  0  0  0  0  0
   -7.6135   -9.7910   14.5475 O   0  0  0  0  0  0  0  0  0  0  0  0
   -6.4088  -11.3929   15.7408 C   0  0  0  0  0  0  0  0  0  0  0  0
   -6.7390  -11.6413   13.2946 C   0  0  0  0  0  0  0  0  0  0  0  0
   -6.7631  -10.8912   11.9964 O   0  0  0  0  0  0  0  0  0  0  0  0
  1  2  1  6  0  0  0
  1  3  1  0  0  0  0
  1 10  1  0  0  0  0
  3  4  1  1  0  0  0
  3  5  1  0  0  0  0
  5  6  1  6  0  0  0
  5  7  1  0  0  0  0
  7  8  1  6  0  0  0
  7  9  1  0  0  0  0
  9 10  1  1  0  0  0
  9 11  1  0  0  0  0
 11 12  1  6  0  0  0
 11 13  1  0  0  0  0
 14 15  1  1  0  0  0
 14 16  1  0  0  0  0
 14 22  1  0  0  0  0
 16 17  1  0  0  0  0
 17 18  1  6  0  0  0
 17 19  1  0  0  0  0
 19  2  1  6  0  0  0
 19 20  1  0  0  0  0
 20 21  1  1  0  0  0
 20 22  1  0  0  0  0
 22 23  1  1  0  0  0
 24 23  1  1  0  0  0
 24 25  1  0  0  0  0
 24 34  1  0  0  0  0
 25 26  1  6  0  0  0
 25 27  1  0  0  0  0
 27 28  1  1  0  0  0
 27 30  1  0  0  0  0
 28 29  1  0  0  0  0
 30 31  1  1  0  0  0
 30 32  1  0  0  0  0
 30 33  1  0  0  0  0
 33 34  1  0  0  0  0
M  CHG  4   4   1  15   1  18   1  28   1
M  END
>  <CHROM.1>
-167.11632583,-141.15174707,-169.56044343,-71.77294338,-53.34747669,54.38874973
-169.61749875,-118.26650693,-69.55396506,86.24910698,-128.96816418,-117.43500586
-49.06540533,16.42448742,-53.71087278,-4.17524654,-9.75901666,9.07923882
1.22552070,0.73269103,-1.18041931

>  <Name>
1mwl

>  <RI>
0

>  <Rbt.Current_Directory>
/home/itssahil/PROJECTS/Mol_Feturizer/New_Systems/rnas/1mwl

>  <Rbt.Executable>
rbdock ($Id: //depot/dev/client3/rdock/2013.1/src/exe/rbdock.cxx#4 $)

>  <Rbt.Library>
libRbt.so (2013.1, Build901 2013/11/27)

>  <Rbt.Parameter_File>
/export/apps/rDock/src/rDock_2013.1_src/data/scripts/dock_solv.prm

>  <Rbt.Receptor>
prm/blind_docking_60.prm

>  <SCORE>
-12.8176

>  <SCORE.INTER>
-29.1352

>  <SCORE.INTER.CONST>
1

>  <SCORE.INTER.POLAR>
-5.76647

>  <SCORE.INTER.ROT>
6

>  <SCORE.INTER.SOLV>
25.4407

>  <SCORE.INTER.VDW>
-16.2821

>  <SCORE.INTER.norm>
-0.856918

>  <SCORE.INTRA>
-0.703124

>  <SCORE.INTRA.DIHEDRAL>
-9.75357

>  <SCORE.INTRA.DIHEDRAL.0>
42.0816

>  <SCORE.INTRA.POLAR>
0.223224

>  <SCORE.INTRA.POLAR.0>
-0.254682

>  <SCORE.INTRA.REPUL>
0

>  <SCORE.INTRA.REPUL.0>
0

>  <SCORE.INTRA.SOLV>
0.504968

>  <SCORE.INTRA.SOLV.lig_0>
-109.803

>  <SCORE.INTRA.VDW>
3.16221

>  <SCORE.INTRA.VDW.0>
0.32176

>  <SCORE.INTRA.norm>
-0.0206801

>  <SCORE.RESTR>
17.0208

>  <SCORE.RESTR.CAVITY>
17.0208

>  <SCORE.RESTR.norm>
0.500611

>  <SCORE.SYSTEM>
0

>  <SCORE.SYSTEM.CONST>
0

>  <SCORE.SYSTEM.DIHEDRAL>
0

>  <SCORE.SYSTEM.SOLV>
0

>  <SCORE.SYSTEM.norm>
0

>  <SCORE.heavy>
34

>  <SCORE.norm>
-0.376987

>  <RMSD>
22.538

$$$$
1mwl
 OpenBabel11021811403D
libRbt.so/2013.1/901 2013/11/27
 34 36  0  0  0  0  0  0  0  0999 V2000
   -3.2694  -10.8623   10.6505 C   0  0  2  0  0  0  0  0  0  0  0  0
   -4.0908  -10.8614    9.5218 O   0  0  0  0  0  0  0  0  0  0  0  0
   -3.3499  -12.2800   11.2836 C   0  0  2  0  0  0  0  0  0  0  0  0
   -2.9184  -13.2915   10.3141 N   0  3  0  0  0  0  0  0  0  0  0  0
   -4.7885  -12.5672   11.8047 C   0  0  1  0  0  0  0  0  0  0  0  0
   -4.8604  -13.7929   12.3816 O   0  0  0  0  0  0  0  0  0  0  0  0
   -5.1824  -11.4483   12.8247 C   0  0  2  0  0  0  0  0  0  0  0  0
   -6.5098  -11.6889   13.3368 O   0  0  0  0  0  0  0  0  0  0  0  0
   -5.0972  -10.0644   12.0956 C   0  0  2  0  0  0  0  0  0  0  0  0
   -3.7309   -9.8424   11.5729 O   0  0  0  0  0  0  0  0  0  0  0  0
   -5.4347   -8.8556   12.9759 C   0  0  2  0  0  0  0  0  0  0  0  0
   -4.9096   -9.0427   14.2497 O   0  0  0  0  0  0  0  0  0  0  0  0
   -6.9465   -8.6309   13.1616 C   0  0  0  0  0  0  0  0  0  0  0  0
   -4.9471   -8.7825    5.8880 C   0  0  2  0  0  0  0  0  0  0  0  0
   -4.9611   -7.7264    4.8440 N   0  3  0  0  0  0  0  0  0  0  0  0
   -5.5964   -8.2635    7.2052 C   0  0  0  0  0  0  0  0  0  0  0  0
   -5.5600   -9.3819    8.3087 C   0  0  2  0  0  0  0  0  0  0  0  0
   -6.2031   -8.8537    9.5673 N   0  3  0  0  0  0  0  0  0  0  0  0
   -4.0751   -9.8184    8.5556 C   0  0  2  0  0  0  0  0  0  0  0  0
   -3.4613  -10.3367    7.2320 C   0  0  2  0  0  0  0  0  0  0  0  0
   -2.1190  -10.6933    7.4582 O   0  0  0  0  0  0  0  0  0  0  0  0
   -3.4905   -9.2160    6.1585 C   0  0  1  0  0  0  0  0  0  0  0  0
   -2.9214   -9.7119    4.9557 O   0  0  0  0  0  0  0  0  0  0  0  0
   -1.5528  -10.0104    4.9334 C   0  0  2  0  0  0  0  0  0  0  0  0
   -0.8135   -8.7523    4.4399 C   0  0  2  0  0  0  0  0  0  0  0  0
   -1.0521   -7.6945    5.3435 O   0  0  0  0  0  0  0  0  0  0  0  0
   -1.3261   -8.3857    3.0054 C   0  0  1  0  0  0  0  0  0  0  0  0
   -0.6819   -7.1626    2.4678 N   0  3  0  0  0  0  0  0  0  0  0  0
   -1.3935   -5.9445    2.9326 C   0  0  0  0  0  0  0  0  0  0  0  0
   -1.0671   -9.5945    2.0416 C   0  0  2  0  0  0  0  0  0  0  0  0
    0.3430   -9.8801    1.9821 O   0  0  0  0  0  0  0  0  0  0  0  0
   -1.5154   -9.3193    0.6886 C   0  0  0  0  0  0  0  0  0  0  0  0
   -1.7478  -10.8813    2.6019 C   0  0  0  0  0  0  0  0  0  0  0  0
   -1.3115  -11.1355    4.0139 O   0  0  0  0  0  0  0  0  0  0  0  0
  1  2  1  6  0  0  0
  1  3  1  0  0  0  0
  1 10  1  0  0  0  0
  3  4  1  6  0  0  0
  3  5  1  0  0  0  0
  5  6  1  1  0  0  0
  5  7  1  0  0  0  0
  7  8  1  6  0  0  0
  7  9  1  0  0  0  0
  9 10  1  1  0  0  0
  9 11  1  0  0  0  0
 11 12  1  1  0  0  0
 11 13  1  0  0  0  0
 14 15  1  6  0  0  0
 14 16  1  0  0  0  0
 14 22  1  0  0  0  0
 16 17  1  0  0  0  0
 17 18  1  1  0  0  0
 17 19  1  0  0  0  0
 19  2  1  1  0  0  0
 19 20  1  0  0  0  0
 20 21  1  1  0  0  0
 20 22  1  0  0  0  0
 22 23  1  6  0  0  0
 24 23  1  6  0  0  0
 24 25  1  0  0  0  0
 24 34  1  0  0  0  0
 25 26  1  1  0  0  0
 25 27  1  0  0  0  0
 27 28  1  6  0  0  0
 27 30  1  0  0  0  0
 28 29  1  0  0  0  0
 30 31  1  6  0  0  0
 30 32  1  0  0  0  0
 30 33  1  0  0  0  0
 33 34  1  0  0  0  0
M  CHG  4   4   1  15   1  18   1  28   1
M  END
>  <CHROM.1>
-168.01842881,-130.64690085,-59.26559826,53.97297940,-59.75015111,38.96660550
59.33727998,45.85835151,34.23863899,61.82341318,172.35374865,-92.37751855
64.03806762,34.89377160,-55.35213348,-3.41847689,-9.85181293,7.69392625,-2.24082426
0.93575636,-0.79428243

>  <Name>
1mwl

>  <RI>
0

>  <Rbt.Current_Directory>
/home/itssahil/PROJECTS/Mol_Feturizer/New_Systems/rnas/1mwl

>  <Rbt.Executable>
rbdock ($Id: //depot/dev/client3/rdock/2013.1/src/exe/rbdock.cxx#4 $)

>  <Rbt.Library>
libRbt.so (2013.1, Build901 2013/11/27)

>  <Rbt.Parameter_File>
/export/apps/rDock/src/rDock_2013.1_src/data/scripts/dock_solv.prm

>  <Rbt.Receptor>
prm/blind_docking_60.prm

>  <SCORE>
-13.5422

>  <SCORE.INTER>
-18.4162

>  <SCORE.INTER.CONST>
1

>  <SCORE.INTER.POLAR>
-3.2985

>  <SCORE.INTER.ROT>
6

>  <SCORE.INTER.SOLV>
24.6348

>  <SCORE.INTER.VDW>
-17.094

>  <SCORE.INTER.norm>
-0.541652

>  <SCORE.INTRA>
-14.1393

>  <SCORE.INTRA.DIHEDRAL>
-25.2353

>  <SCORE.INTRA.DIHEDRAL.0>
42.0816

>  <SCORE.INTRA.POLAR>
0.211255

>  <SCORE.INTRA.POLAR.0>
-0.254682

>  <SCORE.INTRA.REPUL>
0

>  <SCORE.INTRA.REPUL.0>
0

>  <SCORE.INTRA.SOLV>
2.80379

>  <SCORE.INTRA.SOLV.lig_0>
-109.803

>  <SCORE.INTRA.VDW>
-3.64183

>  <SCORE.INTRA.VDW.0>
0.32176

>  <SCORE.INTRA.norm>
-0.415862

>  <SCORE.RESTR>
19.0133

>  <SCORE.RESTR.CAVITY>
19.0133

>  <SCORE.RESTR.norm>
0.559214

>  <SCORE.SYSTEM>
0

>  <SCORE.SYSTEM.CONST>
0

>  <SCORE.SYSTEM.DIHEDRAL>
0

>  <SCORE.SYSTEM.SOLV>
0

>  <SCORE.SYSTEM.norm>
0

>  <SCORE.heavy>
34

>  <SCORE.norm>
-0.398299

>  <RMSD>
22.549

$$$$
1mwl
 OpenBabel11021811403D
libRbt.so/2013.1/901 2013/11/27
 34 36  0  0  0  0  0  0  0  0999 V2000
   -2.9994   -8.8791    7.2615 C   0  0  2  0  0  0  0  0  0  0  0  0
   -3.4955  -10.1328    7.6230 O   0  0  0  0  0  0  0  0  0  0  0  0
   -4.1734   -8.0780    6.6315 C   0  0  2  0  0  0  0  0  0  0  0  0
   -5.2740   -7.9549    7.5922 N   0  3  0  0  0  0  0  0  0  0  0  0
   -4.6452   -8.7462    5.3070 C   0  0  1  0  0  0  0  0  0  0  0  0
   -5.6528   -8.0384    4.7379 O   0  0  0  0  0  0  0  0  0  0  0  0
   -3.4218   -8.8505    4.3374 C   0  0  2  0  0  0  0  0  0  0  0  0
   -3.8260   -9.4579    3.0924 O   0  0  0  0  0  0  0  0  0  0  0  0
   -2.3039   -9.6910    5.0428 C   0  0  2  0  0  0  0  0  0  0  0  0
   -1.9106   -9.0542    6.3192 O   0  0  0  0  0  0  0  0  0  0  0  0
   -1.0205   -9.8647    4.2226 C   0  0  2  0  0  0  0  0  0  0  0  0
   -0.5169   -8.6173    3.8710 O   0  0  0  0  0  0  0  0  0  0  0  0
   -1.2303  -10.6321    2.9044 C   0  0  0  0  0  0  0  0  0  0  0  0
   -3.7901  -12.6426   11.0688 C   0  0  2  0  0  0  0  0  0  0  0  0
   -3.4279  -13.3679   12.3131 N   0  3  0  0  0  0  0  0  0  0  0  0
   -2.9185  -13.1303    9.8736 C   0  0  0  0  0  0  0  0  0  0  0  0
   -3.2967  -12.3441    8.5664 C   0  0  2  0  0  0  0  0  0  0  0  0
   -2.4441  -12.8440    7.4264 N   0  3  0  0  0  0  0  0  0  0  0  0
   -3.0977  -10.8085    8.8091 C   0  0  2  0  0  0  0  0  0  0  0  0
   -3.9822  -10.3534    9.9956 C   0  0  2  0  0  0  0  0  0  0  0  0
   -3.7696   -8.9815   10.2257 O   0  0  0  0  0  0  0  0  0  0  0  0
   -3.5856  -11.1275   11.2812 C   0  0  1  0  0  0  0  0  0  0  0  0
   -4.4065  -10.6929   12.3553 O   0  0  0  0  0  0  0  0  0  0  0  0
   -4.0260   -9.5510   13.0721 C   0  0  2  0  0  0  0  0  0  0  0  0
   -4.0790   -9.9068   14.5699 C   0  0  2  0  0  0  0  0  0  0  0  0
   -3.1662  -10.9524   14.8269 O   0  0  0  0  0  0  0  0  0  0  0  0
   -5.5385  -10.3372   14.9436 C   0  0  1  0  0  0  0  0  0  0  0  0
   -5.6682  -10.7260   16.3691 N   0  3  0  0  0  0  0  0  0  0  0  0
   -5.2750  -12.1447   16.5663 C   0  0  0  0  0  0  0  0  0  0  0  0
   -6.5215   -9.1603   14.6185 C   0  0  2  0  0  0  0  0  0  0  0  0
   -6.1607   -7.9951   15.3838 O   0  0  0  0  0  0  0  0  0  0  0  0
   -7.8963   -9.4912   14.9469 C   0  0  0  0  0  0  0  0  0  0  0  0
   -6.3910   -8.7526   13.1186 C   0  0  0  0  0  0  0  0  0  0  0  0
   -4.9619   -8.4526   12.7770 O   0  0  0  0  0  0  0  0  0  0  0  0
  1  2  1  6  0  0  0
  1  3  1  0  0  0  0
  1 10  1  0  0  0  0
  3  4  1  1  0  0  0
  3  5  1  0  0  0  0
  5  6  1  6  0  0  0
  5  7  1  0  0  0  0
  7  8  1  6  0  0  0
  7  9  1  0  0  0  0
  9 10  1  1  0  0  0
  9 11  1  0  0  0  0
 11 12  1  6  0  0  0
 11 13  1  0  0  0  0
 14 15  1  1  0  0  0
 14 16  1  0  0  0  0
 14 22  1  0  0  0  0
 16 17  1  0  0  0  0
 17 18  1  6  0  0  0
 17 19  1  0  0  0  0
 19  2  1  6  0  0  0
 19 20  1  0  0  0  0
 20 21  1  1  0  0  0
 20 22  1  0  0  0  0
 22 23  1  1  0  0  0
 24 23  1  6  0  0  0
 24 25  1  0  0  0  0
 24 34  1  0  0  0  0
 25 26  1  6  0  0  0
 25 27  1  0  0  0  0
 27 28  1  1  0  0  0
 27 30  1  0  0  0  0
 28 29  1  0  0  0  0
 30 31  1  1  0  0  0
 30 32  1  0  0  0  0
 30 33  1  0  0  0  0
 33 34  1  0  0  0  0
M  CHG  4   4   1  15   1  18   1  28   1
M  END
>  <CHROM.1>
-142.03725949,-154.31338342,-85.10005195,-59.12384247,65.67659548,56.09309959
70.45845641,-22.10362814,-84.80368914,-95.65340473,154.65995945,-130.24706831
167.81238786,35.86938109,52.53709749,-3.96570064,-10.03809605,9.76511917
1.14984080,0.91300647,-1.14864410

>  <Name>
1mwl

>  <RI>
0

>  <Rbt.Current_Directory>
/home/itssahil/PROJECTS/Mol_Feturizer/New_Systems/rnas/1mwl

>  <Rbt.Executable>
rbdock ($Id: //depot/dev/client3/rdock/2013.1/src/exe/rbdock.cxx#4 $)

>  <Rbt.Library>
libRbt.so (2013.1, Build901 2013/11/27)

>  <Rbt.Parameter_File>
/export/apps/rDock/src/rDock_2013.1_src/data/scripts/dock_solv.prm

>  <Rbt.Receptor>
prm/blind_docking_60.prm

>  <SCORE>
-13.9403

>  <SCORE.INTER>
-22.1152

>  <SCORE.INTER.CONST>
1

>  <SCORE.INTER.POLAR>
-5.19933

>  <SCORE.INTER.ROT>
6

>  <SCORE.INTER.SOLV>
23.8562

>  <SCORE.INTER.VDW>
-12.9644

>  <SCORE.INTER.norm>
-0.650446

>  <SCORE.INTRA>
-8.15585

>  <SCORE.INTRA.DIHEDRAL>
-12.0145

>  <SCORE.INTRA.DIHEDRAL.0>
42.0816

>  <SCORE.INTRA.POLAR>
-0.310127

>  <SCORE.INTRA.POLAR.0>
-0.254682

>  <SCORE.INTRA.REPUL>
0

>  <SCORE.INTRA.REPUL.0>
0

>  <SCORE.INTRA.SOLV>
0.261777

>  <SCORE.INTRA.SOLV.lig_0>
-109.803

>  <SCORE.INTRA.VDW>
-1.22508

>  <SCORE.INTRA.VDW.0>
0.32176

>  <SCORE.INTRA.norm>
-0.239878

>  <SCORE.RESTR>
16.3308

>  <SCORE.RESTR.CAVITY>
16.3308

>  <SCORE.RESTR.norm>
0.480317

>  <SCORE.SYSTEM>
0

>  <SCORE.SYSTEM.CONST>
0

>  <SCORE.SYSTEM.DIHEDRAL>
0

>  <SCORE.SYSTEM.SOLV>
0

>  <SCORE.SYSTEM.norm>
0

>  <SCORE.heavy>
34

>  <SCORE.norm>
-0.410007

>  <RMSD>
22.561

$$$$
1mwl
 OpenBabel11021811403D
libRbt.so/2013.1/901 2013/11/27
 34 36  0  0  0  0  0  0  0  0999 V2000
   -3.2664  -11.4858    6.4647 C   0  0  2  0  0  0  0  0  0  0  0  0
   -2.3119  -11.3032    7.4668 O   0  0  0  0  0  0  0  0  0  0  0  0
   -2.5301  -11.3950    5.0984 C   0  0  2  0  0  0  0  0  0  0  0  0
   -1.4801  -12.4153    5.0215 N   0  3  0  0  0  0  0  0  0  0  0  0
   -1.9530   -9.9657    4.8801 C   0  0  1  0  0  0  0  0  0  0  0  0
   -1.3309   -9.8715    3.6783 O   0  0  0  0  0  0  0  0  0  0  0  0
   -3.1242   -8.9337    4.9828 C   0  0  2  0  0  0  0  0  0  0  0  0
   -2.6258   -7.5955    4.7751 O   0  0  0  0  0  0  0  0  0  0  0  0
   -3.7879   -9.0798    6.3942 C   0  0  2  0  0  0  0  0  0  0  0  0
   -4.2846  -10.4601    6.5878 O   0  0  0  0  0  0  0  0  0  0  0  0
   -4.9766   -8.1442    6.6422 C   0  0  2  0  0  0  0  0  0  0  0  0
   -4.5521   -6.8215    6.5821 O   0  0  0  0  0  0  0  0  0  0  0  0
   -5.6262   -8.3260    8.0262 C   0  0  0  0  0  0  0  0  0  0  0  0
   -4.2631  -12.8622   10.9340 C   0  0  2  0  0  0  0  0  0  0  0  0
   -4.4791  -13.4018   12.3006 N   0  3  0  0  0  0  0  0  0  0  0  0
   -3.3658  -13.8227   10.0983 C   0  0  0  0  0  0  0  0  0  0  0  0
   -3.1282  -13.2339    8.6606 C   0  0  2  0  0  0  0  0  0  0  0  0
   -2.2652  -14.1890    7.8733 N   0  3  0  0  0  0  0  0  0  0  0  0
   -2.4647  -11.8193    8.7828 C   0  0  2  0  0  0  0  0  0  0  0  0
   -3.3832  -10.8869    9.6100 C   0  0  2  0  0  0  0  0  0  0  0  0
   -2.7620   -9.6311    9.7418 O   0  0  0  0  0  0  0  0  0  0  0  0
   -3.5948  -11.4742   11.0311 C   0  0  1  0  0  0  0  0  0  0  0  0
   -4.4366  -10.6029   11.7717 O   0  0  0  0  0  0  0  0  0  0  0  0
   -3.8660   -9.4833   12.3910 C   0  0  2  0  0  0  0  0  0  0  0  0
   -4.0098   -9.6738   13.9129 C   0  0  2  0  0  0  0  0  0  0  0  0
   -3.3087  -10.8365   14.2992 O   0  0  0  0  0  0  0  0  0  0  0  0
   -5.5298   -9.7943   14.2734 C   0  0  1  0  0  0  0  0  0  0  0  0
   -5.7537  -10.0103   15.7237 N   0  3  0  0  0  0  0  0  0  0  0  0
   -5.3405  -11.3801   16.1224 C   0  0  0  0  0  0  0  0  0  0  0  0
   -6.2746   -8.4972   13.8045 C   0  0  2  0  0  0  0  0  0  0  0  0
   -5.7199   -7.3465   14.4691 O   0  0  0  0  0  0  0  0  0  0  0  0
   -7.6923   -8.5401   14.1136 C   0  0  0  0  0  0  0  0  0  0  0  0
   -6.0450   -8.2702   12.2784 C   0  0  0  0  0  0  0  0  0  0  0  0
   -4.5794   -8.2686   11.9609 O   0  0  0  0  0  0  0  0  0  0  0  0
  1  2  1  1  0  0  0
  1  3  1  0  0  0  0
  1 10  1  0  0  0  0
  3  4  1  1  0  0  0
  3  5  1  0  0  0  0
  5  6  1  6  0  0  0
  5  7  1  0  0  0  0
  7  8  1  1  0  0  0
  7  9  1  0  0  0  0
  9 10  1  6  0  0  0
  9 11  1  0  0  0  0
 11 12  1  1  0  0  0
 11 13  1  0  0  0  0
 14 15  1  1  0  0  0
 14 16  1  0  0  0  0
 14 22  1  0  0  0  0
 16 17  1  0  0  0  0
 17 18  1  6  0  0  0
 17 19  1  0  0  0  0
 19  2  1  6  0  0  0
 19 20  1  0  0  0  0
 20 21  1  1  0  0  0
 20 22  1  0  0  0  0
 22 23  1  1  0  0  0
 24 23  1  6  0  0  0
 24 25  1  0  0  0  0
 24 34  1  0  0  0  0
 25 26  1  6  0  0  0
 25 27  1  0  0  0  0
 27 28  1  1  0  0  0
 27 30  1  0  0  0  0
 28 29  1  0  0  0  0
 30 31  1  1  0  0  0
 30 32  1  0  0  0  0
 30 33  1  0  0  0  0
 33 34  1  0  0  0  0
M  CHG  4   4   1  15   1  18   1  28   1
M  END
>  <CHROM.1>
-154.48622387,38.44154589,-57.59537748,60.43395655,61.20625792,-62.30926236
-179.01562432,58.99982076,-58.43339928,-50.07020560,157.43518299,-114.78623104
-54.27915511,48.42253529,-58.64268241,-3.92402096,-10.27973931,9.72201964
-0.81872757,-1.12069323,2.21467578

>  <Name>
1mwl

>  <RI>
0

>  <Rbt.Current_Directory>
/home/itssahil/PROJECTS/Mol_Feturizer/New_Systems/rnas/1mwl

>  <Rbt.Executable>
rbdock ($Id: //depot/dev/client3/rdock/2013.1/src/exe/rbdock.cxx#4 $)

>  <Rbt.Library>
libRbt.so (2013.1, Build901 2013/11/27)

>  <Rbt.Parameter_File>
/export/apps/rDock/src/rDock_2013.1_src/data/scripts/dock_solv.prm

>  <Rbt.Receptor>
prm/blind_docking_60.prm

>  <SCORE>
-22.3595

>  <SCORE.INTER>
-29.0714

>  <SCORE.INTER.CONST>
1

>  <SCORE.INTER.POLAR>
-4.55594

>  <SCORE.INTER.ROT>
6

>  <SCORE.INTER.SOLV>
21.448

>  <SCORE.INTER.VDW>
-18.9438

>  <SCORE.INTER.norm>
-0.855043

>  <SCORE.INTRA>
-12.7341

>  <SCORE.INTRA.DIHEDRAL>
-26.8359

>  <SCORE.INTRA.DIHEDRAL.0>
42.0816

>  <SCORE.INTRA.POLAR>
0.253145

>  <SCORE.INTRA.POLAR.0>
-0.254682

>  <SCORE.INTRA.REPUL>
0.0108762

>  <SCORE.INTRA.REPUL.0>
0

>  <SCORE.INTRA.SOLV>
3.27994

>  <SCORE.INTRA.SOLV.lig_0>
-109.803

>  <SCORE.INTRA.VDW>
-1.87119

>  <SCORE.INTRA.VDW.0>
0.32176

>  <SCORE.INTRA.norm>
-0.374532

>  <SCORE.RESTR>
19.4461

>  <SCORE.RESTR.CAVITY>
19.4461

>  <SCORE.RESTR.norm>
0.571943

>  <SCORE.SYSTEM>
0

>  <SCORE.SYSTEM.CONST>
0

>  <SCORE.SYSTEM.DIHEDRAL>
0

>  <SCORE.SYSTEM.SOLV>
0

>  <SCORE.SYSTEM.norm>
0

>  <SCORE.heavy>
34

>  <SCORE.norm>
-0.657632

>  <RMSD>
22.618

$$$$
1mwl
 OpenBabel11021811403D
libRbt.so/2013.1/901 2013/11/27
 34 36  0  0  0  0  0  0  0  0999 V2000
   -3.2012  -10.9797    6.0848 C   0  0  2  0  0  0  0  0  0  0  0  0
   -2.1359  -10.8036    6.9696 O   0  0  0  0  0  0  0  0  0  0  0  0
   -2.6407  -10.8183    4.6437 C   0  0  2  0  0  0  0  0  0  0  0  0
   -1.5819  -11.8027    4.4001 N   0  3  0  0  0  0  0  0  0  0  0  0
   -2.1321   -9.3653    4.4124 C   0  0  1  0  0  0  0  0  0  0  0  0
   -1.6649   -9.2097    3.1484 O   0  0  0  0  0  0  0  0  0  0  0  0
   -3.3083   -8.3737    4.6967 C   0  0  2  0  0  0  0  0  0  0  0  0
   -2.8741   -7.0145    4.4820 O   0  0  0  0  0  0  0  0  0  0  0  0
   -3.7897   -8.5898    6.1717 C   0  0  2  0  0  0  0  0  0  0  0  0
   -4.2229   -9.9906    6.3706 O   0  0  0  0  0  0  0  0  0  0  0  0
   -4.9629   -7.7003    6.5986 C   0  0  2  0  0  0  0  0  0  0  0  0
   -5.4897   -8.1640    7.7989 O   0  0  0  0  0  0  0  0  0  0  0  0
   -6.1276   -7.6906    5.5917 C   0  0  0  0  0  0  0  0  0  0  0  0
   -3.3663  -13.0990   10.3574 C   0  0  2  0  0  0  0  0  0  0  0  0
   -3.3241  -13.8248   11.6523 N   0  3  0  0  0  0  0  0  0  0  0  0
   -2.4145  -13.7663    9.3208 C   0  0  0  0  0  0  0  0  0  0  0  0
   -2.4525  -12.9801    7.9604 C   0  0  2  0  0  0  0  0  0  0  0  0
   -1.5296  -13.6544    6.9754 N   0  3  0  0  0  0  0  0  0  0  0  0
   -2.0420  -11.4886    8.2121 C   0  0  2  0  0  0  0  0  0  0  0  0
   -3.0105  -10.8516    9.2385 C   0  0  2  0  0  0  0  0  0  0  0  0
   -2.6119   -9.5242    9.4818 O   0  0  0  0  0  0  0  0  0  0  0  0
   -2.9492  -11.6296   10.5802 C   0  0  1  0  0  0  0  0  0  0  0  0
   -3.8419  -11.0274   11.5059 O   0  0  0  0  0  0  0  0  0  0  0  0
   -3.5402   -9.7503   11.9964 C   0  0  2  0  0  0  0  0  0  0  0  0
   -4.1511   -9.6408   13.4063 C   0  0  2  0  0  0  0  0  0  0  0  0
   -3.5643  -10.6179   14.2390 O   0  0  0  0  0  0  0  0  0  0  0  0
   -5.7013   -9.8480   13.3112 C   0  0  1  0  0  0  0  0  0  0  0  0
   -6.3644   -9.7866   14.6365 N   0  3  0  0  0  0  0  0  0  0  0  0
   -5.8200   -8.6672   15.4469 C   0  0  0  0  0  0  0  0  0  0  0  0
   -6.3085   -8.7616   12.3582 C   0  0  2  0  0  0  0  0  0  0  0  0
   -6.0375   -7.4467   12.8789 O   0  0  0  0  0  0  0  0  0  0  0  0
   -7.7483   -8.8928   12.2286 C   0  0  0  0  0  0  0  0  0  0  0  0
   -5.6163   -8.8273   10.9619 C   0  0  0  0  0  0  0  0  0  0  0  0
   -4.1268   -8.7328   11.1076 O   0  0  0  0  0  0  0  0  0  0  0  0
  1  2  1  1  0  0  0
  1  3  1  0  0  0  0
  1 10  1  0  0  0  0
  3  4  1  1  0  0  0
  3  5  1  0  0  0  0
  5  6  1  6  0  0  0
  5  7  1  0  0  0  0
  7  8  1  1  0  0  0
  7  9  1  0  0  0  0
  9 10  1  6  0  0  0
  9 11  1  0  0  0  0
 11 12  1  1  0  0  0
 11 13  1  0  0  0  0
 14 15  1  1  0  0  0
 14 16  1  0  0  0  0
 14 22  1  0  0  0  0
 16 17  1  0  0  0  0
 17 18  1  6  0  0  0
 17 19  1  0  0  0  0
 19  2  1  6  0  0  0
 19 20  1  0  0  0  0
 20 21  1  1  0  0  0
 20 22  1  0  0  0  0
 22 23  1  1  0  0  0
 24 23  1  6  0  0  0
 24 25  1  0  0  0  0
 24 34  1  0  0  0  0
 25 26  1  1  0  0  0
 25 27  1  0  0  0  0
 27 28  1  1  0  0  0
 27 30  1  0  0  0  0
 28 29  1  0  0  0  0
 30 31  1  1  0  0  0
 30 32  1  0  0  0  0
 30 33  1  0  0  0  0
 33 34  1  0  0  0  0
M  CHG  4   4   1  15   1  18   1  28   1
M  END
>  <CHROM.1>
-147.23499297,43.02726305,-39.18524205,-173.26517571,-81.48708917,167.28911098
76.77236699,-28.92141290,133.26595396,-65.26335509,171.20078809,-151.01644006
-17.72260126,163.05098648,-74.87514662,-3.82724140,-10.09020239,9.09834228
-1.00293224,-0.97278638,2.02574694

>  <Name>
1mwl

>  <RI>
0

>  <Rbt.Current_Directory>
/home/itssahil/PROJECTS/Mol_Feturizer/New_Systems/rnas/1mwl

>  <Rbt.Executable>
rbdock ($Id: //depot/dev/client3/rdock/2013.1/src/exe/rbdock.cxx#4 $)

>  <Rbt.Library>
libRbt.so (2013.1, Build901 2013/11/27)

>  <Rbt.Parameter_File>
/export/apps/rDock/src/rDock_2013.1_src/data/scripts/dock_solv.prm

>  <Rbt.Receptor>
prm/blind_docking_60.prm

>  <SCORE>
-24.8196

>  <SCORE.INTER>
-40.8462

>  <SCORE.INTER.CONST>
1

>  <SCORE.INTER.POLAR>
-6.54297

>  <SCORE.INTER.ROT>
6

>  <SCORE.INTER.SOLV>
23.3746

>  <SCORE.INTER.VDW>
-20.8124

>  <SCORE.INTER.norm>
-1.20136

>  <SCORE.INTRA>
-0.533633

>  <SCORE.INTRA.DIHEDRAL>
-15.1607

>  <SCORE.INTRA.DIHEDRAL.0>
42.0816

>  <SCORE.INTRA.POLAR>
0.153065

>  <SCORE.INTRA.POLAR.0>
-0.254682

>  <SCORE.INTRA.REPUL>
0.0042534

>  <SCORE.INTRA.REPUL.0>
0

>  <SCORE.INTRA.SOLV>
1.80731

>  <SCORE.INTRA.SOLV.lig_0>
-109.803

>  <SCORE.INTRA.VDW>
5.60137

>  <SCORE.INTRA.VDW.0>
0.32176

>  <SCORE.INTRA.norm>
-0.0156951

>  <SCORE.RESTR>
16.5602

>  <SCORE.RESTR.CAVITY>
16.5602

>  <SCORE.RESTR.norm>
0.487065

>  <SCORE.SYSTEM>
0

>  <SCORE.SYSTEM.CONST>
0

>  <SCORE.SYSTEM.DIHEDRAL>
0

>  <SCORE.SYSTEM.SOLV>
0

>  <SCORE.SYSTEM.norm>
0

>  <SCORE.heavy>
34

>  <SCORE.norm>
-0.729988

>  <RMSD>
22.731

$$$$
1mwl
 OpenBabel11021811403D
libRbt.so/2013.1/901 2013/11/27
 34 36  0  0  0  0  0  0  0  0999 V2000
    6.5644   -1.8616   18.3755 C   0  0  2  0  0  0  0  0  0  0  0  0
    6.6024   -1.9003   16.9806 O   0  0  0  0  0  0  0  0  0  0  0  0
    6.5030   -0.3667   18.7981 C   0  0  2  0  0  0  0  0  0  0  0  0
    5.3187    0.2741   18.2182 N   0  3  0  0  0  0  0  0  0  0  0  0
    7.8098    0.3734   18.3881 C   0  0  1  0  0  0  0  0  0  0  0  0
    7.7743    1.6727   18.7764 O   0  0  0  0  0  0  0  0  0  0  0  0
    9.0266   -0.3674   19.0345 C   0  0  2  0  0  0  0  0  0  0  0  0
   10.2571    0.2992   18.6826 O   0  0  0  0  0  0  0  0  0  0  0  0
    9.0220   -1.8521   18.5349 C   0  0  2  0  0  0  0  0  0  0  0  0
    7.7495   -2.5130   18.9000 O   0  0  0  0  0  0  0  0  0  0  0  0
   10.1496   -2.7217   19.1027 C   0  0  2  0  0  0  0  0  0  0  0  0
    9.7900   -4.0627   19.0274 O   0  0  0  0  0  0  0  0  0  0  0  0
   10.4584   -2.4407   20.5846 C   0  0  0  0  0  0  0  0  0  0  0  0
    4.1047   -5.2080   15.9415 C   0  0  2  0  0  0  0  0  0  0  0  0
    3.5359   -6.3576   15.1930 N   0  3  0  0  0  0  0  0  0  0  0  0
    3.9667   -3.8927   15.1188 C   0  0  0  0  0  0  0  0  0  0  0  0
    4.5879   -2.6860   15.9114 C   0  0  2  0  0  0  0  0  0  0  0  0
    4.4311   -1.4269   15.0949 N   0  3  0  0  0  0  0  0  0  0  0  0
    6.0932   -2.9909   16.2236 C   0  0  2  0  0  0  0  0  0  0  0  0
    6.1963   -4.2972   17.0483 C   0  0  2  0  0  0  0  0  0  0  0  0
    7.5531   -4.5785   17.2932 O   0  0  0  0  0  0  0  0  0  0  0  0
    5.5932   -5.4809   16.2456 C   0  0  1  0  0  0  0  0  0  0  0  0
    5.7006   -6.6672   17.0187 O   0  0  0  0  0  0  0  0  0  0  0  0
    6.9466   -7.0030   17.5640 C   0  0  2  0  0  0  0  0  0  0  0  0
    7.8048   -7.5907   16.4278 C   0  0  2  0  0  0  0  0  0  0  0  0
    7.9756   -6.6107   15.4263 O   0  0  0  0  0  0  0  0  0  0  0  0
    7.0907   -8.8598   15.8493 C   0  0  1  0  0  0  0  0  0  0  0  0
    7.8418   -9.4710   14.7258 N   0  3  0  0  0  0  0  0  0  0  0  0
    9.2989   -9.4882   15.0134 C   0  0  0  0  0  0  0  0  0  0  0  0
    6.8969   -9.9095   16.9971 C   0  0  2  0  0  0  0  0  0  0  0  0
    8.1775  -10.2902   17.5342 O   0  0  0  0  0  0  0  0  0  0  0  0
    6.2428  -11.1173   16.5271 C   0  0  0  0  0  0  0  0  0  0  0  0
    6.1027   -9.2709   18.1781 C   0  0  0  0  0  0  0  0  0  0  0  0
    6.7616   -8.0020   18.6304 O   0  0  0  0  0  0  0  0  0  0  0  0
  1  2  1  6  0  0  0
  1  3  1  0  0  0  0
  1 10  1  0  0  0  0
  3  4  1  6  0  0  0
  3  5  1  0  0  0  0
  5  6  1  1  0  0  0
  5  7  1  0  0  0  0
  7  8  1  6  0  0  0
  7  9  1  0  0  0  0
  9 10  1  1  0  0  0
  9 11  1  0  0  0  0
 11 12  1  1  0  0  0
 11 13  1  0  0  0  0
 14 15  1  6  0  0  0
 14 16  1  0  0  0  0
 14 22  1  0  0  0  0
 16 17  1  0  0  0  0
 17 18  1  6  0  0  0
 17 19  1  0  0  0  0
 19  2  1  1  0  0  0
 19 20  1  0  0  0  0
 20 21  1  6  0  0  0
 20 22  1  0  0  0  0
 22 23  1  1  0  0  0
 24 23  1  6  0  0  0
 24 25  1  0  0  0  0
 24 34  1  0  0  0  0
 25 26  1  6  0  0  0
 25 27  1  0  0  0  0
 27 28  1  6  0  0  0
 27 30  1  0  0  0  0
 28 29  1  0  0  0  0
 30 31  1  1  0  0  0
 30 32  1  0  0  0  0
 30 33  1  0  0  0  0
 33 34  1  0  0  0  0
M  CHG  4   4   1  15   1  18   1  28   1
M  END
>  <CHROM.1>
-151.72695922,90.28135183,-116.28813937,54.47320140,-53.09374540,157.68225427
-63.03491960,-47.23553768,66.76630984,73.16504064,-171.30641943,-77.26931419
51.10328143,161.69487827,175.42930644,7.07024436,-4.59028773,17.27184510
1.46352600,-0.53148396,0.17884005

>  <Name>
1mwl

>  <RI>
0

>  <Rbt.Current_Directory>
/home/itssahil/PROJECTS/Mol_Feturizer/New_Systems/rnas/1mwl

>  <Rbt.Executable>
rbdock ($Id: //depot/dev/client3/rdock/2013.1/src/exe/rbdock.cxx#4 $)

>  <Rbt.Library>
libRbt.so (2013.1, Build901 2013/11/27)

>  <Rbt.Parameter_File>
/export/apps/rDock/src/rDock_2013.1_src/data/scripts/dock_solv.prm

>  <Rbt.Receptor>
prm/blind_docking_80.prm

>  <SCORE>
-20.8315

>  <SCORE.INTER>
-28.5933

>  <SCORE.INTER.CONST>
1

>  <SCORE.INTER.POLAR>
-4.10259

>  <SCORE.INTER.ROT>
6

>  <SCORE.INTER.SOLV>
19.5891

>  <SCORE.INTER.VDW>
-19.5166

>  <SCORE.INTER.norm>
-0.84098

>  <SCORE.INTRA>
-10.4957

>  <SCORE.INTRA.DIHEDRAL>
-25.241

>  <SCORE.INTRA.DIHEDRAL.0>
42.0816

>  <SCORE.INTRA.POLAR>
-1.24628

>  <SCORE.INTRA.POLAR.0>
-0.254682

>  <SCORE.INTRA.REPUL>
0

>  <SCORE.INTRA.REPUL.0>
0

>  <SCORE.INTRA.SOLV>
-0.887868

>  <SCORE.INTRA.SOLV.lig_0>
-109.803

>  <SCORE.INTRA.VDW>
6.80614

>  <SCORE.INTRA.VDW.0>
0.32176

>  <SCORE.INTRA.norm>
-0.308696

>  <SCORE.RESTR>
18.2575

>  <SCORE.RESTR.CAVITY>
18.2575

>  <SCORE.RESTR.norm>
0.536985

>  <SCORE.SYSTEM>
0

>  <SCORE.SYSTEM.CONST>
0

>  <SCORE.SYSTEM.DIHEDRAL>
0

>  <SCORE.SYSTEM.SOLV>
0

>  <SCORE.SYSTEM.norm>
0

>  <SCORE.heavy>
34

>  <SCORE.norm>
-0.612691

>  <RMSD>
22.758

$$$$
1mwl
 OpenBabel11021811403D
libRbt.so/2013.1/901 2013/11/27
 34 36  0  0  0  0  0  0  0  0999 V2000
   -2.6583   -9.0503    6.9477 C   0  0  2  0  0  0  0  0  0  0  0  0
   -3.0303  -10.3945    6.8877 O   0  0  0  0  0  0  0  0  0  0  0  0
   -3.9234   -8.2029    6.6337 C   0  0  2  0  0  0  0  0  0  0  0  0
   -4.9846   -8.5021    7.5999 N   0  3  0  0  0  0  0  0  0  0  0  0
   -4.3985   -8.4475    5.1715 C   0  0  1  0  0  0  0  0  0  0  0  0
   -5.4872   -7.6919    4.8817 O   0  0  0  0  0  0  0  0  0  0  0  0
   -3.2170   -8.1161    4.2009 C   0  0  2  0  0  0  0  0  0  0  0  0
   -3.6263   -8.3227    2.8327 O   0  0  0  0  0  0  0  0  0  0  0  0
   -2.0010   -9.0303    4.5742 C   0  0  2  0  0  0  0  0  0  0  0  0
   -1.6037   -8.8071    5.9820 O   0  0  0  0  0  0  0  0  0  0  0  0
   -0.7471   -8.8070    3.7211 C   0  0  2  0  0  0  0  0  0  0  0  0
   -0.5586   -7.4452    3.5131 O   0  0  0  0  0  0  0  0  0  0  0  0
   -0.8292   -9.4492    2.3243 C   0  0  0  0  0  0  0  0  0  0  0  0
   -4.0306  -13.0742   10.0623 C   0  0  2  0  0  0  0  0  0  0  0  0
   -3.8901  -14.0194   11.1990 N   0  3  0  0  0  0  0  0  0  0  0  0
   -3.3909  -13.6663    8.7715 C   0  0  0  0  0  0  0  0  0  0  0  0
   -3.5286  -12.6510    7.5796 C   0  0  2  0  0  0  0  0  0  0  0  0
   -2.9094  -13.2552    6.3434 N   0  3  0  0  0  0  0  0  0  0  0  0
   -2.8416  -11.2974    7.9698 C   0  0  2  0  0  0  0  0  0  0  0  0
   -3.5042  -10.7309    9.2493 C   0  0  2  0  0  0  0  0  0  0  0  0
   -2.8571   -9.5341    9.6088 O   0  0  0  0  0  0  0  0  0  0  0  0
   -3.3457  -11.7379   10.4198 C   0  0  1  0  0  0  0  0  0  0  0  0
   -3.9574  -11.1974   11.5817 O   0  0  0  0  0  0  0  0  0  0  0  0
   -3.4857   -9.9774   12.0834 C   0  0  2  0  0  0  0  0  0  0  0  0
   -3.9179   -9.8867   13.5592 C   0  0  2  0  0  0  0  0  0  0  0  0
   -3.3311  -10.9515   14.2765 O   0  0  0  0  0  0  0  0  0  0  0  0
   -5.4811   -9.9545   13.6411 C   0  0  1  0  0  0  0  0  0  0  0  0
   -5.9790   -9.9029   15.0373 N   0  3  0  0  0  0  0  0  0  0  0  0
   -6.1452  -11.2721   15.5885 C   0  0  0  0  0  0  0  0  0  0  0  0
   -6.0918   -8.7731   12.8113 C   0  0  2  0  0  0  0  0  0  0  0  0
   -5.6435   -7.5144   13.3480 O   0  0  0  0  0  0  0  0  0  0  0  0
   -7.5430   -8.7730   12.8488 C   0  0  0  0  0  0  0  0  0  0  0  0
   -5.5738   -8.8278   11.3410 C   0  0  0  0  0  0  0  0  0  0  0  0
   -4.0750   -8.8696   11.3120 O   0  0  0  0  0  0  0  0  0  0  0  0
  1  2  1  6  0  0  0
  1  3  1  0  0  0  0
  1 10  1  0  0  0  0
  3  4  1  1  0  0  0
  3  5  1  0  0  0  0
  5  6  1  6  0  0  0
  5  7  1  0  0  0  0
  7  8  1  6  0  0  0
  7  9  1  0  0  0  0
  9 10  1  1  0  0  0
  9 11  1  0  0  0  0
 11 12  1  6  0  0  0
 11 13  1  0  0  0  0
 14 15  1  1  0  0  0
 14 16  1  0  0  0  0
 14 22  1  0  0  0  0
 16 17  1  0  0  0  0
 17 18  1  6  0  0  0
 17 19  1  0  0  0  0
 19  2  1  6  0  0  0
 19 20  1  0  0  0  0
 20 21  1  1  0  0  0
 20 22  1  0  0  0  0
 22 23  1  1  0  0  0
 24 23  1  6  0  0  0
 24 25  1  0  0  0  0
 24 34  1  0  0  0  0
 25 26  1  1  0  0  0
 25 27  1  0  0  0  0
 27 28  1  1  0  0  0
 27 30  1  0  0  0  0
 28 29  1  0  0  0  0
 30 31  1  1  0  0  0
 30 32  1  0  0  0  0
 30 33  1  0  0  0  0
 33 34  1  0  0  0  0
M  CHG  4   4   1  15   1  18   1  28   1
M  END
>  <CHROM.1>
-123.76235025,173.61462132,28.93164053,61.19633080,65.26875780,41.32469589
178.33752420,64.48869659,61.01271415,-62.82966038,-179.98660590,-159.35069362
177.19299219,27.66970380,175.43430427,-3.78494373,-9.92582947,8.93539924
0.90402530,1.09322351,-0.81295145

>  <Name>
1mwl

>  <RI>
0

>  <Rbt.Current_Directory>
/home/itssahil/PROJECTS/Mol_Feturizer/New_Systems/rnas/1mwl

>  <Rbt.Executable>
rbdock ($Id: //depot/dev/client3/rdock/2013.1/src/exe/rbdock.cxx#4 $)

>  <Rbt.Library>
libRbt.so (2013.1, Build901 2013/11/27)

>  <Rbt.Parameter_File>
/export/apps/rDock/src/rDock_2013.1_src/data/scripts/dock_solv.prm

>  <Rbt.Receptor>
prm/blind_docking_60.prm

>  <SCORE>
-27.7984

>  <SCORE.INTER>
-32.8098

>  <SCORE.INTER.CONST>
1

>  <SCORE.INTER.POLAR>
-5.11959

>  <SCORE.INTER.ROT>
6

>  <SCORE.INTER.SOLV>
19.9221

>  <SCORE.INTER.VDW>
-19.0486

>  <SCORE.INTER.norm>
-0.964993

>  <SCORE.INTRA>
-11.4622

>  <SCORE.INTRA.DIHEDRAL>
-27.3638

>  <SCORE.INTRA.DIHEDRAL.0>
42.0816

>  <SCORE.INTRA.POLAR>
-0.784081

>  <SCORE.INTRA.POLAR.0>
-0.254682

>  <SCORE.INTRA.REPUL>
0

>  <SCORE.INTRA.REPUL.0>
0

>  <SCORE.INTRA.SOLV>
-0.163284

>  <SCORE.INTRA.SOLV.lig_0>
-109.803

>  <SCORE.INTRA.VDW>
4.96718

>  <SCORE.INTRA.VDW.0>
0.32176

>  <SCORE.INTRA.norm>
-0.337125

>  <SCORE.RESTR>
16.4736

>  <SCORE.RESTR.CAVITY>
16.4736

>  <SCORE.RESTR.norm>
0.484516

>  <SCORE.SYSTEM>
0

>  <SCORE.SYSTEM.CONST>
0

>  <SCORE.SYSTEM.DIHEDRAL>
0

>  <SCORE.SYSTEM.SOLV>
0

>  <SCORE.SYSTEM.norm>
0

>  <SCORE.heavy>
34

>  <SCORE.norm>
-0.817601

>  <RMSD>
22.769

$$$$
1mwl
 OpenBabel11021811403D
libRbt.so/2013.1/901 2013/11/27
 34 36  0  0  0  0  0  0  0  0999 V2000
   -2.9328   -8.7738    7.1496 C   0  0  2  0  0  0  0  0  0  0  0  0
   -3.3315  -10.0942    7.3647 O   0  0  0  0  0  0  0  0  0  0  0  0
   -4.1529   -8.0087    6.5638 C   0  0  2  0  0  0  0  0  0  0  0  0
   -5.2847   -8.0752    7.4934 N   0  3  0  0  0  0  0  0  0  0  0  0
   -4.5323   -8.5716    5.1629 C   0  0  1  0  0  0  0  0  0  0  0  0
   -5.5804   -7.8920    4.6340 O   0  0  0  0  0  0  0  0  0  0  0  0
   -3.2797   -8.4757    4.2306 C   0  0  2  0  0  0  0  0  0  0  0  0
   -3.5990   -8.9810    2.9172 O   0  0  0  0  0  0  0  0  0  0  0  0
   -2.1141   -9.2922    4.8853 C   0  0  2  0  0  0  0  0  0  0  0  0
   -1.8090   -8.7618    6.2325 O   0  0  0  0  0  0  0  0  0  0  0  0
   -0.7997   -9.2758    4.0966 C   0  0  2  0  0  0  0  0  0  0  0  0
   -0.1101   -8.0976    4.3600 O   0  0  0  0  0  0  0  0  0  0  0  0
   -0.9957   -9.3287    2.5704 C   0  0  0  0  0  0  0  0  0  0  0  0
   -3.0872  -13.0357   10.4545 C   0  0  2  0  0  0  0  0  0  0  0  0
   -2.5325  -13.9220   11.5091 N   0  3  0  0  0  0  0  0  0  0  0  0
   -2.4576  -13.3675    9.0691 C   0  0  0  0  0  0  0  0  0  0  0  0
   -3.0374  -12.4123    7.9639 C   0  0  2  0  0  0  0  0  0  0  0  0
   -2.4170  -12.7633    6.6340 N   0  3  0  0  0  0  0  0  0  0  0  0
   -2.7506  -10.9239    8.3626 C   0  0  2  0  0  0  0  0  0  0  0  0
   -3.3955  -10.6232    9.7376 C   0  0  2  0  0  0  0  0  0  0  0  0
   -3.1026   -9.2955   10.1005 O   0  0  0  0  0  0  0  0  0  0  0  0
   -2.8010  -11.5636   10.8200 C   0  0  1  0  0  0  0  0  0  0  0  0
   -3.4040  -11.2689   12.0714 O   0  0  0  0  0  0  0  0  0  0  0  0
   -4.7360  -11.6488   12.2812 C   0  0  2  0  0  0  0  0  0  0  0  0
   -5.6110  -10.3975   12.0773 C   0  0  2  0  0  0  0  0  0  0  0  0
   -5.4537   -9.9372   10.7522 O   0  0  0  0  0  0  0  0  0  0  0  0
   -5.1785   -9.2963   13.1045 C   0  0  1  0  0  0  0  0  0  0  0  0
   -5.9567   -8.0425   12.9538 N   0  3  0  0  0  0  0  0  0  0  0  0
   -7.3505   -8.3348   12.5318 C   0  0  0  0  0  0  0  0  0  0  0  0
   -5.3428   -9.8562   14.5594 C   0  0  2  0  0  0  0  0  0  0  0  0
   -6.7184  -10.2102   14.7955 O   0  0  0  0  0  0  0  0  0  0  0  0
   -4.9628   -8.8812   15.5654 C   0  0  0  0  0  0  0  0  0  0  0  0
   -4.5213  -11.1722   14.7223 C   0  0  0  0  0  0  0  0  0  0  0  0
   -4.8897  -12.1585   13.6546 O   0  0  0  0  0  0  0  0  0  0  0  0
  1  2  1  6  0  0  0
  1  3  1  0  0  0  0
  1 10  1  0  0  0  0
  3  4  1  1  0  0  0
  3  5  1  0  0  0  0
  5  6  1  6  0  0  0
  5  7  1  0  0  0  0
  7  8  1  6  0  0  0
  7  9  1  0  0  0  0
  9 10  1  1  0  0  0
  9 11  1  0  0  0  0
 11 12  1  6  0  0  0
 11 13  1  0  0  0  0
 14 15  1  1  0  0  0
 14 16  1  0  0  0  0
 14 22  1  0  0  0  0
 16 17  1  0  0  0  0
 17 18  1  6  0  0  0
 17 19  1  0  0  0  0
 19  2  1  6  0  0  0
 19 20  1  0  0  0  0
 20 21  1  1  0  0  0
 20 22  1  0  0  0  0
 22 23  1  1  0  0  0
 24 23  1  1  0  0  0
 24 25  1  0  0  0  0
 24 34  1  0  0  0  0
 25 26  1  6  0  0  0
 25 27  1  0  0  0  0
 27 28  1  1  0  0  0
 27 30  1  0  0  0  0
 28 29  1  0  0  0  0
 30 31  1  1  0  0  0
 30 32  1  0  0  0  0
 30 33  1  0  0  0  0
 33 34  1  0  0  0  0
M  CHG  4   4   1  15   1  18   1  28   1
M  END
>  <CHROM.1>
-152.35953236,-159.07916289,43.60287975,68.97087068,123.37393109,80.98754699
68.86203794,40.68127382,171.65375500,-164.65590884,-47.81971634,-100.27931450
-166.86492229,153.61517978,71.79232999,-3.78440342,-10.05796121,9.13862936
1.10520418,0.89468003,-1.04218558

>  <Name>
1mwl

>  <RI>
0

>  <Rbt.Current_Directory>
/home/itssahil/PROJECTS/Mol_Feturizer/New_Systems/rnas/1mwl

>  <Rbt.Executable>
rbdock ($Id: //depot/dev/client3/rdock/2013.1/src/exe/rbdock.cxx#4 $)

>  <Rbt.Library>
libRbt.so (2013.1, Build901 2013/11/27)

>  <Rbt.Parameter_File>
/export/apps/rDock/src/rDock_2013.1_src/data/scripts/dock_solv.prm

>  <Rbt.Receptor>
prm/blind_docking_60.prm

>  <SCORE>
-11.1475

>  <SCORE.INTER>
-30.0436

>  <SCORE.INTER.CONST>
1

>  <SCORE.INTER.POLAR>
-6.63846

>  <SCORE.INTER.ROT>
6

>  <SCORE.INTER.SOLV>
29.9522

>  <SCORE.INTER.VDW>
-15.4849

>  <SCORE.INTER.norm>
-0.883635

>  <SCORE.INTRA>
2.59842

>  <SCORE.INTRA.DIHEDRAL>
-15.536

>  <SCORE.INTRA.DIHEDRAL.0>
42.0816

>  <SCORE.INTRA.POLAR>
0.215762

>  <SCORE.INTRA.POLAR.0>
-0.254682

>  <SCORE.INTRA.REPUL>
0

>  <SCORE.INTRA.REPUL.0>
0

>  <SCORE.INTRA.SOLV>
-0.175954

>  <SCORE.INTRA.SOLV.lig_0>
-109.803

>  <SCORE.INTRA.VDW>
9.72079

>  <SCORE.INTRA.VDW.0>
0.32176

>  <SCORE.INTRA.norm>
0.0764242

>  <SCORE.RESTR>
16.2977

>  <SCORE.RESTR.CAVITY>
16.2977

>  <SCORE.RESTR.norm>
0.479343

>  <SCORE.SYSTEM>
0

>  <SCORE.SYSTEM.CONST>
0

>  <SCORE.SYSTEM.DIHEDRAL>
0

>  <SCORE.SYSTEM.SOLV>
0

>  <SCORE.SYSTEM.norm>
0

>  <SCORE.heavy>
34

>  <SCORE.norm>
-0.327868

>  <RMSD>
22.770

$$$$
1mwl
 OpenBabel11021811403D
libRbt.so/2013.1/901 2013/11/27
 34 36  0  0  0  0  0  0  0  0999 V2000
    6.3184   -1.8722   18.2456 C   0  0  2  0  0  0  0  0  0  0  0  0
    6.4123   -1.8992   16.8531 O   0  0  0  0  0  0  0  0  0  0  0  0
    6.6450   -0.4236   18.7061 C   0  0  2  0  0  0  0  0  0  0  0  0
    5.7090    0.5243   18.0939 N   0  3  0  0  0  0  0  0  0  0  0  0
    8.1220   -0.0619   18.3728 C   0  0  1  0  0  0  0  0  0  0  0  0
    8.4220    1.1920   18.7948 O   0  0  0  0  0  0  0  0  0  0  0  0
    9.0589   -1.1159   19.0501 C   0  0  2  0  0  0  0  0  0  0  0  0
   10.4398   -0.8050   18.7696 O   0  0  0  0  0  0  0  0  0  0  0  0
    8.6754   -2.5355   18.5102 C   0  0  2  0  0  0  0  0  0  0  0  0
    7.2550   -2.8297   18.8022 O   0  0  0  0  0  0  0  0  0  0  0  0
    9.4953   -3.6879   19.1016 C   0  0  2  0  0  0  0  0  0  0  0  0
    8.6414   -4.6279   19.6678 O   0  0  0  0  0  0  0  0  0  0  0  0
   10.4570   -3.2494   20.2211 C   0  0  0  0  0  0  0  0  0  0  0  0
    4.1338   -5.3707   15.8450 C   0  0  2  0  0  0  0  0  0  0  0  0
    3.5683   -6.5024   15.0672 N   0  3  0  0  0  0  0  0  0  0  0  0
    3.7190   -4.0080   15.2152 C   0  0  0  0  0  0  0  0  0  0  0  0
    4.3374   -2.8178   16.0346 C   0  0  2  0  0  0  0  0  0  0  0  0
    3.9112   -1.5135   15.4071 N   0  3  0  0  0  0  0  0  0  0  0  0
    5.8975   -2.9644   16.0644 C   0  0  2  0  0  0  0  0  0  0  0  0
    6.2774   -4.3228   16.7029 C   0  0  2  0  0  0  0  0  0  0  0  0
    7.6781   -4.4578   16.6932 O   0  0  0  0  0  0  0  0  0  0  0  0
    5.6727   -5.4870   15.8733 C   0  0  1  0  0  0  0  0  0  0  0  0
    6.0354   -6.7213   16.4747 O   0  0  0  0  0  0  0  0  0  0  0  0
    7.3848   -6.9532   16.7709 C   0  0  2  0  0  0  0  0  0  0  0  0
    7.6980   -8.4118   16.3872 C   0  0  2  0  0  0  0  0  0  0  0  0
    7.4823   -8.5795   15.0023 O   0  0  0  0  0  0  0  0  0  0  0  0
    6.7745   -9.3696   17.2147 C   0  0  1  0  0  0  0  0  0  0  0  0
    6.9939  -10.7981   16.8810 N   0  3  0  0  0  0  0  0  0  0  0  0
    6.0753  -11.2333   15.7980 C   0  0  0  0  0  0  0  0  0  0  0  0
    7.0256   -9.1328   18.7438 C   0  0  2  0  0  0  0  0  0  0  0  0
    8.4022   -9.4096   19.0628 O   0  0  0  0  0  0  0  0  0  0  0  0
    6.2024   -9.9952   19.5719 C   0  0  0  0  0  0  0  0  0  0  0  0
    6.7906   -7.6321   19.0987 C   0  0  0  0  0  0  0  0  0  0  0  0
    7.6130   -6.7461   18.2112 O   0  0  0  0  0  0  0  0  0  0  0  0
  1  2  1  6  0  0  0
  1  3  1  0  0  0  0
  1 10  1  0  0  0  0
  3  4  1  6  0  0  0
  3  5  1  0  0  0  0
  5  6  1  1  0  0  0
  5  7  1  0  0  0  0
  7  8  1  6  0  0  0
  7  9  1  0  0  0  0
  9 10  1  1  0  0  0
  9 11  1  0  0  0  0
 11 12  1  1  0  0  0
 11 13  1  0  0  0  0
 14 15  1  6  0  0  0
 14 16  1  0  0  0  0
 14 22  1  0  0  0  0
 16 17  1  0  0  0  0
 17 18  1  6  0  0  0
 17 19  1  0  0  0  0
 19  2  1  1  0  0  0
 19 20  1  0  0  0  0
 20 21  1  6  0  0  0
 20 22  1  0  0  0  0
 22 23  1  1  0  0  0
 24 23  1  1  0  0  0
 24 25  1  0  0  0  0
 24 34  1  0  0  0  0
 25 26  1  6  0  0  0
 25 27  1  0  0  0  0
 27 28  1  6  0  0  0
 27 30  1  0  0  0  0
 28 29  1  0  0  0  0
 30 31  1  1  0  0  0
 30 32  1  0  0  0  0
 30 33  1  0  0  0  0
 33 34  1  0  0  0  0
M  CHG  4   4   1  15   1  18   1  28   1
M  END
>  <CHROM.1>
-165.57525649,74.54700857,170.81423363,56.64615176,70.20931701,124.28799125
124.84704984,-163.12199174,-55.66224770,146.22319700,-171.29816548,-138.36076035
60.40978396,28.49005634,-55.47068671,6.93764812,-4.81154318,17.50768568,1.43994652
-0.67141686,0.05285750

>  <Name>
1mwl

>  <RI>
0

>  <Rbt.Current_Directory>
/home/itssahil/PROJECTS/Mol_Feturizer/New_Systems/rnas/1mwl

>  <Rbt.Executable>
rbdock ($Id: //depot/dev/client3/rdock/2013.1/src/exe/rbdock.cxx#4 $)

>  <Rbt.Library>
libRbt.so (2013.1, Build901 2013/11/27)

>  <Rbt.Parameter_File>
/export/apps/rDock/src/rDock_2013.1_src/data/scripts/dock_solv.prm

>  <Rbt.Receptor>
prm/blind_docking_80.prm

>  <SCORE>
-24.654

>  <SCORE.INTER>
-34.74

>  <SCORE.INTER.CONST>
1

>  <SCORE.INTER.POLAR>
-4.47652

>  <SCORE.INTER.ROT>
6

>  <SCORE.INTER.SOLV>
18.7956

>  <SCORE.INTER.VDW>
-22.1035

>  <SCORE.INTER.norm>
-1.02177

>  <SCORE.INTRA>
-4.98898

>  <SCORE.INTRA.DIHEDRAL>
-13.8245

>  <SCORE.INTRA.DIHEDRAL.0>
42.0816

>  <SCORE.INTRA.POLAR>
-1.01088

>  <SCORE.INTRA.POLAR.0>
-0.254682

>  <SCORE.INTRA.REPUL>
0.0748455

>  <SCORE.INTRA.REPUL.0>
0

>  <SCORE.INTRA.SOLV>
0.385698

>  <SCORE.INTRA.SOLV.lig_0>
-109.803

>  <SCORE.INTRA.VDW>
4.79318

>  <SCORE.INTRA.VDW.0>
0.32176

>  <SCORE.INTRA.norm>
-0.146735

>  <SCORE.RESTR>
15.075

>  <SCORE.RESTR.CAVITY>
15.075

>  <SCORE.RESTR.norm>
0.443384

>  <SCORE.SYSTEM>
0

>  <SCORE.SYSTEM.CONST>
0

>  <SCORE.SYSTEM.DIHEDRAL>
0

>  <SCORE.SYSTEM.SOLV>
0

>  <SCORE.SYSTEM.norm>
0

>  <SCORE.heavy>
34

>  <SCORE.norm>
-0.725117

>  <RMSD>
22.773

$$$$
1mwl
 OpenBabel11021811403D
libRbt.so/2013.1/901 2013/11/27
 34 36  0  0  0  0  0  0  0  0999 V2000
   -2.9415   -8.8097    7.2086 C   0  0  2  0  0  0  0  0  0  0  0  0
   -3.2381  -10.1665    7.3498 O   0  0  0  0  0  0  0  0  0  0  0  0
   -4.2403   -8.0958    6.7393 C   0  0  2  0  0  0  0  0  0  0  0  0
   -5.3129   -8.3043    7.7167 N   0  3  0  0  0  0  0  0  0  0  0  0
   -4.6563   -8.5893    5.3226 C   0  0  1  0  0  0  0  0  0  0  0  0
   -5.7750   -7.9519    4.8954 O   0  0  0  0  0  0  0  0  0  0  0  0
   -3.4654   -8.3427    4.3386 C   0  0  2  0  0  0  0  0  0  0  0  0
   -3.8207   -8.7805    3.0103 O   0  0  0  0  0  0  0  0  0  0  0  0
   -2.2137   -9.1163    4.8758 C   0  0  2  0  0  0  0  0  0  0  0  0
   -1.8724   -8.6568    6.2402 O   0  0  0  0  0  0  0  0  0  0  0  0
   -0.9481   -8.9541    4.0261 C   0  0  2  0  0  0  0  0  0  0  0  0
   -0.7395   -7.6077    3.7489 O   0  0  0  0  0  0  0  0  0  0  0  0
   -1.0241   -9.6680    2.6641 C   0  0  0  0  0  0  0  0  0  0  0  0
   -3.3351  -13.0819   10.4724 C   0  0  2  0  0  0  0  0  0  0  0  0
   -2.9170  -13.9193   11.6253 N   0  3  0  0  0  0  0  0  0  0  0  0
   -2.4292  -13.3560    9.2354 C   0  0  0  0  0  0  0  0  0  0  0  0
   -2.8680  -12.4520    8.0270 C   0  0  2  0  0  0  0  0  0  0  0  0
   -1.9798  -12.7463    6.8433 N   0  3  0  0  0  0  0  0  0  0  0  0
   -2.7884  -10.9453    8.4511 C   0  0  2  0  0  0  0  0  0  0  0  0
   -3.7048  -10.7033    9.6754 C   0  0  2  0  0  0  0  0  0  0  0  0
   -3.5990   -9.3561   10.0678 O   0  0  0  0  0  0  0  0  0  0  0  0
   -3.2485  -11.5913   10.8639 C   0  0  1  0  0  0  0  0  0  0  0  0
   -4.1000  -11.3515   11.9748 O   0  0  0  0  0  0  0  0  0  0  0  0
   -5.0135  -10.2916   11.9044 C   0  0  2  0  0  0  0  0  0  0  0  0
   -4.6811   -9.3184   13.0512 C   0  0  2  0  0  0  0  0  0  0  0  0
   -3.3705   -8.8259   12.8712 O   0  0  0  0  0  0  0  0  0  0  0  0
   -4.8095  -10.0733   14.4182 C   0  0  1  0  0  0  0  0  0  0  0  0
   -4.4754   -9.2098   15.5770 N   0  3  0  0  0  0  0  0  0  0  0  0
   -3.5561   -9.9112   16.5092 C   0  0  0  0  0  0  0  0  0  0  0  0
   -6.2689  -10.6260   14.5660 C   0  0  2  0  0  0  0  0  0  0  0  0
   -7.2105   -9.5370   14.5360 O   0  0  0  0  0  0  0  0  0  0  0  0
   -6.4595  -11.3352   15.8182 C   0  0  0  0  0  0  0  0  0  0  0  0
   -6.6212  -11.5387   13.3510 C   0  0  0  0  0  0  0  0  0  0  0  0
   -6.3821  -10.8131   12.0606 O   0  0  0  0  0  0  0  0  0  0  0  0
  1  2  1  6  0  0  0
  1  3  1  0  0  0  0
  1 10  1  0  0  0  0
  3  4  1  1  0  0  0
  3  5  1  0  0  0  0
  5  6  1  6  0  0  0
  5  7  1  0  0  0  0
  7  8  1  6  0  0  0
  7  9  1  0  0  0  0
  9 10  1  1  0  0  0
  9 11  1  0  0  0  0
 11 12  1  6  0  0  0
 11 13  1  0  0  0  0
 14 15  1  1  0  0  0
 14 16  1  0  0  0  0
 14 22  1  0  0  0  0
 16 17  1  0  0  0  0
 17 18  1  6  0  0  0
 17 19  1  0  0  0  0
 19  2  1  6  0  0  0
 19 20  1  0  0  0  0
 20 21  1  1  0  0  0
 20 22  1  0  0  0  0
 22 23  1  1  0  0  0
 24 23  1  1  0  0  0
 24 25  1  0  0  0  0
 24 34  1  0  0  0  0
 25 26  1  6  0  0  0
 25 27  1  0  0  0  0
 27 28  1  1  0  0  0
 27 30  1  0  0  0  0
 28 29  1  0  0  0  0
 30 31  1  6  0  0  0
 30 32  1  0  0  0  0
 30 33  1  0  0  0  0
 33 34  1  0  0  0  0
M  CHG  4   4   1  15   1  18   1  28   1
M  END
>  <CHROM.1>
-137.11756074,-160.42446861,30.27287555,62.12732356,50.90078546,48.46694852
-176.74149713,-124.76450113,-68.19137961,-81.58280833,-129.20509098,-119.78608224
65.22835936,-12.95257151,-58.24271913,-3.82761977,-10.08850631,9.39986972
1.13366863,0.93281136,-1.04992347

>  <Name>
1mwl

>  <RI>
0

>  <Rbt.Current_Directory>
/home/itssahil/PROJECTS/Mol_Feturizer/New_Systems/rnas/1mwl

>  <Rbt.Executable>
rbdock ($Id: //depot/dev/client3/rdock/2013.1/src/exe/rbdock.cxx#4 $)

>  <Rbt.Library>
libRbt.so (2013.1, Build901 2013/11/27)

>  <Rbt.Parameter_File>
/export/apps/rDock/src/rDock_2013.1_src/data/scripts/dock_solv.prm

>  <Rbt.Receptor>
prm/blind_docking_60.prm

>  <SCORE>
-20.0219

>  <SCORE.INTER>
-32.9535

>  <SCORE.INTER.CONST>
1

>  <SCORE.INTER.POLAR>
-6.7433

>  <SCORE.INTER.ROT>
6

>  <SCORE.INTER.SOLV>
25.1704

>  <SCORE.INTER.VDW>
-15.4814

>  <SCORE.INTER.norm>
-0.96922

>  <SCORE.INTRA>
-3.55025

>  <SCORE.INTRA.DIHEDRAL>
-8.60912

>  <SCORE.INTRA.DIHEDRAL.0>
42.0816

>  <SCORE.INTRA.POLAR>
-1.05549

>  <SCORE.INTRA.POLAR.0>
-0.254682

>  <SCORE.INTRA.REPUL>
0

>  <SCORE.INTRA.REPUL.0>
0

>  <SCORE.INTRA.SOLV>
-0.947539

>  <SCORE.INTRA.SOLV.lig_0>
-109.803

>  <SCORE.INTRA.VDW>
4.81676

>  <SCORE.INTRA.VDW.0>
0.32176

>  <SCORE.INTRA.norm>
-0.104419

>  <SCORE.RESTR>
16.4818

>  <SCORE.RESTR.CAVITY>
16.4818

>  <SCORE.RESTR.norm>
0.48476

>  <SCORE.SYSTEM>
0

>  <SCORE.SYSTEM.CONST>
0

>  <SCORE.SYSTEM.DIHEDRAL>
0

>  <SCORE.SYSTEM.SOLV>
0

>  <SCORE.SYSTEM.norm>
0

>  <SCORE.heavy>
34

>  <SCORE.norm>
-0.588879

>  <RMSD>
22.774

$$$$
1mwl
 OpenBabel11021811403D
libRbt.so/2013.1/901 2013/11/27
 34 36  0  0  0  0  0  0  0  0999 V2000
   -2.8819   -9.1643    6.8495 C   0  0  2  0  0  0  0  0  0  0  0  0
   -3.4219  -10.4317    7.0743 O   0  0  0  0  0  0  0  0  0  0  0  0
   -4.0601   -8.2111    6.5030 C   0  0  2  0  0  0  0  0  0  0  0  0
   -5.0298   -8.1860    7.6023 N   0  3  0  0  0  0  0  0  0  0  0  0
   -4.7298   -8.6315    5.1620 C   0  0  1  0  0  0  0  0  0  0  0  0
   -5.7429   -7.7889    4.8399 O   0  0  0  0  0  0  0  0  0  0  0  0
   -3.6383   -8.6432    4.0413 C   0  0  2  0  0  0  0  0  0  0  0  0
   -4.2273   -9.0200    2.7790 O   0  0  0  0  0  0  0  0  0  0  0  0
   -2.5096   -9.6444    4.4627 C   0  0  2  0  0  0  0  0  0  0  0  0
   -1.9256   -9.2430    5.7616 O   0  0  0  0  0  0  0  0  0  0  0  0
   -1.3463   -9.7517    3.4702 C   0  0  2  0  0  0  0  0  0  0  0  0
   -0.3658  -10.5914    3.9869 O   0  0  0  0  0  0  0  0  0  0  0  0
   -0.6545   -8.4066    3.1832 C   0  0  0  0  0  0  0  0  0  0  0  0
   -3.8348  -13.1405   10.3533 C   0  0  2  0  0  0  0  0  0  0  0  0
   -3.4951  -14.0058   11.5114 N   0  3  0  0  0  0  0  0  0  0  0  0
   -3.1311  -13.6495    9.0604 C   0  0  0  0  0  0  0  0  0  0  0  0
   -3.4822  -12.7167    7.8451 C   0  0  2  0  0  0  0  0  0  0  0  0
   -2.7950  -13.2396    6.6078 N   0  3  0  0  0  0  0  0  0  0  0  0
   -3.0440  -11.2486    8.1751 C   0  0  2  0  0  0  0  0  0  0  0  0
   -3.7659  -10.7691    9.4581 C   0  0  2  0  0  0  0  0  0  0  0  0
   -3.3392   -9.4634    9.7632 O   0  0  0  0  0  0  0  0  0  0  0  0
   -3.3964  -11.6908   10.6511 C   0  0  1  0  0  0  0  0  0  0  0  0
   -4.0666  -11.2317   11.8159 O   0  0  0  0  0  0  0  0  0  0  0  0
   -3.5610  -10.1082   12.4829 C   0  0  2  0  0  0  0  0  0  0  0  0
   -4.0879  -10.1540   13.9296 C   0  0  2  0  0  0  0  0  0  0  0  0
   -3.6144  -11.3277   14.5546 O   0  0  0  0  0  0  0  0  0  0  0  0
   -5.6543  -10.1284   13.9062 C   0  0  1  0  0  0  0  0  0  0  0  0
   -6.2435  -10.1998   15.2655 N   0  3  0  0  0  0  0  0  0  0  0  0
   -6.1250  -11.5727   15.8198 C   0  0  0  0  0  0  0  0  0  0  0  0
   -6.1372   -8.8250   13.1815 C   0  0  2  0  0  0  0  0  0  0  0  0
   -5.6551   -7.6655   13.8862 O   0  0  0  0  0  0  0  0  0  0  0  0
   -7.5850   -8.7346   13.1288 C   0  0  0  0  0  0  0  0  0  0  0  0
   -5.5230   -8.7498   11.7497 C   0  0  0  0  0  0  0  0  0  0  0  0
   -4.0307   -8.8856   11.8090 O   0  0  0  0  0  0  0  0  0  0  0  0
  1  2  1  6  0  0  0
  1  3  1  0  0  0  0
  1 10  1  0  0  0  0
  3  4  1  1  0  0  0
  3  5  1  0  0  0  0
  5  6  1  6  0  0  0
  5  7  1  0  0  0  0
  7  8  1  6  0  0  0
  7  9  1  0  0  0  0
  9 10  1  1  0  0  0
  9 11  1  0  0  0  0
 11 12  1  1  0  0  0
 11 13  1  0  0  0  0
 14 15  1  1  0  0  0
 14 16  1  0  0  0  0
 14 22  1  0  0  0  0
 16 17  1  0  0  0  0
 17 18  1  6  0  0  0
 17 19  1  0  0  0  0
 19  2  1  6  0  0  0
 19 20  1  0  0  0  0
 20 21  1  1  0  0  0
 20 22  1  0  0  0  0
 22 23  1  1  0  0  0
 24 23  1  6  0  0  0
 24 25  1  0  0  0  0
 24 34  1  0  0  0  0
 25 26  1  6  0  0  0
 25 27  1  0  0  0  0
 27 28  1  1  0  0  0
 27 30  1  0  0  0  0
 28 29  1  0  0  0  0
 30 31  1  1  0  0  0
 30 32  1  0  0  0  0
 30 33  1  0  0  0  0
 33 34  1  0  0  0  0
M  CHG  4   4   1  15   1  18   1  28   1
M  END
>  <CHROM.1>
-134.71354290,-161.98286338,7.29807609,61.95115683,-63.30784531,175.87163836
62.74507469,-66.94335811,-59.90010636,-83.36569645,162.42172321,-158.40158770
43.41377608,45.87174361,-56.98927201,-3.91415298,-10.15070688,9.14146314
1.06920776,1.00274342,-1.04769736

>  <Name>
1mwl

>  <RI>
0

>  <Rbt.Current_Directory>
/home/itssahil/PROJECTS/Mol_Feturizer/New_Systems/rnas/1mwl

>  <Rbt.Executable>
rbdock ($Id: //depot/dev/client3/rdock/2013.1/src/exe/rbdock.cxx#4 $)

>  <Rbt.Library>
libRbt.so (2013.1, Build901 2013/11/27)

>  <Rbt.Parameter_File>
/export/apps/rDock/src/rDock_2013.1_src/data/scripts/dock_solv.prm

>  <Rbt.Receptor>
prm/blind_docking_60.prm

>  <SCORE>
-23.3995

>  <SCORE.INTER>
-27.9292

>  <SCORE.INTER.CONST>
1

>  <SCORE.INTER.POLAR>
-5.43619

>  <SCORE.INTER.ROT>
6

>  <SCORE.INTER.SOLV>
21.1749

>  <SCORE.INTER.VDW>
-15.1571

>  <SCORE.INTER.norm>
-0.821446

>  <SCORE.INTRA>
-12.8881

>  <SCORE.INTRA.DIHEDRAL>
-22.9199

>  <SCORE.INTRA.DIHEDRAL.0>
42.0816

>  <SCORE.INTRA.POLAR>
-0.926108

>  <SCORE.INTRA.POLAR.0>
-0.254682

>  <SCORE.INTRA.REPUL>
0

>  <SCORE.INTRA.REPUL.0>
0

>  <SCORE.INTRA.SOLV>
-0.569018

>  <SCORE.INTRA.SOLV.lig_0>
-109.803

>  <SCORE.INTRA.VDW>
2.00511

>  <SCORE.INTRA.VDW.0>
0.32176

>  <SCORE.INTRA.norm>
-0.379062

>  <SCORE.RESTR>
17.4178

>  <SCORE.RESTR.CAVITY>
17.4178

>  <SCORE.RESTR.norm>
0.512288

>  <SCORE.SYSTEM>
0

>  <SCORE.SYSTEM.CONST>
0

>  <SCORE.SYSTEM.DIHEDRAL>
0

>  <SCORE.SYSTEM.SOLV>
0

>  <SCORE.SYSTEM.norm>
0

>  <SCORE.heavy>
34

>  <SCORE.norm>
-0.68822

>  <RMSD>
22.836

$$$$
1mwl
 OpenBabel11021811403D
libRbt.so/2013.1/901 2013/11/27
 34 36  0  0  0  0  0  0  0  0999 V2000
   -2.7705  -10.4245    9.2784 C   0  0  2  0  0  0  0  0  0  0  0  0
   -3.8988  -10.4319    8.4565 O   0  0  0  0  0  0  0  0  0  0  0  0
   -2.3954  -11.9053    9.5672 C   0  0  2  0  0  0  0  0  0  0  0  0
   -2.1308  -12.6138    8.3113 N   0  3  0  0  0  0  0  0  0  0  0  0
   -3.5162  -12.6046   10.3908 C   0  0  1  0  0  0  0  0  0  0  0  0
   -3.1845  -13.8902   10.6688 O   0  0  0  0  0  0  0  0  0  0  0  0
   -3.7482  -11.7927   11.7078 C   0  0  2  0  0  0  0  0  0  0  0  0
   -4.7766  -12.4197   12.5024 O   0  0  0  0  0  0  0  0  0  0  0  0
   -4.1440  -10.3274   11.3204 C   0  0  2  0  0  0  0  0  0  0  0  0
   -3.0795   -9.7073   10.5007 O   0  0  0  0  0  0  0  0  0  0  0  0
   -4.3840   -9.3932   12.5119 C   0  0  2  0  0  0  0  0  0  0  0  0
   -4.4937  -10.1413   13.6788 O   0  0  0  0  0  0  0  0  0  0  0  0
   -5.6829   -8.5740   12.4013 C   0  0  0  0  0  0  0  0  0  0  0  0
   -5.3577   -8.5839    4.8906 C   0  0  2  0  0  0  0  0  0  0  0  0
   -5.6670   -7.5506    3.8697 N   0  3  0  0  0  0  0  0  0  0  0  0
   -6.0760   -8.2625    6.2347 C   0  0  0  0  0  0  0  0  0  0  0  0
   -5.7275   -9.3513    7.3132 C   0  0  2  0  0  0  0  0  0  0  0  0
   -6.4439   -9.0187    8.5988 N   0  3  0  0  0  0  0  0  0  0  0  0
   -4.1739   -9.4050    7.5124 C   0  0  2  0  0  0  0  0  0  0  0  0
   -3.4903   -9.7344    6.1628 C   0  0  2  0  0  0  0  0  0  0  0  0
   -2.0953   -9.7463    6.3467 O   0  0  0  0  0  0  0  0  0  0  0  0
   -3.8315   -8.6421    5.1141 C   0  0  1  0  0  0  0  0  0  0  0  0
   -3.1931   -8.9627    3.8869 O   0  0  0  0  0  0  0  0  0  0  0  0
   -1.9049   -9.5122    3.9234 C   0  0  2  0  0  0  0  0  0  0  0  0
   -0.9027   -8.3482    3.8073 C   0  0  2  0  0  0  0  0  0  0  0  0
   -1.0775   -7.4794    4.9061 O   0  0  0  0  0  0  0  0  0  0  0  0
   -1.1472   -7.5935    2.4562 C   0  0  1  0  0  0  0  0  0  0  0  0
   -0.2378   -6.4350    2.2805 N   0  3  0  0  0  0  0  0  0  0  0  0
   -0.8958   -5.1773    2.7179 C   0  0  0  0  0  0  0  0  0  0  0  0
   -0.9699   -8.5981    1.2660 C   0  0  2  0  0  0  0  0  0  0  0  0
    0.3660   -9.1354    1.2734 O   0  0  0  0  0  0  0  0  0  0  0  0
   -1.1783   -7.9608   -0.0215 C   0  0  0  0  0  0  0  0  0  0  0  0
   -1.9289   -9.8152    1.4455 C   0  0  0  0  0  0  0  0  0  0  0  0
   -1.7367  -10.4425    2.7940 O   0  0  0  0  0  0  0  0  0  0  0  0
  1  2  1  6  0  0  0
  1  3  1  0  0  0  0
  1 10  1  0  0  0  0
  3  4  1  6  0  0  0
  3  5  1  0  0  0  0
  5  6  1  1  0  0  0
  5  7  1  0  0  0  0
  7  8  1  6  0  0  0
  7  9  1  0  0  0  0
  9 10  1  6  0  0  0
  9 11  1  0  0  0  0
 11 12  1  1  0  0  0
 11 13  1  0  0  0  0
 14 15  1  6  0  0  0
 14 16  1  0  0  0  0
 14 22  1  0  0  0  0
 16 17  1  0  0  0  0
 17 18  1  1  0  0  0
 17 19  1  0  0  0  0
 19  2  1  1  0  0  0
 19 20  1  0  0  0  0
 20 21  1  1  0  0  0
 20 22  1  0  0  0  0
 22 23  1  6  0  0  0
 24 23  1  6  0  0  0
 24 25  1  0  0  0  0
 24 34  1  0  0  0  0
 25 26  1  1  0  0  0
 25 27  1  0  0  0  0
 27 28  1  6  0  0  0
 27 30  1  0  0  0  0
 28 29  1  0  0  0  0
 30 31  1  1  0  0  0
 30 32  1  0  0  0  0
 30 33  1  0  0  0  0
 33 34  1  0  0  0  0
M  CHG  4   4   1  15   1  18   1  28   1
M  END
>  <CHROM.1>
-150.23998899,-152.85944178,-174.40043211,-171.58661685,69.52822105,-13.65855592
65.14290475,-50.35173263,-56.34219296,73.85847851,-158.33947114,-92.95891367
-61.14476532,24.20383903,62.64645375,-3.10590535,-9.54556687,6.73399244,-1.95538227
0.72220917,-1.00123083

>  <Name>
1mwl

>  <RI>
0

>  <Rbt.Current_Directory>
/home/itssahil/PROJECTS/Mol_Feturizer/New_Systems/rnas/1mwl

>  <Rbt.Executable>
rbdock ($Id: //depot/dev/client3/rdock/2013.1/src/exe/rbdock.cxx#4 $)

>  <Rbt.Library>
libRbt.so (2013.1, Build901 2013/11/27)

>  <Rbt.Parameter_File>
/export/apps/rDock/src/rDock_2013.1_src/data/scripts/dock_solv.prm

>  <Rbt.Receptor>
prm/blind_docking_60.prm

>  <SCORE>
-10.8339

>  <SCORE.INTER>
-23.9893

>  <SCORE.INTER.CONST>
1

>  <SCORE.INTER.POLAR>
-4.06589

>  <SCORE.INTER.ROT>
6

>  <SCORE.INTER.SOLV>
25.5892

>  <SCORE.INTER.VDW>
-18.5696

>  <SCORE.INTER.norm>
-0.705568

>  <SCORE.INTRA>
-8.00745

>  <SCORE.INTRA.DIHEDRAL>
-19.8609

>  <SCORE.INTRA.DIHEDRAL.0>
42.0816

>  <SCORE.INTRA.POLAR>
0.246027

>  <SCORE.INTRA.POLAR.0>
-0.254682

>  <SCORE.INTRA.REPUL>
0

>  <SCORE.INTRA.REPUL.0>
0

>  <SCORE.INTRA.SOLV>
-0.367995

>  <SCORE.INTRA.SOLV.lig_0>
-109.803

>  <SCORE.INTRA.VDW>
1.2705

>  <SCORE.INTRA.VDW.0>
0.32176

>  <SCORE.INTRA.norm>
-0.235513

>  <SCORE.RESTR>
21.1629

>  <SCORE.RESTR.CAVITY>
21.1629

>  <SCORE.RESTR.norm>
0.622437

>  <SCORE.SYSTEM>
0

>  <SCORE.SYSTEM.CONST>
0

>  <SCORE.SYSTEM.DIHEDRAL>
0

>  <SCORE.SYSTEM.SOLV>
0

>  <SCORE.SYSTEM.norm>
0

>  <SCORE.heavy>
34

>  <SCORE.norm>
-0.318644

>  <RMSD>
22.858

$$$$
1mwl
 OpenBabel11021811403D
libRbt.so/2013.1/901 2013/11/27
 34 36  0  0  0  0  0  0  0  0999 V2000
   -3.1716   -8.6928    7.1684 C   0  0  2  0  0  0  0  0  0  0  0  0
   -3.5900   -9.9930    7.4567 O   0  0  0  0  0  0  0  0  0  0  0  0
   -4.3677   -7.9559    6.5025 C   0  0  2  0  0  0  0  0  0  0  0  0
   -5.5240   -7.9523    7.4039 N   0  3  0  0  0  0  0  0  0  0  0  0
   -4.7165   -8.6041    5.1308 C   0  0  1  0  0  0  0  0  0  0  0  0
   -5.7431   -7.9503    4.5317 O   0  0  0  0  0  0  0  0  0  0  0  0
   -3.4390   -8.5796    4.2281 C   0  0  2  0  0  0  0  0  0  0  0  0
   -3.7294   -9.1652    2.9416 O   0  0  0  0  0  0  0  0  0  0  0  0
   -2.2998   -9.3629    4.9646 C   0  0  2  0  0  0  0  0  0  0  0  0
   -2.0242   -8.7499    6.2828 O   0  0  0  0  0  0  0  0  0  0  0  0
   -0.9652   -9.4091    4.2118 C   0  0  2  0  0  0  0  0  0  0  0  0
   -0.2476   -8.2440    4.4587 O   0  0  0  0  0  0  0  0  0  0  0  0
   -1.1224   -9.5028    2.6831 C   0  0  0  0  0  0  0  0  0  0  0  0
   -3.1845  -12.9690   10.4962 C   0  0  2  0  0  0  0  0  0  0  0  0
   -2.5823  -13.8402   11.5373 N   0  3  0  0  0  0  0  0  0  0  0  0
   -2.5335  -13.2399    9.1074 C   0  0  0  0  0  0  0  0  0  0  0  0
   -3.1646  -12.3005    8.0168 C   0  0  2  0  0  0  0  0  0  0  0  0
   -2.5218  -12.5921    6.6833 N   0  3  0  0  0  0  0  0  0  0  0  0
   -2.9648  -10.8053    8.4421 C   0  0  2  0  0  0  0  0  0  0  0  0
   -3.6292  -10.5661    9.8200 C   0  0  2  0  0  0  0  0  0  0  0  0
   -3.4140   -9.2303   10.2066 O   0  0  0  0  0  0  0  0  0  0  0  0
   -2.9843  -11.4895   10.8880 C   0  0  1  0  0  0  0  0  0  0  0  0
   -3.6063  -11.2517   12.1422 O   0  0  0  0  0  0  0  0  0  0  0  0
   -4.9924  -11.0516   12.1773 C   0  0  2  0  0  0  0  0  0  0  0  0
   -5.2599   -9.8274   13.0732 C   0  0  2  0  0  0  0  0  0  0  0  0
   -4.6332   -8.6968   12.5061 O   0  0  0  0  0  0  0  0  0  0  0  0
   -4.7025  -10.1113   14.5097 C   0  0  1  0  0  0  0  0  0  0  0  0
   -4.8949   -8.9642   15.4301 N   0  3  0  0  0  0  0  0  0  0  0  0
   -3.6323   -8.6432   16.1433 C   0  0  0  0  0  0  0  0  0  0  0  0
   -5.4035  -11.3871   15.0911 C   0  0  2  0  0  0  0  0  0  0  0  0
   -6.8252  -11.1725   15.1686 O   0  0  0  0  0  0  0  0  0  0  0  0
   -4.9354  -11.7055   16.4278 C   0  0  0  0  0  0  0  0  0  0  0  0
   -5.1984  -12.5965   14.1275 C   0  0  0  0  0  0  0  0  0  0  0  0
   -5.6458  -12.2459   12.7398 O   0  0  0  0  0  0  0  0  0  0  0  0
  1  2  1  6  0  0  0
  1  3  1  0  0  0  0
  1 10  1  0  0  0  0
  3  4  1  1  0  0  0
  3  5  1  0  0  0  0
  5  6  1  6  0  0  0
  5  7  1  0  0  0  0
  7  8  1  6  0  0  0
  7  9  1  0  0  0  0
  9 10  1  1  0  0  0
  9 11  1  0  0  0  0
 11 12  1  6  0  0  0
 11 13  1  0  0  0  0
 14 15  1  1  0  0  0
 14 16  1  0  0  0  0
 14 22  1  0  0  0  0
 16 17  1  0  0  0  0
 17 18  1  6  0  0  0
 17 19  1  0  0  0  0
 19  2  1  6  0  0  0
 19 20  1  0  0  0  0
 20 21  1  1  0  0  0
 20 22  1  0  0  0  0
 22 23  1  1  0  0  0
 24 23  1  1  0  0  0
 24 25  1  0  0  0  0
 24 34  1  0  0  0  0
 25 26  1  6  0  0  0
 25 27  1  0  0  0  0
 27 28  1  1  0  0  0
 27 30  1  0  0  0  0
 28 29  1  0  0  0  0
 30 31  1  1  0  0  0
 30 32  1  0  0  0  0
 30 33  1  0  0  0  0
 33 34  1  0  0  0  0
M  CHG  4   4   1  15   1  18   1  28   1
M  END
>  <CHROM.1>
-158.11358246,-152.05386727,-92.06702607,-62.37390806,-44.81333411,83.23571228
67.09220671,28.24139125,172.75867417,-91.43900872,-80.11735505,-133.76056130
88.67208114,-11.09100874,60.89737722,-3.76699039,-10.23739831,9.47822380
1.14934411,1.03755927,-1.01875742

>  <Name>
1mwl

>  <RI>
0

>  <Rbt.Current_Directory>
/home/itssahil/PROJECTS/Mol_Feturizer/New_Systems/rnas/1mwl

>  <Rbt.Executable>
rbdock ($Id: //depot/dev/client3/rdock/2013.1/src/exe/rbdock.cxx#4 $)

>  <Rbt.Library>
libRbt.so (2013.1, Build901 2013/11/27)

>  <Rbt.Parameter_File>
/export/apps/rDock/src/rDock_2013.1_src/data/scripts/dock_solv.prm

>  <Rbt.Receptor>
prm/blind_docking_60.prm

>  <SCORE>
-17.5916

>  <SCORE.INTER>
-31.9852

>  <SCORE.INTER.CONST>
1

>  <SCORE.INTER.POLAR>
-6.71047

>  <SCORE.INTER.ROT>
6

>  <SCORE.INTER.SOLV>
25.2044

>  <SCORE.INTER.VDW>
-14.9567

>  <SCORE.INTER.norm>
-0.940742

>  <SCORE.INTRA>
-3.92513

>  <SCORE.INTRA.DIHEDRAL>
-10.8061

>  <SCORE.INTRA.DIHEDRAL.0>
42.0816

>  <SCORE.INTRA.POLAR>
0.195034

>  <SCORE.INTRA.POLAR.0>
-0.254682

>  <SCORE.INTRA.REPUL>
0

>  <SCORE.INTRA.REPUL.0>
0

>  <SCORE.INTRA.SOLV>
-0.398997

>  <SCORE.INTRA.SOLV.lig_0>
-109.803

>  <SCORE.INTRA.VDW>
1.01428

>  <SCORE.INTRA.VDW.0>
0.32176

>  <SCORE.INTRA.norm>
-0.115445

>  <SCORE.RESTR>
18.3188

>  <SCORE.RESTR.CAVITY>
18.3188

>  <SCORE.RESTR.norm>
0.538788

>  <SCORE.SYSTEM>
0

>  <SCORE.SYSTEM.CONST>
0

>  <SCORE.SYSTEM.DIHEDRAL>
0

>  <SCORE.SYSTEM.SOLV>
0

>  <SCORE.SYSTEM.norm>
0

>  <SCORE.heavy>
34

>  <SCORE.norm>
-0.517399

>  <RMSD>
22.905

$$$$
1mwl
 OpenBabel11021811403D
libRbt.so/2013.1/901 2013/11/27
 34 36  0  0  0  0  0  0  0  0999 V2000
   -2.8759  -10.8688    5.1668 C   0  0  2  0  0  0  0  0  0  0  0  0
   -1.9683  -10.8957    6.2271 O   0  0  0  0  0  0  0  0  0  0  0  0
   -2.1048  -10.3853    3.9064 C   0  0  2  0  0  0  0  0  0  0  0  0
   -0.9851  -11.2878    3.6219 N   0  3  0  0  0  0  0  0  0  0  0  0
   -1.6210   -8.9169    4.0890 C   0  0  1  0  0  0  0  0  0  0  0  0
   -0.9693   -8.4792    2.9827 O   0  0  0  0  0  0  0  0  0  0  0  0
   -2.8633   -8.0167    4.3954 C   0  0  2  0  0  0  0  0  0  0  0  0
   -2.4520   -6.6435    4.5611 O   0  0  0  0  0  0  0  0  0  0  0  0
   -3.5595   -8.5610    5.6889 C   0  0  2  0  0  0  0  0  0  0  0  0
   -3.9658   -9.9710    5.4989 O   0  0  0  0  0  0  0  0  0  0  0  0
   -4.8172   -7.7924    6.1102 C   0  0  2  0  0  0  0  0  0  0  0  0
   -4.5082   -6.4479    6.2840 O   0  0  0  0  0  0  0  0  0  0  0  0
   -5.4156   -8.2733    7.4447 C   0  0  0  0  0  0  0  0  0  0  0  0
   -4.2329  -12.7279    9.3535 C   0  0  2  0  0  0  0  0  0  0  0  0
   -4.5705  -13.4103   10.6285 N   0  3  0  0  0  0  0  0  0  0  0  0
   -3.3348  -13.6372    8.4633 C   0  0  0  0  0  0  0  0  0  0  0  0
   -2.9682  -12.8990    7.1251 C   0  0  2  0  0  0  0  0  0  0  0  0
   -2.1072  -13.8065    6.2814 N   0  3  0  0  0  0  0  0  0  0  0  0
   -2.2382  -11.5528    7.4588 C   0  0  2  0  0  0  0  0  0  0  0  0
   -3.1584  -10.6690    8.3359 C   0  0  2  0  0  0  0  0  0  0  0  0
   -2.4799   -9.4788    8.6572 O   0  0  0  0  0  0  0  0  0  0  0  0
   -3.4978  -11.4055    9.6594 C   0  0  1  0  0  0  0  0  0  0  0  0
   -4.3392  -10.5768   10.4479 O   0  0  0  0  0  0  0  0  0  0  0  0
   -3.7475   -9.6895   11.3563 C   0  0  2  0  0  0  0  0  0  0  0  0
   -4.1496  -10.1421   12.7728 C   0  0  2  0  0  0  0  0  0  0  0  0
   -3.6570  -11.4459   12.9962 O   0  0  0  0  0  0  0  0  0  0  0  0
   -5.7110  -10.1074   12.8985 C   0  0  1  0  0  0  0  0  0  0  0  0
   -6.1833  -10.5597   14.2298 N   0  3  0  0  0  0  0  0  0  0  0  0
   -6.3297  -12.0374   14.2630 C   0  0  0  0  0  0  0  0  0  0  0  0
   -6.2179   -8.6511   12.6174 C   0  0  2  0  0  0  0  0  0  0  0  0
   -5.6454   -7.7398   13.5741 O   0  0  0  0  0  0  0  0  0  0  0  0
   -7.6619   -8.5461   12.7228 C   0  0  0  0  0  0  0  0  0  0  0  0
   -5.7268   -8.1746   11.2156 C   0  0  0  0  0  0  0  0  0  0  0  0
   -4.2393   -8.3250   11.0997 O   0  0  0  0  0  0  0  0  0  0  0  0
  1  2  1  1  0  0  0
  1  3  1  0  0  0  0
  1 10  1  0  0  0  0
  3  4  1  1  0  0  0
  3  5  1  0  0  0  0
  5  6  1  6  0  0  0
  5  7  1  0  0  0  0
  7  8  1  1  0  0  0
  7  9  1  0  0  0  0
  9 10  1  6  0  0  0
  9 11  1  0  0  0  0
 11 12  1  1  0  0  0
 11 13  1  0  0  0  0
 14 15  1  1  0  0  0
 14 16  1  0  0  0  0
 14 22  1  0  0  0  0
 16 17  1  0  0  0  0
 17 18  1  6  0  0  0
 17 19  1  0  0  0  0
 19  2  1  6  0  0  0
 19 20  1  0  0  0  0
 20 21  1  1  0  0  0
 20 22  1  0  0  0  0
 22 23  1  1  0  0  0
 24 23  1  6  0  0  0
 24 25  1  0  0  0  0
 24 34  1  0  0  0  0
 25 26  1  6  0  0  0
 25 27  1  0  0  0  0
 27 28  1  1  0  0  0
 27 30  1  0  0  0  0
 28 29  1  0  0  0  0
 30 31  1  1  0  0  0
 30 32  1  0  0  0  0
 30 33  1  0  0  0  0
 33 34  1  0  0  0  0
M  CHG  4   4   1  15   1  18   1  28   1
M  END
>  <CHROM.1>
-166.10263050,40.19484318,146.25371319,-69.19468451,67.54531325,-56.51107351
-178.07267805,150.64418323,21.27029842,-76.27451524,149.59669084,-114.71611477
174.44995900,33.83679134,-52.59942221,-3.81136268,-10.05223161,8.59548705
-0.63308693,-1.09714801,2.51510676

>  <Name>
1mwl

>  <RI>
0

>  <Rbt.Current_Directory>
/home/itssahil/PROJECTS/Mol_Feturizer/New_Systems/rnas/1mwl

>  <Rbt.Executable>
rbdock ($Id: //depot/dev/client3/rdock/2013.1/src/exe/rbdock.cxx#4 $)

>  <Rbt.Library>
libRbt.so (2013.1, Build901 2013/11/27)

>  <Rbt.Parameter_File>
/export/apps/rDock/src/rDock_2013.1_src/data/scripts/dock_solv.prm

>  <Rbt.Receptor>
prm/blind_docking_60.prm

>  <SCORE>
-11.066

>  <SCORE.INTER>
-18.8281

>  <SCORE.INTER.CONST>
1

>  <SCORE.INTER.POLAR>
-3.84077

>  <SCORE.INTER.ROT>
6

>  <SCORE.INTER.SOLV>
22.8722

>  <SCORE.INTER.VDW>
-14.9736

>  <SCORE.INTER.norm>
-0.553767

>  <SCORE.INTRA>
-10.9907

>  <SCORE.INTRA.DIHEDRAL>
-18.1924

>  <SCORE.INTRA.DIHEDRAL.0>
42.0816

>  <SCORE.INTRA.POLAR>
-0.345687

>  <SCORE.INTRA.POLAR.0>
-0.254682

>  <SCORE.INTRA.REPUL>
0

>  <SCORE.INTRA.REPUL.0>
0

>  <SCORE.INTRA.SOLV>
2.5757

>  <SCORE.INTRA.SOLV.lig_0>
-109.803

>  <SCORE.INTRA.VDW>
-2.00695

>  <SCORE.INTRA.VDW.0>
0.32176

>  <SCORE.INTRA.norm>
-0.323255

>  <SCORE.RESTR>
18.7527

>  <SCORE.RESTR.CAVITY>
18.7527

>  <SCORE.RESTR.norm>
0.55155

>  <SCORE.SYSTEM>
0

>  <SCORE.SYSTEM.CONST>
0

>  <SCORE.SYSTEM.DIHEDRAL>
0

>  <SCORE.SYSTEM.SOLV>
0

>  <SCORE.SYSTEM.norm>
0

>  <SCORE.heavy>
34

>  <SCORE.norm>
-0.325471

>  <RMSD>
22.923

$$$$
1mwl
 OpenBabel11021811403D
libRbt.so/2013.1/901 2013/11/27
 34 36  0  0  0  0  0  0  0  0999 V2000
   -2.8639  -10.9057    5.1497 C   0  0  2  0  0  0  0  0  0  0  0  0
   -1.9884  -10.7698    6.2284 O   0  0  0  0  0  0  0  0  0  0  0  0
   -2.1058  -10.4426    3.8738 C   0  0  2  0  0  0  0  0  0  0  0  0
   -0.8988  -11.2524    3.6813 N   0  3  0  0  0  0  0  0  0  0  0  0
   -1.7667   -8.9255    3.9574 C   0  0  1  0  0  0  0  0  0  0  0  0
   -1.1275   -8.5082    2.8361 O   0  0  0  0  0  0  0  0  0  0  0  0
   -3.0959   -8.1281    4.1694 C   0  0  2  0  0  0  0  0  0  0  0  0
   -2.8197   -6.7136    4.2417 O   0  0  0  0  0  0  0  0  0  0  0  0
   -3.7748   -8.6420    5.4843 C   0  0  2  0  0  0  0  0  0  0  0  0
   -4.0419  -10.0944    5.3906 O   0  0  0  0  0  0  0  0  0  0  0  0
   -5.1103   -7.9686    5.8202 C   0  0  2  0  0  0  0  0  0  0  0  0
   -4.9002   -6.6211    6.0912 O   0  0  0  0  0  0  0  0  0  0  0  0
   -5.8014   -8.5559    7.0643 C   0  0  0  0  0  0  0  0  0  0  0  0
   -4.1866  -12.6183    9.3923 C   0  0  2  0  0  0  0  0  0  0  0  0
   -4.5243  -13.1884   10.7214 N   0  3  0  0  0  0  0  0  0  0  0  0
   -3.0376  -13.4281    8.7216 C   0  0  0  0  0  0  0  0  0  0  0  0
   -2.6754  -12.8059    7.3245 C   0  0  2  0  0  0  0  0  0  0  0  0
   -1.5681  -13.6157    6.6964 N   0  3  0  0  0  0  0  0  0  0  0  0
   -2.2602  -11.3069    7.5166 C   0  0  2  0  0  0  0  0  0  0  0  0
   -3.4244  -10.5280    8.1763 C   0  0  2  0  0  0  0  0  0  0  0  0
   -3.0278   -9.1925    8.3746 O   0  0  0  0  0  0  0  0  0  0  0  0
   -3.7587  -11.1448    9.5608 C   0  0  1  0  0  0  0  0  0  0  0  0
   -4.8257  -10.4144   10.1477 O   0  0  0  0  0  0  0  0  0  0  0  0
   -4.5621   -9.1396   10.6655 C   0  0  2  0  0  0  0  0  0  0  0  0
   -3.9471   -9.3276   12.0653 C   0  0  2  0  0  0  0  0  0  0  0  0
   -2.7391  -10.0478   11.9439 O   0  0  0  0  0  0  0  0  0  0  0  0
   -4.9655  -10.0971   12.9739 C   0  0  1  0  0  0  0  0  0  0  0  0
   -4.4351  -10.3457   14.3366 N   0  3  0  0  0  0  0  0  0  0  0  0
   -3.8310  -11.6995   14.4282 C   0  0  0  0  0  0  0  0  0  0  0  0
   -6.2993   -9.2783   13.0601 C   0  0  2  0  0  0  0  0  0  0  0  0
   -6.0419   -7.9813   13.6303 O   0  0  0  0  0  0  0  0  0  0  0  0
   -7.2894   -9.9345   13.8946 C   0  0  0  0  0  0  0  0  0  0  0  0
   -6.8622   -9.0197   11.6285 C   0  0  0  0  0  0  0  0  0  0  0  0
   -5.8202   -8.3796   10.7607 O   0  0  0  0  0  0  0  0  0  0  0  0
  1  2  1  1  0  0  0
  1  3  1  0  0  0  0
  1 10  1  0  0  0  0
  3  4  1  1  0  0  0
  3  5  1  0  0  0  0
  5  6  1  6  0  0  0
  5  7  1  0  0  0  0
  7  8  1  1  0  0  0
  7  9  1  0  0  0  0
  9 10  1  6  0  0  0
  9 11  1  0  0  0  0
 11 12  1  1  0  0  0
 11 13  1  0  0  0  0
 14 15  1  1  0  0  0
 14 16  1  0  0  0  0
 14 22  1  0  0  0  0
 16 17  1  0  0  0  0
 17 18  1  1  0  0  0
 17 19  1  0  0  0  0
 19  2  1  6  0  0  0
 19 20  1  0  0  0  0
 20 21  1  1  0  0  0
 20 22  1  0  0  0  0
 22 23  1  6  0  0  0
 24 23  1  1  0  0  0
 24 25  1  0  0  0  0
 24 34  1  0  0  0  0
 25 26  1  6  0  0  0
 25 27  1  0  0  0  0
 27 28  1  1  0  0  0
 27 30  1  0  0  0  0
 28 29  1  0  0  0  0
 30 31  1  1  0  0  0
 30 32  1  0  0  0  0
 30 33  1  0  0  0  0
 33 34  1  0  0  0  0
M  CHG  4   4   1  15   1  18   1  28   1
M  END
>  <CHROM.1>
-169.11756816,49.73037738,146.13032684,68.26138135,-168.04936272,-65.08827215
-167.72681883,-61.76468311,-107.02596318,47.23890607,165.85801861,-81.00113746
60.92250107,24.46932134,174.92089114,-3.81415293,-10.00803673,8.52322356
-0.92692368,-1.00872782,2.19631159

>  <Name>
1mwl

>  <RI>
0

>  <Rbt.Current_Directory>
/home/itssahil/PROJECTS/Mol_Feturizer/New_Systems/rnas/1mwl

>  <Rbt.Executable>
rbdock ($Id: //depot/dev/client3/rdock/2013.1/src/exe/rbdock.cxx#4 $)

>  <Rbt.Library>
libRbt.so (2013.1, Build901 2013/11/27)

>  <Rbt.Parameter_File>
/export/apps/rDock/src/rDock_2013.1_src/data/scripts/dock_solv.prm

>  <Rbt.Receptor>
prm/blind_docking_60.prm

>  <SCORE>
-19.6839

>  <SCORE.INTER>
-21.5215

>  <SCORE.INTER.CONST>
1

>  <SCORE.INTER.POLAR>
-5.91667

>  <SCORE.INTER.ROT>
6

>  <SCORE.INTER.SOLV>
26.0887

>  <SCORE.INTER.VDW>
-10.9216

>  <SCORE.INTER.norm>
-0.632984

>  <SCORE.INTRA>
-14.8254

>  <SCORE.INTRA.DIHEDRAL>
-27.685

>  <SCORE.INTRA.DIHEDRAL.0>
42.0816

>  <SCORE.INTRA.POLAR>
-0.377521

>  <SCORE.INTRA.POLAR.0>
-0.254682

>  <SCORE.INTRA.REPUL>
0

>  <SCORE.INTRA.REPUL.0>
0

>  <SCORE.INTRA.SOLV>
1.05414

>  <SCORE.INTRA.SOLV.lig_0>
-109.803

>  <SCORE.INTRA.VDW>
-0.226466

>  <SCORE.INTRA.VDW.0>
0.32176

>  <SCORE.INTRA.norm>
-0.436043

>  <SCORE.RESTR>
16.663

>  <SCORE.RESTR.CAVITY>
16.663

>  <SCORE.RESTR.norm>
0.490087

>  <SCORE.SYSTEM>
0

>  <SCORE.SYSTEM.CONST>
0

>  <SCORE.SYSTEM.DIHEDRAL>
0

>  <SCORE.SYSTEM.SOLV>
0

>  <SCORE.SYSTEM.norm>
0

>  <SCORE.heavy>
34

>  <SCORE.norm>
-0.57894

>  <RMSD>
22.956

$$$$
1mwl
 OpenBabel11021811403D
libRbt.so/2013.1/901 2013/11/27
 34 36  0  0  0  0  0  0  0  0999 V2000
   -2.9557   -8.7469    7.1109 C   0  0  2  0  0  0  0  0  0  0  0  0
   -3.2869  -10.0929    7.2757 O   0  0  0  0  0  0  0  0  0  0  0  0
   -4.2232   -8.0167    6.5845 C   0  0  2  0  0  0  0  0  0  0  0  0
   -5.3295   -8.1774    7.5330 N   0  3  0  0  0  0  0  0  0  0  0  0
   -4.6071   -8.5362    5.1680 C   0  0  1  0  0  0  0  0  0  0  0  0
   -5.6976   -7.8855    4.6911 O   0  0  0  0  0  0  0  0  0  0  0  0
   -3.3816   -8.3402    4.2156 C   0  0  2  0  0  0  0  0  0  0  0  0
   -3.7061   -8.8032    2.8880 O   0  0  0  0  0  0  0  0  0  0  0  0
   -2.1645   -9.1273    4.8098 C   0  0  2  0  0  0  0  0  0  0  0  0
   -1.8546   -8.6415    6.1726 O   0  0  0  0  0  0  0  0  0  0  0  0
   -0.8704   -9.0139    3.9960 C   0  0  2  0  0  0  0  0  0  0  0  0
   -0.5920   -7.6753    3.7430 O   0  0  0  0  0  0  0  0  0  0  0  0
   -0.9429   -9.7062    2.6227 C   0  0  0  0  0  0  0  0  0  0  0  0
   -3.0489  -13.0108   10.3883 C   0  0  2  0  0  0  0  0  0  0  0  0
   -2.4967  -13.8875   11.4523 N   0  3  0  0  0  0  0  0  0  0  0  0
   -2.4112  -13.3507    9.0086 C   0  0  0  0  0  0  0  0  0  0  0  0
   -2.9884  -12.4056    7.8934 C   0  0  2  0  0  0  0  0  0  0  0  0
   -2.3601  -12.7644    6.5694 N   0  3  0  0  0  0  0  0  0  0  0  0
   -2.7084  -10.9134    8.2826 C   0  0  2  0  0  0  0  0  0  0  0  0
   -3.3613  -10.6046    9.6520 C   0  0  2  0  0  0  0  0  0  0  0  0
   -3.0747   -9.2734   10.0066 O   0  0  0  0  0  0  0  0  0  0  0  0
   -2.7694  -11.5351   10.7444 C   0  0  1  0  0  0  0  0  0  0  0  0
   -3.3798  -11.2331   11.9904 O   0  0  0  0  0  0  0  0  0  0  0  0
   -4.7763  -11.1389   12.0490 C   0  0  2  0  0  0  0  0  0  0  0  0
   -5.1212   -9.9568   12.9745 C   0  0  2  0  0  0  0  0  0  0  0  0
   -4.5900   -8.7709   12.4232 O   0  0  0  0  0  0  0  0  0  0  0  0
   -4.5221  -10.2271   14.3968 C   0  0  1  0  0  0  0  0  0  0  0  0
   -4.7859   -9.1167   15.3441 N   0  3  0  0  0  0  0  0  0  0  0  0
   -3.5420   -8.7223   16.0534 C   0  0  0  0  0  0  0  0  0  0  0  0
   -5.1162  -11.5636   14.9603 C   0  0  2  0  0  0  0  0  0  0  0  0
   -6.5487  -11.4585   15.0619 O   0  0  0  0  0  0  0  0  0  0  0  0
   -4.6051  -11.8730   16.2833 C   0  0  0  0  0  0  0  0  0  0  0  0
   -4.8358  -12.7343   13.9683 C   0  0  0  0  0  0  0  0  0  0  0  0
   -5.3295  -12.3902   12.5947 O   0  0  0  0  0  0  0  0  0  0  0  0
  1  2  1  6  0  0  0
  1  3  1  0  0  0  0
  1 10  1  0  0  0  0
  3  4  1  1  0  0  0
  3  5  1  0  0  0  0
  5  6  1  6  0  0  0
  5  7  1  0  0  0  0
  7  8  1  6  0  0  0
  7  9  1  0  0  0  0
  9 10  1  1  0  0  0
  9 11  1  0  0  0  0
 11 12  1  6  0  0  0
 11 13  1  0  0  0  0
 14 15  1  1  0  0  0
 14 16  1  0  0  0  0
 14 22  1  0  0  0  0
 16 17  1  0  0  0  0
 17 18  1  6  0  0  0
 17 19  1  0  0  0  0
 19  2  1  6  0  0  0
 19 20  1  0  0  0  0
 20 21  1  1  0  0  0
 20 22  1  0  0  0  0
 22 23  1  1  0  0  0
 24 23  1  1  0  0  0
 24 25  1  0  0  0  0
 24 34  1  0  0  0  0
 25 26  1  6  0  0  0
 25 27  1  0  0  0  0
 27 28  1  1  0  0  0
 27 30  1  0  0  0  0
 28 29  1  0  0  0  0
 30 31  1  1  0  0  0
 30 32  1  0  0  0  0
 30 33  1  0  0  0  0
 33 34  1  0  0  0  0
M  CHG  4   4   1  15   1  18   1  28   1
M  END
>  <CHROM.1>
-148.08225754,-163.50509374,-87.68108407,-173.10399128,63.70517220,51.06418457
-57.11306547,-89.35187881,172.13176834,-166.72733537,-71.44628531,-140.16559375
70.61976632,-11.48574618,69.72439702,-3.60721957,-10.25984429,9.35931812
1.14517254,1.07895647,-0.97457972

>  <Name>
1mwl

>  <RI>
0

>  <Rbt.Current_Directory>
/home/itssahil/PROJECTS/Mol_Feturizer/New_Systems/rnas/1mwl

>  <Rbt.Executable>
rbdock ($Id: //depot/dev/client3/rdock/2013.1/src/exe/rbdock.cxx#4 $)

>  <Rbt.Library>
libRbt.so (2013.1, Build901 2013/11/27)

>  <Rbt.Parameter_File>
/export/apps/rDock/src/rDock_2013.1_src/data/scripts/dock_solv.prm

>  <Rbt.Receptor>
prm/blind_docking_60.prm

>  <SCORE>
-19.4957

>  <SCORE.INTER>
-23.3522

>  <SCORE.INTER.CONST>
1

>  <SCORE.INTER.POLAR>
-4.63213

>  <SCORE.INTER.ROT>
6

>  <SCORE.INTER.SOLV>
24.1735

>  <SCORE.INTER.VDW>
-15.7855

>  <SCORE.INTER.norm>
-0.686829

>  <SCORE.INTRA>
-14.2213

>  <SCORE.INTRA.DIHEDRAL>
-21.4942

>  <SCORE.INTRA.DIHEDRAL.0>
42.0816

>  <SCORE.INTRA.POLAR>
-0.36027

>  <SCORE.INTRA.POLAR.0>
-0.254682

>  <SCORE.INTRA.REPUL>
0

>  <SCORE.INTRA.REPUL.0>
0

>  <SCORE.INTRA.SOLV>
-0.847577

>  <SCORE.INTRA.SOLV.lig_0>
-109.803

>  <SCORE.INTRA.VDW>
-1.82547

>  <SCORE.INTRA.VDW.0>
0.32176

>  <SCORE.INTRA.norm>
-0.418273

>  <SCORE.RESTR>
18.0778

>  <SCORE.RESTR.CAVITY>
18.0778

>  <SCORE.RESTR.norm>
0.531701

>  <SCORE.SYSTEM>
0

>  <SCORE.SYSTEM.CONST>
0

>  <SCORE.SYSTEM.DIHEDRAL>
0

>  <SCORE.SYSTEM.SOLV>
0

>  <SCORE.SYSTEM.norm>
0

>  <SCORE.heavy>
34

>  <SCORE.norm>
-0.573402

>  <RMSD>
23.032

$$$$
1mwl
 OpenBabel11021811403D
libRbt.so/2013.1/901 2013/11/27
 34 36  0  0  0  0  0  0  0  0999 V2000
   -2.6495  -11.0342    4.2505 C   0  0  2  0  0  0  0  0  0  0  0  0
   -1.7870  -11.2054    5.3348 O   0  0  0  0  0  0  0  0  0  0  0  0
   -1.8893  -10.2049    3.1775 C   0  0  2  0  0  0  0  0  0  0  0  0
   -0.6642  -10.9022    2.7745 N   0  3  0  0  0  0  0  0  0  0  0  0
   -1.5825   -8.7733    3.7065 C   0  0  1  0  0  0  0  0  0  0  0  0
   -0.9416   -8.0350    2.7660 O   0  0  0  0  0  0  0  0  0  0  0  0
   -2.9298   -8.0957    4.1227 C   0  0  2  0  0  0  0  0  0  0  0  0
   -2.6835   -6.7599    4.6098 O   0  0  0  0  0  0  0  0  0  0  0  0
   -3.6101   -8.9837    5.2193 C   0  0  2  0  0  0  0  0  0  0  0  0
   -3.8462  -10.3493    4.7008 O   0  0  0  0  0  0  0  0  0  0  0  0
   -4.9623   -8.4610    5.7176 C   0  0  2  0  0  0  0  0  0  0  0  0
   -5.6706   -7.9082    4.6565 O   0  0  0  0  0  0  0  0  0  0  0  0
   -4.8416   -7.3526    6.7794 C   0  0  0  0  0  0  0  0  0  0  0  0
   -4.3851  -12.6766    8.3917 C   0  0  2  0  0  0  0  0  0  0  0  0
   -4.8563  -13.3130    9.6480 N   0  3  0  0  0  0  0  0  0  0  0  0
   -3.6401  -13.7107    7.4964 C   0  0  0  0  0  0  0  0  0  0  0  0
   -3.1297  -13.0232    6.1784 C   0  0  2  0  0  0  0  0  0  0  0  0
   -2.4218  -14.0500    5.3292 N   0  3  0  0  0  0  0  0  0  0  0  0
   -2.1865  -11.8277    6.5492 C   0  0  2  0  0  0  0  0  0  0  0  0
   -2.9573  -10.8147    7.4306 C   0  0  2  0  0  0  0  0  0  0  0  0
   -2.0912   -9.7638    7.7850 O   0  0  0  0  0  0  0  0  0  0  0  0
   -3.4405  -11.5049    8.7342 C   0  0  1  0  0  0  0  0  0  0  0  0
   -4.1415  -10.5582    9.5271 O   0  0  0  0  0  0  0  0  0  0  0  0
   -3.4726   -9.9532   10.5991 C   0  0  2  0  0  0  0  0  0  0  0  0
   -3.7740  -10.7848   11.8602 C   0  0  2  0  0  0  0  0  0  0  0  0
   -3.2828  -12.0952   11.6752 O   0  0  0  0  0  0  0  0  0  0  0  0
   -5.3211  -10.7996   12.1073 C   0  0  1  0  0  0  0  0  0  0  0  0
   -5.6989  -11.6079   13.2922 N   0  3  0  0  0  0  0  0  0  0  0  0
   -4.9273  -11.1828   14.4880 C   0  0  0  0  0  0  0  0  0  0  0  0
   -5.8289   -9.3268   12.2804 C   0  0  2  0  0  0  0  0  0  0  0  0
   -5.1752   -8.7124   13.4068 O   0  0  0  0  0  0  0  0  0  0  0  0
   -7.2596   -9.2674   12.5188 C   0  0  0  0  0  0  0  0  0  0  0  0
   -5.4374   -8.4756   11.0333 C   0  0  0  0  0  0  0  0  0  0  0  0
   -3.9646   -8.5753   10.7690 O   0  0  0  0  0  0  0  0  0  0  0  0
  1  2  1  1  0  0  0
  1  3  1  0  0  0  0
  1 10  1  0  0  0  0
  3  4  1  1  0  0  0
  3  5  1  0  0  0  0
  5  6  1  6  0  0  0
  5  7  1  0  0  0  0
  7  8  1  1  0  0  0
  7  9  1  0  0  0  0
  9 10  1  6  0  0  0
  9 11  1  0  0  0  0
 11 12  1  6  0  0  0
 11 13  1  0  0  0  0
 14 15  1  1  0  0  0
 14 16  1  0  0  0  0
 14 22  1  0  0  0  0
 16 17  1  0  0  0  0
 17 18  1  6  0  0  0
 17 19  1  0  0  0  0
 19  2  1  6  0  0  0
 19 20  1  0  0  0  0
 20 21  1  1  0  0  0
 20 22  1  0  0  0  0
 22 23  1  1  0  0  0
 24 23  1  6  0  0  0
 24 25  1  0  0  0  0
 24 34  1  0  0  0  0
 25 26  1  6  0  0  0
 25 27  1  0  0  0  0
 27 28  1  1  0  0  0
 27 30  1  0  0  0  0
 28 29  1  0  0  0  0
 30 31  1  1  0  0  0
 30 32  1  0  0  0  0
 30 33  1  0  0  0  0
 33 34  1  0  0  0  0
M  CHG  4   4   1  15   1  18   1  28   1
M  END
>  <CHROM.1>
174.80872729,38.61248861,82.12378631,60.90150539,177.74297480,37.48548203
-70.16742937,-147.84638143,61.16840323,59.67256397,139.73284900,-93.42323995
171.13139852,172.61464114,38.73509238,-3.67462487,-10.28863400,7.90116306
-0.69027089,-1.15053438,2.50276095

>  <Name>
1mwl

>  <RI>
0

>  <Rbt.Current_Directory>
/home/itssahil/PROJECTS/Mol_Feturizer/New_Systems/rnas/1mwl

>  <Rbt.Executable>
rbdock ($Id: //depot/dev/client3/rdock/2013.1/src/exe/rbdock.cxx#4 $)

>  <Rbt.Library>
libRbt.so (2013.1, Build901 2013/11/27)

>  <Rbt.Parameter_File>
/export/apps/rDock/src/rDock_2013.1_src/data/scripts/dock_solv.prm

>  <Rbt.Receptor>
prm/blind_docking_60.prm

>  <SCORE>
-2.96516

>  <SCORE.INTER>
-11.5003

>  <SCORE.INTER.CONST>
1

>  <SCORE.INTER.POLAR>
-3.25978

>  <SCORE.INTER.ROT>
6

>  <SCORE.INTER.SOLV>
17.7732

>  <SCORE.INTER.VDW>
-10.3253

>  <SCORE.INTER.norm>
-0.338245

>  <SCORE.INTRA>
-11.3468

>  <SCORE.INTRA.DIHEDRAL>
-22.5822

>  <SCORE.INTRA.DIHEDRAL.0>
42.0816

>  <SCORE.INTRA.POLAR>
-0.982875

>  <SCORE.INTRA.POLAR.0>
-0.254682

>  <SCORE.INTRA.REPUL>
0.0291493

>  <SCORE.INTRA.REPUL.0>
0

>  <SCORE.INTRA.SOLV>
1.40093

>  <SCORE.INTRA.SOLV.lig_0>
-109.803

>  <SCORE.INTRA.VDW>
2.43988

>  <SCORE.INTRA.VDW.0>
0.32176

>  <SCORE.INTRA.norm>
-0.333728

>  <SCORE.RESTR>
19.8819

>  <SCORE.RESTR.CAVITY>
19.8819

>  <SCORE.RESTR.norm>
0.584762

>  <SCORE.SYSTEM>
0

>  <SCORE.SYSTEM.CONST>
0

>  <SCORE.SYSTEM.DIHEDRAL>
0

>  <SCORE.SYSTEM.SOLV>
0

>  <SCORE.SYSTEM.norm>
0

>  <SCORE.heavy>
34

>  <SCORE.norm>
-0.0872105

>  <RMSD>
23.490

$$$$
1mwl
 OpenBabel11021811403D
libRbt.so/2013.1/901 2013/11/27
 34 36  0  0  0  0  0  0  0  0999 V2000
    7.4698   -5.4807   14.8574 C   0  0  2  0  0  0  0  0  0  0  0  0
    7.8321   -5.1469   16.1635 O   0  0  0  0  0  0  0  0  0  0  0  0
    7.6907   -4.2192   13.9761 C   0  0  2  0  0  0  0  0  0  0  0  0
    9.0922   -3.7942   14.0445 N   0  3  0  0  0  0  0  0  0  0  0  0
    6.7266   -3.0746   14.4051 C   0  0  1  0  0  0  0  0  0  0  0  0
    6.8957   -1.9787   13.6237 O   0  0  0  0  0  0  0  0  0  0  0  0
    5.2560   -3.6007   14.3146 C   0  0  2  0  0  0  0  0  0  0  0  0
    4.3325   -2.5599   14.6968 O   0  0  0  0  0  0  0  0  0  0  0  0
    5.1213   -4.8508   15.2491 C   0  0  2  0  0  0  0  0  0  0  0  0
    6.0815   -5.9010   14.8437 O   0  0  0  0  0  0  0  0  0  0  0  0
    3.7327   -5.5002   15.2526 C   0  0  2  0  0  0  0  0  0  0  0  0
    3.4278   -5.9469   16.5336 O   0  0  0  0  0  0  0  0  0  0  0  0
    3.6239   -6.7282   14.3305 C   0  0  0  0  0  0  0  0  0  0  0  0
    7.2085   -7.1617   19.8798 C   0  0  2  0  0  0  0  0  0  0  0  0
    6.5368   -7.7008   21.0896 N   0  3  0  0  0  0  0  0  0  0  0  0
    7.1526   -5.6052   19.8663 C   0  0  0  0  0  0  0  0  0  0  0  0
    7.8495   -5.0457   18.5736 C   0  0  2  0  0  0  0  0  0  0  0  0
    7.7878   -3.5382   18.5935 N   0  3  0  0  0  0  0  0  0  0  0  0
    7.1431   -5.6381   17.3061 C   0  0  2  0  0  0  0  0  0  0  0  0
    7.2231   -7.1838   17.3443 C   0  0  2  0  0  0  0  0  0  0  0  0
    6.5566   -7.7050   16.2199 O   0  0  0  0  0  0  0  0  0  0  0  0
    6.5170   -7.7208   18.6181 C   0  0  1  0  0  0  0  0  0  0  0  0
    6.6002   -9.1383   18.6310 O   0  0  0  0  0  0  0  0  0  0  0  0
    7.7879   -9.7453   18.2024 C   0  0  2  0  0  0  0  0  0  0  0  0
    7.4276  -10.7036   17.0514 C   0  0  2  0  0  0  0  0  0  0  0  0
    6.8678   -9.9588   15.9910 O   0  0  0  0  0  0  0  0  0  0  0  0
    6.4126  -11.7761   17.5754 C   0  0  1  0  0  0  0  0  0  0  0  0
    5.9906  -12.7238   16.5153 N   0  3  0  0  0  0  0  0  0  0  0  0
    4.5457  -12.5645   16.2107 C   0  0  0  0  0  0  0  0  0  0  0  0
    7.0620  -12.5607   18.7669 C   0  0  2  0  0  0  0  0  0  0  0  0
    8.2618  -13.2213   18.3224 O   0  0  0  0  0  0  0  0  0  0  0  0
    6.1737  -13.5780   19.2990 C   0  0  0  0  0  0  0  0  0  0  0  0
    7.5023  -11.5668   19.8856 C   0  0  0  0  0  0  0  0  0  0  0  0
    8.3860  -10.4953   19.3201 O   0  0  0  0  0  0  0  0  0  0  0  0
  1  2  1  1  0  0  0
  1  3  1  0  0  0  0
  1 10  1  0  0  0  0
  3  4  1  1  0  0  0
  3  5  1  0  0  0  0
  5  6  1  6  0  0  0
  5  7  1  0  0  0  0
  7  8  1  1  0  0  0
  7  9  1  0  0  0  0
  9 10  1  6  0  0  0
  9 11  1  0  0  0  0
 11 12  1  1  0  0  0
 11 13  1  0  0  0  0
 14 15  1  1  0  0  0
 14 16  1  0  0  0  0
 14 22  1  0  0  0  0
 16 17  1  0  0  0  0
 17 18  1  6  0  0  0
 17 19  1  0  0  0  0
 19  2  1  6  0  0  0
 19 20  1  0  0  0  0
 20 21  1  6  0  0  0
 20 22  1  0  0  0  0
 22 23  1  1  0  0  0
 24 23  1  1  0  0  0
 24 25  1  0  0  0  0
 24 34  1  0  0  0  0
 25 26  1  6  0  0  0
 25 27  1  0  0  0  0
 27 28  1  6  0  0  0
 27 30  1  0  0  0  0
 28 29  1  0  0  0  0
 30 31  1  6  0  0  0
 30 32  1  0  0  0  0
 30 33  1  0  0  0  0
 33 34  1  0  0  0  0
M  CHG  4   4   1  15   1  18   1  28   1
M  END
>  <CHROM.1>
143.28677788,179.76540913,-34.51098154,174.37801525,178.04065100,-143.09519545
172.32795932,-77.65020493,178.06694600,-72.20508662,-80.98474389,-123.05986510
-56.94855547,5.92215722,50.83711590,6.58557150,-7.45651438,16.91264661,1.70287201
-1.04803706,-0.28565636

>  <Name>
1mwl

>  <RI>
0

>  <Rbt.Current_Directory>
/home/itssahil/PROJECTS/Mol_Feturizer/New_Systems/rnas/1mwl

>  <Rbt.Executable>
rbdock ($Id: //depot/dev/client3/rdock/2013.1/src/exe/rbdock.cxx#4 $)

>  <Rbt.Library>
libRbt.so (2013.1, Build901 2013/11/27)

>  <Rbt.Parameter_File>
/export/apps/rDock/src/rDock_2013.1_src/data/scripts/dock_solv.prm

>  <Rbt.Receptor>
prm/blind_docking_60.prm

>  <SCORE>
-2.14316

>  <SCORE.INTER>
-17.9237

>  <SCORE.INTER.CONST>
1

>  <SCORE.INTER.POLAR>
-2.8641

>  <SCORE.INTER.ROT>
6

>  <SCORE.INTER.SOLV>
13.4307

>  <SCORE.INTER.VDW>
-14.479

>  <SCORE.INTER.norm>
-0.527167

>  <SCORE.INTRA>
-4.92547

>  <SCORE.INTRA.DIHEDRAL>
-17.2528

>  <SCORE.INTRA.DIHEDRAL.0>
42.0816

>  <SCORE.INTRA.POLAR>
0.016052

>  <SCORE.INTRA.POLAR.0>
-0.254682

>  <SCORE.INTRA.REPUL>
0

>  <SCORE.INTRA.REPUL.0>
0

>  <SCORE.INTRA.SOLV>
-2.05872

>  <SCORE.INTRA.SOLV.lig_0>
-109.803

>  <SCORE.INTRA.VDW>
4.67569

>  <SCORE.INTRA.VDW.0>
0.32176

>  <SCORE.INTRA.norm>
-0.144867

>  <SCORE.RESTR>
20.706

>  <SCORE.RESTR.CAVITY>
20.706

>  <SCORE.RESTR.norm>
0.609

>  <SCORE.SYSTEM>
0

>  <SCORE.SYSTEM.CONST>
0

>  <SCORE.SYSTEM.DIHEDRAL>
0

>  <SCORE.SYSTEM.SOLV>
0

>  <SCORE.SYSTEM.norm>
0

>  <SCORE.heavy>
34

>  <SCORE.norm>
-0.063034

>  <RMSD>
24.429

$$$$
1mwl
 OpenBabel11021811403D
libRbt.so/2013.1/901 2013/11/27
 34 36  0  0  0  0  0  0  0  0999 V2000
   12.8014  -10.6335    9.2843 C   0  0  2  0  0  0  0  0  0  0  0  0
   13.7562   -9.6668    8.9642 O   0  0  0  0  0  0  0  0  0  0  0  0
   12.1225  -10.1952   10.6124 C   0  0  2  0  0  0  0  0  0  0  0  0
   11.5059   -8.8747   10.4529 N   0  3  0  0  0  0  0  0  0  0  0  0
   13.1485  -10.2074   11.7832 C   0  0  1  0  0  0  0  0  0  0  0  0
   12.5573   -9.8506   12.9508 O   0  0  0  0  0  0  0  0  0  0  0  0
   13.7684  -11.6399   11.8885 C   0  0  2  0  0  0  0  0  0  0  0  0
   14.7192  -11.6904   12.9727 O   0  0  0  0  0  0  0  0  0  0  0  0
   14.4486  -11.9846   10.5201 C   0  0  2  0  0  0  0  0  0  0  0  0
   13.4577  -11.9196    9.4232 O   0  0  0  0  0  0  0  0  0  0  0  0
   15.0873  -13.3767   10.4559 C   0  0  2  0  0  0  0  0  0  0  0  0
   16.3898  -13.2728    9.9806 O   0  0  0  0  0  0  0  0  0  0  0  0
   14.3584  -14.3464    9.5078 C   0  0  0  0  0  0  0  0  0  0  0  0
   15.1934   -7.2580    5.7405 C   0  0  2  0  0  0  0  0  0  0  0  0
   15.5068   -6.7948    4.3648 N   0  3  0  0  0  0  0  0  0  0  0  0
   15.9401   -8.5877    6.0574 C   0  0  0  0  0  0  0  0  0  0  0  0
   15.5874   -9.0788    7.5081 C   0  0  2  0  0  0  0  0  0  0  0  0
   16.3314  -10.3611    7.7889 N   0  3  0  0  0  0  0  0  0  0  0  0
   14.0365   -9.2703    7.6278 C   0  0  2  0  0  0  0  0  0  0  0  0
   13.3243   -7.9313    7.3161 C   0  0  2  0  0  0  0  0  0  0  0  0
   11.9325   -8.1239    7.3932 O   0  0  0  0  0  0  0  0  0  0  0  0
   13.6702   -7.4687    5.8754 C   0  0  1  0  0  0  0  0  0  0  0  0
   13.0053   -6.2422    5.6106 O   0  0  0  0  0  0  0  0  0  0  0  0
   11.6323   -6.2686    5.3337 C   0  0  2  0  0  0  0  0  0  0  0  0
   11.4472   -6.9868    3.9835 C   0  0  2  0  0  0  0  0  0  0  0  0
   11.9326   -8.3076    4.0947 O   0  0  0  0  0  0  0  0  0  0  0  0
   12.2233   -6.1997    2.8731 C   0  0  1  0  0  0  0  0  0  0  0  0
   12.1194   -6.8455    1.5419 N   0  3  0  0  0  0  0  0  0  0  0  0
   12.9747   -8.0579    1.4761 C   0  0  0  0  0  0  0  0  0  0  0  0
   11.6730   -4.7337    2.8011 C   0  0  2  0  0  0  0  0  0  0  0  0
   10.2704   -4.7525    2.4757 O   0  0  0  0  0  0  0  0  0  0  0  0
   12.3476   -3.9470    1.7846 C   0  0  0  0  0  0  0  0  0  0  0  0
   11.7857   -4.0503    4.1987 C   0  0  0  0  0  0  0  0  0  0  0  0
   11.1226   -4.8892    5.2500 O   0  0  0  0  0  0  0  0  0  0  0  0
  1  2  1  1  0  0  0
  1  3  1  0  0  0  0
  1 10  1  0  0  0  0
  3  4  1  6  0  0  0
  3  5  1  0  0  0  0
  5  6  1  1  0  0  0
  5  7  1  0  0  0  0
  7  8  1  1  0  0  0
  7  9  1  0  0  0  0
  9 10  1  6  0  0  0
  9 11  1  0  0  0  0
 11 12  1  6  0  0  0
 11 13  1  0  0  0  0
 14 15  1  6  0  0  0
 14 16  1  0  0  0  0
 14 22  1  0  0  0  0
 16 17  1  0  0  0  0
 17 18  1  6  0  0  0
 17 19  1  0  0  0  0
 19  2  1  1  0  0  0
 19 20  1  0  0  0  0
 20 21  1  6  0  0  0
 20 22  1  0  0  0  0
 22 23  1  1  0  0  0
 24 23  1  6  0  0  0
 24 25  1  0  0  0  0
 24 34  1  0  0  0  0
 25 26  1  1  0  0  0
 25 27  1  0  0  0  0
 27 28  1  6  0  0  0
 27 30  1  0  0  0  0
 28 29  1  0  0  0  0
 30 31  1  6  0  0  0
 30 32  1  0  0  0  0
 30 33  1  0  0  0  0
 33 34  1  0  0  0  0
M  CHG  4   4   1  15   1  18   1  28   1
M  END
>  <CHROM.1>
-143.96438874,-140.24368106,118.51275970,-61.63464113,-72.24821941,-129.85401705
-58.93872419,19.33532325,-40.61075770,-55.72193364,163.57558526,-67.02647241
70.94997381,45.38812523,54.80698789,13.29495927,-8.65244615,7.06229226,1.28489412
-0.73388514,2.03361738

>  <Name>
1mwl

>  <RI>
0

>  <Rbt.Current_Directory>
/home/itssahil/PROJECTS/Mol_Feturizer/New_Systems/rnas/1mwl

>  <Rbt.Executable>
rbdock ($Id: //depot/dev/client3/rdock/2013.1/src/exe/rbdock.cxx#4 $)

>  <Rbt.Library>
libRbt.so (2013.1, Build901 2013/11/27)

>  <Rbt.Parameter_File>
/export/apps/rDock/src/rDock_2013.1_src/data/scripts/dock_solv.prm

>  <Rbt.Receptor>
prm/blind_docking_40.prm

>  <SCORE>
-17.9579

>  <SCORE.INTER>
-14.0662

>  <SCORE.INTER.CONST>
1

>  <SCORE.INTER.POLAR>
-2.35104

>  <SCORE.INTER.ROT>
6

>  <SCORE.INTER.SOLV>
26.9557

>  <SCORE.INTER.VDW>
-18.1259

>  <SCORE.INTER.norm>
-0.413712

>  <SCORE.INTRA>
-7.82289

>  <SCORE.INTRA.DIHEDRAL>
-16.253

>  <SCORE.INTRA.DIHEDRAL.0>
42.0816

>  <SCORE.INTRA.POLAR>
-0.922073

>  <SCORE.INTRA.POLAR.0>
-0.254682

>  <SCORE.INTRA.REPUL>
0.00898745

>  <SCORE.INTRA.REPUL.0>
0

>  <SCORE.INTRA.SOLV>
2.83358

>  <SCORE.INTRA.SOLV.lig_0>
-109.803

>  <SCORE.INTRA.VDW>
1.97694

>  <SCORE.INTRA.VDW.0>
0.32176

>  <SCORE.INTRA.norm>
-0.230085

>  <SCORE.RESTR>
3.93115

>  <SCORE.RESTR.CAVITY>
3.93115

>  <SCORE.RESTR.norm>
0.115622

>  <SCORE.SYSTEM>
0

>  <SCORE.SYSTEM.CONST>
0

>  <SCORE.SYSTEM.DIHEDRAL>
0

>  <SCORE.SYSTEM.SOLV>
0

>  <SCORE.SYSTEM.norm>
0

>  <SCORE.heavy>
34

>  <SCORE.norm>
-0.528175

>  <RMSD>
31.866

$$$$
1mwl
 OpenBabel11021811403D
libRbt.so/2013.1/901 2013/11/27
 34 36  0  0  0  0  0  0  0  0999 V2000
   12.1996  -10.0895   10.1030 C   0  0  2  0  0  0  0  0  0  0  0  0
   13.2182   -9.2223    9.7043 O   0  0  0  0  0  0  0  0  0  0  0  0
   11.7869   -9.6897   11.5476 C   0  0  2  0  0  0  0  0  0  0  0  0
   11.3361   -8.2949   11.5765 N   0  3  0  0  0  0  0  0  0  0  0  0
   12.9619   -9.9296   12.5402 C   0  0  1  0  0  0  0  0  0  0  0  0
   12.6008   -9.6070   13.8074 O   0  0  0  0  0  0  0  0  0  0  0  0
   13.3930  -11.4308   12.4497 C   0  0  2  0  0  0  0  0  0  0  0  0
   14.4766  -11.6918   13.3662 O   0  0  0  0  0  0  0  0  0  0  0  0
   13.8136  -11.7347   10.9716 C   0  0  2  0  0  0  0  0  0  0  0  0
   12.6908  -11.4533   10.0499 O   0  0  0  0  0  0  0  0  0  0  0  0
   14.2437  -13.1833   10.7138 C   0  0  2  0  0  0  0  0  0  0  0  0
   14.1465  -13.9172   11.8908 O   0  0  0  0  0  0  0  0  0  0  0  0
   15.7025  -13.3185   10.2407 C   0  0  0  0  0  0  0  0  0  0  0  0
   15.3898   -8.0399    6.2192 C   0  0  2  0  0  0  0  0  0  0  0  0
   16.0987   -8.1075    4.9161 N   0  3  0  0  0  0  0  0  0  0  0  0
   16.1263   -8.8960    7.2919 C   0  0  0  0  0  0  0  0  0  0  0  0
   15.3583   -8.8325    8.6617 C   0  0  2  0  0  0  0  0  0  0  0  0
   16.0994   -9.6621    9.6811 N   0  3  0  0  0  0  0  0  0  0  0  0
   13.8901   -9.3412    8.4568 C   0  0  2  0  0  0  0  0  0  0  0  0
   13.1831   -8.4662    7.3931 C   0  0  2  0  0  0  0  0  0  0  0  0
   11.8781   -8.9530    7.1931 O   0  0  0  0  0  0  0  0  0  0  0  0
   13.9445   -8.5524    6.0432 C   0  0  1  0  0  0  0  0  0  0  0  0
   13.2781   -7.7455    5.0833 O   0  0  0  0  0  0  0  0  0  0  0  0
   13.6954   -7.8081    3.7474 C   0  0  2  0  0  0  0  0  0  0  0  0
   14.0244   -6.3717    3.2985 C   0  0  2  0  0  0  0  0  0  0  0  0
   15.0730   -5.8686    4.0984 O   0  0  0  0  0  0  0  0  0  0  0  0
   12.7412   -5.4837    3.4392 C   0  0  1  0  0  0  0  0  0  0  0  0
   12.9827   -4.0721    3.0529 N   0  3  0  0  0  0  0  0  0  0  0  0
   13.8024   -3.3779    4.0787 C   0  0  0  0  0  0  0  0  0  0  0  0
   11.5957   -6.0909    2.5581 C   0  0  2  0  0  0  0  0  0  0  0  0
   12.0028   -6.1197    1.1772 O   0  0  0  0  0  0  0  0  0  0  0  0
   10.3740   -5.3110    2.6382 C   0  0  0  0  0  0  0  0  0  0  0  0
   11.3361   -7.5741    2.9657 C   0  0  0  0  0  0  0  0  0  0  0  0
   12.6103   -8.3633    2.9205 O   0  0  0  0  0  0  0  0  0  0  0  0
  1  2  1  1  0  0  0
  1  3  1  0  0  0  0
  1 10  1  0  0  0  0
  3  4  1  6  0  0  0
  3  5  1  0  0  0  0
  5  6  1  1  0  0  0
  5  7  1  0  0  0  0
  7  8  1  1  0  0  0
  7  9  1  0  0  0  0
  9 10  1  6  0  0  0
  9 11  1  0  0  0  0
 11 12  1  1  0  0  0
 11 13  1  0  0  0  0
 14 15  1  6  0  0  0
 14 16  1  0  0  0  0
 14 22  1  0  0  0  0
 16 17  1  0  0  0  0
 17 18  1  1  0  0  0
 17 19  1  0  0  0  0
 19  2  1  1  0  0  0
 19 20  1  0  0  0  0
 20 21  1  6  0  0  0
 20 22  1  0  0  0  0
 22 23  1  6  0  0  0
 24 23  1  1  0  0  0
 24 25  1  0  0  0  0
 24 34  1  0  0  0  0
 25 26  1  1  0  0  0
 25 27  1  0  0  0  0
 27 28  1  6  0  0  0
 27 30  1  0  0  0  0
 28 29  1  0  0  0  0
 30 31  1  6  0  0  0
 30 32  1  0  0  0  0
 30 33  1  0  0  0  0
 33 34  1  0  0  0  0
M  CHG  4   4   1  15   1  18   1  28   1
M  END
>  <CHROM.1>
176.53004605,-148.74498641,-13.93082825,62.92484396,73.55475039,0.48819981
64.96408537,89.20064430,-137.75135276,-170.66724606,67.85027227,-125.21740094
163.37418582,47.57910253,60.89574551,13.47721116,-8.72109445,7.48832324,1.48250933
-0.56793566,2.07198482

>  <Name>
1mwl

>  <RI>
0

>  <Rbt.Current_Directory>
/home/itssahil/PROJECTS/Mol_Feturizer/New_Systems/rnas/1mwl

>  <Rbt.Executable>
rbdock ($Id: //depot/dev/client3/rdock/2013.1/src/exe/rbdock.cxx#4 $)

>  <Rbt.Library>
libRbt.so (2013.1, Build901 2013/11/27)

>  <Rbt.Parameter_File>
/export/apps/rDock/src/rDock_2013.1_src/data/scripts/dock_solv.prm

>  <Rbt.Receptor>
prm/blind_docking_40.prm

>  <SCORE>
-0.550568

>  <SCORE.INTER>
1.01147

>  <SCORE.INTER.CONST>
1

>  <SCORE.INTER.POLAR>
-2.72958

>  <SCORE.INTER.ROT>
6

>  <SCORE.INTER.SOLV>
26.1176

>  <SCORE.INTER.VDW>
-6.53294

>  <SCORE.INTER.norm>
0.0297491

>  <SCORE.INTRA>
-6.03696

>  <SCORE.INTRA.DIHEDRAL>
-14.5443

>  <SCORE.INTRA.DIHEDRAL.0>
42.0816

>  <SCORE.INTRA.POLAR>
-1.00166

>  <SCORE.INTRA.POLAR.0>
-0.254682

>  <SCORE.INTRA.REPUL>
0

>  <SCORE.INTRA.REPUL.0>
0

>  <SCORE.INTRA.SOLV>
3.78878

>  <SCORE.INTRA.SOLV.lig_0>
-109.803

>  <SCORE.INTRA.VDW>
2.74645

>  <SCORE.INTRA.VDW.0>
0.32176

>  <SCORE.INTRA.norm>
-0.177558

>  <SCORE.RESTR>
4.47493

>  <SCORE.RESTR.CAVITY>
4.47493

>  <SCORE.RESTR.norm>
0.131615

>  <SCORE.SYSTEM>
0

>  <SCORE.SYSTEM.CONST>
0

>  <SCORE.SYSTEM.DIHEDRAL>
0

>  <SCORE.SYSTEM.SOLV>
0

>  <SCORE.SYSTEM.norm>
0

>  <SCORE.heavy>
34

>  <SCORE.norm>
-0.0161932

>  <RMSD>
31.916

$$$$
1mwl
 OpenBabel11021811403D
libRbt.so/2013.1/901 2013/11/27
 34 36  0  0  0  0  0  0  0  0999 V2000
   14.8841   -9.1391    9.1596 C   0  0  2  0  0  0  0  0  0  0  0  0
   14.9605  -10.0991    8.1491 O   0  0  0  0  0  0  0  0  0  0  0  0
   15.3546   -9.8136   10.4789 C   0  0  2  0  0  0  0  0  0  0  0  0
   16.7235  -10.3166   10.3290 N   0  3  0  0  0  0  0  0  0  0  0  0
   14.3731  -10.9480   10.8955 C   0  0  1  0  0  0  0  0  0  0  0  0
   14.7632  -11.5245   12.0598 O   0  0  0  0  0  0  0  0  0  0  0  0
   12.9372  -10.3414   11.0287 C   0  0  2  0  0  0  0  0  0  0  0  0
   12.0008  -11.3656   11.4243 O   0  0  0  0  0  0  0  0  0  0  0  0
   12.5392   -9.7093    9.6518 C   0  0  2  0  0  0  0  0  0  0  0  0
   13.5161   -8.6681    9.2631 O   0  0  0  0  0  0  0  0  0  0  0  0
   11.1564   -9.0482    9.6271 C   0  0  2  0  0  0  0  0  0  0  0  0
   10.9891   -8.3567    8.4325 O   0  0  0  0  0  0  0  0  0  0  0  0
   10.9441   -8.0204   10.7535 C   0  0  0  0  0  0  0  0  0  0  0  0
   16.3301   -7.7902    4.8245 C   0  0  2  0  0  0  0  0  0  0  0  0
   16.6967   -7.4052    3.4378 N   0  3  0  0  0  0  0  0  0  0  0  0
   17.2223   -8.9652    5.3239 C   0  0  0  0  0  0  0  0  0  0  0  0
   16.8142   -9.3770    6.7847 C   0  0  2  0  0  0  0  0  0  0  0  0
   17.7004  -10.5087    7.2435 N   0  3  0  0  0  0  0  0  0  0  0  0
   15.3001   -9.7813    6.8054 C   0  0  2  0  0  0  0  0  0  0  0  0
   14.4402   -8.5917    6.3128 C   0  0  2  0  0  0  0  0  0  0  0  0
   13.0870   -8.9775    6.3035 O   0  0  0  0  0  0  0  0  0  0  0  0
   14.8446   -8.2081    4.8642 C   0  0  1  0  0  0  0  0  0  0  0  0
   14.0428   -7.1184    4.4327 O   0  0  0  0  0  0  0  0  0  0  0  0
   13.1848   -6.5084    5.3570 C   0  0  2  0  0  0  0  0  0  0  0  0
   11.8193   -6.3246    4.6683 C   0  0  2  0  0  0  0  0  0  0  0  0
   11.3085   -7.5919    4.3139 O   0  0  0  0  0  0  0  0  0  0  0  0
   12.0017   -5.4230    3.3999 C   0  0  1  0  0  0  0  0  0  0  0  0
   10.7322   -5.2208    2.6599 N   0  3  0  0  0  0  0  0  0  0  0  0
   10.3212   -6.4690    1.9678 C   0  0  0  0  0  0  0  0  0  0  0  0
   12.5945   -4.0382    3.8335 C   0  0  2  0  0  0  0  0  0  0  0  0
   11.6970   -3.3872    4.7523 O   0  0  0  0  0  0  0  0  0  0  0  0
   12.7849   -3.1480    2.7028 C   0  0  0  0  0  0  0  0  0  0  0  0
   13.9324   -4.2475    4.6077 C   0  0  0  0  0  0  0  0  0  0  0  0
   13.7369   -5.2004    5.7490 O   0  0  0  0  0  0  0  0  0  0  0  0
  1  2  1  6  0  0  0
  1  3  1  0  0  0  0
  1 10  1  0  0  0  0
  3  4  1  6  0  0  0
  3  5  1  0  0  0  0
  5  6  1  1  0  0  0
  5  7  1  0  0  0  0
  7  8  1  6  0  0  0
  7  9  1  0  0  0  0
  9 10  1  1  0  0  0
  9 11  1  0  0  0  0
 11 12  1  6  0  0  0
 11 13  1  0  0  0  0
 14 15  1  6  0  0  0
 14 16  1  0  0  0  0
 14 22  1  0  0  0  0
 16 17  1  0  0  0  0
 17 18  1  6  0  0  0
 17 19  1  0  0  0  0
 19  2  1  1  0  0  0
 19 20  1  0  0  0  0
 20 21  1  6  0  0  0
 20 22  1  0  0  0  0
 22 23  1  1  0  0  0
 24 23  1  6  0  0  0
 24 25  1  0  0  0  0
 24 34  1  0  0  0  0
 25 26  1  6  0  0  0
 25 27  1  0  0  0  0
 27 28  1  1  0  0  0
 27 30  1  0  0  0  0
 28 29  1  0  0  0  0
 30 31  1  1  0  0  0
 30 32  1  0  0  0  0
 30 33  1  0  0  0  0
 33 34  1  0  0  0  0
M  CHG  4   4   1  15   1  18   1  28   1
M  END
>  <CHROM.1>
-145.99218572,69.64701319,163.19402575,-73.00128267,-57.03645663,171.33770948
178.68341352,55.82642751,-160.44780512,82.14088845,-113.55380735,-134.25774362
41.44821586,48.51545306,156.90434965,13.68706988,-8.00584395,6.82416470,-1.34217221
0.34778138,-0.99037490

>  <Name>
1mwl

>  <RI>
0

>  <Rbt.Current_Directory>
/home/itssahil/PROJECTS/Mol_Feturizer/New_Systems/rnas/1mwl

>  <Rbt.Executable>
rbdock ($Id: //depot/dev/client3/rdock/2013.1/src/exe/rbdock.cxx#4 $)

>  <Rbt.Library>
libRbt.so (2013.1, Build901 2013/11/27)

>  <Rbt.Parameter_File>
/export/apps/rDock/src/rDock_2013.1_src/data/scripts/dock_solv.prm

>  <Rbt.Receptor>
prm/blind_docking_40.prm

>  <SCORE>
-33.0767

>  <SCORE.INTER>
-32.302

>  <SCORE.INTER.CONST>
1

>  <SCORE.INTER.POLAR>
-4.38644

>  <SCORE.INTER.ROT>
6

>  <SCORE.INTER.SOLV>
27.3253

>  <SCORE.INTER.VDW>
-23.6217

>  <SCORE.INTER.norm>
-0.950059

>  <SCORE.INTRA>
-9.6964

>  <SCORE.INTRA.DIHEDRAL>
-15.1141

>  <SCORE.INTRA.DIHEDRAL.0>
42.0816

>  <SCORE.INTRA.POLAR>
-1.80237

>  <SCORE.INTRA.POLAR.0>
-0.254682

>  <SCORE.INTRA.REPUL>
0

>  <SCORE.INTRA.REPUL.0>
0

>  <SCORE.INTRA.SOLV>
2.35681

>  <SCORE.INTRA.SOLV.lig_0>
-109.803

>  <SCORE.INTRA.VDW>
2.81032

>  <SCORE.INTRA.VDW.0>
0.32176

>  <SCORE.INTRA.norm>
-0.285188

>  <SCORE.RESTR>
8.92171

>  <SCORE.RESTR.CAVITY>
8.92171

>  <SCORE.RESTR.norm>
0.262403

>  <SCORE.SYSTEM>
0

>  <SCORE.SYSTEM.CONST>
0

>  <SCORE.SYSTEM.DIHEDRAL>
0

>  <SCORE.SYSTEM.SOLV>
0

>  <SCORE.SYSTEM.norm>
0

>  <SCORE.heavy>
34

>  <SCORE.norm>
-0.972844

>  <RMSD>
31.998

$$$$
1mwl
 OpenBabel11021811403D
libRbt.so/2013.1/901 2013/11/27
 34 36  0  0  0  0  0  0  0  0999 V2000
   13.0550  -10.8147    8.7552 C   0  0  2  0  0  0  0  0  0  0  0  0
   13.9368   -9.7687    8.4777 O   0  0  0  0  0  0  0  0  0  0  0  0
   12.3143  -10.4611   10.0755 C   0  0  2  0  0  0  0  0  0  0  0  0
   11.5985   -9.1901    9.9286 N   0  3  0  0  0  0  0  0  0  0  0  0
   13.3121  -10.4185   11.2698 C   0  0  1  0  0  0  0  0  0  0  0  0
   12.6689  -10.1357   12.4302 O   0  0  0  0  0  0  0  0  0  0  0  0
   14.0413  -11.7997   11.3603 C   0  0  2  0  0  0  0  0  0  0  0  0
   14.9691  -11.7993   12.4655 O   0  0  0  0  0  0  0  0  0  0  0  0
   14.7766  -12.0590   10.0016 C   0  0  2  0  0  0  0  0  0  0  0  0
   13.8080  -12.0478    8.8831 O   0  0  0  0  0  0  0  0  0  0  0  0
   15.5250  -13.3945    9.9239 C   0  0  2  0  0  0  0  0  0  0  0  0
   15.2064  -14.1750   11.0297 O   0  0  0  0  0  0  0  0  0  0  0  0
   17.0573  -13.2440    9.9296 C   0  0  0  0  0  0  0  0  0  0  0  0
   15.2830   -7.4412    5.1566 C   0  0  2  0  0  0  0  0  0  0  0  0
   15.7618   -7.0774    3.7987 N   0  3  0  0  0  0  0  0  0  0  0  0
   16.3105   -8.3668    5.8732 C   0  0  0  0  0  0  0  0  0  0  0  0
   15.7860   -8.7608    7.3014 C   0  0  2  0  0  0  0  0  0  0  0  0
   16.8049   -9.6481    7.9731 N   0  3  0  0  0  0  0  0  0  0  0  0
   14.3968   -9.4734    7.1651 C   0  0  2  0  0  0  0  0  0  0  0  0
   13.3967   -8.5263    6.4580 C   0  0  2  0  0  0  0  0  0  0  0  0
   12.1640   -9.1888    6.3109 O   0  0  0  0  0  0  0  0  0  0  0  0
   13.9215   -8.1597    5.0440 C   0  0  1  0  0  0  0  0  0  0  0  0
   12.9888   -7.2939    4.4139 O   0  0  0  0  0  0  0  0  0  0  0  0
   12.2585   -6.4007    5.2086 C   0  0  2  0  0  0  0  0  0  0  0  0
   11.1925   -5.7472    4.3089 C   0  0  2  0  0  0  0  0  0  0  0  0
   10.3323   -6.7502    3.8122 O   0  0  0  0  0  0  0  0  0  0  0  0
   11.9046   -4.9926    3.1348 C   0  0  1  0  0  0  0  0  0  0  0  0
   10.9422   -4.3577    2.2017 N   0  3  0  0  0  0  0  0  0  0  0  0
   11.4346   -4.4362    0.8027 C   0  0  0  0  0  0  0  0  0  0  0  0
   12.8683   -3.9085    3.7291 C   0  0  2  0  0  0  0  0  0  0  0  0
   12.1175   -2.9629    4.5135 O   0  0  0  0  0  0  0  0  0  0  0  0
   13.5596   -3.1653    2.6913 C   0  0  0  0  0  0  0  0  0  0  0  0
   13.8850   -4.5743    4.7070 C   0  0  0  0  0  0  0  0  0  0  0  0
   13.1647   -5.3740    5.7512 O   0  0  0  0  0  0  0  0  0  0  0  0
  1  2  1  1  0  0  0
  1  3  1  0  0  0  0
  1 10  1  0  0  0  0
  3  4  1  6  0  0  0
  3  5  1  0  0  0  0
  5  6  1  1  0  0  0
  5  7  1  0  0  0  0
  7  8  1  1  0  0  0
  7  9  1  0  0  0  0
  9 10  1  6  0  0  0
  9 11  1  0  0  0  0
 11 12  1  1  0  0  0
 11 13  1  0  0  0  0
 14 15  1  6  0  0  0
 14 16  1  0  0  0  0
 14 22  1  0  0  0  0
 16 17  1  0  0  0  0
 17 18  1  6  0  0  0
 17 19  1  0  0  0  0
 19  2  1  1  0  0  0
 19 20  1  0  0  0  0
 20 21  1  6  0  0  0
 20 22  1  0  0  0  0
 22 23  1  1  0  0  0
 24 23  1  6  0  0  0
 24 25  1  0  0  0  0
 24 34  1  0  0  0  0
 25 26  1  6  0  0  0
 25 27  1  0  0  0  0
 27 28  1  6  0  0  0
 27 30  1  0  0  0  0
 28 29  1  0  0  0  0
 30 31  1  1  0  0  0
 30 32  1  0  0  0  0
 30 33  1  0  0  0  0
 33 34  1  0  0  0  0
M  CHG  4   4   1  15   1  18   1  28   1
M  END
>  <CHROM.1>
-155.39422715,-154.04984345,83.15790699,79.43548994,63.39707001,9.05131434
69.89314332,159.82835196,-55.14796190,-56.19572398,-87.54015109,-171.75804174
61.29399086,-23.60295530,-57.37332724,13.58936246,-8.41723644,6.93155298
1.34084934,-0.39372310,2.25574655

>  <Name>
1mwl

>  <RI>
0

>  <Rbt.Current_Directory>
/home/itssahil/PROJECTS/Mol_Feturizer/New_Systems/rnas/1mwl

>  <Rbt.Executable>
rbdock ($Id: //depot/dev/client3/rdock/2013.1/src/exe/rbdock.cxx#4 $)

>  <Rbt.Library>
libRbt.so (2013.1, Build901 2013/11/27)

>  <Rbt.Parameter_File>
/export/apps/rDock/src/rDock_2013.1_src/data/scripts/dock_solv.prm

>  <Rbt.Receptor>
prm/blind_docking_40.prm

>  <SCORE>
-36.9395

>  <SCORE.INTER>
-30.9993

>  <SCORE.INTER.CONST>
1

>  <SCORE.INTER.POLAR>
-3.58869

>  <SCORE.INTER.ROT>
6

>  <SCORE.INTER.SOLV>
26.2442

>  <SCORE.INTER.VDW>
-25.0519

>  <SCORE.INTER.norm>
-0.911743

>  <SCORE.INTRA>
-11.0111

>  <SCORE.INTRA.DIHEDRAL>
-21.1454

>  <SCORE.INTRA.DIHEDRAL.0>
42.0816

>  <SCORE.INTRA.POLAR>
0.12225

>  <SCORE.INTRA.POLAR.0>
-0.254682

>  <SCORE.INTRA.REPUL>
0.00420529

>  <SCORE.INTRA.REPUL.0>
0

>  <SCORE.INTRA.SOLV>
0.247288

>  <SCORE.INTRA.SOLV.lig_0>
-109.803

>  <SCORE.INTRA.VDW>
-0.99872

>  <SCORE.INTRA.VDW.0>
0.32176

>  <SCORE.INTRA.norm>
-0.323856

>  <SCORE.RESTR>
5.07085

>  <SCORE.RESTR.CAVITY>
5.07085

>  <SCORE.RESTR.norm>
0.149143

>  <SCORE.SYSTEM>
0

>  <SCORE.SYSTEM.CONST>
0

>  <SCORE.SYSTEM.DIHEDRAL>
0

>  <SCORE.SYSTEM.SOLV>
0

>  <SCORE.SYSTEM.norm>
0

>  <SCORE.heavy>
34

>  <SCORE.norm>
-1.08646

>  <RMSD>
32.059

$$$$
1mwl
 OpenBabel11021811403D
libRbt.so/2013.1/901 2013/11/27
 34 36  0  0  0  0  0  0  0  0999 V2000
   13.0919  -10.6213    8.5605 C   0  0  2  0  0  0  0  0  0  0  0  0
   13.9994   -9.5943    8.2949 O   0  0  0  0  0  0  0  0  0  0  0  0
   12.2903  -10.2174    9.8298 C   0  0  2  0  0  0  0  0  0  0  0  0
   11.5985   -8.9442    9.6066 N   0  3  0  0  0  0  0  0  0  0  0  0
   13.2272  -10.1469   11.0710 C   0  0  1  0  0  0  0  0  0  0  0  0
   12.5301   -9.8199   12.1878 O   0  0  0  0  0  0  0  0  0  0  0  0
   13.9339  -11.5321   11.2421 C   0  0  2  0  0  0  0  0  0  0  0  0
   14.8049  -11.5060   12.3922 O   0  0  0  0  0  0  0  0  0  0  0  0
   14.7333  -11.8430    9.9313 C   0  0  2  0  0  0  0  0  0  0  0  0
   13.8223  -11.8576    8.7654 O   0  0  0  0  0  0  0  0  0  0  0  0
   15.4682  -13.1883    9.9339 C   0  0  2  0  0  0  0  0  0  0  0  0
   16.4049  -13.2123    8.9067 O   0  0  0  0  0  0  0  0  0  0  0  0
   14.5429  -14.3968    9.7019 C   0  0  0  0  0  0  0  0  0  0  0  0
   15.4674   -7.3033    5.0002 C   0  0  2  0  0  0  0  0  0  0  0  0
   15.9745   -6.9513    3.6495 N   0  3  0  0  0  0  0  0  0  0  0  0
   16.4520   -8.2694    5.7235 C   0  0  0  0  0  0  0  0  0  0  0  0
   15.8975   -8.6502    7.1439 C   0  0  2  0  0  0  0  0  0  0  0  0
   16.8754   -9.5775    7.8225 N   0  3  0  0  0  0  0  0  0  0  0  0
   14.4845   -9.3103    6.9889 C   0  0  2  0  0  0  0  0  0  0  0  0
   13.5280   -8.3237    6.2755 C   0  0  2  0  0  0  0  0  0  0  0  0
   12.2734   -8.9396    6.1117 O   0  0  0  0  0  0  0  0  0  0  0  0
   14.0817   -7.9705    4.8692 C   0  0  1  0  0  0  0  0  0  0  0  0
   13.1887   -7.0680    4.2331 O   0  0  0  0  0  0  0  0  0  0  0  0
   12.4103   -6.2192    5.0308 C   0  0  2  0  0  0  0  0  0  0  0  0
   11.3051   -5.6284    4.1351 C   0  0  2  0  0  0  0  0  0  0  0  0
   10.5032   -6.6794    3.6403 O   0  0  0  0  0  0  0  0  0  0  0  0
   11.9684   -4.8329    2.9594 C   0  0  1  0  0  0  0  0  0  0  0  0
   10.9676   -4.2544    2.0298 N   0  3  0  0  0  0  0  0  0  0  0  0
   11.5014   -4.2055    0.6447 C   0  0  0  0  0  0  0  0  0  0  0  0
   12.8692   -3.6949    3.5514 C   0  0  2  0  0  0  0  0  0  0  0  0
   12.0672   -2.7950    4.3390 O   0  0  0  0  0  0  0  0  0  0  0  0
   13.5127   -2.9120    2.5120 C   0  0  0  0  0  0  0  0  0  0  0  0
   13.9261   -4.3010    4.5255 C   0  0  0  0  0  0  0  0  0  0  0  0
   13.2569   -5.1419    5.5714 O   0  0  0  0  0  0  0  0  0  0  0  0
  1  2  1  1  0  0  0
  1  3  1  0  0  0  0
  1 10  1  0  0  0  0
  3  4  1  6  0  0  0
  3  5  1  0  0  0  0
  5  6  1  1  0  0  0
  5  7  1  0  0  0  0
  7  8  1  1  0  0  0
  7  9  1  0  0  0  0
  9 10  1  6  0  0  0
  9 11  1  0  0  0  0
 11 12  1  6  0  0  0
 11 13  1  0  0  0  0
 14 15  1  6  0  0  0
 14 16  1  0  0  0  0
 14 22  1  0  0  0  0
 16 17  1  0  0  0  0
 17 18  1  6  0  0  0
 17 19  1  0  0  0  0
 19  2  1  1  0  0  0
 19 20  1  0  0  0  0
 20 21  1  6  0  0  0
 20 22  1  0  0  0  0
 22 23  1  1  0  0  0
 24 23  1  6  0  0  0
 24 25  1  0  0  0  0
 24 34  1  0  0  0  0
 25 26  1  6  0  0  0
 25 27  1  0  0  0  0
 27 28  1  6  0  0  0
 27 30  1  0  0  0  0
 28 29  1  0  0  0  0
 30 31  1  1  0  0  0
 30 32  1  0  0  0  0
 30 33  1  0  0  0  0
 33 34  1  0  0  0  0
M  CHG  4   4   1  15   1  18   1  28   1
M  END
>  <CHROM.1>
-152.63016637,-153.05235655,-165.64094313,-173.32721359,-178.33803918,-164.58109643
170.38744519,37.57713512,-48.60149201,68.17284305,-92.17290280,-165.80434071
-68.74294676,-28.04454866,66.28108103,13.60783782,-8.23987981,6.69715884
1.35115848,-0.48569669,2.25637896

>  <Name>
1mwl

>  <RI>
0

>  <Rbt.Current_Directory>
/home/itssahil/PROJECTS/Mol_Feturizer/New_Systems/rnas/1mwl

>  <Rbt.Executable>
rbdock ($Id: //depot/dev/client3/rdock/2013.1/src/exe/rbdock.cxx#4 $)

>  <Rbt.Library>
libRbt.so (2013.1, Build901 2013/11/27)

>  <Rbt.Parameter_File>
/export/apps/rDock/src/rDock_2013.1_src/data/scripts/dock_solv.prm

>  <Rbt.Receptor>
prm/blind_docking_40.prm

>  <SCORE>
-34.7798

>  <SCORE.INTER>
-27.6071

>  <SCORE.INTER.CONST>
1

>  <SCORE.INTER.POLAR>
-3.15333

>  <SCORE.INTER.ROT>
6

>  <SCORE.INTER.SOLV>
25.1759

>  <SCORE.INTER.VDW>
-23.8856

>  <SCORE.INTER.norm>
-0.811974

>  <SCORE.INTRA>
-12.6928

>  <SCORE.INTRA.DIHEDRAL>
-24.5463

>  <SCORE.INTRA.DIHEDRAL.0>
42.0816

>  <SCORE.INTRA.POLAR>
0.134815

>  <SCORE.INTRA.POLAR.0>
-0.254682

>  <SCORE.INTRA.REPUL>
0

>  <SCORE.INTRA.REPUL.0>
0

>  <SCORE.INTRA.SOLV>
-0.669594

>  <SCORE.INTRA.SOLV.lig_0>
-109.803

>  <SCORE.INTRA.VDW>
-0.543184

>  <SCORE.INTRA.VDW.0>
0.32176

>  <SCORE.INTRA.norm>
-0.373317

>  <SCORE.RESTR>
5.52008

>  <SCORE.RESTR.CAVITY>
5.52008

>  <SCORE.RESTR.norm>
0.162355

>  <SCORE.SYSTEM>
0

>  <SCORE.SYSTEM.CONST>
0

>  <SCORE.SYSTEM.DIHEDRAL>
0

>  <SCORE.SYSTEM.SOLV>
0

>  <SCORE.SYSTEM.norm>
0

>  <SCORE.heavy>
34

>  <SCORE.norm>
-1.02294

>  <RMSD>
32.075

$$$$
1mwl
 OpenBabel11021811403D
libRbt.so/2013.1/901 2013/11/27
 34 36  0  0  0  0  0  0  0  0999 V2000
   12.9087  -10.7489    8.4763 C   0  0  2  0  0  0  0  0  0  0  0  0
   14.0299   -9.9411    8.2791 O   0  0  0  0  0  0  0  0  0  0  0  0
   12.1498  -10.1973    9.7160 C   0  0  2  0  0  0  0  0  0  0  0  0
   11.7633   -8.8009    9.4917 N   0  3  0  0  0  0  0  0  0  0  0  0
   13.0147  -10.3498   11.0013 C   0  0  1  0  0  0  0  0  0  0  0  0
   12.3489   -9.8939   12.0917 O   0  0  0  0  0  0  0  0  0  0  0  0
   13.3940  -11.8580   11.1715 C   0  0  2  0  0  0  0  0  0  0  0  0
   14.1898  -12.0381   12.3617 O   0  0  0  0  0  0  0  0  0  0  0  0
   14.1730  -12.3178    9.8926 C   0  0  2  0  0  0  0  0  0  0  0  0
   13.3417  -12.1175    8.6850 O   0  0  0  0  0  0  0  0  0  0  0  0
   14.5971  -13.7909    9.8969 C   0  0  2  0  0  0  0  0  0  0  0  0
   14.8726  -14.1952   11.1985 O   0  0  0  0  0  0  0  0  0  0  0  0
   15.8727  -14.0677    9.0804 C   0  0  0  0  0  0  0  0  0  0  0  0
   15.4118   -7.4723    5.0768 C   0  0  2  0  0  0  0  0  0  0  0  0
   15.9130   -7.0511    3.7438 N   0  3  0  0  0  0  0  0  0  0  0  0
   16.4367   -8.4118    5.7788 C   0  0  0  0  0  0  0  0  0  0  0  0
   15.8889   -8.8664    7.1800 C   0  0  2  0  0  0  0  0  0  0  0  0
   16.9056   -9.7661    7.8385 N   0  3  0  0  0  0  0  0  0  0  0  0
   14.5121   -9.5903    6.9883 C   0  0  2  0  0  0  0  0  0  0  0  0
   13.5141   -8.6293    6.2972 C   0  0  2  0  0  0  0  0  0  0  0  0
   12.2934   -9.3009    6.0998 O   0  0  0  0  0  0  0  0  0  0  0  0
   14.0624   -8.2027    4.9091 C   0  0  1  0  0  0  0  0  0  0  0  0
   13.1313   -7.3251    4.2932 O   0  0  0  0  0  0  0  0  0  0  0  0
   12.3571   -6.4883    5.1075 C   0  0  2  0  0  0  0  0  0  0  0  0
   11.2723   -5.8525    4.2176 C   0  0  2  0  0  0  0  0  0  0  0  0
   10.4596   -6.8748    3.6819 O   0  0  0  0  0  0  0  0  0  0  0  0
   11.9622   -5.0327    3.0744 C   0  0  1  0  0  0  0  0  0  0  0  0
   10.9820   -4.4100    2.1515 N   0  3  0  0  0  0  0  0  0  0  0  0
   11.5146   -4.3702    0.7656 C   0  0  0  0  0  0  0  0  0  0  0  0
   12.8740   -3.9281    3.7111 C   0  0  2  0  0  0  0  0  0  0  0  0
   12.0772   -3.0395    4.5166 O   0  0  0  0  0  0  0  0  0  0  0  0
   13.5423   -3.1247    2.7035 C   0  0  0  0  0  0  0  0  0  0  0  0
   13.9093   -4.5807    4.6783 C   0  0  0  0  0  0  0  0  0  0  0  0
   13.2143   -5.4418    5.6903 O   0  0  0  0  0  0  0  0  0  0  0  0
  1  2  1  1  0  0  0
  1  3  1  0  0  0  0
  1 10  1  0  0  0  0
  3  4  1  6  0  0  0
  3  5  1  0  0  0  0
  5  6  1  1  0  0  0
  5  7  1  0  0  0  0
  7  8  1  1  0  0  0
  7  9  1  0  0  0  0
  9 10  1  6  0  0  0
  9 11  1  0  0  0  0
 11 12  1  1  0  0  0
 11 13  1  0  0  0  0
 14 15  1  6  0  0  0
 14 16  1  0  0  0  0
 14 22  1  0  0  0  0
 16 17  1  0  0  0  0
 17 18  1  6  0  0  0
 17 19  1  0  0  0  0
 19  2  1  1  0  0  0
 19 20  1  0  0  0  0
 20 21  1  6  0  0  0
 20 22  1  0  0  0  0
 22 23  1  1  0  0  0
 24 23  1  6  0  0  0
 24 25  1  0  0  0  0
 24 34  1  0  0  0  0
 25 26  1  6  0  0  0
 25 27  1  0  0  0  0
 27 28  1  6  0  0  0
 27 30  1  0  0  0  0
 28 29  1  0  0  0  0
 30 31  1  1  0  0  0
 30 32  1  0  0  0  0
 30 33  1  0  0  0  0
 33 34  1  0  0  0  0
M  CHG  4   4   1  15   1  18   1  28   1
M  END
>  <CHROM.1>
-142.94374535,-171.66618904,-157.32301981,-171.29992172,167.43899888,-32.58499382
-65.65301695,-78.84111071,64.26045562,-57.37077861,-88.62995950,-169.66001143
-54.01716551,-26.10468584,160.64128093,13.49005158,-8.47801965,6.78330052
1.39067111,-0.46609373,2.28646294

>  <Name>
1mwl

>  <RI>
0

>  <Rbt.Current_Directory>
/home/itssahil/PROJECTS/Mol_Feturizer/New_Systems/rnas/1mwl

>  <Rbt.Executable>
rbdock ($Id: //depot/dev/client3/rdock/2013.1/src/exe/rbdock.cxx#4 $)

>  <Rbt.Library>
libRbt.so (2013.1, Build901 2013/11/27)

>  <Rbt.Parameter_File>
/export/apps/rDock/src/rDock_2013.1_src/data/scripts/dock_solv.prm

>  <Rbt.Receptor>
prm/blind_docking_40.prm

>  <SCORE>
-41.8944

>  <SCORE.INTER>
-36.0677

>  <SCORE.INTER.CONST>
1

>  <SCORE.INTER.POLAR>
-4.61164

>  <SCORE.INTER.ROT>
6

>  <SCORE.INTER.SOLV>
24.8933

>  <SCORE.INTER.VDW>
-24.5708

>  <SCORE.INTER.norm>
-1.06082

>  <SCORE.INTRA>
-12.1084

>  <SCORE.INTRA.DIHEDRAL>
-23.4149

>  <SCORE.INTRA.DIHEDRAL.0>
42.0816

>  <SCORE.INTRA.POLAR>
-0.0851959

>  <SCORE.INTRA.POLAR.0>
-0.254682

>  <SCORE.INTRA.REPUL>
0

>  <SCORE.INTRA.REPUL.0>
0

>  <SCORE.INTRA.SOLV>
-1.08188

>  <SCORE.INTRA.SOLV.lig_0>
-109.803

>  <SCORE.INTRA.VDW>
0.429668

>  <SCORE.INTRA.VDW.0>
0.32176

>  <SCORE.INTRA.norm>
-0.356129

>  <SCORE.RESTR>
6.28175

>  <SCORE.RESTR.CAVITY>
6.28175

>  <SCORE.RESTR.norm>
0.184757

>  <SCORE.SYSTEM>
0

>  <SCORE.SYSTEM.CONST>
0

>  <SCORE.SYSTEM.DIHEDRAL>
0

>  <SCORE.SYSTEM.SOLV>
0

>  <SCORE.SYSTEM.norm>
0

>  <SCORE.heavy>
34

>  <SCORE.norm>
-1.23219

>  <RMSD>
32.086

$$$$
1mwl
 OpenBabel11021811403D
libRbt.so/2013.1/901 2013/11/27
 34 36  0  0  0  0  0  0  0  0999 V2000
   15.6759  -10.5799    9.2754 C   0  0  2  0  0  0  0  0  0  0  0  0
   14.4886  -10.4268    8.5575 O   0  0  0  0  0  0  0  0  0  0  0  0
   16.4881  -11.7174    8.5946 C   0  0  2  0  0  0  0  0  0  0  0  0
   16.7565  -11.3779    7.1938 N   0  3  0  0  0  0  0  0  0  0  0  0
   15.7387  -13.0763    8.7181 C   0  0  1  0  0  0  0  0  0  0  0  0
   16.4535  -14.0787    8.1485 O   0  0  0  0  0  0  0  0  0  0  0  0
   15.4811  -13.3681   10.2333 C   0  0  2  0  0  0  0  0  0  0  0  0
   14.7950  -14.6284   10.3861 O   0  0  0  0  0  0  0  0  0  0  0  0
   14.6394  -12.1877   10.8267 C   0  0  2  0  0  0  0  0  0  0  0  0
   15.3581  -10.9061   10.6526 O   0  0  0  0  0  0  0  0  0  0  0  0
   14.3219  -12.3161   12.3209 C   0  0  2  0  0  0  0  0  0  0  0  0
   13.5249  -13.4349   12.5358 O   0  0  0  0  0  0  0  0  0  0  0  0
   13.5437  -11.1163   12.8912 C   0  0  0  0  0  0  0  0  0  0  0  0
   11.2973   -7.7135    7.7131 C   0  0  2  0  0  0  0  0  0  0  0  0
   10.3960   -6.5361    7.7958 N   0  3  0  0  0  0  0  0  0  0  0  0
   11.2207   -8.5584    9.0193 C   0  0  0  0  0  0  0  0  0  0  0  0
   12.1914   -9.7912    8.9290 C   0  0  2  0  0  0  0  0  0  0  0  0
   12.0883  -10.5941   10.2023 N   0  3  0  0  0  0  0  0  0  0  0  0
   13.6531   -9.2829    8.6808 C   0  0  2  0  0  0  0  0  0  0  0  0
   13.6980   -8.4553    7.3731 C   0  0  2  0  0  0  0  0  0  0  0  0
   15.0068   -7.9762    7.1788 O   0  0  0  0  0  0  0  0  0  0  0  0
   12.7466   -7.2339    7.4847 C   0  0  1  0  0  0  0  0  0  0  0  0
   12.8057   -6.4890    6.2772 O   0  0  0  0  0  0  0  0  0  0  0  0
   13.6336   -6.9482    5.2446 C   0  0  2  0  0  0  0  0  0  0  0  0
   13.7680   -5.8073    4.2183 C   0  0  2  0  0  0  0  0  0  0  0  0
   14.3672   -4.6934    4.8448 O   0  0  0  0  0  0  0  0  0  0  0  0
   12.3468   -5.4404    3.6701 C   0  0  1  0  0  0  0  0  0  0  0  0
   12.3859   -4.3247    2.6935 N   0  3  0  0  0  0  0  0  0  0  0  0
   12.3370   -3.0133    3.3892 C   0  0  0  0  0  0  0  0  0  0  0  0
   11.7071   -6.7089    3.0078 C   0  0  2  0  0  0  0  0  0  0  0  0
   12.5326   -7.1617    1.9183 O   0  0  0  0  0  0  0  0  0  0  0  0
   10.3857   -6.4370    2.4720 C   0  0  0  0  0  0  0  0  0  0  0  0
   11.6601   -7.8825    4.0342 C   0  0  0  0  0  0  0  0  0  0  0  0
   13.0208   -8.1299    4.6139 O   0  0  0  0  0  0  0  0  0  0  0  0
  1  2  1  6  0  0  0
  1  3  1  0  0  0  0
  1 10  1  0  0  0  0
  3  4  1  6  0  0  0
  3  5  1  0  0  0  0
  5  6  1  1  0  0  0
  5  7  1  0  0  0  0
  7  8  1  6  0  0  0
  7  9  1  0  0  0  0
  9 10  1  1  0  0  0
  9 11  1  0  0  0  0
 11 12  1  6  0  0  0
 11 13  1  0  0  0  0
 14 15  1  1  0  0  0
 14 16  1  0  0  0  0
 14 22  1  0  0  0  0
 16 17  1  0  0  0  0
 17 18  1  1  0  0  0
 17 19  1  0  0  0  0
 19  2  1  6  0  0  0
 19 20  1  0  0  0  0
 20 21  1  1  0  0  0
 20 22  1  0  0  0  0
 22 23  1  6  0  0  0
 24 23  1  1  0  0  0
 24 25  1  0  0  0  0
 24 34  1  0  0  0  0
 25 26  1  1  0  0  0
 25 27  1  0  0  0  0
 27 28  1  6  0  0  0
 27 30  1  0  0  0  0
 28 29  1  0  0  0  0
 30 31  1  6  0  0  0
 30 32  1  0  0  0  0
 30 33  1  0  0  0  0
 33 34  1  0  0  0  0
M  CHG  4   4   1  15   1  18   1  28   1
M  END
>  <CHROM.1>
-164.24646029,-129.82735197,-54.60360361,63.00190789,-59.10548380,-63.60601827
-58.06024492,45.88826144,170.88538002,-62.03389552,-119.23552844,-166.74909860
-70.87955500,34.18316360,40.52479453,13.55462317,-9.08196435,7.38169462,-1.22976515
0.72971037,-1.00743600

>  <Name>
1mwl

>  <RI>
0

>  <Rbt.Current_Directory>
/home/itssahil/PROJECTS/Mol_Feturizer/New_Systems/rnas/1mwl

>  <Rbt.Executable>
rbdock ($Id: //depot/dev/client3/rdock/2013.1/src/exe/rbdock.cxx#4 $)

>  <Rbt.Library>
libRbt.so (2013.1, Build901 2013/11/27)

>  <Rbt.Parameter_File>
/export/apps/rDock/src/rDock_2013.1_src/data/scripts/dock_solv.prm

>  <Rbt.Receptor>
prm/blind_docking_40.prm

>  <SCORE>
-19.5737

>  <SCORE.INTER>
-19.1269

>  <SCORE.INTER.CONST>
1

>  <SCORE.INTER.POLAR>
-1.84656

>  <SCORE.INTER.ROT>
6

>  <SCORE.INTER.SOLV>
21.82

>  <SCORE.INTER.VDW>
-21.4694

>  <SCORE.INTER.norm>
-0.562556

>  <SCORE.INTRA>
-5.9536

>  <SCORE.INTRA.DIHEDRAL>
-21.6914

>  <SCORE.INTRA.DIHEDRAL.0>
42.0816

>  <SCORE.INTRA.POLAR>
0.202509

>  <SCORE.INTRA.POLAR.0>
-0.254682

>  <SCORE.INTRA.REPUL>
0

>  <SCORE.INTRA.REPUL.0>
0

>  <SCORE.INTRA.SOLV>
1.66553

>  <SCORE.INTRA.SOLV.lig_0>
-109.803

>  <SCORE.INTRA.VDW>
3.37079

>  <SCORE.INTRA.VDW.0>
0.32176

>  <SCORE.INTRA.norm>
-0.175106

>  <SCORE.RESTR>
5.50677

>  <SCORE.RESTR.CAVITY>
5.50677

>  <SCORE.RESTR.norm>
0.161964

>  <SCORE.SYSTEM>
0

>  <SCORE.SYSTEM.CONST>
0

>  <SCORE.SYSTEM.DIHEDRAL>
0

>  <SCORE.SYSTEM.SOLV>
0

>  <SCORE.SYSTEM.norm>
0

>  <SCORE.heavy>
34

>  <SCORE.norm>
-0.575698

>  <RMSD>
32.086

$$$$
1mwl
 OpenBabel11021811403D
libRbt.so/2013.1/901 2013/11/27
 34 36  0  0  0  0  0  0  0  0999 V2000
   13.2303  -10.8395    8.7029 C   0  0  2  0  0  0  0  0  0  0  0  0
   13.9978   -9.7116    8.4071 O   0  0  0  0  0  0  0  0  0  0  0  0
   12.4013  -10.5169    9.9779 C   0  0  2  0  0  0  0  0  0  0  0  0
   11.5519   -9.3447    9.7453 N   0  3  0  0  0  0  0  0  0  0  0  0
   13.3384  -10.3074   11.2032 C   0  0  1  0  0  0  0  0  0  0  0  0
   12.6207  -10.0507   12.3254 O   0  0  0  0  0  0  0  0  0  0  0  0
   14.2159  -11.5897   11.3854 C   0  0  2  0  0  0  0  0  0  0  0  0
   15.0920  -11.4340   12.5213 O   0  0  0  0  0  0  0  0  0  0  0  0
   15.0304  -11.8210   10.0674 C   0  0  2  0  0  0  0  0  0  0  0  0
   14.1130  -11.9705    8.9161 O   0  0  0  0  0  0  0  0  0  0  0  0
   15.9286  -13.0632   10.0801 C   0  0  2  0  0  0  0  0  0  0  0  0
   16.6627  -13.1224    8.9007 O   0  0  0  0  0  0  0  0  0  0  0  0
   15.1484  -14.3874   10.1693 C   0  0  0  0  0  0  0  0  0  0  0  0
   15.3477   -7.3788    5.0912 C   0  0  2  0  0  0  0  0  0  0  0  0
   15.8300   -7.0131    3.7350 N   0  3  0  0  0  0  0  0  0  0  0  0
   16.3757   -8.3014    5.8109 C   0  0  0  0  0  0  0  0  0  0  0  0
   15.8477   -8.6976    7.2372 C   0  0  2  0  0  0  0  0  0  0  0  0
   16.8671   -9.5819    7.9121 N   0  3  0  0  0  0  0  0  0  0  0  0
   14.4612   -9.4144    7.0961 C   0  0  2  0  0  0  0  0  0  0  0  0
   13.4605   -8.4702    6.3860 C   0  0  2  0  0  0  0  0  0  0  0  0
   12.2304   -9.1365    6.2345 O   0  0  0  0  0  0  0  0  0  0  0  0
   13.9889   -8.1016    4.9738 C   0  0  1  0  0  0  0  0  0  0  0  0
   13.0556   -7.2385    4.3409 O   0  0  0  0  0  0  0  0  0  0  0  0
   12.3249   -6.3430    5.1326 C   0  0  2  0  0  0  0  0  0  0  0  0
   11.3046   -5.6422    4.2157 C   0  0  2  0  0  0  0  0  0  0  0  0
   10.4341   -6.6109    3.6712 O   0  0  0  0  0  0  0  0  0  0  0  0
   12.0722   -4.8822    3.0806 C   0  0  1  0  0  0  0  0  0  0  0  0
   11.1560   -4.2019    2.1331 N   0  3  0  0  0  0  0  0  0  0  0  0
   10.4043   -5.1940    1.3226 C   0  0  0  0  0  0  0  0  0  0  0  0
   13.0452   -3.8373    3.7275 C   0  0  2  0  0  0  0  0  0  0  0  0
   12.2956   -2.8886    4.5095 O   0  0  0  0  0  0  0  0  0  0  0  0
   13.7874   -3.0910    2.7277 C   0  0  0  0  0  0  0  0  0  0  0  0
   14.0134   -4.5508    4.7208 C   0  0  0  0  0  0  0  0  0  0  0  0
   13.2405   -5.3528    5.7249 O   0  0  0  0  0  0  0  0  0  0  0  0
  1  2  1  1  0  0  0
  1  3  1  0  0  0  0
  1 10  1  0  0  0  0
  3  4  1  6  0  0  0
  3  5  1  0  0  0  0
  5  6  1  1  0  0  0
  5  7  1  0  0  0  0
  7  8  1  1  0  0  0
  7  9  1  0  0  0  0
  9 10  1  6  0  0  0
  9 11  1  0  0  0  0
 11 12  1  6  0  0  0
 11 13  1  0  0  0  0
 14 15  1  6  0  0  0
 14 16  1  0  0  0  0
 14 22  1  0  0  0  0
 16 17  1  0  0  0  0
 17 18  1  6  0  0  0
 17 19  1  0  0  0  0
 19  2  1  1  0  0  0
 19 20  1  0  0  0  0
 20 21  1  6  0  0  0
 20 22  1  0  0  0  0
 22 23  1  1  0  0  0
 24 23  1  6  0  0  0
 24 25  1  0  0  0  0
 24 34  1  0  0  0  0
 25 26  1  6  0  0  0
 25 27  1  0  0  0  0
 27 28  1  6  0  0  0
 27 30  1  0  0  0  0
 28 29  1  0  0  0  0
 30 31  1  1  0  0  0
 30 32  1  0  0  0  0
 30 33  1  0  0  0  0
 33 34  1  0  0  0  0
M  CHG  4   4   1  15   1  18   1  28   1
M  END
>  <CHROM.1>
-154.66045464,-147.26009632,-48.41051555,-173.55238150,64.47633602,-176.28991139
-50.75374722,161.76439876,66.94891732,-54.74592352,-87.21690791,-174.50937229
-55.14943242,51.19953922,62.71377038,13.66087412,-8.35918899,6.84020460,1.32765871
-0.40431028,2.25381683

>  <Name>
1mwl

>  <RI>
0

>  <Rbt.Current_Directory>
/home/itssahil/PROJECTS/Mol_Feturizer/New_Systems/rnas/1mwl

>  <Rbt.Executable>
rbdock ($Id: //depot/dev/client3/rdock/2013.1/src/exe/rbdock.cxx#4 $)

>  <Rbt.Library>
libRbt.so (2013.1, Build901 2013/11/27)

>  <Rbt.Parameter_File>
/export/apps/rDock/src/rDock_2013.1_src/data/scripts/dock_solv.prm

>  <Rbt.Receptor>
prm/blind_docking_40.prm

>  <SCORE>
-34.4817

>  <SCORE.INTER>
-24.6687

>  <SCORE.INTER.CONST>
1

>  <SCORE.INTER.POLAR>
-2.47585

>  <SCORE.INTER.ROT>
6

>  <SCORE.INTER.SOLV>
23.2953

>  <SCORE.INTER.VDW>
-23.558

>  <SCORE.INTER.norm>
-0.725549

>  <SCORE.INTRA>
-14.8303

>  <SCORE.INTRA.DIHEDRAL>
-29.4523

>  <SCORE.INTRA.DIHEDRAL.0>
42.0816

>  <SCORE.INTRA.POLAR>
0.094463

>  <SCORE.INTRA.POLAR.0>
-0.254682

>  <SCORE.INTRA.REPUL>
0

>  <SCORE.INTRA.REPUL.0>
0

>  <SCORE.INTRA.SOLV>
0.133934

>  <SCORE.INTRA.SOLV.lig_0>
-109.803

>  <SCORE.INTRA.VDW>
-0.492315

>  <SCORE.INTRA.VDW.0>
0.32176

>  <SCORE.INTRA.norm>
-0.436186

>  <SCORE.RESTR>
5.0173

>  <SCORE.RESTR.CAVITY>
5.0173

>  <SCORE.RESTR.norm>
0.147568

>  <SCORE.SYSTEM>
0

>  <SCORE.SYSTEM.CONST>
0

>  <SCORE.SYSTEM.DIHEDRAL>
0

>  <SCORE.SYSTEM.SOLV>
0

>  <SCORE.SYSTEM.norm>
0

>  <SCORE.heavy>
34

>  <SCORE.norm>
-1.01417

>  <RMSD>
32.105

$$$$
1mwl
 OpenBabel11021811403D
libRbt.so/2013.1/901 2013/11/27
 34 36  0  0  0  0  0  0  0  0999 V2000
   13.2109  -10.7853    8.6889 C   0  0  2  0  0  0  0  0  0  0  0  0
   13.9924   -9.6667    8.3945 O   0  0  0  0  0  0  0  0  0  0  0  0
   12.3854  -10.4538    9.9639 C   0  0  2  0  0  0  0  0  0  0  0  0
   11.5507   -9.2710    9.7322 N   0  3  0  0  0  0  0  0  0  0  0  0
   13.3246  -10.2572   11.1898 C   0  0  1  0  0  0  0  0  0  0  0  0
   12.6097   -9.9928   12.3119 O   0  0  0  0  0  0  0  0  0  0  0  0
   14.1861  -11.5505   11.3709 C   0  0  2  0  0  0  0  0  0  0  0  0
   15.0636  -11.4068   12.5074 O   0  0  0  0  0  0  0  0  0  0  0  0
   14.9982  -11.7905   10.0531 C   0  0  2  0  0  0  0  0  0  0  0  0
   14.0795  -11.9274    8.9013 O   0  0  0  0  0  0  0  0  0  0  0  0
   15.8809  -13.0437   10.0648 C   0  0  2  0  0  0  0  0  0  0  0  0
   16.6419  -13.0914    8.9020 O   0  0  0  0  0  0  0  0  0  0  0  0
   15.0831  -14.3595   10.1122 C   0  0  0  0  0  0  0  0  0  0  0  0
   15.4346   -7.3792    5.0860 C   0  0  2  0  0  0  0  0  0  0  0  0
   15.9415   -7.0302    3.7344 N   0  3  0  0  0  0  0  0  0  0  0  0
   16.4329   -8.3214    5.8221 C   0  0  0  0  0  0  0  0  0  0  0  0
   15.8787   -8.6993    7.2434 C   0  0  2  0  0  0  0  0  0  0  0  0
   16.8697   -9.6032    7.9345 N   0  3  0  0  0  0  0  0  0  0  0  0
   14.4783   -9.3857    7.0882 C   0  0  2  0  0  0  0  0  0  0  0  0
   13.5078   -8.4225    6.3619 C   0  0  2  0  0  0  0  0  0  0  0  0
   12.2650   -9.0618    6.1980 O   0  0  0  0  0  0  0  0  0  0  0  0
   14.0615   -8.0719    4.9548 C   0  0  1  0  0  0  0  0  0  0  0  0
   13.1556   -7.1910    4.3069 O   0  0  0  0  0  0  0  0  0  0  0  0
   12.3741   -6.3340    5.0927 C   0  0  2  0  0  0  0  0  0  0  0  0
   11.3409   -5.6691    4.1636 C   0  0  2  0  0  0  0  0  0  0  0  0
   10.5217   -6.6690    3.5964 O   0  0  0  0  0  0  0  0  0  0  0  0
   12.0948   -4.8677    3.0482 C   0  0  1  0  0  0  0  0  0  0  0  0
   11.1670   -4.2187    2.0901 N   0  3  0  0  0  0  0  0  0  0  0  0
   10.4601   -5.2354    1.2700 C   0  0  0  0  0  0  0  0  0  0  0  0
   13.0114   -3.7882    3.7201 C   0  0  2  0  0  0  0  0  0  0  0  0
   12.2090   -2.8788    4.4964 O   0  0  0  0  0  0  0  0  0  0  0  0
   13.7383   -3.0026    2.7394 C   0  0  0  0  0  0  0  0  0  0  0  0
   13.9918   -4.4686    4.7246 C   0  0  0  0  0  0  0  0  0  0  0  0
   13.2366   -5.3112    5.7087 O   0  0  0  0  0  0  0  0  0  0  0  0
  1  2  1  1  0  0  0
  1  3  1  0  0  0  0
  1 10  1  0  0  0  0
  3  4  1  6  0  0  0
  3  5  1  0  0  0  0
  5  6  1  1  0  0  0
  5  7  1  0  0  0  0
  7  8  1  1  0  0  0
  7  9  1  0  0  0  0
  9 10  1  6  0  0  0
  9 11  1  0  0  0  0
 11 12  1  6  0  0  0
 11 13  1  0  0  0  0
 14 15  1  6  0  0  0
 14 16  1  0  0  0  0
 14 22  1  0  0  0  0
 16 17  1  0  0  0  0
 17 18  1  6  0  0  0
 17 19  1  0  0  0  0
 19  2  1  1  0  0  0
 19 20  1  0  0  0  0
 20 21  1  6  0  0  0
 20 22  1  0  0  0  0
 22 23  1  1  0  0  0
 24 23  1  6  0  0  0
 24 25  1  0  0  0  0
 24 34  1  0  0  0  0
 25 26  1  6  0  0  0
 25 27  1  0  0  0  0
 27 28  1  6  0  0  0
 27 30  1  0  0  0  0
 28 29  1  0  0  0  0
 30 31  1  1  0  0  0
 30 32  1  0  0  0  0
 30 33  1  0  0  0  0
 33 34  1  0  0  0  0
M  CHG  4   4   1  15   1  18   1  28   1
M  END
>  <CHROM.1>
-155.72721147,-146.39425550,75.08409231,-69.66660131,68.21236794,-174.66123520
67.96024241,160.89145624,65.55726214,-55.65189442,-91.16767223,-171.09216418
62.79284875,51.87456103,158.97978546,13.67023636,-8.32856840,6.82434744,1.32993877
-0.41077916,2.25227604

>  <Name>
1mwl

>  <RI>
0

>  <Rbt.Current_Directory>
/home/itssahil/PROJECTS/Mol_Feturizer/New_Systems/rnas/1mwl

>  <Rbt.Executable>
rbdock ($Id: //depot/dev/client3/rdock/2013.1/src/exe/rbdock.cxx#4 $)

>  <Rbt.Library>
libRbt.so (2013.1, Build901 2013/11/27)

>  <Rbt.Parameter_File>
/export/apps/rDock/src/rDock_2013.1_src/data/scripts/dock_solv.prm

>  <Rbt.Receptor>
prm/blind_docking_40.prm

>  <SCORE>
-37.5835

>  <SCORE.INTER>
-30.1922

>  <SCORE.INTER.CONST>
1

>  <SCORE.INTER.POLAR>
-3.46524

>  <SCORE.INTER.ROT>
6

>  <SCORE.INTER.SOLV>
23.1949

>  <SCORE.INTER.VDW>
-23.9089

>  <SCORE.INTER.norm>
-0.888005

>  <SCORE.INTRA>
-12.4791

>  <SCORE.INTRA.DIHEDRAL>
-26.2702

>  <SCORE.INTRA.DIHEDRAL.0>
42.0816

>  <SCORE.INTRA.POLAR>
0.158656

>  <SCORE.INTRA.POLAR.0>
-0.254682

>  <SCORE.INTRA.REPUL>
0

>  <SCORE.INTRA.REPUL.0>
0

>  <SCORE.INTRA.SOLV>
0.476096

>  <SCORE.INTRA.SOLV.lig_0>
-109.803

>  <SCORE.INTRA.VDW>
-0.121463

>  <SCORE.INTRA.VDW.0>
0.32176

>  <SCORE.INTRA.norm>
-0.367031

>  <SCORE.RESTR>
5.0877

>  <SCORE.RESTR.CAVITY>
5.0877

>  <SCORE.RESTR.norm>
0.149638

>  <SCORE.SYSTEM>
0

>  <SCORE.SYSTEM.CONST>
0

>  <SCORE.SYSTEM.DIHEDRAL>
0

>  <SCORE.SYSTEM.SOLV>
0

>  <SCORE.SYSTEM.norm>
0

>  <SCORE.heavy>
34

>  <SCORE.norm>
-1.1054

>  <RMSD>
32.108

$$$$
1mwl
 OpenBabel11021811403D
libRbt.so/2013.1/901 2013/11/27
 34 36  0  0  0  0  0  0  0  0999 V2000
   11.5328   -6.4690    5.1981 C   0  0  2  0  0  0  0  0  0  0  0  0
   12.6493   -7.1949    4.7795 O   0  0  0  0  0  0  0  0  0  0  0  0
   10.4183   -6.6744    4.1340 C   0  0  2  0  0  0  0  0  0  0  0  0
   10.1033   -8.1001    4.0009 N   0  3  0  0  0  0  0  0  0  0  0  0
   10.8410   -6.0545    2.7700 C   0  0  1  0  0  0  0  0  0  0  0  0
    9.8626   -6.2073    1.8429 O   0  0  0  0  0  0  0  0  0  0  0  0
   11.1675   -4.5404    2.9899 C   0  0  2  0  0  0  0  0  0  0  0  0
   11.5545   -3.9299    1.7410 O   0  0  0  0  0  0  0  0  0  0  0  0
   12.3123   -4.4322    4.0537 C   0  0  2  0  0  0  0  0  0  0  0  0
   11.8965   -5.0703    5.3223 O   0  0  0  0  0  0  0  0  0  0  0  0
   12.7326   -2.9987    4.3978 C   0  0  2  0  0  0  0  0  0  0  0  0
   11.6177   -2.1680    4.3852 O   0  0  0  0  0  0  0  0  0  0  0  0
   13.7333   -2.3925    3.3971 C   0  0  0  0  0  0  0  0  0  0  0  0
   15.6461   -9.3343    6.9477 C   0  0  2  0  0  0  0  0  0  0  0  0
   16.8212   -9.6195    7.8098 N   0  3  0  0  0  0  0  0  0  0  0  0
   16.0764   -8.5522    5.6713 C   0  0  0  0  0  0  0  0  0  0  0  0
   14.8237   -8.2394    4.7753 C   0  0  2  0  0  0  0  0  0  0  0  0
   15.2726   -7.4910    3.5444 N   0  3  0  0  0  0  0  0  0  0  0  0
   13.7836   -7.4144    5.6083 C   0  0  2  0  0  0  0  0  0  0  0  0
   13.3697   -8.2207    6.8635 C   0  0  2  0  0  0  0  0  0  0  0  0
   12.4625   -7.4564    7.6204 O   0  0  0  0  0  0  0  0  0  0  0  0
   14.6148   -8.5074    7.7448 C   0  0  1  0  0  0  0  0  0  0  0  0
   14.2120   -9.2445    8.8898 O   0  0  0  0  0  0  0  0  0  0  0  0
   13.4889  -10.4301    8.7052 C   0  0  2  0  0  0  0  0  0  0  0  0
   12.3183  -10.4180    9.7064 C   0  0  2  0  0  0  0  0  0  0  0  0
   11.4884   -9.3101    9.4301 O   0  0  0  0  0  0  0  0  0  0  0  0
   12.8899  -10.3363   11.1630 C   0  0  1  0  0  0  0  0  0  0  0  0
   11.8210  -10.2902   12.1903 N   0  3  0  0  0  0  0  0  0  0  0  0
   11.9767   -9.0960   13.0596 C   0  0  0  0  0  0  0  0  0  0  0  0
   13.8251  -11.5680   11.4188 C   0  0  2  0  0  0  0  0  0  0  0  0
   13.0774  -12.7897   11.2712 O   0  0  0  0  0  0  0  0  0  0  0  0
   14.3869  -11.5577   12.7573 C   0  0  0  0  0  0  0  0  0  0  0  0
   14.9533  -11.6162   10.3427 C   0  0  0  0  0  0  0  0  0  0  0  0
   14.3666  -11.5846    8.9630 O   0  0  0  0  0  0  0  0  0  0  0  0
  1  2  1  6  0  0  0
  1  3  1  0  0  0  0
  1 10  1  0  0  0  0
  3  4  1  6  0  0  0
  3  5  1  0  0  0  0
  5  6  1  6  0  0  0
  5  7  1  0  0  0  0
  7  8  1  6  0  0  0
  7  9  1  0  0  0  0
  9 10  1  1  0  0  0
  9 11  1  0  0  0  0
 11 12  1  6  0  0  0
 11 13  1  0  0  0  0
 14 15  1  1  0  0  0
 14 16  1  0  0  0  0
 14 22  1  0  0  0  0
 16 17  1  0  0  0  0
 17 18  1  6  0  0  0
 17 19  1  0  0  0  0
 19  2  1  6  0  0  0
 19 20  1  0  0  0  0
 20 21  1  1  0  0  0
 20 22  1  0  0  0  0
 22 23  1  1  0  0  0
 24 23  1  1  0  0  0
 24 25  1  0  0  0  0
 24 34  1  0  0  0  0
 25 26  1  6  0  0  0
 25 27  1  0  0  0  0
 27 28  1  1  0  0  0
 27 30  1  0  0  0  0
 28 29  1  0  0  0  0
 30 31  1  6  0  0  0
 30 32  1  0  0  0  0
 30 33  1  0  0  0  0
 33 34  1  0  0  0  0
M  CHG  4   4   1  15   1  18   1  28   1
M  END
>  <CHROM.1>
-169.62236679,-178.89811275,-6.53139938,173.10805877,70.93968951,36.08792463
72.54251269,169.27984135,-166.58939770,177.12804545,-66.26173703,-134.97745854
174.98785210,-4.43481146,62.26153230,12.97206524,-7.91192793,6.85048830,1.76291759
0.38015423,-0.95547433

>  <Name>
1mwl

>  <RI>
0

>  <Rbt.Current_Directory>
/home/itssahil/PROJECTS/Mol_Feturizer/New_Systems/rnas/1mwl

>  <Rbt.Executable>
rbdock ($Id: //depot/dev/client3/rdock/2013.1/src/exe/rbdock.cxx#4 $)

>  <Rbt.Library>
libRbt.so (2013.1, Build901 2013/11/27)

>  <Rbt.Parameter_File>
/export/apps/rDock/src/rDock_2013.1_src/data/scripts/dock_solv.prm

>  <Rbt.Receptor>
prm/blind_docking_40.prm

>  <SCORE>
-50.2159

>  <SCORE.INTER>
-36.23

>  <SCORE.INTER.CONST>
1

>  <SCORE.INTER.POLAR>
-4.25675

>  <SCORE.INTER.ROT>
6

>  <SCORE.INTER.SOLV>
24.5293

>  <SCORE.INTER.VDW>
-25.7406

>  <SCORE.INTER.norm>
-1.06559

>  <SCORE.INTRA>
-17.7204

>  <SCORE.INTRA.DIHEDRAL>
-23.8476

>  <SCORE.INTRA.DIHEDRAL.0>
42.0816

>  <SCORE.INTRA.POLAR>
-0.777026

>  <SCORE.INTRA.POLAR.0>
-0.254682

>  <SCORE.INTRA.REPUL>
0

>  <SCORE.INTRA.REPUL.0>
0

>  <SCORE.INTRA.SOLV>
-1.64564

>  <SCORE.INTRA.SOLV.lig_0>
-109.803

>  <SCORE.INTRA.VDW>
-2.33188

>  <SCORE.INTRA.VDW.0>
0.32176

>  <SCORE.INTRA.norm>
-0.521188

>  <SCORE.RESTR>
3.73444

>  <SCORE.RESTR.CAVITY>
3.73444

>  <SCORE.RESTR.norm>
0.109837

>  <SCORE.SYSTEM>
0

>  <SCORE.SYSTEM.CONST>
0

>  <SCORE.SYSTEM.DIHEDRAL>
0

>  <SCORE.SYSTEM.SOLV>
0

>  <SCORE.SYSTEM.norm>
0

>  <SCORE.heavy>
34

>  <SCORE.norm>
-1.47694

>  <RMSD>
32.157

$$$$
1mwl
 OpenBabel11021811403D
libRbt.so/2013.1/901 2013/11/27
 34 36  0  0  0  0  0  0  0  0999 V2000
   13.2049  -10.6669    8.2261 C   0  0  2  0  0  0  0  0  0  0  0  0
   14.4506  -10.0719    8.0191 O   0  0  0  0  0  0  0  0  0  0  0  0
   12.4600   -9.8257    9.3005 C   0  0  2  0  0  0  0  0  0  0  0  0
   12.3155   -8.4393    8.8460 N   0  3  0  0  0  0  0  0  0  0  0  0
   13.2001   -9.9029   10.6679 C   0  0  1  0  0  0  0  0  0  0  0  0
   12.5419   -9.1918   11.6172 O   0  0  0  0  0  0  0  0  0  0  0  0
   13.3236  -11.4058   11.0843 C   0  0  2  0  0  0  0  0  0  0  0  0
   13.9976  -11.5146   12.3555 O   0  0  0  0  0  0  0  0  0  0  0  0
   14.1055  -12.1663    9.9600 C   0  0  2  0  0  0  0  0  0  0  0  0
   13.4008  -12.0353    8.6655 O   0  0  0  0  0  0  0  0  0  0  0  0
   14.2900  -13.6671   10.2120 C   0  0  2  0  0  0  0  0  0  0  0  0
   14.4807  -13.8939   11.5705 O   0  0  0  0  0  0  0  0  0  0  0  0
   15.5158  -14.2661    9.4986 C   0  0  0  0  0  0  0  0  0  0  0  0
   15.6709   -7.3811    4.9320 C   0  0  2  0  0  0  0  0  0  0  0  0
   16.1304   -6.8693    3.6159 N   0  3  0  0  0  0  0  0  0  0  0  0
   16.7466   -8.3115    5.5671 C   0  0  0  0  0  0  0  0  0  0  0  0
   16.2432   -8.8622    6.9503 C   0  0  2  0  0  0  0  0  0  0  0  0
   17.3083   -9.7509    7.5442 N   0  3  0  0  0  0  0  0  0  0  0  0
   14.8948   -9.6333    6.7416 C   0  0  2  0  0  0  0  0  0  0  0  0
   13.8453   -8.6810    6.1182 C   0  0  2  0  0  0  0  0  0  0  0  0
   12.6505   -9.3929    5.9041 O   0  0  0  0  0  0  0  0  0  0  0  0
   14.3505   -8.1588    4.7465 C   0  0  1  0  0  0  0  0  0  0  0  0
   13.3727   -7.2907    4.1927 O   0  0  0  0  0  0  0  0  0  0  0  0
   12.5303   -6.5861    5.0625 C   0  0  2  0  0  0  0  0  0  0  0  0
   11.3837   -5.9973    4.2191 C   0  0  2  0  0  0  0  0  0  0  0  0
   10.6657   -7.0535    3.6178 O   0  0  0  0  0  0  0  0  0  0  0  0
   11.9845   -5.0424    3.1319 C   0  0  1  0  0  0  0  0  0  0  0  0
   10.9430   -4.4546    2.2545 N   0  3  0  0  0  0  0  0  0  0  0  0
   11.4110   -4.3974    0.8461 C   0  0  0  0  0  0  0  0  0  0  0  0
   12.7943   -3.9018    3.8392 C   0  0  2  0  0  0  0  0  0  0  0  0
   11.9244   -3.1472    4.7038 O   0  0  0  0  0  0  0  0  0  0  0  0
   13.3763   -2.9742    2.8863 C   0  0  0  0  0  0  0  0  0  0  0  0
   13.8938   -4.5170    4.7588 C   0  0  0  0  0  0  0  0  0  0  0  0
   13.2907   -5.5048    5.7123 O   0  0  0  0  0  0  0  0  0  0  0  0
  1  2  1  1  0  0  0
  1  3  1  0  0  0  0
  1 10  1  0  0  0  0
  3  4  1  6  0  0  0
  3  5  1  0  0  0  0
  5  6  1  1  0  0  0
  5  7  1  0  0  0  0
  7  8  1  1  0  0  0
  7  9  1  0  0  0  0
  9 10  1  6  0  0  0
  9 11  1  0  0  0  0
 11 12  1  1  0  0  0
 11 13  1  0  0  0  0
 14 15  1  6  0  0  0
 14 16  1  0  0  0  0
 14 22  1  0  0  0  0
 16 17  1  0  0  0  0
 17 18  1  6  0  0  0
 17 19  1  0  0  0  0
 19  2  1  1  0  0  0
 19 20  1  0  0  0  0
 20 21  1  6  0  0  0
 20 22  1  0  0  0  0
 22 23  1  1  0  0  0
 24 23  1  6  0  0  0
 24 25  1  0  0  0  0
 24 34  1  0  0  0  0
 25 26  1  6  0  0  0
 25 27  1  0  0  0  0
 27 28  1  1  0  0  0
 27 30  1  0  0  0  0
 28 29  1  0  0  0  0
 30 31  1  1  0  0  0
 30 32  1  0  0  0  0
 30 33  1  0  0  0  0
 33 34  1  0  0  0  0
M  CHG  4   4   1  15   1  18   1  28   1
M  END
>  <CHROM.1>
-123.41212505,172.79152615,178.15747031,70.11540378,-60.91856901,-35.77915750
-59.48221378,160.59040276,-155.70125951,-55.58496541,-92.01469139,-167.08178876
-52.56576280,-20.50241221,166.75718070,13.60055514,-8.38174734,6.70727566
1.38756624,-0.46528683,2.28089835

>  <Name>
1mwl

>  <RI>
0

>  <Rbt.Current_Directory>
/home/itssahil/PROJECTS/Mol_Feturizer/New_Systems/rnas/1mwl

>  <Rbt.Executable>
rbdock ($Id: //depot/dev/client3/rdock/2013.1/src/exe/rbdock.cxx#4 $)

>  <Rbt.Library>
libRbt.so (2013.1, Build901 2013/11/27)

>  <Rbt.Parameter_File>
/export/apps/rDock/src/rDock_2013.1_src/data/scripts/dock_solv.prm

>  <Rbt.Receptor>
prm/blind_docking_40.prm

>  <SCORE>
-39.4883

>  <SCORE.INTER>
-35.4213

>  <SCORE.INTER.CONST>
1

>  <SCORE.INTER.POLAR>
-5.50932

>  <SCORE.INTER.ROT>
6

>  <SCORE.INTER.SOLV>
27.4959

>  <SCORE.INTER.VDW>
-22.0151

>  <SCORE.INTER.norm>
-1.0418

>  <SCORE.INTRA>
-10.5611

>  <SCORE.INTRA.DIHEDRAL>
-21.5655

>  <SCORE.INTRA.DIHEDRAL.0>
42.0816

>  <SCORE.INTRA.POLAR>
0.0232217

>  <SCORE.INTRA.POLAR.0>
-0.254682

>  <SCORE.INTRA.REPUL>
0

>  <SCORE.INTRA.REPUL.0>
0

>  <SCORE.INTRA.SOLV>
0.0712911

>  <SCORE.INTRA.SOLV.lig_0>
-109.803

>  <SCORE.INTRA.VDW>
0.107015

>  <SCORE.INTRA.VDW.0>
0.32176

>  <SCORE.INTRA.norm>
-0.310621

>  <SCORE.RESTR>
6.4941

>  <SCORE.RESTR.CAVITY>
6.4941

>  <SCORE.RESTR.norm>
0.191003

>  <SCORE.SYSTEM>
0

>  <SCORE.SYSTEM.CONST>
0

>  <SCORE.SYSTEM.DIHEDRAL>
0

>  <SCORE.SYSTEM.SOLV>
0

>  <SCORE.SYSTEM.norm>
0

>  <SCORE.heavy>
34

>  <SCORE.norm>
-1.16142

>  <RMSD>
32.162

$$$$
1mwl
 OpenBabel11021811403D
libRbt.so/2013.1/901 2013/11/27
 34 36  0  0  0  0  0  0  0  0999 V2000
   11.5931   -6.5663    5.2139 C   0  0  2  0  0  0  0  0  0  0  0  0
   12.6109   -7.4943    4.9867 O   0  0  0  0  0  0  0  0  0  0  0  0
   10.5645   -6.7112    4.0573 C   0  0  2  0  0  0  0  0  0  0  0  0
   10.0358   -8.0781    4.0195 N   0  3  0  0  0  0  0  0  0  0  0  0
   11.2082   -6.3114    2.6973 C   0  0  1  0  0  0  0  0  0  0  0  0
   10.3090   -6.4107    1.6865 O   0  0  0  0  0  0  0  0  0  0  0  0
   11.7544   -4.8501    2.8143 C   0  0  2  0  0  0  0  0  0  0  0  0
   12.3507   -4.4420    1.5653 O   0  0  0  0  0  0  0  0  0  0  0  0
   12.7970   -4.8055    3.9827 C   0  0  2  0  0  0  0  0  0  0  0  0
   12.1662   -5.2343    5.2506 O   0  0  0  0  0  0  0  0  0  0  0  0
   13.4107   -3.4245    4.2401 C   0  0  2  0  0  0  0  0  0  0  0  0
   12.4089   -2.4604    4.2455 O   0  0  0  0  0  0  0  0  0  0  0  0
   14.4223   -2.9891    3.1643 C   0  0  0  0  0  0  0  0  0  0  0  0
   15.5036   -9.5096    7.4013 C   0  0  2  0  0  0  0  0  0  0  0  0
   16.6420   -9.7466    8.3251 N   0  3  0  0  0  0  0  0  0  0  0  0
   15.9895   -8.8125    6.0960 C   0  0  0  0  0  0  0  0  0  0  0  0
   14.7751   -8.5497    5.1336 C   0  0  2  0  0  0  0  0  0  0  0  0
   15.2776   -7.8834    3.8765 N   0  3  0  0  0  0  0  0  0  0  0  0
   13.7104   -7.6675    5.8715 C   0  0  2  0  0  0  0  0  0  0  0  0
   13.2415   -8.3903    7.1579 C   0  0  2  0  0  0  0  0  0  0  0  0
   12.3120   -7.5743    7.8290 O   0  0  0  0  0  0  0  0  0  0  0  0
   14.4491   -8.6279    8.1037 C   0  0  1  0  0  0  0  0  0  0  0  0
   13.9961   -9.2886    9.2762 O   0  0  0  0  0  0  0  0  0  0  0  0
   13.2289  -10.4526    9.1373 C   0  0  2  0  0  0  0  0  0  0  0  0
   12.0850  -10.3773   10.1663 C   0  0  2  0  0  0  0  0  0  0  0  0
   11.2863   -9.2481    9.8844 O   0  0  0  0  0  0  0  0  0  0  0  0
   12.6956  -10.2823   11.6061 C   0  0  1  0  0  0  0  0  0  0  0  0
   11.6551  -10.1760   12.6579 N   0  3  0  0  0  0  0  0  0  0  0  0
   11.7731   -8.8878   13.3877 C   0  0  0  0  0  0  0  0  0  0  0  0
   13.5947  -11.5393   11.8681 C   0  0  2  0  0  0  0  0  0  0  0  0
   12.8027  -12.7376   11.7676 O   0  0  0  0  0  0  0  0  0  0  0  0
   14.1902  -11.5179   13.1918 C   0  0  0  0  0  0  0  0  0  0  0  0
   14.6931  -11.6507   10.7661 C   0  0  0  0  0  0  0  0  0  0  0  0
   14.0732  -11.6304    9.4008 O   0  0  0  0  0  0  0  0  0  0  0  0
  1  2  1  6  0  0  0
  1  3  1  0  0  0  0
  1 10  1  0  0  0  0
  3  4  1  6  0  0  0
  3  5  1  0  0  0  0
  5  6  1  6  0  0  0
  5  7  1  0  0  0  0
  7  8  1  6  0  0  0
  7  9  1  0  0  0  0
  9 10  1  1  0  0  0
  9 11  1  0  0  0  0
 11 12  1  6  0  0  0
 11 13  1  0  0  0  0
 14 15  1  1  0  0  0
 14 16  1  0  0  0  0
 14 22  1  0  0  0  0
 16 17  1  0  0  0  0
 17 18  1  6  0  0  0
 17 19  1  0  0  0  0
 19  2  1  6  0  0  0
 19 20  1  0  0  0  0
 20 21  1  1  0  0  0
 20 22  1  0  0  0  0
 22 23  1  1  0  0  0
 24 23  1  1  0  0  0
 24 25  1  0  0  0  0
 24 34  1  0  0  0  0
 25 26  1  6  0  0  0
 25 27  1  0  0  0  0
 27 28  1  1  0  0  0
 27 30  1  0  0  0  0
 28 29  1  0  0  0  0
 30 31  1  6  0  0  0
 30 32  1  0  0  0  0
 30 33  1  0  0  0  0
 33 34  1  0  0  0  0
M  CHG  4   4   1  15   1  18   1  28   1
M  END
>  <CHROM.1>
-178.25017530,-167.84866918,-146.60254070,-70.27122657,166.72890322,45.71222150
-59.03518879,58.61477274,-168.31018298,74.96761015,-68.58370714,-137.97626579
-43.16235804,2.46686829,-67.70610152,13.02098166,-8.05714125,7.06383760,1.67660713
0.30199345,-0.98352741

>  <Name>
1mwl

>  <RI>
0

>  <Rbt.Current_Directory>
/home/itssahil/PROJECTS/Mol_Feturizer/New_Systems/rnas/1mwl

>  <Rbt.Executable>
rbdock ($Id: //depot/dev/client3/rdock/2013.1/src/exe/rbdock.cxx#4 $)

>  <Rbt.Library>
libRbt.so (2013.1, Build901 2013/11/27)

>  <Rbt.Parameter_File>
/export/apps/rDock/src/rDock_2013.1_src/data/scripts/dock_solv.prm

>  <Rbt.Receptor>
prm/blind_docking_40.prm

>  <SCORE>
-49.4149

>  <SCORE.INTER>
-39.3165

>  <SCORE.INTER.CONST>
1

>  <SCORE.INTER.POLAR>
-4.35813

>  <SCORE.INTER.ROT>
6

>  <SCORE.INTER.SOLV>
24.4027

>  <SCORE.INTER.VDW>
-27.4182

>  <SCORE.INTER.norm>
-1.15637

>  <SCORE.INTRA>
-14.4059

>  <SCORE.INTRA.DIHEDRAL>
-24.5772

>  <SCORE.INTRA.DIHEDRAL.0>
42.0816

>  <SCORE.INTRA.POLAR>
-0.434693

>  <SCORE.INTRA.POLAR.0>
-0.254682

>  <SCORE.INTRA.REPUL>
0

>  <SCORE.INTRA.REPUL.0>
0

>  <SCORE.INTRA.SOLV>
-0.988531

>  <SCORE.INTRA.SOLV.lig_0>
-109.803

>  <SCORE.INTRA.VDW>
-0.145016

>  <SCORE.INTRA.VDW.0>
0.32176

>  <SCORE.INTRA.norm>
-0.423702

>  <SCORE.RESTR>
4.30752

>  <SCORE.RESTR.CAVITY>
4.30752

>  <SCORE.RESTR.norm>
0.126692

>  <SCORE.SYSTEM>
0

>  <SCORE.SYSTEM.CONST>
0

>  <SCORE.SYSTEM.DIHEDRAL>
0

>  <SCORE.SYSTEM.SOLV>
0

>  <SCORE.SYSTEM.norm>
0

>  <SCORE.heavy>
34

>  <SCORE.norm>
-1.45338

>  <RMSD>
32.178

$$$$
1mwl
 OpenBabel11021811403D
libRbt.so/2013.1/901 2013/11/27
 34 36  0  0  0  0  0  0  0  0999 V2000
   11.7820   -6.1968    5.1295 C   0  0  2  0  0  0  0  0  0  0  0  0
   12.8576   -7.0516    4.8826 O   0  0  0  0  0  0  0  0  0  0  0  0
   10.7196   -6.4544    4.0241 C   0  0  2  0  0  0  0  0  0  0  0  0
   10.2965   -7.8580    4.0471 N   0  3  0  0  0  0  0  0  0  0  0  0
   11.2725   -6.0488    2.6265 C   0  0  1  0  0  0  0  0  0  0  0  0
   10.3417   -6.2468    1.6598 O   0  0  0  0  0  0  0  0  0  0  0  0
   11.7091   -4.5474    2.6792 C   0  0  2  0  0  0  0  0  0  0  0  0
   12.2189   -4.1337    1.3942 O   0  0  0  0  0  0  0  0  0  0  0  0
   12.7936   -4.3883    3.7984 C   0  0  2  0  0  0  0  0  0  0  0  0
   12.2518   -4.8247    5.1043 O   0  0  0  0  0  0  0  0  0  0  0  0
   13.3095   -2.9577    3.9906 C   0  0  2  0  0  0  0  0  0  0  0  0
   12.2644   -2.0563    3.8219 O   0  0  0  0  0  0  0  0  0  0  0  0
   14.3959   -2.5527    2.9776 C   0  0  0  0  0  0  0  0  0  0  0  0
   15.5609   -9.2480    7.3580 C   0  0  2  0  0  0  0  0  0  0  0  0
   16.6262   -9.5558    8.3458 N   0  3  0  0  0  0  0  0  0  0  0  0
   16.1437   -8.4611    6.1468 C   0  0  0  0  0  0  0  0  0  0  0  0
   15.0055   -8.1244    5.1166 C   0  0  2  0  0  0  0  0  0  0  0  0
   15.6012   -7.3717    3.9524 N   0  3  0  0  0  0  0  0  0  0  0  0
   13.8870   -7.2928    5.8334 C   0  0  2  0  0  0  0  0  0  0  0  0
   13.3226   -8.1040    7.0252 C   0  0  2  0  0  0  0  0  0  0  0  0
   12.3440   -7.3343    7.6809 O   0  0  0  0  0  0  0  0  0  0  0  0
   14.4553   -8.4144    8.0401 C   0  0  1  0  0  0  0  0  0  0  0  0
   13.9153   -9.1556    9.1243 O   0  0  0  0  0  0  0  0  0  0  0  0
   13.2397  -10.3518    8.8498 C   0  0  2  0  0  0  0  0  0  0  0  0
   12.0679  -10.4591    9.8439 C   0  0  2  0  0  0  0  0  0  0  0  0
   11.1954   -9.3672    9.6461 O   0  0  0  0  0  0  0  0  0  0  0  0
   12.6334  -10.4627   11.3051 C   0  0  1  0  0  0  0  0  0  0  0  0
   11.5618  -10.5341   12.3282 N   0  3  0  0  0  0  0  0  0  0  0  0
   11.5595   -9.3139   13.1750 C   0  0  0  0  0  0  0  0  0  0  0  0
   13.6158  -11.6724   11.4740 C   0  0  2  0  0  0  0  0  0  0  0  0
   12.9170  -12.9082   11.2335 O   0  0  0  0  0  0  0  0  0  0  0  0
   14.1746  -11.7387   12.8121 C   0  0  0  0  0  0  0  0  0  0  0  0
   14.7468  -11.5970   10.4023 C   0  0  0  0  0  0  0  0  0  0  0  0
   14.1616  -11.4869    9.0260 O   0  0  0  0  0  0  0  0  0  0  0  0
  1  2  1  6  0  0  0
  1  3  1  0  0  0  0
  1 10  1  0  0  0  0
  3  4  1  6  0  0  0
  3  5  1  0  0  0  0
  5  6  1  6  0  0  0
  5  7  1  0  0  0  0
  7  8  1  6  0  0  0
  7  9  1  0  0  0  0
  9 10  1  1  0  0  0
  9 11  1  0  0  0  0
 11 12  1  6  0  0  0
 11 13  1  0  0  0  0
 14 15  1  1  0  0  0
 14 16  1  0  0  0  0
 14 22  1  0  0  0  0
 16 17  1  0  0  0  0
 17 18  1  6  0  0  0
 17 19  1  0  0  0  0
 19  2  1  6  0  0  0
 19 20  1  0  0  0  0
 20 21  1  1  0  0  0
 20 22  1  0  0  0  0
 22 23  1  1  0  0  0
 24 23  1  1  0  0  0
 24 25  1  0  0  0  0
 24 34  1  0  0  0  0
 25 26  1  1  0  0  0
 25 27  1  0  0  0  0
 27 28  1  1  0  0  0
 27 30  1  0  0  0  0
 28 29  1  0  0  0  0
 30 31  1  6  0  0  0
 30 32  1  0  0  0  0
 30 33  1  0  0  0  0
 33 34  1  0  0  0  0
M  CHG  4   4   1  15   1  18   1  28   1
M  END
>  <CHROM.1>
-166.67125199,-171.72183732,-15.77829262,72.89740449,63.00032259,37.17248722
65.55340166,-175.35388514,-58.67808366,81.66082991,-64.30430568,-143.68287062
-178.08164875,2.89742379,63.65101800,13.05470615,-7.88180955,6.88839447,1.66633623
0.19777793,-0.91461696

>  <Name>
1mwl

>  <RI>
0

>  <Rbt.Current_Directory>
/home/itssahil/PROJECTS/Mol_Feturizer/New_Systems/rnas/1mwl

>  <Rbt.Executable>
rbdock ($Id: //depot/dev/client3/rdock/2013.1/src/exe/rbdock.cxx#4 $)

>  <Rbt.Library>
libRbt.so (2013.1, Build901 2013/11/27)

>  <Rbt.Parameter_File>
/export/apps/rDock/src/rDock_2013.1_src/data/scripts/dock_solv.prm

>  <Rbt.Receptor>
prm/blind_docking_40.prm

>  <SCORE>
-47.8731

>  <SCORE.INTER>
-38.2098

>  <SCORE.INTER.CONST>
1

>  <SCORE.INTER.POLAR>
-4.40846

>  <SCORE.INTER.ROT>
6

>  <SCORE.INTER.SOLV>
24.77

>  <SCORE.INTER.VDW>
-26.635

>  <SCORE.INTER.norm>
-1.12382

>  <SCORE.INTRA>
-14.2642

>  <SCORE.INTRA.DIHEDRAL>
-24.4864

>  <SCORE.INTRA.DIHEDRAL.0>
42.0816

>  <SCORE.INTRA.POLAR>
0.195987

>  <SCORE.INTRA.POLAR.0>
-0.254682

>  <SCORE.INTRA.REPUL>
0

>  <SCORE.INTRA.REPUL.0>
0

>  <SCORE.INTRA.SOLV>
-1.04189

>  <SCORE.INTRA.SOLV.lig_0>
-109.803

>  <SCORE.INTRA.VDW>
-2.16639

>  <SCORE.INTRA.VDW.0>
0.32176

>  <SCORE.INTRA.norm>
-0.419534

>  <SCORE.RESTR>
4.60086

>  <SCORE.RESTR.CAVITY>
4.60086

>  <SCORE.RESTR.norm>
0.135319

>  <SCORE.SYSTEM>
0

>  <SCORE.SYSTEM.CONST>
0

>  <SCORE.SYSTEM.DIHEDRAL>
0

>  <SCORE.SYSTEM.SOLV>
0

>  <SCORE.SYSTEM.norm>
0

>  <SCORE.heavy>
34

>  <SCORE.norm>
-1.40803

>  <RMSD>
32.182

$$$$
1mwl
 OpenBabel11021811403D
libRbt.so/2013.1/901 2013/11/27
 34 36  0  0  0  0  0  0  0  0999 V2000
   11.4140   -6.7503    4.8203 C   0  0  2  0  0  0  0  0  0  0  0  0
   12.5925   -7.4183    4.4833 O   0  0  0  0  0  0  0  0  0  0  0  0
   10.4497   -6.8666    3.6064 C   0  0  2  0  0  0  0  0  0  0  0  0
   10.1901   -8.2768    3.3006 N   0  3  0  0  0  0  0  0  0  0  0  0
   11.0273   -6.1129    2.3728 C   0  0  1  0  0  0  0  0  0  0  0  0
   10.1792   -6.1883    1.3167 O   0  0  0  0  0  0  0  0  0  0  0  0
   11.2851   -4.6230    2.7740 C   0  0  2  0  0  0  0  0  0  0  0  0
   11.8128   -3.8903    1.6485 O   0  0  0  0  0  0  0  0  0  0  0  0
   12.2818   -4.6031    3.9824 C   0  0  2  0  0  0  0  0  0  0  0  0
   11.7238   -5.3656    5.1211 O   0  0  0  0  0  0  0  0  0  0  0  0
   12.6188   -3.2042    4.5108 C   0  0  2  0  0  0  0  0  0  0  0  0
   11.4534   -2.4552    4.6298 O   0  0  0  0  0  0  0  0  0  0  0  0
   13.5531   -2.4038    3.5851 C   0  0  0  0  0  0  0  0  0  0  0  0
   15.5382   -9.3273    6.9202 C   0  0  2  0  0  0  0  0  0  0  0  0
   16.6753   -9.5227    7.8552 N   0  3  0  0  0  0  0  0  0  0  0  0
   16.0095   -8.6048    5.6234 C   0  0  0  0  0  0  0  0  0  0  0  0
   14.7958   -8.3863    4.6490 C   0  0  2  0  0  0  0  0  0  0  0  0
   15.2844   -7.6942    3.4005 N   0  3  0  0  0  0  0  0  0  0  0  0
   13.6886   -7.5514    5.3792 C   0  0  2  0  0  0  0  0  0  0  0  0
   13.2355   -8.2988    6.6572 C   0  0  2  0  0  0  0  0  0  0  0  0
   12.2668   -7.5242    7.3218 O   0  0  0  0  0  0  0  0  0  0  0  0
   14.4416   -8.4922    7.6150 C   0  0  1  0  0  0  0  0  0  0  0  0
   14.0031   -9.1764    8.7795 O   0  0  0  0  0  0  0  0  0  0  0  0
   13.2473  -10.3460    8.6268 C   0  0  2  0  0  0  0  0  0  0  0  0
   12.1588  -10.3383    9.7167 C   0  0  2  0  0  0  0  0  0  0  0  0
   11.3292   -9.2115    9.5302 O   0  0  0  0  0  0  0  0  0  0  0  0
   12.8435  -10.2987   11.1254 C   0  0  1  0  0  0  0  0  0  0  0  0
   11.8590  -10.2592   12.2341 N   0  3  0  0  0  0  0  0  0  0  0  0
   12.1301   -9.1130   13.1390 C   0  0  0  0  0  0  0  0  0  0  0  0
   13.7743  -11.5504   11.2807 C   0  0  2  0  0  0  0  0  0  0  0  0
   12.9963  -12.7566   11.1660 O   0  0  0  0  0  0  0  0  0  0  0  0
   14.4389  -11.5793   12.5710 C   0  0  0  0  0  0  0  0  0  0  0  0
   14.8141  -11.5918   10.1187 C   0  0  0  0  0  0  0  0  0  0  0  0
   14.1222  -11.5197    8.7902 O   0  0  0  0  0  0  0  0  0  0  0  0
  1  2  1  6  0  0  0
  1  3  1  0  0  0  0
  1 10  1  0  0  0  0
  3  4  1  6  0  0  0
  3  5  1  0  0  0  0
  5  6  1  6  0  0  0
  5  7  1  0  0  0  0
  7  8  1  6  0  0  0
  7  9  1  0  0  0  0
  9 10  1  1  0  0  0
  9 11  1  0  0  0  0
 11 12  1  6  0  0  0
 11 13  1  0  0  0  0
 14 15  1  1  0  0  0
 14 16  1  0  0  0  0
 14 22  1  0  0  0  0
 16 17  1  0  0  0  0
 17 18  1  6  0  0  0
 17 19  1  0  0  0  0
 19  2  1  6  0  0  0
 19 20  1  0  0  0  0
 20 21  1  1  0  0  0
 20 22  1  0  0  0  0
 22 23  1  1  0  0  0
 24 23  1  1  0  0  0
 24 25  1  0  0  0  0
 24 34  1  0  0  0  0
 25 26  1  6  0  0  0
 25 27  1  0  0  0  0
 27 28  1  1  0  0  0
 27 30  1  0  0  0  0
 28 29  1  0  0  0  0
 30 31  1  6  0  0  0
 30 32  1  0  0  0  0
 30 33  1  0  0  0  0
 33 34  1  0  0  0  0
M  CHG  4   4   1  15   1  18   1  28   1
M  END
>  <CHROM.1>
-177.96466833,178.67328200,89.48985805,161.77338635,-57.66005097,45.37400259
-60.66527689,45.98123484,-162.16585021,-64.31497797,-70.65300998,-141.17620857
18.72301826,-6.28562855,62.81813295,12.92594041,-7.96594175,6.70159325,1.76484620
0.51284242,-1.01169975

>  <Name>
1mwl

>  <RI>
0

>  <Rbt.Current_Directory>
/home/itssahil/PROJECTS/Mol_Feturizer/New_Systems/rnas/1mwl

>  <Rbt.Executable>
rbdock ($Id: //depot/dev/client3/rdock/2013.1/src/exe/rbdock.cxx#4 $)

>  <Rbt.Library>
libRbt.so (2013.1, Build901 2013/11/27)

>  <Rbt.Parameter_File>
/export/apps/rDock/src/rDock_2013.1_src/data/scripts/dock_solv.prm

>  <Rbt.Receptor>
prm/blind_docking_40.prm

>  <SCORE>
-45.7229

>  <SCORE.INTER>
-33.948

>  <SCORE.INTER.CONST>
1

>  <SCORE.INTER.POLAR>
-3.81395

>  <SCORE.INTER.ROT>
6

>  <SCORE.INTER.SOLV>
24.6171

>  <SCORE.INTER.VDW>
-25.7245

>  <SCORE.INTER.norm>
-0.99847

>  <SCORE.INTRA>
-15.6923

>  <SCORE.INTRA.DIHEDRAL>
-21.7502

>  <SCORE.INTRA.DIHEDRAL.0>
42.0816

>  <SCORE.INTRA.POLAR>
-0.886551

>  <SCORE.INTRA.POLAR.0>
-0.254682

>  <SCORE.INTRA.REPUL>
0

>  <SCORE.INTRA.REPUL.0>
0

>  <SCORE.INTRA.SOLV>
-2.31065

>  <SCORE.INTRA.SOLV.lig_0>
-109.803

>  <SCORE.INTRA.VDW>
-0.647624

>  <SCORE.INTRA.VDW.0>
0.32176

>  <SCORE.INTRA.norm>
-0.461539

>  <SCORE.RESTR>
3.91738

>  <SCORE.RESTR.CAVITY>
3.91738

>  <SCORE.RESTR.norm>
0.115217

>  <SCORE.SYSTEM>
0

>  <SCORE.SYSTEM.CONST>
0

>  <SCORE.SYSTEM.DIHEDRAL>
0

>  <SCORE.SYSTEM.SOLV>
0

>  <SCORE.SYSTEM.norm>
0

>  <SCORE.heavy>
34

>  <SCORE.norm>
-1.34479

>  <RMSD>
32.196

$$$$
1mwl
 OpenBabel11021811403D
libRbt.so/2013.1/901 2013/11/27
 34 36  0  0  0  0  0  0  0  0999 V2000
   13.2347  -10.9754    8.5937 C   0  0  2  0  0  0  0  0  0  0  0  0
   14.2593  -10.0566    8.3597 O   0  0  0  0  0  0  0  0  0  0  0  0
   12.4023  -10.4480    9.7961 C   0  0  2  0  0  0  0  0  0  0  0  0
   11.8627   -9.1190    9.4930 N   0  3  0  0  0  0  0  0  0  0  0  0
   13.2625  -10.4314   11.0936 C   0  0  1  0  0  0  0  0  0  0  0  0
   12.5353   -9.9965   12.1529 O   0  0  0  0  0  0  0  0  0  0  0  0
   13.8084  -11.8752   11.3488 C   0  0  2  0  0  0  0  0  0  0  0  0
   14.6042  -11.8990   12.5523 O   0  0  0  0  0  0  0  0  0  0  0  0
   14.6509  -12.3112   10.1022 C   0  0  2  0  0  0  0  0  0  0  0  0
   13.8177  -12.2723    8.8801 O   0  0  0  0  0  0  0  0  0  0  0  0
   15.2395  -13.7239   10.1902 C   0  0  2  0  0  0  0  0  0  0  0  0
   16.6218  -13.6481   10.3192 O   0  0  0  0  0  0  0  0  0  0  0  0
   14.9695  -14.5833    8.9416 C   0  0  0  0  0  0  0  0  0  0  0  0
   15.3974   -7.5352    5.1029 C   0  0  2  0  0  0  0  0  0  0  0  0
   15.8347   -7.0954    3.7536 N   0  3  0  0  0  0  0  0  0  0  0  0
   16.4974   -8.4036    5.7825 C   0  0  0  0  0  0  0  0  0  0  0  0
   16.0174   -8.8789    7.2016 C   0  0  2  0  0  0  0  0  0  0  0  0
   17.1056   -9.7085    7.8377 N   0  3  0  0  0  0  0  0  0  0  0  0
   14.6833   -9.6880    7.0536 C   0  0  2  0  0  0  0  0  0  0  0  0
   13.6091   -8.7964    6.3839 C   0  0  2  0  0  0  0  0  0  0  0  0
   12.4273   -9.5436    6.2254 O   0  0  0  0  0  0  0  0  0  0  0  0
   14.0916   -8.3488    4.9782 C   0  0  1  0  0  0  0  0  0  0  0  0
   13.0914   -7.5356    4.3825 O   0  0  0  0  0  0  0  0  0  0  0  0
   12.3052   -6.7235    5.2101 C   0  0  2  0  0  0  0  0  0  0  0  0
   11.2101   -6.0907    4.3308 C   0  0  2  0  0  0  0  0  0  0  0  0
   10.4126   -7.1169    3.7798 O   0  0  0  0  0  0  0  0  0  0  0  0
   11.8863   -5.2428    3.2000 C   0  0  1  0  0  0  0  0  0  0  0  0
   10.8960   -4.6210    2.2876 N   0  3  0  0  0  0  0  0  0  0  0  0
   11.4357   -4.5302    0.9068 C   0  0  0  0  0  0  0  0  0  0  0  0
   12.7817   -4.1344    3.8533 C   0  0  2  0  0  0  0  0  0  0  0  0
   11.9720   -3.2707    4.6729 O   0  0  0  0  0  0  0  0  0  0  0  0
   13.4368   -3.3053    2.8578 C   0  0  0  0  0  0  0  0  0  0  0  0
   13.8277   -4.7860    4.8096 C   0  0  0  0  0  0  0  0  0  0  0  0
   13.1468   -5.6733    5.8086 O   0  0  0  0  0  0  0  0  0  0  0  0
  1  2  1  1  0  0  0
  1  3  1  0  0  0  0
  1 10  1  0  0  0  0
  3  4  1  6  0  0  0
  3  5  1  0  0  0  0
  5  6  1  1  0  0  0
  5  7  1  0  0  0  0
  7  8  1  1  0  0  0
  7  9  1  0  0  0  0
  9 10  1  6  0  0  0
  9 11  1  0  0  0  0
 11 12  1  6  0  0  0
 11 13  1  0  0  0  0
 14 15  1  6  0  0  0
 14 16  1  0  0  0  0
 14 22  1  0  0  0  0
 16 17  1  0  0  0  0
 17 18  1  6  0  0  0
 17 19  1  0  0  0  0
 19  2  1  1  0  0  0
 19 20  1  0  0  0  0
 20 21  1  6  0  0  0
 20 22  1  0  0  0  0
 22 23  1  1  0  0  0
 24 23  1  6  0  0  0
 24 25  1  0  0  0  0
 24 34  1  0  0  0  0
 25 26  1  6  0  0  0
 25 27  1  0  0  0  0
 27 28  1  1  0  0  0
 27 30  1  0  0  0  0
 28 29  1  0  0  0  0
 30 31  1  1  0  0  0
 30 32  1  0  0  0  0
 30 33  1  0  0  0  0
 33 34  1  0  0  0  0
M  CHG  4   4   1  15   1  18   1  28   1
M  END
>  <CHROM.1>
-140.67086251,-168.76651794,-38.72788818,-174.20084269,-62.12168543,-110.88813061
78.64839293,42.75547917,-170.22135451,173.10018666,-87.52838076,-173.40493283
-179.22083347,-27.07758118,167.95730905,13.62035458,-8.59391753,6.84852256
1.33176950,-0.44562251,2.25884015

>  <Name>
1mwl

>  <RI>
0

>  <Rbt.Current_Directory>
/home/itssahil/PROJECTS/Mol_Feturizer/New_Systems/rnas/1mwl

>  <Rbt.Executable>
rbdock ($Id: //depot/dev/client3/rdock/2013.1/src/exe/rbdock.cxx#4 $)

>  <Rbt.Library>
libRbt.so (2013.1, Build901 2013/11/27)

>  <Rbt.Parameter_File>
/export/apps/rDock/src/rDock_2013.1_src/data/scripts/dock_solv.prm

>  <Rbt.Receptor>
prm/blind_docking_40.prm

>  <SCORE>
-41.9492

>  <SCORE.INTER>
-39.8472

>  <SCORE.INTER.CONST>
1

>  <SCORE.INTER.POLAR>
-4.90644

>  <SCORE.INTER.ROT>
6

>  <SCORE.INTER.SOLV>
25.7452

>  <SCORE.INTER.VDW>
-26.3918

>  <SCORE.INTER.norm>
-1.17198

>  <SCORE.INTRA>
-7.79117

>  <SCORE.INTRA.DIHEDRAL>
-21.1596

>  <SCORE.INTRA.DIHEDRAL.0>
42.0816

>  <SCORE.INTRA.POLAR>
0.144424

>  <SCORE.INTRA.POLAR.0>
-0.254682

>  <SCORE.INTRA.REPUL>
0.000484411

>  <SCORE.INTRA.REPUL.0>
0

>  <SCORE.INTRA.SOLV>
-0.816129

>  <SCORE.INTRA.SOLV.lig_0>
-109.803

>  <SCORE.INTRA.VDW>
2.70322

>  <SCORE.INTRA.VDW.0>
0.32176

>  <SCORE.INTRA.norm>
-0.229152

>  <SCORE.RESTR>
5.68925

>  <SCORE.RESTR.CAVITY>
5.68925

>  <SCORE.RESTR.norm>
0.167331

>  <SCORE.SYSTEM>
0

>  <SCORE.SYSTEM.CONST>
0

>  <SCORE.SYSTEM.DIHEDRAL>
0

>  <SCORE.SYSTEM.SOLV>
0

>  <SCORE.SYSTEM.norm>
0

>  <SCORE.heavy>
34

>  <SCORE.norm>
-1.2338

>  <RMSD>
32.205

$$$$
1mwl
 OpenBabel11021811403D
libRbt.so/2013.1/901 2013/11/27
 34 36  0  0  0  0  0  0  0  0999 V2000
   11.8982   -6.2463    5.2336 C   0  0  2  0  0  0  0  0  0  0  0  0
   12.9853   -7.0605    4.9113 O   0  0  0  0  0  0  0  0  0  0  0  0
   10.6981   -6.7038    4.3577 C   0  0  2  0  0  0  0  0  0  0  0  0
   10.3959   -8.1156    4.6124 N   0  3  0  0  0  0  0  0  0  0  0  0
   10.9895   -6.4464    2.8502 C   0  0  1  0  0  0  0  0  0  0  0  0
    9.9361   -6.8196    2.0813 O   0  0  0  0  0  0  0  0  0  0  0  0
   11.3093   -4.9273    2.6562 C   0  0  2  0  0  0  0  0  0  0  0  0
   11.5754   -4.6502    1.2653 O   0  0  0  0  0  0  0  0  0  0  0  0
   12.5411   -4.5643    3.5533 C   0  0  2  0  0  0  0  0  0  0  0  0
   12.2486   -4.8631    4.9727 O   0  0  0  0  0  0  0  0  0  0  0  0
   12.9666   -3.0929    3.4908 C   0  0  2  0  0  0  0  0  0  0  0  0
   12.8009   -2.6121    2.1967 O   0  0  0  0  0  0  0  0  0  0  0  0
   14.4459   -2.8630    3.8501 C   0  0  0  0  0  0  0  0  0  0  0  0
   15.6900   -9.3742    7.2758 C   0  0  2  0  0  0  0  0  0  0  0  0
   16.7742   -9.7287    8.2267 N   0  3  0  0  0  0  0  0  0  0  0  0
   16.2609   -8.5905    6.0569 C   0  0  0  0  0  0  0  0  0  0  0  0
   15.1035   -8.2043    5.0663 C   0  0  2  0  0  0  0  0  0  0  0  0
   15.6877   -7.4559    3.8936 N   0  3  0  0  0  0  0  0  0  0  0  0
   14.0347   -7.3469    5.8270 C   0  0  2  0  0  0  0  0  0  0  0  0
   13.4807   -8.1552    7.0257 C   0  0  2  0  0  0  0  0  0  0  0  0
   12.5479   -7.3632    7.7205 O   0  0  0  0  0  0  0  0  0  0  0  0
   14.6330   -8.5147    8.0016 C   0  0  1  0  0  0  0  0  0  0  0  0
   14.1025   -9.2524    9.0928 O   0  0  0  0  0  0  0  0  0  0  0  0
   13.3822  -10.4238    8.8248 C   0  0  2  0  0  0  0  0  0  0  0  0
   12.1923  -10.4682    9.8021 C   0  0  2  0  0  0  0  0  0  0  0  0
   11.3688   -9.3444    9.5753 O   0  0  0  0  0  0  0  0  0  0  0  0
   12.7354  -10.4734   11.2718 C   0  0  1  0  0  0  0  0  0  0  0  0
   11.6467  -10.4856   12.2791 N   0  3  0  0  0  0  0  0  0  0  0  0
   11.6758   -9.2492   13.1015 C   0  0  0  0  0  0  0  0  0  0  0  0
   13.6645  -11.7197   11.4729 C   0  0  2  0  0  0  0  0  0  0  0  0
   12.9189  -12.9293   11.2392 O   0  0  0  0  0  0  0  0  0  0  0  0
   14.2001  -11.7892   12.8204 C   0  0  0  0  0  0  0  0  0  0  0  0
   14.8134  -11.7068   10.4180 C   0  0  0  0  0  0  0  0  0  0  0  0
   14.2538  -11.5931    9.0314 O   0  0  0  0  0  0  0  0  0  0  0  0
  1  2  1  6  0  0  0
  1  3  1  0  0  0  0
  1 10  1  0  0  0  0
  3  4  1  6  0  0  0
  3  5  1  0  0  0  0
  5  6  1  6  0  0  0
  5  7  1  0  0  0  0
  7  8  1  6  0  0  0
  7  9  1  0  0  0  0
  9 10  1  1  0  0  0
  9 11  1  0  0  0  0
 11 12  1  6  0  0  0
 11 13  1  0  0  0  0
 14 15  1  1  0  0  0
 14 16  1  0  0  0  0
 14 22  1  0  0  0  0
 16 17  1  0  0  0  0
 17 18  1  6  0  0  0
 17 19  1  0  0  0  0
 19  2  1  6  0  0  0
 19 20  1  0  0  0  0
 20 21  1  1  0  0  0
 20 22  1  0  0  0  0
 22 23  1  1  0  0  0
 24 23  1  1  0  0  0
 24 25  1  0  0  0  0
 24 34  1  0  0  0  0
 25 26  1  1  0  0  0
 25 27  1  0  0  0  0
 27 28  1  1  0  0  0
 27 30  1  0  0  0  0
 28 29  1  0  0  0  0
 30 31  1  6  0  0  0
 30 32  1  0  0  0  0
 30 33  1  0  0  0  0
 33 34  1  0  0  0  0
M  CHG  4   4   1  15   1  18   1  28   1
M  END
>  <CHROM.1>
-152.52902846,-176.19387643,63.94724045,-86.85589026,-54.91135451,-36.57738643
-54.99138239,-54.43788940,-62.54300598,-174.84235644,-64.21279568,-140.64156084
79.50358595,3.33138121,-174.67061088,13.09710674,-8.03672816,6.86156356,1.68395390
0.12360733,-0.93186797

>  <Name>
1mwl

>  <RI>
0

>  <Rbt.Current_Directory>
/home/itssahil/PROJECTS/Mol_Feturizer/New_Systems/rnas/1mwl

>  <Rbt.Executable>
rbdock ($Id: //depot/dev/client3/rdock/2013.1/src/exe/rbdock.cxx#4 $)

>  <Rbt.Library>
libRbt.so (2013.1, Build901 2013/11/27)

>  <Rbt.Parameter_File>
/export/apps/rDock/src/rDock_2013.1_src/data/scripts/dock_solv.prm

>  <Rbt.Receptor>
prm/blind_docking_40.prm

>  <SCORE>
-52.8934

>  <SCORE.INTER>
-41.9229

>  <SCORE.INTER.CONST>
1

>  <SCORE.INTER.POLAR>
-4.69741

>  <SCORE.INTER.ROT>
6

>  <SCORE.INTER.SOLV>
22.344

>  <SCORE.INTER.VDW>
-27.3386

>  <SCORE.INTER.norm>
-1.23303

>  <SCORE.INTRA>
-16.0595

>  <SCORE.INTRA.DIHEDRAL>
-22.6084

>  <SCORE.INTRA.DIHEDRAL.0>
42.0816

>  <SCORE.INTRA.POLAR>
-0.577194

>  <SCORE.INTRA.POLAR.0>
-0.254682

>  <SCORE.INTRA.REPUL>
0

>  <SCORE.INTRA.REPUL.0>
0

>  <SCORE.INTRA.SOLV>
-1.06086

>  <SCORE.INTRA.SOLV.lig_0>
-109.803

>  <SCORE.INTRA.VDW>
-2.26244

>  <SCORE.INTRA.VDW.0>
0.32176

>  <SCORE.INTRA.norm>
-0.472339

>  <SCORE.RESTR>
5.08901

>  <SCORE.RESTR.CAVITY>
5.08901

>  <SCORE.RESTR.norm>
0.149677

>  <SCORE.SYSTEM>
0

>  <SCORE.SYSTEM.CONST>
0

>  <SCORE.SYSTEM.DIHEDRAL>
0

>  <SCORE.SYSTEM.SOLV>
0

>  <SCORE.SYSTEM.norm>
0

>  <SCORE.heavy>
34

>  <SCORE.norm>
-1.55569

>  <RMSD>
32.283

$$$$
1mwl
 OpenBabel11021811403D
libRbt.so/2013.1/901 2013/11/27
 34 36  0  0  0  0  0  0  0  0999 V2000
   11.9594   -6.0928    5.1690 C   0  0  2  0  0  0  0  0  0  0  0  0
   12.9760   -6.9879    4.8315 O   0  0  0  0  0  0  0  0  0  0  0  0
   10.6810   -6.5287    4.3993 C   0  0  2  0  0  0  0  0  0  0  0  0
   10.3179   -7.9026    4.7598 N   0  3  0  0  0  0  0  0  0  0  0  0
   10.8871   -6.3781    2.8636 C   0  0  1  0  0  0  0  0  0  0  0  0
    9.7666   -6.7325    2.1860 O   0  0  0  0  0  0  0  0  0  0  0  0
   11.2777   -4.8948    2.5557 C   0  0  2  0  0  0  0  0  0  0  0  0
   11.4673   -4.7162    1.1364 O   0  0  0  0  0  0  0  0  0  0  0  0
   12.5838   -4.5537    3.3505 C   0  0  2  0  0  0  0  0  0  0  0  0
   12.3685   -4.7507    4.8011 O   0  0  0  0  0  0  0  0  0  0  0  0
   13.0856   -3.1165    3.1700 C   0  0  2  0  0  0  0  0  0  0  0  0
   13.1884   -2.8231    1.8148 O   0  0  0  0  0  0  0  0  0  0  0  0
   14.4813   -2.8706    3.7715 C   0  0  0  0  0  0  0  0  0  0  0  0
   15.7977   -9.3090    7.0474 C   0  0  2  0  0  0  0  0  0  0  0  0
   16.9272   -9.6665    7.9429 N   0  3  0  0  0  0  0  0  0  0  0  0
   16.3074   -8.5146    5.8084 C   0  0  0  0  0  0  0  0  0  0  0  0
   15.1028   -8.1253    4.8770 C   0  0  2  0  0  0  0  0  0  0  0  0
   15.6280   -7.3664    3.6833 N   0  3  0  0  0  0  0  0  0  0  0  0
   14.0687   -7.2771    5.6941 C   0  0  2  0  0  0  0  0  0  0  0  0
   13.5752   -8.0960    6.9119 C   0  0  2  0  0  0  0  0  0  0  0  0
   12.6740   -7.3124    7.6561 O   0  0  0  0  0  0  0  0  0  0  0  0
   14.7738   -8.4585    7.8290 C   0  0  1  0  0  0  0  0  0  0  0  0
   14.2983   -9.2059    8.9388 O   0  0  0  0  0  0  0  0  0  0  0  0
   13.5694  -10.3776    8.6968 C   0  0  2  0  0  0  0  0  0  0  0  0
   12.3734  -10.3864    9.6675 C   0  0  2  0  0  0  0  0  0  0  0  0
   11.5611   -9.2618    9.4067 O   0  0  0  0  0  0  0  0  0  0  0  0
   12.9076  -10.3581   11.1402 C   0  0  1  0  0  0  0  0  0  0  0  0
   11.8129  -10.3348   12.1407 N   0  3  0  0  0  0  0  0  0  0  0  0
   11.9164   -9.1329   13.0073 C   0  0  0  0  0  0  0  0  0  0  0  0
   13.8245  -11.6068   11.3793 C   0  0  2  0  0  0  0  0  0  0  0  0
   13.0698  -12.8155   11.1725 O   0  0  0  0  0  0  0  0  0  0  0  0
   14.3515  -11.6458   12.7314 C   0  0  0  0  0  0  0  0  0  0  0  0
   14.9798  -11.6311   10.3315 C   0  0  0  0  0  0  0  0  0  0  0  0
   14.4295  -11.5486    8.9390 O   0  0  0  0  0  0  0  0  0  0  0  0
  1  2  1  6  0  0  0
  1  3  1  0  0  0  0
  1 10  1  0  0  0  0
  3  4  1  6  0  0  0
  3  5  1  0  0  0  0
  5  6  1  6  0  0  0
  5  7  1  0  0  0  0
  7  8  1  6  0  0  0
  7  9  1  0  0  0  0
  9 10  1  1  0  0  0
  9 11  1  0  0  0  0
 11 12  1  6  0  0  0
 11 13  1  0  0  0  0
 14 15  1  1  0  0  0
 14 16  1  0  0  0  0
 14 22  1  0  0  0  0
 16 17  1  0  0  0  0
 17 18  1  6  0  0  0
 17 19  1  0  0  0  0
 19  2  1  6  0  0  0
 19 20  1  0  0  0  0
 20 21  1  1  0  0  0
 20 22  1  0  0  0  0
 22 23  1  1  0  0  0
 24 23  1  1  0  0  0
 24 25  1  0  0  0  0
 24 34  1  0  0  0  0
 25 26  1  6  0  0  0
 25 27  1  0  0  0  0
 27 28  1  1  0  0  0
 27 30  1  0  0  0  0
 28 29  1  0  0  0  0
 30 31  1  6  0  0  0
 30 32  1  0  0  0  0
 30 33  1  0  0  0  0
 33 34  1  0  0  0  0
M  CHG  4   4   1  15   1  18   1  28   1
M  END
>  <CHROM.1>
-152.83875451,-170.71510702,25.84512655,-94.32674189,-165.96810585,-51.93953919
176.62112220,-80.33783843,-178.01498191,-68.52749407,-64.23545027,-136.94445198
179.59971309,-1.47273766,-55.37668809,13.18347511,-7.95747318,6.74164306
1.69613854,0.12880608,-0.94021310

>  <Name>
1mwl

>  <RI>
0

>  <Rbt.Current_Directory>
/home/itssahil/PROJECTS/Mol_Feturizer/New_Systems/rnas/1mwl

>  <Rbt.Executable>
rbdock ($Id: //depot/dev/client3/rdock/2013.1/src/exe/rbdock.cxx#4 $)

>  <Rbt.Library>
libRbt.so (2013.1, Build901 2013/11/27)

>  <Rbt.Parameter_File>
/export/apps/rDock/src/rDock_2013.1_src/data/scripts/dock_solv.prm

>  <Rbt.Receptor>
prm/blind_docking_40.prm

>  <SCORE>
-52.146

>  <SCORE.INTER>
-42.9443

>  <SCORE.INTER.CONST>
1

>  <SCORE.INTER.POLAR>
-5.55231

>  <SCORE.INTER.ROT>
6

>  <SCORE.INTER.SOLV>
22.9873

>  <SCORE.INTER.VDW>
-25.3843

>  <SCORE.INTER.norm>
-1.26307

>  <SCORE.INTRA>
-13.694

>  <SCORE.INTRA.DIHEDRAL>
-19.7073

>  <SCORE.INTRA.DIHEDRAL.0>
42.0816

>  <SCORE.INTRA.POLAR>
-0.48961

>  <SCORE.INTRA.POLAR.0>
-0.254682

>  <SCORE.INTRA.REPUL>
0.018015

>  <SCORE.INTRA.REPUL.0>
0

>  <SCORE.INTRA.SOLV>
-0.0843048

>  <SCORE.INTRA.SOLV.lig_0>
-109.803

>  <SCORE.INTRA.VDW>
-2.22364

>  <SCORE.INTRA.VDW.0>
0.32176

>  <SCORE.INTRA.norm>
-0.402766

>  <SCORE.RESTR>
4.49234

>  <SCORE.RESTR.CAVITY>
4.49234

>  <SCORE.RESTR.norm>
0.132128

>  <SCORE.SYSTEM>
0

>  <SCORE.SYSTEM.CONST>
0

>  <SCORE.SYSTEM.DIHEDRAL>
0

>  <SCORE.SYSTEM.SOLV>
0

>  <SCORE.SYSTEM.norm>
0

>  <SCORE.heavy>
34

>  <SCORE.norm>
-1.53371

>  <RMSD>
32.369

$$$$
1mwl
 OpenBabel11021811403D
libRbt.so/2013.1/901 2013/11/27
 34 36  0  0  0  0  0  0  0  0999 V2000
   11.7937   -6.4260    5.1258 C   0  0  2  0  0  0  0  0  0  0  0  0
   12.8582   -7.2667    4.7964 O   0  0  0  0  0  0  0  0  0  0  0  0
   10.6830   -6.6419    4.0595 C   0  0  2  0  0  0  0  0  0  0  0  0
   10.2633   -8.0465    4.0444 N   0  3  0  0  0  0  0  0  0  0  0  0
   11.1722   -6.1781    2.6562 C   0  0  1  0  0  0  0  0  0  0  0  0
   10.1992   -6.3396    1.7249 O   0  0  0  0  0  0  0  0  0  0  0  0
   11.6088   -4.6788    2.7504 C   0  0  2  0  0  0  0  0  0  0  0  0
   12.0598   -4.2117    1.4617 O   0  0  0  0  0  0  0  0  0  0  0  0
   12.7421   -4.5618    3.8254 C   0  0  2  0  0  0  0  0  0  0  0  0
   12.2601   -5.0526    5.1354 O   0  0  0  0  0  0  0  0  0  0  0  0
   13.2643   -3.1386    4.0523 C   0  0  2  0  0  0  0  0  0  0  0  0
   12.1931   -2.2610    4.1773 O   0  0  0  0  0  0  0  0  0  0  0  0
   14.1253   -2.6054    2.8926 C   0  0  0  0  0  0  0  0  0  0  0  0
   15.8105   -9.5662    6.8594 C   0  0  2  0  0  0  0  0  0  0  0  0
   16.9128   -9.9296    7.7859 N   0  3  0  0  0  0  0  0  0  0  0  0
   16.2915   -8.5130    5.8176 C   0  0  0  0  0  0  0  0  0  0  0  0
   15.1132   -8.1217    4.8539 C   0  0  2  0  0  0  0  0  0  0  0  0
   15.6112   -7.1091    3.8523 N   0  3  0  0  0  0  0  0  0  0  0  0
   13.9171   -7.5622    5.6982 C   0  0  2  0  0  0  0  0  0  0  0  0
   13.4569   -8.6337    6.7167 C   0  0  2  0  0  0  0  0  0  0  0  0
   12.4062   -8.1082    7.4912 O   0  0  0  0  0  0  0  0  0  0  0  0
   14.6267   -8.9971    7.6701 C   0  0  1  0  0  0  0  0  0  0  0  0
   14.1821   -9.9778    8.5958 O   0  0  0  0  0  0  0  0  0  0  0  0
   14.4632   -9.7940    9.9559 C   0  0  2  0  0  0  0  0  0  0  0  0
   14.4751  -11.1851   10.6173 C   0  0  2  0  0  0  0  0  0  0  0  0
   15.4909  -11.9668   10.0259 O   0  0  0  0  0  0  0  0  0  0  0  0
   13.0726  -11.8566   10.4252 C   0  0  1  0  0  0  0  0  0  0  0  0
   13.0101  -13.2180   11.0107 N   0  3  0  0  0  0  0  0  0  0  0  0
   13.5615  -13.2244   12.3898 C   0  0  0  0  0  0  0  0  0  0  0  0
   11.9728  -10.9454   11.0711 C   0  0  2  0  0  0  0  0  0  0  0  0
   12.2329  -10.7863   12.4784 O   0  0  0  0  0  0  0  0  0  0  0  0
   10.6438  -11.5131   10.9331 C   0  0  0  0  0  0  0  0  0  0  0  0
   12.0328   -9.5143   10.4535 C   0  0  0  0  0  0  0  0  0  0  0  0
   13.4185   -8.9514   10.5627 O   0  0  0  0  0  0  0  0  0  0  0  0
  1  2  1  6  0  0  0
  1  3  1  0  0  0  0
  1 10  1  0  0  0  0
  3  4  1  6  0  0  0
  3  5  1  0  0  0  0
  5  6  1  6  0  0  0
  5  7  1  0  0  0  0
  7  8  1  6  0  0  0
  7  9  1  0  0  0  0
  9 10  1  1  0  0  0
  9 11  1  0  0  0  0
 11 12  1  6  0  0  0
 11 13  1  0  0  0  0
 14 15  1  1  0  0  0
 14 16  1  0  0  0  0
 14 22  1  0  0  0  0
 16 17  1  0  0  0  0
 17 18  1  6  0  0  0
 17 19  1  0  0  0  0
 19  2  1  6  0  0  0
 19 20  1  0  0  0  0
 20 21  1  1  0  0  0
 20 22  1  0  0  0  0
 22 23  1  1  0  0  0
 24 23  1  6  0  0  0
 24 25  1  0  0  0  0
 24 34  1  0  0  0  0
 25 26  1  6  0  0  0
 25 27  1  0  0  0  0
 27 28  1  1  0  0  0
 27 30  1  0  0  0  0
 28 29  1  0  0  0  0
 30 31  1  1  0  0  0
 30 32  1  0  0  0  0
 30 33  1  0  0  0  0
 33 34  1  0  0  0  0
M  CHG  4   4   1  15   1  18   1  28   1
M  END
>  <CHROM.1>
-165.49758690,-161.82177042,127.33399832,-70.18496063,66.13701040,46.48111625
175.79610950,36.74045669,-175.73393286,-54.47926969,107.34852878,-154.78345113
81.33476815,167.80886094,-79.99236426,13.16696750,-8.14229508,6.81179690
1.68739596,0.09091294,-0.86536484

>  <Name>
1mwl

>  <RI>
0

>  <Rbt.Current_Directory>
/home/itssahil/PROJECTS/Mol_Feturizer/New_Systems/rnas/1mwl

>  <Rbt.Executable>
rbdock ($Id: //depot/dev/client3/rdock/2013.1/src/exe/rbdock.cxx#4 $)

>  <Rbt.Library>
libRbt.so (2013.1, Build901 2013/11/27)

>  <Rbt.Parameter_File>
/export/apps/rDock/src/rDock_2013.1_src/data/scripts/dock_solv.prm

>  <Rbt.Receptor>
prm/blind_docking_40.prm

>  <SCORE>
-42.2616

>  <SCORE.INTER>
-39.3416

>  <SCORE.INTER.CONST>
1

>  <SCORE.INTER.POLAR>
-5.42503

>  <SCORE.INTER.ROT>
6

>  <SCORE.INTER.SOLV>
24.0273

>  <SCORE.INTER.VDW>
-23.7534

>  <SCORE.INTER.norm>
-1.15711

>  <SCORE.INTRA>
-7.68704

>  <SCORE.INTRA.DIHEDRAL>
-20.1487

>  <SCORE.INTRA.DIHEDRAL.0>
42.0816

>  <SCORE.INTRA.POLAR>
0.195022

>  <SCORE.INTRA.POLAR.0>
-0.254682

>  <SCORE.INTRA.REPUL>
0

>  <SCORE.INTRA.REPUL.0>
0

>  <SCORE.INTRA.SOLV>
-1.58131

>  <SCORE.INTRA.SOLV.lig_0>
-109.803

>  <SCORE.INTRA.VDW>
2.51491

>  <SCORE.INTRA.VDW.0>
0.32176

>  <SCORE.INTRA.norm>
-0.226089

>  <SCORE.RESTR>
4.76708

>  <SCORE.RESTR.CAVITY>
4.76708

>  <SCORE.RESTR.norm>
0.140208

>  <SCORE.SYSTEM>
0

>  <SCORE.SYSTEM.CONST>
0

>  <SCORE.SYSTEM.DIHEDRAL>
0

>  <SCORE.SYSTEM.SOLV>
0

>  <SCORE.SYSTEM.norm>
0

>  <SCORE.heavy>
34

>  <SCORE.norm>
-1.24299

>  <RMSD>
32.442

$$$$
1mwl
 OpenBabel11021811403D
libRbt.so/2013.1/901 2013/11/27
 34 36  0  0  0  0  0  0  0  0999 V2000
   11.5772   -6.7031    5.3481 C   0  0  2  0  0  0  0  0  0  0  0  0
   12.7390   -7.3721    4.9590 O   0  0  0  0  0  0  0  0  0  0  0  0
   10.4858   -7.0086    4.2840 C   0  0  2  0  0  0  0  0  0  0  0  0
   10.2591   -8.4542    4.1932 N   0  3  0  0  0  0  0  0  0  0  0  0
   10.8811   -6.4061    2.9040 C   0  0  1  0  0  0  0  0  0  0  0  0
    9.9212   -6.6466    1.9761 O   0  0  0  0  0  0  0  0  0  0  0  0
   11.1132   -4.8688    3.0788 C   0  0  2  0  0  0  0  0  0  0  0  0
   11.4725   -4.2745    1.8139 O   0  0  0  0  0  0  0  0  0  0  0  0
   12.2407   -4.6586    4.1458 C   0  0  2  0  0  0  0  0  0  0  0  0
   11.8543   -5.2817    5.4310 O   0  0  0  0  0  0  0  0  0  0  0  0
   12.5703   -3.1923    4.4478 C   0  0  2  0  0  0  0  0  0  0  0  0
   11.4180   -2.4216    4.3409 O   0  0  0  0  0  0  0  0  0  0  0  0
   13.5924   -2.5770    3.4746 C   0  0  0  0  0  0  0  0  0  0  0  0
   15.9278   -9.3979    6.9558 C   0  0  2  0  0  0  0  0  0  0  0  0
   17.0841   -9.6582    7.8507 N   0  3  0  0  0  0  0  0  0  0  0  0
   16.2907   -8.3274    5.8843 C   0  0  0  0  0  0  0  0  0  0  0  0
   15.0553   -8.0459    4.9545 C   0  0  2  0  0  0  0  0  0  0  0  0
   15.4396   -7.0138    3.9231 N   0  3  0  0  0  0  0  0  0  0  0  0
   13.8459   -7.5685    5.8296 C   0  0  2  0  0  0  0  0  0  0  0  0
   13.5044   -8.6559    6.8775 C   0  0  2  0  0  0  0  0  0  0  0  0
   12.4403   -8.2021    7.6786 O   0  0  0  0  0  0  0  0  0  0  0  0
   14.7288   -8.9105    7.7970 C   0  0  1  0  0  0  0  0  0  0  0  0
   14.3927   -9.9078    8.7502 O   0  0  0  0  0  0  0  0  0  0  0  0
   14.9930   -9.8575   10.0151 C   0  0  2  0  0  0  0  0  0  0  0  0
   15.4490  -11.2861   10.3671 C   0  0  2  0  0  0  0  0  0  0  0  0
   16.3950  -11.7156    9.4115 O   0  0  0  0  0  0  0  0  0  0  0  0
   14.2015  -12.2341   10.3811 C   0  0  1  0  0  0  0  0  0  0  0  0
   14.5610  -13.6408   10.6843 N   0  3  0  0  0  0  0  0  0  0  0  0
   15.1226  -14.3117    9.4841 C   0  0  0  0  0  0  0  0  0  0  0  0
   13.1665  -11.7075   11.4339 C   0  0  2  0  0  0  0  0  0  0  0  0
   13.7646  -11.6925   12.7437 O   0  0  0  0  0  0  0  0  0  0  0  0
   11.9835  -12.5459   11.5026 C   0  0  0  0  0  0  0  0  0  0  0  0
   12.7828  -10.2297   11.1145 C   0  0  0  0  0  0  0  0  0  0  0  0
   14.0124   -9.3785   11.0042 O   0  0  0  0  0  0  0  0  0  0  0  0
  1  2  1  6  0  0  0
  1  3  1  0  0  0  0
  1 10  1  0  0  0  0
  3  4  1  6  0  0  0
  3  5  1  0  0  0  0
  5  6  1  6  0  0  0
  5  7  1  0  0  0  0
  7  8  1  6  0  0  0
  7  9  1  0  0  0  0
  9 10  1  1  0  0  0
  9 11  1  0  0  0  0
 11 12  1  6  0  0  0
 11 13  1  0  0  0  0
 14 15  1  1  0  0  0
 14 16  1  0  0  0  0
 14 22  1  0  0  0  0
 16 17  1  0  0  0  0
 17 18  1  6  0  0  0
 17 19  1  0  0  0  0
 19  2  1  6  0  0  0
 19 20  1  0  0  0  0
 20 21  1  1  0  0  0
 20 22  1  0  0  0  0
 22 23  1  1  0  0  0
 24 23  1  6  0  0  0
 24 25  1  0  0  0  0
 24 34  1  0  0  0  0
 25 26  1  6  0  0  0
 25 27  1  0  0  0  0
 27 28  1  1  0  0  0
 27 30  1  0  0  0  0
 28 29  1  0  0  0  0
 30 31  1  1  0  0  0
 30 32  1  0  0  0  0
 30 33  1  0  0  0  0
 33 34  1  0  0  0  0
M  CHG  4   4   1  15   1  18   1  28   1
M  END
>  <CHROM.1>
-165.60302257,-167.08450574,-45.11497406,179.89707210,-52.39324513,33.30930249
85.57410708,-158.32539527,64.50414788,-174.22527069,90.91749680,-134.90330787
-78.36616413,41.40218560,-56.43850659,13.38479017,-8.36012103,6.89772618
1.83735277,0.03181218,-0.80879513

>  <Name>
1mwl

>  <RI>
0

>  <Rbt.Current_Directory>
/home/itssahil/PROJECTS/Mol_Feturizer/New_Systems/rnas/1mwl

>  <Rbt.Executable>
rbdock ($Id: //depot/dev/client3/rdock/2013.1/src/exe/rbdock.cxx#4 $)

>  <Rbt.Library>
libRbt.so (2013.1, Build901 2013/11/27)

>  <Rbt.Parameter_File>
/export/apps/rDock/src/rDock_2013.1_src/data/scripts/dock_solv.prm

>  <Rbt.Receptor>
prm/blind_docking_40.prm

>  <SCORE>
-62.1491

>  <SCORE.INTER>
-50.922

>  <SCORE.INTER.CONST>
1

>  <SCORE.INTER.POLAR>
-6.13853

>  <SCORE.INTER.ROT>
6

>  <SCORE.INTER.SOLV>
27.0511

>  <SCORE.INTER.VDW>
-30.1032

>  <SCORE.INTER.norm>
-1.4977

>  <SCORE.INTRA>
-14.7738

>  <SCORE.INTRA.DIHEDRAL>
-20.8818

>  <SCORE.INTRA.DIHEDRAL.0>
42.0816

>  <SCORE.INTRA.POLAR>
-0.659355

>  <SCORE.INTRA.POLAR.0>
-0.254682

>  <SCORE.INTRA.REPUL>
0

>  <SCORE.INTRA.REPUL.0>
0

>  <SCORE.INTRA.SOLV>
0.671037

>  <SCORE.INTRA.SOLV.lig_0>
-109.803

>  <SCORE.INTRA.VDW>
-2.4266

>  <SCORE.INTRA.VDW.0>
0.32176

>  <SCORE.INTRA.norm>
-0.434523

>  <SCORE.RESTR>
3.54664

>  <SCORE.RESTR.CAVITY>
3.54664

>  <SCORE.RESTR.norm>
0.104313

>  <SCORE.SYSTEM>
0

>  <SCORE.SYSTEM.CONST>
0

>  <SCORE.SYSTEM.DIHEDRAL>
0

>  <SCORE.SYSTEM.SOLV>
0

>  <SCORE.SYSTEM.norm>
0

>  <SCORE.heavy>
34

>  <SCORE.norm>
-1.82791

>  <RMSD>
32.712

$$$$
1mwl
 OpenBabel11021811403D
libRbt.so/2013.1/901 2013/11/27
 34 36  0  0  0  0  0  0  0  0999 V2000
   11.8358   -6.2683    5.1373 C   0  0  2  0  0  0  0  0  0  0  0  0
   12.8877   -7.1331    4.8303 O   0  0  0  0  0  0  0  0  0  0  0  0
   10.6366   -6.6519    4.2253 C   0  0  2  0  0  0  0  0  0  0  0  0
   10.2562   -8.0495    4.4519 N   0  3  0  0  0  0  0  0  0  0  0  0
   10.9792   -6.3899    2.7294 C   0  0  1  0  0  0  0  0  0  0  0  0
    9.9281   -6.6983    1.9292 O   0  0  0  0  0  0  0  0  0  0  0  0
   11.3811   -4.8869    2.5654 C   0  0  2  0  0  0  0  0  0  0  0  0
   11.6965   -4.6056    1.1856 O   0  0  0  0  0  0  0  0  0  0  0  0
   12.6065   -4.5996    3.4980 C   0  0  2  0  0  0  0  0  0  0  0  0
   12.2631   -4.9017    4.9051 O   0  0  0  0  0  0  0  0  0  0  0  0
   13.1082   -3.1514    3.4673 C   0  0  2  0  0  0  0  0  0  0  0  0
   14.2500   -3.0346    4.2521 O   0  0  0  0  0  0  0  0  0  0  0  0
   12.0950   -2.1359    4.0265 C   0  0  0  0  0  0  0  0  0  0  0  0
   15.8175   -9.4222    6.9365 C   0  0  2  0  0  0  0  0  0  0  0  0
   16.9133   -9.7798    7.8728 N   0  3  0  0  0  0  0  0  0  0  0  0
   16.3092   -8.3851    5.8836 C   0  0  0  0  0  0  0  0  0  0  0  0
   15.1376   -7.9997    4.9094 C   0  0  2  0  0  0  0  0  0  0  0  0
   15.6459   -7.0028    3.8973 N   0  3  0  0  0  0  0  0  0  0  0  0
   13.9407   -7.4229    5.7408 C   0  0  2  0  0  0  0  0  0  0  0  0
   13.4698   -8.4786    6.7707 C   0  0  2  0  0  0  0  0  0  0  0  0
   12.4184   -7.9375    7.5334 O   0  0  0  0  0  0  0  0  0  0  0  0
   14.6330   -8.8363    7.7342 C   0  0  1  0  0  0  0  0  0  0  0  0
   14.1786   -9.8026    8.6702 O   0  0  0  0  0  0  0  0  0  0  0  0
   14.9729  -10.0774    9.7910 C   0  0  2  0  0  0  0  0  0  0  0  0
   15.1766  -11.6032    9.8500 C   0  0  2  0  0  0  0  0  0  0  0  0
   15.8470  -12.0232    8.6809 O   0  0  0  0  0  0  0  0  0  0  0  0
   13.7801  -12.3028    9.9731 C   0  0  1  0  0  0  0  0  0  0  0  0
   13.8872  -13.7818   10.0061 N   0  3  0  0  0  0  0  0  0  0  0  0
   15.2139  -14.2028   10.5244 C   0  0  0  0  0  0  0  0  0  0  0  0
   13.0594  -11.7896   11.2671 C   0  0  2  0  0  0  0  0  0  0  0  0
   13.8516  -12.1060   12.4272 O   0  0  0  0  0  0  0  0  0  0  0  0
   11.7564  -12.4040   11.4460 C   0  0  0  0  0  0  0  0  0  0  0  0
   12.9408  -10.2346   11.2327 C   0  0  0  0  0  0  0  0  0  0  0  0
   14.2847   -9.6090   11.0061 O   0  0  0  0  0  0  0  0  0  0  0  0
  1  2  1  6  0  0  0
  1  3  1  0  0  0  0
  1 10  1  0  0  0  0
  3  4  1  6  0  0  0
  3  5  1  0  0  0  0
  5  6  1  6  0  0  0
  5  7  1  0  0  0  0
  7  8  1  6  0  0  0
  7  9  1  0  0  0  0
  9 10  1  1  0  0  0
  9 11  1  0  0  0  0
 11 12  1  1  0  0  0
 11 13  1  0  0  0  0
 14 15  1  1  0  0  0
 14 16  1  0  0  0  0
 14 22  1  0  0  0  0
 16 17  1  0  0  0  0
 17 18  1  6  0  0  0
 17 19  1  0  0  0  0
 19  2  1  6  0  0  0
 19 20  1  0  0  0  0
 20 21  1  1  0  0  0
 20 22  1  0  0  0  0
 22 23  1  1  0  0  0
 24 23  1  6  0  0  0
 24 25  1  0  0  0  0
 24 34  1  0  0  0  0
 25 26  1  6  0  0  0
 25 27  1  0  0  0  0
 27 28  1  1  0  0  0
 27 30  1  0  0  0  0
 28 29  1  0  0  0  0
 30 31  1  1  0  0  0
 30 32  1  0  0  0  0
 30 33  1  0  0  0  0
 33 34  1  0  0  0  0
M  CHG  4   4   1  15   1  18   1  28   1
M  END
>  <CHROM.1>
-156.39028102,-160.92836366,-97.10400979,-88.81710714,61.19319236,-175.71030510
-67.64006787,89.08551965,-61.90924883,-62.95352118,72.21640966,-127.80539055
-80.47054272,145.75030858,-60.87474233,13.44386709,-8.35254530,6.73292544
1.78419765,-0.10968396,-0.77347385

>  <Name>
1mwl

>  <RI>
0

>  <Rbt.Current_Directory>
/home/itssahil/PROJECTS/Mol_Feturizer/New_Systems/rnas/1mwl

>  <Rbt.Executable>
rbdock ($Id: //depot/dev/client3/rdock/2013.1/src/exe/rbdock.cxx#4 $)

>  <Rbt.Library>
libRbt.so (2013.1, Build901 2013/11/27)

>  <Rbt.Parameter_File>
/export/apps/rDock/src/rDock_2013.1_src/data/scripts/dock_solv.prm

>  <Rbt.Receptor>
prm/blind_docking_40.prm

>  <SCORE>
-54.1014

>  <SCORE.INTER>
-51.6713

>  <SCORE.INTER.CONST>
1

>  <SCORE.INTER.POLAR>
-6.04527

>  <SCORE.INTER.ROT>
6

>  <SCORE.INTER.SOLV>
24.3494

>  <SCORE.INTER.VDW>
-30.0131

>  <SCORE.INTER.norm>
-1.51975

>  <SCORE.INTRA>
-5.98302

>  <SCORE.INTRA.DIHEDRAL>
-18.3087

>  <SCORE.INTRA.DIHEDRAL.0>
42.0816

>  <SCORE.INTRA.POLAR>
-0.755424

>  <SCORE.INTRA.POLAR.0>
-0.254682

>  <SCORE.INTRA.REPUL>
0

>  <SCORE.INTRA.REPUL.0>
0

>  <SCORE.INTRA.SOLV>
0.834689

>  <SCORE.INTRA.SOLV.lig_0>
-109.803

>  <SCORE.INTRA.VDW>
5.32243

>  <SCORE.INTRA.VDW.0>
0.32176

>  <SCORE.INTRA.norm>
-0.175971

>  <SCORE.RESTR>
3.553

>  <SCORE.RESTR.CAVITY>
3.553

>  <SCORE.RESTR.norm>
0.1045

>  <SCORE.SYSTEM>
0

>  <SCORE.SYSTEM.CONST>
0

>  <SCORE.SYSTEM.DIHEDRAL>
0

>  <SCORE.SYSTEM.SOLV>
0

>  <SCORE.SYSTEM.norm>
0

>  <SCORE.heavy>
34

>  <SCORE.norm>
-1.59122

>  <RMSD>
32.796

$$$$
1mwl
 OpenBabel11021811403D
libRbt.so/2013.1/901 2013/11/27
 34 36  0  0  0  0  0  0  0  0999 V2000
   11.7393   -6.5227    5.3349 C   0  0  2  0  0  0  0  0  0  0  0  0
   12.7966   -7.3657    4.9883 O   0  0  0  0  0  0  0  0  0  0  0  0
   10.5969   -6.7627    4.3081 C   0  0  2  0  0  0  0  0  0  0  0  0
   10.1827   -8.1689    4.3327 N   0  3  0  0  0  0  0  0  0  0  0  0
   11.0401   -6.3240    2.8817 C   0  0  1  0  0  0  0  0  0  0  0  0
   10.0391   -6.5067    1.9845 O   0  0  0  0  0  0  0  0  0  0  0  0
   11.4731   -4.8216    2.9338 C   0  0  2  0  0  0  0  0  0  0  0  0
   11.8818   -4.3775    1.6231 O   0  0  0  0  0  0  0  0  0  0  0  0
   12.6390   -4.6802    3.9705 C   0  0  2  0  0  0  0  0  0  0  0  0
   12.2002   -5.1477    5.3040 O   0  0  0  0  0  0  0  0  0  0  0  0
   13.1621   -3.2510    4.1540 C   0  0  2  0  0  0  0  0  0  0  0  0
   12.1121   -2.4093    4.5038 O   0  0  0  0  0  0  0  0  0  0  0  0
   13.7866   -2.6545    2.8794 C   0  0  0  0  0  0  0  0  0  0  0  0
   15.9645   -9.4926    6.9120 C   0  0  2  0  0  0  0  0  0  0  0  0
   17.1257   -9.7924    7.7878 N   0  3  0  0  0  0  0  0  0  0  0  0
   16.3376   -8.4128    5.8533 C   0  0  0  0  0  0  0  0  0  0  0  0
   15.0973   -8.0894    4.9437 C   0  0  2  0  0  0  0  0  0  0  0  0
   15.4915   -7.0493    3.9242 N   0  3  0  0  0  0  0  0  0  0  0  0
   13.9095   -7.6003    5.8416 C   0  0  2  0  0  0  0  0  0  0  0  0
   13.5572   -8.6970    6.8761 C   0  0  2  0  0  0  0  0  0  0  0  0
   12.5132   -8.2333    7.6978 O   0  0  0  0  0  0  0  0  0  0  0  0
   14.7869   -8.9930    7.7758 C   0  0  1  0  0  0  0  0  0  0  0  0
   14.4407   -9.9982    8.7172 O   0  0  0  0  0  0  0  0  0  0  0  0
   14.8622   -9.8489   10.0448 C   0  0  2  0  0  0  0  0  0  0  0  0
   15.4236  -11.2069   10.5068 C   0  0  2  0  0  0  0  0  0  0  0  0
   16.5274  -11.5482    9.6959 O   0  0  0  0  0  0  0  0  0  0  0  0
   14.2974  -12.2909   10.3996 C   0  0  1  0  0  0  0  0  0  0  0  0
   14.7676  -13.6395   10.8001 N   0  3  0  0  0  0  0  0  0  0  0  0
   15.5075  -14.2911    9.6892 C   0  0  0  0  0  0  0  0  0  0  0  0
   13.0824  -11.8611   11.2919 C   0  0  2  0  0  0  0  0  0  0  0  0
   13.4998  -11.7460   12.6652 O   0  0  0  0  0  0  0  0  0  0  0  0
   12.0005  -12.8277   11.2428 C   0  0  0  0  0  0  0  0  0  0  0  0
   12.5825  -10.4452   10.8695 C   0  0  0  0  0  0  0  0  0  0  0  0
   13.7144   -9.4616   10.8827 O   0  0  0  0  0  0  0  0  0  0  0  0
  1  2  1  6  0  0  0
  1  3  1  0  0  0  0
  1 10  1  0  0  0  0
  3  4  1  6  0  0  0
  3  5  1  0  0  0  0
  5  6  1  6  0  0  0
  5  7  1  0  0  0  0
  7  8  1  6  0  0  0
  7  9  1  0  0  0  0
  9 10  1  1  0  0  0
  9 11  1  0  0  0  0
 11 12  1  6  0  0  0
 11 13  1  0  0  0  0
 14 15  1  1  0  0  0
 14 16  1  0  0  0  0
 14 22  1  0  0  0  0
 16 17  1  0  0  0  0
 17 18  1  6  0  0  0
 17 19  1  0  0  0  0
 19  2  1  6  0  0  0
 19 20  1  0  0  0  0
 20 21  1  1  0  0  0
 20 22  1  0  0  0  0
 22 23  1  1  0  0  0
 24 23  1  6  0  0  0
 24 25  1  0  0  0  0
 24 34  1  0  0  0  0
 25 26  1  6  0  0  0
 25 27  1  0  0  0  0
 27 28  1  1  0  0  0
 27 30  1  0  0  0  0
 28 29  1  0  0  0  0
 30 31  1  1  0  0  0
 30 32  1  0  0  0  0
 30 33  1  0  0  0  0
 33 34  1  0  0  0  0
M  CHG  4   4   1  15   1  18   1  28   1
M  END
>  <CHROM.1>
-167.96736428,-157.80550512,-101.00074034,-78.53588999,64.87069359,55.75856650
94.71660782,42.60947804,179.78993635,-59.14616979,102.41061499,-134.83692329
123.06141092,39.27147535,-56.00411076,13.49978106,-8.36754372,6.86304620
1.80600457,0.02400252,-0.80630782

>  <Name>
1mwl

>  <RI>
0

>  <Rbt.Current_Directory>
/home/itssahil/PROJECTS/Mol_Feturizer/New_Systems/rnas/1mwl

>  <Rbt.Executable>
rbdock ($Id: //depot/dev/client3/rdock/2013.1/src/exe/rbdock.cxx#4 $)

>  <Rbt.Library>
libRbt.so (2013.1, Build901 2013/11/27)

>  <Rbt.Parameter_File>
/export/apps/rDock/src/rDock_2013.1_src/data/scripts/dock_solv.prm

>  <Rbt.Receptor>
prm/blind_docking_40.prm

>  <SCORE>
-74.7899

>  <SCORE.INTER>
-69.0387

>  <SCORE.INTER.CONST>
1

>  <SCORE.INTER.POLAR>
-9.42692

>  <SCORE.INTER.ROT>
6

>  <SCORE.INTER.SOLV>
26.8285

>  <SCORE.INTER.VDW>
-31.1456

>  <SCORE.INTER.norm>
-2.03055

>  <SCORE.INTRA>
-9.5968

>  <SCORE.INTRA.DIHEDRAL>
-9.31793

>  <SCORE.INTRA.DIHEDRAL.0>
42.0816

>  <SCORE.INTRA.POLAR>
-0.911985

>  <SCORE.INTRA.POLAR.0>
-0.254682

>  <SCORE.INTRA.REPUL>
0

>  <SCORE.INTRA.REPUL.0>
0

>  <SCORE.INTRA.SOLV>
1.81827

>  <SCORE.INTRA.SOLV.lig_0>
-109.803

>  <SCORE.INTRA.VDW>
-2.74623

>  <SCORE.INTRA.VDW.0>
0.32176

>  <SCORE.INTRA.norm>
-0.282259

>  <SCORE.RESTR>
3.84557

>  <SCORE.RESTR.CAVITY>
3.84557

>  <SCORE.RESTR.norm>
0.113105

>  <SCORE.SYSTEM>
0

>  <SCORE.SYSTEM.CONST>
0

>  <SCORE.SYSTEM.DIHEDRAL>
0

>  <SCORE.SYSTEM.SOLV>
0

>  <SCORE.SYSTEM.norm>
0

>  <SCORE.heavy>
34

>  <SCORE.norm>
-2.1997

>  <RMSD>
32.816

$$$$
1mwl
 OpenBabel11021811403D
libRbt.so/2013.1/901 2013/11/27
 34 36  0  0  0  0  0  0  0  0999 V2000
   11.7836   -6.5265    5.4285 C   0  0  2  0  0  0  0  0  0  0  0  0
   12.8306   -7.3739    5.0618 O   0  0  0  0  0  0  0  0  0  0  0  0
   10.6076   -6.7874    4.4458 C   0  0  2  0  0  0  0  0  0  0  0  0
   10.1978   -8.1936    4.5101 N   0  3  0  0  0  0  0  0  0  0  0  0
   11.0011   -6.3742    2.9973 C   0  0  1  0  0  0  0  0  0  0  0  0
    9.9708   -6.5751    2.1381 O   0  0  0  0  0  0  0  0  0  0  0  0
   11.4322   -4.8704    3.0071 C   0  0  2  0  0  0  0  0  0  0  0  0
   11.7952   -4.4497    1.6754 O   0  0  0  0  0  0  0  0  0  0  0  0
   12.6322   -4.7079    4.0008 C   0  0  2  0  0  0  0  0  0  0  0  0
   12.2399   -5.1515    5.3568 O   0  0  0  0  0  0  0  0  0  0  0  0
   13.1579   -3.2747    4.1403 C   0  0  2  0  0  0  0  0  0  0  0  0
   12.0893   -2.3944    4.2689 O   0  0  0  0  0  0  0  0  0  0  0  0
   13.9684   -2.7940    2.9228 C   0  0  0  0  0  0  0  0  0  0  0  0
   16.0423   -9.5088    6.9021 C   0  0  2  0  0  0  0  0  0  0  0  0
   17.2187   -9.8145    7.7553 N   0  3  0  0  0  0  0  0  0  0  0  0
   16.3916   -8.4091    5.8559 C   0  0  0  0  0  0  0  0  0  0  0  0
   15.1354   -8.0799    4.9706 C   0  0  2  0  0  0  0  0  0  0  0  0
   15.5067   -7.0203    3.9627 N   0  3  0  0  0  0  0  0  0  0  0  0
   13.9579   -7.6143    5.8943 C   0  0  2  0  0  0  0  0  0  0  0  0
   13.6291   -8.7305    6.9156 C   0  0  2  0  0  0  0  0  0  0  0  0
   12.5944   -8.2881    7.7605 O   0  0  0  0  0  0  0  0  0  0  0  0
   14.8744   -9.0322    7.7917 C   0  0  1  0  0  0  0  0  0  0  0  0
   14.5497  -10.0553    8.7214 O   0  0  0  0  0  0  0  0  0  0  0  0
   14.9599   -9.9079   10.0528 C   0  0  2  0  0  0  0  0  0  0  0  0
   15.5308  -11.2626   10.5130 C   0  0  2  0  0  0  0  0  0  0  0  0
   16.6438  -11.5897    9.7089 O   0  0  0  0  0  0  0  0  0  0  0  0
   14.4158  -12.3568   10.3926 C   0  0  1  0  0  0  0  0  0  0  0  0
   14.8959  -13.7025   10.7907 N   0  3  0  0  0  0  0  0  0  0  0  0
   15.6022  -14.3646    9.6642 C   0  0  0  0  0  0  0  0  0  0  0  0
   13.1902  -11.9425   11.2777 C   0  0  2  0  0  0  0  0  0  0  0  0
   13.5962  -11.8296   12.6546 O   0  0  0  0  0  0  0  0  0  0  0  0
   12.1179  -12.9191   11.2162 C   0  0  0  0  0  0  0  0  0  0  0  0
   12.6799  -10.5296   10.8578 C   0  0  0  0  0  0  0  0  0  0  0  0
   13.8022   -9.5353   10.8838 O   0  0  0  0  0  0  0  0  0  0  0  0
  1  2  1  6  0  0  0
  1  3  1  0  0  0  0
  1 10  1  0  0  0  0
  3  4  1  6  0  0  0
  3  5  1  0  0  0  0
  5  6  1  6  0  0  0
  5  7  1  0  0  0  0
  7  8  1  6  0  0  0
  7  9  1  0  0  0  0
  9 10  1  1  0  0  0
  9 11  1  0  0  0  0
 11 12  1  6  0  0  0
 11 13  1  0  0  0  0
 14 15  1  1  0  0  0
 14 16  1  0  0  0  0
 14 22  1  0  0  0  0
 16 17  1  0  0  0  0
 17 18  1  6  0  0  0
 17 19  1  0  0  0  0
 19  2  1  6  0  0  0
 19 20  1  0  0  0  0
 20 21  1  1  0  0  0
 20 22  1  0  0  0  0
 22 23  1  1  0  0  0
 24 23  1  6  0  0  0
 24 25  1  0  0  0  0
 24 34  1  0  0  0  0
 25 26  1  6  0  0  0
 25 27  1  0  0  0  0
 27 28  1  1  0  0  0
 27 30  1  0  0  0  0
 28 29  1  0  0  0  0
 30 31  1  1  0  0  0
 30 32  1  0  0  0  0
 30 33  1  0  0  0  0
 33 34  1  0  0  0  0
M  CHG  4   4   1  15   1  18   1  28   1
M  END
>  <CHROM.1>
-166.49977098,-156.67233551,23.21722412,179.09695579,-60.14978847,45.00546920
175.30322002,-76.75625483,-67.76340871,177.78094926,104.07123716,-135.84888337
136.04987086,36.95602503,58.93062678,13.55940444,-8.40743688,6.88585001,1.81476580
0.01910007,-0.79812923

>  <Name>
1mwl

>  <RI>
0

>  <Rbt.Current_Directory>
/home/itssahil/PROJECTS/Mol_Feturizer/New_Systems/rnas/1mwl

>  <Rbt.Executable>
rbdock ($Id: //depot/dev/client3/rdock/2013.1/src/exe/rbdock.cxx#4 $)

>  <Rbt.Library>
libRbt.so (2013.1, Build901 2013/11/27)

>  <Rbt.Parameter_File>
/export/apps/rDock/src/rDock_2013.1_src/data/scripts/dock_solv.prm

>  <Rbt.Receptor>
prm/blind_docking_40.prm

>  <SCORE>
-69.8634

>  <SCORE.INTER>
-60.5745

>  <SCORE.INTER.CONST>
1

>  <SCORE.INTER.POLAR>
-8.10602

>  <SCORE.INTER.ROT>
6

>  <SCORE.INTER.SOLV>
26.9191

>  <SCORE.INTER.VDW>
-29.936

>  <SCORE.INTER.norm>
-1.7816

>  <SCORE.INTRA>
-13.3559

>  <SCORE.INTRA.DIHEDRAL>
-15.4631

>  <SCORE.INTRA.DIHEDRAL.0>
42.0816

>  <SCORE.INTRA.POLAR>
-0.911985

>  <SCORE.INTRA.POLAR.0>
-0.254682

>  <SCORE.INTRA.REPUL>
0

>  <SCORE.INTRA.REPUL.0>
0

>  <SCORE.INTRA.SOLV>
0.888151

>  <SCORE.INTRA.SOLV.lig_0>
-109.803

>  <SCORE.INTRA.VDW>
-2.9677

>  <SCORE.INTRA.VDW.0>
0.32176

>  <SCORE.INTRA.norm>
-0.392822

>  <SCORE.RESTR>
4.0671

>  <SCORE.RESTR.CAVITY>
4.0671

>  <SCORE.RESTR.norm>
0.119621

>  <SCORE.SYSTEM>
0

>  <SCORE.SYSTEM.CONST>
0

>  <SCORE.SYSTEM.DIHEDRAL>
0

>  <SCORE.SYSTEM.SOLV>
0

>  <SCORE.SYSTEM.norm>
0

>  <SCORE.heavy>
34

>  <SCORE.norm>
-2.05481

>  <RMSD>
32.870

$$$$
1mwl
 OpenBabel11021811403D
libRbt.so/2013.1/901 2013/11/27
 34 36  0  0  0  0  0  0  0  0999 V2000
   11.8309   -6.4602    5.2648 C   0  0  2  0  0  0  0  0  0  0  0  0
   12.9289   -7.2105    4.8403 O   0  0  0  0  0  0  0  0  0  0  0  0
   10.6783   -6.7078    4.2514 C   0  0  2  0  0  0  0  0  0  0  0  0
   10.3534   -8.1363    4.1948 N   0  3  0  0  0  0  0  0  0  0  0  0
   11.0544   -6.1528    2.8464 C   0  0  1  0  0  0  0  0  0  0  0  0
   10.0429   -6.3423    1.9626 O   0  0  0  0  0  0  0  0  0  0  0  0
   11.3942   -4.6320    2.9852 C   0  0  2  0  0  0  0  0  0  0  0  0
   11.7388   -4.0811    1.6968 O   0  0  0  0  0  0  0  0  0  0  0  0
   12.5767   -4.4819    4.0016 C   0  0  2  0  0  0  0  0  0  0  0  0
   12.2041   -5.0593    5.3120 O   0  0  0  0  0  0  0  0  0  0  0  0
   13.0145   -3.0365    4.2648 C   0  0  2  0  0  0  0  0  0  0  0  0
   11.8951   -2.2394    4.4770 O   0  0  0  0  0  0  0  0  0  0  0  0
   13.7803   -2.4006    3.0903 C   0  0  0  0  0  0  0  0  0  0  0  0
   16.0824   -9.4075    6.7080 C   0  0  2  0  0  0  0  0  0  0  0  0
   17.2559   -9.7317    7.5584 N   0  3  0  0  0  0  0  0  0  0  0  0
   16.4595   -8.3487    5.6297 C   0  0  0  0  0  0  0  0  0  0  0  0
   15.2068   -7.9991    4.7473 C   0  0  2  0  0  0  0  0  0  0  0  0
   15.6047   -6.9801    3.7080 N   0  3  0  0  0  0  0  0  0  0  0  0
   14.0555   -7.4682    5.6687 C   0  0  2  0  0  0  0  0  0  0  0  0
   13.6981   -8.5448    6.7225 C   0  0  2  0  0  0  0  0  0  0  0  0
   12.6879   -8.0442    7.5645 O   0  0  0  0  0  0  0  0  0  0  0  0
   14.9408   -8.8668    7.5951 C   0  0  1  0  0  0  0  0  0  0  0  0
   14.5899   -9.8530    8.5546 O   0  0  0  0  0  0  0  0  0  0  0  0
   14.9246   -9.6330    9.8971 C   0  0  2  0  0  0  0  0  0  0  0  0
   15.6712  -10.8839   10.3980 C   0  0  2  0  0  0  0  0  0  0  0  0
   16.8490  -11.0515    9.6383 O   0  0  0  0  0  0  0  0  0  0  0  0
   14.7344  -12.1317   10.2558 C   0  0  1  0  0  0  0  0  0  0  0  0
   15.3921  -13.3878   10.6913 N   0  3  0  0  0  0  0  0  0  0  0  0
   14.9643  -14.5287    9.8420 C   0  0  0  0  0  0  0  0  0  0  0  0
   13.4295  -11.8937   11.0911 C   0  0  2  0  0  0  0  0  0  0  0  0
   13.7635  -11.7080   12.4794 O   0  0  0  0  0  0  0  0  0  0  0  0
   12.5154  -13.0183   11.0075 C   0  0  0  0  0  0  0  0  0  0  0  0
   12.7328  -10.5758   10.6317 C   0  0  0  0  0  0  0  0  0  0  0  0
   13.6950   -9.4267   10.6813 O   0  0  0  0  0  0  0  0  0  0  0  0
  1  2  1  6  0  0  0
  1  3  1  0  0  0  0
  1 10  1  0  0  0  0
  3  4  1  6  0  0  0
  3  5  1  0  0  0  0
  5  6  1  6  0  0  0
  5  7  1  0  0  0  0
  7  8  1  6  0  0  0
  7  9  1  0  0  0  0
  9 10  1  1  0  0  0
  9 11  1  0  0  0  0
 11 12  1  6  0  0  0
 11 13  1  0  0  0  0
 14 15  1  1  0  0  0
 14 16  1  0  0  0  0
 14 22  1  0  0  0  0
 16 17  1  0  0  0  0
 17 18  1  6  0  0  0
 17 19  1  0  0  0  0
 19  2  1  6  0  0  0
 19 20  1  0  0  0  0
 20 21  1  1  0  0  0
 20 22  1  0  0  0  0
 22 23  1  1  0  0  0
 24 23  1  6  0  0  0
 24 25  1  0  0  0  0
 24 34  1  0  0  0  0
 25 26  1  6  0  0  0
 25 27  1  0  0  0  0
 27 28  1  1  0  0  0
 27 30  1  0  0  0  0
 28 29  1  0  0  0  0
 30 31  1  1  0  0  0
 30 32  1  0  0  0  0
 30 33  1  0  0  0  0
 33 34  1  0  0  0  0
M  CHG  4   4   1  15   1  18   1  28   1
M  END
>  <CHROM.1>
-165.55741750,-165.52043509,64.54908316,175.90523311,-50.74636398,46.00942445
176.45210866,56.89175131,177.77583399,-176.48982435,109.13790847,-128.40930777
154.72374594,-24.14266343,-65.14757811,13.61025989,-8.24534085,6.76216070
1.82978174,0.00070231,-0.78150039

>  <Name>
1mwl

>  <RI>
0

>  <Rbt.Current_Directory>
/home/itssahil/PROJECTS/Mol_Feturizer/New_Systems/rnas/1mwl

>  <Rbt.Executable>
rbdock ($Id: //depot/dev/client3/rdock/2013.1/src/exe/rbdock.cxx#4 $)

>  <Rbt.Library>
libRbt.so (2013.1, Build901 2013/11/27)

>  <Rbt.Parameter_File>
/export/apps/rDock/src/rDock_2013.1_src/data/scripts/dock_solv.prm

>  <Rbt.Receptor>
prm/blind_docking_40.prm

>  <SCORE>
-54.6981

>  <SCORE.INTER>
-45.174

>  <SCORE.INTER.CONST>
1

>  <SCORE.INTER.POLAR>
-5.36042

>  <SCORE.INTER.ROT>
6

>  <SCORE.INTER.SOLV>
27.989

>  <SCORE.INTER.VDW>
-29.1776

>  <SCORE.INTER.norm>
-1.32865

>  <SCORE.INTRA>
-13.3249

>  <SCORE.INTRA.DIHEDRAL>
-20.0303

>  <SCORE.INTRA.DIHEDRAL.0>
42.0816

>  <SCORE.INTRA.POLAR>
-0.423617

>  <SCORE.INTRA.POLAR.0>
-0.254682

>  <SCORE.INTRA.REPUL>
0

>  <SCORE.INTRA.REPUL.0>
0

>  <SCORE.INTRA.SOLV>
0.710616

>  <SCORE.INTRA.SOLV.lig_0>
-109.803

>  <SCORE.INTRA.VDW>
-2.22475

>  <SCORE.INTRA.VDW.0>
0.32176

>  <SCORE.INTRA.norm>
-0.391908

>  <SCORE.RESTR>
3.80073

>  <SCORE.RESTR.CAVITY>
3.80073

>  <SCORE.RESTR.norm>
0.111786

>  <SCORE.SYSTEM>
0

>  <SCORE.SYSTEM.CONST>
0

>  <SCORE.SYSTEM.DIHEDRAL>
0

>  <SCORE.SYSTEM.SOLV>
0

>  <SCORE.SYSTEM.norm>
0

>  <SCORE.heavy>
34

>  <SCORE.norm>
-1.60877

>  <RMSD>
32.878

$$$$
1mwl
 OpenBabel11021811403D
libRbt.so/2013.1/901 2013/11/27
 34 36  0  0  0  0  0  0  0  0999 V2000
   11.7713   -6.5428    5.2189 C   0  0  2  0  0  0  0  0  0  0  0  0
   12.8107   -7.4252    4.9196 O   0  0  0  0  0  0  0  0  0  0  0  0
   10.5910   -6.8724    4.2622 C   0  0  2  0  0  0  0  0  0  0  0  0
   10.1704   -8.2656    4.4400 N   0  3  0  0  0  0  0  0  0  0  0  0
   10.9843   -6.5800    2.7846 C   0  0  1  0  0  0  0  0  0  0  0  0
    9.9505   -6.8410    1.9460 O   0  0  0  0  0  0  0  0  0  0  0  0
   11.4271   -5.0836    2.6730 C   0  0  2  0  0  0  0  0  0  0  0  0
   11.7902   -4.7741    1.3111 O   0  0  0  0  0  0  0  0  0  0  0  0
   12.6306   -4.8514    3.6484 C   0  0  2  0  0  0  0  0  0  0  0  0
   12.2380   -5.1816    5.0363 O   0  0  0  0  0  0  0  0  0  0  0  0
   13.1677   -3.4158    3.6715 C   0  0  2  0  0  0  0  0  0  0  0  0
   14.2463   -3.3333    4.5450 O   0  0  0  0  0  0  0  0  0  0  0  0
   12.1381   -2.3800    4.1586 C   0  0  0  0  0  0  0  0  0  0  0  0
   16.0031   -9.4917    6.8683 C   0  0  2  0  0  0  0  0  0  0  0  0
   17.1573   -9.7720    7.7598 N   0  3  0  0  0  0  0  0  0  0  0  0
   16.3641   -8.3875    5.8308 C   0  0  0  0  0  0  0  0  0  0  0  0
   15.1308   -8.0854    4.9046 C   0  0  2  0  0  0  0  0  0  0  0  0
   15.5133   -7.0208    3.9061 N   0  3  0  0  0  0  0  0  0  0  0  0
   13.9152   -7.6413    5.7886 C   0  0  2  0  0  0  0  0  0  0  0  0
   13.5758   -8.7615    6.8021 C   0  0  2  0  0  0  0  0  0  0  0  0
   12.5059   -8.3379    7.6120 O   0  0  0  0  0  0  0  0  0  0  0  0
   14.7980   -9.0364    7.7186 C   0  0  1  0  0  0  0  0  0  0  0  0
   14.4638  -10.0637    8.6403 O   0  0  0  0  0  0  0  0  0  0  0  0
   14.8144   -9.8984    9.9865 C   0  0  2  0  0  0  0  0  0  0  0  0
   15.4075  -11.2328   10.4768 C   0  0  2  0  0  0  0  0  0  0  0  0
   16.5621  -11.5284    9.7204 O   0  0  0  0  0  0  0  0  0  0  0  0
   14.3327  -12.3616   10.3167 C   0  0  1  0  0  0  0  0  0  0  0  0
   14.8374  -13.6902   10.7410 N   0  3  0  0  0  0  0  0  0  0  0  0
   15.4751  -14.3999    9.6027 C   0  0  0  0  0  0  0  0  0  0  0  0
   13.0597  -11.9821   11.1488 C   0  0  2  0  0  0  0  0  0  0  0  0
   13.4053  -11.8511   12.5405 O   0  0  0  0  0  0  0  0  0  0  0  0
   12.0215  -12.9917   11.0488 C   0  0  0  0  0  0  0  0  0  0  0  0
   12.5237  -10.5873   10.7011 C   0  0  0  0  0  0  0  0  0  0  0  0
   13.6127   -9.5585   10.7676 O   0  0  0  0  0  0  0  0  0  0  0  0
  1  2  1  6  0  0  0
  1  3  1  0  0  0  0
  1 10  1  0  0  0  0
  3  4  1  6  0  0  0
  3  5  1  0  0  0  0
  5  6  1  6  0  0  0
  5  7  1  0  0  0  0
  7  8  1  6  0  0  0
  7  9  1  0  0  0  0
  9 10  1  1  0  0  0
  9 11  1  0  0  0  0
 11 12  1  1  0  0  0
 11 13  1  0  0  0  0
 14 15  1  1  0  0  0
 14 16  1  0  0  0  0
 14 22  1  0  0  0  0
 16 17  1  0  0  0  0
 17 18  1  6  0  0  0
 17 19  1  0  0  0  0
 19  2  1  6  0  0  0
 19 20  1  0  0  0  0
 20 21  1  1  0  0  0
 20 22  1  0  0  0  0
 22 23  1  1  0  0  0
 24 23  1  6  0  0  0
 24 25  1  0  0  0  0
 24 34  1  0  0  0  0
 25 26  1  6  0  0  0
 25 27  1  0  0  0  0
 27 28  1  1  0  0  0
 27 30  1  0  0  0  0
 28 29  1  0  0  0  0
 30 31  1  1  0  0  0
 30 32  1  0  0  0  0
 30 33  1  0  0  0  0
 33 34  1  0  0  0  0
M  CHG  4   4   1  15   1  18   1  28   1
M  END
>  <CHROM.1>
-164.25842794,-153.12675977,-175.75064211,-85.00756310,176.12353898,-178.73144632
47.53166128,-79.66492649,-51.43892205,-53.70148640,104.78896596,-135.67126090
137.83296420,30.51391177,-56.54205605,13.51882267,-8.48068243,6.80396898
1.80731657,-0.09427299,-0.78706965

>  <Name>
1mwl

>  <RI>
0

>  <Rbt.Current_Directory>
/home/itssahil/PROJECTS/Mol_Feturizer/New_Systems/rnas/1mwl

>  <Rbt.Executable>
rbdock ($Id: //depot/dev/client3/rdock/2013.1/src/exe/rbdock.cxx#4 $)

>  <Rbt.Library>
libRbt.so (2013.1, Build901 2013/11/27)

>  <Rbt.Parameter_File>
/export/apps/rDock/src/rDock_2013.1_src/data/scripts/dock_solv.prm

>  <Rbt.Receptor>
prm/blind_docking_40.prm

>  <SCORE>
-72.3712

>  <SCORE.INTER>
-64.0361

>  <SCORE.INTER.CONST>
1

>  <SCORE.INTER.POLAR>
-8.38255

>  <SCORE.INTER.ROT>
6

>  <SCORE.INTER.SOLV>
26.9058

>  <SCORE.INTER.VDW>
-31.3175

>  <SCORE.INTER.norm>
-1.88342

>  <SCORE.INTRA>
-12.523

>  <SCORE.INTRA.DIHEDRAL>
-13.2938

>  <SCORE.INTRA.DIHEDRAL.0>
42.0816

>  <SCORE.INTRA.POLAR>
-0.917277

>  <SCORE.INTRA.POLAR.0>
-0.254682

>  <SCORE.INTRA.REPUL>
0.0205099

>  <SCORE.INTRA.REPUL.0>
0

>  <SCORE.INTRA.SOLV>
2.04841

>  <SCORE.INTRA.SOLV.lig_0>
-109.803

>  <SCORE.INTRA.VDW>
-3.88412

>  <SCORE.INTRA.VDW.0>
0.32176

>  <SCORE.INTRA.norm>
-0.368324

>  <SCORE.RESTR>
4.18794

>  <SCORE.RESTR.CAVITY>
4.18794

>  <SCORE.RESTR.norm>
0.123175

>  <SCORE.SYSTEM>
0

>  <SCORE.SYSTEM.CONST>
0

>  <SCORE.SYSTEM.DIHEDRAL>
0

>  <SCORE.SYSTEM.SOLV>
0

>  <SCORE.SYSTEM.norm>
0

>  <SCORE.heavy>
34

>  <SCORE.norm>
-2.12856

>  <RMSD>
32.883

$$$$
1mwl
 OpenBabel11021811403D
libRbt.so/2013.1/901 2013/11/27
 34 36  0  0  0  0  0  0  0  0999 V2000
   11.8031   -6.5819    5.1781 C   0  0  2  0  0  0  0  0  0  0  0  0
   12.8566   -7.4424    4.8644 O   0  0  0  0  0  0  0  0  0  0  0  0
   10.6321   -6.9071    4.2087 C   0  0  2  0  0  0  0  0  0  0  0  0
   10.2309   -8.3098    4.3536 N   0  3  0  0  0  0  0  0  0  0  0  0
   11.0278   -6.5765    2.7398 C   0  0  1  0  0  0  0  0  0  0  0  0
   10.0016   -6.8337    1.8907 O   0  0  0  0  0  0  0  0  0  0  0  0
   11.4494   -5.0718    2.6633 C   0  0  2  0  0  0  0  0  0  0  0  0
   11.8141   -4.7271    1.3104 O   0  0  0  0  0  0  0  0  0  0  0  0
   12.6450   -4.8440    3.6494 C   0  0  2  0  0  0  0  0  0  0  0  0
   12.2510   -5.2105    5.0278 O   0  0  0  0  0  0  0  0  0  0  0  0
   13.1612   -3.4017    3.7067 C   0  0  2  0  0  0  0  0  0  0  0  0
   14.1926   -3.3100    4.6346 O   0  0  0  0  0  0  0  0  0  0  0  0
   12.0945   -2.3820    4.1456 C   0  0  0  0  0  0  0  0  0  0  0  0
   16.0268   -9.5123    6.8455 C   0  0  2  0  0  0  0  0  0  0  0  0
   17.1840   -9.7885    7.7344 N   0  3  0  0  0  0  0  0  0  0  0  0
   16.3992   -8.4475    5.7715 C   0  0  0  0  0  0  0  0  0  0  0  0
   15.1630   -8.1490    4.8481 C   0  0  2  0  0  0  0  0  0  0  0  0
   15.5565   -7.1229    3.8141 N   0  3  0  0  0  0  0  0  0  0  0  0
   13.9651   -7.6541    5.7293 C   0  0  2  0  0  0  0  0  0  0  0  0
   13.6138   -8.7361    6.7795 C   0  0  2  0  0  0  0  0  0  0  0  0
   12.5605   -8.2669    7.5860 O   0  0  0  0  0  0  0  0  0  0  0  0
   14.8393   -9.0075    7.6927 C   0  0  1  0  0  0  0  0  0  0  0  0
   14.4941   -9.9996    8.6483 O   0  0  0  0  0  0  0  0  0  0  0  0
   14.9187   -9.8328    9.9729 C   0  0  2  0  0  0  0  0  0  0  0  0
   15.4470  -11.1941   10.4635 C   0  0  2  0  0  0  0  0  0  0  0  0
   16.5425  -11.5787    9.6608 O   0  0  0  0  0  0  0  0  0  0  0  0
   14.2949  -12.2525   10.3780 C   0  0  1  0  0  0  0  0  0  0  0  0
   14.7322  -13.6034   10.8069 N   0  3  0  0  0  0  0  0  0  0  0  0
   15.5225  -14.2657    9.7378 C   0  0  0  0  0  0  0  0  0  0  0  0
   13.0904  -11.7750   11.2602 C   0  0  2  0  0  0  0  0  0  0  0  0
   13.5100  -11.6414   12.6311 O   0  0  0  0  0  0  0  0  0  0  0  0
   11.9854  -12.7159   11.2303 C   0  0  0  0  0  0  0  0  0  0  0  0
   12.6250  -10.3565   10.8079 C   0  0  0  0  0  0  0  0  0  0  0  0
   13.7803   -9.4004   10.8016 O   0  0  0  0  0  0  0  0  0  0  0  0
  1  2  1  6  0  0  0
  1  3  1  0  0  0  0
  1 10  1  0  0  0  0
  3  4  1  6  0  0  0
  3  5  1  0  0  0  0
  5  6  1  6  0  0  0
  5  7  1  0  0  0  0
  7  8  1  6  0  0  0
  7  9  1  0  0  0  0
  9 10  1  1  0  0  0
  9 11  1  0  0  0  0
 11 12  1  1  0  0  0
 11 13  1  0  0  0  0
 14 15  1  1  0  0  0
 14 16  1  0  0  0  0
 14 22  1  0  0  0  0
 16 17  1  0  0  0  0
 17 18  1  6  0  0  0
 17 19  1  0  0  0  0
 19  2  1  6  0  0  0
 19 20  1  0  0  0  0
 20 21  1  1  0  0  0
 20 22  1  0  0  0  0
 22 23  1  1  0  0  0
 24 23  1  6  0  0  0
 24 25  1  0  0  0  0
 24 34  1  0  0  0  0
 25 26  1  6  0  0  0
 25 27  1  0  0  0  0
 27 28  1  1  0  0  0
 27 30  1  0  0  0  0
 28 29  1  0  0  0  0
 30 31  1  1  0  0  0
 30 32  1  0  0  0  0
 30 33  1  0  0  0  0
 33 34  1  0  0  0  0
M  CHG  4   4   1  15   1  18   1  28   1
M  END
>  <CHROM.1>
-164.74853630,-156.51751787,-58.99648917,-87.33317316,-175.60383955,178.43738300
53.65360029,45.70159292,-171.09877205,177.46819987,101.65815897,-136.23382764
122.32794414,42.46706083,-59.34568276,13.54773872,-8.44485783,6.80619475
1.80973486,-0.05116823,-0.81357906

>  <Name>
1mwl

>  <RI>
0

>  <Rbt.Current_Directory>
/home/itssahil/PROJECTS/Mol_Feturizer/New_Systems/rnas/1mwl

>  <Rbt.Executable>
rbdock ($Id: //depot/dev/client3/rdock/2013.1/src/exe/rbdock.cxx#4 $)

>  <Rbt.Library>
libRbt.so (2013.1, Build901 2013/11/27)

>  <Rbt.Parameter_File>
/export/apps/rDock/src/rDock_2013.1_src/data/scripts/dock_solv.prm

>  <Rbt.Receptor>
prm/blind_docking_40.prm

>  <SCORE>
-72.8015

>  <SCORE.INTER>
-63.7196

>  <SCORE.INTER.CONST>
1

>  <SCORE.INTER.POLAR>
-8.52549

>  <SCORE.INTER.ROT>
6

>  <SCORE.INTER.SOLV>
26.6777

>  <SCORE.INTER.VDW>
-30.554

>  <SCORE.INTER.norm>
-1.87411

>  <SCORE.INTRA>
-13.3406

>  <SCORE.INTRA.DIHEDRAL>
-14.8776

>  <SCORE.INTRA.DIHEDRAL.0>
42.0816

>  <SCORE.INTRA.POLAR>
-0.911985

>  <SCORE.INTRA.POLAR.0>
-0.254682

>  <SCORE.INTRA.REPUL>
0.0255544

>  <SCORE.INTRA.REPUL.0>
0

>  <SCORE.INTRA.SOLV>
1.34265

>  <SCORE.INTRA.SOLV.lig_0>
-109.803

>  <SCORE.INTRA.VDW>
-3.60017

>  <SCORE.INTRA.VDW.0>
0.32176

>  <SCORE.INTRA.norm>
-0.392371

>  <SCORE.RESTR>
4.25875

>  <SCORE.RESTR.CAVITY>
4.25875

>  <SCORE.RESTR.norm>
0.125257

>  <SCORE.SYSTEM>
0

>  <SCORE.SYSTEM.CONST>
0

>  <SCORE.SYSTEM.DIHEDRAL>
0

>  <SCORE.SYSTEM.SOLV>
0

>  <SCORE.SYSTEM.norm>
0

>  <SCORE.heavy>
34

>  <SCORE.norm>
-2.14122

>  <RMSD>
32.890

$$$$
1mwl
 OpenBabel11021811403D
libRbt.so/2013.1/901 2013/11/27
 34 36  0  0  0  0  0  0  0  0999 V2000
   11.7940   -6.5935    5.2215 C   0  0  2  0  0  0  0  0  0  0  0  0
   12.8389   -7.4642    4.9072 O   0  0  0  0  0  0  0  0  0  0  0  0
   10.6150   -6.9154    4.2606 C   0  0  2  0  0  0  0  0  0  0  0  0
   10.2037   -8.3140    4.4162 N   0  3  0  0  0  0  0  0  0  0  0  0
   11.0051   -6.5966    2.7876 C   0  0  1  0  0  0  0  0  0  0  0  0
    9.9723   -6.8508    1.9457 O   0  0  0  0  0  0  0  0  0  0  0  0
   11.4380   -5.0958    2.6997 C   0  0  2  0  0  0  0  0  0  0  0  0
   11.7979   -4.7620    1.3427 O   0  0  0  0  0  0  0  0  0  0  0  0
   12.6409   -4.8715    3.6778 C   0  0  2  0  0  0  0  0  0  0  0  0
   12.2517   -5.2266    5.0605 O   0  0  0  0  0  0  0  0  0  0  0  0
   13.1686   -3.4330    3.7235 C   0  0  2  0  0  0  0  0  0  0  0  0
   14.2298   -3.3516    4.6183 O   0  0  0  0  0  0  0  0  0  0  0  0
   12.1235   -2.4076    4.1998 C   0  0  0  0  0  0  0  0  0  0  0  0
   16.0192   -9.5364    6.8696 C   0  0  2  0  0  0  0  0  0  0  0  0
   17.1814   -9.8134    7.7517 N   0  3  0  0  0  0  0  0  0  0  0  0
   16.3861   -8.4717    5.7936 C   0  0  0  0  0  0  0  0  0  0  0  0
   15.1447   -8.1723    4.8773 C   0  0  2  0  0  0  0  0  0  0  0  0
   15.5329   -7.1464    3.8412 N   0  3  0  0  0  0  0  0  0  0  0  0
   13.9524   -7.6767    5.7656 C   0  0  2  0  0  0  0  0  0  0  0  0
   13.6064   -8.7586    6.8177 C   0  0  2  0  0  0  0  0  0  0  0  0
   12.5581   -8.2887    7.6304 O   0  0  0  0  0  0  0  0  0  0  0  0
   14.8370   -9.0309    7.7237 C   0  0  1  0  0  0  0  0  0  0  0  0
   14.4968  -10.0228    8.6812 O   0  0  0  0  0  0  0  0  0  0  0  0
   14.9323   -9.8583   10.0025 C   0  0  2  0  0  0  0  0  0  0  0  0
   15.4756  -11.2174   10.4824 C   0  0  2  0  0  0  0  0  0  0  0  0
   16.5666  -11.5902    9.6679 O   0  0  0  0  0  0  0  0  0  0  0  0
   14.3311  -12.2845   10.4030 C   0  0  1  0  0  0  0  0  0  0  0  0
   14.7829  -13.6337   10.8220 N   0  3  0  0  0  0  0  0  0  0  0  0
   15.5113  -14.3117    9.7194 C   0  0  0  0  0  0  0  0  0  0  0  0
   13.1312  -11.8201   11.2983 C   0  0  2  0  0  0  0  0  0  0  0  0
   13.5624  -11.6890   12.6659 O   0  0  0  0  0  0  0  0  0  0  0  0
   12.0333  -12.7695   11.2747 C   0  0  0  0  0  0  0  0  0  0  0  0
   12.6506  -10.4034   10.8565 C   0  0  0  0  0  0  0  0  0  0  0  0
   13.7983   -9.4384   10.8435 O   0  0  0  0  0  0  0  0  0  0  0  0
  1  2  1  6  0  0  0
  1  3  1  0  0  0  0
  1 10  1  0  0  0  0
  3  4  1  6  0  0  0
  3  5  1  0  0  0  0
  5  6  1  6  0  0  0
  5  7  1  0  0  0  0
  7  8  1  6  0  0  0
  7  9  1  0  0  0  0
  9 10  1  1  0  0  0
  9 11  1  0  0  0  0
 11 12  1  1  0  0  0
 11 13  1  0  0  0  0
 14 15  1  1  0  0  0
 14 16  1  0  0  0  0
 14 22  1  0  0  0  0
 16 17  1  0  0  0  0
 17 18  1  6  0  0  0
 17 19  1  0  0  0  0
 19  2  1  6  0  0  0
 19 20  1  0  0  0  0
 20 21  1  1  0  0  0
 20 22  1  0  0  0  0
 22 23  1  1  0  0  0
 24 23  1  6  0  0  0
 24 25  1  0  0  0  0
 24 34  1  0  0  0  0
 25 26  1  6  0  0  0
 25 27  1  0  0  0  0
 27 28  1  1  0  0  0
 27 30  1  0  0  0  0
 28 29  1  0  0  0  0
 30 31  1  1  0  0  0
 30 32  1  0  0  0  0
 30 33  1  0  0  0  0
 33 34  1  0  0  0  0
M  CHG  4   4   1  15   1  18   1  28   1
M  END
>  <CHROM.1>
-164.91962083,-155.90558380,-49.63126222,-83.90983201,173.67406940,-179.95438008
51.14460524,-75.72224524,-50.40003435,-62.23706029,101.48394409,-135.59500731
120.19291757,39.69887143,-56.39757665,13.55341779,-8.46855133,6.83728394
1.81310460,-0.05399380,-0.81123612

>  <Name>
1mwl

>  <RI>
0

>  <Rbt.Current_Directory>
/home/itssahil/PROJECTS/Mol_Feturizer/New_Systems/rnas/1mwl

>  <Rbt.Executable>
rbdock ($Id: //depot/dev/client3/rdock/2013.1/src/exe/rbdock.cxx#4 $)

>  <Rbt.Library>
libRbt.so (2013.1, Build901 2013/11/27)

>  <Rbt.Parameter_File>
/export/apps/rDock/src/rDock_2013.1_src/data/scripts/dock_solv.prm

>  <Rbt.Receptor>
prm/blind_docking_40.prm

>  <SCORE>
-73.0436

>  <SCORE.INTER>
-64.329

>  <SCORE.INTER.CONST>
1

>  <SCORE.INTER.POLAR>
-8.41228

>  <SCORE.INTER.ROT>
6

>  <SCORE.INTER.SOLV>
26.9075

>  <SCORE.INTER.VDW>
-31.4142

>  <SCORE.INTER.norm>
-1.89203

>  <SCORE.INTRA>
-12.9532

>  <SCORE.INTRA.DIHEDRAL>
-14.3713

>  <SCORE.INTRA.DIHEDRAL.0>
42.0816

>  <SCORE.INTRA.POLAR>
-0.939548

>  <SCORE.INTRA.POLAR.0>
-0.254682

>  <SCORE.INTRA.REPUL>
0.0219565

>  <SCORE.INTRA.REPUL.0>
0

>  <SCORE.INTRA.SOLV>
1.59197

>  <SCORE.INTRA.SOLV.lig_0>
-109.803

>  <SCORE.INTRA.VDW>
-3.47885

>  <SCORE.INTRA.VDW.0>
0.32176

>  <SCORE.INTRA.norm>
-0.380976

>  <SCORE.RESTR>
4.23858

>  <SCORE.RESTR.CAVITY>
4.23858

>  <SCORE.RESTR.norm>
0.124664

>  <SCORE.SYSTEM>
0

>  <SCORE.SYSTEM.CONST>
0

>  <SCORE.SYSTEM.DIHEDRAL>
0

>  <SCORE.SYSTEM.SOLV>
0

>  <SCORE.SYSTEM.norm>
0

>  <SCORE.heavy>
34

>  <SCORE.norm>
-2.14834

>  <RMSD>
32.896

$$$$
1mwl
 OpenBabel11021811403D
libRbt.so/2013.1/901 2013/11/27
 34 36  0  0  0  0  0  0  0  0999 V2000
   11.7021   -6.6945    5.3132 C   0  0  2  0  0  0  0  0  0  0  0  0
   12.8010   -7.4660    4.9315 O   0  0  0  0  0  0  0  0  0  0  0  0
   10.5790   -6.9334    4.2650 C   0  0  2  0  0  0  0  0  0  0  0  0
   10.2331   -8.3571    4.2107 N   0  3  0  0  0  0  0  0  0  0  0  0
   11.0095   -6.3979    2.8680 C   0  0  1  0  0  0  0  0  0  0  0  0
   10.0242   -6.5798    1.9535 O   0  0  0  0  0  0  0  0  0  0  0  0
   11.3691   -4.8814    3.0041 C   0  0  2  0  0  0  0  0  0  0  0  0
   11.7641   -4.3484    1.7227 O   0  0  0  0  0  0  0  0  0  0  0  0
   12.5202   -4.7403    4.0572 C   0  0  2  0  0  0  0  0  0  0  0  0
   12.0961   -5.2993    5.3599 O   0  0  0  0  0  0  0  0  0  0  0  0
   12.9725   -3.2996    4.3214 C   0  0  2  0  0  0  0  0  0  0  0  0
   11.8626   -2.4965    4.5593 O   0  0  0  0  0  0  0  0  0  0  0  0
   13.7208   -2.6612    3.1370 C   0  0  0  0  0  0  0  0  0  0  0  0
   16.0634   -9.5108    6.7849 C   0  0  2  0  0  0  0  0  0  0  0  0
   17.2403   -9.7857    7.6478 N   0  3  0  0  0  0  0  0  0  0  0  0
   16.3864   -8.3887    5.7541 C   0  0  0  0  0  0  0  0  0  0  0  0
   15.1293   -8.0926    4.8585 C   0  0  2  0  0  0  0  0  0  0  0  0
   15.4752   -7.0103    3.8658 N   0  3  0  0  0  0  0  0  0  0  0  0
   13.9269   -7.6771    5.7738 C   0  0  2  0  0  0  0  0  0  0  0  0
   13.6252   -8.8146    6.7799 C   0  0  2  0  0  0  0  0  0  0  0  0
   12.5672   -8.4166    7.6178 O   0  0  0  0  0  0  0  0  0  0  0  0
   14.8706   -9.0835    7.6665 C   0  0  1  0  0  0  0  0  0  0  0  0
   14.5709  -10.1269    8.5818 O   0  0  0  0  0  0  0  0  0  0  0  0
   14.9561   -9.9774    9.9204 C   0  0  2  0  0  0  0  0  0  0  0  0
   15.5259  -11.3290   10.3909 C   0  0  2  0  0  0  0  0  0  0  0  0
   16.6550  -11.6501    9.6070 O   0  0  0  0  0  0  0  0  0  0  0  0
   14.4191  -12.4292   10.2504 C   0  0  1  0  0  0  0  0  0  0  0  0
   14.8992  -13.7724   10.6571 N   0  3  0  0  0  0  0  0  0  0  0  0
   15.6797  -14.4064    9.5640 C   0  0  0  0  0  0  0  0  0  0  0  0
   13.1756  -12.0216   11.1132 C   0  0  2  0  0  0  0  0  0  0  0  0
   13.5560  -11.9066   12.4972 O   0  0  0  0  0  0  0  0  0  0  0  0
   12.1098  -13.0039   11.0325 C   0  0  0  0  0  0  0  0  0  0  0  0
   12.6654  -10.6113   10.6842 C   0  0  0  0  0  0  0  0  0  0  0  0
   13.7817   -9.6110   10.7304 O   0  0  0  0  0  0  0  0  0  0  0  0
  1  2  1  6  0  0  0
  1  3  1  0  0  0  0
  1 10  1  0  0  0  0
  3  4  1  6  0  0  0
  3  5  1  0  0  0  0
  5  6  1  6  0  0  0
  5  7  1  0  0  0  0
  7  8  1  6  0  0  0
  7  9  1  0  0  0  0
  9 10  1  1  0  0  0
  9 11  1  0  0  0  0
 11 12  1  6  0  0  0
 11 13  1  0  0  0  0
 14 15  1  1  0  0  0
 14 16  1  0  0  0  0
 14 22  1  0  0  0  0
 16 17  1  0  0  0  0
 17 18  1  6  0  0  0
 17 19  1  0  0  0  0
 19  2  1  6  0  0  0
 19 20  1  0  0  0  0
 20 21  1  1  0  0  0
 20 22  1  0  0  0  0
 22 23  1  1  0  0  0
 24 23  1  6  0  0  0
 24 25  1  0  0  0  0
 24 34  1  0  0  0  0
 25 26  1  6  0  0  0
 25 27  1  0  0  0  0
 27 28  1  1  0  0  0
 27 30  1  0  0  0  0
 28 29  1  0  0  0  0
 30 31  1  1  0  0  0
 30 32  1  0  0  0  0
 30 33  1  0  0  0  0
 33 34  1  0  0  0  0
M  CHG  4   4   1  15   1  18   1  28   1
M  END
>  <CHROM.1>
-168.87541009,-158.86768707,-178.30786266,-74.22214083,-54.34852320,49.11079736
170.02727172,48.67346327,-63.68037570,72.53585131,104.35768731,-137.75774219
123.62922367,39.41251309,63.23078390,13.52482980,-8.46107759,6.79676783,1.82789169
0.00325829,-0.78173557

>  <Name>
1mwl

>  <RI>
0

>  <Rbt.Current_Directory>
/home/itssahil/PROJECTS/Mol_Feturizer/New_Systems/rnas/1mwl

>  <Rbt.Executable>
rbdock ($Id: //depot/dev/client3/rdock/2013.1/src/exe/rbdock.cxx#4 $)

>  <Rbt.Library>
libRbt.so (2013.1, Build901 2013/11/27)

>  <Rbt.Parameter_File>
/export/apps/rDock/src/rDock_2013.1_src/data/scripts/dock_solv.prm

>  <Rbt.Receptor>
prm/blind_docking_40.prm

>  <SCORE>
-72.3243

>  <SCORE.INTER>
-62.1521

>  <SCORE.INTER.CONST>
1

>  <SCORE.INTER.POLAR>
-8.23955

>  <SCORE.INTER.ROT>
6

>  <SCORE.INTER.SOLV>
26.1335

>  <SCORE.INTER.VDW>
-30.2807

>  <SCORE.INTER.norm>
-1.828

>  <SCORE.INTRA>
-14.3813

>  <SCORE.INTRA.DIHEDRAL>
-16.3432

>  <SCORE.INTRA.DIHEDRAL.0>
42.0816

>  <SCORE.INTRA.POLAR>
-0.912502

>  <SCORE.INTRA.POLAR.0>
-0.254682

>  <SCORE.INTRA.REPUL>
0

>  <SCORE.INTRA.REPUL.0>
0

>  <SCORE.INTRA.SOLV>
0.669639

>  <SCORE.INTRA.SOLV.lig_0>
-109.803

>  <SCORE.INTRA.VDW>
-3.44201

>  <SCORE.INTRA.VDW.0>
0.32176

>  <SCORE.INTRA.norm>
-0.42298

>  <SCORE.RESTR>
4.2091

>  <SCORE.RESTR.CAVITY>
4.2091

>  <SCORE.RESTR.norm>
0.123797

>  <SCORE.SYSTEM>
0

>  <SCORE.SYSTEM.CONST>
0

>  <SCORE.SYSTEM.DIHEDRAL>
0

>  <SCORE.SYSTEM.SOLV>
0

>  <SCORE.SYSTEM.norm>
0

>  <SCORE.heavy>
34

>  <SCORE.norm>
-2.12719

>  <RMSD>
32.899

$$$$
1mwl
 OpenBabel11021811403D
libRbt.so/2013.1/901 2013/11/27
 34 36  0  0  0  0  0  0  0  0999 V2000
   11.7409   -6.6434    5.2497 C   0  0  2  0  0  0  0  0  0  0  0  0
   12.8238   -7.4542    4.9055 O   0  0  0  0  0  0  0  0  0  0  0  0
   10.6402   -6.8547    4.1723 C   0  0  2  0  0  0  0  0  0  0  0  0
   10.2488   -8.2666    4.1200 N   0  3  0  0  0  0  0  0  0  0  0  0
   11.1270   -6.3465    2.7837 C   0  0  1  0  0  0  0  0  0  0  0  0
   10.1621   -6.5041    1.8433 O   0  0  0  0  0  0  0  0  0  0  0  0
   11.5329   -4.8415    2.9174 C   0  0  2  0  0  0  0  0  0  0  0  0
   11.9809   -4.3335    1.6433 O   0  0  0  0  0  0  0  0  0  0  0  0
   12.6583   -4.7288    4.0013 C   0  0  2  0  0  0  0  0  0  0  0  0
   12.1796   -5.2615    5.2960 O   0  0  0  0  0  0  0  0  0  0  0  0
   13.1506   -3.3015    4.2663 C   0  0  2  0  0  0  0  0  0  0  0  0
   12.0947   -2.4080    4.1246 O   0  0  0  0  0  0  0  0  0  0  0  0
   14.2444   -2.8349    3.2884 C   0  0  0  0  0  0  0  0  0  0  0  0
   16.0260   -9.5153    6.8438 C   0  0  2  0  0  0  0  0  0  0  0  0
   17.1863   -9.7924    7.7283 N   0  3  0  0  0  0  0  0  0  0  0  0
   16.3817   -8.4193    5.7959 C   0  0  0  0  0  0  0  0  0  0  0  0
   15.1421   -8.1204    4.8772 C   0  0  2  0  0  0  0  0  0  0  0  0
   15.5195   -7.0638    3.8684 N   0  3  0  0  0  0  0  0  0  0  0  0
   13.9345   -7.6671    5.7674 C   0  0  2  0  0  0  0  0  0  0  0  0
   13.6001   -8.7793    6.7912 C   0  0  2  0  0  0  0  0  0  0  0  0
   12.5376   -8.3474    7.6064 O   0  0  0  0  0  0  0  0  0  0  0  0
   14.8286   -9.0511    7.7002 C   0  0  1  0  0  0  0  0  0  0  0  0
   14.4990  -10.0711    8.6315 O   0  0  0  0  0  0  0  0  0  0  0  0
   14.8826   -9.9088    9.9691 C   0  0  2  0  0  0  0  0  0  0  0  0
   15.4615  -11.2528   10.4501 C   0  0  2  0  0  0  0  0  0  0  0  0
   16.5932  -11.5719    9.6691 O   0  0  0  0  0  0  0  0  0  0  0  0
   14.3625  -12.3617   10.3174 C   0  0  1  0  0  0  0  0  0  0  0  0
   14.8517  -13.6984   10.7345 N   0  3  0  0  0  0  0  0  0  0  0  0
   15.5789  -14.3637    9.6233 C   0  0  0  0  0  0  0  0  0  0  0  0
   13.1157  -11.9562   11.1766 C   0  0  2  0  0  0  0  0  0  0  0  0
   13.4947  -11.8281   12.5598 O   0  0  0  0  0  0  0  0  0  0  0  0
   12.0569  -12.9465   11.1028 C   0  0  0  0  0  0  0  0  0  0  0  0
   12.5960  -10.5528   10.7366 C   0  0  0  0  0  0  0  0  0  0  0  0
   13.7052   -9.5445   10.7758 O   0  0  0  0  0  0  0  0  0  0  0  0
  1  2  1  6  0  0  0
  1  3  1  0  0  0  0
  1 10  1  0  0  0  0
  3  4  1  6  0  0  0
  3  5  1  0  0  0  0
  5  6  1  6  0  0  0
  5  7  1  0  0  0  0
  7  8  1  6  0  0  0
  7  9  1  0  0  0  0
  9 10  1  1  0  0  0
  9 11  1  0  0  0  0
 11 12  1  6  0  0  0
 11 13  1  0  0  0  0
 14 15  1  1  0  0  0
 14 16  1  0  0  0  0
 14 22  1  0  0  0  0
 16 17  1  0  0  0  0
 17 18  1  6  0  0  0
 17 19  1  0  0  0  0
 19  2  1  6  0  0  0
 19 20  1  0  0  0  0
 20 21  1  1  0  0  0
 20 22  1  0  0  0  0
 22 23  1  1  0  0  0
 24 23  1  6  0  0  0
 24 25  1  0  0  0  0
 24 34  1  0  0  0  0
 25 26  1  6  0  0  0
 25 27  1  0  0  0  0
 27 28  1  1  0  0  0
 27 30  1  0  0  0  0
 28 29  1  0  0  0  0
 30 31  1  1  0  0  0
 30 32  1  0  0  0  0
 30 33  1  0  0  0  0
 33 34  1  0  0  0  0
M  CHG  4   4   1  15   1  18   1  28   1
M  END
>  <CHROM.1>
-170.54329916,-158.01291945,-167.39968306,-72.55107141,-179.38252028,33.87468510
68.53702696,44.27554583,-177.26591087,-50.20795717,103.60435501,-135.83077616
128.37404405,36.56883579,66.55832812,13.55445296,-8.42271406,6.79433898,1.80440981
-0.01444543,-0.79207590

>  <Name>
1mwl

>  <RI>
0

>  <Rbt.Current_Directory>
/home/itssahil/PROJECTS/Mol_Feturizer/New_Systems/rnas/1mwl

>  <Rbt.Executable>
rbdock ($Id: //depot/dev/client3/rdock/2013.1/src/exe/rbdock.cxx#4 $)

>  <Rbt.Library>
libRbt.so (2013.1, Build901 2013/11/27)

>  <Rbt.Parameter_File>
/export/apps/rDock/src/rDock_2013.1_src/data/scripts/dock_solv.prm

>  <Rbt.Receptor>
prm/blind_docking_40.prm

>  <SCORE>
-72.4839

>  <SCORE.INTER>
-63.1504

>  <SCORE.INTER.CONST>
1

>  <SCORE.INTER.POLAR>
-8.22151

>  <SCORE.INTER.ROT>
6

>  <SCORE.INTER.SOLV>
25.9885

>  <SCORE.INTER.VDW>
-30.9581

>  <SCORE.INTER.norm>
-1.85737

>  <SCORE.INTRA>
-13.3383

>  <SCORE.INTRA.DIHEDRAL>
-14.4695

>  <SCORE.INTRA.DIHEDRAL.0>
42.0816

>  <SCORE.INTRA.POLAR>
-0.952078

>  <SCORE.INTRA.POLAR.0>
-0.254682

>  <SCORE.INTRA.REPUL>
0

>  <SCORE.INTRA.REPUL.0>
0

>  <SCORE.INTRA.SOLV>
0.96763

>  <SCORE.INTRA.SOLV.lig_0>
-109.803

>  <SCORE.INTRA.VDW>
-3.3503

>  <SCORE.INTRA.VDW.0>
0.32176

>  <SCORE.INTRA.norm>
-0.392302

>  <SCORE.RESTR>
4.0048

>  <SCORE.RESTR.CAVITY>
4.0048

>  <SCORE.RESTR.norm>
0.117788

>  <SCORE.SYSTEM>
0

>  <SCORE.SYSTEM.CONST>
0

>  <SCORE.SYSTEM.DIHEDRAL>
0

>  <SCORE.SYSTEM.SOLV>
0

>  <SCORE.SYSTEM.norm>
0

>  <SCORE.heavy>
34

>  <SCORE.norm>
-2.13188

>  <RMSD>
32.903

$$$$
1mwl
 OpenBabel11021811403D
libRbt.so/2013.1/901 2013/11/27
 34 36  0  0  0  0  0  0  0  0999 V2000
   11.7487   -6.5428    5.1463 C   0  0  2  0  0  0  0  0  0  0  0  0
   12.7465   -7.4884    4.9034 O   0  0  0  0  0  0  0  0  0  0  0  0
   10.6138   -6.7878    4.1124 C   0  0  2  0  0  0  0  0  0  0  0  0
   10.0941   -8.1521    4.2463 N   0  3  0  0  0  0  0  0  0  0  0  0
   11.1195   -6.5100    2.6665 C   0  0  1  0  0  0  0  0  0  0  0  0
   10.1272   -6.6970    1.7606 O   0  0  0  0  0  0  0  0  0  0  0  0
   11.6636   -5.0447    2.6011 C   0  0  2  0  0  0  0  0  0  0  0  0
   12.1329   -4.7488    1.2690 O   0  0  0  0  0  0  0  0  0  0  0  0
   12.8142   -4.8986    3.6540 C   0  0  2  0  0  0  0  0  0  0  0  0
   12.3127   -5.2134    5.0100 O   0  0  0  0  0  0  0  0  0  0  0  0
   13.4398   -3.5010    3.7284 C   0  0  2  0  0  0  0  0  0  0  0  0
   14.3914   -3.4672    4.7416 O   0  0  0  0  0  0  0  0  0  0  0  0
   12.4262   -2.3882    4.0517 C   0  0  0  0  0  0  0  0  0  0  0  0
   15.9484   -9.5083    6.8851 C   0  0  2  0  0  0  0  0  0  0  0  0
   17.1052   -9.7682    7.7794 N   0  3  0  0  0  0  0  0  0  0  0  0
   16.3043   -8.4239    5.8253 C   0  0  0  0  0  0  0  0  0  0  0  0
   15.0682   -8.1431    4.8962 C   0  0  2  0  0  0  0  0  0  0  0  0
   15.4458   -7.0974    3.8761 N   0  3  0  0  0  0  0  0  0  0  0  0
   13.8535   -7.6846    5.7740 C   0  0  2  0  0  0  0  0  0  0  0  0
   13.5191   -8.7855    6.8100 C   0  0  2  0  0  0  0  0  0  0  0  0
   12.4500   -8.3487    7.6139 O   0  0  0  0  0  0  0  0  0  0  0  0
   14.7440   -9.0394    7.7290 C   0  0  1  0  0  0  0  0  0  0  0  0
   14.4144  -10.0492    8.6715 O   0  0  0  0  0  0  0  0  0  0  0  0
   14.8514   -9.9017    9.9943 C   0  0  2  0  0  0  0  0  0  0  0  0
   15.4322  -11.2562   10.4427 C   0  0  2  0  0  0  0  0  0  0  0  0
   16.5289  -11.5826    9.6161 O   0  0  0  0  0  0  0  0  0  0  0  0
   14.3156  -12.3509   10.3448 C   0  0  1  0  0  0  0  0  0  0  0  0
   14.8043  -13.6965   10.7328 N   0  3  0  0  0  0  0  0  0  0  0  0
   15.1878  -14.4841    9.5334 C   0  0  0  0  0  0  0  0  0  0  0  0
   13.1080  -11.9374   11.2546 C   0  0  2  0  0  0  0  0  0  0  0  0
   13.5418  -11.8244   12.6229 O   0  0  0  0  0  0  0  0  0  0  0  0
   12.0352  -12.9145   11.2147 C   0  0  0  0  0  0  0  0  0  0  0  0
   12.5886  -10.5246   10.8453 C   0  0  0  0  0  0  0  0  0  0  0  0
   13.7107   -9.5298   10.8487 O   0  0  0  0  0  0  0  0  0  0  0  0
  1  2  1  6  0  0  0
  1  3  1  0  0  0  0
  1 10  1  0  0  0  0
  3  4  1  6  0  0  0
  3  5  1  0  0  0  0
  5  6  1  6  0  0  0
  5  7  1  0  0  0  0
  7  8  1  6  0  0  0
  7  9  1  0  0  0  0
  9 10  1  1  0  0  0
  9 11  1  0  0  0  0
 11 12  1  1  0  0  0
 11 13  1  0  0  0  0
 14 15  1  1  0  0  0
 14 16  1  0  0  0  0
 14 22  1  0  0  0  0
 16 17  1  0  0  0  0
 17 18  1  6  0  0  0
 17 19  1  0  0  0  0
 19  2  1  6  0  0  0
 19 20  1  0  0  0  0
 20 21  1  1  0  0  0
 20 22  1  0  0  0  0
 22 23  1  1  0  0  0
 24 23  1  6  0  0  0
 24 25  1  0  0  0  0
 24 34  1  0  0  0  0
 25 26  1  6  0  0  0
 25 27  1  0  0  0  0
 27 28  1  1  0  0  0
 27 30  1  0  0  0  0
 28 29  1  0  0  0  0
 30 31  1  1  0  0  0
 30 32  1  0  0  0  0
 30 33  1  0  0  0  0
 33 34  1  0  0  0  0
M  CHG  4   4   1  15   1  18   1  28   1
M  END
>  <CHROM.1>
-170.98672907,-148.98179990,100.41413225,67.23611783,64.87497784,176.67167235
49.36550586,161.04960743,76.88416401,70.45031955,100.25958259,-134.53577915
-170.59060758,23.27099643,-177.70890208,13.54511321,-8.48181519,6.79201830
1.79153622,-0.10962182,-0.79621197

>  <Name>
1mwl

>  <RI>
0

>  <Rbt.Current_Directory>
/home/itssahil/PROJECTS/Mol_Feturizer/New_Systems/rnas/1mwl

>  <Rbt.Executable>
rbdock ($Id: //depot/dev/client3/rdock/2013.1/src/exe/rbdock.cxx#4 $)

>  <Rbt.Library>
libRbt.so (2013.1, Build901 2013/11/27)

>  <Rbt.Parameter_File>
/export/apps/rDock/src/rDock_2013.1_src/data/scripts/dock_solv.prm

>  <Rbt.Receptor>
prm/blind_docking_40.prm

>  <SCORE>
-67.1691

>  <SCORE.INTER>
-58.9813

>  <SCORE.INTER.CONST>
1

>  <SCORE.INTER.POLAR>
-8.15622

>  <SCORE.INTER.ROT>
6

>  <SCORE.INTER.SOLV>
27.8831

>  <SCORE.INTER.VDW>
-29.0279

>  <SCORE.INTER.norm>
-1.73474

>  <SCORE.INTRA>
-12.094

>  <SCORE.INTRA.DIHEDRAL>
-17.6105

>  <SCORE.INTRA.DIHEDRAL.0>
42.0816

>  <SCORE.INTRA.POLAR>
-0.996671

>  <SCORE.INTRA.POLAR.0>
-0.254682

>  <SCORE.INTRA.REPUL>
0.0353989

>  <SCORE.INTRA.REPUL.0>
0

>  <SCORE.INTRA.SOLV>
2.64209

>  <SCORE.INTRA.SOLV.lig_0>
-109.803

>  <SCORE.INTRA.VDW>
-1.39817

>  <SCORE.INTRA.VDW.0>
0.32176

>  <SCORE.INTRA.norm>
-0.355707

>  <SCORE.RESTR>
3.90621

>  <SCORE.RESTR.CAVITY>
3.90621

>  <SCORE.RESTR.norm>
0.114889

>  <SCORE.SYSTEM>
0

>  <SCORE.SYSTEM.CONST>
0

>  <SCORE.SYSTEM.DIHEDRAL>
0

>  <SCORE.SYSTEM.SOLV>
0

>  <SCORE.SYSTEM.norm>
0

>  <SCORE.heavy>
34

>  <SCORE.norm>
-1.97556

>  <RMSD>
32.912

$$$$
1mwl
 OpenBabel11021811403D
libRbt.so/2013.1/901 2013/11/27
 34 36  0  0  0  0  0  0  0  0999 V2000
   11.9068   -6.5210    5.5091 C   0  0  2  0  0  0  0  0  0  0  0  0
   12.9287   -7.3969    5.1385 O   0  0  0  0  0  0  0  0  0  0  0  0
   10.6057   -6.9997    4.8056 C   0  0  2  0  0  0  0  0  0  0  0  0
   10.2934   -8.3760    5.2031 N   0  3  0  0  0  0  0  0  0  0  0  0
   10.7377   -6.8690    3.2600 C   0  0  1  0  0  0  0  0  0  0  0  0
    9.5965   -7.2609    2.6402 O   0  0  0  0  0  0  0  0  0  0  0  0
   11.0771   -5.3819    2.9122 C   0  0  2  0  0  0  0  0  0  0  0  0
   11.1972   -5.2217    1.4832 O   0  0  0  0  0  0  0  0  0  0  0  0
   12.4093   -4.9969    3.6408 C   0  0  2  0  0  0  0  0  0  0  0  0
   12.2655   -5.1756    5.1026 O   0  0  0  0  0  0  0  0  0  0  0  0
   12.8668   -3.5512    3.4159 C   0  0  2  0  0  0  0  0  0  0  0  0
   14.0606   -3.3271    4.0927 O   0  0  0  0  0  0  0  0  0  0  0  0
   11.8706   -2.5007    3.9395 C   0  0  0  0  0  0  0  0  0  0  0  0
   16.1618   -9.5450    6.9253 C   0  0  2  0  0  0  0  0  0  0  0  0
   17.3514   -9.8554    7.7583 N   0  3  0  0  0  0  0  0  0  0  0  0
   16.4981   -8.4481    5.8719 C   0  0  0  0  0  0  0  0  0  0  0  0
   15.2283   -8.1139    5.0082 C   0  0  2  0  0  0  0  0  0  0  0  0
   15.5870   -7.0572    3.9927 N   0  3  0  0  0  0  0  0  0  0  0  0
   14.0692   -7.6417    5.9516 C   0  0  2  0  0  0  0  0  0  0  0  0
   13.7529   -8.7552    6.9798 C   0  0  2  0  0  0  0  0  0  0  0  0
   12.7352   -8.3069    7.8420 O   0  0  0  0  0  0  0  0  0  0  0  0
   15.0118   -9.0619    7.8345 C   0  0  1  0  0  0  0  0  0  0  0  0
   14.6984  -10.0824    8.7709 O   0  0  0  0  0  0  0  0  0  0  0  0
   15.2567  -10.0113   10.0538 C   0  0  2  0  0  0  0  0  0  0  0  0
   15.6872  -11.4363   10.4500 C   0  0  2  0  0  0  0  0  0  0  0  0
   16.6604  -11.8937    9.5355 O   0  0  0  0  0  0  0  0  0  0  0  0
   14.4310  -12.3727   10.4413 C   0  0  1  0  0  0  0  0  0  0  0  0
   14.7669  -13.7760   10.7849 N   0  3  0  0  0  0  0  0  0  0  0  0
   15.3150  -14.4910    9.6041 C   0  0  0  0  0  0  0  0  0  0  0  0
   13.3665  -11.8155   11.4480 C   0  0  2  0  0  0  0  0  0  0  0  0
   13.9207  -11.7788   12.7765 O   0  0  0  0  0  0  0  0  0  0  0  0
   12.1740  -12.6420   11.4939 C   0  0  0  0  0  0  0  0  0  0  0  0
   13.0076  -10.3413   11.0859 C   0  0  0  0  0  0  0  0  0  0  0  0
   14.2482   -9.5033   10.9996 O   0  0  0  0  0  0  0  0  0  0  0  0
  1  2  1  6  0  0  0
  1  3  1  0  0  0  0
  1 10  1  0  0  0  0
  3  4  1  6  0  0  0
  3  5  1  0  0  0  0
  5  6  1  6  0  0  0
  5  7  1  0  0  0  0
  7  8  1  6  0  0  0
  7  9  1  0  0  0  0
  9 10  1  1  0  0  0
  9 11  1  0  0  0  0
 11 12  1  1  0  0  0
 11 13  1  0  0  0  0
 14 15  1  1  0  0  0
 14 16  1  0  0  0  0
 14 22  1  0  0  0  0
 16 17  1  0  0  0  0
 17 18  1  6  0  0  0
 17 19  1  0  0  0  0
 19  2  1  6  0  0  0
 19 20  1  0  0  0  0
 20 21  1  1  0  0  0
 20 22  1  0  0  0  0
 22 23  1  1  0  0  0
 24 23  1  6  0  0  0
 24 25  1  0  0  0  0
 24 34  1  0  0  0  0
 25 26  1  6  0  0  0
 25 27  1  0  0  0  0
 27 28  1  1  0  0  0
 27 30  1  0  0  0  0
 28 29  1  0  0  0  0
 30 31  1  1  0  0  0
 30 32  1  0  0  0  0
 30 33  1  0  0  0  0
 33 34  1  0  0  0  0
M  CHG  4   4   1  15   1  18   1  28   1
M  END
>  <CHROM.1>
-153.10545568,-155.19072817,66.85851727,-158.15020686,62.55309483,-179.30399491
-66.23104296,-73.05010974,178.29975987,-57.12229268,97.01605065,-138.70147277
-75.93132896,39.29897368,-60.75886986,13.57980712,-8.54999114,6.95552999
1.84736764,-0.02999209,-0.80796993

>  <Name>
1mwl

>  <RI>
0

>  <Rbt.Current_Directory>
/home/itssahil/PROJECTS/Mol_Feturizer/New_Systems/rnas/1mwl

>  <Rbt.Executable>
rbdock ($Id: //depot/dev/client3/rdock/2013.1/src/exe/rbdock.cxx#4 $)

>  <Rbt.Library>
libRbt.so (2013.1, Build901 2013/11/27)

>  <Rbt.Parameter_File>
/export/apps/rDock/src/rDock_2013.1_src/data/scripts/dock_solv.prm

>  <Rbt.Receptor>
prm/blind_docking_40.prm

>  <SCORE>
-71.474

>  <SCORE.INTER>
-63.409

>  <SCORE.INTER.CONST>
1

>  <SCORE.INTER.POLAR>
-8.06372

>  <SCORE.INTER.ROT>
6

>  <SCORE.INTER.SOLV>
26.0428

>  <SCORE.INTER.VDW>
-31.6746

>  <SCORE.INTER.norm>
-1.86497

>  <SCORE.INTRA>
-12.5

>  <SCORE.INTRA.DIHEDRAL>
-20.8091

>  <SCORE.INTRA.DIHEDRAL.0>
42.0816

>  <SCORE.INTRA.POLAR>
-0.252845

>  <SCORE.INTRA.POLAR.0>
-0.254682

>  <SCORE.INTRA.REPUL>
0

>  <SCORE.INTRA.REPUL.0>
0

>  <SCORE.INTRA.SOLV>
1.47091

>  <SCORE.INTRA.SOLV.lig_0>
-109.803

>  <SCORE.INTRA.VDW>
-1.97124

>  <SCORE.INTRA.VDW.0>
0.32176

>  <SCORE.INTRA.norm>
-0.367647

>  <SCORE.RESTR>
4.43504

>  <SCORE.RESTR.CAVITY>
4.43504

>  <SCORE.RESTR.norm>
0.130442

>  <SCORE.SYSTEM>
0

>  <SCORE.SYSTEM.CONST>
0

>  <SCORE.SYSTEM.DIHEDRAL>
0

>  <SCORE.SYSTEM.SOLV>
0

>  <SCORE.SYSTEM.norm>
0

>  <SCORE.heavy>
34

>  <SCORE.norm>
-2.10218

>  <RMSD>
32.925

$$$$
1mwl
 OpenBabel11021811403D
libRbt.so/2013.1/901 2013/11/27
 34 36  0  0  0  0  0  0  0  0999 V2000
   11.7644   -6.5197    5.1664 C   0  0  2  0  0  0  0  0  0  0  0  0
   12.7674   -7.4537    4.9015 O   0  0  0  0  0  0  0  0  0  0  0  0
   10.7076   -6.6374    4.0323 C   0  0  2  0  0  0  0  0  0  0  0  0
   10.1647   -7.9986    3.9869 N   0  3  0  0  0  0  0  0  0  0  0  0
   11.3230   -6.2233    2.6636 C   0  0  1  0  0  0  0  0  0  0  0  0
   10.3994   -6.2990    1.6730 O   0  0  0  0  0  0  0  0  0  0  0  0
   11.8862   -4.7692    2.7893 C   0  0  2  0  0  0  0  0  0  0  0  0
   12.4570   -4.3480    1.5327 O   0  0  0  0  0  0  0  0  0  0  0  0
   12.9562   -4.7520    3.9332 C   0  0  2  0  0  0  0  0  0  0  0  0
   12.3512   -5.1938    5.2092 O   0  0  0  0  0  0  0  0  0  0  0  0
   13.5894   -3.3809    4.1965 C   0  0  2  0  0  0  0  0  0  0  0  0
   12.5905   -2.4321    4.3842 O   0  0  0  0  0  0  0  0  0  0  0  0
   14.4573   -2.8688    3.0326 C   0  0  0  0  0  0  0  0  0  0  0  0
   15.9716   -9.4928    6.8599 C   0  0  2  0  0  0  0  0  0  0  0  0
   17.1356   -9.7586    7.7430 N   0  3  0  0  0  0  0  0  0  0  0  0
   16.3261   -8.4178    5.7901 C   0  0  0  0  0  0  0  0  0  0  0  0
   15.0827   -8.1305    4.8728 C   0  0  2  0  0  0  0  0  0  0  0  0
   15.4590   -7.0942    3.8427 N   0  3  0  0  0  0  0  0  0  0  0  0
   13.8819   -7.6556    5.7611 C   0  0  2  0  0  0  0  0  0  0  0  0
   13.5486   -8.7474    6.8070 C   0  0  2  0  0  0  0  0  0  0  0  0
   12.4924   -8.2959    7.6199 O   0  0  0  0  0  0  0  0  0  0  0  0
   14.7809   -9.0077    7.7141 C   0  0  1  0  0  0  0  0  0  0  0  0
   14.4522  -10.0090    8.6659 O   0  0  0  0  0  0  0  0  0  0  0  0
   14.9576   -9.8906    9.9671 C   0  0  2  0  0  0  0  0  0  0  0  0
   15.4700  -11.2798   10.3918 C   0  0  2  0  0  0  0  0  0  0  0  0
   16.5046  -11.6756    9.5169 O   0  0  0  0  0  0  0  0  0  0  0  0
   14.2820  -12.3004   10.3474 C   0  0  1  0  0  0  0  0  0  0  0  0
   14.7005  -13.6749   10.7161 N   0  3  0  0  0  0  0  0  0  0  0  0
   15.2376  -14.3970    9.5345 C   0  0  0  0  0  0  0  0  0  0  0  0
   13.1462  -11.8106   11.3103 C   0  0  2  0  0  0  0  0  0  0  0  0
   13.6482  -11.7265   12.6572 O   0  0  0  0  0  0  0  0  0  0  0  0
   12.0121  -12.7168   11.3216 C   0  0  0  0  0  0  0  0  0  0  0  0
   12.7005  -10.3672   10.9217 C   0  0  0  0  0  0  0  0  0  0  0  0
   13.8832   -9.4465   10.8716 O   0  0  0  0  0  0  0  0  0  0  0  0
  1  2  1  6  0  0  0
  1  3  1  0  0  0  0
  1 10  1  0  0  0  0
  3  4  1  6  0  0  0
  3  5  1  0  0  0  0
  5  6  1  6  0  0  0
  5  7  1  0  0  0  0
  7  8  1  6  0  0  0
  7  9  1  0  0  0  0
  9 10  1  1  0  0  0
  9 11  1  0  0  0  0
 11 12  1  6  0  0  0
 11 13  1  0  0  0  0
 14 15  1  1  0  0  0
 14 16  1  0  0  0  0
 14 22  1  0  0  0  0
 16 17  1  0  0  0  0
 17 18  1  6  0  0  0
 17 19  1  0  0  0  0
 19  2  1  6  0  0  0
 19 20  1  0  0  0  0
 20 21  1  1  0  0  0
 20 22  1  0  0  0  0
 22 23  1  1  0  0  0
 24 23  1  6  0  0  0
 24 25  1  0  0  0  0
 24 34  1  0  0  0  0
 25 26  1  6  0  0  0
 25 27  1  0  0  0  0
 27 28  1  1  0  0  0
 27 30  1  0  0  0  0
 28 29  1  0  0  0  0
 30 31  1  1  0  0  0
 30 32  1  0  0  0  0
 30 33  1  0  0  0  0
 33 34  1  0  0  0  0
M  CHG  4   4   1  15   1  18   1  28   1
M  END
>  <CHROM.1>
-177.90457244,-150.57168379,-22.68981088,66.65317153,58.27750874,52.13140479
78.80617760,43.20439446,59.37107920,-59.94062659,97.28474235,-135.77363339
-79.87572504,34.69423054,-59.66331511,13.61284794,-8.37157843,6.77380188
1.77330480,-0.01325603,-0.80598088

>  <Name>
1mwl

>  <RI>
0

>  <Rbt.Current_Directory>
/home/itssahil/PROJECTS/Mol_Feturizer/New_Systems/rnas/1mwl

>  <Rbt.Executable>
rbdock ($Id: //depot/dev/client3/rdock/2013.1/src/exe/rbdock.cxx#4 $)

>  <Rbt.Library>
libRbt.so (2013.1, Build901 2013/11/27)

>  <Rbt.Parameter_File>
/export/apps/rDock/src/rDock_2013.1_src/data/scripts/dock_solv.prm

>  <Rbt.Receptor>
prm/blind_docking_40.prm

>  <SCORE>
-66.1275

>  <SCORE.INTER>
-58.0234

>  <SCORE.INTER.CONST>
1

>  <SCORE.INTER.POLAR>
-7.3968

>  <SCORE.INTER.ROT>
6

>  <SCORE.INTER.SOLV>
26.8266

>  <SCORE.INTER.VDW>
-30.5685

>  <SCORE.INTER.norm>
-1.70657

>  <SCORE.INTRA>
-11.6869

>  <SCORE.INTRA.DIHEDRAL>
-19.2149

>  <SCORE.INTRA.DIHEDRAL.0>
42.0816

>  <SCORE.INTRA.POLAR>
-0.40832

>  <SCORE.INTRA.POLAR.0>
-0.254682

>  <SCORE.INTRA.REPUL>
0

>  <SCORE.INTRA.REPUL.0>
0

>  <SCORE.INTRA.SOLV>
2.56618

>  <SCORE.INTRA.SOLV.lig_0>
-109.803

>  <SCORE.INTRA.VDW>
-1.97429

>  <SCORE.INTRA.VDW.0>
0.32176

>  <SCORE.INTRA.norm>
-0.343733

>  <SCORE.RESTR>
3.58288

>  <SCORE.RESTR.CAVITY>
3.58288

>  <SCORE.RESTR.norm>
0.105379

>  <SCORE.SYSTEM>
0

>  <SCORE.SYSTEM.CONST>
0

>  <SCORE.SYSTEM.DIHEDRAL>
0

>  <SCORE.SYSTEM.SOLV>
0

>  <SCORE.SYSTEM.norm>
0

>  <SCORE.heavy>
34

>  <SCORE.norm>
-1.94493

>  <RMSD>
32.927

$$$$
1mwl
 OpenBabel11021811403D
libRbt.so/2013.1/901 2013/11/27
 34 36  0  0  0  0  0  0  0  0999 V2000
   11.8251   -6.5366    5.3221 C   0  0  2  0  0  0  0  0  0  0  0  0
   12.8444   -7.4367    5.0068 O   0  0  0  0  0  0  0  0  0  0  0  0
   10.6182   -6.8571    4.3962 C   0  0  2  0  0  0  0  0  0  0  0  0
   10.1818   -8.2424    4.5963 N   0  3  0  0  0  0  0  0  0  0  0  0
   10.9810   -6.5834    2.9073 C   0  0  1  0  0  0  0  0  0  0  0  0
    9.9242   -6.8366    2.0953 O   0  0  0  0  0  0  0  0  0  0  0  0
   11.4426   -5.0948    2.7717 C   0  0  2  0  0  0  0  0  0  0  0  0
   11.7783   -4.8025    1.3991 O   0  0  0  0  0  0  0  0  0  0  0  0
   12.6719   -4.8717    3.7168 C   0  0  2  0  0  0  0  0  0  0  0  0
   12.3071   -5.1840    5.1164 O   0  0  0  0  0  0  0  0  0  0  0  0
   13.2301   -3.4440    3.7143 C   0  0  2  0  0  0  0  0  0  0  0  0
   14.3316   -3.3704    4.5596 O   0  0  0  0  0  0  0  0  0  0  0  0
   12.2282   -2.3894    4.2187 C   0  0  0  0  0  0  0  0  0  0  0  0
   16.0522   -9.5366    6.8935 C   0  0  2  0  0  0  0  0  0  0  0  0
   17.2210   -9.8288    7.7618 N   0  3  0  0  0  0  0  0  0  0  0  0
   16.4046   -8.4378    5.8473 C   0  0  0  0  0  0  0  0  0  0  0  0
   15.1562   -8.1230    4.9458 C   0  0  2  0  0  0  0  0  0  0  0  0
   15.5304   -7.0639    3.9383 N   0  3  0  0  0  0  0  0  0  0  0  0
   13.9638   -7.6641    5.8535 C   0  0  2  0  0  0  0  0  0  0  0  0
   13.6325   -8.7792    6.8753 C   0  0  2  0  0  0  0  0  0  0  0  0
   12.5840   -8.3427    7.7060 O   0  0  0  0  0  0  0  0  0  0  0  0
   14.8697   -9.0668    7.7673 C   0  0  1  0  0  0  0  0  0  0  0  0
   14.5428  -10.0892    8.6970 O   0  0  0  0  0  0  0  0  0  0  0  0
   14.9579   -9.9452   10.0272 C   0  0  2  0  0  0  0  0  0  0  0  0
   15.5390  -11.2984   10.4790 C   0  0  2  0  0  0  0  0  0  0  0  0
   16.6504  -11.6152    9.6685 O   0  0  0  0  0  0  0  0  0  0  0  0
   14.4300  -12.3987   10.3585 C   0  0  1  0  0  0  0  0  0  0  0  0
   14.9199  -13.7433   10.7485 N   0  3  0  0  0  0  0  0  0  0  0  0
   15.7031  -14.3589    9.6468 C   0  0  0  0  0  0  0  0  0  0  0  0
   13.2059  -11.9958   11.2508 C   0  0  2  0  0  0  0  0  0  0  0  0
   13.6172  -11.8865   12.6264 O   0  0  0  0  0  0  0  0  0  0  0  0
   12.1392  -12.9786   11.1897 C   0  0  0  0  0  0  0  0  0  0  0  0
   12.6853  -10.5841   10.8394 C   0  0  0  0  0  0  0  0  0  0  0  0
   13.8017   -9.5832   10.8649 O   0  0  0  0  0  0  0  0  0  0  0  0
  1  2  1  6  0  0  0
  1  3  1  0  0  0  0
  1 10  1  0  0  0  0
  3  4  1  6  0  0  0
  3  5  1  0  0  0  0
  5  6  1  6  0  0  0
  5  7  1  0  0  0  0
  7  8  1  6  0  0  0
  7  9  1  0  0  0  0
  9 10  1  1  0  0  0
  9 11  1  0  0  0  0
 11 12  1  1  0  0  0
 11 13  1  0  0  0  0
 14 15  1  1  0  0  0
 14 16  1  0  0  0  0
 14 22  1  0  0  0  0
 16 17  1  0  0  0  0
 17 18  1  6  0  0  0
 17 19  1  0  0  0  0
 19  2  1  6  0  0  0
 19 20  1  0  0  0  0
 20 21  1  1  0  0  0
 20 22  1  0  0  0  0
 22 23  1  1  0  0  0
 24 23  1  6  0  0  0
 24 25  1  0  0  0  0
 24 34  1  0  0  0  0
 25 26  1  6  0  0  0
 25 27  1  0  0  0  0
 27 28  1  1  0  0  0
 27 30  1  0  0  0  0
 28 29  1  0  0  0  0
 30 31  1  1  0  0  0
 30 32  1  0  0  0  0
 30 33  1  0  0  0  0
 33 34  1  0  0  0  0
M  CHG  4   4   1  15   1  18   1  28   1
M  END
>  <CHROM.1>
-164.07500468,-152.74298633,144.89825377,-82.40285942,66.02933399,-178.60793936
174.32109314,43.17691064,179.71425965,-175.04497018,102.86985549,-135.18047851
119.53288851,40.73363942,62.23059329,13.59151561,-8.50101128,6.87085650,1.81856772
-0.07344484,-0.78859696

>  <Name>
1mwl

>  <RI>
0

>  <Rbt.Current_Directory>
/home/itssahil/PROJECTS/Mol_Feturizer/New_Systems/rnas/1mwl

>  <Rbt.Executable>
rbdock ($Id: //depot/dev/client3/rdock/2013.1/src/exe/rbdock.cxx#4 $)

>  <Rbt.Library>
libRbt.so (2013.1, Build901 2013/11/27)

>  <Rbt.Parameter_File>
/export/apps/rDock/src/rDock_2013.1_src/data/scripts/dock_solv.prm

>  <Rbt.Receptor>
prm/blind_docking_40.prm

>  <SCORE>
-73.1625

>  <SCORE.INTER>
-66.2251

>  <SCORE.INTER.CONST>
1

>  <SCORE.INTER.POLAR>
-8.84958

>  <SCORE.INTER.ROT>
6

>  <SCORE.INTER.SOLV>
26.9183

>  <SCORE.INTER.VDW>
-31.2242

>  <SCORE.INTER.norm>
-1.9478

>  <SCORE.INTRA>
-11.1679

>  <SCORE.INTRA.DIHEDRAL>
-12.0934

>  <SCORE.INTRA.DIHEDRAL.0>
42.0816

>  <SCORE.INTRA.POLAR>
-0.921214

>  <SCORE.INTRA.POLAR.0>
-0.254682

>  <SCORE.INTRA.REPUL>
0

>  <SCORE.INTRA.REPUL.0>
0

>  <SCORE.INTRA.SOLV>
1.50564

>  <SCORE.INTRA.SOLV.lig_0>
-109.803

>  <SCORE.INTRA.VDW>
-2.74194

>  <SCORE.INTRA.VDW.0>
0.32176

>  <SCORE.INTRA.norm>
-0.328469

>  <SCORE.RESTR>
4.23056

>  <SCORE.RESTR.CAVITY>
4.23056

>  <SCORE.RESTR.norm>
0.124428

>  <SCORE.SYSTEM>
0

>  <SCORE.SYSTEM.CONST>
0

>  <SCORE.SYSTEM.DIHEDRAL>
0

>  <SCORE.SYSTEM.SOLV>
0

>  <SCORE.SYSTEM.norm>
0

>  <SCORE.heavy>
34

>  <SCORE.norm>
-2.15184

>  <RMSD>
32.930

$$$$
1mwl
 OpenBabel11021811403D
libRbt.so/2013.1/901 2013/11/27
 34 36  0  0  0  0  0  0  0  0999 V2000
   11.8669   -6.4635    5.3048 C   0  0  2  0  0  0  0  0  0  0  0  0
   12.8578   -7.4002    5.0058 O   0  0  0  0  0  0  0  0  0  0  0  0
   10.6535   -6.7579    4.3787 C   0  0  2  0  0  0  0  0  0  0  0  0
   10.1720   -8.1255    4.5961 N   0  3  0  0  0  0  0  0  0  0  0  0
   11.0301   -6.5166    2.8876 C   0  0  1  0  0  0  0  0  0  0  0  0
    9.9684   -6.7469    2.0751 O   0  0  0  0  0  0  0  0  0  0  0  0
   11.5399   -5.0456    2.7334 C   0  0  2  0  0  0  0  0  0  0  0  0
   11.8894   -4.7834    1.3581 O   0  0  0  0  0  0  0  0  0  0  0  0
   12.7724   -4.8492    3.6800 C   0  0  2  0  0  0  0  0  0  0  0  0
   12.3930   -5.1301    5.0823 O   0  0  0  0  0  0  0  0  0  0  0  0
   13.3763   -3.4403    3.6601 C   0  0  2  0  0  0  0  0  0  0  0  0
   14.4442   -3.3759    4.5482 O   0  0  0  0  0  0  0  0  0  0  0  0
   12.3895   -2.3403    4.0919 C   0  0  0  0  0  0  0  0  0  0  0  0
   16.0826   -9.5043    6.8586 C   0  0  2  0  0  0  0  0  0  0  0  0
   17.2562   -9.7998    7.7192 N   0  3  0  0  0  0  0  0  0  0  0  0
   16.4257   -8.3940    5.8216 C   0  0  0  0  0  0  0  0  0  0  0  0
   15.1722   -8.0759    4.9285 C   0  0  2  0  0  0  0  0  0  0  0  0
   15.5375   -7.0056    3.9296 N   0  3  0  0  0  0  0  0  0  0  0  0
   13.9817   -7.6310    5.8456 C   0  0  2  0  0  0  0  0  0  0  0  0
   13.6595   -8.7572    6.8579 C   0  0  2  0  0  0  0  0  0  0  0  0
   12.6127   -8.3332    7.6973 O   0  0  0  0  0  0  0  0  0  0  0  0
   14.9018   -9.0480    7.7419 C   0  0  1  0  0  0  0  0  0  0  0  0
   14.5832  -10.0807    8.6631 O   0  0  0  0  0  0  0  0  0  0  0  0
   14.9852   -9.9380    9.9975 C   0  0  2  0  0  0  0  0  0  0  0  0
   15.5553  -11.2936   10.4558 C   0  0  2  0  0  0  0  0  0  0  0  0
   16.6737  -11.6159    9.6570 O   0  0  0  0  0  0  0  0  0  0  0  0
   14.4427  -12.3890   10.3243 C   0  0  1  0  0  0  0  0  0  0  0  0
   14.9224  -13.7356   10.7199 N   0  3  0  0  0  0  0  0  0  0  0  0
   15.7950  -14.3147    9.6667 C   0  0  0  0  0  0  0  0  0  0  0  0
   13.2112  -11.9801   11.2037 C   0  0  2  0  0  0  0  0  0  0  0  0
   13.6088  -11.8720   12.5834 O   0  0  0  0  0  0  0  0  0  0  0  0
   12.1408  -12.9580   11.1320 C   0  0  0  0  0  0  0  0  0  0  0  0
   12.7014  -10.5662   10.7864 C   0  0  0  0  0  0  0  0  0  0  0  0
   13.8220   -9.5704   10.8230 O   0  0  0  0  0  0  0  0  0  0  0  0
  1  2  1  6  0  0  0
  1  3  1  0  0  0  0
  1 10  1  0  0  0  0
  3  4  1  6  0  0  0
  3  5  1  0  0  0  0
  5  6  1  6  0  0  0
  5  7  1  0  0  0  0
  7  8  1  6  0  0  0
  7  9  1  0  0  0  0
  9 10  1  1  0  0  0
  9 11  1  0  0  0  0
 11 12  1  1  0  0  0
 11 13  1  0  0  0  0
 14 15  1  1  0  0  0
 14 16  1  0  0  0  0
 14 22  1  0  0  0  0
 16 17  1  0  0  0  0
 17 18  1  6  0  0  0
 17 19  1  0  0  0  0
 19  2  1  6  0  0  0
 19 20  1  0  0  0  0
 20 21  1  1  0  0  0
 20 22  1  0  0  0  0
 22 23  1  1  0  0  0
 24 23  1  6  0  0  0
 24 25  1  0  0  0  0
 24 34  1  0  0  0  0
 25 26  1  6  0  0  0
 25 27  1  0  0  0  0
 27 28  1  1  0  0  0
 27 30  1  0  0  0  0
 28 29  1  0  0  0  0
 30 31  1  1  0  0  0
 30 32  1  0  0  0  0
 30 33  1  0  0  0  0
 33 34  1  0  0  0  0
M  CHG  4   4   1  15   1  18   1  28   1
M  END
>  <CHROM.1>
-165.49599282,-149.74377139,28.64087968,-86.15753874,68.70143462,179.06249576
174.95795793,45.58982191,59.80081330,-55.93789213,103.85418347,-136.38870283
122.09466159,44.81735158,61.17332409,13.63484453,-8.46451047,6.84140984,1.81196917
-0.07216888,-0.78726630

>  <Name>
1mwl

>  <RI>
0

>  <Rbt.Current_Directory>
/home/itssahil/PROJECTS/Mol_Feturizer/New_Systems/rnas/1mwl

>  <Rbt.Executable>
rbdock ($Id: //depot/dev/client3/rdock/2013.1/src/exe/rbdock.cxx#4 $)

>  <Rbt.Library>
libRbt.so (2013.1, Build901 2013/11/27)

>  <Rbt.Parameter_File>
/export/apps/rDock/src/rDock_2013.1_src/data/scripts/dock_solv.prm

>  <Rbt.Receptor>
prm/blind_docking_40.prm

>  <SCORE>
-73.2815

>  <SCORE.INTER>
-66.4553

>  <SCORE.INTER.CONST>
1

>  <SCORE.INTER.POLAR>
-8.92501

>  <SCORE.INTER.ROT>
6

>  <SCORE.INTER.SOLV>
27.271

>  <SCORE.INTER.VDW>
-31.2438

>  <SCORE.INTER.norm>
-1.95457

>  <SCORE.INTRA>
-11.0425

>  <SCORE.INTRA.DIHEDRAL>
-11.8228

>  <SCORE.INTRA.DIHEDRAL.0>
42.0816

>  <SCORE.INTRA.POLAR>
-0.91215

>  <SCORE.INTRA.POLAR.0>
-0.254682

>  <SCORE.INTRA.REPUL>
0

>  <SCORE.INTRA.REPUL.0>
0

>  <SCORE.INTRA.SOLV>
1.63603

>  <SCORE.INTRA.SOLV.lig_0>
-109.803

>  <SCORE.INTRA.VDW>
-2.84777

>  <SCORE.INTRA.VDW.0>
0.32176

>  <SCORE.INTRA.norm>
-0.324779

>  <SCORE.RESTR>
4.21625

>  <SCORE.RESTR.CAVITY>
4.21625

>  <SCORE.RESTR.norm>
0.124007

>  <SCORE.SYSTEM>
0

>  <SCORE.SYSTEM.CONST>
0

>  <SCORE.SYSTEM.DIHEDRAL>
0

>  <SCORE.SYSTEM.SOLV>
0

>  <SCORE.SYSTEM.norm>
0

>  <SCORE.heavy>
34

>  <SCORE.norm>
-2.15534

>  <RMSD>
32.955

$$$$
1mwl
 OpenBabel11021811403D
libRbt.so/2013.1/901 2013/11/27
 34 36  0  0  0  0  0  0  0  0999 V2000
   11.7314   -6.6192    5.4990 C   0  0  2  0  0  0  0  0  0  0  0  0
   12.7379   -7.5168    5.1389 O   0  0  0  0  0  0  0  0  0  0  0  0
   10.5379   -6.8442    4.5284 C   0  0  2  0  0  0  0  0  0  0  0  0
   10.0682   -8.2302    4.6180 N   0  3  0  0  0  0  0  0  0  0  0  0
   10.9382   -6.4713    3.0710 C   0  0  1  0  0  0  0  0  0  0  0  0
    9.8939   -6.6408    2.2220 O   0  0  0  0  0  0  0  0  0  0  0  0
   11.4339   -4.9876    3.0538 C   0  0  2  0  0  0  0  0  0  0  0  0
   11.8049   -4.6040    1.7131 O   0  0  0  0  0  0  0  0  0  0  0  0
   12.6472   -4.8617    4.0367 C   0  0  2  0  0  0  0  0  0  0  0  0
   12.2461   -5.2665    5.4022 O   0  0  0  0  0  0  0  0  0  0  0  0
   13.2353   -3.4506    4.1497 C   0  0  2  0  0  0  0  0  0  0  0  0
   12.2322   -2.5512    4.4936 O   0  0  0  0  0  0  0  0  0  0  0  0
   13.8483   -2.9311    2.8364 C   0  0  0  0  0  0  0  0  0  0  0  0
   16.0832   -9.5456    6.8572 C   0  0  2  0  0  0  0  0  0  0  0  0
   17.3072   -9.8089    7.6560 N   0  3  0  0  0  0  0  0  0  0  0  0
   16.3558   -8.4613    5.7729 C   0  0  0  0  0  0  0  0  0  0  0  0
   15.0501   -8.1769    4.9457 C   0  0  2  0  0  0  0  0  0  0  0  0
   15.3474   -7.1314    3.8992 N   0  3  0  0  0  0  0  0  0  0  0  0
   13.9105   -7.7163    5.9180 C   0  0  2  0  0  0  0  0  0  0  0  0
   13.6574   -8.8171    6.9769 C   0  0  2  0  0  0  0  0  0  0  0  0
   12.6570   -8.3783    7.8639 O   0  0  0  0  0  0  0  0  0  0  0  0
   14.9512   -9.0745    7.7950 C   0  0  1  0  0  0  0  0  0  0  0  0
   14.6957  -10.0841    8.7602 O   0  0  0  0  0  0  0  0  0  0  0  0
   15.3700  -10.0268    9.9869 C   0  0  2  0  0  0  0  0  0  0  0  0
   15.8089  -11.4604   10.3402 C   0  0  2  0  0  0  0  0  0  0  0  0
   16.6861  -11.9325    9.3401 O   0  0  0  0  0  0  0  0  0  0  0  0
   14.5405  -12.3741   10.4452 C   0  0  1  0  0  0  0  0  0  0  0  0
   14.8808  -13.7842   10.7550 N   0  3  0  0  0  0  0  0  0  0  0  0
   15.3148  -14.5030    9.5298 C   0  0  0  0  0  0  0  0  0  0  0  0
   13.5826  -11.8008   11.5456 C   0  0  2  0  0  0  0  0  0  0  0  0
   14.2564  -11.7779   12.8180 O   0  0  0  0  0  0  0  0  0  0  0  0
   12.3845  -12.6059   11.6993 C   0  0  0  0  0  0  0  0  0  0  0  0
   13.2189  -10.3194   11.2197 C   0  0  0  0  0  0  0  0  0  0  0  0
   14.4615   -9.5035   11.0215 O   0  0  0  0  0  0  0  0  0  0  0  0
  1  2  1  6  0  0  0
  1  3  1  0  0  0  0
  1 10  1  0  0  0  0
  3  4  1  6  0  0  0
  3  5  1  0  0  0  0
  5  6  1  6  0  0  0
  5  7  1  0  0  0  0
  7  8  1  6  0  0  0
  7  9  1  0  0  0  0
  9 10  1  1  0  0  0
  9 11  1  0  0  0  0
 11 12  1  6  0  0  0
 11 13  1  0  0  0  0
 14 15  1  1  0  0  0
 14 16  1  0  0  0  0
 14 22  1  0  0  0  0
 16 17  1  0  0  0  0
 17 18  1  6  0  0  0
 17 19  1  0  0  0  0
 19  2  1  6  0  0  0
 19 20  1  0  0  0  0
 20 21  1  1  0  0  0
 20 22  1  0  0  0  0
 22 23  1  1  0  0  0
 24 23  1  6  0  0  0
 24 25  1  0  0  0  0
 24 34  1  0  0  0  0
 25 26  1  6  0  0  0
 25 27  1  0  0  0  0
 27 28  1  1  0  0  0
 27 30  1  0  0  0  0
 28 29  1  0  0  0  0
 30 31  1  1  0  0  0
 30 32  1  0  0  0  0
 30 33  1  0  0  0  0
 33 34  1  0  0  0  0
M  CHG  4   4   1  15   1  18   1  28   1
M  END
>  <CHROM.1>
-171.50104740,-152.46401618,-72.68086415,-169.33647068,68.00771692,54.88949991
-58.87077287,-67.20981432,-59.60449714,64.00259018,92.36935642,-138.04763729
-74.40791528,39.69193103,55.34401788,13.63307807,-8.47548064,6.91871227,1.84245121
0.03398968,-0.81536034

>  <Name>
1mwl

>  <RI>
0

>  <Rbt.Current_Directory>
/home/itssahil/PROJECTS/Mol_Feturizer/New_Systems/rnas/1mwl

>  <Rbt.Executable>
rbdock ($Id: //depot/dev/client3/rdock/2013.1/src/exe/rbdock.cxx#4 $)

>  <Rbt.Library>
libRbt.so (2013.1, Build901 2013/11/27)

>  <Rbt.Parameter_File>
/export/apps/rDock/src/rDock_2013.1_src/data/scripts/dock_solv.prm

>  <Rbt.Receptor>
prm/blind_docking_40.prm

>  <SCORE>
-62.7092

>  <SCORE.INTER>
-52.4444

>  <SCORE.INTER.CONST>
1

>  <SCORE.INTER.POLAR>
-6.37085

>  <SCORE.INTER.ROT>
6

>  <SCORE.INTER.SOLV>
27.1134

>  <SCORE.INTER.VDW>
-30.3646

>  <SCORE.INTER.norm>
-1.54248

>  <SCORE.INTRA>
-14.2303

>  <SCORE.INTRA.DIHEDRAL>
-25.2544

>  <SCORE.INTRA.DIHEDRAL.0>
42.0816

>  <SCORE.INTRA.POLAR>
-0.248318

>  <SCORE.INTRA.POLAR.0>
-0.254682

>  <SCORE.INTRA.REPUL>
0.0370751

>  <SCORE.INTRA.REPUL.0>
0

>  <SCORE.INTRA.SOLV>
1.35144

>  <SCORE.INTRA.SOLV.lig_0>
-109.803

>  <SCORE.INTRA.VDW>
-1.61993

>  <SCORE.INTRA.VDW.0>
0.32176

>  <SCORE.INTRA.norm>
-0.418539

>  <SCORE.RESTR>
3.96554

>  <SCORE.RESTR.CAVITY>
3.96554

>  <SCORE.RESTR.norm>
0.116633

>  <SCORE.SYSTEM>
0

>  <SCORE.SYSTEM.CONST>
0

>  <SCORE.SYSTEM.DIHEDRAL>
0

>  <SCORE.SYSTEM.SOLV>
0

>  <SCORE.SYSTEM.norm>
0

>  <SCORE.heavy>
34

>  <SCORE.norm>
-1.84439

>  <RMSD>
32.959

$$$$
1mwl
 OpenBabel11021811403D
libRbt.so/2013.1/901 2013/11/27
 34 36  0  0  0  0  0  0  0  0999 V2000
   11.7601   -6.7070    5.5056 C   0  0  2  0  0  0  0  0  0  0  0  0
   12.8475   -7.4828    5.1001 O   0  0  0  0  0  0  0  0  0  0  0  0
   10.5539   -7.0879    4.6017 C   0  0  2  0  0  0  0  0  0  0  0  0
   10.2598   -8.5187    4.7280 N   0  3  0  0  0  0  0  0  0  0  0  0
   10.8304   -6.6914    3.1219 C   0  0  1  0  0  0  0  0  0  0  0  0
    9.7716   -6.9975    2.3311 O   0  0  0  0  0  0  0  0  0  0  0  0
   11.1422   -5.1594    3.0658 C   0  0  2  0  0  0  0  0  0  0  0  0
   11.3944   -4.7541    1.7040 O   0  0  0  0  0  0  0  0  0  0  0  0
   12.3807   -4.8744    3.9817 C   0  0  2  0  0  0  0  0  0  0  0  0
   12.1024   -5.3040    5.3700 O   0  0  0  0  0  0  0  0  0  0  0  0
   12.7996   -3.4015    4.0512 C   0  0  2  0  0  0  0  0  0  0  0  0
   12.2733   -2.7131    2.9637 O   0  0  0  0  0  0  0  0  0  0  0  0
   14.3237   -3.1907    3.9983 C   0  0  0  0  0  0  0  0  0  0  0  0
   16.1198   -9.5554    6.9046 C   0  0  2  0  0  0  0  0  0  0  0  0
   17.3119   -9.8380    7.7438 N   0  3  0  0  0  0  0  0  0  0  0  0
   16.4362   -8.4516    5.8523 C   0  0  0  0  0  0  0  0  0  0  0  0
   15.1635   -8.1470    4.9819 C   0  0  2  0  0  0  0  0  0  0  0  0
   15.5031   -7.0828    3.9677 N   0  3  0  0  0  0  0  0  0  0  0  0
   13.9891   -7.7011    5.9191 C   0  0  2  0  0  0  0  0  0  0  0  0
   13.6932   -8.8210    6.9464 C   0  0  2  0  0  0  0  0  0  0  0  0
   12.6610   -8.3958    7.8031 O   0  0  0  0  0  0  0  0  0  0  0  0
   14.9544   -9.0984    7.8077 C   0  0  1  0  0  0  0  0  0  0  0  0
   14.6597  -10.1254    8.7430 O   0  0  0  0  0  0  0  0  0  0  0  0
   15.2195  -10.0472   10.0249 C   0  0  2  0  0  0  0  0  0  0  0  0
   15.7259  -11.4542   10.3945 C   0  0  2  0  0  0  0  0  0  0  0  0
   16.7174  -11.8441    9.4685 O   0  0  0  0  0  0  0  0  0  0  0  0
   14.5205  -12.4550   10.3742 C   0  0  1  0  0  0  0  0  0  0  0  0
   14.9310  -13.8445   10.6920 N   0  3  0  0  0  0  0  0  0  0  0  0
   15.3479  -14.5652    9.4621 C   0  0  0  0  0  0  0  0  0  0  0  0
   13.4329  -11.9719   11.3944 C   0  0  2  0  0  0  0  0  0  0  0  0
   13.9907  -11.9290   12.7213 O   0  0  0  0  0  0  0  0  0  0  0  0
   12.2856  -12.8604   11.4304 C   0  0  0  0  0  0  0  0  0  0  0  0
   12.9956  -10.5125   11.0595 C   0  0  0  0  0  0  0  0  0  0  0  0
   14.1902   -9.6092   10.9832 O   0  0  0  0  0  0  0  0  0  0  0  0
  1  2  1  6  0  0  0
  1  3  1  0  0  0  0
  1 10  1  0  0  0  0
  3  4  1  6  0  0  0
  3  5  1  0  0  0  0
  5  6  1  6  0  0  0
  5  7  1  0  0  0  0
  7  8  1  6  0  0  0
  7  9  1  0  0  0  0
  9 10  1  1  0  0  0
  9 11  1  0  0  0  0
 11 12  1  6  0  0  0
 11 13  1  0  0  0  0
 14 15  1  1  0  0  0
 14 16  1  0  0  0  0
 14 22  1  0  0  0  0
 16 17  1  0  0  0  0
 17 18  1  6  0  0  0
 17 19  1  0  0  0  0
 19  2  1  6  0  0  0
 19 20  1  0  0  0  0
 20 21  1  1  0  0  0
 20 22  1  0  0  0  0
 22 23  1  1  0  0  0
 24 23  1  6  0  0  0
 24 25  1  0  0  0  0
 24 34  1  0  0  0  0
 25 26  1  6  0  0  0
 25 27  1  0  0  0  0
 27 28  1  1  0  0  0
 27 30  1  0  0  0  0
 28 29  1  0  0  0  0
 30 31  1  1  0  0  0
 30 32  1  0  0  0  0
 30 33  1  0  0  0  0
 33 34  1  0  0  0  0
M  CHG  4   4   1  15   1  18   1  28   1
M  END
>  <CHROM.1>
-161.04878142,-159.94042133,-163.36058947,-134.82842309,71.85695855,-19.40996573
-44.51231207,166.23794625,-66.23024891,-178.04168214,96.44291860,-136.44097701
171.09231708,32.05943043,53.33980050,13.59424714,-8.56872662,6.89826023,1.84388997
-0.06275165,-0.78911945

>  <Name>
1mwl

>  <RI>
0

>  <Rbt.Current_Directory>
/home/itssahil/PROJECTS/Mol_Feturizer/New_Systems/rnas/1mwl

>  <Rbt.Executable>
rbdock ($Id: //depot/dev/client3/rdock/2013.1/src/exe/rbdock.cxx#4 $)

>  <Rbt.Library>
libRbt.so (2013.1, Build901 2013/11/27)

>  <Rbt.Parameter_File>
/export/apps/rDock/src/rDock_2013.1_src/data/scripts/dock_solv.prm

>  <Rbt.Receptor>
prm/blind_docking_40.prm

>  <SCORE>
-66.8497

>  <SCORE.INTER>
-58.8147

>  <SCORE.INTER.CONST>
1

>  <SCORE.INTER.POLAR>
-7.07135

>  <SCORE.INTER.ROT>
6

>  <SCORE.INTER.SOLV>
24.1338

>  <SCORE.INTER.VDW>
-31.2832

>  <SCORE.INTER.norm>
-1.72984

>  <SCORE.INTRA>
-12.413

>  <SCORE.INTRA.DIHEDRAL>
-12.4115

>  <SCORE.INTRA.DIHEDRAL.0>
42.0816

>  <SCORE.INTRA.POLAR>
-1.43592

>  <SCORE.INTRA.POLAR.0>
-0.254682

>  <SCORE.INTRA.REPUL>
0

>  <SCORE.INTRA.REPUL.0>
0

>  <SCORE.INTRA.SOLV>
1.63709

>  <SCORE.INTRA.SOLV.lig_0>
-109.803

>  <SCORE.INTRA.VDW>
-2.14371

>  <SCORE.INTRA.VDW.0>
0.32176

>  <SCORE.INTRA.norm>
-0.365089

>  <SCORE.RESTR>
4.37798

>  <SCORE.RESTR.CAVITY>
4.37798

>  <SCORE.RESTR.norm>
0.128764

>  <SCORE.SYSTEM>
0

>  <SCORE.SYSTEM.CONST>
0

>  <SCORE.SYSTEM.DIHEDRAL>
0

>  <SCORE.SYSTEM.SOLV>
0

>  <SCORE.SYSTEM.norm>
0

>  <SCORE.heavy>
34

>  <SCORE.norm>
-1.96617

>  <RMSD>
32.965

$$$$
1mwl
 OpenBabel11021811403D
libRbt.so/2013.1/901 2013/11/27
 34 36  0  0  0  0  0  0  0  0999 V2000
   11.8214   -6.0709    4.9339 C   0  0  2  0  0  0  0  0  0  0  0  0
   12.8389   -6.9640    4.5937 O   0  0  0  0  0  0  0  0  0  0  0  0
   10.7358   -6.1578    3.8244 C   0  0  2  0  0  0  0  0  0  0  0  0
   10.2253   -7.5284    3.7232 N   0  3  0  0  0  0  0  0  0  0  0  0
   11.3017   -5.6585    2.4628 C   0  0  1  0  0  0  0  0  0  0  0  0
   10.3523   -5.7072    1.4951 O   0  0  0  0  0  0  0  0  0  0  0  0
   11.8325   -4.1986    2.6484 C   0  0  2  0  0  0  0  0  0  0  0  0
   12.3568   -3.6990    1.4002 O   0  0  0  0  0  0  0  0  0  0  0  0
   12.9340   -4.2123    3.7621 C   0  0  2  0  0  0  0  0  0  0  0  0
   12.3766   -4.7343    5.0294 O   0  0  0  0  0  0  0  0  0  0  0  0
   13.5407   -2.8406    4.0788 C   0  0  2  0  0  0  0  0  0  0  0  0
   12.5422   -1.8730    4.0679 O   0  0  0  0  0  0  0  0  0  0  0  0
   14.5964   -2.3823    3.0562 C   0  0  0  0  0  0  0  0  0  0  0  0
   15.5466   -9.6041    6.5831 C   0  0  2  0  0  0  0  0  0  0  0  0
   16.5720  -10.1124    7.5295 N   0  3  0  0  0  0  0  0  0  0  0  0
   16.1400   -8.4843    5.6776 C   0  0  0  0  0  0  0  0  0  0  0  0
   15.0424   -7.9406    4.6928 C   0  0  2  0  0  0  0  0  0  0  0  0
   15.6484   -6.8659    3.8241 N   0  3  0  0  0  0  0  0  0  0  0  0
   13.8258   -7.4002    5.5198 C   0  0  2  0  0  0  0  0  0  0  0  0
   13.2537   -8.5370    6.4016 C   0  0  2  0  0  0  0  0  0  0  0  0
   12.1845   -8.0315    7.1641 O   0  0  0  0  0  0  0  0  0  0  0  0
   14.3447   -9.0515    7.3784 C   0  0  1  0  0  0  0  0  0  0  0  0
   13.7981  -10.0902    8.1777 O   0  0  0  0  0  0  0  0  0  0  0  0
   13.6226   -9.8613    9.5486 C   0  0  2  0  0  0  0  0  0  0  0  0
   14.9488  -10.2124   10.2491 C   0  0  2  0  0  0  0  0  0  0  0  0
   15.9672   -9.3687    9.7554 O   0  0  0  0  0  0  0  0  0  0  0  0
   15.2906  -11.7169    9.9760 C   0  0  1  0  0  0  0  0  0  0  0  0
   16.5743  -12.1286   10.5946 N   0  3  0  0  0  0  0  0  0  0  0  0
   17.4173  -12.8654    9.6186 C   0  0  0  0  0  0  0  0  0  0  0  0
   14.1247  -12.6157   10.5143 C   0  0  2  0  0  0  0  0  0  0  0  0
   13.9663  -12.4157   11.9314 O   0  0  0  0  0  0  0  0  0  0  0  0
   14.3800  -14.0282   10.2974 C   0  0  0  0  0  0  0  0  0  0  0  0
   12.7741  -12.1882    9.8615 C   0  0  0  0  0  0  0  0  0  0  0  0
   12.5377  -10.7199   10.0539 O   0  0  0  0  0  0  0  0  0  0  0  0
  1  2  1  6  0  0  0
  1  3  1  0  0  0  0
  1 10  1  0  0  0  0
  3  4  1  6  0  0  0
  3  5  1  0  0  0  0
  5  6  1  6  0  0  0
  5  7  1  0  0  0  0
  7  8  1  6  0  0  0
  7  9  1  0  0  0  0
  9 10  1  1  0  0  0
  9 11  1  0  0  0  0
 11 12  1  6  0  0  0
 11 13  1  0  0  0  0
 14 15  1  1  0  0  0
 14 16  1  0  0  0  0
 14 22  1  0  0  0  0
 16 17  1  0  0  0  0
 17 18  1  1  0  0  0
 17 19  1  0  0  0  0
 19  2  1  6  0  0  0
 19 20  1  0  0  0  0
 20 21  1  1  0  0  0
 20 22  1  0  0  0  0
 22 23  1  6  0  0  0
 24 23  1  6  0  0  0
 24 25  1  0  0  0  0
 24 34  1  0  0  0  0
 25 26  1  6  0  0  0
 25 27  1  0  0  0  0
 27 28  1  1  0  0  0
 27 30  1  0  0  0  0
 28 29  1  0  0  0  0
 30 31  1  1  0  0  0
 30 32  1  0  0  0  0
 30 33  1  0  0  0  0
 33 34  1  0  0  0  0
M  CHG  4   4   1  15   1  18   1  28   1
M  END
>  <CHROM.1>
-163.92084970,-159.84980756,87.06165384,66.41800751,63.86469141,39.81806755
175.30072700,-159.14581051,178.62932150,72.33705469,127.36155082,-86.40598659
137.15308469,-12.08690828,62.81151729,13.68272771,-8.10362860,6.47345080
1.82737361,-0.15698187,-0.71454756

>  <Name>
1mwl

>  <RI>
0

>  <Rbt.Current_Directory>
/home/itssahil/PROJECTS/Mol_Feturizer/New_Systems/rnas/1mwl

>  <Rbt.Executable>
rbdock ($Id: //depot/dev/client3/rdock/2013.1/src/exe/rbdock.cxx#4 $)

>  <Rbt.Library>
libRbt.so (2013.1, Build901 2013/11/27)

>  <Rbt.Parameter_File>
/export/apps/rDock/src/rDock_2013.1_src/data/scripts/dock_solv.prm

>  <Rbt.Receptor>
prm/blind_docking_40.prm

>  <SCORE>
-51.9539

>  <SCORE.INTER>
-45.2095

>  <SCORE.INTER.CONST>
1

>  <SCORE.INTER.POLAR>
-6.15866

>  <SCORE.INTER.ROT>
6

>  <SCORE.INTER.SOLV>
29.105

>  <SCORE.INTER.VDW>
-26.9125

>  <SCORE.INTER.norm>
-1.32969

>  <SCORE.INTRA>
-10.0318

>  <SCORE.INTRA.DIHEDRAL>
-15.022

>  <SCORE.INTRA.DIHEDRAL.0>
42.0816

>  <SCORE.INTRA.POLAR>
-0.49806

>  <SCORE.INTRA.POLAR.0>
-0.254682

>  <SCORE.INTRA.REPUL>
0

>  <SCORE.INTRA.REPUL.0>
0

>  <SCORE.INTRA.SOLV>
4.95416

>  <SCORE.INTRA.SOLV.lig_0>
-109.803

>  <SCORE.INTRA.VDW>
-3.30447

>  <SCORE.INTRA.VDW.0>
0.32176

>  <SCORE.INTRA.norm>
-0.295053

>  <SCORE.RESTR>
3.28741

>  <SCORE.RESTR.CAVITY>
3.28741

>  <SCORE.RESTR.norm>
0.0966886

>  <SCORE.SYSTEM>
0

>  <SCORE.SYSTEM.CONST>
0

>  <SCORE.SYSTEM.DIHEDRAL>
0

>  <SCORE.SYSTEM.SOLV>
0

>  <SCORE.SYSTEM.norm>
0

>  <SCORE.heavy>
34

>  <SCORE.norm>
-1.52806

>  <RMSD>
32.985

$$$$
1mwl
 OpenBabel11021811403D
libRbt.so/2013.1/901 2013/11/27
 34 36  0  0  0  0  0  0  0  0999 V2000
   11.8223   -6.5694    5.3255 C   0  0  2  0  0  0  0  0  0  0  0  0
   12.8384   -7.4771    5.0219 O   0  0  0  0  0  0  0  0  0  0  0  0
   10.7015   -6.7533    4.2639 C   0  0  2  0  0  0  0  0  0  0  0  0
   10.2041   -8.1323    4.2878 N   0  3  0  0  0  0  0  0  0  0  0  0
   11.2159   -6.3576    2.8488 C   0  0  1  0  0  0  0  0  0  0  0  0
   10.2355   -6.4911    1.9208 O   0  0  0  0  0  0  0  0  0  0  0  0
   11.7353   -4.8828    2.9012 C   0  0  2  0  0  0  0  0  0  0  0  0
   12.2118   -4.4783    1.6006 O   0  0  0  0  0  0  0  0  0  0  0  0
   12.8733   -4.7987    3.9744 C   0  0  2  0  0  0  0  0  0  0  0  0
   12.3645   -5.2244    5.2970 O   0  0  0  0  0  0  0  0  0  0  0  0
   13.4739   -3.4008    4.1617 C   0  0  2  0  0  0  0  0  0  0  0  0
   12.4562   -2.4794    4.3819 O   0  0  0  0  0  0  0  0  0  0  0  0
   14.2548   -2.8956    2.9348 C   0  0  0  0  0  0  0  0  0  0  0  0
   16.0885   -9.5243    6.8941 C   0  0  2  0  0  0  0  0  0  0  0  0
   17.2653   -9.7976    7.7578 N   0  3  0  0  0  0  0  0  0  0  0  0
   16.4182   -8.4184    5.8481 C   0  0  0  0  0  0  0  0  0  0  0  0
   15.1614   -8.1238    4.9516 C   0  0  2  0  0  0  0  0  0  0  0  0
   15.5137   -7.0573    3.9440 N   0  3  0  0  0  0  0  0  0  0  0  0
   13.9646   -7.6865    5.8642 C   0  0  2  0  0  0  0  0  0  0  0  0
   13.6561   -8.8084    6.8857 C   0  0  2  0  0  0  0  0  0  0  0  0
   12.6034   -8.3908    7.7208 O   0  0  0  0  0  0  0  0  0  0  0  0
   14.9014   -9.0759    7.7728 C   0  0  1  0  0  0  0  0  0  0  0  0
   14.5954  -10.1048    8.7024 O   0  0  0  0  0  0  0  0  0  0  0  0
   15.0161   -9.9571   10.0305 C   0  0  2  0  0  0  0  0  0  0  0  0
   15.5964  -11.3099   10.4844 C   0  0  2  0  0  0  0  0  0  0  0  0
   16.7040  -11.6316    9.6706 O   0  0  0  0  0  0  0  0  0  0  0  0
   14.4850  -12.4086   10.3722 C   0  0  1  0  0  0  0  0  0  0  0  0
   14.9740  -13.7528   10.7647 N   0  3  0  0  0  0  0  0  0  0  0  0
   15.7148  -14.3913    9.6469 C   0  0  0  0  0  0  0  0  0  0  0  0
   13.2652  -12.0003   11.2680 C   0  0  2  0  0  0  0  0  0  0  0  0
   13.6823  -11.8872   12.6415 O   0  0  0  0  0  0  0  0  0  0  0  0
   12.1965  -12.9813   11.2145 C   0  0  0  0  0  0  0  0  0  0  0  0
   12.7456  -10.5890   10.8539 C   0  0  0  0  0  0  0  0  0  0  0  0
   13.8640   -9.5901   10.8716 O   0  0  0  0  0  0  0  0  0  0  0  0
  1  2  1  6  0  0  0
  1  3  1  0  0  0  0
  1 10  1  0  0  0  0
  3  4  1  6  0  0  0
  3  5  1  0  0  0  0
  5  6  1  6  0  0  0
  5  7  1  0  0  0  0
  7  8  1  6  0  0  0
  7  9  1  0  0  0  0
  9 10  1  1  0  0  0
  9 11  1  0  0  0  0
 11 12  1  6  0  0  0
 11 13  1  0  0  0  0
 14 15  1  1  0  0  0
 14 16  1  0  0  0  0
 14 22  1  0  0  0  0
 16 17  1  0  0  0  0
 17 18  1  6  0  0  0
 17 19  1  0  0  0  0
 19  2  1  6  0  0  0
 19 20  1  0  0  0  0
 20 21  1  1  0  0  0
 20 22  1  0  0  0  0
 22 23  1  1  0  0  0
 24 23  1  6  0  0  0
 24 25  1  0  0  0  0
 24 34  1  0  0  0  0
 25 26  1  6  0  0  0
 25 27  1  0  0  0  0
 27 28  1  1  0  0  0
 27 30  1  0  0  0  0
 28 29  1  0  0  0  0
 30 31  1  1  0  0  0
 30 32  1  0  0  0  0
 30 33  1  0  0  0  0
 33 34  1  0  0  0  0
M  CHG  4   4   1  15   1  18   1  28   1
M  END
>  <CHROM.1>
-173.28252169,-151.03194043,7.77471764,-76.16912041,62.80299381,51.87626006
85.79753865,164.55917063,-179.07526105,-57.05379693,102.69406832,-136.20379210
119.39141452,38.94200205,61.26445133,13.66682514,-8.44909942,6.84597380,1.80039101
-0.01570644,-0.79663363

>  <Name>
1mwl

>  <RI>
0

>  <Rbt.Current_Directory>
/home/itssahil/PROJECTS/Mol_Feturizer/New_Systems/rnas/1mwl

>  <Rbt.Executable>
rbdock ($Id: //depot/dev/client3/rdock/2013.1/src/exe/rbdock.cxx#4 $)

>  <Rbt.Library>
libRbt.so (2013.1, Build901 2013/11/27)

>  <Rbt.Parameter_File>
/export/apps/rDock/src/rDock_2013.1_src/data/scripts/dock_solv.prm

>  <Rbt.Receptor>
prm/blind_docking_40.prm

>  <SCORE>
-75.2453

>  <SCORE.INTER>
-68.9485

>  <SCORE.INTER.CONST>
1

>  <SCORE.INTER.POLAR>
-9.48544

>  <SCORE.INTER.ROT>
6

>  <SCORE.INTER.SOLV>
26.846

>  <SCORE.INTER.VDW>
-30.8962

>  <SCORE.INTER.norm>
-2.0279

>  <SCORE.INTRA>
-10.2387

>  <SCORE.INTRA.DIHEDRAL>
-10.0699

>  <SCORE.INTRA.DIHEDRAL.0>
42.0816

>  <SCORE.INTRA.POLAR>
-0.912162

>  <SCORE.INTRA.POLAR.0>
-0.254682

>  <SCORE.INTRA.REPUL>
0

>  <SCORE.INTRA.REPUL.0>
0

>  <SCORE.INTRA.SOLV>
2.02776

>  <SCORE.INTRA.SOLV.lig_0>
-109.803

>  <SCORE.INTRA.VDW>
-3.11626

>  <SCORE.INTRA.VDW.0>
0.32176

>  <SCORE.INTRA.norm>
-0.301138

>  <SCORE.RESTR>
3.94191

>  <SCORE.RESTR.CAVITY>
3.94191

>  <SCORE.RESTR.norm>
0.115938

>  <SCORE.SYSTEM>
0

>  <SCORE.SYSTEM.CONST>
0

>  <SCORE.SYSTEM.DIHEDRAL>
0

>  <SCORE.SYSTEM.SOLV>
0

>  <SCORE.SYSTEM.norm>
0

>  <SCORE.heavy>
34

>  <SCORE.norm>
-2.2131

>  <RMSD>
32.985

$$$$
1mwl
 OpenBabel11021811403D
libRbt.so/2013.1/901 2013/11/27
 34 36  0  0  0  0  0  0  0  0999 V2000
   11.7168   -6.7602    5.2653 C   0  0  2  0  0  0  0  0  0  0  0  0
   12.8040   -7.5647    4.9198 O   0  0  0  0  0  0  0  0  0  0  0  0
   10.6211   -6.9680    4.1821 C   0  0  2  0  0  0  0  0  0  0  0  0
   10.2351   -8.3810    4.1185 N   0  3  0  0  0  0  0  0  0  0  0  0
   11.1115   -6.4485    2.7989 C   0  0  1  0  0  0  0  0  0  0  0  0
   10.1510   -6.6031    1.8536 O   0  0  0  0  0  0  0  0  0  0  0  0
   11.5114   -4.9430    2.9446 C   0  0  2  0  0  0  0  0  0  0  0  0
   11.9626   -4.4246    1.6758 O   0  0  0  0  0  0  0  0  0  0  0  0
   12.6321   -4.8337    4.0337 C   0  0  2  0  0  0  0  0  0  0  0  0
   12.1503   -5.3771    5.3229 O   0  0  0  0  0  0  0  0  0  0  0  0
   13.1181   -3.4065    4.3106 C   0  0  2  0  0  0  0  0  0  0  0  0
   12.0416   -2.5277    4.2636 O   0  0  0  0  0  0  0  0  0  0  0  0
   14.1397   -2.8922    3.2799 C   0  0  0  0  0  0  0  0  0  0  0  0
   16.0760   -9.5454    6.8249 C   0  0  2  0  0  0  0  0  0  0  0  0
   17.2528   -9.7931    7.6963 N   0  3  0  0  0  0  0  0  0  0  0  0
   16.3937   -8.4441    5.7703 C   0  0  0  0  0  0  0  0  0  0  0  0
   15.1367   -8.1767    4.8657 C   0  0  2  0  0  0  0  0  0  0  0  0
   15.4775   -7.1141    3.8500 N   0  3  0  0  0  0  0  0  0  0  0  0
   13.9294   -7.7493    5.7690 C   0  0  2  0  0  0  0  0  0  0  0  0
   13.6332   -8.8665    6.7993 C   0  0  2  0  0  0  0  0  0  0  0  0
   12.5705   -8.4573    7.6259 O   0  0  0  0  0  0  0  0  0  0  0  0
   14.8783   -9.1071    7.6943 C   0  0  1  0  0  0  0  0  0  0  0  0
   14.5836  -10.1321    8.6318 O   0  0  0  0  0  0  0  0  0  0  0  0
   15.1062  -10.0278    9.9274 C   0  0  2  0  0  0  0  0  0  0  0  0
   15.6593  -11.4122   10.3153 C   0  0  2  0  0  0  0  0  0  0  0  0
   16.6896  -11.7640    9.4168 O   0  0  0  0  0  0  0  0  0  0  0  0
   14.4964  -12.4611   10.2675 C   0  0  1  0  0  0  0  0  0  0  0  0
   14.9544  -13.8319   10.6010 N   0  3  0  0  0  0  0  0  0  0  0  0
   15.3836  -14.5564    9.3776 C   0  0  0  0  0  0  0  0  0  0  0  0
   13.3640  -12.0197   11.2574 C   0  0  2  0  0  0  0  0  0  0  0  0
   13.8848  -11.9507   12.5981 O   0  0  0  0  0  0  0  0  0  0  0  0
   12.2530  -12.9540   11.2670 C   0  0  0  0  0  0  0  0  0  0  0  0
   12.8768  -10.5802   10.9058 C   0  0  0  0  0  0  0  0  0  0  0  0
   14.0354   -9.6294   10.8571 O   0  0  0  0  0  0  0  0  0  0  0  0
  1  2  1  6  0  0  0
  1  3  1  0  0  0  0
  1 10  1  0  0  0  0
  3  4  1  6  0  0  0
  3  5  1  0  0  0  0
  5  6  1  6  0  0  0
  5  7  1  0  0  0  0
  7  8  1  6  0  0  0
  7  9  1  0  0  0  0
  9 10  1  1  0  0  0
  9 11  1  0  0  0  0
 11 12  1  6  0  0  0
 11 13  1  0  0  0  0
 14 15  1  1  0  0  0
 14 16  1  0  0  0  0
 14 22  1  0  0  0  0
 16 17  1  0  0  0  0
 17 18  1  6  0  0  0
 17 19  1  0  0  0  0
 19  2  1  6  0  0  0
 19 20  1  0  0  0  0
 20 21  1  1  0  0  0
 20 22  1  0  0  0  0
 22 23  1  1  0  0  0
 24 23  1  6  0  0  0
 24 25  1  0  0  0  0
 24 34  1  0  0  0  0
 25 26  1  6  0  0  0
 25 27  1  0  0  0  0
 27 28  1  1  0  0  0
 27 30  1  0  0  0  0
 28 29  1  0  0  0  0
 30 31  1  1  0  0  0
 30 32  1  0  0  0  0
 30 33  1  0  0  0  0
 33 34  1  0  0  0  0
M  CHG  4   4   1  15   1  18   1  28   1
M  END
>  <CHROM.1>
-172.37335266,-156.88524114,-52.99811090,-74.63938064,173.52408508,38.04646383
65.35374758,46.51750641,-57.23362446,176.35822316,96.60697512,-135.45263275
176.50508570,29.90611633,-12.67451685,13.60880233,-8.52214894,6.79187889
1.82301154,-0.03252758,-0.78328708

>  <Name>
1mwl

>  <RI>
0

>  <Rbt.Current_Directory>
/home/itssahil/PROJECTS/Mol_Feturizer/New_Systems/rnas/1mwl

>  <Rbt.Executable>
rbdock ($Id: //depot/dev/client3/rdock/2013.1/src/exe/rbdock.cxx#4 $)

>  <Rbt.Library>
libRbt.so (2013.1, Build901 2013/11/27)

>  <Rbt.Parameter_File>
/export/apps/rDock/src/rDock_2013.1_src/data/scripts/dock_solv.prm

>  <Rbt.Receptor>
prm/blind_docking_40.prm

>  <SCORE>
-68.7042

>  <SCORE.INTER>
-59.4663

>  <SCORE.INTER.CONST>
1

>  <SCORE.INTER.POLAR>
-7.4558

>  <SCORE.INTER.ROT>
6

>  <SCORE.INTER.SOLV>
25.5818

>  <SCORE.INTER.VDW>
-30.9188

>  <SCORE.INTER.norm>
-1.74901

>  <SCORE.INTRA>
-13.2874

>  <SCORE.INTRA.DIHEDRAL>
-16.5263

>  <SCORE.INTRA.DIHEDRAL.0>
42.0816

>  <SCORE.INTRA.POLAR>
-0.926433

>  <SCORE.INTRA.POLAR.0>
-0.254682

>  <SCORE.INTRA.REPUL>
0

>  <SCORE.INTRA.REPUL.0>
0

>  <SCORE.INTRA.SOLV>
1.88734

>  <SCORE.INTRA.SOLV.lig_0>
-109.803

>  <SCORE.INTRA.VDW>
-2.81801

>  <SCORE.INTRA.VDW.0>
0.32176

>  <SCORE.INTRA.norm>
-0.390804

>  <SCORE.RESTR>
4.04947

>  <SCORE.RESTR.CAVITY>
4.04947

>  <SCORE.RESTR.norm>
0.119102

>  <SCORE.SYSTEM>
0

>  <SCORE.SYSTEM.CONST>
0

>  <SCORE.SYSTEM.DIHEDRAL>
0

>  <SCORE.SYSTEM.SOLV>
0

>  <SCORE.SYSTEM.norm>
0

>  <SCORE.heavy>
34

>  <SCORE.norm>
-2.02071

>  <RMSD>
32.994

$$$$
1mwl
 OpenBabel11021811403D
libRbt.so/2013.1/901 2013/11/27
 34 36  0  0  0  0  0  0  0  0999 V2000
   11.6468   -6.6663    5.3773 C   0  0  2  0  0  0  0  0  0  0  0  0
   12.6893   -7.5160    5.0033 O   0  0  0  0  0  0  0  0  0  0  0  0
   10.4978   -6.8582    4.3477 C   0  0  2  0  0  0  0  0  0  0  0  0
   10.0609   -8.2576    4.3332 N   0  3  0  0  0  0  0  0  0  0  0  0
   10.9442   -6.3859    2.9331 C   0  0  1  0  0  0  0  0  0  0  0  0
    9.9380   -6.5265    2.0342 O   0  0  0  0  0  0  0  0  0  0  0  0
   11.4017   -4.8928    3.0269 C   0  0  2  0  0  0  0  0  0  0  0  0
   11.8140   -4.4178    1.7282 O   0  0  0  0  0  0  0  0  0  0  0  0
   12.5726   -4.8001    4.0635 C   0  0  2  0  0  0  0  0  0  0  0  0
   12.1298   -5.2986    5.3844 O   0  0  0  0  0  0  0  0  0  0  0  0
   13.1193   -3.3854    4.2863 C   0  0  2  0  0  0  0  0  0  0  0  0
   12.0678   -2.5112    4.5378 O   0  0  0  0  0  0  0  0  0  0  0  0
   13.8715   -2.8163    3.0696 C   0  0  0  0  0  0  0  0  0  0  0  0
   16.1427   -9.3985    6.6736 C   0  0  2  0  0  0  0  0  0  0  0  0
   17.3847   -9.6104    7.4597 N   0  3  0  0  0  0  0  0  0  0  0  0
   16.3537   -8.2916    5.5983 C   0  0  0  0  0  0  0  0  0  0  0  0
   15.0288   -8.0621    4.7847 C   0  0  2  0  0  0  0  0  0  0  0  0
   15.2666   -6.9932    3.7467 N   0  3  0  0  0  0  0  0  0  0  0  0
   13.8767   -7.6665    5.7709 C   0  0  2  0  0  0  0  0  0  0  0  0
   13.6859   -8.7887    6.8203 C   0  0  2  0  0  0  0  0  0  0  0  0
   12.6731   -8.4074    7.7198 O   0  0  0  0  0  0  0  0  0  0  0  0
   14.9974   -8.9916    7.6252 C   0  0  1  0  0  0  0  0  0  0  0  0
   14.7989  -10.0220    8.5820 O   0  0  0  0  0  0  0  0  0  0  0  0
   15.4498   -9.9246    9.8188 C   0  0  2  0  0  0  0  0  0  0  0  0
   16.0950  -11.2926   10.1102 C   0  0  2  0  0  0  0  0  0  0  0  0
   17.0387  -11.5805    9.1007 O   0  0  0  0  0  0  0  0  0  0  0  0
   14.9760  -12.3884   10.1556 C   0  0  1  0  0  0  0  0  0  0  0  0
   15.5204  -13.7457   10.4033 N   0  3  0  0  0  0  0  0  0  0  0  0
   14.6953  -14.7767    9.7234 C   0  0  0  0  0  0  0  0  0  0  0  0
   13.9369  -12.0174   11.2690 C   0  0  2  0  0  0  0  0  0  0  0  0
   14.5921  -11.9563   12.5497 O   0  0  0  0  0  0  0  0  0  0  0  0
   12.8709  -12.9977   11.3690 C   0  0  0  0  0  0  0  0  0  0  0  0
   13.3588  -10.5922   11.0081 C   0  0  0  0  0  0  0  0  0  0  0  0
   14.4673   -9.5925   10.8647 O   0  0  0  0  0  0  0  0  0  0  0  0
  1  2  1  6  0  0  0
  1  3  1  0  0  0  0
  1 10  1  0  0  0  0
  3  4  1  6  0  0  0
  3  5  1  0  0  0  0
  5  6  1  6  0  0  0
  5  7  1  0  0  0  0
  7  8  1  6  0  0  0
  7  9  1  0  0  0  0
  9 10  1  1  0  0  0
  9 11  1  0  0  0  0
 11 12  1  6  0  0  0
 11 13  1  0  0  0  0
 14 15  1  1  0  0  0
 14 16  1  0  0  0  0
 14 22  1  0  0  0  0
 16 17  1  0  0  0  0
 17 18  1  6  0  0  0
 17 19  1  0  0  0  0
 19  2  1  6  0  0  0
 19 20  1  0  0  0  0
 20 21  1  1  0  0  0
 20 22  1  0  0  0  0
 22 23  1  1  0  0  0
 24 23  1  6  0  0  0
 24 25  1  0  0  0  0
 24 34  1  0  0  0  0
 25 26  1  6  0  0  0
 25 27  1  0  0  0  0
 27 28  1  1  0  0  0
 27 30  1  0  0  0  0
 28 29  1  0  0  0  0
 30 31  1  1  0  0  0
 30 32  1  0  0  0  0
 30 33  1  0  0  0  0
 33 34  1  0  0  0  0
M  CHG  4   4   1  15   1  18   1  28   1
M  END
>  <CHROM.1>
-175.92233157,-152.13078591,-6.58453344,-176.92741795,-59.27929901,50.09182538
-58.70683734,173.00216162,57.21091882,60.22252724,94.19862741,-132.86911205
-87.19853684,-28.08504532,57.88126900,13.70004124,-8.45002419,6.78176090
1.86841634,-0.09072449,-0.75689719

>  <Name>
1mwl

>  <RI>
0

>  <Rbt.Current_Directory>
/home/itssahil/PROJECTS/Mol_Feturizer/New_Systems/rnas/1mwl

>  <Rbt.Executable>
rbdock ($Id: //depot/dev/client3/rdock/2013.1/src/exe/rbdock.cxx#4 $)

>  <Rbt.Library>
libRbt.so (2013.1, Build901 2013/11/27)

>  <Rbt.Parameter_File>
/export/apps/rDock/src/rDock_2013.1_src/data/scripts/dock_solv.prm

>  <Rbt.Receptor>
prm/blind_docking_40.prm

>  <SCORE>
-50.95

>  <SCORE.INTER>
-44.9007

>  <SCORE.INTER.CONST>
1

>  <SCORE.INTER.POLAR>
-5.40264

>  <SCORE.INTER.ROT>
6

>  <SCORE.INTER.SOLV>
27.2772

>  <SCORE.INTER.VDW>
-28.6174

>  <SCORE.INTER.norm>
-1.32061

>  <SCORE.INTRA>
-9.75967

>  <SCORE.INTRA.DIHEDRAL>
-18.8686

>  <SCORE.INTRA.DIHEDRAL.0>
42.0816

>  <SCORE.INTRA.POLAR>
-0.397705

>  <SCORE.INTRA.POLAR.0>
-0.254682

>  <SCORE.INTRA.REPUL>
0.035725

>  <SCORE.INTRA.REPUL.0>
0

>  <SCORE.INTRA.SOLV>
2.33635

>  <SCORE.INTRA.SOLV.lig_0>
-109.803

>  <SCORE.INTRA.VDW>
-0.319981

>  <SCORE.INTRA.VDW.0>
0.32176

>  <SCORE.INTRA.norm>
-0.287049

>  <SCORE.RESTR>
3.71042

>  <SCORE.RESTR.CAVITY>
3.71042

>  <SCORE.RESTR.norm>
0.10913

>  <SCORE.SYSTEM>
0

>  <SCORE.SYSTEM.CONST>
0

>  <SCORE.SYSTEM.DIHEDRAL>
0

>  <SCORE.SYSTEM.SOLV>
0

>  <SCORE.SYSTEM.norm>
0

>  <SCORE.heavy>
34

>  <SCORE.norm>
-1.49853

>  <RMSD>
33.042

$$$$
1mwl
 OpenBabel11021811403D
libRbt.so/2013.1/901 2013/11/27
 34 36  0  0  0  0  0  0  0  0999 V2000
   11.9402   -6.5871    5.5496 C   0  0  2  0  0  0  0  0  0  0  0  0
   12.9722   -7.4447    5.1647 O   0  0  0  0  0  0  0  0  0  0  0  0
   10.6359   -7.0954    4.8732 C   0  0  2  0  0  0  0  0  0  0  0  0
   10.3585   -8.4753    5.2838 N   0  3  0  0  0  0  0  0  0  0  0  0
   10.7365   -6.9710    3.3247 C   0  0  1  0  0  0  0  0  0  0  0  0
    9.5919   -7.3889    2.7285 O   0  0  0  0  0  0  0  0  0  0  0  0
   11.0398   -5.4795    2.9627 C   0  0  2  0  0  0  0  0  0  0  0  0
   11.1301   -5.3252    1.5308 O   0  0  0  0  0  0  0  0  0  0  0  0
   12.3774   -5.0641    3.6641 C   0  0  2  0  0  0  0  0  0  0  0  0
   12.2644   -5.2372    5.1292 O   0  0  0  0  0  0  0  0  0  0  0  0
   12.8019   -3.6110    3.4229 C   0  0  2  0  0  0  0  0  0  0  0  0
   12.9589   -3.3891    2.0593 O   0  0  0  0  0  0  0  0  0  0  0  0
   14.1466   -3.2447    4.0769 C   0  0  0  0  0  0  0  0  0  0  0  0
   16.2207   -9.5810    6.9375 C   0  0  2  0  0  0  0  0  0  0  0  0
   17.4165   -9.8862    7.7635 N   0  3  0  0  0  0  0  0  0  0  0  0
   16.5481   -8.4878    5.8775 C   0  0  0  0  0  0  0  0  0  0  0  0
   15.2718   -8.1589    5.0212 C   0  0  2  0  0  0  0  0  0  0  0  0
   15.6219   -7.1057    3.9991 N   0  3  0  0  0  0  0  0  0  0  0  0
   14.1186   -7.6846    5.9708 C   0  0  2  0  0  0  0  0  0  0  0  0
   13.8111   -8.7944    7.0056 C   0  0  2  0  0  0  0  0  0  0  0  0
   12.7987   -8.3442    7.8731 O   0  0  0  0  0  0  0  0  0  0  0  0
   15.0763   -9.0959    7.8528 C   0  0  1  0  0  0  0  0  0  0  0  0
   14.7710  -10.1131    8.7954 O   0  0  0  0  0  0  0  0  0  0  0  0
   15.3240  -10.0266   10.0797 C   0  0  2  0  0  0  0  0  0  0  0  0
   15.7975  -11.4382   10.4748 C   0  0  2  0  0  0  0  0  0  0  0  0
   16.7864  -11.8639    9.5619 O   0  0  0  0  0  0  0  0  0  0  0  0
   14.5709  -12.4131   10.4620 C   0  0  1  0  0  0  0  0  0  0  0  0
   14.9493  -13.8058   10.8043 N   0  3  0  0  0  0  0  0  0  0  0  0
   15.4458  -14.5271    9.6047 C   0  0  0  0  0  0  0  0  0  0  0  0
   13.4874  -11.8905   11.4670 C   0  0  2  0  0  0  0  0  0  0  0  0
   14.0373  -11.8386   12.7968 O   0  0  0  0  0  0  0  0  0  0  0  0
   12.3209  -12.7536   11.5091 C   0  0  0  0  0  0  0  0  0  0  0  0
   13.0839  -10.4276   11.1062 C   0  0  0  0  0  0  0  0  0  0  0  0
   14.2982   -9.5515   11.0239 O   0  0  0  0  0  0  0  0  0  0  0  0
  1  2  1  6  0  0  0
  1  3  1  0  0  0  0
  1 10  1  0  0  0  0
  3  4  1  6  0  0  0
  3  5  1  0  0  0  0
  5  6  1  6  0  0  0
  5  7  1  0  0  0  0
  7  8  1  6  0  0  0
  7  9  1  0  0  0  0
  9 10  1  1  0  0  0
  9 11  1  0  0  0  0
 11 12  1  6  0  0  0
 11 13  1  0  0  0  0
 14 15  1  1  0  0  0
 14 16  1  0  0  0  0
 14 22  1  0  0  0  0
 16 17  1  0  0  0  0
 17 18  1  6  0  0  0
 17 19  1  0  0  0  0
 19  2  1  6  0  0  0
 19 20  1  0  0  0  0
 20 21  1  1  0  0  0
 20 22  1  0  0  0  0
 22 23  1  1  0  0  0
 24 23  1  6  0  0  0
 24 25  1  0  0  0  0
 24 34  1  0  0  0  0
 25 26  1  6  0  0  0
 25 27  1  0  0  0  0
 27 28  1  1  0  0  0
 27 30  1  0  0  0  0
 28 29  1  0  0  0  0
 30 31  1  1  0  0  0
 30 32  1  0  0  0  0
 30 33  1  0  0  0  0
 33 34  1  0  0  0  0
M  CHG  4   4   1  15   1  18   1  28   1
M  END
>  <CHROM.1>
-151.69943751,-156.36635362,-173.69394627,-160.28047618,66.63023563,-58.97689059
48.14898555,48.32330451,-59.19761639,-175.87191781,97.84699203,-137.45841348
-73.61017446,35.89526429,-172.36520816,13.65958411,-8.62794712,6.91554476
1.84167139,-0.04117745,-0.82982939

>  <Name>
1mwl

>  <RI>
0

>  <Rbt.Current_Directory>
/home/itssahil/PROJECTS/Mol_Feturizer/New_Systems/rnas/1mwl

>  <Rbt.Executable>
rbdock ($Id: //depot/dev/client3/rdock/2013.1/src/exe/rbdock.cxx#4 $)

>  <Rbt.Library>
libRbt.so (2013.1, Build901 2013/11/27)

>  <Rbt.Parameter_File>
/export/apps/rDock/src/rDock_2013.1_src/data/scripts/dock_solv.prm

>  <Rbt.Receptor>
prm/blind_docking_40.prm

>  <SCORE>
-70.9107

>  <SCORE.INTER>
-61.0553

>  <SCORE.INTER.CONST>
1

>  <SCORE.INTER.POLAR>
-7.77605

>  <SCORE.INTER.ROT>
6

>  <SCORE.INTER.SOLV>
25.2633

>  <SCORE.INTER.VDW>
-30.8045

>  <SCORE.INTER.norm>
-1.79574

>  <SCORE.INTRA>
-14.4401

>  <SCORE.INTRA.DIHEDRAL>
-19.8176

>  <SCORE.INTRA.DIHEDRAL.0>
42.0816

>  <SCORE.INTRA.POLAR>
-0.971497

>  <SCORE.INTRA.POLAR.0>
-0.254682

>  <SCORE.INTRA.REPUL>
0

>  <SCORE.INTRA.REPUL.0>
0

>  <SCORE.INTRA.SOLV>
1.55816

>  <SCORE.INTRA.SOLV.lig_0>
-109.803

>  <SCORE.INTRA.VDW>
-2.00724

>  <SCORE.INTRA.VDW.0>
0.32176

>  <SCORE.INTRA.norm>
-0.424708

>  <SCORE.RESTR>
4.58463

>  <SCORE.RESTR.CAVITY>
4.58463

>  <SCORE.RESTR.norm>
0.134842

>  <SCORE.SYSTEM>
0

>  <SCORE.SYSTEM.CONST>
0

>  <SCORE.SYSTEM.DIHEDRAL>
0

>  <SCORE.SYSTEM.SOLV>
0

>  <SCORE.SYSTEM.norm>
0

>  <SCORE.heavy>
34

>  <SCORE.norm>
-2.08561

>  <RMSD>
33.045

$$$$
1mwl
 OpenBabel11021811403D
libRbt.so/2013.1/901 2013/11/27
 34 36  0  0  0  0  0  0  0  0999 V2000
   11.7479   -6.4889    5.3889 C   0  0  2  0  0  0  0  0  0  0  0  0
   12.7511   -7.3850    5.0158 O   0  0  0  0  0  0  0  0  0  0  0  0
   10.4744   -6.8502    4.5738 C   0  0  2  0  0  0  0  0  0  0  0  0
   10.0758   -8.2346    4.8464 N   0  3  0  0  0  0  0  0  0  0  0  0
   10.7109   -6.6143    3.0533 C   0  0  1  0  0  0  0  0  0  0  0  0
    9.5952   -6.9032    2.3376 O   0  0  0  0  0  0  0  0  0  0  0  0
   11.1383   -5.1245    2.8401 C   0  0  2  0  0  0  0  0  0  0  0  0
   11.3568   -4.8671    1.4371 O   0  0  0  0  0  0  0  0  0  0  0  0
   12.4370   -4.8599    3.6750 C   0  0  2  0  0  0  0  0  0  0  0  0
   12.1919   -5.1369    5.1077 O   0  0  0  0  0  0  0  0  0  0  0  0
   12.9724   -3.4261    3.5882 C   0  0  2  0  0  0  0  0  0  0  0  0
   12.8345   -2.9527    2.2881 O   0  0  0  0  0  0  0  0  0  0  0  0
   14.4674   -3.3040    3.9351 C   0  0  0  0  0  0  0  0  0  0  0  0
   16.1256   -9.4068    6.6847 C   0  0  2  0  0  0  0  0  0  0  0  0
   17.3603   -9.6681    7.4673 N   0  3  0  0  0  0  0  0  0  0  0  0
   16.3804   -8.3167    5.6017 C   0  0  0  0  0  0  0  0  0  0  0  0
   15.0635   -8.0344    4.7917 C   0  0  2  0  0  0  0  0  0  0  0  0
   15.3437   -6.9832    3.7462 N   0  3  0  0  0  0  0  0  0  0  0  0
   13.9339   -7.5828    5.7798 C   0  0  2  0  0  0  0  0  0  0  0  0
   13.6984   -8.6891    6.8369 C   0  0  2  0  0  0  0  0  0  0  0  0
   12.7070   -8.2584    7.7379 O   0  0  0  0  0  0  0  0  0  0  0  0
   15.0031   -8.9444    7.6381 C   0  0  1  0  0  0  0  0  0  0  0  0
   14.7636   -9.9593    8.6020 O   0  0  0  0  0  0  0  0  0  0  0  0
   15.4333   -9.8902    9.8306 C   0  0  2  0  0  0  0  0  0  0  0  0
   16.0367  -11.2804   10.1066 C   0  0  2  0  0  0  0  0  0  0  0  0
   16.9571  -11.5937    9.0832 O   0  0  0  0  0  0  0  0  0  0  0  0
   14.8828  -12.3389   10.1611 C   0  0  1  0  0  0  0  0  0  0  0  0
   15.3852  -13.7148   10.3947 N   0  3  0  0  0  0  0  0  0  0  0  0
   14.5797  -14.7058    9.6363 C   0  0  0  0  0  0  0  0  0  0  0  0
   13.8711  -11.9399   11.2899 C   0  0  2  0  0  0  0  0  0  0  0  0
   14.5445  -11.9076   12.5622 O   0  0  0  0  0  0  0  0  0  0  0  0
   12.7747  -12.8851   11.3990 C   0  0  0  0  0  0  0  0  0  0  0  0
   13.3371  -10.4951   11.0440 C   0  0  0  0  0  0  0  0  0  0  0  0
   14.4761   -9.5317   10.8911 O   0  0  0  0  0  0  0  0  0  0  0  0
  1  2  1  6  0  0  0
  1  3  1  0  0  0  0
  1 10  1  0  0  0  0
  3  4  1  6  0  0  0
  3  5  1  0  0  0  0
  5  6  1  6  0  0  0
  5  7  1  0  0  0  0
  7  8  1  6  0  0  0
  7  9  1  0  0  0  0
  9 10  1  1  0  0  0
  9 11  1  0  0  0  0
 11 12  1  6  0  0  0
 11 13  1  0  0  0  0
 14 15  1  1  0  0  0
 14 16  1  0  0  0  0
 14 22  1  0  0  0  0
 16 17  1  0  0  0  0
 17 18  1  6  0  0  0
 17 19  1  0  0  0  0
 19  2  1  6  0  0  0
 19 20  1  0  0  0  0
 20 21  1  1  0  0  0
 20 22  1  0  0  0  0
 22 23  1  1  0  0  0
 24 23  1  6  0  0  0
 24 25  1  0  0  0  0
 24 34  1  0  0  0  0
 25 26  1  6  0  0  0
 25 27  1  0  0  0  0
 27 28  1  1  0  0  0
 27 30  1  0  0  0  0
 28 29  1  0  0  0  0
 30 31  1  1  0  0  0
 30 32  1  0  0  0  0
 30 33  1  0  0  0  0
 33 34  1  0  0  0  0
M  CHG  4   4   1  15   1  18   1  28   1
M  END
>  <CHROM.1>
-163.54653749,-152.17062548,-69.38904412,-99.03938435,-58.66317340,-39.13966617
-58.45197941,179.06740405,62.21465363,63.98685707,93.56861084,-131.68522108
-97.37510227,-23.75415479,56.45085541,13.68850012,-8.48372854,6.72255343
1.85855273,-0.11060275,-0.78669432

>  <Name>
1mwl

>  <RI>
0

>  <Rbt.Current_Directory>
/home/itssahil/PROJECTS/Mol_Feturizer/New_Systems/rnas/1mwl

>  <Rbt.Executable>
rbdock ($Id: //depot/dev/client3/rdock/2013.1/src/exe/rbdock.cxx#4 $)

>  <Rbt.Library>
libRbt.so (2013.1, Build901 2013/11/27)

>  <Rbt.Parameter_File>
/export/apps/rDock/src/rDock_2013.1_src/data/scripts/dock_solv.prm

>  <Rbt.Receptor>
prm/blind_docking_40.prm

>  <SCORE>
-52.1029

>  <SCORE.INTER>
-48.0802

>  <SCORE.INTER.CONST>
1

>  <SCORE.INTER.POLAR>
-6.00308

>  <SCORE.INTER.ROT>
6

>  <SCORE.INTER.SOLV>
25.4697

>  <SCORE.INTER.VDW>
-28.1331

>  <SCORE.INTER.norm>
-1.41412

>  <SCORE.INTRA>
-8.1086

>  <SCORE.INTRA.DIHEDRAL>
-12.3355

>  <SCORE.INTRA.DIHEDRAL.0>
42.0816

>  <SCORE.INTRA.POLAR>
-0.391593

>  <SCORE.INTRA.POLAR.0>
-0.254682

>  <SCORE.INTRA.REPUL>
0.0620427

>  <SCORE.INTRA.REPUL.0>
0

>  <SCORE.INTRA.SOLV>
3.21211

>  <SCORE.INTRA.SOLV.lig_0>
-109.803

>  <SCORE.INTRA.VDW>
-2.5257

>  <SCORE.INTRA.VDW.0>
0.32176

>  <SCORE.INTRA.norm>
-0.238488

>  <SCORE.RESTR>
4.08595

>  <SCORE.RESTR.CAVITY>
4.08595

>  <SCORE.RESTR.norm>
0.120175

>  <SCORE.SYSTEM>
0

>  <SCORE.SYSTEM.CONST>
0

>  <SCORE.SYSTEM.DIHEDRAL>
0

>  <SCORE.SYSTEM.SOLV>
0

>  <SCORE.SYSTEM.norm>
0

>  <SCORE.heavy>
34

>  <SCORE.norm>
-1.53244

>  <RMSD>
33.063

$$$$
1mwl
 OpenBabel11021811403D
libRbt.so/2013.1/901 2013/11/27
 34 36  0  0  0  0  0  0  0  0999 V2000
   13.4269   -8.4360    5.3810 C   0  0  2  0  0  0  0  0  0  0  0  0
   14.5379   -7.7547    5.8812 O   0  0  0  0  0  0  0  0  0  0  0  0
   13.0934   -7.8252    3.9909 C   0  0  2  0  0  0  0  0  0  0  0  0
   14.2440   -7.9567    3.0919 N   0  3  0  0  0  0  0  0  0  0  0  0
   12.6507   -6.3397    4.1363 C   0  0  1  0  0  0  0  0  0  0  0  0
   12.3333   -5.8072    2.9297 O   0  0  0  0  0  0  0  0  0  0  0  0
   11.4288   -6.2763    5.1111 C   0  0  2  0  0  0  0  0  0  0  0  0
   10.9848   -4.9116    5.2618 O   0  0  0  0  0  0  0  0  0  0  0  0
   11.8631   -6.8874    6.4866 C   0  0  2  0  0  0  0  0  0  0  0  0
   12.3209   -8.2829    6.3070 O   0  0  0  0  0  0  0  0  0  0  0  0
   10.7595   -6.9184    7.5500 C   0  0  2  0  0  0  0  0  0  0  0  0
   11.2862   -7.3592    8.7589 O   0  0  0  0  0  0  0  0  0  0  0  0
    9.6020   -7.8749    7.2097 C   0  0  0  0  0  0  0  0  0  0  0  0
   17.0189  -10.7870    7.5867 C   0  0  2  0  0  0  0  0  0  0  0  0
   17.9993  -11.4662    8.4715 N   0  3  0  0  0  0  0  0  0  0  0  0
   17.7023   -9.6387    6.7867 C   0  0  0  0  0  0  0  0  0  0  0  0
   16.6528   -8.9147    5.8677 C   0  0  2  0  0  0  0  0  0  0  0  0
   17.3451   -7.8156    5.0999 N   0  3  0  0  0  0  0  0  0  0  0  0
   15.4859   -8.3572    6.7529 C   0  0  2  0  0  0  0  0  0  0  0  0
   14.8222   -9.5219    7.5276 C   0  0  2  0  0  0  0  0  0  0  0  0
   13.7993   -9.0051    8.3440 O   0  0  0  0  0  0  0  0  0  0  0  0
   15.8676  -10.2156    8.4415 C   0  0  1  0  0  0  0  0  0  0  0  0
   15.2374  -11.2773    9.1431 O   0  0  0  0  0  0  0  0  0  0  0  0
   15.6973  -11.6008   10.4262 C   0  0  2  0  0  0  0  0  0  0  0  0
   14.7605  -12.6841   10.9933 C   0  0  2  0  0  0  0  0  0  0  0  0
   14.8243  -13.8262   10.1663 O   0  0  0  0  0  0  0  0  0  0  0  0
   13.3000  -12.1198   11.0520 C   0  0  1  0  0  0  0  0  0  0  0  0
   12.3266  -13.1162   11.5616 N   0  3  0  0  0  0  0  0  0  0  0  0
   11.1311  -13.1824   10.6827 C   0  0  0  0  0  0  0  0  0  0  0  0
   13.2786  -10.8398   11.9566 C   0  0  2  0  0  0  0  0  0  0  0  0
   13.7110  -11.1742   13.2888 O   0  0  0  0  0  0  0  0  0  0  0  0
   11.9489  -10.2663   12.0591 C   0  0  0  0  0  0  0  0  0  0  0  0
   14.2978   -9.7880   11.4200 C   0  0  0  0  0  0  0  0  0  0  0  0
   15.6597  -10.3994   11.2776 O   0  0  0  0  0  0  0  0  0  0  0  0
  1  2  1  1  0  0  0
  1  3  1  0  0  0  0
  1 10  1  0  0  0  0
  3  4  1  6  0  0  0
  3  5  1  0  0  0  0
  5  6  1  6  0  0  0
  5  7  1  0  0  0  0
  7  8  1  1  0  0  0
  7  9  1  0  0  0  0
  9 10  1  6  0  0  0
  9 11  1  0  0  0  0
 11 12  1  1  0  0  0
 11 13  1  0  0  0  0
 14 15  1  1  0  0  0
 14 16  1  0  0  0  0
 14 22  1  0  0  0  0
 16 17  1  0  0  0  0
 17 18  1  1  0  0  0
 17 19  1  0  0  0  0
 19  2  1  6  0  0  0
 19 20  1  0  0  0  0
 20 21  1  1  0  0  0
 20 22  1  0  0  0  0
 22 23  1  6  0  0  0
 24 23  1  6  0  0  0
 24 25  1  0  0  0  0
 24 34  1  0  0  0  0
 25 26  1  6  0  0  0
 25 27  1  0  0  0  0
 27 28  1  1  0  0  0
 27 30  1  0  0  0  0
 28 29  1  0  0  0  0
 30 31  1  1  0  0  0
 30 32  1  0  0  0  0
 30 33  1  0  0  0  0
 33 34  1  0  0  0  0
M  CHG  4   4   1  15   1  18   1  28   1
M  END
>  <CHROM.1>
-150.20690273,93.79751802,6.81367046,64.89830161,60.23807108,-174.40300490
66.30712419,-163.86290338,133.87996598,-177.27725357,91.35961065,174.84382377
71.09880764,-11.84795181,-64.21607094,13.86020577,-9.37013711,7.96785805
-1.74843555,-0.34427762,2.18355141

>  <Name>
1mwl

>  <RI>
0

>  <Rbt.Current_Directory>
/home/itssahil/PROJECTS/Mol_Feturizer/New_Systems/rnas/1mwl

>  <Rbt.Executable>
rbdock ($Id: //depot/dev/client3/rdock/2013.1/src/exe/rbdock.cxx#4 $)

>  <Rbt.Library>
libRbt.so (2013.1, Build901 2013/11/27)

>  <Rbt.Parameter_File>
/export/apps/rDock/src/rDock_2013.1_src/data/scripts/dock_solv.prm

>  <Rbt.Receptor>
prm/blind_docking_40.prm

>  <SCORE>
-30.3643

>  <SCORE.INTER>
-29.2251

>  <SCORE.INTER.CONST>
1

>  <SCORE.INTER.POLAR>
-4.74491

>  <SCORE.INTER.ROT>
6

>  <SCORE.INTER.SOLV>
21.3993

>  <SCORE.INTER.VDW>
-18.4001

>  <SCORE.INTER.norm>
-0.85956

>  <SCORE.INTRA>
-9.65787

>  <SCORE.INTRA.DIHEDRAL>
-18.5718

>  <SCORE.INTRA.DIHEDRAL.0>
42.0816

>  <SCORE.INTRA.POLAR>
0.247142

>  <SCORE.INTRA.POLAR.0>
-0.254682

>  <SCORE.INTRA.REPUL>
0.00135515

>  <SCORE.INTRA.REPUL.0>
0

>  <SCORE.INTRA.SOLV>
0.899245

>  <SCORE.INTRA.SOLV.lig_0>
-109.803

>  <SCORE.INTRA.VDW>
-1.66864

>  <SCORE.INTRA.VDW.0>
0.32176

>  <SCORE.INTRA.norm>
-0.284055

>  <SCORE.RESTR>
8.5186

>  <SCORE.RESTR.CAVITY>
8.5186

>  <SCORE.RESTR.norm>
0.250547

>  <SCORE.SYSTEM>
0

>  <SCORE.SYSTEM.CONST>
0

>  <SCORE.SYSTEM.DIHEDRAL>
0

>  <SCORE.SYSTEM.SOLV>
0

>  <SCORE.SYSTEM.norm>
0

>  <SCORE.heavy>
34

>  <SCORE.norm>
-0.893069

>  <RMSD>
33.081

$$$$
1mwl
 OpenBabel11021811403D
libRbt.so/2013.1/901 2013/11/27
 34 36  0  0  0  0  0  0  0  0999 V2000
   12.1579   -6.2190    5.1654 C   0  0  2  0  0  0  0  0  0  0  0  0
   13.2628   -6.9372    4.7049 O   0  0  0  0  0  0  0  0  0  0  0  0
   10.8946   -6.8275    4.4942 C   0  0  2  0  0  0  0  0  0  0  0  0
   10.7791   -8.2498    4.8306 N   0  3  0  0  0  0  0  0  0  0  0  0
   10.9321   -6.6077    2.9534 C   0  0  1  0  0  0  0  0  0  0  0  0
    9.8203   -7.1136    2.3634 O   0  0  0  0  0  0  0  0  0  0  0  0
   11.0629   -5.0744    2.6713 C   0  0  2  0  0  0  0  0  0  0  0  0
   11.0908   -4.8325    1.2490 O   0  0  0  0  0  0  0  0  0  0  0  0
   12.3702   -4.5559    3.3612 C   0  0  2  0  0  0  0  0  0  0  0  0
   12.3228   -4.8208    4.8162 O   0  0  0  0  0  0  0  0  0  0  0  0
   12.6293   -3.0543    3.1943 C   0  0  2  0  0  0  0  0  0  0  0  0
   12.5245   -2.7073    1.8520 O   0  0  0  0  0  0  0  0  0  0  0  0
   14.0354   -2.6174    3.6441 C   0  0  0  0  0  0  0  0  0  0  0  0
   16.1167   -9.5659    6.4950 C   0  0  2  0  0  0  0  0  0  0  0  0
   17.2082  -10.0702    7.3666 N   0  3  0  0  0  0  0  0  0  0  0  0
   16.6396   -8.4410    5.5531 C   0  0  0  0  0  0  0  0  0  0  0  0
   15.4732   -7.9015    4.6482 C   0  0  2  0  0  0  0  0  0  0  0  0
   16.0114   -6.8217    3.7421 N   0  3  0  0  0  0  0  0  0  0  0  0
   14.3140   -7.3696    5.5591 C   0  0  2  0  0  0  0  0  0  0  0  0
   13.8109   -8.5114    6.4758 C   0  0  2  0  0  0  0  0  0  0  0  0
   12.7945   -8.0134    7.3120 O   0  0  0  0  0  0  0  0  0  0  0  0
   14.9700   -9.0216    7.3733 C   0  0  1  0  0  0  0  0  0  0  0  0
   14.4860  -10.0650    8.2061 O   0  0  0  0  0  0  0  0  0  0  0  0
   14.4039   -9.8393    9.5863 C   0  0  2  0  0  0  0  0  0  0  0  0
   15.6577  -10.4599   10.2312 C   0  0  2  0  0  0  0  0  0  0  0  0
   16.8051   -9.8200    9.7149 O   0  0  0  0  0  0  0  0  0  0  0  0
   15.6883  -11.9951    9.9197 C   0  0  1  0  0  0  0  0  0  0  0  0
   16.8858  -12.6648   10.4833 N   0  3  0  0  0  0  0  0  0  0  0  0
   17.5371  -13.5259    9.4633 C   0  0  0  0  0  0  0  0  0  0  0  0
   14.3870  -12.6613   10.4851 C   0  0  2  0  0  0  0  0  0  0  0  0
   14.3175  -12.4686   11.9104 O   0  0  0  0  0  0  0  0  0  0  0  0
   14.3527  -14.0908   10.2345 C   0  0  0  0  0  0  0  0  0  0  0  0
   13.1259  -11.9623    9.8900 C   0  0  0  0  0  0  0  0  0  0  0  0
   13.1888  -10.4812   10.1164 O   0  0  0  0  0  0  0  0  0  0  0  0
  1  2  1  6  0  0  0
  1  3  1  0  0  0  0
  1 10  1  0  0  0  0
  3  4  1  6  0  0  0
  3  5  1  0  0  0  0
  5  6  1  6  0  0  0
  5  7  1  0  0  0  0
  7  8  1  6  0  0  0
  7  9  1  0  0  0  0
  9 10  1  1  0  0  0
  9 11  1  0  0  0  0
 11 12  1  6  0  0  0
 11 13  1  0  0  0  0
 14 15  1  1  0  0  0
 14 16  1  0  0  0  0
 14 22  1  0  0  0  0
 16 17  1  0  0  0  0
 17 18  1  1  0  0  0
 17 19  1  0  0  0  0
 19  2  1  6  0  0  0
 19 20  1  0  0  0  0
 20 21  1  1  0  0  0
 20 22  1  0  0  0  0
 22 23  1  1  0  0  0
 24 23  1  6  0  0  0
 24 25  1  0  0  0  0
 24 34  1  0  0  0  0
 25 26  1  6  0  0  0
 25 27  1  0  0  0  0
 27 28  1  1  0  0  0
 27 30  1  0  0  0  0
 28 29  1  0  0  0  0
 30 31  1  1  0  0  0
 30 32  1  0  0  0  0
 30 33  1  0  0  0  0
 33 34  1  0  0  0  0
M  CHG  4   4   1  15   1  18   1  28   1
M  END
>  <CHROM.1>
-136.23569701,-169.94076022,-35.84276187,-144.43522842,-62.43957581,-50.34158815
-58.91582558,48.60290603,53.44127792,-54.89833720,127.41280986,-98.26632064
81.56409315,-11.95136364,173.35626650,13.88578494,-8.38800918,6.45945968
1.89808110,-0.10430186,-0.75014837

>  <Name>
1mwl

>  <RI>
0

>  <Rbt.Current_Directory>
/home/itssahil/PROJECTS/Mol_Feturizer/New_Systems/rnas/1mwl

>  <Rbt.Executable>
rbdock ($Id: //depot/dev/client3/rdock/2013.1/src/exe/rbdock.cxx#4 $)

>  <Rbt.Library>
libRbt.so (2013.1, Build901 2013/11/27)

>  <Rbt.Parameter_File>
/export/apps/rDock/src/rDock_2013.1_src/data/scripts/dock_solv.prm

>  <Rbt.Receptor>
prm/blind_docking_40.prm

>  <SCORE>
-64.1673

>  <SCORE.INTER>
-62.3281

>  <SCORE.INTER.CONST>
1

>  <SCORE.INTER.POLAR>
-9.34308

>  <SCORE.INTER.ROT>
6

>  <SCORE.INTER.SOLV>
27.2221

>  <SCORE.INTER.VDW>
-27.0825

>  <SCORE.INTER.norm>
-1.83318

>  <SCORE.INTRA>
-6.605

>  <SCORE.INTRA.DIHEDRAL>
-11.2203

>  <SCORE.INTRA.DIHEDRAL.0>
42.0816

>  <SCORE.INTRA.POLAR>
-0.0589955

>  <SCORE.INTRA.POLAR.0>
-0.254682

>  <SCORE.INTRA.REPUL>
0

>  <SCORE.INTRA.REPUL.0>
0

>  <SCORE.INTRA.SOLV>
3.48389

>  <SCORE.INTRA.SOLV.lig_0>
-109.803

>  <SCORE.INTRA.VDW>
-2.53622

>  <SCORE.INTRA.VDW.0>
0.32176

>  <SCORE.INTRA.norm>
-0.194265

>  <SCORE.RESTR>
4.76582

>  <SCORE.RESTR.CAVITY>
4.76582

>  <SCORE.RESTR.norm>
0.140171

>  <SCORE.SYSTEM>
0

>  <SCORE.SYSTEM.CONST>
0

>  <SCORE.SYSTEM.DIHEDRAL>
0

>  <SCORE.SYSTEM.SOLV>
0

>  <SCORE.SYSTEM.norm>
0

>  <SCORE.heavy>
34

>  <SCORE.norm>
-1.88727

>  <RMSD>
33.282

$$$$
1mwl
 OpenBabel11021811403D
libRbt.so/2013.1/901 2013/11/27
 34 36  0  0  0  0  0  0  0  0999 V2000
   12.1348   -6.6711    4.6148 C   0  0  2  0  0  0  0  0  0  0  0  0
   13.2896   -7.2781    4.1181 O   0  0  0  0  0  0  0  0  0  0  0  0
   11.0427   -6.7770    3.5134 C   0  0  2  0  0  0  0  0  0  0  0  0
   10.7989   -8.1831    3.1772 N   0  3  0  0  0  0  0  0  0  0  0  0
   11.4490   -5.9528    2.2568 C   0  0  1  0  0  0  0  0  0  0  0  0
   10.4888   -6.0196    1.3009 O   0  0  0  0  0  0  0  0  0  0  0  0
   11.6990   -4.4709    2.6915 C   0  0  2  0  0  0  0  0  0  0  0  0
   12.0689   -3.6739    1.5469 O   0  0  0  0  0  0  0  0  0  0  0  0
   12.8261   -4.4597    3.7795 C   0  0  2  0  0  0  0  0  0  0  0  0
   12.4287   -5.2882    4.9392 O   0  0  0  0  0  0  0  0  0  0  0  0
   13.1725   -3.0706    4.3275 C   0  0  2  0  0  0  0  0  0  0  0  0
   12.0459   -2.2567    4.2867 O   0  0  0  0  0  0  0  0  0  0  0  0
   14.2603   -2.3419    3.5176 C   0  0  0  0  0  0  0  0  0  0  0  0
   16.1400   -9.7299    6.1485 C   0  0  2  0  0  0  0  0  0  0  0  0
   17.2856  -10.1410    6.9994 N   0  3  0  0  0  0  0  0  0  0  0  0
   16.6292   -8.8755    4.9416 C   0  0  0  0  0  0  0  0  0  0  0  0
   15.4080   -8.4303    4.0581 C   0  0  2  0  0  0  0  0  0  0  0  0
   15.9134   -7.6138    2.8942 N   0  3  0  0  0  0  0  0  0  0  0  0
   14.3983   -7.6190    4.9404 C   0  0  2  0  0  0  0  0  0  0  0  0
   13.9246   -8.4968    6.1246 C   0  0  2  0  0  0  0  0  0  0  0  0
   13.0456   -7.7470    6.9279 O   0  0  0  0  0  0  0  0  0  0  0  0
   15.1397   -8.9145    6.9953 C   0  0  1  0  0  0  0  0  0  0  0  0
   14.6823   -9.7154    8.0750 O   0  0  0  0  0  0  0  0  0  0  0  0
   14.8869   -9.2590    9.3836 C   0  0  2  0  0  0  0  0  0  0  0  0
   16.0225  -10.1016    9.9945 C   0  0  2  0  0  0  0  0  0  0  0  0
   17.1977   -9.9077    9.2370 O   0  0  0  0  0  0  0  0  0  0  0  0
   15.6005  -11.6106    9.9915 C   0  0  1  0  0  0  0  0  0  0  0  0
   16.6566  -12.4964   10.5392 N   0  3  0  0  0  0  0  0  0  0  0  0
   17.0426  -13.5321    9.5471 C   0  0  0  0  0  0  0  0  0  0  0  0
   14.2798  -11.7774   10.8192 C   0  0  2  0  0  0  0  0  0  0  0  0
   14.4951  -11.3486   12.1768 O   0  0  0  0  0  0  0  0  0  0  0  0
   13.8334  -13.1581   10.8619 C   0  0  0  0  0  0  0  0  0  0  0  0
   13.1657  -10.8506   10.2421 C   0  0  0  0  0  0  0  0  0  0  0  0
   13.6489   -9.4332   10.1625 O   0  0  0  0  0  0  0  0  0  0  0  0
  1  2  1  6  0  0  0
  1  3  1  0  0  0  0
  1 10  1  0  0  0  0
  3  4  1  6  0  0  0
  3  5  1  0  0  0  0
  5  6  1  6  0  0  0
  5  7  1  0  0  0  0
  7  8  1  6  0  0  0
  7  9  1  0  0  0  0
  9 10  1  1  0  0  0
  9 11  1  0  0  0  0
 11 12  1  6  0  0  0
 11 13  1  0  0  0  0
 14 15  1  1  0  0  0
 14 16  1  0  0  0  0
 14 22  1  0  0  0  0
 16 17  1  0  0  0  0
 17 18  1  6  0  0  0
 17 19  1  0  0  0  0
 19  2  1  6  0  0  0
 19 20  1  0  0  0  0
 20 21  1  1  0  0  0
 20 22  1  0  0  0  0
 22 23  1  1  0  0  0
 24 23  1  6  0  0  0
 24 25  1  0  0  0  0
 24 34  1  0  0  0  0
 25 26  1  6  0  0  0
 25 27  1  0  0  0  0
 27 28  1  1  0  0  0
 27 30  1  0  0  0  0
 28 29  1  0  0  0  0
 30 31  1  1  0  0  0
 30 32  1  0  0  0  0
 30 33  1  0  0  0  0
 33 34  1  0  0  0  0
M  CHG  4   4   1  15   1  18   1  28   1
M  END
>  <CHROM.1>
-166.39220558,173.17887118,-159.71649340,163.17309447,-64.21727160,30.17708933
165.98666861,-37.95373624,-49.32176594,90.40532053,121.46513190,-105.86136798
172.35413107,-2.73195117,-57.92019983,14.03415815,-8.14119399,6.31468468
1.91401965,0.37419197,-0.94445766

>  <Name>
1mwl

>  <RI>
0

>  <Rbt.Current_Directory>
/home/itssahil/PROJECTS/Mol_Feturizer/New_Systems/rnas/1mwl

>  <Rbt.Executable>
rbdock ($Id: //depot/dev/client3/rdock/2013.1/src/exe/rbdock.cxx#4 $)

>  <Rbt.Library>
libRbt.so (2013.1, Build901 2013/11/27)

>  <Rbt.Parameter_File>
/export/apps/rDock/src/rDock_2013.1_src/data/scripts/dock_solv.prm

>  <Rbt.Receptor>
prm/blind_docking_40.prm

>  <SCORE>
-45.0874

>  <SCORE.INTER>
-44.7699

>  <SCORE.INTER.CONST>
1

>  <SCORE.INTER.POLAR>
-6.86177

>  <SCORE.INTER.ROT>
6

>  <SCORE.INTER.SOLV>
28.2956

>  <SCORE.INTER.VDW>
-24.0059

>  <SCORE.INTER.norm>
-1.31676

>  <SCORE.INTRA>
-4.94515

>  <SCORE.INTRA.DIHEDRAL>
-12.6685

>  <SCORE.INTRA.DIHEDRAL.0>
42.0816

>  <SCORE.INTRA.POLAR>
-0.0288974

>  <SCORE.INTRA.POLAR.0>
-0.254682

>  <SCORE.INTRA.REPUL>
0

>  <SCORE.INTRA.REPUL.0>
0

>  <SCORE.INTRA.SOLV>
2.27209

>  <SCORE.INTRA.SOLV.lig_0>
-109.803

>  <SCORE.INTRA.VDW>
0.351308

>  <SCORE.INTRA.VDW.0>
0.32176

>  <SCORE.INTRA.norm>
-0.145446

>  <SCORE.RESTR>
4.62758

>  <SCORE.RESTR.CAVITY>
4.62758

>  <SCORE.RESTR.norm>
0.136105

>  <SCORE.SYSTEM>
0

>  <SCORE.SYSTEM.CONST>
0

>  <SCORE.SYSTEM.DIHEDRAL>
0

>  <SCORE.SYSTEM.SOLV>
0

>  <SCORE.SYSTEM.norm>
0

>  <SCORE.heavy>
34

>  <SCORE.norm>
-1.3261

>  <RMSD>
33.334

$$$$
1mwl
 OpenBabel11021811403D
libRbt.so/2013.1/901 2013/11/27
 34 36  0  0  0  0  0  0  0  0999 V2000
   13.7335   -6.1706    4.0804 C   0  0  2  0  0  0  0  0  0  0  0  0
   14.5224   -6.1616    5.2320 O   0  0  0  0  0  0  0  0  0  0  0  0
   13.4940   -4.6907    3.6687 C   0  0  2  0  0  0  0  0  0  0  0  0
   14.7750   -4.0197    3.4276 N   0  3  0  0  0  0  0  0  0  0  0  0
   12.6569   -3.9487    4.7514 C   0  0  1  0  0  0  0  0  0  0  0  0
   12.4220   -2.6632    4.3872 O   0  0  0  0  0  0  0  0  0  0  0  0
   11.3132   -4.7222    4.9601 C   0  0  2  0  0  0  0  0  0  0  0  0
   10.5057   -4.0550    5.9526 O   0  0  0  0  0  0  0  0  0  0  0  0
   11.6509   -6.1887    5.3951 C   0  0  2  0  0  0  0  0  0  0  0  0
   12.4845   -6.8503    4.3671 O   0  0  0  0  0  0  0  0  0  0  0  0
   10.4292   -7.0874    5.6178 C   0  0  2  0  0  0  0  0  0  0  0  0
   10.6166   -7.8580    6.7599 O   0  0  0  0  0  0  0  0  0  0  0  0
   10.1739   -8.0775    4.4668 C   0  0  0  0  0  0  0  0  0  0  0  0
   15.6624  -10.2575    5.6605 C   0  0  2  0  0  0  0  0  0  0  0  0
   16.4018  -11.4720    6.0890 N   0  3  0  0  0  0  0  0  0  0  0  0
   16.5820   -9.3198    4.8232 C   0  0  0  0  0  0  0  0  0  0  0  0
   15.7959   -8.0296    4.3904 C   0  0  2  0  0  0  0  0  0  0  0  0
   16.7081   -7.1469    3.5747 N   0  3  0  0  0  0  0  0  0  0  0  0
   15.2661   -7.2924    5.6680 C   0  0  2  0  0  0  0  0  0  0  0  0
   14.3498   -8.2460    6.4730 C   0  0  2  0  0  0  0  0  0  0  0  0
   13.9080   -7.5852    7.6342 O   0  0  0  0  0  0  0  0  0  0  0  0
   15.1451   -9.5067    6.9060 C   0  0  1  0  0  0  0  0  0  0  0  0
   14.2872  -10.3647    7.6438 O   0  0  0  0  0  0  0  0  0  0  0  0
   14.1130  -10.1247    9.0130 C   0  0  2  0  0  0  0  0  0  0  0  0
   15.3871  -10.6066    9.7322 C   0  0  2  0  0  0  0  0  0  0  0  0
   16.4909   -9.8650    9.2589 O   0  0  0  0  0  0  0  0  0  0  0  0
   15.5844  -12.1364    9.4565 C   0  0  1  0  0  0  0  0  0  0  0  0
   16.8115  -12.6741   10.0929 N   0  3  0  0  0  0  0  0  0  0  0  0
   17.5705  -13.5236    9.1398 C   0  0  0  0  0  0  0  0  0  0  0  0
   14.3276  -12.9187    9.9719 C   0  0  2  0  0  0  0  0  0  0  0  0
   14.1669  -12.7094   11.3875 O   0  0  0  0  0  0  0  0  0  0  0  0
   14.4468  -14.3485    9.7516 C   0  0  0  0  0  0  0  0  0  0  0  0
   13.0359  -12.3585    9.3004 C   0  0  0  0  0  0  0  0  0  0  0  0
   12.9414  -10.8748    9.4969 O   0  0  0  0  0  0  0  0  0  0  0  0
  1  2  1  1  0  0  0
  1  3  1  0  0  0  0
  1 10  1  0  0  0  0
  3  4  1  1  0  0  0
  3  5  1  0  0  0  0
  5  6  1  6  0  0  0
  5  7  1  0  0  0  0
  7  8  1  1  0  0  0
  7  9  1  0  0  0  0
  9 10  1  6  0  0  0
  9 11  1  0  0  0  0
 11 12  1  1  0  0  0
 11 13  1  0  0  0  0
 14 15  1  1  0  0  0
 14 16  1  0  0  0  0
 14 22  1  0  0  0  0
 16 17  1  0  0  0  0
 17 18  1  1  0  0  0
 17 19  1  0  0  0  0
 19  2  1  6  0  0  0
 19 20  1  0  0  0  0
 20 21  1  1  0  0  0
 20 22  1  0  0  0  0
 22 23  1  6  0  0  0
 24 23  1  6  0  0  0
 24 25  1  0  0  0  0
 24 34  1  0  0  0  0
 25 26  1  6  0  0  0
 25 27  1  0  0  0  0
 27 28  1  1  0  0  0
 27 30  1  0  0  0  0
 28 29  1  0  0  0  0
 30 31  1  1  0  0  0
 30 32  1  0  0  0  0
 30 33  1  0  0  0  0
 33 34  1  0  0  0  0
M  CHG  4   4   1  15   1  18   1  28   1
M  END
>  <CHROM.1>
-160.73049271,35.95857632,157.28022429,-62.67337486,24.89932633,-137.95405185
175.00638194,69.49761130,137.67377952,168.50896074,155.83580138,-75.34268170
179.65058909,-13.98510785,-57.13537322,14.06314028,-8.62209433,6.73669379
-1.87948635,-0.33552010,2.44276308

>  <Name>
1mwl

>  <RI>
0

>  <Rbt.Current_Directory>
/home/itssahil/PROJECTS/Mol_Feturizer/New_Systems/rnas/1mwl

>  <Rbt.Executable>
rbdock ($Id: //depot/dev/client3/rdock/2013.1/src/exe/rbdock.cxx#4 $)

>  <Rbt.Library>
libRbt.so (2013.1, Build901 2013/11/27)

>  <Rbt.Parameter_File>
/export/apps/rDock/src/rDock_2013.1_src/data/scripts/dock_solv.prm

>  <Rbt.Receptor>
prm/blind_docking_40.prm

>  <SCORE>
-11.0033

>  <SCORE.INTER>
-13.8718

>  <SCORE.INTER.CONST>
1

>  <SCORE.INTER.POLAR>
-6.77255

>  <SCORE.INTER.ROT>
6

>  <SCORE.INTER.SOLV>
29.6099

>  <SCORE.INTER.VDW>
-4.14266

>  <SCORE.INTER.norm>
-0.407993

>  <SCORE.INTRA>
-5.18481

>  <SCORE.INTRA.DIHEDRAL>
-17.1474

>  <SCORE.INTRA.DIHEDRAL.0>
42.0816

>  <SCORE.INTRA.POLAR>
0.199095

>  <SCORE.INTRA.POLAR.0>
-0.254682

>  <SCORE.INTRA.REPUL>
0

>  <SCORE.INTRA.REPUL.0>
0

>  <SCORE.INTRA.SOLV>
4.09974

>  <SCORE.INTRA.SOLV.lig_0>
-109.803

>  <SCORE.INTRA.VDW>
0.662074

>  <SCORE.INTRA.VDW.0>
0.32176

>  <SCORE.INTRA.norm>
-0.152494

>  <SCORE.RESTR>
8.05328

>  <SCORE.RESTR.CAVITY>
8.05328

>  <SCORE.RESTR.norm>
0.236861

>  <SCORE.SYSTEM>
0

>  <SCORE.SYSTEM.CONST>
0

>  <SCORE.SYSTEM.DIHEDRAL>
0

>  <SCORE.SYSTEM.SOLV>
0

>  <SCORE.SYSTEM.norm>
0

>  <SCORE.heavy>
34

>  <SCORE.norm>
-0.323626

>  <RMSD>
33.358

$$$$
1mwl
 OpenBabel11021811403D
libRbt.so/2013.1/901 2013/11/27
 34 36  0  0  0  0  0  0  0  0999 V2000
   12.5065   -6.5365    5.0007 C   0  0  2  0  0  0  0  0  0  0  0  0
   13.8939   -6.4311    4.8892 O   0  0  0  0  0  0  0  0  0  0  0  0
   12.0112   -7.4246    3.8247 C   0  0  2  0  0  0  0  0  0  0  0  0
   12.6489   -8.7434    3.8840 N   0  3  0  0  0  0  0  0  0  0  0  0
   12.2757   -6.7247    2.4595 C   0  0  1  0  0  0  0  0  0  0  0  0
   11.8230   -7.4824    1.4294 O   0  0  0  0  0  0  0  0  0  0  0  0
   11.5746   -5.3262    2.4716 C   0  0  2  0  0  0  0  0  0  0  0  0
   11.7912   -4.6518    1.2145 O   0  0  0  0  0  0  0  0  0  0  0  0
   12.1512   -4.4959    3.6683 C   0  0  2  0  0  0  0  0  0  0  0  0
   11.9245   -5.2091    4.9448 O   0  0  0  0  0  0  0  0  0  0  0  0
   11.5423   -3.0983    3.8295 C   0  0  2  0  0  0  0  0  0  0  0  0
   10.9029   -2.7273    2.6518 O   0  0  0  0  0  0  0  0  0  0  0  0
   12.5835   -2.0017    4.1187 C   0  0  0  0  0  0  0  0  0  0  0  0
   15.8669   -9.9005    6.4156 C   0  0  2  0  0  0  0  0  0  0  0  0
   16.7829  -10.7614    7.2062 N   0  3  0  0  0  0  0  0  0  0  0  0
   16.6738   -8.9392    5.4933 C   0  0  0  0  0  0  0  0  0  0  0  0
   15.6961   -8.0202    4.6749 C   0  0  2  0  0  0  0  0  0  0  0  0
   16.5051   -7.1084    3.7856 N   0  3  0  0  0  0  0  0  0  0  0  0
   14.7932   -7.2104    5.6675 C   0  0  2  0  0  0  0  0  0  0  0  0
   13.9988   -8.1924    6.5630 C   0  0  2  0  0  0  0  0  0  0  0  0
   13.2183   -7.4544    7.4720 O   0  0  0  0  0  0  0  0  0  0  0  0
   14.9783   -9.0810    7.3755 C   0  0  1  0  0  0  0  0  0  0  0  0
   14.2292   -9.9707    8.1902 O   0  0  0  0  0  0  0  0  0  0  0  0
   14.2023   -9.7530    9.5739 C   0  0  2  0  0  0  0  0  0  0  0  0
   15.4901  -10.3599   10.1621 C   0  0  2  0  0  0  0  0  0  0  0  0
   16.6063   -9.7022    9.6016 O   0  0  0  0  0  0  0  0  0  0  0  0
   15.5279  -11.8930    9.8411 C   0  0  1  0  0  0  0  0  0  0  0  0
   16.7567  -12.5494   10.3502 N   0  3  0  0  0  0  0  0  0  0  0  0
   17.3639  -13.4136    9.3059 C   0  0  0  0  0  0  0  0  0  0  0  0
   14.2603  -12.5794   10.4570 C   0  0  2  0  0  0  0  0  0  0  0  0
   14.2484  -12.3947   11.8850 O   0  0  0  0  0  0  0  0  0  0  0  0
   14.2344  -14.0079   10.2002 C   0  0  0  0  0  0  0  0  0  0  0  0
   12.9662  -11.8943    9.9193 C   0  0  0  0  0  0  0  0  0  0  0  0
   13.0191  -10.4137   10.1510 O   0  0  0  0  0  0  0  0  0  0  0  0
  1  2  1  6  0  0  0
  1  3  1  0  0  0  0
  1 10  1  0  0  0  0
  3  4  1  6  0  0  0
  3  5  1  0  0  0  0
  5  6  1  6  0  0  0
  5  7  1  0  0  0  0
  7  8  1  6  0  0  0
  7  9  1  0  0  0  0
  9 10  1  1  0  0  0
  9 11  1  0  0  0  0
 11 12  1  6  0  0  0
 11 13  1  0  0  0  0
 14 15  1  1  0  0  0
 14 16  1  0  0  0  0
 14 22  1  0  0  0  0
 16 17  1  0  0  0  0
 17 18  1  1  0  0  0
 17 19  1  0  0  0  0
 19  2  1  6  0  0  0
 19 20  1  0  0  0  0
 20 21  1  1  0  0  0
 20 22  1  0  0  0  0
 22 23  1  1  0  0  0
 24 23  1  6  0  0  0
 24 25  1  0  0  0  0
 24 34  1  0  0  0  0
 25 26  1  6  0  0  0
 25 27  1  0  0  0  0
 27 28  1  1  0  0  0
 27 30  1  0  0  0  0
 28 29  1  0  0  0  0
 30 31  1  1  0  0  0
 30 32  1  0  0  0  0
 30 33  1  0  0  0  0
 33 34  1  0  0  0  0
M  CHG  4   4   1  15   1  18   1  28   1
M  END
>  <CHROM.1>
-100.04997079,121.69976628,167.68627709,-68.83543048,77.71464419,-17.63519433
-49.18273760,87.96367512,43.39482959,-38.10892092,131.61103157,-81.83685299
85.17622797,-12.84935766,179.40048044,13.97954896,-8.41994003,6.41576786
1.93630257,0.56395105,-0.97768310

>  <Name>
1mwl

>  <RI>
0

>  <Rbt.Current_Directory>
/home/itssahil/PROJECTS/Mol_Feturizer/New_Systems/rnas/1mwl

>  <Rbt.Executable>
rbdock ($Id: //depot/dev/client3/rdock/2013.1/src/exe/rbdock.cxx#4 $)

>  <Rbt.Library>
libRbt.so (2013.1, Build901 2013/11/27)

>  <Rbt.Parameter_File>
/export/apps/rDock/src/rDock_2013.1_src/data/scripts/dock_solv.prm

>  <Rbt.Receptor>
prm/blind_docking_40.prm

>  <SCORE>
-40.4156

>  <SCORE.INTER>
-42.8986

>  <SCORE.INTER.CONST>
1

>  <SCORE.INTER.POLAR>
-6.66553

>  <SCORE.INTER.ROT>
6

>  <SCORE.INTER.SOLV>
24.8898

>  <SCORE.INTER.VDW>
-22.2772

>  <SCORE.INTER.norm>
-1.26172

>  <SCORE.INTRA>
-2.4283

>  <SCORE.INTRA.DIHEDRAL>
-3.42421

>  <SCORE.INTRA.DIHEDRAL.0>
42.0816

>  <SCORE.INTRA.POLAR>
-1.28035

>  <SCORE.INTRA.POLAR.0>
-0.254682

>  <SCORE.INTRA.REPUL>
0

>  <SCORE.INTRA.REPUL.0>
0

>  <SCORE.INTRA.SOLV>
7.73531

>  <SCORE.INTRA.SOLV.lig_0>
-109.803

>  <SCORE.INTRA.VDW>
-0.230639

>  <SCORE.INTRA.VDW.0>
0.32176

>  <SCORE.INTRA.norm>
-0.0714206

>  <SCORE.RESTR>
4.91131

>  <SCORE.RESTR.CAVITY>
4.91131

>  <SCORE.RESTR.norm>
0.14445

>  <SCORE.SYSTEM>
0

>  <SCORE.SYSTEM.CONST>
0

>  <SCORE.SYSTEM.DIHEDRAL>
0

>  <SCORE.SYSTEM.SOLV>
0

>  <SCORE.SYSTEM.norm>
0

>  <SCORE.heavy>
34

>  <SCORE.norm>
-1.18869

>  <RMSD>
33.364

$$$$
1mwl
 OpenBabel11021811403D
libRbt.so/2013.1/901 2013/11/27
 34 36  0  0  0  0  0  0  0  0999 V2000
   13.2072   -8.2437    4.4910 C   0  0  2  0  0  0  0  0  0  0  0  0
   14.3228   -7.4599    4.7905 O   0  0  0  0  0  0  0  0  0  0  0  0
   12.7036   -7.8179    3.0832 C   0  0  2  0  0  0  0  0  0  0  0  0
   13.7647   -8.0055    2.0889 N   0  3  0  0  0  0  0  0  0  0  0  0
   12.1958   -6.3464    3.1039 C   0  0  1  0  0  0  0  0  0  0  0  0
   11.7309   -5.9758    1.8846 O   0  0  0  0  0  0  0  0  0  0  0  0
   11.0753   -6.2206    4.1884 C   0  0  2  0  0  0  0  0  0  0  0  0
   10.5734   -4.8682    4.2283 O   0  0  0  0  0  0  0  0  0  0  0  0
   11.6776   -6.6439    5.5711 C   0  0  2  0  0  0  0  0  0  0  0  0
   12.1920   -8.0296    5.5047 O   0  0  0  0  0  0  0  0  0  0  0  0
   10.6886   -6.5959    6.7414 C   0  0  2  0  0  0  0  0  0  0  0  0
   11.3866   -6.5683    7.9436 O   0  0  0  0  0  0  0  0  0  0  0  0
    9.7569   -7.8196    6.8118 C   0  0  0  0  0  0  0  0  0  0  0  0
   16.9376   -9.9579    7.0669 C   0  0  2  0  0  0  0  0  0  0  0  0
   17.9364  -10.3964    8.0747 N   0  3  0  0  0  0  0  0  0  0  0  0
   17.5707   -8.9423    6.0700 C   0  0  0  0  0  0  0  0  0  0  0  0
   16.5011   -8.4707    5.0194 C   0  0  2  0  0  0  0  0  0  0  0  0
   17.1451   -7.4968    4.0636 N   0  3  0  0  0  0  0  0  0  0  0  0
   15.2851   -7.8277    5.7705 C   0  0  2  0  0  0  0  0  0  0  0  0
   14.6733   -8.8629    6.7458 C   0  0  2  0  0  0  0  0  0  0  0  0
   13.6048   -8.2641    7.4385 O   0  0  0  0  0  0  0  0  0  0  0  0
   15.7371   -9.3061    7.7856 C   0  0  1  0  0  0  0  0  0  0  0  0
   15.1543  -10.2521    8.6699 O   0  0  0  0  0  0  0  0  0  0  0  0
   15.4015  -10.1288   10.0433 C   0  0  2  0  0  0  0  0  0  0  0  0
   15.7718  -11.5269   10.5735 C   0  0  2  0  0  0  0  0  0  0  0  0
   16.9417  -11.9714    9.9205 O   0  0  0  0  0  0  0  0  0  0  0  0
   14.5793  -12.5082   10.3091 C   0  0  1  0  0  0  0  0  0  0  0  0
   14.8688  -13.8894   10.7658 N   0  3  0  0  0  0  0  0  0  0  0  0
   15.7419  -14.5941    9.7926 C   0  0  0  0  0  0  0  0  0  0  0  0
   13.2965  -11.9650   11.0277 C   0  0  2  0  0  0  0  0  0  0  0  0
   13.5303  -11.8750   12.4456 O   0  0  0  0  0  0  0  0  0  0  0  0
   12.1501  -12.8327   10.8273 C   0  0  0  0  0  0  0  0  0  0  0  0
   12.9866  -10.5143   10.5454 C   0  0  0  0  0  0  0  0  0  0  0  0
   14.1887   -9.6343   10.7171 O   0  0  0  0  0  0  0  0  0  0  0  0
  1  2  1  1  0  0  0
  1  3  1  0  0  0  0
  1 10  1  0  0  0  0
  3  4  1  6  0  0  0
  3  5  1  0  0  0  0
  5  6  1  6  0  0  0
  5  7  1  0  0  0  0
  7  8  1  1  0  0  0
  7  9  1  0  0  0  0
  9 10  1  6  0  0  0
  9 11  1  0  0  0  0
 11 12  1  1  0  0  0
 11 13  1  0  0  0  0
 14 15  1  1  0  0  0
 14 16  1  0  0  0  0
 14 22  1  0  0  0  0
 16 17  1  0  0  0  0
 17 18  1  6  0  0  0
 17 19  1  0  0  0  0
 19  2  1  6  0  0  0
 19 20  1  0  0  0  0
 20 21  1  1  0  0  0
 20 22  1  0  0  0  0
 22 23  1  1  0  0  0
 24 23  1  6  0  0  0
 24 25  1  0  0  0  0
 24 34  1  0  0  0  0
 25 26  1  6  0  0  0
 25 27  1  0  0  0  0
 27 28  1  1  0  0  0
 27 30  1  0  0  0  0
 28 29  1  0  0  0  0
 30 31  1  1  0  0  0
 30 32  1  0  0  0  0
 30 33  1  0  0  0  0
 33 34  1  0  0  0  0
M  CHG  4   4   1  15   1  18   1  28   1
M  END
>  <CHROM.1>
-159.77294307,98.86797541,-169.82541511,-171.26018112,-55.51570550,-161.25782019
-57.44564061,75.29885615,134.46438215,-54.68131065,103.90244758,-133.52191200
95.30986200,41.72002665,-45.92895853,13.98848834,-9.16093689,7.17889092,-1.88404692
-0.31841435,2.16431963

>  <Name>
1mwl

>  <RI>
0

>  <Rbt.Current_Directory>
/home/itssahil/PROJECTS/Mol_Feturizer/New_Systems/rnas/1mwl

>  <Rbt.Executable>
rbdock ($Id: //depot/dev/client3/rdock/2013.1/src/exe/rbdock.cxx#4 $)

>  <Rbt.Library>
libRbt.so (2013.1, Build901 2013/11/27)

>  <Rbt.Parameter_File>
/export/apps/rDock/src/rDock_2013.1_src/data/scripts/dock_solv.prm

>  <Rbt.Receptor>
prm/blind_docking_40.prm

>  <SCORE>
-40.6093

>  <SCORE.INTER>
-37.8796

>  <SCORE.INTER.CONST>
1

>  <SCORE.INTER.POLAR>
-5.48651

>  <SCORE.INTER.ROT>
6

>  <SCORE.INTER.SOLV>
25.5497

>  <SCORE.INTER.VDW>
-23.0812

>  <SCORE.INTER.norm>
-1.1141

>  <SCORE.INTRA>
-10.14

>  <SCORE.INTRA.DIHEDRAL>
-10.4358

>  <SCORE.INTRA.DIHEDRAL.0>
42.0816

>  <SCORE.INTRA.POLAR>
-1.90401

>  <SCORE.INTRA.POLAR.0>
-0.254682

>  <SCORE.INTRA.REPUL>
0

>  <SCORE.INTRA.REPUL.0>
0

>  <SCORE.INTRA.SOLV>
2.81723

>  <SCORE.INTRA.SOLV.lig_0>
-109.803

>  <SCORE.INTRA.VDW>
0.14289

>  <SCORE.INTRA.VDW.0>
0.32176

>  <SCORE.INTRA.norm>
-0.298237

>  <SCORE.RESTR>
7.41028

>  <SCORE.RESTR.CAVITY>
7.41028

>  <SCORE.RESTR.norm>
0.217949

>  <SCORE.SYSTEM>
0

>  <SCORE.SYSTEM.CONST>
0

>  <SCORE.SYSTEM.DIHEDRAL>
0

>  <SCORE.SYSTEM.SOLV>
0

>  <SCORE.SYSTEM.norm>
0

>  <SCORE.heavy>
34

>  <SCORE.norm>
-1.19439

>  <RMSD>
33.390

$$$$
1mwl
 OpenBabel11021811403D
libRbt.so/2013.1/901 2013/11/27
 34 36  0  0  0  0  0  0  0  0999 V2000
   13.4789   -7.6564    4.6612 C   0  0  2  0  0  0  0  0  0  0  0  0
   14.3462   -7.0835    5.5930 O   0  0  0  0  0  0  0  0  0  0  0  0
   12.4561   -6.5627    4.2434 C   0  0  2  0  0  0  0  0  0  0  0  0
   13.1563   -5.4072    3.6742 N   0  3  0  0  0  0  0  0  0  0  0  0
   11.5677   -6.1513    5.4537 C   0  0  1  0  0  0  0  0  0  0  0  0
   10.6554   -5.2153    5.0906 O   0  0  0  0  0  0  0  0  0  0  0  0
   10.8606   -7.4306    6.0113 C   0  0  2  0  0  0  0  0  0  0  0  0
   10.0189   -7.0839    7.1310 O   0  0  0  0  0  0  0  0  0  0  0  0
   11.9638   -8.4617    6.4280 C   0  0  2  0  0  0  0  0  0  0  0  0
   12.8184   -8.7967    5.2675 O   0  0  0  0  0  0  0  0  0  0  0  0
   11.4254   -9.7879    6.9769 C   0  0  2  0  0  0  0  0  0  0  0  0
   10.5312   -9.5378    8.0119 O   0  0  0  0  0  0  0  0  0  0  0  0
   12.5174  -10.7019    7.5620 C   0  0  0  0  0  0  0  0  0  0  0  0
   16.8482  -10.3864    6.6370 C   0  0  2  0  0  0  0  0  0  0  0  0
   17.9626  -11.1739    7.2230 N   0  3  0  0  0  0  0  0  0  0  0  0
   17.3886   -9.3477    5.6097 C   0  0  0  0  0  0  0  0  0  0  0  0
   16.2038   -8.5075    5.0094 C   0  0  2  0  0  0  0  0  0  0  0  0
   16.7564   -7.5184    4.0129 N   0  3  0  0  0  0  0  0  0  0  0  0
   15.4351   -7.7910    6.1722 C   0  0  2  0  0  0  0  0  0  0  0  0
   14.9038   -8.8488    7.1701 C   0  0  2  0  0  0  0  0  0  0  0  0
   14.2455   -8.1922    8.2264 O   0  0  0  0  0  0  0  0  0  0  0  0
   16.0867   -9.6586    7.7653 C   0  0  1  0  0  0  0  0  0  0  0  0
   15.5772  -10.6196    8.6782 O   0  0  0  0  0  0  0  0  0  0  0  0
   15.9829  -10.5549   10.0175 C   0  0  2  0  0  0  0  0  0  0  0  0
   16.1669  -12.0011   10.5148 C   0  0  2  0  0  0  0  0  0  0  0  0
   17.1716  -12.6276    9.7462 O   0  0  0  0  0  0  0  0  0  0  0  0
   14.8060  -12.7662   10.3825 C   0  0  1  0  0  0  0  0  0  0  0  0
   14.9061  -14.1814   10.8151 N   0  3  0  0  0  0  0  0  0  0  0  0
   15.3396  -15.0474    9.6890 C   0  0  0  0  0  0  0  0  0  0  0  0
   13.7140  -12.0243   11.2276 C   0  0  2  0  0  0  0  0  0  0  0  0
   14.1057  -11.9908   12.6128 O   0  0  0  0  0  0  0  0  0  0  0  0
   12.4240  -12.6858   11.1534 C   0  0  0  0  0  0  0  0  0  0  0  0
   13.6030  -10.5368   10.7713 C   0  0  0  0  0  0  0  0  0  0  0  0
   14.9467   -9.8722   10.8110 O   0  0  0  0  0  0  0  0  0  0  0  0
  1  2  1  1  0  0  0
  1  3  1  0  0  0  0
  1 10  1  0  0  0  0
  3  4  1  1  0  0  0
  3  5  1  0  0  0  0
  5  6  1  6  0  0  0
  5  7  1  0  0  0  0
  7  8  1  1  0  0  0
  7  9  1  0  0  0  0
  9 10  1  6  0  0  0
  9 11  1  0  0  0  0
 11 12  1  1  0  0  0
 11 13  1  0  0  0  0
 14 15  1  1  0  0  0
 14 16  1  0  0  0  0
 14 22  1  0  0  0  0
 16 17  1  0  0  0  0
 17 18  1  6  0  0  0
 17 19  1  0  0  0  0
 19  2  1  6  0  0  0
 19 20  1  0  0  0  0
 20 21  1  1  0  0  0
 20 22  1  0  0  0  0
 22 23  1  1  0  0  0
 24 23  1  6  0  0  0
 24 25  1  0  0  0  0
 24 34  1  0  0  0  0
 25 26  1  6  0  0  0
 25 27  1  0  0  0  0
 27 28  1  1  0  0  0
 27 30  1  0  0  0  0
 28 29  1  0  0  0  0
 30 31  1  1  0  0  0
 30 32  1  0  0  0  0
 30 33  1  0  0  0  0
 33 34  1  0  0  0  0
M  CHG  4   4   1  15   1  18   1  28   1
M  END
>  <CHROM.1>
-178.52343955,47.42147059,-171.17376643,-71.83422091,-53.49524906,-53.09358423
-54.39347761,-61.24132355,37.91349617,51.26656365,120.47830406,-141.62192887
171.80884296,32.69336595,-66.78228120,14.12287210,-9.58195239,7.66990365
-1.89237816,-0.28279938,2.29289974

>  <Name>
1mwl

>  <RI>
0

>  <Rbt.Current_Directory>
/home/itssahil/PROJECTS/Mol_Feturizer/New_Systems/rnas/1mwl

>  <Rbt.Executable>
rbdock ($Id: //depot/dev/client3/rdock/2013.1/src/exe/rbdock.cxx#4 $)

>  <Rbt.Library>
libRbt.so (2013.1, Build901 2013/11/27)

>  <Rbt.Parameter_File>
/export/apps/rDock/src/rDock_2013.1_src/data/scripts/dock_solv.prm

>  <Rbt.Receptor>
prm/blind_docking_40.prm

>  <SCORE>
-28.8213

>  <SCORE.INTER>
-24.6712

>  <SCORE.INTER.CONST>
1

>  <SCORE.INTER.POLAR>
-4.27433

>  <SCORE.INTER.ROT>
6

>  <SCORE.INTER.SOLV>
22.4675

>  <SCORE.INTER.VDW>
-17.2889

>  <SCORE.INTER.norm>
-0.725623

>  <SCORE.INTRA>
-16.4181

>  <SCORE.INTRA.DIHEDRAL>
-24.0231

>  <SCORE.INTRA.DIHEDRAL.0>
42.0816

>  <SCORE.INTRA.POLAR>
-0.94132

>  <SCORE.INTRA.POLAR.0>
-0.254682

>  <SCORE.INTRA.REPUL>
0

>  <SCORE.INTRA.REPUL.0>
0

>  <SCORE.INTRA.SOLV>
1.72279

>  <SCORE.INTRA.SOLV.lig_0>
-109.803

>  <SCORE.INTRA.VDW>
-2.0674

>  <SCORE.INTRA.VDW.0>
0.32176

>  <SCORE.INTRA.norm>
-0.482884

>  <SCORE.RESTR>
12.2679

>  <SCORE.RESTR.CAVITY>
12.2679

>  <SCORE.RESTR.norm>
0.360821

>  <SCORE.SYSTEM>
0

>  <SCORE.SYSTEM.CONST>
0

>  <SCORE.SYSTEM.DIHEDRAL>
0

>  <SCORE.SYSTEM.SOLV>
0

>  <SCORE.SYSTEM.norm>
0

>  <SCORE.heavy>
34

>  <SCORE.norm>
-0.847686

>  <RMSD>
33.487

$$$$
1mwl
 OpenBabel11021811403D
libRbt.so/2013.1/901 2013/11/27
 34 36  0  0  0  0  0  0  0  0999 V2000
   14.0498   -7.1670    4.3775 C   0  0  2  0  0  0  0  0  0  0  0  0
   14.5663   -6.9351    5.6534 O   0  0  0  0  0  0  0  0  0  0  0  0
   13.2292   -5.9104    3.9720 C   0  0  2  0  0  0  0  0  0  0  0  0
   14.0857   -4.7207    3.9883 N   0  3  0  0  0  0  0  0  0  0  0  0
   11.9949   -5.7368    4.9048 C   0  0  1  0  0  0  0  0  0  0  0  0
   11.2595   -4.6565    4.5411 O   0  0  0  0  0  0  0  0  0  0  0  0
   11.1347   -7.0420    4.8423 C   0  0  2  0  0  0  0  0  0  0  0  0
    9.9740   -6.9122    5.6896 O   0  0  0  0  0  0  0  0  0  0  0  0
   12.0321   -8.2458    5.2889 C   0  0  2  0  0  0  0  0  0  0  0  0
   13.2186   -8.3553    4.4116 O   0  0  0  0  0  0  0  0  0  0  0  0
   11.3338   -9.6101    5.2589 C   0  0  2  0  0  0  0  0  0  0  0  0
   10.6660   -9.7679    4.0496 O   0  0  0  0  0  0  0  0  0  0  0  0
   10.2744   -9.7850    6.3623 C   0  0  0  0  0  0  0  0  0  0  0  0
   16.6543  -10.5042    6.7310 C   0  0  2  0  0  0  0  0  0  0  0  0
   17.6613  -11.4148    7.3329 N   0  3  0  0  0  0  0  0  0  0  0  0
   17.3266   -9.5352    5.7137 C   0  0  0  0  0  0  0  0  0  0  0  0
   16.2561   -8.5640    5.0964 C   0  0  2  0  0  0  0  0  0  0  0  0
   16.9343   -7.6456    4.1099 N   0  3  0  0  0  0  0  0  0  0  0  0
   15.5572   -7.7633    6.2483 C   0  0  2  0  0  0  0  0  0  0  0  0
   14.8922   -8.7524    7.2364 C   0  0  2  0  0  0  0  0  0  0  0  0
   14.2978   -8.0240    8.2834 O   0  0  0  0  0  0  0  0  0  0  0  0
   15.9645   -9.6931    7.8485 C   0  0  1  0  0  0  0  0  0  0  0  0
   15.3335  -10.5886    8.7521 O   0  0  0  0  0  0  0  0  0  0  0  0
   15.7238  -10.5711   10.0974 C   0  0  2  0  0  0  0  0  0  0  0  0
   16.0044  -12.0268   10.5160 C   0  0  2  0  0  0  0  0  0  0  0  0
   17.0560  -12.5381    9.7252 O   0  0  0  0  0  0  0  0  0  0  0  0
   14.7012  -12.8755   10.3260 C   0  0  1  0  0  0  0  0  0  0  0  0
   14.8964  -14.3025   10.6808 N   0  3  0  0  0  0  0  0  0  0  0  0
   15.4692  -15.0564    9.5364 C   0  0  0  0  0  0  0  0  0  0  0  0
   13.5538  -12.2595   11.1985 C   0  0  2  0  0  0  0  0  0  0  0  0
   13.9319  -12.2766   12.5878 O   0  0  0  0  0  0  0  0  0  0  0  0
   12.3137  -13.0035   11.0732 C   0  0  0  0  0  0  0  0  0  0  0  0
   13.3428  -10.7600   10.8240 C   0  0  0  0  0  0  0  0  0  0  0  0
   14.6366  -10.0073   10.9158 O   0  0  0  0  0  0  0  0  0  0  0  0
  1  2  1  1  0  0  0
  1  3  1  0  0  0  0
  1 10  1  0  0  0  0
  3  4  1  1  0  0  0
  3  5  1  0  0  0  0
  5  6  1  6  0  0  0
  5  7  1  0  0  0  0
  7  8  1  1  0  0  0
  7  9  1  0  0  0  0
  9 10  1  6  0  0  0
  9 11  1  0  0  0  0
 11 12  1  6  0  0  0
 11 13  1  0  0  0  0
 14 15  1  1  0  0  0
 14 16  1  0  0  0  0
 14 22  1  0  0  0  0
 16 17  1  0  0  0  0
 17 18  1  6  0  0  0
 17 19  1  0  0  0  0
 19  2  1  6  0  0  0
 19 20  1  0  0  0  0
 20 21  1  1  0  0  0
 20 22  1  0  0  0  0
 22 23  1  1  0  0  0
 24 23  1  6  0  0  0
 24 25  1  0  0  0  0
 24 34  1  0  0  0  0
 25 26  1  6  0  0  0
 25 27  1  0  0  0  0
 27 28  1  1  0  0  0
 27 30  1  0  0  0  0
 28 29  1  0  0  0  0
 30 31  1  1  0  0  0
 30 32  1  0  0  0  0
 30 33  1  0  0  0  0
 33 34  1  0  0  0  0
M  CHG  4   4   1  15   1  18   1  28   1
M  END
>  <CHROM.1>
-168.58558648,19.36239462,85.77321552,-146.96746094,156.85596493,47.64316910
-55.76870805,-65.40792866,-101.10539809,72.37526551,120.44921354,-130.53375171
170.98751576,35.86011793,-177.43909892,14.11473506,-9.48917752,7.29958980
-1.85013916,-0.10965906,2.32462909

>  <Name>
1mwl

>  <RI>
0

>  <Rbt.Current_Directory>
/home/itssahil/PROJECTS/Mol_Feturizer/New_Systems/rnas/1mwl

>  <Rbt.Executable>
rbdock ($Id: //depot/dev/client3/rdock/2013.1/src/exe/rbdock.cxx#4 $)

>  <Rbt.Library>
libRbt.so (2013.1, Build901 2013/11/27)

>  <Rbt.Parameter_File>
/export/apps/rDock/src/rDock_2013.1_src/data/scripts/dock_solv.prm

>  <Rbt.Receptor>
prm/blind_docking_40.prm

>  <SCORE>
-33.6075

>  <SCORE.INTER>
-39.0548

>  <SCORE.INTER.CONST>
1

>  <SCORE.INTER.POLAR>
-6.53091

>  <SCORE.INTER.ROT>
6

>  <SCORE.INTER.SOLV>
25.0686

>  <SCORE.INTER.VDW>
-20.223

>  <SCORE.INTER.norm>
-1.14867

>  <SCORE.INTRA>
-6.64

>  <SCORE.INTRA.DIHEDRAL>
-8.20252

>  <SCORE.INTRA.DIHEDRAL.0>
42.0816

>  <SCORE.INTRA.POLAR>
-1.01556

>  <SCORE.INTRA.POLAR.0>
-0.254682

>  <SCORE.INTRA.REPUL>
0

>  <SCORE.INTRA.REPUL.0>
0

>  <SCORE.INTRA.SOLV>
1.62364

>  <SCORE.INTRA.SOLV.lig_0>
-109.803

>  <SCORE.INTRA.VDW>
0.102353

>  <SCORE.INTRA.VDW.0>
0.32176

>  <SCORE.INTRA.norm>
-0.195294

>  <SCORE.RESTR>
12.0873

>  <SCORE.RESTR.CAVITY>
12.0873

>  <SCORE.RESTR.norm>
0.35551

>  <SCORE.SYSTEM>
0

>  <SCORE.SYSTEM.CONST>
0

>  <SCORE.SYSTEM.DIHEDRAL>
0

>  <SCORE.SYSTEM.SOLV>
0

>  <SCORE.SYSTEM.norm>
0

>  <SCORE.heavy>
34

>  <SCORE.norm>
-0.988456

>  <RMSD>
33.636

$$$$
1mwl
 OpenBabel11021811403D
libRbt.so/2013.1/901 2013/11/27
 34 36  0  0  0  0  0  0  0  0999 V2000
   14.4889   -6.5020    4.1752 C   0  0  2  0  0  0  0  0  0  0  0  0
   14.3360   -6.9181    5.4989 O   0  0  0  0  0  0  0  0  0  0  0  0
   13.5710   -5.2646    3.9674 C   0  0  2  0  0  0  0  0  0  0  0  0
   13.9405   -4.1985    4.9035 N   0  3  0  0  0  0  0  0  0  0  0  0
   12.0731   -5.6612    4.1178 C   0  0  1  0  0  0  0  0  0  0  0  0
   11.2645   -4.5915    3.9125 O   0  0  0  0  0  0  0  0  0  0  0  0
   11.7545   -6.8034    3.0974 C   0  0  2  0  0  0  0  0  0  0  0  0
   10.3682   -7.1900    3.2026 O   0  0  0  0  0  0  0  0  0  0  0  0
   12.7053   -8.0117    3.3971 C   0  0  2  0  0  0  0  0  0  0  0  0
   14.1198   -7.5909    3.2908 O   0  0  0  0  0  0  0  0  0  0  0  0
   12.5302   -9.2116    2.4593 C   0  0  2  0  0  0  0  0  0  0  0  0
   12.4859   -8.7728    1.1407 O   0  0  0  0  0  0  0  0  0  0  0  0
   11.2262   -9.9949    2.6970 C   0  0  0  0  0  0  0  0  0  0  0  0
   16.4705  -10.3537    6.8774 C   0  0  2  0  0  0  0  0  0  0  0  0
   17.4716  -11.1971    7.5788 N   0  3  0  0  0  0  0  0  0  0  0  0
   17.1653   -9.4203    5.8421 C   0  0  0  0  0  0  0  0  0  0  0  0
   16.0997   -8.5195    5.1189 C   0  0  2  0  0  0  0  0  0  0  0  0
   16.8004   -7.6347    4.1174 N   0  3  0  0  0  0  0  0  0  0  0  0
   15.3192   -7.6801    6.1878 C   0  0  2  0  0  0  0  0  0  0  0  0
   14.6337   -8.6350    7.1956 C   0  0  2  0  0  0  0  0  0  0  0  0
   13.9649   -7.8702    8.1692 O   0  0  0  0  0  0  0  0  0  0  0  0
   15.7004   -9.5057    7.9120 C   0  0  1  0  0  0  0  0  0  0  0  0
   15.0505  -10.3705    8.8319 O   0  0  0  0  0  0  0  0  0  0  0  0
   15.3581  -10.2559   10.1938 C   0  0  2  0  0  0  0  0  0  0  0  0
   15.7379  -11.6598   10.7014 C   0  0  2  0  0  0  0  0  0  0  0  0
   16.8742  -12.1119    9.9964 O   0  0  0  0  0  0  0  0  0  0  0  0
   14.5260  -12.6289   10.4847 C   0  0  1  0  0  0  0  0  0  0  0  0
   14.8222  -14.0148   10.9225 N   0  3  0  0  0  0  0  0  0  0  0  0
   15.3455  -14.8240    9.7923 C   0  0  0  0  0  0  0  0  0  0  0  0
   13.2806  -12.0774   11.2606 C   0  0  2  0  0  0  0  0  0  0  0  0
   13.5765  -11.9962   12.6674 O   0  0  0  0  0  0  0  0  0  0  0  0
   12.1186  -12.9337   11.1064 C   0  0  0  0  0  0  0  0  0  0  0  0
   12.9637  -10.6217   10.7984 C   0  0  0  0  0  0  0  0  0  0  0  0
   14.1802   -9.7535   10.9216 O   0  0  0  0  0  0  0  0  0  0  0  0
  1  2  1  1  0  0  0
  1  3  1  0  0  0  0
  1 10  1  0  0  0  0
  3  4  1  1  0  0  0
  3  5  1  0  0  0  0
  5  6  1  6  0  0  0
  5  7  1  0  0  0  0
  7  8  1  1  0  0  0
  7  9  1  0  0  0  0
  9 10  1  6  0  0  0
  9 11  1  0  0  0  0
 11 12  1  6  0  0  0
 11 13  1  0  0  0  0
 14 15  1  1  0  0  0
 14 16  1  0  0  0  0
 14 22  1  0  0  0  0
 16 17  1  0  0  0  0
 17 18  1  6  0  0  0
 17 19  1  0  0  0  0
 19  2  1  6  0  0  0
 19 20  1  0  0  0  0
 20 21  1  1  0  0  0
 20 22  1  0  0  0  0
 22 23  1  1  0  0  0
 24 23  1  6  0  0  0
 24 25  1  0  0  0  0
 24 34  1  0  0  0  0
 25 26  1  6  0  0  0
 25 27  1  0  0  0  0
 27 28  1  1  0  0  0
 27 30  1  0  0  0  0
 28 29  1  0  0  0  0
 30 31  1  1  0  0  0
 30 32  1  0  0  0  0
 30 33  1  0  0  0  0
 33 34  1  0  0  0  0
M  CHG  4   4   1  15   1  18   1  28   1
M  END
>  <CHROM.1>
-156.92450317,-28.25382904,-157.47366472,58.05290373,64.12377429,46.88835150
-74.55553771,52.83456019,138.93952171,165.52816764,121.22649445,-127.69384234
86.80675800,27.75218126,-52.68378028,14.17910487,-9.24638616,6.83643697,-1.77965847
-0.01673221,2.21221191

>  <Name>
1mwl

>  <RI>
0

>  <Rbt.Current_Directory>
/home/itssahil/PROJECTS/Mol_Feturizer/New_Systems/rnas/1mwl

>  <Rbt.Executable>
rbdock ($Id: //depot/dev/client3/rdock/2013.1/src/exe/rbdock.cxx#4 $)

>  <Rbt.Library>
libRbt.so (2013.1, Build901 2013/11/27)

>  <Rbt.Parameter_File>
/export/apps/rDock/src/rDock_2013.1_src/data/scripts/dock_solv.prm

>  <Rbt.Receptor>
prm/blind_docking_40.prm

>  <SCORE>
-32.2891

>  <SCORE.INTER>
-34.1468

>  <SCORE.INTER.CONST>
1

>  <SCORE.INTER.POLAR>
-5.56409

>  <SCORE.INTER.ROT>
6

>  <SCORE.INTER.SOLV>
29.2148

>  <SCORE.INTER.VDW>
-21.5558

>  <SCORE.INTER.norm>
-1.00432

>  <SCORE.INTRA>
-6.15204

>  <SCORE.INTRA.DIHEDRAL>
-9.6216

>  <SCORE.INTRA.DIHEDRAL.0>
42.0816

>  <SCORE.INTRA.POLAR>
-1.48848

>  <SCORE.INTRA.POLAR.0>
-0.254682

>  <SCORE.INTRA.REPUL>
0

>  <SCORE.INTRA.REPUL.0>
0

>  <SCORE.INTRA.SOLV>
3.10149

>  <SCORE.INTRA.SOLV.lig_0>
-109.803

>  <SCORE.INTRA.VDW>
2.16885

>  <SCORE.INTRA.VDW.0>
0.32176

>  <SCORE.INTRA.norm>
-0.180942

>  <SCORE.RESTR>
8.00974

>  <SCORE.RESTR.CAVITY>
8.00974

>  <SCORE.RESTR.norm>
0.235581

>  <SCORE.SYSTEM>
0

>  <SCORE.SYSTEM.CONST>
0

>  <SCORE.SYSTEM.DIHEDRAL>
0

>  <SCORE.SYSTEM.SOLV>
0

>  <SCORE.SYSTEM.norm>
0

>  <SCORE.heavy>
34

>  <SCORE.norm>
-0.94968

>  <RMSD>
33.782

$$$$
