ligand
  PyMOL2.3          3D                             0

 16 17  0  0  0  0  0  0  0  0999 V2000
    8.6360    5.7370   84.1220 N   0  0  0  0  0  0  0  0  0  0  0  0
    7.3530    6.2070   84.5220 C   0  0  0  0  0  0  0  0  0  0  0  0
    7.2200    6.2710   86.0180 C   0  0  0  0  0  0  0  0  0  0  0  0
    6.0930    6.4880   86.5260 O   0  0  0  0  0  0  0  0  0  0  0  0
    8.0440    1.6780   80.1150 O   0  0  0  0  0  0  0  0  0  0  0  0
    6.2620    5.3230   83.9670 C   0  0  0  0  0  0  0  0  0  0  0  0
    6.4280    3.8690   84.3400 C   0  0  0  0  0  0  0  0  0  0  0  0
    6.1670    3.3400   85.5400 C   0  0  0  0  0  0  0  0  0  0  0  0
    6.8710    2.9060   83.3760 C   0  0  0  0  0  0  0  0  0  0  0  0
    6.8700    1.6760   84.0890 C   0  0  0  0  0  0  0  0  0  0  0  0
    7.2430    2.9280   82.0600 C   0  0  0  0  0  0  0  0  0  0  0  0
    6.4340    2.0270   85.3850 N   0  0  0  0  0  0  0  0  0  0  0  0
    7.2300    0.5070   83.5370 C   0  0  0  0  0  0  0  0  0  0  0  0
    7.6420    1.6960   81.4570 C   0  0  0  0  0  0  0  0  0  0  0  0
    7.6430    0.4640   82.2020 C   0  0  0  0  0  0  0  0  0  0  0  0
    8.2280    6.1250   86.7410 O   0  0  0  0  0  0  0  0  0  0  0  0
  1  2  1  0  0  0  0
  2  3  1  0  0  0  0
  2  6  1  0  0  0  0
  3  4  4  0  0  0  0
  3 16  4  0  0  0  0
  6  7  1  0  0  0  0
  7  8  4  0  0  0  0
  7  9  4  0  0  0  0
  8 12  4  0  0  0  0
  9 10  4  0  0  0  0
 10 13  4  0  0  0  0
  9 11  4  0  0  0  0
 10 12  4  0  0  0  0
 13 15  4  0  0  0  0
  5 14  1  0  0  0  0
 11 14  4  0  0  0  0
 14 15  4  0  0  0  0
M  END
$$$$
