ligand
 OpenBabel02271912153D
libRbt.so/2013.1/901 2013/11/27
 16 17  0  0  0  0  0  0  0  0999 V2000
    8.4183    5.3782   83.0041 N   0  0  0  0  0  0  0  0  0  0  0  0
    7.3222    6.0544   83.6111 C   0  0  2  0  0  0  0  0  0  0  0  0
    7.6588    6.5414   84.9929 C   0  0  0  0  0  0  0  0  0  0  0  0
    8.5857    5.9860   85.6314 O   0  0  0  0  0  0  0  0  0  0  0  0
    7.3993    0.3660   81.0935 O   0  0  0  0  0  0  0  0  0  0  0  0
    6.1128    5.1536   83.6865 C   0  0  0  0  0  0  0  0  0  0  0  0
    6.3509    3.9062   84.5038 C   0  0  0  0  0  0  0  0  0  0  0  0
    6.2667    3.8221   85.8357 C   0  0  0  0  0  0  0  0  0  0  0  0
    6.6707    2.6604   83.8726 C   0  0  0  0  0  0  0  0  0  0  0  0
    6.7871    1.7439   84.9532 C   0  0  0  0  0  0  0  0  0  0  0  0
    6.8565    2.2247   82.5894 C   0  0  0  0  0  0  0  0  0  0  0  0
    6.5295    2.5259   86.1000 N   0  0  0  0  0  0  0  0  0  0  0  0
    7.0849    0.4461   84.7866 C   0  0  0  0  0  0  0  0  0  0  0  0
    7.1868    0.8491   82.3914 C   0  0  0  0  0  0  0  0  0  0  0  0
    7.3097   -0.0585   83.5022 C   0  0  0  0  0  0  0  0  0  0  0  0
    7.0077    7.4790   85.5000 O   0  0  0  0  0  0  0  0  0  0  0  0
  2  1  1  1  0  0  0
  2  3  1  0  0  0  0
  2  6  1  0  0  0  0
  3  4  1  0  0  0  0
  3 16  1  0  0  0  0
  5 14  1  0  0  0  0
  6  7  1  0  0  0  0
  7  8  2  0  0  0  0
  7  9  1  0  0  0  0
  8 12  1  0  0  0  0
  9 10  2  0  0  0  0
  9 11  1  0  0  0  0
 10 13  1  0  0  0  0
 10 12  1  0  0  0  0
 11 14  2  0  0  0  0
 13 15  2  0  0  0  0
 14 15  1  0  0  0  0
M  END
>  <CHROM.1>
-23.00305493,60.56794691,83.01578024,7.12770474,3.54703690,84.12669934,-1.34140325
-1.32663353,-2.58317061

>  <Name>
ligand

>  <RI>
0

>  <Rbt.Current_Directory>
/home/itssahil/PROJECTS/Mol_Feturizer/Test_systems_manuscript/rnas/5kpy

>  <Rbt.Executable>
rbdock ($Id: //depot/dev/client3/rdock/2013.1/src/exe/rbdock.cxx#4 $)

>  <Rbt.Library>
libRbt.so (2013.1, Build901 2013/11/27)

>  <Rbt.Parameter_File>
/export/apps/rDock/src/rDock_2013.1_src/data/scripts/dock_solv.prm

>  <Rbt.Receptor>
prm/pocket_docking_2.prm

>  <SCORE>
-19.4585

>  <SCORE.INTER>
-18.7915

>  <SCORE.INTER.CONST>
1

>  <SCORE.INTER.POLAR>
0

>  <SCORE.INTER.ROT>
3

>  <SCORE.INTER.SOLV>
6.72116

>  <SCORE.INTER.VDW>
-20.368

>  <SCORE.INTER.norm>
-1.17447

>  <SCORE.INTRA>
-0.667039

>  <SCORE.INTRA.DIHEDRAL>
-0.0842069

>  <SCORE.INTRA.DIHEDRAL.0>
3.89056

>  <SCORE.INTRA.POLAR>
0

>  <SCORE.INTRA.POLAR.0>
0

>  <SCORE.INTRA.REPUL>
0

>  <SCORE.INTRA.REPUL.0>
0

>  <SCORE.INTRA.SOLV>
0.0483674

>  <SCORE.INTRA.SOLV.lig_0>
-20.733

>  <SCORE.INTRA.VDW>
-0.649119

>  <SCORE.INTRA.VDW.0>
-0.828515

>  <SCORE.INTRA.norm>
-0.0416899

>  <SCORE.RESTR>
0

>  <SCORE.RESTR.CAVITY>
0

>  <SCORE.RESTR.norm>
0

>  <SCORE.SYSTEM>
0

>  <SCORE.SYSTEM.CONST>
0

>  <SCORE.SYSTEM.DIHEDRAL>
0

>  <SCORE.SYSTEM.SOLV>
0

>  <SCORE.SYSTEM.norm>
0

>  <SCORE.heavy>
16

>  <SCORE.norm>
-1.21616

>  <RMSD>
1.109

$$$$
ligand
 OpenBabel02271912153D
libRbt.so/2013.1/901 2013/11/27
 16 17  0  0  0  0  0  0  0  0999 V2000
    8.4324    5.4083   82.9976 N   0  0  0  0  0  0  0  0  0  0  0  0
    7.3347    6.0681   83.6193 C   0  0  2  0  0  0  0  0  0  0  0  0
    7.6740    6.5367   85.0068 C   0  0  0  0  0  0  0  0  0  0  0  0
    7.0454    7.5049   85.4994 O   0  0  0  0  0  0  0  0  0  0  0  0
    7.3059    0.3458   81.0866 O   0  0  0  0  0  0  0  0  0  0  0  0
    6.1314    5.1585   83.6862 C   0  0  0  0  0  0  0  0  0  0  0  0
    6.3736    3.9119   84.5036 C   0  0  0  0  0  0  0  0  0  0  0  0
    6.3180    3.8344   85.8374 C   0  0  0  0  0  0  0  0  0  0  0  0
    6.6652    2.6599   83.8709 C   0  0  0  0  0  0  0  0  0  0  0  0
    6.7953    1.7468   84.9528 C   0  0  0  0  0  0  0  0  0  0  0  0
    6.8174    2.2168   82.5859 C   0  0  0  0  0  0  0  0  0  0  0  0
    6.5721    2.5364   86.1016 N   0  0  0  0  0  0  0  0  0  0  0  0
    7.0746    0.4449   84.7854 C   0  0  0  0  0  0  0  0  0  0  0  0
    7.1277    0.8367   82.3867 C   0  0  0  0  0  0  0  0  0  0  0  0
    7.2651   -0.0676   83.4986 C   0  0  0  0  0  0  0  0  0  0  0  0
    8.5846    5.9738   85.6503 O   0  0  0  0  0  0  0  0  0  0  0  0
  2  1  1  1  0  0  0
  2  3  1  0  0  0  0
  2  6  1  0  0  0  0
  3  4  1  0  0  0  0
  3 16  1  0  0  0  0
  5 14  1  0  0  0  0
  6  7  1  0  0  0  0
  7  8  2  0  0  0  0
  7  9  1  0  0  0  0
  8 12  1  0  0  0  0
  9 10  2  0  0  0  0
  9 11  1  0  0  0  0
 10 13  1  0  0  0  0
 10 12  1  0  0  0  0
 11 14  2  0  0  0  0
 13 15  2  0  0  0  0
 14 15  1  0  0  0  0
M  END
>  <CHROM.1>
154.86781004,61.55881965,81.04757319,7.12567629,3.54955593,84.12772901,-1.26458253
-1.34746409,-2.50616442

>  <Name>
ligand

>  <RI>
0

>  <Rbt.Current_Directory>
/home/itssahil/PROJECTS/Mol_Feturizer/Test_systems_manuscript/rnas/5kpy

>  <Rbt.Executable>
rbdock ($Id: //depot/dev/client3/rdock/2013.1/src/exe/rbdock.cxx#4 $)

>  <Rbt.Library>
libRbt.so (2013.1, Build901 2013/11/27)

>  <Rbt.Parameter_File>
/export/apps/rDock/src/rDock_2013.1_src/data/scripts/dock_solv.prm

>  <Rbt.Receptor>
prm/pocket_docking_2.prm

>  <SCORE>
-19.5519

>  <SCORE.INTER>
-18.8947

>  <SCORE.INTER.CONST>
1

>  <SCORE.INTER.POLAR>
0

>  <SCORE.INTER.ROT>
3

>  <SCORE.INTER.SOLV>
6.77333

>  <SCORE.INTER.VDW>
-20.4543

>  <SCORE.INTER.norm>
-1.18092

>  <SCORE.INTRA>
-0.657122

>  <SCORE.INTRA.DIHEDRAL>
-0.0198763

>  <SCORE.INTRA.DIHEDRAL.0>
3.89056

>  <SCORE.INTRA.POLAR>
0

>  <SCORE.INTRA.POLAR.0>
0

>  <SCORE.INTRA.REPUL>
0

>  <SCORE.INTRA.REPUL.0>
0

>  <SCORE.INTRA.SOLV>
-0.0102944

>  <SCORE.INTRA.SOLV.lig_0>
-20.733

>  <SCORE.INTRA.VDW>
-0.642036

>  <SCORE.INTRA.VDW.0>
-0.828515

>  <SCORE.INTRA.norm>
-0.0410701

>  <SCORE.RESTR>
0

>  <SCORE.RESTR.CAVITY>
0

>  <SCORE.RESTR.norm>
0

>  <SCORE.SYSTEM>
0

>  <SCORE.SYSTEM.CONST>
0

>  <SCORE.SYSTEM.DIHEDRAL>
0

>  <SCORE.SYSTEM.SOLV>
0

>  <SCORE.SYSTEM.norm>
0

>  <SCORE.heavy>
16

>  <SCORE.norm>
-1.22199

>  <RMSD>
1.120

$$$$
ligand
 OpenBabel02271912153D
libRbt.so/2013.1/901 2013/11/27
 16 17  0  0  0  0  0  0  0  0999 V2000
    8.4402    5.3674   83.0429 N   0  0  0  0  0  0  0  0  0  0  0  0
    7.3584    6.0626   83.6540 C   0  0  2  0  0  0  0  0  0  0  0  0
    7.7167    6.5643   85.0250 C   0  0  0  0  0  0  0  0  0  0  0  0
    7.1456    7.5881   85.4733 O   0  0  0  0  0  0  0  0  0  0  0  0
    7.2776    0.3933   81.0835 O   0  0  0  0  0  0  0  0  0  0  0  0
    6.1411    5.1752   83.7558 C   0  0  0  0  0  0  0  0  0  0  0  0
    6.3876    3.9176   84.5548 C   0  0  0  0  0  0  0  0  0  0  0  0
    6.3446    3.8230   85.8879 C   0  0  0  0  0  0  0  0  0  0  0  0
    6.6698    2.6730   83.9033 C   0  0  0  0  0  0  0  0  0  0  0  0
    6.8077    1.7457   84.9721 C   0  0  0  0  0  0  0  0  0  0  0  0
    6.8086    2.2461   82.6113 C   0  0  0  0  0  0  0  0  0  0  0  0
    6.5976    2.5210   86.1329 N   0  0  0  0  0  0  0  0  0  0  0  0
    7.0819    0.4454   84.7852 C   0  0  0  0  0  0  0  0  0  0  0  0
    7.1132    0.8679   82.3914 C   0  0  0  0  0  0  0  0  0  0  0  0
    7.2586   -0.0510   83.4902 C   0  0  0  0  0  0  0  0  0  0  0  0
    8.5864    5.9727   85.6986 O   0  0  0  0  0  0  0  0  0  0  0  0
  2  1  1  1  0  0  0
  2  3  1  0  0  0  0
  2  6  1  0  0  0  0
  3  4  1  0  0  0  0
  3 16  1  0  0  0  0
  5 14  1  0  0  0  0
  6  7  1  0  0  0  0
  7  8  2  0  0  0  0
  7  9  1  0  0  0  0
  8 12  1  0  0  0  0
  9 10  2  0  0  0  0
  9 11  1  0  0  0  0
 10 13  1  0  0  0  0
 10 12  1  0  0  0  0
 11 14  2  0  0  0  0
 13 15  2  0  0  0  0
 14 15  1  0  0  0  0
M  END
>  <CHROM.1>
152.04770478,58.97470601,82.78849123,7.13999599,3.56275433,84.15200571,-1.21438394
-1.35341207,-2.45487142

>  <Name>
ligand

>  <RI>
0

>  <Rbt.Current_Directory>
/home/itssahil/PROJECTS/Mol_Feturizer/Test_systems_manuscript/rnas/5kpy

>  <Rbt.Executable>
rbdock ($Id: //depot/dev/client3/rdock/2013.1/src/exe/rbdock.cxx#4 $)

>  <Rbt.Library>
libRbt.so (2013.1, Build901 2013/11/27)

>  <Rbt.Parameter_File>
/export/apps/rDock/src/rDock_2013.1_src/data/scripts/dock_solv.prm

>  <Rbt.Receptor>
prm/pocket_docking_2.prm

>  <SCORE>
-19.6737

>  <SCORE.INTER>
-19.009

>  <SCORE.INTER.CONST>
1

>  <SCORE.INTER.POLAR>
0

>  <SCORE.INTER.ROT>
3

>  <SCORE.INTER.SOLV>
6.83348

>  <SCORE.INTER.VDW>
-20.5505

>  <SCORE.INTER.norm>
-1.18806

>  <SCORE.INTRA>
-0.664658

>  <SCORE.INTRA.DIHEDRAL>
-0.0164608

>  <SCORE.INTRA.DIHEDRAL.0>
3.89056

>  <SCORE.INTRA.POLAR>
0

>  <SCORE.INTRA.POLAR.0>
0

>  <SCORE.INTRA.REPUL>
0

>  <SCORE.INTRA.REPUL.0>
0

>  <SCORE.INTRA.SOLV>
0.0694453

>  <SCORE.INTRA.SOLV.lig_0>
-20.733

>  <SCORE.INTRA.VDW>
-0.69115

>  <SCORE.INTRA.VDW.0>
-0.828515

>  <SCORE.INTRA.norm>
-0.0415411

>  <SCORE.RESTR>
1.64182e-05

>  <SCORE.RESTR.CAVITY>
1.64182e-05

>  <SCORE.RESTR.norm>
1.02614e-06

>  <SCORE.SYSTEM>
0

>  <SCORE.SYSTEM.CONST>
0

>  <SCORE.SYSTEM.DIHEDRAL>
0

>  <SCORE.SYSTEM.SOLV>
0

>  <SCORE.SYSTEM.norm>
0

>  <SCORE.heavy>
16

>  <SCORE.norm>
-1.2296

>  <RMSD>
1.125

$$$$
ligand
 OpenBabel02271912153D
libRbt.so/2013.1/901 2013/11/27
 16 17  0  0  0  0  0  0  0  0999 V2000
    8.4502    5.3487   83.0471 N   0  0  0  0  0  0  0  0  0  0  0  0
    7.3652    6.0519   83.6431 C   0  0  2  0  0  0  0  0  0  0  0  0
    7.7143    6.5673   85.0114 C   0  0  0  0  0  0  0  0  0  0  0  0
    8.5759    5.9622   85.6946 O   0  0  0  0  0  0  0  0  0  0  0  0
    7.2602    0.3740   81.0847 O   0  0  0  0  0  0  0  0  0  0  0  0
    6.1456    5.1676   83.7453 C   0  0  0  0  0  0  0  0  0  0  0  0
    6.3881    3.9112   84.5474 C   0  0  0  0  0  0  0  0  0  0  0  0
    6.3462    3.8205   85.8808 C   0  0  0  0  0  0  0  0  0  0  0  0
    6.6646    2.6638   83.8990 C   0  0  0  0  0  0  0  0  0  0  0  0
    6.8000    1.7388   84.9701 C   0  0  0  0  0  0  0  0  0  0  0  0
    6.8002    2.2328   82.6080 C   0  0  0  0  0  0  0  0  0  0  0  0
    6.5943    2.5181   86.1291 N   0  0  0  0  0  0  0  0  0  0  0  0
    7.0689    0.4370   84.7865 C   0  0  0  0  0  0  0  0  0  0  0  0
    7.0991    0.8528   82.3915 C   0  0  0  0  0  0  0  0  0  0  0  0
    7.2422   -0.0636   83.4926 C   0  0  0  0  0  0  0  0  0  0  0  0
    7.1368    7.5783   85.4637 O   0  0  0  0  0  0  0  0  0  0  0  0
  2  1  1  1  0  0  0
  2  3  1  0  0  0  0
  2  6  1  0  0  0  0
  3  4  1  0  0  0  0
  3 16  1  0  0  0  0
  5 14  1  0  0  0  0
  6  7  1  0  0  0  0
  7  8  2  0  0  0  0
  7  9  1  0  0  0  0
  8 12  1  0  0  0  0
  9 10  2  0  0  0  0
  9 11  1  0  0  0  0
 10 13  1  0  0  0  0
 10 12  1  0  0  0  0
 11 14  2  0  0  0  0
 13 15  2  0  0  0  0
 14 15  1  0  0  0  0
M  END
>  <CHROM.1>
-27.68396598,58.39574302,82.61827049,7.13467910,3.55310373,84.14779709,-1.20627318
-1.35306135,-2.44832630

>  <Name>
ligand

>  <RI>
0

>  <Rbt.Current_Directory>
/home/itssahil/PROJECTS/Mol_Feturizer/Test_systems_manuscript/rnas/5kpy

>  <Rbt.Executable>
rbdock ($Id: //depot/dev/client3/rdock/2013.1/src/exe/rbdock.cxx#4 $)

>  <Rbt.Library>
libRbt.so (2013.1, Build901 2013/11/27)

>  <Rbt.Parameter_File>
/export/apps/rDock/src/rDock_2013.1_src/data/scripts/dock_solv.prm

>  <Rbt.Receptor>
prm/pocket_docking_2.prm

>  <SCORE>
-19.6652

>  <SCORE.INTER>
-18.9862

>  <SCORE.INTER.CONST>
1

>  <SCORE.INTER.POLAR>
0

>  <SCORE.INTER.ROT>
3

>  <SCORE.INTER.SOLV>
6.88185

>  <SCORE.INTER.VDW>
-20.5514

>  <SCORE.INTER.norm>
-1.18664

>  <SCORE.INTRA>
-0.679003

>  <SCORE.INTRA.DIHEDRAL>
-0.0740067

>  <SCORE.INTRA.DIHEDRAL.0>
3.89056

>  <SCORE.INTRA.POLAR>
0

>  <SCORE.INTRA.POLAR.0>
0

>  <SCORE.INTRA.REPUL>
0

>  <SCORE.INTRA.REPUL.0>
0

>  <SCORE.INTRA.SOLV>
0.0788385

>  <SCORE.INTRA.SOLV.lig_0>
-20.733

>  <SCORE.INTRA.VDW>
-0.681418

>  <SCORE.INTRA.VDW.0>
-0.828515

>  <SCORE.INTRA.norm>
-0.0424377

>  <SCORE.RESTR>
0

>  <SCORE.RESTR.CAVITY>
0

>  <SCORE.RESTR.norm>
0

>  <SCORE.SYSTEM>
0

>  <SCORE.SYSTEM.CONST>
0

>  <SCORE.SYSTEM.DIHEDRAL>
0

>  <SCORE.SYSTEM.SOLV>
0

>  <SCORE.SYSTEM.norm>
0

>  <SCORE.heavy>
16

>  <SCORE.norm>
-1.22908

>  <RMSD>
1.130

$$$$
ligand
 OpenBabel02271912153D
libRbt.so/2013.1/901 2013/11/27
 16 17  0  0  0  0  0  0  0  0999 V2000
    8.4234    5.3729   83.0120 N   0  0  0  0  0  0  0  0  0  0  0  0
    7.3426    6.0609   83.6329 C   0  0  2  0  0  0  0  0  0  0  0  0
    7.7068    6.5565   85.0046 C   0  0  0  0  0  0  0  0  0  0  0  0
    7.1393    7.5797   85.4590 O   0  0  0  0  0  0  0  0  0  0  0  0
    7.2610    0.3751   81.0835 O   0  0  0  0  0  0  0  0  0  0  0  0
    6.1290    5.1687   83.7366 C   0  0  0  0  0  0  0  0  0  0  0  0
    6.3799    3.9153   84.5408 C   0  0  0  0  0  0  0  0  0  0  0  0
    6.3420    3.8272   85.8745 C   0  0  0  0  0  0  0  0  0  0  0  0
    6.6611    2.6679   83.8944 C   0  0  0  0  0  0  0  0  0  0  0  0
    6.8040    1.7460   84.9671 C   0  0  0  0  0  0  0  0  0  0  0  0
    6.7956    2.2348   82.6040 C   0  0  0  0  0  0  0  0  0  0  0  0
    6.5974    2.5267   86.1250 N   0  0  0  0  0  0  0  0  0  0  0  0
    7.0790    0.4451   84.7856 C   0  0  0  0  0  0  0  0  0  0  0  0
    7.1009    0.8559   82.3896 C   0  0  0  0  0  0  0  0  0  0  0  0
    7.2515   -0.0574   83.4924 C   0  0  0  0  0  0  0  0  0  0  0  0
    8.5777    5.9606   85.6727 O   0  0  0  0  0  0  0  0  0  0  0  0
  2  1  1  1  0  0  0
  2  3  1  0  0  0  0
  2  6  1  0  0  0  0
  3  4  1  0  0  0  0
  3 16  1  0  0  0  0
  5 14  1  0  0  0  0
  6  7  1  0  0  0  0
  7  8  2  0  0  0  0
  7  9  1  0  0  0  0
  8 12  1  0  0  0  0
  9 10  2  0  0  0  0
  9 11  1  0  0  0  0
 10 13  1  0  0  0  0
 10 12  1  0  0  0  0
 11 14  2  0  0  0  0
 13 15  2  0  0  0  0
 14 15  1  0  0  0  0
M  END
>  <CHROM.1>
151.70528393,59.63560437,82.44738223,7.13085900,3.55772459,84.13992645,-1.20699930
-1.35787050,-2.45041132

>  <Name>
ligand

>  <RI>
0

>  <Rbt.Current_Directory>
/home/itssahil/PROJECTS/Mol_Feturizer/Test_systems_manuscript/rnas/5kpy

>  <Rbt.Executable>
rbdock ($Id: //depot/dev/client3/rdock/2013.1/src/exe/rbdock.cxx#4 $)

>  <Rbt.Library>
libRbt.so (2013.1, Build901 2013/11/27)

>  <Rbt.Parameter_File>
/export/apps/rDock/src/rDock_2013.1_src/data/scripts/dock_solv.prm

>  <Rbt.Receptor>
prm/pocket_docking_2.prm

>  <SCORE>
-19.6676

>  <SCORE.INTER>
-18.9962

>  <SCORE.INTER.CONST>
1

>  <SCORE.INTER.POLAR>
0

>  <SCORE.INTER.ROT>
3

>  <SCORE.INTER.SOLV>
6.77534

>  <SCORE.INTER.VDW>
-20.5226

>  <SCORE.INTER.norm>
-1.18726

>  <SCORE.INTRA>
-0.671407

>  <SCORE.INTRA.DIHEDRAL>
-0.0218602

>  <SCORE.INTRA.DIHEDRAL.0>
3.89056

>  <SCORE.INTRA.POLAR>
0

>  <SCORE.INTRA.POLAR.0>
0

>  <SCORE.INTRA.REPUL>
0

>  <SCORE.INTRA.REPUL.0>
0

>  <SCORE.INTRA.SOLV>
0.0508904

>  <SCORE.INTRA.SOLV.lig_0>
-20.733

>  <SCORE.INTRA.VDW>
-0.685922

>  <SCORE.INTRA.VDW.0>
-0.828515

>  <SCORE.INTRA.norm>
-0.0419629

>  <SCORE.RESTR>
0

>  <SCORE.RESTR.CAVITY>
0

>  <SCORE.RESTR.norm>
0

>  <SCORE.SYSTEM>
0

>  <SCORE.SYSTEM.CONST>
0

>  <SCORE.SYSTEM.DIHEDRAL>
0

>  <SCORE.SYSTEM.SOLV>
0

>  <SCORE.SYSTEM.norm>
0

>  <SCORE.heavy>
16

>  <SCORE.norm>
-1.22923

>  <RMSD>
1.133

$$$$
ligand
 OpenBabel02271912153D
libRbt.so/2013.1/901 2013/11/27
 16 17  0  0  0  0  0  0  0  0999 V2000
    8.4658    5.3388   83.0188 N   0  0  0  0  0  0  0  0  0  0  0  0
    7.3722    6.0378   83.6040 C   0  0  2  0  0  0  0  0  0  0  0  0
    7.7056    6.5542   84.9758 C   0  0  0  0  0  0  0  0  0  0  0  0
    8.5773    5.9642   85.6594 O   0  0  0  0  0  0  0  0  0  0  0  0
    7.2634    0.3288   81.0787 O   0  0  0  0  0  0  0  0  0  0  0  0
    6.1550    5.1489   83.6937 C   0  0  0  0  0  0  0  0  0  0  0  0
    6.3909    3.8987   84.5076 C   0  0  0  0  0  0  0  0  0  0  0  0
    6.3443    3.8198   85.8416 C   0  0  0  0  0  0  0  0  0  0  0  0
    6.6656    2.6449   83.8710 C   0  0  0  0  0  0  0  0  0  0  0  0
    6.7946    1.7289   84.9506 C   0  0  0  0  0  0  0  0  0  0  0  0
    6.8042    2.2022   82.5843 C   0  0  0  0  0  0  0  0  0  0  0  0
    6.5875    2.5189   86.1020 N   0  0  0  0  0  0  0  0  0  0  0  0
    7.0600    0.4246   84.7792 C   0  0  0  0  0  0  0  0  0  0  0  0
    7.0995    0.8195   82.3808 C   0  0  0  0  0  0  0  0  0  0  0  0
    7.2360   -0.0878   83.4903 C   0  0  0  0  0  0  0  0  0  0  0  0
    7.1055    7.5509   85.4304 O   0  0  0  0  0  0  0  0  0  0  0  0
  2  1  1  1  0  0  0
  2  3  1  0  0  0  0
  2  6  1  0  0  0  0
  3  4  1  0  0  0  0
  3 16  1  0  0  0  0
  5 14  1  0  0  0  0
  6  7  1  0  0  0  0
  7  8  2  0  0  0  0
  7  9  1  0  0  0  0
  8 12  1  0  0  0  0
  9 10  2  0  0  0  0
  9 11  1  0  0  0  0
 10 13  1  0  0  0  0
 10 12  1  0  0  0  0
 11 14  2  0  0  0  0
 13 15  2  0  0  0  0
 14 15  1  0  0  0  0
M  END
>  <CHROM.1>
-26.60785386,58.87146855,81.81839589,7.13298602,3.53617575,84.12091812,-1.21549440
-1.34970655,-2.46214427

>  <Name>
ligand

>  <RI>
0

>  <Rbt.Current_Directory>
/home/itssahil/PROJECTS/Mol_Feturizer/Test_systems_manuscript/rnas/5kpy

>  <Rbt.Executable>
rbdock ($Id: //depot/dev/client3/rdock/2013.1/src/exe/rbdock.cxx#4 $)

>  <Rbt.Library>
libRbt.so (2013.1, Build901 2013/11/27)

>  <Rbt.Parameter_File>
/export/apps/rDock/src/rDock_2013.1_src/data/scripts/dock_solv.prm

>  <Rbt.Receptor>
prm/pocket_docking_2.prm

>  <SCORE>
-19.6779

>  <SCORE.INTER>
-19.0058

>  <SCORE.INTER.CONST>
1

>  <SCORE.INTER.POLAR>
0

>  <SCORE.INTER.ROT>
3

>  <SCORE.INTER.SOLV>
6.91983

>  <SCORE.INTER.VDW>
-20.5772

>  <SCORE.INTER.norm>
-1.18786

>  <SCORE.INTRA>
-0.678057

>  <SCORE.INTRA.DIHEDRAL>
-0.081294

>  <SCORE.INTRA.DIHEDRAL.0>
3.89056

>  <SCORE.INTRA.POLAR>
0

>  <SCORE.INTRA.POLAR.0>
0

>  <SCORE.INTRA.REPUL>
0

>  <SCORE.INTRA.REPUL.0>
0

>  <SCORE.INTRA.SOLV>
0.055867

>  <SCORE.INTRA.SOLV.lig_0>
-20.733

>  <SCORE.INTRA.VDW>
-0.665343

>  <SCORE.INTRA.VDW.0>
-0.828515

>  <SCORE.INTRA.norm>
-0.0423785

>  <SCORE.RESTR>
0.00592474

>  <SCORE.RESTR.CAVITY>
0.00592474

>  <SCORE.RESTR.norm>
0.000370297

>  <SCORE.SYSTEM>
0

>  <SCORE.SYSTEM.CONST>
0

>  <SCORE.SYSTEM.DIHEDRAL>
0

>  <SCORE.SYSTEM.SOLV>
0

>  <SCORE.SYSTEM.norm>
0

>  <SCORE.heavy>
16

>  <SCORE.norm>
-1.22987

>  <RMSD>
1.138

$$$$
ligand
 OpenBabel02271912153D
libRbt.so/2013.1/901 2013/11/27
 16 17  0  0  0  0  0  0  0  0999 V2000
    8.4627    5.3555   83.0118 N   0  0  0  0  0  0  0  0  0  0  0  0
    7.3720    6.0419   83.6171 C   0  0  2  0  0  0  0  0  0  0  0  0
    7.7136    6.5326   84.9963 C   0  0  0  0  0  0  0  0  0  0  0  0
    7.1572    7.5685   85.4353 O   0  0  0  0  0  0  0  0  0  0  0  0
    7.2424    0.3293   81.0741 O   0  0  0  0  0  0  0  0  0  0  0  0
    6.1565    5.1498   83.6977 C   0  0  0  0  0  0  0  0  0  0  0  0
    6.3909    3.8980   84.5095 C   0  0  0  0  0  0  0  0  0  0  0  0
    6.3479    3.8177   85.8435 C   0  0  0  0  0  0  0  0  0  0  0  0
    6.6599    2.6440   83.8707 C   0  0  0  0  0  0  0  0  0  0  0  0
    6.7892    1.7264   84.9489 C   0  0  0  0  0  0  0  0  0  0  0  0
    6.7934    2.2024   82.5831 C   0  0  0  0  0  0  0  0  0  0  0  0
    6.5879    2.5158   86.1018 N   0  0  0  0  0  0  0  0  0  0  0  0
    7.0500    0.4216   84.7753 C   0  0  0  0  0  0  0  0  0  0  0  0
    7.0839    0.8190   82.3772 C   0  0  0  0  0  0  0  0  0  0  0  0
    7.2208   -0.0899   83.4854 C   0  0  0  0  0  0  0  0  0  0  0  0
    8.5554    5.9197   85.6861 O   0  0  0  0  0  0  0  0  0  0  0  0
  2  1  1  1  0  0  0
  2  3  1  0  0  0  0
  2  6  1  0  0  0  0
  3  4  1  0  0  0  0
  3 16  1  0  0  0  0
  5 14  1  0  0  0  0
  6  7  1  0  0  0  0
  7  8  2  0  0  0  0
  7  9  1  0  0  0  0
  8 12  1  0  0  0  0
  9 10  2  0  0  0  0
  9 11  1  0  0  0  0
 10 13  1  0  0  0  0
 10 12  1  0  0  0  0
 11 14  2  0  0  0  0
 13 15  2  0  0  0  0
 14 15  1  0  0  0  0
M  END
>  <CHROM.1>
150.39939518,60.02757871,81.23684043,7.13066041,3.53350222,84.12404257,-1.18793448
-1.35376517,-2.43248159

>  <Name>
ligand

>  <RI>
0

>  <Rbt.Current_Directory>
/home/itssahil/PROJECTS/Mol_Feturizer/Test_systems_manuscript/rnas/5kpy

>  <Rbt.Executable>
rbdock ($Id: //depot/dev/client3/rdock/2013.1/src/exe/rbdock.cxx#4 $)

>  <Rbt.Library>
libRbt.so (2013.1, Build901 2013/11/27)

>  <Rbt.Parameter_File>
/export/apps/rDock/src/rDock_2013.1_src/data/scripts/dock_solv.prm

>  <Rbt.Receptor>
prm/pocket_docking_2.prm

>  <SCORE>
-19.6606

>  <SCORE.INTER>
-18.9909

>  <SCORE.INTER.CONST>
1

>  <SCORE.INTER.POLAR>
0

>  <SCORE.INTER.ROT>
3

>  <SCORE.INTER.SOLV>
6.91583

>  <SCORE.INTER.VDW>
-20.5658

>  <SCORE.INTER.norm>
-1.18693

>  <SCORE.INTRA>
-0.673446

>  <SCORE.INTRA.DIHEDRAL>
-0.0253971

>  <SCORE.INTRA.DIHEDRAL.0>
3.89056

>  <SCORE.INTRA.POLAR>
0

>  <SCORE.INTRA.POLAR.0>
0

>  <SCORE.INTRA.REPUL>
0

>  <SCORE.INTRA.REPUL.0>
0

>  <SCORE.INTRA.SOLV>
0.0207546

>  <SCORE.INTRA.SOLV.lig_0>
-20.733

>  <SCORE.INTRA.VDW>
-0.671125

>  <SCORE.INTRA.VDW.0>
-0.828515

>  <SCORE.INTRA.norm>
-0.0420904

>  <SCORE.RESTR>
0.00366619

>  <SCORE.RESTR.CAVITY>
0.00366619

>  <SCORE.RESTR.norm>
0.000229137

>  <SCORE.SYSTEM>
0

>  <SCORE.SYSTEM.CONST>
0

>  <SCORE.SYSTEM.DIHEDRAL>
0

>  <SCORE.SYSTEM.SOLV>
0

>  <SCORE.SYSTEM.norm>
0

>  <SCORE.heavy>
16

>  <SCORE.norm>
-1.22879

>  <RMSD>
1.139

$$$$
ligand
 OpenBabel02271912153D
libRbt.so/2013.1/901 2013/11/27
 16 17  0  0  0  0  0  0  0  0999 V2000
    8.4309    5.3469   83.0251 N   0  0  0  0  0  0  0  0  0  0  0  0
    7.3515    6.0519   83.6292 C   0  0  2  0  0  0  0  0  0  0  0  0
    7.7136    6.5716   84.9925 C   0  0  0  0  0  0  0  0  0  0  0  0
    8.5794    5.9669   85.6707 O   0  0  0  0  0  0  0  0  0  0  0  0
    7.2454    0.3733   81.0857 O   0  0  0  0  0  0  0  0  0  0  0  0
    6.1331    5.1678   83.7458 C   0  0  0  0  0  0  0  0  0  0  0  0
    6.3839    3.9132   84.5483 C   0  0  0  0  0  0  0  0  0  0  0  0
    6.3501    3.8243   85.8821 C   0  0  0  0  0  0  0  0  0  0  0  0
    6.6600    2.6656   83.9001 C   0  0  0  0  0  0  0  0  0  0  0  0
    6.8044    1.7426   84.9718 C   0  0  0  0  0  0  0  0  0  0  0  0
    6.7893    2.2331   82.6090 C   0  0  0  0  0  0  0  0  0  0  0  0
    6.6034    2.5231   86.1308 N   0  0  0  0  0  0  0  0  0  0  0  0
    7.0758    0.4413   84.7885 C   0  0  0  0  0  0  0  0  0  0  0  0
    7.0908    0.8536   82.3927 C   0  0  0  0  0  0  0  0  0  0  0  0
    7.2429   -0.0608   83.4944 C   0  0  0  0  0  0  0  0  0  0  0  0
    7.1426    7.5859   85.4457 O   0  0  0  0  0  0  0  0  0  0  0  0
  2  1  1  1  0  0  0
  2  3  1  0  0  0  0
  2  6  1  0  0  0  0
  3  4  1  0  0  0  0
  3 16  1  0  0  0  0
  5 14  1  0  0  0  0
  6  7  1  0  0  0  0
  7  8  2  0  0  0  0
  7  9  1  0  0  0  0
  8 12  1  0  0  0  0
  9 10  2  0  0  0  0
  9 11  1  0  0  0  0
 10 13  1  0  0  0  0
 10 12  1  0  0  0  0
 11 14  2  0  0  0  0
 13 15  2  0  0  0  0
 14 15  1  0  0  0  0
M  END
>  <CHROM.1>
-27.85815932,58.33525949,82.91017876,7.13118295,3.55557477,84.14207223,-1.19433476
-1.35854514,-2.43937639

>  <Name>
ligand

>  <RI>
0

>  <Rbt.Current_Directory>
/home/itssahil/PROJECTS/Mol_Feturizer/Test_systems_manuscript/rnas/5kpy

>  <Rbt.Executable>
rbdock ($Id: //depot/dev/client3/rdock/2013.1/src/exe/rbdock.cxx#4 $)

>  <Rbt.Library>
libRbt.so (2013.1, Build901 2013/11/27)

>  <Rbt.Parameter_File>
/export/apps/rDock/src/rDock_2013.1_src/data/scripts/dock_solv.prm

>  <Rbt.Receptor>
prm/pocket_docking_2.prm

>  <SCORE>
-19.6728

>  <SCORE.INTER>
-18.9933

>  <SCORE.INTER.CONST>
1

>  <SCORE.INTER.POLAR>
0

>  <SCORE.INTER.ROT>
3

>  <SCORE.INTER.SOLV>
6.81875

>  <SCORE.INTER.VDW>
-20.5351

>  <SCORE.INTER.norm>
-1.18708

>  <SCORE.INTRA>
-0.679446

>  <SCORE.INTRA.DIHEDRAL>
-0.0726183

>  <SCORE.INTRA.DIHEDRAL.0>
3.89056

>  <SCORE.INTRA.POLAR>
0

>  <SCORE.INTRA.POLAR.0>
0

>  <SCORE.INTRA.REPUL>
0

>  <SCORE.INTRA.REPUL.0>
0

>  <SCORE.INTRA.SOLV>
0.0852799

>  <SCORE.INTRA.SOLV.lig_0>
-20.733

>  <SCORE.INTRA.VDW>
-0.685777

>  <SCORE.INTRA.VDW.0>
-0.828515

>  <SCORE.INTRA.norm>
-0.0424654

>  <SCORE.RESTR>
0

>  <SCORE.RESTR.CAVITY>
0

>  <SCORE.RESTR.norm>
0

>  <SCORE.SYSTEM>
0

>  <SCORE.SYSTEM.CONST>
0

>  <SCORE.SYSTEM.DIHEDRAL>
0

>  <SCORE.SYSTEM.SOLV>
0

>  <SCORE.SYSTEM.norm>
0

>  <SCORE.heavy>
16

>  <SCORE.norm>
-1.22955

>  <RMSD>
1.139

$$$$
ligand
 OpenBabel02271912153D
libRbt.so/2013.1/901 2013/11/27
 16 17  0  0  0  0  0  0  0  0999 V2000
    8.4127    5.3677   82.9756 N   0  0  0  0  0  0  0  0  0  0  0  0
    7.3285    6.0537   83.5930 C   0  0  2  0  0  0  0  0  0  0  0  0
    7.6904    6.5583   84.9621 C   0  0  0  0  0  0  0  0  0  0  0  0
    8.5686    5.9562   85.6266 O   0  0  0  0  0  0  0  0  0  0  0  0
    7.2689    0.3423   81.0927 O   0  0  0  0  0  0  0  0  0  0  0  0
    6.1193    5.1560   83.7016 C   0  0  0  0  0  0  0  0  0  0  0  0
    6.3748    3.9110   84.5173 C   0  0  0  0  0  0  0  0  0  0  0  0
    6.3372    3.8351   85.8518 C   0  0  0  0  0  0  0  0  0  0  0  0
    6.6606    2.6587   83.8824 C   0  0  0  0  0  0  0  0  0  0  0  0
    6.8069    1.7472   84.9636 C   0  0  0  0  0  0  0  0  0  0  0  0
    6.7967    2.2143   82.5961 C   0  0  0  0  0  0  0  0  0  0  0  0
    6.5974    2.5379   86.1142 N   0  0  0  0  0  0  0  0  0  0  0  0
    7.0866    0.4458   84.7941 C   0  0  0  0  0  0  0  0  0  0  0  0
    7.1071    0.8345   82.3944 C   0  0  0  0  0  0  0  0  0  0  0  0
    7.2610   -0.0680   83.5055 C   0  0  0  0  0  0  0  0  0  0  0  0
    7.1071    7.5572   85.4333 O   0  0  0  0  0  0  0  0  0  0  0  0
  2  1  1  1  0  0  0
  2  3  1  0  0  0  0
  2  6  1  0  0  0  0
  3  4  1  0  0  0  0
  3 16  1  0  0  0  0
  5 14  1  0  0  0  0
  6  7  1  0  0  0  0
  7  8  2  0  0  0  0
  7  9  1  0  0  0  0
  8 12  1  0  0  0  0
  9 10  2  0  0  0  0
  9 11  1  0  0  0  0
 10 13  1  0  0  0  0
 10 12  1  0  0  0  0
 11 14  2  0  0  0  0
 13 15  2  0  0  0  0
 14 15  1  0  0  0  0
M  END
>  <CHROM.1>
-27.55984091,59.88318469,82.27786387,7.12611349,3.54921256,84.12240470,-1.22522623
-1.35985056,-2.47487040

>  <Name>
ligand

>  <RI>
0

>  <Rbt.Current_Directory>
/home/itssahil/PROJECTS/Mol_Feturizer/Test_systems_manuscript/rnas/5kpy

>  <Rbt.Executable>
rbdock ($Id: //depot/dev/client3/rdock/2013.1/src/exe/rbdock.cxx#4 $)

>  <Rbt.Library>
libRbt.so (2013.1, Build901 2013/11/27)

>  <Rbt.Parameter_File>
/export/apps/rDock/src/rDock_2013.1_src/data/scripts/dock_solv.prm

>  <Rbt.Receptor>
prm/pocket_docking_2.prm

>  <SCORE>
-19.637

>  <SCORE.INTER>
-18.9468

>  <SCORE.INTER.CONST>
1

>  <SCORE.INTER.POLAR>
0

>  <SCORE.INTER.ROT>
3

>  <SCORE.INTER.SOLV>
6.72545

>  <SCORE.INTER.VDW>
-20.473

>  <SCORE.INTER.norm>
-1.18417

>  <SCORE.INTRA>
-0.692156

>  <SCORE.INTRA.DIHEDRAL>
-0.0874375

>  <SCORE.INTRA.DIHEDRAL.0>
3.89056

>  <SCORE.INTRA.POLAR>
0

>  <SCORE.INTRA.POLAR.0>
0

>  <SCORE.INTRA.REPUL>
0

>  <SCORE.INTRA.REPUL.0>
0

>  <SCORE.INTRA.SOLV>
0.0454213

>  <SCORE.INTRA.SOLV.lig_0>
-20.733

>  <SCORE.INTRA.VDW>
-0.671148

>  <SCORE.INTRA.VDW.0>
-0.828515

>  <SCORE.INTRA.norm>
-0.0432598

>  <SCORE.RESTR>
0.00195803

>  <SCORE.RESTR.CAVITY>
0.00195803

>  <SCORE.RESTR.norm>
0.000122377

>  <SCORE.SYSTEM>
0

>  <SCORE.SYSTEM.CONST>
0

>  <SCORE.SYSTEM.DIHEDRAL>
0

>  <SCORE.SYSTEM.SOLV>
0

>  <SCORE.SYSTEM.norm>
0

>  <SCORE.heavy>
16

>  <SCORE.norm>
-1.22731

>  <RMSD>
1.146

$$$$
ligand
 OpenBabel02271912153D
libRbt.so/2013.1/901 2013/11/27
 16 17  0  0  0  0  0  0  0  0999 V2000
    8.4420    5.3173   83.0034 N   0  0  0  0  0  0  0  0  0  0  0  0
    7.3610    6.0320   83.5929 C   0  0  2  0  0  0  0  0  0  0  0  0
    7.7139    6.5600   84.9555 C   0  0  0  0  0  0  0  0  0  0  0  0
    8.5774    5.9612   85.6418 O   0  0  0  0  0  0  0  0  0  0  0  0
    7.3052    0.3443   81.0988 O   0  0  0  0  0  0  0  0  0  0  0  0
    6.1372    5.1548   83.7054 C   0  0  0  0  0  0  0  0  0  0  0  0
    6.3742    3.9059   84.5209 C   0  0  0  0  0  0  0  0  0  0  0  0
    6.3154    3.8258   85.8543 C   0  0  0  0  0  0  0  0  0  0  0  0
    6.6640    2.6544   83.8863 C   0  0  0  0  0  0  0  0  0  0  0  0
    6.7892    1.7388   84.9667 C   0  0  0  0  0  0  0  0  0  0  0  0
    6.8181    2.2135   82.6008 C   0  0  0  0  0  0  0  0  0  0  0  0
    6.5654    2.5266   86.1165 N   0  0  0  0  0  0  0  0  0  0  0  0
    7.0656    0.4365   84.7972 C   0  0  0  0  0  0  0  0  0  0  0  0
    7.1253    0.8330   82.3995 C   0  0  0  0  0  0  0  0  0  0  0  0
    7.2577   -0.0738   83.5098 C   0  0  0  0  0  0  0  0  0  0  0  0
    7.1377    7.5752   85.3999 O   0  0  0  0  0  0  0  0  0  0  0  0
  2  1  1  1  0  0  0
  2  3  1  0  0  0  0
  2  6  1  0  0  0  0
  3  4  1  0  0  0  0
  3 16  1  0  0  0  0
  5 14  1  0  0  0  0
  6  7  1  0  0  0  0
  7  8  2  0  0  0  0
  7  9  1  0  0  0  0
  8 12  1  0  0  0  0
  9 10  2  0  0  0  0
  9 11  1  0  0  0  0
 10 13  1  0  0  0  0
 10 12  1  0  0  0  0
 11 14  2  0  0  0  0
 13 15  2  0  0  0  0
 14 15  1  0  0  0  0
M  END
>  <CHROM.1>
-27.37905089,58.41576093,83.56315166,7.13499159,3.54316114,84.12507623,-1.24363212
-1.34141710,-2.49637303

>  <Name>
ligand

>  <RI>
0

>  <Rbt.Current_Directory>
/home/itssahil/PROJECTS/Mol_Feturizer/Test_systems_manuscript/rnas/5kpy

>  <Rbt.Executable>
rbdock ($Id: //depot/dev/client3/rdock/2013.1/src/exe/rbdock.cxx#4 $)

>  <Rbt.Library>
libRbt.so (2013.1, Build901 2013/11/27)

>  <Rbt.Parameter_File>
/export/apps/rDock/src/rDock_2013.1_src/data/scripts/dock_solv.prm

>  <Rbt.Receptor>
prm/pocket_docking_2.prm

>  <SCORE>
-19.656

>  <SCORE.INTER>
-18.9782

>  <SCORE.INTER.CONST>
1

>  <SCORE.INTER.POLAR>
0

>  <SCORE.INTER.ROT>
3

>  <SCORE.INTER.SOLV>
6.82668

>  <SCORE.INTER.VDW>
-20.5277

>  <SCORE.INTER.norm>
-1.18614

>  <SCORE.INTRA>
-0.679012

>  <SCORE.INTRA.DIHEDRAL>
-0.0725844

>  <SCORE.INTRA.DIHEDRAL.0>
3.89056

>  <SCORE.INTRA.POLAR>
0

>  <SCORE.INTRA.POLAR.0>
0

>  <SCORE.INTRA.REPUL>
0

>  <SCORE.INTRA.REPUL.0>
0

>  <SCORE.INTRA.SOLV>
0.0962246

>  <SCORE.INTRA.SOLV.lig_0>
-20.733

>  <SCORE.INTRA.VDW>
-0.690832

>  <SCORE.INTRA.VDW.0>
-0.828515

>  <SCORE.INTRA.norm>
-0.0424383

>  <SCORE.RESTR>
0.00120182

>  <SCORE.RESTR.CAVITY>
0.00120182

>  <SCORE.RESTR.norm>
7.51137e-05

>  <SCORE.SYSTEM>
0

>  <SCORE.SYSTEM.CONST>
0

>  <SCORE.SYSTEM.DIHEDRAL>
0

>  <SCORE.SYSTEM.SOLV>
0

>  <SCORE.SYSTEM.norm>
0

>  <SCORE.heavy>
16

>  <SCORE.norm>
-1.2285

>  <RMSD>
1.149

$$$$
ligand
 OpenBabel02271912153D
libRbt.so/2013.1/901 2013/11/27
 16 17  0  0  0  0  0  0  0  0999 V2000
    5.9979    7.1003   84.6746 N   0  0  0  0  0  0  0  0  0  0  0  0
    6.2578    5.7761   85.1283 C   0  0  2  0  0  0  0  0  0  0  0  0
    7.4148    5.7282   86.0869 C   0  0  0  0  0  0  0  0  0  0  0  0
    8.5679    5.9996   85.6724 O   0  0  0  0  0  0  0  0  0  0  0  0
    7.0731    0.9283   80.0174 O   0  0  0  0  0  0  0  0  0  0  0  0
    6.5431    4.8577   83.9643 C   0  0  0  0  0  0  0  0  0  0  0  0
    6.6876    3.4104   84.3709 C   0  0  0  0  0  0  0  0  0  0  0  0
    6.6857    2.9523   85.6271 C   0  0  0  0  0  0  0  0  0  0  0  0
    6.8137    2.3767   83.3868 C   0  0  0  0  0  0  0  0  0  0  0  0
    6.8949    1.1798   84.1497 C   0  0  0  0  0  0  0  0  0  0  0  0
    6.8580    2.3161   82.0211 C   0  0  0  0  0  0  0  0  0  0  0  0
    6.8110    1.6164   85.4895 N   0  0  0  0  0  0  0  0  0  0  0  0
    7.0249   -0.0361   83.5967 C   0  0  0  0  0  0  0  0  0  0  0  0
    7.0089    1.0323   81.4131 C   0  0  0  0  0  0  0  0  0  0  0  0
    7.0996   -0.1656   82.2067 C   0  0  0  0  0  0  0  0  0  0  0  0
    7.2250    5.4048   87.2784 O   0  0  0  0  0  0  0  0  0  0  0  0
  2  1  1  6  0  0  0
  2  3  1  0  0  0  0
  2  6  1  0  0  0  0
  3  4  1  0  0  0  0
  3 16  1  0  0  0  0
  5 14  1  0  0  0  0
  6  7  1  0  0  0  0
  7  8  2  0  0  0  0
  7  9  1  0  0  0  0
  8 12  1  0  0  0  0
  9 10  2  0  0  0  0
  9 11  1  0  0  0  0
 10 13  1  0  0  0  0
 10 12  1  0  0  0  0
 11 14  2  0  0  0  0
 13 15  2  0  0  0  0
 14 15  1  0  0  0  0
M  END
>  <CHROM.1>
-66.58374929,-174.12417901,-5.48135661,6.95715843,3.26053289,84.10543928
1.41662362,-1.47890349,0.49680651

>  <Name>
ligand

>  <RI>
0

>  <Rbt.Current_Directory>
/home/itssahil/PROJECTS/Mol_Feturizer/Test_systems_manuscript/rnas/5kpy

>  <Rbt.Executable>
rbdock ($Id: //depot/dev/client3/rdock/2013.1/src/exe/rbdock.cxx#4 $)

>  <Rbt.Library>
libRbt.so (2013.1, Build901 2013/11/27)

>  <Rbt.Parameter_File>
/export/apps/rDock/src/rDock_2013.1_src/data/scripts/dock_solv.prm

>  <Rbt.Receptor>
prm/pocket_docking_2.prm

>  <SCORE>
-18.4293

>  <SCORE.INTER>
-18.3808

>  <SCORE.INTER.CONST>
1

>  <SCORE.INTER.POLAR>
0

>  <SCORE.INTER.ROT>
3

>  <SCORE.INTER.SOLV>
5.39369

>  <SCORE.INTER.VDW>
-19.6518

>  <SCORE.INTER.norm>
-1.1488

>  <SCORE.INTRA>
-0.0506502

>  <SCORE.INTRA.DIHEDRAL>
0.0313673

>  <SCORE.INTRA.DIHEDRAL.0>
3.89056

>  <SCORE.INTRA.POLAR>
0

>  <SCORE.INTRA.POLAR.0>
0

>  <SCORE.INTRA.REPUL>
0

>  <SCORE.INTRA.REPUL.0>
0

>  <SCORE.INTRA.SOLV>
-1.20236

>  <SCORE.INTRA.SOLV.lig_0>
-20.733

>  <SCORE.INTRA.VDW>
0.534846

>  <SCORE.INTRA.VDW.0>
-0.828515

>  <SCORE.INTRA.norm>
-0.00316564

>  <SCORE.RESTR>
0.00217831

>  <SCORE.RESTR.CAVITY>
0.00217831

>  <SCORE.RESTR.norm>
0.000136145

>  <SCORE.SYSTEM>
0

>  <SCORE.SYSTEM.CONST>
0

>  <SCORE.SYSTEM.DIHEDRAL>
0

>  <SCORE.SYSTEM.SOLV>
0

>  <SCORE.SYSTEM.norm>
0

>  <SCORE.heavy>
16

>  <SCORE.norm>
-1.15183

>  <RMSD>
1.153

$$$$
ligand
 OpenBabel02271912153D
libRbt.so/2013.1/901 2013/11/27
 16 17  0  0  0  0  0  0  0  0999 V2000
    8.4286    5.3405   82.9808 N   0  0  0  0  0  0  0  0  0  0  0  0
    7.3488    6.0434   83.5866 C   0  0  2  0  0  0  0  0  0  0  0  0
    7.7112    6.5619   84.9502 C   0  0  0  0  0  0  0  0  0  0  0  0
    8.5780    5.9572   85.6272 O   0  0  0  0  0  0  0  0  0  0  0  0
    7.2308    0.3329   81.0926 O   0  0  0  0  0  0  0  0  0  0  0  0
    6.1316    5.1576   83.7029 C   0  0  0  0  0  0  0  0  0  0  0  0
    6.3797    3.9109   84.5184 C   0  0  0  0  0  0  0  0  0  0  0  0
    6.3464    3.8361   85.8531 C   0  0  0  0  0  0  0  0  0  0  0  0
    6.6524    2.6559   83.8832 C   0  0  0  0  0  0  0  0  0  0  0  0
    6.7951    1.7439   84.9644 C   0  0  0  0  0  0  0  0  0  0  0  0
    6.7800    2.2096   82.5966 C   0  0  0  0  0  0  0  0  0  0  0  0
    6.5966    2.5369   86.1153 N   0  0  0  0  0  0  0  0  0  0  0  0
    7.0633    0.4400   84.7946 C   0  0  0  0  0  0  0  0  0  0  0  0
    7.0780    0.8272   82.3946 C   0  0  0  0  0  0  0  0  0  0  0  0
    7.2285   -0.0760   83.5057 C   0  0  0  0  0  0  0  0  0  0  0  0
    7.1395    7.5751   85.4049 O   0  0  0  0  0  0  0  0  0  0  0  0
  2  1  1  1  0  0  0
  2  3  1  0  0  0  0
  2  6  1  0  0  0  0
  3  4  1  0  0  0  0
  3 16  1  0  0  0  0
  5 14  1  0  0  0  0
  6  7  1  0  0  0  0
  7  8  2  0  0  0  0
  7  9  1  0  0  0  0
  8 12  1  0  0  0  0
  9 10  2  0  0  0  0
  9 11  1  0  0  0  0
 10 13  1  0  0  0  0
 10 12  1  0  0  0  0
 11 14  2  0  0  0  0
 13 15  2  0  0  0  0
 14 15  1  0  0  0  0
M  END
>  <CHROM.1>
-27.88002840,59.06314512,82.41095196,7.12453600,3.54597775,84.12002436,-1.18606793
-1.35833515,-2.43885332

>  <Name>
ligand

>  <RI>
0

>  <Rbt.Current_Directory>
/home/itssahil/PROJECTS/Mol_Feturizer/Test_systems_manuscript/rnas/5kpy

>  <Rbt.Executable>
rbdock ($Id: //depot/dev/client3/rdock/2013.1/src/exe/rbdock.cxx#4 $)

>  <Rbt.Library>
libRbt.so (2013.1, Build901 2013/11/27)

>  <Rbt.Parameter_File>
/export/apps/rDock/src/rDock_2013.1_src/data/scripts/dock_solv.prm

>  <Rbt.Receptor>
prm/pocket_docking_2.prm

>  <SCORE>
-19.6748

>  <SCORE.INTER>
-18.9924

>  <SCORE.INTER.CONST>
1

>  <SCORE.INTER.POLAR>
0

>  <SCORE.INTER.ROT>
3

>  <SCORE.INTER.SOLV>
6.7892

>  <SCORE.INTER.VDW>
-20.5247

>  <SCORE.INTER.norm>
-1.18703

>  <SCORE.INTRA>
-0.687269

>  <SCORE.INTRA.DIHEDRAL>
-0.0823553

>  <SCORE.INTRA.DIHEDRAL.0>
3.89056

>  <SCORE.INTRA.POLAR>
0

>  <SCORE.INTRA.POLAR.0>
0

>  <SCORE.INTRA.REPUL>
0

>  <SCORE.INTRA.REPUL.0>
0

>  <SCORE.INTRA.SOLV>
0.0628124

>  <SCORE.INTRA.SOLV.lig_0>
-20.733

>  <SCORE.INTRA.VDW>
-0.677497

>  <SCORE.INTRA.VDW.0>
-0.828515

>  <SCORE.INTRA.norm>
-0.0429543

>  <SCORE.RESTR>
0.00492001

>  <SCORE.RESTR.CAVITY>
0.00492001

>  <SCORE.RESTR.norm>
0.000307501

>  <SCORE.SYSTEM>
0

>  <SCORE.SYSTEM.CONST>
0

>  <SCORE.SYSTEM.DIHEDRAL>
0

>  <SCORE.SYSTEM.SOLV>
0

>  <SCORE.SYSTEM.norm>
0

>  <SCORE.heavy>
16

>  <SCORE.norm>
-1.22967

>  <RMSD>
1.158

$$$$
ligand
 OpenBabel02271912153D
libRbt.so/2013.1/901 2013/11/27
 16 17  0  0  0  0  0  0  0  0999 V2000
    8.4190    5.3208   82.9594 N   0  0  0  0  0  0  0  0  0  0  0  0
    7.3381    6.0284   83.5577 C   0  0  2  0  0  0  0  0  0  0  0  0
    7.6968    6.5541   84.9196 C   0  0  0  0  0  0  0  0  0  0  0  0
    7.1013    7.5655   85.3643 O   0  0  0  0  0  0  0  0  0  0  0  0
    7.2914    0.3211   81.0948 O   0  0  0  0  0  0  0  0  0  0  0  0
    6.1195    5.1448   83.6751 C   0  0  0  0  0  0  0  0  0  0  0  0
    6.3636    3.9020   84.4976 C   0  0  0  0  0  0  0  0  0  0  0  0
    6.3105    3.8304   85.8318 C   0  0  0  0  0  0  0  0  0  0  0  0
    6.6546    2.6473   83.8700 C   0  0  0  0  0  0  0  0  0  0  0  0
    6.7871    1.7390   84.9557 C   0  0  0  0  0  0  0  0  0  0  0  0
    6.8049    2.1985   82.5867 C   0  0  0  0  0  0  0  0  0  0  0  0
    6.5655    2.5336   86.1013 N   0  0  0  0  0  0  0  0  0  0  0  0
    7.0667    0.4365   84.7935 C   0  0  0  0  0  0  0  0  0  0  0  0
    7.1154    0.8177   82.3930 C   0  0  0  0  0  0  0  0  0  0  0  0
    7.2551   -0.0816   83.5087 C   0  0  0  0  0  0  0  0  0  0  0  0
    8.5908    5.9947   85.5889 O   0  0  0  0  0  0  0  0  0  0  0  0
  2  1  1  1  0  0  0
  2  3  1  0  0  0  0
  2  6  1  0  0  0  0
  3  4  1  0  0  0  0
  3 16  1  0  0  0  0
  5 14  1  0  0  0  0
  6  7  1  0  0  0  0
  7  8  2  0  0  0  0
  7  9  1  0  0  0  0
  8 12  1  0  0  0  0
  9 10  2  0  0  0  0
  9 11  1  0  0  0  0
 10 13  1  0  0  0  0
 10 12  1  0  0  0  0
 11 14  2  0  0  0  0
 13 15  2  0  0  0  0
 14 15  1  0  0  0  0
M  END
>  <CHROM.1>
153.96800948,59.02620458,83.27461405,7.12418309,3.54015270,84.10230425,-1.24420047
-1.34502884,-2.50258568

>  <Name>
ligand

>  <RI>
0

>  <Rbt.Current_Directory>
/home/itssahil/PROJECTS/Mol_Feturizer/Test_systems_manuscript/rnas/5kpy

>  <Rbt.Executable>
rbdock ($Id: //depot/dev/client3/rdock/2013.1/src/exe/rbdock.cxx#4 $)

>  <Rbt.Library>
libRbt.so (2013.1, Build901 2013/11/27)

>  <Rbt.Parameter_File>
/export/apps/rDock/src/rDock_2013.1_src/data/scripts/dock_solv.prm

>  <Rbt.Receptor>
prm/pocket_docking_2.prm

>  <SCORE>
-19.6266

>  <SCORE.INTER>
-18.9713

>  <SCORE.INTER.CONST>
1

>  <SCORE.INTER.POLAR>
0

>  <SCORE.INTER.ROT>
3

>  <SCORE.INTER.SOLV>
6.74658

>  <SCORE.INTER.VDW>
-20.4964

>  <SCORE.INTER.norm>
-1.18571

>  <SCORE.INTRA>
-0.655255

>  <SCORE.INTRA.DIHEDRAL>
-0.0166085

>  <SCORE.INTRA.DIHEDRAL.0>
3.89056

>  <SCORE.INTRA.POLAR>
0

>  <SCORE.INTRA.POLAR.0>
0

>  <SCORE.INTRA.REPUL>
0

>  <SCORE.INTRA.REPUL.0>
0

>  <SCORE.INTRA.SOLV>
0.078113

>  <SCORE.INTRA.SOLV.lig_0>
-20.733

>  <SCORE.INTRA.VDW>
-0.686007

>  <SCORE.INTRA.VDW.0>
-0.828515

>  <SCORE.INTRA.norm>
-0.0409534

>  <SCORE.RESTR>
0

>  <SCORE.RESTR.CAVITY>
0

>  <SCORE.RESTR.norm>
0

>  <SCORE.SYSTEM>
0

>  <SCORE.SYSTEM.CONST>
0

>  <SCORE.SYSTEM.DIHEDRAL>
0

>  <SCORE.SYSTEM.SOLV>
0

>  <SCORE.SYSTEM.norm>
0

>  <SCORE.heavy>
16

>  <SCORE.norm>
-1.22666

>  <RMSD>
1.160

$$$$
ligand
 OpenBabel02271912153D
libRbt.so/2013.1/901 2013/11/27
 16 17  0  0  0  0  0  0  0  0999 V2000
    8.3387    5.2051   83.0078 N   0  0  0  0  0  0  0  0  0  0  0  0
    7.3834    5.9455   83.7602 C   0  0  2  0  0  0  0  0  0  0  0  0
    7.9442    6.4133   85.0741 C   0  0  0  0  0  0  0  0  0  0  0  0
    9.0025    5.8975   85.5091 O   0  0  0  0  0  0  0  0  0  0  0  0
    7.2328    0.4740   81.0930 O   0  0  0  0  0  0  0  0  0  0  0  0
    6.1472    5.1177   84.0182 C   0  0  0  0  0  0  0  0  0  0  0  0
    6.4371    3.8289   84.7500 C   0  0  0  0  0  0  0  0  0  0  0  0
    6.4454    3.6746   86.0782 C   0  0  0  0  0  0  0  0  0  0  0  0
    6.7077    2.6182   84.0332 C   0  0  0  0  0  0  0  0  0  0  0  0
    6.8957    1.6459   85.0533 C   0  0  0  0  0  0  0  0  0  0  0  0
    6.8021    2.2510   82.7191 C   0  0  0  0  0  0  0  0  0  0  0  0
    6.7213    2.3661   86.2549 N   0  0  0  0  0  0  0  0  0  0  0  0
    7.1764    0.3587   84.7981 C   0  0  0  0  0  0  0  0  0  0  0  0
    7.1129    0.8878   82.4262 C   0  0  0  0  0  0  0  0  0  0  0  0
    7.3094   -0.0773   83.4764 C   0  0  0  0  0  0  0  0  0  0  0  0
    7.3489    7.2952   85.7283 O   0  0  0  0  0  0  0  0  0  0  0  0
  2  1  1  1  0  0  0
  2  3  1  0  0  0  0
  2  6  1  0  0  0  0
  3  4  1  0  0  0  0
  3 16  1  0  0  0  0
  5 14  1  0  0  0  0
  6  7  1  0  0  0  0
  7  8  2  0  0  0  0
  7  9  1  0  0  0  0
  8 12  1  0  0  0  0
  9 10  2  0  0  0  0
  9 11  1  0  0  0  0
 10 13  1  0  0  0  0
 10 12  1  0  0  0  0
 11 14  2  0  0  0  0
 13 15  2  0  0  0  0
 14 15  1  0  0  0  0
M  END
>  <CHROM.1>
-15.57447464,57.96272817,89.94014215,7.22349528,3.47301689,84.23222101,-1.09260488
-1.34383010,-2.31849534

>  <Name>
ligand

>  <RI>
0

>  <Rbt.Current_Directory>
/home/itssahil/PROJECTS/Mol_Feturizer/Test_systems_manuscript/rnas/5kpy

>  <Rbt.Executable>
rbdock ($Id: //depot/dev/client3/rdock/2013.1/src/exe/rbdock.cxx#4 $)

>  <Rbt.Library>
libRbt.so (2013.1, Build901 2013/11/27)

>  <Rbt.Parameter_File>
/export/apps/rDock/src/rDock_2013.1_src/data/scripts/dock_solv.prm

>  <Rbt.Receptor>
prm/pocket_docking_6.prm

>  <SCORE>
-20.4741

>  <SCORE.INTER>
-19.9247

>  <SCORE.INTER.CONST>
1

>  <SCORE.INTER.POLAR>
0

>  <SCORE.INTER.ROT>
3

>  <SCORE.INTER.SOLV>
6.82533

>  <SCORE.INTER.VDW>
-21.1583

>  <SCORE.INTER.norm>
-1.2453

>  <SCORE.INTRA>
-0.549365

>  <SCORE.INTRA.DIHEDRAL>
-0.0509604

>  <SCORE.INTRA.DIHEDRAL.0>
3.89056

>  <SCORE.INTRA.POLAR>
0

>  <SCORE.INTRA.POLAR.0>
0

>  <SCORE.INTRA.REPUL>
0

>  <SCORE.INTRA.REPUL.0>
0

>  <SCORE.INTRA.SOLV>
0.228021

>  <SCORE.INTRA.SOLV.lig_0>
-20.733

>  <SCORE.INTRA.VDW>
-0.637895

>  <SCORE.INTRA.VDW.0>
-0.828515

>  <SCORE.INTRA.norm>
-0.0343353

>  <SCORE.RESTR>
0

>  <SCORE.RESTR.CAVITY>
0

>  <SCORE.RESTR.norm>
0

>  <SCORE.SYSTEM>
0

>  <SCORE.SYSTEM.CONST>
0

>  <SCORE.SYSTEM.DIHEDRAL>
0

>  <SCORE.SYSTEM.SOLV>
0

>  <SCORE.SYSTEM.norm>
0

>  <SCORE.heavy>
16

>  <SCORE.norm>
-1.27963

>  <RMSD>
1.160

$$$$
ligand
 OpenBabel02271912153D
libRbt.so/2013.1/901 2013/11/27
 16 17  0  0  0  0  0  0  0  0999 V2000
    8.3716    5.1195   83.0061 N   0  0  0  0  0  0  0  0  0  0  0  0
    7.4106    5.8827   83.7279 C   0  0  2  0  0  0  0  0  0  0  0  0
    7.9501    6.3616   85.0468 C   0  0  0  0  0  0  0  0  0  0  0  0
    9.0135    5.8657   85.4923 O   0  0  0  0  0  0  0  0  0  0  0  0
    7.2509    0.4122   81.0785 O   0  0  0  0  0  0  0  0  0  0  0  0
    6.1585    5.0748   83.9710 C   0  0  0  0  0  0  0  0  0  0  0  0
    6.4182    3.7844   84.7114 C   0  0  0  0  0  0  0  0  0  0  0  0
    6.3972    3.6330   86.0398 C   0  0  0  0  0  0  0  0  0  0  0  0
    6.6896    2.5690   84.0028 C   0  0  0  0  0  0  0  0  0  0  0  0
    6.8452    1.5970   85.0285 C   0  0  0  0  0  0  0  0  0  0  0  0
    6.8071    2.1977   82.6916 C   0  0  0  0  0  0  0  0  0  0  0  0
    6.6543    2.3219   86.2248 N   0  0  0  0  0  0  0  0  0  0  0  0
    7.1164    0.3061   84.7818 C   0  0  0  0  0  0  0  0  0  0  0  0
    7.1081    0.8304   82.4080 C   0  0  0  0  0  0  0  0  0  0  0  0
    7.2717   -0.1344   83.4640 C   0  0  0  0  0  0  0  0  0  0  0  0
    7.3322    7.2326   85.6946 O   0  0  0  0  0  0  0  0  0  0  0  0
  2  1  1  1  0  0  0
  2  3  1  0  0  0  0
  2  6  1  0  0  0  0
  3  4  1  0  0  0  0
  3 16  1  0  0  0  0
  5 14  1  0  0  0  0
  6  7  1  0  0  0  0
  7  8  2  0  0  0  0
  7  9  1  0  0  0  0
  8 12  1  0  0  0  0
  9 10  2  0  0  0  0
  9 11  1  0  0  0  0
 10 13  1  0  0  0  0
 10 12  1  0  0  0  0
 11 14  2  0  0  0  0
 13 15  2  0  0  0  0
 14 15  1  0  0  0  0
M  END
>  <CHROM.1>
-13.49953513,57.24497435,90.37735225,7.21168087,3.41988326,84.20675452,-1.12808057
-1.31663892,-2.35781790

>  <Name>
ligand

>  <RI>
0

>  <Rbt.Current_Directory>
/home/itssahil/PROJECTS/Mol_Feturizer/Test_systems_manuscript/rnas/5kpy

>  <Rbt.Executable>
rbdock ($Id: //depot/dev/client3/rdock/2013.1/src/exe/rbdock.cxx#4 $)

>  <Rbt.Library>
libRbt.so (2013.1, Build901 2013/11/27)

>  <Rbt.Parameter_File>
/export/apps/rDock/src/rDock_2013.1_src/data/scripts/dock_solv.prm

>  <Rbt.Receptor>
prm/pocket_docking_7.prm

>  <SCORE>
-20.4343

>  <SCORE.INTER>
-19.9329

>  <SCORE.INTER.CONST>
1

>  <SCORE.INTER.POLAR>
0

>  <SCORE.INTER.ROT>
3

>  <SCORE.INTER.SOLV>
6.98398

>  <SCORE.INTER.VDW>
-21.2166

>  <SCORE.INTER.norm>
-1.24581

>  <SCORE.INTRA>
-0.501345

>  <SCORE.INTRA.DIHEDRAL>
-0.0334541

>  <SCORE.INTRA.DIHEDRAL.0>
3.89056

>  <SCORE.INTRA.POLAR>
0

>  <SCORE.INTRA.POLAR.0>
0

>  <SCORE.INTRA.REPUL>
0

>  <SCORE.INTRA.REPUL.0>
0

>  <SCORE.INTRA.SOLV>
0.249609

>  <SCORE.INTRA.SOLV.lig_0>
-20.733

>  <SCORE.INTRA.VDW>
-0.609423

>  <SCORE.INTRA.VDW.0>
-0.828515

>  <SCORE.INTRA.norm>
-0.0313341

>  <SCORE.RESTR>
0

>  <SCORE.RESTR.CAVITY>
0

>  <SCORE.RESTR.norm>
0

>  <SCORE.SYSTEM>
0

>  <SCORE.SYSTEM.CONST>
0

>  <SCORE.SYSTEM.DIHEDRAL>
0

>  <SCORE.SYSTEM.SOLV>
0

>  <SCORE.SYSTEM.norm>
0

>  <SCORE.heavy>
16

>  <SCORE.norm>
-1.27714

>  <RMSD>
1.165

$$$$
ligand
 OpenBabel02271912153D
libRbt.so/2013.1/901 2013/11/27
 16 17  0  0  0  0  0  0  0  0999 V2000
    8.4520    5.2641   82.9499 N   0  0  0  0  0  0  0  0  0  0  0  0
    7.3672    5.9952   83.5117 C   0  0  2  0  0  0  0  0  0  0  0  0
    7.7056    6.5482   84.8680 C   0  0  0  0  0  0  0  0  0  0  0  0
    8.5871    5.9827   85.5597 O   0  0  0  0  0  0  0  0  0  0  0  0
    7.3696    0.2789   81.1182 O   0  0  0  0  0  0  0  0  0  0  0  0
    6.1379    5.1260   83.6259 C   0  0  0  0  0  0  0  0  0  0  0  0
    6.3598    3.8902   84.4651 C   0  0  0  0  0  0  0  0  0  0  0  0
    6.2729    3.8302   85.7981 C   0  0  0  0  0  0  0  0  0  0  0  0
    6.6653    2.6298   83.8560 C   0  0  0  0  0  0  0  0  0  0  0  0
    6.7692    1.7309   84.9526 C   0  0  0  0  0  0  0  0  0  0  0  0
    6.8474    2.1697   82.5809 C   0  0  0  0  0  0  0  0  0  0  0  0
    6.5197    2.5357   86.0853 N   0  0  0  0  0  0  0  0  0  0  0  0
    7.0515    0.4269   84.8088 C   0  0  0  0  0  0  0  0  0  0  0  0
    7.1613    0.7870   82.4071 C   0  0  0  0  0  0  0  0  0  0  0  0
    7.2717   -0.1026   83.5338 C   0  0  0  0  0  0  0  0  0  0  0  0
    7.1000    7.5507   85.3021 O   0  0  0  0  0  0  0  0  0  0  0  0
  2  1  1  1  0  0  0
  2  3  1  0  0  0  0
  2  6  1  0  0  0  0
  3  4  1  0  0  0  0
  3 16  1  0  0  0  0
  5 14  1  0  0  0  0
  6  7  1  0  0  0  0
  7  8  2  0  0  0  0
  7  9  1  0  0  0  0
  8 12  1  0  0  0  0
  9 10  2  0  0  0  0
  9 11  1  0  0  0  0
 10 13  1  0  0  0  0
 10 12  1  0  0  0  0
 11 14  2  0  0  0  0
 13 15  2  0  0  0  0
 14 15  1  0  0  0  0
M  END
>  <CHROM.1>
-25.20582082,58.24149892,84.28655938,7.13473265,3.52040862,84.08445030,-1.29625162
-1.31999197,-2.56516753

>  <Name>
ligand

>  <RI>
0

>  <Rbt.Current_Directory>
/home/itssahil/PROJECTS/Mol_Feturizer/Test_systems_manuscript/rnas/5kpy

>  <Rbt.Executable>
rbdock ($Id: //depot/dev/client3/rdock/2013.1/src/exe/rbdock.cxx#4 $)

>  <Rbt.Library>
libRbt.so (2013.1, Build901 2013/11/27)

>  <Rbt.Parameter_File>
/export/apps/rDock/src/rDock_2013.1_src/data/scripts/dock_solv.prm

>  <Rbt.Receptor>
prm/pocket_docking_2.prm

>  <SCORE>
-19.6084

>  <SCORE.INTER>
-18.9482

>  <SCORE.INTER.CONST>
1

>  <SCORE.INTER.POLAR>
0

>  <SCORE.INTER.ROT>
3

>  <SCORE.INTER.SOLV>
6.83187

>  <SCORE.INTER.VDW>
-20.5094

>  <SCORE.INTER.norm>
-1.18426

>  <SCORE.INTRA>
-0.662449

>  <SCORE.INTRA.DIHEDRAL>
-0.0681338

>  <SCORE.INTRA.DIHEDRAL.0>
3.89056

>  <SCORE.INTRA.POLAR>
0

>  <SCORE.INTRA.POLAR.0>
0

>  <SCORE.INTRA.REPUL>
0

>  <SCORE.INTRA.REPUL.0>
0

>  <SCORE.INTRA.SOLV>
0.113828

>  <SCORE.INTRA.SOLV.lig_0>
-20.733

>  <SCORE.INTRA.VDW>
-0.685296

>  <SCORE.INTRA.VDW.0>
-0.828515

>  <SCORE.INTRA.norm>
-0.041403

>  <SCORE.RESTR>
0.00222386

>  <SCORE.RESTR.CAVITY>
0.00222386

>  <SCORE.RESTR.norm>
0.000138991

>  <SCORE.SYSTEM>
0

>  <SCORE.SYSTEM.CONST>
0

>  <SCORE.SYSTEM.DIHEDRAL>
0

>  <SCORE.SYSTEM.SOLV>
0

>  <SCORE.SYSTEM.norm>
0

>  <SCORE.heavy>
16

>  <SCORE.norm>
-1.22553

>  <RMSD>
1.177

$$$$
ligand
 OpenBabel02271912153D
libRbt.so/2013.1/901 2013/11/27
 16 17  0  0  0  0  0  0  0  0999 V2000
    8.2199    5.0618   82.8827 N   0  0  0  0  0  0  0  0  0  0  0  0
    7.3421    5.9125   83.6126 C   0  0  2  0  0  0  0  0  0  0  0  0
    7.9811    6.4321   84.8702 C   0  0  0  0  0  0  0  0  0  0  0  0
    7.3882    7.3100   85.5433 O   0  0  0  0  0  0  0  0  0  0  0  0
    7.3976    0.5662   81.1096 O   0  0  0  0  0  0  0  0  0  0  0  0
    6.0675    5.1864   83.9704 C   0  0  0  0  0  0  0  0  0  0  0  0
    6.3084    3.8947   84.7148 C   0  0  0  0  0  0  0  0  0  0  0  0
    6.2170    3.7323   86.0389 C   0  0  0  0  0  0  0  0  0  0  0  0
    6.6393    2.6898   84.0137 C   0  0  0  0  0  0  0  0  0  0  0  0
    6.7550    1.7123   85.0396 C   0  0  0  0  0  0  0  0  0  0  0  0
    6.8351    2.3310   82.7084 C   0  0  0  0  0  0  0  0  0  0  0  0
    6.4861    2.4243   86.2286 N   0  0  0  0  0  0  0  0  0  0  0  0
    7.0615    0.4281   84.7991 C   0  0  0  0  0  0  0  0  0  0  0  0
    7.1748    0.9712   82.4322 C   0  0  0  0  0  0  0  0  0  0  0  0
    7.2967    0.0009   83.4888 C   0  0  0  0  0  0  0  0  0  0  0  0
    9.0981    6.0016   85.2265 O   0  0  0  0  0  0  0  0  0  0  0  0
  2  1  1  1  0  0  0
  2  3  1  0  0  0  0
  2  6  1  0  0  0  0
  3  4  1  0  0  0  0
  3 16  1  0  0  0  0
  5 14  1  0  0  0  0
  6  7  1  0  0  0  0
  7  8  2  0  0  0  0
  7  9  1  0  0  0  0
  8 12  1  0  0  0  0
  9 10  2  0  0  0  0
  9 11  1  0  0  0  0
 10 13  1  0  0  0  0
 10 12  1  0  0  0  0
 11 14  2  0  0  0  0
 13 15  2  0  0  0  0
 14 15  1  0  0  0  0
M  END
>  <CHROM.1>
172.16159261,54.74124293,99.39228164,7.18292099,3.51952173,84.15850371,-1.24539227
-1.24399382,-2.50891414

>  <Name>
ligand

>  <RI>
0

>  <Rbt.Current_Directory>
/home/itssahil/PROJECTS/Mol_Feturizer/Test_systems_manuscript/rnas/5kpy

>  <Rbt.Executable>
rbdock ($Id: //depot/dev/client3/rdock/2013.1/src/exe/rbdock.cxx#4 $)

>  <Rbt.Library>
libRbt.so (2013.1, Build901 2013/11/27)

>  <Rbt.Parameter_File>
/export/apps/rDock/src/rDock_2013.1_src/data/scripts/dock_solv.prm

>  <Rbt.Receptor>
prm/pocket_docking_2.prm

>  <SCORE>
-19.5474

>  <SCORE.INTER>
-19.4753

>  <SCORE.INTER.CONST>
1

>  <SCORE.INTER.POLAR>
0

>  <SCORE.INTER.ROT>
3

>  <SCORE.INTER.SOLV>
6.35527

>  <SCORE.INTER.VDW>
-20.702

>  <SCORE.INTER.norm>
-1.21721

>  <SCORE.INTRA>
-0.221522

>  <SCORE.INTRA.DIHEDRAL>
0.0754981

>  <SCORE.INTRA.DIHEDRAL.0>
3.89056

>  <SCORE.INTRA.POLAR>
0

>  <SCORE.INTRA.POLAR.0>
0

>  <SCORE.INTRA.REPUL>
0

>  <SCORE.INTRA.REPUL.0>
0

>  <SCORE.INTRA.SOLV>
0.456071

>  <SCORE.INTRA.SOLV.lig_0>
-20.733

>  <SCORE.INTRA.VDW>
-0.487307

>  <SCORE.INTRA.VDW.0>
-0.828515

>  <SCORE.INTRA.norm>
-0.0138451

>  <SCORE.RESTR>
0.149411

>  <SCORE.RESTR.CAVITY>
0.149411

>  <SCORE.RESTR.norm>
0.00933821

>  <SCORE.SYSTEM>
0

>  <SCORE.SYSTEM.CONST>
0

>  <SCORE.SYSTEM.DIHEDRAL>
0

>  <SCORE.SYSTEM.SOLV>
0

>  <SCORE.SYSTEM.norm>
0

>  <SCORE.heavy>
16

>  <SCORE.norm>
-1.22171

>  <RMSD>
1.204

$$$$
ligand
 OpenBabel02271912153D
libRbt.so/2013.1/901 2013/11/27
 16 17  0  0  0  0  0  0  0  0999 V2000
    8.3580    5.1072   82.9641 N   0  0  0  0  0  0  0  0  0  0  0  0
    7.4023    5.8568   83.7068 C   0  0  2  0  0  0  0  0  0  0  0  0
    7.9623    6.3404   85.0153 C   0  0  0  0  0  0  0  0  0  0  0  0
    9.0285    5.8405   85.4497 O   0  0  0  0  0  0  0  0  0  0  0  0
    7.2253    0.3273   81.1387 O   0  0  0  0  0  0  0  0  0  0  0  0
    6.1658    5.0325   83.9738 C   0  0  0  0  0  0  0  0  0  0  0  0
    6.4535    3.7575   84.7304 C   0  0  0  0  0  0  0  0  0  0  0  0
    6.4656    3.6297   86.0614 C   0  0  0  0  0  0  0  0  0  0  0  0
    6.7174    2.5318   84.0371 C   0  0  0  0  0  0  0  0  0  0  0  0
    6.9053    1.5794   85.0758 C   0  0  0  0  0  0  0  0  0  0  0  0
    6.8063    2.1380   82.7302 C   0  0  0  0  0  0  0  0  0  0  0  0
    6.7375    2.3241   86.2633 N   0  0  0  0  0  0  0  0  0  0  0  0
    7.1807    0.2864   84.8455 C   0  0  0  0  0  0  0  0  0  0  0  0
    7.1112    0.7681   82.4637 C   0  0  0  0  0  0  0  0  0  0  0  0
    7.3078   -0.1764   83.5324 C   0  0  0  0  0  0  0  0  0  0  0  0
    7.3586    7.2193   85.6658 O   0  0  0  0  0  0  0  0  0  0  0  0
  2  1  1  1  0  0  0
  2  3  1  0  0  0  0
  2  6  1  0  0  0  0
  3  4  1  0  0  0  0
  3 16  1  0  0  0  0
  5 14  1  0  0  0  0
  6  7  1  0  0  0  0
  7  8  2  0  0  0  0
  7  9  1  0  0  0  0
  8 12  1  0  0  0  0
  9 10  2  0  0  0  0
  9 11  1  0  0  0  0
 10 13  1  0  0  0  0
 10 12  1  0  0  0  0
 11 14  2  0  0  0  0
 13 15  2  0  0  0  0
 14 15  1  0  0  0  0
M  END
>  <CHROM.1>
-14.75699934,58.38956388,89.39789833,7.23489914,3.38897231,84.22260617,-1.07648635
-1.34362720,-2.31976271

>  <Name>
ligand

>  <RI>
0

>  <Rbt.Current_Directory>
/home/itssahil/PROJECTS/Mol_Feturizer/Test_systems_manuscript/rnas/5kpy

>  <Rbt.Executable>
rbdock ($Id: //depot/dev/client3/rdock/2013.1/src/exe/rbdock.cxx#4 $)

>  <Rbt.Library>
libRbt.so (2013.1, Build901 2013/11/27)

>  <Rbt.Parameter_File>
/export/apps/rDock/src/rDock_2013.1_src/data/scripts/dock_solv.prm

>  <Rbt.Receptor>
prm/pocket_docking_8.prm

>  <SCORE>
-20.4492

>  <SCORE.INTER>
-19.9008

>  <SCORE.INTER.CONST>
1

>  <SCORE.INTER.POLAR>
0

>  <SCORE.INTER.ROT>
3

>  <SCORE.INTER.SOLV>
6.97522

>  <SCORE.INTER.VDW>
-21.1923

>  <SCORE.INTER.norm>
-1.2438

>  <SCORE.INTRA>
-0.548422

>  <SCORE.INTRA.DIHEDRAL>
-0.0570652

>  <SCORE.INTRA.DIHEDRAL.0>
3.89056

>  <SCORE.INTRA.POLAR>
0

>  <SCORE.INTRA.POLAR.0>
0

>  <SCORE.INTRA.REPUL>
0

>  <SCORE.INTRA.REPUL.0>
0

>  <SCORE.INTRA.SOLV>
0.21045

>  <SCORE.INTRA.SOLV.lig_0>
-20.733

>  <SCORE.INTRA.VDW>
-0.625114

>  <SCORE.INTRA.VDW.0>
-0.828515

>  <SCORE.INTRA.norm>
-0.0342764

>  <SCORE.RESTR>
0

>  <SCORE.RESTR.CAVITY>
0

>  <SCORE.RESTR.norm>
0

>  <SCORE.SYSTEM>
0

>  <SCORE.SYSTEM.CONST>
0

>  <SCORE.SYSTEM.DIHEDRAL>
0

>  <SCORE.SYSTEM.SOLV>
0

>  <SCORE.SYSTEM.norm>
0

>  <SCORE.heavy>
16

>  <SCORE.norm>
-1.27808

>  <RMSD>
1.217

$$$$
ligand
 OpenBabel02271912153D
libRbt.so/2013.1/901 2013/11/27
 16 17  0  0  0  0  0  0  0  0999 V2000
    5.9773    7.0688   84.5534 N   0  0  0  0  0  0  0  0  0  0  0  0
    5.8878    5.6902   84.8976 C   0  0  2  0  0  0  0  0  0  0  0  0
    5.9792    5.4753   86.3826 C   0  0  0  0  0  0  0  0  0  0  0  0
    5.0225    4.9296   86.9845 O   0  0  0  0  0  0  0  0  0  0  0  0
    7.3267    1.3491   79.9043 O   0  0  0  0  0  0  0  0  0  0  0  0
    6.9767    4.8965   84.2162 C   0  0  0  0  0  0  0  0  0  0  0  0
    6.8739    3.4106   84.4658 C   0  0  0  0  0  0  0  0  0  0  0  0
    6.6842    2.8342   85.6574 C   0  0  0  0  0  0  0  0  0  0  0  0
    6.9475    2.4740   83.3841 C   0  0  0  0  0  0  0  0  0  0  0  0
    6.7829    1.2080   84.0098 C   0  0  0  0  0  0  0  0  0  0  0  0
    7.1160    2.5449   82.0286 C   0  0  0  0  0  0  0  0  0  0  0  0
    6.6313    1.5154   85.3793 N   0  0  0  0  0  0  0  0  0  0  0  0
    6.7925    0.0484   83.3346 C   0  0  0  0  0  0  0  0  0  0  0  0
    7.1418    1.3208   81.2928 C   0  0  0  0  0  0  0  0  0  0  0  0
    6.9836    0.0494   81.9496 C   0  0  0  0  0  0  0  0  0  0  0  0
    6.9929    5.8532   87.0067 O   0  0  0  0  0  0  0  0  0  0  0  0
  2  1  1  1  0  0  0
  2  3  1  0  0  0  0
  2  6  1  0  0  0  0
  3  4  1  0  0  0  0
  3 16  1  0  0  0  0
  5 14  1  0  0  0  0
  6  7  1  0  0  0  0
  7  8  2  0  0  0  0
  7  9  1  0  0  0  0
  8 12  1  0  0  0  0
  9 10  2  0  0  0  0
  9 11  1  0  0  0  0
 10 13  1  0  0  0  0
 10 12  1  0  0  0  0
 11 14  2  0  0  0  0
 13 15  2  0  0  0  0
 14 15  1  0  0  0  0
M  END
>  <CHROM.1>
119.79822935,-175.92060294,-47.40024708,6.61535912,3.26631678,84.14275447
-2.74217996,-1.40224183,2.72314376

>  <Name>
ligand

>  <RI>
0

>  <Rbt.Current_Directory>
/home/itssahil/PROJECTS/Mol_Feturizer/Test_systems_manuscript/rnas/5kpy

>  <Rbt.Executable>
rbdock ($Id: //depot/dev/client3/rdock/2013.1/src/exe/rbdock.cxx#4 $)

>  <Rbt.Library>
libRbt.so (2013.1, Build901 2013/11/27)

>  <Rbt.Parameter_File>
/export/apps/rDock/src/rDock_2013.1_src/data/scripts/dock_solv.prm

>  <Rbt.Receptor>
prm/pocket_docking_2.prm

>  <SCORE>
-17.2133

>  <SCORE.INTER>
-16.859

>  <SCORE.INTER.CONST>
1

>  <SCORE.INTER.POLAR>
0

>  <SCORE.INTER.ROT>
3

>  <SCORE.INTER.SOLV>
4.95808

>  <SCORE.INTER.VDW>
-18.492

>  <SCORE.INTER.norm>
-1.05369

>  <SCORE.INTRA>
-0.354274

>  <SCORE.INTRA.DIHEDRAL>
-0.0247521

>  <SCORE.INTRA.DIHEDRAL.0>
3.89056

>  <SCORE.INTRA.POLAR>
0

>  <SCORE.INTRA.POLAR.0>
0

>  <SCORE.INTRA.REPUL>
0

>  <SCORE.INTRA.REPUL.0>
0

>  <SCORE.INTRA.SOLV>
-1.19598

>  <SCORE.INTRA.SOLV.lig_0>
-20.733

>  <SCORE.INTRA.VDW>
0.256092

>  <SCORE.INTRA.VDW.0>
-0.828515

>  <SCORE.INTRA.norm>
-0.0221421

>  <SCORE.RESTR>
0

>  <SCORE.RESTR.CAVITY>
0

>  <SCORE.RESTR.norm>
0

>  <SCORE.SYSTEM>
0

>  <SCORE.SYSTEM.CONST>
0

>  <SCORE.SYSTEM.DIHEDRAL>
0

>  <SCORE.SYSTEM.SOLV>
0

>  <SCORE.SYSTEM.norm>
0

>  <SCORE.heavy>
16

>  <SCORE.norm>
-1.07583

>  <RMSD>
1.229

$$$$
ligand
 OpenBabel02271912153D
libRbt.so/2013.1/901 2013/11/27
 16 17  0  0  0  0  0  0  0  0999 V2000
    6.5946    5.0394   87.0032 N   0  0  0  0  0  0  0  0  0  0  0  0
    7.2941    5.2802   85.7868 C   0  0  2  0  0  0  0  0  0  0  0  0
    7.5777    6.7423   85.5823 C   0  0  0  0  0  0  0  0  0  0  0  0
    6.7481    7.5918   85.9889 O   0  0  0  0  0  0  0  0  0  0  0  0
    8.2519    2.1017   80.0020 O   0  0  0  0  0  0  0  0  0  0  0  0
    6.5098    4.7599   84.6061 C   0  0  0  0  0  0  0  0  0  0  0  0
    6.4497    3.2518   84.5508 C   0  0  0  0  0  0  0  0  0  0  0  0
    5.9895    2.4564   85.5221 C   0  0  0  0  0  0  0  0  0  0  0  0
    6.8764    2.5389   83.3835 C   0  0  0  0  0  0  0  0  0  0  0  0
    6.6408    1.1743   83.7054 C   0  0  0  0  0  0  0  0  0  0  0  0
    7.3961    2.8688   82.1621 C   0  0  0  0  0  0  0  0  0  0  0  0
    6.1068    1.2134   85.0116 N   0  0  0  0  0  0  0  0  0  0  0  0
    6.9130    0.1640   82.8650 C   0  0  0  0  0  0  0  0  0  0  0  0
    7.7047    1.8070   81.2576 C   0  0  0  0  0  0  0  0  0  0  0  0
    7.4672    0.4313   81.6095 C   0  0  0  0  0  0  0  0  0  0  0  0
    8.6224    7.0997   84.9984 O   0  0  0  0  0  0  0  0  0  0  0  0
  2  1  1  1  0  0  0
  2  3  1  0  0  0  0
  2  6  1  0  0  0  0
  3  4  1  0  0  0  0
  3 16  1  0  0  0  0
  5 14  1  0  0  0  0
  6  7  1  0  0  0  0
  7  8  2  0  0  0  0
  7  9  1  0  0  0  0
  8 12  1  0  0  0  0
  9 10  2  0  0  0  0
  9 11  1  0  0  0  0
 10 13  1  0  0  0  0
 10 12  1  0  0  0  0
 11 14  2  0  0  0  0
 13 15  2  0  0  0  0
 14 15  1  0  0  0  0
M  END
>  <CHROM.1>
-34.09562933,-69.81334886,56.50870015,7.09900020,3.54821426,84.03517934,1.59744431
1.08710120,0.61716102

>  <Name>
ligand

>  <RI>
0

>  <Rbt.Current_Directory>
/home/itssahil/PROJECTS/Mol_Feturizer/Test_systems_manuscript/rnas/5kpy

>  <Rbt.Executable>
rbdock ($Id: //depot/dev/client3/rdock/2013.1/src/exe/rbdock.cxx#4 $)

>  <Rbt.Library>
libRbt.so (2013.1, Build901 2013/11/27)

>  <Rbt.Parameter_File>
/export/apps/rDock/src/rDock_2013.1_src/data/scripts/dock_solv.prm

>  <Rbt.Receptor>
prm/pocket_docking_2.prm

>  <SCORE>
-16.7952

>  <SCORE.INTER>
-16.7794

>  <SCORE.INTER.CONST>
1

>  <SCORE.INTER.POLAR>
0

>  <SCORE.INTER.ROT>
3

>  <SCORE.INTER.SOLV>
6.43224

>  <SCORE.INTER.VDW>
-18.9303

>  <SCORE.INTER.norm>
-1.04871

>  <SCORE.INTRA>
-0.0158067

>  <SCORE.INTRA.DIHEDRAL>
0.208176

>  <SCORE.INTRA.DIHEDRAL.0>
3.89056

>  <SCORE.INTRA.POLAR>
0

>  <SCORE.INTRA.POLAR.0>
0

>  <SCORE.INTRA.REPUL>
0

>  <SCORE.INTRA.REPUL.0>
0

>  <SCORE.INTRA.SOLV>
-0.173782

>  <SCORE.INTRA.SOLV.lig_0>
-20.733

>  <SCORE.INTRA.VDW>
-0.033004

>  <SCORE.INTRA.VDW.0>
-0.828515

>  <SCORE.INTRA.norm>
-0.000987918

>  <SCORE.RESTR>
0

>  <SCORE.RESTR.CAVITY>
0

>  <SCORE.RESTR.norm>
0

>  <SCORE.SYSTEM>
0

>  <SCORE.SYSTEM.CONST>
0

>  <SCORE.SYSTEM.DIHEDRAL>
0

>  <SCORE.SYSTEM.SOLV>
0

>  <SCORE.SYSTEM.norm>
0

>  <SCORE.heavy>
16

>  <SCORE.norm>
-1.0497

>  <RMSD>
1.298

$$$$
ligand
 OpenBabel02271912153D
libRbt.so/2013.1/901 2013/11/27
 16 17  0  0  0  0  0  0  0  0999 V2000
    6.5932    5.0545   86.9837 N   0  0  0  0  0  0  0  0  0  0  0  0
    7.3443    5.2494   85.7900 C   0  0  2  0  0  0  0  0  0  0  0  0
    7.6938    6.6958   85.5767 C   0  0  0  0  0  0  0  0  0  0  0  0
    6.8721    7.5827   85.9134 O   0  0  0  0  0  0  0  0  0  0  0  0
    8.2664    2.0623   79.9770 O   0  0  0  0  0  0  0  0  0  0  0  0
    6.5816    4.7438   84.5890 C   0  0  0  0  0  0  0  0  0  0  0  0
    6.4947    3.2371   84.5315 C   0  0  0  0  0  0  0  0  0  0  0  0
    6.0227    2.4484   85.5026 C   0  0  0  0  0  0  0  0  0  0  0  0
    6.9062    2.5185   83.3622 C   0  0  0  0  0  0  0  0  0  0  0  0
    6.6472    1.1578   83.6825 C   0  0  0  0  0  0  0  0  0  0  0  0
    7.4290    2.8411   82.1402 C   0  0  0  0  0  0  0  0  0  0  0  0
    6.1169    1.2044   84.9900 N   0  0  0  0  0  0  0  0  0  0  0  0
    6.8997    0.1442   82.8400 C   0  0  0  0  0  0  0  0  0  0  0  0
    7.7168    1.7755   81.2334 C   0  0  0  0  0  0  0  0  0  0  0  0
    7.4557    0.4036   81.5838 C   0  0  0  0  0  0  0  0  0  0  0  0
    8.7858    7.0035   85.0541 O   0  0  0  0  0  0  0  0  0  0  0  0
  2  1  1  1  0  0  0
  2  3  1  0  0  0  0
  2  6  1  0  0  0  0
  3  4  1  0  0  0  0
  3 16  1  0  0  0  0
  5 14  1  0  0  0  0
  6  7  1  0  0  0  0
  7  8  2  0  0  0  0
  7  9  1  0  0  0  0
  8 12  1  0  0  0  0
  9 10  2  0  0  0  0
  9 11  1  0  0  0  0
 10 13  1  0  0  0  0
 10 12  1  0  0  0  0
 11 14  2  0  0  0  0
 13 15  2  0  0  0  0
 14 15  1  0  0  0  0
M  END
>  <CHROM.1>
-35.75644918,-71.37645412,54.87564304,7.14457225,3.52259357,84.01759316,1.56649702
1.07118967,0.64723335

>  <Name>
ligand

>  <RI>
0

>  <Rbt.Current_Directory>
/home/itssahil/PROJECTS/Mol_Feturizer/Test_systems_manuscript/rnas/5kpy

>  <Rbt.Executable>
rbdock ($Id: //depot/dev/client3/rdock/2013.1/src/exe/rbdock.cxx#4 $)

>  <Rbt.Library>
libRbt.so (2013.1, Build901 2013/11/27)

>  <Rbt.Parameter_File>
/export/apps/rDock/src/rDock_2013.1_src/data/scripts/dock_solv.prm

>  <Rbt.Receptor>
prm/pocket_docking_2.prm

>  <SCORE>
-16.7019

>  <SCORE.INTER>
-16.7386

>  <SCORE.INTER.CONST>
1

>  <SCORE.INTER.POLAR>
0

>  <SCORE.INTER.ROT>
3

>  <SCORE.INTER.SOLV>
6.48013

>  <SCORE.INTER.VDW>
-18.9191

>  <SCORE.INTER.norm>
-1.04616

>  <SCORE.INTRA>
0.0339872

>  <SCORE.INTRA.DIHEDRAL>
0.329282

>  <SCORE.INTRA.DIHEDRAL.0>
3.89056

>  <SCORE.INTRA.POLAR>
0

>  <SCORE.INTRA.POLAR.0>
0

>  <SCORE.INTRA.REPUL>
0

>  <SCORE.INTRA.REPUL.0>
0

>  <SCORE.INTRA.SOLV>
-0.19077

>  <SCORE.INTRA.SOLV.lig_0>
-20.733

>  <SCORE.INTRA.VDW>
-0.0352689

>  <SCORE.INTRA.VDW.0>
-0.828515

>  <SCORE.INTRA.norm>
0.0021242

>  <SCORE.RESTR>
0.00274326

>  <SCORE.RESTR.CAVITY>
0.00274326

>  <SCORE.RESTR.norm>
0.000171454

>  <SCORE.SYSTEM>
0

>  <SCORE.SYSTEM.CONST>
0

>  <SCORE.SYSTEM.DIHEDRAL>
0

>  <SCORE.SYSTEM.SOLV>
0

>  <SCORE.SYSTEM.norm>
0

>  <SCORE.heavy>
16

>  <SCORE.norm>
-1.04387

>  <RMSD>
1.304

$$$$
ligand
 OpenBabel02271912153D
libRbt.so/2013.1/901 2013/11/27
 16 17  0  0  0  0  0  0  0  0999 V2000
    6.5018    5.0553   87.0294 N   0  0  0  0  0  0  0  0  0  0  0  0
    7.2523    5.2785   85.8403 C   0  0  2  0  0  0  0  0  0  0  0  0
    7.5693    6.7345   85.6417 C   0  0  0  0  0  0  0  0  0  0  0  0
    6.7370    7.6000   86.0070 O   0  0  0  0  0  0  0  0  0  0  0  0
    8.2589    2.1570   80.0043 O   0  0  0  0  0  0  0  0  0  0  0  0
    6.5057    4.7668   84.6318 C   0  0  0  0  0  0  0  0  0  0  0  0
    6.4500    3.2592   84.5622 C   0  0  0  0  0  0  0  0  0  0  0  0
    5.9914    2.4533   85.5257 C   0  0  0  0  0  0  0  0  0  0  0  0
    6.8796    2.5584   83.3887 C   0  0  0  0  0  0  0  0  0  0  0  0
    6.6477    1.1902   83.6975 C   0  0  0  0  0  0  0  0  0  0  0  0
    7.3993    2.9013   82.1708 C   0  0  0  0  0  0  0  0  0  0  0  0
    6.1126    1.2156   85.0036 N   0  0  0  0  0  0  0  0  0  0  0  0
    6.9234    0.1887   82.8479 C   0  0  0  0  0  0  0  0  0  0  0  0
    7.7116    1.8490   81.2566 C   0  0  0  0  0  0  0  0  0  0  0  0
    7.4777    0.4694   81.5954 C   0  0  0  0  0  0  0  0  0  0  0  0
    8.6448    7.0713   85.1032 O   0  0  0  0  0  0  0  0  0  0  0  0
  2  1  1  1  0  0  0
  2  3  1  0  0  0  0
  2  6  1  0  0  0  0
  3  4  1  0  0  0  0
  3 16  1  0  0  0  0
  5 14  1  0  0  0  0
  6  7  1  0  0  0  0
  7  8  2  0  0  0  0
  7  9  1  0  0  0  0
  8 12  1  0  0  0  0
  9 10  2  0  0  0  0
  9 11  1  0  0  0  0
 10 13  1  0  0  0  0
 10 12  1  0  0  0  0
 11 14  2  0  0  0  0
 13 15  2  0  0  0  0
 14 15  1  0  0  0  0
M  END
>  <CHROM.1>
-34.40956120,-71.19854953,54.78385936,7.09375221,3.56204239,84.05363022,1.60715489
1.08163433,0.61997455

>  <Name>
ligand

>  <RI>
0

>  <Rbt.Current_Directory>
/home/itssahil/PROJECTS/Mol_Feturizer/Test_systems_manuscript/rnas/5kpy

>  <Rbt.Executable>
rbdock ($Id: //depot/dev/client3/rdock/2013.1/src/exe/rbdock.cxx#4 $)

>  <Rbt.Library>
libRbt.so (2013.1, Build901 2013/11/27)

>  <Rbt.Parameter_File>
/export/apps/rDock/src/rDock_2013.1_src/data/scripts/dock_solv.prm

>  <Rbt.Receptor>
prm/pocket_docking_2.prm

>  <SCORE>
-16.7709

>  <SCORE.INTER>
-16.8053

>  <SCORE.INTER.CONST>
1

>  <SCORE.INTER.POLAR>
0

>  <SCORE.INTER.ROT>
3

>  <SCORE.INTER.SOLV>
6.39308

>  <SCORE.INTER.VDW>
-18.9345

>  <SCORE.INTER.norm>
-1.05033

>  <SCORE.INTRA>
0.0343616

>  <SCORE.INTRA.DIHEDRAL>
0.312956

>  <SCORE.INTRA.DIHEDRAL.0>
3.89056

>  <SCORE.INTRA.POLAR>
0

>  <SCORE.INTRA.POLAR.0>
0

>  <SCORE.INTRA.REPUL>
0

>  <SCORE.INTRA.REPUL.0>
0

>  <SCORE.INTRA.SOLV>
-0.187265

>  <SCORE.INTRA.SOLV.lig_0>
-20.733

>  <SCORE.INTRA.VDW>
-0.0284841

>  <SCORE.INTRA.VDW.0>
-0.828515

>  <SCORE.INTRA.norm>
0.0021476

>  <SCORE.RESTR>
0

>  <SCORE.RESTR.CAVITY>
0

>  <SCORE.RESTR.norm>
0

>  <SCORE.SYSTEM>
0

>  <SCORE.SYSTEM.CONST>
0

>  <SCORE.SYSTEM.DIHEDRAL>
0

>  <SCORE.SYSTEM.SOLV>
0

>  <SCORE.SYSTEM.norm>
0

>  <SCORE.heavy>
16

>  <SCORE.norm>
-1.04818

>  <RMSD>
1.304

$$$$
ligand
 OpenBabel02271912153D
libRbt.so/2013.1/901 2013/11/27
 16 17  0  0  0  0  0  0  0  0999 V2000
    8.4030    5.0223   82.7607 N   0  0  0  0  0  0  0  0  0  0  0  0
    7.4796    5.8758   83.4285 C   0  0  2  0  0  0  0  0  0  0  0  0
    8.0671    6.4695   84.6784 C   0  0  0  0  0  0  0  0  0  0  0  0
    8.8455    5.7787   85.3798 O   0  0  0  0  0  0  0  0  0  0  0  0
    7.1852    0.3337   81.0643 O   0  0  0  0  0  0  0  0  0  0  0  0
    6.2182    5.1261   83.7841 C   0  0  0  0  0  0  0  0  0  0  0  0
    6.4790    3.8640   84.5715 C   0  0  0  0  0  0  0  0  0  0  0  0
    6.4869    3.7679   85.9052 C   0  0  0  0  0  0  0  0  0  0  0  0
    6.7188    2.6169   83.9081 C   0  0  0  0  0  0  0  0  0  0  0  0
    6.8860    1.6861   84.9697 C   0  0  0  0  0  0  0  0  0  0  0  0
    6.8012    2.1901   82.6113 C   0  0  0  0  0  0  0  0  0  0  0  0
    6.7319    2.4623   86.1387 N   0  0  0  0  0  0  0  0  0  0  0  0
    7.1353    0.3825   84.7709 C   0  0  0  0  0  0  0  0  0  0  0  0
    7.0785    0.8083   82.3781 C   0  0  0  0  0  0  0  0  0  0  0  0
    7.2546   -0.1141   83.4694 C   0  0  0  0  0  0  0  0  0  0  0  0
    7.7661    7.6333   85.0177 O   0  0  0  0  0  0  0  0  0  0  0  0
  2  1  1  1  0  0  0
  2  3  1  0  0  0  0
  2  6  1  0  0  0  0
  3  4  1  0  0  0  0
  3 16  1  0  0  0  0
  5 14  1  0  0  0  0
  6  7  1  0  0  0  0
  7  8  2  0  0  0  0
  7  9  1  0  0  0  0
  8 12  1  0  0  0  0
  9 10  2  0  0  0  0
  9 11  1  0  0  0  0
 10 13  1  0  0  0  0
 10 12  1  0  0  0  0
 11 14  2  0  0  0  0
 13 15  2  0  0  0  0
 14 15  1  0  0  0  0
M  END
>  <CHROM.1>
-36.18373430,53.78256374,92.83128908,7.25957498,3.47350515,84.04111731,-0.94350647
-1.34558729,-2.24009534

>  <Name>
ligand

>  <RI>
0

>  <Rbt.Current_Directory>
/home/itssahil/PROJECTS/Mol_Feturizer/Test_systems_manuscript/rnas/5kpy

>  <Rbt.Executable>
rbdock ($Id: //depot/dev/client3/rdock/2013.1/src/exe/rbdock.cxx#4 $)

>  <Rbt.Library>
libRbt.so (2013.1, Build901 2013/11/27)

>  <Rbt.Parameter_File>
/export/apps/rDock/src/rDock_2013.1_src/data/scripts/dock_solv.prm

>  <Rbt.Receptor>
prm/pocket_docking_6.prm

>  <SCORE>
-20.4803

>  <SCORE.INTER>
-19.8926

>  <SCORE.INTER.CONST>
1

>  <SCORE.INTER.POLAR>
0

>  <SCORE.INTER.ROT>
3

>  <SCORE.INTER.SOLV>
6.73822

>  <SCORE.INTER.VDW>
-21.1078

>  <SCORE.INTER.norm>
-1.24329

>  <SCORE.INTRA>
-0.587708

>  <SCORE.INTRA.DIHEDRAL>
0.084747

>  <SCORE.INTRA.DIHEDRAL.0>
3.89056

>  <SCORE.INTRA.POLAR>
0

>  <SCORE.INTRA.POLAR.0>
0

>  <SCORE.INTRA.REPUL>
0

>  <SCORE.INTRA.REPUL.0>
0

>  <SCORE.INTRA.SOLV>
0.344976

>  <SCORE.INTRA.SOLV.lig_0>
-20.733

>  <SCORE.INTRA.VDW>
-0.802569

>  <SCORE.INTRA.VDW.0>
-0.828515

>  <SCORE.INTRA.norm>
-0.0367317

>  <SCORE.RESTR>
0

>  <SCORE.RESTR.CAVITY>
0

>  <SCORE.RESTR.norm>
0

>  <SCORE.SYSTEM>
0

>  <SCORE.SYSTEM.CONST>
0

>  <SCORE.SYSTEM.DIHEDRAL>
0

>  <SCORE.SYSTEM.SOLV>
0

>  <SCORE.SYSTEM.norm>
0

>  <SCORE.heavy>
16

>  <SCORE.norm>
-1.28002

>  <RMSD>
1.315

$$$$
ligand
 OpenBabel02271912153D
libRbt.so/2013.1/901 2013/11/27
 16 17  0  0  0  0  0  0  0  0999 V2000
    6.5710    5.0844   86.9645 N   0  0  0  0  0  0  0  0  0  0  0  0
    7.2787    5.2656   85.7425 C   0  0  2  0  0  0  0  0  0  0  0  0
    7.5826    6.7141   85.4794 C   0  0  0  0  0  0  0  0  0  0  0  0
    6.8476    7.5977   85.9837 O   0  0  0  0  0  0  0  0  0  0  0  0
    8.2694    2.0629   79.9818 O   0  0  0  0  0  0  0  0  0  0  0  0
    6.4924    4.7074   84.5806 C   0  0  0  0  0  0  0  0  0  0  0  0
    6.4823    3.1978   84.5404 C   0  0  0  0  0  0  0  0  0  0  0  0
    6.0603    2.3972   85.5248 C   0  0  0  0  0  0  0  0  0  0  0  0
    6.9192    2.4878   83.3751 C   0  0  0  0  0  0  0  0  0  0  0  0
    6.7331    1.1194   83.7129 C   0  0  0  0  0  0  0  0  0  0  0  0
    7.4133    2.8226   82.1445 C   0  0  0  0  0  0  0  0  0  0  0  0
    6.2133    1.1538   85.0249 N   0  0  0  0  0  0  0  0  0  0  0  0
    7.0294    0.1104   82.8791 C   0  0  0  0  0  0  0  0  0  0  0  0
    7.7469    1.7628   81.2467 C   0  0  0  0  0  0  0  0  0  0  0  0
    7.5597    0.3835   81.6146 C   0  0  0  0  0  0  0  0  0  0  0  0
    8.5487    7.0270   84.7521 O   0  0  0  0  0  0  0  0  0  0  0  0
  2  1  1  1  0  0  0
  2  3  1  0  0  0  0
  2  6  1  0  0  0  0
  3  4  1  0  0  0  0
  3 16  1  0  0  0  0
  5 14  1  0  0  0  0
  6  7  1  0  0  0  0
  7  8  2  0  0  0  0
  7  9  1  0  0  0  0
  8 12  1  0  0  0  0
  9 10  2  0  0  0  0
  9 11  1  0  0  0  0
 10 13  1  0  0  0  0
 10 12  1  0  0  0  0
 11 14  2  0  0  0  0
 13 15  2  0  0  0  0
 14 15  1  0  0  0  0
M  END
>  <CHROM.1>
-25.64869097,-73.28004894,56.82195157,7.13477398,3.50986554,84.00160876,1.62507093
1.10824113,0.58070706

>  <Name>
ligand

>  <RI>
0

>  <Rbt.Current_Directory>
/home/itssahil/PROJECTS/Mol_Feturizer/Test_systems_manuscript/rnas/5kpy

>  <Rbt.Executable>
rbdock ($Id: //depot/dev/client3/rdock/2013.1/src/exe/rbdock.cxx#4 $)

>  <Rbt.Library>
libRbt.so (2013.1, Build901 2013/11/27)

>  <Rbt.Parameter_File>
/export/apps/rDock/src/rDock_2013.1_src/data/scripts/dock_solv.prm

>  <Rbt.Receptor>
prm/pocket_docking_2.prm

>  <SCORE>
-16.6304

>  <SCORE.INTER>
-16.7744

>  <SCORE.INTER.CONST>
1

>  <SCORE.INTER.POLAR>
0

>  <SCORE.INTER.ROT>
3

>  <SCORE.INTER.SOLV>
6.2972

>  <SCORE.INTER.VDW>
-18.882

>  <SCORE.INTER.norm>
-1.0484

>  <SCORE.INTRA>
0.14198

>  <SCORE.INTRA.DIHEDRAL>
0.513709

>  <SCORE.INTRA.DIHEDRAL.0>
3.89056

>  <SCORE.INTRA.POLAR>
0

>  <SCORE.INTRA.POLAR.0>
0

>  <SCORE.INTRA.REPUL>
0

>  <SCORE.INTRA.REPUL.0>
0

>  <SCORE.INTRA.SOLV>
-0.218932

>  <SCORE.INTRA.SOLV.lig_0>
-20.733

>  <SCORE.INTRA.VDW>
-0.00540828

>  <SCORE.INTRA.VDW.0>
-0.828515

>  <SCORE.INTRA.norm>
0.00887378

>  <SCORE.RESTR>
0.00206056

>  <SCORE.RESTR.CAVITY>
0.00206056

>  <SCORE.RESTR.norm>
0.000128785

>  <SCORE.SYSTEM>
0

>  <SCORE.SYSTEM.CONST>
0

>  <SCORE.SYSTEM.DIHEDRAL>
0

>  <SCORE.SYSTEM.SOLV>
0

>  <SCORE.SYSTEM.norm>
0

>  <SCORE.heavy>
16

>  <SCORE.norm>
-1.0394

>  <RMSD>
1.319

$$$$
ligand
 OpenBabel02271912153D
libRbt.so/2013.1/901 2013/11/27
 16 17  0  0  0  0  0  0  0  0999 V2000
    6.6743    5.3336   87.0179 N   0  0  0  0  0  0  0  0  0  0  0  0
    7.4553    5.4443   85.8327 C   0  0  2  0  0  0  0  0  0  0  0  0
    7.9044    6.8576   85.5864 C   0  0  0  0  0  0  0  0  0  0  0  0
    8.6972    7.0948   84.6427 O   0  0  0  0  0  0  0  0  0  0  0  0
    8.3150    2.1637   80.0696 O   0  0  0  0  0  0  0  0  0  0  0  0
    6.6792    4.9569   84.6327 C   0  0  0  0  0  0  0  0  0  0  0  0
    6.5341    3.4543   84.5891 C   0  0  0  0  0  0  0  0  0  0  0  0
    6.0195    2.6948   85.5619 C   0  0  0  0  0  0  0  0  0  0  0  0
    6.9317    2.7080   83.4324 C   0  0  0  0  0  0  0  0  0  0  0  0
    6.6156    1.3618   83.7629 C   0  0  0  0  0  0  0  0  0  0  0  0
    7.4818    2.9971   82.2140 C   0  0  0  0  0  0  0  0  0  0  0  0
    6.0713    1.4428   85.0629 N   0  0  0  0  0  0  0  0  0  0  0  0
    6.8387    0.3304   82.9339 C   0  0  0  0  0  0  0  0  0  0  0  0
    7.7390    1.9117   81.3217 C   0  0  0  0  0  0  0  0  0  0  0  0
    7.4201    0.5548   81.6823 C   0  0  0  0  0  0  0  0  0  0  0  0
    7.5013    7.7787   86.3275 O   0  0  0  0  0  0  0  0  0  0  0  0
  2  1  1  1  0  0  0
  2  3  1  0  0  0  0
  2  6  1  0  0  0  0
  3  4  1  0  0  0  0
  3 16  1  0  0  0  0
  5 14  1  0  0  0  0
  6  7  1  0  0  0  0
  7  8  2  0  0  0  0
  7  9  1  0  0  0  0
  8 12  1  0  0  0  0
  9 10  2  0  0  0  0
  9 11  1  0  0  0  0
 10 13  1  0  0  0  0
 10 12  1  0  0  0  0
 11 14  2  0  0  0  0
 13 15  2  0  0  0  0
 14 15  1  0  0  0  0
M  END
>  <CHROM.1>
173.89337109,-73.40352315,55.32260003,7.21736671,3.70629769,84.07336749,1.50489682
1.04645519,0.69623979

>  <Name>
ligand

>  <RI>
0

>  <Rbt.Current_Directory>
/home/itssahil/PROJECTS/Mol_Feturizer/Test_systems_manuscript/rnas/5kpy

>  <Rbt.Executable>
rbdock ($Id: //depot/dev/client3/rdock/2013.1/src/exe/rbdock.cxx#4 $)

>  <Rbt.Library>
libRbt.so (2013.1, Build901 2013/11/27)

>  <Rbt.Parameter_File>
/export/apps/rDock/src/rDock_2013.1_src/data/scripts/dock_solv.prm

>  <Rbt.Receptor>
prm/pocket_docking_2.prm

>  <SCORE>
-16.7069

>  <SCORE.INTER>
-17.0929

>  <SCORE.INTER.CONST>
1

>  <SCORE.INTER.POLAR>
0

>  <SCORE.INTER.ROT>
3

>  <SCORE.INTER.SOLV>
5.72927

>  <SCORE.INTER.VDW>
-18.905

>  <SCORE.INTER.norm>
-1.06831

>  <SCORE.INTRA>
0.386069

>  <SCORE.INTRA.DIHEDRAL>
0.561231

>  <SCORE.INTRA.DIHEDRAL.0>
3.89056

>  <SCORE.INTRA.POLAR>
0

>  <SCORE.INTRA.POLAR.0>
0

>  <SCORE.INTRA.REPUL>
0

>  <SCORE.INTRA.REPUL.0>
0

>  <SCORE.INTRA.SOLV>
-0.215049

>  <SCORE.INTRA.SOLV.lig_0>
-20.733

>  <SCORE.INTRA.VDW>
0.212978

>  <SCORE.INTRA.VDW.0>
-0.828515

>  <SCORE.INTRA.norm>
0.0241293

>  <SCORE.RESTR>
0

>  <SCORE.RESTR.CAVITY>
0

>  <SCORE.RESTR.norm>
0

>  <SCORE.SYSTEM>
0

>  <SCORE.SYSTEM.CONST>
0

>  <SCORE.SYSTEM.DIHEDRAL>
0

>  <SCORE.SYSTEM.SOLV>
0

>  <SCORE.SYSTEM.norm>
0

>  <SCORE.heavy>
16

>  <SCORE.norm>
-1.04418

>  <RMSD>
1.338

$$$$
ligand
 OpenBabel02271912153D
libRbt.so/2013.1/901 2013/11/27
 16 17  0  0  0  0  0  0  0  0999 V2000
    6.4739    5.3929   86.9875 N   0  0  0  0  0  0  0  0  0  0  0  0
    7.3656    5.4445   85.8788 C   0  0  2  0  0  0  0  0  0  0  0  0
    7.8790    6.8363   85.6358 C   0  0  0  0  0  0  0  0  0  0  0  0
    8.7269    7.0292   84.7307 O   0  0  0  0  0  0  0  0  0  0  0  0
    8.3175    2.1260   80.0726 O   0  0  0  0  0  0  0  0  0  0  0  0
    6.6908    4.9416   84.6252 C   0  0  0  0  0  0  0  0  0  0  0  0
    6.5472    3.4386   84.5899 C   0  0  0  0  0  0  0  0  0  0  0  0
    6.0359    2.6837   85.5680 C   0  0  0  0  0  0  0  0  0  0  0  0
    6.9424    2.6866   83.4361 C   0  0  0  0  0  0  0  0  0  0  0  0
    6.6286    1.3419   83.7745 C   0  0  0  0  0  0  0  0  0  0  0  0
    7.4891    2.9699   82.2148 C   0  0  0  0  0  0  0  0  0  0  0  0
    6.0876    1.4291   85.0755 N   0  0  0  0  0  0  0  0  0  0  0  0
    6.8505    0.3064   82.9503 C   0  0  0  0  0  0  0  0  0  0  0  0
    7.7450    1.8800   81.3275 C   0  0  0  0  0  0  0  0  0  0  0  0
    7.4284    0.5247   81.6961 C   0  0  0  0  0  0  0  0  0  0  0  0
    7.4735    7.7833   86.3421 O   0  0  0  0  0  0  0  0  0  0  0  0
  2  1  1  1  0  0  0
  2  3  1  0  0  0  0
  2  6  1  0  0  0  0
  3  4  1  0  0  0  0
  3 16  1  0  0  0  0
  5 14  1  0  0  0  0
  6  7  1  0  0  0  0
  7  8  2  0  0  0  0
  7  9  1  0  0  0  0
  8 12  1  0  0  0  0
  9 10  2  0  0  0  0
  9 11  1  0  0  0  0
 10 13  1  0  0  0  0
 10 12  1  0  0  0  0
 11 14  2  0  0  0  0
 13 15  2  0  0  0  0
 14 15  1  0  0  0  0
M  END
>  <CHROM.1>
176.55793327,-75.38017345,50.38795998,7.20419120,3.68934064,84.08869969,1.52709973
1.03500487,0.67991333

>  <Name>
ligand

>  <RI>
0

>  <Rbt.Current_Directory>
/home/itssahil/PROJECTS/Mol_Feturizer/Test_systems_manuscript/rnas/5kpy

>  <Rbt.Executable>
rbdock ($Id: //depot/dev/client3/rdock/2013.1/src/exe/rbdock.cxx#4 $)

>  <Rbt.Library>
libRbt.so (2013.1, Build901 2013/11/27)

>  <Rbt.Parameter_File>
/export/apps/rDock/src/rDock_2013.1_src/data/scripts/dock_solv.prm

>  <Rbt.Receptor>
prm/pocket_docking_2.prm

>  <SCORE>
-16.6755

>  <SCORE.INTER>
-17.2182

>  <SCORE.INTER.CONST>
1

>  <SCORE.INTER.POLAR>
0

>  <SCORE.INTER.ROT>
3

>  <SCORE.INTER.SOLV>
5.49056

>  <SCORE.INTER.VDW>
-18.909

>  <SCORE.INTER.norm>
-1.07614

>  <SCORE.INTRA>
0.542744

>  <SCORE.INTRA.DIHEDRAL>
0.744656

>  <SCORE.INTRA.DIHEDRAL.0>
3.89056

>  <SCORE.INTRA.POLAR>
0

>  <SCORE.INTRA.POLAR.0>
0

>  <SCORE.INTRA.REPUL>
0

>  <SCORE.INTRA.REPUL.0>
0

>  <SCORE.INTRA.SOLV>
-0.229542

>  <SCORE.INTRA.SOLV.lig_0>
-20.733

>  <SCORE.INTRA.VDW>
0.285187

>  <SCORE.INTRA.VDW.0>
-0.828515

>  <SCORE.INTRA.norm>
0.0339215

>  <SCORE.RESTR>
0

>  <SCORE.RESTR.CAVITY>
0

>  <SCORE.RESTR.norm>
0

>  <SCORE.SYSTEM>
0

>  <SCORE.SYSTEM.CONST>
0

>  <SCORE.SYSTEM.DIHEDRAL>
0

>  <SCORE.SYSTEM.SOLV>
0

>  <SCORE.SYSTEM.norm>
0

>  <SCORE.heavy>
16

>  <SCORE.norm>
-1.04222

>  <RMSD>
1.339

$$$$
ligand
 OpenBabel02271912153D
libRbt.so/2013.1/901 2013/11/27
 16 17  0  0  0  0  0  0  0  0999 V2000
    6.5303    5.4185   87.0820 N   0  0  0  0  0  0  0  0  0  0  0  0
    7.3782    5.4443   85.9387 C   0  0  2  0  0  0  0  0  0  0  0  0
    7.9157    6.8222   85.6695 C   0  0  0  0  0  0  0  0  0  0  0  0
    8.7771    6.9810   84.7706 O   0  0  0  0  0  0  0  0  0  0  0  0
    8.4021    2.1892   80.1809 O   0  0  0  0  0  0  0  0  0  0  0  0
    6.6421    4.9540   84.7149 C   0  0  0  0  0  0  0  0  0  0  0  0
    6.5104    3.4504   84.6634 C   0  0  0  0  0  0  0  0  0  0  0  0
    5.9804    2.6836   85.6221 C   0  0  0  0  0  0  0  0  0  0  0  0
    6.9398    2.7112   83.5136 C   0  0  0  0  0  0  0  0  0  0  0  0
    6.6274    1.3614   83.8328 C   0  0  0  0  0  0  0  0  0  0  0  0
    7.5146    3.0088   82.3087 C   0  0  0  0  0  0  0  0  0  0  0  0
    6.0536    1.4337   85.1206 N   0  0  0  0  0  0  0  0  0  0  0  0
    6.8774    0.3346   83.0057 C   0  0  0  0  0  0  0  0  0  0  0  0
    7.8004    1.9284   81.4190 C   0  0  0  0  0  0  0  0  0  0  0  0
    7.4847    0.5678   81.7682 C   0  0  0  0  0  0  0  0  0  0  0  0
    7.5164    7.7915   86.3484 O   0  0  0  0  0  0  0  0  0  0  0  0
  2  1  1  1  0  0  0
  2  3  1  0  0  0  0
  2  6  1  0  0  0  0
  3  4  1  0  0  0  0
  3 16  1  0  0  0  0
  5 14  1  0  0  0  0
  6  7  1  0  0  0  0
  7  8  2  0  0  0  0
  7  9  1  0  0  0  0
  8 12  1  0  0  0  0
  9 10  2  0  0  0  0
  9 11  1  0  0  0  0
 10 13  1  0  0  0  0
 10 12  1  0  0  0  0
 11 14  2  0  0  0  0
 13 15  2  0  0  0  0
 14 15  1  0  0  0  0
M  END
>  <CHROM.1>
173.34188813,-77.76528611,54.89345417,7.22265054,3.70530474,84.15401538,1.52952035
1.01521415,0.67580308

>  <Name>
ligand

>  <RI>
0

>  <Rbt.Current_Directory>
/home/itssahil/PROJECTS/Mol_Feturizer/Test_systems_manuscript/rnas/5kpy

>  <Rbt.Executable>
rbdock ($Id: //depot/dev/client3/rdock/2013.1/src/exe/rbdock.cxx#4 $)

>  <Rbt.Library>
libRbt.so (2013.1, Build901 2013/11/27)

>  <Rbt.Parameter_File>
/export/apps/rDock/src/rDock_2013.1_src/data/scripts/dock_solv.prm

>  <Rbt.Receptor>
prm/pocket_docking_2.prm

>  <SCORE>
-16.7635

>  <SCORE.INTER>
-17.302

>  <SCORE.INTER.CONST>
1

>  <SCORE.INTER.POLAR>
0

>  <SCORE.INTER.ROT>
3

>  <SCORE.INTER.SOLV>
5.48799

>  <SCORE.INTER.VDW>
-18.964

>  <SCORE.INTER.norm>
-1.08137

>  <SCORE.INTRA>
0.53852

>  <SCORE.INTRA.DIHEDRAL>
1.04735

>  <SCORE.INTRA.DIHEDRAL.0>
3.89056

>  <SCORE.INTRA.POLAR>
0

>  <SCORE.INTRA.POLAR.0>
0

>  <SCORE.INTRA.REPUL>
0

>  <SCORE.INTRA.REPUL.0>
0

>  <SCORE.INTRA.SOLV>
-0.276728

>  <SCORE.INTRA.SOLV.lig_0>
-20.733

>  <SCORE.INTRA.VDW>
0.153211

>  <SCORE.INTRA.VDW.0>
-0.828515

>  <SCORE.INTRA.norm>
0.0336575

>  <SCORE.RESTR>
0

>  <SCORE.RESTR.CAVITY>
0

>  <SCORE.RESTR.norm>
0

>  <SCORE.SYSTEM>
0

>  <SCORE.SYSTEM.CONST>
0

>  <SCORE.SYSTEM.DIHEDRAL>
0

>  <SCORE.SYSTEM.SOLV>
0

>  <SCORE.SYSTEM.norm>
0

>  <SCORE.heavy>
16

>  <SCORE.norm>
-1.04772

>  <RMSD>
1.351

$$$$
ligand
 OpenBabel02271912153D
libRbt.so/2013.1/901 2013/11/27
 16 17  0  0  0  0  0  0  0  0999 V2000
    6.0531    7.0938   85.8078 N   0  0  0  0  0  0  0  0  0  0  0  0
    6.8357    5.9113   85.6809 C   0  0  2  0  0  0  0  0  0  0  0  0
    8.2888    6.2216   85.4527 C   0  0  0  0  0  0  0  0  0  0  0  0
    9.0228    6.4848   86.4362 O   0  0  0  0  0  0  0  0  0  0  0  0
    7.8604    1.8515   80.2210 O   0  0  0  0  0  0  0  0  0  0  0  0
    6.3300    5.0539   84.5456 C   0  0  0  0  0  0  0  0  0  0  0  0
    6.5716    3.5788   84.7617 C   0  0  0  0  0  0  0  0  0  0  0  0
    6.4362    2.9314   85.9238 C   0  0  0  0  0  0  0  0  0  0  0  0
    6.9531    2.7267   83.6748 C   0  0  0  0  0  0  0  0  0  0  0  0
    7.0527    1.4368   84.2641 C   0  0  0  0  0  0  0  0  0  0  0  0
    7.2033    2.8847   82.3394 C   0  0  0  0  0  0  0  0  0  0  0  0
    6.7262    1.6494   85.6210 N   0  0  0  0  0  0  0  0  0  0  0  0
    7.3951    0.3384   83.5733 C   0  0  0  0  0  0  0  0  0  0  0  0
    7.5816    1.7298   81.5886 C   0  0  0  0  0  0  0  0  0  0  0  0
    7.6862    0.4349   82.2093 C   0  0  0  0  0  0  0  0  0  0  0  0
    8.7500    6.2316   84.2920 O   0  0  0  0  0  0  0  0  0  0  0  0
  2  1  1  6  0  0  0
  2  3  1  0  0  0  0
  2  6  1  0  0  0  0
  3  4  1  0  0  0  0
  3 16  1  0  0  0  0
  5 14  1  0  0  0  0
  6  7  1  0  0  0  0
  7  8  2  0  0  0  0
  7  9  1  0  0  0  0
  8 12  1  0  0  0  0
  9 10  2  0  0  0  0
  9 11  1  0  0  0  0
 10 13  1  0  0  0  0
 10 12  1  0  0  0  0
 11 14  2  0  0  0  0
 13 15  2  0  0  0  0
 14 15  1  0  0  0  0
M  END
>  <CHROM.1>
82.51621477,-150.32896560,39.98859415,7.33880626,3.65148038,84.16185946,1.50716631
1.17234223,0.65692844

>  <Name>
ligand

>  <RI>
0

>  <Rbt.Current_Directory>
/home/itssahil/PROJECTS/Mol_Feturizer/Test_systems_manuscript/rnas/5kpy

>  <Rbt.Executable>
rbdock ($Id: //depot/dev/client3/rdock/2013.1/src/exe/rbdock.cxx#4 $)

>  <Rbt.Library>
libRbt.so (2013.1, Build901 2013/11/27)

>  <Rbt.Parameter_File>
/export/apps/rDock/src/rDock_2013.1_src/data/scripts/dock_solv.prm

>  <Rbt.Receptor>
prm/pocket_docking_2.prm

>  <SCORE>
-17.4532

>  <SCORE.INTER>
-18.8433

>  <SCORE.INTER.CONST>
1

>  <SCORE.INTER.POLAR>
0

>  <SCORE.INTER.ROT>
3

>  <SCORE.INTER.SOLV>
4.32925

>  <SCORE.INTER.VDW>
-19.6052

>  <SCORE.INTER.norm>
-1.1777

>  <SCORE.INTRA>
1.39007

>  <SCORE.INTRA.DIHEDRAL>
2.57998

>  <SCORE.INTRA.DIHEDRAL.0>
3.89056

>  <SCORE.INTRA.POLAR>
0

>  <SCORE.INTRA.POLAR.0>
0

>  <SCORE.INTRA.REPUL>
0

>  <SCORE.INTRA.REPUL.0>
0

>  <SCORE.INTRA.SOLV>
-1.16092

>  <SCORE.INTRA.SOLV.lig_0>
-20.733

>  <SCORE.INTRA.VDW>
0.680537

>  <SCORE.INTRA.VDW.0>
-0.828515

>  <SCORE.INTRA.norm>
0.0868793

>  <SCORE.RESTR>
0

>  <SCORE.RESTR.CAVITY>
0

>  <SCORE.RESTR.norm>
0

>  <SCORE.SYSTEM>
0

>  <SCORE.SYSTEM.CONST>
0

>  <SCORE.SYSTEM.DIHEDRAL>
0

>  <SCORE.SYSTEM.SOLV>
0

>  <SCORE.SYSTEM.norm>
0

>  <SCORE.heavy>
16

>  <SCORE.norm>
-1.09082

>  <RMSD>
1.354

$$$$
ligand
 OpenBabel02271912153D
libRbt.so/2013.1/901 2013/11/27
 16 17  0  0  0  0  0  0  0  0999 V2000
    5.9514    7.0952   85.7700 N   0  0  0  0  0  0  0  0  0  0  0  0
    6.8288    5.9798   85.6563 C   0  0  2  0  0  0  0  0  0  0  0  0
    8.2557    6.4066   85.4519 C   0  0  0  0  0  0  0  0  0  0  0  0
    8.6630    6.6533   84.2906 O   0  0  0  0  0  0  0  0  0  0  0  0
    7.4946    1.5662   80.3008 O   0  0  0  0  0  0  0  0  0  0  0  0
    6.4127    5.0856   84.5130 C   0  0  0  0  0  0  0  0  0  0  0  0
    6.6126    3.6172   84.8039 C   0  0  0  0  0  0  0  0  0  0  0  0
    6.5387    3.0472   86.0112 C   0  0  0  0  0  0  0  0  0  0  0  0
    6.8796    2.6857   83.7485 C   0  0  0  0  0  0  0  0  0  0  0  0
    6.9728    1.4304   84.4093 C   0  0  0  0  0  0  0  0  0  0  0  0
    7.0362    2.7522   82.3913 C   0  0  0  0  0  0  0  0  0  0  0  0
    6.7560    1.7381   85.7699 N   0  0  0  0  0  0  0  0  0  0  0  0
    7.2206    0.2788   83.7665 C   0  0  0  0  0  0  0  0  0  0  0  0
    7.3132    1.5391   81.6897 C   0  0  0  0  0  0  0  0  0  0  0  0
    7.4135    0.2806   82.3818 C   0  0  0  0  0  0  0  0  0  0  0  0
    9.0264    6.4968   86.4306 O   0  0  0  0  0  0  0  0  0  0  0  0
  2  1  1  6  0  0  0
  2  3  1  0  0  0  0
  2  6  1  0  0  0  0
  3  4  1  0  0  0  0
  3 16  1  0  0  0  0
  5 14  1  0  0  0  0
  6  7  1  0  0  0  0
  7  8  2  0  0  0  0
  7  9  1  0  0  0  0
  8 12  1  0  0  0  0
  9 10  2  0  0  0  0
  9 11  1  0  0  0  0
 10 13  1  0  0  0  0
 10 12  1  0  0  0  0
 11 14  2  0  0  0  0
 13 15  2  0  0  0  0
 14 15  1  0  0  0  0
M  END
>  <CHROM.1>
-85.54103352,-143.21253982,30.50550591,7.25241093,3.66107498,84.22034987
1.35206767,1.26252254,0.76004913

>  <Name>
ligand

>  <RI>
0

>  <Rbt.Current_Directory>
/home/itssahil/PROJECTS/Mol_Feturizer/Test_systems_manuscript/rnas/5kpy

>  <Rbt.Executable>
rbdock ($Id: //depot/dev/client3/rdock/2013.1/src/exe/rbdock.cxx#4 $)

>  <Rbt.Library>
libRbt.so (2013.1, Build901 2013/11/27)

>  <Rbt.Parameter_File>
/export/apps/rDock/src/rDock_2013.1_src/data/scripts/dock_solv.prm

>  <Rbt.Receptor>
prm/pocket_docking_2.prm

>  <SCORE>
-16.9931

>  <SCORE.INTER>
-18.86

>  <SCORE.INTER.CONST>
1

>  <SCORE.INTER.POLAR>
0

>  <SCORE.INTER.ROT>
3

>  <SCORE.INTER.SOLV>
4.29546

>  <SCORE.INTER.VDW>
-19.6051

>  <SCORE.INTER.norm>
-1.17875

>  <SCORE.INTRA>
1.86683

>  <SCORE.INTRA.DIHEDRAL>
3.69348

>  <SCORE.INTRA.DIHEDRAL.0>
3.89056

>  <SCORE.INTRA.POLAR>
0

>  <SCORE.INTRA.POLAR.0>
0

>  <SCORE.INTRA.REPUL>
0

>  <SCORE.INTRA.REPUL.0>
0

>  <SCORE.INTRA.SOLV>
-1.1483

>  <SCORE.INTRA.SOLV.lig_0>
-20.733

>  <SCORE.INTRA.VDW>
0.594236

>  <SCORE.INTRA.VDW.0>
-0.828515

>  <SCORE.INTRA.norm>
0.116677

>  <SCORE.RESTR>
0

>  <SCORE.RESTR.CAVITY>
0

>  <SCORE.RESTR.norm>
0

>  <SCORE.SYSTEM>
0

>  <SCORE.SYSTEM.CONST>
0

>  <SCORE.SYSTEM.DIHEDRAL>
0

>  <SCORE.SYSTEM.SOLV>
0

>  <SCORE.SYSTEM.norm>
0

>  <SCORE.heavy>
16

>  <SCORE.norm>
-1.06207

>  <RMSD>
1.371

$$$$
ligand
 OpenBabel02271912153D
libRbt.so/2013.1/901 2013/11/27
 16 17  0  0  0  0  0  0  0  0999 V2000
    8.4491    4.9428   82.7598 N   0  0  0  0  0  0  0  0  0  0  0  0
    7.5305    5.8318   83.3866 C   0  0  2  0  0  0  0  0  0  0  0  0
    8.1120    6.4606   84.6221 C   0  0  0  0  0  0  0  0  0  0  0  0
    7.9368    7.6861   84.8285 O   0  0  0  0  0  0  0  0  0  0  0  0
    7.1072    0.2681   81.0877 O   0  0  0  0  0  0  0  0  0  0  0  0
    6.2545    5.1126   83.7529 C   0  0  0  0  0  0  0  0  0  0  0  0
    6.4905    3.8546   84.5546 C   0  0  0  0  0  0  0  0  0  0  0  0
    6.5011    3.7743   85.8893 C   0  0  0  0  0  0  0  0  0  0  0  0
    6.7007    2.5947   83.9054 C   0  0  0  0  0  0  0  0  0  0  0  0
    6.8514    1.6732   84.9776 C   0  0  0  0  0  0  0  0  0  0  0  0
    6.7692    2.1508   82.6135 C   0  0  0  0  0  0  0  0  0  0  0  0
    6.7185    2.4665   86.1377 N   0  0  0  0  0  0  0  0  0  0  0  0
    7.0716    0.3623   84.7936 C   0  0  0  0  0  0  0  0  0  0  0  0
    7.0155    0.7606   82.3961 C   0  0  0  0  0  0  0  0  0  0  0  0
    7.1754   -0.1523   83.4978 C   0  0  0  0  0  0  0  0  0  0  0  0
    8.7754    5.7676   85.4219 O   0  0  0  0  0  0  0  0  0  0  0  0
  2  1  1  1  0  0  0
  2  3  1  0  0  0  0
  2  6  1  0  0  0  0
  3  4  1  0  0  0  0
  3 16  1  0  0  0  0
  5 14  1  0  0  0  0
  6  7  1  0  0  0  0
  7  8  2  0  0  0  0
  7  9  1  0  0  0  0
  8 12  1  0  0  0  0
  9 10  2  0  0  0  0
  9 11  1  0  0  0  0
 10 13  1  0  0  0  0
 10 12  1  0  0  0  0
 11 14  2  0  0  0  0
 13 15  2  0  0  0  0
 14 15  1  0  0  0  0
M  END
>  <CHROM.1>
136.77535109,52.20281826,92.71417802,7.25648552,3.45216290,84.02625244,-0.86433532
-1.33429648,-2.18057631

>  <Name>
ligand

>  <RI>
0

>  <Rbt.Current_Directory>
/home/itssahil/PROJECTS/Mol_Feturizer/Test_systems_manuscript/rnas/5kpy

>  <Rbt.Executable>
rbdock ($Id: //depot/dev/client3/rdock/2013.1/src/exe/rbdock.cxx#4 $)

>  <Rbt.Library>
libRbt.so (2013.1, Build901 2013/11/27)

>  <Rbt.Parameter_File>
/export/apps/rDock/src/rDock_2013.1_src/data/scripts/dock_solv.prm

>  <Rbt.Receptor>
prm/pocket_docking_8.prm

>  <SCORE>
-20.5294

>  <SCORE.INTER>
-20.0321

>  <SCORE.INTER.CONST>
1

>  <SCORE.INTER.POLAR>
0

>  <SCORE.INTER.ROT>
3

>  <SCORE.INTER.SOLV>
6.89168

>  <SCORE.INTER.VDW>
-21.2519

>  <SCORE.INTER.norm>
-1.252

>  <SCORE.INTRA>
-0.497333

>  <SCORE.INTRA.DIHEDRAL>
0.229003

>  <SCORE.INTRA.DIHEDRAL.0>
3.89056

>  <SCORE.INTRA.POLAR>
0

>  <SCORE.INTRA.POLAR.0>
0

>  <SCORE.INTRA.REPUL>
0

>  <SCORE.INTRA.REPUL.0>
0

>  <SCORE.INTRA.SOLV>
0.365001

>  <SCORE.INTRA.SOLV.lig_0>
-20.733

>  <SCORE.INTRA.VDW>
-0.794335

>  <SCORE.INTRA.VDW.0>
-0.828515

>  <SCORE.INTRA.norm>
-0.0310833

>  <SCORE.RESTR>
0

>  <SCORE.RESTR.CAVITY>
0

>  <SCORE.RESTR.norm>
0

>  <SCORE.SYSTEM>
0

>  <SCORE.SYSTEM.CONST>
0

>  <SCORE.SYSTEM.DIHEDRAL>
0

>  <SCORE.SYSTEM.SOLV>
0

>  <SCORE.SYSTEM.norm>
0

>  <SCORE.heavy>
16

>  <SCORE.norm>
-1.28309

>  <RMSD>
1.375

$$$$
ligand
 OpenBabel02271912153D
libRbt.so/2013.1/901 2013/11/27
 16 17  0  0  0  0  0  0  0  0999 V2000
    8.4206    4.9367   82.6848 N   0  0  0  0  0  0  0  0  0  0  0  0
    7.5267    5.8326   83.3371 C   0  0  2  0  0  0  0  0  0  0  0  0
    8.1496    6.4613   84.5522 C   0  0  0  0  0  0  0  0  0  0  0  0
    8.7768    5.7390   85.3647 O   0  0  0  0  0  0  0  0  0  0  0  0
    7.1555    0.2884   81.0732 O   0  0  0  0  0  0  0  0  0  0  0  0
    6.2586    5.1215   83.7446 C   0  0  0  0  0  0  0  0  0  0  0  0
    6.5123    3.8659   84.5446 C   0  0  0  0  0  0  0  0  0  0  0  0
    6.5292    3.7851   85.8792 C   0  0  0  0  0  0  0  0  0  0  0  0
    6.7341    2.6088   83.8939 C   0  0  0  0  0  0  0  0  0  0  0  0
    6.8997    1.6885   84.9649 C   0  0  0  0  0  0  0  0  0  0  0  0
    6.8024    2.1664   82.6015 C   0  0  0  0  0  0  0  0  0  0  0  0
    6.7624    2.4797   86.1260 N   0  0  0  0  0  0  0  0  0  0  0  0
    7.1339    0.3803   84.7793 C   0  0  0  0  0  0  0  0  0  0  0  0
    7.0636    0.7792   82.3822 C   0  0  0  0  0  0  0  0  0  0  0  0
    7.2383   -0.1325   83.4828 C   0  0  0  0  0  0  0  0  0  0  0  0
    8.0261    7.6879   84.7529 O   0  0  0  0  0  0  0  0  0  0  0  0
  2  1  1  1  0  0  0
  2  3  1  0  0  0  0
  2  6  1  0  0  0  0
  3  4  1  0  0  0  0
  3 16  1  0  0  0  0
  5 14  1  0  0  0  0
  6  7  1  0  0  0  0
  7  8  2  0  0  0  0
  7  9  1  0  0  0  0
  8 12  1  0  0  0  0
  9 10  2  0  0  0  0
  9 11  1  0  0  0  0
 10 13  1  0  0  0  0
 10 12  1  0  0  0  0
 11 14  2  0  0  0  0
 13 15  2  0  0  0  0
 14 15  1  0  0  0  0
M  END
>  <CHROM.1>
-45.97971927,52.32085729,94.48926896,7.28944331,3.45983607,83.99608583,-0.86262587
-1.33988910,-2.18582481

>  <Name>
ligand

>  <RI>
0

>  <Rbt.Current_Directory>
/home/itssahil/PROJECTS/Mol_Feturizer/Test_systems_manuscript/rnas/5kpy

>  <Rbt.Executable>
rbdock ($Id: //depot/dev/client3/rdock/2013.1/src/exe/rbdock.cxx#4 $)

>  <Rbt.Library>
libRbt.so (2013.1, Build901 2013/11/27)

>  <Rbt.Parameter_File>
/export/apps/rDock/src/rDock_2013.1_src/data/scripts/dock_solv.prm

>  <Rbt.Receptor>
prm/pocket_docking_3.prm

>  <SCORE>
-20.4736

>  <SCORE.INTER>
-19.9885

>  <SCORE.INTER.CONST>
1

>  <SCORE.INTER.POLAR>
0

>  <SCORE.INTER.ROT>
3

>  <SCORE.INTER.SOLV>
6.75936

>  <SCORE.INTER.VDW>
-21.1788

>  <SCORE.INTER.norm>
-1.24928

>  <SCORE.INTRA>
-0.485032

>  <SCORE.INTRA.DIHEDRAL>
0.174097

>  <SCORE.INTRA.DIHEDRAL.0>
3.89056

>  <SCORE.INTRA.POLAR>
0

>  <SCORE.INTRA.POLAR.0>
0

>  <SCORE.INTRA.REPUL>
0

>  <SCORE.INTRA.REPUL.0>
0

>  <SCORE.INTRA.SOLV>
0.39425

>  <SCORE.INTRA.SOLV.lig_0>
-20.733

>  <SCORE.INTRA.VDW>
-0.769205

>  <SCORE.INTRA.VDW.0>
-0.828515

>  <SCORE.INTRA.norm>
-0.0303145

>  <SCORE.RESTR>
0

>  <SCORE.RESTR.CAVITY>
0

>  <SCORE.RESTR.norm>
0

>  <SCORE.SYSTEM>
0

>  <SCORE.SYSTEM.CONST>
0

>  <SCORE.SYSTEM.DIHEDRAL>
0

>  <SCORE.SYSTEM.SOLV>
0

>  <SCORE.SYSTEM.norm>
0

>  <SCORE.heavy>
16

>  <SCORE.norm>
-1.2796

>  <RMSD>
1.394

$$$$
ligand
 OpenBabel02271912153D
libRbt.so/2013.1/901 2013/11/27
 16 17  0  0  0  0  0  0  0  0999 V2000
    5.9976    7.1330   85.2199 N   0  0  0  0  0  0  0  0  0  0  0  0
    6.6642    5.8929   85.4311 C   0  0  2  0  0  0  0  0  0  0  0  0
    8.1592    6.0498   85.4177 C   0  0  0  0  0  0  0  0  0  0  0  0
    8.7589    6.3145   86.4880 O   0  0  0  0  0  0  0  0  0  0  0  0
    7.2019    1.1053   80.3636 O   0  0  0  0  0  0  0  0  0  0  0  0
    6.2645    4.8844   84.3809 C   0  0  0  0  0  0  0  0  0  0  0  0
    6.6042    3.4631   84.7620 C   0  0  0  0  0  0  0  0  0  0  0  0
    6.6917    2.9933   86.0108 C   0  0  0  0  0  0  0  0  0  0  0  0
    6.8389    2.4665   83.7596 C   0  0  0  0  0  0  0  0  0  0  0  0
    7.0922    1.2809   84.5022 C   0  0  0  0  0  0  0  0  0  0  0  0
    6.8578    2.4289   82.3925 C   0  0  0  0  0  0  0  0  0  0  0  0
    6.9849    1.6866   85.8501 N   0  0  0  0  0  0  0  0  0  0  0  0
    7.3646    0.0990   83.9280 C   0  0  0  0  0  0  0  0  0  0  0  0
    7.1584    1.1830   81.7618 C   0  0  0  0  0  0  0  0  0  0  0  0
    7.4220   -0.0027   82.5348 C   0  0  0  0  0  0  0  0  0  0  0  0
    8.7894    5.9326   84.3457 O   0  0  0  0  0  0  0  0  0  0  0  0
  2  1  1  6  0  0  0
  2  3  1  0  0  0  0
  2  6  1  0  0  0  0
  3  4  1  0  0  0  0
  3 16  1  0  0  0  0
  5 14  1  0  0  0  0
  6  7  1  0  0  0  0
  7  8  2  0  0  0  0
  7  9  1  0  0  0  0
  8 12  1  0  0  0  0
  9 10  2  0  0  0  0
  9 11  1  0  0  0  0
 10 13  1  0  0  0  0
 10 12  1  0  0  0  0
 11 14  2  0  0  0  0
 13 15  2  0  0  0  0
 14 15  1  0  0  0  0
M  END
>  <CHROM.1>
88.84650820,-163.22942190,27.95151732,7.21474578,3.42001893,84.20341158,-0.71617887
-1.49326085,-1.75741357

>  <Name>
ligand

>  <RI>
0

>  <Rbt.Current_Directory>
/home/itssahil/PROJECTS/Mol_Feturizer/Test_systems_manuscript/rnas/5kpy

>  <Rbt.Executable>
rbdock ($Id: //depot/dev/client3/rdock/2013.1/src/exe/rbdock.cxx#4 $)

>  <Rbt.Library>
libRbt.so (2013.1, Build901 2013/11/27)

>  <Rbt.Parameter_File>
/export/apps/rDock/src/rDock_2013.1_src/data/scripts/dock_solv.prm

>  <Rbt.Receptor>
prm/pocket_docking_2.prm

>  <SCORE>
-19.1745

>  <SCORE.INTER>
-19.5898

>  <SCORE.INTER.CONST>
1

>  <SCORE.INTER.POLAR>
0

>  <SCORE.INTER.ROT>
3

>  <SCORE.INTER.SOLV>
5.02659

>  <SCORE.INTER.VDW>
-20.3354

>  <SCORE.INTER.norm>
-1.22436

>  <SCORE.INTRA>
0.381075

>  <SCORE.INTRA.DIHEDRAL>
0.772849

>  <SCORE.INTRA.DIHEDRAL.0>
3.89056

>  <SCORE.INTRA.POLAR>
0

>  <SCORE.INTRA.POLAR.0>
0

>  <SCORE.INTRA.REPUL>
0

>  <SCORE.INTRA.REPUL.0>
0

>  <SCORE.INTRA.SOLV>
-1.18912

>  <SCORE.INTRA.SOLV.lig_0>
-20.733

>  <SCORE.INTRA.VDW>
0.589212

>  <SCORE.INTRA.VDW.0>
-0.828515

>  <SCORE.INTRA.norm>
0.0238172

>  <SCORE.RESTR>
0.0341471

>  <SCORE.RESTR.CAVITY>
0.0341471

>  <SCORE.RESTR.norm>
0.00213419

>  <SCORE.SYSTEM>
0

>  <SCORE.SYSTEM.CONST>
0

>  <SCORE.SYSTEM.DIHEDRAL>
0

>  <SCORE.SYSTEM.SOLV>
0

>  <SCORE.SYSTEM.norm>
0

>  <SCORE.heavy>
16

>  <SCORE.norm>
-1.19841

>  <RMSD>
1.395

$$$$
ligand
 OpenBabel02271912153D
libRbt.so/2013.1/901 2013/11/27
 16 17  0  0  0  0  0  0  0  0999 V2000
    8.3771    4.9179   82.7366 N   0  0  0  0  0  0  0  0  0  0  0  0
    7.5219    5.8424   83.4005 C   0  0  2  0  0  0  0  0  0  0  0  0
    8.1908    6.4703   84.5914 C   0  0  0  0  0  0  0  0  0  0  0  0
    8.2288    7.7212   84.6862 O   0  0  0  0  0  0  0  0  0  0  0  0
    7.1590    0.3676   81.1218 O   0  0  0  0  0  0  0  0  0  0  0  0
    6.2484    5.1667   83.8492 C   0  0  0  0  0  0  0  0  0  0  0  0
    6.4926    3.9001   84.6346 C   0  0  0  0  0  0  0  0  0  0  0  0
    6.4979    3.8015   85.9681 C   0  0  0  0  0  0  0  0  0  0  0  0
    6.7177    2.6513   83.9693 C   0  0  0  0  0  0  0  0  0  0  0  0
    6.8722    1.7166   85.0293 C   0  0  0  0  0  0  0  0  0  0  0  0
    6.7963    2.2259   82.6717 C   0  0  0  0  0  0  0  0  0  0  0  0
    6.7264    2.4925   86.1996 N   0  0  0  0  0  0  0  0  0  0  0  0
    7.1055    0.4104   84.8284 C   0  0  0  0  0  0  0  0  0  0  0  0
    7.0567    0.8412   82.4364 C   0  0  0  0  0  0  0  0  0  0  0  0
    7.2201   -0.0853   83.5262 C   0  0  0  0  0  0  0  0  0  0  0  0
    8.7154    5.7482   85.4652 O   0  0  0  0  0  0  0  0  0  0  0  0
  2  1  1  1  0  0  0
  2  3  1  0  0  0  0
  2  6  1  0  0  0  0
  3  4  1  0  0  0  0
  3 16  1  0  0  0  0
  5 14  1  0  0  0  0
  6  7  1  0  0  0  0
  7  8  2  0  0  0  0
  7  9  1  0  0  0  0
  8 12  1  0  0  0  0
  9 10  2  0  0  0  0
  9 11  1  0  0  0  0
 10 13  1  0  0  0  0
 10 12  1  0  0  0  0
 11 14  2  0  0  0  0
 13 15  2  0  0  0  0
 14 15  1  0  0  0  0
M  END
>  <CHROM.1>
126.53002492,51.18690131,97.47948801,7.28772497,3.49095795,84.05420987,-0.86143697
-1.32131911,-2.19249507

>  <Name>
ligand

>  <RI>
0

>  <Rbt.Current_Directory>
/home/itssahil/PROJECTS/Mol_Feturizer/Test_systems_manuscript/rnas/5kpy

>  <Rbt.Executable>
rbdock ($Id: //depot/dev/client3/rdock/2013.1/src/exe/rbdock.cxx#4 $)

>  <Rbt.Library>
libRbt.so (2013.1, Build901 2013/11/27)

>  <Rbt.Parameter_File>
/export/apps/rDock/src/rDock_2013.1_src/data/scripts/dock_solv.prm

>  <Rbt.Receptor>
prm/pocket_docking_3.prm

>  <SCORE>
-20.544

>  <SCORE.INTER>
-20.2019

>  <SCORE.INTER.CONST>
1

>  <SCORE.INTER.POLAR>
0

>  <SCORE.INTER.ROT>
3

>  <SCORE.INTER.SOLV>
6.70112

>  <SCORE.INTER.VDW>
-21.3017

>  <SCORE.INTER.norm>
-1.26262

>  <SCORE.INTRA>
-0.342109

>  <SCORE.INTRA.DIHEDRAL>
0.276743

>  <SCORE.INTRA.DIHEDRAL.0>
3.89056

>  <SCORE.INTRA.POLAR>
0

>  <SCORE.INTRA.POLAR.0>
0

>  <SCORE.INTRA.REPUL>
0

>  <SCORE.INTRA.REPUL.0>
0

>  <SCORE.INTRA.SOLV>
0.466126

>  <SCORE.INTRA.SOLV.lig_0>
-20.733

>  <SCORE.INTRA.VDW>
-0.713543

>  <SCORE.INTRA.VDW.0>
-0.828515

>  <SCORE.INTRA.norm>
-0.0213818

>  <SCORE.RESTR>
0

>  <SCORE.RESTR.CAVITY>
0

>  <SCORE.RESTR.norm>
0

>  <SCORE.SYSTEM>
0

>  <SCORE.SYSTEM.CONST>
0

>  <SCORE.SYSTEM.DIHEDRAL>
0

>  <SCORE.SYSTEM.SOLV>
0

>  <SCORE.SYSTEM.norm>
0

>  <SCORE.heavy>
16

>  <SCORE.norm>
-1.284

>  <RMSD>
1.415

$$$$
ligand
 OpenBabel02271912153D
libRbt.so/2013.1/901 2013/11/27
 16 17  0  0  0  0  0  0  0  0999 V2000
    8.4586    4.8425   82.6954 N   0  0  0  0  0  0  0  0  0  0  0  0
    7.6007    5.8001   83.3069 C   0  0  2  0  0  0  0  0  0  0  0  0
    8.2557    6.4711   84.4819 C   0  0  0  0  0  0  0  0  0  0  0  0
    8.7563    5.7661   85.3916 O   0  0  0  0  0  0  0  0  0  0  0  0
    7.2197    0.3400   81.0579 O   0  0  0  0  0  0  0  0  0  0  0  0
    6.3145    5.1533   83.7620 C   0  0  0  0  0  0  0  0  0  0  0  0
    6.5343    3.8860   84.5534 C   0  0  0  0  0  0  0  0  0  0  0  0
    6.5181    3.7901   85.8870 C   0  0  0  0  0  0  0  0  0  0  0  0
    6.7572    2.6337   83.8939 C   0  0  0  0  0  0  0  0  0  0  0  0
    6.8863    1.6997   84.9580 C   0  0  0  0  0  0  0  0  0  0  0  0
    6.8515    2.2049   82.5986 C   0  0  0  0  0  0  0  0  0  0  0  0
    6.7302    2.4794   86.1244 N   0  0  0  0  0  0  0  0  0  0  0  0
    7.1099    0.3909   84.7632 C   0  0  0  0  0  0  0  0  0  0  0  0
    7.1019    0.8172   82.3698 C   0  0  0  0  0  0  0  0  0  0  0  0
    7.2395   -0.1086   83.4638 C   0  0  0  0  0  0  0  0  0  0  0  0
    8.2831    7.7178   84.5531 O   0  0  0  0  0  0  0  0  0  0  0  0
  2  1  1  1  0  0  0
  2  3  1  0  0  0  0
  2  6  1  0  0  0  0
  3  4  1  0  0  0  0
  3 16  1  0  0  0  0
  5 14  1  0  0  0  0
  6  7  1  0  0  0  0
  7  8  2  0  0  0  0
  7  9  1  0  0  0  0
  8 12  1  0  0  0  0
  9 10  2  0  0  0  0
  9 11  1  0  0  0  0
 10 13  1  0  0  0  0
 10 12  1  0  0  0  0
 11 14  2  0  0  0  0
 13 15  2  0  0  0  0
 14 15  1  0  0  0  0
M  END
>  <CHROM.1>
-52.74390507,48.76742848,98.68408493,7.33178573,3.47224551,83.97541156,-0.89437304
-1.30392764,-2.23438946

>  <Name>
ligand

>  <RI>
0

>  <Rbt.Current_Directory>
/home/itssahil/PROJECTS/Mol_Feturizer/Test_systems_manuscript/rnas/5kpy

>  <Rbt.Executable>
rbdock ($Id: //depot/dev/client3/rdock/2013.1/src/exe/rbdock.cxx#4 $)

>  <Rbt.Library>
libRbt.so (2013.1, Build901 2013/11/27)

>  <Rbt.Parameter_File>
/export/apps/rDock/src/rDock_2013.1_src/data/scripts/dock_solv.prm

>  <Rbt.Receptor>
prm/pocket_docking_3.prm

>  <SCORE>
-20.5475

>  <SCORE.INTER>
-20.3398

>  <SCORE.INTER.CONST>
1

>  <SCORE.INTER.POLAR>
0

>  <SCORE.INTER.ROT>
3

>  <SCORE.INTER.SOLV>
6.84648

>  <SCORE.INTER.VDW>
-21.442

>  <SCORE.INTER.norm>
-1.27124

>  <SCORE.INTRA>
-0.207784

>  <SCORE.INTRA.DIHEDRAL>
0.439864

>  <SCORE.INTRA.DIHEDRAL.0>
3.89056

>  <SCORE.INTRA.POLAR>
0

>  <SCORE.INTRA.POLAR.0>
0

>  <SCORE.INTRA.REPUL>
0

>  <SCORE.INTRA.REPUL.0>
0

>  <SCORE.INTRA.SOLV>
0.522583

>  <SCORE.INTRA.SOLV.lig_0>
-20.733

>  <SCORE.INTRA.VDW>
-0.689007

>  <SCORE.INTRA.VDW.0>
-0.828515

>  <SCORE.INTRA.norm>
-0.0129865

>  <SCORE.RESTR>
0

>  <SCORE.RESTR.CAVITY>
0

>  <SCORE.RESTR.norm>
0

>  <SCORE.SYSTEM>
0

>  <SCORE.SYSTEM.CONST>
0

>  <SCORE.SYSTEM.DIHEDRAL>
0

>  <SCORE.SYSTEM.SOLV>
0

>  <SCORE.SYSTEM.norm>
0

>  <SCORE.heavy>
16

>  <SCORE.norm>
-1.28422

>  <RMSD>
1.433

$$$$
ligand
 OpenBabel02271912153D
libRbt.so/2013.1/901 2013/11/27
 16 17  0  0  0  0  0  0  0  0999 V2000
    8.4839    4.8887   82.6774 N   0  0  0  0  0  0  0  0  0  0  0  0
    7.6219    5.8286   83.3102 C   0  0  2  0  0  0  0  0  0  0  0  0
    8.2730    6.4736   84.5018 C   0  0  0  0  0  0  0  0  0  0  0  0
    8.7760    5.7488   85.3945 O   0  0  0  0  0  0  0  0  0  0  0  0
    7.1629    0.3198   81.0788 O   0  0  0  0  0  0  0  0  0  0  0  0
    6.3372    5.1669   83.7478 C   0  0  0  0  0  0  0  0  0  0  0  0
    6.5610    3.9061   84.5485 C   0  0  0  0  0  0  0  0  0  0  0  0
    6.5663    3.8239   85.8832 C   0  0  0  0  0  0  0  0  0  0  0  0
    6.7640    2.6456   83.8984 C   0  0  0  0  0  0  0  0  0  0  0  0
    6.9040    1.7215   84.9698 C   0  0  0  0  0  0  0  0  0  0  0  0
    6.8337    2.2029   82.6061 C   0  0  0  0  0  0  0  0  0  0  0  0
    6.7730    2.5142   86.1305 N   0  0  0  0  0  0  0  0  0  0  0  0
    7.1150    0.4092   84.7847 C   0  0  0  0  0  0  0  0  0  0  0  0
    7.0703    0.8112   82.3876 C   0  0  0  0  0  0  0  0  0  0  0  0
    7.2194   -0.1044   83.4886 C   0  0  0  0  0  0  0  0  0  0  0  0
    8.2948    7.7183   84.6035 O   0  0  0  0  0  0  0  0  0  0  0  0
  2  1  1  1  0  0  0
  2  3  1  0  0  0  0
  2  6  1  0  0  0  0
  3  4  1  0  0  0  0
  3 16  1  0  0  0  0
  5 14  1  0  0  0  0
  6  7  1  0  0  0  0
  7  8  2  0  0  0  0
  7  9  1  0  0  0  0
  8 12  1  0  0  0  0
  9 10  2  0  0  0  0
  9 11  1  0  0  0  0
 10 13  1  0  0  0  0
 10 12  1  0  0  0  0
 11 14  2  0  0  0  0
 13 15  2  0  0  0  0
 14 15  1  0  0  0  0
M  END
>  <CHROM.1>
-52.66438862,50.67385357,96.46209407,7.34015434,3.48344491,83.98516220,-0.83194207
-1.31350411,-2.16973921

>  <Name>
ligand

>  <RI>
0

>  <Rbt.Current_Directory>
/home/itssahil/PROJECTS/Mol_Feturizer/Test_systems_manuscript/rnas/5kpy

>  <Rbt.Executable>
rbdock ($Id: //depot/dev/client3/rdock/2013.1/src/exe/rbdock.cxx#4 $)

>  <Rbt.Library>
libRbt.so (2013.1, Build901 2013/11/27)

>  <Rbt.Parameter_File>
/export/apps/rDock/src/rDock_2013.1_src/data/scripts/dock_solv.prm

>  <Rbt.Receptor>
prm/pocket_docking_3.prm

>  <SCORE>
-20.4991

>  <SCORE.INTER>
-20.178

>  <SCORE.INTER.CONST>
1

>  <SCORE.INTER.POLAR>
0

>  <SCORE.INTER.ROT>
3

>  <SCORE.INTER.SOLV>
6.84288

>  <SCORE.INTER.VDW>
-21.333

>  <SCORE.INTER.norm>
-1.26113

>  <SCORE.INTRA>
-0.321068

>  <SCORE.INTRA.DIHEDRAL>
0.291878

>  <SCORE.INTRA.DIHEDRAL.0>
3.89056

>  <SCORE.INTRA.POLAR>
0

>  <SCORE.INTRA.POLAR.0>
0

>  <SCORE.INTRA.REPUL>
0

>  <SCORE.INTRA.REPUL.0>
0

>  <SCORE.INTRA.SOLV>
0.453034

>  <SCORE.INTRA.SOLV.lig_0>
-20.733

>  <SCORE.INTRA.VDW>
-0.693524

>  <SCORE.INTRA.VDW.0>
-0.828515

>  <SCORE.INTRA.norm>
-0.0200667

>  <SCORE.RESTR>
0

>  <SCORE.RESTR.CAVITY>
0

>  <SCORE.RESTR.norm>
0

>  <SCORE.SYSTEM>
0

>  <SCORE.SYSTEM.CONST>
0

>  <SCORE.SYSTEM.DIHEDRAL>
0

>  <SCORE.SYSTEM.SOLV>
0

>  <SCORE.SYSTEM.norm>
0

>  <SCORE.heavy>
16

>  <SCORE.norm>
-1.28119

>  <RMSD>
1.441

$$$$
ligand
 OpenBabel02271912153D
libRbt.so/2013.1/901 2013/11/27
 16 17  0  0  0  0  0  0  0  0999 V2000
    6.6934    5.7288   86.8325 N   0  0  0  0  0  0  0  0  0  0  0  0
    7.5048    5.4166   85.7050 C   0  0  2  0  0  0  0  0  0  0  0  0
    8.2972    6.6054   85.2373 C   0  0  0  0  0  0  0  0  0  0  0  0
    8.5009    7.5580   86.0288 O   0  0  0  0  0  0  0  0  0  0  0  0
    8.2303    2.0422   80.0202 O   0  0  0  0  0  0  0  0  0  0  0  0
    6.6600    4.9063   84.5623 C   0  0  0  0  0  0  0  0  0  0  0  0
    6.5252    3.4022   84.5485 C   0  0  0  0  0  0  0  0  0  0  0  0
    6.0345    2.6569   85.5444 C   0  0  0  0  0  0  0  0  0  0  0  0
    6.9064    2.6378   83.3982 C   0  0  0  0  0  0  0  0  0  0  0  0
    6.6065    1.2957   83.7588 C   0  0  0  0  0  0  0  0  0  0  0  0
    7.4315    2.9086   82.1646 C   0  0  0  0  0  0  0  0  0  0  0  0
    6.0861    1.3964   85.0672 N   0  0  0  0  0  0  0  0  0  0  0  0
    6.8216    0.2510   82.9444 C   0  0  0  0  0  0  0  0  0  0  0  0
    7.6798    1.8089   81.2873 C   0  0  0  0  0  0  0  0  0  0  0  0
    7.3777    0.4566   81.6783 C   0  0  0  0  0  0  0  0  0  0  0  0
    8.7314    6.6448   84.0668 O   0  0  0  0  0  0  0  0  0  0  0  0
  2  1  1  1  0  0  0
  2  3  1  0  0  0  0
  2  6  1  0  0  0  0
  3  4  1  0  0  0  0
  3 16  1  0  0  0  0
  5 14  1  0  0  0  0
  6  7  1  0  0  0  0
  7  8  2  0  0  0  0
  7  9  1  0  0  0  0
  8 12  1  0  0  0  0
  9 10  2  0  0  0  0
  9 11  1  0  0  0  0
 10 13  1  0  0  0  0
 10 12  1  0  0  0  0
 11 14  2  0  0  0  0
 13 15  2  0  0  0  0
 14 15  1  0  0  0  0
M  END
>  <CHROM.1>
20.81252709,-92.34552342,57.80777824,7.30440856,3.61615121,83.94906092,1.39468360
1.01098976,0.76251429

>  <Name>
ligand

>  <RI>
0

>  <Rbt.Current_Directory>
/home/itssahil/PROJECTS/Mol_Feturizer/Test_systems_manuscript/rnas/5kpy

>  <Rbt.Executable>
rbdock ($Id: //depot/dev/client3/rdock/2013.1/src/exe/rbdock.cxx#4 $)

>  <Rbt.Library>
libRbt.so (2013.1, Build901 2013/11/27)

>  <Rbt.Parameter_File>
/export/apps/rDock/src/rDock_2013.1_src/data/scripts/dock_solv.prm

>  <Rbt.Receptor>
prm/pocket_docking_2.prm

>  <SCORE>
-16.3585

>  <SCORE.INTER>
-18.3447

>  <SCORE.INTER.CONST>
1

>  <SCORE.INTER.POLAR>
0

>  <SCORE.INTER.ROT>
3

>  <SCORE.INTER.SOLV>
5.35887

>  <SCORE.INTER.VDW>
-19.6161

>  <SCORE.INTER.norm>
-1.14654

>  <SCORE.INTRA>
1.98622

>  <SCORE.INTRA.DIHEDRAL>
3.1743

>  <SCORE.INTRA.DIHEDRAL.0>
3.89056

>  <SCORE.INTRA.POLAR>
0

>  <SCORE.INTRA.POLAR.0>
0

>  <SCORE.INTRA.REPUL>
0

>  <SCORE.INTRA.REPUL.0>
0

>  <SCORE.INTRA.SOLV>
-0.501164

>  <SCORE.INTRA.SOLV.lig_0>
-20.733

>  <SCORE.INTRA.VDW>
0.649655

>  <SCORE.INTRA.VDW.0>
-0.828515

>  <SCORE.INTRA.norm>
0.124139

>  <SCORE.RESTR>
0

>  <SCORE.RESTR.CAVITY>
0

>  <SCORE.RESTR.norm>
0

>  <SCORE.SYSTEM>
0

>  <SCORE.SYSTEM.CONST>
0

>  <SCORE.SYSTEM.DIHEDRAL>
0

>  <SCORE.SYSTEM.SOLV>
0

>  <SCORE.SYSTEM.norm>
0

>  <SCORE.heavy>
16

>  <SCORE.norm>
-1.02241

>  <RMSD>
1.448

$$$$
ligand
 OpenBabel02271912153D
libRbt.so/2013.1/901 2013/11/27
 16 17  0  0  0  0  0  0  0  0999 V2000
    8.3098    4.7982   82.6010 N   0  0  0  0  0  0  0  0  0  0  0  0
    7.4746    5.7337   83.2750 C   0  0  2  0  0  0  0  0  0  0  0  0
    8.1723    6.3670   84.4463 C   0  0  0  0  0  0  0  0  0  0  0  0
    8.6321    5.6354   85.3566 O   0  0  0  0  0  0  0  0  0  0  0  0
    7.1807    0.2665   81.0584 O   0  0  0  0  0  0  0  0  0  0  0  0
    6.2065    5.0700   83.7559 C   0  0  0  0  0  0  0  0  0  0  0  0
    6.4594    3.8100   84.5492 C   0  0  0  0  0  0  0  0  0  0  0  0
    6.4584    3.7183   85.8832 C   0  0  0  0  0  0  0  0  0  0  0  0
    6.7007    2.5601   83.8916 C   0  0  0  0  0  0  0  0  0  0  0  0
    6.8590    1.6325   84.9573 C   0  0  0  0  0  0  0  0  0  0  0  0
    6.7907    2.1289   82.5967 C   0  0  0  0  0  0  0  0  0  0  0  0
    6.6989    2.4129   86.1227 N   0  0  0  0  0  0  0  0  0  0  0  0
    7.1066    0.3277   84.7644 C   0  0  0  0  0  0  0  0  0  0  0  0
    7.0664    0.7457   82.3699 C   0  0  0  0  0  0  0  0  0  0  0  0
    7.2333   -0.1735   83.4654 C   0  0  0  0  0  0  0  0  0  0  0  0
    8.2751    7.6099   84.5141 O   0  0  0  0  0  0  0  0  0  0  0  0
  2  1  1  1  0  0  0
  2  3  1  0  0  0  0
  2  6  1  0  0  0  0
  3  4  1  0  0  0  0
  3 16  1  0  0  0  0
  5 14  1  0  0  0  0
  6  7  1  0  0  0  0
  7  8  2  0  0  0  0
  7  9  1  0  0  0  0
  8 12  1  0  0  0  0
  9 10  2  0  0  0  0
  9 11  1  0  0  0  0
 10 13  1  0  0  0  0
 10 12  1  0  0  0  0
 11 14  2  0  0  0  0
 13 15  2  0  0  0  0
 14 15  1  0  0  0  0
M  END
>  <CHROM.1>
-57.26721236,51.31470440,99.22045428,7.26871301,3.39360497,83.95851021,-0.89112325
-1.31963455,-2.23461069

>  <Name>
ligand

>  <RI>
0

>  <Rbt.Current_Directory>
/home/itssahil/PROJECTS/Mol_Feturizer/Test_systems_manuscript/rnas/5kpy

>  <Rbt.Executable>
rbdock ($Id: //depot/dev/client3/rdock/2013.1/src/exe/rbdock.cxx#4 $)

>  <Rbt.Library>
libRbt.so (2013.1, Build901 2013/11/27)

>  <Rbt.Parameter_File>
/export/apps/rDock/src/rDock_2013.1_src/data/scripts/dock_solv.prm

>  <Rbt.Receptor>
prm/pocket_docking_5.prm

>  <SCORE>
-20.4277

>  <SCORE.INTER>
-20.1643

>  <SCORE.INTER.CONST>
1

>  <SCORE.INTER.POLAR>
0

>  <SCORE.INTER.ROT>
3

>  <SCORE.INTER.SOLV>
6.62366

>  <SCORE.INTER.VDW>
-21.2507

>  <SCORE.INTER.norm>
-1.26027

>  <SCORE.INTRA>
-0.263418

>  <SCORE.INTRA.DIHEDRAL>
0.249642

>  <SCORE.INTRA.DIHEDRAL.0>
3.89056

>  <SCORE.INTRA.POLAR>
0

>  <SCORE.INTRA.POLAR.0>
0

>  <SCORE.INTRA.REPUL>
0

>  <SCORE.INTRA.REPUL.0>
0

>  <SCORE.INTRA.SOLV>
0.492082

>  <SCORE.INTRA.SOLV.lig_0>
-20.733

>  <SCORE.INTRA.VDW>
-0.634281

>  <SCORE.INTRA.VDW.0>
-0.828515

>  <SCORE.INTRA.norm>
-0.0164637

>  <SCORE.RESTR>
0

>  <SCORE.RESTR.CAVITY>
0

>  <SCORE.RESTR.norm>
0

>  <SCORE.SYSTEM>
0

>  <SCORE.SYSTEM.CONST>
0

>  <SCORE.SYSTEM.DIHEDRAL>
0

>  <SCORE.SYSTEM.SOLV>
0

>  <SCORE.SYSTEM.norm>
0

>  <SCORE.heavy>
16

>  <SCORE.norm>
-1.27673

>  <RMSD>
1.455

$$$$
ligand
 OpenBabel02271912153D
libRbt.so/2013.1/901 2013/11/27
 16 17  0  0  0  0  0  0  0  0999 V2000
    8.3284    4.8528   82.5974 N   0  0  0  0  0  0  0  0  0  0  0  0
    7.5164    5.7972   83.2872 C   0  0  2  0  0  0  0  0  0  0  0  0
    8.2442    6.4248   84.4432 C   0  0  0  0  0  0  0  0  0  0  0  0
    8.7284    5.6887   85.3371 O   0  0  0  0  0  0  0  0  0  0  0  0
    7.1950    0.3477   81.0779 O   0  0  0  0  0  0  0  0  0  0  0  0
    6.2521    5.1464   83.7949 C   0  0  0  0  0  0  0  0  0  0  0  0
    6.5087    3.8840   84.5830 C   0  0  0  0  0  0  0  0  0  0  0  0
    6.5181    3.7890   85.9167 C   0  0  0  0  0  0  0  0  0  0  0  0
    6.7423    2.6353   83.9204 C   0  0  0  0  0  0  0  0  0  0  0  0
    6.9071    1.7047   84.9825 C   0  0  0  0  0  0  0  0  0  0  0  0
    6.8210    2.2071   82.6238 C   0  0  0  0  0  0  0  0  0  0  0  0
    6.7579    2.4826   86.1511 N   0  0  0  0  0  0  0  0  0  0  0  0
    7.1506    0.4000   84.7845 C   0  0  0  0  0  0  0  0  0  0  0  0
    7.0922    0.8239   82.3914 C   0  0  0  0  0  0  0  0  0  0  0  0
    7.2659   -0.0983   83.4833 C   0  0  0  0  0  0  0  0  0  0  0  0
    8.3477    7.6675   84.5150 O   0  0  0  0  0  0  0  0  0  0  0  0
  2  1  1  1  0  0  0
  2  3  1  0  0  0  0
  2  6  1  0  0  0  0
  3  4  1  0  0  0  0
  3 16  1  0  0  0  0
  5 14  1  0  0  0  0
  6  7  1  0  0  0  0
  7  8  2  0  0  0  0
  7  9  1  0  0  0  0
  8 12  1  0  0  0  0
  9 10  2  0  0  0  0
  9 11  1  0  0  0  0
 10 13  1  0  0  0  0
 10 12  1  0  0  0  0
 11 14  2  0  0  0  0
 13 15  2  0  0  0  0
 14 15  1  0  0  0  0
M  END
>  <CHROM.1>
-56.47164129,51.24772659,100.11660213,7.31630293,3.46259121,83.97521271,-0.85502054
-1.32035435,-2.20181492

>  <Name>
ligand

>  <RI>
0

>  <Rbt.Current_Directory>
/home/itssahil/PROJECTS/Mol_Feturizer/Test_systems_manuscript/rnas/5kpy

>  <Rbt.Executable>
rbdock ($Id: //depot/dev/client3/rdock/2013.1/src/exe/rbdock.cxx#4 $)

>  <Rbt.Library>
libRbt.so (2013.1, Build901 2013/11/27)

>  <Rbt.Parameter_File>
/export/apps/rDock/src/rDock_2013.1_src/data/scripts/dock_solv.prm

>  <Rbt.Receptor>
prm/pocket_docking_4.prm

>  <SCORE>
-20.5396

>  <SCORE.INTER>
-20.2702

>  <SCORE.INTER.CONST>
1

>  <SCORE.INTER.POLAR>
0

>  <SCORE.INTER.ROT>
3

>  <SCORE.INTER.SOLV>
6.54791

>  <SCORE.INTER.VDW>
-21.2961

>  <SCORE.INTER.norm>
-1.26689

>  <SCORE.INTRA>
-0.269421

>  <SCORE.INTRA.DIHEDRAL>
0.251091

>  <SCORE.INTRA.DIHEDRAL.0>
3.89056

>  <SCORE.INTRA.POLAR>
0

>  <SCORE.INTRA.POLAR.0>
0

>  <SCORE.INTRA.REPUL>
0

>  <SCORE.INTRA.REPUL.0>
0

>  <SCORE.INTRA.SOLV>
0.510041

>  <SCORE.INTRA.SOLV.lig_0>
-20.733

>  <SCORE.INTRA.VDW>
-0.649987

>  <SCORE.INTRA.VDW.0>
-0.828515

>  <SCORE.INTRA.norm>
-0.0168388

>  <SCORE.RESTR>
0

>  <SCORE.RESTR.CAVITY>
0

>  <SCORE.RESTR.norm>
0

>  <SCORE.SYSTEM>
0

>  <SCORE.SYSTEM.CONST>
0

>  <SCORE.SYSTEM.DIHEDRAL>
0

>  <SCORE.SYSTEM.SOLV>
0

>  <SCORE.SYSTEM.norm>
0

>  <SCORE.heavy>
16

>  <SCORE.norm>
-1.28373

>  <RMSD>
1.460

$$$$
ligand
 OpenBabel02271912153D
libRbt.so/2013.1/901 2013/11/27
 16 17  0  0  0  0  0  0  0  0999 V2000
    8.3609    4.8249   82.5964 N   0  0  0  0  0  0  0  0  0  0  0  0
    7.5319    5.7678   83.2678 C   0  0  2  0  0  0  0  0  0  0  0  0
    8.2345    6.4012   84.4361 C   0  0  0  0  0  0  0  0  0  0  0  0
    8.3332    7.6513   84.4897 O   0  0  0  0  0  0  0  0  0  0  0  0
    7.2500    0.2978   81.0818 O   0  0  0  0  0  0  0  0  0  0  0  0
    6.2605    5.1132   83.7524 C   0  0  0  0  0  0  0  0  0  0  0  0
    6.5068    3.8564   84.5527 C   0  0  0  0  0  0  0  0  0  0  0  0
    6.4964    3.7703   85.8870 C   0  0  0  0  0  0  0  0  0  0  0  0
    6.7519    2.6036   83.9019 C   0  0  0  0  0  0  0  0  0  0  0  0
    6.9020    1.6803   84.9726 C   0  0  0  0  0  0  0  0  0  0  0  0
    6.8506    2.1669   82.6095 C   0  0  0  0  0  0  0  0  0  0  0  0
    6.7344    2.4657   86.1336 N   0  0  0  0  0  0  0  0  0  0  0  0
    7.1501    0.3746   84.7869 C   0  0  0  0  0  0  0  0  0  0  0  0
    7.1270    0.7826   82.3905 C   0  0  0  0  0  0  0  0  0  0  0  0
    7.2855   -0.1321   83.4909 C   0  0  0  0  0  0  0  0  0  0  0  0
    8.7267    5.6837   85.3322 O   0  0  0  0  0  0  0  0  0  0  0  0
  2  1  1  1  0  0  0
  2  3  1  0  0  0  0
  2  6  1  0  0  0  0
  3  4  1  0  0  0  0
  3 16  1  0  0  0  0
  5 14  1  0  0  0  0
  6  7  1  0  0  0  0
  7  8  2  0  0  0  0
  7  9  1  0  0  0  0
  8 12  1  0  0  0  0
  9 10  2  0  0  0  0
  9 11  1  0  0  0  0
 10 13  1  0  0  0  0
 10 12  1  0  0  0  0
 11 14  2  0  0  0  0
 13 15  2  0  0  0  0
 14 15  1  0  0  0  0
M  END
>  <CHROM.1>
123.89738882,51.44418933,99.70240410,7.32445609,3.43505270,83.96223907,-0.90442385
-1.31249269,-2.25559986

>  <Name>
ligand

>  <RI>
0

>  <Rbt.Current_Directory>
/home/itssahil/PROJECTS/Mol_Feturizer/Test_systems_manuscript/rnas/5kpy

>  <Rbt.Executable>
rbdock ($Id: //depot/dev/client3/rdock/2013.1/src/exe/rbdock.cxx#4 $)

>  <Rbt.Library>
libRbt.so (2013.1, Build901 2013/11/27)

>  <Rbt.Parameter_File>
/export/apps/rDock/src/rDock_2013.1_src/data/scripts/dock_solv.prm

>  <Rbt.Receptor>
prm/pocket_docking_4.prm

>  <SCORE>
-20.6295

>  <SCORE.INTER>
-20.3152

>  <SCORE.INTER.CONST>
1

>  <SCORE.INTER.POLAR>
0

>  <SCORE.INTER.ROT>
3

>  <SCORE.INTER.SOLV>
6.62966

>  <SCORE.INTER.VDW>
-21.3534

>  <SCORE.INTER.norm>
-1.2697

>  <SCORE.INTRA>
-0.314337

>  <SCORE.INTRA.DIHEDRAL>
0.250875

>  <SCORE.INTRA.DIHEDRAL.0>
3.89056

>  <SCORE.INTRA.POLAR>
0

>  <SCORE.INTRA.POLAR.0>
0

>  <SCORE.INTRA.REPUL>
0

>  <SCORE.INTRA.REPUL.0>
0

>  <SCORE.INTRA.SOLV>
0.502346

>  <SCORE.INTRA.SOLV.lig_0>
-20.733

>  <SCORE.INTRA.VDW>
-0.690947

>  <SCORE.INTRA.VDW.0>
-0.828515

>  <SCORE.INTRA.norm>
-0.019646

>  <SCORE.RESTR>
0

>  <SCORE.RESTR.CAVITY>
0

>  <SCORE.RESTR.norm>
0

>  <SCORE.SYSTEM>
0

>  <SCORE.SYSTEM.CONST>
0

>  <SCORE.SYSTEM.DIHEDRAL>
0

>  <SCORE.SYSTEM.SOLV>
0

>  <SCORE.SYSTEM.norm>
0

>  <SCORE.heavy>
16

>  <SCORE.norm>
-1.28935

>  <RMSD>
1.464

$$$$
ligand
 OpenBabel02271912153D
libRbt.so/2013.1/901 2013/11/27
 16 17  0  0  0  0  0  0  0  0999 V2000
    8.3346    4.7919   82.5794 N   0  0  0  0  0  0  0  0  0  0  0  0
    7.5231    5.7600   83.2362 C   0  0  2  0  0  0  0  0  0  0  0  0
    8.2455    6.4147   84.3804 C   0  0  0  0  0  0  0  0  0  0  0  0
    8.7059    5.7017   85.3051 O   0  0  0  0  0  0  0  0  0  0  0  0
    7.2366    0.3155   81.0799 O   0  0  0  0  0  0  0  0  0  0  0  0
    6.2505    5.1314   83.7510 C   0  0  0  0  0  0  0  0  0  0  0  0
    6.4906    3.8732   84.5511 C   0  0  0  0  0  0  0  0  0  0  0  0
    6.4752    3.7861   85.8853 C   0  0  0  0  0  0  0  0  0  0  0  0
    6.7346    2.6204   83.9002 C   0  0  0  0  0  0  0  0  0  0  0  0
    6.8783    1.6958   84.9706 C   0  0  0  0  0  0  0  0  0  0  0  0
    6.8367    2.1845   82.6078 C   0  0  0  0  0  0  0  0  0  0  0  0
    6.7087    2.4807   86.1317 N   0  0  0  0  0  0  0  0  0  0  0  0
    7.1236    0.3896   84.7847 C   0  0  0  0  0  0  0  0  0  0  0  0
    7.1101    0.7996   82.3886 C   0  0  0  0  0  0  0  0  0  0  0  0
    7.2622   -0.1164   83.4889 C   0  0  0  0  0  0  0  0  0  0  0  0
    8.3681    7.6573   84.4120 O   0  0  0  0  0  0  0  0  0  0  0  0
  2  1  1  1  0  0  0
  2  3  1  0  0  0  0
  2  6  1  0  0  0  0
  3  4  1  0  0  0  0
  3 16  1  0  0  0  0
  5 14  1  0  0  0  0
  6  7  1  0  0  0  0
  7  8  2  0  0  0  0
  7  9  1  0  0  0  0
  8 12  1  0  0  0  0
  9 10  2  0  0  0  0
  9 11  1  0  0  0  0
 10 13  1  0  0  0  0
 10 12  1  0  0  0  0
 11 14  2  0  0  0  0
 13 15  2  0  0  0  0
 14 15  1  0  0  0  0
M  END
>  <CHROM.1>
-57.18631246,50.02660162,101.44200326,7.31144450,3.44591916,83.94684465,-0.90635253
-1.30434979,-2.26657590

>  <Name>
ligand

>  <RI>
0

>  <Rbt.Current_Directory>
/home/itssahil/PROJECTS/Mol_Feturizer/Test_systems_manuscript/rnas/5kpy

>  <Rbt.Executable>
rbdock ($Id: //depot/dev/client3/rdock/2013.1/src/exe/rbdock.cxx#4 $)

>  <Rbt.Library>
libRbt.so (2013.1, Build901 2013/11/27)

>  <Rbt.Parameter_File>
/export/apps/rDock/src/rDock_2013.1_src/data/scripts/dock_solv.prm

>  <Rbt.Receptor>
prm/pocket_docking_4.prm

>  <SCORE>
-20.5508

>  <SCORE.INTER>
-20.3678

>  <SCORE.INTER.CONST>
1

>  <SCORE.INTER.POLAR>
0

>  <SCORE.INTER.ROT>
3

>  <SCORE.INTER.SOLV>
6.56372

>  <SCORE.INTER.VDW>
-21.3664

>  <SCORE.INTER.norm>
-1.27299

>  <SCORE.INTRA>
-0.182966

>  <SCORE.INTRA.DIHEDRAL>
0.338572

>  <SCORE.INTRA.DIHEDRAL.0>
3.89056

>  <SCORE.INTRA.POLAR>
0

>  <SCORE.INTRA.POLAR.0>
0

>  <SCORE.INTRA.REPUL>
0

>  <SCORE.INTRA.REPUL.0>
0

>  <SCORE.INTRA.SOLV>
0.552758

>  <SCORE.INTRA.SOLV.lig_0>
-20.733

>  <SCORE.INTRA.VDW>
-0.628631

>  <SCORE.INTRA.VDW.0>
-0.828515

>  <SCORE.INTRA.norm>
-0.0114354

>  <SCORE.RESTR>
0

>  <SCORE.RESTR.CAVITY>
0

>  <SCORE.RESTR.norm>
0

>  <SCORE.SYSTEM>
0

>  <SCORE.SYSTEM.CONST>
0

>  <SCORE.SYSTEM.DIHEDRAL>
0

>  <SCORE.SYSTEM.SOLV>
0

>  <SCORE.SYSTEM.norm>
0

>  <SCORE.heavy>
16

>  <SCORE.norm>
-1.28442

>  <RMSD>
1.482

$$$$
ligand
 OpenBabel02271912153D
libRbt.so/2013.1/901 2013/11/27
 16 17  0  0  0  0  0  0  0  0999 V2000
    6.5250    7.4640   83.9973 N   0  0  0  0  0  0  0  0  0  0  0  0
    6.7505    6.2689   84.7374 C   0  0  2  0  0  0  0  0  0  0  0  0
    8.2101    6.0548   85.0267 C   0  0  0  0  0  0  0  0  0  0  0  0
    8.6054    6.0451   86.2179 O   0  0  0  0  0  0  0  0  0  0  0  0
    7.1187    0.3899   81.0643 O   0  0  0  0  0  0  0  0  0  0  0  0
    6.2138    5.0694   83.9940 C   0  0  0  0  0  0  0  0  0  0  0  0
    6.4405    3.7672   84.7245 C   0  0  0  0  0  0  0  0  0  0  0  0
    6.4309    3.6092   86.0522 C   0  0  0  0  0  0  0  0  0  0  0  0
    6.6636    2.5476   84.0063 C   0  0  0  0  0  0  0  0  0  0  0  0
    6.8001    1.5654   85.0251 C   0  0  0  0  0  0  0  0  0  0  0  0
    6.7529    2.1799   82.6919 C   0  0  0  0  0  0  0  0  0  0  0  0
    6.6476    2.2894   86.2273 N   0  0  0  0  0  0  0  0  0  0  0  0
    7.0262    0.2677   84.7684 C   0  0  0  0  0  0  0  0  0  0  0  0
    7.0058    0.8051   82.3976 C   0  0  0  0  0  0  0  0  0  0  0  0
    7.1510   -0.1703   83.4466 C   0  0  0  0  0  0  0  0  0  0  0  0
    9.0175    5.9053   84.0856 O   0  0  0  0  0  0  0  0  0  0  0  0
  2  1  1  6  0  0  0
  2  3  1  0  0  0  0
  2  6  1  0  0  0  0
  3  4  1  0  0  0  0
  3 16  1  0  0  0  0
  5 14  1  0  0  0  0
  6  7  1  0  0  0  0
  7  8  2  0  0  0  0
  7  9  1  0  0  0  0
  8 12  1  0  0  0  0
  9 10  2  0  0  0  0
  9 11  1  0  0  0  0
 10 13  1  0  0  0  0
 10 12  1  0  0  0  0
 11 14  2  0  0  0  0
 13 15  2  0  0  0  0
 14 15  1  0  0  0  0
M  END
>  <CHROM.1>
116.98258282,179.26934361,33.87880787,7.13150291,3.47855171,84.26641877,-0.53481808
-1.44527839,-1.79129177

>  <Name>
ligand

>  <RI>
0

>  <Rbt.Current_Directory>
/home/itssahil/PROJECTS/Mol_Feturizer/Test_systems_manuscript/rnas/5kpy

>  <Rbt.Executable>
rbdock ($Id: //depot/dev/client3/rdock/2013.1/src/exe/rbdock.cxx#4 $)

>  <Rbt.Library>
libRbt.so (2013.1, Build901 2013/11/27)

>  <Rbt.Parameter_File>
/export/apps/rDock/src/rDock_2013.1_src/data/scripts/dock_solv.prm

>  <Rbt.Receptor>
prm/pocket_docking_2.prm

>  <SCORE>
-20.9562

>  <SCORE.INTER>
-20.7305

>  <SCORE.INTER.CONST>
1

>  <SCORE.INTER.POLAR>
0

>  <SCORE.INTER.ROT>
3

>  <SCORE.INTER.SOLV>
5.29683

>  <SCORE.INTER.VDW>
-21.186

>  <SCORE.INTER.norm>
-1.29566

>  <SCORE.INTRA>
-0.734751

>  <SCORE.INTRA.DIHEDRAL>
-0.219166

>  <SCORE.INTRA.DIHEDRAL.0>
3.89056

>  <SCORE.INTRA.POLAR>
0

>  <SCORE.INTRA.POLAR.0>
0

>  <SCORE.INTRA.REPUL>
0

>  <SCORE.INTRA.REPUL.0>
0

>  <SCORE.INTRA.SOLV>
-1.19808

>  <SCORE.INTRA.SOLV.lig_0>
-20.733

>  <SCORE.INTRA.VDW>
-0.0261305

>  <SCORE.INTRA.VDW.0>
-0.828515

>  <SCORE.INTRA.norm>
-0.045922

>  <SCORE.RESTR>
0.509083

>  <SCORE.RESTR.CAVITY>
0.509083

>  <SCORE.RESTR.norm>
0.0318177

>  <SCORE.SYSTEM>
0

>  <SCORE.SYSTEM.CONST>
0

>  <SCORE.SYSTEM.DIHEDRAL>
0

>  <SCORE.SYSTEM.SOLV>
0

>  <SCORE.SYSTEM.norm>
0

>  <SCORE.heavy>
16

>  <SCORE.norm>
-1.30976

>  <RMSD>
1.534

$$$$
ligand
 OpenBabel02271912153D
libRbt.so/2013.1/901 2013/11/27
 16 17  0  0  0  0  0  0  0  0999 V2000
    6.0202    7.1011   85.1423 N   0  0  0  0  0  0  0  0  0  0  0  0
    6.7969    5.9087   85.0985 C   0  0  2  0  0  0  0  0  0  0  0  0
    8.1401    6.1368   84.4631 C   0  0  0  0  0  0  0  0  0  0  0  0
    8.1977    6.5745   83.2882 O   0  0  0  0  0  0  0  0  0  0  0  0
    7.2558    1.0633   80.3715 O   0  0  0  0  0  0  0  0  0  0  0  0
    6.0702    4.8239   84.3403 C   0  0  0  0  0  0  0  0  0  0  0  0
    6.4976    3.4315   84.7395 C   0  0  0  0  0  0  0  0  0  0  0  0
    6.6107    2.9831   85.9941 C   0  0  0  0  0  0  0  0  0  0  0  0
    6.7976    2.4397   83.7499 C   0  0  0  0  0  0  0  0  0  0  0  0
    7.1228    1.2814   84.5074 C   0  0  0  0  0  0  0  0  0  0  0  0
    6.8230    2.3869   82.3834 C   0  0  0  0  0  0  0  0  0  0  0  0
    6.9861    1.6957   85.8500 N   0  0  0  0  0  0  0  0  0  0  0  0
    7.4708    0.1122   83.9483 C   0  0  0  0  0  0  0  0  0  0  0  0
    7.2033    1.1549   81.7686 C   0  0  0  0  0  0  0  0  0  0  0  0
    7.5387   -0.0025   82.5565 C   0  0  0  0  0  0  0  0  0  0  0  0
    9.1834    5.8756   85.0982 O   0  0  0  0  0  0  0  0  0  0  0  0
  2  1  1  6  0  0  0
  2  3  1  0  0  0  0
  2  6  1  0  0  0  0
  3  4  1  0  0  0  0
  3 16  1  0  0  0  0
  5 14  1  0  0  0  0
  6  7  1  0  0  0  0
  7  8  2  0  0  0  0
  7  9  1  0  0  0  0
  8 12  1  0  0  0  0
  9 10  2  0  0  0  0
  9 11  1  0  0  0  0
 10 13  1  0  0  0  0
 10 12  1  0  0  0  0
 11 14  2  0  0  0  0
 13 15  2  0  0  0  0
 14 15  1  0  0  0  0
M  END
>  <CHROM.1>
-58.63127166,-154.97638568,48.10692608,7.20388826,3.42550767,83.93569810
1.40412425,1.36157796,0.54839512

>  <Name>
ligand

>  <RI>
0

>  <Rbt.Current_Directory>
/home/itssahil/PROJECTS/Mol_Feturizer/Test_systems_manuscript/rnas/5kpy

>  <Rbt.Executable>
rbdock ($Id: //depot/dev/client3/rdock/2013.1/src/exe/rbdock.cxx#4 $)

>  <Rbt.Library>
libRbt.so (2013.1, Build901 2013/11/27)

>  <Rbt.Parameter_File>
/export/apps/rDock/src/rDock_2013.1_src/data/scripts/dock_solv.prm

>  <Rbt.Receptor>
prm/pocket_docking_2.prm

>  <SCORE>
-18.0001

>  <SCORE.INTER>
-18.1624

>  <SCORE.INTER.CONST>
1

>  <SCORE.INTER.POLAR>
0

>  <SCORE.INTER.ROT>
3

>  <SCORE.INTER.SOLV>
4.97388

>  <SCORE.INTER.VDW>
-19.3662

>  <SCORE.INTER.norm>
-1.13515

>  <SCORE.INTRA>
0.16121

>  <SCORE.INTRA.DIHEDRAL>
1.93423

>  <SCORE.INTRA.DIHEDRAL.0>
3.89056

>  <SCORE.INTRA.POLAR>
0

>  <SCORE.INTRA.POLAR.0>
0

>  <SCORE.INTRA.REPUL>
0

>  <SCORE.INTRA.REPUL.0>
0

>  <SCORE.INTRA.SOLV>
-1.17118

>  <SCORE.INTRA.SOLV.lig_0>
-20.733

>  <SCORE.INTRA.VDW>
-0.220317

>  <SCORE.INTRA.VDW.0>
-0.828515

>  <SCORE.INTRA.norm>
0.0100756

>  <SCORE.RESTR>
0.00108915

>  <SCORE.RESTR.CAVITY>
0.00108915

>  <SCORE.RESTR.norm>
6.80718e-05

>  <SCORE.SYSTEM>
0

>  <SCORE.SYSTEM.CONST>
0

>  <SCORE.SYSTEM.DIHEDRAL>
0

>  <SCORE.SYSTEM.SOLV>
0

>  <SCORE.SYSTEM.norm>
0

>  <SCORE.heavy>
16

>  <SCORE.norm>
-1.125

>  <RMSD>
1.541

$$$$
ligand
 OpenBabel02271912153D
libRbt.so/2013.1/901 2013/11/27
 16 17  0  0  0  0  0  0  0  0999 V2000
    6.0127    7.1723   85.1986 N   0  0  0  0  0  0  0  0  0  0  0  0
    6.7786    5.9725   85.1679 C   0  0  2  0  0  0  0  0  0  0  0  0
    8.1031    6.1695   84.4848 C   0  0  0  0  0  0  0  0  0  0  0  0
    9.1599    5.8856   85.0996 O   0  0  0  0  0  0  0  0  0  0  0  0
    7.3566    1.1738   80.4859 O   0  0  0  0  0  0  0  0  0  0  0  0
    6.0205    4.8712   84.4663 C   0  0  0  0  0  0  0  0  0  0  0  0
    6.4812    3.4881   84.8609 C   0  0  0  0  0  0  0  0  0  0  0  0
    6.5915    3.0338   86.1136 C   0  0  0  0  0  0  0  0  0  0  0  0
    6.8202    2.5122   83.8681 C   0  0  0  0  0  0  0  0  0  0  0  0
    7.1679    1.3577   84.6213 C   0  0  0  0  0  0  0  0  0  0  0  0
    6.8634    2.4702   82.5016 C   0  0  0  0  0  0  0  0  0  0  0  0
    7.0038    1.7582   85.9650 N   0  0  0  0  0  0  0  0  0  0  0  0
    7.5546    0.2026   84.0582 C   0  0  0  0  0  0  0  0  0  0  0  0
    7.2848    1.2536   81.8828 C   0  0  0  0  0  0  0  0  0  0  0  0
    7.6423    0.1001   82.6667 C   0  0  0  0  0  0  0  0  0  0  0  0
    8.1444    6.6268   83.3232 O   0  0  0  0  0  0  0  0  0  0  0  0
  2  1  1  6  0  0  0
  2  3  1  0  0  0  0
  2  6  1  0  0  0  0
  3  4  1  0  0  0  0
  3 16  1  0  0  0  0
  5 14  1  0  0  0  0
  6  7  1  0  0  0  0
  7  8  2  0  0  0  0
  7  9  1  0  0  0  0
  8 12  1  0  0  0  0
  9 10  2  0  0  0  0
  9 11  1  0  0  0  0
 10 13  1  0  0  0  0
 10 12  1  0  0  0  0
 11 14  2  0  0  0  0
 13 15  2  0  0  0  0
 14 15  1  0  0  0  0
M  END
>  <CHROM.1>
123.81777339,-156.90081221,52.30043103,7.21926707,3.49229895,84.02503213
1.51982684,1.34846278,0.42449066

>  <Name>
ligand

>  <RI>
0

>  <Rbt.Current_Directory>
/home/itssahil/PROJECTS/Mol_Feturizer/Test_systems_manuscript/rnas/5kpy

>  <Rbt.Executable>
rbdock ($Id: //depot/dev/client3/rdock/2013.1/src/exe/rbdock.cxx#4 $)

>  <Rbt.Library>
libRbt.so (2013.1, Build901 2013/11/27)

>  <Rbt.Parameter_File>
/export/apps/rDock/src/rDock_2013.1_src/data/scripts/dock_solv.prm

>  <Rbt.Receptor>
prm/pocket_docking_2.prm

>  <SCORE>
-17.9597

>  <SCORE.INTER>
-17.9776

>  <SCORE.INTER.CONST>
1

>  <SCORE.INTER.POLAR>
0

>  <SCORE.INTER.ROT>
3

>  <SCORE.INTER.SOLV>
4.76447

>  <SCORE.INTER.VDW>
-19.1732

>  <SCORE.INTER.norm>
-1.1236

>  <SCORE.INTRA>
-0.054395

>  <SCORE.INTRA.DIHEDRAL>
1.6815

>  <SCORE.INTRA.DIHEDRAL.0>
3.89056

>  <SCORE.INTRA.POLAR>
0

>  <SCORE.INTRA.POLAR.0>
0

>  <SCORE.INTRA.REPUL>
0

>  <SCORE.INTRA.REPUL.0>
0

>  <SCORE.INTRA.SOLV>
-1.17092

>  <SCORE.INTRA.SOLV.lig_0>
-20.733

>  <SCORE.INTRA.VDW>
-0.309683

>  <SCORE.INTRA.VDW.0>
-0.828515

>  <SCORE.INTRA.norm>
-0.00339969

>  <SCORE.RESTR>
0.0722811

>  <SCORE.RESTR.CAVITY>
0.0722811

>  <SCORE.RESTR.norm>
0.00451757

>  <SCORE.SYSTEM>
0

>  <SCORE.SYSTEM.CONST>
0

>  <SCORE.SYSTEM.DIHEDRAL>
0

>  <SCORE.SYSTEM.SOLV>
0

>  <SCORE.SYSTEM.norm>
0

>  <SCORE.heavy>
16

>  <SCORE.norm>
-1.12248

>  <RMSD>
1.542

$$$$
ligand
 OpenBabel02271912153D
libRbt.so/2013.1/901 2013/11/27
 16 17  0  0  0  0  0  0  0  0999 V2000
    6.5105    7.4610   83.9933 N   0  0  0  0  0  0  0  0  0  0  0  0
    6.7486    6.2666   84.7306 C   0  0  2  0  0  0  0  0  0  0  0  0
    8.2112    6.0626   85.0118 C   0  0  0  0  0  0  0  0  0  0  0  0
    9.0027    5.8885   84.0535 O   0  0  0  0  0  0  0  0  0  0  0  0
    7.1813    0.3778   81.0891 O   0  0  0  0  0  0  0  0  0  0  0  0
    6.2165    5.0642   83.9884 C   0  0  0  0  0  0  0  0  0  0  0  0
    6.4359    3.7652   84.7268 C   0  0  0  0  0  0  0  0  0  0  0  0
    6.4061    3.6116   86.0547 C   0  0  0  0  0  0  0  0  0  0  0  0
    6.6739    2.5439   84.0163 C   0  0  0  0  0  0  0  0  0  0  0  0
    6.7976    1.5655   85.0404 C   0  0  0  0  0  0  0  0  0  0  0  0
    6.7847    2.1721   82.7048 C   0  0  0  0  0  0  0  0  0  0  0  0
    6.6241    2.2931   86.2377 N   0  0  0  0  0  0  0  0  0  0  0  0
    7.0316    0.2677   84.7917 C   0  0  0  0  0  0  0  0  0  0  0  0
    7.0465    0.7971   82.4191 C   0  0  0  0  0  0  0  0  0  0  0  0
    7.1783   -0.1743   83.4735 C   0  0  0  0  0  0  0  0  0  0  0  0
    8.6245    6.0516   86.1904 O   0  0  0  0  0  0  0  0  0  0  0  0
  2  1  1  6  0  0  0
  2  3  1  0  0  0  0
  2  6  1  0  0  0  0
  3  4  1  0  0  0  0
  3 16  1  0  0  0  0
  5 14  1  0  0  0  0
  6  7  1  0  0  0  0
  7  8  2  0  0  0  0
  7  9  1  0  0  0  0
  8 12  1  0  0  0  0
  9 10  2  0  0  0  0
  9 11  1  0  0  0  0
 10 13  1  0  0  0  0
 10 12  1  0  0  0  0
 11 14  2  0  0  0  0
 13 15  2  0  0  0  0
 14 15  1  0  0  0  0
M  END
>  <CHROM.1>
-63.86254763,-179.76463833,34.37796572,7.13891907,3.47556568,84.26909607
-0.70547263,-1.43736314,-1.97027591

>  <Name>
ligand

>  <RI>
0

>  <Rbt.Current_Directory>
/home/itssahil/PROJECTS/Mol_Feturizer/Test_systems_manuscript/rnas/5kpy

>  <Rbt.Executable>
rbdock ($Id: //depot/dev/client3/rdock/2013.1/src/exe/rbdock.cxx#4 $)

>  <Rbt.Library>
libRbt.so (2013.1, Build901 2013/11/27)

>  <Rbt.Parameter_File>
/export/apps/rDock/src/rDock_2013.1_src/data/scripts/dock_solv.prm

>  <Rbt.Receptor>
prm/pocket_docking_2.prm

>  <SCORE>
-20.9537

>  <SCORE.INTER>
-20.7626

>  <SCORE.INTER.CONST>
1

>  <SCORE.INTER.POLAR>
0

>  <SCORE.INTER.ROT>
3

>  <SCORE.INTER.SOLV>
5.27632

>  <SCORE.INTER.VDW>
-21.2005

>  <SCORE.INTER.norm>
-1.29767

>  <SCORE.INTRA>
-0.720401

>  <SCORE.INTRA.DIHEDRAL>
-0.210603

>  <SCORE.INTRA.DIHEDRAL.0>
3.89056

>  <SCORE.INTRA.POLAR>
0

>  <SCORE.INTRA.POLAR.0>
0

>  <SCORE.INTRA.REPUL>
0

>  <SCORE.INTRA.REPUL.0>
0

>  <SCORE.INTRA.SOLV>
-1.20288

>  <SCORE.INTRA.SOLV.lig_0>
-20.733

>  <SCORE.INTRA.VDW>
-0.0136604

>  <SCORE.INTRA.VDW.0>
-0.828515

>  <SCORE.INTRA.norm>
-0.0450251

>  <SCORE.RESTR>
0.529396

>  <SCORE.RESTR.CAVITY>
0.529396

>  <SCORE.RESTR.norm>
0.0330873

>  <SCORE.SYSTEM>
0

>  <SCORE.SYSTEM.CONST>
0

>  <SCORE.SYSTEM.DIHEDRAL>
0

>  <SCORE.SYSTEM.SOLV>
0

>  <SCORE.SYSTEM.norm>
0

>  <SCORE.heavy>
16

>  <SCORE.norm>
-1.3096

>  <RMSD>
1.543

$$$$
ligand
 OpenBabel02271912153D
libRbt.so/2013.1/901 2013/11/27
 16 17  0  0  0  0  0  0  0  0999 V2000
    6.0041    7.1027   85.1975 N   0  0  0  0  0  0  0  0  0  0  0  0
    6.7876    5.9159   85.1286 C   0  0  2  0  0  0  0  0  0  0  0  0
    8.1232    6.1617   84.4838 C   0  0  0  0  0  0  0  0  0  0  0  0
    8.1669    6.6282   83.3195 O   0  0  0  0  0  0  0  0  0  0  0  0
    7.1269    1.0750   80.3611 O   0  0  0  0  0  0  0  0  0  0  0  0
    6.0603    4.8380   84.3613 C   0  0  0  0  0  0  0  0  0  0  0  0
    6.4871    3.4420   84.7486 C   0  0  0  0  0  0  0  0  0  0  0  0
    6.6261    2.9910   85.9997 C   0  0  0  0  0  0  0  0  0  0  0  0
    6.7570    2.4496   83.7510 C   0  0  0  0  0  0  0  0  0  0  0  0
    7.0915    1.2879   84.4992 C   0  0  0  0  0  0  0  0  0  0  0  0
    6.7502    2.3987   82.3842 C   0  0  0  0  0  0  0  0  0  0  0  0
    6.9890    1.7012   85.8452 N   0  0  0  0  0  0  0  0  0  0  0  0
    7.4183    0.1171   83.9306 C   0  0  0  0  0  0  0  0  0  0  0  0
    7.1075    1.1649   81.7591 C   0  0  0  0  0  0  0  0  0  0  0  0
    7.4529    0.0041   82.5375 C   0  0  0  0  0  0  0  0  0  0  0  0
    9.1740    5.8868   85.1006 O   0  0  0  0  0  0  0  0  0  0  0  0
  2  1  1  6  0  0  0
  2  3  1  0  0  0  0
  2  6  1  0  0  0  0
  3  4  1  0  0  0  0
  3 16  1  0  0  0  0
  5 14  1  0  0  0  0
  6  7  1  0  0  0  0
  7  8  2  0  0  0  0
  7  9  1  0  0  0  0
  8 12  1  0  0  0  0
  9 10  2  0  0  0  0
  9 11  1  0  0  0  0
 10 13  1  0  0  0  0
 10 12  1  0  0  0  0
 11 14  2  0  0  0  0
 13 15  2  0  0  0  0
 14 15  1  0  0  0  0
M  END
>  <CHROM.1>
-58.00876992,-154.22300806,46.67283834,7.16674262,3.43846370,83.94307476
1.31620514,1.38274710,0.64115874

>  <Name>
ligand

>  <RI>
0

>  <Rbt.Current_Directory>
/home/itssahil/PROJECTS/Mol_Feturizer/Test_systems_manuscript/rnas/5kpy

>  <Rbt.Executable>
rbdock ($Id: //depot/dev/client3/rdock/2013.1/src/exe/rbdock.cxx#4 $)

>  <Rbt.Library>
libRbt.so (2013.1, Build901 2013/11/27)

>  <Rbt.Parameter_File>
/export/apps/rDock/src/rDock_2013.1_src/data/scripts/dock_solv.prm

>  <Rbt.Receptor>
prm/pocket_docking_2.prm

>  <SCORE>
-18.0266

>  <SCORE.INTER>
-18.2556

>  <SCORE.INTER.CONST>
1

>  <SCORE.INTER.POLAR>
0

>  <SCORE.INTER.ROT>
3

>  <SCORE.INTER.SOLV>
4.95307

>  <SCORE.INTER.VDW>
-19.4214

>  <SCORE.INTER.norm>
-1.14097

>  <SCORE.INTRA>
0.225687

>  <SCORE.INTRA.DIHEDRAL>
2.03912

>  <SCORE.INTRA.DIHEDRAL.0>
3.89056

>  <SCORE.INTRA.POLAR>
0

>  <SCORE.INTRA.POLAR.0>
0

>  <SCORE.INTRA.REPUL>
0

>  <SCORE.INTRA.REPUL.0>
0

>  <SCORE.INTRA.SOLV>
-1.16909

>  <SCORE.INTRA.SOLV.lig_0>
-20.733

>  <SCORE.INTRA.VDW>
-0.20933

>  <SCORE.INTRA.VDW.0>
-0.828515

>  <SCORE.INTRA.norm>
0.0141054

>  <SCORE.RESTR>
0.00324309

>  <SCORE.RESTR.CAVITY>
0.00324309

>  <SCORE.RESTR.norm>
0.000202693

>  <SCORE.SYSTEM>
0

>  <SCORE.SYSTEM.CONST>
0

>  <SCORE.SYSTEM.DIHEDRAL>
0

>  <SCORE.SYSTEM.SOLV>
0

>  <SCORE.SYSTEM.norm>
0

>  <SCORE.heavy>
16

>  <SCORE.norm>
-1.12667

>  <RMSD>
1.543

$$$$
ligand
 OpenBabel02271912153D
libRbt.so/2013.1/901 2013/11/27
 16 17  0  0  0  0  0  0  0  0999 V2000
    5.9977    7.1034   85.1518 N   0  0  0  0  0  0  0  0  0  0  0  0
    6.7817    5.9161   85.0998 C   0  0  2  0  0  0  0  0  0  0  0  0
    8.1249    6.1576   84.4695 C   0  0  0  0  0  0  0  0  0  0  0  0
    8.1827    6.6204   83.3043 O   0  0  0  0  0  0  0  0  0  0  0  0
    7.1558    1.0395   80.3669 O   0  0  0  0  0  0  0  0  0  0  0  0
    6.0633    4.8334   84.3308 C   0  0  0  0  0  0  0  0  0  0  0  0
    6.4854    3.4399   84.7317 C   0  0  0  0  0  0  0  0  0  0  0  0
    6.6143    2.9981   85.9871 C   0  0  0  0  0  0  0  0  0  0  0  0
    6.7617    2.4398   83.7436 C   0  0  0  0  0  0  0  0  0  0  0  0
    7.0891    1.2833   84.5030 C   0  0  0  0  0  0  0  0  0  0  0  0
    6.7653    2.3787   82.3772 C   0  0  0  0  0  0  0  0  0  0  0  0
    6.9768    1.7067   85.8450 N   0  0  0  0  0  0  0  0  0  0  0  0
    7.4187    0.1079   83.9456 C   0  0  0  0  0  0  0  0  0  0  0  0
    7.1259    1.1399   81.7640 C   0  0  0  0  0  0  0  0  0  0  0  0
    7.4639   -0.0156   82.5537 C   0  0  0  0  0  0  0  0  0  0  0  0
    9.1682    5.8828   85.0990 O   0  0  0  0  0  0  0  0  0  0  0  0
  2  1  1  6  0  0  0
  2  3  1  0  0  0  0
  2  6  1  0  0  0  0
  3  4  1  0  0  0  0
  3 16  1  0  0  0  0
  5 14  1  0  0  0  0
  6  7  1  0  0  0  0
  7  8  2  0  0  0  0
  7  9  1  0  0  0  0
  8 12  1  0  0  0  0
  9 10  2  0  0  0  0
  9 11  1  0  0  0  0
 10 13  1  0  0  0  0
 10 12  1  0  0  0  0
 11 14  2  0  0  0  0
 13 15  2  0  0  0  0
 14 15  1  0  0  0  0
M  END
>  <CHROM.1>
-57.79999145,-154.23949420,46.41941472,7.17030468,3.43003270,83.93435616
1.33471578,1.37724740,0.61681022

>  <Name>
ligand

>  <RI>
0

>  <Rbt.Current_Directory>
/home/itssahil/PROJECTS/Mol_Feturizer/Test_systems_manuscript/rnas/5kpy

>  <Rbt.Executable>
rbdock ($Id: //depot/dev/client3/rdock/2013.1/src/exe/rbdock.cxx#4 $)

>  <Rbt.Library>
libRbt.so (2013.1, Build901 2013/11/27)

>  <Rbt.Parameter_File>
/export/apps/rDock/src/rDock_2013.1_src/data/scripts/dock_solv.prm

>  <Rbt.Receptor>
prm/pocket_docking_2.prm

>  <SCORE>
-18.0506

>  <SCORE.INTER>
-18.2796

>  <SCORE.INTER.CONST>
1

>  <SCORE.INTER.POLAR>
0

>  <SCORE.INTER.ROT>
3

>  <SCORE.INTER.SOLV>
4.97675

>  <SCORE.INTER.VDW>
-19.4453

>  <SCORE.INTER.norm>
-1.14248

>  <SCORE.INTRA>
0.22416

>  <SCORE.INTRA.DIHEDRAL>
2.03549

>  <SCORE.INTRA.DIHEDRAL.0>
3.89056

>  <SCORE.INTRA.POLAR>
0

>  <SCORE.INTRA.POLAR.0>
0

>  <SCORE.INTRA.REPUL>
0

>  <SCORE.INTRA.REPUL.0>
0

>  <SCORE.INTRA.SOLV>
-1.16901

>  <SCORE.INTRA.SOLV.lig_0>
-20.733

>  <SCORE.INTRA.VDW>
-0.209082

>  <SCORE.INTRA.VDW.0>
-0.828515

>  <SCORE.INTRA.norm>
0.01401

>  <SCORE.RESTR>
0.00481732

>  <SCORE.RESTR.CAVITY>
0.00481732

>  <SCORE.RESTR.norm>
0.000301083

>  <SCORE.SYSTEM>
0

>  <SCORE.SYSTEM.CONST>
0

>  <SCORE.SYSTEM.DIHEDRAL>
0

>  <SCORE.SYSTEM.SOLV>
0

>  <SCORE.SYSTEM.norm>
0

>  <SCORE.heavy>
16

>  <SCORE.norm>
-1.12817

>  <RMSD>
1.545

$$$$
ligand
 OpenBabel02271912153D
libRbt.so/2013.1/901 2013/11/27
 16 17  0  0  0  0  0  0  0  0999 V2000
    5.4436    7.3062   84.0382 N   0  0  0  0  0  0  0  0  0  0  0  0
    5.4181    6.0114   84.6299 C   0  0  2  0  0  0  0  0  0  0  0  0
    5.2516    6.0795   86.1223 C   0  0  0  0  0  0  0  0  0  0  0  0
    6.0368    6.7896   86.7965 O   0  0  0  0  0  0  0  0  0  0  0  0
    7.1853    0.9401   80.7783 O   0  0  0  0  0  0  0  0  0  0  0  0
    6.6824    5.2510   84.3086 C   0  0  0  0  0  0  0  0  0  0  0  0
    6.6824    3.8418   84.8515 C   0  0  0  0  0  0  0  0  0  0  0  0
    6.5534    3.5051   86.1391 C   0  0  0  0  0  0  0  0  0  0  0  0
    6.7975    2.7137   83.9755 C   0  0  0  0  0  0  0  0  0  0  0  0
    6.7285    1.5911   84.8451 C   0  0  0  0  0  0  0  0  0  0  0  0
    6.9358    2.5220   82.6284 C   0  0  0  0  0  0  0  0  0  0  0  0
    6.5825    2.1567   86.1303 N   0  0  0  0  0  0  0  0  0  0  0  0
    6.8019    0.3225   84.4137 C   0  0  0  0  0  0  0  0  0  0  0  0
    7.0285    1.1792   82.1499 C   0  0  0  0  0  0  0  0  0  0  0  0
    6.9667    0.0578   83.0508 C   0  0  0  0  0  0  0  0  0  0  0  0
    4.3491    5.4204   86.6803 O   0  0  0  0  0  0  0  0  0  0  0  0
  2  1  1  1  0  0  0
  2  3  1  0  0  0  0
  2  6  1  0  0  0  0
  3  4  1  0  0  0  0
  3 16  1  0  0  0  0
  5 14  1  0  0  0  0
  6  7  1  0  0  0  0
  7  8  2  0  0  0  0
  7  9  1  0  0  0  0
  8 12  1  0  0  0  0
  9 10  2  0  0  0  0
  9 11  1  0  0  0  0
 10 13  1  0  0  0  0
 10 12  1  0  0  0  0
 11 14  2  0  0  0  0
 13 15  2  0  0  0  0
 14 15  1  0  0  0  0
M  END
>  <CHROM.1>
-53.13167614,-177.05413317,-58.80302193,6.30555335,3.58431146,84.49784231
-3.07735286,-1.32352181,2.17138655

>  <Name>
ligand

>  <RI>
0

>  <Rbt.Current_Directory>
/home/itssahil/PROJECTS/Mol_Feturizer/Test_systems_manuscript/rnas/5kpy

>  <Rbt.Executable>
rbdock ($Id: //depot/dev/client3/rdock/2013.1/src/exe/rbdock.cxx#4 $)

>  <Rbt.Library>
libRbt.so (2013.1, Build901 2013/11/27)

>  <Rbt.Parameter_File>
/export/apps/rDock/src/rDock_2013.1_src/data/scripts/dock_solv.prm

>  <Rbt.Receptor>
prm/pocket_docking_8.prm

>  <SCORE>
-18.1886

>  <SCORE.INTER>
-17.5375

>  <SCORE.INTER.CONST>
1

>  <SCORE.INTER.POLAR>
0

>  <SCORE.INTER.ROT>
3

>  <SCORE.INTER.SOLV>
5.22966

>  <SCORE.INTER.VDW>
-19.0349

>  <SCORE.INTER.norm>
-1.09609

>  <SCORE.INTRA>
-0.651132

>  <SCORE.INTRA.DIHEDRAL>
-0.112866

>  <SCORE.INTRA.DIHEDRAL.0>
3.89056

>  <SCORE.INTRA.POLAR>
0

>  <SCORE.INTRA.POLAR.0>
0

>  <SCORE.INTRA.REPUL>
0

>  <SCORE.INTRA.REPUL.0>
0

>  <SCORE.INTRA.SOLV>
-1.19616

>  <SCORE.INTRA.SOLV.lig_0>
-20.733

>  <SCORE.INTRA.VDW>
0.00337958

>  <SCORE.INTRA.VDW.0>
-0.828515

>  <SCORE.INTRA.norm>
-0.0406958

>  <SCORE.RESTR>
0

>  <SCORE.RESTR.CAVITY>
0

>  <SCORE.RESTR.norm>
0

>  <SCORE.SYSTEM>
0

>  <SCORE.SYSTEM.CONST>
0

>  <SCORE.SYSTEM.DIHEDRAL>
0

>  <SCORE.SYSTEM.SOLV>
0

>  <SCORE.SYSTEM.norm>
0

>  <SCORE.heavy>
16

>  <SCORE.norm>
-1.13679

>  <RMSD>
1.548

$$$$
ligand
 OpenBabel02271912153D
libRbt.so/2013.1/901 2013/11/27
 16 17  0  0  0  0  0  0  0  0999 V2000
    6.0771    7.0980   85.2402 N   0  0  0  0  0  0  0  0  0  0  0  0
    6.8353    5.8946   85.1787 C   0  0  2  0  0  0  0  0  0  0  0  0
    8.1931    6.1170   84.5733 C   0  0  0  0  0  0  0  0  0  0  0  0
    8.9092    7.0561   84.9984 O   0  0  0  0  0  0  0  0  0  0  0  0
    7.2180    1.2025   80.2789 O   0  0  0  0  0  0  0  0  0  0  0  0
    6.1051    4.8419   84.3795 C   0  0  0  0  0  0  0  0  0  0  0  0
    6.5241    3.4337   84.7289 C   0  0  0  0  0  0  0  0  0  0  0  0
    6.6456    2.9438   85.9671 C   0  0  0  0  0  0  0  0  0  0  0  0
    6.8054    2.4721   83.7047 C   0  0  0  0  0  0  0  0  0  0  0  0
    7.1278    1.2870   84.4208 C   0  0  0  0  0  0  0  0  0  0  0  0
    6.8169    2.4636   82.3370 C   0  0  0  0  0  0  0  0  0  0  0  0
    7.0081    1.6585   85.7775 N   0  0  0  0  0  0  0  0  0  0  0  0
    7.4599    0.1337   83.8205 C   0  0  0  0  0  0  0  0  0  0  0  0
    7.1802    1.2490   81.6786 C   0  0  0  0  0  0  0  0  0  0  0  0
    7.5130    0.0638   82.4252 C   0  0  0  0  0  0  0  0  0  0  0  0
    8.5912    5.3809   83.6459 O   0  0  0  0  0  0  0  0  0  0  0  0
  2  1  1  6  0  0  0
  2  3  1  0  0  0  0
  2  6  1  0  0  0  0
  3  4  1  0  0  0  0
  3 16  1  0  0  0  0
  5 14  1  0  0  0  0
  6  7  1  0  0  0  0
  7  8  2  0  0  0  0
  7  9  1  0  0  0  0
  8 12  1  0  0  0  0
  9 10  2  0  0  0  0
  9 11  1  0  0  0  0
 10 13  1  0  0  0  0
 10 12  1  0  0  0  0
 11 14  2  0  0  0  0
 13 15  2  0  0  0  0
 14 15  1  0  0  0  0
M  END
>  <CHROM.1>
49.43010995,-156.18998276,47.31217547,7.22347681,3.44636387,83.93159980,1.38659555
1.29657415,0.60918887

>  <Name>
ligand

>  <RI>
0

>  <Rbt.Current_Directory>
/home/itssahil/PROJECTS/Mol_Feturizer/Test_systems_manuscript/rnas/5kpy

>  <Rbt.Executable>
rbdock ($Id: //depot/dev/client3/rdock/2013.1/src/exe/rbdock.cxx#4 $)

>  <Rbt.Library>
libRbt.so (2013.1, Build901 2013/11/27)

>  <Rbt.Parameter_File>
/export/apps/rDock/src/rDock_2013.1_src/data/scripts/dock_solv.prm

>  <Rbt.Receptor>
prm/pocket_docking_2.prm

>  <SCORE>
-17.7631

>  <SCORE.INTER>
-18.997

>  <SCORE.INTER.CONST>
1

>  <SCORE.INTER.POLAR>
0

>  <SCORE.INTER.ROT>
3

>  <SCORE.INTER.SOLV>
4.79288

>  <SCORE.INTER.VDW>
-19.8623

>  <SCORE.INTER.norm>
-1.18731

>  <SCORE.INTRA>
1.23389

>  <SCORE.INTRA.DIHEDRAL>
1.77482

>  <SCORE.INTRA.DIHEDRAL.0>
3.89056

>  <SCORE.INTRA.POLAR>
0

>  <SCORE.INTRA.POLAR.0>
0

>  <SCORE.INTRA.REPUL>
0

>  <SCORE.INTRA.REPUL.0>
0

>  <SCORE.INTRA.SOLV>
-1.1627

>  <SCORE.INTRA.SOLV.lig_0>
-20.733

>  <SCORE.INTRA.VDW>
0.927824

>  <SCORE.INTRA.VDW.0>
-0.828515

>  <SCORE.INTRA.norm>
0.0771179

>  <SCORE.RESTR>
0

>  <SCORE.RESTR.CAVITY>
0

>  <SCORE.RESTR.norm>
0

>  <SCORE.SYSTEM>
0

>  <SCORE.SYSTEM.CONST>
0

>  <SCORE.SYSTEM.DIHEDRAL>
0

>  <SCORE.SYSTEM.SOLV>
0

>  <SCORE.SYSTEM.norm>
0

>  <SCORE.heavy>
16

>  <SCORE.norm>
-1.11019

>  <RMSD>
1.553

$$$$
ligand
 OpenBabel02271912153D
libRbt.so/2013.1/901 2013/11/27
 16 17  0  0  0  0  0  0  0  0999 V2000
    6.0783    7.0855   85.2409 N   0  0  0  0  0  0  0  0  0  0  0  0
    6.8399    5.8840   85.1822 C   0  0  2  0  0  0  0  0  0  0  0  0
    8.2007    6.1106   84.5851 C   0  0  0  0  0  0  0  0  0  0  0  0
    8.9680    6.9555   85.1073 O   0  0  0  0  0  0  0  0  0  0  0  0
    7.1763    1.1414   80.3071 O   0  0  0  0  0  0  0  0  0  0  0  0
    6.1170    4.8307   84.3773 C   0  0  0  0  0  0  0  0  0  0  0  0
    6.5258    3.4224   84.7384 C   0  0  0  0  0  0  0  0  0  0  0  0
    6.6499    2.9437   85.9808 C   0  0  0  0  0  0  0  0  0  0  0  0
    6.7933    2.4484   83.7223 C   0  0  0  0  0  0  0  0  0  0  0  0
    7.1094    1.2677   84.4484 C   0  0  0  0  0  0  0  0  0  0  0  0
    6.7972    2.4262   82.3547 C   0  0  0  0  0  0  0  0  0  0  0  0
    7.0003    1.6536   85.8020 N   0  0  0  0  0  0  0  0  0  0  0  0
    7.4284    0.1056   83.8578 C   0  0  0  0  0  0  0  0  0  0  0  0
    7.1464    1.2021   81.7065 C   0  0  0  0  0  0  0  0  0  0  0  0
    7.4732    0.0215   82.4630 C   0  0  0  0  0  0  0  0  0  0  0  0
    8.5509    5.4726   83.5700 O   0  0  0  0  0  0  0  0  0  0  0  0
  2  1  1  6  0  0  0
  2  3  1  0  0  0  0
  2  6  1  0  0  0  0
  3  4  1  0  0  0  0
  3 16  1  0  0  0  0
  5 14  1  0  0  0  0
  6  7  1  0  0  0  0
  7  8  2  0  0  0  0
  7  9  1  0  0  0  0
  8 12  1  0  0  0  0
  9 10  2  0  0  0  0
  9 11  1  0  0  0  0
 10 13  1  0  0  0  0
 10 12  1  0  0  0  0
 11 14  2  0  0  0  0
 13 15  2  0  0  0  0
 14 15  1  0  0  0  0
M  END
>  <CHROM.1>
56.95561872,-155.52698257,46.12082650,7.21429625,3.42624442,83.94938693,1.34552703
1.30648091,0.64732239

>  <Name>
ligand

>  <RI>
0

>  <Rbt.Current_Directory>
/home/itssahil/PROJECTS/Mol_Feturizer/Test_systems_manuscript/rnas/5kpy

>  <Rbt.Executable>
rbdock ($Id: //depot/dev/client3/rdock/2013.1/src/exe/rbdock.cxx#4 $)

>  <Rbt.Library>
libRbt.so (2013.1, Build901 2013/11/27)

>  <Rbt.Parameter_File>
/export/apps/rDock/src/rDock_2013.1_src/data/scripts/dock_solv.prm

>  <Rbt.Receptor>
prm/pocket_docking_2.prm

>  <SCORE>
-17.8084

>  <SCORE.INTER>
-19.1504

>  <SCORE.INTER.CONST>
1

>  <SCORE.INTER.POLAR>
0

>  <SCORE.INTER.ROT>
3

>  <SCORE.INTER.SOLV>
4.82268

>  <SCORE.INTER.VDW>
-19.9745

>  <SCORE.INTER.norm>
-1.1969

>  <SCORE.INTRA>
1.34166

>  <SCORE.INTRA.DIHEDRAL>
1.85469

>  <SCORE.INTRA.DIHEDRAL.0>
3.89056

>  <SCORE.INTRA.POLAR>
0

>  <SCORE.INTRA.POLAR.0>
0

>  <SCORE.INTRA.REPUL>
0

>  <SCORE.INTRA.REPUL.0>
0

>  <SCORE.INTRA.SOLV>
-1.16492

>  <SCORE.INTRA.SOLV.lig_0>
-20.733

>  <SCORE.INTRA.VDW>
0.996777

>  <SCORE.INTRA.VDW.0>
-0.828515

>  <SCORE.INTRA.norm>
0.0838539

>  <SCORE.RESTR>
0.000382115

>  <SCORE.RESTR.CAVITY>
0.000382115

>  <SCORE.RESTR.norm>
2.38822e-05

>  <SCORE.SYSTEM>
0

>  <SCORE.SYSTEM.CONST>
0

>  <SCORE.SYSTEM.DIHEDRAL>
0

>  <SCORE.SYSTEM.SOLV>
0

>  <SCORE.SYSTEM.norm>
0

>  <SCORE.heavy>
16

>  <SCORE.norm>
-1.11302

>  <RMSD>
1.554

$$$$
ligand
 OpenBabel02271912153D
libRbt.so/2013.1/901 2013/11/27
 16 17  0  0  0  0  0  0  0  0999 V2000
    6.0042    7.1018   85.0932 N   0  0  0  0  0  0  0  0  0  0  0  0
    6.7863    5.9125   85.0664 C   0  0  2  0  0  0  0  0  0  0  0  0
    8.1329    6.1402   84.4381 C   0  0  0  0  0  0  0  0  0  0  0  0
    9.1698    5.9089   85.1064 O   0  0  0  0  0  0  0  0  0  0  0  0
    7.1894    0.9526   80.4265 O   0  0  0  0  0  0  0  0  0  0  0  0
    6.0696    4.8172   84.3137 C   0  0  0  0  0  0  0  0  0  0  0  0
    6.4865    3.4305   84.7426 C   0  0  0  0  0  0  0  0  0  0  0  0
    6.6046    3.0107   86.0067 C   0  0  0  0  0  0  0  0  0  0  0  0
    6.7695    2.4127   83.7746 C   0  0  0  0  0  0  0  0  0  0  0  0
    7.0891    1.2695   84.5570 C   0  0  0  0  0  0  0  0  0  0  0  0
    6.7843    2.3275   82.4096 C   0  0  0  0  0  0  0  0  0  0  0  0
    6.9664    1.7166   85.8904 N   0  0  0  0  0  0  0  0  0  0  0  0
    7.4217    0.0840   84.0231 C   0  0  0  0  0  0  0  0  0  0  0  0
    7.1481    1.0776   81.8214 C   0  0  0  0  0  0  0  0  0  0  0  0
    7.4781   -0.0641   82.6341 C   0  0  0  0  0  0  0  0  0  0  0  0
    8.2110    6.5709   83.2683 O   0  0  0  0  0  0  0  0  0  0  0  0
  2  1  1  6  0  0  0
  2  3  1  0  0  0  0
  2  6  1  0  0  0  0
  3  4  1  0  0  0  0
  3 16  1  0  0  0  0
  5 14  1  0  0  0  0
  6  7  1  0  0  0  0
  7  8  2  0  0  0  0
  7  9  1  0  0  0  0
  8 12  1  0  0  0  0
  9 10  2  0  0  0  0
  9 11  1  0  0  0  0
 10 13  1  0  0  0  0
 10 12  1  0  0  0  0
 11 14  2  0  0  0  0
 13 15  2  0  0  0  0
 14 15  1  0  0  0  0
M  END
>  <CHROM.1>
120.86359595,-154.19037507,46.59960195,7.17930234,3.40721245,83.95152602
1.34706940,1.36847617,0.58724194

>  <Name>
ligand

>  <RI>
0

>  <Rbt.Current_Directory>
/home/itssahil/PROJECTS/Mol_Feturizer/Test_systems_manuscript/rnas/5kpy

>  <Rbt.Executable>
rbdock ($Id: //depot/dev/client3/rdock/2013.1/src/exe/rbdock.cxx#4 $)

>  <Rbt.Library>
libRbt.so (2013.1, Build901 2013/11/27)

>  <Rbt.Parameter_File>
/export/apps/rDock/src/rDock_2013.1_src/data/scripts/dock_solv.prm

>  <Rbt.Receptor>
prm/pocket_docking_2.prm

>  <SCORE>
-18.0773

>  <SCORE.INTER>
-18.3116

>  <SCORE.INTER.CONST>
1

>  <SCORE.INTER.POLAR>
0

>  <SCORE.INTER.ROT>
3

>  <SCORE.INTER.SOLV>
4.9941

>  <SCORE.INTER.VDW>
-19.4724

>  <SCORE.INTER.norm>
-1.14448

>  <SCORE.INTRA>
0.226064

>  <SCORE.INTRA.DIHEDRAL>
2.04834

>  <SCORE.INTRA.DIHEDRAL.0>
3.89056

>  <SCORE.INTRA.POLAR>
0

>  <SCORE.INTRA.POLAR.0>
0

>  <SCORE.INTRA.REPUL>
0

>  <SCORE.INTRA.REPUL.0>
0

>  <SCORE.INTRA.SOLV>
-1.16596

>  <SCORE.INTRA.SOLV.lig_0>
-20.733

>  <SCORE.INTRA.VDW>
-0.215126

>  <SCORE.INTRA.VDW.0>
-0.828515

>  <SCORE.INTRA.norm>
0.014129

>  <SCORE.RESTR>
0.00826898

>  <SCORE.RESTR.CAVITY>
0.00826898

>  <SCORE.RESTR.norm>
0.000516811

>  <SCORE.SYSTEM>
0

>  <SCORE.SYSTEM.CONST>
0

>  <SCORE.SYSTEM.DIHEDRAL>
0

>  <SCORE.SYSTEM.SOLV>
0

>  <SCORE.SYSTEM.norm>
0

>  <SCORE.heavy>
16

>  <SCORE.norm>
-1.12983

>  <RMSD>
1.562

$$$$
ligand
 OpenBabel02271912153D
libRbt.so/2013.1/901 2013/11/27
 16 17  0  0  0  0  0  0  0  0999 V2000
    6.3885    7.6410   84.7022 N   0  0  0  0  0  0  0  0  0  0  0  0
    6.8761    6.3367   84.9989 C   0  0  2  0  0  0  0  0  0  0  0  0
    8.3519    6.2167   84.7392 C   0  0  0  0  0  0  0  0  0  0  0  0
    8.7814    6.3390   83.5663 O   0  0  0  0  0  0  0  0  0  0  0  0
    7.8287    0.9566   81.0800 O   0  0  0  0  0  0  0  0  0  0  0  0
    6.1458    5.2944   84.1865 C   0  0  0  0  0  0  0  0  0  0  0  0
    6.2000    3.9162   84.8017 C   0  0  0  0  0  0  0  0  0  0  0  0
    5.8582    3.6121   86.0581 C   0  0  0  0  0  0  0  0  0  0  0  0
    6.6148    2.7808   84.0324 C   0  0  0  0  0  0  0  0  0  0  0  0
    6.5044    1.6898   84.9374 C   0  0  0  0  0  0  0  0  0  0  0  0
    7.0381    2.5599   82.7507 C   0  0  0  0  0  0  0  0  0  0  0  0
    6.0429    2.2782   86.1348 N   0  0  0  0  0  0  0  0  0  0  0  0
    6.8068    0.4256   84.6039 C   0  0  0  0  0  0  0  0  0  0  0  0
    7.3772    1.2229   82.3793 C   0  0  0  0  0  0  0  0  0  0  0  0
    7.2673    0.1352   83.3161 C   0  0  0  0  0  0  0  0  0  0  0  0
    9.1347    5.9814   85.6837 O   0  0  0  0  0  0  0  0  0  0  0  0
  2  1  1  6  0  0  0
  2  3  1  0  0  0  0
  2  6  1  0  0  0  0
  3  4  1  0  0  0  0
  3 16  1  0  0  0  0
  5 14  1  0  0  0  0
  6  7  1  0  0  0  0
  7  8  2  0  0  0  0
  7  9  1  0  0  0  0
  8 12  1  0  0  0  0
  9 10  2  0  0  0  0
  9 11  1  0  0  0  0
 10 13  1  0  0  0  0
 10 12  1  0  0  0  0
 11 14  2  0  0  0  0
 13 15  2  0  0  0  0
 14 15  1  0  0  0  0
M  END
>  <CHROM.1>
-64.38648295,-157.41858167,52.68783448,7.13526020,3.68959203,84.22770195
1.41397321,0.99680513,0.42507642

>  <Name>
ligand

>  <RI>
0

>  <Rbt.Current_Directory>
/home/itssahil/PROJECTS/Mol_Feturizer/Test_systems_manuscript/rnas/5kpy

>  <Rbt.Executable>
rbdock ($Id: //depot/dev/client3/rdock/2013.1/src/exe/rbdock.cxx#4 $)

>  <Rbt.Library>
libRbt.so (2013.1, Build901 2013/11/27)

>  <Rbt.Parameter_File>
/export/apps/rDock/src/rDock_2013.1_src/data/scripts/dock_solv.prm

>  <Rbt.Receptor>
prm/pocket_docking_3.prm

>  <SCORE>
-19.8208

>  <SCORE.INTER>
-19.8317

>  <SCORE.INTER.CONST>
1

>  <SCORE.INTER.POLAR>
0

>  <SCORE.INTER.ROT>
3

>  <SCORE.INTER.SOLV>
4.48886

>  <SCORE.INTER.VDW>
-20.3174

>  <SCORE.INTER.norm>
-1.23948

>  <SCORE.INTRA>
0.0108947

>  <SCORE.INTRA.DIHEDRAL>
1.61133

>  <SCORE.INTRA.DIHEDRAL.0>
3.89056

>  <SCORE.INTRA.POLAR>
0

>  <SCORE.INTRA.POLAR.0>
0

>  <SCORE.INTRA.REPUL>
0

>  <SCORE.INTRA.REPUL.0>
0

>  <SCORE.INTRA.SOLV>
-1.17951

>  <SCORE.INTRA.SOLV.lig_0>
-20.733

>  <SCORE.INTRA.VDW>
-0.205016

>  <SCORE.INTRA.VDW.0>
-0.828515

>  <SCORE.INTRA.norm>
0.000680921

>  <SCORE.RESTR>
0

>  <SCORE.RESTR.CAVITY>
0

>  <SCORE.RESTR.norm>
0

>  <SCORE.SYSTEM>
0

>  <SCORE.SYSTEM.CONST>
0

>  <SCORE.SYSTEM.DIHEDRAL>
0

>  <SCORE.SYSTEM.SOLV>
0

>  <SCORE.SYSTEM.norm>
0

>  <SCORE.heavy>
16

>  <SCORE.norm>
-1.2388

>  <RMSD>
1.569

$$$$
ligand
 OpenBabel02271912153D
libRbt.so/2013.1/901 2013/11/27
 16 17  0  0  0  0  0  0  0  0999 V2000
    5.5324    7.2861   83.7837 N   0  0  0  0  0  0  0  0  0  0  0  0
    5.4473    6.0058   84.4007 C   0  0  2  0  0  0  0  0  0  0  0  0
    5.1426    6.1095   85.8691 C   0  0  0  0  0  0  0  0  0  0  0  0
    4.2259    5.4050   86.3577 O   0  0  0  0  0  0  0  0  0  0  0  0
    7.2485    0.8606   80.7688 O   0  0  0  0  0  0  0  0  0  0  0  0
    6.7333    5.2363   84.2167 C   0  0  0  0  0  0  0  0  0  0  0  0
    6.6733    3.8358   84.7788 C   0  0  0  0  0  0  0  0  0  0  0  0
    6.4863    3.5222   86.0652 C   0  0  0  0  0  0  0  0  0  0  0  0
    6.7899    2.6920   83.9238 C   0  0  0  0  0  0  0  0  0  0  0  0
    6.6567    1.5849   84.8057 C   0  0  0  0  0  0  0  0  0  0  0  0
    6.9736    2.4764   82.5857 C   0  0  0  0  0  0  0  0  0  0  0  0
    6.4780    2.1735   86.0763 N   0  0  0  0  0  0  0  0  0  0  0  0
    6.7109    0.3084   84.3951 C   0  0  0  0  0  0  0  0  0  0  0  0
    7.0468    1.1245   82.1299 C   0  0  0  0  0  0  0  0  0  0  0  0
    6.9196    0.0189   83.0434 C   0  0  0  0  0  0  0  0  0  0  0  0
    5.7883    6.9027   86.5859 O   0  0  0  0  0  0  0  0  0  0  0  0
  2  1  1  1  0  0  0
  2  3  1  0  0  0  0
  2  6  1  0  0  0  0
  3  4  1  0  0  0  0
  3 16  1  0  0  0  0
  5 14  1  0  0  0  0
  6  7  1  0  0  0  0
  7  8  2  0  0  0  0
  7  9  1  0  0  0  0
  8 12  1  0  0  0  0
  9 10  2  0  0  0  0
  9 11  1  0  0  0  0
 10 13  1  0  0  0  0
 10 12  1  0  0  0  0
 11 14  2  0  0  0  0
 13 15  2  0  0  0  0
 14 15  1  0  0  0  0
M  END
>  <CHROM.1>
131.34044157,-176.51755304,-62.50527534,6.26658974,3.57618386,84.38305670
-2.89062884,-1.30359833,2.32604326

>  <Name>
ligand

>  <RI>
0

>  <Rbt.Current_Directory>
/home/itssahil/PROJECTS/Mol_Feturizer/Test_systems_manuscript/rnas/5kpy

>  <Rbt.Executable>
rbdock ($Id: //depot/dev/client3/rdock/2013.1/src/exe/rbdock.cxx#4 $)

>  <Rbt.Library>
libRbt.so (2013.1, Build901 2013/11/27)

>  <Rbt.Parameter_File>
/export/apps/rDock/src/rDock_2013.1_src/data/scripts/dock_solv.prm

>  <Rbt.Receptor>
prm/pocket_docking_3.prm

>  <SCORE>
-18.2511

>  <SCORE.INTER>
-17.4745

>  <SCORE.INTER.CONST>
1

>  <SCORE.INTER.POLAR>
0

>  <SCORE.INTER.ROT>
3

>  <SCORE.INTER.SOLV>
5.67395

>  <SCORE.INTER.VDW>
-19.141

>  <SCORE.INTER.norm>
-1.09216

>  <SCORE.INTRA>
-0.776586

>  <SCORE.INTRA.DIHEDRAL>
-0.0873536

>  <SCORE.INTRA.DIHEDRAL.0>
3.89056

>  <SCORE.INTRA.POLAR>
0

>  <SCORE.INTRA.POLAR.0>
0

>  <SCORE.INTRA.REPUL>
0

>  <SCORE.INTRA.REPUL.0>
0

>  <SCORE.INTRA.SOLV>
-1.19154

>  <SCORE.INTRA.SOLV.lig_0>
-20.733

>  <SCORE.INTRA.VDW>
-0.13714

>  <SCORE.INTRA.VDW.0>
-0.828515

>  <SCORE.INTRA.norm>
-0.0485366

>  <SCORE.RESTR>
0

>  <SCORE.RESTR.CAVITY>
0

>  <SCORE.RESTR.norm>
0

>  <SCORE.SYSTEM>
0

>  <SCORE.SYSTEM.CONST>
0

>  <SCORE.SYSTEM.DIHEDRAL>
0

>  <SCORE.SYSTEM.SOLV>
0

>  <SCORE.SYSTEM.norm>
0

>  <SCORE.heavy>
16

>  <SCORE.norm>
-1.14069

>  <RMSD>
1.576

$$$$
ligand
 OpenBabel02271912153D
libRbt.so/2013.1/901 2013/11/27
 16 17  0  0  0  0  0  0  0  0999 V2000
    6.3568    7.6552   84.6961 N   0  0  0  0  0  0  0  0  0  0  0  0
    6.8780    6.3645   84.9950 C   0  0  2  0  0  0  0  0  0  0  0  0
    8.3584    6.2856   84.7462 C   0  0  0  0  0  0  0  0  0  0  0  0
    8.8011    6.5163   83.5946 O   0  0  0  0  0  0  0  0  0  0  0  0
    7.7390    0.9098   81.0820 O   0  0  0  0  0  0  0  0  0  0  0  0
    6.1827    5.3035   84.1761 C   0  0  0  0  0  0  0  0  0  0  0  0
    6.2405    3.9328   84.8075 C   0  0  0  0  0  0  0  0  0  0  0  0
    5.9299    3.6482   86.0765 C   0  0  0  0  0  0  0  0  0  0  0  0
    6.6233    2.7836   84.0422 C   0  0  0  0  0  0  0  0  0  0  0  0
    6.5270    1.7055   84.9639 C   0  0  0  0  0  0  0  0  0  0  0  0
    7.0095    2.5422   82.7525 C   0  0  0  0  0  0  0  0  0  0  0  0
    6.1039    2.3136   86.1656 N   0  0  0  0  0  0  0  0  0  0  0  0
    6.8081    0.4342   84.6389 C   0  0  0  0  0  0  0  0  0  0  0  0
    7.3255    1.1972   82.3894 C   0  0  0  0  0  0  0  0  0  0  0  0
    7.2307    0.1228   83.3431 C   0  0  0  0  0  0  0  0  0  0  0  0
    9.1322    5.9771   85.6769 O   0  0  0  0  0  0  0  0  0  0  0  0
  2  1  1  6  0  0  0
  2  3  1  0  0  0  0
  2  6  1  0  0  0  0
  3  4  1  0  0  0  0
  3 16  1  0  0  0  0
  5 14  1  0  0  0  0
  6  7  1  0  0  0  0
  7  8  2  0  0  0  0
  7  9  1  0  0  0  0
  8 12  1  0  0  0  0
  9 10  2  0  0  0  0
  9 11  1  0  0  0  0
 10 13  1  0  0  0  0
 10 12  1  0  0  0  0
 11 14  2  0  0  0  0
 13 15  2  0  0  0  0
 14 15  1  0  0  0  0
M  END
>  <CHROM.1>
-59.30232999,-155.96567300,49.40252821,7.13623422,3.71004356,84.23822959
1.38901734,1.03032351,0.44210420

>  <Name>
ligand

>  <RI>
0

>  <Rbt.Current_Directory>
/home/itssahil/PROJECTS/Mol_Feturizer/Test_systems_manuscript/rnas/5kpy

>  <Rbt.Executable>
rbdock ($Id: //depot/dev/client3/rdock/2013.1/src/exe/rbdock.cxx#4 $)

>  <Rbt.Library>
libRbt.so (2013.1, Build901 2013/11/27)

>  <Rbt.Parameter_File>
/export/apps/rDock/src/rDock_2013.1_src/data/scripts/dock_solv.prm

>  <Rbt.Receptor>
prm/pocket_docking_8.prm

>  <SCORE>
-19.9107

>  <SCORE.INTER>
-19.9918

>  <SCORE.INTER.CONST>
1

>  <SCORE.INTER.POLAR>
0

>  <SCORE.INTER.ROT>
3

>  <SCORE.INTER.SOLV>
4.4535

>  <SCORE.INTER.VDW>
-20.4124

>  <SCORE.INTER.norm>
-1.24949

>  <SCORE.INTRA>
0.081062

>  <SCORE.INTRA.DIHEDRAL>
1.79637

>  <SCORE.INTRA.DIHEDRAL.0>
3.89056

>  <SCORE.INTRA.POLAR>
0

>  <SCORE.INTRA.POLAR.0>
0

>  <SCORE.INTRA.REPUL>
0

>  <SCORE.INTRA.REPUL.0>
0

>  <SCORE.INTRA.SOLV>
-1.17377

>  <SCORE.INTRA.SOLV.lig_0>
-20.733

>  <SCORE.INTRA.VDW>
-0.230237

>  <SCORE.INTRA.VDW.0>
-0.828515

>  <SCORE.INTRA.norm>
0.00506637

>  <SCORE.RESTR>
0

>  <SCORE.RESTR.CAVITY>
0

>  <SCORE.RESTR.norm>
0

>  <SCORE.SYSTEM>
0

>  <SCORE.SYSTEM.CONST>
0

>  <SCORE.SYSTEM.DIHEDRAL>
0

>  <SCORE.SYSTEM.SOLV>
0

>  <SCORE.SYSTEM.norm>
0

>  <SCORE.heavy>
16

>  <SCORE.norm>
-1.24442

>  <RMSD>
1.580

$$$$
ligand
 OpenBabel02271912153D
libRbt.so/2013.1/901 2013/11/27
 16 17  0  0  0  0  0  0  0  0999 V2000
    6.2033    7.5877   84.6625 N   0  0  0  0  0  0  0  0  0  0  0  0
    6.7998    6.3250   84.9392 C   0  0  2  0  0  0  0  0  0  0  0  0
    8.2692    6.3168   84.6221 C   0  0  0  0  0  0  0  0  0  0  0  0
    9.0892    5.9970   85.5169 O   0  0  0  0  0  0  0  0  0  0  0  0
    7.5751    0.8275   81.0225 O   0  0  0  0  0  0  0  0  0  0  0  0
    6.1197    5.2282   84.1554 C   0  0  0  0  0  0  0  0  0  0  0  0
    6.2513    3.8684   84.7991 C   0  0  0  0  0  0  0  0  0  0  0  0
    6.0313    3.5950   86.0894 C   0  0  0  0  0  0  0  0  0  0  0  0
    6.6107    2.7175   84.0252 C   0  0  0  0  0  0  0  0  0  0  0  0
    6.6007    1.6508   84.9651 C   0  0  0  0  0  0  0  0  0  0  0  0
    6.9174    2.4665   82.7161 C   0  0  0  0  0  0  0  0  0  0  0  0
    6.2426    2.2662   86.1840 N   0  0  0  0  0  0  0  0  0  0  0  0
    6.8903    0.3818   84.6386 C   0  0  0  0  0  0  0  0  0  0  0  0
    7.2411    1.1241   82.3504 C   0  0  0  0  0  0  0  0  0  0  0  0
    7.2346    0.0616   83.3220 C   0  0  0  0  0  0  0  0  0  0  0  0
    8.6635    6.6418   83.4824 O   0  0  0  0  0  0  0  0  0  0  0  0
  2  1  1  6  0  0  0
  2  3  1  0  0  0  0
  2  6  1  0  0  0  0
  3  4  1  0  0  0  0
  3 16  1  0  0  0  0
  5 14  1  0  0  0  0
  6  7  1  0  0  0  0
  7  8  2  0  0  0  0
  7  9  1  0  0  0  0
  8 12  1  0  0  0  0
  9 10  2  0  0  0  0
  9 11  1  0  0  0  0
 10 13  1  0  0  0  0
 10 12  1  0  0  0  0
 11 14  2  0  0  0  0
 13 15  2  0  0  0  0
 14 15  1  0  0  0  0
M  END
>  <CHROM.1>
124.26991356,-154.90439298,47.34705274,7.09978122,3.67305960,84.19407825
1.38249207,1.10797906,0.43980354

>  <Name>
ligand

>  <RI>
0

>  <Rbt.Current_Directory>
/home/itssahil/PROJECTS/Mol_Feturizer/Test_systems_manuscript/rnas/5kpy

>  <Rbt.Executable>
rbdock ($Id: //depot/dev/client3/rdock/2013.1/src/exe/rbdock.cxx#4 $)

>  <Rbt.Library>
libRbt.so (2013.1, Build901 2013/11/27)

>  <Rbt.Parameter_File>
/export/apps/rDock/src/rDock_2013.1_src/data/scripts/dock_solv.prm

>  <Rbt.Receptor>
prm/pocket_docking_7.prm

>  <SCORE>
-19.9737

>  <SCORE.INTER>
-20.1095

>  <SCORE.INTER.CONST>
1

>  <SCORE.INTER.POLAR>
0

>  <SCORE.INTER.ROT>
3

>  <SCORE.INTER.SOLV>
4.43826

>  <SCORE.INTER.VDW>
-20.4858

>  <SCORE.INTER.norm>
-1.25685

>  <SCORE.INTRA>
0.135863

>  <SCORE.INTRA.DIHEDRAL>
1.95143

>  <SCORE.INTRA.DIHEDRAL.0>
3.89056

>  <SCORE.INTRA.POLAR>
0

>  <SCORE.INTRA.POLAR.0>
0

>  <SCORE.INTRA.REPUL>
0

>  <SCORE.INTRA.REPUL.0>
0

>  <SCORE.INTRA.SOLV>
-1.16634

>  <SCORE.INTRA.SOLV.lig_0>
-20.733

>  <SCORE.INTRA.VDW>
-0.256683

>  <SCORE.INTRA.VDW.0>
-0.828515

>  <SCORE.INTRA.norm>
0.00849141

>  <SCORE.RESTR>
0

>  <SCORE.RESTR.CAVITY>
0

>  <SCORE.RESTR.norm>
0

>  <SCORE.SYSTEM>
0

>  <SCORE.SYSTEM.CONST>
0

>  <SCORE.SYSTEM.DIHEDRAL>
0

>  <SCORE.SYSTEM.SOLV>
0

>  <SCORE.SYSTEM.norm>
0

>  <SCORE.heavy>
16

>  <SCORE.norm>
-1.24835

>  <RMSD>
1.598

$$$$
ligand
 OpenBabel02271912153D
libRbt.so/2013.1/901 2013/11/27
 16 17  0  0  0  0  0  0  0  0999 V2000
    6.0025    7.4266   84.8534 N   0  0  0  0  0  0  0  0  0  0  0  0
    6.7400    6.2170   84.9945 C   0  0  2  0  0  0  0  0  0  0  0  0
    8.1352    6.3434   84.4491 C   0  0  0  0  0  0  0  0  0  0  0  0
    9.0945    5.8584   85.0969 O   0  0  0  0  0  0  0  0  0  0  0  0
    7.3118    0.8902   80.8104 O   0  0  0  0  0  0  0  0  0  0  0  0
    6.0383    5.0774   84.2954 C   0  0  0  0  0  0  0  0  0  0  0  0
    6.3965    3.7232   84.8600 C   0  0  0  0  0  0  0  0  0  0  0  0
    6.4260    3.4059   86.1586 C   0  0  0  0  0  0  0  0  0  0  0  0
    6.7166    2.6253   83.9968 C   0  0  0  0  0  0  0  0  0  0  0  0
    6.9610    1.5442   84.8872 C   0  0  0  0  0  0  0  0  0  0  0  0
    6.8146    2.4289   82.6468 C   0  0  0  0  0  0  0  0  0  0  0  0
    6.7654    2.1005   86.1698 N   0  0  0  0  0  0  0  0  0  0  0  0
    7.2997    0.3136   84.4726 C   0  0  0  0  0  0  0  0  0  0  0  0
    7.1864    1.1291   82.1852 C   0  0  0  0  0  0  0  0  0  0  0  0
    7.4394    0.0519   83.1063 C   0  0  0  0  0  0  0  0  0  0  0  0
    8.3316    6.9406   83.3698 O   0  0  0  0  0  0  0  0  0  0  0  0
  2  1  1  6  0  0  0
  2  3  1  0  0  0  0
  2  6  1  0  0  0  0
  3  4  1  0  0  0  0
  3 16  1  0  0  0  0
  5 14  1  0  0  0  0
  6  7  1  0  0  0  0
  7  8  2  0  0  0  0
  7  9  1  0  0  0  0
  8 12  1  0  0  0  0
  9 10  2  0  0  0  0
  9 11  1  0  0  0  0
 10 13  1  0  0  0  0
 10 12  1  0  0  0  0
 11 14  2  0  0  0  0
 13 15  2  0  0  0  0
 14 15  1  0  0  0  0
M  END
>  <CHROM.1>
137.10679807,-155.49661295,47.08854558,7.14293872,3.61649843,84.11854602
1.41197071,1.30099713,0.43478633

>  <Name>
ligand

>  <RI>
0

>  <Rbt.Current_Directory>
/home/itssahil/PROJECTS/Mol_Feturizer/Test_systems_manuscript/rnas/5kpy

>  <Rbt.Executable>
rbdock ($Id: //depot/dev/client3/rdock/2013.1/src/exe/rbdock.cxx#4 $)

>  <Rbt.Library>
libRbt.so (2013.1, Build901 2013/11/27)

>  <Rbt.Parameter_File>
/export/apps/rDock/src/rDock_2013.1_src/data/scripts/dock_solv.prm

>  <Rbt.Receptor>
prm/pocket_docking_2.prm

>  <SCORE>
-19.0729

>  <SCORE.INTER>
-19.4833

>  <SCORE.INTER.CONST>
1

>  <SCORE.INTER.POLAR>
0

>  <SCORE.INTER.ROT>
3

>  <SCORE.INTER.SOLV>
4.47338

>  <SCORE.INTER.VDW>
-20.08

>  <SCORE.INTER.norm>
-1.2177

>  <SCORE.INTRA>
0.00358776

>  <SCORE.INTRA.DIHEDRAL>
1.88227

>  <SCORE.INTRA.DIHEDRAL.0>
3.89056

>  <SCORE.INTRA.POLAR>
0

>  <SCORE.INTRA.POLAR.0>
0

>  <SCORE.INTRA.REPUL>
0

>  <SCORE.INTRA.REPUL.0>
0

>  <SCORE.INTRA.SOLV>
-1.16244

>  <SCORE.INTRA.SOLV.lig_0>
-20.733

>  <SCORE.INTRA.VDW>
-0.356327

>  <SCORE.INTRA.VDW.0>
-0.828515

>  <SCORE.INTRA.norm>
0.000224235

>  <SCORE.RESTR>
0.406804

>  <SCORE.RESTR.CAVITY>
0.406804

>  <SCORE.RESTR.norm>
0.0254253

>  <SCORE.SYSTEM>
0

>  <SCORE.SYSTEM.CONST>
0

>  <SCORE.SYSTEM.DIHEDRAL>
0

>  <SCORE.SYSTEM.SOLV>
0

>  <SCORE.SYSTEM.norm>
0

>  <SCORE.heavy>
16

>  <SCORE.norm>
-1.19205

>  <RMSD>
1.605

$$$$
ligand
 OpenBabel02271912153D
libRbt.so/2013.1/901 2013/11/27
 16 17  0  0  0  0  0  0  0  0999 V2000
    5.5266    7.3194   83.8384 N   0  0  0  0  0  0  0  0  0  0  0  0
    5.4458    6.0338   84.4449 C   0  0  2  0  0  0  0  0  0  0  0  0
    5.0932    6.1225   85.9035 C   0  0  0  0  0  0  0  0  0  0  0  0
    5.7108    6.9325   86.6368 O   0  0  0  0  0  0  0  0  0  0  0  0
    7.2267    0.9303   80.8223 O   0  0  0  0  0  0  0  0  0  0  0  0
    6.7508    5.2890   84.2971 C   0  0  0  0  0  0  0  0  0  0  0  0
    6.7006    3.8859   84.8534 C   0  0  0  0  0  0  0  0  0  0  0  0
    6.5313    3.5661   86.1407 C   0  0  0  0  0  0  0  0  0  0  0  0
    6.8074    2.7463   83.9916 C   0  0  0  0  0  0  0  0  0  0  0  0
    6.6877    1.6349   84.8700 C   0  0  0  0  0  0  0  0  0  0  0  0
    6.9735    2.5371   82.6502 C   0  0  0  0  0  0  0  0  0  0  0  0
    6.5252    2.2173   86.1457 N   0  0  0  0  0  0  0  0  0  0  0  0
    6.7384    0.3604   84.4528 C   0  0  0  0  0  0  0  0  0  0  0  0
    7.0427    1.1875   82.1872 C   0  0  0  0  0  0  0  0  0  0  0  0
    6.9294    0.0775   83.0970 C   0  0  0  0  0  0  0  0  0  0  0  0
    4.2048    5.3831   86.3769 O   0  0  0  0  0  0  0  0  0  0  0  0
  2  1  1  1  0  0  0
  2  3  1  0  0  0  0
  2  6  1  0  0  0  0
  3  4  1  0  0  0  0
  3 16  1  0  0  0  0
  5 14  1  0  0  0  0
  6  7  1  0  0  0  0
  7  8  2  0  0  0  0
  7  9  1  0  0  0  0
  8 12  1  0  0  0  0
  9 10  2  0  0  0  0
  9 11  1  0  0  0  0
 10 13  1  0  0  0  0
 10 12  1  0  0  0  0
 11 14  2  0  0  0  0
 13 15  2  0  0  0  0
 14 15  1  0  0  0  0
M  END
>  <CHROM.1>
-47.68547147,-176.72882417,-65.16209936,6.26724016,3.61774418,84.43997703
-2.93724319,-1.30038816,2.27829906

>  <Name>
ligand

>  <RI>
0

>  <Rbt.Current_Directory>
/home/itssahil/PROJECTS/Mol_Feturizer/Test_systems_manuscript/rnas/5kpy

>  <Rbt.Executable>
rbdock ($Id: //depot/dev/client3/rdock/2013.1/src/exe/rbdock.cxx#4 $)

>  <Rbt.Library>
libRbt.so (2013.1, Build901 2013/11/27)

>  <Rbt.Parameter_File>
/export/apps/rDock/src/rDock_2013.1_src/data/scripts/dock_solv.prm

>  <Rbt.Receptor>
prm/pocket_docking_8.prm

>  <SCORE>
-18.2862

>  <SCORE.INTER>
-17.4406

>  <SCORE.INTER.CONST>
1

>  <SCORE.INTER.POLAR>
0

>  <SCORE.INTER.ROT>
3

>  <SCORE.INTER.SOLV>
5.50589

>  <SCORE.INTER.VDW>
-19.0624

>  <SCORE.INTER.norm>
-1.09004

>  <SCORE.INTRA>
-0.84558

>  <SCORE.INTRA.DIHEDRAL>
-0.141585

>  <SCORE.INTRA.DIHEDRAL.0>
3.89056

>  <SCORE.INTRA.POLAR>
0

>  <SCORE.INTRA.POLAR.0>
0

>  <SCORE.INTRA.REPUL>
0

>  <SCORE.INTRA.REPUL.0>
0

>  <SCORE.INTRA.SOLV>
-1.19275

>  <SCORE.INTRA.SOLV.lig_0>
-20.733

>  <SCORE.INTRA.VDW>
-0.178411

>  <SCORE.INTRA.VDW.0>
-0.828515

>  <SCORE.INTRA.norm>
-0.0528488

>  <SCORE.RESTR>
0

>  <SCORE.RESTR.CAVITY>
0

>  <SCORE.RESTR.norm>
0

>  <SCORE.SYSTEM>
0

>  <SCORE.SYSTEM.CONST>
0

>  <SCORE.SYSTEM.DIHEDRAL>
0

>  <SCORE.SYSTEM.SOLV>
0

>  <SCORE.SYSTEM.norm>
0

>  <SCORE.heavy>
16

>  <SCORE.norm>
-1.14289

>  <RMSD>
1.605

$$$$
ligand
 OpenBabel02271912153D
libRbt.so/2013.1/901 2013/11/27
 16 17  0  0  0  0  0  0  0  0999 V2000
    5.3482    7.3152   84.2550 N   0  0  0  0  0  0  0  0  0  0  0  0
    5.3454    6.0006   84.8016 C   0  0  2  0  0  0  0  0  0  0  0  0
    5.1677    6.0138   86.2943 C   0  0  0  0  0  0  0  0  0  0  0  0
    4.2112    5.3814   86.8048 O   0  0  0  0  0  0  0  0  0  0  0  0
    7.2194    1.0601   80.8358 O   0  0  0  0  0  0  0  0  0  0  0  0
    6.6272    5.2776   84.4637 C   0  0  0  0  0  0  0  0  0  0  0  0
    6.6603    3.8567   84.9745 C   0  0  0  0  0  0  0  0  0  0  0  0
    6.5419    3.4882   86.2544 C   0  0  0  0  0  0  0  0  0  0  0  0
    6.7989    2.7517   84.0730 C   0  0  0  0  0  0  0  0  0  0  0  0
    6.7574    1.6084   84.9171 C   0  0  0  0  0  0  0  0  0  0  0  0
    6.9384    2.5937   82.7216 C   0  0  0  0  0  0  0  0  0  0  0  0
    6.6015    2.1413   86.2150 N   0  0  0  0  0  0  0  0  0  0  0  0
    6.8585    0.3519   84.4568 C   0  0  0  0  0  0  0  0  0  0  0  0
    7.0604    1.2645   82.2127 C   0  0  0  0  0  0  0  0  0  0  0  0
    7.0261    0.1219   83.0880 C   0  0  0  0  0  0  0  0  0  0  0  0
    5.9581    6.6629   87.0112 O   0  0  0  0  0  0  0  0  0  0  0  0
  2  1  1  1  0  0  0
  2  3  1  0  0  0  0
  2  6  1  0  0  0  0
  3  4  1  0  0  0  0
  3 16  1  0  0  0  0
  5 14  1  0  0  0  0
  6  7  1  0  0  0  0
  7  8  2  0  0  0  0
  7  9  1  0  0  0  0
  8 12  1  0  0  0  0
  9 10  2  0  0  0  0
  9 11  1  0  0  0  0
 10 13  1  0  0  0  0
 10 12  1  0  0  0  0
 11 14  2  0  0  0  0
 13 15  2  0  0  0  0
 14 15  1  0  0  0  0
M  END
>  <CHROM.1>
122.95381715,-177.85068656,-58.93737388,6.28210114,3.59507252,84.61521706
-3.13821373,-1.30160449,2.13630672

>  <Name>
ligand

>  <RI>
0

>  <Rbt.Current_Directory>
/home/itssahil/PROJECTS/Mol_Feturizer/Test_systems_manuscript/rnas/5kpy

>  <Rbt.Executable>
rbdock ($Id: //depot/dev/client3/rdock/2013.1/src/exe/rbdock.cxx#4 $)

>  <Rbt.Library>
libRbt.so (2013.1, Build901 2013/11/27)

>  <Rbt.Parameter_File>
/export/apps/rDock/src/rDock_2013.1_src/data/scripts/dock_solv.prm

>  <Rbt.Receptor>
prm/pocket_docking_7.prm

>  <SCORE>
-18.2231

>  <SCORE.INTER>
-17.585

>  <SCORE.INTER.CONST>
1

>  <SCORE.INTER.POLAR>
0

>  <SCORE.INTER.ROT>
3

>  <SCORE.INTER.SOLV>
5.01847

>  <SCORE.INTER.VDW>
-18.9962

>  <SCORE.INTER.norm>
-1.09906

>  <SCORE.INTRA>
-0.63806

>  <SCORE.INTRA.DIHEDRAL>
-0.111982

>  <SCORE.INTRA.DIHEDRAL.0>
3.89056

>  <SCORE.INTRA.POLAR>
0

>  <SCORE.INTRA.POLAR.0>
0

>  <SCORE.INTRA.REPUL>
0

>  <SCORE.INTRA.REPUL.0>
0

>  <SCORE.INTRA.SOLV>
-1.19529

>  <SCORE.INTRA.SOLV.lig_0>
-20.733

>  <SCORE.INTRA.VDW>
0.0155757

>  <SCORE.INTRA.VDW.0>
-0.828515

>  <SCORE.INTRA.norm>
-0.0398787

>  <SCORE.RESTR>
0

>  <SCORE.RESTR.CAVITY>
0

>  <SCORE.RESTR.norm>
0

>  <SCORE.SYSTEM>
0

>  <SCORE.SYSTEM.CONST>
0

>  <SCORE.SYSTEM.DIHEDRAL>
0

>  <SCORE.SYSTEM.SOLV>
0

>  <SCORE.SYSTEM.norm>
0

>  <SCORE.heavy>
16

>  <SCORE.norm>
-1.13894

>  <RMSD>
1.606

$$$$
ligand
 OpenBabel02271912153D
libRbt.so/2013.1/901 2013/11/27
 16 17  0  0  0  0  0  0  0  0999 V2000
    5.4515    7.3598   83.9342 N   0  0  0  0  0  0  0  0  0  0  0  0
    5.3735    6.0699   84.5316 C   0  0  2  0  0  0  0  0  0  0  0  0
    5.0498    6.1488   85.9974 C   0  0  0  0  0  0  0  0  0  0  0  0
    5.6890    6.9463   86.7258 O   0  0  0  0  0  0  0  0  0  0  0  0
    7.3002    1.0205   80.8258 O   0  0  0  0  0  0  0  0  0  0  0  0
    6.6703    5.3176   84.3525 C   0  0  0  0  0  0  0  0  0  0  0  0
    6.6164    3.9052   84.8845 C   0  0  0  0  0  0  0  0  0  0  0  0
    6.4094    3.5630   86.1604 C   0  0  0  0  0  0  0  0  0  0  0  0
    6.7620    2.7808   84.0085 C   0  0  0  0  0  0  0  0  0  0  0  0
    6.6255    1.6542   84.8649 C   0  0  0  0  0  0  0  0  0  0  0  0
    6.9729    2.5950   82.6700 C   0  0  0  0  0  0  0  0  0  0  0  0
    6.4166    2.2143   86.1438 N   0  0  0  0  0  0  0  0  0  0  0  0
    6.7022    0.3872   84.4293 C   0  0  0  0  0  0  0  0  0  0  0  0
    7.0703    1.2538   82.1880 C   0  0  0  0  0  0  0  0  0  0  0  0
    6.9392    0.1281   83.0760 C   0  0  0  0  0  0  0  0  0  0  0  0
    4.1636    5.4135   86.4814 O   0  0  0  0  0  0  0  0  0  0  0  0
  2  1  1  1  0  0  0
  2  3  1  0  0  0  0
  2  6  1  0  0  0  0
  3  4  1  0  0  0  0
  3 16  1  0  0  0  0
  5 14  1  0  0  0  0
  6  7  1  0  0  0  0
  7  8  2  0  0  0  0
  7  9  1  0  0  0  0
  8 12  1  0  0  0  0
  9 10  2  0  0  0  0
  9 11  1  0  0  0  0
 10 13  1  0  0  0  0
 10 12  1  0  0  0  0
 11 14  2  0  0  0  0
 13 15  2  0  0  0  0
 14 15  1  0  0  0  0
M  END
>  <CHROM.1>
-47.84344119,-176.09669071,-62.34478630,6.22576340,3.65149485,84.47771164
-2.87153394,-1.28544734,2.36481357

>  <Name>
ligand

>  <RI>
0

>  <Rbt.Current_Directory>
/home/itssahil/PROJECTS/Mol_Feturizer/Test_systems_manuscript/rnas/5kpy

>  <Rbt.Executable>
rbdock ($Id: //depot/dev/client3/rdock/2013.1/src/exe/rbdock.cxx#4 $)

>  <Rbt.Library>
libRbt.so (2013.1, Build901 2013/11/27)

>  <Rbt.Parameter_File>
/export/apps/rDock/src/rDock_2013.1_src/data/scripts/dock_solv.prm

>  <Rbt.Receptor>
prm/pocket_docking_7.prm

>  <SCORE>
-18.2042

>  <SCORE.INTER>
-17.4305

>  <SCORE.INTER.CONST>
1

>  <SCORE.INTER.POLAR>
0

>  <SCORE.INTER.ROT>
3

>  <SCORE.INTER.SOLV>
5.29786

>  <SCORE.INTER.VDW>
-18.9863

>  <SCORE.INTER.norm>
-1.08941

>  <SCORE.INTRA>
-0.773714

>  <SCORE.INTRA.DIHEDRAL>
-0.112264

>  <SCORE.INTRA.DIHEDRAL.0>
3.89056

>  <SCORE.INTRA.POLAR>
0

>  <SCORE.INTRA.POLAR.0>
0

>  <SCORE.INTRA.REPUL>
0

>  <SCORE.INTRA.REPUL.0>
0

>  <SCORE.INTRA.SOLV>
-1.19267

>  <SCORE.INTRA.SOLV.lig_0>
-20.733

>  <SCORE.INTRA.VDW>
-0.121248

>  <SCORE.INTRA.VDW.0>
-0.828515

>  <SCORE.INTRA.norm>
-0.0483571

>  <SCORE.RESTR>
0

>  <SCORE.RESTR.CAVITY>
0

>  <SCORE.RESTR.norm>
0

>  <SCORE.SYSTEM>
0

>  <SCORE.SYSTEM.CONST>
0

>  <SCORE.SYSTEM.DIHEDRAL>
0

>  <SCORE.SYSTEM.SOLV>
0

>  <SCORE.SYSTEM.norm>
0

>  <SCORE.heavy>
16

>  <SCORE.norm>
-1.13777

>  <RMSD>
1.618

$$$$
ligand
 OpenBabel02271912153D
libRbt.so/2013.1/901 2013/11/27
 16 17  0  0  0  0  0  0  0  0999 V2000
    6.1029    7.5490   84.7574 N   0  0  0  0  0  0  0  0  0  0  0  0
    6.7949    6.3276   84.9951 C   0  0  2  0  0  0  0  0  0  0  0  0
    8.2460    6.4214   84.6141 C   0  0  0  0  0  0  0  0  0  0  0  0
    9.1138    5.9236   85.3720 O   0  0  0  0  0  0  0  0  0  0  0  0
    7.4660    0.7963   81.0285 O   0  0  0  0  0  0  0  0  0  0  0  0
    6.1563    5.1929   84.2306 C   0  0  0  0  0  0  0  0  0  0  0  0
    6.3774    3.8445   84.8737 C   0  0  0  0  0  0  0  0  0  0  0  0
    6.2724    3.5802   86.1803 C   0  0  0  0  0  0  0  0  0  0  0  0
    6.7026    2.6946   84.0833 C   0  0  0  0  0  0  0  0  0  0  0  0
    6.7991    1.6388   85.0305 C   0  0  0  0  0  0  0  0  0  0  0  0
    6.9066    2.4368   82.7556 C   0  0  0  0  0  0  0  0  0  0  0  0
    6.5266    2.2586   86.2693 N   0  0  0  0  0  0  0  0  0  0  0  0
    7.0949    0.3741   84.6929 C   0  0  0  0  0  0  0  0  0  0  0  0
    7.2352    1.0992   82.3768 C   0  0  0  0  0  0  0  0  0  0  0  0
    7.3377    0.0480   83.3552 C   0  0  0  0  0  0  0  0  0  0  0  0
    8.5783    7.0045   83.5606 O   0  0  0  0  0  0  0  0  0  0  0  0
  2  1  1  6  0  0  0
  2  3  1  0  0  0  0
  2  6  1  0  0  0  0
  3  4  1  0  0  0  0
  3 16  1  0  0  0  0
  5 14  1  0  0  0  0
  6  7  1  0  0  0  0
  7  8  2  0  0  0  0
  7  9  1  0  0  0  0
  8 12  1  0  0  0  0
  9 10  2  0  0  0  0
  9 11  1  0  0  0  0
 10 13  1  0  0  0  0
 10 12  1  0  0  0  0
 11 14  2  0  0  0  0
 13 15  2  0  0  0  0
 14 15  1  0  0  0  0
M  END
>  <CHROM.1>
137.28015191,-153.40891332,43.62570060,7.15387251,3.68479365,84.23456804
1.37485970,1.20889698,0.44313876

>  <Name>
ligand

>  <RI>
0

>  <Rbt.Current_Directory>
/home/itssahil/PROJECTS/Mol_Feturizer/Test_systems_manuscript/rnas/5kpy

>  <Rbt.Executable>
rbdock ($Id: //depot/dev/client3/rdock/2013.1/src/exe/rbdock.cxx#4 $)

>  <Rbt.Library>
libRbt.so (2013.1, Build901 2013/11/27)

>  <Rbt.Parameter_File>
/export/apps/rDock/src/rDock_2013.1_src/data/scripts/dock_solv.prm

>  <Rbt.Receptor>
prm/pocket_docking_8.prm

>  <SCORE>
-19.9879

>  <SCORE.INTER>
-20.2403

>  <SCORE.INTER.CONST>
1

>  <SCORE.INTER.POLAR>
0

>  <SCORE.INTER.ROT>
3

>  <SCORE.INTER.SOLV>
4.32997

>  <SCORE.INTER.VDW>
-20.5369

>  <SCORE.INTER.norm>
-1.26502

>  <SCORE.INTRA>
0.252429

>  <SCORE.INTRA.DIHEDRAL>
2.17938

>  <SCORE.INTRA.DIHEDRAL.0>
3.89056

>  <SCORE.INTRA.POLAR>
0

>  <SCORE.INTRA.POLAR.0>
0

>  <SCORE.INTRA.REPUL>
0

>  <SCORE.INTRA.REPUL.0>
0

>  <SCORE.INTRA.SOLV>
-1.15748

>  <SCORE.INTRA.SOLV.lig_0>
-20.733

>  <SCORE.INTRA.VDW>
-0.258517

>  <SCORE.INTRA.VDW.0>
-0.828515

>  <SCORE.INTRA.norm>
0.0157768

>  <SCORE.RESTR>
0

>  <SCORE.RESTR.CAVITY>
0

>  <SCORE.RESTR.norm>
0

>  <SCORE.SYSTEM>
0

>  <SCORE.SYSTEM.CONST>
0

>  <SCORE.SYSTEM.DIHEDRAL>
0

>  <SCORE.SYSTEM.SOLV>
0

>  <SCORE.SYSTEM.norm>
0

>  <SCORE.heavy>
16

>  <SCORE.norm>
-1.24924

>  <RMSD>
1.619

$$$$
ligand
 OpenBabel02271912153D
libRbt.so/2013.1/901 2013/11/27
 16 17  0  0  0  0  0  0  0  0999 V2000
    6.1256    7.5715   84.7286 N   0  0  0  0  0  0  0  0  0  0  0  0
    6.7950    6.3405   84.9806 C   0  0  2  0  0  0  0  0  0  0  0  0
    8.2422    6.3957   84.5776 C   0  0  0  0  0  0  0  0  0  0  0  0
    8.5526    6.8951   83.4688 O   0  0  0  0  0  0  0  0  0  0  0  0
    7.5505    0.8414   81.0513 O   0  0  0  0  0  0  0  0  0  0  0  0
    6.1217    5.2051   84.2477 C   0  0  0  0  0  0  0  0  0  0  0  0
    6.3593    3.8591   84.8902 C   0  0  0  0  0  0  0  0  0  0  0  0
    6.2429    3.5895   86.1947 C   0  0  0  0  0  0  0  0  0  0  0  0
    6.7150    2.7174   84.1010 C   0  0  0  0  0  0  0  0  0  0  0  0
    6.8190    1.6610   85.0469 C   0  0  0  0  0  0  0  0  0  0  0  0
    6.9401    2.4669   82.7754 C   0  0  0  0  0  0  0  0  0  0  0  0
    6.5199    2.2724   86.2836 N   0  0  0  0  0  0  0  0  0  0  0  0
    7.1418    0.4028   84.7098 C   0  0  0  0  0  0  0  0  0  0  0  0
    7.2975    1.1365   82.3974 C   0  0  0  0  0  0  0  0  0  0  0  0
    7.4070    0.0847   83.3745 C   0  0  0  0  0  0  0  0  0  0  0  0
    9.1195    5.9327   85.3365 O   0  0  0  0  0  0  0  0  0  0  0  0
  2  1  1  6  0  0  0
  2  3  1  0  0  0  0
  2  6  1  0  0  0  0
  3  4  1  0  0  0  0
  3 16  1  0  0  0  0
  5 14  1  0  0  0  0
  6  7  1  0  0  0  0
  7  8  2  0  0  0  0
  7  9  1  0  0  0  0
  8 12  1  0  0  0  0
  9 10  2  0  0  0  0
  9 11  1  0  0  0  0
 10 13  1  0  0  0  0
 10 12  1  0  0  0  0
 11 14  2  0  0  0  0
 13 15  2  0  0  0  0
 14 15  1  0  0  0  0
M  END
>  <CHROM.1>
-45.50507867,-155.19988801,46.84246441,7.16849685,3.69463829,84.23193019
1.41909822,1.19161790,0.39377591

>  <Name>
ligand

>  <RI>
0

>  <Rbt.Current_Directory>
/home/itssahil/PROJECTS/Mol_Feturizer/Test_systems_manuscript/rnas/5kpy

>  <Rbt.Executable>
rbdock ($Id: //depot/dev/client3/rdock/2013.1/src/exe/rbdock.cxx#4 $)

>  <Rbt.Library>
libRbt.so (2013.1, Build901 2013/11/27)

>  <Rbt.Parameter_File>
/export/apps/rDock/src/rDock_2013.1_src/data/scripts/dock_solv.prm

>  <Rbt.Receptor>
prm/pocket_docking_5.prm

>  <SCORE>
-20.0009

>  <SCORE.INTER>
-20.0412

>  <SCORE.INTER.CONST>
1

>  <SCORE.INTER.POLAR>
0

>  <SCORE.INTER.ROT>
3

>  <SCORE.INTER.SOLV>
4.3462

>  <SCORE.INTER.VDW>
-20.4095

>  <SCORE.INTER.norm>
-1.25257

>  <SCORE.INTRA>
0.0402869

>  <SCORE.INTRA.DIHEDRAL>
1.87724

>  <SCORE.INTRA.DIHEDRAL.0>
3.89056

>  <SCORE.INTRA.POLAR>
0

>  <SCORE.INTRA.POLAR.0>
0

>  <SCORE.INTRA.REPUL>
0

>  <SCORE.INTRA.REPUL.0>
0

>  <SCORE.INTRA.SOLV>
-1.16402

>  <SCORE.INTRA.SOLV.lig_0>
-20.733

>  <SCORE.INTRA.VDW>
-0.316321

>  <SCORE.INTRA.VDW.0>
-0.828515

>  <SCORE.INTRA.norm>
0.00251793

>  <SCORE.RESTR>
0

>  <SCORE.RESTR.CAVITY>
0

>  <SCORE.RESTR.norm>
0

>  <SCORE.SYSTEM>
0

>  <SCORE.SYSTEM.CONST>
0

>  <SCORE.SYSTEM.DIHEDRAL>
0

>  <SCORE.SYSTEM.SOLV>
0

>  <SCORE.SYSTEM.norm>
0

>  <SCORE.heavy>
16

>  <SCORE.norm>
-1.25006

>  <RMSD>
1.626

$$$$
ligand
 OpenBabel02271912153D
libRbt.so/2013.1/901 2013/11/27
 16 17  0  0  0  0  0  0  0  0999 V2000
    6.5857    7.4949   83.9763 N   0  0  0  0  0  0  0  0  0  0  0  0
    6.9092    6.2908   84.6639 C   0  0  2  0  0  0  0  0  0  0  0  0
    8.3889    6.0259   84.6660 C   0  0  0  0  0  0  0  0  0  0  0  0
    8.9793    5.8275   83.5764 O   0  0  0  0  0  0  0  0  0  0  0  0
    7.2337    0.4760   81.0886 O   0  0  0  0  0  0  0  0  0  0  0  0
    6.1979    5.1124   84.0434 C   0  0  0  0  0  0  0  0  0  0  0  0
    6.4589    3.8126   84.7668 C   0  0  0  0  0  0  0  0  0  0  0  0
    6.4516    3.6468   86.0937 C   0  0  0  0  0  0  0  0  0  0  0  0
    6.7160    2.6037   84.0421 C   0  0  0  0  0  0  0  0  0  0  0  0
    6.8777    1.6197   85.0555 C   0  0  0  0  0  0  0  0  0  0  0  0
    6.8172    2.2461   82.7258 C   0  0  0  0  0  0  0  0  0  0  0  0
    6.7038    2.3325   86.2616 N   0  0  0  0  0  0  0  0  0  0  0  0
    7.1393    0.3302   84.7918 C   0  0  0  0  0  0  0  0  0  0  0  0
    7.1078    0.8804   82.4241 C   0  0  0  0  0  0  0  0  0  0  0  0
    7.2778   -0.0967   83.4677 C   0  0  0  0  0  0  0  0  0  0  0  0
    9.0148    5.9890   85.7464 O   0  0  0  0  0  0  0  0  0  0  0  0
  2  1  1  6  0  0  0
  2  3  1  0  0  0  0
  2  6  1  0  0  0  0
  3  4  1  0  0  0  0
  3 16  1  0  0  0  0
  5 14  1  0  0  0  0
  6  7  1  0  0  0  0
  7  8  2  0  0  0  0
  7  9  1  0  0  0  0
  8 12  1  0  0  0  0
  9 10  2  0  0  0  0
  9 11  1  0  0  0  0
 10 13  1  0  0  0  0
 10 12  1  0  0  0  0
 11 14  2  0  0  0  0
 13 15  2  0  0  0  0
 14 15  1  0  0  0  0
M  END
>  <CHROM.1>
-63.45362296,-177.65655026,44.12745465,7.22771752,3.50919795,84.18756996
-0.98005740,-1.37220530,-2.29518020

>  <Name>
ligand

>  <RI>
0

>  <Rbt.Current_Directory>
/home/itssahil/PROJECTS/Mol_Feturizer/Test_systems_manuscript/rnas/5kpy

>  <Rbt.Executable>
rbdock ($Id: //depot/dev/client3/rdock/2013.1/src/exe/rbdock.cxx#4 $)

>  <Rbt.Library>
libRbt.so (2013.1, Build901 2013/11/27)

>  <Rbt.Parameter_File>
/export/apps/rDock/src/rDock_2013.1_src/data/scripts/dock_solv.prm

>  <Rbt.Receptor>
prm/pocket_docking_3.prm

>  <SCORE>
-22.0966

>  <SCORE.INTER>
-21.2478

>  <SCORE.INTER.CONST>
1

>  <SCORE.INTER.POLAR>
0

>  <SCORE.INTER.ROT>
3

>  <SCORE.INTER.SOLV>
5.28273

>  <SCORE.INTER.VDW>
-21.5261

>  <SCORE.INTER.norm>
-1.32799

>  <SCORE.INTRA>
-0.848777

>  <SCORE.INTRA.DIHEDRAL>
-0.174732

>  <SCORE.INTRA.DIHEDRAL.0>
3.89056

>  <SCORE.INTRA.POLAR>
0

>  <SCORE.INTRA.POLAR.0>
0

>  <SCORE.INTRA.REPUL>
0

>  <SCORE.INTRA.REPUL.0>
0

>  <SCORE.INTRA.SOLV>
-1.20246

>  <SCORE.INTRA.SOLV.lig_0>
-20.733

>  <SCORE.INTRA.VDW>
-0.160184

>  <SCORE.INTRA.VDW.0>
-0.828515

>  <SCORE.INTRA.norm>
-0.0530486

>  <SCORE.RESTR>
0

>  <SCORE.RESTR.CAVITY>
0

>  <SCORE.RESTR.norm>
0

>  <SCORE.SYSTEM>
0

>  <SCORE.SYSTEM.CONST>
0

>  <SCORE.SYSTEM.DIHEDRAL>
0

>  <SCORE.SYSTEM.SOLV>
0

>  <SCORE.SYSTEM.norm>
0

>  <SCORE.heavy>
16

>  <SCORE.norm>
-1.38104

>  <RMSD>
1.634

$$$$
ligand
 OpenBabel02271912153D
libRbt.so/2013.1/901 2013/11/27
 16 17  0  0  0  0  0  0  0  0999 V2000
    7.1769    6.5894   86.0925 N   0  0  0  0  0  0  0  0  0  0  0  0
    7.5678    5.5812   85.1663 C   0  0  2  0  0  0  0  0  0  0  0  0
    8.4223    6.1356   84.0608 C   0  0  0  0  0  0  0  0  0  0  0  0
    8.9495    5.3481   83.2378 O   0  0  0  0  0  0  0  0  0  0  0  0
    8.2922    2.1877   80.0754 O   0  0  0  0  0  0  0  0  0  0  0  0
    6.3573    4.9088   84.5644 C   0  0  0  0  0  0  0  0  0  0  0  0
    6.4417    3.4012   84.5882 C   0  0  0  0  0  0  0  0  0  0  0  0
    6.0716    2.6182   85.6070 C   0  0  0  0  0  0  0  0  0  0  0  0
    6.9211    2.6710   83.4524 C   0  0  0  0  0  0  0  0  0  0  0  0
    6.8216    1.3092   83.8485 C   0  0  0  0  0  0  0  0  0  0  0  0
    7.3922    2.9836   82.2070 C   0  0  0  0  0  0  0  0  0  0  0  0
    6.3018    1.3667   85.1597 N   0  0  0  0  0  0  0  0  0  0  0  0
    7.1796    0.2863   83.0571 C   0  0  0  0  0  0  0  0  0  0  0  0
    7.7907    1.9095   81.3536 C   0  0  0  0  0  0  0  0  0  0  0  0
    7.6906    0.5381   81.7803 C   0  0  0  0  0  0  0  0  0  0  0  0
    8.6145    7.3670   83.9782 O   0  0  0  0  0  0  0  0  0  0  0  0
  2  1  1  1  0  0  0
  2  3  1  0  0  0  0
  2  6  1  0  0  0  0
  3  4  1  0  0  0  0
  3 16  1  0  0  0  0
  5 14  1  0  0  0  0
  6  7  1  0  0  0  0
  7  8  2  0  0  0  0
  7  9  1  0  0  0  0
  8 12  1  0  0  0  0
  9 10  2  0  0  0  0
  9 11  1  0  0  0  0
 10 13  1  0  0  0  0
 10 12  1  0  0  0  0
 11 14  2  0  0  0  0
 13 15  2  0  0  0  0
 14 15  1  0  0  0  0
M  END
>  <CHROM.1>
173.28691939,-131.75474507,86.18643905,7.42418969,3.57019243,83.62449690
1.41378964,1.03247200,0.59605501

>  <Name>
ligand

>  <RI>
0

>  <Rbt.Current_Directory>
/home/itssahil/PROJECTS/Mol_Feturizer/Test_systems_manuscript/rnas/5kpy

>  <Rbt.Executable>
rbdock ($Id: //depot/dev/client3/rdock/2013.1/src/exe/rbdock.cxx#4 $)

>  <Rbt.Library>
libRbt.so (2013.1, Build901 2013/11/27)

>  <Rbt.Parameter_File>
/export/apps/rDock/src/rDock_2013.1_src/data/scripts/dock_solv.prm

>  <Rbt.Receptor>
prm/pocket_docking_2.prm

>  <SCORE>
-17.1901

>  <SCORE.INTER>
-18.8388

>  <SCORE.INTER.CONST>
1

>  <SCORE.INTER.POLAR>
0

>  <SCORE.INTER.ROT>
3

>  <SCORE.INTER.SOLV>
4.78563

>  <SCORE.INTER.VDW>
-19.7544

>  <SCORE.INTER.norm>
-1.17743

>  <SCORE.INTRA>
1.64873

>  <SCORE.INTRA.DIHEDRAL>
5.21412

>  <SCORE.INTRA.DIHEDRAL.0>
3.89056

>  <SCORE.INTRA.POLAR>
0

>  <SCORE.INTRA.POLAR.0>
0

>  <SCORE.INTRA.REPUL>
0

>  <SCORE.INTRA.REPUL.0>
0

>  <SCORE.INTRA.SOLV>
-1.06952

>  <SCORE.INTRA.SOLV.lig_0>
-20.733

>  <SCORE.INTRA.VDW>
-0.423572

>  <SCORE.INTRA.VDW.0>
-0.828515

>  <SCORE.INTRA.norm>
0.103045

>  <SCORE.RESTR>
0

>  <SCORE.RESTR.CAVITY>
0

>  <SCORE.RESTR.norm>
0

>  <SCORE.SYSTEM>
0

>  <SCORE.SYSTEM.CONST>
0

>  <SCORE.SYSTEM.DIHEDRAL>
0

>  <SCORE.SYSTEM.SOLV>
0

>  <SCORE.SYSTEM.norm>
0

>  <SCORE.heavy>
16

>  <SCORE.norm>
-1.07438

>  <RMSD>
1.638

$$$$
ligand
 OpenBabel02271912153D
libRbt.so/2013.1/901 2013/11/27
 16 17  0  0  0  0  0  0  0  0999 V2000
    6.5258    7.4679   84.0374 N   0  0  0  0  0  0  0  0  0  0  0  0
    6.8823    6.2606   84.7026 C   0  0  2  0  0  0  0  0  0  0  0  0
    8.3659    6.0202   84.6724 C   0  0  0  0  0  0  0  0  0  0  0  0
    8.9348    5.8265   83.5706 O   0  0  0  0  0  0  0  0  0  0  0  0
    7.2470    0.4658   81.1008 O   0  0  0  0  0  0  0  0  0  0  0  0
    6.1782    5.0786   84.0806 C   0  0  0  0  0  0  0  0  0  0  0  0
    6.4542    3.7781   84.7971 C   0  0  0  0  0  0  0  0  0  0  0  0
    6.4534    3.6062   86.1232 C   0  0  0  0  0  0  0  0  0  0  0  0
    6.7201    2.5750   84.0659 C   0  0  0  0  0  0  0  0  0  0  0  0
    6.8948    1.5880   85.0742 C   0  0  0  0  0  0  0  0  0  0  0  0
    6.8197    2.2244   82.7476 C   0  0  0  0  0  0  0  0  0  0  0  0
    6.7186    2.2936   86.2841 N   0  0  0  0  0  0  0  0  0  0  0  0
    7.1676    0.3022   84.8036 C   0  0  0  0  0  0  0  0  0  0  0  0
    7.1222    0.8629   82.4386 C   0  0  0  0  0  0  0  0  0  0  0  0
    7.3053   -0.1173   83.4771 C   0  0  0  0  0  0  0  0  0  0  0  0
    9.0165    5.9987   85.7385 O   0  0  0  0  0  0  0  0  0  0  0  0
  2  1  1  6  0  0  0
  2  3  1  0  0  0  0
  2  6  1  0  0  0  0
  3  4  1  0  0  0  0
  3 16  1  0  0  0  0
  5 14  1  0  0  0  0
  6  7  1  0  0  0  0
  7  8  2  0  0  0  0
  7  9  1  0  0  0  0
  8 12  1  0  0  0  0
  9 10  2  0  0  0  0
  9 11  1  0  0  0  0
 10 13  1  0  0  0  0
 10 12  1  0  0  0  0
 11 14  2  0  0  0  0
 13 15  2  0  0  0  0
 14 15  1  0  0  0  0
M  END
>  <CHROM.1>
-64.47378274,-176.58836604,44.21626270,7.22339835,3.48758167,84.20731209
-1.02046715,-1.37499216,-2.33460070

>  <Name>
ligand

>  <RI>
0

>  <Rbt.Current_Directory>
/home/itssahil/PROJECTS/Mol_Feturizer/Test_systems_manuscript/rnas/5kpy

>  <Rbt.Executable>
rbdock ($Id: //depot/dev/client3/rdock/2013.1/src/exe/rbdock.cxx#4 $)

>  <Rbt.Library>
libRbt.so (2013.1, Build901 2013/11/27)

>  <Rbt.Parameter_File>
/export/apps/rDock/src/rDock_2013.1_src/data/scripts/dock_solv.prm

>  <Rbt.Receptor>
prm/pocket_docking_6.prm

>  <SCORE>
-22.1192

>  <SCORE.INTER>
-21.2902

>  <SCORE.INTER.CONST>
1

>  <SCORE.INTER.POLAR>
0

>  <SCORE.INTER.ROT>
3

>  <SCORE.INTER.SOLV>
5.26276

>  <SCORE.INTER.VDW>
-21.5477

>  <SCORE.INTER.norm>
-1.33064

>  <SCORE.INTRA>
-0.828956

>  <SCORE.INTRA.DIHEDRAL>
-0.150296

>  <SCORE.INTRA.DIHEDRAL.0>
3.89056

>  <SCORE.INTRA.POLAR>
0

>  <SCORE.INTRA.POLAR.0>
0

>  <SCORE.INTRA.REPUL>
0

>  <SCORE.INTRA.REPUL.0>
0

>  <SCORE.INTRA.SOLV>
-1.20267

>  <SCORE.INTRA.SOLV.lig_0>
-20.733

>  <SCORE.INTRA.VDW>
-0.152472

>  <SCORE.INTRA.VDW.0>
-0.828515

>  <SCORE.INTRA.norm>
-0.0518098

>  <SCORE.RESTR>
0

>  <SCORE.RESTR.CAVITY>
0

>  <SCORE.RESTR.norm>
0

>  <SCORE.SYSTEM>
0

>  <SCORE.SYSTEM.CONST>
0

>  <SCORE.SYSTEM.DIHEDRAL>
0

>  <SCORE.SYSTEM.SOLV>
0

>  <SCORE.SYSTEM.norm>
0

>  <SCORE.heavy>
16

>  <SCORE.norm>
-1.38245

>  <RMSD>
1.640

$$$$
ligand
 OpenBabel02271912153D
libRbt.so/2013.1/901 2013/11/27
 16 17  0  0  0  0  0  0  0  0999 V2000
    6.4892    7.4122   83.9953 N   0  0  0  0  0  0  0  0  0  0  0  0
    6.8562    6.2052   84.6553 C   0  0  2  0  0  0  0  0  0  0  0  0
    8.3446    5.9946   84.6534 C   0  0  0  0  0  0  0  0  0  0  0  0
    8.9366    5.8023   83.5636 O   0  0  0  0  0  0  0  0  0  0  0  0
    7.2294    0.3630   81.0801 O   0  0  0  0  0  0  0  0  0  0  0  0
    6.1888    5.0161   84.0067 C   0  0  0  0  0  0  0  0  0  0  0  0
    6.4439    3.7196   84.7379 C   0  0  0  0  0  0  0  0  0  0  0  0
    6.4302    3.5605   86.0654 C   0  0  0  0  0  0  0  0  0  0  0  0
    6.7021    2.5065   84.0204 C   0  0  0  0  0  0  0  0  0  0  0  0
    6.8572    1.5273   85.0395 C   0  0  0  0  0  0  0  0  0  0  0  0
    6.8087    2.1421   82.7064 C   0  0  0  0  0  0  0  0  0  0  0  0
    6.6790    2.2465   86.2412 N   0  0  0  0  0  0  0  0  0  0  0  0
    7.1175    0.2360   84.7835 C   0  0  0  0  0  0  0  0  0  0  0  0
    7.0980    0.7743   82.4130 C   0  0  0  0  0  0  0  0  0  0  0  0
    7.2614   -0.1978   83.4623 C   0  0  0  0  0  0  0  0  0  0  0  0
    8.9765    5.9961   85.7308 O   0  0  0  0  0  0  0  0  0  0  0  0
  2  1  1  6  0  0  0
  2  3  1  0  0  0  0
  2  6  1  0  0  0  0
  3  4  1  0  0  0  0
  3 16  1  0  0  0  0
  5 14  1  0  0  0  0
  6  7  1  0  0  0  0
  7  8  2  0  0  0  0
  7  9  1  0  0  0  0
  8 12  1  0  0  0  0
  9 10  2  0  0  0  0
  9 11  1  0  0  0  0
 10 13  1  0  0  0  0
 10 12  1  0  0  0  0
 11 14  2  0  0  0  0
 13 15  2  0  0  0  0
 14 15  1  0  0  0  0
M  END
>  <CHROM.1>
-65.62843654,-174.95084182,41.90299493,7.19958160,3.43058638,84.17307940
-1.01064931,-1.37255174,-2.32719340

>  <Name>
ligand

>  <RI>
0

>  <Rbt.Current_Directory>
/home/itssahil/PROJECTS/Mol_Feturizer/Test_systems_manuscript/rnas/5kpy

>  <Rbt.Executable>
rbdock ($Id: //depot/dev/client3/rdock/2013.1/src/exe/rbdock.cxx#4 $)

>  <Rbt.Library>
libRbt.so (2013.1, Build901 2013/11/27)

>  <Rbt.Parameter_File>
/export/apps/rDock/src/rDock_2013.1_src/data/scripts/dock_solv.prm

>  <Rbt.Receptor>
prm/pocket_docking_7.prm

>  <SCORE>
-22.1237

>  <SCORE.INTER>
-21.3548

>  <SCORE.INTER.CONST>
1

>  <SCORE.INTER.POLAR>
0

>  <SCORE.INTER.ROT>
3

>  <SCORE.INTER.SOLV>
5.35267

>  <SCORE.INTER.VDW>
-21.6207

>  <SCORE.INTER.norm>
-1.33467

>  <SCORE.INTRA>
-0.768971

>  <SCORE.INTRA.DIHEDRAL>
-0.102829

>  <SCORE.INTRA.DIHEDRAL.0>
3.89056

>  <SCORE.INTRA.POLAR>
0

>  <SCORE.INTRA.POLAR.0>
0

>  <SCORE.INTRA.REPUL>
0

>  <SCORE.INTRA.REPUL.0>
0

>  <SCORE.INTRA.SOLV>
-1.20257

>  <SCORE.INTRA.SOLV.lig_0>
-20.733

>  <SCORE.INTRA.VDW>
-0.11627

>  <SCORE.INTRA.VDW.0>
-0.828515

>  <SCORE.INTRA.norm>
-0.0480607

>  <SCORE.RESTR>
0

>  <SCORE.RESTR.CAVITY>
0

>  <SCORE.RESTR.norm>
0

>  <SCORE.SYSTEM>
0

>  <SCORE.SYSTEM.CONST>
0

>  <SCORE.SYSTEM.DIHEDRAL>
0

>  <SCORE.SYSTEM.SOLV>
0

>  <SCORE.SYSTEM.norm>
0

>  <SCORE.heavy>
16

>  <SCORE.norm>
-1.38273

>  <RMSD>
1.645

$$$$
ligand
 OpenBabel02271912153D
libRbt.so/2013.1/901 2013/11/27
 16 17  0  0  0  0  0  0  0  0999 V2000
    6.1153    7.5952   84.6242 N   0  0  0  0  0  0  0  0  0  0  0  0
    6.7864    6.3724   84.9098 C   0  0  2  0  0  0  0  0  0  0  0  0
    8.2420    6.4312   84.5390 C   0  0  0  0  0  0  0  0  0  0  0  0
    8.5805    6.9836   83.4640 O   0  0  0  0  0  0  0  0  0  0  0  0
    7.5398    0.7715   81.0923 O   0  0  0  0  0  0  0  0  0  0  0  0
    6.1371    5.2219   84.1787 C   0  0  0  0  0  0  0  0  0  0  0  0
    6.3574    3.8889   84.8535 C   0  0  0  0  0  0  0  0  0  0  0  0
    6.2309    3.6507   86.1631 C   0  0  0  0  0  0  0  0  0  0  0  0
    6.7061    2.7257   84.0930 C   0  0  0  0  0  0  0  0  0  0  0  0
    6.7941    1.6905   85.0635 C   0  0  0  0  0  0  0  0  0  0  0  0
    6.9362    2.4424   82.7748 C   0  0  0  0  0  0  0  0  0  0  0  0
    6.4942    2.3334   86.2841 N   0  0  0  0  0  0  0  0  0  0  0  0
    7.1061    0.4217   84.7575 C   0  0  0  0  0  0  0  0  0  0  0  0
    7.2823    1.1001   82.4297 C   0  0  0  0  0  0  0  0  0  0  0  0
    7.3756    0.0702   83.4314 C   0  0  0  0  0  0  0  0  0  0  0  0
    9.0986    5.9191   85.2901 O   0  0  0  0  0  0  0  0  0  0  0  0
  2  1  1  6  0  0  0
  2  3  1  0  0  0  0
  2  6  1  0  0  0  0
  3  4  1  0  0  0  0
  3 16  1  0  0  0  0
  5 14  1  0  0  0  0
  6  7  1  0  0  0  0
  7  8  2  0  0  0  0
  7  9  1  0  0  0  0
  8 12  1  0  0  0  0
  9 10  2  0  0  0  0
  9 11  1  0  0  0  0
 10 13  1  0  0  0  0
 10 12  1  0  0  0  0
 11 14  2  0  0  0  0
 13 15  2  0  0  0  0
 14 15  1  0  0  0  0
M  END
>  <CHROM.1>
-41.54095455,-154.66280865,45.28279576,7.15869843,3.70987420,84.21747704
1.40888373,1.18789238,0.38419989

>  <Name>
ligand

>  <RI>
0

>  <Rbt.Current_Directory>
/home/itssahil/PROJECTS/Mol_Feturizer/Test_systems_manuscript/rnas/5kpy

>  <Rbt.Executable>
rbdock ($Id: //depot/dev/client3/rdock/2013.1/src/exe/rbdock.cxx#4 $)

>  <Rbt.Library>
libRbt.so (2013.1, Build901 2013/11/27)

>  <Rbt.Parameter_File>
/export/apps/rDock/src/rDock_2013.1_src/data/scripts/dock_solv.prm

>  <Rbt.Receptor>
prm/pocket_docking_3.prm

>  <SCORE>
-20.0094

>  <SCORE.INTER>
-20.0926

>  <SCORE.INTER.CONST>
1

>  <SCORE.INTER.POLAR>
0

>  <SCORE.INTER.ROT>
3

>  <SCORE.INTER.SOLV>
4.39144

>  <SCORE.INTER.VDW>
-20.4589

>  <SCORE.INTER.norm>
-1.25579

>  <SCORE.INTRA>
0.0832132

>  <SCORE.INTRA.DIHEDRAL>
1.9465

>  <SCORE.INTRA.DIHEDRAL.0>
3.89056

>  <SCORE.INTRA.POLAR>
0

>  <SCORE.INTRA.POLAR.0>
0

>  <SCORE.INTRA.REPUL>
0

>  <SCORE.INTRA.REPUL.0>
0

>  <SCORE.INTRA.SOLV>
-1.1604

>  <SCORE.INTRA.SOLV.lig_0>
-20.733

>  <SCORE.INTRA.VDW>
-0.309836

>  <SCORE.INTRA.VDW.0>
-0.828515

>  <SCORE.INTRA.norm>
0.00520083

>  <SCORE.RESTR>
0

>  <SCORE.RESTR.CAVITY>
0

>  <SCORE.RESTR.norm>
0

>  <SCORE.SYSTEM>
0

>  <SCORE.SYSTEM.CONST>
0

>  <SCORE.SYSTEM.DIHEDRAL>
0

>  <SCORE.SYSTEM.SOLV>
0

>  <SCORE.SYSTEM.norm>
0

>  <SCORE.heavy>
16

>  <SCORE.norm>
-1.25059

>  <RMSD>
1.646

$$$$
ligand
 OpenBabel02271912153D
libRbt.so/2013.1/901 2013/11/27
 16 17  0  0  0  0  0  0  0  0999 V2000
    6.5333    7.4754   84.0765 N   0  0  0  0  0  0  0  0  0  0  0  0
    6.9025    6.2612   84.7218 C   0  0  2  0  0  0  0  0  0  0  0  0
    8.3862    6.0256   84.6681 C   0  0  0  0  0  0  0  0  0  0  0  0
    9.0469    6.0222   85.7352 O   0  0  0  0  0  0  0  0  0  0  0  0
    7.1590    0.4666   81.0887 O   0  0  0  0  0  0  0  0  0  0  0  0
    6.1931    5.0847   84.0952 C   0  0  0  0  0  0  0  0  0  0  0  0
    6.4663    3.7797   84.8044 C   0  0  0  0  0  0  0  0  0  0  0  0
    6.4859    3.6049   86.1299 C   0  0  0  0  0  0  0  0  0  0  0  0
    6.7062    2.5752   84.0664 C   0  0  0  0  0  0  0  0  0  0  0  0
    6.8866    1.5841   85.0696 C   0  0  0  0  0  0  0  0  0  0  0  0
    6.7796    2.2263   82.7460 C   0  0  0  0  0  0  0  0  0  0  0  0
    6.7388    2.2890   86.2838 N   0  0  0  0  0  0  0  0  0  0  0  0
    7.1402    0.2959   84.7920 C   0  0  0  0  0  0  0  0  0  0  0  0
    7.0613    0.8622   82.4292 C   0  0  0  0  0  0  0  0  0  0  0  0
    7.2507   -0.1223   83.4625 C   0  0  0  0  0  0  0  0  0  0  0  0
    8.9511    5.8520   83.5677 O   0  0  0  0  0  0  0  0  0  0  0  0
  2  1  1  6  0  0  0
  2  3  1  0  0  0  0
  2  6  1  0  0  0  0
  3  4  1  0  0  0  0
  3 16  1  0  0  0  0
  5 14  1  0  0  0  0
  6  7  1  0  0  0  0
  7  8  2  0  0  0  0
  7  9  1  0  0  0  0
  8 12  1  0  0  0  0
  9 10  2  0  0  0  0
  9 11  1  0  0  0  0
 10 13  1  0  0  0  0
 10 12  1  0  0  0  0
 11 14  2  0  0  0  0
 13 15  2  0  0  0  0
 14 15  1  0  0  0  0
M  END
>  <CHROM.1>
114.95817618,-175.72640046,43.24041091,7.21635598,3.49152822,84.20884334
-0.91475025,-1.38053672,-2.22589502

>  <Name>
ligand

>  <RI>
0

>  <Rbt.Current_Directory>
/home/itssahil/PROJECTS/Mol_Feturizer/Test_systems_manuscript/rnas/5kpy

>  <Rbt.Executable>
rbdock ($Id: //depot/dev/client3/rdock/2013.1/src/exe/rbdock.cxx#4 $)

>  <Rbt.Library>
libRbt.so (2013.1, Build901 2013/11/27)

>  <Rbt.Parameter_File>
/export/apps/rDock/src/rDock_2013.1_src/data/scripts/dock_solv.prm

>  <Rbt.Receptor>
prm/pocket_docking_5.prm

>  <SCORE>
-22.1528

>  <SCORE.INTER>
-21.3214

>  <SCORE.INTER.CONST>
1

>  <SCORE.INTER.POLAR>
0

>  <SCORE.INTER.ROT>
3

>  <SCORE.INTER.SOLV>
5.259

>  <SCORE.INTER.VDW>
-21.5673

>  <SCORE.INTER.norm>
-1.33259

>  <SCORE.INTRA>
-0.831422

>  <SCORE.INTRA.DIHEDRAL>
-0.144517

>  <SCORE.INTRA.DIHEDRAL.0>
3.89056

>  <SCORE.INTRA.POLAR>
0

>  <SCORE.INTRA.POLAR.0>
0

>  <SCORE.INTRA.REPUL>
0

>  <SCORE.INTRA.REPUL.0>
0

>  <SCORE.INTRA.SOLV>
-1.19793

>  <SCORE.INTRA.SOLV.lig_0>
-20.733

>  <SCORE.INTRA.VDW>
-0.160197

>  <SCORE.INTRA.VDW.0>
-0.828515

>  <SCORE.INTRA.norm>
-0.0519639

>  <SCORE.RESTR>
0

>  <SCORE.RESTR.CAVITY>
0

>  <SCORE.RESTR.norm>
0

>  <SCORE.SYSTEM>
0

>  <SCORE.SYSTEM.CONST>
0

>  <SCORE.SYSTEM.DIHEDRAL>
0

>  <SCORE.SYSTEM.SOLV>
0

>  <SCORE.SYSTEM.norm>
0

>  <SCORE.heavy>
16

>  <SCORE.norm>
-1.38455

>  <RMSD>
1.647

$$$$
ligand
 OpenBabel02271912153D
libRbt.so/2013.1/901 2013/11/27
 16 17  0  0  0  0  0  0  0  0999 V2000
    6.5372    7.4573   83.9266 N   0  0  0  0  0  0  0  0  0  0  0  0
    6.8850    6.2591   84.6123 C   0  0  2  0  0  0  0  0  0  0  0  0
    8.3679    6.0134   84.5962 C   0  0  0  0  0  0  0  0  0  0  0  0
    8.9497    5.8368   83.4982 O   0  0  0  0  0  0  0  0  0  0  0  0
    7.2548    0.4164   81.0895 O   0  0  0  0  0  0  0  0  0  0  0  0
    6.1812    5.0701   84.0033 C   0  0  0  0  0  0  0  0  0  0  0  0
    6.4520    3.7788   84.7381 C   0  0  0  0  0  0  0  0  0  0  0  0
    6.4453    3.6245   86.0663 C   0  0  0  0  0  0  0  0  0  0  0  0
    6.7189    2.5656   84.0241 C   0  0  0  0  0  0  0  0  0  0  0  0
    6.8877    1.5918   85.0461 C   0  0  0  0  0  0  0  0  0  0  0  0
    6.8235    2.1974   82.7110 C   0  0  0  0  0  0  0  0  0  0  0  0
    6.7076    2.3137   86.2459 N   0  0  0  0  0  0  0  0  0  0  0  0
    7.1595    0.3021   84.7938 C   0  0  0  0  0  0  0  0  0  0  0  0
    7.1249    0.8314   82.4214 C   0  0  0  0  0  0  0  0  0  0  0  0
    7.3021   -0.1352   83.4736 C   0  0  0  0  0  0  0  0  0  0  0  0
    9.0051    5.9705   85.6696 O   0  0  0  0  0  0  0  0  0  0  0  0
  2  1  1  6  0  0  0
  2  3  1  0  0  0  0
  2  6  1  0  0  0  0
  3  4  1  0  0  0  0
  3 16  1  0  0  0  0
  5 14  1  0  0  0  0
  6  7  1  0  0  0  0
  7  8  2  0  0  0  0
  7  9  1  0  0  0  0
  8 12  1  0  0  0  0
  9 10  2  0  0  0  0
  9 11  1  0  0  0  0
 10 13  1  0  0  0  0
 10 12  1  0  0  0  0
 11 14  2  0  0  0  0
 13 15  2  0  0  0  0
 14 15  1  0  0  0  0
M  END
>  <CHROM.1>
-62.57425099,-176.80401471,44.22851649,7.22342984,3.47848555,84.15643640
-1.02535796,-1.37218494,-2.35288838

>  <Name>
ligand

>  <RI>
0

>  <Rbt.Current_Directory>
/home/itssahil/PROJECTS/Mol_Feturizer/Test_systems_manuscript/rnas/5kpy

>  <Rbt.Executable>
rbdock ($Id: //depot/dev/client3/rdock/2013.1/src/exe/rbdock.cxx#4 $)

>  <Rbt.Library>
libRbt.so (2013.1, Build901 2013/11/27)

>  <Rbt.Parameter_File>
/export/apps/rDock/src/rDock_2013.1_src/data/scripts/dock_solv.prm

>  <Rbt.Receptor>
prm/pocket_docking_3.prm

>  <SCORE>
-22.1086

>  <SCORE.INTER>
-21.2501

>  <SCORE.INTER.CONST>
1

>  <SCORE.INTER.POLAR>
0

>  <SCORE.INTER.ROT>
3

>  <SCORE.INTER.SOLV>
5.34619

>  <SCORE.INTER.VDW>
-21.5488

>  <SCORE.INTER.norm>
-1.32813

>  <SCORE.INTRA>
-0.858458

>  <SCORE.INTRA.DIHEDRAL>
-0.158685

>  <SCORE.INTRA.DIHEDRAL.0>
3.89056

>  <SCORE.INTRA.POLAR>
0

>  <SCORE.INTRA.POLAR.0>
0

>  <SCORE.INTRA.REPUL>
0

>  <SCORE.INTRA.REPUL.0>
0

>  <SCORE.INTRA.SOLV>
-1.20179

>  <SCORE.INTRA.SOLV.lig_0>
-20.733

>  <SCORE.INTRA.VDW>
-0.178221

>  <SCORE.INTRA.VDW.0>
-0.828515

>  <SCORE.INTRA.norm>
-0.0536536

>  <SCORE.RESTR>
0

>  <SCORE.RESTR.CAVITY>
0

>  <SCORE.RESTR.norm>
0

>  <SCORE.SYSTEM>
0

>  <SCORE.SYSTEM.CONST>
0

>  <SCORE.SYSTEM.DIHEDRAL>
0

>  <SCORE.SYSTEM.SOLV>
0

>  <SCORE.SYSTEM.norm>
0

>  <SCORE.heavy>
16

>  <SCORE.norm>
-1.38179

>  <RMSD>
1.650

$$$$
ligand
 OpenBabel02271912153D
libRbt.so/2013.1/901 2013/11/27
 16 17  0  0  0  0  0  0  0  0999 V2000
    6.4631    7.4523   83.9712 N   0  0  0  0  0  0  0  0  0  0  0  0
    6.8505    6.2476   84.6236 C   0  0  2  0  0  0  0  0  0  0  0  0
    8.3392    6.0423   84.5852 C   0  0  0  0  0  0  0  0  0  0  0  0
    8.9107    5.8939   83.4776 O   0  0  0  0  0  0  0  0  0  0  0  0
    7.3061    0.4085   81.0918 O   0  0  0  0  0  0  0  0  0  0  0  0
    6.1716    5.0553   83.9935 C   0  0  0  0  0  0  0  0  0  0  0  0
    6.4338    3.7637   84.7310 C   0  0  0  0  0  0  0  0  0  0  0  0
    6.4056    3.6077   86.0587 C   0  0  0  0  0  0  0  0  0  0  0  0
    6.7159    2.5523   84.0199 C   0  0  0  0  0  0  0  0  0  0  0  0
    6.8705    1.5776   85.0433 C   0  0  0  0  0  0  0  0  0  0  0  0
    6.8432    2.1861   82.7083 C   0  0  0  0  0  0  0  0  0  0  0  0
    6.6686    2.2973   86.2408 N   0  0  0  0  0  0  0  0  0  0  0  0
    7.1500    0.2889   84.7938 C   0  0  0  0  0  0  0  0  0  0  0  0
    7.1532    0.8213   82.4218 C   0  0  0  0  0  0  0  0  0  0  0  0
    7.3156   -0.1462   83.4756 C   0  0  0  0  0  0  0  0  0  0  0  0
    8.9917    6.0046   85.6496 O   0  0  0  0  0  0  0  0  0  0  0  0
  2  1  1  6  0  0  0
  2  3  1  0  0  0  0
  2  6  1  0  0  0  0
  3  4  1  0  0  0  0
  3 16  1  0  0  0  0
  5 14  1  0  0  0  0
  6  7  1  0  0  0  0
  7  8  2  0  0  0  0
  7  9  1  0  0  0  0
  8 12  1  0  0  0  0
  9 10  2  0  0  0  0
  9 11  1  0  0  0  0
 10 13  1  0  0  0  0
 10 12  1  0  0  0  0
 11 14  2  0  0  0  0
 13 15  2  0  0  0  0
 14 15  1  0  0  0  0
M  END
>  <CHROM.1>
-63.32020263,-174.15276761,43.64966654,7.20995243,3.47736068,84.15431317
-1.12426611,-1.35210433,-2.45523410

>  <Name>
ligand

>  <RI>
0

>  <Rbt.Current_Directory>
/home/itssahil/PROJECTS/Mol_Feturizer/Test_systems_manuscript/rnas/5kpy

>  <Rbt.Executable>
rbdock ($Id: //depot/dev/client3/rdock/2013.1/src/exe/rbdock.cxx#4 $)

>  <Rbt.Library>
libRbt.so (2013.1, Build901 2013/11/27)

>  <Rbt.Parameter_File>
/export/apps/rDock/src/rDock_2013.1_src/data/scripts/dock_solv.prm

>  <Rbt.Receptor>
prm/pocket_docking_3.prm

>  <SCORE>
-22.0863

>  <SCORE.INTER>
-21.2787

>  <SCORE.INTER.CONST>
1

>  <SCORE.INTER.POLAR>
0

>  <SCORE.INTER.ROT>
3

>  <SCORE.INTER.SOLV>
5.2878

>  <SCORE.INTER.VDW>
-21.5484

>  <SCORE.INTER.norm>
-1.32992

>  <SCORE.INTRA>
-0.807593

>  <SCORE.INTRA.DIHEDRAL>
-0.069239

>  <SCORE.INTRA.DIHEDRAL.0>
3.89056

>  <SCORE.INTRA.POLAR>
0

>  <SCORE.INTRA.POLAR.0>
0

>  <SCORE.INTRA.REPUL>
0

>  <SCORE.INTRA.REPUL.0>
0

>  <SCORE.INTRA.SOLV>
-1.20104

>  <SCORE.INTRA.SOLV.lig_0>
-20.733

>  <SCORE.INTRA.VDW>
-0.172452

>  <SCORE.INTRA.VDW.0>
-0.828515

>  <SCORE.INTRA.norm>
-0.0504746

>  <SCORE.RESTR>
0

>  <SCORE.RESTR.CAVITY>
0

>  <SCORE.RESTR.norm>
0

>  <SCORE.SYSTEM>
0

>  <SCORE.SYSTEM.CONST>
0

>  <SCORE.SYSTEM.DIHEDRAL>
0

>  <SCORE.SYSTEM.SOLV>
0

>  <SCORE.SYSTEM.norm>
0

>  <SCORE.heavy>
16

>  <SCORE.norm>
-1.38039

>  <RMSD>
1.650

$$$$
ligand
 OpenBabel02271912153D
libRbt.so/2013.1/901 2013/11/27
 16 17  0  0  0  0  0  0  0  0999 V2000
    6.4655    7.4359   84.0154 N   0  0  0  0  0  0  0  0  0  0  0  0
    6.8521    6.2320   84.6698 C   0  0  2  0  0  0  0  0  0  0  0  0
    8.3437    6.0454   84.6665 C   0  0  0  0  0  0  0  0  0  0  0  0
    8.9663    6.0518   85.7563 O   0  0  0  0  0  0  0  0  0  0  0  0
    7.1863    0.3646   81.0977 O   0  0  0  0  0  0  0  0  0  0  0  0
    6.2036    5.0353   84.0163 C   0  0  0  0  0  0  0  0  0  0  0  0
    6.4674    3.7419   84.7500 C   0  0  0  0  0  0  0  0  0  0  0  0
    6.4747    3.5897   86.0785 C   0  0  0  0  0  0  0  0  0  0  0  0
    6.7113    2.5245   84.0349 C   0  0  0  0  0  0  0  0  0  0  0  0
    6.8804    1.5503   85.0564 C   0  0  0  0  0  0  0  0  0  0  0  0
    6.7958    2.1531   82.7213 C   0  0  0  0  0  0  0  0  0  0  0  0
    6.7232    2.2761   86.2570 N   0  0  0  0  0  0  0  0  0  0  0  0
    7.1335    0.2570   84.8031 C   0  0  0  0  0  0  0  0  0  0  0  0
    7.0773    0.7831   82.4303 C   0  0  0  0  0  0  0  0  0  0  0  0
    7.2551   -0.1840   83.4819 C   0  0  0  0  0  0  0  0  0  0  0  0
    8.9524    5.9024   83.5852 O   0  0  0  0  0  0  0  0  0  0  0  0
  2  1  1  6  0  0  0
  2  3  1  0  0  0  0
  2  6  1  0  0  0  0
  3  4  1  0  0  0  0
  3 16  1  0  0  0  0
  5 14  1  0  0  0  0
  6  7  1  0  0  0  0
  7  8  2  0  0  0  0
  7  9  1  0  0  0  0
  8 12  1  0  0  0  0
  9 10  2  0  0  0  0
  9 11  1  0  0  0  0
 10 13  1  0  0  0  0
 10 12  1  0  0  0  0
 11 14  2  0  0  0  0
 13 15  2  0  0  0  0
 14 15  1  0  0  0  0
M  END
>  <CHROM.1>
115.38087102,-174.32401739,40.28227876,7.20312828,3.46022984,84.18991579
-0.92076636,-1.39214133,-2.23742633

>  <Name>
ligand

>  <RI>
0

>  <Rbt.Current_Directory>
/home/itssahil/PROJECTS/Mol_Feturizer/Test_systems_manuscript/rnas/5kpy

>  <Rbt.Executable>
rbdock ($Id: //depot/dev/client3/rdock/2013.1/src/exe/rbdock.cxx#4 $)

>  <Rbt.Library>
libRbt.so (2013.1, Build901 2013/11/27)

>  <Rbt.Parameter_File>
/export/apps/rDock/src/rDock_2013.1_src/data/scripts/dock_solv.prm

>  <Rbt.Receptor>
prm/pocket_docking_6.prm

>  <SCORE>
-22.1081

>  <SCORE.INTER>
-21.3213

>  <SCORE.INTER.CONST>
1

>  <SCORE.INTER.POLAR>
0

>  <SCORE.INTER.ROT>
3

>  <SCORE.INTER.SOLV>
5.31818

>  <SCORE.INTER.VDW>
-21.5869

>  <SCORE.INTER.norm>
-1.33258

>  <SCORE.INTRA>
-0.78678

>  <SCORE.INTRA.DIHEDRAL>
-0.0985927

>  <SCORE.INTRA.DIHEDRAL.0>
3.89056

>  <SCORE.INTRA.POLAR>
0

>  <SCORE.INTRA.POLAR.0>
0

>  <SCORE.INTRA.REPUL>
0

>  <SCORE.INTRA.REPUL.0>
0

>  <SCORE.INTRA.SOLV>
-1.19714

>  <SCORE.INTRA.SOLV.lig_0>
-20.733

>  <SCORE.INTRA.VDW>
-0.138914

>  <SCORE.INTRA.VDW.0>
-0.828515

>  <SCORE.INTRA.norm>
-0.0491738

>  <SCORE.RESTR>
0

>  <SCORE.RESTR.CAVITY>
0

>  <SCORE.RESTR.norm>
0

>  <SCORE.SYSTEM>
0

>  <SCORE.SYSTEM.CONST>
0

>  <SCORE.SYSTEM.DIHEDRAL>
0

>  <SCORE.SYSTEM.SOLV>
0

>  <SCORE.SYSTEM.norm>
0

>  <SCORE.heavy>
16

>  <SCORE.norm>
-1.38176

>  <RMSD>
1.650

$$$$
ligand
 OpenBabel02271912153D
libRbt.so/2013.1/901 2013/11/27
 16 17  0  0  0  0  0  0  0  0999 V2000
    6.5242    7.4269   84.0053 N   0  0  0  0  0  0  0  0  0  0  0  0
    6.8914    6.2190   84.6634 C   0  0  2  0  0  0  0  0  0  0  0  0
    8.3806    6.0139   84.6704 C   0  0  0  0  0  0  0  0  0  0  0  0
    8.9858    5.8674   83.5806 O   0  0  0  0  0  0  0  0  0  0  0  0
    7.1268    0.3479   81.0773 O   0  0  0  0  0  0  0  0  0  0  0  0
    6.2326    5.0298   84.0066 C   0  0  0  0  0  0  0  0  0  0  0  0
    6.4843    3.7323   84.7374 C   0  0  0  0  0  0  0  0  0  0  0  0
    6.5000    3.5790   86.0656 C   0  0  0  0  0  0  0  0  0  0  0  0
    6.7054    2.5121   84.0196 C   0  0  0  0  0  0  0  0  0  0  0  0
    6.8691    1.5349   85.0391 C   0  0  0  0  0  0  0  0  0  0  0  0
    6.7743    2.1405   82.7051 C   0  0  0  0  0  0  0  0  0  0  0  0
    6.7317    2.2620   86.2414 N   0  0  0  0  0  0  0  0  0  0  0  0
    7.1022    0.2384   84.7829 C   0  0  0  0  0  0  0  0  0  0  0  0
    7.0343    0.7670   82.4110 C   0  0  0  0  0  0  0  0  0  0  0  0
    7.2071   -0.2033   83.4606 C   0  0  0  0  0  0  0  0  0  0  0  0
    9.0002    5.9746   85.7542 O   0  0  0  0  0  0  0  0  0  0  0  0
  2  1  1  6  0  0  0
  2  3  1  0  0  0  0
  2  6  1  0  0  0  0
  3  4  1  0  0  0  0
  3 16  1  0  0  0  0
  5 14  1  0  0  0  0
  6  7  1  0  0  0  0
  7  8  2  0  0  0  0
  7  9  1  0  0  0  0
  8 12  1  0  0  0  0
  9 10  2  0  0  0  0
  9 11  1  0  0  0  0
 10 13  1  0  0  0  0
 10 12  1  0  0  0  0
 11 14  2  0  0  0  0
 13 15  2  0  0  0  0
 14 15  1  0  0  0  0
M  END
>  <CHROM.1>
-63.51356024,-174.76763577,39.70303598,7.20786804,3.43945652,84.17766096
-0.81666822,-1.39325216,-2.13010118

>  <Name>
ligand

>  <RI>
0

>  <Rbt.Current_Directory>
/home/itssahil/PROJECTS/Mol_Feturizer/Test_systems_manuscript/rnas/5kpy

>  <Rbt.Executable>
rbdock ($Id: //depot/dev/client3/rdock/2013.1/src/exe/rbdock.cxx#4 $)

>  <Rbt.Library>
libRbt.so (2013.1, Build901 2013/11/27)

>  <Rbt.Parameter_File>
/export/apps/rDock/src/rDock_2013.1_src/data/scripts/dock_solv.prm

>  <Rbt.Receptor>
prm/pocket_docking_3.prm

>  <SCORE>
-22.1071

>  <SCORE.INTER>
-21.3303

>  <SCORE.INTER.CONST>
1

>  <SCORE.INTER.POLAR>
0

>  <SCORE.INTER.ROT>
3

>  <SCORE.INTER.SOLV>
5.37673

>  <SCORE.INTER.VDW>
-21.6124

>  <SCORE.INTER.norm>
-1.33314

>  <SCORE.INTRA>
-0.776789

>  <SCORE.INTRA.DIHEDRAL>
-0.10418

>  <SCORE.INTRA.DIHEDRAL.0>
3.89056

>  <SCORE.INTRA.POLAR>
0

>  <SCORE.INTRA.POLAR.0>
0

>  <SCORE.INTRA.REPUL>
0

>  <SCORE.INTRA.REPUL.0>
0

>  <SCORE.INTRA.SOLV>
-1.20145

>  <SCORE.INTRA.SOLV.lig_0>
-20.733

>  <SCORE.INTRA.VDW>
-0.123975

>  <SCORE.INTRA.VDW.0>
-0.828515

>  <SCORE.INTRA.norm>
-0.0485493

>  <SCORE.RESTR>
0

>  <SCORE.RESTR.CAVITY>
0

>  <SCORE.RESTR.norm>
0

>  <SCORE.SYSTEM>
0

>  <SCORE.SYSTEM.CONST>
0

>  <SCORE.SYSTEM.DIHEDRAL>
0

>  <SCORE.SYSTEM.SOLV>
0

>  <SCORE.SYSTEM.norm>
0

>  <SCORE.heavy>
16

>  <SCORE.norm>
-1.38169

>  <RMSD>
1.653

$$$$
ligand
 OpenBabel02271912153D
libRbt.so/2013.1/901 2013/11/27
 16 17  0  0  0  0  0  0  0  0999 V2000
    6.5635    7.4473   83.9032 N   0  0  0  0  0  0  0  0  0  0  0  0
    6.9016    6.2448   84.5863 C   0  0  2  0  0  0  0  0  0  0  0  0
    8.3812    5.9805   84.5586 C   0  0  0  0  0  0  0  0  0  0  0  0
    9.0246    5.9748   85.6362 O   0  0  0  0  0  0  0  0  0  0  0  0
    7.2735    0.4073   81.0831 O   0  0  0  0  0  0  0  0  0  0  0  0
    6.1782    5.0648   83.9828 C   0  0  0  0  0  0  0  0  0  0  0  0
    6.4312    3.7718   84.7209 C   0  0  0  0  0  0  0  0  0  0  0  0
    6.4033    3.6169   86.0488 C   0  0  0  0  0  0  0  0  0  0  0  0
    6.7031    2.5577   84.0104 C   0  0  0  0  0  0  0  0  0  0  0  0
    6.8514    1.5825   85.0343 C   0  0  0  0  0  0  0  0  0  0  0  0
    6.8261    2.1896   82.6989 C   0  0  0  0  0  0  0  0  0  0  0  0
    6.6563    2.3047   86.2315 N   0  0  0  0  0  0  0  0  0  0  0  0
    7.1206    0.2916   84.7855 C   0  0  0  0  0  0  0  0  0  0  0  0
    7.1252    0.8223   82.4131 C   0  0  0  0  0  0  0  0  0  0  0  0
    7.2813   -0.1458   83.4673 C   0  0  0  0  0  0  0  0  0  0  0  0
    8.9601    5.7856   83.4691 O   0  0  0  0  0  0  0  0  0  0  0  0
  2  1  1  6  0  0  0
  2  3  1  0  0  0  0
  2  6  1  0  0  0  0
  3  4  1  0  0  0  0
  3 16  1  0  0  0  0
  5 14  1  0  0  0  0
  6  7  1  0  0  0  0
  7  8  2  0  0  0  0
  7  9  1  0  0  0  0
  8 12  1  0  0  0  0
  9 10  2  0  0  0  0
  9 11  1  0  0  0  0
 10 13  1  0  0  0  0
 10 12  1  0  0  0  0
 11 14  2  0  0  0  0
 13 15  2  0  0  0  0
 14 15  1  0  0  0  0
M  END
>  <CHROM.1>
116.00421631,-176.42463863,45.43492023,7.21726423,3.46589610,84.13819337
-1.07584935,-1.34391576,-2.40918853

>  <Name>
ligand

>  <RI>
0

>  <Rbt.Current_Directory>
/home/itssahil/PROJECTS/Mol_Feturizer/Test_systems_manuscript/rnas/5kpy

>  <Rbt.Executable>
rbdock ($Id: //depot/dev/client3/rdock/2013.1/src/exe/rbdock.cxx#4 $)

>  <Rbt.Library>
libRbt.so (2013.1, Build901 2013/11/27)

>  <Rbt.Parameter_File>
/export/apps/rDock/src/rDock_2013.1_src/data/scripts/dock_solv.prm

>  <Rbt.Receptor>
prm/pocket_docking_8.prm

>  <SCORE>
-22.1771

>  <SCORE.INTER>
-21.3043

>  <SCORE.INTER.CONST>
1

>  <SCORE.INTER.POLAR>
0

>  <SCORE.INTER.ROT>
3

>  <SCORE.INTER.SOLV>
5.3588

>  <SCORE.INTER.VDW>
-21.5891

>  <SCORE.INTER.norm>
-1.33152

>  <SCORE.INTRA>
-0.872784

>  <SCORE.INTRA.DIHEDRAL>
-0.156801

>  <SCORE.INTRA.DIHEDRAL.0>
3.89056

>  <SCORE.INTRA.POLAR>
0

>  <SCORE.INTRA.POLAR.0>
0

>  <SCORE.INTRA.REPUL>
0

>  <SCORE.INTRA.REPUL.0>
0

>  <SCORE.INTRA.SOLV>
-1.19786

>  <SCORE.INTRA.SOLV.lig_0>
-20.733

>  <SCORE.INTRA.VDW>
-0.195452

>  <SCORE.INTRA.VDW.0>
-0.828515

>  <SCORE.INTRA.norm>
-0.054549

>  <SCORE.RESTR>
0

>  <SCORE.RESTR.CAVITY>
0

>  <SCORE.RESTR.norm>
0

>  <SCORE.SYSTEM>
0

>  <SCORE.SYSTEM.CONST>
0

>  <SCORE.SYSTEM.DIHEDRAL>
0

>  <SCORE.SYSTEM.SOLV>
0

>  <SCORE.SYSTEM.norm>
0

>  <SCORE.heavy>
16

>  <SCORE.norm>
-1.38607

>  <RMSD>
1.655

$$$$
ligand
 OpenBabel02271912153D
libRbt.so/2013.1/901 2013/11/27
 16 17  0  0  0  0  0  0  0  0999 V2000
    6.5100    7.4032   83.9544 N   0  0  0  0  0  0  0  0  0  0  0  0
    6.8711    6.1997   84.6238 C   0  0  2  0  0  0  0  0  0  0  0  0
    8.3599    5.9923   84.6414 C   0  0  0  0  0  0  0  0  0  0  0  0
    8.9736    6.0365   85.7354 O   0  0  0  0  0  0  0  0  0  0  0  0
    7.1805    0.3092   81.0909 O   0  0  0  0  0  0  0  0  0  0  0  0
    6.2144    5.0066   83.9718 C   0  0  0  0  0  0  0  0  0  0  0  0
    6.4565    3.7148   84.7157 C   0  0  0  0  0  0  0  0  0  0  0  0
    6.4473    3.5702   86.0450 C   0  0  0  0  0  0  0  0  0  0  0  0
    6.6955    2.4908   84.0103 C   0  0  0  0  0  0  0  0  0  0  0  0
    6.8430    1.5208   85.0391 C   0  0  0  0  0  0  0  0  0  0  0  0
    6.7907    2.1110   82.6998 C   0  0  0  0  0  0  0  0  0  0  0  0
    6.6801    2.2551   86.2338 N   0  0  0  0  0  0  0  0  0  0  0  0
    7.0854    0.2235   84.7959 C   0  0  0  0  0  0  0  0  0  0  0  0
    7.0610    0.7365   82.4198 C   0  0  0  0  0  0  0  0  0  0  0  0
    7.2171   -0.2263   83.4788 C   0  0  0  0  0  0  0  0  0  0  0  0
    8.9752    5.7947   83.5725 O   0  0  0  0  0  0  0  0  0  0  0  0
  2  1  1  6  0  0  0
  2  3  1  0  0  0  0
  2  6  1  0  0  0  0
  3  4  1  0  0  0  0
  3 16  1  0  0  0  0
  5 14  1  0  0  0  0
  6  7  1  0  0  0  0
  7  8  2  0  0  0  0
  7  9  1  0  0  0  0
  8 12  1  0  0  0  0
  9 10  2  0  0  0  0
  9 11  1  0  0  0  0
 10 13  1  0  0  0  0
 10 12  1  0  0  0  0
 11 14  2  0  0  0  0
 13 15  2  0  0  0  0
 14 15  1  0  0  0  0
M  END
>  <CHROM.1>
113.39956691,-174.62268832,40.43568095,7.19653963,3.42062966,84.16539627
-0.93110148,-1.37672489,-2.25206543

>  <Name>
ligand

>  <RI>
0

>  <Rbt.Current_Directory>
/home/itssahil/PROJECTS/Mol_Feturizer/Test_systems_manuscript/rnas/5kpy

>  <Rbt.Executable>
rbdock ($Id: //depot/dev/client3/rdock/2013.1/src/exe/rbdock.cxx#4 $)

>  <Rbt.Library>
libRbt.so (2013.1, Build901 2013/11/27)

>  <Rbt.Parameter_File>
/export/apps/rDock/src/rDock_2013.1_src/data/scripts/dock_solv.prm

>  <Rbt.Receptor>
prm/pocket_docking_3.prm

>  <SCORE>
-22.2092

>  <SCORE.INTER>
-21.4424

>  <SCORE.INTER.CONST>
1

>  <SCORE.INTER.POLAR>
0

>  <SCORE.INTER.ROT>
3

>  <SCORE.INTER.SOLV>
5.39406

>  <SCORE.INTER.VDW>
-21.6929

>  <SCORE.INTER.norm>
-1.34015

>  <SCORE.INTRA>
-0.766874

>  <SCORE.INTRA.DIHEDRAL>
-0.113912

>  <SCORE.INTRA.DIHEDRAL.0>
3.89056

>  <SCORE.INTRA.POLAR>
0

>  <SCORE.INTRA.POLAR.0>
0

>  <SCORE.INTRA.REPUL>
0

>  <SCORE.INTRA.REPUL.0>
0

>  <SCORE.INTRA.SOLV>
-1.1979

>  <SCORE.INTRA.SOLV.lig_0>
-20.733

>  <SCORE.INTRA.VDW>
-0.110968

>  <SCORE.INTRA.VDW.0>
-0.828515

>  <SCORE.INTRA.norm>
-0.0479296

>  <SCORE.RESTR>
0

>  <SCORE.RESTR.CAVITY>
0

>  <SCORE.RESTR.norm>
0

>  <SCORE.SYSTEM>
0

>  <SCORE.SYSTEM.CONST>
0

>  <SCORE.SYSTEM.DIHEDRAL>
0

>  <SCORE.SYSTEM.SOLV>
0

>  <SCORE.SYSTEM.norm>
0

>  <SCORE.heavy>
16

>  <SCORE.norm>
-1.38808

>  <RMSD>
1.658

$$$$
ligand
 OpenBabel02271912153D
libRbt.so/2013.1/901 2013/11/27
 16 17  0  0  0  0  0  0  0  0999 V2000
    6.4972    7.4157   83.9342 N   0  0  0  0  0  0  0  0  0  0  0  0
    6.8556    6.2181   84.6155 C   0  0  2  0  0  0  0  0  0  0  0  0
    8.3410    5.9873   84.6013 C   0  0  0  0  0  0  0  0  0  0  0  0
    8.9792    6.0257   85.6813 O   0  0  0  0  0  0  0  0  0  0  0  0
    7.1923    0.3589   81.0891 O   0  0  0  0  0  0  0  0  0  0  0  0
    6.1650    5.0247   84.0001 C   0  0  0  0  0  0  0  0  0  0  0  0
    6.4392    3.7347   84.7359 C   0  0  0  0  0  0  0  0  0  0  0  0
    6.4461    3.5844   86.0646 C   0  0  0  0  0  0  0  0  0  0  0  0
    6.6946    2.5185   84.0228 C   0  0  0  0  0  0  0  0  0  0  0  0
    6.8710    1.5472   85.0458 C   0  0  0  0  0  0  0  0  0  0  0  0
    6.7841    2.1461   82.7097 C   0  0  0  0  0  0  0  0  0  0  0  0
    6.7059    2.2732   86.2452 N   0  0  0  0  0  0  0  0  0  0  0  0
    7.1358    0.2559   84.7945 C   0  0  0  0  0  0  0  0  0  0  0  0
    7.0780    0.7783   82.4210 C   0  0  0  0  0  0  0  0  0  0  0  0
    7.2630   -0.1858   83.4742 C   0  0  0  0  0  0  0  0  0  0  0  0
    8.9295    5.7764   83.5200 O   0  0  0  0  0  0  0  0  0  0  0  0
  2  1  1  6  0  0  0
  2  3  1  0  0  0  0
  2  6  1  0  0  0  0
  3  4  1  0  0  0  0
  3 16  1  0  0  0  0
  5 14  1  0  0  0  0
  6  7  1  0  0  0  0
  7  8  2  0  0  0  0
  7  9  1  0  0  0  0
  8 12  1  0  0  0  0
  9 10  2  0  0  0  0
  9 11  1  0  0  0  0
 10 13  1  0  0  0  0
 10 12  1  0  0  0  0
 11 14  2  0  0  0  0
 13 15  2  0  0  0  0
 14 15  1  0  0  0  0
M  END
>  <CHROM.1>
114.18068982,-176.38748730,43.00695704,7.19651624,3.43980548,84.15934149
-0.96255211,-1.38430969,-2.28675284

>  <Name>
ligand

>  <RI>
0

>  <Rbt.Current_Directory>
/home/itssahil/PROJECTS/Mol_Feturizer/Test_systems_manuscript/rnas/5kpy

>  <Rbt.Executable>
rbdock ($Id: //depot/dev/client3/rdock/2013.1/src/exe/rbdock.cxx#4 $)

>  <Rbt.Library>
libRbt.so (2013.1, Build901 2013/11/27)

>  <Rbt.Parameter_File>
/export/apps/rDock/src/rDock_2013.1_src/data/scripts/dock_solv.prm

>  <Rbt.Receptor>
prm/pocket_docking_8.prm

>  <SCORE>
-22.1616

>  <SCORE.INTER>
-21.336

>  <SCORE.INTER.CONST>
1

>  <SCORE.INTER.POLAR>
0

>  <SCORE.INTER.ROT>
3

>  <SCORE.INTER.SOLV>
5.38977

>  <SCORE.INTER.VDW>
-21.6206

>  <SCORE.INTER.norm>
-1.3335

>  <SCORE.INTRA>
-0.825555

>  <SCORE.INTRA.DIHEDRAL>
-0.165858

>  <SCORE.INTRA.DIHEDRAL.0>
3.89056

>  <SCORE.INTRA.POLAR>
0

>  <SCORE.INTRA.POLAR.0>
0

>  <SCORE.INTRA.REPUL>
0

>  <SCORE.INTRA.REPUL.0>
0

>  <SCORE.INTRA.SOLV>
-1.19842

>  <SCORE.INTRA.SOLV.lig_0>
-20.733

>  <SCORE.INTRA.VDW>
-0.143417

>  <SCORE.INTRA.VDW.0>
-0.828515

>  <SCORE.INTRA.norm>
-0.0515972

>  <SCORE.RESTR>
0

>  <SCORE.RESTR.CAVITY>
0

>  <SCORE.RESTR.norm>
0

>  <SCORE.SYSTEM>
0

>  <SCORE.SYSTEM.CONST>
0

>  <SCORE.SYSTEM.DIHEDRAL>
0

>  <SCORE.SYSTEM.SOLV>
0

>  <SCORE.SYSTEM.norm>
0

>  <SCORE.heavy>
16

>  <SCORE.norm>
-1.3851

>  <RMSD>
1.658

$$$$
ligand
 OpenBabel02271912153D
libRbt.so/2013.1/901 2013/11/27
 16 17  0  0  0  0  0  0  0  0999 V2000
    6.4897    7.4087   83.9603 N   0  0  0  0  0  0  0  0  0  0  0  0
    6.8572    6.2130   84.6403 C   0  0  2  0  0  0  0  0  0  0  0  0
    8.3439    5.9914   84.6224 C   0  0  0  0  0  0  0  0  0  0  0  0
    8.9822    6.0184   85.7027 O   0  0  0  0  0  0  0  0  0  0  0  0
    7.1684    0.3583   81.0908 O   0  0  0  0  0  0  0  0  0  0  0  0
    6.1724    5.0158   84.0260 C   0  0  0  0  0  0  0  0  0  0  0  0
    6.4638    3.7257   84.7551 C   0  0  0  0  0  0  0  0  0  0  0  0
    6.4935    3.5733   86.0832 C   0  0  0  0  0  0  0  0  0  0  0  0
    6.7118    2.5116   84.0358 C   0  0  0  0  0  0  0  0  0  0  0  0
    6.9090    1.5394   85.0542 C   0  0  0  0  0  0  0  0  0  0  0  0
    6.7807    2.1415   82.7209 C   0  0  0  0  0  0  0  0  0  0  0  0
    6.7613    2.2629   86.2574 N   0  0  0  0  0  0  0  0  0  0  0  0
    7.1744    0.2494   84.7965 C   0  0  0  0  0  0  0  0  0  0  0  0
    7.0748    0.7752   82.4251 C   0  0  0  0  0  0  0  0  0  0  0  0
    7.2811   -0.1898   83.4735 C   0  0  0  0  0  0  0  0  0  0  0  0
    8.9333    5.7993   83.5380 O   0  0  0  0  0  0  0  0  0  0  0  0
  2  1  1  6  0  0  0
  2  3  1  0  0  0  0
  2  6  1  0  0  0  0
  3  4  1  0  0  0  0
  3 16  1  0  0  0  0
  5 14  1  0  0  0  0
  6  7  1  0  0  0  0
  7  8  2  0  0  0  0
  7  9  1  0  0  0  0
  8 12  1  0  0  0  0
  9 10  2  0  0  0  0
  9 11  1  0  0  0  0
 10 13  1  0  0  0  0
 10 12  1  0  0  0  0
 11 14  2  0  0  0  0
 13 15  2  0  0  0  0
 14 15  1  0  0  0  0
M  END
>  <CHROM.1>
114.97286137,-176.77783028,42.40428440,7.20925279,3.43610110,84.17375285
-0.87922851,-1.40514130,-2.19839786

>  <Name>
ligand

>  <RI>
0

>  <Rbt.Current_Directory>
/home/itssahil/PROJECTS/Mol_Feturizer/Test_systems_manuscript/rnas/5kpy

>  <Rbt.Executable>
rbdock ($Id: //depot/dev/client3/rdock/2013.1/src/exe/rbdock.cxx#4 $)

>  <Rbt.Library>
libRbt.so (2013.1, Build901 2013/11/27)

>  <Rbt.Parameter_File>
/export/apps/rDock/src/rDock_2013.1_src/data/scripts/dock_solv.prm

>  <Rbt.Receptor>
prm/pocket_docking_7.prm

>  <SCORE>
-22.155

>  <SCORE.INTER>
-21.3221

>  <SCORE.INTER.CONST>
1

>  <SCORE.INTER.POLAR>
0

>  <SCORE.INTER.ROT>
3

>  <SCORE.INTER.SOLV>
5.40086

>  <SCORE.INTER.VDW>
-21.6151

>  <SCORE.INTER.norm>
-1.33263

>  <SCORE.INTRA>
-0.832869

>  <SCORE.INTRA.DIHEDRAL>
-0.176033

>  <SCORE.INTRA.DIHEDRAL.0>
3.89056

>  <SCORE.INTRA.POLAR>
0

>  <SCORE.INTRA.POLAR.0>
0

>  <SCORE.INTRA.REPUL>
0

>  <SCORE.INTRA.REPUL.0>
0

>  <SCORE.INTRA.SOLV>
-1.1983

>  <SCORE.INTRA.SOLV.lig_0>
-20.733

>  <SCORE.INTRA.VDW>
-0.145705

>  <SCORE.INTRA.VDW.0>
-0.828515

>  <SCORE.INTRA.norm>
-0.0520543

>  <SCORE.RESTR>
0

>  <SCORE.RESTR.CAVITY>
0

>  <SCORE.RESTR.norm>
0

>  <SCORE.SYSTEM>
0

>  <SCORE.SYSTEM.CONST>
0

>  <SCORE.SYSTEM.DIHEDRAL>
0

>  <SCORE.SYSTEM.SOLV>
0

>  <SCORE.SYSTEM.norm>
0

>  <SCORE.heavy>
16

>  <SCORE.norm>
-1.38469

>  <RMSD>
1.659

$$$$
ligand
 OpenBabel02271912153D
libRbt.so/2013.1/901 2013/11/27
 16 17  0  0  0  0  0  0  0  0999 V2000
    6.5633    7.4271   83.9244 N   0  0  0  0  0  0  0  0  0  0  0  0
    6.9072    6.2209   84.5981 C   0  0  2  0  0  0  0  0  0  0  0  0
    8.3893    5.9703   84.5791 C   0  0  0  0  0  0  0  0  0  0  0  0
    9.0244    5.9580   85.6615 O   0  0  0  0  0  0  0  0  0  0  0  0
    7.1874    0.3645   81.0694 O   0  0  0  0  0  0  0  0  0  0  0  0
    6.1992    5.0405   83.9776 C   0  0  0  0  0  0  0  0  0  0  0  0
    6.4460    3.7453   84.7140 C   0  0  0  0  0  0  0  0  0  0  0  0
    6.4364    3.5927   86.0424 C   0  0  0  0  0  0  0  0  0  0  0  0
    6.6908    2.5266   84.0014 C   0  0  0  0  0  0  0  0  0  0  0  0
    6.8415    1.5510   85.0246 C   0  0  0  0  0  0  0  0  0  0  0  0
    6.7888    2.1550   82.6888 C   0  0  0  0  0  0  0  0  0  0  0  0
    6.6745    2.2775   86.2235 N   0  0  0  0  0  0  0  0  0  0  0  0
    7.0895    0.2562   84.7738 C   0  0  0  0  0  0  0  0  0  0  0  0
    7.0651    0.7833   82.4008 C   0  0  0  0  0  0  0  0  0  0  0  0
    7.2242   -0.1852   83.4541 C   0  0  0  0  0  0  0  0  0  0  0  0
    8.9784    5.7933   83.4920 O   0  0  0  0  0  0  0  0  0  0  0  0
  2  1  1  6  0  0  0
  2  3  1  0  0  0  0
  2  6  1  0  0  0  0
  3  4  1  0  0  0  0
  3 16  1  0  0  0  0
  5 14  1  0  0  0  0
  6  7  1  0  0  0  0
  7  8  2  0  0  0  0
  7  9  1  0  0  0  0
  8 12  1  0  0  0  0
  9 10  2  0  0  0  0
  9 11  1  0  0  0  0
 10 13  1  0  0  0  0
 10 12  1  0  0  0  0
 11 14  2  0  0  0  0
 13 15  2  0  0  0  0
 14 15  1  0  0  0  0
M  END
>  <CHROM.1>
116.10096266,-175.78205827,43.32559034,7.20641044,3.44027777,84.13871278
-0.96807652,-1.36035444,-2.29572321

>  <Name>
ligand

>  <RI>
0

>  <Rbt.Current_Directory>
/home/itssahil/PROJECTS/Mol_Feturizer/Test_systems_manuscript/rnas/5kpy

>  <Rbt.Executable>
rbdock ($Id: //depot/dev/client3/rdock/2013.1/src/exe/rbdock.cxx#4 $)

>  <Rbt.Library>
libRbt.so (2013.1, Build901 2013/11/27)

>  <Rbt.Parameter_File>
/export/apps/rDock/src/rDock_2013.1_src/data/scripts/dock_solv.prm

>  <Rbt.Receptor>
prm/pocket_docking_3.prm

>  <SCORE>
-22.1922

>  <SCORE.INTER>
-21.345

>  <SCORE.INTER.CONST>
1

>  <SCORE.INTER.POLAR>
0

>  <SCORE.INTER.ROT>
3

>  <SCORE.INTER.SOLV>
5.40479

>  <SCORE.INTER.VDW>
-21.6316

>  <SCORE.INTER.norm>
-1.33406

>  <SCORE.INTRA>
-0.847245

>  <SCORE.INTRA.DIHEDRAL>
-0.14417

>  <SCORE.INTRA.DIHEDRAL.0>
3.89056

>  <SCORE.INTRA.POLAR>
0

>  <SCORE.INTRA.POLAR.0>
0

>  <SCORE.INTRA.REPUL>
0

>  <SCORE.INTRA.REPUL.0>
0

>  <SCORE.INTRA.SOLV>
-1.19759

>  <SCORE.INTRA.SOLV.lig_0>
-20.733

>  <SCORE.INTRA.VDW>
-0.176363

>  <SCORE.INTRA.VDW.0>
-0.828515

>  <SCORE.INTRA.norm>
-0.0529528

>  <SCORE.RESTR>
0

>  <SCORE.RESTR.CAVITY>
0

>  <SCORE.RESTR.norm>
0

>  <SCORE.SYSTEM>
0

>  <SCORE.SYSTEM.CONST>
0

>  <SCORE.SYSTEM.DIHEDRAL>
0

>  <SCORE.SYSTEM.SOLV>
0

>  <SCORE.SYSTEM.norm>
0

>  <SCORE.heavy>
16

>  <SCORE.norm>
-1.38701

>  <RMSD>
1.660

$$$$
ligand
 OpenBabel02271912153D
libRbt.so/2013.1/901 2013/11/27
 16 17  0  0  0  0  0  0  0  0999 V2000
    6.4896    7.4188   83.9688 N   0  0  0  0  0  0  0  0  0  0  0  0
    6.8722    6.2105   84.6173 C   0  0  2  0  0  0  0  0  0  0  0  0
    8.3625    6.0142   84.6045 C   0  0  0  0  0  0  0  0  0  0  0  0
    8.9883    5.9887   85.6922 O   0  0  0  0  0  0  0  0  0  0  0  0
    7.1800    0.3243   81.0809 O   0  0  0  0  0  0  0  0  0  0  0  0
    6.2120    5.0200   83.9641 C   0  0  0  0  0  0  0  0  0  0  0  0
    6.4494    3.7270   84.7074 C   0  0  0  0  0  0  0  0  0  0  0  0
    6.4355    3.5808   86.0364 C   0  0  0  0  0  0  0  0  0  0  0  0
    6.6887    2.5034   84.0013 C   0  0  0  0  0  0  0  0  0  0  0  0
    6.8311    1.5319   85.0295 C   0  0  0  0  0  0  0  0  0  0  0  0
    6.7878    2.1249   82.6907 C   0  0  0  0  0  0  0  0  0  0  0  0
    6.6654    2.2651   86.2244 N   0  0  0  0  0  0  0  0  0  0  0  0
    7.0721    0.2345   84.7856 C   0  0  0  0  0  0  0  0  0  0  0  0
    7.0567    0.7503   82.4099 C   0  0  0  0  0  0  0  0  0  0  0  0
    7.2075   -0.2140   83.4683 C   0  0  0  0  0  0  0  0  0  0  0  0
    8.9669    5.8947   83.5180 O   0  0  0  0  0  0  0  0  0  0  0  0
  2  1  1  6  0  0  0
  2  3  1  0  0  0  0
  2  6  1  0  0  0  0
  3  4  1  0  0  0  0
  3 16  1  0  0  0  0
  5 14  1  0  0  0  0
  6  7  1  0  0  0  0
  7  8  2  0  0  0  0
  7  9  1  0  0  0  0
  8 12  1  0  0  0  0
  9 10  2  0  0  0  0
  9 11  1  0  0  0  0
 10 13  1  0  0  0  0
 10 12  1  0  0  0  0
 11 14  2  0  0  0  0
 13 15  2  0  0  0  0
 14 15  1  0  0  0  0
M  END
>  <CHROM.1>
116.67736588,-173.20259010,40.61760875,7.19088051,3.43579007,84.15028587
-0.96540676,-1.36512613,-2.29289270

>  <Name>
ligand

>  <RI>
0

>  <Rbt.Current_Directory>
/home/itssahil/PROJECTS/Mol_Feturizer/Test_systems_manuscript/rnas/5kpy

>  <Rbt.Executable>
rbdock ($Id: //depot/dev/client3/rdock/2013.1/src/exe/rbdock.cxx#4 $)

>  <Rbt.Library>
libRbt.so (2013.1, Build901 2013/11/27)

>  <Rbt.Parameter_File>
/export/apps/rDock/src/rDock_2013.1_src/data/scripts/dock_solv.prm

>  <Rbt.Receptor>
prm/pocket_docking_3.prm

>  <SCORE>
-22.1893

>  <SCORE.INTER>
-21.4063

>  <SCORE.INTER.CONST>
1

>  <SCORE.INTER.POLAR>
0

>  <SCORE.INTER.ROT>
3

>  <SCORE.INTER.SOLV>
5.37235

>  <SCORE.INTER.VDW>
-21.6617

>  <SCORE.INTER.norm>
-1.33789

>  <SCORE.INTRA>
-0.783022

>  <SCORE.INTRA.DIHEDRAL>
-0.0429368

>  <SCORE.INTRA.DIHEDRAL.0>
3.89056

>  <SCORE.INTRA.POLAR>
0

>  <SCORE.INTRA.POLAR.0>
0

>  <SCORE.INTRA.REPUL>
0

>  <SCORE.INTRA.REPUL.0>
0

>  <SCORE.INTRA.SOLV>
-1.19607

>  <SCORE.INTRA.SOLV.lig_0>
-20.733

>  <SCORE.INTRA.VDW>
-0.16352

>  <SCORE.INTRA.VDW.0>
-0.828515

>  <SCORE.INTRA.norm>
-0.0489389

>  <SCORE.RESTR>
0

>  <SCORE.RESTR.CAVITY>
0

>  <SCORE.RESTR.norm>
0

>  <SCORE.SYSTEM>
0

>  <SCORE.SYSTEM.CONST>
0

>  <SCORE.SYSTEM.DIHEDRAL>
0

>  <SCORE.SYSTEM.SOLV>
0

>  <SCORE.SYSTEM.norm>
0

>  <SCORE.heavy>
16

>  <SCORE.norm>
-1.38683

>  <RMSD>
1.662

$$$$
ligand
 OpenBabel02271912153D
libRbt.so/2013.1/901 2013/11/27
 16 17  0  0  0  0  0  0  0  0999 V2000
    6.5536    7.4419   83.9282 N   0  0  0  0  0  0  0  0  0  0  0  0
    6.8940    6.2488   84.6265 C   0  0  2  0  0  0  0  0  0  0  0  0
    8.3760    5.9968   84.6180 C   0  0  0  0  0  0  0  0  0  0  0  0
    9.0084    6.0139   85.7020 O   0  0  0  0  0  0  0  0  0  0  0  0
    7.1553    0.3818   81.1100 O   0  0  0  0  0  0  0  0  0  0  0  0
    6.1874    5.0570   84.0264 C   0  0  0  0  0  0  0  0  0  0  0  0
    6.4687    3.7676   84.7607 C   0  0  0  0  0  0  0  0  0  0  0  0
    6.4953    3.6201   86.0894 C   0  0  0  0  0  0  0  0  0  0  0  0
    6.7093    2.5492   84.0463 C   0  0  0  0  0  0  0  0  0  0  0  0
    6.8981    1.5794   85.0687 C   0  0  0  0  0  0  0  0  0  0  0  0
    6.7776    2.1737   82.7329 C   0  0  0  0  0  0  0  0  0  0  0  0
    6.7537    2.3085   86.2689 N   0  0  0  0  0  0  0  0  0  0  0  0
    7.1549    0.2867   84.8161 C   0  0  0  0  0  0  0  0  0  0  0  0
    7.0626    0.8043   82.4426 C   0  0  0  0  0  0  0  0  0  0  0  0
    7.2606   -0.1582   83.4949 C   0  0  0  0  0  0  0  0  0  0  0  0
    8.9676    5.7894   83.5377 O   0  0  0  0  0  0  0  0  0  0  0  0
  2  1  1  6  0  0  0
  2  3  1  0  0  0  0
  2  6  1  0  0  0  0
  3  4  1  0  0  0  0
  3 16  1  0  0  0  0
  5 14  1  0  0  0  0
  6  7  1  0  0  0  0
  7  8  2  0  0  0  0
  7  9  1  0  0  0  0
  8 12  1  0  0  0  0
  9 10  2  0  0  0  0
  9 11  1  0  0  0  0
 10 13  1  0  0  0  0
 10 12  1  0  0  0  0
 11 14  2  0  0  0  0
 13 15  2  0  0  0  0
 14 15  1  0  0  0  0
M  END
>  <CHROM.1>
115.62780924,-177.77265486,43.15607033,7.21812335,3.46413558,84.17880387
-0.85433384,-1.39710096,-2.17824575

>  <Name>
ligand

>  <RI>
0

>  <Rbt.Current_Directory>
/home/itssahil/PROJECTS/Mol_Feturizer/Test_systems_manuscript/rnas/5kpy

>  <Rbt.Executable>
rbdock ($Id: //depot/dev/client3/rdock/2013.1/src/exe/rbdock.cxx#4 $)

>  <Rbt.Library>
libRbt.so (2013.1, Build901 2013/11/27)

>  <Rbt.Parameter_File>
/export/apps/rDock/src/rDock_2013.1_src/data/scripts/dock_solv.prm

>  <Rbt.Receptor>
prm/pocket_docking_3.prm

>  <SCORE>
-22.1586

>  <SCORE.INTER>
-21.3059

>  <SCORE.INTER.CONST>
1

>  <SCORE.INTER.POLAR>
0

>  <SCORE.INTER.ROT>
3

>  <SCORE.INTER.SOLV>
5.39016

>  <SCORE.INTER.VDW>
-21.6006

>  <SCORE.INTER.norm>
-1.33162

>  <SCORE.INTRA>
-0.852771

>  <SCORE.INTRA.DIHEDRAL>
-0.192714

>  <SCORE.INTRA.DIHEDRAL.0>
3.89056

>  <SCORE.INTRA.POLAR>
0

>  <SCORE.INTRA.POLAR.0>
0

>  <SCORE.INTRA.REPUL>
0

>  <SCORE.INTRA.REPUL.0>
0

>  <SCORE.INTRA.SOLV>
-1.19835

>  <SCORE.INTRA.SOLV.lig_0>
-20.733

>  <SCORE.INTRA.VDW>
-0.157242

>  <SCORE.INTRA.VDW.0>
-0.828515

>  <SCORE.INTRA.norm>
-0.0532982

>  <SCORE.RESTR>
0

>  <SCORE.RESTR.CAVITY>
0

>  <SCORE.RESTR.norm>
0

>  <SCORE.SYSTEM>
0

>  <SCORE.SYSTEM.CONST>
0

>  <SCORE.SYSTEM.DIHEDRAL>
0

>  <SCORE.SYSTEM.SOLV>
0

>  <SCORE.SYSTEM.norm>
0

>  <SCORE.heavy>
16

>  <SCORE.norm>
-1.38491

>  <RMSD>
1.663

$$$$
ligand
 OpenBabel02271912153D
libRbt.so/2013.1/901 2013/11/27
 16 17  0  0  0  0  0  0  0  0999 V2000
    6.4804    7.4053   83.9415 N   0  0  0  0  0  0  0  0  0  0  0  0
    6.8509    6.2053   84.6121 C   0  0  2  0  0  0  0  0  0  0  0  0
    8.3352    5.9718   84.5659 C   0  0  0  0  0  0  0  0  0  0  0  0
    8.8887    5.7531   83.4609 O   0  0  0  0  0  0  0  0  0  0  0  0
    7.2362    0.3685   81.0895 O   0  0  0  0  0  0  0  0  0  0  0  0
    6.1450    5.0148   84.0085 C   0  0  0  0  0  0  0  0  0  0  0  0
    6.4233    3.7243   84.7420 C   0  0  0  0  0  0  0  0  0  0  0  0
    6.4196    3.5691   86.0701 C   0  0  0  0  0  0  0  0  0  0  0  0
    6.6949    2.5130   84.0266 C   0  0  0  0  0  0  0  0  0  0  0  0
    6.8701    1.5392   85.0476 C   0  0  0  0  0  0  0  0  0  0  0  0
    6.7991    2.1462   82.7131 C   0  0  0  0  0  0  0  0  0  0  0  0
    6.6885    2.2594   86.2481 N   0  0  0  0  0  0  0  0  0  0  0  0
    7.1476    0.2510   84.7939 C   0  0  0  0  0  0  0  0  0  0  0  0
    7.1066    0.7819   82.4219 C   0  0  0  0  0  0  0  0  0  0  0  0
    7.2901   -0.1846   83.4731 C   0  0  0  0  0  0  0  0  0  0  0  0
    9.0015    5.9806   85.6223 O   0  0  0  0  0  0  0  0  0  0  0  0
  2  1  1  6  0  0  0
  2  3  1  0  0  0  0
  2  6  1  0  0  0  0
  3  4  1  0  0  0  0
  3 16  1  0  0  0  0
  5 14  1  0  0  0  0
  6  7  1  0  0  0  0
  7  8  2  0  0  0  0
  7  9  1  0  0  0  0
  8 12  1  0  0  0  0
  9 10  2  0  0  0  0
  9 11  1  0  0  0  0
 10 13  1  0  0  0  0
 10 12  1  0  0  0  0
 11 14  2  0  0  0  0
 13 15  2  0  0  0  0
 14 15  1  0  0  0  0
M  END
>  <CHROM.1>
-65.46255588,-175.91460260,44.58465220,7.19646192,3.42919516,84.15055559
-1.05794395,-1.36818248,-2.38823538

>  <Name>
ligand

>  <RI>
0

>  <Rbt.Current_Directory>
/home/itssahil/PROJECTS/Mol_Feturizer/Test_systems_manuscript/rnas/5kpy

>  <Rbt.Executable>
rbdock ($Id: //depot/dev/client3/rdock/2013.1/src/exe/rbdock.cxx#4 $)

>  <Rbt.Library>
libRbt.so (2013.1, Build901 2013/11/27)

>  <Rbt.Parameter_File>
/export/apps/rDock/src/rDock_2013.1_src/data/scripts/dock_solv.prm

>  <Rbt.Receptor>
prm/pocket_docking_3.prm

>  <SCORE>
-22.1474

>  <SCORE.INTER>
-21.3367

>  <SCORE.INTER.CONST>
1

>  <SCORE.INTER.POLAR>
0

>  <SCORE.INTER.ROT>
3

>  <SCORE.INTER.SOLV>
5.38261

>  <SCORE.INTER.VDW>
-21.6187

>  <SCORE.INTER.norm>
-1.33354

>  <SCORE.INTRA>
-0.810677

>  <SCORE.INTRA.DIHEDRAL>
-0.128801

>  <SCORE.INTRA.DIHEDRAL.0>
3.89056

>  <SCORE.INTRA.POLAR>
0

>  <SCORE.INTRA.POLAR.0>
0

>  <SCORE.INTRA.REPUL>
0

>  <SCORE.INTRA.REPUL.0>
0

>  <SCORE.INTRA.SOLV>
-1.20291

>  <SCORE.INTRA.SOLV.lig_0>
-20.733

>  <SCORE.INTRA.VDW>
-0.144819

>  <SCORE.INTRA.VDW.0>
-0.828515

>  <SCORE.INTRA.norm>
-0.0506673

>  <SCORE.RESTR>
0

>  <SCORE.RESTR.CAVITY>
0

>  <SCORE.RESTR.norm>
0

>  <SCORE.SYSTEM>
0

>  <SCORE.SYSTEM.CONST>
0

>  <SCORE.SYSTEM.DIHEDRAL>
0

>  <SCORE.SYSTEM.SOLV>
0

>  <SCORE.SYSTEM.norm>
0

>  <SCORE.heavy>
16

>  <SCORE.norm>
-1.38421

>  <RMSD>
1.664

$$$$
ligand
 OpenBabel02271912153D
libRbt.so/2013.1/901 2013/11/27
 16 17  0  0  0  0  0  0  0  0999 V2000
    6.4829    7.4198   83.9176 N   0  0  0  0  0  0  0  0  0  0  0  0
    6.8534    6.2256   84.5984 C   0  0  2  0  0  0  0  0  0  0  0  0
    8.3396    6.0016   84.5703 C   0  0  0  0  0  0  0  0  0  0  0  0
    8.9799    5.9902   85.6498 O   0  0  0  0  0  0  0  0  0  0  0  0
    7.2289    0.3592   81.1000 O   0  0  0  0  0  0  0  0  0  0  0  0
    6.1623    5.0276   83.9928 C   0  0  0  0  0  0  0  0  0  0  0  0
    6.4435    3.7419   84.7336 C   0  0  0  0  0  0  0  0  0  0  0  0
    6.4481    3.5961   86.0628 C   0  0  0  0  0  0  0  0  0  0  0  0
    6.7090    2.5252   84.0252 C   0  0  0  0  0  0  0  0  0  0  0  0
    6.8895    1.5585   85.0519 C   0  0  0  0  0  0  0  0  0  0  0  0
    6.8044    2.1490   82.7136 C   0  0  0  0  0  0  0  0  0  0  0  0
    6.7164    2.2874   86.2485 N   0  0  0  0  0  0  0  0  0  0  0  0
    7.1637    0.2682   84.8056 C   0  0  0  0  0  0  0  0  0  0  0  0
    7.1083    0.7822   82.4302 C   0  0  0  0  0  0  0  0  0  0  0  0
    7.2973   -0.1771   83.4871 C   0  0  0  0  0  0  0  0  0  0  0  0
    8.9267    5.8454   83.4790 O   0  0  0  0  0  0  0  0  0  0  0  0
  2  1  1  6  0  0  0
  2  3  1  0  0  0  0
  2  6  1  0  0  0  0
  3  4  1  0  0  0  0
  3 16  1  0  0  0  0
  5 14  1  0  0  0  0
  6  7  1  0  0  0  0
  7  8  2  0  0  0  0
  7  9  1  0  0  0  0
  8 12  1  0  0  0  0
  9 10  2  0  0  0  0
  9 11  1  0  0  0  0
 10 13  1  0  0  0  0
 10 12  1  0  0  0  0
 11 14  2  0  0  0  0
 13 15  2  0  0  0  0
 14 15  1  0  0  0  0
M  END
>  <CHROM.1>
117.12762226,-176.07261921,43.53658677,7.20713578,3.44874037,84.15284874
-1.00962802,-1.38189312,-2.34213492

>  <Name>
ligand

>  <RI>
0

>  <Rbt.Current_Directory>
/home/itssahil/PROJECTS/Mol_Feturizer/Test_systems_manuscript/rnas/5kpy

>  <Rbt.Executable>
rbdock ($Id: //depot/dev/client3/rdock/2013.1/src/exe/rbdock.cxx#4 $)

>  <Rbt.Library>
libRbt.so (2013.1, Build901 2013/11/27)

>  <Rbt.Parameter_File>
/export/apps/rDock/src/rDock_2013.1_src/data/scripts/dock_solv.prm

>  <Rbt.Receptor>
prm/pocket_docking_3.prm

>  <SCORE>
-22.184

>  <SCORE.INTER>
-21.3194

>  <SCORE.INTER.CONST>
1

>  <SCORE.INTER.POLAR>
0

>  <SCORE.INTER.ROT>
3

>  <SCORE.INTER.SOLV>
5.3864

>  <SCORE.INTER.VDW>
-21.6084

>  <SCORE.INTER.norm>
-1.33246

>  <SCORE.INTRA>
-0.864568

>  <SCORE.INTRA.DIHEDRAL>
-0.150716

>  <SCORE.INTRA.DIHEDRAL.0>
3.89056

>  <SCORE.INTRA.POLAR>
0

>  <SCORE.INTRA.POLAR.0>
0

>  <SCORE.INTRA.REPUL>
0

>  <SCORE.INTRA.REPUL.0>
0

>  <SCORE.INTRA.SOLV>
-1.19737

>  <SCORE.INTRA.SOLV.lig_0>
-20.733

>  <SCORE.INTRA.VDW>
-0.190527

>  <SCORE.INTRA.VDW.0>
-0.828515

>  <SCORE.INTRA.norm>
-0.0540355

>  <SCORE.RESTR>
0

>  <SCORE.RESTR.CAVITY>
0

>  <SCORE.RESTR.norm>
0

>  <SCORE.SYSTEM>
0

>  <SCORE.SYSTEM.CONST>
0

>  <SCORE.SYSTEM.DIHEDRAL>
0

>  <SCORE.SYSTEM.SOLV>
0

>  <SCORE.SYSTEM.norm>
0

>  <SCORE.heavy>
16

>  <SCORE.norm>
-1.3865

>  <RMSD>
1.664

$$$$
ligand
 OpenBabel02271912153D
libRbt.so/2013.1/901 2013/11/27
 16 17  0  0  0  0  0  0  0  0999 V2000
    6.4992    7.3995   83.9109 N   0  0  0  0  0  0  0  0  0  0  0  0
    6.8689    6.2009   84.5843 C   0  0  2  0  0  0  0  0  0  0  0  0
    8.3563    5.9835   84.5675 C   0  0  0  0  0  0  0  0  0  0  0  0
    8.9404    5.8151   83.4694 O   0  0  0  0  0  0  0  0  0  0  0  0
    7.2506    0.3280   81.0820 O   0  0  0  0  0  0  0  0  0  0  0  0
    6.1885    5.0053   83.9618 C   0  0  0  0  0  0  0  0  0  0  0  0
    6.4515    3.7177   84.7060 C   0  0  0  0  0  0  0  0  0  0  0  0
    6.4402    3.5723   86.0351 C   0  0  0  0  0  0  0  0  0  0  0  0
    6.7153    2.4987   84.0007 C   0  0  0  0  0  0  0  0  0  0  0  0
    6.8769    1.5310   85.0296 C   0  0  0  0  0  0  0  0  0  0  0  0
    6.8223    2.1214   82.6904 C   0  0  0  0  0  0  0  0  0  0  0  0
    6.6963    2.2615   86.2240 N   0  0  0  0  0  0  0  0  0  0  0  0
    7.1438    0.2385   84.7866 C   0  0  0  0  0  0  0  0  0  0  0  0
    7.1186    0.7523   82.4107 C   0  0  0  0  0  0  0  0  0  0  0  0
    7.2884   -0.2081   83.4697 C   0  0  0  0  0  0  0  0  0  0  0  0
    8.9951    5.9559   85.6405 O   0  0  0  0  0  0  0  0  0  0  0  0
  2  1  1  6  0  0  0
  2  3  1  0  0  0  0
  2  6  1  0  0  0  0
  3  4  1  0  0  0  0
  3 16  1  0  0  0  0
  5 14  1  0  0  0  0
  6  7  1  0  0  0  0
  7  8  2  0  0  0  0
  7  9  1  0  0  0  0
  8 12  1  0  0  0  0
  9 10  2  0  0  0  0
  9 11  1  0  0  0  0
 10 13  1  0  0  0  0
 10 12  1  0  0  0  0
 11 14  2  0  0  0  0
 13 15  2  0  0  0  0
 14 15  1  0  0  0  0
M  END
>  <CHROM.1>
-63.35131318,-175.18524448,42.85389060,7.21396796,3.42184873,84.13459535
-1.03177753,-1.37035188,-2.36390701

>  <Name>
ligand

>  <RI>
0

>  <Rbt.Current_Directory>
/home/itssahil/PROJECTS/Mol_Feturizer/Test_systems_manuscript/rnas/5kpy

>  <Rbt.Executable>
rbdock ($Id: //depot/dev/client3/rdock/2013.1/src/exe/rbdock.cxx#4 $)

>  <Rbt.Library>
libRbt.so (2013.1, Build901 2013/11/27)

>  <Rbt.Parameter_File>
/export/apps/rDock/src/rDock_2013.1_src/data/scripts/dock_solv.prm

>  <Rbt.Receptor>
prm/pocket_docking_8.prm

>  <SCORE>
-22.1499

>  <SCORE.INTER>
-21.3329

>  <SCORE.INTER.CONST>
1

>  <SCORE.INTER.POLAR>
0

>  <SCORE.INTER.ROT>
3

>  <SCORE.INTER.SOLV>
5.42105

>  <SCORE.INTER.VDW>
-21.629

>  <SCORE.INTER.norm>
-1.33331

>  <SCORE.INTRA>
-0.816921

>  <SCORE.INTRA.DIHEDRAL>
-0.112827

>  <SCORE.INTRA.DIHEDRAL.0>
3.89056

>  <SCORE.INTRA.POLAR>
0

>  <SCORE.INTRA.POLAR.0>
0

>  <SCORE.INTRA.REPUL>
0

>  <SCORE.INTRA.REPUL.0>
0

>  <SCORE.INTRA.SOLV>
-1.20157

>  <SCORE.INTRA.SOLV.lig_0>
-20.733

>  <SCORE.INTRA.VDW>
-0.159721

>  <SCORE.INTRA.VDW.0>
-0.828515

>  <SCORE.INTRA.norm>
-0.0510576

>  <SCORE.RESTR>
0

>  <SCORE.RESTR.CAVITY>
0

>  <SCORE.RESTR.norm>
0

>  <SCORE.SYSTEM>
0

>  <SCORE.SYSTEM.CONST>
0

>  <SCORE.SYSTEM.DIHEDRAL>
0

>  <SCORE.SYSTEM.SOLV>
0

>  <SCORE.SYSTEM.norm>
0

>  <SCORE.heavy>
16

>  <SCORE.norm>
-1.38437

>  <RMSD>
1.664

$$$$
ligand
 OpenBabel02271912153D
libRbt.so/2013.1/901 2013/11/27
 16 17  0  0  0  0  0  0  0  0999 V2000
    6.5651    7.4316   83.8852 N   0  0  0  0  0  0  0  0  0  0  0  0
    6.9083    6.2369   84.5794 C   0  0  2  0  0  0  0  0  0  0  0  0
    8.3919    5.9948   84.5805 C   0  0  0  0  0  0  0  0  0  0  0  0
    8.9867    5.8191   83.4893 O   0  0  0  0  0  0  0  0  0  0  0  0
    7.1810    0.3477   81.0845 O   0  0  0  0  0  0  0  0  0  0  0  0
    6.2141    5.0439   83.9674 C   0  0  0  0  0  0  0  0  0  0  0  0
    6.4789    3.7563   84.7110 C   0  0  0  0  0  0  0  0  0  0  0  0
    6.4905    3.6152   86.0406 C   0  0  0  0  0  0  0  0  0  0  0  0
    6.7187    2.5327   84.0052 C   0  0  0  0  0  0  0  0  0  0  0  0
    6.8901    1.5668   85.0342 C   0  0  0  0  0  0  0  0  0  0  0  0
    6.7983    2.1502   82.6944 C   0  0  0  0  0  0  0  0  0  0  0  0
    6.7380    2.3028   86.2292 N   0  0  0  0  0  0  0  0  0  0  0  0
    7.1408    0.2711   84.7908 C   0  0  0  0  0  0  0  0  0  0  0  0
    7.0771    0.7775   82.4139 C   0  0  0  0  0  0  0  0  0  0  0  0
    7.2573   -0.1810   83.4730 C   0  0  0  0  0  0  0  0  0  0  0  0
    9.0169    5.9541   85.6612 O   0  0  0  0  0  0  0  0  0  0  0  0
  2  1  1  6  0  0  0
  2  3  1  0  0  0  0
  2  6  1  0  0  0  0
  3  4  1  0  0  0  0
  3 16  1  0  0  0  0
  5 14  1  0  0  0  0
  6  7  1  0  0  0  0
  7  8  2  0  0  0  0
  7  9  1  0  0  0  0
  8 12  1  0  0  0  0
  9 10  2  0  0  0  0
  9 11  1  0  0  0  0
 10 13  1  0  0  0  0
 10 12  1  0  0  0  0
 11 14  2  0  0  0  0
 13 15  2  0  0  0  0
 14 15  1  0  0  0  0
M  END
>  <CHROM.1>
-62.38310487,-176.74794908,42.42236329,7.22683886,3.44887624,84.13924538
-0.88975250,-1.38753908,-2.21938219

>  <Name>
ligand

>  <RI>
0

>  <Rbt.Current_Directory>
/home/itssahil/PROJECTS/Mol_Feturizer/Test_systems_manuscript/rnas/5kpy

>  <Rbt.Executable>
rbdock ($Id: //depot/dev/client3/rdock/2013.1/src/exe/rbdock.cxx#4 $)

>  <Rbt.Library>
libRbt.so (2013.1, Build901 2013/11/27)

>  <Rbt.Parameter_File>
/export/apps/rDock/src/rDock_2013.1_src/data/scripts/dock_solv.prm

>  <Rbt.Receptor>
prm/pocket_docking_8.prm

>  <SCORE>
-22.0774

>  <SCORE.INTER>
-21.2346

>  <SCORE.INTER.CONST>
1

>  <SCORE.INTER.POLAR>
0

>  <SCORE.INTER.ROT>
3

>  <SCORE.INTER.SOLV>
5.43609

>  <SCORE.INTER.VDW>
-21.5684

>  <SCORE.INTER.norm>
-1.32716

>  <SCORE.INTRA>
-0.842811

>  <SCORE.INTRA.DIHEDRAL>
-0.162635

>  <SCORE.INTRA.DIHEDRAL.0>
3.89056

>  <SCORE.INTRA.POLAR>
0

>  <SCORE.INTRA.POLAR.0>
0

>  <SCORE.INTRA.REPUL>
0

>  <SCORE.INTRA.REPUL.0>
0

>  <SCORE.INTRA.SOLV>
-1.20167

>  <SCORE.INTRA.SOLV.lig_0>
-20.733

>  <SCORE.INTRA.VDW>
-0.160658

>  <SCORE.INTRA.VDW.0>
-0.828515

>  <SCORE.INTRA.norm>
-0.0526757

>  <SCORE.RESTR>
0

>  <SCORE.RESTR.CAVITY>
0

>  <SCORE.RESTR.norm>
0

>  <SCORE.SYSTEM>
0

>  <SCORE.SYSTEM.CONST>
0

>  <SCORE.SYSTEM.DIHEDRAL>
0

>  <SCORE.SYSTEM.SOLV>
0

>  <SCORE.SYSTEM.norm>
0

>  <SCORE.heavy>
16

>  <SCORE.norm>
-1.37984

>  <RMSD>
1.665

$$$$
ligand
 OpenBabel02271912153D
libRbt.so/2013.1/901 2013/11/27
 16 17  0  0  0  0  0  0  0  0999 V2000
    6.5076    7.4067   83.9204 N   0  0  0  0  0  0  0  0  0  0  0  0
    6.8764    6.2103   84.5983 C   0  0  2  0  0  0  0  0  0  0  0  0
    8.3630    5.9880   84.5761 C   0  0  0  0  0  0  0  0  0  0  0  0
    9.0020    5.9974   85.6563 O   0  0  0  0  0  0  0  0  0  0  0  0
    7.1943    0.3389   81.0807 O   0  0  0  0  0  0  0  0  0  0  0  0
    6.1894    5.0138   83.9850 C   0  0  0  0  0  0  0  0  0  0  0  0
    6.4680    3.7258   84.7227 C   0  0  0  0  0  0  0  0  0  0  0  0
    6.4838    3.5794   86.0517 C   0  0  0  0  0  0  0  0  0  0  0  0
    6.7178    2.5074   84.0113 C   0  0  0  0  0  0  0  0  0  0  0  0
    6.9007    1.5390   85.0360 C   0  0  0  0  0  0  0  0  0  0  0  0
    6.7982    2.1311   82.6988 C   0  0  0  0  0  0  0  0  0  0  0  0
    6.7442    2.2686   86.2344 N   0  0  0  0  0  0  0  0  0  0  0  0
    7.1630    0.2468   84.7867 C   0  0  0  0  0  0  0  0  0  0  0  0
    7.0893    0.7623   82.4121 C   0  0  0  0  0  0  0  0  0  0  0  0
    7.2810   -0.1989   83.4668 C   0  0  0  0  0  0  0  0  0  0  0  0
    8.9516    5.8127   83.4885 O   0  0  0  0  0  0  0  0  0  0  0  0
  2  1  1  6  0  0  0
  2  3  1  0  0  0  0
  2  6  1  0  0  0  0
  3  4  1  0  0  0  0
  3 16  1  0  0  0  0
  5 14  1  0  0  0  0
  6  7  1  0  0  0  0
  7  8  2  0  0  0  0
  7  9  1  0  0  0  0
  8 12  1  0  0  0  0
  9 10  2  0  0  0  0
  9 11  1  0  0  0  0
 10 13  1  0  0  0  0
 10 12  1  0  0  0  0
 11 14  2  0  0  0  0
 13 15  2  0  0  0  0
 14 15  1  0  0  0  0
M  END
>  <CHROM.1>
115.84184370,-176.03300109,42.56949939,7.21826033,3.43193302,84.14459570
-0.93038346,-1.39064803,-2.25770111

>  <Name>
ligand

>  <RI>
0

>  <Rbt.Current_Directory>
/home/itssahil/PROJECTS/Mol_Feturizer/Test_systems_manuscript/rnas/5kpy

>  <Rbt.Executable>
rbdock ($Id: //depot/dev/client3/rdock/2013.1/src/exe/rbdock.cxx#4 $)

>  <Rbt.Library>
libRbt.so (2013.1, Build901 2013/11/27)

>  <Rbt.Parameter_File>
/export/apps/rDock/src/rDock_2013.1_src/data/scripts/dock_solv.prm

>  <Rbt.Receptor>
prm/pocket_docking_8.prm

>  <SCORE>
-22.1896

>  <SCORE.INTER>
-21.3502

>  <SCORE.INTER.CONST>
1

>  <SCORE.INTER.POLAR>
0

>  <SCORE.INTER.ROT>
3

>  <SCORE.INTER.SOLV>
5.42498

>  <SCORE.INTER.VDW>
-21.6418

>  <SCORE.INTER.norm>
-1.33439

>  <SCORE.INTRA>
-0.839354

>  <SCORE.INTRA.DIHEDRAL>
-0.154298

>  <SCORE.INTRA.DIHEDRAL.0>
3.89056

>  <SCORE.INTRA.POLAR>
0

>  <SCORE.INTRA.POLAR.0>
0

>  <SCORE.INTRA.REPUL>
0

>  <SCORE.INTRA.REPUL.0>
0

>  <SCORE.INTRA.SOLV>
-1.19777

>  <SCORE.INTRA.SOLV.lig_0>
-20.733

>  <SCORE.INTRA.VDW>
-0.16332

>  <SCORE.INTRA.VDW.0>
-0.828515

>  <SCORE.INTRA.norm>
-0.0524597

>  <SCORE.RESTR>
0

>  <SCORE.RESTR.CAVITY>
0

>  <SCORE.RESTR.norm>
0

>  <SCORE.SYSTEM>
0

>  <SCORE.SYSTEM.CONST>
0

>  <SCORE.SYSTEM.DIHEDRAL>
0

>  <SCORE.SYSTEM.SOLV>
0

>  <SCORE.SYSTEM.norm>
0

>  <SCORE.heavy>
16

>  <SCORE.norm>
-1.38685

>  <RMSD>
1.665

$$$$
ligand
 OpenBabel02271912153D
libRbt.so/2013.1/901 2013/11/27
 16 17  0  0  0  0  0  0  0  0999 V2000
    6.5297    7.4145   83.9626 N   0  0  0  0  0  0  0  0  0  0  0  0
    6.8999    6.2080   84.6215 C   0  0  2  0  0  0  0  0  0  0  0  0
    8.3861    5.9841   84.5895 C   0  0  0  0  0  0  0  0  0  0  0  0
    9.0253    5.9468   85.6689 O   0  0  0  0  0  0  0  0  0  0  0  0
    7.1297    0.3378   81.0760 O   0  0  0  0  0  0  0  0  0  0  0  0
    6.2085    5.0214   83.9941 C   0  0  0  0  0  0  0  0  0  0  0  0
    6.4664    3.7269   84.7280 C   0  0  0  0  0  0  0  0  0  0  0  0
    6.4819    3.5767   86.0566 C   0  0  0  0  0  0  0  0  0  0  0  0
    6.6946    2.5063   84.0131 C   0  0  0  0  0  0  0  0  0  0  0  0
    6.8626    1.5322   85.0349 C   0  0  0  0  0  0  0  0  0  0  0  0
    6.7664    2.1321   82.6995 C   0  0  0  0  0  0  0  0  0  0  0  0
    6.7204    2.2613   86.2354 N   0  0  0  0  0  0  0  0  0  0  0  0
    7.1027    0.2364   84.7818 C   0  0  0  0  0  0  0  0  0  0  0  0
    7.0339    0.7593   82.4087 C   0  0  0  0  0  0  0  0  0  0  0  0
    7.2110   -0.2077   83.4606 C   0  0  0  0  0  0  0  0  0  0  0  0
    8.9741    5.8538   83.4952 O   0  0  0  0  0  0  0  0  0  0  0  0
  2  1  1  6  0  0  0
  2  3  1  0  0  0  0
  2  6  1  0  0  0  0
  3  4  1  0  0  0  0
  3 16  1  0  0  0  0
  5 14  1  0  0  0  0
  6  7  1  0  0  0  0
  7  8  2  0  0  0  0
  7  9  1  0  0  0  0
  8 12  1  0  0  0  0
  9 10  2  0  0  0  0
  9 11  1  0  0  0  0
 10 13  1  0  0  0  0
 10 12  1  0  0  0  0
 11 14  2  0  0  0  0
 13 15  2  0  0  0  0
 14 15  1  0  0  0  0
M  END
>  <CHROM.1>
117.45241181,-174.88811628,41.70249210,7.20470295,3.42954157,84.15120921
-0.87429142,-1.38044021,-2.20033892

>  <Name>
ligand

>  <RI>
0

>  <Rbt.Current_Directory>
/home/itssahil/PROJECTS/Mol_Feturizer/Test_systems_manuscript/rnas/5kpy

>  <Rbt.Executable>
rbdock ($Id: //depot/dev/client3/rdock/2013.1/src/exe/rbdock.cxx#4 $)

>  <Rbt.Library>
libRbt.so (2013.1, Build901 2013/11/27)

>  <Rbt.Parameter_File>
/export/apps/rDock/src/rDock_2013.1_src/data/scripts/dock_solv.prm

>  <Rbt.Receptor>
prm/pocket_docking_8.prm

>  <SCORE>
-22.1644

>  <SCORE.INTER>
-21.3291

>  <SCORE.INTER.CONST>
1

>  <SCORE.INTER.POLAR>
0

>  <SCORE.INTER.ROT>
3

>  <SCORE.INTER.SOLV>
5.41104

>  <SCORE.INTER.VDW>
-21.6231

>  <SCORE.INTER.norm>
-1.33307

>  <SCORE.INTRA>
-0.83528

>  <SCORE.INTRA.DIHEDRAL>
-0.114816

>  <SCORE.INTRA.DIHEDRAL.0>
3.89056

>  <SCORE.INTRA.POLAR>
0

>  <SCORE.INTRA.POLAR.0>
0

>  <SCORE.INTRA.REPUL>
0

>  <SCORE.INTRA.REPUL.0>
0

>  <SCORE.INTRA.SOLV>
-1.19675

>  <SCORE.INTRA.SOLV.lig_0>
-20.733

>  <SCORE.INTRA.VDW>
-0.179497

>  <SCORE.INTRA.VDW.0>
-0.828515

>  <SCORE.INTRA.norm>
-0.052205

>  <SCORE.RESTR>
0

>  <SCORE.RESTR.CAVITY>
0

>  <SCORE.RESTR.norm>
0

>  <SCORE.SYSTEM>
0

>  <SCORE.SYSTEM.CONST>
0

>  <SCORE.SYSTEM.DIHEDRAL>
0

>  <SCORE.SYSTEM.SOLV>
0

>  <SCORE.SYSTEM.norm>
0

>  <SCORE.heavy>
16

>  <SCORE.norm>
-1.38527

>  <RMSD>
1.669

$$$$
ligand
 OpenBabel02271912153D
libRbt.so/2013.1/901 2013/11/27
 16 17  0  0  0  0  0  0  0  0999 V2000
    6.5695    7.4449   83.8930 N   0  0  0  0  0  0  0  0  0  0  0  0
    6.9055    6.2556   84.5998 C   0  0  2  0  0  0  0  0  0  0  0  0
    8.3856    5.9934   84.5857 C   0  0  0  0  0  0  0  0  0  0  0  0
    9.0166    5.9743   85.6705 O   0  0  0  0  0  0  0  0  0  0  0  0
    7.2138    0.3789   81.1326 O   0  0  0  0  0  0  0  0  0  0  0  0
    6.1876    5.0636   84.0137 C   0  0  0  0  0  0  0  0  0  0  0  0
    6.4639    3.7787   84.7577 C   0  0  0  0  0  0  0  0  0  0  0  0
    6.4728    3.6373   86.0874 C   0  0  0  0  0  0  0  0  0  0  0  0
    6.7190    2.5579   84.0524 C   0  0  0  0  0  0  0  0  0  0  0  0
    6.8976    1.5936   85.0817 C   0  0  0  0  0  0  0  0  0  0  0  0
    6.8068    2.1767   82.7418 C   0  0  0  0  0  0  0  0  0  0  0  0
    6.7338    2.3276   86.2764 N   0  0  0  0  0  0  0  0  0  0  0  0
    7.1629    0.3008   84.8387 C   0  0  0  0  0  0  0  0  0  0  0  0
    7.1012    0.8072   82.4618 C   0  0  0  0  0  0  0  0  0  0  0  0
    7.2884   -0.1497   83.5211 C   0  0  0  0  0  0  0  0  0  0  0  0
    8.9773    5.8136   83.5005 O   0  0  0  0  0  0  0  0  0  0  0  0
  2  1  1  6  0  0  0
  2  3  1  0  0  0  0
  2  6  1  0  0  0  0
  3  4  1  0  0  0  0
  3 16  1  0  0  0  0
  5 14  1  0  0  0  0
  6  7  1  0  0  0  0
  7  8  2  0  0  0  0
  7  9  1  0  0  0  0
  8 12  1  0  0  0  0
  9 10  2  0  0  0  0
  9 11  1  0  0  0  0
 10 13  1  0  0  0  0
 10 12  1  0  0  0  0
 11 14  2  0  0  0  0
 13 15  2  0  0  0  0
 14 15  1  0  0  0  0
M  END
>  <CHROM.1>
117.83196516,-177.76134091,44.42281342,7.22979264,3.46942905,84.17432114
-0.95211646,-1.38122718,-2.28772330

>  <Name>
ligand

>  <RI>
0

>  <Rbt.Current_Directory>
/home/itssahil/PROJECTS/Mol_Feturizer/Test_systems_manuscript/rnas/5kpy

>  <Rbt.Executable>
rbdock ($Id: //depot/dev/client3/rdock/2013.1/src/exe/rbdock.cxx#4 $)

>  <Rbt.Library>
libRbt.so (2013.1, Build901 2013/11/27)

>  <Rbt.Parameter_File>
/export/apps/rDock/src/rDock_2013.1_src/data/scripts/dock_solv.prm

>  <Rbt.Receptor>
prm/pocket_docking_3.prm

>  <SCORE>
-22.1161

>  <SCORE.INTER>
-21.2249

>  <SCORE.INTER.CONST>
1

>  <SCORE.INTER.POLAR>
0

>  <SCORE.INTER.ROT>
3

>  <SCORE.INTER.SOLV>
5.38716

>  <SCORE.INTER.VDW>
-21.5457

>  <SCORE.INTER.norm>
-1.32656

>  <SCORE.INTRA>
-0.891184

>  <SCORE.INTRA.DIHEDRAL>
-0.185269

>  <SCORE.INTRA.DIHEDRAL.0>
3.89056

>  <SCORE.INTRA.POLAR>
0

>  <SCORE.INTRA.POLAR.0>
0

>  <SCORE.INTRA.REPUL>
0

>  <SCORE.INTRA.REPUL.0>
0

>  <SCORE.INTRA.SOLV>
-1.19762

>  <SCORE.INTRA.SOLV.lig_0>
-20.733

>  <SCORE.INTRA.VDW>
-0.199741

>  <SCORE.INTRA.VDW.0>
-0.828515

>  <SCORE.INTRA.norm>
-0.055699

>  <SCORE.RESTR>
0

>  <SCORE.RESTR.CAVITY>
0

>  <SCORE.RESTR.norm>
0

>  <SCORE.SYSTEM>
0

>  <SCORE.SYSTEM.CONST>
0

>  <SCORE.SYSTEM.DIHEDRAL>
0

>  <SCORE.SYSTEM.SOLV>
0

>  <SCORE.SYSTEM.norm>
0

>  <SCORE.heavy>
16

>  <SCORE.norm>
-1.38226

>  <RMSD>
1.671

$$$$
ligand
 OpenBabel02271912153D
libRbt.so/2013.1/901 2013/11/27
 16 17  0  0  0  0  0  0  0  0999 V2000
    6.5695    7.3981   83.8896 N   0  0  0  0  0  0  0  0  0  0  0  0
    6.9248    6.1960   84.5647 C   0  0  2  0  0  0  0  0  0  0  0  0
    8.4120    5.9765   84.5747 C   0  0  0  0  0  0  0  0  0  0  0  0
    9.0256    5.9756   85.6696 O   0  0  0  0  0  0  0  0  0  0  0  0
    7.1838    0.2786   81.0777 O   0  0  0  0  0  0  0  0  0  0  0  0
    6.2544    5.0042   83.9245 C   0  0  0  0  0  0  0  0  0  0  0  0
    6.4868    3.7160   84.6778 C   0  0  0  0  0  0  0  0  0  0  0  0
    6.4769    3.5812   86.0081 C   0  0  0  0  0  0  0  0  0  0  0  0
    6.7163    2.4851   83.9812 C   0  0  0  0  0  0  0  0  0  0  0  0
    6.8567    1.5216   85.0171 C   0  0  0  0  0  0  0  0  0  0  0  0
    6.8083    2.0950   82.6736 C   0  0  0  0  0  0  0  0  0  0  0  0
    6.6997    2.2658   86.2064 N   0  0  0  0  0  0  0  0  0  0  0  0
    7.0890    0.2207   84.7833 C   0  0  0  0  0  0  0  0  0  0  0  0
    7.0680    0.7165   82.4035 C   0  0  0  0  0  0  0  0  0  0  0  0
    7.2169   -0.2397   83.4695 C   0  0  0  0  0  0  0  0  0  0  0  0
    9.0261    5.8136   83.4993 O   0  0  0  0  0  0  0  0  0  0  0  0
  2  1  1  6  0  0  0
  2  3  1  0  0  0  0
  2  6  1  0  0  0  0
  3  4  1  0  0  0  0
  3 16  1  0  0  0  0
  5 14  1  0  0  0  0
  6  7  1  0  0  0  0
  7  8  2  0  0  0  0
  7  9  1  0  0  0  0
  8 12  1  0  0  0  0
  9 10  2  0  0  0  0
  9 11  1  0  0  0  0
 10 13  1  0  0  0  0
 10 12  1  0  0  0  0
 11 14  2  0  0  0  0
 13 15  2  0  0  0  0
 14 15  1  0  0  0  0
M  END
>  <CHROM.1>
115.91010748,-174.44257629,40.65742561,7.22573397,3.41165029,84.12635729
-0.91059341,-1.36861248,-2.24243663

>  <Name>
ligand

>  <RI>
0

>  <Rbt.Current_Directory>
/home/itssahil/PROJECTS/Mol_Feturizer/Test_systems_manuscript/rnas/5kpy

>  <Rbt.Executable>
rbdock ($Id: //depot/dev/client3/rdock/2013.1/src/exe/rbdock.cxx#4 $)

>  <Rbt.Library>
libRbt.so (2013.1, Build901 2013/11/27)

>  <Rbt.Parameter_File>
/export/apps/rDock/src/rDock_2013.1_src/data/scripts/dock_solv.prm

>  <Rbt.Receptor>
prm/pocket_docking_8.prm

>  <SCORE>
-22.1786

>  <SCORE.INTER>
-21.3793

>  <SCORE.INTER.CONST>
1

>  <SCORE.INTER.POLAR>
0

>  <SCORE.INTER.ROT>
3

>  <SCORE.INTER.SOLV>
5.4612

>  <SCORE.INTER.VDW>
-21.6733

>  <SCORE.INTER.norm>
-1.33621

>  <SCORE.INTRA>
-0.799289

>  <SCORE.INTRA.DIHEDRAL>
-0.101919

>  <SCORE.INTRA.DIHEDRAL.0>
3.89056

>  <SCORE.INTRA.POLAR>
0

>  <SCORE.INTRA.POLAR.0>
0

>  <SCORE.INTRA.REPUL>
0

>  <SCORE.INTRA.REPUL.0>
0

>  <SCORE.INTRA.SOLV>
-1.19703

>  <SCORE.INTRA.SOLV.lig_0>
-20.733

>  <SCORE.INTRA.VDW>
-0.149812

>  <SCORE.INTRA.VDW.0>
-0.828515

>  <SCORE.INTRA.norm>
-0.0499555

>  <SCORE.RESTR>
0

>  <SCORE.RESTR.CAVITY>
0

>  <SCORE.RESTR.norm>
0

>  <SCORE.SYSTEM>
0

>  <SCORE.SYSTEM.CONST>
0

>  <SCORE.SYSTEM.DIHEDRAL>
0

>  <SCORE.SYSTEM.SOLV>
0

>  <SCORE.SYSTEM.norm>
0

>  <SCORE.heavy>
16

>  <SCORE.norm>
-1.38616

>  <RMSD>
1.673

$$$$
ligand
 OpenBabel02271912153D
libRbt.so/2013.1/901 2013/11/27
 16 17  0  0  0  0  0  0  0  0999 V2000
    6.5035    7.4009   83.9561 N   0  0  0  0  0  0  0  0  0  0  0  0
    6.8846    6.1993   84.6177 C   0  0  2  0  0  0  0  0  0  0  0  0
    8.3741    5.9968   84.5997 C   0  0  0  0  0  0  0  0  0  0  0  0
    9.0079    6.0003   85.6830 O   0  0  0  0  0  0  0  0  0  0  0  0
    7.1274    0.3021   81.0903 O   0  0  0  0  0  0  0  0  0  0  0  0
    6.2163    5.0034   83.9829 C   0  0  0  0  0  0  0  0  0  0  0  0
    6.4780    3.7136   84.7238 C   0  0  0  0  0  0  0  0  0  0  0  0
    6.4993    3.5718   86.0532 C   0  0  0  0  0  0  0  0  0  0  0  0
    6.7037    2.4887   84.0156 C   0  0  0  0  0  0  0  0  0  0  0  0
    6.8766    1.5211   85.0428 C   0  0  0  0  0  0  0  0  0  0  0  0
    6.7702    2.1063   82.7041 C   0  0  0  0  0  0  0  0  0  0  0  0
    6.7392    2.2576   86.2393 N   0  0  0  0  0  0  0  0  0  0  0  0
    7.1163    0.2239   84.7968 C   0  0  0  0  0  0  0  0  0  0  0  0
    7.0371    0.7319   82.4207 C   0  0  0  0  0  0  0  0  0  0  0  0
    7.2191   -0.2284   83.4779 C   0  0  0  0  0  0  0  0  0  0  0  0
    8.9700    5.8435   83.5127 O   0  0  0  0  0  0  0  0  0  0  0  0
  2  1  1  6  0  0  0
  2  3  1  0  0  0  0
  2  6  1  0  0  0  0
  3  4  1  0  0  0  0
  3 16  1  0  0  0  0
  5 14  1  0  0  0  0
  6  7  1  0  0  0  0
  7  8  2  0  0  0  0
  7  9  1  0  0  0  0
  8 12  1  0  0  0  0
  9 10  2  0  0  0  0
  9 11  1  0  0  0  0
 10 13  1  0  0  0  0
 10 12  1  0  0  0  0
 11 14  2  0  0  0  0
 13 15  2  0  0  0  0
 14 15  1  0  0  0  0
M  END
>  <CHROM.1>
115.73041558,-174.49602034,40.41579298,7.20588214,3.42036145,84.15706655
-0.83993150,-1.39204006,-2.16597568

>  <Name>
ligand

>  <RI>
0

>  <Rbt.Current_Directory>
/home/itssahil/PROJECTS/Mol_Feturizer/Test_systems_manuscript/rnas/5kpy

>  <Rbt.Executable>
rbdock ($Id: //depot/dev/client3/rdock/2013.1/src/exe/rbdock.cxx#4 $)

>  <Rbt.Library>
libRbt.so (2013.1, Build901 2013/11/27)

>  <Rbt.Parameter_File>
/export/apps/rDock/src/rDock_2013.1_src/data/scripts/dock_solv.prm

>  <Rbt.Receptor>
prm/pocket_docking_5.prm

>  <SCORE>
-22.1948

>  <SCORE.INTER>
-21.3992

>  <SCORE.INTER.CONST>
1

>  <SCORE.INTER.POLAR>
0

>  <SCORE.INTER.ROT>
3

>  <SCORE.INTER.SOLV>
5.41967

>  <SCORE.INTER.VDW>
-21.6727

>  <SCORE.INTER.norm>
-1.33745

>  <SCORE.INTRA>
-0.795559

>  <SCORE.INTRA.DIHEDRAL>
-0.104977

>  <SCORE.INTRA.DIHEDRAL.0>
3.89056

>  <SCORE.INTRA.POLAR>
0

>  <SCORE.INTRA.POLAR.0>
0

>  <SCORE.INTRA.REPUL>
0

>  <SCORE.INTRA.REPUL.0>
0

>  <SCORE.INTRA.SOLV>
-1.19712

>  <SCORE.INTRA.SOLV.lig_0>
-20.733

>  <SCORE.INTRA.VDW>
-0.144511

>  <SCORE.INTRA.VDW.0>
-0.828515

>  <SCORE.INTRA.norm>
-0.0497224

>  <SCORE.RESTR>
0

>  <SCORE.RESTR.CAVITY>
0

>  <SCORE.RESTR.norm>
0

>  <SCORE.SYSTEM>
0

>  <SCORE.SYSTEM.CONST>
0

>  <SCORE.SYSTEM.DIHEDRAL>
0

>  <SCORE.SYSTEM.SOLV>
0

>  <SCORE.SYSTEM.norm>
0

>  <SCORE.heavy>
16

>  <SCORE.norm>
-1.38718

>  <RMSD>
1.674

$$$$
ligand
 OpenBabel02271912153D
libRbt.so/2013.1/901 2013/11/27
 16 17  0  0  0  0  0  0  0  0999 V2000
    6.4802    7.4219   83.8887 N   0  0  0  0  0  0  0  0  0  0  0  0
    6.8517    6.2347   84.5813 C   0  0  2  0  0  0  0  0  0  0  0  0
    8.3399    6.0223   84.5728 C   0  0  0  0  0  0  0  0  0  0  0  0
    8.9648    6.0081   85.6611 O   0  0  0  0  0  0  0  0  0  0  0  0
    7.1979    0.3209   81.1277 O   0  0  0  0  0  0  0  0  0  0  0  0
    6.1775    5.0277   83.9746 C   0  0  0  0  0  0  0  0  0  0  0  0
    6.4577    3.7491   84.7280 C   0  0  0  0  0  0  0  0  0  0  0  0
    6.4717    3.6185   86.0587 C   0  0  0  0  0  0  0  0  0  0  0  0
    6.7116    2.5229   84.0316 C   0  0  0  0  0  0  0  0  0  0  0  0
    6.8949    1.5672   85.0680 C   0  0  0  0  0  0  0  0  0  0  0  0
    6.7950    2.1312   82.7238 C   0  0  0  0  0  0  0  0  0  0  0  0
    6.7347    2.3106   86.2574 N   0  0  0  0  0  0  0  0  0  0  0  0
    7.1606    0.2727   84.8345 C   0  0  0  0  0  0  0  0  0  0  0  0
    7.0897    0.7598   82.4538 C   0  0  0  0  0  0  0  0  0  0  0  0
    7.2818   -0.1883   83.5202 C   0  0  0  0  0  0  0  0  0  0  0  0
    8.9436    5.8785   83.4888 O   0  0  0  0  0  0  0  0  0  0  0  0
  2  1  1  6  0  0  0
  2  3  1  0  0  0  0
  2  6  1  0  0  0  0
  3  4  1  0  0  0  0
  3 16  1  0  0  0  0
  5 14  1  0  0  0  0
  6  7  1  0  0  0  0
  7  8  2  0  0  0  0
  7  9  1  0  0  0  0
  8 12  1  0  0  0  0
  9 10  2  0  0  0  0
  9 11  1  0  0  0  0
 10 13  1  0  0  0  0
 10 12  1  0  0  0  0
 11 14  2  0  0  0  0
 13 15  2  0  0  0  0
 14 15  1  0  0  0  0
M  END
>  <CHROM.1>
117.89327674,-175.97385129,42.10309608,7.20682501,3.45249406,84.15928517
-0.93666974,-1.39547544,-2.27431487

>  <Name>
ligand

>  <RI>
0

>  <Rbt.Current_Directory>
/home/itssahil/PROJECTS/Mol_Feturizer/Test_systems_manuscript/rnas/5kpy

>  <Rbt.Executable>
rbdock ($Id: //depot/dev/client3/rdock/2013.1/src/exe/rbdock.cxx#4 $)

>  <Rbt.Library>
libRbt.so (2013.1, Build901 2013/11/27)

>  <Rbt.Parameter_File>
/export/apps/rDock/src/rDock_2013.1_src/data/scripts/dock_solv.prm

>  <Rbt.Receptor>
prm/pocket_docking_3.prm

>  <SCORE>
-22.1683

>  <SCORE.INTER>
-21.3102

>  <SCORE.INTER.CONST>
1

>  <SCORE.INTER.POLAR>
0

>  <SCORE.INTER.ROT>
3

>  <SCORE.INTER.SOLV>
5.40427

>  <SCORE.INTER.VDW>
-21.6082

>  <SCORE.INTER.norm>
-1.33189

>  <SCORE.INTRA>
-0.858117

>  <SCORE.INTRA.DIHEDRAL>
-0.150302

>  <SCORE.INTRA.DIHEDRAL.0>
3.89056

>  <SCORE.INTRA.POLAR>
0

>  <SCORE.INTRA.POLAR.0>
0

>  <SCORE.INTRA.REPUL>
0

>  <SCORE.INTRA.REPUL.0>
0

>  <SCORE.INTRA.SOLV>
-1.19707

>  <SCORE.INTRA.SOLV.lig_0>
-20.733

>  <SCORE.INTRA.VDW>
-0.184433

>  <SCORE.INTRA.VDW.0>
-0.828515

>  <SCORE.INTRA.norm>
-0.0536323

>  <SCORE.RESTR>
0

>  <SCORE.RESTR.CAVITY>
0

>  <SCORE.RESTR.norm>
0

>  <SCORE.SYSTEM>
0

>  <SCORE.SYSTEM.CONST>
0

>  <SCORE.SYSTEM.DIHEDRAL>
0

>  <SCORE.SYSTEM.SOLV>
0

>  <SCORE.SYSTEM.norm>
0

>  <SCORE.heavy>
16

>  <SCORE.norm>
-1.38552

>  <RMSD>
1.676

$$$$
ligand
 OpenBabel02271912153D
libRbt.so/2013.1/901 2013/11/27
 16 17  0  0  0  0  0  0  0  0999 V2000
    6.5083    7.3985   83.8808 N   0  0  0  0  0  0  0  0  0  0  0  0
    6.8705    6.2050   84.5672 C   0  0  2  0  0  0  0  0  0  0  0  0
    8.3562    5.9764   84.5498 C   0  0  0  0  0  0  0  0  0  0  0  0
    8.9364    5.7901   83.4525 O   0  0  0  0  0  0  0  0  0  0  0  0
    7.2459    0.3102   81.1141 O   0  0  0  0  0  0  0  0  0  0  0  0
    6.1799    5.0075   83.9600 C   0  0  0  0  0  0  0  0  0  0  0  0
    6.4418    3.7251   84.7134 C   0  0  0  0  0  0  0  0  0  0  0  0
    6.4288    3.5889   86.0435 C   0  0  0  0  0  0  0  0  0  0  0  0
    6.7067    2.5012   84.0170 C   0  0  0  0  0  0  0  0  0  0  0  0
    6.8668    1.5406   85.0528 C   0  0  0  0  0  0  0  0  0  0  0  0
    6.8153    2.1148   82.7095 C   0  0  0  0  0  0  0  0  0  0  0  0
    6.6846    2.2795   86.2419 N   0  0  0  0  0  0  0  0  0  0  0  0
    7.1341    0.2465   84.8192 C   0  0  0  0  0  0  0  0  0  0  0  0
    7.1121    0.7437   82.4397 C   0  0  0  0  0  0  0  0  0  0  0  0
    7.2805   -0.2093   83.5056 C   0  0  0  0  0  0  0  0  0  0  0  0
    8.9973    5.9571   85.6215 O   0  0  0  0  0  0  0  0  0  0  0  0
  2  1  1  6  0  0  0
  2  3  1  0  0  0  0
  2  6  1  0  0  0  0
  3  4  1  0  0  0  0
  3 16  1  0  0  0  0
  5 14  1  0  0  0  0
  6  7  1  0  0  0  0
  7  8  2  0  0  0  0
  7  9  1  0  0  0  0
  8 12  1  0  0  0  0
  9 10  2  0  0  0  0
  9 11  1  0  0  0  0
 10 13  1  0  0  0  0
 10 12  1  0  0  0  0
 11 14  2  0  0  0  0
 13 15  2  0  0  0  0
 14 15  1  0  0  0  0
M  END
>  <CHROM.1>
-63.39358723,-175.54311196,43.42246491,7.20878662,3.42138799,84.14108532
-1.03728844,-1.36624595,-2.37808864

>  <Name>
ligand

>  <RI>
0

>  <Rbt.Current_Directory>
/home/itssahil/PROJECTS/Mol_Feturizer/Test_systems_manuscript/rnas/5kpy

>  <Rbt.Executable>
rbdock ($Id: //depot/dev/client3/rdock/2013.1/src/exe/rbdock.cxx#4 $)

>  <Rbt.Library>
libRbt.so (2013.1, Build901 2013/11/27)

>  <Rbt.Parameter_File>
/export/apps/rDock/src/rDock_2013.1_src/data/scripts/dock_solv.prm

>  <Rbt.Receptor>
prm/pocket_docking_8.prm

>  <SCORE>
-22.1573

>  <SCORE.INTER>
-21.3306

>  <SCORE.INTER.CONST>
1

>  <SCORE.INTER.POLAR>
0

>  <SCORE.INTER.ROT>
3

>  <SCORE.INTER.SOLV>
5.42718

>  <SCORE.INTER.VDW>
-21.6295

>  <SCORE.INTER.norm>
-1.33316

>  <SCORE.INTRA>
-0.826671

>  <SCORE.INTRA.DIHEDRAL>
-0.123668

>  <SCORE.INTRA.DIHEDRAL.0>
3.89056

>  <SCORE.INTRA.POLAR>
0

>  <SCORE.INTRA.POLAR.0>
0

>  <SCORE.INTRA.REPUL>
0

>  <SCORE.INTRA.REPUL.0>
0

>  <SCORE.INTRA.SOLV>
-1.20175

>  <SCORE.INTRA.SOLV.lig_0>
-20.733

>  <SCORE.INTRA.VDW>
-0.163962

>  <SCORE.INTRA.VDW.0>
-0.828515

>  <SCORE.INTRA.norm>
-0.051667

>  <SCORE.RESTR>
0

>  <SCORE.RESTR.CAVITY>
0

>  <SCORE.RESTR.norm>
0

>  <SCORE.SYSTEM>
0

>  <SCORE.SYSTEM.CONST>
0

>  <SCORE.SYSTEM.DIHEDRAL>
0

>  <SCORE.SYSTEM.SOLV>
0

>  <SCORE.SYSTEM.norm>
0

>  <SCORE.heavy>
16

>  <SCORE.norm>
-1.38483

>  <RMSD>
1.677

$$$$
ligand
 OpenBabel02271912153D
libRbt.so/2013.1/901 2013/11/27
 16 17  0  0  0  0  0  0  0  0999 V2000
    6.5315    7.4023   83.8445 N   0  0  0  0  0  0  0  0  0  0  0  0
    6.8846    6.2152   84.5469 C   0  0  2  0  0  0  0  0  0  0  0  0
    8.3679    5.9718   84.5276 C   0  0  0  0  0  0  0  0  0  0  0  0
    8.9440    5.7742   83.4302 O   0  0  0  0  0  0  0  0  0  0  0  0
    7.2685    0.3174   81.1242 O   0  0  0  0  0  0  0  0  0  0  0  0
    6.1801    5.0159   83.9594 C   0  0  0  0  0  0  0  0  0  0  0  0
    6.4523    3.7374   84.7158 C   0  0  0  0  0  0  0  0  0  0  0  0
    6.4437    3.6049   86.0463 C   0  0  0  0  0  0  0  0  0  0  0  0
    6.7230    2.5133   84.0222 C   0  0  0  0  0  0  0  0  0  0  0  0
    6.8921    1.5567   85.0604 C   0  0  0  0  0  0  0  0  0  0  0  0
    6.8307    2.1238   82.7155 C   0  0  0  0  0  0  0  0  0  0  0  0
    6.7084    2.2978   86.2478 N   0  0  0  0  0  0  0  0  0  0  0  0
    7.1670    0.2636   84.8297 C   0  0  0  0  0  0  0  0  0  0  0  0
    7.1355    0.7539   82.4488 C   0  0  0  0  0  0  0  0  0  0  0  0
    7.3128   -0.1950   83.5170 C   0  0  0  0  0  0  0  0  0  0  0  0
    9.0110    5.9517   85.5982 O   0  0  0  0  0  0  0  0  0  0  0  0
  2  1  1  6  0  0  0
  2  3  1  0  0  0  0
  2  6  1  0  0  0  0
  3  4  1  0  0  0  0
  3 16  1  0  0  0  0
  5 14  1  0  0  0  0
  6  7  1  0  0  0  0
  7  8  2  0  0  0  0
  7  9  1  0  0  0  0
  8 12  1  0  0  0  0
  9 10  2  0  0  0  0
  9 11  1  0  0  0  0
 10 13  1  0  0  0  0
 10 12  1  0  0  0  0
 11 14  2  0  0  0  0
 13 15  2  0  0  0  0
 14 15  1  0  0  0  0
M  END
>  <CHROM.1>
-62.85520793,-176.58236128,44.45266707,7.22650899,3.42881124,84.13695571
-1.04574779,-1.36917934,-2.39132533

>  <Name>
ligand

>  <RI>
0

>  <Rbt.Current_Directory>
/home/itssahil/PROJECTS/Mol_Feturizer/Test_systems_manuscript/rnas/5kpy

>  <Rbt.Executable>
rbdock ($Id: //depot/dev/client3/rdock/2013.1/src/exe/rbdock.cxx#4 $)

>  <Rbt.Library>
libRbt.so (2013.1, Build901 2013/11/27)

>  <Rbt.Parameter_File>
/export/apps/rDock/src/rDock_2013.1_src/data/scripts/dock_solv.prm

>  <Rbt.Receptor>
prm/pocket_docking_4.prm

>  <SCORE>
-22.1337

>  <SCORE.INTER>
-21.2786

>  <SCORE.INTER.CONST>
1

>  <SCORE.INTER.POLAR>
0

>  <SCORE.INTER.ROT>
3

>  <SCORE.INTER.SOLV>
5.44257

>  <SCORE.INTER.VDW>
-21.5999

>  <SCORE.INTER.norm>
-1.32991

>  <SCORE.INTRA>
-0.855081

>  <SCORE.INTRA.DIHEDRAL>
-0.152141

>  <SCORE.INTRA.DIHEDRAL.0>
3.89056

>  <SCORE.INTRA.POLAR>
0

>  <SCORE.INTRA.POLAR.0>
0

>  <SCORE.INTRA.REPUL>
0

>  <SCORE.INTRA.REPUL.0>
0

>  <SCORE.INTRA.SOLV>
-1.20186

>  <SCORE.INTRA.SOLV.lig_0>
-20.733

>  <SCORE.INTRA.VDW>
-0.178078

>  <SCORE.INTRA.VDW.0>
-0.828515

>  <SCORE.INTRA.norm>
-0.0534426

>  <SCORE.RESTR>
0

>  <SCORE.RESTR.CAVITY>
0

>  <SCORE.RESTR.norm>
0

>  <SCORE.SYSTEM>
0

>  <SCORE.SYSTEM.CONST>
0

>  <SCORE.SYSTEM.DIHEDRAL>
0

>  <SCORE.SYSTEM.SOLV>
0

>  <SCORE.SYSTEM.norm>
0

>  <SCORE.heavy>
16

>  <SCORE.norm>
-1.38336

>  <RMSD>
1.682

$$$$
ligand
 OpenBabel02271912153D
libRbt.so/2013.1/901 2013/11/27
 16 17  0  0  0  0  0  0  0  0999 V2000
    6.5278    7.3844   83.8340 N   0  0  0  0  0  0  0  0  0  0  0  0
    6.8827    6.1881   84.5195 C   0  0  2  0  0  0  0  0  0  0  0  0
    8.3681    5.9570   84.5128 C   0  0  0  0  0  0  0  0  0  0  0  0
    8.9523    5.7464   83.4221 O   0  0  0  0  0  0  0  0  0  0  0  0
    7.2186    0.2677   81.0896 O   0  0  0  0  0  0  0  0  0  0  0  0
    6.1947    4.9936   83.9032 C   0  0  0  0  0  0  0  0  0  0  0  0
    6.4336    3.7118   84.6651 C   0  0  0  0  0  0  0  0  0  0  0  0
    6.4086    3.5826   85.9958 C   0  0  0  0  0  0  0  0  0  0  0  0
    6.6871    2.4808   83.9770 C   0  0  0  0  0  0  0  0  0  0  0  0
    6.8263    1.5236   85.0189 C   0  0  0  0  0  0  0  0  0  0  0  0
    6.8004    2.0862   82.6724 C   0  0  0  0  0  0  0  0  0  0  0  0
    6.6451    2.2710   86.2028 N   0  0  0  0  0  0  0  0  0  0  0  0
    7.0778    0.2247   84.7939 C   0  0  0  0  0  0  0  0  0  0  0  0
    7.0806    0.7099   82.4118 C   0  0  0  0  0  0  0  0  0  0  0  0
    7.2280   -0.2398   83.4838 C   0  0  0  0  0  0  0  0  0  0  0  0
    9.0050    5.9597   85.5872 O   0  0  0  0  0  0  0  0  0  0  0  0
  2  1  1  6  0  0  0
  2  3  1  0  0  0  0
  2  6  1  0  0  0  0
  3  4  1  0  0  0  0
  3 16  1  0  0  0  0
  5 14  1  0  0  0  0
  6  7  1  0  0  0  0
  7  8  2  0  0  0  0
  7  9  1  0  0  0  0
  8 12  1  0  0  0  0
  9 10  2  0  0  0  0
  9 11  1  0  0  0  0
 10 13  1  0  0  0  0
 10 12  1  0  0  0  0
 11 14  2  0  0  0  0
 13 15  2  0  0  0  0
 14 15  1  0  0  0  0
M  END
>  <CHROM.1>
-64.81906061,-174.76981692,42.69652445,7.19573340,3.40072314,84.10376468
-1.02132985,-1.35335325,-2.36579329

>  <Name>
ligand

>  <RI>
0

>  <Rbt.Current_Directory>
/home/itssahil/PROJECTS/Mol_Feturizer/Test_systems_manuscript/rnas/5kpy

>  <Rbt.Executable>
rbdock ($Id: //depot/dev/client3/rdock/2013.1/src/exe/rbdock.cxx#4 $)

>  <Rbt.Library>
libRbt.so (2013.1, Build901 2013/11/27)

>  <Rbt.Parameter_File>
/export/apps/rDock/src/rDock_2013.1_src/data/scripts/dock_solv.prm

>  <Rbt.Receptor>
prm/pocket_docking_4.prm

>  <SCORE>
-22.1649

>  <SCORE.INTER>
-21.3781

>  <SCORE.INTER.CONST>
1

>  <SCORE.INTER.POLAR>
0

>  <SCORE.INTER.ROT>
3

>  <SCORE.INTER.SOLV>
5.4783

>  <SCORE.INTER.VDW>
-21.6782

>  <SCORE.INTER.norm>
-1.33613

>  <SCORE.INTRA>
-0.786809

>  <SCORE.INTRA.DIHEDRAL>
-0.0951162

>  <SCORE.INTRA.DIHEDRAL.0>
3.89056

>  <SCORE.INTRA.POLAR>
0

>  <SCORE.INTRA.POLAR.0>
0

>  <SCORE.INTRA.REPUL>
0

>  <SCORE.INTRA.REPUL.0>
0

>  <SCORE.INTRA.SOLV>
-1.2021

>  <SCORE.INTRA.SOLV.lig_0>
-20.733

>  <SCORE.INTRA.VDW>
-0.1382

>  <SCORE.INTRA.VDW.0>
-0.828515

>  <SCORE.INTRA.norm>
-0.0491755

>  <SCORE.RESTR>
0

>  <SCORE.RESTR.CAVITY>
0

>  <SCORE.RESTR.norm>
0

>  <SCORE.SYSTEM>
0

>  <SCORE.SYSTEM.CONST>
0

>  <SCORE.SYSTEM.DIHEDRAL>
0

>  <SCORE.SYSTEM.SOLV>
0

>  <SCORE.SYSTEM.norm>
0

>  <SCORE.heavy>
16

>  <SCORE.norm>
-1.38531

>  <RMSD>
1.684

$$$$
ligand
 OpenBabel02271912153D
libRbt.so/2013.1/901 2013/11/27
 16 17  0  0  0  0  0  0  0  0999 V2000
    6.4720    7.4268   83.8857 N   0  0  0  0  0  0  0  0  0  0  0  0
    6.8575    6.2390   84.5695 C   0  0  2  0  0  0  0  0  0  0  0  0
    8.3456    6.0289   84.5343 C   0  0  0  0  0  0  0  0  0  0  0  0
    8.9173    5.8664   83.4288 O   0  0  0  0  0  0  0  0  0  0  0  0
    7.2039    0.3232   81.1322 O   0  0  0  0  0  0  0  0  0  0  0  0
    6.1745    5.0319   83.9725 C   0  0  0  0  0  0  0  0  0  0  0  0
    6.4574    3.7550   84.7277 C   0  0  0  0  0  0  0  0  0  0  0  0
    6.4718    3.6264   86.0585 C   0  0  0  0  0  0  0  0  0  0  0  0
    6.7136    2.5284   84.0330 C   0  0  0  0  0  0  0  0  0  0  0  0
    6.8989    1.5745   85.0707 C   0  0  0  0  0  0  0  0  0  0  0  0
    6.7976    2.1350   82.7257 C   0  0  0  0  0  0  0  0  0  0  0  0
    6.7374    2.3193   86.2591 N   0  0  0  0  0  0  0  0  0  0  0  0
    7.1672    0.2802   84.8390 C   0  0  0  0  0  0  0  0  0  0  0  0
    7.0949    0.7637   82.4577 C   0  0  0  0  0  0  0  0  0  0  0  0
    7.2891   -0.1825   83.5254 C   0  0  0  0  0  0  0  0  0  0  0  0
    8.9973    6.0012   85.5994 O   0  0  0  0  0  0  0  0  0  0  0  0
  2  1  1  6  0  0  0
  2  3  1  0  0  0  0
  2  6  1  0  0  0  0
  3  4  1  0  0  0  0
  3 16  1  0  0  0  0
  5 14  1  0  0  0  0
  6  7  1  0  0  0  0
  7  8  2  0  0  0  0
  7  9  1  0  0  0  0
  8 12  1  0  0  0  0
  9 10  2  0  0  0  0
  9 11  1  0  0  0  0
 10 13  1  0  0  0  0
 10 12  1  0  0  0  0
 11 14  2  0  0  0  0
 13 15  2  0  0  0  0
 14 15  1  0  0  0  0
M  END
>  <CHROM.1>
-62.42314313,-175.32389355,42.67421463,7.20942370,3.45574627,84.14833509
-0.97115613,-1.38919556,-2.31591794

>  <Name>
ligand

>  <RI>
0

>  <Rbt.Current_Directory>
/home/itssahil/PROJECTS/Mol_Feturizer/Test_systems_manuscript/rnas/5kpy

>  <Rbt.Executable>
rbdock ($Id: //depot/dev/client3/rdock/2013.1/src/exe/rbdock.cxx#4 $)

>  <Rbt.Library>
libRbt.so (2013.1, Build901 2013/11/27)

>  <Rbt.Parameter_File>
/export/apps/rDock/src/rDock_2013.1_src/data/scripts/dock_solv.prm

>  <Rbt.Receptor>
prm/pocket_docking_4.prm

>  <SCORE>
-22.1278

>  <SCORE.INTER>
-21.2974

>  <SCORE.INTER.CONST>
1

>  <SCORE.INTER.POLAR>
0

>  <SCORE.INTER.ROT>
3

>  <SCORE.INTER.SOLV>
5.39745

>  <SCORE.INTER.VDW>
-21.5974

>  <SCORE.INTER.norm>
-1.33109

>  <SCORE.INTRA>
-0.83037

>  <SCORE.INTRA.DIHEDRAL>
-0.119799

>  <SCORE.INTRA.DIHEDRAL.0>
3.89056

>  <SCORE.INTRA.POLAR>
0

>  <SCORE.INTRA.POLAR.0>
0

>  <SCORE.INTRA.REPUL>
0

>  <SCORE.INTRA.REPUL.0>
0

>  <SCORE.INTRA.SOLV>
-1.20116

>  <SCORE.INTRA.SOLV.lig_0>
-20.733

>  <SCORE.INTRA.VDW>
-0.169889

>  <SCORE.INTRA.VDW.0>
-0.828515

>  <SCORE.INTRA.norm>
-0.0518981

>  <SCORE.RESTR>
0

>  <SCORE.RESTR.CAVITY>
0

>  <SCORE.RESTR.norm>
0

>  <SCORE.SYSTEM>
0

>  <SCORE.SYSTEM.CONST>
0

>  <SCORE.SYSTEM.DIHEDRAL>
0

>  <SCORE.SYSTEM.SOLV>
0

>  <SCORE.SYSTEM.norm>
0

>  <SCORE.heavy>
16

>  <SCORE.norm>
-1.38299

>  <RMSD>
1.687

$$$$
ligand
 OpenBabel02271912153D
libRbt.so/2013.1/901 2013/11/27
 16 17  0  0  0  0  0  0  0  0999 V2000
    6.4846    7.4251   83.8928 N   0  0  0  0  0  0  0  0  0  0  0  0
    6.8624    6.2402   84.5859 C   0  0  2  0  0  0  0  0  0  0  0  0
    8.3458    6.0041   84.5266 C   0  0  0  0  0  0  0  0  0  0  0  0
    8.8939    5.8147   83.4135 O   0  0  0  0  0  0  0  0  0  0  0  0
    7.1786    0.3455   81.1502 O   0  0  0  0  0  0  0  0  0  0  0  0
    6.1481    5.0371   84.0183 C   0  0  0  0  0  0  0  0  0  0  0  0
    6.4494    3.7599   84.7658 C   0  0  0  0  0  0  0  0  0  0  0  0
    6.4806    3.6270   86.0960 C   0  0  0  0  0  0  0  0  0  0  0  0
    6.7064    2.5375   84.0640 C   0  0  0  0  0  0  0  0  0  0  0  0
    6.9111    1.5815   85.0963 C   0  0  0  0  0  0  0  0  0  0  0  0
    6.7778    2.1490   82.7545 C   0  0  0  0  0  0  0  0  0  0  0  0
    6.7582    2.3212   86.2889 N   0  0  0  0  0  0  0  0  0  0  0  0
    7.1862    0.2900   84.8570 C   0  0  0  0  0  0  0  0  0  0  0  0
    7.0821    0.7809   82.4784 C   0  0  0  0  0  0  0  0  0  0  0  0
    7.2959   -0.1674   83.5404 C   0  0  0  0  0  0  0  0  0  0  0  0
    9.0168    5.9817   85.5799 O   0  0  0  0  0  0  0  0  0  0  0  0
  2  1  1  6  0  0  0
  2  3  1  0  0  0  0
  2  6  1  0  0  0  0
  3  4  1  0  0  0  0
  3 16  1  0  0  0  0
  5 14  1  0  0  0  0
  6  7  1  0  0  0  0
  7  8  2  0  0  0  0
  7  9  1  0  0  0  0
  8 12  1  0  0  0  0
  9 10  2  0  0  0  0
  9 11  1  0  0  0  0
 10 13  1  0  0  0  0
 10 12  1  0  0  0  0
 11 14  2  0  0  0  0
 13 15  2  0  0  0  0
 14 15  1  0  0  0  0
M  END
>  <CHROM.1>
-62.52902145,-176.71232511,44.41999403,7.20793704,3.45550304,84.16534831
-0.95110308,-1.39466029,-2.29741931

>  <Name>
ligand

>  <RI>
0

>  <Rbt.Current_Directory>
/home/itssahil/PROJECTS/Mol_Feturizer/Test_systems_manuscript/rnas/5kpy

>  <Rbt.Executable>
rbdock ($Id: //depot/dev/client3/rdock/2013.1/src/exe/rbdock.cxx#4 $)

>  <Rbt.Library>
libRbt.so (2013.1, Build901 2013/11/27)

>  <Rbt.Parameter_File>
/export/apps/rDock/src/rDock_2013.1_src/data/scripts/dock_solv.prm

>  <Rbt.Receptor>
prm/pocket_docking_4.prm

>  <SCORE>
-22.1002

>  <SCORE.INTER>
-21.2399

>  <SCORE.INTER.CONST>
1

>  <SCORE.INTER.POLAR>
0

>  <SCORE.INTER.ROT>
3

>  <SCORE.INTER.SOLV>
5.40183

>  <SCORE.INTER.VDW>
-21.5605

>  <SCORE.INTER.norm>
-1.32749

>  <SCORE.INTRA>
-0.860322

>  <SCORE.INTRA.DIHEDRAL>
-0.156006

>  <SCORE.INTRA.DIHEDRAL.0>
3.89056

>  <SCORE.INTRA.POLAR>
0

>  <SCORE.INTRA.POLAR.0>
0

>  <SCORE.INTRA.REPUL>
0

>  <SCORE.INTRA.REPUL.0>
0

>  <SCORE.INTRA.SOLV>
-1.20174

>  <SCORE.INTRA.SOLV.lig_0>
-20.733

>  <SCORE.INTRA.VDW>
-0.181449

>  <SCORE.INTRA.VDW.0>
-0.828515

>  <SCORE.INTRA.norm>
-0.0537701

>  <SCORE.RESTR>
0

>  <SCORE.RESTR.CAVITY>
0

>  <SCORE.RESTR.norm>
0

>  <SCORE.SYSTEM>
0

>  <SCORE.SYSTEM.CONST>
0

>  <SCORE.SYSTEM.DIHEDRAL>
0

>  <SCORE.SYSTEM.SOLV>
0

>  <SCORE.SYSTEM.norm>
0

>  <SCORE.heavy>
16

>  <SCORE.norm>
-1.38126

>  <RMSD>
1.695

$$$$
ligand
 OpenBabel02271912153D
libRbt.so/2013.1/901 2013/11/27
 16 17  0  0  0  0  0  0  0  0999 V2000
    7.3058    6.8961   85.6542 N   0  0  0  0  0  0  0  0  0  0  0  0
    7.5887    5.7247   84.8961 C   0  0  2  0  0  0  0  0  0  0  0  0
    8.3023    6.0455   83.6125 C   0  0  0  0  0  0  0  0  0  0  0  0
    9.2098    5.2797   83.2059 O   0  0  0  0  0  0  0  0  0  0  0  0
    8.2667    2.2398   80.1032 O   0  0  0  0  0  0  0  0  0  0  0  0
    6.3186    4.9720   84.5798 C   0  0  0  0  0  0  0  0  0  0  0  0
    6.4863    3.4723   84.6390 C   0  0  0  0  0  0  0  0  0  0  0  0
    6.1899    2.6981   85.6882 C   0  0  0  0  0  0  0  0  0  0  0  0
    6.9713    2.7389   83.5078 C   0  0  0  0  0  0  0  0  0  0  0  0
    6.9583    1.3848   83.9409 C   0  0  0  0  0  0  0  0  0  0  0  0
    7.3877    3.0428   82.2409 C   0  0  0  0  0  0  0  0  0  0  0  0
    6.4750    1.4493   85.2657 N   0  0  0  0  0  0  0  0  0  0  0  0
    7.3484    0.3618   83.1649 C   0  0  0  0  0  0  0  0  0  0  0  0
    7.8191    1.9693   81.4030 C   0  0  0  0  0  0  0  0  0  0  0  0
    7.8070    0.6065   81.8670 C   0  0  0  0  0  0  0  0  0  0  0  0
    8.0009    7.0741   82.9711 O   0  0  0  0  0  0  0  0  0  0  0  0
  2  1  1  6  0  0  0
  2  3  1  0  0  0  0
  2  6  1  0  0  0  0
  3  4  1  0  0  0  0
  3 16  1  0  0  0  0
  5 14  1  0  0  0  0
  6  7  1  0  0  0  0
  7  8  2  0  0  0  0
  7  9  1  0  0  0  0
  8 12  1  0  0  0  0
  9 10  2  0  0  0  0
  9 11  1  0  0  0  0
 10 13  1  0  0  0  0
 10 12  1  0  0  0  0
 11 14  2  0  0  0  0
 13 15  2  0  0  0  0
 14 15  1  0  0  0  0
M  END
>  <CHROM.1>
141.76687196,-142.14668575,96.29558233,7.44489239,3.61220837,83.51642449
1.47614014,1.10339608,0.46041593

>  <Name>
ligand

>  <RI>
0

>  <Rbt.Current_Directory>
/home/itssahil/PROJECTS/Mol_Feturizer/Test_systems_manuscript/rnas/5kpy

>  <Rbt.Executable>
rbdock ($Id: //depot/dev/client3/rdock/2013.1/src/exe/rbdock.cxx#4 $)

>  <Rbt.Library>
libRbt.so (2013.1, Build901 2013/11/27)

>  <Rbt.Parameter_File>
/export/apps/rDock/src/rDock_2013.1_src/data/scripts/dock_solv.prm

>  <Rbt.Receptor>
prm/pocket_docking_2.prm

>  <SCORE>
-17.5266

>  <SCORE.INTER>
-18.112

>  <SCORE.INTER.CONST>
1

>  <SCORE.INTER.POLAR>
0

>  <SCORE.INTER.ROT>
3

>  <SCORE.INTER.SOLV>
4.35964

>  <SCORE.INTER.VDW>
-19.1278

>  <SCORE.INTER.norm>
-1.132

>  <SCORE.INTRA>
0.583371

>  <SCORE.INTRA.DIHEDRAL>
4.00982

>  <SCORE.INTRA.DIHEDRAL.0>
3.89056

>  <SCORE.INTRA.POLAR>
0

>  <SCORE.INTRA.POLAR.0>
0

>  <SCORE.INTRA.REPUL>
0

>  <SCORE.INTRA.REPUL.0>
0

>  <SCORE.INTRA.SOLV>
-1.11206

>  <SCORE.INTRA.SOLV.lig_0>
-20.733

>  <SCORE.INTRA.VDW>
-0.865506

>  <SCORE.INTRA.VDW.0>
-0.828515

>  <SCORE.INTRA.norm>
0.0364607

>  <SCORE.RESTR>
0.00195595

>  <SCORE.RESTR.CAVITY>
0.00195595

>  <SCORE.RESTR.norm>
0.000122247

>  <SCORE.SYSTEM>
0

>  <SCORE.SYSTEM.CONST>
0

>  <SCORE.SYSTEM.DIHEDRAL>
0

>  <SCORE.SYSTEM.SOLV>
0

>  <SCORE.SYSTEM.norm>
0

>  <SCORE.heavy>
16

>  <SCORE.norm>
-1.09541

>  <RMSD>
1.701

$$$$
ligand
 OpenBabel02271912153D
libRbt.so/2013.1/901 2013/11/27
 16 17  0  0  0  0  0  0  0  0999 V2000
    7.0996    7.3924   85.5116 N   0  0  0  0  0  0  0  0  0  0  0  0
    7.5056    6.1149   85.0319 C   0  0  2  0  0  0  0  0  0  0  0  0
    8.3287    6.2217   83.7785 C   0  0  0  0  0  0  0  0  0  0  0  0
    8.0201    7.0752   82.9115 O   0  0  0  0  0  0  0  0  0  0  0  0
    7.4850    1.7650   80.5371 O   0  0  0  0  0  0  0  0  0  0  0  0
    6.3063    5.2386   84.7613 C   0  0  0  0  0  0  0  0  0  0  0  0
    6.5606    3.7779   85.0489 C   0  0  0  0  0  0  0  0  0  0  0  0
    6.5153    3.2043   86.2558 C   0  0  0  0  0  0  0  0  0  0  0  0
    6.8537    2.8578   83.9904 C   0  0  0  0  0  0  0  0  0  0  0  0
    6.9963    1.6059   84.6489 C   0  0  0  0  0  0  0  0  0  0  0  0
    6.9986    2.9314   82.6323 C   0  0  0  0  0  0  0  0  0  0  0  0
    6.7777    1.9040   86.0113 N   0  0  0  0  0  0  0  0  0  0  0  0
    7.2808    0.4646   84.0028 C   0  0  0  0  0  0  0  0  0  0  0  0
    7.3141    1.7298   81.9272 C   0  0  0  0  0  0  0  0  0  0  0  0
    7.4641    0.4749   82.6168 C   0  0  0  0  0  0  0  0  0  0  0  0
    9.2984    5.4546   83.6014 O   0  0  0  0  0  0  0  0  0  0  0  0
  2  1  1  6  0  0  0
  2  3  1  0  0  0  0
  2  6  1  0  0  0  0
  3  4  1  0  0  0  0
  3 16  1  0  0  0  0
  5 14  1  0  0  0  0
  6  7  1  0  0  0  0
  7  8  2  0  0  0  0
  7  9  1  0  0  0  0
  8 12  1  0  0  0  0
  9 10  2  0  0  0  0
  9 11  1  0  0  0  0
 10 13  1  0  0  0  0
 10 12  1  0  0  0  0
 11 14  2  0  0  0  0
 13 15  2  0  0  0  0
 14 15  1  0  0  0  0
M  END
>  <CHROM.1>
-38.81036738,-145.94266281,81.19930277,7.33979718,3.74835050,83.91032955
1.30516406,1.23164242,0.53000860

>  <Name>
ligand

>  <RI>
0

>  <Rbt.Current_Directory>
/home/itssahil/PROJECTS/Mol_Feturizer/Test_systems_manuscript/rnas/5kpy

>  <Rbt.Executable>
rbdock ($Id: //depot/dev/client3/rdock/2013.1/src/exe/rbdock.cxx#4 $)

>  <Rbt.Library>
libRbt.so (2013.1, Build901 2013/11/27)

>  <Rbt.Parameter_File>
/export/apps/rDock/src/rDock_2013.1_src/data/scripts/dock_solv.prm

>  <Rbt.Receptor>
prm/pocket_docking_2.prm

>  <SCORE>
-16.9346

>  <SCORE.INTER>
-17.4093

>  <SCORE.INTER.CONST>
1

>  <SCORE.INTER.POLAR>
0

>  <SCORE.INTER.ROT>
3

>  <SCORE.INTER.SOLV>
4.04404

>  <SCORE.INTER.VDW>
-18.5542

>  <SCORE.INTER.norm>
-1.08808

>  <SCORE.INTRA>
0.418885

>  <SCORE.INTRA.DIHEDRAL>
3.39453

>  <SCORE.INTRA.DIHEDRAL.0>
3.89056

>  <SCORE.INTRA.POLAR>
0

>  <SCORE.INTRA.POLAR.0>
0

>  <SCORE.INTRA.REPUL>
0

>  <SCORE.INTRA.REPUL.0>
0

>  <SCORE.INTRA.SOLV>
-1.13056

>  <SCORE.INTRA.SOLV.lig_0>
-20.733

>  <SCORE.INTRA.VDW>
-0.713098

>  <SCORE.INTRA.VDW.0>
-0.828515

>  <SCORE.INTRA.norm>
0.0261803

>  <SCORE.RESTR>
0.0558731

>  <SCORE.RESTR.CAVITY>
0.0558731

>  <SCORE.RESTR.norm>
0.00349207

>  <SCORE.SYSTEM>
0

>  <SCORE.SYSTEM.CONST>
0

>  <SCORE.SYSTEM.DIHEDRAL>
0

>  <SCORE.SYSTEM.SOLV>
0

>  <SCORE.SYSTEM.norm>
0

>  <SCORE.heavy>
16

>  <SCORE.norm>
-1.05841

>  <RMSD>
1.711

$$$$
ligand
 OpenBabel02271912153D
libRbt.so/2013.1/901 2013/11/27
 16 17  0  0  0  0  0  0  0  0999 V2000
    7.3956    6.8065   85.6760 N   0  0  0  0  0  0  0  0  0  0  0  0
    7.6275    5.6633   84.8598 C   0  0  2  0  0  0  0  0  0  0  0  0
    8.3132    6.0232   83.5714 C   0  0  0  0  0  0  0  0  0  0  0  0
    9.1778    5.2465   83.0975 O   0  0  0  0  0  0  0  0  0  0  0  0
    8.1843    2.1880   80.0533 O   0  0  0  0  0  0  0  0  0  0  0  0
    6.3304    4.9563   84.5476 C   0  0  0  0  0  0  0  0  0  0  0  0
    6.4470    3.4514   84.5973 C   0  0  0  0  0  0  0  0  0  0  0  0
    6.1245    2.6811   85.6417 C   0  0  0  0  0  0  0  0  0  0  0  0
    6.9068    2.7091   83.4613 C   0  0  0  0  0  0  0  0  0  0  0  0
    6.8477    1.3536   83.8858 C   0  0  0  0  0  0  0  0  0  0  0  0
    7.3331    3.0068   82.1962 C   0  0  0  0  0  0  0  0  0  0  0  0
    6.3670    1.4261   85.2112 N   0  0  0  0  0  0  0  0  0  0  0  0
    7.2029    0.3229   83.1032 C   0  0  0  0  0  0  0  0  0  0  0  0
    7.7278    1.9246   81.3514 C   0  0  0  0  0  0  0  0  0  0  0  0
    7.6694    0.5600   81.8068 C   0  0  0  0  0  0  0  0  0  0  0  0
    8.0320    7.0938   82.9926 O   0  0  0  0  0  0  0  0  0  0  0  0
  2  1  1  6  0  0  0
  2  3  1  0  0  0  0
  2  6  1  0  0  0  0
  3  4  1  0  0  0  0
  3 16  1  0  0  0  0
  5 14  1  0  0  0  0
  6  7  1  0  0  0  0
  7  8  2  0  0  0  0
  7  9  1  0  0  0  0
  8 12  1  0  0  0  0
  9 10  2  0  0  0  0
  9 11  1  0  0  0  0
 10 13  1  0  0  0  0
 10 12  1  0  0  0  0
 11 14  2  0  0  0  0
 13 15  2  0  0  0  0
 14 15  1  0  0  0  0
M  END
>  <CHROM.1>
142.61700543,-139.57087496,96.66214373,7.40085115,3.57860226,83.47395326
1.41122714,1.09528793,0.51918434

>  <Name>
ligand

>  <RI>
0

>  <Rbt.Current_Directory>
/home/itssahil/PROJECTS/Mol_Feturizer/Test_systems_manuscript/rnas/5kpy

>  <Rbt.Executable>
rbdock ($Id: //depot/dev/client3/rdock/2013.1/src/exe/rbdock.cxx#4 $)

>  <Rbt.Library>
libRbt.so (2013.1, Build901 2013/11/27)

>  <Rbt.Parameter_File>
/export/apps/rDock/src/rDock_2013.1_src/data/scripts/dock_solv.prm

>  <Rbt.Receptor>
prm/pocket_docking_2.prm

>  <SCORE>
-17.4578

>  <SCORE.INTER>
-18.2416

>  <SCORE.INTER.CONST>
1

>  <SCORE.INTER.POLAR>
0

>  <SCORE.INTER.ROT>
3

>  <SCORE.INTER.SOLV>
4.59964

>  <SCORE.INTER.VDW>
-19.2943

>  <SCORE.INTER.norm>
-1.1401

>  <SCORE.INTRA>
0.78337

>  <SCORE.INTRA.DIHEDRAL>
4.3592

>  <SCORE.INTRA.DIHEDRAL.0>
3.89056

>  <SCORE.INTRA.POLAR>
0

>  <SCORE.INTRA.POLAR.0>
0

>  <SCORE.INTRA.REPUL>
0

>  <SCORE.INTRA.REPUL.0>
0

>  <SCORE.INTRA.SOLV>
-1.10265

>  <SCORE.INTRA.SOLV.lig_0>
-20.733

>  <SCORE.INTRA.VDW>
-0.844904

>  <SCORE.INTRA.VDW.0>
-0.828515

>  <SCORE.INTRA.norm>
0.0489606

>  <SCORE.RESTR>
0.000375228

>  <SCORE.RESTR.CAVITY>
0.000375228

>  <SCORE.RESTR.norm>
2.34518e-05

>  <SCORE.SYSTEM>
0

>  <SCORE.SYSTEM.CONST>
0

>  <SCORE.SYSTEM.DIHEDRAL>
0

>  <SCORE.SYSTEM.SOLV>
0

>  <SCORE.SYSTEM.norm>
0

>  <SCORE.heavy>
16

>  <SCORE.norm>
-1.09111

>  <RMSD>
1.712

$$$$
ligand
 OpenBabel02271912153D
libRbt.so/2013.1/901 2013/11/27
 16 17  0  0  0  0  0  0  0  0999 V2000
    7.3701    6.8593   85.6416 N   0  0  0  0  0  0  0  0  0  0  0  0
    7.6710    5.6927   84.8831 C   0  0  2  0  0  0  0  0  0  0  0  0
    8.3474    6.0274   83.5831 C   0  0  0  0  0  0  0  0  0  0  0  0
    8.0334    7.0829   82.9809 O   0  0  0  0  0  0  0  0  0  0  0  0
    8.1817    2.1648   80.0483 O   0  0  0  0  0  0  0  0  0  0  0  0
    6.4171    4.9015   84.5976 C   0  0  0  0  0  0  0  0  0  0  0  0
    6.6289    3.4077   84.6642 C   0  0  0  0  0  0  0  0  0  0  0  0
    6.4139    2.6396   85.7374 C   0  0  0  0  0  0  0  0  0  0  0  0
    7.0688    2.6730   83.5154 C   0  0  0  0  0  0  0  0  0  0  0  0
    7.1175    1.3248   83.9640 C   0  0  0  0  0  0  0  0  0  0  0  0
    7.4039    2.9716   82.2234 C   0  0  0  0  0  0  0  0  0  0  0  0
    6.7087    1.3935   85.3135 N   0  0  0  0  0  0  0  0  0  0  0  0
    7.4908    0.3027   83.1786 C   0  0  0  0  0  0  0  0  0  0  0  0
    7.8163    1.8993   81.3745 C   0  0  0  0  0  0  0  0  0  0  0  0
    7.8680    0.5427   81.8539 C   0  0  0  0  0  0  0  0  0  0  0  0
    9.2004    5.2502   83.1051 O   0  0  0  0  0  0  0  0  0  0  0  0
  2  1  1  6  0  0  0
  2  3  1  0  0  0  0
  2  6  1  0  0  0  0
  3  4  1  0  0  0  0
  3 16  1  0  0  0  0
  5 14  1  0  0  0  0
  6  7  1  0  0  0  0
  7  8  2  0  0  0  0
  7  9  1  0  0  0  0
  8 12  1  0  0  0  0
  9 10  2  0  0  0  0
  9 11  1  0  0  0  0
 10 13  1  0  0  0  0
 10 12  1  0  0  0  0
 11 14  2  0  0  0  0
 13 15  2  0  0  0  0
 14 15  1  0  0  0  0
M  END
>  <CHROM.1>
-34.17749608,-141.97664752,94.14341294,7.52195199,3.56193206,83.50980110
1.47413500,1.15957729,0.46270575

>  <Name>
ligand

>  <RI>
0

>  <Rbt.Current_Directory>
/home/itssahil/PROJECTS/Mol_Feturizer/Test_systems_manuscript/rnas/5kpy

>  <Rbt.Executable>
rbdock ($Id: //depot/dev/client3/rdock/2013.1/src/exe/rbdock.cxx#4 $)

>  <Rbt.Library>
libRbt.so (2013.1, Build901 2013/11/27)

>  <Rbt.Parameter_File>
/export/apps/rDock/src/rDock_2013.1_src/data/scripts/dock_solv.prm

>  <Rbt.Receptor>
prm/pocket_docking_2.prm

>  <SCORE>
-17.5373

>  <SCORE.INTER>
-18.136

>  <SCORE.INTER.CONST>
1

>  <SCORE.INTER.POLAR>
0

>  <SCORE.INTER.ROT>
3

>  <SCORE.INTER.SOLV>
4.60401

>  <SCORE.INTER.VDW>
-19.2253

>  <SCORE.INTER.norm>
-1.1335

>  <SCORE.INTRA>
0.598502

>  <SCORE.INTRA.DIHEDRAL>
3.97491

>  <SCORE.INTRA.DIHEDRAL.0>
3.89056

>  <SCORE.INTRA.POLAR>
0

>  <SCORE.INTRA.POLAR.0>
0

>  <SCORE.INTRA.REPUL>
0

>  <SCORE.INTRA.REPUL.0>
0

>  <SCORE.INTRA.SOLV>
-1.10986

>  <SCORE.INTRA.SOLV.lig_0>
-20.733

>  <SCORE.INTRA.VDW>
-0.834022

>  <SCORE.INTRA.VDW.0>
-0.828515

>  <SCORE.INTRA.norm>
0.0374064

>  <SCORE.RESTR>
0.000147284

>  <SCORE.RESTR.CAVITY>
0.000147284

>  <SCORE.RESTR.norm>
9.20525e-06

>  <SCORE.SYSTEM>
0

>  <SCORE.SYSTEM.CONST>
0

>  <SCORE.SYSTEM.DIHEDRAL>
0

>  <SCORE.SYSTEM.SOLV>
0

>  <SCORE.SYSTEM.norm>
0

>  <SCORE.heavy>
16

>  <SCORE.norm>
-1.09608

>  <RMSD>
1.727

$$$$
ligand
 OpenBabel02271912153D
libRbt.so/2013.1/901 2013/11/27
 16 17  0  0  0  0  0  0  0  0999 V2000
    7.4656    6.7947   85.6689 N   0  0  0  0  0  0  0  0  0  0  0  0
    7.6543    5.6491   84.8448 C   0  0  2  0  0  0  0  0  0  0  0  0
    8.3300    5.9960   83.5476 C   0  0  0  0  0  0  0  0  0  0  0  0
    9.1383    5.1817   83.0388 O   0  0  0  0  0  0  0  0  0  0  0  0
    8.2281    2.2439   80.0515 O   0  0  0  0  0  0  0  0  0  0  0  0
    6.3340    4.9787   84.5496 C   0  0  0  0  0  0  0  0  0  0  0  0
    6.4143    3.4708   84.5756 C   0  0  0  0  0  0  0  0  0  0  0  0
    6.0494    2.6908   85.5986 C   0  0  0  0  0  0  0  0  0  0  0  0
    6.8833    2.7373   83.4377 C   0  0  0  0  0  0  0  0  0  0  0  0
    6.7827    1.3765   83.8369 C   0  0  0  0  0  0  0  0  0  0  0  0
    7.3461    3.0461   82.1882 C   0  0  0  0  0  0  0  0  0  0  0  0
    6.2727    1.4379   85.1519 N   0  0  0  0  0  0  0  0  0  0  0  0
    7.1320    0.3511   83.0448 C   0  0  0  0  0  0  0  0  0  0  0  0
    7.7352    1.9694   81.3340 C   0  0  0  0  0  0  0  0  0  0  0  0
    7.6344    0.5990   81.7639 C   0  0  0  0  0  0  0  0  0  0  0  0
    8.0968    7.0921   82.9959 O   0  0  0  0  0  0  0  0  0  0  0  0
  2  1  1  1  0  0  0
  2  3  1  0  0  0  0
  2  6  1  0  0  0  0
  3  4  1  0  0  0  0
  3 16  1  0  0  0  0
  5 14  1  0  0  0  0
  6  7  1  0  0  0  0
  7  8  2  0  0  0  0
  7  9  1  0  0  0  0
  8 12  1  0  0  0  0
  9 10  2  0  0  0  0
  9 11  1  0  0  0  0
 10 13  1  0  0  0  0
 10 12  1  0  0  0  0
 11 14  2  0  0  0  0
 13 15  2  0  0  0  0
 14 15  1  0  0  0  0
M  END
>  <CHROM.1>
144.57645416,-140.25274128,99.17970445,7.39129880,3.59001570,83.44804845
1.39180042,1.07294455,0.53892353

>  <Name>
ligand

>  <RI>
0

>  <Rbt.Current_Directory>
/home/itssahil/PROJECTS/Mol_Feturizer/Test_systems_manuscript/rnas/5kpy

>  <Rbt.Executable>
rbdock ($Id: //depot/dev/client3/rdock/2013.1/src/exe/rbdock.cxx#4 $)

>  <Rbt.Library>
libRbt.so (2013.1, Build901 2013/11/27)

>  <Rbt.Parameter_File>
/export/apps/rDock/src/rDock_2013.1_src/data/scripts/dock_solv.prm

>  <Rbt.Receptor>
prm/pocket_docking_2.prm

>  <SCORE>
-17.4906

>  <SCORE.INTER>
-18.2571

>  <SCORE.INTER.CONST>
1

>  <SCORE.INTER.POLAR>
0

>  <SCORE.INTER.ROT>
3

>  <SCORE.INTER.SOLV>
4.74032

>  <SCORE.INTER.VDW>
-19.3515

>  <SCORE.INTER.norm>
-1.14107

>  <SCORE.INTRA>
0.766409

>  <SCORE.INTRA.DIHEDRAL>
4.26605

>  <SCORE.INTRA.DIHEDRAL.0>
3.89056

>  <SCORE.INTRA.POLAR>
0

>  <SCORE.INTRA.POLAR.0>
0

>  <SCORE.INTRA.REPUL>
0

>  <SCORE.INTRA.REPUL.0>
0

>  <SCORE.INTRA.SOLV>
-1.10324

>  <SCORE.INTRA.SOLV.lig_0>
-20.733

>  <SCORE.INTRA.VDW>
-0.814992

>  <SCORE.INTRA.VDW.0>
-0.828515

>  <SCORE.INTRA.norm>
0.0479005

>  <SCORE.RESTR>
0

>  <SCORE.RESTR.CAVITY>
0

>  <SCORE.RESTR.norm>
0

>  <SCORE.SYSTEM>
0

>  <SCORE.SYSTEM.CONST>
0

>  <SCORE.SYSTEM.DIHEDRAL>
0

>  <SCORE.SYSTEM.SOLV>
0

>  <SCORE.SYSTEM.norm>
0

>  <SCORE.heavy>
16

>  <SCORE.norm>
-1.09317

>  <RMSD>
1.728

$$$$
ligand
 OpenBabel02271912153D
libRbt.so/2013.1/901 2013/11/27
 16 17  0  0  0  0  0  0  0  0999 V2000
    7.7979    6.3880   86.2749 N   0  0  0  0  0  0  0  0  0  0  0  0
    8.1305    6.0437   84.9341 C   0  0  2  0  0  0  0  0  0  0  0  0
    8.4773    7.2544   84.1132 C   0  0  0  0  0  0  0  0  0  0  0  0
    8.3387    8.3968   84.6143 O   0  0  0  0  0  0  0  0  0  0  0  0
    7.3665    0.9145   80.8291 O   0  0  0  0  0  0  0  0  0  0  0  0
    6.9903    5.3085   84.2716 C   0  0  0  0  0  0  0  0  0  0  0  0
    6.7837    3.9159   84.8183 C   0  0  0  0  0  0  0  0  0  0  0  0
    6.4927    3.6151   86.0883 C   0  0  0  0  0  0  0  0  0  0  0  0
    6.8611    2.7687   83.9635 C   0  0  0  0  0  0  0  0  0  0  0  0
    6.5853    1.6736   84.8271 C   0  0  0  0  0  0  0  0  0  0  0  0
    7.1096    2.5424   82.6377 C   0  0  0  0  0  0  0  0  0  0  0  0
    6.3758    2.2713   86.0887 N   0  0  0  0  0  0  0  0  0  0  0  0
    6.5625    0.3979   84.4111 C   0  0  0  0  0  0  0  0  0  0  0  0
    7.1025    1.1902   82.1771 C   0  0  0  0  0  0  0  0  0  0  0  0
    6.8308    0.0960   83.0726 C   0  0  0  0  0  0  0  0  0  0  0  0
    8.8830    7.1176   82.9399 O   0  0  0  0  0  0  0  0  0  0  0  0
  2  1  1  1  0  0  0
  2  3  1  0  0  0  0
  2  6  1  0  0  0  0
  3  4  1  0  0  0  0
  3 16  1  0  0  0  0
  5 14  1  0  0  0  0
  6  7  1  0  0  0  0
  7  8  2  0  0  0  0
  7  9  1  0  0  0  0
  8 12  1  0  0  0  0
  9 10  2  0  0  0  0
  9 11  1  0  0  0  0
 10 13  1  0  0  0  0
 10 12  1  0  0  0  0
 11 14  2  0  0  0  0
 13 15  2  0  0  0  0
 14 15  1  0  0  0  0
M  END
>  <CHROM.1>
-5.85864771,-70.32177349,60.22995756,7.34139383,3.87863255,84.09722994,0.96875160
1.18702042,0.80199604

>  <Name>
ligand

>  <RI>
0

>  <Rbt.Current_Directory>
/home/itssahil/PROJECTS/Mol_Feturizer/Test_systems_manuscript/rnas/5kpy

>  <Rbt.Executable>
rbdock ($Id: //depot/dev/client3/rdock/2013.1/src/exe/rbdock.cxx#4 $)

>  <Rbt.Library>
libRbt.so (2013.1, Build901 2013/11/27)

>  <Rbt.Parameter_File>
/export/apps/rDock/src/rDock_2013.1_src/data/scripts/dock_solv.prm

>  <Rbt.Receptor>
prm/pocket_docking_3.prm

>  <SCORE>
-19.7666

>  <SCORE.INTER>
-20.0271

>  <SCORE.INTER.CONST>
1

>  <SCORE.INTER.POLAR>
0

>  <SCORE.INTER.ROT>
3

>  <SCORE.INTER.SOLV>
6.04909

>  <SCORE.INTER.VDW>
-20.9678

>  <SCORE.INTER.norm>
-1.25169

>  <SCORE.INTRA>
0.260466

>  <SCORE.INTRA.DIHEDRAL>
0.286081

>  <SCORE.INTRA.DIHEDRAL.0>
3.89056

>  <SCORE.INTRA.POLAR>
0

>  <SCORE.INTRA.POLAR.0>
0

>  <SCORE.INTRA.REPUL>
0

>  <SCORE.INTRA.REPUL.0>
0

>  <SCORE.INTRA.SOLV>
-0.184229

>  <SCORE.INTRA.SOLV.lig_0>
-20.733

>  <SCORE.INTRA.VDW>
0.20954

>  <SCORE.INTRA.VDW.0>
-0.828515

>  <SCORE.INTRA.norm>
0.0162791

>  <SCORE.RESTR>
0

>  <SCORE.RESTR.CAVITY>
0

>  <SCORE.RESTR.norm>
0

>  <SCORE.SYSTEM>
0

>  <SCORE.SYSTEM.CONST>
0

>  <SCORE.SYSTEM.DIHEDRAL>
0

>  <SCORE.SYSTEM.SOLV>
0

>  <SCORE.SYSTEM.norm>
0

>  <SCORE.heavy>
16

>  <SCORE.norm>
-1.23541

>  <RMSD>
1.765

$$$$
ligand
 OpenBabel02271912153D
libRbt.so/2013.1/901 2013/11/27
 16 17  0  0  0  0  0  0  0  0999 V2000
    7.0638    7.4020   85.3888 N   0  0  0  0  0  0  0  0  0  0  0  0
    7.4891    6.1154   84.9522 C   0  0  2  0  0  0  0  0  0  0  0  0
    8.3072    6.1918   83.6934 C   0  0  0  0  0  0  0  0  0  0  0  0
    9.3042    5.4408   83.5620 O   0  0  0  0  0  0  0  0  0  0  0  0
    7.2914    1.4275   80.7150 O   0  0  0  0  0  0  0  0  0  0  0  0
    6.3032    5.2112   84.7158 C   0  0  0  0  0  0  0  0  0  0  0  0
    6.5655    3.7744   85.0999 C   0  0  0  0  0  0  0  0  0  0  0  0
    6.5701    3.2919   86.3470 C   0  0  0  0  0  0  0  0  0  0  0  0
    6.8107    2.7767   84.1012 C   0  0  0  0  0  0  0  0  0  0  0  0
    6.9778    1.5761   84.8442 C   0  0  0  0  0  0  0  0  0  0  0  0
    6.8978    2.7487   82.7365 C   0  0  0  0  0  0  0  0  0  0  0  0
    6.8183    1.9756   86.1888 N   0  0  0  0  0  0  0  0  0  0  0  0
    7.2314    0.3885   84.2732 C   0  0  0  0  0  0  0  0  0  0  0  0
    7.1798    1.4963   82.1098 C   0  0  0  0  0  0  0  0  0  0  0  0
    7.3556    0.2950   82.8837 C   0  0  0  0  0  0  0  0  0  0  0  0
    8.0015    7.0082   82.7990 O   0  0  0  0  0  0  0  0  0  0  0  0
  2  1  1  6  0  0  0
  2  3  1  0  0  0  0
  2  6  1  0  0  0  0
  3  4  1  0  0  0  0
  3 16  1  0  0  0  0
  5 14  1  0  0  0  0
  6  7  1  0  0  0  0
  7  8  2  0  0  0  0
  7  9  1  0  0  0  0
  8 12  1  0  0  0  0
  9 10  2  0  0  0  0
  9 11  1  0  0  0  0
 10 13  1  0  0  0  0
 10 12  1  0  0  0  0
 11 14  2  0  0  0  0
 13 15  2  0  0  0  0
 14 15  1  0  0  0  0
M  END
>  <CHROM.1>
140.85740685,-143.85759959,77.54802998,7.29956925,3.67879666,83.97553248
1.22613210,1.25685949,0.54800624

>  <Name>
ligand

>  <RI>
0

>  <Rbt.Current_Directory>
/home/itssahil/PROJECTS/Mol_Feturizer/Test_systems_manuscript/rnas/5kpy

>  <Rbt.Executable>
rbdock ($Id: //depot/dev/client3/rdock/2013.1/src/exe/rbdock.cxx#4 $)

>  <Rbt.Library>
libRbt.so (2013.1, Build901 2013/11/27)

>  <Rbt.Parameter_File>
/export/apps/rDock/src/rDock_2013.1_src/data/scripts/dock_solv.prm

>  <Rbt.Receptor>
prm/pocket_docking_2.prm

>  <SCORE>
-17.3384

>  <SCORE.INTER>
-18.1024

>  <SCORE.INTER.CONST>
1

>  <SCORE.INTER.POLAR>
0

>  <SCORE.INTER.ROT>
3

>  <SCORE.INTER.SOLV>
4.27645

>  <SCORE.INTER.VDW>
-19.0938

>  <SCORE.INTER.norm>
-1.1314

>  <SCORE.INTRA>
0.65667

>  <SCORE.INTRA.DIHEDRAL>
3.74945

>  <SCORE.INTRA.DIHEDRAL.0>
3.89056

>  <SCORE.INTRA.POLAR>
0

>  <SCORE.INTRA.POLAR.0>
0

>  <SCORE.INTRA.REPUL>
0

>  <SCORE.INTRA.REPUL.0>
0

>  <SCORE.INTRA.SOLV>
-1.12566

>  <SCORE.INTRA.SOLV.lig_0>
-20.733

>  <SCORE.INTRA.VDW>
-0.655227

>  <SCORE.INTRA.VDW.0>
-0.828515

>  <SCORE.INTRA.norm>
0.0410419

>  <SCORE.RESTR>
0.107322

>  <SCORE.RESTR.CAVITY>
0.107322

>  <SCORE.RESTR.norm>
0.00670763

>  <SCORE.SYSTEM>
0

>  <SCORE.SYSTEM.CONST>
0

>  <SCORE.SYSTEM.DIHEDRAL>
0

>  <SCORE.SYSTEM.SOLV>
0

>  <SCORE.SYSTEM.norm>
0

>  <SCORE.heavy>
16

>  <SCORE.norm>
-1.08365

>  <RMSD>
1.777

$$$$
ligand
 OpenBabel02271912153D
libRbt.so/2013.1/901 2013/11/27
 16 17  0  0  0  0  0  0  0  0999 V2000
    7.7697    6.3984   86.2231 N   0  0  0  0  0  0  0  0  0  0  0  0
    8.1028    6.0328   84.8881 C   0  0  2  0  0  0  0  0  0  0  0  0
    8.4376    7.2314   84.0448 C   0  0  0  0  0  0  0  0  0  0  0  0
    8.1325    8.3770   84.4566 O   0  0  0  0  0  0  0  0  0  0  0  0
    7.4059    0.7779   80.9434 O   0  0  0  0  0  0  0  0  0  0  0  0
    6.9677    5.2758   84.2412 C   0  0  0  0  0  0  0  0  0  0  0  0
    6.7598    3.9002   84.8287 C   0  0  0  0  0  0  0  0  0  0  0  0
    6.4538    3.6380   86.1037 C   0  0  0  0  0  0  0  0  0  0  0  0
    6.8528    2.7271   84.0114 C   0  0  0  0  0  0  0  0  0  0  0  0
    6.5704    1.6584   84.9054 C   0  0  0  0  0  0  0  0  0  0  0  0
    7.1192    2.4605   82.6966 C   0  0  0  0  0  0  0  0  0  0  0  0
    6.3424    2.2944   86.1449 N   0  0  0  0  0  0  0  0  0  0  0  0
    6.5581    0.3702   84.5293 C   0  0  0  0  0  0  0  0  0  0  0  0
    7.1235    1.0945   82.2786 C   0  0  0  0  0  0  0  0  0  0  0  0
    6.8448    0.0278   83.2045 C   0  0  0  0  0  0  0  0  0  0  0  0
    8.9989    7.0796   82.9394 O   0  0  0  0  0  0  0  0  0  0  0  0
  2  1  1  1  0  0  0
  2  3  1  0  0  0  0
  2  6  1  0  0  0  0
  3  4  1  0  0  0  0
  3 16  1  0  0  0  0
  5 14  1  0  0  0  0
  6  7  1  0  0  0  0
  7  8  2  0  0  0  0
  7  9  1  0  0  0  0
  8 12  1  0  0  0  0
  9 10  2  0  0  0  0
  9 11  1  0  0  0  0
 10 13  1  0  0  0  0
 10 12  1  0  0  0  0
 11 14  2  0  0  0  0
 13 15  2  0  0  0  0
 14 15  1  0  0  0  0
M  END
>  <CHROM.1>
-14.87079721,-69.38834687,60.64182894,7.32537984,3.84359054,84.11744747,1.01173852
1.17803360,0.72821871

>  <Name>
ligand

>  <RI>
0

>  <Rbt.Current_Directory>
/home/itssahil/PROJECTS/Mol_Feturizer/Test_systems_manuscript/rnas/5kpy

>  <Rbt.Executable>
rbdock ($Id: //depot/dev/client3/rdock/2013.1/src/exe/rbdock.cxx#4 $)

>  <Rbt.Library>
libRbt.so (2013.1, Build901 2013/11/27)

>  <Rbt.Parameter_File>
/export/apps/rDock/src/rDock_2013.1_src/data/scripts/dock_solv.prm

>  <Rbt.Receptor>
prm/pocket_docking_3.prm

>  <SCORE>
-19.8132

>  <SCORE.INTER>
-19.919

>  <SCORE.INTER.CONST>
1

>  <SCORE.INTER.POLAR>
0

>  <SCORE.INTER.ROT>
3

>  <SCORE.INTER.SOLV>
5.9351

>  <SCORE.INTER.VDW>
-20.8577

>  <SCORE.INTER.norm>
-1.24494

>  <SCORE.INTRA>
0.105799

>  <SCORE.INTRA.DIHEDRAL>
0.203571

>  <SCORE.INTRA.DIHEDRAL.0>
3.89056

>  <SCORE.INTRA.POLAR>
0

>  <SCORE.INTRA.POLAR.0>
0

>  <SCORE.INTRA.REPUL>
0

>  <SCORE.INTRA.REPUL.0>
0

>  <SCORE.INTRA.SOLV>
-0.175422

>  <SCORE.INTRA.SOLV.lig_0>
-20.733

>  <SCORE.INTRA.VDW>
0.0917252

>  <SCORE.INTRA.VDW.0>
-0.828515

>  <SCORE.INTRA.norm>
0.00661246

>  <SCORE.RESTR>
0

>  <SCORE.RESTR.CAVITY>
0

>  <SCORE.RESTR.norm>
0

>  <SCORE.SYSTEM>
0

>  <SCORE.SYSTEM.CONST>
0

>  <SCORE.SYSTEM.DIHEDRAL>
0

>  <SCORE.SYSTEM.SOLV>
0

>  <SCORE.SYSTEM.norm>
0

>  <SCORE.heavy>
16

>  <SCORE.norm>
-1.23833

>  <RMSD>
1.785

$$$$
ligand
 OpenBabel02271912153D
libRbt.so/2013.1/901 2013/11/27
 16 17  0  0  0  0  0  0  0  0999 V2000
    7.7152    6.4286   86.1868 N   0  0  0  0  0  0  0  0  0  0  0  0
    8.0667    6.0068   84.8732 C   0  0  2  0  0  0  0  0  0  0  0  0
    8.4472    7.1657   83.9946 C   0  0  0  0  0  0  0  0  0  0  0  0
    8.1942    8.3346   84.3754 O   0  0  0  0  0  0  0  0  0  0  0  0
    7.3627    0.7612   80.9235 O   0  0  0  0  0  0  0  0  0  0  0  0
    6.9274    5.2531   84.2300 C   0  0  0  0  0  0  0  0  0  0  0  0
    6.7202    3.8764   84.8152 C   0  0  0  0  0  0  0  0  0  0  0  0
    6.4156    3.6118   86.0901 C   0  0  0  0  0  0  0  0  0  0  0  0
    6.8126    2.7048   83.9956 C   0  0  0  0  0  0  0  0  0  0  0  0
    6.5312    1.6344   84.8880 C   0  0  0  0  0  0  0  0  0  0  0  0
    7.0776    2.4406   82.6801 C   0  0  0  0  0  0  0  0  0  0  0  0
    6.3043    2.2682   86.1289 N   0  0  0  0  0  0  0  0  0  0  0  0
    6.5186    0.3469   84.5096 C   0  0  0  0  0  0  0  0  0  0  0  0
    7.0816    1.0754   82.2596 C   0  0  0  0  0  0  0  0  0  0  0  0
    6.8040    0.0069   83.1838 C   0  0  0  0  0  0  0  0  0  0  0  0
    8.9943    6.9589   82.8910 O   0  0  0  0  0  0  0  0  0  0  0  0
  2  1  1  1  0  0  0
  2  3  1  0  0  0  0
  2  6  1  0  0  0  0
  3  4  1  0  0  0  0
  3 16  1  0  0  0  0
  5 14  1  0  0  0  0
  6  7  1  0  0  0  0
  7  8  2  0  0  0  0
  7  9  1  0  0  0  0
  8 12  1  0  0  0  0
  9 10  2  0  0  0  0
  9 11  1  0  0  0  0
 10 13  1  0  0  0  0
 10 12  1  0  0  0  0
 11 14  2  0  0  0  0
 13 15  2  0  0  0  0
 14 15  1  0  0  0  0
M  END
>  <CHROM.1>
-12.91683300,-72.33292201,60.88005143,7.29768042,3.81316861,84.09037875,1.00385313
1.16906191,0.73114937

>  <Name>
ligand

>  <RI>
0

>  <Rbt.Current_Directory>
/home/itssahil/PROJECTS/Mol_Feturizer/Test_systems_manuscript/rnas/5kpy

>  <Rbt.Executable>
rbdock ($Id: //depot/dev/client3/rdock/2013.1/src/exe/rbdock.cxx#4 $)

>  <Rbt.Library>
libRbt.so (2013.1, Build901 2013/11/27)

>  <Rbt.Parameter_File>
/export/apps/rDock/src/rDock_2013.1_src/data/scripts/dock_solv.prm

>  <Rbt.Receptor>
prm/pocket_docking_3.prm

>  <SCORE>
-19.7744

>  <SCORE.INTER>
-19.9722

>  <SCORE.INTER.CONST>
1

>  <SCORE.INTER.POLAR>
0

>  <SCORE.INTER.ROT>
3

>  <SCORE.INTER.SOLV>
5.85213

>  <SCORE.INTER.VDW>
-20.8655

>  <SCORE.INTER.norm>
-1.24826

>  <SCORE.INTRA>
0.19774

>  <SCORE.INTRA.DIHEDRAL>
0.452238

>  <SCORE.INTRA.DIHEDRAL.0>
3.89056

>  <SCORE.INTRA.POLAR>
0

>  <SCORE.INTRA.POLAR.0>
0

>  <SCORE.INTRA.REPUL>
0

>  <SCORE.INTRA.REPUL.0>
0

>  <SCORE.INTRA.SOLV>
-0.215916

>  <SCORE.INTRA.SOLV.lig_0>
-20.733

>  <SCORE.INTRA.VDW>
0.0795793

>  <SCORE.INTRA.VDW.0>
-0.828515

>  <SCORE.INTRA.norm>
0.0123588

>  <SCORE.RESTR>
7.96489e-05

>  <SCORE.RESTR.CAVITY>
7.96489e-05

>  <SCORE.RESTR.norm>
4.97805e-06

>  <SCORE.SYSTEM>
0

>  <SCORE.SYSTEM.CONST>
0

>  <SCORE.SYSTEM.DIHEDRAL>
0

>  <SCORE.SYSTEM.SOLV>
0

>  <SCORE.SYSTEM.norm>
0

>  <SCORE.heavy>
16

>  <SCORE.norm>
-1.2359

>  <RMSD>
1.796

$$$$
ligand
 OpenBabel02271912153D
libRbt.so/2013.1/901 2013/11/27
 16 17  0  0  0  0  0  0  0  0999 V2000
    7.9726    6.3454   86.1249 N   0  0  0  0  0  0  0  0  0  0  0  0
    8.1770    5.9836   84.7631 C   0  0  2  0  0  0  0  0  0  0  0  0
    8.4804    7.1794   83.9041 C   0  0  0  0  0  0  0  0  0  0  0  0
    8.9801    7.0073   82.7657 O   0  0  0  0  0  0  0  0  0  0  0  0
    7.3912    0.7735   80.9135 O   0  0  0  0  0  0  0  0  0  0  0  0
    6.9646    5.2736   84.2100 C   0  0  0  0  0  0  0  0  0  0  0  0
    6.7611    3.8982   84.7997 C   0  0  0  0  0  0  0  0  0  0  0  0
    6.4617    3.6366   86.0764 C   0  0  0  0  0  0  0  0  0  0  0  0
    6.8513    2.7246   83.9827 C   0  0  0  0  0  0  0  0  0  0  0  0
    6.5744    1.6562   84.8790 C   0  0  0  0  0  0  0  0  0  0  0  0
    7.1114    2.4572   82.6668 C   0  0  0  0  0  0  0  0  0  0  0  0
    6.3519    2.2930   86.1191 N   0  0  0  0  0  0  0  0  0  0  0  0
    6.5616    0.3678   84.5040 C   0  0  0  0  0  0  0  0  0  0  0  0
    7.1151    1.0909   82.2499 C   0  0  0  0  0  0  0  0  0  0  0  0
    6.8421    0.0246   83.1780 C   0  0  0  0  0  0  0  0  0  0  0  0
    8.2499    8.3299   84.3322 O   0  0  0  0  0  0  0  0  0  0  0  0
  2  1  1  1  0  0  0
  2  3  1  0  0  0  0
  2  6  1  0  0  0  0
  3  4  1  0  0  0  0
  3 16  1  0  0  0  0
  5 14  1  0  0  0  0
  6  7  1  0  0  0  0
  7  8  2  0  0  0  0
  7  9  1  0  0  0  0
  8 12  1  0  0  0  0
  9 10  2  0  0  0  0
  9 11  1  0  0  0  0
 10 13  1  0  0  0  0
 10 12  1  0  0  0  0
 11 14  2  0  0  0  0
 13 15  2  0  0  0  0
 14 15  1  0  0  0  0
M  END
>  <CHROM.1>
163.78234920,-69.51214225,65.80618467,7.35243545,3.82328438,84.05398194,0.95878998
1.18115887,0.76268062

>  <Name>
ligand

>  <RI>
0

>  <Rbt.Current_Directory>
/home/itssahil/PROJECTS/Mol_Feturizer/Test_systems_manuscript/rnas/5kpy

>  <Rbt.Executable>
rbdock ($Id: //depot/dev/client3/rdock/2013.1/src/exe/rbdock.cxx#4 $)

>  <Rbt.Library>
libRbt.so (2013.1, Build901 2013/11/27)

>  <Rbt.Parameter_File>
/export/apps/rDock/src/rDock_2013.1_src/data/scripts/dock_solv.prm

>  <Rbt.Receptor>
prm/pocket_docking_7.prm

>  <SCORE>
-19.9437

>  <SCORE.INTER>
-19.9889

>  <SCORE.INTER.CONST>
1

>  <SCORE.INTER.POLAR>
0

>  <SCORE.INTER.ROT>
3

>  <SCORE.INTER.SOLV>
6.61306

>  <SCORE.INTER.VDW>
-21.1303

>  <SCORE.INTER.norm>
-1.24931

>  <SCORE.INTRA>
0.0451539

>  <SCORE.INTRA.DIHEDRAL>
0.282725

>  <SCORE.INTRA.DIHEDRAL.0>
3.89056

>  <SCORE.INTRA.POLAR>
0

>  <SCORE.INTRA.POLAR.0>
0

>  <SCORE.INTRA.REPUL>
0

>  <SCORE.INTRA.REPUL.0>
0

>  <SCORE.INTRA.SOLV>
-0.204077

>  <SCORE.INTRA.SOLV.lig_0>
-20.733

>  <SCORE.INTRA.VDW>
0.00583014

>  <SCORE.INTRA.VDW.0>
-0.828515

>  <SCORE.INTRA.norm>
0.00282212

>  <SCORE.RESTR>
0

>  <SCORE.RESTR.CAVITY>
0

>  <SCORE.RESTR.norm>
0

>  <SCORE.SYSTEM>
0

>  <SCORE.SYSTEM.CONST>
0

>  <SCORE.SYSTEM.DIHEDRAL>
0

>  <SCORE.SYSTEM.SOLV>
0

>  <SCORE.SYSTEM.norm>
0

>  <SCORE.heavy>
16

>  <SCORE.norm>
-1.24648

>  <RMSD>
1.812

$$$$
ligand
 OpenBabel02271912153D
libRbt.so/2013.1/901 2013/11/27
 16 17  0  0  0  0  0  0  0  0999 V2000
    7.7172    6.4560   86.2746 N   0  0  0  0  0  0  0  0  0  0  0  0
    8.0860    6.0585   84.9582 C   0  0  2  0  0  0  0  0  0  0  0  0
    8.4519    7.2359   84.0981 C   0  0  0  0  0  0  0  0  0  0  0  0
    8.3499    8.3953   84.5679 O   0  0  0  0  0  0  0  0  0  0  0  0
    7.3945    0.7810   81.0167 O   0  0  0  0  0  0  0  0  0  0  0  0
    6.9653    5.2932   84.2962 C   0  0  0  0  0  0  0  0  0  0  0  0
    6.7521    3.9206   84.8888 C   0  0  0  0  0  0  0  0  0  0  0  0
    6.4432    3.6643   86.1643 C   0  0  0  0  0  0  0  0  0  0  0  0
    6.8427    2.7440   84.0762 C   0  0  0  0  0  0  0  0  0  0  0  0
    6.5554    1.6797   84.9739 C   0  0  0  0  0  0  0  0  0  0  0  0
    7.1104    2.4714   82.7629 C   0  0  0  0  0  0  0  0  0  0  0  0
    6.3274    2.3213   86.2105 N   0  0  0  0  0  0  0  0  0  0  0  0
    6.5397    0.3901   84.6029 C   0  0  0  0  0  0  0  0  0  0  0  0
    7.1110    1.1038   82.3503 C   0  0  0  0  0  0  0  0  0  0  0  0
    6.8274    0.0415   83.2799 C   0  0  0  0  0  0  0  0  0  0  0  0
    8.8370    7.0552   82.9237 O   0  0  0  0  0  0  0  0  0  0  0  0
  2  1  1  1  0  0  0
  2  3  1  0  0  0  0
  2  6  1  0  0  0  0
  3  4  1  0  0  0  0
  3 16  1  0  0  0  0
  5 14  1  0  0  0  0
  6  7  1  0  0  0  0
  7  8  2  0  0  0  0
  7  9  1  0  0  0  0
  8 12  1  0  0  0  0
  9 10  2  0  0  0  0
  9 11  1  0  0  0  0
 10 13  1  0  0  0  0
 10 12  1  0  0  0  0
 11 14  2  0  0  0  0
 13 15  2  0  0  0  0
 14 15  1  0  0  0  0
M  END
>  <CHROM.1>
-2.93445001,-70.62747577,59.63178915,7.31815388,3.85986118,84.17979797,0.99746315
1.17817364,0.74194417

>  <Name>
ligand

>  <RI>
0

>  <Rbt.Current_Directory>
/home/itssahil/PROJECTS/Mol_Feturizer/Test_systems_manuscript/rnas/5kpy

>  <Rbt.Executable>
rbdock ($Id: //depot/dev/client3/rdock/2013.1/src/exe/rbdock.cxx#4 $)

>  <Rbt.Library>
libRbt.so (2013.1, Build901 2013/11/27)

>  <Rbt.Parameter_File>
/export/apps/rDock/src/rDock_2013.1_src/data/scripts/dock_solv.prm

>  <Rbt.Receptor>
prm/pocket_docking_3.prm

>  <SCORE>
-19.749

>  <SCORE.INTER>
-20.0702

>  <SCORE.INTER.CONST>
1

>  <SCORE.INTER.POLAR>
0

>  <SCORE.INTER.ROT>
3

>  <SCORE.INTER.SOLV>
5.68515

>  <SCORE.INTER.VDW>
-20.8752

>  <SCORE.INTER.norm>
-1.25439

>  <SCORE.INTRA>
0.321141

>  <SCORE.INTRA.DIHEDRAL>
0.312902

>  <SCORE.INTRA.DIHEDRAL.0>
3.89056

>  <SCORE.INTRA.POLAR>
0

>  <SCORE.INTRA.POLAR.0>
0

>  <SCORE.INTRA.REPUL>
0

>  <SCORE.INTRA.REPUL.0>
0

>  <SCORE.INTRA.SOLV>
-0.185638

>  <SCORE.INTRA.SOLV.lig_0>
-20.733

>  <SCORE.INTRA.VDW>
0.257509

>  <SCORE.INTRA.VDW.0>
-0.828515

>  <SCORE.INTRA.norm>
0.0200713

>  <SCORE.RESTR>
0

>  <SCORE.RESTR.CAVITY>
0

>  <SCORE.RESTR.norm>
0

>  <SCORE.SYSTEM>
0

>  <SCORE.SYSTEM.CONST>
0

>  <SCORE.SYSTEM.DIHEDRAL>
0

>  <SCORE.SYSTEM.SOLV>
0

>  <SCORE.SYSTEM.norm>
0

>  <SCORE.heavy>
16

>  <SCORE.norm>
-1.23431

>  <RMSD>
1.817

$$$$
ligand
 OpenBabel02271912153D
libRbt.so/2013.1/901 2013/11/27
 16 17  0  0  0  0  0  0  0  0999 V2000
    7.8720    6.4028   86.1529 N   0  0  0  0  0  0  0  0  0  0  0  0
    8.1557    6.0091   84.8145 C   0  0  2  0  0  0  0  0  0  0  0  0
    8.4982    7.1858   83.9439 C   0  0  0  0  0  0  0  0  0  0  0  0
    8.9002    6.9866   82.7717 O   0  0  0  0  0  0  0  0  0  0  0  0
    7.3749    0.7775   80.9076 O   0  0  0  0  0  0  0  0  0  0  0  0
    6.9820    5.2747   84.2121 C   0  0  0  0  0  0  0  0  0  0  0  0
    6.7760    3.8994   84.8009 C   0  0  0  0  0  0  0  0  0  0  0  0
    6.4818    3.6373   86.0787 C   0  0  0  0  0  0  0  0  0  0  0  0
    6.8576    2.7265   83.9820 C   0  0  0  0  0  0  0  0  0  0  0  0
    6.5809    1.6580   84.8782 C   0  0  0  0  0  0  0  0  0  0  0  0
    7.1102    2.4599   82.6645 C   0  0  0  0  0  0  0  0  0  0  0  0
    6.3669    2.2940   86.1202 N   0  0  0  0  0  0  0  0  0  0  0  0
    6.5612    0.3702   84.5015 C   0  0  0  0  0  0  0  0  0  0  0  0
    7.1065    1.0941   82.2458 C   0  0  0  0  0  0  0  0  0  0  0  0
    6.8339    0.0276   83.1737 C   0  0  0  0  0  0  0  0  0  0  0  0
    8.3969    8.3462   84.3948 O   0  0  0  0  0  0  0  0  0  0  0  0
  2  1  1  1  0  0  0
  2  3  1  0  0  0  0
  2  6  1  0  0  0  0
  3  4  1  0  0  0  0
  3 16  1  0  0  0  0
  5 14  1  0  0  0  0
  6  7  1  0  0  0  0
  7  8  2  0  0  0  0
  7  9  1  0  0  0  0
  8 12  1  0  0  0  0
  9 10  2  0  0  0  0
  9 11  1  0  0  0  0
 10 13  1  0  0  0  0
 10 12  1  0  0  0  0
 11 14  2  0  0  0  0
 13 15  2  0  0  0  0
 14 15  1  0  0  0  0
M  END
>  <CHROM.1>
173.03238384,-70.89122000,62.66883050,7.35313196,3.83010568,84.06559877,0.95493116
1.18197606,0.77594895

>  <Name>
ligand

>  <RI>
0

>  <Rbt.Current_Directory>
/home/itssahil/PROJECTS/Mol_Feturizer/Test_systems_manuscript/rnas/5kpy

>  <Rbt.Executable>
rbdock ($Id: //depot/dev/client3/rdock/2013.1/src/exe/rbdock.cxx#4 $)

>  <Rbt.Library>
libRbt.so (2013.1, Build901 2013/11/27)

>  <Rbt.Parameter_File>
/export/apps/rDock/src/rDock_2013.1_src/data/scripts/dock_solv.prm

>  <Rbt.Receptor>
prm/pocket_docking_8.prm

>  <SCORE>
-19.921

>  <SCORE.INTER>
-20.1384

>  <SCORE.INTER.CONST>
1

>  <SCORE.INTER.POLAR>
0

>  <SCORE.INTER.ROT>
3

>  <SCORE.INTER.SOLV>
6.25771

>  <SCORE.INTER.VDW>
-21.1115

>  <SCORE.INTER.norm>
-1.25865

>  <SCORE.INTRA>
0.217389

>  <SCORE.INTRA.DIHEDRAL>
0.364981

>  <SCORE.INTRA.DIHEDRAL.0>
3.89056

>  <SCORE.INTRA.POLAR>
0

>  <SCORE.INTRA.POLAR.0>
0

>  <SCORE.INTRA.REPUL>
0

>  <SCORE.INTRA.REPUL.0>
0

>  <SCORE.INTRA.SOLV>
-0.207619

>  <SCORE.INTRA.SOLV.lig_0>
-20.733

>  <SCORE.INTRA.VDW>
0.138708

>  <SCORE.INTRA.VDW.0>
-0.828515

>  <SCORE.INTRA.norm>
0.0135868

>  <SCORE.RESTR>
0

>  <SCORE.RESTR.CAVITY>
0

>  <SCORE.RESTR.norm>
0

>  <SCORE.SYSTEM>
0

>  <SCORE.SYSTEM.CONST>
0

>  <SCORE.SYSTEM.DIHEDRAL>
0

>  <SCORE.SYSTEM.SOLV>
0

>  <SCORE.SYSTEM.norm>
0

>  <SCORE.heavy>
16

>  <SCORE.norm>
-1.24506

>  <RMSD>
1.820

$$$$
ligand
 OpenBabel02271912153D
libRbt.so/2013.1/901 2013/11/27
 16 17  0  0  0  0  0  0  0  0999 V2000
    7.9755    6.3665   86.1081 N   0  0  0  0  0  0  0  0  0  0  0  0
    8.1865    5.9846   84.7529 C   0  0  2  0  0  0  0  0  0  0  0  0
    8.5001    7.1668   83.8789 C   0  0  0  0  0  0  0  0  0  0  0  0
    8.2484    8.3234   84.2962 O   0  0  0  0  0  0  0  0  0  0  0  0
    7.3575    0.7683   80.9052 O   0  0  0  0  0  0  0  0  0  0  0  0
    6.9747    5.2717   84.2025 C   0  0  0  0  0  0  0  0  0  0  0  0
    6.7737    3.8972   84.7951 C   0  0  0  0  0  0  0  0  0  0  0  0
    6.4864    3.6373   86.0749 C   0  0  0  0  0  0  0  0  0  0  0  0
    6.8529    2.7228   83.9782 C   0  0  0  0  0  0  0  0  0  0  0  0
    6.5824    1.6557   84.8780 C   0  0  0  0  0  0  0  0  0  0  0  0
    7.0993    2.4539   82.6600 C   0  0  0  0  0  0  0  0  0  0  0  0
    6.3738    2.2939   86.1198 N   0  0  0  0  0  0  0  0  0  0  0  0
    6.5628    0.3671   84.5040 C   0  0  0  0  0  0  0  0  0  0  0  0
    7.0955    1.0873   82.2441 C   0  0  0  0  0  0  0  0  0  0  0  0
    6.8292    0.0223   83.1756 C   0  0  0  0  0  0  0  0  0  0  0  0
    8.9909    6.9911   82.7438 O   0  0  0  0  0  0  0  0  0  0  0  0
  2  1  1  1  0  0  0
  2  3  1  0  0  0  0
  2  6  1  0  0  0  0
  3  4  1  0  0  0  0
  3 16  1  0  0  0  0
  5 14  1  0  0  0  0
  6  7  1  0  0  0  0
  7  8  2  0  0  0  0
  7  9  1  0  0  0  0
  8 12  1  0  0  0  0
  9 10  2  0  0  0  0
  9 11  1  0  0  0  0
 10 13  1  0  0  0  0
 10 12  1  0  0  0  0
 11 14  2  0  0  0  0
 13 15  2  0  0  0  0
 14 15  1  0  0  0  0
M  END
>  <CHROM.1>
-16.34233263,-70.37925763,65.24365539,7.35478227,3.82112546,84.04381586,0.94209794
1.18552889,0.77729859

>  <Name>
ligand

>  <RI>
0

>  <Rbt.Current_Directory>
/home/itssahil/PROJECTS/Mol_Feturizer/Test_systems_manuscript/rnas/5kpy

>  <Rbt.Executable>
rbdock ($Id: //depot/dev/client3/rdock/2013.1/src/exe/rbdock.cxx#4 $)

>  <Rbt.Library>
libRbt.so (2013.1, Build901 2013/11/27)

>  <Rbt.Parameter_File>
/export/apps/rDock/src/rDock_2013.1_src/data/scripts/dock_solv.prm

>  <Rbt.Receptor>
prm/pocket_docking_8.prm

>  <SCORE>
-19.9479

>  <SCORE.INTER>
-20.0097

>  <SCORE.INTER.CONST>
1

>  <SCORE.INTER.POLAR>
0

>  <SCORE.INTER.ROT>
3

>  <SCORE.INTER.SOLV>
6.59873

>  <SCORE.INTER.VDW>
-21.1394

>  <SCORE.INTER.norm>
-1.25061

>  <SCORE.INTRA>
0.0618234

>  <SCORE.INTRA.DIHEDRAL>
0.298326

>  <SCORE.INTRA.DIHEDRAL.0>
3.89056

>  <SCORE.INTRA.POLAR>
0

>  <SCORE.INTRA.POLAR.0>
0

>  <SCORE.INTRA.REPUL>
0

>  <SCORE.INTRA.REPUL.0>
0

>  <SCORE.INTRA.SOLV>
-0.209029

>  <SCORE.INTRA.SOLV.lig_0>
-20.733

>  <SCORE.INTRA.VDW>
0.0171748

>  <SCORE.INTRA.VDW.0>
-0.828515

>  <SCORE.INTRA.norm>
0.00386396

>  <SCORE.RESTR>
0

>  <SCORE.RESTR.CAVITY>
0

>  <SCORE.RESTR.norm>
0

>  <SCORE.SYSTEM>
0

>  <SCORE.SYSTEM.CONST>
0

>  <SCORE.SYSTEM.DIHEDRAL>
0

>  <SCORE.SYSTEM.SOLV>
0

>  <SCORE.SYSTEM.norm>
0

>  <SCORE.heavy>
16

>  <SCORE.norm>
-1.24674

>  <RMSD>
1.820

$$$$
ligand
 OpenBabel02271912153D
libRbt.so/2013.1/901 2013/11/27
 16 17  0  0  0  0  0  0  0  0999 V2000
    7.8129    6.4527   86.1681 N   0  0  0  0  0  0  0  0  0  0  0  0
    8.1236    6.0168   84.8488 C   0  0  2  0  0  0  0  0  0  0  0  0
    8.4975    7.1639   83.9521 C   0  0  0  0  0  0  0  0  0  0  0  0
    8.8807    6.9283   82.7804 O   0  0  0  0  0  0  0  0  0  0  0  0
    7.3583    0.7845   80.9293 O   0  0  0  0  0  0  0  0  0  0  0  0
    6.9569    5.2755   84.2412 C   0  0  0  0  0  0  0  0  0  0  0  0
    6.7570    3.8986   84.8285 C   0  0  0  0  0  0  0  0  0  0  0  0
    6.4666    3.6336   86.1065 C   0  0  0  0  0  0  0  0  0  0  0  0
    6.8409    2.7272   84.0077 C   0  0  0  0  0  0  0  0  0  0  0  0
    6.5700    1.6564   84.9029 C   0  0  0  0  0  0  0  0  0  0  0  0
    7.0916    2.4634   82.6892 C   0  0  0  0  0  0  0  0  0  0  0  0
    6.3565    2.2898   86.1463 N   0  0  0  0  0  0  0  0  0  0  0  0
    6.5540    0.3690   84.5244 C   0  0  0  0  0  0  0  0  0  0  0  0
    7.0918    1.0982   82.2685 C   0  0  0  0  0  0  0  0  0  0  0  0
    6.8249    0.0294   83.1955 C   0  0  0  0  0  0  0  0  0  0  0  0
    8.4404    8.3357   84.3809 O   0  0  0  0  0  0  0  0  0  0  0  0
  2  1  1  1  0  0  0
  2  3  1  0  0  0  0
  2  6  1  0  0  0  0
  3  4  1  0  0  0  0
  3 16  1  0  0  0  0
  5 14  1  0  0  0  0
  6  7  1  0  0  0  0
  7  8  2  0  0  0  0
  7  9  1  0  0  0  0
  8 12  1  0  0  0  0
  9 10  2  0  0  0  0
  9 11  1  0  0  0  0
 10 13  1  0  0  0  0
 10 12  1  0  0  0  0
 11 14  2  0  0  0  0
 13 15  2  0  0  0  0
 14 15  1  0  0  0  0
M  END
>  <CHROM.1>
175.46256102,-73.12393931,62.27101903,7.33905930,3.82789398,84.08535120,0.95739400
1.17878873,0.77203428

>  <Name>
ligand

>  <RI>
0

>  <Rbt.Current_Directory>
/home/itssahil/PROJECTS/Mol_Feturizer/Test_systems_manuscript/rnas/5kpy

>  <Rbt.Executable>
rbdock ($Id: //depot/dev/client3/rdock/2013.1/src/exe/rbdock.cxx#4 $)

>  <Rbt.Library>
libRbt.so (2013.1, Build901 2013/11/27)

>  <Rbt.Parameter_File>
/export/apps/rDock/src/rDock_2013.1_src/data/scripts/dock_solv.prm

>  <Rbt.Receptor>
prm/pocket_docking_7.prm

>  <SCORE>
-19.961

>  <SCORE.INTER>
-20.2529

>  <SCORE.INTER.CONST>
1

>  <SCORE.INTER.POLAR>
0

>  <SCORE.INTER.ROT>
3

>  <SCORE.INTER.SOLV>
6.03141

>  <SCORE.INTER.VDW>
-21.1124

>  <SCORE.INTER.norm>
-1.26581

>  <SCORE.INTRA>
0.291933

>  <SCORE.INTRA.DIHEDRAL>
0.561919

>  <SCORE.INTRA.DIHEDRAL.0>
3.89056

>  <SCORE.INTRA.POLAR>
0

>  <SCORE.INTRA.POLAR.0>
0

>  <SCORE.INTRA.REPUL>
0

>  <SCORE.INTRA.REPUL.0>
0

>  <SCORE.INTRA.SOLV>
-0.236504

>  <SCORE.INTRA.SOLV.lig_0>
-20.733

>  <SCORE.INTRA.VDW>
0.129226

>  <SCORE.INTRA.VDW.0>
-0.828515

>  <SCORE.INTRA.norm>
0.0182458

>  <SCORE.RESTR>
0

>  <SCORE.RESTR.CAVITY>
0

>  <SCORE.RESTR.norm>
0

>  <SCORE.SYSTEM>
0

>  <SCORE.SYSTEM.CONST>
0

>  <SCORE.SYSTEM.DIHEDRAL>
0

>  <SCORE.SYSTEM.SOLV>
0

>  <SCORE.SYSTEM.norm>
0

>  <SCORE.heavy>
16

>  <SCORE.norm>
-1.24756

>  <RMSD>
1.829

$$$$
ligand
 OpenBabel02271912153D
libRbt.so/2013.1/901 2013/11/27
 16 17  0  0  0  0  0  0  0  0999 V2000
    7.9922    6.3351   86.1446 N   0  0  0  0  0  0  0  0  0  0  0  0
    8.1946    5.9728   84.7827 C   0  0  2  0  0  0  0  0  0  0  0  0
    8.5046    7.1673   83.9242 C   0  0  0  0  0  0  0  0  0  0  0  0
    8.8607    6.9925   82.7335 O   0  0  0  0  0  0  0  0  0  0  0  0
    7.3240    0.7543   80.9442 O   0  0  0  0  0  0  0  0  0  0  0  0
    6.9785    5.2696   84.2292 C   0  0  0  0  0  0  0  0  0  0  0  0
    6.7623    3.8988   84.8248 C   0  0  0  0  0  0  0  0  0  0  0  0
    6.4695    3.6450   86.1046 C   0  0  0  0  0  0  0  0  0  0  0  0
    6.8317    2.7215   84.0111 C   0  0  0  0  0  0  0  0  0  0  0  0
    6.5484    1.6595   84.9128 C   0  0  0  0  0  0  0  0  0  0  0  0
    7.0785    2.4468   82.6941 C   0  0  0  0  0  0  0  0  0  0  0  0
    6.3432    2.3029   86.1525 N   0  0  0  0  0  0  0  0  0  0  0  0
    6.5167    0.3702   84.5421 C   0  0  0  0  0  0  0  0  0  0  0  0
    7.0620    1.0793   82.2816 C   0  0  0  0  0  0  0  0  0  0  0  0
    6.7828    0.0193   83.2151 C   0  0  0  0  0  0  0  0  0  0  0  0
    8.4220    8.3181   84.4028 O   0  0  0  0  0  0  0  0  0  0  0  0
  2  1  1  1  0  0  0
  2  3  1  0  0  0  0
  2  6  1  0  0  0  0
  3  4  1  0  0  0  0
  3 16  1  0  0  0  0
  5 14  1  0  0  0  0
  6  7  1  0  0  0  0
  7  8  2  0  0  0  0
  7  9  1  0  0  0  0
  8 12  1  0  0  0  0
  9 10  2  0  0  0  0
  9 11  1  0  0  0  0
 10 13  1  0  0  0  0
 10 12  1  0  0  0  0
 11 14  2  0  0  0  0
 13 15  2  0  0  0  0
 14 15  1  0  0  0  0
M  END
>  <CHROM.1>
171.74649280,-69.13719846,65.13156407,7.34253684,3.81727871,84.08056244,0.91242328
1.18453473,0.80836703

>  <Name>
ligand

>  <RI>
0

>  <Rbt.Current_Directory>
/home/itssahil/PROJECTS/Mol_Feturizer/Test_systems_manuscript/rnas/5kpy

>  <Rbt.Executable>
rbdock ($Id: //depot/dev/client3/rdock/2013.1/src/exe/rbdock.cxx#4 $)

>  <Rbt.Library>
libRbt.so (2013.1, Build901 2013/11/27)

>  <Rbt.Parameter_File>
/export/apps/rDock/src/rDock_2013.1_src/data/scripts/dock_solv.prm

>  <Rbt.Receptor>
prm/pocket_docking_6.prm

>  <SCORE>
-19.964

>  <SCORE.INTER>
-20.0994

>  <SCORE.INTER.CONST>
1

>  <SCORE.INTER.POLAR>
0

>  <SCORE.INTER.ROT>
3

>  <SCORE.INTER.SOLV>
6.73614

>  <SCORE.INTER.VDW>
-21.245

>  <SCORE.INTER.norm>
-1.25621

>  <SCORE.INTRA>
0.135347

>  <SCORE.INTRA.DIHEDRAL>
0.241765

>  <SCORE.INTRA.DIHEDRAL.0>
3.89056

>  <SCORE.INTRA.POLAR>
0

>  <SCORE.INTRA.POLAR.0>
0

>  <SCORE.INTRA.REPUL>
0

>  <SCORE.INTRA.REPUL.0>
0

>  <SCORE.INTRA.SOLV>
-0.195132

>  <SCORE.INTRA.SOLV.lig_0>
-20.733

>  <SCORE.INTRA.VDW>
0.11203

>  <SCORE.INTRA.VDW.0>
-0.828515

>  <SCORE.INTRA.norm>
0.00845917

>  <SCORE.RESTR>
0

>  <SCORE.RESTR.CAVITY>
0

>  <SCORE.RESTR.norm>
0

>  <SCORE.SYSTEM>
0

>  <SCORE.SYSTEM.CONST>
0

>  <SCORE.SYSTEM.DIHEDRAL>
0

>  <SCORE.SYSTEM.SOLV>
0

>  <SCORE.SYSTEM.norm>
0

>  <SCORE.heavy>
16

>  <SCORE.norm>
-1.24775

>  <RMSD>
1.837

$$$$
ligand
 OpenBabel02271912153D
libRbt.so/2013.1/901 2013/11/27
 16 17  0  0  0  0  0  0  0  0999 V2000
    7.9834    6.3679   86.1045 N   0  0  0  0  0  0  0  0  0  0  0  0
    8.1814    5.9757   84.7503 C   0  0  2  0  0  0  0  0  0  0  0  0
    8.4982    7.1498   83.8665 C   0  0  0  0  0  0  0  0  0  0  0  0
    8.2780    8.3120   84.2863 O   0  0  0  0  0  0  0  0  0  0  0  0
    7.3686    0.7325   80.9653 O   0  0  0  0  0  0  0  0  0  0  0  0
    6.9598    5.2694   84.2133 C   0  0  0  0  0  0  0  0  0  0  0  0
    6.7508    3.9012   84.8177 C   0  0  0  0  0  0  0  0  0  0  0  0
    6.4504    3.6545   86.0971 C   0  0  0  0  0  0  0  0  0  0  0  0
    6.8364    2.7185   84.0134 C   0  0  0  0  0  0  0  0  0  0  0  0
    6.5553    1.6609   84.9210 C   0  0  0  0  0  0  0  0  0  0  0  0
    7.0955    2.4360   82.7005 C   0  0  0  0  0  0  0  0  0  0  0  0
    6.3353    2.3119   86.1542 N   0  0  0  0  0  0  0  0  0  0  0  0
    6.5375    0.3686   84.5599 C   0  0  0  0  0  0  0  0  0  0  0  0
    7.0938    1.0653   82.2982 C   0  0  0  0  0  0  0  0  0  0  0  0
    6.8166    0.0101   83.2377 C   0  0  0  0  0  0  0  0  0  0  0  0
    8.9603    6.9623   82.7214 O   0  0  0  0  0  0  0  0  0  0  0  0
  2  1  1  1  0  0  0
  2  3  1  0  0  0  0
  2  6  1  0  0  0  0
  3  4  1  0  0  0  0
  3 16  1  0  0  0  0
  5 14  1  0  0  0  0
  6  7  1  0  0  0  0
  7  8  2  0  0  0  0
  7  9  1  0  0  0  0
  8 12  1  0  0  0  0
  9 10  2  0  0  0  0
  9 11  1  0  0  0  0
 10 13  1  0  0  0  0
 10 12  1  0  0  0  0
 11 14  2  0  0  0  0
 13 15  2  0  0  0  0
 14 15  1  0  0  0  0
M  END
>  <CHROM.1>
-15.25922000,-70.29202930,66.29049447,7.34382669,3.81337812,84.06690732,0.94620404
1.17894297,0.76150246

>  <Name>
ligand

>  <RI>
0

>  <Rbt.Current_Directory>
/home/itssahil/PROJECTS/Mol_Feturizer/Test_systems_manuscript/rnas/5kpy

>  <Rbt.Executable>
rbdock ($Id: //depot/dev/client3/rdock/2013.1/src/exe/rbdock.cxx#4 $)

>  <Rbt.Library>
libRbt.so (2013.1, Build901 2013/11/27)

>  <Rbt.Parameter_File>
/export/apps/rDock/src/rDock_2013.1_src/data/scripts/dock_solv.prm

>  <Rbt.Receptor>
prm/pocket_docking_4.prm

>  <SCORE>
-20.0024

>  <SCORE.INTER>
-20.0677

>  <SCORE.INTER.CONST>
1

>  <SCORE.INTER.POLAR>
0

>  <SCORE.INTER.ROT>
3

>  <SCORE.INTER.SOLV>
6.60164

>  <SCORE.INTER.VDW>
-21.179

>  <SCORE.INTER.norm>
-1.25423

>  <SCORE.INTRA>
0.0652754

>  <SCORE.INTRA.DIHEDRAL>
0.29713

>  <SCORE.INTRA.DIHEDRAL.0>
3.89056

>  <SCORE.INTRA.POLAR>
0

>  <SCORE.INTRA.POLAR.0>
0

>  <SCORE.INTRA.REPUL>
0

>  <SCORE.INTRA.REPUL.0>
0

>  <SCORE.INTRA.SOLV>
-0.212352

>  <SCORE.INTRA.SOLV.lig_0>
-20.733

>  <SCORE.INTRA.VDW>
0.0228862

>  <SCORE.INTRA.VDW.0>
-0.828515

>  <SCORE.INTRA.norm>
0.00407971

>  <SCORE.RESTR>
0

>  <SCORE.RESTR.CAVITY>
0

>  <SCORE.RESTR.norm>
0

>  <SCORE.SYSTEM>
0

>  <SCORE.SYSTEM.CONST>
0

>  <SCORE.SYSTEM.DIHEDRAL>
0

>  <SCORE.SYSTEM.SOLV>
0

>  <SCORE.SYSTEM.norm>
0

>  <SCORE.heavy>
16

>  <SCORE.norm>
-1.25015

>  <RMSD>
1.838

$$$$
ligand
 OpenBabel02271912153D
libRbt.so/2013.1/901 2013/11/27
 16 17  0  0  0  0  0  0  0  0999 V2000
    8.0072    6.3758   86.0960 N   0  0  0  0  0  0  0  0  0  0  0  0
    8.2037    5.9771   84.7435 C   0  0  2  0  0  0  0  0  0  0  0  0
    8.5276    7.1458   83.8552 C   0  0  0  0  0  0  0  0  0  0  0  0
    8.9039    6.9359   82.6764 O   0  0  0  0  0  0  0  0  0  0  0  0
    7.3705    0.7759   80.9074 O   0  0  0  0  0  0  0  0  0  0  0  0
    6.9783    5.2756   84.2087 C   0  0  0  0  0  0  0  0  0  0  0  0
    6.7756    3.9004   84.7992 C   0  0  0  0  0  0  0  0  0  0  0  0
    6.4847    3.6391   86.0779 C   0  0  0  0  0  0  0  0  0  0  0  0
    6.8572    2.7269   83.9812 C   0  0  0  0  0  0  0  0  0  0  0  0
    6.5841    1.6589   84.8789 C   0  0  0  0  0  0  0  0  0  0  0  0
    7.1073    2.4595   82.6633 C   0  0  0  0  0  0  0  0  0  0  0  0
    6.3719    2.2957   86.1208 N   0  0  0  0  0  0  0  0  0  0  0  0
    6.5655    0.3706   84.5035 C   0  0  0  0  0  0  0  0  0  0  0  0
    7.1047    1.0933   82.2459 C   0  0  0  0  0  0  0  0  0  0  0  0
    6.8357    0.0273   83.1754 C   0  0  0  0  0  0  0  0  0  0  0  0
    8.4366    8.3102   84.2978 O   0  0  0  0  0  0  0  0  0  0  0  0
  2  1  1  1  0  0  0
  2  3  1  0  0  0  0
  2  6  1  0  0  0  0
  3  4  1  0  0  0  0
  3 16  1  0  0  0  0
  5 14  1  0  0  0  0
  6  7  1  0  0  0  0
  7  8  2  0  0  0  0
  7  9  1  0  0  0  0
  8 12  1  0  0  0  0
  9 10  2  0  0  0  0
  9 11  1  0  0  0  0
 10 13  1  0  0  0  0
 10 12  1  0  0  0  0
 11 14  2  0  0  0  0
 13 15  2  0  0  0  0
 14 15  1  0  0  0  0
M  END
>  <CHROM.1>
170.44895920,-71.37639853,66.36452474,7.37015643,3.81770482,84.03762860,0.92382658
1.18302114,0.79232771

>  <Name>
ligand

>  <RI>
0

>  <Rbt.Current_Directory>
/home/itssahil/PROJECTS/Mol_Feturizer/Test_systems_manuscript/rnas/5kpy

>  <Rbt.Executable>
rbdock ($Id: //depot/dev/client3/rdock/2013.1/src/exe/rbdock.cxx#4 $)

>  <Rbt.Library>
libRbt.so (2013.1, Build901 2013/11/27)

>  <Rbt.Parameter_File>
/export/apps/rDock/src/rDock_2013.1_src/data/scripts/dock_solv.prm

>  <Rbt.Receptor>
prm/pocket_docking_5.prm

>  <SCORE>
-19.9701

>  <SCORE.INTER>
-20.1239

>  <SCORE.INTER.CONST>
1

>  <SCORE.INTER.POLAR>
0

>  <SCORE.INTER.ROT>
3

>  <SCORE.INTER.SOLV>
6.68587

>  <SCORE.INTER.VDW>
-21.2445

>  <SCORE.INTER.norm>
-1.25774

>  <SCORE.INTRA>
0.153784

>  <SCORE.INTRA.DIHEDRAL>
0.426466

>  <SCORE.INTRA.DIHEDRAL.0>
3.89056

>  <SCORE.INTRA.POLAR>
0

>  <SCORE.INTRA.POLAR.0>
0

>  <SCORE.INTRA.REPUL>
0

>  <SCORE.INTRA.REPUL.0>
0

>  <SCORE.INTRA.SOLV>
-0.230699

>  <SCORE.INTRA.SOLV.lig_0>
-20.733

>  <SCORE.INTRA.VDW>
0.0559009

>  <SCORE.INTRA.VDW.0>
-0.828515

>  <SCORE.INTRA.norm>
0.00961152

>  <SCORE.RESTR>
0

>  <SCORE.RESTR.CAVITY>
0

>  <SCORE.RESTR.norm>
0

>  <SCORE.SYSTEM>
0

>  <SCORE.SYSTEM.CONST>
0

>  <SCORE.SYSTEM.DIHEDRAL>
0

>  <SCORE.SYSTEM.SOLV>
0

>  <SCORE.SYSTEM.norm>
0

>  <SCORE.heavy>
16

>  <SCORE.norm>
-1.24813

>  <RMSD>
1.840

$$$$
ligand
 OpenBabel02271912153D
libRbt.so/2013.1/901 2013/11/27
 16 17  0  0  0  0  0  0  0  0999 V2000
    7.9662    6.3774   86.0569 N   0  0  0  0  0  0  0  0  0  0  0  0
    8.1914    5.9648   84.7131 C   0  0  2  0  0  0  0  0  0  0  0  0
    8.5429    7.1230   83.8217 C   0  0  0  0  0  0  0  0  0  0  0  0
    8.4214    8.2935   84.2583 O   0  0  0  0  0  0  0  0  0  0  0  0
    7.4555    0.7237   80.9256 O   0  0  0  0  0  0  0  0  0  0  0  0
    6.9743    5.2655   84.1566 C   0  0  0  0  0  0  0  0  0  0  0  0
    6.7479    3.8985   84.7573 C   0  0  0  0  0  0  0  0  0  0  0  0
    6.4153    3.6541   86.0292 C   0  0  0  0  0  0  0  0  0  0  0  0
    6.8512    2.7146   83.9569 C   0  0  0  0  0  0  0  0  0  0  0  0
    6.5457    1.6588   84.8586 C   0  0  0  0  0  0  0  0  0  0  0  0
    7.1424    2.4300   82.6512 C   0  0  0  0  0  0  0  0  0  0  0  0
    6.2963    2.3117   86.0851 N   0  0  0  0  0  0  0  0  0  0  0  0
    6.5344    0.3660   84.4987 C   0  0  0  0  0  0  0  0  0  0  0  0
    7.1481    1.0587   82.2508 C   0  0  0  0  0  0  0  0  0  0  0  0
    6.8457    0.0053   83.1844 C   0  0  0  0  0  0  0  0  0  0  0  0
    8.9357    6.9154   82.6543 O   0  0  0  0  0  0  0  0  0  0  0  0
  2  1  1  1  0  0  0
  2  3  1  0  0  0  0
  2  6  1  0  0  0  0
  3  4  1  0  0  0  0
  3 16  1  0  0  0  0
  5 14  1  0  0  0  0
  6  7  1  0  0  0  0
  7  8  2  0  0  0  0
  7  9  1  0  0  0  0
  8 12  1  0  0  0  0
  9 10  2  0  0  0  0
  9 11  1  0  0  0  0
 10 13  1  0  0  0  0
 10 12  1  0  0  0  0
 11 14  2  0  0  0  0
 13 15  2  0  0  0  0
 14 15  1  0  0  0  0
M  END
>  <CHROM.1>
-9.93131482,-71.24805888,66.85893458,7.36517675,3.80426602,84.01427126,0.97146898
1.16024922,0.73553866

>  <Name>
ligand

>  <RI>
0

>  <Rbt.Current_Directory>
/home/itssahil/PROJECTS/Mol_Feturizer/Test_systems_manuscript/rnas/5kpy

>  <Rbt.Executable>
rbdock ($Id: //depot/dev/client3/rdock/2013.1/src/exe/rbdock.cxx#4 $)

>  <Rbt.Library>
libRbt.so (2013.1, Build901 2013/11/27)

>  <Rbt.Parameter_File>
/export/apps/rDock/src/rDock_2013.1_src/data/scripts/dock_solv.prm

>  <Rbt.Receptor>
prm/pocket_docking_4.prm

>  <SCORE>
-19.8825

>  <SCORE.INTER>
-20.0439

>  <SCORE.INTER.CONST>
1

>  <SCORE.INTER.POLAR>
0

>  <SCORE.INTER.ROT>
3

>  <SCORE.INTER.SOLV>
6.58004

>  <SCORE.INTER.VDW>
-21.156

>  <SCORE.INTER.norm>
-1.25275

>  <SCORE.INTRA>
0.161447

>  <SCORE.INTRA.DIHEDRAL>
0.385736

>  <SCORE.INTRA.DIHEDRAL.0>
3.89056

>  <SCORE.INTRA.POLAR>
0

>  <SCORE.INTRA.POLAR.0>
0

>  <SCORE.INTRA.REPUL>
0

>  <SCORE.INTRA.REPUL.0>
0

>  <SCORE.INTRA.SOLV>
-0.226296

>  <SCORE.INTRA.SOLV.lig_0>
-20.733

>  <SCORE.INTRA.VDW>
0.0817271

>  <SCORE.INTRA.VDW.0>
-0.828515

>  <SCORE.INTRA.norm>
0.0100905

>  <SCORE.RESTR>
0

>  <SCORE.RESTR.CAVITY>
0

>  <SCORE.RESTR.norm>
0

>  <SCORE.SYSTEM>
0

>  <SCORE.SYSTEM.CONST>
0

>  <SCORE.SYSTEM.DIHEDRAL>
0

>  <SCORE.SYSTEM.SOLV>
0

>  <SCORE.SYSTEM.norm>
0

>  <SCORE.heavy>
16

>  <SCORE.norm>
-1.24266

>  <RMSD>
1.842

$$$$
ligand
 OpenBabel02271912153D
libRbt.so/2013.1/901 2013/11/27
 16 17  0  0  0  0  0  0  0  0999 V2000
    8.0293    6.3741   86.1228 N   0  0  0  0  0  0  0  0  0  0  0  0
    8.2100    5.9787   84.7671 C   0  0  2  0  0  0  0  0  0  0  0  0
    8.5298    7.1487   83.8790 C   0  0  0  0  0  0  0  0  0  0  0  0
    8.4259    8.3131   84.3356 O   0  0  0  0  0  0  0  0  0  0  0  0
    7.3465    0.7889   80.9329 O   0  0  0  0  0  0  0  0  0  0  0  0
    6.9761    5.2840   84.2429 C   0  0  0  0  0  0  0  0  0  0  0  0
    6.7732    3.9083   84.8320 C   0  0  0  0  0  0  0  0  0  0  0  0
    6.4869    3.6455   86.1114 C   0  0  0  0  0  0  0  0  0  0  0  0
    6.8492    2.7360   84.0118 C   0  0  0  0  0  0  0  0  0  0  0  0
    6.5777    1.6670   84.9090 C   0  0  0  0  0  0  0  0  0  0  0  0
    7.0935    2.4702   82.6926 C   0  0  0  0  0  0  0  0  0  0  0  0
    6.3717    2.3022   86.1527 N   0  0  0  0  0  0  0  0  0  0  0  0
    6.5551    0.3794   84.5315 C   0  0  0  0  0  0  0  0  0  0  0  0
    7.0866    1.1047   82.2729 C   0  0  0  0  0  0  0  0  0  0  0  0
    6.8194    0.0377   83.2019 C   0  0  0  0  0  0  0  0  0  0  0  0
    8.8789    6.9566   82.6952 O   0  0  0  0  0  0  0  0  0  0  0  0
  2  1  1  1  0  0  0
  2  3  1  0  0  0  0
  2  6  1  0  0  0  0
  3  4  1  0  0  0  0
  3 16  1  0  0  0  0
  5 14  1  0  0  0  0
  6  7  1  0  0  0  0
  7  8  2  0  0  0  0
  7  9  1  0  0  0  0
  8 12  1  0  0  0  0
  9 10  2  0  0  0  0
  9 11  1  0  0  0  0
 10 13  1  0  0  0  0
 10 12  1  0  0  0  0
 11 14  2  0  0  0  0
 13 15  2  0  0  0  0
 14 15  1  0  0  0  0
M  END
>  <CHROM.1>
-9.66805019,-71.34009723,66.74590632,7.36327625,3.82578043,84.06635820,0.91005106
1.18692914,0.80644235

>  <Name>
ligand

>  <RI>
0

>  <Rbt.Current_Directory>
/home/itssahil/PROJECTS/Mol_Feturizer/Test_systems_manuscript/rnas/5kpy

>  <Rbt.Executable>
rbdock ($Id: //depot/dev/client3/rdock/2013.1/src/exe/rbdock.cxx#4 $)

>  <Rbt.Library>
libRbt.so (2013.1, Build901 2013/11/27)

>  <Rbt.Parameter_File>
/export/apps/rDock/src/rDock_2013.1_src/data/scripts/dock_solv.prm

>  <Rbt.Receptor>
prm/pocket_docking_5.prm

>  <SCORE>
-19.912

>  <SCORE.INTER>
-20.0622

>  <SCORE.INTER.CONST>
1

>  <SCORE.INTER.POLAR>
0

>  <SCORE.INTER.ROT>
3

>  <SCORE.INTER.SOLV>
6.73243

>  <SCORE.INTER.VDW>
-21.2189

>  <SCORE.INTER.norm>
-1.25389

>  <SCORE.INTRA>
0.150197

>  <SCORE.INTRA.DIHEDRAL>
0.393576

>  <SCORE.INTRA.DIHEDRAL.0>
3.89056

>  <SCORE.INTRA.POLAR>
0

>  <SCORE.INTRA.POLAR.0>
0

>  <SCORE.INTRA.REPUL>
0

>  <SCORE.INTRA.REPUL.0>
0

>  <SCORE.INTRA.SOLV>
-0.226937

>  <SCORE.INTRA.SOLV.lig_0>
-20.733

>  <SCORE.INTRA.VDW>
0.0668774

>  <SCORE.INTRA.VDW.0>
-0.828515

>  <SCORE.INTRA.norm>
0.00938728

>  <SCORE.RESTR>
0

>  <SCORE.RESTR.CAVITY>
0

>  <SCORE.RESTR.norm>
0

>  <SCORE.SYSTEM>
0

>  <SCORE.SYSTEM.CONST>
0

>  <SCORE.SYSTEM.DIHEDRAL>
0

>  <SCORE.SYSTEM.SOLV>
0

>  <SCORE.SYSTEM.norm>
0

>  <SCORE.heavy>
16

>  <SCORE.norm>
-1.2445

>  <RMSD>
1.842

$$$$
ligand
 OpenBabel02271912153D
libRbt.so/2013.1/901 2013/11/27
 16 17  0  0  0  0  0  0  0  0999 V2000
    7.9599    6.4025   86.0254 N   0  0  0  0  0  0  0  0  0  0  0  0
    8.1971    6.0030   84.6796 C   0  0  2  0  0  0  0  0  0  0  0  0
    8.5216    7.1744   83.7952 C   0  0  0  0  0  0  0  0  0  0  0  0
    8.9976    6.9682   82.6523 O   0  0  0  0  0  0  0  0  0  0  0  0
    7.3473    0.7322   80.8740 O   0  0  0  0  0  0  0  0  0  0  0  0
    6.9983    5.2774   84.1173 C   0  0  0  0  0  0  0  0  0  0  0  0
    6.7906    3.9114   84.7270 C   0  0  0  0  0  0  0  0  0  0  0  0
    6.5048    3.6686   86.0105 C   0  0  0  0  0  0  0  0  0  0  0  0
    6.8612    2.7267   83.9242 C   0  0  0  0  0  0  0  0  0  0  0  0
    6.5865    1.6722   84.8374 C   0  0  0  0  0  0  0  0  0  0  0  0
    7.1029    2.4404   82.6088 C   0  0  0  0  0  0  0  0  0  0  0  0
    6.3845    2.3266   86.0718 N   0  0  0  0  0  0  0  0  0  0  0  0
    6.5586    0.3793   84.4792 C   0  0  0  0  0  0  0  0  0  0  0  0
    7.0903    1.0689   82.2095 C   0  0  0  0  0  0  0  0  0  0  0  0
    6.8199    0.0169   83.1544 C   0  0  0  0  0  0  0  0  0  0  0  0
    8.3321    8.3384   84.2066 O   0  0  0  0  0  0  0  0  0  0  0  0
  2  1  1  1  0  0  0
  2  3  1  0  0  0  0
  2  6  1  0  0  0  0
  3  4  1  0  0  0  0
  3 16  1  0  0  0  0
  5 14  1  0  0  0  0
  6  7  1  0  0  0  0
  7  8  2  0  0  0  0
  7  9  1  0  0  0  0
  8 12  1  0  0  0  0
  9 10  2  0  0  0  0
  9 11  1  0  0  0  0
 10 13  1  0  0  0  0
 10 12  1  0  0  0  0
 11 14  2  0  0  0  0
 13 15  2  0  0  0  0
 14 15  1  0  0  0  0
M  END
>  <CHROM.1>
166.70778093,-70.27174949,63.90263813,7.36585247,3.82663762,83.98371174,0.93308156
1.18259814,0.77786528

>  <Name>
ligand

>  <RI>
0

>  <Rbt.Current_Directory>
/home/itssahil/PROJECTS/Mol_Feturizer/Test_systems_manuscript/rnas/5kpy

>  <Rbt.Executable>
rbdock ($Id: //depot/dev/client3/rdock/2013.1/src/exe/rbdock.cxx#4 $)

>  <Rbt.Library>
libRbt.so (2013.1, Build901 2013/11/27)

>  <Rbt.Parameter_File>
/export/apps/rDock/src/rDock_2013.1_src/data/scripts/dock_solv.prm

>  <Rbt.Receptor>
prm/pocket_docking_4.prm

>  <SCORE>
-19.9101

>  <SCORE.INTER>
-20.0213

>  <SCORE.INTER.CONST>
1

>  <SCORE.INTER.POLAR>
0

>  <SCORE.INTER.ROT>
3

>  <SCORE.INTER.SOLV>
6.52355

>  <SCORE.INTER.VDW>
-21.1221

>  <SCORE.INTER.norm>
-1.25133

>  <SCORE.INTRA>
0.11119

>  <SCORE.INTRA.DIHEDRAL>
0.329181

>  <SCORE.INTRA.DIHEDRAL.0>
3.89056

>  <SCORE.INTRA.POLAR>
0

>  <SCORE.INTRA.POLAR.0>
0

>  <SCORE.INTRA.REPUL>
0

>  <SCORE.INTRA.REPUL.0>
0

>  <SCORE.INTRA.SOLV>
-0.205111

>  <SCORE.INTRA.SOLV.lig_0>
-20.733

>  <SCORE.INTRA.VDW>
0.0491547

>  <SCORE.INTRA.VDW.0>
-0.828515

>  <SCORE.INTRA.norm>
0.00694935

>  <SCORE.RESTR>
0

>  <SCORE.RESTR.CAVITY>
0

>  <SCORE.RESTR.norm>
0

>  <SCORE.SYSTEM>
0

>  <SCORE.SYSTEM.CONST>
0

>  <SCORE.SYSTEM.DIHEDRAL>
0

>  <SCORE.SYSTEM.SOLV>
0

>  <SCORE.SYSTEM.norm>
0

>  <SCORE.heavy>
16

>  <SCORE.norm>
-1.24438

>  <RMSD>
1.843

$$$$
ligand
 OpenBabel02271912153D
libRbt.so/2013.1/901 2013/11/27
 16 17  0  0  0  0  0  0  0  0999 V2000
    7.9528    6.3837   86.0945 N   0  0  0  0  0  0  0  0  0  0  0  0
    8.1750    5.9753   84.7489 C   0  0  2  0  0  0  0  0  0  0  0  0
    8.5041    7.1392   83.8562 C   0  0  0  0  0  0  0  0  0  0  0  0
    8.9239    6.9224   82.6934 O   0  0  0  0  0  0  0  0  0  0  0  0
    7.3851    0.7076   80.9741 O   0  0  0  0  0  0  0  0  0  0  0  0
    6.9645    5.2592   84.1998 C   0  0  0  0  0  0  0  0  0  0  0  0
    6.7544    3.8938   84.8098 C   0  0  0  0  0  0  0  0  0  0  0  0
    6.4503    3.6529   86.0895 C   0  0  0  0  0  0  0  0  0  0  0  0
    6.8429    2.7074   84.0113 C   0  0  0  0  0  0  0  0  0  0  0  0
    6.5596    1.6539   84.9230 C   0  0  0  0  0  0  0  0  0  0  0  0
    7.1060    2.4190   82.7005 C   0  0  0  0  0  0  0  0  0  0  0  0
    6.3356    2.3104   86.1525 N   0  0  0  0  0  0  0  0  0  0  0  0
    6.5434    0.3599   84.5678 C   0  0  0  0  0  0  0  0  0  0  0  0
    7.1061    1.0464   82.3046 C   0  0  0  0  0  0  0  0  0  0  0  0
    6.8266   -0.0046   83.2481 C   0  0  0  0  0  0  0  0  0  0  0  0
    8.3742    8.3070   84.2798 O   0  0  0  0  0  0  0  0  0  0  0  0
  2  1  1  1  0  0  0
  2  3  1  0  0  0  0
  2  6  1  0  0  0  0
  3  4  1  0  0  0  0
  3 16  1  0  0  0  0
  5 14  1  0  0  0  0
  6  7  1  0  0  0  0
  7  8  2  0  0  0  0
  7  9  1  0  0  0  0
  8 12  1  0  0  0  0
  9 10  2  0  0  0  0
  9 11  1  0  0  0  0
 10 13  1  0  0  0  0
 10 12  1  0  0  0  0
 11 14  2  0  0  0  0
 13 15  2  0  0  0  0
 14 15  1  0  0  0  0
M  END
>  <CHROM.1>
169.21798089,-70.72753091,65.61634665,7.35086780,3.80281568,84.06314208,0.94958588
1.17612111,0.75570274

>  <Name>
ligand

>  <RI>
0

>  <Rbt.Current_Directory>
/home/itssahil/PROJECTS/Mol_Feturizer/Test_systems_manuscript/rnas/5kpy

>  <Rbt.Executable>
rbdock ($Id: //depot/dev/client3/rdock/2013.1/src/exe/rbdock.cxx#4 $)

>  <Rbt.Library>
libRbt.so (2013.1, Build901 2013/11/27)

>  <Rbt.Parameter_File>
/export/apps/rDock/src/rDock_2013.1_src/data/scripts/dock_solv.prm

>  <Rbt.Receptor>
prm/pocket_docking_6.prm

>  <SCORE>
-19.9745

>  <SCORE.INTER>
-20.1166

>  <SCORE.INTER.CONST>
1

>  <SCORE.INTER.POLAR>
0

>  <SCORE.INTER.ROT>
3

>  <SCORE.INTER.SOLV>
6.50256

>  <SCORE.INTER.VDW>
-21.1786

>  <SCORE.INTER.norm>
-1.25729

>  <SCORE.INTRA>
0.142122

>  <SCORE.INTRA.DIHEDRAL>
0.370141

>  <SCORE.INTRA.DIHEDRAL.0>
3.89056

>  <SCORE.INTRA.POLAR>
0

>  <SCORE.INTRA.POLAR.0>
0

>  <SCORE.INTRA.REPUL>
0

>  <SCORE.INTRA.REPUL.0>
0

>  <SCORE.INTRA.SOLV>
-0.218653

>  <SCORE.INTRA.SOLV.lig_0>
-20.733

>  <SCORE.INTRA.VDW>
0.0663778

>  <SCORE.INTRA.VDW.0>
-0.828515

>  <SCORE.INTRA.norm>
0.0088826

>  <SCORE.RESTR>
0

>  <SCORE.RESTR.CAVITY>
0

>  <SCORE.RESTR.norm>
0

>  <SCORE.SYSTEM>
0

>  <SCORE.SYSTEM.CONST>
0

>  <SCORE.SYSTEM.DIHEDRAL>
0

>  <SCORE.SYSTEM.SOLV>
0

>  <SCORE.SYSTEM.norm>
0

>  <SCORE.heavy>
16

>  <SCORE.norm>
-1.24841

>  <RMSD>
1.850

$$$$
ligand
 OpenBabel02271912153D
libRbt.so/2013.1/901 2013/11/27
 16 17  0  0  0  0  0  0  0  0999 V2000
    8.0368    6.3639   86.0088 N   0  0  0  0  0  0  0  0  0  0  0  0
    8.1885    5.9762   84.6473 C   0  0  2  0  0  0  0  0  0  0  0  0
    8.4678    7.1542   83.7561 C   0  0  0  0  0  0  0  0  0  0  0  0
    8.1787    8.3086   84.1548 O   0  0  0  0  0  0  0  0  0  0  0  0
    7.3583    0.6902   80.9576 O   0  0  0  0  0  0  0  0  0  0  0  0
    6.9520    5.2651   84.1521 C   0  0  0  0  0  0  0  0  0  0  0  0
    6.7597    3.9033   84.7761 C   0  0  0  0  0  0  0  0  0  0  0  0
    6.4752    3.6709   86.0617 C   0  0  0  0  0  0  0  0  0  0  0  0
    6.8451    2.7111   83.9860 C   0  0  0  0  0  0  0  0  0  0  0  0
    6.5817    1.6632   84.9100 C   0  0  0  0  0  0  0  0  0  0  0  0
    7.0918    2.4137   82.6739 C   0  0  0  0  0  0  0  0  0  0  0  0
    6.3705    2.3283   86.1372 N   0  0  0  0  0  0  0  0  0  0  0  0
    6.5693    0.3663   84.5655 C   0  0  0  0  0  0  0  0  0  0  0  0
    7.0957    1.0380   82.2892 C   0  0  0  0  0  0  0  0  0  0  0  0
    6.8365   -0.0071   83.2449 C   0  0  0  0  0  0  0  0  0  0  0  0
    8.9676    6.9766   82.6252 O   0  0  0  0  0  0  0  0  0  0  0  0
  2  1  1  1  0  0  0
  2  3  1  0  0  0  0
  2  6  1  0  0  0  0
  3  4  1  0  0  0  0
  3 16  1  0  0  0  0
  5 14  1  0  0  0  0
  6  7  1  0  0  0  0
  7  8  2  0  0  0  0
  7  9  1  0  0  0  0
  8 12  1  0  0  0  0
  9 10  2  0  0  0  0
  9 11  1  0  0  0  0
 10 13  1  0  0  0  0
 10 12  1  0  0  0  0
 11 14  2  0  0  0  0
 13 15  2  0  0  0  0
 14 15  1  0  0  0  0
M  END
>  <CHROM.1>
-19.69189187,-69.38331790,67.37332957,7.34689737,3.80866381,84.01705207,0.93793349
1.19246782,0.75386395

>  <Name>
ligand

>  <RI>
0

>  <Rbt.Current_Directory>
/home/itssahil/PROJECTS/Mol_Feturizer/Test_systems_manuscript/rnas/5kpy

>  <Rbt.Executable>
rbdock ($Id: //depot/dev/client3/rdock/2013.1/src/exe/rbdock.cxx#4 $)

>  <Rbt.Library>
libRbt.so (2013.1, Build901 2013/11/27)

>  <Rbt.Parameter_File>
/export/apps/rDock/src/rDock_2013.1_src/data/scripts/dock_solv.prm

>  <Rbt.Receptor>
prm/pocket_docking_7.prm

>  <SCORE>
-19.8518

>  <SCORE.INTER>
-19.8342

>  <SCORE.INTER.CONST>
1

>  <SCORE.INTER.POLAR>
0

>  <SCORE.INTER.ROT>
3

>  <SCORE.INTER.SOLV>
6.72567

>  <SCORE.INTER.VDW>
-21.0647

>  <SCORE.INTER.norm>
-1.23964

>  <SCORE.INTRA>
-0.0176262

>  <SCORE.INTRA.DIHEDRAL>
0.227759

>  <SCORE.INTRA.DIHEDRAL.0>
3.89056

>  <SCORE.INTRA.POLAR>
0

>  <SCORE.INTRA.POLAR.0>
0

>  <SCORE.INTRA.REPUL>
0

>  <SCORE.INTRA.REPUL.0>
0

>  <SCORE.INTRA.SOLV>
-0.207067

>  <SCORE.INTRA.SOLV.lig_0>
-20.733

>  <SCORE.INTRA.VDW>
-0.027972

>  <SCORE.INTRA.VDW.0>
-0.828515

>  <SCORE.INTRA.norm>
-0.00110163

>  <SCORE.RESTR>
0

>  <SCORE.RESTR.CAVITY>
0

>  <SCORE.RESTR.norm>
0

>  <SCORE.SYSTEM>
0

>  <SCORE.SYSTEM.CONST>
0

>  <SCORE.SYSTEM.DIHEDRAL>
0

>  <SCORE.SYSTEM.SOLV>
0

>  <SCORE.SYSTEM.norm>
0

>  <SCORE.heavy>
16

>  <SCORE.norm>
-1.24074

>  <RMSD>
1.852

$$$$
ligand
 OpenBabel02271912153D
libRbt.so/2013.1/901 2013/11/27
 16 17  0  0  0  0  0  0  0  0999 V2000
    8.0261    6.3625   86.0535 N   0  0  0  0  0  0  0  0  0  0  0  0
    8.2303    5.9978   84.6925 C   0  0  2  0  0  0  0  0  0  0  0  0
    8.5448    7.1903   83.8329 C   0  0  0  0  0  0  0  0  0  0  0  0
    8.9438    7.0117   82.6565 O   0  0  0  0  0  0  0  0  0  0  0  0
    7.4087    0.7170   80.9489 O   0  0  0  0  0  0  0  0  0  0  0  0
    7.0135    5.2968   84.1377 C   0  0  0  0  0  0  0  0  0  0  0  0
    6.7773    3.9387   84.7547 C   0  0  0  0  0  0  0  0  0  0  0  0
    6.4549    3.7112   86.0323 C   0  0  0  0  0  0  0  0  0  0  0  0
    6.8587    2.7456   83.9655 C   0  0  0  0  0  0  0  0  0  0  0  0
    6.5501    1.7027   84.8811 C   0  0  0  0  0  0  0  0  0  0  0  0
    7.1332    2.4443   82.6599 C   0  0  0  0  0  0  0  0  0  0  0  0
    6.3208    2.3709   86.1033 N   0  0  0  0  0  0  0  0  0  0  0  0
    6.5201    0.4065   84.5347 C   0  0  0  0  0  0  0  0  0  0  0  0
    7.1188    1.0691   82.2736 C   0  0  0  0  0  0  0  0  0  0  0  0
    6.8137    0.0288   83.2210 C   0  0  0  0  0  0  0  0  0  0  0  0
    8.4234    8.3436   84.2970 O   0  0  0  0  0  0  0  0  0  0  0  0
  2  1  1  1  0  0  0
  2  3  1  0  0  0  0
  2  6  1  0  0  0  0
  3  4  1  0  0  0  0
  3 16  1  0  0  0  0
  5 14  1  0  0  0  0
  6  7  1  0  0  0  0
  7  8  2  0  0  0  0
  7  9  1  0  0  0  0
  8 12  1  0  0  0  0
  9 10  2  0  0  0  0
  9 11  1  0  0  0  0
 10 13  1  0  0  0  0
 10 12  1  0  0  0  0
 11 14  2  0  0  0  0
 13 15  2  0  0  0  0
 14 15  1  0  0  0  0
M  END
>  <CHROM.1>
169.48626241,-67.99079124,65.82705170,7.37286779,3.84057467,84.02594876,0.94201367
1.16808177,0.76186257

>  <Name>
ligand

>  <RI>
0

>  <Rbt.Current_Directory>
/home/itssahil/PROJECTS/Mol_Feturizer/Test_systems_manuscript/rnas/5kpy

>  <Rbt.Executable>
rbdock ($Id: //depot/dev/client3/rdock/2013.1/src/exe/rbdock.cxx#4 $)

>  <Rbt.Library>
libRbt.so (2013.1, Build901 2013/11/27)

>  <Rbt.Parameter_File>
/export/apps/rDock/src/rDock_2013.1_src/data/scripts/dock_solv.prm

>  <Rbt.Receptor>
prm/pocket_docking_8.prm

>  <SCORE>
-19.9419

>  <SCORE.INTER>
-20.0186

>  <SCORE.INTER.CONST>
1

>  <SCORE.INTER.POLAR>
0

>  <SCORE.INTER.ROT>
3

>  <SCORE.INTER.SOLV>
6.73967

>  <SCORE.INTER.VDW>
-21.1923

>  <SCORE.INTER.norm>
-1.25116

>  <SCORE.INTRA>
0.0766628

>  <SCORE.INTRA.DIHEDRAL>
0.170802

>  <SCORE.INTRA.DIHEDRAL.0>
3.89056

>  <SCORE.INTRA.POLAR>
0

>  <SCORE.INTRA.POLAR.0>
0

>  <SCORE.INTRA.REPUL>
0

>  <SCORE.INTRA.REPUL.0>
0

>  <SCORE.INTRA.SOLV>
-0.183542

>  <SCORE.INTRA.SOLV.lig_0>
-20.733

>  <SCORE.INTRA.VDW>
0.0830327

>  <SCORE.INTRA.VDW.0>
-0.828515

>  <SCORE.INTRA.norm>
0.00479143

>  <SCORE.RESTR>
0

>  <SCORE.RESTR.CAVITY>
0

>  <SCORE.RESTR.norm>
0

>  <SCORE.SYSTEM>
0

>  <SCORE.SYSTEM.CONST>
0

>  <SCORE.SYSTEM.DIHEDRAL>
0

>  <SCORE.SYSTEM.SOLV>
0

>  <SCORE.SYSTEM.norm>
0

>  <SCORE.heavy>
16

>  <SCORE.norm>
-1.24637

>  <RMSD>
1.855

$$$$
ligand
 OpenBabel02271912153D
libRbt.so/2013.1/901 2013/11/27
 16 17  0  0  0  0  0  0  0  0999 V2000
    7.9864    6.4124   85.9518 N   0  0  0  0  0  0  0  0  0  0  0  0
    8.1779    5.9962   84.6038 C   0  0  2  0  0  0  0  0  0  0  0  0
    8.4829    7.1554   83.6965 C   0  0  0  0  0  0  0  0  0  0  0  0
    9.0132    6.9386   82.5797 O   0  0  0  0  0  0  0  0  0  0  0  0
    7.4014    0.6898   80.9116 O   0  0  0  0  0  0  0  0  0  0  0  0
    6.9566    5.2738   84.0878 C   0  0  0  0  0  0  0  0  0  0  0  0
    6.7618    3.9136   84.7144 C   0  0  0  0  0  0  0  0  0  0  0  0
    6.4665    3.6846   85.9982 C   0  0  0  0  0  0  0  0  0  0  0  0
    6.8569    2.7191   83.9288 C   0  0  0  0  0  0  0  0  0  0  0  0
    6.5878    1.6735   84.8539 C   0  0  0  0  0  0  0  0  0  0  0  0
    7.1159    2.4181   82.6200 C   0  0  0  0  0  0  0  0  0  0  0  0
    6.3642    2.3420   86.0770 N   0  0  0  0  0  0  0  0  0  0  0  0
    6.5813    0.3755   84.5134 C   0  0  0  0  0  0  0  0  0  0  0  0
    7.1262    1.0412   82.2397 C   0  0  0  0  0  0  0  0  0  0  0  0
    6.8610   -0.0014   83.1964 C   0  0  0  0  0  0  0  0  0  0  0  0
    8.2235    8.3206   84.0639 O   0  0  0  0  0  0  0  0  0  0  0  0
  2  1  1  1  0  0  0
  2  3  1  0  0  0  0
  2  6  1  0  0  0  0
  3  4  1  0  0  0  0
  3 16  1  0  0  0  0
  5 14  1  0  0  0  0
  6  7  1  0  0  0  0
  7  8  2  0  0  0  0
  7  9  1  0  0  0  0
  8 12  1  0  0  0  0
  9 10  2  0  0  0  0
  9 11  1  0  0  0  0
 10 13  1  0  0  0  0
 10 12  1  0  0  0  0
 11 14  2  0  0  0  0
 13 15  2  0  0  0  0
 14 15  1  0  0  0  0
M  END
>  <CHROM.1>
161.46912395,-70.53672824,66.68372729,7.35958781,3.81634597,83.95994174,0.96151786
1.18175011,0.72775495

>  <Name>
ligand

>  <RI>
0

>  <Rbt.Current_Directory>
/home/itssahil/PROJECTS/Mol_Feturizer/Test_systems_manuscript/rnas/5kpy

>  <Rbt.Executable>
rbdock ($Id: //depot/dev/client3/rdock/2013.1/src/exe/rbdock.cxx#4 $)

>  <Rbt.Library>
libRbt.so (2013.1, Build901 2013/11/27)

>  <Rbt.Parameter_File>
/export/apps/rDock/src/rDock_2013.1_src/data/scripts/dock_solv.prm

>  <Rbt.Receptor>
prm/pocket_docking_7.prm

>  <SCORE>
-19.9282

>  <SCORE.INTER>
-19.9716

>  <SCORE.INTER.CONST>
1

>  <SCORE.INTER.POLAR>
0

>  <SCORE.INTER.ROT>
3

>  <SCORE.INTER.SOLV>
6.51229

>  <SCORE.INTER.VDW>
-21.0852

>  <SCORE.INTER.norm>
-1.24823

>  <SCORE.INTRA>
0.0434469

>  <SCORE.INTRA.DIHEDRAL>
0.36848

>  <SCORE.INTRA.DIHEDRAL.0>
3.89056

>  <SCORE.INTRA.POLAR>
0

>  <SCORE.INTRA.POLAR.0>
0

>  <SCORE.INTRA.REPUL>
0

>  <SCORE.INTRA.REPUL.0>
0

>  <SCORE.INTRA.SOLV>
-0.222188

>  <SCORE.INTRA.SOLV.lig_0>
-20.733

>  <SCORE.INTRA.VDW>
-0.0296989

>  <SCORE.INTRA.VDW.0>
-0.828515

>  <SCORE.INTRA.norm>
0.00271543

>  <SCORE.RESTR>
0

>  <SCORE.RESTR.CAVITY>
0

>  <SCORE.RESTR.norm>
0

>  <SCORE.SYSTEM>
0

>  <SCORE.SYSTEM.CONST>
0

>  <SCORE.SYSTEM.DIHEDRAL>
0

>  <SCORE.SYSTEM.SOLV>
0

>  <SCORE.SYSTEM.norm>
0

>  <SCORE.heavy>
16

>  <SCORE.norm>
-1.24551

>  <RMSD>
1.857

$$$$
ligand
 OpenBabel02271912153D
libRbt.so/2013.1/901 2013/11/27
 16 17  0  0  0  0  0  0  0  0999 V2000
    7.9938    6.4063   85.9447 N   0  0  0  0  0  0  0  0  0  0  0  0
    8.1854    6.0191   84.5882 C   0  0  2  0  0  0  0  0  0  0  0  0
    8.4572    7.2012   83.7001 C   0  0  0  0  0  0  0  0  0  0  0  0
    8.9745    7.0159   82.5717 O   0  0  0  0  0  0  0  0  0  0  0  0
    7.3747    0.6739   80.9135 O   0  0  0  0  0  0  0  0  0  0  0  0
    6.9776    5.2778   84.0672 C   0  0  0  0  0  0  0  0  0  0  0  0
    6.7920    3.9215   84.7050 C   0  0  0  0  0  0  0  0  0  0  0  0
    6.5158    3.7006   85.9946 C   0  0  0  0  0  0  0  0  0  0  0  0
    6.8753    2.7221   83.9257 C   0  0  0  0  0  0  0  0  0  0  0  0
    6.6197    1.6824   84.8611 C   0  0  0  0  0  0  0  0  0  0  0  0
    7.1147    2.4129   82.6151 C   0  0  0  0  0  0  0  0  0  0  0  0
    6.4144    2.3586   86.0833 N   0  0  0  0  0  0  0  0  0  0  0  0
    6.6081    0.3823   84.5289 C   0  0  0  0  0  0  0  0  0  0  0  0
    7.1193    1.0337   82.2432 C   0  0  0  0  0  0  0  0  0  0  0  0
    6.8682   -0.0029   83.2104 C   0  0  0  0  0  0  0  0  0  0  0  0
    8.1833    8.3542   84.0946 O   0  0  0  0  0  0  0  0  0  0  0  0
  2  1  1  1  0  0  0
  2  3  1  0  0  0  0
  2  6  1  0  0  0  0
  3  4  1  0  0  0  0
  3 16  1  0  0  0  0
  5 14  1  0  0  0  0
  6  7  1  0  0  0  0
  7  8  2  0  0  0  0
  7  9  1  0  0  0  0
  8 12  1  0  0  0  0
  9 10  2  0  0  0  0
  9 11  1  0  0  0  0
 10 13  1  0  0  0  0
 10 12  1  0  0  0  0
 11 14  2  0  0  0  0
 13 15  2  0  0  0  0
 14 15  1  0  0  0  0
M  END
>  <CHROM.1>
162.04458199,-68.55516623,65.10073730,7.36464356,3.83013998,83.96070624,0.94803195
1.19905272,0.74311961

>  <Name>
ligand

>  <RI>
0

>  <Rbt.Current_Directory>
/home/itssahil/PROJECTS/Mol_Feturizer/Test_systems_manuscript/rnas/5kpy

>  <Rbt.Executable>
rbdock ($Id: //depot/dev/client3/rdock/2013.1/src/exe/rbdock.cxx#4 $)

>  <Rbt.Library>
libRbt.so (2013.1, Build901 2013/11/27)

>  <Rbt.Parameter_File>
/export/apps/rDock/src/rDock_2013.1_src/data/scripts/dock_solv.prm

>  <Rbt.Receptor>
prm/pocket_docking_6.prm

>  <SCORE>
-19.9197

>  <SCORE.INTER>
-19.9298

>  <SCORE.INTER.CONST>
1

>  <SCORE.INTER.POLAR>
0

>  <SCORE.INTER.ROT>
3

>  <SCORE.INTER.SOLV>
6.52019

>  <SCORE.INTER.VDW>
-21.0599

>  <SCORE.INTER.norm>
-1.24561

>  <SCORE.INTRA>
0.0101043

>  <SCORE.INTRA.DIHEDRAL>
0.213737

>  <SCORE.INTRA.DIHEDRAL.0>
3.89056

>  <SCORE.INTRA.POLAR>
0

>  <SCORE.INTRA.POLAR.0>
0

>  <SCORE.INTRA.REPUL>
0

>  <SCORE.INTRA.REPUL.0>
0

>  <SCORE.INTRA.SOLV>
-0.188523

>  <SCORE.INTRA.SOLV.lig_0>
-20.733

>  <SCORE.INTRA.VDW>
-0.00250293

>  <SCORE.INTRA.VDW.0>
-0.828515

>  <SCORE.INTRA.norm>
0.000631517

>  <SCORE.RESTR>
0

>  <SCORE.RESTR.CAVITY>
0

>  <SCORE.RESTR.norm>
0

>  <SCORE.SYSTEM>
0

>  <SCORE.SYSTEM.CONST>
0

>  <SCORE.SYSTEM.DIHEDRAL>
0

>  <SCORE.SYSTEM.SOLV>
0

>  <SCORE.SYSTEM.norm>
0

>  <SCORE.heavy>
16

>  <SCORE.norm>
-1.24498

>  <RMSD>
1.858

$$$$
ligand
 OpenBabel02271912153D
libRbt.so/2013.1/901 2013/11/27
 16 17  0  0  0  0  0  0  0  0999 V2000
    8.0521    6.4164   85.9941 N   0  0  0  0  0  0  0  0  0  0  0  0
    8.1978    6.0320   84.6310 C   0  0  2  0  0  0  0  0  0  0  0  0
    8.4656    7.2129   83.7403 C   0  0  0  0  0  0  0  0  0  0  0  0
    8.2144    8.3687   84.1602 O   0  0  0  0  0  0  0  0  0  0  0  0
    7.3011    0.7489   80.9272 O   0  0  0  0  0  0  0  0  0  0  0  0
    6.9623    5.3151   84.1419 C   0  0  0  0  0  0  0  0  0  0  0  0
    6.7802    3.9518   84.7655 C   0  0  0  0  0  0  0  0  0  0  0  0
    6.5201    3.7160   86.0558 C   0  0  0  0  0  0  0  0  0  0  0  0
    6.8488    2.7617   83.9705 C   0  0  0  0  0  0  0  0  0  0  0  0
    6.6019    1.7115   84.8965 C   0  0  0  0  0  0  0  0  0  0  0  0
    7.0698    2.4678   82.6532 C   0  0  0  0  0  0  0  0  0  0  0  0
    6.4151    2.3733   86.1294 N   0  0  0  0  0  0  0  0  0  0  0  0
    6.5811    0.4156   84.5486 C   0  0  0  0  0  0  0  0  0  0  0  0
    7.0645    1.0932   82.2645 C   0  0  0  0  0  0  0  0  0  0  0  0
    6.8224    0.0457   83.2221 C   0  0  0  0  0  0  0  0  0  0  0  0
    8.9182    7.0368   82.5896 O   0  0  0  0  0  0  0  0  0  0  0  0
  2  1  1  1  0  0  0
  2  3  1  0  0  0  0
  2  6  1  0  0  0  0
  3  4  1  0  0  0  0
  3 16  1  0  0  0  0
  5 14  1  0  0  0  0
  6  7  1  0  0  0  0
  7  8  2  0  0  0  0
  7  9  1  0  0  0  0
  8 12  1  0  0  0  0
  9 10  2  0  0  0  0
  9 11  1  0  0  0  0
 10 13  1  0  0  0  0
 10 12  1  0  0  0  0
 11 14  2  0  0  0  0
 13 15  2  0  0  0  0
 14 15  1  0  0  0  0
M  END
>  <CHROM.1>
-17.31885928,-69.32816522,66.49727816,7.34855594,3.86177003,84.00093267,0.90213715
1.20673235,0.79359271

>  <Name>
ligand

>  <RI>
0

>  <Rbt.Current_Directory>
/home/itssahil/PROJECTS/Mol_Feturizer/Test_systems_manuscript/rnas/5kpy

>  <Rbt.Executable>
rbdock ($Id: //depot/dev/client3/rdock/2013.1/src/exe/rbdock.cxx#4 $)

>  <Rbt.Library>
libRbt.so (2013.1, Build901 2013/11/27)

>  <Rbt.Parameter_File>
/export/apps/rDock/src/rDock_2013.1_src/data/scripts/dock_solv.prm

>  <Rbt.Receptor>
prm/pocket_docking_8.prm

>  <SCORE>
-19.879

>  <SCORE.INTER>
-19.8926

>  <SCORE.INTER.CONST>
1

>  <SCORE.INTER.POLAR>
0

>  <SCORE.INTER.ROT>
3

>  <SCORE.INTER.SOLV>
6.65927

>  <SCORE.INTER.VDW>
-21.0815

>  <SCORE.INTER.norm>
-1.24329

>  <SCORE.INTRA>
0.0135658

>  <SCORE.INTRA.DIHEDRAL>
0.222274

>  <SCORE.INTRA.DIHEDRAL.0>
3.89056

>  <SCORE.INTRA.POLAR>
0

>  <SCORE.INTRA.POLAR.0>
0

>  <SCORE.INTRA.REPUL>
0

>  <SCORE.INTRA.REPUL.0>
0

>  <SCORE.INTRA.SOLV>
-0.201279

>  <SCORE.INTRA.SOLV.lig_0>
-20.733

>  <SCORE.INTRA.VDW>
0.00306835

>  <SCORE.INTRA.VDW.0>
-0.828515

>  <SCORE.INTRA.norm>
0.000847863

>  <SCORE.RESTR>
0

>  <SCORE.RESTR.CAVITY>
0

>  <SCORE.RESTR.norm>
0

>  <SCORE.SYSTEM>
0

>  <SCORE.SYSTEM.CONST>
0

>  <SCORE.SYSTEM.DIHEDRAL>
0

>  <SCORE.SYSTEM.SOLV>
0

>  <SCORE.SYSTEM.norm>
0

>  <SCORE.heavy>
16

>  <SCORE.norm>
-1.24244

>  <RMSD>
1.860

$$$$
ligand
 OpenBabel02271912153D
libRbt.so/2013.1/901 2013/11/27
 16 17  0  0  0  0  0  0  0  0999 V2000
    8.0054    6.4429   85.9809 N   0  0  0  0  0  0  0  0  0  0  0  0
    8.1922    5.9811   84.6472 C   0  0  2  0  0  0  0  0  0  0  0  0
    8.5358    7.1031   83.7076 C   0  0  0  0  0  0  0  0  0  0  0  0
    8.2877    8.2859   84.0461 O   0  0  0  0  0  0  0  0  0  0  0  0
    7.3722    0.7363   80.9070 O   0  0  0  0  0  0  0  0  0  0  0  0
    6.9532    5.2791   84.1453 C   0  0  0  0  0  0  0  0  0  0  0  0
    6.7572    3.9112   84.7546 C   0  0  0  0  0  0  0  0  0  0  0  0
    6.4664    3.6660   86.0365 C   0  0  0  0  0  0  0  0  0  0  0  0
    6.8457    2.7270   83.9530 C   0  0  0  0  0  0  0  0  0  0  0  0
    6.5774    1.6700   84.8652 C   0  0  0  0  0  0  0  0  0  0  0  0
    7.0985    2.4426   82.6392 C   0  0  0  0  0  0  0  0  0  0  0  0
    6.3607    2.3228   86.0980 N   0  0  0  0  0  0  0  0  0  0  0  0
    6.5660    0.3766   84.5076 C   0  0  0  0  0  0  0  0  0  0  0  0
    7.1034    1.0709   82.2406 C   0  0  0  0  0  0  0  0  0  0  0  0
    6.8392    0.0164   83.1846 C   0  0  0  0  0  0  0  0  0  0  0  0
    9.0478    6.8518   82.5963 O   0  0  0  0  0  0  0  0  0  0  0  0
  2  1  1  1  0  0  0
  2  3  1  0  0  0  0
  2  6  1  0  0  0  0
  3  4  1  0  0  0  0
  3 16  1  0  0  0  0
  5 14  1  0  0  0  0
  6  7  1  0  0  0  0
  7  8  2  0  0  0  0
  7  9  1  0  0  0  0
  8 12  1  0  0  0  0
  9 10  2  0  0  0  0
  9 11  1  0  0  0  0
 10 13  1  0  0  0  0
 10 12  1  0  0  0  0
 11 14  2  0  0  0  0
 13 15  2  0  0  0  0
 14 15  1  0  0  0  0
M  END
>  <CHROM.1>
-18.48386481,-73.74186424,67.72025189,7.36364419,3.81107263,83.97656325,0.94033435
1.17505701,0.75081052

>  <Name>
ligand

>  <RI>
0

>  <Rbt.Current_Directory>
/home/itssahil/PROJECTS/Mol_Feturizer/Test_systems_manuscript/rnas/5kpy

>  <Rbt.Executable>
rbdock ($Id: //depot/dev/client3/rdock/2013.1/src/exe/rbdock.cxx#4 $)

>  <Rbt.Library>
libRbt.so (2013.1, Build901 2013/11/27)

>  <Rbt.Parameter_File>
/export/apps/rDock/src/rDock_2013.1_src/data/scripts/dock_solv.prm

>  <Rbt.Receptor>
prm/pocket_docking_7.prm

>  <SCORE>
-19.9176

>  <SCORE.INTER>
-20.0362

>  <SCORE.INTER.CONST>
1

>  <SCORE.INTER.POLAR>
0

>  <SCORE.INTER.ROT>
3

>  <SCORE.INTER.SOLV>
6.5329

>  <SCORE.INTER.VDW>
-21.1351

>  <SCORE.INTER.norm>
-1.25227

>  <SCORE.INTRA>
0.118623

>  <SCORE.INTRA.DIHEDRAL>
0.612804

>  <SCORE.INTRA.DIHEDRAL.0>
3.89056

>  <SCORE.INTRA.POLAR>
0

>  <SCORE.INTRA.POLAR.0>
0

>  <SCORE.INTRA.REPUL>
0

>  <SCORE.INTRA.REPUL.0>
0

>  <SCORE.INTRA.SOLV>
-0.26661

>  <SCORE.INTRA.SOLV.lig_0>
-20.733

>  <SCORE.INTRA.VDW>
-0.0544736

>  <SCORE.INTRA.VDW.0>
-0.828515

>  <SCORE.INTRA.norm>
0.00741396

>  <SCORE.RESTR>
0

>  <SCORE.RESTR.CAVITY>
0

>  <SCORE.RESTR.norm>
0

>  <SCORE.SYSTEM>
0

>  <SCORE.SYSTEM.CONST>
0

>  <SCORE.SYSTEM.DIHEDRAL>
0

>  <SCORE.SYSTEM.SOLV>
0

>  <SCORE.SYSTEM.norm>
0

>  <SCORE.heavy>
16

>  <SCORE.norm>
-1.24485

>  <RMSD>
1.861

$$$$
ligand
 OpenBabel02271912153D
libRbt.so/2013.1/901 2013/11/27
 16 17  0  0  0  0  0  0  0  0999 V2000
    7.9987    6.4210   85.8963 N   0  0  0  0  0  0  0  0  0  0  0  0
    8.1689    6.0149   84.5424 C   0  0  2  0  0  0  0  0  0  0  0  0
    8.4357    7.1834   83.6352 C   0  0  0  0  0  0  0  0  0  0  0  0
    8.0641    8.3302   83.9848 O   0  0  0  0  0  0  0  0  0  0  0  0
    7.3589    0.6617   80.9094 O   0  0  0  0  0  0  0  0  0  0  0  0
    6.9492    5.2747   84.0481 C   0  0  0  0  0  0  0  0  0  0  0  0
    6.7749    3.9197   84.6918 C   0  0  0  0  0  0  0  0  0  0  0  0
    6.5062    3.7019   85.9834 C   0  0  0  0  0  0  0  0  0  0  0  0
    6.8617    2.7180   83.9165 C   0  0  0  0  0  0  0  0  0  0  0  0
    6.6169    1.6802   84.8569 C   0  0  0  0  0  0  0  0  0  0  0  0
    7.0967    2.4054   82.6058 C   0  0  0  0  0  0  0  0  0  0  0  0
    6.4135    2.3596   86.0776 N   0  0  0  0  0  0  0  0  0  0  0  0
    6.6116    0.3788   84.5295 C   0  0  0  0  0  0  0  0  0  0  0  0
    7.1078    1.0248   82.2391 C   0  0  0  0  0  0  0  0  0  0  0  0
    6.8676   -0.0097   83.2112 C   0  0  0  0  0  0  0  0  0  0  0  0
    9.0072    7.0048   82.5390 O   0  0  0  0  0  0  0  0  0  0  0  0
  2  1  1  1  0  0  0
  2  3  1  0  0  0  0
  2  6  1  0  0  0  0
  3  4  1  0  0  0  0
  3 16  1  0  0  0  0
  5 14  1  0  0  0  0
  6  7  1  0  0  0  0
  7  8  2  0  0  0  0
  7  9  1  0  0  0  0
  8 12  1  0  0  0  0
  9 10  2  0  0  0  0
  9 11  1  0  0  0  0
 10 13  1  0  0  0  0
 10 12  1  0  0  0  0
 11 14  2  0  0  0  0
 13 15  2  0  0  0  0
 14 15  1  0  0  0  0
M  END
>  <CHROM.1>
-23.15820571,-69.37898943,66.13257169,7.34906036,3.82421039,83.93540651,0.95141032
1.20307557,0.72990708

>  <Name>
ligand

>  <RI>
0

>  <Rbt.Current_Directory>
/home/itssahil/PROJECTS/Mol_Feturizer/Test_systems_manuscript/rnas/5kpy

>  <Rbt.Executable>
rbdock ($Id: //depot/dev/client3/rdock/2013.1/src/exe/rbdock.cxx#4 $)

>  <Rbt.Library>
libRbt.so (2013.1, Build901 2013/11/27)

>  <Rbt.Parameter_File>
/export/apps/rDock/src/rDock_2013.1_src/data/scripts/dock_solv.prm

>  <Rbt.Receptor>
prm/pocket_docking_4.prm

>  <SCORE>
-19.9097

>  <SCORE.INTER>
-19.8661

>  <SCORE.INTER.CONST>
1

>  <SCORE.INTER.POLAR>
0

>  <SCORE.INTER.ROT>
3

>  <SCORE.INTER.SOLV>
6.51624

>  <SCORE.INTER.VDW>
-21.0161

>  <SCORE.INTER.norm>
-1.24163

>  <SCORE.INTRA>
-0.0436253

>  <SCORE.INTRA.DIHEDRAL>
0.219627

>  <SCORE.INTRA.DIHEDRAL.0>
3.89056

>  <SCORE.INTRA.POLAR>
0

>  <SCORE.INTRA.POLAR.0>
0

>  <SCORE.INTRA.REPUL>
0

>  <SCORE.INTRA.REPUL.0>
0

>  <SCORE.INTRA.SOLV>
-0.202481

>  <SCORE.INTRA.SOLV.lig_0>
-20.733

>  <SCORE.INTRA.VDW>
-0.0521987

>  <SCORE.INTRA.VDW.0>
-0.828515

>  <SCORE.INTRA.norm>
-0.00272658

>  <SCORE.RESTR>
0

>  <SCORE.RESTR.CAVITY>
0

>  <SCORE.RESTR.norm>
0

>  <SCORE.SYSTEM>
0

>  <SCORE.SYSTEM.CONST>
0

>  <SCORE.SYSTEM.DIHEDRAL>
0

>  <SCORE.SYSTEM.SOLV>
0

>  <SCORE.SYSTEM.norm>
0

>  <SCORE.heavy>
16

>  <SCORE.norm>
-1.24436

>  <RMSD>
1.863

$$$$
ligand
 OpenBabel02271912153D
libRbt.so/2013.1/901 2013/11/27
 16 17  0  0  0  0  0  0  0  0999 V2000
    8.0391    6.3698   85.9638 N   0  0  0  0  0  0  0  0  0  0  0  0
    8.1939    5.9855   84.6017 C   0  0  2  0  0  0  0  0  0  0  0  0
    8.4830    7.1646   83.7152 C   0  0  0  0  0  0  0  0  0  0  0  0
    8.9548    6.9703   82.5685 O   0  0  0  0  0  0  0  0  0  0  0  0
    7.2967    0.6924   80.9195 O   0  0  0  0  0  0  0  0  0  0  0  0
    6.9556    5.2825   84.0997 C   0  0  0  0  0  0  0  0  0  0  0  0
    6.7466    3.9254   84.7284 C   0  0  0  0  0  0  0  0  0  0  0  0
    6.4613    3.7009   86.0153 C   0  0  0  0  0  0  0  0  0  0  0  0
    6.8150    2.7296   83.9420 C   0  0  0  0  0  0  0  0  0  0  0  0
    6.5396    1.6883   84.8699 C   0  0  0  0  0  0  0  0  0  0  0  0
    7.0556    2.4248   82.6306 C   0  0  0  0  0  0  0  0  0  0  0  0
    6.3392    2.3600   86.0953 N   0  0  0  0  0  0  0  0  0  0  0  0
    6.5097    0.3905   84.5297 C   0  0  0  0  0  0  0  0  0  0  0  0
    7.0409    1.0479   82.2503 C   0  0  0  0  0  0  0  0  0  0  0  0
    6.7697    0.0094   83.2099 C   0  0  0  0  0  0  0  0  0  0  0  0
    8.2686    8.3236   84.1286 O   0  0  0  0  0  0  0  0  0  0  0  0
  2  1  1  1  0  0  0
  2  3  1  0  0  0  0
  2  6  1  0  0  0  0
  3  4  1  0  0  0  0
  3 16  1  0  0  0  0
  5 14  1  0  0  0  0
  6  7  1  0  0  0  0
  7  8  2  0  0  0  0
  7  9  1  0  0  0  0
  8 12  1  0  0  0  0
  9 10  2  0  0  0  0
  9 11  1  0  0  0  0
 10 13  1  0  0  0  0
 10 12  1  0  0  0  0
 11 14  2  0  0  0  0
 13 15  2  0  0  0  0
 14 15  1  0  0  0  0
M  END
>  <CHROM.1>
163.10288605,-68.84078598,66.73944383,7.32956155,3.82323862,83.97465687,0.90943452
1.18579962,0.78066785

>  <Name>
ligand

>  <RI>
0

>  <Rbt.Current_Directory>
/home/itssahil/PROJECTS/Mol_Feturizer/Test_systems_manuscript/rnas/5kpy

>  <Rbt.Executable>
rbdock ($Id: //depot/dev/client3/rdock/2013.1/src/exe/rbdock.cxx#4 $)

>  <Rbt.Library>
libRbt.so (2013.1, Build901 2013/11/27)

>  <Rbt.Parameter_File>
/export/apps/rDock/src/rDock_2013.1_src/data/scripts/dock_solv.prm

>  <Rbt.Receptor>
prm/pocket_docking_5.prm

>  <SCORE>
-19.91

>  <SCORE.INTER>
-19.9253

>  <SCORE.INTER.CONST>
1

>  <SCORE.INTER.POLAR>
0

>  <SCORE.INTER.ROT>
3

>  <SCORE.INTER.SOLV>
6.78465

>  <SCORE.INTER.VDW>
-21.1451

>  <SCORE.INTER.norm>
-1.24533

>  <SCORE.INTRA>
0.0152565

>  <SCORE.INTRA.DIHEDRAL>
0.239263

>  <SCORE.INTRA.DIHEDRAL.0>
3.89056

>  <SCORE.INTRA.POLAR>
0

>  <SCORE.INTRA.POLAR.0>
0

>  <SCORE.INTRA.REPUL>
0

>  <SCORE.INTRA.REPUL.0>
0

>  <SCORE.INTRA.SOLV>
-0.199797

>  <SCORE.INTRA.SOLV.lig_0>
-20.733

>  <SCORE.INTRA.VDW>
-0.00447653

>  <SCORE.INTRA.VDW.0>
-0.828515

>  <SCORE.INTRA.norm>
0.000953529

>  <SCORE.RESTR>
0

>  <SCORE.RESTR.CAVITY>
0

>  <SCORE.RESTR.norm>
0

>  <SCORE.SYSTEM>
0

>  <SCORE.SYSTEM.CONST>
0

>  <SCORE.SYSTEM.DIHEDRAL>
0

>  <SCORE.SYSTEM.SOLV>
0

>  <SCORE.SYSTEM.norm>
0

>  <SCORE.heavy>
16

>  <SCORE.norm>
-1.24438

>  <RMSD>
1.866

$$$$
ligand
 OpenBabel02271912153D
libRbt.so/2013.1/901 2013/11/27
 16 17  0  0  0  0  0  0  0  0999 V2000
    7.9745    6.3464   85.9712 N   0  0  0  0  0  0  0  0  0  0  0  0
    8.2042    5.9019   84.6382 C   0  0  2  0  0  0  0  0  0  0  0  0
    8.5773    7.0361   83.7248 C   0  0  0  0  0  0  0  0  0  0  0  0
    9.0182    6.7816   82.5776 O   0  0  0  0  0  0  0  0  0  0  0  0
    7.3490    0.6291   80.8921 O   0  0  0  0  0  0  0  0  0  0  0  0
    6.9823    5.2065   84.0877 C   0  0  0  0  0  0  0  0  0  0  0  0
    6.7433    3.8486   84.7040 C   0  0  0  0  0  0  0  0  0  0  0  0
    6.4246    3.6207   85.9824 C   0  0  0  0  0  0  0  0  0  0  0  0
    6.8174    2.6561   83.9131 C   0  0  0  0  0  0  0  0  0  0  0  0
    6.5083    1.6132   84.8285 C   0  0  0  0  0  0  0  0  0  0  0  0
    7.0860    2.3553   82.6061 C   0  0  0  0  0  0  0  0  0  0  0  0
    6.2859    2.2809   86.0523 N   0  0  0  0  0  0  0  0  0  0  0  0
    6.4722    0.3176   84.4807 C   0  0  0  0  0  0  0  0  0  0  0  0
    7.0652    0.9806   82.2182 C   0  0  0  0  0  0  0  0  0  0  0  0
    6.7597   -0.0596   83.1655 C   0  0  0  0  0  0  0  0  0  0  0  0
    8.4623    8.2166   84.1164 O   0  0  0  0  0  0  0  0  0  0  0  0
  2  1  1  1  0  0  0
  2  3  1  0  0  0  0
  2  6  1  0  0  0  0
  3  4  1  0  0  0  0
  3 16  1  0  0  0  0
  5 14  1  0  0  0  0
  6  7  1  0  0  0  0
  7  8  2  0  0  0  0
  7  9  1  0  0  0  0
  8 12  1  0  0  0  0
  9 10  2  0  0  0  0
  9 11  1  0  0  0  0
 10 13  1  0  0  0  0
 10 12  1  0  0  0  0
 11 14  2  0  0  0  0
 13 15  2  0  0  0  0
 14 15  1  0  0  0  0
M  END
>  <CHROM.1>
168.59313592,-71.94933235,65.86731372,7.34944040,3.73848932,83.95618785,0.93059963
1.15341375,0.76348579

>  <Name>
ligand

>  <RI>
0

>  <Rbt.Current_Directory>
/home/itssahil/PROJECTS/Mol_Feturizer/Test_systems_manuscript/rnas/5kpy

>  <Rbt.Executable>
rbdock ($Id: //depot/dev/client3/rdock/2013.1/src/exe/rbdock.cxx#4 $)

>  <Rbt.Library>
libRbt.so (2013.1, Build901 2013/11/27)

>  <Rbt.Parameter_File>
/export/apps/rDock/src/rDock_2013.1_src/data/scripts/dock_solv.prm

>  <Rbt.Receptor>
prm/pocket_docking_5.prm

>  <SCORE>
-19.8719

>  <SCORE.INTER>
-20.0251

>  <SCORE.INTER.CONST>
1

>  <SCORE.INTER.POLAR>
0

>  <SCORE.INTER.ROT>
3

>  <SCORE.INTER.SOLV>
6.79876

>  <SCORE.INTER.VDW>
-21.2163

>  <SCORE.INTER.norm>
-1.25157

>  <SCORE.INTRA>
0.153198

>  <SCORE.INTRA.DIHEDRAL>
0.47776

>  <SCORE.INTRA.DIHEDRAL.0>
3.89056

>  <SCORE.INTRA.POLAR>
0

>  <SCORE.INTRA.POLAR.0>
0

>  <SCORE.INTRA.REPUL>
0

>  <SCORE.INTRA.REPUL.0>
0

>  <SCORE.INTRA.SOLV>
-0.236291

>  <SCORE.INTRA.SOLV.lig_0>
-20.733

>  <SCORE.INTRA.VDW>
0.0324629

>  <SCORE.INTRA.VDW.0>
-0.828515

>  <SCORE.INTRA.norm>
0.00957486

>  <SCORE.RESTR>
0

>  <SCORE.RESTR.CAVITY>
0

>  <SCORE.RESTR.norm>
0

>  <SCORE.SYSTEM>
0

>  <SCORE.SYSTEM.CONST>
0

>  <SCORE.SYSTEM.DIHEDRAL>
0

>  <SCORE.SYSTEM.SOLV>
0

>  <SCORE.SYSTEM.norm>
0

>  <SCORE.heavy>
16

>  <SCORE.norm>
-1.242

>  <RMSD>
1.870

$$$$
ligand
 OpenBabel02271912153D
libRbt.so/2013.1/901 2013/11/27
 16 17  0  0  0  0  0  0  0  0999 V2000
    7.4209    6.5101   85.6143 N   0  0  0  0  0  0  0  0  0  0  0  0
    7.5520    6.0762   84.2646 C   0  0  2  0  0  0  0  0  0  0  0  0
    7.5309    7.2289   83.2999 C   0  0  0  0  0  0  0  0  0  0  0  0
    8.3847    7.2771   82.3813 O   0  0  0  0  0  0  0  0  0  0  0  0
    7.2163    0.4578   80.8923 O   0  0  0  0  0  0  0  0  0  0  0  0
    6.4492    5.1102   83.9033 C   0  0  0  0  0  0  0  0  0  0  0  0
    6.5699    3.7800   84.6081 C   0  0  0  0  0  0  0  0  0  0  0  0
    6.4932    3.5911   85.9297 C   0  0  0  0  0  0  0  0  0  0  0  0
    6.7551    2.5671   83.8682 C   0  0  0  0  0  0  0  0  0  0  0  0
    6.7912    1.5546   84.8656 C   0  0  0  0  0  0  0  0  0  0  0  0
    6.8811    2.2264   82.5496 C   0  0  0  0  0  0  0  0  0  0  0  0
    6.6271    2.2573   86.0789 N   0  0  0  0  0  0  0  0  0  0  0  0
    6.9547    0.2526   84.5846 C   0  0  0  0  0  0  0  0  0  0  0  0
    7.0687    0.8468   82.2301 C   0  0  0  0  0  0  0  0  0  0  0  0
    7.1125   -0.1601   83.2582 C   0  0  0  0  0  0  0  0  0  0  0  0
    6.6796    8.1340   83.4275 O   0  0  0  0  0  0  0  0  0  0  0  0
  2  1  1  1  0  0  0
  2  3  1  0  0  0  0
  2  6  1  0  0  0  0
  3  4  1  0  0  0  0
  3 16  1  0  0  0  0
  5 14  1  0  0  0  0
  6  7  1  0  0  0  0
  7  8  2  0  0  0  0
  7  9  1  0  0  0  0
  8 12  1  0  0  0  0
  9 10  2  0  0  0  0
  9 11  1  0  0  0  0
 10 13  1  0  0  0  0
 10 12  1  0  0  0  0
 11 14  2  0  0  0  0
 13 15  2  0  0  0  0
 14 15  1  0  0  0  0
M  END
>  <CHROM.1>
134.00466805,-69.13175223,63.58495428,7.04974001,3.74307535,83.80751214,1.23653317
1.37870322,0.41142472

>  <Name>
ligand

>  <RI>
0

>  <Rbt.Current_Directory>
/home/itssahil/PROJECTS/Mol_Feturizer/Test_systems_manuscript/rnas/5kpy

>  <Rbt.Executable>
rbdock ($Id: //depot/dev/client3/rdock/2013.1/src/exe/rbdock.cxx#4 $)

>  <Rbt.Library>
libRbt.so (2013.1, Build901 2013/11/27)

>  <Rbt.Parameter_File>
/export/apps/rDock/src/rDock_2013.1_src/data/scripts/dock_solv.prm

>  <Rbt.Receptor>
prm/pocket_docking_5.prm

>  <SCORE>
-19.6486

>  <SCORE.INTER>
-19.5427

>  <SCORE.INTER.CONST>
1

>  <SCORE.INTER.POLAR>
0

>  <SCORE.INTER.ROT>
3

>  <SCORE.INTER.SOLV>
5.22174

>  <SCORE.INTER.VDW>
-20.369

>  <SCORE.INTER.norm>
-1.22142

>  <SCORE.INTRA>
-0.105904

>  <SCORE.INTRA.DIHEDRAL>
0.242514

>  <SCORE.INTRA.DIHEDRAL.0>
3.89056

>  <SCORE.INTRA.POLAR>
0

>  <SCORE.INTRA.POLAR.0>
0

>  <SCORE.INTRA.REPUL>
0

>  <SCORE.INTRA.REPUL.0>
0

>  <SCORE.INTRA.SOLV>
-0.198248

>  <SCORE.INTRA.SOLV.lig_0>
-20.733

>  <SCORE.INTRA.VDW>
-0.128036

>  <SCORE.INTRA.VDW.0>
-0.828515

>  <SCORE.INTRA.norm>
-0.00661898

>  <SCORE.RESTR>
0

>  <SCORE.RESTR.CAVITY>
0

>  <SCORE.RESTR.norm>
0

>  <SCORE.SYSTEM>
0

>  <SCORE.SYSTEM.CONST>
0

>  <SCORE.SYSTEM.DIHEDRAL>
0

>  <SCORE.SYSTEM.SOLV>
0

>  <SCORE.SYSTEM.norm>
0

>  <SCORE.heavy>
16

>  <SCORE.norm>
-1.22804

>  <RMSD>
1.875

$$$$
ligand
 OpenBabel02271912153D
libRbt.so/2013.1/901 2013/11/27
 16 17  0  0  0  0  0  0  0  0999 V2000
    7.9878    6.4399   85.9685 N   0  0  0  0  0  0  0  0  0  0  0  0
    8.1861    6.0108   84.6255 C   0  0  2  0  0  0  0  0  0  0  0  0
    8.4937    7.1614   83.7083 C   0  0  0  0  0  0  0  0  0  0  0  0
    8.9422    6.9284   82.5594 O   0  0  0  0  0  0  0  0  0  0  0  0
    7.3302    0.6729   80.9600 O   0  0  0  0  0  0  0  0  0  0  0  0
    6.9682    5.2815   84.1111 C   0  0  0  0  0  0  0  0  0  0  0  0
    6.7727    3.9271   84.7498 C   0  0  0  0  0  0  0  0  0  0  0  0
    6.4951    3.7090   86.0395 C   0  0  0  0  0  0  0  0  0  0  0  0
    6.8468    2.7266   83.9711 C   0  0  0  0  0  0  0  0  0  0  0  0
    6.5838    1.6894   84.9072 C   0  0  0  0  0  0  0  0  0  0  0  0
    7.0836    2.4149   82.6606 C   0  0  0  0  0  0  0  0  0  0  0  0
    6.3839    2.3677   86.1290 N   0  0  0  0  0  0  0  0  0  0  0  0
    6.5624    0.3892   84.5758 C   0  0  0  0  0  0  0  0  0  0  0  0
    7.0778    1.0354   82.2896 C   0  0  0  0  0  0  0  0  0  0  0  0
    6.8193    0.0013   83.2574 C   0  0  0  0  0  0  0  0  0  0  0  0
    8.3176    8.3348   84.0983 O   0  0  0  0  0  0  0  0  0  0  0  0
  2  1  1  1  0  0  0
  2  3  1  0  0  0  0
  2  6  1  0  0  0  0
  3  4  1  0  0  0  0
  3 16  1  0  0  0  0
  5 14  1  0  0  0  0
  6  7  1  0  0  0  0
  7  8  2  0  0  0  0
  7  9  1  0  0  0  0
  8 12  1  0  0  0  0
  9 10  2  0  0  0  0
  9 11  1  0  0  0  0
 10 13  1  0  0  0  0
 10 12  1  0  0  0  0
 11 14  2  0  0  0  0
 13 15  2  0  0  0  0
 14 15  1  0  0  0  0
M  END
>  <CHROM.1>
166.43483815,-70.55289320,65.43312089,7.35264687,3.82454615,83.99475186,0.92200965
1.19041659,0.76291802

>  <Name>
ligand

>  <RI>
0

>  <Rbt.Current_Directory>
/home/itssahil/PROJECTS/Mol_Feturizer/Test_systems_manuscript/rnas/5kpy

>  <Rbt.Executable>
rbdock ($Id: //depot/dev/client3/rdock/2013.1/src/exe/rbdock.cxx#4 $)

>  <Rbt.Library>
libRbt.so (2013.1, Build901 2013/11/27)

>  <Rbt.Parameter_File>
/export/apps/rDock/src/rDock_2013.1_src/data/scripts/dock_solv.prm

>  <Rbt.Receptor>
prm/pocket_docking_5.prm

>  <SCORE>
-19.9552

>  <SCORE.INTER>
-20.0604

>  <SCORE.INTER.CONST>
1

>  <SCORE.INTER.POLAR>
0

>  <SCORE.INTER.ROT>
3

>  <SCORE.INTER.SOLV>
6.46169

>  <SCORE.INTER.VDW>
-21.1275

>  <SCORE.INTER.norm>
-1.25377

>  <SCORE.INTRA>
0.105208

>  <SCORE.INTRA.DIHEDRAL>
0.358827

>  <SCORE.INTRA.DIHEDRAL.0>
3.89056

>  <SCORE.INTRA.POLAR>
0

>  <SCORE.INTRA.POLAR.0>
0

>  <SCORE.INTRA.REPUL>
0

>  <SCORE.INTRA.REPUL.0>
0

>  <SCORE.INTRA.SOLV>
-0.215784

>  <SCORE.INTRA.SOLV.lig_0>
-20.733

>  <SCORE.INTRA.VDW>
0.0336862

>  <SCORE.INTRA.VDW.0>
-0.828515

>  <SCORE.INTRA.norm>
0.0065755

>  <SCORE.RESTR>
0

>  <SCORE.RESTR.CAVITY>
0

>  <SCORE.RESTR.norm>
0

>  <SCORE.SYSTEM>
0

>  <SCORE.SYSTEM.CONST>
0

>  <SCORE.SYSTEM.DIHEDRAL>
0

>  <SCORE.SYSTEM.SOLV>
0

>  <SCORE.SYSTEM.norm>
0

>  <SCORE.heavy>
16

>  <SCORE.norm>
-1.2472

>  <RMSD>
1.883

$$$$
ligand
 OpenBabel02271912153D
libRbt.so/2013.1/901 2013/11/27
 16 17  0  0  0  0  0  0  0  0999 V2000
    7.0052    7.5035   84.9061 N   0  0  0  0  0  0  0  0  0  0  0  0
    7.4330    6.1627   84.6908 C   0  0  2  0  0  0  0  0  0  0  0  0
    8.3620    6.0520   83.5141 C   0  0  0  0  0  0  0  0  0  0  0  0
    8.8472    7.0959   83.0139 O   0  0  0  0  0  0  0  0  0  0  0  0
    7.2778    1.1535   80.8050 O   0  0  0  0  0  0  0  0  0  0  0  0
    6.2491    5.2515   84.4721 C   0  0  0  0  0  0  0  0  0  0  0  0
    6.4804    3.8459   84.9737 C   0  0  0  0  0  0  0  0  0  0  0  0
    6.4474    3.4626   86.2543 C   0  0  0  0  0  0  0  0  0  0  0  0
    6.7349    2.7700   84.0624 C   0  0  0  0  0  0  0  0  0  0  0  0
    6.8658    1.6292   84.9007 C   0  0  0  0  0  0  0  0  0  0  0  0
    6.8549    2.6340   82.7067 C   0  0  0  0  0  0  0  0  0  0  0  0
    6.6795    2.1349   86.2056 N   0  0  0  0  0  0  0  0  0  0  0  0
    7.1154    0.3973   84.4307 C   0  0  0  0  0  0  0  0  0  0  0  0
    7.1332    1.3328   82.1870 C   0  0  0  0  0  0  0  0  0  0  0  0
    7.2721    0.1937   83.0564 C   0  0  0  0  0  0  0  0  0  0  0  0
    8.6308    4.9305   83.0345 O   0  0  0  0  0  0  0  0  0  0  0  0
  2  1  1  6  0  0  0
  2  3  1  0  0  0  0
  2  6  1  0  0  0  0
  3  4  1  0  0  0  0
  3 16  1  0  0  0  0
  5 14  1  0  0  0  0
  6  7  1  0  0  0  0
  7  8  2  0  0  0  0
  7  9  1  0  0  0  0
  8 12  1  0  0  0  0
  9 10  2  0  0  0  0
  9 11  1  0  0  0  0
 10 13  1  0  0  0  0
 10 12  1  0  0  0  0
 11 14  2  0  0  0  0
 13 15  2  0  0  0  0
 14 15  1  0  0  0  0
M  END
>  <CHROM.1>
12.52051734,-148.47930411,76.47646944,7.25562559,3.63630171,83.89528570,1.21967512
1.18946397,0.49001134

>  <Name>
ligand

>  <RI>
0

>  <Rbt.Current_Directory>
/home/itssahil/PROJECTS/Mol_Feturizer/Test_systems_manuscript/rnas/5kpy

>  <Rbt.Executable>
rbdock ($Id: //depot/dev/client3/rdock/2013.1/src/exe/rbdock.cxx#4 $)

>  <Rbt.Library>
libRbt.so (2013.1, Build901 2013/11/27)

>  <Rbt.Parameter_File>
/export/apps/rDock/src/rDock_2013.1_src/data/scripts/dock_solv.prm

>  <Rbt.Receptor>
prm/pocket_docking_2.prm

>  <SCORE>
-18.5702

>  <SCORE.INTER>
-19.5255

>  <SCORE.INTER.CONST>
1

>  <SCORE.INTER.POLAR>
0

>  <SCORE.INTER.ROT>
3

>  <SCORE.INTER.SOLV>
4.17714

>  <SCORE.INTER.VDW>
-20.0094

>  <SCORE.INTER.norm>
-1.22035

>  <SCORE.INTRA>
0.954044

>  <SCORE.INTRA.DIHEDRAL>
3.04904

>  <SCORE.INTRA.DIHEDRAL.0>
3.89056

>  <SCORE.INTRA.POLAR>
0

>  <SCORE.INTRA.POLAR.0>
0

>  <SCORE.INTRA.REPUL>
0

>  <SCORE.INTRA.REPUL.0>
0

>  <SCORE.INTRA.SOLV>
-1.12596

>  <SCORE.INTRA.SOLV.lig_0>
-20.733

>  <SCORE.INTRA.VDW>
-0.00749531

>  <SCORE.INTRA.VDW.0>
-0.828515

>  <SCORE.INTRA.norm>
0.0596277

>  <SCORE.RESTR>
0.00128969

>  <SCORE.RESTR.CAVITY>
0.00128969

>  <SCORE.RESTR.norm>
8.06057e-05

>  <SCORE.SYSTEM>
0

>  <SCORE.SYSTEM.CONST>
0

>  <SCORE.SYSTEM.DIHEDRAL>
0

>  <SCORE.SYSTEM.SOLV>
0

>  <SCORE.SYSTEM.norm>
0

>  <SCORE.heavy>
16

>  <SCORE.norm>
-1.16064

>  <RMSD>
1.896

$$$$
ligand
 OpenBabel02271912153D
libRbt.so/2013.1/901 2013/11/27
 16 17  0  0  0  0  0  0  0  0999 V2000
    6.9964    7.5112   84.9146 N   0  0  0  0  0  0  0  0  0  0  0  0
    7.4334    6.1732   84.7006 C   0  0  2  0  0  0  0  0  0  0  0  0
    8.3650    6.0681   83.5255 C   0  0  0  0  0  0  0  0  0  0  0  0
    8.6191    4.9381   83.0418 O   0  0  0  0  0  0  0  0  0  0  0  0
    7.2647    1.1464   80.8187 O   0  0  0  0  0  0  0  0  0  0  0  0
    6.2559    5.2541   84.4805 C   0  0  0  0  0  0  0  0  0  0  0  0
    6.4950    3.8508   84.9848 C   0  0  0  0  0  0  0  0  0  0  0  0
    6.4735    3.4717   86.2669 C   0  0  0  0  0  0  0  0  0  0  0  0
    6.7447    2.7724   84.0751 C   0  0  0  0  0  0  0  0  0  0  0  0
    6.8854    1.6348   84.9161 C   0  0  0  0  0  0  0  0  0  0  0  0
    6.8537    2.6322   82.7189 C   0  0  0  0  0  0  0  0  0  0  0  0
    6.7087    2.1444   86.2208 N   0  0  0  0  0  0  0  0  0  0  0  0
    7.1343    0.4020   84.4482 C   0  0  0  0  0  0  0  0  0  0  0  0
    7.1311    1.3300   82.2013 C   0  0  0  0  0  0  0  0  0  0  0  0
    7.2801    0.1941   83.0733 C   0  0  0  0  0  0  0  0  0  0  0  0
    8.8897    7.0975   83.0510 O   0  0  0  0  0  0  0  0  0  0  0  0
  2  1  1  6  0  0  0
  2  3  1  0  0  0  0
  2  6  1  0  0  0  0
  3  4  1  0  0  0  0
  3 16  1  0  0  0  0
  5 14  1  0  0  0  0
  6  7  1  0  0  0  0
  7  8  2  0  0  0  0
  7  9  1  0  0  0  0
  8 12  1  0  0  0  0
  9 10  2  0  0  0  0
  9 11  1  0  0  0  0
 10 13  1  0  0  0  0
 10 12  1  0  0  0  0
 11 14  2  0  0  0  0
 13 15  2  0  0  0  0
 14 15  1  0  0  0  0
M  END
>  <CHROM.1>
-165.56087468,-148.39906674,75.81567075,7.26429574,3.64057870,83.90947874
1.21565259,1.19321925,0.49571936

>  <Name>
ligand

>  <RI>
0

>  <Rbt.Current_Directory>
/home/itssahil/PROJECTS/Mol_Feturizer/Test_systems_manuscript/rnas/5kpy

>  <Rbt.Executable>
rbdock ($Id: //depot/dev/client3/rdock/2013.1/src/exe/rbdock.cxx#4 $)

>  <Rbt.Library>
libRbt.so (2013.1, Build901 2013/11/27)

>  <Rbt.Parameter_File>
/export/apps/rDock/src/rDock_2013.1_src/data/scripts/dock_solv.prm

>  <Rbt.Receptor>
prm/pocket_docking_2.prm

>  <SCORE>
-18.561

>  <SCORE.INTER>
-19.5411

>  <SCORE.INTER.CONST>
1

>  <SCORE.INTER.POLAR>
0

>  <SCORE.INTER.ROT>
3

>  <SCORE.INTER.SOLV>
4.19151

>  <SCORE.INTER.VDW>
-20.0246

>  <SCORE.INTER.norm>
-1.22132

>  <SCORE.INTRA>
0.980102

>  <SCORE.INTRA.DIHEDRAL>
3.01738

>  <SCORE.INTRA.DIHEDRAL.0>
3.89056

>  <SCORE.INTRA.POLAR>
0

>  <SCORE.INTRA.POLAR.0>
0

>  <SCORE.INTRA.REPUL>
0

>  <SCORE.INTRA.REPUL.0>
0

>  <SCORE.INTRA.SOLV>
-1.13507

>  <SCORE.INTRA.SOLV.lig_0>
-20.733

>  <SCORE.INTRA.VDW>
0.0389482

>  <SCORE.INTRA.VDW.0>
-0.828515

>  <SCORE.INTRA.norm>
0.0612564

>  <SCORE.RESTR>
0

>  <SCORE.RESTR.CAVITY>
0

>  <SCORE.RESTR.norm>
0

>  <SCORE.SYSTEM>
0

>  <SCORE.SYSTEM.CONST>
0

>  <SCORE.SYSTEM.DIHEDRAL>
0

>  <SCORE.SYSTEM.SOLV>
0

>  <SCORE.SYSTEM.norm>
0

>  <SCORE.heavy>
16

>  <SCORE.norm>
-1.16006

>  <RMSD>
1.899

$$$$
ligand
 OpenBabel02271912153D
libRbt.so/2013.1/901 2013/11/27
 16 17  0  0  0  0  0  0  0  0999 V2000
    7.0013    7.5100   84.9153 N   0  0  0  0  0  0  0  0  0  0  0  0
    7.4364    6.1717   84.6993 C   0  0  2  0  0  0  0  0  0  0  0  0
    8.3632    6.0662   83.5204 C   0  0  0  0  0  0  0  0  0  0  0  0
    8.6129    4.9363   83.0343 O   0  0  0  0  0  0  0  0  0  0  0  0
    7.2655    1.1518   80.8151 O   0  0  0  0  0  0  0  0  0  0  0  0
    6.2573    5.2536   84.4837 C   0  0  0  0  0  0  0  0  0  0  0  0
    6.4977    3.8497   84.9858 C   0  0  0  0  0  0  0  0  0  0  0  0
    6.4777    3.4687   86.2674 C   0  0  0  0  0  0  0  0  0  0  0  0
    6.7473    2.7728   84.0742 C   0  0  0  0  0  0  0  0  0  0  0  0
    6.8895    1.6341   84.9135 C   0  0  0  0  0  0  0  0  0  0  0  0
    6.8553    2.6346   82.7178 C   0  0  0  0  0  0  0  0  0  0  0  0
    6.7137    2.1416   86.2191 N   0  0  0  0  0  0  0  0  0  0  0  0
    7.1388    0.4020   84.4436 C   0  0  0  0  0  0  0  0  0  0  0  0
    7.1330    1.3333   82.1980 C   0  0  0  0  0  0  0  0  0  0  0  0
    7.2835    0.1963   83.0683 C   0  0  0  0  0  0  0  0  0  0  0  0
    8.8884    7.0951   83.0453 O   0  0  0  0  0  0  0  0  0  0  0  0
  2  1  1  6  0  0  0
  2  3  1  0  0  0  0
  2  6  1  0  0  0  0
  3  4  1  0  0  0  0
  3 16  1  0  0  0  0
  5 14  1  0  0  0  0
  6  7  1  0  0  0  0
  7  8  2  0  0  0  0
  7  9  1  0  0  0  0
  8 12  1  0  0  0  0
  9 10  2  0  0  0  0
  9 11  1  0  0  0  0
 10 13  1  0  0  0  0
 10 12  1  0  0  0  0
 11 14  2  0  0  0  0
 13 15  2  0  0  0  0
 14 15  1  0  0  0  0
M  END
>  <CHROM.1>
-165.45494661,-148.44332325,76.03646446,7.26604831,3.64037435,83.90707396
1.21534224,1.19486494,0.49635443

>  <Name>
ligand

>  <RI>
0

>  <Rbt.Current_Directory>
/home/itssahil/PROJECTS/Mol_Feturizer/Test_systems_manuscript/rnas/5kpy

>  <Rbt.Executable>
rbdock ($Id: //depot/dev/client3/rdock/2013.1/src/exe/rbdock.cxx#4 $)

>  <Rbt.Library>
libRbt.so (2013.1, Build901 2013/11/27)

>  <Rbt.Parameter_File>
/export/apps/rDock/src/rDock_2013.1_src/data/scripts/dock_solv.prm

>  <Rbt.Receptor>
prm/pocket_docking_2.prm

>  <SCORE>
-18.5583

>  <SCORE.INTER>
-19.5427

>  <SCORE.INTER.CONST>
1

>  <SCORE.INTER.POLAR>
0

>  <SCORE.INTER.ROT>
3

>  <SCORE.INTER.SOLV>
4.19143

>  <SCORE.INTER.VDW>
-20.0256

>  <SCORE.INTER.norm>
-1.22142

>  <SCORE.INTRA>
0.984431

>  <SCORE.INTRA.DIHEDRAL>
3.01123

>  <SCORE.INTRA.DIHEDRAL.0>
3.89056

>  <SCORE.INTRA.POLAR>
0

>  <SCORE.INTRA.POLAR.0>
0

>  <SCORE.INTRA.REPUL>
0

>  <SCORE.INTRA.REPUL.0>
0

>  <SCORE.INTRA.SOLV>
-1.13515

>  <SCORE.INTRA.SOLV.lig_0>
-20.733

>  <SCORE.INTRA.VDW>
0.0463884

>  <SCORE.INTRA.VDW.0>
-0.828515

>  <SCORE.INTRA.norm>
0.0615269

>  <SCORE.RESTR>
0

>  <SCORE.RESTR.CAVITY>
0

>  <SCORE.RESTR.norm>
0

>  <SCORE.SYSTEM>
0

>  <SCORE.SYSTEM.CONST>
0

>  <SCORE.SYSTEM.DIHEDRAL>
0

>  <SCORE.SYSTEM.SOLV>
0

>  <SCORE.SYSTEM.norm>
0

>  <SCORE.heavy>
16

>  <SCORE.norm>
-1.15989

>  <RMSD>
1.900

$$$$
ligand
 OpenBabel02271912153D
libRbt.so/2013.1/901 2013/11/27
 16 17  0  0  0  0  0  0  0  0999 V2000
    7.1427    6.5012   85.6900 N   0  0  0  0  0  0  0  0  0  0  0  0
    7.3115    6.1175   84.3294 C   0  0  2  0  0  0  0  0  0  0  0  0
    7.1771    7.2878   83.3955 C   0  0  0  0  0  0  0  0  0  0  0  0
    6.2102    8.0761   83.5333 O   0  0  0  0  0  0  0  0  0  0  0  0
    7.2323    0.3474   81.0726 O   0  0  0  0  0  0  0  0  0  0  0  0
    6.3061    5.0596   83.9427 C   0  0  0  0  0  0  0  0  0  0  0  0
    6.4945    3.7599   84.6883 C   0  0  0  0  0  0  0  0  0  0  0  0
    6.4447    3.6117   86.0163 C   0  0  0  0  0  0  0  0  0  0  0  0
    6.7218    2.5323   83.9854 C   0  0  0  0  0  0  0  0  0  0  0  0
    6.8160    1.5558   85.0144 C   0  0  0  0  0  0  0  0  0  0  0  0
    6.8438    2.1539   82.6767 C   0  0  0  0  0  0  0  0  0  0  0  0
    6.6387    2.2906   86.2067 N   0  0  0  0  0  0  0  0  0  0  0  0
    7.0320    0.2535   84.7733 C   0  0  0  0  0  0  0  0  0  0  0  0
    7.0868    0.7738   82.3993 C   0  0  0  0  0  0  0  0  0  0  0  0
    7.1888   -0.1958   83.4587 C   0  0  0  0  0  0  0  0  0  0  0  0
    8.0138    7.4581   82.4839 O   0  0  0  0  0  0  0  0  0  0  0  0
  2  1  1  1  0  0  0
  2  3  1  0  0  0  0
  2  6  1  0  0  0  0
  3  4  1  0  0  0  0
  3 16  1  0  0  0  0
  5 14  1  0  0  0  0
  6  7  1  0  0  0  0
  7  8  2  0  0  0  0
  7  9  1  0  0  0  0
  8 12  1  0  0  0  0
  9 10  2  0  0  0  0
  9 11  1  0  0  0  0
 10 13  1  0  0  0  0
 10 12  1  0  0  0  0
 11 14  2  0  0  0  0
 13 15  2  0  0  0  0
 14 15  1  0  0  0  0
M  END
>  <CHROM.1>
-47.32044321,-64.89421901,59.42557672,6.92524677,3.73605762,83.92612033,1.54963323
1.41718713,0.09132852

>  <Name>
ligand

>  <RI>
0

>  <Rbt.Current_Directory>
/home/itssahil/PROJECTS/Mol_Feturizer/Test_systems_manuscript/rnas/5kpy

>  <Rbt.Executable>
rbdock ($Id: //depot/dev/client3/rdock/2013.1/src/exe/rbdock.cxx#4 $)

>  <Rbt.Library>
libRbt.so (2013.1, Build901 2013/11/27)

>  <Rbt.Parameter_File>
/export/apps/rDock/src/rDock_2013.1_src/data/scripts/dock_solv.prm

>  <Rbt.Receptor>
prm/pocket_docking_3.prm

>  <SCORE>
-19.5928

>  <SCORE.INTER>
-19.4727

>  <SCORE.INTER.CONST>
1

>  <SCORE.INTER.POLAR>
0

>  <SCORE.INTER.ROT>
3

>  <SCORE.INTER.SOLV>
4.81764

>  <SCORE.INTER.VDW>
-20.1877

>  <SCORE.INTER.norm>
-1.21704

>  <SCORE.INTRA>
-0.120036

>  <SCORE.INTRA.DIHEDRAL>
-0.0552424

>  <SCORE.INTRA.DIHEDRAL.0>
3.89056

>  <SCORE.INTRA.POLAR>
0

>  <SCORE.INTRA.POLAR.0>
0

>  <SCORE.INTRA.REPUL>
0

>  <SCORE.INTRA.REPUL.0>
0

>  <SCORE.INTRA.SOLV>
-0.126989

>  <SCORE.INTRA.SOLV.lig_0>
-20.733

>  <SCORE.INTRA.VDW>
-0.0289202

>  <SCORE.INTRA.VDW.0>
-0.828515

>  <SCORE.INTRA.norm>
-0.00750225

>  <SCORE.RESTR>
0

>  <SCORE.RESTR.CAVITY>
0

>  <SCORE.RESTR.norm>
0

>  <SCORE.SYSTEM>
0

>  <SCORE.SYSTEM.CONST>
0

>  <SCORE.SYSTEM.DIHEDRAL>
0

>  <SCORE.SYSTEM.SOLV>
0

>  <SCORE.SYSTEM.norm>
0

>  <SCORE.heavy>
16

>  <SCORE.norm>
-1.22455

>  <RMSD>
1.901

$$$$
ligand
 OpenBabel02271912153D
libRbt.so/2013.1/901 2013/11/27
 16 17  0  0  0  0  0  0  0  0999 V2000
    6.9987    7.5038   84.9079 N   0  0  0  0  0  0  0  0  0  0  0  0
    7.4225    6.1639   84.6792 C   0  0  2  0  0  0  0  0  0  0  0  0
    8.3342    6.0591   83.4886 C   0  0  0  0  0  0  0  0  0  0  0  0
    8.5860    4.9286   83.0051 O   0  0  0  0  0  0  0  0  0  0  0  0
    7.2762    1.1589   80.8068 O   0  0  0  0  0  0  0  0  0  0  0  0
    6.2349    5.2546   84.4728 C   0  0  0  0  0  0  0  0  0  0  0  0
    6.4682    3.8494   84.9746 C   0  0  0  0  0  0  0  0  0  0  0  0
    6.4342    3.4659   86.2551 C   0  0  0  0  0  0  0  0  0  0  0  0
    6.7259    2.7740   84.0636 C   0  0  0  0  0  0  0  0  0  0  0  0
    6.8578    1.6334   84.9020 C   0  0  0  0  0  0  0  0  0  0  0  0
    6.8480    2.6384   82.7080 C   0  0  0  0  0  0  0  0  0  0  0  0
    6.6689    2.1386   86.2066 N   0  0  0  0  0  0  0  0  0  0  0  0
    7.1104    0.4020   84.4322 C   0  0  0  0  0  0  0  0  0  0  0  0
    7.1295    1.3378   82.1886 C   0  0  0  0  0  0  0  0  0  0  0  0
    7.2693    0.1988   83.0581 C   0  0  0  0  0  0  0  0  0  0  0  0
    8.8451    7.0894   83.0011 O   0  0  0  0  0  0  0  0  0  0  0  0
  2  1  1  6  0  0  0
  2  3  1  0  0  0  0
  2  6  1  0  0  0  0
  3  4  1  0  0  0  0
  3 16  1  0  0  0  0
  5 14  1  0  0  0  0
  6  7  1  0  0  0  0
  7  8  2  0  0  0  0
  7  9  1  0  0  0  0
  8 12  1  0  0  0  0
  9 10  2  0  0  0  0
  9 11  1  0  0  0  0
 10 13  1  0  0  0  0
 10 12  1  0  0  0  0
 11 14  2  0  0  0  0
 13 15  2  0  0  0  0
 14 15  1  0  0  0  0
M  END
>  <CHROM.1>
-166.47579608,-147.96425183,77.12027247,7.24418768,3.63896107,83.89087281
1.22333175,1.19058879,0.48421714

>  <Name>
ligand

>  <RI>
0

>  <Rbt.Current_Directory>
/home/itssahil/PROJECTS/Mol_Feturizer/Test_systems_manuscript/rnas/5kpy

>  <Rbt.Executable>
rbdock ($Id: //depot/dev/client3/rdock/2013.1/src/exe/rbdock.cxx#4 $)

>  <Rbt.Library>
libRbt.so (2013.1, Build901 2013/11/27)

>  <Rbt.Parameter_File>
/export/apps/rDock/src/rDock_2013.1_src/data/scripts/dock_solv.prm

>  <Rbt.Receptor>
prm/pocket_docking_2.prm

>  <SCORE>
-18.5993

>  <SCORE.INTER>
-19.589

>  <SCORE.INTER.CONST>
1

>  <SCORE.INTER.POLAR>
0

>  <SCORE.INTER.ROT>
3

>  <SCORE.INTER.SOLV>
4.15835

>  <SCORE.INTER.VDW>
-20.0454

>  <SCORE.INTER.norm>
-1.22431

>  <SCORE.INTRA>
0.989656

>  <SCORE.INTRA.DIHEDRAL>
3.08836

>  <SCORE.INTRA.DIHEDRAL.0>
3.89056

>  <SCORE.INTRA.POLAR>
0

>  <SCORE.INTRA.POLAR.0>
0

>  <SCORE.INTRA.REPUL>
0

>  <SCORE.INTRA.REPUL.0>
0

>  <SCORE.INTRA.SOLV>
-1.13306

>  <SCORE.INTRA.SOLV.lig_0>
-20.733

>  <SCORE.INTRA.VDW>
0.0120048

>  <SCORE.INTRA.VDW.0>
-0.828515

>  <SCORE.INTRA.norm>
0.0618535

>  <SCORE.RESTR>
0

>  <SCORE.RESTR.CAVITY>
0

>  <SCORE.RESTR.norm>
0

>  <SCORE.SYSTEM>
0

>  <SCORE.SYSTEM.CONST>
0

>  <SCORE.SYSTEM.DIHEDRAL>
0

>  <SCORE.SYSTEM.SOLV>
0

>  <SCORE.SYSTEM.norm>
0

>  <SCORE.heavy>
16

>  <SCORE.norm>
-1.16246

>  <RMSD>
1.902

$$$$
ligand
 OpenBabel02271912153D
libRbt.so/2013.1/901 2013/11/27
 16 17  0  0  0  0  0  0  0  0999 V2000
    7.0010    7.5028   84.9015 N   0  0  0  0  0  0  0  0  0  0  0  0
    7.4279    6.1610   84.6911 C   0  0  2  0  0  0  0  0  0  0  0  0
    8.3422    6.0426   83.5037 C   0  0  0  0  0  0  0  0  0  0  0  0
    8.8377    7.0816   83.0036 O   0  0  0  0  0  0  0  0  0  0  0  0
    7.2608    1.1532   80.8192 O   0  0  0  0  0  0  0  0  0  0  0  0
    6.2427    5.2466   84.4943 C   0  0  0  0  0  0  0  0  0  0  0  0
    6.4860    3.8424   84.9941 C   0  0  0  0  0  0  0  0  0  0  0  0
    6.4665    3.4593   86.2751 C   0  0  0  0  0  0  0  0  0  0  0  0
    6.7382    2.7676   84.0809 C   0  0  0  0  0  0  0  0  0  0  0  0
    6.8827    1.6278   84.9183 C   0  0  0  0  0  0  0  0  0  0  0  0
    6.8468    2.6319   82.7242 C   0  0  0  0  0  0  0  0  0  0  0  0
    6.7054    2.1327   86.2246 N   0  0  0  0  0  0  0  0  0  0  0  0
    7.1348    0.3971   84.4463 C   0  0  0  0  0  0  0  0  0  0  0  0
    7.1276    1.3321   82.2023 C   0  0  0  0  0  0  0  0  0  0  0  0
    7.2803    0.1940   83.0708 C   0  0  0  0  0  0  0  0  0  0  0  0
    8.5887    4.9197   83.0154 O   0  0  0  0  0  0  0  0  0  0  0  0
  2  1  1  6  0  0  0
  2  3  1  0  0  0  0
  2  6  1  0  0  0  0
  3  4  1  0  0  0  0
  3 16  1  0  0  0  0
  5 14  1  0  0  0  0
  6  7  1  0  0  0  0
  7  8  2  0  0  0  0
  7  9  1  0  0  0  0
  8 12  1  0  0  0  0
  9 10  2  0  0  0  0
  9 11  1  0  0  0  0
 10 13  1  0  0  0  0
 10 12  1  0  0  0  0
 11 14  2  0  0  0  0
 13 15  2  0  0  0  0
 14 15  1  0  0  0  0
M  END
>  <CHROM.1>
13.72691846,-148.91776586,76.98756771,7.25333479,3.63243138,83.90396020,1.21896587
1.19982472,0.48857877

>  <Name>
ligand

>  <RI>
0

>  <Rbt.Current_Directory>
/home/itssahil/PROJECTS/Mol_Feturizer/Test_systems_manuscript/rnas/5kpy

>  <Rbt.Executable>
rbdock ($Id: //depot/dev/client3/rdock/2013.1/src/exe/rbdock.cxx#4 $)

>  <Rbt.Library>
libRbt.so (2013.1, Build901 2013/11/27)

>  <Rbt.Parameter_File>
/export/apps/rDock/src/rDock_2013.1_src/data/scripts/dock_solv.prm

>  <Rbt.Receptor>
prm/pocket_docking_2.prm

>  <SCORE>
-18.5786

>  <SCORE.INTER>
-19.5319

>  <SCORE.INTER.CONST>
1

>  <SCORE.INTER.POLAR>
0

>  <SCORE.INTER.ROT>
3

>  <SCORE.INTER.SOLV>
4.18615

>  <SCORE.INTER.VDW>
-20.0166

>  <SCORE.INTER.norm>
-1.22074

>  <SCORE.INTRA>
0.951404

>  <SCORE.INTRA.DIHEDRAL>
2.98562

>  <SCORE.INTRA.DIHEDRAL.0>
3.89056

>  <SCORE.INTRA.POLAR>
0

>  <SCORE.INTRA.POLAR.0>
0

>  <SCORE.INTRA.REPUL>
0

>  <SCORE.INTRA.REPUL.0>
0

>  <SCORE.INTRA.SOLV>
-1.12721

>  <SCORE.INTRA.SOLV.lig_0>
-20.733

>  <SCORE.INTRA.VDW>
0.0221989

>  <SCORE.INTRA.VDW.0>
-0.828515

>  <SCORE.INTRA.norm>
0.0594628

>  <SCORE.RESTR>
0.00185422

>  <SCORE.RESTR.CAVITY>
0.00185422

>  <SCORE.RESTR.norm>
0.000115889

>  <SCORE.SYSTEM>
0

>  <SCORE.SYSTEM.CONST>
0

>  <SCORE.SYSTEM.DIHEDRAL>
0

>  <SCORE.SYSTEM.SOLV>
0

>  <SCORE.SYSTEM.norm>
0

>  <SCORE.heavy>
16

>  <SCORE.norm>
-1.16116

>  <RMSD>
1.904

$$$$
ligand
 OpenBabel02271912153D
libRbt.so/2013.1/901 2013/11/27
 16 17  0  0  0  0  0  0  0  0999 V2000
    7.0167    7.5180   84.9332 N   0  0  0  0  0  0  0  0  0  0  0  0
    7.4363    6.1750   84.7153 C   0  0  2  0  0  0  0  0  0  0  0  0
    8.3440    6.0571   83.5228 C   0  0  0  0  0  0  0  0  0  0  0  0
    8.8302    7.0969   83.0154 O   0  0  0  0  0  0  0  0  0  0  0  0
    6.9839    1.1842   80.7680 O   0  0  0  0  0  0  0  0  0  0  0  0
    6.2458    5.2670   84.5211 C   0  0  0  0  0  0  0  0  0  0  0  0
    6.4914    3.8550   84.9973 C   0  0  0  0  0  0  0  0  0  0  0  0
    6.5365    3.4626   86.2748 C   0  0  0  0  0  0  0  0  0  0  0  0
    6.6730    2.7828   84.0643 C   0  0  0  0  0  0  0  0  0  0  0  0
    6.8435    1.6344   84.8849 C   0  0  0  0  0  0  0  0  0  0  0  0
    6.7034    2.6555   82.7029 C   0  0  0  0  0  0  0  0  0  0  0  0
    6.7484    2.1325   86.2023 N   0  0  0  0  0  0  0  0  0  0  0  0
    7.0468    0.4031   84.3915 C   0  0  0  0  0  0  0  0  0  0  0  0
    6.9313    1.3550   82.1576 C   0  0  0  0  0  0  0  0  0  0  0  0
    7.1117    0.2078   83.0087 C   0  0  0  0  0  0  0  0  0  0  0  0
    8.5940    4.9336   83.0375 O   0  0  0  0  0  0  0  0  0  0  0  0
  2  1  1  6  0  0  0
  2  3  1  0  0  0  0
  2  6  1  0  0  0  0
  3  4  1  0  0  0  0
  3 16  1  0  0  0  0
  5 14  1  0  0  0  0
  6  7  1  0  0  0  0
  7  8  2  0  0  0  0
  7  9  1  0  0  0  0
  8 12  1  0  0  0  0
  9 10  2  0  0  0  0
  9 11  1  0  0  0  0
 10 13  1  0  0  0  0
 10 12  1  0  0  0  0
 11 14  2  0  0  0  0
 13 15  2  0  0  0  0
 14 15  1  0  0  0  0
M  END
>  <CHROM.1>
12.96557873,-149.68193617,74.36680074,7.20134948,3.64695731,83.89455724,1.10043658
1.22725857,0.62111811

>  <Name>
ligand

>  <RI>
0

>  <Rbt.Current_Directory>
/home/itssahil/PROJECTS/Mol_Feturizer/Test_systems_manuscript/rnas/5kpy

>  <Rbt.Executable>
rbdock ($Id: //depot/dev/client3/rdock/2013.1/src/exe/rbdock.cxx#4 $)

>  <Rbt.Library>
libRbt.so (2013.1, Build901 2013/11/27)

>  <Rbt.Parameter_File>
/export/apps/rDock/src/rDock_2013.1_src/data/scripts/dock_solv.prm

>  <Rbt.Receptor>
prm/pocket_docking_2.prm

>  <SCORE>
-18.3407

>  <SCORE.INTER>
-19.1925

>  <SCORE.INTER.CONST>
1

>  <SCORE.INTER.POLAR>
0

>  <SCORE.INTER.ROT>
3

>  <SCORE.INTER.SOLV>
4.3602

>  <SCORE.INTER.VDW>
-19.8484

>  <SCORE.INTER.norm>
-1.19953

>  <SCORE.INTRA>
0.85178

>  <SCORE.INTRA.DIHEDRAL>
2.86022

>  <SCORE.INTRA.DIHEDRAL.0>
3.89056

>  <SCORE.INTRA.POLAR>
0

>  <SCORE.INTRA.POLAR.0>
0

>  <SCORE.INTRA.REPUL>
0

>  <SCORE.INTRA.REPUL.0>
0

>  <SCORE.INTRA.SOLV>
-1.13019

>  <SCORE.INTRA.SOLV.lig_0>
-20.733

>  <SCORE.INTRA.VDW>
-0.0132375

>  <SCORE.INTRA.VDW.0>
-0.828515

>  <SCORE.INTRA.norm>
0.0532363

>  <SCORE.RESTR>
0

>  <SCORE.RESTR.CAVITY>
0

>  <SCORE.RESTR.norm>
0

>  <SCORE.SYSTEM>
0

>  <SCORE.SYSTEM.CONST>
0

>  <SCORE.SYSTEM.DIHEDRAL>
0

>  <SCORE.SYSTEM.SOLV>
0

>  <SCORE.SYSTEM.norm>
0

>  <SCORE.heavy>
16

>  <SCORE.norm>
-1.14629

>  <RMSD>
1.909

$$$$
ligand
 OpenBabel02271912153D
libRbt.so/2013.1/901 2013/11/27
 16 17  0  0  0  0  0  0  0  0999 V2000
    8.3097    6.2954   85.5184 N   0  0  0  0  0  0  0  0  0  0  0  0
    8.1319    5.8932   84.1643 C   0  0  2  0  0  0  0  0  0  0  0  0
    8.2562    7.0513   83.2139 C   0  0  0  0  0  0  0  0  0  0  0  0
    8.8042    6.8748   82.0987 O   0  0  0  0  0  0  0  0  0  0  0  0
    7.3097    0.5955   80.8976 O   0  0  0  0  0  0  0  0  0  0  0  0
    6.7844    5.2397   83.9724 C   0  0  0  0  0  0  0  0  0  0  0  0
    6.6780    3.8897   84.6408 C   0  0  0  0  0  0  0  0  0  0  0  0
    6.4461    3.6827   85.9413 C   0  0  0  0  0  0  0  0  0  0  0  0
    6.7958    2.6797   83.8826 C   0  0  0  0  0  0  0  0  0  0  0  0
    6.6129    1.6487   84.8443 C   0  0  0  0  0  0  0  0  0  0  0  0
    7.0148    2.3551   82.5720 C   0  0  0  0  0  0  0  0  0  0  0  0
    6.4088    2.3395   86.0584 N   0  0  0  0  0  0  0  0  0  0  0  0
    6.6523    0.3429   84.5374 C   0  0  0  0  0  0  0  0  0  0  0  0
    7.0730    0.9702   82.2267 C   0  0  0  0  0  0  0  0  0  0  0  0
    6.8952   -0.0568   83.2198 C   0  0  0  0  0  0  0  0  0  0  0  0
    7.8307    8.1782   83.5443 O   0  0  0  0  0  0  0  0  0  0  0  0
  2  1  1  1  0  0  0
  2  3  1  0  0  0  0
  2  6  1  0  0  0  0
  3  4  1  0  0  0  0
  3 16  1  0  0  0  0
  5 14  1  0  0  0  0
  6  7  1  0  0  0  0
  7  8  2  0  0  0  0
  7  9  1  0  0  0  0
  8 12  1  0  0  0  0
  9 10  2  0  0  0  0
  9 11  1  0  0  0  0
 10 13  1  0  0  0  0
 10 12  1  0  0  0  0
 11 14  2  0  0  0  0
 13 15  2  0  0  0  0
 14 15  1  0  0  0  0
M  END
>  <CHROM.1>
143.17839701,-69.63238988,79.95778890,7.29349330,3.75335222,83.77948138,0.89687265
1.24203724,0.71552028

>  <Name>
ligand

>  <RI>
0

>  <Rbt.Current_Directory>
/home/itssahil/PROJECTS/Mol_Feturizer/Test_systems_manuscript/rnas/5kpy

>  <Rbt.Executable>
rbdock ($Id: //depot/dev/client3/rdock/2013.1/src/exe/rbdock.cxx#4 $)

>  <Rbt.Library>
libRbt.so (2013.1, Build901 2013/11/27)

>  <Rbt.Parameter_File>
/export/apps/rDock/src/rDock_2013.1_src/data/scripts/dock_solv.prm

>  <Rbt.Receptor>
prm/pocket_docking_5.prm

>  <SCORE>
-19.7122

>  <SCORE.INTER>
-19.5276

>  <SCORE.INTER.CONST>
1

>  <SCORE.INTER.POLAR>
0

>  <SCORE.INTER.ROT>
3

>  <SCORE.INTER.SOLV>
7.77408

>  <SCORE.INTER.VDW>
-21.2098

>  <SCORE.INTER.norm>
-1.22047

>  <SCORE.INTRA>
-0.184629

>  <SCORE.INTRA.DIHEDRAL>
0.347448

>  <SCORE.INTRA.DIHEDRAL.0>
3.89056

>  <SCORE.INTRA.POLAR>
0

>  <SCORE.INTRA.POLAR.0>
0

>  <SCORE.INTRA.REPUL>
0

>  <SCORE.INTRA.REPUL.0>
0

>  <SCORE.INTRA.SOLV>
-0.283552

>  <SCORE.INTRA.SOLV.lig_0>
-20.733

>  <SCORE.INTRA.VDW>
-0.216577

>  <SCORE.INTRA.VDW.0>
-0.828515

>  <SCORE.INTRA.norm>
-0.0115393

>  <SCORE.RESTR>
0

>  <SCORE.RESTR.CAVITY>
0

>  <SCORE.RESTR.norm>
0

>  <SCORE.SYSTEM>
0

>  <SCORE.SYSTEM.CONST>
0

>  <SCORE.SYSTEM.DIHEDRAL>
0

>  <SCORE.SYSTEM.SOLV>
0

>  <SCORE.SYSTEM.norm>
0

>  <SCORE.heavy>
16

>  <SCORE.norm>
-1.23201

>  <RMSD>
1.935

$$$$
ligand
 OpenBabel02271912153D
libRbt.so/2013.1/901 2013/11/27
 16 17  0  0  0  0  0  0  0  0999 V2000
    7.4703    6.5079   85.4874 N   0  0  0  0  0  0  0  0  0  0  0  0
    7.4965    6.0485   84.1401 C   0  0  2  0  0  0  0  0  0  0  0  0
    7.4066    7.1833   83.1583 C   0  0  0  0  0  0  0  0  0  0  0  0
    6.6965    8.1805   83.4351 O   0  0  0  0  0  0  0  0  0  0  0  0
    7.1847    0.3850   80.9549 O   0  0  0  0  0  0  0  0  0  0  0  0
    6.3656    5.0819   83.8819 C   0  0  0  0  0  0  0  0  0  0  0  0
    6.5272    3.7697   84.6119 C   0  0  0  0  0  0  0  0  0  0  0  0
    6.4765    3.6070   85.9382 C   0  0  0  0  0  0  0  0  0  0  0  0
    6.7267    2.5458   83.8941 C   0  0  0  0  0  0  0  0  0  0  0  0
    6.8015    1.5555   84.9114 C   0  0  0  0  0  0  0  0  0  0  0  0
    6.8382    2.1804   82.5808 C   0  0  0  0  0  0  0  0  0  0  0  0
    6.6421    2.2798   86.1126 N   0  0  0  0  0  0  0  0  0  0  0  0
    6.9889    0.2517   84.6546 C   0  0  0  0  0  0  0  0  0  0  0  0
    7.0508    0.7987   82.2867 C   0  0  0  0  0  0  0  0  0  0  0  0
    7.1336   -0.1853   83.3345 C   0  0  0  0  0  0  0  0  0  0  0  0
    8.0220    7.1200   82.0732 O   0  0  0  0  0  0  0  0  0  0  0  0
  2  1  1  1  0  0  0
  2  3  1  0  0  0  0
  2  6  1  0  0  0  0
  3  4  1  0  0  0  0
  3 16  1  0  0  0  0
  5 14  1  0  0  0  0
  6  7  1  0  0  0  0
  7  8  2  0  0  0  0
  7  9  1  0  0  0  0
  8 12  1  0  0  0  0
  9 10  2  0  0  0  0
  9 11  1  0  0  0  0
 10 13  1  0  0  0  0
 10 12  1  0  0  0  0
 11 14  2  0  0  0  0
 13 15  2  0  0  0  0
 14 15  1  0  0  0  0
M  END
>  <CHROM.1>
-35.52931470,-68.53045736,67.03234001,7.00461839,3.71665489,83.78425764,1.27697301
1.41241007,0.34433388

>  <Name>
ligand

>  <RI>
0

>  <Rbt.Current_Directory>
/home/itssahil/PROJECTS/Mol_Feturizer/Test_systems_manuscript/rnas/5kpy

>  <Rbt.Executable>
rbdock ($Id: //depot/dev/client3/rdock/2013.1/src/exe/rbdock.cxx#4 $)

>  <Rbt.Library>
libRbt.so (2013.1, Build901 2013/11/27)

>  <Rbt.Parameter_File>
/export/apps/rDock/src/rDock_2013.1_src/data/scripts/dock_solv.prm

>  <Rbt.Receptor>
prm/pocket_docking_7.prm

>  <SCORE>
-19.664

>  <SCORE.INTER>
-19.5143

>  <SCORE.INTER.CONST>
1

>  <SCORE.INTER.POLAR>
0

>  <SCORE.INTER.ROT>
3

>  <SCORE.INTER.SOLV>
5.3801

>  <SCORE.INTER.VDW>
-20.4029

>  <SCORE.INTER.norm>
-1.21964

>  <SCORE.INTRA>
-0.149658

>  <SCORE.INTRA.DIHEDRAL>
0.163217

>  <SCORE.INTRA.DIHEDRAL.0>
3.89056

>  <SCORE.INTRA.POLAR>
0

>  <SCORE.INTRA.POLAR.0>
0

>  <SCORE.INTRA.REPUL>
0

>  <SCORE.INTRA.REPUL.0>
0

>  <SCORE.INTRA.SOLV>
-0.201714

>  <SCORE.INTRA.SOLV.lig_0>
-20.733

>  <SCORE.INTRA.VDW>
-0.130409

>  <SCORE.INTRA.VDW.0>
-0.828515

>  <SCORE.INTRA.norm>
-0.00935362

>  <SCORE.RESTR>
0

>  <SCORE.RESTR.CAVITY>
0

>  <SCORE.RESTR.norm>
0

>  <SCORE.SYSTEM>
0

>  <SCORE.SYSTEM.CONST>
0

>  <SCORE.SYSTEM.DIHEDRAL>
0

>  <SCORE.SYSTEM.SOLV>
0

>  <SCORE.SYSTEM.norm>
0

>  <SCORE.heavy>
16

>  <SCORE.norm>
-1.229

>  <RMSD>
1.940

$$$$
ligand
 OpenBabel02271912153D
libRbt.so/2013.1/901 2013/11/27
 16 17  0  0  0  0  0  0  0  0999 V2000
    7.4048    6.4640   85.4444 N   0  0  0  0  0  0  0  0  0  0  0  0
    7.4379    6.0221   84.0913 C   0  0  2  0  0  0  0  0  0  0  0  0
    7.2905    7.1636   83.1244 C   0  0  0  0  0  0  0  0  0  0  0  0
    7.9679    7.1654   82.0678 O   0  0  0  0  0  0  0  0  0  0  0  0
    7.1410    0.2940   80.9300 O   0  0  0  0  0  0  0  0  0  0  0  0
    6.3470    5.0112   83.8313 C   0  0  0  0  0  0  0  0  0  0  0  0
    6.5542    3.7102   84.5698 C   0  0  0  0  0  0  0  0  0  0  0  0
    6.5513    3.5621   85.8987 C   0  0  0  0  0  0  0  0  0  0  0  0
    6.7488    2.4814   83.8591 C   0  0  0  0  0  0  0  0  0  0  0  0
    6.8739    1.5041   84.8841 C   0  0  0  0  0  0  0  0  0  0  0  0
    6.8214    2.1025   82.5469 C   0  0  0  0  0  0  0  0  0  0  0  0
    6.7440    2.2397   86.0820 N   0  0  0  0  0  0  0  0  0  0  0  0
    7.0733    0.2006   84.6355 C   0  0  0  0  0  0  0  0  0  0  0  0
    7.0459    0.7210   82.2610 C   0  0  0  0  0  0  0  0  0  0  0  0
    7.1800   -0.2493   83.3161 C   0  0  0  0  0  0  0  0  0  0  0  0
    6.5119    8.1052   83.3843 O   0  0  0  0  0  0  0  0  0  0  0  0
  2  1  1  1  0  0  0
  2  3  1  0  0  0  0
  2  6  1  0  0  0  0
  3  4  1  0  0  0  0
  3 16  1  0  0  0  0
  5 14  1  0  0  0  0
  6  7  1  0  0  0  0
  7  8  2  0  0  0  0
  7  9  1  0  0  0  0
  8 12  1  0  0  0  0
  9 10  2  0  0  0  0
  9 11  1  0  0  0  0
 10 13  1  0  0  0  0
 10 12  1  0  0  0  0
 11 14  2  0  0  0  0
 13 15  2  0  0  0  0
 14 15  1  0  0  0  0
M  END
>  <CHROM.1>
141.08218900,-67.15773183,64.33670497,6.99157571,3.66655762,83.75121621,1.35628806
1.44790904,0.26519624

>  <Name>
ligand

>  <RI>
0

>  <Rbt.Current_Directory>
/home/itssahil/PROJECTS/Mol_Feturizer/Test_systems_manuscript/rnas/5kpy

>  <Rbt.Executable>
rbdock ($Id: //depot/dev/client3/rdock/2013.1/src/exe/rbdock.cxx#4 $)

>  <Rbt.Library>
libRbt.so (2013.1, Build901 2013/11/27)

>  <Rbt.Parameter_File>
/export/apps/rDock/src/rDock_2013.1_src/data/scripts/dock_solv.prm

>  <Rbt.Receptor>
prm/pocket_docking_8.prm

>  <SCORE>
-19.6822

>  <SCORE.INTER>
-19.5551

>  <SCORE.INTER.CONST>
1

>  <SCORE.INTER.POLAR>
0

>  <SCORE.INTER.ROT>
3

>  <SCORE.INTER.SOLV>
5.43999

>  <SCORE.INTER.VDW>
-20.4501

>  <SCORE.INTER.norm>
-1.22219

>  <SCORE.INTRA>
-0.127134

>  <SCORE.INTRA.DIHEDRAL>
0.125875

>  <SCORE.INTRA.DIHEDRAL.0>
3.89056

>  <SCORE.INTRA.POLAR>
0

>  <SCORE.INTRA.POLAR.0>
0

>  <SCORE.INTRA.REPUL>
0

>  <SCORE.INTRA.REPUL.0>
0

>  <SCORE.INTRA.SOLV>
-0.17306

>  <SCORE.INTRA.SOLV.lig_0>
-20.733

>  <SCORE.INTRA.VDW>
-0.103542

>  <SCORE.INTRA.VDW.0>
-0.828515

>  <SCORE.INTRA.norm>
-0.0079459

>  <SCORE.RESTR>
0

>  <SCORE.RESTR.CAVITY>
0

>  <SCORE.RESTR.norm>
0

>  <SCORE.SYSTEM>
0

>  <SCORE.SYSTEM.CONST>
0

>  <SCORE.SYSTEM.DIHEDRAL>
0

>  <SCORE.SYSTEM.SOLV>
0

>  <SCORE.SYSTEM.norm>
0

>  <SCORE.heavy>
16

>  <SCORE.norm>
-1.23014

>  <RMSD>
1.950

$$$$
ligand
 OpenBabel02271912153D
libRbt.so/2013.1/901 2013/11/27
 16 17  0  0  0  0  0  0  0  0999 V2000
    8.1175    6.4096   85.4952 N   0  0  0  0  0  0  0  0  0  0  0  0
    8.0688    5.9624   84.1444 C   0  0  2  0  0  0  0  0  0  0  0  0
    8.1956    7.1011   83.1712 C   0  0  0  0  0  0  0  0  0  0  0  0
    8.9210    6.9641   82.1562 O   0  0  0  0  0  0  0  0  0  0  0  0
    7.2619    0.4843   80.9341 O   0  0  0  0  0  0  0  0  0  0  0  0
    6.7819    5.2213   83.8718 C   0  0  0  0  0  0  0  0  0  0  0  0
    6.6988    3.8926   84.5850 C   0  0  0  0  0  0  0  0  0  0  0  0
    6.4984    3.7259   85.8965 C   0  0  0  0  0  0  0  0  0  0  0  0
    6.8058    2.6597   83.8628 C   0  0  0  0  0  0  0  0  0  0  0  0
    6.6512    1.6589   84.8607 C   0  0  0  0  0  0  0  0  0  0  0  0
    6.9961    2.2948   82.5585 C   0  0  0  0  0  0  0  0  0  0  0  0
    6.4715    2.3869   86.0568 N   0  0  0  0  0  0  0  0  0  0  0  0
    6.6909    0.3442   84.5944 C   0  0  0  0  0  0  0  0  0  0  0  0
    7.0541    0.8999   82.2558 C   0  0  0  0  0  0  0  0  0  0  0  0
    6.9053   -0.0959   83.2849 C   0  0  0  0  0  0  0  0  0  0  0  0
    7.5951    8.1751   83.3857 O   0  0  0  0  0  0  0  0  0  0  0  0
  2  1  1  1  0  0  0
  2  3  1  0  0  0  0
  2  6  1  0  0  0  0
  3  4  1  0  0  0  0
  3 16  1  0  0  0  0
  5 14  1  0  0  0  0
  6  7  1  0  0  0  0
  7  8  2  0  0  0  0
  7  9  1  0  0  0  0
  8 12  1  0  0  0  0
  9 10  2  0  0  0  0
  9 11  1  0  0  0  0
 10 13  1  0  0  0  0
 10 12  1  0  0  0  0
 11 14  2  0  0  0  0
 13 15  2  0  0  0  0
 14 15  1  0  0  0  0
M  END
>  <CHROM.1>
137.77808328,-68.91053033,73.16256508,7.27232849,3.76055166,83.76452436,0.92688740
1.25793596,0.67774484

>  <Name>
ligand

>  <RI>
0

>  <Rbt.Current_Directory>
/home/itssahil/PROJECTS/Mol_Feturizer/Test_systems_manuscript/rnas/5kpy

>  <Rbt.Executable>
rbdock ($Id: //depot/dev/client3/rdock/2013.1/src/exe/rbdock.cxx#4 $)

>  <Rbt.Library>
libRbt.so (2013.1, Build901 2013/11/27)

>  <Rbt.Parameter_File>
/export/apps/rDock/src/rDock_2013.1_src/data/scripts/dock_solv.prm

>  <Rbt.Receptor>
prm/pocket_docking_8.prm

>  <SCORE>
-19.7294

>  <SCORE.INTER>
-19.553

>  <SCORE.INTER.CONST>
1

>  <SCORE.INTER.POLAR>
0

>  <SCORE.INTER.ROT>
3

>  <SCORE.INTER.SOLV>
7.07236

>  <SCORE.INTER.VDW>
-20.9928

>  <SCORE.INTER.norm>
-1.22206

>  <SCORE.INTRA>
-0.176345

>  <SCORE.INTRA.DIHEDRAL>
0.27029

>  <SCORE.INTRA.DIHEDRAL.0>
3.89056

>  <SCORE.INTRA.POLAR>
0

>  <SCORE.INTRA.POLAR.0>
0

>  <SCORE.INTRA.REPUL>
0

>  <SCORE.INTRA.REPUL.0>
0

>  <SCORE.INTRA.SOLV>
-0.239868

>  <SCORE.INTRA.SOLV.lig_0>
-20.733

>  <SCORE.INTRA.VDW>
-0.191556

>  <SCORE.INTRA.VDW.0>
-0.828515

>  <SCORE.INTRA.norm>
-0.0110215

>  <SCORE.RESTR>
0

>  <SCORE.RESTR.CAVITY>
0

>  <SCORE.RESTR.norm>
0

>  <SCORE.SYSTEM>
0

>  <SCORE.SYSTEM.CONST>
0

>  <SCORE.SYSTEM.DIHEDRAL>
0

>  <SCORE.SYSTEM.SOLV>
0

>  <SCORE.SYSTEM.norm>
0

>  <SCORE.heavy>
16

>  <SCORE.norm>
-1.23309

>  <RMSD>
1.954

$$$$
ligand
 OpenBabel02271912153D
libRbt.so/2013.1/901 2013/11/27
 16 17  0  0  0  0  0  0  0  0999 V2000
    8.0317    6.5366   85.6488 N   0  0  0  0  0  0  0  0  0  0  0  0
    8.1576    5.9303   84.3668 C   0  0  2  0  0  0  0  0  0  0  0  0
    8.5175    6.9319   83.3051 C   0  0  0  0  0  0  0  0  0  0  0  0
    8.2201    8.1395   83.4735 O   0  0  0  0  0  0  0  0  0  0  0  0
    7.3131    0.5817   80.9005 O   0  0  0  0  0  0  0  0  0  0  0  0
    6.8757    5.2352   83.9751 C   0  0  0  0  0  0  0  0  0  0  0  0
    6.7041    3.8883   84.6365 C   0  0  0  0  0  0  0  0  0  0  0  0
    6.4316    3.6870   85.9300 C   0  0  0  0  0  0  0  0  0  0  0  0
    6.7979    2.6765   83.8777 C   0  0  0  0  0  0  0  0  0  0  0  0
    6.5536    1.6507   84.8313 C   0  0  0  0  0  0  0  0  0  0  0  0
    7.0386    2.3472   82.5723 C   0  0  0  0  0  0  0  0  0  0  0  0
    6.3434    2.3457   86.0419 N   0  0  0  0  0  0  0  0  0  0  0  0
    6.5541    0.3450   84.5215 C   0  0  0  0  0  0  0  0  0  0  0  0
    7.0560    0.9618   82.2242 C   0  0  0  0  0  0  0  0  0  0  0  0
    6.8161   -0.0603   83.2094 C   0  0  0  0  0  0  0  0  0  0  0  0
    9.0919    6.5560   82.2616 O   0  0  0  0  0  0  0  0  0  0  0  0
  2  1  1  1  0  0  0
  2  3  1  0  0  0  0
  2  6  1  0  0  0  0
  3  4  1  0  0  0  0
  3 16  1  0  0  0  0
  5 14  1  0  0  0  0
  6  7  1  0  0  0  0
  7  8  2  0  0  0  0
  7  9  1  0  0  0  0
  8 12  1  0  0  0  0
  9 10  2  0  0  0  0
  9 11  1  0  0  0  0
 10 13  1  0  0  0  0
 10 12  1  0  0  0  0
 11 14  2  0  0  0  0
 13 15  2  0  0  0  0
 14 15  1  0  0  0  0
M  END
>  <CHROM.1>
-24.79319198,-78.99213560,71.50988278,7.33251072,3.73592327,83.80857520,0.92001497
1.17519273,0.70702617

>  <Name>
ligand

>  <RI>
0

>  <Rbt.Current_Directory>
/home/itssahil/PROJECTS/Mol_Feturizer/Test_systems_manuscript/rnas/5kpy

>  <Rbt.Executable>
rbdock ($Id: //depot/dev/client3/rdock/2013.1/src/exe/rbdock.cxx#4 $)

>  <Rbt.Library>
libRbt.so (2013.1, Build901 2013/11/27)

>  <Rbt.Parameter_File>
/export/apps/rDock/src/rDock_2013.1_src/data/scripts/dock_solv.prm

>  <Rbt.Receptor>
prm/pocket_docking_3.prm

>  <SCORE>
-19.6622

>  <SCORE.INTER>
-19.9299

>  <SCORE.INTER.CONST>
1

>  <SCORE.INTER.POLAR>
0

>  <SCORE.INTER.ROT>
3

>  <SCORE.INTER.SOLV>
6.67819

>  <SCORE.INTER.VDW>
-21.1126

>  <SCORE.INTER.norm>
-1.24562

>  <SCORE.INTRA>
0.267671

>  <SCORE.INTRA.DIHEDRAL>
1.23075

>  <SCORE.INTRA.DIHEDRAL.0>
3.89056

>  <SCORE.INTRA.POLAR>
0

>  <SCORE.INTRA.POLAR.0>
0

>  <SCORE.INTRA.REPUL>
0

>  <SCORE.INTRA.REPUL.0>
0

>  <SCORE.INTRA.SOLV>
-0.358958

>  <SCORE.INTRA.SOLV.lig_0>
-20.733

>  <SCORE.INTRA.VDW>
-0.168225

>  <SCORE.INTRA.VDW.0>
-0.828515

>  <SCORE.INTRA.norm>
0.0167294

>  <SCORE.RESTR>
0

>  <SCORE.RESTR.CAVITY>
0

>  <SCORE.RESTR.norm>
0

>  <SCORE.SYSTEM>
0

>  <SCORE.SYSTEM.CONST>
0

>  <SCORE.SYSTEM.DIHEDRAL>
0

>  <SCORE.SYSTEM.SOLV>
0

>  <SCORE.SYSTEM.norm>
0

>  <SCORE.heavy>
16

>  <SCORE.norm>
-1.22889

>  <RMSD>
1.959

$$$$
ligand
 OpenBabel02271912153D
libRbt.so/2013.1/901 2013/11/27
 16 17  0  0  0  0  0  0  0  0999 V2000
    8.2772    6.4481   85.6421 N   0  0  0  0  0  0  0  0  0  0  0  0
    8.2604    5.9509   84.3081 C   0  0  2  0  0  0  0  0  0  0  0  0
    8.4973    7.0405   83.3000 C   0  0  0  0  0  0  0  0  0  0  0  0
    9.0593    6.7606   82.2132 O   0  0  0  0  0  0  0  0  0  0  0  0
    7.2708    0.6134   80.9303 O   0  0  0  0  0  0  0  0  0  0  0  0
    6.9442    5.2759   84.0050 C   0  0  0  0  0  0  0  0  0  0  0  0
    6.7977    3.9310   84.6762 C   0  0  0  0  0  0  0  0  0  0  0  0
    6.5731    3.7334   85.9795 C   0  0  0  0  0  0  0  0  0  0  0  0
    6.8642    2.7170   83.9182 C   0  0  0  0  0  0  0  0  0  0  0  0
    6.6557    1.6939   84.8831 C   0  0  0  0  0  0  0  0  0  0  0  0
    7.0570    2.3837   82.6057 C   0  0  0  0  0  0  0  0  0  0  0  0
    6.4897    2.3925   86.0986 N   0  0  0  0  0  0  0  0  0  0  0  0
    6.6455    0.3872   84.5774 C   0  0  0  0  0  0  0  0  0  0  0  0
    7.0623    0.9974   82.2614 C   0  0  0  0  0  0  0  0  0  0  0  0
    6.8593   -0.0219   83.2578 C   0  0  0  0  0  0  0  0  0  0  0  0
    8.1505    8.2130   83.5551 O   0  0  0  0  0  0  0  0  0  0  0  0
  2  1  1  1  0  0  0
  2  3  1  0  0  0  0
  2  6  1  0  0  0  0
  3  4  1  0  0  0  0
  3 16  1  0  0  0  0
  5 14  1  0  0  0  0
  6  7  1  0  0  0  0
  7  8  2  0  0  0  0
  7  9  1  0  0  0  0
  8 12  1  0  0  0  0
  9 10  2  0  0  0  0
  9 11  1  0  0  0  0
 10 13  1  0  0  0  0
 10 12  1  0  0  0  0
 11 14  2  0  0  0  0
 13 15  2  0  0  0  0
 14 15  1  0  0  0  0
M  END
>  <CHROM.1>
150.08276822,-73.52028377,73.55147132,7.38929171,3.78529802,83.83500562,0.84026173
1.21572043,0.78206111

>  <Name>
ligand

>  <RI>
0

>  <Rbt.Current_Directory>
/home/itssahil/PROJECTS/Mol_Feturizer/Test_systems_manuscript/rnas/5kpy

>  <Rbt.Executable>
rbdock ($Id: //depot/dev/client3/rdock/2013.1/src/exe/rbdock.cxx#4 $)

>  <Rbt.Library>
libRbt.so (2013.1, Build901 2013/11/27)

>  <Rbt.Parameter_File>
/export/apps/rDock/src/rDock_2013.1_src/data/scripts/dock_solv.prm

>  <Rbt.Receptor>
prm/pocket_docking_4.prm

>  <SCORE>
-19.8459

>  <SCORE.INTER>
-19.8439

>  <SCORE.INTER.CONST>
1

>  <SCORE.INTER.POLAR>
0

>  <SCORE.INTER.ROT>
3

>  <SCORE.INTER.SOLV>
7.35789

>  <SCORE.INTER.VDW>
-21.2819

>  <SCORE.INTER.norm>
-1.24024

>  <SCORE.INTRA>
-0.00203987

>  <SCORE.INTRA.DIHEDRAL>
0.672126

>  <SCORE.INTRA.DIHEDRAL.0>
3.89056

>  <SCORE.INTRA.POLAR>
0

>  <SCORE.INTRA.POLAR.0>
0

>  <SCORE.INTRA.REPUL>
0

>  <SCORE.INTRA.REPUL.0>
0

>  <SCORE.INTRA.SOLV>
-0.297614

>  <SCORE.INTRA.SOLV.lig_0>
-20.733

>  <SCORE.INTRA.VDW>
-0.189296

>  <SCORE.INTRA.VDW.0>
-0.828515

>  <SCORE.INTRA.norm>
-0.000127492

>  <SCORE.RESTR>
0

>  <SCORE.RESTR.CAVITY>
0

>  <SCORE.RESTR.norm>
0

>  <SCORE.SYSTEM>
0

>  <SCORE.SYSTEM.CONST>
0

>  <SCORE.SYSTEM.DIHEDRAL>
0

>  <SCORE.SYSTEM.SOLV>
0

>  <SCORE.SYSTEM.norm>
0

>  <SCORE.heavy>
16

>  <SCORE.norm>
-1.24037

>  <RMSD>
1.967

$$$$
ligand
 OpenBabel02271912153D
libRbt.so/2013.1/901 2013/11/27
 16 17  0  0  0  0  0  0  0  0999 V2000
    7.4294    6.5544   85.4897 N   0  0  0  0  0  0  0  0  0  0  0  0
    7.5341    6.0756   84.1530 C   0  0  2  0  0  0  0  0  0  0  0  0
    7.4914    7.1952   83.1508 C   0  0  0  0  0  0  0  0  0  0  0  0
    6.8333    8.2310   83.4143 O   0  0  0  0  0  0  0  0  0  0  0  0
    7.2389    0.3282   81.0357 O   0  0  0  0  0  0  0  0  0  0  0  0
    6.4262    5.0966   83.8466 C   0  0  0  0  0  0  0  0  0  0  0  0
    6.5536    3.7980   84.6069 C   0  0  0  0  0  0  0  0  0  0  0  0
    6.4729    3.6639   85.9349 C   0  0  0  0  0  0  0  0  0  0  0  0
    6.7506    2.5566   83.9191 C   0  0  0  0  0  0  0  0  0  0  0  0
    6.7899    1.5870   84.9581 C   0  0  0  0  0  0  0  0  0  0  0  0
    6.8843    2.1621   82.6163 C   0  0  0  0  0  0  0  0  0  0  0  0
    6.6159    2.3386   86.1403 N   0  0  0  0  0  0  0  0  0  0  0  0
    6.9639    0.2756   84.7324 C   0  0  0  0  0  0  0  0  0  0  0  0
    7.0832    0.7717   82.3556 C   0  0  0  0  0  0  0  0  0  0  0  0
    7.1300   -0.1910   83.4250 C   0  0  0  0  0  0  0  0  0  0  0  0
    8.0937    7.0820   82.0625 O   0  0  0  0  0  0  0  0  0  0  0  0
  2  1  1  1  0  0  0
  2  3  1  0  0  0  0
  2  6  1  0  0  0  0
  3  4  1  0  0  0  0
  3 16  1  0  0  0  0
  5 14  1  0  0  0  0
  6  7  1  0  0  0  0
  7  8  2  0  0  0  0
  7  9  1  0  0  0  0
  8 12  1  0  0  0  0
  9 10  2  0  0  0  0
  9 11  1  0  0  0  0
 10 13  1  0  0  0  0
 10 12  1  0  0  0  0
 11 14  2  0  0  0  0
 13 15  2  0  0  0  0
 14 15  1  0  0  0  0
M  END
>  <CHROM.1>
-30.63967156,-68.37167929,64.60301348,7.03609182,3.72931302,83.80713207,1.26780894
1.38948752,0.34216820

>  <Name>
ligand

>  <RI>
0

>  <Rbt.Current_Directory>
/home/itssahil/PROJECTS/Mol_Feturizer/Test_systems_manuscript/rnas/5kpy

>  <Rbt.Executable>
rbdock ($Id: //depot/dev/client3/rdock/2013.1/src/exe/rbdock.cxx#4 $)

>  <Rbt.Library>
libRbt.so (2013.1, Build901 2013/11/27)

>  <Rbt.Parameter_File>
/export/apps/rDock/src/rDock_2013.1_src/data/scripts/dock_solv.prm

>  <Rbt.Receptor>
prm/pocket_docking_5.prm

>  <SCORE>
-19.6952

>  <SCORE.INTER>
-19.5829

>  <SCORE.INTER.CONST>
1

>  <SCORE.INTER.POLAR>
0

>  <SCORE.INTER.ROT>
3

>  <SCORE.INTER.SOLV>
5.13805

>  <SCORE.INTER.VDW>
-20.368

>  <SCORE.INTER.norm>
-1.22393

>  <SCORE.INTRA>
-0.112264

>  <SCORE.INTRA.DIHEDRAL>
0.140782

>  <SCORE.INTRA.DIHEDRAL.0>
3.89056

>  <SCORE.INTRA.POLAR>
0

>  <SCORE.INTRA.POLAR.0>
0

>  <SCORE.INTRA.REPUL>
0

>  <SCORE.INTRA.REPUL.0>
0

>  <SCORE.INTRA.SOLV>
-0.185628

>  <SCORE.INTRA.SOLV.lig_0>
-20.733

>  <SCORE.INTRA.VDW>
-0.0898413

>  <SCORE.INTRA.VDW.0>
-0.828515

>  <SCORE.INTRA.norm>
-0.00701652

>  <SCORE.RESTR>
0

>  <SCORE.RESTR.CAVITY>
0

>  <SCORE.RESTR.norm>
0

>  <SCORE.SYSTEM>
0

>  <SCORE.SYSTEM.CONST>
0

>  <SCORE.SYSTEM.DIHEDRAL>
0

>  <SCORE.SYSTEM.SOLV>
0

>  <SCORE.SYSTEM.norm>
0

>  <SCORE.heavy>
16

>  <SCORE.norm>
-1.23095

>  <RMSD>
1.967

$$$$
ligand
 OpenBabel02271912153D
libRbt.so/2013.1/901 2013/11/27
 16 17  0  0  0  0  0  0  0  0999 V2000
    8.2775    6.4049   85.6420 N   0  0  0  0  0  0  0  0  0  0  0  0
    8.2923    5.9350   84.2982 C   0  0  2  0  0  0  0  0  0  0  0  0
    8.5332    7.0481   83.3170 C   0  0  0  0  0  0  0  0  0  0  0  0
    8.1098    8.2003   83.5787 O   0  0  0  0  0  0  0  0  0  0  0  0
    7.2305    0.5521   80.9263 O   0  0  0  0  0  0  0  0  0  0  0  0
    6.9914    5.2489   83.9565 C   0  0  0  0  0  0  0  0  0  0  0  0
    6.8262    3.9132   84.6415 C   0  0  0  0  0  0  0  0  0  0  0  0
    6.6039    3.7319   85.9475 C   0  0  0  0  0  0  0  0  0  0  0  0
    6.8701    2.6909   83.8951 C   0  0  0  0  0  0  0  0  0  0  0  0
    6.6493    1.6807   84.8709 C   0  0  0  0  0  0  0  0  0  0  0  0
    7.0520    2.3419   82.5852 C   0  0  0  0  0  0  0  0  0  0  0  0
    6.4996    2.3937   86.0801 N   0  0  0  0  0  0  0  0  0  0  0  0
    6.6170    0.3715   84.5780 C   0  0  0  0  0  0  0  0  0  0  0  0
    7.0338    0.9523   82.2545 C   0  0  0  0  0  0  0  0  0  0  0  0
    6.8187   -0.0539   83.2616 C   0  0  0  0  0  0  0  0  0  0  0  0
    9.1349    6.8175   82.2470 O   0  0  0  0  0  0  0  0  0  0  0  0
  2  1  1  1  0  0  0
  2  3  1  0  0  0  0
  2  6  1  0  0  0  0
  3  4  1  0  0  0  0
  3 16  1  0  0  0  0
  5 14  1  0  0  0  0
  6  7  1  0  0  0  0
  7  8  2  0  0  0  0
  7  9  1  0  0  0  0
  8 12  1  0  0  0  0
  9 10  2  0  0  0  0
  9 11  1  0  0  0  0
 10 13  1  0  0  0  0
 10 12  1  0  0  0  0
 11 14  2  0  0  0  0
 13 15  2  0  0  0  0
 14 15  1  0  0  0  0
M  END
>  <CHROM.1>
-31.98116947,-71.21226489,70.89791698,7.39421356,3.76787750,83.82783826,0.82525220
1.21332598,0.80002311

>  <Name>
ligand

>  <RI>
0

>  <Rbt.Current_Directory>
/home/itssahil/PROJECTS/Mol_Feturizer/Test_systems_manuscript/rnas/5kpy

>  <Rbt.Executable>
rbdock ($Id: //depot/dev/client3/rdock/2013.1/src/exe/rbdock.cxx#4 $)

>  <Rbt.Library>
libRbt.so (2013.1, Build901 2013/11/27)

>  <Rbt.Parameter_File>
/export/apps/rDock/src/rDock_2013.1_src/data/scripts/dock_solv.prm

>  <Rbt.Receptor>
prm/pocket_docking_6.prm

>  <SCORE>
-19.8589

>  <SCORE.INTER>
-19.7726

>  <SCORE.INTER.CONST>
1

>  <SCORE.INTER.POLAR>
0

>  <SCORE.INTER.ROT>
3

>  <SCORE.INTER.SOLV>
7.4914

>  <SCORE.INTER.VDW>
-21.2789

>  <SCORE.INTER.norm>
-1.23579

>  <SCORE.INTRA>
-0.0862811

>  <SCORE.INTRA.DIHEDRAL>
0.383099

>  <SCORE.INTRA.DIHEDRAL.0>
3.89056

>  <SCORE.INTRA.POLAR>
0

>  <SCORE.INTRA.POLAR.0>
0

>  <SCORE.INTRA.REPUL>
0

>  <SCORE.INTRA.REPUL.0>
0

>  <SCORE.INTRA.SOLV>
-0.253487

>  <SCORE.INTRA.SOLV.lig_0>
-20.733

>  <SCORE.INTRA.VDW>
-0.151087

>  <SCORE.INTRA.VDW.0>
-0.828515

>  <SCORE.INTRA.norm>
-0.00539257

>  <SCORE.RESTR>
0

>  <SCORE.RESTR.CAVITY>
0

>  <SCORE.RESTR.norm>
0

>  <SCORE.SYSTEM>
0

>  <SCORE.SYSTEM.CONST>
0

>  <SCORE.SYSTEM.DIHEDRAL>
0

>  <SCORE.SYSTEM.SOLV>
0

>  <SCORE.SYSTEM.norm>
0

>  <SCORE.heavy>
16

>  <SCORE.norm>
-1.24118

>  <RMSD>
1.968

$$$$
ligand
 OpenBabel02271912153D
libRbt.so/2013.1/901 2013/11/27
 16 17  0  0  0  0  0  0  0  0999 V2000
    7.4383    6.5564   85.4491 N   0  0  0  0  0  0  0  0  0  0  0  0
    7.5660    6.0676   84.1180 C   0  0  2  0  0  0  0  0  0  0  0  0
    7.5465    7.1802   83.1072 C   0  0  0  0  0  0  0  0  0  0  0  0
    8.1788    7.0444   82.0316 O   0  0  0  0  0  0  0  0  0  0  0  0
    7.1990    0.3259   80.9608 O   0  0  0  0  0  0  0  0  0  0  0  0
    6.4601    5.0908   83.7979 C   0  0  0  0  0  0  0  0  0  0  0  0
    6.5815    3.7878   84.5518 C   0  0  0  0  0  0  0  0  0  0  0  0
    6.5117    3.6493   85.8800 C   0  0  0  0  0  0  0  0  0  0  0  0
    6.7596    2.5474   83.8573 C   0  0  0  0  0  0  0  0  0  0  0  0
    6.7988    1.5732   84.8920 C   0  0  0  0  0  0  0  0  0  0  0  0
    6.8774    2.1568   82.5518 C   0  0  0  0  0  0  0  0  0  0  0  0
    6.6432    2.3217   86.0788 N   0  0  0  0  0  0  0  0  0  0  0  0
    6.9575    0.2611   84.6596 C   0  0  0  0  0  0  0  0  0  0  0  0
    7.0599    0.7656   82.2837 C   0  0  0  0  0  0  0  0  0  0  0  0
    7.1069   -0.2019   83.3489 C   0  0  0  0  0  0  0  0  0  0  0  0
    6.9188    8.2325   83.3495 O   0  0  0  0  0  0  0  0  0  0  0  0
  2  1  1  1  0  0  0
  2  3  1  0  0  0  0
  2  6  1  0  0  0  0
  3  4  1  0  0  0  0
  3 16  1  0  0  0  0
  5 14  1  0  0  0  0
  6  7  1  0  0  0  0
  7  8  2  0  0  0  0
  7  9  1  0  0  0  0
  8 12  1  0  0  0  0
  9 10  2  0  0  0  0
  9 11  1  0  0  0  0
 10 13  1  0  0  0  0
 10 12  1  0  0  0  0
 11 14  2  0  0  0  0
 13 15  2  0  0  0  0
 14 15  1  0  0  0  0
M  END
>  <CHROM.1>
150.04231978,-69.36650571,63.49418180,7.05718375,3.71888108,83.74977198,1.20334059
1.38843132,0.41074561

>  <Name>
ligand

>  <RI>
0

>  <Rbt.Current_Directory>
/home/itssahil/PROJECTS/Mol_Feturizer/Test_systems_manuscript/rnas/5kpy

>  <Rbt.Executable>
rbdock ($Id: //depot/dev/client3/rdock/2013.1/src/exe/rbdock.cxx#4 $)

>  <Rbt.Library>
libRbt.so (2013.1, Build901 2013/11/27)

>  <Rbt.Parameter_File>
/export/apps/rDock/src/rDock_2013.1_src/data/scripts/dock_solv.prm

>  <Rbt.Receptor>
prm/pocket_docking_8.prm

>  <SCORE>
-19.6394

>  <SCORE.INTER>
-19.5833

>  <SCORE.INTER.CONST>
1

>  <SCORE.INTER.POLAR>
0

>  <SCORE.INTER.ROT>
3

>  <SCORE.INTER.SOLV>
5.20074

>  <SCORE.INTER.VDW>
-20.3891

>  <SCORE.INTER.norm>
-1.22396

>  <SCORE.INTRA>
-0.0560513

>  <SCORE.INTRA.DIHEDRAL>
0.269863

>  <SCORE.INTRA.DIHEDRAL.0>
3.89056

>  <SCORE.INTRA.POLAR>
0

>  <SCORE.INTRA.POLAR.0>
0

>  <SCORE.INTRA.REPUL>
0

>  <SCORE.INTRA.REPUL.0>
0

>  <SCORE.INTRA.SOLV>
-0.19508

>  <SCORE.INTRA.SOLV.lig_0>
-20.733

>  <SCORE.INTRA.VDW>
-0.0934427

>  <SCORE.INTRA.VDW.0>
-0.828515

>  <SCORE.INTRA.norm>
-0.0035032

>  <SCORE.RESTR>
0

>  <SCORE.RESTR.CAVITY>
0

>  <SCORE.RESTR.norm>
0

>  <SCORE.SYSTEM>
0

>  <SCORE.SYSTEM.CONST>
0

>  <SCORE.SYSTEM.DIHEDRAL>
0

>  <SCORE.SYSTEM.SOLV>
0

>  <SCORE.SYSTEM.norm>
0

>  <SCORE.heavy>
16

>  <SCORE.norm>
-1.22746

>  <RMSD>
1.970

$$$$
ligand
 OpenBabel02271912153D
libRbt.so/2013.1/901 2013/11/27
 16 17  0  0  0  0  0  0  0  0999 V2000
    7.2833    6.5351   85.4886 N   0  0  0  0  0  0  0  0  0  0  0  0
    7.3128    6.0537   84.1490 C   0  0  2  0  0  0  0  0  0  0  0  0
    7.1685    7.1669   83.1492 C   0  0  0  0  0  0  0  0  0  0  0  0
    6.4100    8.1324   83.4097 O   0  0  0  0  0  0  0  0  0  0  0  0
    7.2122    0.3308   81.0682 O   0  0  0  0  0  0  0  0  0  0  0  0
    6.2175    5.0399   83.9202 C   0  0  0  0  0  0  0  0  0  0  0  0
    6.4369    3.7482   84.6713 C   0  0  0  0  0  0  0  0  0  0  0  0
    6.4005    3.6064   86.0004 C   0  0  0  0  0  0  0  0  0  0  0  0
    6.6825    2.5214   83.9731 C   0  0  0  0  0  0  0  0  0  0  0  0
    6.8037    1.5526   85.0066 C   0  0  0  0  0  0  0  0  0  0  0  0
    6.8015    2.1382   82.6655 C   0  0  0  0  0  0  0  0  0  0  0  0
    6.6216    2.2904   86.1963 N   0  0  0  0  0  0  0  0  0  0  0  0
    7.0430    0.2534   84.7708 C   0  0  0  0  0  0  0  0  0  0  0  0
    7.0689    0.7616   82.3936 C   0  0  0  0  0  0  0  0  0  0  0  0
    7.1981   -0.2000   83.4574 C   0  0  0  0  0  0  0  0  0  0  0  0
    7.7876    7.1167   82.0656 O   0  0  0  0  0  0  0  0  0  0  0  0
  2  1  1  1  0  0  0
  2  3  1  0  0  0  0
  2  6  1  0  0  0  0
  3  4  1  0  0  0  0
  3 16  1  0  0  0  0
  5 14  1  0  0  0  0
  6  7  1  0  0  0  0
  7  8  2  0  0  0  0
  7  9  1  0  0  0  0
  8 12  1  0  0  0  0
  9 10  2  0  0  0  0
  9 11  1  0  0  0  0
 10 13  1  0  0  0  0
 10 12  1  0  0  0  0
 11 14  2  0  0  0  0
 13 15  2  0  0  0  0
 14 15  1  0  0  0  0
M  END
>  <CHROM.1>
-36.44199056,-68.48453660,67.33268184,6.91262116,3.69969163,83.83987297,1.53292958
1.42679178,0.07296742

>  <Name>
ligand

>  <RI>
0

>  <Rbt.Current_Directory>
/home/itssahil/PROJECTS/Mol_Feturizer/Test_systems_manuscript/rnas/5kpy

>  <Rbt.Executable>
rbdock ($Id: //depot/dev/client3/rdock/2013.1/src/exe/rbdock.cxx#4 $)

>  <Rbt.Library>
libRbt.so (2013.1, Build901 2013/11/27)

>  <Rbt.Parameter_File>
/export/apps/rDock/src/rDock_2013.1_src/data/scripts/dock_solv.prm

>  <Rbt.Receptor>
prm/pocket_docking_4.prm

>  <SCORE>
-19.7473

>  <SCORE.INTER>
-19.5916

>  <SCORE.INTER.CONST>
1

>  <SCORE.INTER.POLAR>
0

>  <SCORE.INTER.ROT>
3

>  <SCORE.INTER.SOLV>
4.99236

>  <SCORE.INTER.VDW>
-20.3252

>  <SCORE.INTER.norm>
-1.22447

>  <SCORE.INTRA>
-0.155708

>  <SCORE.INTRA.DIHEDRAL>
0.161887

>  <SCORE.INTRA.DIHEDRAL.0>
3.89056

>  <SCORE.INTRA.POLAR>
0

>  <SCORE.INTRA.POLAR.0>
0

>  <SCORE.INTRA.REPUL>
0

>  <SCORE.INTRA.REPUL.0>
0

>  <SCORE.INTRA.SOLV>
-0.203073

>  <SCORE.INTRA.SOLV.lig_0>
-20.733

>  <SCORE.INTRA.VDW>
-0.135116

>  <SCORE.INTRA.VDW.0>
-0.828515

>  <SCORE.INTRA.norm>
-0.00973178

>  <SCORE.RESTR>
0

>  <SCORE.RESTR.CAVITY>
0

>  <SCORE.RESTR.norm>
0

>  <SCORE.SYSTEM>
0

>  <SCORE.SYSTEM.CONST>
0

>  <SCORE.SYSTEM.DIHEDRAL>
0

>  <SCORE.SYSTEM.SOLV>
0

>  <SCORE.SYSTEM.norm>
0

>  <SCORE.heavy>
16

>  <SCORE.norm>
-1.23421

>  <RMSD>
1.973

$$$$
ligand
 OpenBabel02271912153D
libRbt.so/2013.1/901 2013/11/27
 16 17  0  0  0  0  0  0  0  0999 V2000
    8.0121    6.5528   85.6732 N   0  0  0  0  0  0  0  0  0  0  0  0
    8.2299    5.9062   84.4236 C   0  0  2  0  0  0  0  0  0  0  0  0
    8.6818    6.8714   83.3634 C   0  0  0  0  0  0  0  0  0  0  0  0
    8.3969    8.0884   83.4786 O   0  0  0  0  0  0  0  0  0  0  0  0
    7.2977    0.5198   80.9230 O   0  0  0  0  0  0  0  0  0  0  0  0
    6.9745    5.2106   83.9547 C   0  0  0  0  0  0  0  0  0  0  0  0
    6.7494    3.8758   84.6242 C   0  0  0  0  0  0  0  0  0  0  0  0
    6.4532    3.6943   85.9155 C   0  0  0  0  0  0  0  0  0  0  0  0
    6.8129    2.6553   83.8764 C   0  0  0  0  0  0  0  0  0  0  0  0
    6.5220    1.6460   84.8346 C   0  0  0  0  0  0  0  0  0  0  0  0
    7.0599    2.3073   82.5769 C   0  0  0  0  0  0  0  0  0  0  0  0
    6.3189    2.3577   86.0368 N   0  0  0  0  0  0  0  0  0  0  0  0
    6.4832    0.3385   84.5351 C   0  0  0  0  0  0  0  0  0  0  0  0
    7.0358    0.9192   82.2401 C   0  0  0  0  0  0  0  0  0  0  0  0
    6.7491   -0.0862   83.2299 C   0  0  0  0  0  0  0  0  0  0  0  0
    9.3198    6.4568   82.3729 O   0  0  0  0  0  0  0  0  0  0  0  0
  2  1  1  1  0  0  0
  2  3  1  0  0  0  0
  2  6  1  0  0  0  0
  3  4  1  0  0  0  0
  3 16  1  0  0  0  0
  5 14  1  0  0  0  0
  6  7  1  0  0  0  0
  7  8  2  0  0  0  0
  7  9  1  0  0  0  0
  8 12  1  0  0  0  0
  9 10  2  0  0  0  0
  9 11  1  0  0  0  0
 10 13  1  0  0  0  0
 10 12  1  0  0  0  0
 11 14  2  0  0  0  0
 13 15  2  0  0  0  0
 14 15  1  0  0  0  0
M  END
>  <CHROM.1>
-24.10550511,-79.94614295,67.87190970,7.37452583,3.70684882,83.82752413,0.90904222
1.13645868,0.71786275

>  <Name>
ligand

>  <RI>
0

>  <Rbt.Current_Directory>
/home/itssahil/PROJECTS/Mol_Feturizer/Test_systems_manuscript/rnas/5kpy

>  <Rbt.Executable>
rbdock ($Id: //depot/dev/client3/rdock/2013.1/src/exe/rbdock.cxx#4 $)

>  <Rbt.Library>
libRbt.so (2013.1, Build901 2013/11/27)

>  <Rbt.Parameter_File>
/export/apps/rDock/src/rDock_2013.1_src/data/scripts/dock_solv.prm

>  <Rbt.Receptor>
prm/pocket_docking_3.prm

>  <SCORE>
-19.7488

>  <SCORE.INTER>
-20.0961

>  <SCORE.INTER.CONST>
1

>  <SCORE.INTER.POLAR>
0

>  <SCORE.INTER.ROT>
3

>  <SCORE.INTER.SOLV>
6.68498

>  <SCORE.INTER.VDW>
-21.2257

>  <SCORE.INTER.norm>
-1.25601

>  <SCORE.INTRA>
0.347359

>  <SCORE.INTRA.DIHEDRAL>
1.34093

>  <SCORE.INTRA.DIHEDRAL.0>
3.89056

>  <SCORE.INTRA.POLAR>
0

>  <SCORE.INTRA.POLAR.0>
0

>  <SCORE.INTRA.REPUL>
0

>  <SCORE.INTRA.REPUL.0>
0

>  <SCORE.INTRA.SOLV>
-0.356365

>  <SCORE.INTRA.SOLV.lig_0>
-20.733

>  <SCORE.INTRA.VDW>
-0.144925

>  <SCORE.INTRA.VDW.0>
-0.828515

>  <SCORE.INTRA.norm>
0.0217099

>  <SCORE.RESTR>
0

>  <SCORE.RESTR.CAVITY>
0

>  <SCORE.RESTR.norm>
0

>  <SCORE.SYSTEM>
0

>  <SCORE.SYSTEM.CONST>
0

>  <SCORE.SYSTEM.DIHEDRAL>
0

>  <SCORE.SYSTEM.SOLV>
0

>  <SCORE.SYSTEM.norm>
0

>  <SCORE.heavy>
16

>  <SCORE.norm>
-1.2343

>  <RMSD>
1.978

$$$$
ligand
 OpenBabel02271912153D
libRbt.so/2013.1/901 2013/11/27
 16 17  0  0  0  0  0  0  0  0999 V2000
    8.2950    6.3614   85.4772 N   0  0  0  0  0  0  0  0  0  0  0  0
    8.1445    5.9284   84.1293 C   0  0  2  0  0  0  0  0  0  0  0  0
    8.2571    7.0695   83.1572 C   0  0  0  0  0  0  0  0  0  0  0  0
    8.6321    6.8406   81.9816 O   0  0  0  0  0  0  0  0  0  0  0  0
    7.2406    0.5462   80.9221 O   0  0  0  0  0  0  0  0  0  0  0  0
    6.8139    5.2423   83.9328 C   0  0  0  0  0  0  0  0  0  0  0  0
    6.7272    3.9038   84.6269 C   0  0  0  0  0  0  0  0  0  0  0  0
    6.5354    3.7191   85.9372 C   0  0  0  0  0  0  0  0  0  0  0  0
    6.8207    2.6811   83.8859 C   0  0  0  0  0  0  0  0  0  0  0  0
    6.6668    1.6667   84.8700 C   0  0  0  0  0  0  0  0  0  0  0  0
    6.9989    2.3342   82.5749 C   0  0  0  0  0  0  0  0  0  0  0  0
    6.5008    2.3781   86.0780 N   0  0  0  0  0  0  0  0  0  0  0  0
    6.6957    0.3558   84.5841 C   0  0  0  0  0  0  0  0  0  0  0  0
    7.0453    0.9436   82.2513 C   0  0  0  0  0  0  0  0  0  0  0  0
    6.8975   -0.0663   83.2667 C   0  0  0  0  0  0  0  0  0  0  0  0
    7.9941    8.2331   83.5276 O   0  0  0  0  0  0  0  0  0  0  0  0
  2  1  1  1  0  0  0
  2  3  1  0  0  0  0
  2  6  1  0  0  0  0
  3  4  1  0  0  0  0
  3 16  1  0  0  0  0
  5 14  1  0  0  0  0
  6  7  1  0  0  0  0
  7  8  2  0  0  0  0
  7  9  1  0  0  0  0
  8 12  1  0  0  0  0
  9 10  2  0  0  0  0
  9 11  1  0  0  0  0
 10 13  1  0  0  0  0
 10 12  1  0  0  0  0
 11 14  2  0  0  0  0
 13 15  2  0  0  0  0
 14 15  1  0  0  0  0
M  END
>  <CHROM.1>
154.14111213,-69.64291544,77.10790280,7.30799749,3.76296415,83.76926858,0.82799324
1.26922557,0.77869791

>  <Name>
ligand

>  <RI>
0

>  <Rbt.Current_Directory>
/home/itssahil/PROJECTS/Mol_Feturizer/Test_systems_manuscript/rnas/5kpy

>  <Rbt.Executable>
rbdock ($Id: //depot/dev/client3/rdock/2013.1/src/exe/rbdock.cxx#4 $)

>  <Rbt.Library>
libRbt.so (2013.1, Build901 2013/11/27)

>  <Rbt.Parameter_File>
/export/apps/rDock/src/rDock_2013.1_src/data/scripts/dock_solv.prm

>  <Rbt.Receptor>
prm/pocket_docking_7.prm

>  <SCORE>
-19.7429

>  <SCORE.INTER>
-19.6152

>  <SCORE.INTER.CONST>
1

>  <SCORE.INTER.POLAR>
0

>  <SCORE.INTER.ROT>
3

>  <SCORE.INTER.SOLV>
7.55906

>  <SCORE.INTER.VDW>
-21.1965

>  <SCORE.INTER.norm>
-1.22595

>  <SCORE.INTRA>
-0.127636

>  <SCORE.INTRA.DIHEDRAL>
0.341978

>  <SCORE.INTRA.DIHEDRAL.0>
3.89056

>  <SCORE.INTRA.POLAR>
0

>  <SCORE.INTRA.POLAR.0>
0

>  <SCORE.INTRA.REPUL>
0

>  <SCORE.INTRA.REPUL.0>
0

>  <SCORE.INTRA.SOLV>
-0.264276

>  <SCORE.INTRA.SOLV.lig_0>
-20.733

>  <SCORE.INTRA.VDW>
-0.166487

>  <SCORE.INTRA.VDW.0>
-0.828515

>  <SCORE.INTRA.norm>
-0.00797724

>  <SCORE.RESTR>
0

>  <SCORE.RESTR.CAVITY>
0

>  <SCORE.RESTR.norm>
0

>  <SCORE.SYSTEM>
0

>  <SCORE.SYSTEM.CONST>
0

>  <SCORE.SYSTEM.DIHEDRAL>
0

>  <SCORE.SYSTEM.SOLV>
0

>  <SCORE.SYSTEM.norm>
0

>  <SCORE.heavy>
16

>  <SCORE.norm>
-1.23393

>  <RMSD>
1.980

$$$$
ligand
 OpenBabel02271912153D
libRbt.so/2013.1/901 2013/11/27
 16 17  0  0  0  0  0  0  0  0999 V2000
    8.2840    6.3581   85.4677 N   0  0  0  0  0  0  0  0  0  0  0  0
    8.1586    5.9002   84.1254 C   0  0  2  0  0  0  0  0  0  0  0  0
    8.3065    7.0206   83.1341 C   0  0  0  0  0  0  0  0  0  0  0  0
    7.9596    8.1813   83.4623 O   0  0  0  0  0  0  0  0  0  0  0  0
    7.3130    0.5174   80.9300 O   0  0  0  0  0  0  0  0  0  0  0  0
    6.8248    5.2256   83.9123 C   0  0  0  0  0  0  0  0  0  0  0  0
    6.7164    3.8899   84.6087 C   0  0  0  0  0  0  0  0  0  0  0  0
    6.4908    3.7104   85.9144 C   0  0  0  0  0  0  0  0  0  0  0  0
    6.8248    2.6642   83.8746 C   0  0  0  0  0  0  0  0  0  0  0  0
    6.6428    1.6538   84.8581 C   0  0  0  0  0  0  0  0  0  0  0  0
    7.0351    2.3121   82.5698 C   0  0  0  0  0  0  0  0  0  0  0  0
    6.4485    2.3701   86.0590 N   0  0  0  0  0  0  0  0  0  0  0  0
    6.6749    0.3419   84.5777 C   0  0  0  0  0  0  0  0  0  0  0  0
    7.0854    0.9202   82.2524 C   0  0  0  0  0  0  0  0  0  0  0  0
    6.9087   -0.0857   83.2673 C   0  0  0  0  0  0  0  0  0  0  0  0
    8.7554    6.7881   81.9920 O   0  0  0  0  0  0  0  0  0  0  0  0
  2  1  1  1  0  0  0
  2  3  1  0  0  0  0
  2  6  1  0  0  0  0
  3  4  1  0  0  0  0
  3 16  1  0  0  0  0
  5 14  1  0  0  0  0
  6  7  1  0  0  0  0
  7  8  2  0  0  0  0
  7  9  1  0  0  0  0
  8 12  1  0  0  0  0
  9 10  2  0  0  0  0
  9 11  1  0  0  0  0
 10 13  1  0  0  0  0
 10 12  1  0  0  0  0
 11 14  2  0  0  0  0
 13 15  2  0  0  0  0
 14 15  1  0  0  0  0
M  END
>  <CHROM.1>
-29.73152282,-70.74181768,77.84732651,7.31993714,3.73904352,83.75669166,0.88029790
1.24611921,0.71899303

>  <Name>
ligand

>  <RI>
0

>  <Rbt.Current_Directory>
/home/itssahil/PROJECTS/Mol_Feturizer/Test_systems_manuscript/rnas/5kpy

>  <Rbt.Executable>
rbdock ($Id: //depot/dev/client3/rdock/2013.1/src/exe/rbdock.cxx#4 $)

>  <Rbt.Library>
libRbt.so (2013.1, Build901 2013/11/27)

>  <Rbt.Parameter_File>
/export/apps/rDock/src/rDock_2013.1_src/data/scripts/dock_solv.prm

>  <Rbt.Receptor>
prm/pocket_docking_4.prm

>  <SCORE>
-19.7853

>  <SCORE.INTER>
-19.6387

>  <SCORE.INTER.CONST>
1

>  <SCORE.INTER.POLAR>
0

>  <SCORE.INTER.ROT>
3

>  <SCORE.INTER.SOLV>
7.54068

>  <SCORE.INTER.VDW>
-21.2061

>  <SCORE.INTER.norm>
-1.22742

>  <SCORE.INTRA>
-0.146519

>  <SCORE.INTRA.DIHEDRAL>
0.36674

>  <SCORE.INTRA.DIHEDRAL.0>
3.89056

>  <SCORE.INTRA.POLAR>
0

>  <SCORE.INTRA.POLAR.0>
0

>  <SCORE.INTRA.REPUL>
0

>  <SCORE.INTRA.REPUL.0>
0

>  <SCORE.INTRA.SOLV>
-0.281754

>  <SCORE.INTRA.SOLV.lig_0>
-20.733

>  <SCORE.INTRA.VDW>
-0.189012

>  <SCORE.INTRA.VDW.0>
-0.828515

>  <SCORE.INTRA.norm>
-0.00915741

>  <SCORE.RESTR>
0

>  <SCORE.RESTR.CAVITY>
0

>  <SCORE.RESTR.norm>
0

>  <SCORE.SYSTEM>
0

>  <SCORE.SYSTEM.CONST>
0

>  <SCORE.SYSTEM.DIHEDRAL>
0

>  <SCORE.SYSTEM.SOLV>
0

>  <SCORE.SYSTEM.norm>
0

>  <SCORE.heavy>
16

>  <SCORE.norm>
-1.23658

>  <RMSD>
1.982

$$$$
ligand
 OpenBabel02271912153D
libRbt.so/2013.1/901 2013/11/27
 16 17  0  0  0  0  0  0  0  0999 V2000
    8.2995    6.3528   85.4331 N   0  0  0  0  0  0  0  0  0  0  0  0
    8.1388    5.9366   84.0811 C   0  0  2  0  0  0  0  0  0  0  0  0
    8.2323    7.0915   83.1234 C   0  0  0  0  0  0  0  0  0  0  0  0
    7.9034    8.2391   83.5107 O   0  0  0  0  0  0  0  0  0  0  0  0
    7.2435    0.5256   80.9110 O   0  0  0  0  0  0  0  0  0  0  0  0
    6.8120    5.2422   83.8888 C   0  0  0  0  0  0  0  0  0  0  0  0
    6.7317    3.9085   84.5929 C   0  0  0  0  0  0  0  0  0  0  0  0
    6.5446    3.7328   85.9052 C   0  0  0  0  0  0  0  0  0  0  0  0
    6.8265    2.6807   83.8605 C   0  0  0  0  0  0  0  0  0  0  0  0
    6.6789    1.6730   84.8525 C   0  0  0  0  0  0  0  0  0  0  0  0
    7.0015    2.3248   82.5516 C   0  0  0  0  0  0  0  0  0  0  0  0
    6.5146    2.3927   86.0559 N   0  0  0  0  0  0  0  0  0  0  0  0
    6.7109    0.3602   84.5761 C   0  0  0  0  0  0  0  0  0  0  0  0
    7.0512    0.9320   82.2380 C   0  0  0  0  0  0  0  0  0  0  0  0
    6.9098   -0.0709   83.2611 C   0  0  0  0  0  0  0  0  0  0  0  0
    8.6185    6.9004   81.9510 O   0  0  0  0  0  0  0  0  0  0  0  0
  2  1  1  1  0  0  0
  2  3  1  0  0  0  0
  2  6  1  0  0  0  0
  3  4  1  0  0  0  0
  3 16  1  0  0  0  0
  5 14  1  0  0  0  0
  6  7  1  0  0  0  0
  7  8  2  0  0  0  0
  7  9  1  0  0  0  0
  8 12  1  0  0  0  0
  9 10  2  0  0  0  0
  9 11  1  0  0  0  0
 10 13  1  0  0  0  0
 10 12  1  0  0  0  0
 11 14  2  0  0  0  0
 13 15  2  0  0  0  0
 14 15  1  0  0  0  0
M  END
>  <CHROM.1>
-28.08655965,-68.28095416,76.84914831,7.30347786,3.76872989,83.74358955,0.83552807
1.27764339,0.76865509

>  <Name>
ligand

>  <RI>
0

>  <Rbt.Current_Directory>
/home/itssahil/PROJECTS/Mol_Feturizer/Test_systems_manuscript/rnas/5kpy

>  <Rbt.Executable>
rbdock ($Id: //depot/dev/client3/rdock/2013.1/src/exe/rbdock.cxx#4 $)

>  <Rbt.Library>
libRbt.so (2013.1, Build901 2013/11/27)

>  <Rbt.Parameter_File>
/export/apps/rDock/src/rDock_2013.1_src/data/scripts/dock_solv.prm

>  <Rbt.Receptor>
prm/pocket_docking_4.prm

>  <SCORE>
-19.6994

>  <SCORE.INTER>
-19.521

>  <SCORE.INTER.CONST>
1

>  <SCORE.INTER.POLAR>
0

>  <SCORE.INTER.ROT>
3

>  <SCORE.INTER.SOLV>
7.59608

>  <SCORE.INTER.VDW>
-21.146

>  <SCORE.INTER.norm>
-1.22006

>  <SCORE.INTRA>
-0.178381

>  <SCORE.INTRA.DIHEDRAL>
0.181655

>  <SCORE.INTRA.DIHEDRAL.0>
3.89056

>  <SCORE.INTRA.POLAR>
0

>  <SCORE.INTRA.POLAR.0>
0

>  <SCORE.INTRA.REPUL>
0

>  <SCORE.INTRA.REPUL.0>
0

>  <SCORE.INTRA.SOLV>
-0.244395

>  <SCORE.INTRA.SOLV.lig_0>
-20.733

>  <SCORE.INTRA.VDW>
-0.147011

>  <SCORE.INTRA.VDW.0>
-0.828515

>  <SCORE.INTRA.norm>
-0.0111488

>  <SCORE.RESTR>
0

>  <SCORE.RESTR.CAVITY>
0

>  <SCORE.RESTR.norm>
0

>  <SCORE.SYSTEM>
0

>  <SCORE.SYSTEM.CONST>
0

>  <SCORE.SYSTEM.DIHEDRAL>
0

>  <SCORE.SYSTEM.SOLV>
0

>  <SCORE.SYSTEM.norm>
0

>  <SCORE.heavy>
16

>  <SCORE.norm>
-1.23121

>  <RMSD>
1.982

$$$$
ligand
 OpenBabel02271912153D
libRbt.so/2013.1/901 2013/11/27
 16 17  0  0  0  0  0  0  0  0999 V2000
    8.2733    6.4136   85.6219 N   0  0  0  0  0  0  0  0  0  0  0  0
    8.2904    5.9228   84.2855 C   0  0  2  0  0  0  0  0  0  0  0  0
    8.5461    7.0184   83.2884 C   0  0  0  0  0  0  0  0  0  0  0  0
    8.1569    8.1841   83.5431 O   0  0  0  0  0  0  0  0  0  0  0  0
    7.3539    0.5022   81.0009 O   0  0  0  0  0  0  0  0  0  0  0  0
    6.9850    5.2433   83.9480 C   0  0  0  0  0  0  0  0  0  0  0  0
    6.8070    3.9170   84.6482 C   0  0  0  0  0  0  0  0  0  0  0  0
    6.5441    3.7543   85.9491 C   0  0  0  0  0  0  0  0  0  0  0  0
    6.8834    2.6838   83.9228 C   0  0  0  0  0  0  0  0  0  0  0  0
    6.6383    1.6872   84.9066 C   0  0  0  0  0  0  0  0  0  0  0  0
    7.1098    2.3160   82.6250 C   0  0  0  0  0  0  0  0  0  0  0  0
    6.4448    2.4175   86.0991 N   0  0  0  0  0  0  0  0  0  0  0  0
    6.6244    0.3734   84.6334 C   0  0  0  0  0  0  0  0  0  0  0  0
    7.1118    0.9214   82.3156 C   0  0  0  0  0  0  0  0  0  0  0  0
    6.8714   -0.0707   83.3309 C   0  0  0  0  0  0  0  0  0  0  0  0
    9.1259    6.7603   82.2127 O   0  0  0  0  0  0  0  0  0  0  0  0
  2  1  1  1  0  0  0
  2  3  1  0  0  0  0
  2  6  1  0  0  0  0
  3  4  1  0  0  0  0
  3 16  1  0  0  0  0
  5 14  1  0  0  0  0
  6  7  1  0  0  0  0
  7  8  2  0  0  0  0
  7  9  1  0  0  0  0
  8 12  1  0  0  0  0
  9 10  2  0  0  0  0
  9 11  1  0  0  0  0
 10 13  1  0  0  0  0
 10 12  1  0  0  0  0
 11 14  2  0  0  0  0
 13 15  2  0  0  0  0
 14 15  1  0  0  0  0
M  END
>  <CHROM.1>
-30.47612491,-71.45894127,72.79641662,7.40951066,3.75526397,83.84206329,0.88325998
1.19615126,0.72475408

>  <Name>
ligand

>  <RI>
0

>  <Rbt.Current_Directory>
/home/itssahil/PROJECTS/Mol_Feturizer/Test_systems_manuscript/rnas/5kpy

>  <Rbt.Executable>
rbdock ($Id: //depot/dev/client3/rdock/2013.1/src/exe/rbdock.cxx#4 $)

>  <Rbt.Library>
libRbt.so (2013.1, Build901 2013/11/27)

>  <Rbt.Parameter_File>
/export/apps/rDock/src/rDock_2013.1_src/data/scripts/dock_solv.prm

>  <Rbt.Receptor>
prm/pocket_docking_8.prm

>  <SCORE>
-19.8826

>  <SCORE.INTER>
-19.8018

>  <SCORE.INTER.CONST>
1

>  <SCORE.INTER.POLAR>
0

>  <SCORE.INTER.ROT>
3

>  <SCORE.INTER.SOLV>
7.41706

>  <SCORE.INTER.VDW>
-21.2736

>  <SCORE.INTER.norm>
-1.23762

>  <SCORE.INTRA>
-0.0807801

>  <SCORE.INTRA.DIHEDRAL>
0.411359

>  <SCORE.INTRA.DIHEDRAL.0>
3.89056

>  <SCORE.INTRA.POLAR>
0

>  <SCORE.INTRA.POLAR.0>
0

>  <SCORE.INTRA.REPUL>
0

>  <SCORE.INTRA.REPUL.0>
0

>  <SCORE.INTRA.SOLV>
-0.265196

>  <SCORE.INTRA.SOLV.lig_0>
-20.733

>  <SCORE.INTRA.VDW>
-0.153861

>  <SCORE.INTRA.VDW.0>
-0.828515

>  <SCORE.INTRA.norm>
-0.00504876

>  <SCORE.RESTR>
0

>  <SCORE.RESTR.CAVITY>
0

>  <SCORE.RESTR.norm>
0

>  <SCORE.SYSTEM>
0

>  <SCORE.SYSTEM.CONST>
0

>  <SCORE.SYSTEM.DIHEDRAL>
0

>  <SCORE.SYSTEM.SOLV>
0

>  <SCORE.SYSTEM.norm>
0

>  <SCORE.heavy>
16

>  <SCORE.norm>
-1.24266

>  <RMSD>
1.985

$$$$
ligand
 OpenBabel02271912153D
libRbt.so/2013.1/901 2013/11/27
 16 17  0  0  0  0  0  0  0  0999 V2000
    8.3048    6.3386   85.4251 N   0  0  0  0  0  0  0  0  0  0  0  0
    8.1311    5.9107   84.0784 C   0  0  2  0  0  0  0  0  0  0  0  0
    8.2389    7.0537   83.1080 C   0  0  0  0  0  0  0  0  0  0  0  0
    8.6241    6.8294   81.9347 O   0  0  0  0  0  0  0  0  0  0  0  0
    7.2968    0.5232   80.9274 O   0  0  0  0  0  0  0  0  0  0  0  0
    6.7922    5.2361   83.8994 C   0  0  0  0  0  0  0  0  0  0  0  0
    6.7007    3.9017   84.6007 C   0  0  0  0  0  0  0  0  0  0  0  0
    6.4871    3.7243   85.9087 C   0  0  0  0  0  0  0  0  0  0  0  0
    6.8137    2.6747   83.8694 C   0  0  0  0  0  0  0  0  0  0  0  0
    6.6482    1.6658   84.8573 C   0  0  0  0  0  0  0  0  0  0  0  0
    7.0166    2.3204   82.5640 C   0  0  0  0  0  0  0  0  0  0  0  0
    6.4573    2.3841   86.0576 N   0  0  0  0  0  0  0  0  0  0  0  0
    6.6892    0.3534   84.5806 C   0  0  0  0  0  0  0  0  0  0  0  0
    7.0762    0.9280   82.2504 C   0  0  0  0  0  0  0  0  0  0  0  0
    6.9162   -0.0762   83.2696 C   0  0  0  0  0  0  0  0  0  0  0  0
    7.9619    8.2143   83.4774 O   0  0  0  0  0  0  0  0  0  0  0  0
  2  1  1  1  0  0  0
  2  3  1  0  0  0  0
  2  6  1  0  0  0  0
  3  4  1  0  0  0  0
  3 16  1  0  0  0  0
  5 14  1  0  0  0  0
  6  7  1  0  0  0  0
  7  8  2  0  0  0  0
  7  9  1  0  0  0  0
  8 12  1  0  0  0  0
  9 10  2  0  0  0  0
  9 11  1  0  0  0  0
 10 13  1  0  0  0  0
 10 12  1  0  0  0  0
 11 14  2  0  0  0  0
 13 15  2  0  0  0  0
 14 15  1  0  0  0  0
M  END
>  <CHROM.1>
152.53597073,-69.16161084,78.93381431,7.30142922,3.75284014,83.74387093,0.86742286
1.26159579,0.72899606

>  <Name>
ligand

>  <RI>
0

>  <Rbt.Current_Directory>
/home/itssahil/PROJECTS/Mol_Feturizer/Test_systems_manuscript/rnas/5kpy

>  <Rbt.Executable>
rbdock ($Id: //depot/dev/client3/rdock/2013.1/src/exe/rbdock.cxx#4 $)

>  <Rbt.Library>
libRbt.so (2013.1, Build901 2013/11/27)

>  <Rbt.Parameter_File>
/export/apps/rDock/src/rDock_2013.1_src/data/scripts/dock_solv.prm

>  <Rbt.Receptor>
prm/pocket_docking_5.prm

>  <SCORE>
-19.7666

>  <SCORE.INTER>
-19.6043

>  <SCORE.INTER.CONST>
1

>  <SCORE.INTER.POLAR>
0

>  <SCORE.INTER.ROT>
3

>  <SCORE.INTER.SOLV>
7.63592

>  <SCORE.INTER.VDW>
-21.2148

>  <SCORE.INTER.norm>
-1.22527

>  <SCORE.INTRA>
-0.162313

>  <SCORE.INTRA.DIHEDRAL>
0.312165

>  <SCORE.INTRA.DIHEDRAL.0>
3.89056

>  <SCORE.INTRA.POLAR>
0

>  <SCORE.INTRA.POLAR.0>
0

>  <SCORE.INTRA.REPUL>
0

>  <SCORE.INTRA.REPUL.0>
0

>  <SCORE.INTRA.SOLV>
-0.26873

>  <SCORE.INTRA.SOLV.lig_0>
-20.733

>  <SCORE.INTRA.VDW>
-0.184031

>  <SCORE.INTRA.VDW.0>
-0.828515

>  <SCORE.INTRA.norm>
-0.0101446

>  <SCORE.RESTR>
0

>  <SCORE.RESTR.CAVITY>
0

>  <SCORE.RESTR.norm>
0

>  <SCORE.SYSTEM>
0

>  <SCORE.SYSTEM.CONST>
0

>  <SCORE.SYSTEM.DIHEDRAL>
0

>  <SCORE.SYSTEM.SOLV>
0

>  <SCORE.SYSTEM.norm>
0

>  <SCORE.heavy>
16

>  <SCORE.norm>
-1.23541

>  <RMSD>
1.987

$$$$
ligand
 OpenBabel02271912153D
libRbt.so/2013.1/901 2013/11/27
 16 17  0  0  0  0  0  0  0  0999 V2000
    8.2696    6.4427   85.5917 N   0  0  0  0  0  0  0  0  0  0  0  0
    8.2954    5.9497   84.2564 C   0  0  2  0  0  0  0  0  0  0  0  0
    8.5596    7.0432   83.2593 C   0  0  0  0  0  0  0  0  0  0  0  0
    9.1530    6.7679   82.1882 O   0  0  0  0  0  0  0  0  0  0  0  0
    7.2357    0.5410   80.9337 O   0  0  0  0  0  0  0  0  0  0  0  0
    6.9914    5.2714   83.9108 C   0  0  0  0  0  0  0  0  0  0  0  0
    6.8090    3.9441   84.6079 C   0  0  0  0  0  0  0  0  0  0  0  0
    6.5698    3.7783   85.9129 C   0  0  0  0  0  0  0  0  0  0  0  0
    6.8538    2.7137   83.8751 C   0  0  0  0  0  0  0  0  0  0  0  0
    6.6145    1.7155   84.8587 C   0  0  0  0  0  0  0  0  0  0  0  0
    7.0491    2.3495   82.5713 C   0  0  0  0  0  0  0  0  0  0  0  0
    6.4550    2.4423   86.0584 N   0  0  0  0  0  0  0  0  0  0  0  0
    6.5769    0.4034   84.5794 C   0  0  0  0  0  0  0  0  0  0  0  0
    7.0256    0.9566   82.2551 C   0  0  0  0  0  0  0  0  0  0  0  0
    6.7917   -0.0373   83.2701 C   0  0  0  0  0  0  0  0  0  0  0  0
    8.2038    8.2143   83.5085 O   0  0  0  0  0  0  0  0  0  0  0  0
  2  1  1  1  0  0  0
  2  3  1  0  0  0  0
  2  6  1  0  0  0  0
  3  4  1  0  0  0  0
  3 16  1  0  0  0  0
  5 14  1  0  0  0  0
  6  7  1  0  0  0  0
  7  8  2  0  0  0  0
  7  9  1  0  0  0  0
  8 12  1  0  0  0  0
  9 10  2  0  0  0  0
  9 11  1  0  0  0  0
 10 13  1  0  0  0  0
 10 12  1  0  0  0  0
 11 14  2  0  0  0  0
 13 15  2  0  0  0  0
 14 15  1  0  0  0  0
M  END
>  <CHROM.1>
150.23548887,-71.67414629,71.14760971,7.39103688,3.78330281,83.79905607,0.83084290
1.19774072,0.78268118

>  <Name>
ligand

>  <RI>
0

>  <Rbt.Current_Directory>
/home/itssahil/PROJECTS/Mol_Feturizer/Test_systems_manuscript/rnas/5kpy

>  <Rbt.Executable>
rbdock ($Id: //depot/dev/client3/rdock/2013.1/src/exe/rbdock.cxx#4 $)

>  <Rbt.Library>
libRbt.so (2013.1, Build901 2013/11/27)

>  <Rbt.Parameter_File>
/export/apps/rDock/src/rDock_2013.1_src/data/scripts/dock_solv.prm

>  <Rbt.Receptor>
prm/pocket_docking_5.prm

>  <SCORE>
-19.8758

>  <SCORE.INTER>
-19.8377

>  <SCORE.INTER.CONST>
1

>  <SCORE.INTER.POLAR>
0

>  <SCORE.INTER.ROT>
3

>  <SCORE.INTER.SOLV>
7.39018

>  <SCORE.INTER.VDW>
-21.2885

>  <SCORE.INTER.norm>
-1.23986

>  <SCORE.INTRA>
-0.0381464

>  <SCORE.INTRA.DIHEDRAL>
0.488849

>  <SCORE.INTRA.DIHEDRAL.0>
3.89056

>  <SCORE.INTRA.POLAR>
0

>  <SCORE.INTRA.POLAR.0>
0

>  <SCORE.INTRA.REPUL>
0

>  <SCORE.INTRA.REPUL.0>
0

>  <SCORE.INTRA.SOLV>
-0.261354

>  <SCORE.INTRA.SOLV.lig_0>
-20.733

>  <SCORE.INTRA.VDW>
-0.151894

>  <SCORE.INTRA.VDW.0>
-0.828515

>  <SCORE.INTRA.norm>
-0.00238415

>  <SCORE.RESTR>
0

>  <SCORE.RESTR.CAVITY>
0

>  <SCORE.RESTR.norm>
0

>  <SCORE.SYSTEM>
0

>  <SCORE.SYSTEM.CONST>
0

>  <SCORE.SYSTEM.DIHEDRAL>
0

>  <SCORE.SYSTEM.SOLV>
0

>  <SCORE.SYSTEM.norm>
0

>  <SCORE.heavy>
16

>  <SCORE.norm>
-1.24224

>  <RMSD>
1.994

$$$$
ligand
 OpenBabel02271912153D
libRbt.so/2013.1/901 2013/11/27
 16 17  0  0  0  0  0  0  0  0999 V2000
    6.0101    5.2363   82.3394 N   0  0  0  0  0  0  0  0  0  0  0  0
    6.1660    5.9479   83.5627 C   0  0  2  0  0  0  0  0  0  0  0  0
    6.5325    7.3874   83.3319 C   0  0  0  0  0  0  0  0  0  0  0  0
    5.7437    8.2897   83.7047 O   0  0  0  0  0  0  0  0  0  0  0  0
    7.6833    0.8396   81.0843 O   0  0  0  0  0  0  0  0  0  0  0  0
    7.2224    5.3022   84.4268 C   0  0  0  0  0  0  0  0  0  0  0  0
    6.8179    3.9418   84.9430 C   0  0  0  0  0  0  0  0  0  0  0  0
    6.3264    3.6873   86.1603 C   0  0  0  0  0  0  0  0  0  0  0  0
    6.9115    2.7791   84.1109 C   0  0  0  0  0  0  0  0  0  0  0  0
    6.4209    1.7260   84.9303 C   0  0  0  0  0  0  0  0  0  0  0  0
    7.3220    2.5115   82.8340 C   0  0  0  0  0  0  0  0  0  0  0  0
    6.0911    2.3592   86.1481 N   0  0  0  0  0  0  0  0  0  0  0  0
    6.3429    0.4510   84.5188 C   0  0  0  0  0  0  0  0  0  0  0  0
    7.2588    1.1582   82.3809 C   0  0  0  0  0  0  0  0  0  0  0  0
    6.7679    0.1061   83.2324 C   0  0  0  0  0  0  0  0  0  0  0  0
    7.6051    7.6743   82.7597 O   0  0  0  0  0  0  0  0  0  0  0  0
  2  1  1  6  0  0  0
  2  3  1  0  0  0  0
  2  6  1  0  0  0  0
  3  4  1  0  0  0  0
  3 16  1  0  0  0  0
  5 14  1  0  0  0  0
  6  7  1  0  0  0  0
  7  8  2  0  0  0  0
  7  9  1  0  0  0  0
  8 12  1  0  0  0  0
  9 10  2  0  0  0  0
  9 11  1  0  0  0  0
 10 13  1  0  0  0  0
 10 12  1  0  0  0  0
 11 14  2  0  0  0  0
 13 15  2  0  0  0  0
 14 15  1  0  0  0  0
M  END
>  <CHROM.1>
116.65438376,-67.75978545,-98.96150828,6.70904264,3.84686474,83.72161039
-1.80594380,-1.31568157,2.90997772

>  <Name>
ligand

>  <RI>
0

>  <Rbt.Current_Directory>
/home/itssahil/PROJECTS/Mol_Feturizer/Test_systems_manuscript/rnas/5kpy

>  <Rbt.Executable>
rbdock ($Id: //depot/dev/client3/rdock/2013.1/src/exe/rbdock.cxx#4 $)

>  <Rbt.Library>
libRbt.so (2013.1, Build901 2013/11/27)

>  <Rbt.Parameter_File>
/export/apps/rDock/src/rDock_2013.1_src/data/scripts/dock_solv.prm

>  <Rbt.Receptor>
prm/pocket_docking_6.prm

>  <SCORE>
-17.199

>  <SCORE.INTER>
-17.0957

>  <SCORE.INTER.CONST>
1

>  <SCORE.INTER.POLAR>
0

>  <SCORE.INTER.ROT>
3

>  <SCORE.INTER.SOLV>
7.15939

>  <SCORE.INTER.VDW>
-19.3836

>  <SCORE.INTER.norm>
-1.06848

>  <SCORE.INTRA>
-0.103308

>  <SCORE.INTRA.DIHEDRAL>
0.0361421

>  <SCORE.INTRA.DIHEDRAL.0>
3.89056

>  <SCORE.INTRA.POLAR>
0

>  <SCORE.INTRA.POLAR.0>
0

>  <SCORE.INTRA.REPUL>
0

>  <SCORE.INTRA.REPUL.0>
0

>  <SCORE.INTRA.SOLV>
0.306162

>  <SCORE.INTRA.SOLV.lig_0>
-20.733

>  <SCORE.INTRA.VDW>
-0.274461

>  <SCORE.INTRA.VDW.0>
-0.828515

>  <SCORE.INTRA.norm>
-0.00645678

>  <SCORE.RESTR>
0

>  <SCORE.RESTR.CAVITY>
0

>  <SCORE.RESTR.norm>
0

>  <SCORE.SYSTEM>
0

>  <SCORE.SYSTEM.CONST>
0

>  <SCORE.SYSTEM.DIHEDRAL>
0

>  <SCORE.SYSTEM.SOLV>
0

>  <SCORE.SYSTEM.norm>
0

>  <SCORE.heavy>
16

>  <SCORE.norm>
-1.07494

>  <RMSD>
1.994

$$$$
ligand
 OpenBabel02271912153D
libRbt.so/2013.1/901 2013/11/27
 16 17  0  0  0  0  0  0  0  0999 V2000
    8.4199    6.2544   85.2260 N   0  0  0  0  0  0  0  0  0  0  0  0
    8.0756    5.8672   83.8999 C   0  0  2  0  0  0  0  0  0  0  0  0
    8.0963    7.0333   82.9515 C   0  0  0  0  0  0  0  0  0  0  0  0
    8.2380    6.8232   81.7222 O   0  0  0  0  0  0  0  0  0  0  0  0
    7.2474    0.5005   80.9249 O   0  0  0  0  0  0  0  0  0  0  0  0
    6.7078    5.2285   83.8667 C   0  0  0  0  0  0  0  0  0  0  0  0
    6.6556    3.8987   84.5807 C   0  0  0  0  0  0  0  0  0  0  0  0
    6.4702    3.7286   85.8939 C   0  0  0  0  0  0  0  0  0  0  0  0
    6.7784    2.6678   83.8576 C   0  0  0  0  0  0  0  0  0  0  0  0
    6.6512    1.6646   84.8569 C   0  0  0  0  0  0  0  0  0  0  0  0
    6.9634    2.3062   82.5516 C   0  0  0  0  0  0  0  0  0  0  0  0
    6.4692    2.3894   86.0546 N   0  0  0  0  0  0  0  0  0  0  0  0
    6.7125    0.3508   84.5903 C   0  0  0  0  0  0  0  0  0  0  0  0
    7.0441    0.9125   82.2485 C   0  0  0  0  0  0  0  0  0  0  0  0
    6.9229   -0.0857   83.2789 C   0  0  0  0  0  0  0  0  0  0  0  0
    7.9895    8.1975   83.3913 O   0  0  0  0  0  0  0  0  0  0  0  0
  2  1  1  1  0  0  0
  2  3  1  0  0  0  0
  2  6  1  0  0  0  0
  3  4  1  0  0  0  0
  3 16  1  0  0  0  0
  5 14  1  0  0  0  0
  6  7  1  0  0  0  0
  7  8  2  0  0  0  0
  7  9  1  0  0  0  0
  8 12  1  0  0  0  0
  9 10  2  0  0  0  0
  9 11  1  0  0  0  0
 10 13  1  0  0  0  0
 10 12  1  0  0  0  0
 11 14  2  0  0  0  0
 13 15  2  0  0  0  0
 14 15  1  0  0  0  0
M  END
>  <CHROM.1>
157.56619296,-67.27901019,84.56875493,7.25329043,3.73702931,83.68316490,0.80177099
1.30013335,0.77023450

>  <Name>
ligand

>  <RI>
0

>  <Rbt.Current_Directory>
/home/itssahil/PROJECTS/Mol_Feturizer/Test_systems_manuscript/rnas/5kpy

>  <Rbt.Executable>
rbdock ($Id: //depot/dev/client3/rdock/2013.1/src/exe/rbdock.cxx#4 $)

>  <Rbt.Library>
libRbt.so (2013.1, Build901 2013/11/27)

>  <Rbt.Parameter_File>
/export/apps/rDock/src/rDock_2013.1_src/data/scripts/dock_solv.prm

>  <Rbt.Receptor>
prm/pocket_docking_4.prm

>  <SCORE>
-19.6644

>  <SCORE.INTER>
-19.4657

>  <SCORE.INTER.CONST>
1

>  <SCORE.INTER.POLAR>
0

>  <SCORE.INTER.ROT>
3

>  <SCORE.INTER.SOLV>
8.20851

>  <SCORE.INTER.VDW>
-21.3133

>  <SCORE.INTER.norm>
-1.2166

>  <SCORE.INTRA>
-0.198698

>  <SCORE.INTRA.DIHEDRAL>
0.198991

>  <SCORE.INTRA.DIHEDRAL.0>
3.89056

>  <SCORE.INTRA.POLAR>
0

>  <SCORE.INTRA.POLAR.0>
0

>  <SCORE.INTRA.REPUL>
0

>  <SCORE.INTRA.REPUL.0>
0

>  <SCORE.INTRA.SOLV>
-0.277215

>  <SCORE.INTRA.SOLV.lig_0>
-20.733

>  <SCORE.INTRA.VDW>
-0.159585

>  <SCORE.INTRA.VDW.0>
-0.828515

>  <SCORE.INTRA.norm>
-0.0124186

>  <SCORE.RESTR>
0

>  <SCORE.RESTR.CAVITY>
0

>  <SCORE.RESTR.norm>
0

>  <SCORE.SYSTEM>
0

>  <SCORE.SYSTEM.CONST>
0

>  <SCORE.SYSTEM.DIHEDRAL>
0

>  <SCORE.SYSTEM.SOLV>
0

>  <SCORE.SYSTEM.norm>
0

>  <SCORE.heavy>
16

>  <SCORE.norm>
-1.22902

>  <RMSD>
2.030

$$$$
ligand
 OpenBabel02271912153D
libRbt.so/2013.1/901 2013/11/27
 16 17  0  0  0  0  0  0  0  0999 V2000
    6.8024    7.4379   84.0629 N   0  0  0  0  0  0  0  0  0  0  0  0
    7.2828    6.1103   84.2466 C   0  0  2  0  0  0  0  0  0  0  0  0
    8.3611    5.7619   83.2589 C   0  0  0  0  0  0  0  0  0  0  0  0
    9.1085    6.6694   82.8196 O   0  0  0  0  0  0  0  0  0  0  0  0
    7.2392    0.5668   81.0433 O   0  0  0  0  0  0  0  0  0  0  0  0
    6.1574    5.1116   84.1213 C   0  0  0  0  0  0  0  0  0  0  0  0
    6.4480    3.7993   84.8099 C   0  0  0  0  0  0  0  0  0  0  0  0
    6.4580    3.6012   86.1323 C   0  0  0  0  0  0  0  0  0  0  0  0
    6.7177    2.6129   84.0532 C   0  0  0  0  0  0  0  0  0  0  0  0
    6.9069    1.6075   85.0405 C   0  0  0  0  0  0  0  0  0  0  0  0
    6.8106    2.2892   82.7276 C   0  0  0  0  0  0  0  0  0  0  0  0
    6.7340    2.2877   86.2654 N   0  0  0  0  0  0  0  0  0  0  0  0
    7.1872    0.3294   84.7426 C   0  0  0  0  0  0  0  0  0  0  0  0
    7.1209    0.9364   82.3895 C   0  0  0  0  0  0  0  0  0  0  0  0
    7.3186   -0.0628   83.4071 C   0  0  0  0  0  0  0  0  0  0  0  0
    8.4953    4.5820   82.8717 O   0  0  0  0  0  0  0  0  0  0  0  0
  2  1  1  6  0  0  0
  2  3  1  0  0  0  0
  2  6  1  0  0  0  0
  3  4  1  0  0  0  0
  3 16  1  0  0  0  0
  5 14  1  0  0  0  0
  6  7  1  0  0  0  0
  7  8  2  0  0  0  0
  7  9  1  0  0  0  0
  8 12  1  0  0  0  0
  9 10  2  0  0  0  0
  9 11  1  0  0  0  0
 10 13  1  0  0  0  0
 10 12  1  0  0  0  0
 11 14  2  0  0  0  0
 13 15  2  0  0  0  0
 14 15  1  0  0  0  0
M  END
>  <CHROM.1>
29.89307698,-157.55975823,73.03844354,7.24060860,3.44429995,83.81068715,1.26303304
1.18477061,0.34562004

>  <Name>
ligand

>  <RI>
0

>  <Rbt.Current_Directory>
/home/itssahil/PROJECTS/Mol_Feturizer/Test_systems_manuscript/rnas/5kpy

>  <Rbt.Executable>
rbdock ($Id: //depot/dev/client3/rdock/2013.1/src/exe/rbdock.cxx#4 $)

>  <Rbt.Library>
libRbt.so (2013.1, Build901 2013/11/27)

>  <Rbt.Parameter_File>
/export/apps/rDock/src/rDock_2013.1_src/data/scripts/dock_solv.prm

>  <Rbt.Receptor>
prm/pocket_docking_3.prm

>  <SCORE>
-19.2005

>  <SCORE.INTER>
-19.9802

>  <SCORE.INTER.CONST>
1

>  <SCORE.INTER.POLAR>
0

>  <SCORE.INTER.ROT>
3

>  <SCORE.INTER.SOLV>
4.78553

>  <SCORE.INTER.VDW>
-20.5153

>  <SCORE.INTER.norm>
-1.24876

>  <SCORE.INTRA>
0.779737

>  <SCORE.INTRA.DIHEDRAL>
1.7029

>  <SCORE.INTRA.DIHEDRAL.0>
3.89056

>  <SCORE.INTRA.POLAR>
0

>  <SCORE.INTRA.POLAR.0>
0

>  <SCORE.INTRA.REPUL>
0

>  <SCORE.INTRA.REPUL.0>
0

>  <SCORE.INTRA.SOLV>
-1.15469

>  <SCORE.INTRA.SOLV.lig_0>
-20.733

>  <SCORE.INTRA.VDW>
0.505633

>  <SCORE.INTRA.VDW.0>
-0.828515

>  <SCORE.INTRA.norm>
0.0487335

>  <SCORE.RESTR>
0

>  <SCORE.RESTR.CAVITY>
0

>  <SCORE.RESTR.norm>
0

>  <SCORE.SYSTEM>
0

>  <SCORE.SYSTEM.CONST>
0

>  <SCORE.SYSTEM.DIHEDRAL>
0

>  <SCORE.SYSTEM.SOLV>
0

>  <SCORE.SYSTEM.norm>
0

>  <SCORE.heavy>
16

>  <SCORE.norm>
-1.20003

>  <RMSD>
2.043

$$$$
ligand
 OpenBabel02271912153D
libRbt.so/2013.1/901 2013/11/27
 16 17  0  0  0  0  0  0  0  0999 V2000
    6.7012    7.3084   83.9446 N   0  0  0  0  0  0  0  0  0  0  0  0
    7.2318    6.0022   84.1430 C   0  0  2  0  0  0  0  0  0  0  0  0
    8.3503    5.6993   83.1853 C   0  0  0  0  0  0  0  0  0  0  0  0
    9.1566    6.6096   82.8745 O   0  0  0  0  0  0  0  0  0  0  0  0
    7.1392    0.3116   81.0307 O   0  0  0  0  0  0  0  0  0  0  0  0
    6.1533    4.9569   83.9885 C   0  0  0  0  0  0  0  0  0  0  0  0
    6.4668    3.6683   84.7108 C   0  0  0  0  0  0  0  0  0  0  0  0
    6.5192    3.5144   86.0381 C   0  0  0  0  0  0  0  0  0  0  0  0
    6.7129    2.4572   83.9859 C   0  0  0  0  0  0  0  0  0  0  0  0
    6.9343    1.4852   84.9996 C   0  0  0  0  0  0  0  0  0  0  0  0
    6.7635    2.0894   82.6695 C   0  0  0  0  0  0  0  0  0  0  0  0
    6.8003    2.2060   86.2060 N   0  0  0  0  0  0  0  0  0  0  0  0
    7.2059    0.1978   84.7357 C   0  0  0  0  0  0  0  0  0  0  0  0
    7.0638    0.7259   82.3670 C   0  0  0  0  0  0  0  0  0  0  0  0
    7.2948   -0.2388   83.4105 C   0  0  0  0  0  0  0  0  0  0  0  0
    8.4599    4.5557   82.6953 O   0  0  0  0  0  0  0  0  0  0  0  0
  2  1  1  6  0  0  0
  2  3  1  0  0  0  0
  2  6  1  0  0  0  0
  3  4  1  0  0  0  0
  3 16  1  0  0  0  0
  5 14  1  0  0  0  0
  6  7  1  0  0  0  0
  7  8  2  0  0  0  0
  7  9  1  0  0  0  0
  8 12  1  0  0  0  0
  9 10  2  0  0  0  0
  9 11  1  0  0  0  0
 10 13  1  0  0  0  0
 10 12  1  0  0  0  0
 11 14  2  0  0  0  0
 13 15  2  0  0  0  0
 14 15  1  0  0  0  0
M  END
>  <CHROM.1>
37.32939762,-156.33636331,68.14128741,7.22726458,3.31489693,83.74740048,1.23742889
1.20648535,0.36565748

>  <Name>
ligand

>  <RI>
0

>  <Rbt.Current_Directory>
/home/itssahil/PROJECTS/Mol_Feturizer/Test_systems_manuscript/rnas/5kpy

>  <Rbt.Executable>
rbdock ($Id: //depot/dev/client3/rdock/2013.1/src/exe/rbdock.cxx#4 $)

>  <Rbt.Library>
libRbt.so (2013.1, Build901 2013/11/27)

>  <Rbt.Parameter_File>
/export/apps/rDock/src/rDock_2013.1_src/data/scripts/dock_solv.prm

>  <Rbt.Receptor>
prm/pocket_docking_3.prm

>  <SCORE>
-19.2139

>  <SCORE.INTER>
-20.1626

>  <SCORE.INTER.CONST>
1

>  <SCORE.INTER.POLAR>
0

>  <SCORE.INTER.ROT>
3

>  <SCORE.INTER.SOLV>
5.07385

>  <SCORE.INTER.VDW>
-20.733

>  <SCORE.INTER.norm>
-1.26016

>  <SCORE.INTRA>
0.948759

>  <SCORE.INTRA.DIHEDRAL>
1.8545

>  <SCORE.INTRA.DIHEDRAL.0>
3.89056

>  <SCORE.INTRA.POLAR>
0

>  <SCORE.INTRA.POLAR.0>
0

>  <SCORE.INTRA.REPUL>
0

>  <SCORE.INTRA.REPUL.0>
0

>  <SCORE.INTRA.SOLV>
-1.15697

>  <SCORE.INTRA.SOLV.lig_0>
-20.733

>  <SCORE.INTRA.VDW>
0.599994

>  <SCORE.INTRA.VDW.0>
-0.828515

>  <SCORE.INTRA.norm>
0.0592974

>  <SCORE.RESTR>
0

>  <SCORE.RESTR.CAVITY>
0

>  <SCORE.RESTR.norm>
0

>  <SCORE.SYSTEM>
0

>  <SCORE.SYSTEM.CONST>
0

>  <SCORE.SYSTEM.DIHEDRAL>
0

>  <SCORE.SYSTEM.SOLV>
0

>  <SCORE.SYSTEM.norm>
0

>  <SCORE.heavy>
16

>  <SCORE.norm>
-1.20087

>  <RMSD>
2.087

$$$$
ligand
 OpenBabel02271912153D
libRbt.so/2013.1/901 2013/11/27
 16 17  0  0  0  0  0  0  0  0999 V2000
    8.4905    6.2934   85.0121 N   0  0  0  0  0  0  0  0  0  0  0  0
    8.1045    5.8459   83.7169 C   0  0  2  0  0  0  0  0  0  0  0  0
    8.0952    6.9670   82.7154 C   0  0  0  0  0  0  0  0  0  0  0  0
    8.1781    8.1524   83.1193 O   0  0  0  0  0  0  0  0  0  0  0  0
    7.1943    0.4526   80.8453 O   0  0  0  0  0  0  0  0  0  0  0  0
    6.7364    5.2082   83.7564 C   0  0  0  0  0  0  0  0  0  0  0  0
    6.7181    3.8857   84.4853 C   0  0  0  0  0  0  0  0  0  0  0  0
    6.5822    3.7284   85.8062 C   0  0  0  0  0  0  0  0  0  0  0  0
    6.8213    2.6480   83.7709 C   0  0  0  0  0  0  0  0  0  0  0  0
    6.7368    1.6546   84.7845 C   0  0  0  0  0  0  0  0  0  0  0  0
    6.9601    2.2737   82.4627 C   0  0  0  0  0  0  0  0  0  0  0  0
    6.5949    2.3909   85.9805 N   0  0  0  0  0  0  0  0  0  0  0  0
    6.7957    0.3384   84.5293 C   0  0  0  0  0  0  0  0  0  0  0  0
    7.0376    0.8774   82.1712 C   0  0  0  0  0  0  0  0  0  0  0  0
    6.9602   -0.1106   83.2155 C   0  0  0  0  0  0  0  0  0  0  0  0
    7.9893    6.7144   81.4968 O   0  0  0  0  0  0  0  0  0  0  0  0
  2  1  1  1  0  0  0
  2  3  1  0  0  0  0
  2  6  1  0  0  0  0
  3  4  1  0  0  0  0
  3 16  1  0  0  0  0
  5 14  1  0  0  0  0
  6  7  1  0  0  0  0
  7  8  2  0  0  0  0
  7  9  1  0  0  0  0
  8 12  1  0  0  0  0
  9 10  2  0  0  0  0
  9 11  1  0  0  0  0
 10 13  1  0  0  0  0
 10 12  1  0  0  0  0
 11 14  2  0  0  0  0
 13 15  2  0  0  0  0
 14 15  1  0  0  0  0
M  END
>  <CHROM.1>
-12.30054787,-69.56227132,85.32142620,7.28488789,3.70958587,83.55230940,0.66509993
1.33297097,0.88674320

>  <Name>
ligand

>  <RI>
0

>  <Rbt.Current_Directory>
/home/itssahil/PROJECTS/Mol_Feturizer/Test_systems_manuscript/rnas/5kpy

>  <Rbt.Executable>
rbdock ($Id: //depot/dev/client3/rdock/2013.1/src/exe/rbdock.cxx#4 $)

>  <Rbt.Library>
libRbt.so (2013.1, Build901 2013/11/27)

>  <Rbt.Parameter_File>
/export/apps/rDock/src/rDock_2013.1_src/data/scripts/dock_solv.prm

>  <Rbt.Receptor>
prm/pocket_docking_4.prm

>  <SCORE>
-19.6353

>  <SCORE.INTER>
-19.5659

>  <SCORE.INTER.CONST>
1

>  <SCORE.INTER.POLAR>
0

>  <SCORE.INTER.ROT>
3

>  <SCORE.INTER.SOLV>
8.35308

>  <SCORE.INTER.VDW>
-21.4283

>  <SCORE.INTER.norm>
-1.22287

>  <SCORE.INTRA>
-0.0693877

>  <SCORE.INTRA.DIHEDRAL>
0.302254

>  <SCORE.INTRA.DIHEDRAL.0>
3.89056

>  <SCORE.INTRA.POLAR>
0

>  <SCORE.INTRA.POLAR.0>
0

>  <SCORE.INTRA.REPUL>
0

>  <SCORE.INTRA.REPUL.0>
0

>  <SCORE.INTRA.SOLV>
-0.303005

>  <SCORE.INTRA.SOLV.lig_0>
-20.733

>  <SCORE.INTRA.VDW>
-0.0690121

>  <SCORE.INTRA.VDW.0>
-0.828515

>  <SCORE.INTRA.norm>
-0.00433673

>  <SCORE.RESTR>
0

>  <SCORE.RESTR.CAVITY>
0

>  <SCORE.RESTR.norm>
0

>  <SCORE.SYSTEM>
0

>  <SCORE.SYSTEM.CONST>
0

>  <SCORE.SYSTEM.DIHEDRAL>
0

>  <SCORE.SYSTEM.SOLV>
0

>  <SCORE.SYSTEM.norm>
0

>  <SCORE.heavy>
16

>  <SCORE.norm>
-1.22721

>  <RMSD>
2.104

$$$$
ligand
 OpenBabel02271912153D
libRbt.so/2013.1/901 2013/11/27
 16 17  0  0  0  0  0  0  0  0999 V2000
    6.8143    7.3791   83.8774 N   0  0  0  0  0  0  0  0  0  0  0  0
    7.2833    6.0574   84.1226 C   0  0  2  0  0  0  0  0  0  0  0  0
    8.3401    5.6449   83.1363 C   0  0  0  0  0  0  0  0  0  0  0  0
    8.3935    4.4497   82.7567 O   0  0  0  0  0  0  0  0  0  0  0  0
    7.1127    0.4223   81.1041 O   0  0  0  0  0  0  0  0  0  0  0  0
    6.1450    5.0668   84.0693 C   0  0  0  0  0  0  0  0  0  0  0  0
    6.4477    3.7745   84.7897 C   0  0  0  0  0  0  0  0  0  0  0  0
    6.4942    3.6172   86.1168 C   0  0  0  0  0  0  0  0  0  0  0  0
    6.6889    2.5636   84.0628 C   0  0  0  0  0  0  0  0  0  0  0  0
    6.9004    1.5878   85.0749 C   0  0  0  0  0  0  0  0  0  0  0  0
    6.7421    2.1986   82.7457 C   0  0  0  0  0  0  0  0  0  0  0  0
    6.7664    2.3066   86.2826 N   0  0  0  0  0  0  0  0  0  0  0  0
    7.1648    0.2994   84.8090 C   0  0  0  0  0  0  0  0  0  0  0  0
    7.0349    0.8340   82.4410 C   0  0  0  0  0  0  0  0  0  0  0  0
    7.2559   -0.1346   83.4831 C   0  0  0  0  0  0  0  0  0  0  0  0
    9.1634    6.4849   82.7158 O   0  0  0  0  0  0  0  0  0  0  0  0
  2  1  1  6  0  0  0
  2  3  1  0  0  0  0
  2  6  1  0  0  0  0
  3  4  1  0  0  0  0
  3 16  1  0  0  0  0
  5 14  1  0  0  0  0
  6  7  1  0  0  0  0
  7  8  2  0  0  0  0
  7  9  1  0  0  0  0
  8 12  1  0  0  0  0
  9 10  2  0  0  0  0
  9 11  1  0  0  0  0
 10 13  1  0  0  0  0
 10 12  1  0  0  0  0
 11 14  2  0  0  0  0
 13 15  2  0  0  0  0
 14 15  1  0  0  0  0
M  END
>  <CHROM.1>
-145.06260710,-159.10156929,73.48451845,7.21483730,3.37261643,83.78199201
1.21613458,1.20454574,0.36243280

>  <Name>
ligand

>  <RI>
0

>  <Rbt.Current_Directory>
/home/itssahil/PROJECTS/Mol_Feturizer/Test_systems_manuscript/rnas/5kpy

>  <Rbt.Executable>
rbdock ($Id: //depot/dev/client3/rdock/2013.1/src/exe/rbdock.cxx#4 $)

>  <Rbt.Library>
libRbt.so (2013.1, Build901 2013/11/27)

>  <Rbt.Parameter_File>
/export/apps/rDock/src/rDock_2013.1_src/data/scripts/dock_solv.prm

>  <Rbt.Receptor>
prm/pocket_docking_3.prm

>  <SCORE>
-19.2386

>  <SCORE.INTER>
-20.1132

>  <SCORE.INTER.CONST>
1

>  <SCORE.INTER.POLAR>
0

>  <SCORE.INTER.ROT>
3

>  <SCORE.INTER.SOLV>
4.98904

>  <SCORE.INTER.VDW>
-20.6718

>  <SCORE.INTER.norm>
-1.25707

>  <SCORE.INTRA>
0.874566

>  <SCORE.INTRA.DIHEDRAL>
1.42966

>  <SCORE.INTRA.DIHEDRAL.0>
3.89056

>  <SCORE.INTRA.POLAR>
0

>  <SCORE.INTRA.POLAR.0>
0

>  <SCORE.INTRA.REPUL>
0

>  <SCORE.INTRA.REPUL.0>
0

>  <SCORE.INTRA.SOLV>
-1.17023

>  <SCORE.INTRA.SOLV.lig_0>
-20.733

>  <SCORE.INTRA.VDW>
0.744849

>  <SCORE.INTRA.VDW.0>
-0.828515

>  <SCORE.INTRA.norm>
0.0546604

>  <SCORE.RESTR>
0

>  <SCORE.RESTR.CAVITY>
0

>  <SCORE.RESTR.norm>
0

>  <SCORE.SYSTEM>
0

>  <SCORE.SYSTEM.CONST>
0

>  <SCORE.SYSTEM.DIHEDRAL>
0

>  <SCORE.SYSTEM.SOLV>
0

>  <SCORE.SYSTEM.norm>
0

>  <SCORE.heavy>
16

>  <SCORE.norm>
-1.20241

>  <RMSD>
2.107

$$$$
ligand
 OpenBabel02271912153D
libRbt.so/2013.1/901 2013/11/27
 16 17  0  0  0  0  0  0  0  0999 V2000
    8.0405    5.3004   83.2658 N   0  0  0  0  0  0  0  0  0  0  0  0
    6.6205    5.2378   83.1841 C   0  0  2  0  0  0  0  0  0  0  0  0
    6.0306    6.5226   82.6729 C   0  0  0  0  0  0  0  0  0  0  0  0
    6.5243    7.6155   83.0430 O   0  0  0  0  0  0  0  0  0  0  0  0
    6.9846    0.7070   80.9819 O   0  0  0  0  0  0  0  0  0  0  0  0
    6.0199    4.9213   84.5327 C   0  0  0  0  0  0  0  0  0  0  0  0
    6.4472    3.5773   85.0728 C   0  0  0  0  0  0  0  0  0  0  0  0
    6.6095    3.2751   86.3652 C   0  0  0  0  0  0  0  0  0  0  0  0
    6.6914    2.4726   84.1936 C   0  0  0  0  0  0  0  0  0  0  0  0
    7.0351    1.4043   85.0663 C   0  0  0  0  0  0  0  0  0  0  0  0
    6.6564    2.2617   82.8426 C   0  0  0  0  0  0  0  0  0  0  0  0
    6.9624    1.9733   86.3562 N   0  0  0  0  0  0  0  0  0  0  0  0
    7.3440    0.1724   84.6328 C   0  0  0  0  0  0  0  0  0  0  0  0
    6.9943    0.9604   82.3598 C   0  0  0  0  0  0  0  0  0  0  0  0
    7.3495   -0.1036   83.2623 C   0  0  0  0  0  0  0  0  0  0  0  0
    5.0490    6.4950   81.9010 O   0  0  0  0  0  0  0  0  0  0  0  0
  2  1  1  1  0  0  0
  2  3  1  0  0  0  0
  2  6  1  0  0  0  0
  3  4  1  0  0  0  0
  3 16  1  0  0  0  0
  5 14  1  0  0  0  0
  6  7  1  0  0  0  0
  7  8  2  0  0  0  0
  7  9  1  0  0  0  0
  8 12  1  0  0  0  0
  9 10  2  0  0  0  0
  9 11  1  0  0  0  0
 10 13  1  0  0  0  0
 10 12  1  0  0  0  0
 11 14  2  0  0  0  0
 13 15  2  0  0  0  0
 14 15  1  0  0  0  0
M  END
>  <CHROM.1>
-38.80653161,-62.02912273,147.89790139,6.68821420,3.42360641,83.65907796
3.00632151,-1.41254250,1.28015801

>  <Name>
ligand

>  <RI>
0

>  <Rbt.Current_Directory>
/home/itssahil/PROJECTS/Mol_Feturizer/Test_systems_manuscript/rnas/5kpy

>  <Rbt.Executable>
rbdock ($Id: //depot/dev/client3/rdock/2013.1/src/exe/rbdock.cxx#4 $)

>  <Rbt.Library>
libRbt.so (2013.1, Build901 2013/11/27)

>  <Rbt.Parameter_File>
/export/apps/rDock/src/rDock_2013.1_src/data/scripts/dock_solv.prm

>  <Rbt.Receptor>
prm/pocket_docking_3.prm

>  <SCORE>
-18.5685

>  <SCORE.INTER>
-18.6657

>  <SCORE.INTER.CONST>
1

>  <SCORE.INTER.POLAR>
0

>  <SCORE.INTER.ROT>
3

>  <SCORE.INTER.SOLV>
7.38187

>  <SCORE.INTER.VDW>
-20.5044

>  <SCORE.INTER.norm>
-1.16661

>  <SCORE.INTRA>
0.0967215

>  <SCORE.INTRA.DIHEDRAL>
-0.22661

>  <SCORE.INTRA.DIHEDRAL.0>
3.89056

>  <SCORE.INTRA.POLAR>
0

>  <SCORE.INTRA.POLAR.0>
0

>  <SCORE.INTRA.REPUL>
0

>  <SCORE.INTRA.REPUL.0>
0

>  <SCORE.INTRA.SOLV>
0.152832

>  <SCORE.INTRA.SOLV.lig_0>
-20.733

>  <SCORE.INTRA.VDW>
0.133611

>  <SCORE.INTRA.VDW.0>
-0.828515

>  <SCORE.INTRA.norm>
0.00604509

>  <SCORE.RESTR>
0.000463043

>  <SCORE.RESTR.CAVITY>
0.000463043

>  <SCORE.RESTR.norm>
2.89402e-05

>  <SCORE.SYSTEM>
0

>  <SCORE.SYSTEM.CONST>
0

>  <SCORE.SYSTEM.DIHEDRAL>
0

>  <SCORE.SYSTEM.SOLV>
0

>  <SCORE.SYSTEM.norm>
0

>  <SCORE.heavy>
16

>  <SCORE.norm>
-1.16053

>  <RMSD>
2.130

$$$$
ligand
 OpenBabel02271912153D
libRbt.so/2013.1/901 2013/11/27
 16 17  0  0  0  0  0  0  0  0999 V2000
    7.0416    7.4017   83.9780 N   0  0  0  0  0  0  0  0  0  0  0  0
    7.4544    6.0406   84.0401 C   0  0  2  0  0  0  0  0  0  0  0  0
    8.4115    5.6933   82.9341 C   0  0  0  0  0  0  0  0  0  0  0  0
    8.5725    4.4899   82.6161 O   0  0  0  0  0  0  0  0  0  0  0  0
    7.1907    0.5336   80.8974 O   0  0  0  0  0  0  0  0  0  0  0  0
    6.2628    5.1160   83.9699 C   0  0  0  0  0  0  0  0  0  0  0  0
    6.4958    3.7929   84.6599 C   0  0  0  0  0  0  0  0  0  0  0  0
    6.4868    3.5940   85.9821 C   0  0  0  0  0  0  0  0  0  0  0  0
    6.7249    2.5972   83.9045 C   0  0  0  0  0  0  0  0  0  0  0  0
    6.8660    1.5847   84.8925 C   0  0  0  0  0  0  0  0  0  0  0  0
    6.8161    2.2707   82.5794 C   0  0  0  0  0  0  0  0  0  0  0  0
    6.7098    2.2705   86.1164 N   0  0  0  0  0  0  0  0  0  0  0  0
    7.0984    0.2967   84.5959 C   0  0  0  0  0  0  0  0  0  0  0  0
    7.0757    0.9069   82.2429 C   0  0  0  0  0  0  0  0  0  0  0  0
    7.2255   -0.0997   83.2613 C   0  0  0  0  0  0  0  0  0  0  0  0
    9.0486    6.5971   82.3534 O   0  0  0  0  0  0  0  0  0  0  0  0
  2  1  1  6  0  0  0
  2  3  1  0  0  0  0
  2  6  1  0  0  0  0
  3  4  1  0  0  0  0
  3 16  1  0  0  0  0
  5 14  1  0  0  0  0
  6  7  1  0  0  0  0
  7  8  2  0  0  0  0
  7  9  1  0  0  0  0
  8 12  1  0  0  0  0
  9 10  2  0  0  0  0
  9 11  1  0  0  0  0
 10 13  1  0  0  0  0
 10 12  1  0  0  0  0
 11 14  2  0  0  0  0
 13 15  2  0  0  0  0
 14 15  1  0  0  0  0
M  END
>  <CHROM.1>
-159.97862413,-152.53113088,76.22274823,7.26277757,3.40822712,83.62078909
1.17491709,1.18674377,0.40020224

>  <Name>
ligand

>  <RI>
0

>  <Rbt.Current_Directory>
/home/itssahil/PROJECTS/Mol_Feturizer/Test_systems_manuscript/rnas/5kpy

>  <Rbt.Executable>
rbdock ($Id: //depot/dev/client3/rdock/2013.1/src/exe/rbdock.cxx#4 $)

>  <Rbt.Library>
libRbt.so (2013.1, Build901 2013/11/27)

>  <Rbt.Parameter_File>
/export/apps/rDock/src/rDock_2013.1_src/data/scripts/dock_solv.prm

>  <Rbt.Receptor>
prm/pocket_docking_5.prm

>  <SCORE>
-19.3262

>  <SCORE.INTER>
-20.1846

>  <SCORE.INTER.CONST>
1

>  <SCORE.INTER.POLAR>
0

>  <SCORE.INTER.ROT>
3

>  <SCORE.INTER.SOLV>
4.8282

>  <SCORE.INTER.VDW>
-20.6658

>  <SCORE.INTER.norm>
-1.26154

>  <SCORE.INTRA>
0.858457

>  <SCORE.INTRA.DIHEDRAL>
2.38642

>  <SCORE.INTRA.DIHEDRAL.0>
3.89056

>  <SCORE.INTRA.POLAR>
0

>  <SCORE.INTRA.POLAR.0>
0

>  <SCORE.INTRA.REPUL>
0

>  <SCORE.INTRA.REPUL.0>
0

>  <SCORE.INTRA.SOLV>
-1.1479

>  <SCORE.INTRA.SOLV.lig_0>
-20.733

>  <SCORE.INTRA.VDW>
0.239197

>  <SCORE.INTRA.VDW.0>
-0.828515

>  <SCORE.INTRA.norm>
0.0536536

>  <SCORE.RESTR>
0

>  <SCORE.RESTR.CAVITY>
0

>  <SCORE.RESTR.norm>
0

>  <SCORE.SYSTEM>
0

>  <SCORE.SYSTEM.CONST>
0

>  <SCORE.SYSTEM.DIHEDRAL>
0

>  <SCORE.SYSTEM.SOLV>
0

>  <SCORE.SYSTEM.norm>
0

>  <SCORE.heavy>
16

>  <SCORE.norm>
-1.20789

>  <RMSD>
2.130

$$$$
ligand
 OpenBabel02271912153D
libRbt.so/2013.1/901 2013/11/27
 16 17  0  0  0  0  0  0  0  0999 V2000
    7.0329    7.3697   83.8656 N   0  0  0  0  0  0  0  0  0  0  0  0
    7.4447    6.0132   83.9966 C   0  0  2  0  0  0  0  0  0  0  0  0
    8.4492    5.6276   82.9468 C   0  0  0  0  0  0  0  0  0  0  0  0
    9.1960    6.5097   82.4574 O   0  0  0  0  0  0  0  0  0  0  0  0
    7.1414    0.4411   80.9143 O   0  0  0  0  0  0  0  0  0  0  0  0
    6.2587    5.0829   83.9100 C   0  0  0  0  0  0  0  0  0  0  0  0
    6.4804    3.7696   84.6220 C   0  0  0  0  0  0  0  0  0  0  0  0
    6.4710    3.5930   85.9474 C   0  0  0  0  0  0  0  0  0  0  0  0
    6.6977    2.5592   83.8867 C   0  0  0  0  0  0  0  0  0  0  0  0
    6.8307    1.5622   84.8915 C   0  0  0  0  0  0  0  0  0  0  0  0
    6.7845    2.2097   82.5672 C   0  0  0  0  0  0  0  0  0  0  0  0
    6.6821    2.2700   86.1038 N   0  0  0  0  0  0  0  0  0  0  0  0
    7.0510    0.2674   84.6164 C   0  0  0  0  0  0  0  0  0  0  0  0
    7.0313    0.8381   82.2534 C   0  0  0  0  0  0  0  0  0  0  0  0
    7.1729   -0.1526   83.2885 C   0  0  0  0  0  0  0  0  0  0  0  0
    8.5229    4.4426   82.5588 O   0  0  0  0  0  0  0  0  0  0  0  0
  2  1  1  6  0  0  0
  2  3  1  0  0  0  0
  2  6  1  0  0  0  0
  3  4  1  0  0  0  0
  3 16  1  0  0  0  0
  5 14  1  0  0  0  0
  6  7  1  0  0  0  0
  7  8  2  0  0  0  0
  7  9  1  0  0  0  0
  8 12  1  0  0  0  0
  9 10  2  0  0  0  0
  9 11  1  0  0  0  0
 10 13  1  0  0  0  0
 10 12  1  0  0  0  0
 11 14  2  0  0  0  0
 13 15  2  0  0  0  0
 14 15  1  0  0  0  0
M  END
>  <CHROM.1>
27.68690497,-154.35242369,74.60439350,7.24998791,3.36436104,83.60881490,1.15120405
1.17258844,0.41862134

>  <Name>
ligand

>  <RI>
0

>  <Rbt.Current_Directory>
/home/itssahil/PROJECTS/Mol_Feturizer/Test_systems_manuscript/rnas/5kpy

>  <Rbt.Executable>
rbdock ($Id: //depot/dev/client3/rdock/2013.1/src/exe/rbdock.cxx#4 $)

>  <Rbt.Library>
libRbt.so (2013.1, Build901 2013/11/27)

>  <Rbt.Parameter_File>
/export/apps/rDock/src/rDock_2013.1_src/data/scripts/dock_solv.prm

>  <Rbt.Receptor>
prm/pocket_docking_4.prm

>  <SCORE>
-19.2742

>  <SCORE.INTER>
-20.2417

>  <SCORE.INTER.CONST>
1

>  <SCORE.INTER.POLAR>
0

>  <SCORE.INTER.ROT>
3

>  <SCORE.INTER.SOLV>
4.96279

>  <SCORE.INTER.VDW>
-20.7487

>  <SCORE.INTER.norm>
-1.26511

>  <SCORE.INTRA>
0.967474

>  <SCORE.INTRA.DIHEDRAL>
2.1697

>  <SCORE.INTRA.DIHEDRAL.0>
3.89056

>  <SCORE.INTRA.POLAR>
0

>  <SCORE.INTRA.POLAR.0>
0

>  <SCORE.INTRA.REPUL>
0

>  <SCORE.INTRA.REPUL.0>
0

>  <SCORE.INTRA.SOLV>
-1.14617

>  <SCORE.INTRA.SOLV.lig_0>
-20.733

>  <SCORE.INTRA.VDW>
0.455709

>  <SCORE.INTRA.VDW.0>
-0.828515

>  <SCORE.INTRA.norm>
0.0604671

>  <SCORE.RESTR>
0

>  <SCORE.RESTR.CAVITY>
0

>  <SCORE.RESTR.norm>
0

>  <SCORE.SYSTEM>
0

>  <SCORE.SYSTEM.CONST>
0

>  <SCORE.SYSTEM.DIHEDRAL>
0

>  <SCORE.SYSTEM.SOLV>
0

>  <SCORE.SYSTEM.norm>
0

>  <SCORE.heavy>
16

>  <SCORE.norm>
-1.20464

>  <RMSD>
2.138

$$$$
ligand
 OpenBabel02271912153D
libRbt.so/2013.1/901 2013/11/27
 16 17  0  0  0  0  0  0  0  0999 V2000
    8.3971    6.1913   84.7623 N   0  0  0  0  0  0  0  0  0  0  0  0
    7.8355    5.7572   83.5281 C   0  0  2  0  0  0  0  0  0  0  0  0
    7.6667    6.8930   82.5580 C   0  0  0  0  0  0  0  0  0  0  0  0
    7.7059    6.6594   81.3254 O   0  0  0  0  0  0  0  0  0  0  0  0
    7.2956    0.2729   81.0332 O   0  0  0  0  0  0  0  0  0  0  0  0
    6.4964    5.0966   83.7522 C   0  0  0  0  0  0  0  0  0  0  0  0
    6.5928    3.8089   84.5354 C   0  0  0  0  0  0  0  0  0  0  0  0
    6.4864    3.6975   85.8636 C   0  0  0  0  0  0  0  0  0  0  0  0
    6.7854    2.5541   83.8712 C   0  0  0  0  0  0  0  0  0  0  0  0
    6.7930    1.6010   84.9261 C   0  0  0  0  0  0  0  0  0  0  0  0
    6.9372    2.1367   82.5775 C   0  0  0  0  0  0  0  0  0  0  0  0
    6.6078    2.3739   86.0928 N   0  0  0  0  0  0  0  0  0  0  0  0
    6.9535    0.2840   84.7246 C   0  0  0  0  0  0  0  0  0  0  0  0
    7.1221    0.7398   82.3427 C   0  0  0  0  0  0  0  0  0  0  0  0
    7.1367   -0.2060   83.4281 C   0  0  0  0  0  0  0  0  0  0  0  0
    7.5058    8.0570   82.9816 O   0  0  0  0  0  0  0  0  0  0  0  0
  2  1  1  1  0  0  0
  2  3  1  0  0  0  0
  2  6  1  0  0  0  0
  3  4  1  0  0  0  0
  3 16  1  0  0  0  0
  5 14  1  0  0  0  0
  6  7  1  0  0  0  0
  7  8  2  0  0  0  0
  7  9  1  0  0  0  0
  8 12  1  0  0  0  0
  9 10  2  0  0  0  0
  9 11  1  0  0  0  0
 10 13  1  0  0  0  0
 10 12  1  0  0  0  0
 11 14  2  0  0  0  0
 13 15  2  0  0  0  0
 14 15  1  0  0  0  0
M  END
>  <CHROM.1>
151.80299955,-65.66088061,91.97422301,7.16900915,3.62090661,83.57249110,0.90717728
1.39669847,0.58650477

>  <Name>
ligand

>  <RI>
0

>  <Rbt.Current_Directory>
/home/itssahil/PROJECTS/Mol_Feturizer/Test_systems_manuscript/rnas/5kpy

>  <Rbt.Executable>
rbdock ($Id: //depot/dev/client3/rdock/2013.1/src/exe/rbdock.cxx#4 $)

>  <Rbt.Library>
libRbt.so (2013.1, Build901 2013/11/27)

>  <Rbt.Parameter_File>
/export/apps/rDock/src/rDock_2013.1_src/data/scripts/dock_solv.prm

>  <Rbt.Receptor>
prm/pocket_docking_4.prm

>  <SCORE>
-19.8112

>  <SCORE.INTER>
-19.4486

>  <SCORE.INTER.CONST>
1

>  <SCORE.INTER.POLAR>
0

>  <SCORE.INTER.ROT>
3

>  <SCORE.INTER.SOLV>
8.16452

>  <SCORE.INTER.VDW>
-21.2872

>  <SCORE.INTER.norm>
-1.21554

>  <SCORE.INTRA>
-0.362616

>  <SCORE.INTRA.DIHEDRAL>
0.121132

>  <SCORE.INTRA.DIHEDRAL.0>
3.89056

>  <SCORE.INTRA.POLAR>
0

>  <SCORE.INTRA.POLAR.0>
0

>  <SCORE.INTRA.REPUL>
0

>  <SCORE.INTRA.REPUL.0>
0

>  <SCORE.INTRA.SOLV>
-0.306844

>  <SCORE.INTRA.SOLV.lig_0>
-20.733

>  <SCORE.INTRA.VDW>
-0.26976

>  <SCORE.INTRA.VDW.0>
-0.828515

>  <SCORE.INTRA.norm>
-0.0226635

>  <SCORE.RESTR>
0

>  <SCORE.RESTR.CAVITY>
0

>  <SCORE.RESTR.norm>
0

>  <SCORE.SYSTEM>
0

>  <SCORE.SYSTEM.CONST>
0

>  <SCORE.SYSTEM.DIHEDRAL>
0

>  <SCORE.SYSTEM.SOLV>
0

>  <SCORE.SYSTEM.norm>
0

>  <SCORE.heavy>
16

>  <SCORE.norm>
-1.2382

>  <RMSD>
2.150

$$$$
ligand
 OpenBabel02271912153D
libRbt.so/2013.1/901 2013/11/27
 16 17  0  0  0  0  0  0  0  0999 V2000
    7.0356    7.2944   83.4759 N   0  0  0  0  0  0  0  0  0  0  0  0
    7.4041    5.9577   83.7992 C   0  0  2  0  0  0  0  0  0  0  0  0
    8.2930    5.3510   82.7496 C   0  0  0  0  0  0  0  0  0  0  0  0
    9.5344    5.3302   82.9329 O   0  0  0  0  0  0  0  0  0  0  0  0
    7.1890    0.5226   80.9023 O   0  0  0  0  0  0  0  0  0  0  0  0
    6.1795    5.0911   83.9697 C   0  0  0  0  0  0  0  0  0  0  0  0
    6.4706    3.7805   84.6615 C   0  0  0  0  0  0  0  0  0  0  0  0
    6.4970    3.5895   85.9847 C   0  0  0  0  0  0  0  0  0  0  0  0
    6.7220    2.5883   83.9077 C   0  0  0  0  0  0  0  0  0  0  0  0
    6.9177    1.5869   84.8978 C   0  0  0  0  0  0  0  0  0  0  0  0
    6.7948    2.2568   82.5828 C   0  0  0  0  0  0  0  0  0  0  0  0
    6.7660    2.2749   86.1212 N   0  0  0  0  0  0  0  0  0  0  0  0
    7.1854    0.3054   84.6032 C   0  0  0  0  0  0  0  0  0  0  0  0
    7.0914    0.9002   82.2479 C   0  0  0  0  0  0  0  0  0  0  0  0
    7.2961   -0.0948   83.2682 C   0  0  0  0  0  0  0  0  0  0  0  0
    7.7953    4.8891   81.7012 O   0  0  0  0  0  0  0  0  0  0  0  0
  2  1  1  6  0  0  0
  2  3  1  0  0  0  0
  2  6  1  0  0  0  0
  3  4  1  0  0  0  0
  3 16  1  0  0  0  0
  5 14  1  0  0  0  0
  6  7  1  0  0  0  0
  7  8  2  0  0  0  0
  7  9  1  0  0  0  0
  8 12  1  0  0  0  0
  9 10  2  0  0  0  0
  9 11  1  0  0  0  0
 10 13  1  0  0  0  0
 10 12  1  0  0  0  0
 11 14  2  0  0  0  0
 13 15  2  0  0  0  0
 14 15  1  0  0  0  0
M  END
>  <CHROM.1>
98.66912561,-164.68921861,86.09789485,7.23910375,3.30685039,83.53942135,1.19982951
1.24759243,0.36071556

>  <Name>
ligand

>  <RI>
0

>  <Rbt.Current_Directory>
/home/itssahil/PROJECTS/Mol_Feturizer/Test_systems_manuscript/rnas/5kpy

>  <Rbt.Executable>
rbdock ($Id: //depot/dev/client3/rdock/2013.1/src/exe/rbdock.cxx#4 $)

>  <Rbt.Library>
libRbt.so (2013.1, Build901 2013/11/27)

>  <Rbt.Parameter_File>
/export/apps/rDock/src/rDock_2013.1_src/data/scripts/dock_solv.prm

>  <Rbt.Receptor>
prm/pocket_docking_3.prm

>  <SCORE>
-20.758

>  <SCORE.INTER>
-20.1721

>  <SCORE.INTER.CONST>
1

>  <SCORE.INTER.POLAR>
0

>  <SCORE.INTER.ROT>
3

>  <SCORE.INTER.SOLV>
5.16927

>  <SCORE.INTER.VDW>
-20.7712

>  <SCORE.INTER.norm>
-1.26076

>  <SCORE.INTRA>
-0.585876

>  <SCORE.INTRA.DIHEDRAL>
0.780418

>  <SCORE.INTRA.DIHEDRAL.0>
3.89056

>  <SCORE.INTRA.POLAR>
0

>  <SCORE.INTRA.POLAR.0>
0

>  <SCORE.INTRA.REPUL>
0

>  <SCORE.INTRA.REPUL.0>
0

>  <SCORE.INTRA.SOLV>
-1.18455

>  <SCORE.INTRA.SOLV.lig_0>
-20.733

>  <SCORE.INTRA.VDW>
-0.383812

>  <SCORE.INTRA.VDW.0>
-0.828515

>  <SCORE.INTRA.norm>
-0.0366173

>  <SCORE.RESTR>
0

>  <SCORE.RESTR.CAVITY>
0

>  <SCORE.RESTR.norm>
0

>  <SCORE.SYSTEM>
0

>  <SCORE.SYSTEM.CONST>
0

>  <SCORE.SYSTEM.DIHEDRAL>
0

>  <SCORE.SYSTEM.SOLV>
0

>  <SCORE.SYSTEM.norm>
0

>  <SCORE.heavy>
16

>  <SCORE.norm>
-1.29738

>  <RMSD>
2.158

$$$$
ligand
 OpenBabel02271912153D
libRbt.so/2013.1/901 2013/11/27
 16 17  0  0  0  0  0  0  0  0999 V2000
    8.3901    6.1865   84.7493 N   0  0  0  0  0  0  0  0  0  0  0  0
    7.8379    5.7460   83.5132 C   0  0  2  0  0  0  0  0  0  0  0  0
    7.6744    6.8772   82.5367 C   0  0  0  0  0  0  0  0  0  0  0  0
    7.6956    6.6341   81.3055 O   0  0  0  0  0  0  0  0  0  0  0  0
    7.2553    0.2483   81.0218 O   0  0  0  0  0  0  0  0  0  0  0  0
    6.4982    5.0844   83.7307 C   0  0  0  0  0  0  0  0  0  0  0  0
    6.5912    3.7985   84.5172 C   0  0  0  0  0  0  0  0  0  0  0  0
    6.4911    3.6916   85.8463 C   0  0  0  0  0  0  0  0  0  0  0  0
    6.7731    2.5407   83.8557 C   0  0  0  0  0  0  0  0  0  0  0  0
    6.7808    1.5906   84.9134 C   0  0  0  0  0  0  0  0  0  0  0  0
    6.9157    2.1186   82.5625 C   0  0  0  0  0  0  0  0  0  0  0  0
    6.6061    2.3680   86.0788 N   0  0  0  0  0  0  0  0  0  0  0  0
    6.9326    0.2721   84.7150 C   0  0  0  0  0  0  0  0  0  0  0  0
    7.0913    0.7200   82.3309 C   0  0  0  0  0  0  0  0  0  0  0  0
    7.1063   -0.2227   83.4190 C   0  0  0  0  0  0  0  0  0  0  0  0
    7.5356    8.0464   82.9536 O   0  0  0  0  0  0  0  0  0  0  0  0
  2  1  1  1  0  0  0
  2  3  1  0  0  0  0
  2  6  1  0  0  0  0
  3  4  1  0  0  0  0
  3 16  1  0  0  0  0
  5 14  1  0  0  0  0
  6  7  1  0  0  0  0
  7  8  2  0  0  0  0
  7  9  1  0  0  0  0
  8 12  1  0  0  0  0
  9 10  2  0  0  0  0
  9 11  1  0  0  0  0
 10 13  1  0  0  0  0
 10 12  1  0  0  0  0
 11 14  2  0  0  0  0
 13 15  2  0  0  0  0
 14 15  1  0  0  0  0
M  END
>  <CHROM.1>
153.23332206,-65.81695536,91.22508837,7.16043421,3.60717000,83.55643941,0.86217246
1.39803034,0.63097311

>  <Name>
ligand

>  <RI>
0

>  <Rbt.Current_Directory>
/home/itssahil/PROJECTS/Mol_Feturizer/Test_systems_manuscript/rnas/5kpy

>  <Rbt.Executable>
rbdock ($Id: //depot/dev/client3/rdock/2013.1/src/exe/rbdock.cxx#4 $)

>  <Rbt.Library>
libRbt.so (2013.1, Build901 2013/11/27)

>  <Rbt.Parameter_File>
/export/apps/rDock/src/rDock_2013.1_src/data/scripts/dock_solv.prm

>  <Rbt.Receptor>
prm/pocket_docking_6.prm

>  <SCORE>
-19.811

>  <SCORE.INTER>
-19.4649

>  <SCORE.INTER.CONST>
1

>  <SCORE.INTER.POLAR>
0

>  <SCORE.INTER.ROT>
3

>  <SCORE.INTER.SOLV>
8.16628

>  <SCORE.INTER.VDW>
-21.2987

>  <SCORE.INTER.norm>
-1.21656

>  <SCORE.INTRA>
-0.346085

>  <SCORE.INTRA.DIHEDRAL>
0.128261

>  <SCORE.INTRA.DIHEDRAL.0>
3.89056

>  <SCORE.INTRA.POLAR>
0

>  <SCORE.INTRA.POLAR.0>
0

>  <SCORE.INTRA.REPUL>
0

>  <SCORE.INTRA.REPUL.0>
0

>  <SCORE.INTRA.SOLV>
-0.303292

>  <SCORE.INTRA.SOLV.lig_0>
-20.733

>  <SCORE.INTRA.VDW>
-0.258569

>  <SCORE.INTRA.VDW.0>
-0.828515

>  <SCORE.INTRA.norm>
-0.0216303

>  <SCORE.RESTR>
0

>  <SCORE.RESTR.CAVITY>
0

>  <SCORE.RESTR.norm>
0

>  <SCORE.SYSTEM>
0

>  <SCORE.SYSTEM.CONST>
0

>  <SCORE.SYSTEM.DIHEDRAL>
0

>  <SCORE.SYSTEM.SOLV>
0

>  <SCORE.SYSTEM.norm>
0

>  <SCORE.heavy>
16

>  <SCORE.norm>
-1.23819

>  <RMSD>
2.161

$$$$
ligand
 OpenBabel02271912153D
libRbt.so/2013.1/901 2013/11/27
 16 17  0  0  0  0  0  0  0  0999 V2000
    8.4675    6.1590   84.6795 N   0  0  0  0  0  0  0  0  0  0  0  0
    7.8579    5.7197   83.4702 C   0  0  2  0  0  0  0  0  0  0  0  0
    7.6914    6.8431   82.4853 C   0  0  0  0  0  0  0  0  0  0  0  0
    7.5338    8.0138   82.9093 O   0  0  0  0  0  0  0  0  0  0  0  0
    7.3170    0.2733   81.0352 O   0  0  0  0  0  0  0  0  0  0  0  0
    6.5085    5.1005   83.7451 C   0  0  0  0  0  0  0  0  0  0  0  0
    6.5943    3.8129   84.5297 C   0  0  0  0  0  0  0  0  0  0  0  0
    6.4761    3.7025   85.8570 C   0  0  0  0  0  0  0  0  0  0  0  0
    6.7890    2.5572   83.8677 C   0  0  0  0  0  0  0  0  0  0  0  0
    6.7847    1.6046   84.9230 C   0  0  0  0  0  0  0  0  0  0  0  0
    6.9507    2.1388   82.5756 C   0  0  0  0  0  0  0  0  0  0  0  0
    6.5917    2.3786   86.0878 N   0  0  0  0  0  0  0  0  0  0  0  0
    6.9430    0.2870   84.7235 C   0  0  0  0  0  0  0  0  0  0  0  0
    7.1335    0.7413   82.3429 C   0  0  0  0  0  0  0  0  0  0  0  0
    7.1361   -0.2040   83.4288 C   0  0  0  0  0  0  0  0  0  0  0  0
    7.6947    6.6038   81.2593 O   0  0  0  0  0  0  0  0  0  0  0  0
  2  1  1  1  0  0  0
  2  3  1  0  0  0  0
  2  6  1  0  0  0  0
  3  4  1  0  0  0  0
  3 16  1  0  0  0  0
  5 14  1  0  0  0  0
  6  7  1  0  0  0  0
  7  8  2  0  0  0  0
  7  9  1  0  0  0  0
  8 12  1  0  0  0  0
  9 10  2  0  0  0  0
  9 11  1  0  0  0  0
 10 13  1  0  0  0  0
 10 12  1  0  0  0  0
 11 14  2  0  0  0  0
 13 15  2  0  0  0  0
 14 15  1  0  0  0  0
M  END
>  <CHROM.1>
-29.53474386,-66.55384217,94.97863102,7.17910571,3.60813728,83.54696325,0.90295074
1.39050990,0.57542786

>  <Name>
ligand

>  <RI>
0

>  <Rbt.Current_Directory>
/home/itssahil/PROJECTS/Mol_Feturizer/Test_systems_manuscript/rnas/5kpy

>  <Rbt.Executable>
rbdock ($Id: //depot/dev/client3/rdock/2013.1/src/exe/rbdock.cxx#4 $)

>  <Rbt.Library>
libRbt.so (2013.1, Build901 2013/11/27)

>  <Rbt.Parameter_File>
/export/apps/rDock/src/rDock_2013.1_src/data/scripts/dock_solv.prm

>  <Rbt.Receptor>
prm/pocket_docking_6.prm

>  <SCORE>
-19.7961

>  <SCORE.INTER>
-19.3997

>  <SCORE.INTER.CONST>
1

>  <SCORE.INTER.POLAR>
0

>  <SCORE.INTER.ROT>
3

>  <SCORE.INTER.SOLV>
8.37931

>  <SCORE.INTER.VDW>
-21.3262

>  <SCORE.INTER.norm>
-1.21248

>  <SCORE.INTRA>
-0.396489

>  <SCORE.INTRA.DIHEDRAL>
0.0987841

>  <SCORE.INTRA.DIHEDRAL.0>
3.89056

>  <SCORE.INTRA.POLAR>
0

>  <SCORE.INTRA.POLAR.0>
0

>  <SCORE.INTRA.REPUL>
0

>  <SCORE.INTRA.REPUL.0>
0

>  <SCORE.INTRA.SOLV>
-0.335669

>  <SCORE.INTRA.SOLV.lig_0>
-20.733

>  <SCORE.INTRA.VDW>
-0.278047

>  <SCORE.INTRA.VDW.0>
-0.828515

>  <SCORE.INTRA.norm>
-0.0247806

>  <SCORE.RESTR>
0

>  <SCORE.RESTR.CAVITY>
0

>  <SCORE.RESTR.norm>
0

>  <SCORE.SYSTEM>
0

>  <SCORE.SYSTEM.CONST>
0

>  <SCORE.SYSTEM.DIHEDRAL>
0

>  <SCORE.SYSTEM.SOLV>
0

>  <SCORE.SYSTEM.norm>
0

>  <SCORE.heavy>
16

>  <SCORE.norm>
-1.23726

>  <RMSD>
2.172

$$$$
ligand
 OpenBabel02271912153D
libRbt.so/2013.1/901 2013/11/27
 16 17  0  0  0  0  0  0  0  0999 V2000
    7.0624    7.2591   83.4519 N   0  0  0  0  0  0  0  0  0  0  0  0
    7.4265    5.9183   83.7629 C   0  0  2  0  0  0  0  0  0  0  0  0
    8.3225    5.3222   82.7134 C   0  0  0  0  0  0  0  0  0  0  0  0
    9.5659    5.3418   82.8836 O   0  0  0  0  0  0  0  0  0  0  0  0
    7.2233    0.4585   80.8888 O   0  0  0  0  0  0  0  0  0  0  0  0
    6.1994    5.0517   83.9143 C   0  0  0  0  0  0  0  0  0  0  0  0
    6.4781    3.7448   84.6180 C   0  0  0  0  0  0  0  0  0  0  0  0
    6.4898    3.5627   85.9427 C   0  0  0  0  0  0  0  0  0  0  0  0
    6.7327    2.5465   83.8750 C   0  0  0  0  0  0  0  0  0  0  0  0
    6.9141    1.5512   84.8739 C   0  0  0  0  0  0  0  0  0  0  0  0
    6.8182    2.2057   82.5532 C   0  0  0  0  0  0  0  0  0  0  0  0
    6.7522    2.2480   86.0909 N   0  0  0  0  0  0  0  0  0  0  0  0
    7.1799    0.2666   84.5908 C   0  0  0  0  0  0  0  0  0  0  0  0
    7.1130    0.8456   82.2307 C   0  0  0  0  0  0  0  0  0  0  0  0
    7.3031   -0.1431   83.2598 C   0  0  0  0  0  0  0  0  0  0  0  0
    7.8283    4.8289   81.6777 O   0  0  0  0  0  0  0  0  0  0  0  0
  2  1  1  6  0  0  0
  2  3  1  0  0  0  0
  2  6  1  0  0  0  0
  3  4  1  0  0  0  0
  3 16  1  0  0  0  0
  5 14  1  0  0  0  0
  6  7  1  0  0  0  0
  7  8  2  0  0  0  0
  7  9  1  0  0  0  0
  8 12  1  0  0  0  0
  9 10  2  0  0  0  0
  9 11  1  0  0  0  0
 10 13  1  0  0  0  0
 10 12  1  0  0  0  0
 11 14  2  0  0  0  0
 13 15  2  0  0  0  0
 14 15  1  0  0  0  0
M  END
>  <CHROM.1>
96.06380161,-163.54501432,85.53354042,7.25490796,3.26856201,83.50936961,1.19839302
1.23457761,0.35622007

>  <Name>
ligand

>  <RI>
0

>  <Rbt.Current_Directory>
/home/itssahil/PROJECTS/Mol_Feturizer/Test_systems_manuscript/rnas/5kpy

>  <Rbt.Executable>
rbdock ($Id: //depot/dev/client3/rdock/2013.1/src/exe/rbdock.cxx#4 $)

>  <Rbt.Library>
libRbt.so (2013.1, Build901 2013/11/27)

>  <Rbt.Parameter_File>
/export/apps/rDock/src/rDock_2013.1_src/data/scripts/dock_solv.prm

>  <Rbt.Receptor>
prm/pocket_docking_3.prm

>  <SCORE>
-20.7632

>  <SCORE.INTER>
-20.3146

>  <SCORE.INTER.CONST>
1

>  <SCORE.INTER.POLAR>
0

>  <SCORE.INTER.ROT>
3

>  <SCORE.INTER.SOLV>
5.21053

>  <SCORE.INTER.VDW>
-20.8799

>  <SCORE.INTER.norm>
-1.26966

>  <SCORE.INTRA>
-0.448609

>  <SCORE.INTRA.DIHEDRAL>
0.905247

>  <SCORE.INTRA.DIHEDRAL.0>
3.89056

>  <SCORE.INTRA.POLAR>
0

>  <SCORE.INTRA.POLAR.0>
0

>  <SCORE.INTRA.REPUL>
0

>  <SCORE.INTRA.REPUL.0>
0

>  <SCORE.INTRA.SOLV>
-1.18327

>  <SCORE.INTRA.SOLV.lig_0>
-20.733

>  <SCORE.INTRA.VDW>
-0.309598

>  <SCORE.INTRA.VDW.0>
-0.828515

>  <SCORE.INTRA.norm>
-0.0280381

>  <SCORE.RESTR>
0

>  <SCORE.RESTR.CAVITY>
0

>  <SCORE.RESTR.norm>
0

>  <SCORE.SYSTEM>
0

>  <SCORE.SYSTEM.CONST>
0

>  <SCORE.SYSTEM.DIHEDRAL>
0

>  <SCORE.SYSTEM.SOLV>
0

>  <SCORE.SYSTEM.norm>
0

>  <SCORE.heavy>
16

>  <SCORE.norm>
-1.2977

>  <RMSD>
2.176

$$$$
ligand
 OpenBabel02271912153D
libRbt.so/2013.1/901 2013/11/27
 16 17  0  0  0  0  0  0  0  0999 V2000
    8.4654    6.1682   84.6702 N   0  0  0  0  0  0  0  0  0  0  0  0
    7.8626    5.7234   83.4595 C   0  0  2  0  0  0  0  0  0  0  0  0
    7.6966    6.8433   82.4707 C   0  0  0  0  0  0  0  0  0  0  0  0
    7.6770    6.5816   81.2433 O   0  0  0  0  0  0  0  0  0  0  0  0
    7.3052    0.2637   81.0318 O   0  0  0  0  0  0  0  0  0  0  0  0
    6.5142    5.1002   83.7302 C   0  0  0  0  0  0  0  0  0  0  0  0
    6.6010    3.8148   84.5183 C   0  0  0  0  0  0  0  0  0  0  0  0
    6.4877    3.7086   85.8464 C   0  0  0  0  0  0  0  0  0  0  0  0
    6.7913    2.5569   83.8594 C   0  0  0  0  0  0  0  0  0  0  0  0
    6.7896    1.6074   84.9176 C   0  0  0  0  0  0  0  0  0  0  0  0
    6.9476    2.1344   82.5679 C   0  0  0  0  0  0  0  0  0  0  0  0
    6.6022    2.3852   86.0807 N   0  0  0  0  0  0  0  0  0  0  0  0
    6.9453    0.2890   84.7215 C   0  0  0  0  0  0  0  0  0  0  0  0
    7.1274    0.7359   82.3388 C   0  0  0  0  0  0  0  0  0  0  0  0
    7.1326   -0.2062   83.4275 C   0  0  0  0  0  0  0  0  0  0  0  0
    7.5961    8.0215   82.8731 O   0  0  0  0  0  0  0  0  0  0  0  0
  2  1  1  1  0  0  0
  2  3  1  0  0  0  0
  2  6  1  0  0  0  0
  3  4  1  0  0  0  0
  3 16  1  0  0  0  0
  5 14  1  0  0  0  0
  6  7  1  0  0  0  0
  7  8  2  0  0  0  0
  7  9  1  0  0  0  0
  8 12  1  0  0  0  0
  9 10  2  0  0  0  0
  9 11  1  0  0  0  0
 10 13  1  0  0  0  0
 10 12  1  0  0  0  0
 11 14  2  0  0  0  0
 13 15  2  0  0  0  0
 14 15  1  0  0  0  0
M  END
>  <CHROM.1>
152.96417087,-66.57675645,94.43869818,7.18396935,3.60758207,83.53630752,0.87356103
1.39233521,0.60296295

>  <Name>
ligand

>  <RI>
0

>  <Rbt.Current_Directory>
/home/itssahil/PROJECTS/Mol_Feturizer/Test_systems_manuscript/rnas/5kpy

>  <Rbt.Executable>
rbdock ($Id: //depot/dev/client3/rdock/2013.1/src/exe/rbdock.cxx#4 $)

>  <Rbt.Library>
libRbt.so (2013.1, Build901 2013/11/27)

>  <Rbt.Parameter_File>
/export/apps/rDock/src/rDock_2013.1_src/data/scripts/dock_solv.prm

>  <Rbt.Receptor>
prm/pocket_docking_6.prm

>  <SCORE>
-19.8161

>  <SCORE.INTER>
-19.4606

>  <SCORE.INTER.CONST>
1

>  <SCORE.INTER.POLAR>
0

>  <SCORE.INTER.ROT>
3

>  <SCORE.INTER.SOLV>
8.35211

>  <SCORE.INTER.VDW>
-21.3578

>  <SCORE.INTER.norm>
-1.21629

>  <SCORE.INTRA>
-0.355505

>  <SCORE.INTRA.DIHEDRAL>
0.164831

>  <SCORE.INTRA.DIHEDRAL.0>
3.89056

>  <SCORE.INTRA.POLAR>
0

>  <SCORE.INTRA.POLAR.0>
0

>  <SCORE.INTRA.REPUL>
0

>  <SCORE.INTRA.REPUL.0>
0

>  <SCORE.INTRA.SOLV>
-0.333305

>  <SCORE.INTRA.SOLV.lig_0>
-20.733

>  <SCORE.INTRA.VDW>
-0.271268

>  <SCORE.INTRA.VDW.0>
-0.828515

>  <SCORE.INTRA.norm>
-0.0222191

>  <SCORE.RESTR>
0

>  <SCORE.RESTR.CAVITY>
0

>  <SCORE.RESTR.norm>
0

>  <SCORE.SYSTEM>
0

>  <SCORE.SYSTEM.CONST>
0

>  <SCORE.SYSTEM.DIHEDRAL>
0

>  <SCORE.SYSTEM.SOLV>
0

>  <SCORE.SYSTEM.norm>
0

>  <SCORE.heavy>
16

>  <SCORE.norm>
-1.23851

>  <RMSD>
2.184

$$$$
ligand
 OpenBabel02271912153D
libRbt.so/2013.1/901 2013/11/27
 16 17  0  0  0  0  0  0  0  0999 V2000
    8.4713    6.1651   84.6703 N   0  0  0  0  0  0  0  0  0  0  0  0
    7.8646    5.7157   83.4632 C   0  0  2  0  0  0  0  0  0  0  0  0
    7.6978    6.8313   82.4696 C   0  0  0  0  0  0  0  0  0  0  0  0
    7.5956    8.0120   82.8828 O   0  0  0  0  0  0  0  0  0  0  0  0
    7.2765    0.2624   81.0277 O   0  0  0  0  0  0  0  0  0  0  0  0
    6.5159    5.0959   83.7404 C   0  0  0  0  0  0  0  0  0  0  0  0
    6.6035    3.8087   84.5254 C   0  0  0  0  0  0  0  0  0  0  0  0
    6.4976    3.7001   85.8539 C   0  0  0  0  0  0  0  0  0  0  0  0
    6.7861    2.5515   83.8628 C   0  0  0  0  0  0  0  0  0  0  0  0
    6.7877    1.6000   84.9191 C   0  0  0  0  0  0  0  0  0  0  0  0
    6.9335    2.1311   82.5696 C   0  0  0  0  0  0  0  0  0  0  0  0
    6.6094    2.3760   86.0849 N   0  0  0  0  0  0  0  0  0  0  0  0
    6.9381    0.2815   84.7195 C   0  0  0  0  0  0  0  0  0  0  0  0
    7.1077    0.7325   82.3367 C   0  0  0  0  0  0  0  0  0  0  0  0
    7.1165   -0.2117   83.4235 C   0  0  0  0  0  0  0  0  0  0  0  0
    7.6458    6.5764   81.2479 O   0  0  0  0  0  0  0  0  0  0  0  0
  2  1  1  1  0  0  0
  2  3  1  0  0  0  0
  2  6  1  0  0  0  0
  3  4  1  0  0  0  0
  3 16  1  0  0  0  0
  5 14  1  0  0  0  0
  6  7  1  0  0  0  0
  7  8  2  0  0  0  0
  7  9  1  0  0  0  0
  8 12  1  0  0  0  0
  9 10  2  0  0  0  0
  9 11  1  0  0  0  0
 10 13  1  0  0  0  0
 10 12  1  0  0  0  0
 11 14  2  0  0  0  0
 13 15  2  0  0  0  0
 14 15  1  0  0  0  0
M  END
>  <CHROM.1>
-26.44816012,-67.00355223,94.42790404,7.17761794,3.60145196,83.53894327,0.83903086
1.39720142,0.63914131

>  <Name>
ligand

>  <RI>
0

>  <Rbt.Current_Directory>
/home/itssahil/PROJECTS/Mol_Feturizer/Test_systems_manuscript/rnas/5kpy

>  <Rbt.Executable>
rbdock ($Id: //depot/dev/client3/rdock/2013.1/src/exe/rbdock.cxx#4 $)

>  <Rbt.Library>
libRbt.so (2013.1, Build901 2013/11/27)

>  <Rbt.Parameter_File>
/export/apps/rDock/src/rDock_2013.1_src/data/scripts/dock_solv.prm

>  <Rbt.Receptor>
prm/pocket_docking_7.prm

>  <SCORE>
-19.8343

>  <SCORE.INTER>
-19.4711

>  <SCORE.INTER.CONST>
1

>  <SCORE.INTER.POLAR>
0

>  <SCORE.INTER.ROT>
3

>  <SCORE.INTER.SOLV>
8.39084

>  <SCORE.INTER.VDW>
-21.3777

>  <SCORE.INTER.norm>
-1.21694

>  <SCORE.INTRA>
-0.363244

>  <SCORE.INTRA.DIHEDRAL>
0.124327

>  <SCORE.INTRA.DIHEDRAL.0>
3.89056

>  <SCORE.INTRA.POLAR>
0

>  <SCORE.INTRA.POLAR.0>
0

>  <SCORE.INTRA.REPUL>
0

>  <SCORE.INTRA.REPUL.0>
0

>  <SCORE.INTRA.SOLV>
-0.335691

>  <SCORE.INTRA.SOLV.lig_0>
-20.733

>  <SCORE.INTRA.VDW>
-0.257562

>  <SCORE.INTRA.VDW.0>
-0.828515

>  <SCORE.INTRA.norm>
-0.0227028

>  <SCORE.RESTR>
0

>  <SCORE.RESTR.CAVITY>
0

>  <SCORE.RESTR.norm>
0

>  <SCORE.SYSTEM>
0

>  <SCORE.SYSTEM.CONST>
0

>  <SCORE.SYSTEM.DIHEDRAL>
0

>  <SCORE.SYSTEM.SOLV>
0

>  <SCORE.SYSTEM.norm>
0

>  <SCORE.heavy>
16

>  <SCORE.norm>
-1.23964

>  <RMSD>
2.184

$$$$
ligand
 OpenBabel02271912153D
libRbt.so/2013.1/901 2013/11/27
 16 17  0  0  0  0  0  0  0  0999 V2000
    8.4850    6.1444   84.6733 N   0  0  0  0  0  0  0  0  0  0  0  0
    7.8901    5.6991   83.4589 C   0  0  2  0  0  0  0  0  0  0  0  0
    7.7375    6.8171   82.4656 C   0  0  0  0  0  0  0  0  0  0  0  0
    7.7474    6.5544   81.2384 O   0  0  0  0  0  0  0  0  0  0  0  0
    7.2981    0.2387   81.0273 O   0  0  0  0  0  0  0  0  0  0  0  0
    6.5365    5.0831   83.7201 C   0  0  0  0  0  0  0  0  0  0  0  0
    6.6110    3.7976   84.5093 C   0  0  0  0  0  0  0  0  0  0  0  0
    6.4929    3.6931   85.8371 C   0  0  0  0  0  0  0  0  0  0  0  0
    6.7935    2.5378   83.8518 C   0  0  0  0  0  0  0  0  0  0  0  0
    6.7812    1.5891   84.9106 C   0  0  0  0  0  0  0  0  0  0  0  0
    6.9504    2.1132   82.5611 C   0  0  0  0  0  0  0  0  0  0  0  0
    6.5964    2.3691   86.0727 N   0  0  0  0  0  0  0  0  0  0  0  0
    6.9272    0.2694   84.7158 C   0  0  0  0  0  0  0  0  0  0  0  0
    7.1200    0.7132   82.3335 C   0  0  0  0  0  0  0  0  0  0  0  0
    7.1146   -0.2282   83.4228 C   0  0  0  0  0  0  0  0  0  0  0  0
    7.6191    7.9947   82.8648 O   0  0  0  0  0  0  0  0  0  0  0  0
  2  1  1  1  0  0  0
  2  3  1  0  0  0  0
  2  6  1  0  0  0  0
  3  4  1  0  0  0  0
  3 16  1  0  0  0  0
  5 14  1  0  0  0  0
  6  7  1  0  0  0  0
  7  8  2  0  0  0  0
  7  9  1  0  0  0  0
  8 12  1  0  0  0  0
  9 10  2  0  0  0  0
  9 11  1  0  0  0  0
 10 13  1  0  0  0  0
 10 12  1  0  0  0  0
 11 14  2  0  0  0  0
 13 15  2  0  0  0  0
 14 15  1  0  0  0  0
M  END
>  <CHROM.1>
151.88522640,-66.72509661,94.15851882,7.19511766,3.58600141,83.53048797,0.85640249
1.38412877,0.61969820

>  <Name>
ligand

>  <RI>
0

>  <Rbt.Current_Directory>
/home/itssahil/PROJECTS/Mol_Feturizer/Test_systems_manuscript/rnas/5kpy

>  <Rbt.Executable>
rbdock ($Id: //depot/dev/client3/rdock/2013.1/src/exe/rbdock.cxx#4 $)

>  <Rbt.Library>
libRbt.so (2013.1, Build901 2013/11/27)

>  <Rbt.Parameter_File>
/export/apps/rDock/src/rDock_2013.1_src/data/scripts/dock_solv.prm

>  <Rbt.Receptor>
prm/pocket_docking_8.prm

>  <SCORE>
-19.7938

>  <SCORE.INTER>
-19.4354

>  <SCORE.INTER.CONST>
1

>  <SCORE.INTER.POLAR>
0

>  <SCORE.INTER.ROT>
3

>  <SCORE.INTER.SOLV>
8.45648

>  <SCORE.INTER.VDW>
-21.3758

>  <SCORE.INTER.norm>
-1.21472

>  <SCORE.INTRA>
-0.358401

>  <SCORE.INTRA.DIHEDRAL>
0.173231

>  <SCORE.INTRA.DIHEDRAL.0>
3.89056

>  <SCORE.INTRA.POLAR>
0

>  <SCORE.INTRA.POLAR.0>
0

>  <SCORE.INTRA.REPUL>
0

>  <SCORE.INTRA.REPUL.0>
0

>  <SCORE.INTRA.SOLV>
-0.333477

>  <SCORE.INTRA.SOLV.lig_0>
-20.733

>  <SCORE.INTRA.VDW>
-0.278278

>  <SCORE.INTRA.VDW.0>
-0.828515

>  <SCORE.INTRA.norm>
-0.0224001

>  <SCORE.RESTR>
0

>  <SCORE.RESTR.CAVITY>
0

>  <SCORE.RESTR.norm>
0

>  <SCORE.SYSTEM>
0

>  <SCORE.SYSTEM.CONST>
0

>  <SCORE.SYSTEM.DIHEDRAL>
0

>  <SCORE.SYSTEM.SOLV>
0

>  <SCORE.SYSTEM.norm>
0

>  <SCORE.heavy>
16

>  <SCORE.norm>
-1.23712

>  <RMSD>
2.187

$$$$
ligand
 OpenBabel02271912153D
libRbt.so/2013.1/901 2013/11/27
 16 17  0  0  0  0  0  0  0  0999 V2000
    7.0321    7.2904   83.4884 N   0  0  0  0  0  0  0  0  0  0  0  0
    7.3921    5.9544   83.8237 C   0  0  2  0  0  0  0  0  0  0  0  0
    8.2705    5.3299   82.7756 C   0  0  0  0  0  0  0  0  0  0  0  0
    7.7441    4.8219   81.7558 O   0  0  0  0  0  0  0  0  0  0  0  0
    7.1697    0.4254   81.1049 O   0  0  0  0  0  0  0  0  0  0  0  0
    6.1619    5.0991   84.0101 C   0  0  0  0  0  0  0  0  0  0  0  0
    6.4400    3.8108   84.7475 C   0  0  0  0  0  0  0  0  0  0  0  0
    6.4548    3.6639   86.0765 C   0  0  0  0  0  0  0  0  0  0  0  0
    6.6906    2.5927   84.0359 C   0  0  0  0  0  0  0  0  0  0  0  0
    6.8727    1.6239   85.0604 C   0  0  0  0  0  0  0  0  0  0  0  0
    6.7720    2.2169   82.7234 C   0  0  0  0  0  0  0  0  0  0  0  0
    6.7152    2.3531   86.2589 N   0  0  0  0  0  0  0  0  0  0  0  0
    7.1354    0.3318   84.8108 C   0  0  0  0  0  0  0  0  0  0  0  0
    7.0635    0.8482   82.4363 C   0  0  0  0  0  0  0  0  0  0  0  0
    7.2545   -0.1133   83.4908 C   0  0  0  0  0  0  0  0  0  0  0  0
    9.5093    5.3062   82.9329 O   0  0  0  0  0  0  0  0  0  0  0  0
  2  1  1  6  0  0  0
  2  3  1  0  0  0  0
  2  6  1  0  0  0  0
  3  4  1  0  0  0  0
  3 16  1  0  0  0  0
  5 14  1  0  0  0  0
  6  7  1  0  0  0  0
  7  8  2  0  0  0  0
  7  9  1  0  0  0  0
  8 12  1  0  0  0  0
  9 10  2  0  0  0  0
  9 11  1  0  0  0  0
 10 13  1  0  0  0  0
 10 12  1  0  0  0  0
 11 14  2  0  0  0  0
 13 15  2  0  0  0  0
 14 15  1  0  0  0  0
M  END
>  <CHROM.1>
-82.86967767,-163.11063951,85.95991487,7.20850453,3.30016744,83.64436814
1.19553683,1.24062124,0.32998338

>  <Name>
ligand

>  <RI>
0

>  <Rbt.Current_Directory>
/home/itssahil/PROJECTS/Mol_Feturizer/Test_systems_manuscript/rnas/5kpy

>  <Rbt.Executable>
rbdock ($Id: //depot/dev/client3/rdock/2013.1/src/exe/rbdock.cxx#4 $)

>  <Rbt.Library>
libRbt.so (2013.1, Build901 2013/11/27)

>  <Rbt.Parameter_File>
/export/apps/rDock/src/rDock_2013.1_src/data/scripts/dock_solv.prm

>  <Rbt.Receptor>
prm/pocket_docking_3.prm

>  <SCORE>
-20.5892

>  <SCORE.INTER>
-20.2191

>  <SCORE.INTER.CONST>
1

>  <SCORE.INTER.POLAR>
0

>  <SCORE.INTER.ROT>
3

>  <SCORE.INTER.SOLV>
5.10853

>  <SCORE.INTER.VDW>
-20.7823

>  <SCORE.INTER.norm>
-1.2637

>  <SCORE.INTRA>
-0.370048

>  <SCORE.INTRA.DIHEDRAL>
1.01676

>  <SCORE.INTRA.DIHEDRAL.0>
3.89056

>  <SCORE.INTRA.POLAR>
0

>  <SCORE.INTRA.POLAR.0>
0

>  <SCORE.INTRA.REPUL>
0

>  <SCORE.INTRA.REPUL.0>
0

>  <SCORE.INTRA.SOLV>
-1.18981

>  <SCORE.INTRA.SOLV.lig_0>
-20.733

>  <SCORE.INTRA.VDW>
-0.28352

>  <SCORE.INTRA.VDW.0>
-0.828515

>  <SCORE.INTRA.norm>
-0.023128

>  <SCORE.RESTR>
0

>  <SCORE.RESTR.CAVITY>
0

>  <SCORE.RESTR.norm>
0

>  <SCORE.SYSTEM>
0

>  <SCORE.SYSTEM.CONST>
0

>  <SCORE.SYSTEM.DIHEDRAL>
0

>  <SCORE.SYSTEM.SOLV>
0

>  <SCORE.SYSTEM.norm>
0

>  <SCORE.heavy>
16

>  <SCORE.norm>
-1.28682

>  <RMSD>
2.193

$$$$
ligand
 OpenBabel02271912153D
libRbt.so/2013.1/901 2013/11/27
 16 17  0  0  0  0  0  0  0  0999 V2000
    7.0068    7.2027   83.2493 N   0  0  0  0  0  0  0  0  0  0  0  0
    7.3925    5.9026   83.6829 C   0  0  2  0  0  0  0  0  0  0  0  0
    8.3560    5.2552   82.7278 C   0  0  0  0  0  0  0  0  0  0  0  0
    9.5892    5.3460   82.9431 O   0  0  0  0  0  0  0  0  0  0  0  0
    7.1037    0.3482   80.8940 O   0  0  0  0  0  0  0  0  0  0  0  0
    6.1843    5.0117   83.8445 C   0  0  0  0  0  0  0  0  0  0  0  0
    6.4895    3.7220   84.5686 C   0  0  0  0  0  0  0  0  0  0  0  0
    6.5491    3.5714   85.8959 C   0  0  0  0  0  0  0  0  0  0  0  0
    6.7186    2.5064   83.8456 C   0  0  0  0  0  0  0  0  0  0  0  0
    6.9368    1.5351   84.8606 C   0  0  0  0  0  0  0  0  0  0  0  0
    6.7568    2.1343   82.5299 C   0  0  0  0  0  0  0  0  0  0  0  0
    6.8180    2.2606   86.0658 N   0  0  0  0  0  0  0  0  0  0  0  0
    7.1936    0.2443   84.5987 C   0  0  0  0  0  0  0  0  0  0  0  0
    7.0413    0.7671   82.2294 C   0  0  0  0  0  0  0  0  0  0  0  0
    7.2693   -0.1969   83.2742 C   0  0  0  0  0  0  0  0  0  0  0  0
    7.9269    4.6489   81.7236 O   0  0  0  0  0  0  0  0  0  0  0  0
  2  1  1  6  0  0  0
  2  3  1  0  0  0  0
  2  6  1  0  0  0  0
  3  4  1  0  0  0  0
  3 16  1  0  0  0  0
  5 14  1  0  0  0  0
  6  7  1  0  0  0  0
  7  8  2  0  0  0  0
  7  9  1  0  0  0  0
  8 12  1  0  0  0  0
  9 10  2  0  0  0  0
  9 11  1  0  0  0  0
 10 13  1  0  0  0  0
 10 12  1  0  0  0  0
 11 14  2  0  0  0  0
 13 15  2  0  0  0  0
 14 15  1  0  0  0  0
M  END
>  <CHROM.1>
94.93496730,-168.08163500,82.96614194,7.25036529,3.21969698,83.48585755,-1.15219846
-1.25164289,-2.73859977

>  <Name>
ligand

>  <RI>
0

>  <Rbt.Current_Directory>
/home/itssahil/PROJECTS/Mol_Feturizer/Test_systems_manuscript/rnas/5kpy

>  <Rbt.Executable>
rbdock ($Id: //depot/dev/client3/rdock/2013.1/src/exe/rbdock.cxx#4 $)

>  <Rbt.Library>
libRbt.so (2013.1, Build901 2013/11/27)

>  <Rbt.Parameter_File>
/export/apps/rDock/src/rDock_2013.1_src/data/scripts/dock_solv.prm

>  <Rbt.Receptor>
prm/pocket_docking_7.prm

>  <SCORE>
-20.6432

>  <SCORE.INTER>
-20.0396

>  <SCORE.INTER.CONST>
1

>  <SCORE.INTER.POLAR>
0

>  <SCORE.INTER.ROT>
3

>  <SCORE.INTER.SOLV>
5.56388

>  <SCORE.INTER.VDW>
-20.8144

>  <SCORE.INTER.norm>
-1.25247

>  <SCORE.INTRA>
-0.603635

>  <SCORE.INTRA.DIHEDRAL>
0.441598

>  <SCORE.INTRA.DIHEDRAL.0>
3.89056

>  <SCORE.INTRA.POLAR>
0

>  <SCORE.INTRA.POLAR.0>
0

>  <SCORE.INTRA.REPUL>
0

>  <SCORE.INTRA.REPUL.0>
0

>  <SCORE.INTRA.SOLV>
-1.19033

>  <SCORE.INTRA.SOLV.lig_0>
-20.733

>  <SCORE.INTRA.VDW>
-0.22927

>  <SCORE.INTRA.VDW.0>
-0.828515

>  <SCORE.INTRA.norm>
-0.0377272

>  <SCORE.RESTR>
0

>  <SCORE.RESTR.CAVITY>
0

>  <SCORE.RESTR.norm>
0

>  <SCORE.SYSTEM>
0

>  <SCORE.SYSTEM.CONST>
0

>  <SCORE.SYSTEM.DIHEDRAL>
0

>  <SCORE.SYSTEM.SOLV>
0

>  <SCORE.SYSTEM.norm>
0

>  <SCORE.heavy>
16

>  <SCORE.norm>
-1.2902

>  <RMSD>
2.201

$$$$
ligand
 OpenBabel02271912153D
libRbt.so/2013.1/901 2013/11/27
 16 17  0  0  0  0  0  0  0  0999 V2000
    8.5082    6.1513   84.5980 N   0  0  0  0  0  0  0  0  0  0  0  0
    7.8605    5.6923   83.4161 C   0  0  2  0  0  0  0  0  0  0  0  0
    7.6794    6.7951   82.4108 C   0  0  0  0  0  0  0  0  0  0  0  0
    7.6247    7.9848   82.8069 O   0  0  0  0  0  0  0  0  0  0  0  0
    7.2601    0.2623   81.0246 O   0  0  0  0  0  0  0  0  0  0  0  0
    6.5125    5.0952   83.7418 C   0  0  0  0  0  0  0  0  0  0  0  0
    6.6065    3.8082   84.5263 C   0  0  0  0  0  0  0  0  0  0  0  0
    6.5094    3.6996   85.8555 C   0  0  0  0  0  0  0  0  0  0  0  0
    6.7860    2.5511   83.8627 C   0  0  0  0  0  0  0  0  0  0  0  0
    6.7955    1.5996   84.9190 C   0  0  0  0  0  0  0  0  0  0  0  0
    6.9254    2.1307   82.5686 C   0  0  0  0  0  0  0  0  0  0  0  0
    6.6241    2.3755   86.0859 N   0  0  0  0  0  0  0  0  0  0  0  0
    6.9460    0.2813   84.7185 C   0  0  0  0  0  0  0  0  0  0  0  0
    7.0995    0.7323   82.3346 C   0  0  0  0  0  0  0  0  0  0  0  0
    7.1163   -0.2119   83.4214 C   0  0  0  0  0  0  0  0  0  0  0  0
    7.5689    6.5214   81.1971 O   0  0  0  0  0  0  0  0  0  0  0  0
  2  1  1  1  0  0  0
  2  3  1  0  0  0  0
  2  6  1  0  0  0  0
  3  4  1  0  0  0  0
  3 16  1  0  0  0  0
  5 14  1  0  0  0  0
  6  7  1  0  0  0  0
  7  8  2  0  0  0  0
  7  9  1  0  0  0  0
  8 12  1  0  0  0  0
  9 10  2  0  0  0  0
  9 11  1  0  0  0  0
 10 13  1  0  0  0  0
 10 12  1  0  0  0  0
 11 14  2  0  0  0  0
 13 15  2  0  0  0  0
 14 15  1  0  0  0  0
M  END
>  <CHROM.1>
-25.41099632,-67.83770736,96.34332253,7.17545750,3.59054981,83.51800239,0.79755953
1.40477598,0.66917550

>  <Name>
ligand

>  <RI>
0

>  <Rbt.Current_Directory>
/home/itssahil/PROJECTS/Mol_Feturizer/Test_systems_manuscript/rnas/5kpy

>  <Rbt.Executable>
rbdock ($Id: //depot/dev/client3/rdock/2013.1/src/exe/rbdock.cxx#4 $)

>  <Rbt.Library>
libRbt.so (2013.1, Build901 2013/11/27)

>  <Rbt.Parameter_File>
/export/apps/rDock/src/rDock_2013.1_src/data/scripts/dock_solv.prm

>  <Rbt.Receptor>
prm/pocket_docking_5.prm

>  <SCORE>
-19.8113

>  <SCORE.INTER>
-19.4622

>  <SCORE.INTER.CONST>
1

>  <SCORE.INTER.POLAR>
0

>  <SCORE.INTER.ROT>
3

>  <SCORE.INTER.SOLV>
8.50434

>  <SCORE.INTER.VDW>
-21.4096

>  <SCORE.INTER.norm>
-1.21639

>  <SCORE.INTRA>
-0.34906

>  <SCORE.INTRA.DIHEDRAL>
0.172007

>  <SCORE.INTRA.DIHEDRAL.0>
3.89056

>  <SCORE.INTRA.POLAR>
0

>  <SCORE.INTRA.POLAR.0>
0

>  <SCORE.INTRA.REPUL>
0

>  <SCORE.INTRA.REPUL.0>
0

>  <SCORE.INTRA.SOLV>
-0.357635

>  <SCORE.INTRA.SOLV.lig_0>
-20.733

>  <SCORE.INTRA.VDW>
-0.256246

>  <SCORE.INTRA.VDW.0>
-0.828515

>  <SCORE.INTRA.norm>
-0.0218163

>  <SCORE.RESTR>
0

>  <SCORE.RESTR.CAVITY>
0

>  <SCORE.RESTR.norm>
0

>  <SCORE.SYSTEM>
0

>  <SCORE.SYSTEM.CONST>
0

>  <SCORE.SYSTEM.DIHEDRAL>
0

>  <SCORE.SYSTEM.SOLV>
0

>  <SCORE.SYSTEM.norm>
0

>  <SCORE.heavy>
16

>  <SCORE.norm>
-1.2382

>  <RMSD>
2.206

$$$$
ligand
 OpenBabel02271912153D
libRbt.so/2013.1/901 2013/11/27
 16 17  0  0  0  0  0  0  0  0999 V2000
    8.4912    6.1625   84.6335 N   0  0  0  0  0  0  0  0  0  0  0  0
    7.8890    5.7067   83.4265 C   0  0  2  0  0  0  0  0  0  0  0  0
    7.7059    6.8215   82.4348 C   0  0  0  0  0  0  0  0  0  0  0  0
    7.6097    8.0025   82.8487 O   0  0  0  0  0  0  0  0  0  0  0  0
    7.1752    0.1851   81.0474 O   0  0  0  0  0  0  0  0  0  0  0  0
    6.5492    5.0685   83.7044 C   0  0  0  0  0  0  0  0  0  0  0  0
    6.6534    3.7935   84.5071 C   0  0  0  0  0  0  0  0  0  0  0  0
    6.5929    3.7074   85.8401 C   0  0  0  0  0  0  0  0  0  0  0  0
    6.8025    2.5241   83.8595 C   0  0  0  0  0  0  0  0  0  0  0  0
    6.8330    1.5899   84.9307 C   0  0  0  0  0  0  0  0  0  0  0  0
    6.9014    2.0815   82.5691 C   0  0  0  0  0  0  0  0  0  0  0  0
    6.7018    2.3862   86.0890 N   0  0  0  0  0  0  0  0  0  0  0  0
    6.9656    0.2671   84.7478 C   0  0  0  0  0  0  0  0  0  0  0  0
    7.0559    0.6779   82.3535 C   0  0  0  0  0  0  0  0  0  0  0  0
    7.0947   -0.2487   83.4548 C   0  0  0  0  0  0  0  0  0  0  0  0
    7.6348    6.5657   81.2143 O   0  0  0  0  0  0  0  0  0  0  0  0
  2  1  1  1  0  0  0
  2  3  1  0  0  0  0
  2  6  1  0  0  0  0
  3  4  1  0  0  0  0
  3 16  1  0  0  0  0
  5 14  1  0  0  0  0
  6  7  1  0  0  0  0
  7  8  2  0  0  0  0
  7  9  1  0  0  0  0
  8 12  1  0  0  0  0
  9 10  2  0  0  0  0
  9 11  1  0  0  0  0
 10 13  1  0  0  0  0
 10 12  1  0  0  0  0
 11 14  2  0  0  0  0
 13 15  2  0  0  0  0
 14 15  1  0  0  0  0
M  END
>  <CHROM.1>
-25.32817066,-66.04582994,91.70025171,7.18912445,3.58018257,83.52946829,0.67849714
1.41747777,0.79611761

>  <Name>
ligand

>  <RI>
0

>  <Rbt.Current_Directory>
/home/itssahil/PROJECTS/Mol_Feturizer/Test_systems_manuscript/rnas/5kpy

>  <Rbt.Executable>
rbdock ($Id: //depot/dev/client3/rdock/2013.1/src/exe/rbdock.cxx#4 $)

>  <Rbt.Library>
libRbt.so (2013.1, Build901 2013/11/27)

>  <Rbt.Parameter_File>
/export/apps/rDock/src/rDock_2013.1_src/data/scripts/dock_solv.prm

>  <Rbt.Receptor>
prm/pocket_docking_6.prm

>  <SCORE>
-19.7438

>  <SCORE.INTER>
-19.3896

>  <SCORE.INTER.CONST>
1

>  <SCORE.INTER.POLAR>
0

>  <SCORE.INTER.ROT>
3

>  <SCORE.INTER.SOLV>
8.47612

>  <SCORE.INTER.VDW>
-21.3518

>  <SCORE.INTER.norm>
-1.21185

>  <SCORE.INTRA>
-0.35426

>  <SCORE.INTRA.DIHEDRAL>
0.0758659

>  <SCORE.INTRA.DIHEDRAL.0>
3.89056

>  <SCORE.INTRA.POLAR>
0

>  <SCORE.INTRA.POLAR.0>
0

>  <SCORE.INTRA.REPUL>
0

>  <SCORE.INTRA.REPUL.0>
0

>  <SCORE.INTRA.SOLV>
-0.306142

>  <SCORE.INTRA.SOLV.lig_0>
-20.733

>  <SCORE.INTRA.VDW>
-0.239121

>  <SCORE.INTRA.VDW.0>
-0.828515

>  <SCORE.INTRA.norm>
-0.0221412

>  <SCORE.RESTR>
0

>  <SCORE.RESTR.CAVITY>
0

>  <SCORE.RESTR.norm>
0

>  <SCORE.SYSTEM>
0

>  <SCORE.SYSTEM.CONST>
0

>  <SCORE.SYSTEM.DIHEDRAL>
0

>  <SCORE.SYSTEM.SOLV>
0

>  <SCORE.SYSTEM.norm>
0

>  <SCORE.heavy>
16

>  <SCORE.norm>
-1.23399

>  <RMSD>
2.213

$$$$
ligand
 OpenBabel02271912153D
libRbt.so/2013.1/901 2013/11/27
 16 17  0  0  0  0  0  0  0  0999 V2000
    8.5283    6.0670   84.4347 N   0  0  0  0  0  0  0  0  0  0  0  0
    7.7765    5.6250   83.3093 C   0  0  2  0  0  0  0  0  0  0  0  0
    7.5486    6.7310   82.3170 C   0  0  0  0  0  0  0  0  0  0  0  0
    7.6641    7.9240   82.6893 O   0  0  0  0  0  0  0  0  0  0  0  0
    7.2643    0.2415   81.0353 O   0  0  0  0  0  0  0  0  0  0  0  0
    6.4417    5.0679   83.7424 C   0  0  0  0  0  0  0  0  0  0  0  0
    6.5605    3.7847   84.5300 C   0  0  0  0  0  0  0  0  0  0  0  0
    6.4697    3.6780   85.8597 C   0  0  0  0  0  0  0  0  0  0  0  0
    6.7597    2.5292   83.8690 C   0  0  0  0  0  0  0  0  0  0  0  0
    6.7892    1.5809   84.9278 C   0  0  0  0  0  0  0  0  0  0  0  0
    6.9022    2.1079   82.5755 C   0  0  0  0  0  0  0  0  0  0  0  0
    6.6082    2.3567   86.0932 N   0  0  0  0  0  0  0  0  0  0  0  0
    6.9619    0.2648   84.7301 C   0  0  0  0  0  0  0  0  0  0  0  0
    7.0998    0.7121   82.3446 C   0  0  0  0  0  0  0  0  0  0  0  0
    7.1366   -0.2287   83.4338 C   0  0  0  0  0  0  0  0  0  0  0  0
    7.2320    6.4580   81.1400 O   0  0  0  0  0  0  0  0  0  0  0  0
  2  1  1  1  0  0  0
  2  3  1  0  0  0  0
  2  6  1  0  0  0  0
  3  4  1  0  0  0  0
  3 16  1  0  0  0  0
  5 14  1  0  0  0  0
  6  7  1  0  0  0  0
  7  8  2  0  0  0  0
  7  9  1  0  0  0  0
  8 12  1  0  0  0  0
  9 10  2  0  0  0  0
  9 11  1  0  0  0  0
 10 13  1  0  0  0  0
 10 12  1  0  0  0  0
 11 14  2  0  0  0  0
 13 15  2  0  0  0  0
 14 15  1  0  0  0  0
M  END
>  <CHROM.1>
-19.82027573,-67.46091069,101.26468257,7.13020208,3.55389809,83.48697871
0.79787794,1.42657823,0.64552607

>  <Name>
ligand

>  <RI>
0

>  <Rbt.Current_Directory>
/home/itssahil/PROJECTS/Mol_Feturizer/Test_systems_manuscript/rnas/5kpy

>  <Rbt.Executable>
rbdock ($Id: //depot/dev/client3/rdock/2013.1/src/exe/rbdock.cxx#4 $)

>  <Rbt.Library>
libRbt.so (2013.1, Build901 2013/11/27)

>  <Rbt.Parameter_File>
/export/apps/rDock/src/rDock_2013.1_src/data/scripts/dock_solv.prm

>  <Rbt.Receptor>
prm/pocket_docking_8.prm

>  <SCORE>
-19.7933

>  <SCORE.INTER>
-19.4422

>  <SCORE.INTER.CONST>
1

>  <SCORE.INTER.POLAR>
0

>  <SCORE.INTER.ROT>
3

>  <SCORE.INTER.SOLV>
8.66971

>  <SCORE.INTER.VDW>
-21.4514

>  <SCORE.INTER.norm>
-1.21514

>  <SCORE.INTRA>
-0.351075

>  <SCORE.INTRA.DIHEDRAL>
0.14356

>  <SCORE.INTRA.DIHEDRAL.0>
3.89056

>  <SCORE.INTRA.POLAR>
0

>  <SCORE.INTRA.POLAR.0>
0

>  <SCORE.INTRA.REPUL>
0

>  <SCORE.INTRA.REPUL.0>
0

>  <SCORE.INTRA.SOLV>
-0.381548

>  <SCORE.INTRA.SOLV.lig_0>
-20.733

>  <SCORE.INTRA.VDW>
-0.232081

>  <SCORE.INTRA.VDW.0>
-0.828515

>  <SCORE.INTRA.norm>
-0.0219422

>  <SCORE.RESTR>
0

>  <SCORE.RESTR.CAVITY>
0

>  <SCORE.RESTR.norm>
0

>  <SCORE.SYSTEM>
0

>  <SCORE.SYSTEM.CONST>
0

>  <SCORE.SYSTEM.DIHEDRAL>
0

>  <SCORE.SYSTEM.SOLV>
0

>  <SCORE.SYSTEM.norm>
0

>  <SCORE.heavy>
16

>  <SCORE.norm>
-1.23708

>  <RMSD>
2.225

$$$$
ligand
 OpenBabel02271912153D
libRbt.so/2013.1/901 2013/11/27
 16 17  0  0  0  0  0  0  0  0999 V2000
    8.6144    6.0367   84.3022 N   0  0  0  0  0  0  0  0  0  0  0  0
    7.8444    5.6041   83.1855 C   0  0  2  0  0  0  0  0  0  0  0  0
    7.6287    6.7099   82.1902 C   0  0  0  0  0  0  0  0  0  0  0  0
    7.3120    6.4217   81.0104 O   0  0  0  0  0  0  0  0  0  0  0  0
    7.2328    0.1811   81.0209 O   0  0  0  0  0  0  0  0  0  0  0  0
    6.5031    5.0744   83.6329 C   0  0  0  0  0  0  0  0  0  0  0  0
    6.6064    3.8059   84.4460 C   0  0  0  0  0  0  0  0  0  0  0  0
    6.5220    3.7278   85.7782 C   0  0  0  0  0  0  0  0  0  0  0  0
    6.7817    2.5341   83.8098 C   0  0  0  0  0  0  0  0  0  0  0  0
    6.8026    1.6072   84.8877 C   0  0  0  0  0  0  0  0  0  0  0  0
    6.9096    2.0842   82.5245 C   0  0  0  0  0  0  0  0  0  0  0  0
    6.6409    2.4096   86.0379 N   0  0  0  0  0  0  0  0  0  0  0  0
    6.9532    0.2848   84.7162 C   0  0  0  0  0  0  0  0  0  0  0  0
    7.0837    0.6810   82.3212 C   0  0  0  0  0  0  0  0  0  0  0  0
    7.1122   -0.2378   83.4292 C   0  0  0  0  0  0  0  0  0  0  0  0
    7.7807    7.9002   82.5370 O   0  0  0  0  0  0  0  0  0  0  0  0
  2  1  1  1  0  0  0
  2  3  1  0  0  0  0
  2  6  1  0  0  0  0
  3  4  1  0  0  0  0
  3 16  1  0  0  0  0
  5 14  1  0  0  0  0
  6  7  1  0  0  0  0
  7  8  2  0  0  0  0
  7  9  1  0  0  0  0
  8 12  1  0  0  0  0
  9 10  2  0  0  0  0
  9 11  1  0  0  0  0
 10 13  1  0  0  0  0
 10 12  1  0  0  0  0
 11 14  2  0  0  0  0
 13 15  2  0  0  0  0
 14 15  1  0  0  0  0
M  END
>  <CHROM.1>
160.12226105,-66.44250800,101.03286434,7.16864035,3.54752664,83.40960459
0.68889844,1.41966388,0.73543389

>  <Name>
ligand

>  <RI>
0

>  <Rbt.Current_Directory>
/home/itssahil/PROJECTS/Mol_Feturizer/Test_systems_manuscript/rnas/5kpy

>  <Rbt.Executable>
rbdock ($Id: //depot/dev/client3/rdock/2013.1/src/exe/rbdock.cxx#4 $)

>  <Rbt.Library>
libRbt.so (2013.1, Build901 2013/11/27)

>  <Rbt.Parameter_File>
/export/apps/rDock/src/rDock_2013.1_src/data/scripts/dock_solv.prm

>  <Rbt.Receptor>
prm/pocket_docking_7.prm

>  <SCORE>
-19.83

>  <SCORE.INTER>
-19.4775

>  <SCORE.INTER.CONST>
1

>  <SCORE.INTER.POLAR>
0

>  <SCORE.INTER.ROT>
3

>  <SCORE.INTER.SOLV>
8.90371

>  <SCORE.INTER.VDW>
-21.5529

>  <SCORE.INTER.norm>
-1.21734

>  <SCORE.INTRA>
-0.352529

>  <SCORE.INTRA.DIHEDRAL>
0.143205

>  <SCORE.INTRA.DIHEDRAL.0>
3.89056

>  <SCORE.INTRA.POLAR>
0

>  <SCORE.INTRA.POLAR.0>
0

>  <SCORE.INTRA.REPUL>
0

>  <SCORE.INTRA.REPUL.0>
0

>  <SCORE.INTRA.SOLV>
-0.364863

>  <SCORE.INTRA.SOLV.lig_0>
-20.733

>  <SCORE.INTRA.VDW>
-0.241699

>  <SCORE.INTRA.VDW.0>
-0.828515

>  <SCORE.INTRA.norm>
-0.022033

>  <SCORE.RESTR>
0

>  <SCORE.RESTR.CAVITY>
0

>  <SCORE.RESTR.norm>
0

>  <SCORE.SYSTEM>
0

>  <SCORE.SYSTEM.CONST>
0

>  <SCORE.SYSTEM.DIHEDRAL>
0

>  <SCORE.SYSTEM.SOLV>
0

>  <SCORE.SYSTEM.norm>
0

>  <SCORE.heavy>
16

>  <SCORE.norm>
-1.23938

>  <RMSD>
2.282

$$$$
ligand
 OpenBabel02271912153D
libRbt.so/2013.1/901 2013/11/27
 16 17  0  0  0  0  0  0  0  0999 V2000
    7.1052    5.2260   82.0008 N   0  0  0  0  0  0  0  0  0  0  0  0
    5.9289    5.1750   82.8013 C   0  0  2  0  0  0  0  0  0  0  0  0
    4.9904    6.3080   82.4927 C   0  0  0  0  0  0  0  0  0  0  0  0
    3.9107    6.0675   81.8996 O   0  0  0  0  0  0  0  0  0  0  0  0
    7.4089    0.8684   80.9271 O   0  0  0  0  0  0  0  0  0  0  0  0
    6.2787    5.2099   84.2697 C   0  0  0  0  0  0  0  0  0  0  0  0
    6.4582    3.8361   84.8706 C   0  0  0  0  0  0  0  0  0  0  0  0
    6.3547    3.5367   86.1697 C   0  0  0  0  0  0  0  0  0  0  0  0
    6.7368    2.6997   84.0436 C   0  0  0  0  0  0  0  0  0  0  0  0
    6.8045    1.6135   84.9583 C   0  0  0  0  0  0  0  0  0  0  0  0
    6.9209    2.4748   82.7071 C   0  0  0  0  0  0  0  0  0  0  0  0
    6.5637    2.2050   86.2173 N   0  0  0  0  0  0  0  0  0  0  0  0
    7.0535    0.3500   84.5807 C   0  0  0  0  0  0  0  0  0  0  0  0
    7.1998    1.1386   82.2858 C   0  0  0  0  0  0  0  0  0  0  0  0
    7.2738    0.0558   83.2318 C   0  0  0  0  0  0  0  0  0  0  0  0
    5.2961    7.4762   82.8119 O   0  0  0  0  0  0  0  0  0  0  0  0
  2  1  1  6  0  0  0
  2  3  1  0  0  0  0
  2  6  1  0  0  0  0
  3  4  1  0  0  0  0
  3 16  1  0  0  0  0
  5 14  1  0  0  0  0
  6  7  1  0  0  0  0
  7  8  2  0  0  0  0
  7  9  1  0  0  0  0
  8 12  1  0  0  0  0
  9 10  2  0  0  0  0
  9 11  1  0  0  0  0
 10 13  1  0  0  0  0
 10 12  1  0  0  0  0
 11 14  2  0  0  0  0
 13 15  2  0  0  0  0
 14 15  1  0  0  0  0
M  END
>  <CHROM.1>
109.42612340,-91.24090893,-157.87403765,6.34942954,3.50226218,83.43895199
-2.92878151,-1.23013988,1.60199721

>  <Name>
ligand

>  <RI>
0

>  <Rbt.Current_Directory>
/home/itssahil/PROJECTS/Mol_Feturizer/Test_systems_manuscript/rnas/5kpy

>  <Rbt.Executable>
rbdock ($Id: //depot/dev/client3/rdock/2013.1/src/exe/rbdock.cxx#4 $)

>  <Rbt.Library>
libRbt.so (2013.1, Build901 2013/11/27)

>  <Rbt.Parameter_File>
/export/apps/rDock/src/rDock_2013.1_src/data/scripts/dock_solv.prm

>  <Rbt.Receptor>
prm/pocket_docking_4.prm

>  <SCORE>
-18.5841

>  <SCORE.INTER>
-21.0678

>  <SCORE.INTER.CONST>
1

>  <SCORE.INTER.POLAR>
0

>  <SCORE.INTER.ROT>
3

>  <SCORE.INTER.SOLV>
6.05641

>  <SCORE.INTER.VDW>
-21.664

>  <SCORE.INTER.norm>
-1.31674

>  <SCORE.INTRA>
2.48331

>  <SCORE.INTRA.DIHEDRAL>
3.05171

>  <SCORE.INTRA.DIHEDRAL.0>
3.89056

>  <SCORE.INTRA.POLAR>
0

>  <SCORE.INTRA.POLAR.0>
0

>  <SCORE.INTRA.REPUL>
0

>  <SCORE.INTRA.REPUL.0>
0

>  <SCORE.INTRA.SOLV>
0.251466

>  <SCORE.INTRA.SOLV.lig_0>
-20.733

>  <SCORE.INTRA.VDW>
0.831726

>  <SCORE.INTRA.VDW.0>
-0.828515

>  <SCORE.INTRA.norm>
0.155207

>  <SCORE.RESTR>
0.000389712

>  <SCORE.RESTR.CAVITY>
0.000389712

>  <SCORE.RESTR.norm>
2.4357e-05

>  <SCORE.SYSTEM>
0

>  <SCORE.SYSTEM.CONST>
0

>  <SCORE.SYSTEM.DIHEDRAL>
0

>  <SCORE.SYSTEM.SOLV>
0

>  <SCORE.SYSTEM.norm>
0

>  <SCORE.heavy>
16

>  <SCORE.norm>
-1.16151

>  <RMSD>
2.395

$$$$
ligand
 OpenBabel02271912153D
libRbt.so/2013.1/901 2013/11/27
 16 17  0  0  0  0  0  0  0  0999 V2000
    7.2862    7.0785   83.1204 N   0  0  0  0  0  0  0  0  0  0  0  0
    7.4794    5.6861   83.3463 C   0  0  2  0  0  0  0  0  0  0  0  0
    7.8472    4.9584   82.0834 C   0  0  0  0  0  0  0  0  0  0  0  0
    8.9849    4.4378   81.9832 O   0  0  0  0  0  0  0  0  0  0  0  0
    7.1318    0.4651   80.8699 O   0  0  0  0  0  0  0  0  0  0  0  0
    6.2359    5.0611   83.9317 C   0  0  0  0  0  0  0  0  0  0  0  0
    6.5018    3.7461   84.6251 C   0  0  0  0  0  0  0  0  0  0  0  0
    6.5304    3.5574   85.9486 C   0  0  0  0  0  0  0  0  0  0  0  0
    6.7238    2.5470   83.8728 C   0  0  0  0  0  0  0  0  0  0  0  0
    6.9025    1.5438   84.8643 C   0  0  0  0  0  0  0  0  0  0  0  0
    6.7831    2.2112   82.5483 C   0  0  0  0  0  0  0  0  0  0  0  0
    6.7715    2.2375   86.0868 N   0  0  0  0  0  0  0  0  0  0  0  0
    7.1410    0.2561   84.5713 C   0  0  0  0  0  0  0  0  0  0  0  0
    7.0487    0.8477   82.2152 C   0  0  0  0  0  0  0  0  0  0  0  0
    7.2367   -0.1493   83.2367 C   0  0  0  0  0  0  0  0  0  0  0  0
    7.0297    4.8906   81.1414 O   0  0  0  0  0  0  0  0  0  0  0  0
  2  1  1  6  0  0  0
  2  3  1  0  0  0  0
  2  6  1  0  0  0  0
  3  4  1  0  0  0  0
  3 16  1  0  0  0  0
  5 14  1  0  0  0  0
  6  7  1  0  0  0  0
  7  8  2  0  0  0  0
  7  9  1  0  0  0  0
  8 12  1  0  0  0  0
  9 10  2  0  0  0  0
  9 11  1  0  0  0  0
 10 13  1  0  0  0  0
 10 12  1  0  0  0  0
 11 14  2  0  0  0  0
 13 15  2  0  0  0  0
 14 15  1  0  0  0  0
M  END
>  <CHROM.1>
114.32201967,-160.19670377,105.18303981,7.12906296,3.15704946,83.31292944
1.21616630,1.34909818,0.21361144

>  <Name>
ligand

>  <RI>
0

>  <Rbt.Current_Directory>
/home/itssahil/PROJECTS/Mol_Feturizer/Test_systems_manuscript/rnas/5kpy

>  <Rbt.Executable>
rbdock ($Id: //depot/dev/client3/rdock/2013.1/src/exe/rbdock.cxx#4 $)

>  <Rbt.Library>
libRbt.so (2013.1, Build901 2013/11/27)

>  <Rbt.Parameter_File>
/export/apps/rDock/src/rDock_2013.1_src/data/scripts/dock_solv.prm

>  <Rbt.Receptor>
prm/pocket_docking_4.prm

>  <SCORE>
-20.8955

>  <SCORE.INTER>
-20.2226

>  <SCORE.INTER.CONST>
1

>  <SCORE.INTER.POLAR>
0

>  <SCORE.INTER.ROT>
3

>  <SCORE.INTER.SOLV>
5.18054

>  <SCORE.INTER.VDW>
-20.8086

>  <SCORE.INTER.norm>
-1.26391

>  <SCORE.INTRA>
-0.672895

>  <SCORE.INTRA.DIHEDRAL>
1.31587

>  <SCORE.INTRA.DIHEDRAL.0>
3.89056

>  <SCORE.INTRA.POLAR>
0

>  <SCORE.INTRA.POLAR.0>
0

>  <SCORE.INTRA.REPUL>
0

>  <SCORE.INTRA.REPUL.0>
0

>  <SCORE.INTRA.SOLV>
-1.16605

>  <SCORE.INTRA.SOLV.lig_0>
-20.733

>  <SCORE.INTRA.VDW>
-0.747802

>  <SCORE.INTRA.VDW.0>
-0.828515

>  <SCORE.INTRA.norm>
-0.042056

>  <SCORE.RESTR>
0

>  <SCORE.RESTR.CAVITY>
0

>  <SCORE.RESTR.norm>
0

>  <SCORE.SYSTEM>
0

>  <SCORE.SYSTEM.CONST>
0

>  <SCORE.SYSTEM.DIHEDRAL>
0

>  <SCORE.SYSTEM.SOLV>
0

>  <SCORE.SYSTEM.norm>
0

>  <SCORE.heavy>
16

>  <SCORE.norm>
-1.30597

>  <RMSD>
2.408

$$$$
ligand
 OpenBabel02271912153D
libRbt.so/2013.1/901 2013/11/27
 16 17  0  0  0  0  0  0  0  0999 V2000
    7.3361    7.0587   83.1260 N   0  0  0  0  0  0  0  0  0  0  0  0
    7.5134    5.6639   83.3496 C   0  0  2  0  0  0  0  0  0  0  0  0
    7.8602    4.9320   82.0831 C   0  0  0  0  0  0  0  0  0  0  0  0
    8.9989    4.4180   81.9625 O   0  0  0  0  0  0  0  0  0  0  0  0
    7.1027    0.4432   80.8904 O   0  0  0  0  0  0  0  0  0  0  0  0
    6.2674    5.0546   83.9461 C   0  0  0  0  0  0  0  0  0  0  0  0
    6.5236    3.7385   84.6412 C   0  0  0  0  0  0  0  0  0  0  0  0
    6.5567    3.5524   85.9649 C   0  0  0  0  0  0  0  0  0  0  0  0
    6.7300    2.5356   83.8906 C   0  0  0  0  0  0  0  0  0  0  0  0
    6.9035    1.5329   84.8834 C   0  0  0  0  0  0  0  0  0  0  0  0
    6.7796    2.1963   82.5665 C   0  0  0  0  0  0  0  0  0  0  0  0
    6.7854    2.2306   86.1050 N   0  0  0  0  0  0  0  0  0  0  0  0
    7.1279    0.2423   84.5922 C   0  0  0  0  0  0  0  0  0  0  0  0
    7.0300    0.8295   82.2352 C   0  0  0  0  0  0  0  0  0  0  0  0
    7.2130   -0.1670   83.2580 C   0  0  0  0  0  0  0  0  0  0  0  0
    7.0243    4.8545   81.1582 O   0  0  0  0  0  0  0  0  0  0  0  0
  2  1  1  6  0  0  0
  2  3  1  0  0  0  0
  2  6  1  0  0  0  0
  3  4  1  0  0  0  0
  3 16  1  0  0  0  0
  5 14  1  0  0  0  0
  6  7  1  0  0  0  0
  7  8  2  0  0  0  0
  7  9  1  0  0  0  0
  8 12  1  0  0  0  0
  9 10  2  0  0  0  0
  9 11  1  0  0  0  0
 10 13  1  0  0  0  0
 10 12  1  0  0  0  0
 11 14  2  0  0  0  0
 13 15  2  0  0  0  0
 14 15  1  0  0  0  0
M  END
>  <CHROM.1>
113.02228126,-159.97362517,105.36132853,7.13645738,3.14043566,83.32541015
1.16569734,1.35218954,0.25950568

>  <Name>
ligand

>  <RI>
0

>  <Rbt.Current_Directory>
/home/itssahil/PROJECTS/Mol_Feturizer/Test_systems_manuscript/rnas/5kpy

>  <Rbt.Executable>
rbdock ($Id: //depot/dev/client3/rdock/2013.1/src/exe/rbdock.cxx#4 $)

>  <Rbt.Library>
libRbt.so (2013.1, Build901 2013/11/27)

>  <Rbt.Parameter_File>
/export/apps/rDock/src/rDock_2013.1_src/data/scripts/dock_solv.prm

>  <Rbt.Receptor>
prm/pocket_docking_4.prm

>  <SCORE>
-20.8916

>  <SCORE.INTER>
-20.2591

>  <SCORE.INTER.CONST>
1

>  <SCORE.INTER.POLAR>
0

>  <SCORE.INTER.ROT>
3

>  <SCORE.INTER.SOLV>
5.17302

>  <SCORE.INTER.VDW>
-20.8304

>  <SCORE.INTER.norm>
-1.26619

>  <SCORE.INTRA>
-0.632572

>  <SCORE.INTRA.DIHEDRAL>
1.34232

>  <SCORE.INTRA.DIHEDRAL.0>
3.89056

>  <SCORE.INTRA.POLAR>
0

>  <SCORE.INTRA.POLAR.0>
0

>  <SCORE.INTRA.REPUL>
0

>  <SCORE.INTRA.REPUL.0>
0

>  <SCORE.INTRA.SOLV>
-1.16595

>  <SCORE.INTRA.SOLV.lig_0>
-20.733

>  <SCORE.INTRA.VDW>
-0.720755

>  <SCORE.INTRA.VDW.0>
-0.828515

>  <SCORE.INTRA.norm>
-0.0395358

>  <SCORE.RESTR>
0

>  <SCORE.RESTR.CAVITY>
0

>  <SCORE.RESTR.norm>
0

>  <SCORE.SYSTEM>
0

>  <SCORE.SYSTEM.CONST>
0

>  <SCORE.SYSTEM.DIHEDRAL>
0

>  <SCORE.SYSTEM.SOLV>
0

>  <SCORE.SYSTEM.norm>
0

>  <SCORE.heavy>
16

>  <SCORE.norm>
-1.30573

>  <RMSD>
2.417

$$$$
ligand
 OpenBabel02271912153D
libRbt.so/2013.1/901 2013/11/27
 16 17  0  0  0  0  0  0  0  0999 V2000
    8.0076    5.6822   83.1882 N   0  0  0  0  0  0  0  0  0  0  0  0
    6.6905    5.1891   82.9670 C   0  0  2  0  0  0  0  0  0  0  0  0
    5.8674    6.1378   82.1410 C   0  0  0  0  0  0  0  0  0  0  0  0
    5.4540    7.2037   82.6589 O   0  0  0  0  0  0  0  0  0  0  0  0
    7.0485    0.4438   81.1199 O   0  0  0  0  0  0  0  0  0  0  0  0
    5.9857    4.9375   84.2784 C   0  0  0  0  0  0  0  0  0  0  0  0
    6.4046    3.6461   84.9399 C   0  0  0  0  0  0  0  0  0  0  0  0
    6.5372    3.4550   86.2567 C   0  0  0  0  0  0  0  0  0  0  0  0
    6.6733    2.4725   84.1631 C   0  0  0  0  0  0  0  0  0  0  0  0
    6.9998    1.4835   85.1308 C   0  0  0  0  0  0  0  0  0  0  0  0
    6.6711    2.1482   82.8344 C   0  0  0  0  0  0  0  0  0  0  0  0
    6.8946    2.1590   86.3659 N   0  0  0  0  0  0  0  0  0  0  0  0
    7.3231    0.2211   84.8103 C   0  0  0  0  0  0  0  0  0  0  0  0
    7.0247    0.8126   82.4713 C   0  0  0  0  0  0  0  0  0  0  0  0
    7.3620   -0.1696   83.4684 C   0  0  0  0  0  0  0  0  0  0  0  0
    5.5880    5.8536   80.9573 O   0  0  0  0  0  0  0  0  0  0  0  0
  2  1  1  1  0  0  0
  2  3  1  0  0  0  0
  2  6  1  0  0  0  0
  3  4  1  0  0  0  0
  3 16  1  0  0  0  0
  5 14  1  0  0  0  0
  6  7  1  0  0  0  0
  7  8  2  0  0  0  0
  7  9  1  0  0  0  0
  8 12  1  0  0  0  0
  9 10  2  0  0  0  0
  9 11  1  0  0  0  0
 10 13  1  0  0  0  0
 10 12  1  0  0  0  0
 11 14  2  0  0  0  0
 13 15  2  0  0  0  0
 14 15  1  0  0  0  0
M  END
>  <CHROM.1>
-73.00671333,-78.72566629,143.85175277,6.63138640,3.34048301,83.51977378
3.13096107,1.38272459,-1.83205538

>  <Name>
ligand

>  <RI>
0

>  <Rbt.Current_Directory>
/home/itssahil/PROJECTS/Mol_Feturizer/Test_systems_manuscript/rnas/5kpy

>  <Rbt.Executable>
rbdock ($Id: //depot/dev/client3/rdock/2013.1/src/exe/rbdock.cxx#4 $)

>  <Rbt.Library>
libRbt.so (2013.1, Build901 2013/11/27)

>  <Rbt.Parameter_File>
/export/apps/rDock/src/rDock_2013.1_src/data/scripts/dock_solv.prm

>  <Rbt.Receptor>
prm/pocket_docking_6.prm

>  <SCORE>
-19.4627

>  <SCORE.INTER>
-20.1264

>  <SCORE.INTER.CONST>
1

>  <SCORE.INTER.POLAR>
0

>  <SCORE.INTER.ROT>
3

>  <SCORE.INTER.SOLV>
7.08583

>  <SCORE.INTER.VDW>
-21.3796

>  <SCORE.INTER.norm>
-1.2579

>  <SCORE.INTRA>
0.663772

>  <SCORE.INTRA.DIHEDRAL>
1.12236

>  <SCORE.INTRA.DIHEDRAL.0>
3.89056

>  <SCORE.INTRA.POLAR>
0

>  <SCORE.INTRA.POLAR.0>
0

>  <SCORE.INTRA.REPUL>
0

>  <SCORE.INTRA.REPUL.0>
0

>  <SCORE.INTRA.SOLV>
-0.42536

>  <SCORE.INTRA.SOLV.lig_0>
-20.733

>  <SCORE.INTRA.VDW>
0.315271

>  <SCORE.INTRA.VDW.0>
-0.828515

>  <SCORE.INTRA.norm>
0.0414857

>  <SCORE.RESTR>
0

>  <SCORE.RESTR.CAVITY>
0

>  <SCORE.RESTR.norm>
0

>  <SCORE.SYSTEM>
0

>  <SCORE.SYSTEM.CONST>
0

>  <SCORE.SYSTEM.DIHEDRAL>
0

>  <SCORE.SYSTEM.SOLV>
0

>  <SCORE.SYSTEM.norm>
0

>  <SCORE.heavy>
16

>  <SCORE.norm>
-1.21642

>  <RMSD>
2.424

$$$$
ligand
 OpenBabel02271912153D
libRbt.so/2013.1/901 2013/11/27
 16 17  0  0  0  0  0  0  0  0999 V2000
    7.3011    6.9798   83.0529 N   0  0  0  0  0  0  0  0  0  0  0  0
    7.5071    5.5985   83.3292 C   0  0  2  0  0  0  0  0  0  0  0  0
    7.9227    4.8364   82.1019 C   0  0  0  0  0  0  0  0  0  0  0  0
    9.0992    4.4082   82.0135 O   0  0  0  0  0  0  0  0  0  0  0  0
    7.0795    0.2972   80.9395 O   0  0  0  0  0  0  0  0  0  0  0  0
    6.2555    4.9737   83.8976 C   0  0  0  0  0  0  0  0  0  0  0  0
    6.5159    3.6733   84.6201 C   0  0  0  0  0  0  0  0  0  0  0  0
    6.5553    3.5163   85.9474 C   0  0  0  0  0  0  0  0  0  0  0  0
    6.7195    2.4545   83.8950 C   0  0  0  0  0  0  0  0  0  0  0  0
    6.8984    1.4738   84.9086 C   0  0  0  0  0  0  0  0  0  0  0  0
    6.7631    2.0863   82.5784 C   0  0  0  0  0  0  0  0  0  0  0  0
    6.7855    2.1979   86.1152 N   0  0  0  0  0  0  0  0  0  0  0  0
    7.1222    0.1772   84.6446 C   0  0  0  0  0  0  0  0  0  0  0  0
    7.0129    0.7128   82.2759 C   0  0  0  0  0  0  0  0  0  0  0  0
    7.2014   -0.2611   83.3194 C   0  0  0  0  0  0  0  0  0  0  0  0
    7.1048    4.6493   81.1766 O   0  0  0  0  0  0  0  0  0  0  0  0
  2  1  1  6  0  0  0
  2  3  1  0  0  0  0
  2  6  1  0  0  0  0
  3  4  1  0  0  0  0
  3 16  1  0  0  0  0
  5 14  1  0  0  0  0
  6  7  1  0  0  0  0
  7  8  2  0  0  0  0
  7  9  1  0  0  0  0
  8 12  1  0  0  0  0
  9 10  2  0  0  0  0
  9 11  1  0  0  0  0
 10 13  1  0  0  0  0
 10 12  1  0  0  0  0
 11 14  2  0  0  0  0
 13 15  2  0  0  0  0
 14 15  1  0  0  0  0
M  END
>  <CHROM.1>
109.50974895,-161.19674016,103.07138904,7.14414665,3.05513214,83.33577686
1.14442116,1.33948236,0.27606118

>  <Name>
ligand

>  <RI>
0

>  <Rbt.Current_Directory>
/home/itssahil/PROJECTS/Mol_Feturizer/Test_systems_manuscript/rnas/5kpy

>  <Rbt.Executable>
rbdock ($Id: //depot/dev/client3/rdock/2013.1/src/exe/rbdock.cxx#4 $)

>  <Rbt.Library>
libRbt.so (2013.1, Build901 2013/11/27)

>  <Rbt.Parameter_File>
/export/apps/rDock/src/rDock_2013.1_src/data/scripts/dock_solv.prm

>  <Rbt.Receptor>
prm/pocket_docking_3.prm

>  <SCORE>
-20.9574

>  <SCORE.INTER>
-20.3243

>  <SCORE.INTER.CONST>
1

>  <SCORE.INTER.POLAR>
0

>  <SCORE.INTER.ROT>
3

>  <SCORE.INTER.SOLV>
5.26572

>  <SCORE.INTER.VDW>
-20.9048

>  <SCORE.INTER.norm>
-1.27027

>  <SCORE.INTRA>
-0.633119

>  <SCORE.INTRA.DIHEDRAL>
1.18677

>  <SCORE.INTRA.DIHEDRAL.0>
3.89056

>  <SCORE.INTRA.POLAR>
0

>  <SCORE.INTRA.POLAR.0>
0

>  <SCORE.INTRA.REPUL>
0

>  <SCORE.INTRA.REPUL.0>
0

>  <SCORE.INTRA.SOLV>
-1.17007

>  <SCORE.INTRA.SOLV.lig_0>
-20.733

>  <SCORE.INTRA.VDW>
-0.641472

>  <SCORE.INTRA.VDW.0>
-0.828515

>  <SCORE.INTRA.norm>
-0.0395699

>  <SCORE.RESTR>
0

>  <SCORE.RESTR.CAVITY>
0

>  <SCORE.RESTR.norm>
0

>  <SCORE.SYSTEM>
0

>  <SCORE.SYSTEM.CONST>
0

>  <SCORE.SYSTEM.DIHEDRAL>
0

>  <SCORE.SYSTEM.SOLV>
0

>  <SCORE.SYSTEM.norm>
0

>  <SCORE.heavy>
16

>  <SCORE.norm>
-1.30984

>  <RMSD>
2.447

$$$$
ligand
 OpenBabel02271912153D
libRbt.so/2013.1/901 2013/11/27
 16 17  0  0  0  0  0  0  0  0999 V2000
    7.3010    6.9975   83.0490 N   0  0  0  0  0  0  0  0  0  0  0  0
    7.5085    5.6152   83.3195 C   0  0  2  0  0  0  0  0  0  0  0  0
    7.9261    4.8590   82.0892 C   0  0  0  0  0  0  0  0  0  0  0  0
    7.0952    4.6815   81.1654 O   0  0  0  0  0  0  0  0  0  0  0  0
    7.2046    0.2991   80.9806 O   0  0  0  0  0  0  0  0  0  0  0  0
    6.2572    4.9864   83.8841 C   0  0  0  0  0  0  0  0  0  0  0  0
    6.5218    3.6956   84.6221 C   0  0  0  0  0  0  0  0  0  0  0  0
    6.5375    3.5495   85.9511 C   0  0  0  0  0  0  0  0  0  0  0  0
    6.7567    2.4741   83.9109 C   0  0  0  0  0  0  0  0  0  0  0  0
    6.9296    1.5041   84.9358 C   0  0  0  0  0  0  0  0  0  0  0  0
    6.8311    2.0963   82.5985 C   0  0  0  0  0  0  0  0  0  0  0  0
    6.7830    2.2359   86.1341 N   0  0  0  0  0  0  0  0  0  0  0  0
    7.1767    0.2088   84.6867 C   0  0  0  0  0  0  0  0  0  0  0  0
    7.1060    0.7241   82.3120 C   0  0  0  0  0  0  0  0  0  0  0  0
    7.2879   -0.2387   83.3669 C   0  0  0  0  0  0  0  0  0  0  0  0
    9.0848    4.4010   82.0015 O   0  0  0  0  0  0  0  0  0  0  0  0
  2  1  1  6  0  0  0
  2  3  1  0  0  0  0
  2  6  1  0  0  0  0
  3  4  1  0  0  0  0
  3 16  1  0  0  0  0
  5 14  1  0  0  0  0
  6  7  1  0  0  0  0
  7  8  2  0  0  0  0
  7  9  1  0  0  0  0
  8 12  1  0  0  0  0
  9 10  2  0  0  0  0
  9 11  1  0  0  0  0
 10 13  1  0  0  0  0
 10 12  1  0  0  0  0
 11 14  2  0  0  0  0
 13 15  2  0  0  0  0
 14 15  1  0  0  0  0
M  END
>  <CHROM.1>
-69.61130467,-160.18546683,103.82268511,7.17244124,3.07431292,83.34698588
1.23337788,1.33224548,0.17618728

>  <Name>
ligand

>  <RI>
0

>  <Rbt.Current_Directory>
/home/itssahil/PROJECTS/Mol_Feturizer/Test_systems_manuscript/rnas/5kpy

>  <Rbt.Executable>
rbdock ($Id: //depot/dev/client3/rdock/2013.1/src/exe/rbdock.cxx#4 $)

>  <Rbt.Library>
libRbt.so (2013.1, Build901 2013/11/27)

>  <Rbt.Parameter_File>
/export/apps/rDock/src/rDock_2013.1_src/data/scripts/dock_solv.prm

>  <Rbt.Receptor>
prm/pocket_docking_3.prm

>  <SCORE>
-20.8673

>  <SCORE.INTER>
-20.3165

>  <SCORE.INTER.CONST>
1

>  <SCORE.INTER.POLAR>
0

>  <SCORE.INTER.ROT>
3

>  <SCORE.INTER.SOLV>
5.24005

>  <SCORE.INTER.VDW>
-20.891

>  <SCORE.INTER.norm>
-1.26978

>  <SCORE.INTRA>
-0.55085

>  <SCORE.INTRA.DIHEDRAL>
1.34662

>  <SCORE.INTRA.DIHEDRAL.0>
3.89056

>  <SCORE.INTRA.POLAR>
0

>  <SCORE.INTRA.POLAR.0>
0

>  <SCORE.INTRA.REPUL>
0

>  <SCORE.INTRA.REPUL.0>
0

>  <SCORE.INTRA.SOLV>
-1.17318

>  <SCORE.INTRA.SOLV.lig_0>
-20.733

>  <SCORE.INTRA.VDW>
-0.637571

>  <SCORE.INTRA.VDW.0>
-0.828515

>  <SCORE.INTRA.norm>
-0.0344281

>  <SCORE.RESTR>
0

>  <SCORE.RESTR.CAVITY>
0

>  <SCORE.RESTR.norm>
0

>  <SCORE.SYSTEM>
0

>  <SCORE.SYSTEM.CONST>
0

>  <SCORE.SYSTEM.DIHEDRAL>
0

>  <SCORE.SYSTEM.SOLV>
0

>  <SCORE.SYSTEM.norm>
0

>  <SCORE.heavy>
16

>  <SCORE.norm>
-1.30421

>  <RMSD>
2.448

$$$$
ligand
 OpenBabel02271912153D
libRbt.so/2013.1/901 2013/11/27
 16 17  0  0  0  0  0  0  0  0999 V2000
    7.2954    7.0044   83.0542 N   0  0  0  0  0  0  0  0  0  0  0  0
    7.5006    5.6170   83.2993 C   0  0  2  0  0  0  0  0  0  0  0  0
    7.9186    4.8832   82.0557 C   0  0  0  0  0  0  0  0  0  0  0  0
    7.0921    4.7344   81.1229 O   0  0  0  0  0  0  0  0  0  0  0  0
    7.1272    0.3054   80.9050 O   0  0  0  0  0  0  0  0  0  0  0  0
    6.2479    4.9797   83.8508 C   0  0  0  0  0  0  0  0  0  0  0  0
    6.5116    3.6820   84.5769 C   0  0  0  0  0  0  0  0  0  0  0  0
    6.5417    3.5268   85.9047 C   0  0  0  0  0  0  0  0  0  0  0  0
    6.7293    2.4637   83.8549 C   0  0  0  0  0  0  0  0  0  0  0  0
    6.9070    1.4854   84.8711 C   0  0  0  0  0  0  0  0  0  0  0  0
    6.7857    2.0943   82.5392 C   0  0  0  0  0  0  0  0  0  0  0  0
    6.7797    2.2102   86.0759 N   0  0  0  0  0  0  0  0  0  0  0  0
    7.1418    0.1901   84.6105 C   0  0  0  0  0  0  0  0  0  0  0  0
    7.0473    0.7221   82.2403 C   0  0  0  0  0  0  0  0  0  0  0  0
    7.2343   -0.2492   83.2865 C   0  0  0  0  0  0  0  0  0  0  0  0
    9.0731    4.4149   81.9656 O   0  0  0  0  0  0  0  0  0  0  0  0
  2  1  1  6  0  0  0
  2  3  1  0  0  0  0
  2  6  1  0  0  0  0
  3  4  1  0  0  0  0
  3 16  1  0  0  0  0
  5 14  1  0  0  0  0
  6  7  1  0  0  0  0
  7  8  2  0  0  0  0
  7  9  1  0  0  0  0
  8 12  1  0  0  0  0
  9 10  2  0  0  0  0
  9 11  1  0  0  0  0
 10 13  1  0  0  0  0
 10 12  1  0  0  0  0
 11 14  2  0  0  0  0
 13 15  2  0  0  0  0
 14 15  1  0  0  0  0
M  END
>  <CHROM.1>
-68.97741066,-159.61287275,102.68933258,7.14919587,3.07403152,83.29798487
1.18618410,1.33830249,0.23372313

>  <Name>
ligand

>  <RI>
0

>  <Rbt.Current_Directory>
/home/itssahil/PROJECTS/Mol_Feturizer/Test_systems_manuscript/rnas/5kpy

>  <Rbt.Executable>
rbdock ($Id: //depot/dev/client3/rdock/2013.1/src/exe/rbdock.cxx#4 $)

>  <Rbt.Library>
libRbt.so (2013.1, Build901 2013/11/27)

>  <Rbt.Parameter_File>
/export/apps/rDock/src/rDock_2013.1_src/data/scripts/dock_solv.prm

>  <Rbt.Receptor>
prm/pocket_docking_4.prm

>  <SCORE>
-20.9539

>  <SCORE.INTER>
-20.3933

>  <SCORE.INTER.CONST>
1

>  <SCORE.INTER.POLAR>
0

>  <SCORE.INTER.ROT>
3

>  <SCORE.INTER.SOLV>
5.27407

>  <SCORE.INTER.VDW>
-20.9536

>  <SCORE.INTER.norm>
-1.27458

>  <SCORE.INTRA>
-0.560561

>  <SCORE.INTRA.DIHEDRAL>
1.42385

>  <SCORE.INTRA.DIHEDRAL.0>
3.89056

>  <SCORE.INTRA.POLAR>
0

>  <SCORE.INTRA.POLAR.0>
0

>  <SCORE.INTRA.REPUL>
0

>  <SCORE.INTRA.REPUL.0>
0

>  <SCORE.INTRA.SOLV>
-1.17232

>  <SCORE.INTRA.SOLV.lig_0>
-20.733

>  <SCORE.INTRA.VDW>
-0.686325

>  <SCORE.INTRA.VDW.0>
-0.828515

>  <SCORE.INTRA.norm>
-0.0350351

>  <SCORE.RESTR>
0

>  <SCORE.RESTR.CAVITY>
0

>  <SCORE.RESTR.norm>
0

>  <SCORE.SYSTEM>
0

>  <SCORE.SYSTEM.CONST>
0

>  <SCORE.SYSTEM.DIHEDRAL>
0

>  <SCORE.SYSTEM.SOLV>
0

>  <SCORE.SYSTEM.norm>
0

>  <SCORE.heavy>
16

>  <SCORE.norm>
-1.30962

>  <RMSD>
2.450

$$$$
ligand
 OpenBabel02271912153D
libRbt.so/2013.1/901 2013/11/27
 16 17  0  0  0  0  0  0  0  0999 V2000
    7.3752    7.0359   83.0158 N   0  0  0  0  0  0  0  0  0  0  0  0
    7.5416    5.6409   83.2465 C   0  0  2  0  0  0  0  0  0  0  0  0
    7.8886    4.9008   81.9849 C   0  0  0  0  0  0  0  0  0  0  0  0
    9.0279    4.3874   81.8672 O   0  0  0  0  0  0  0  0  0  0  0  0
    7.1834    0.3836   80.8760 O   0  0  0  0  0  0  0  0  0  0  0  0
    6.2888    5.0431   83.8405 C   0  0  0  0  0  0  0  0  0  0  0  0
    6.5364    3.7394   84.5614 C   0  0  0  0  0  0  0  0  0  0  0  0
    6.5483    3.5755   85.8884 C   0  0  0  0  0  0  0  0  0  0  0  0
    6.7575    2.5248   83.8344 C   0  0  0  0  0  0  0  0  0  0  0  0
    6.9169    1.5391   84.8465 C   0  0  0  0  0  0  0  0  0  0  0  0
    6.8293    2.1636   82.5172 C   0  0  0  0  0  0  0  0  0  0  0  0
    6.7774    2.2567   86.0542 N   0  0  0  0  0  0  0  0  0  0  0  0
    7.1486    0.2443   84.5805 C   0  0  0  0  0  0  0  0  0  0  0  0
    7.0879    0.7921   82.2127 C   0  0  0  0  0  0  0  0  0  0  0  0
    7.2564   -0.1869   83.2549 C   0  0  0  0  0  0  0  0  0  0  0  0
    7.0523    4.8158   81.0610 O   0  0  0  0  0  0  0  0  0  0  0  0
  2  1  1  6  0  0  0
  2  3  1  0  0  0  0
  2  6  1  0  0  0  0
  3  4  1  0  0  0  0
  3 16  1  0  0  0  0
  5 14  1  0  0  0  0
  6  7  1  0  0  0  0
  7  8  2  0  0  0  0
  7  9  1  0  0  0  0
  8 12  1  0  0  0  0
  9 10  2  0  0  0  0
  9 11  1  0  0  0  0
 10 13  1  0  0  0  0
 10 12  1  0  0  0  0
 11 14  2  0  0  0  0
 13 15  2  0  0  0  0
 14 15  1  0  0  0  0
M  END
>  <CHROM.1>
112.45243553,-159.06422409,105.73444280,7.16608034,3.12301933,83.26098879
1.19319385,1.34078715,0.21174122

>  <Name>
ligand

>  <RI>
0

>  <Rbt.Current_Directory>
/home/itssahil/PROJECTS/Mol_Feturizer/Test_systems_manuscript/rnas/5kpy

>  <Rbt.Executable>
rbdock ($Id: //depot/dev/client3/rdock/2013.1/src/exe/rbdock.cxx#4 $)

>  <Rbt.Library>
libRbt.so (2013.1, Build901 2013/11/27)

>  <Rbt.Parameter_File>
/export/apps/rDock/src/rDock_2013.1_src/data/scripts/dock_solv.prm

>  <Rbt.Receptor>
prm/pocket_docking_4.prm

>  <SCORE>
-20.9288

>  <SCORE.INTER>
-20.3603

>  <SCORE.INTER.CONST>
1

>  <SCORE.INTER.POLAR>
0

>  <SCORE.INTER.ROT>
3

>  <SCORE.INTER.SOLV>
5.23942

>  <SCORE.INTER.VDW>
-20.92

>  <SCORE.INTER.norm>
-1.27252

>  <SCORE.INTRA>
-0.568493

>  <SCORE.INTRA.DIHEDRAL>
1.46086

>  <SCORE.INTRA.DIHEDRAL.0>
3.89056

>  <SCORE.INTRA.POLAR>
0

>  <SCORE.INTRA.POLAR.0>
0

>  <SCORE.INTRA.REPUL>
0

>  <SCORE.INTRA.REPUL.0>
0

>  <SCORE.INTRA.SOLV>
-1.16424

>  <SCORE.INTRA.SOLV.lig_0>
-20.733

>  <SCORE.INTRA.VDW>
-0.716801

>  <SCORE.INTRA.VDW.0>
-0.828515

>  <SCORE.INTRA.norm>
-0.0355308

>  <SCORE.RESTR>
0

>  <SCORE.RESTR.CAVITY>
0

>  <SCORE.RESTR.norm>
0

>  <SCORE.SYSTEM>
0

>  <SCORE.SYSTEM.CONST>
0

>  <SCORE.SYSTEM.DIHEDRAL>
0

>  <SCORE.SYSTEM.SOLV>
0

>  <SCORE.SYSTEM.norm>
0

>  <SCORE.heavy>
16

>  <SCORE.norm>
-1.30805

>  <RMSD>
2.458

$$$$
ligand
 OpenBabel02271912153D
libRbt.so/2013.1/901 2013/11/27
 16 17  0  0  0  0  0  0  0  0999 V2000
    7.3089    6.9689   83.0011 N   0  0  0  0  0  0  0  0  0  0  0  0
    7.4995    5.5829   83.2646 C   0  0  2  0  0  0  0  0  0  0  0  0
    7.8630    4.8200   82.0213 C   0  0  0  0  0  0  0  0  0  0  0  0
    9.0338    4.3887   81.8853 O   0  0  0  0  0  0  0  0  0  0  0  0
    7.1239    0.3073   80.9130 O   0  0  0  0  0  0  0  0  0  0  0  0
    6.2558    4.9769   83.8694 C   0  0  0  0  0  0  0  0  0  0  0  0
    6.5191    3.6775   84.5925 C   0  0  0  0  0  0  0  0  0  0  0  0
    6.5515    3.5197   85.9199 C   0  0  0  0  0  0  0  0  0  0  0  0
    6.7340    2.4603   83.8678 C   0  0  0  0  0  0  0  0  0  0  0  0
    6.9123    1.4799   84.8818 C   0  0  0  0  0  0  0  0  0  0  0  0
    6.7876    2.0934   82.5512 C   0  0  0  0  0  0  0  0  0  0  0  0
    6.7880    2.2025   86.0882 N   0  0  0  0  0  0  0  0  0  0  0  0
    7.1449    0.1848   84.6182 C   0  0  0  0  0  0  0  0  0  0  0  0
    7.0469    0.7215   82.2492 C   0  0  0  0  0  0  0  0  0  0  0  0
    7.2346   -0.2521   83.2932 C   0  0  0  0  0  0  0  0  0  0  0  0
    7.0077    4.6353   81.1300 O   0  0  0  0  0  0  0  0  0  0  0  0
  2  1  1  6  0  0  0
  2  3  1  0  0  0  0
  2  6  1  0  0  0  0
  3  4  1  0  0  0  0
  3 16  1  0  0  0  0
  5 14  1  0  0  0  0
  6  7  1  0  0  0  0
  7  8  2  0  0  0  0
  7  9  1  0  0  0  0
  8 12  1  0  0  0  0
  9 10  2  0  0  0  0
  9 11  1  0  0  0  0
 10 13  1  0  0  0  0
 10 12  1  0  0  0  0
 11 14  2  0  0  0  0
 13 15  2  0  0  0  0
 14 15  1  0  0  0  0
M  END
>  <CHROM.1>
108.49062705,-160.46509299,105.22277510,7.14013451,3.05419533,83.29259810
1.18617186,1.34741180,0.22196464

>  <Name>
ligand

>  <RI>
0

>  <Rbt.Current_Directory>
/home/itssahil/PROJECTS/Mol_Feturizer/Test_systems_manuscript/rnas/5kpy

>  <Rbt.Executable>
rbdock ($Id: //depot/dev/client3/rdock/2013.1/src/exe/rbdock.cxx#4 $)

>  <Rbt.Library>
libRbt.so (2013.1, Build901 2013/11/27)

>  <Rbt.Parameter_File>
/export/apps/rDock/src/rDock_2013.1_src/data/scripts/dock_solv.prm

>  <Rbt.Receptor>
prm/pocket_docking_3.prm

>  <SCORE>
-20.9199

>  <SCORE.INTER>
-20.3971

>  <SCORE.INTER.CONST>
1

>  <SCORE.INTER.POLAR>
0

>  <SCORE.INTER.ROT>
3

>  <SCORE.INTER.SOLV>
5.28872

>  <SCORE.INTER.VDW>
-20.961

>  <SCORE.INTER.norm>
-1.27482

>  <SCORE.INTRA>
-0.522799

>  <SCORE.INTRA.DIHEDRAL>
1.27218

>  <SCORE.INTRA.DIHEDRAL.0>
3.89056

>  <SCORE.INTRA.POLAR>
0

>  <SCORE.INTRA.POLAR.0>
0

>  <SCORE.INTRA.REPUL>
0

>  <SCORE.INTRA.REPUL.0>
0

>  <SCORE.INTRA.SOLV>
-1.1681

>  <SCORE.INTRA.SOLV.lig_0>
-20.733

>  <SCORE.INTRA.VDW>
-0.574834

>  <SCORE.INTRA.VDW.0>
-0.828515

>  <SCORE.INTRA.norm>
-0.0326749

>  <SCORE.RESTR>
0

>  <SCORE.RESTR.CAVITY>
0

>  <SCORE.RESTR.norm>
0

>  <SCORE.SYSTEM>
0

>  <SCORE.SYSTEM.CONST>
0

>  <SCORE.SYSTEM.DIHEDRAL>
0

>  <SCORE.SYSTEM.SOLV>
0

>  <SCORE.SYSTEM.norm>
0

>  <SCORE.heavy>
16

>  <SCORE.norm>
-1.30749

>  <RMSD>
2.470

$$$$
ligand
 OpenBabel02271912153D
libRbt.so/2013.1/901 2013/11/27
 16 17  0  0  0  0  0  0  0  0999 V2000
    7.3933    6.9776   83.0396 N   0  0  0  0  0  0  0  0  0  0  0  0
    7.5595    5.5838   83.2776 C   0  0  2  0  0  0  0  0  0  0  0  0
    7.9491    4.8436   82.0285 C   0  0  0  0  0  0  0  0  0  0  0  0
    9.1130    4.3859   81.9232 O   0  0  0  0  0  0  0  0  0  0  0  0
    7.1385    0.2713   80.9343 O   0  0  0  0  0  0  0  0  0  0  0  0
    6.2918    4.9806   83.8334 C   0  0  0  0  0  0  0  0  0  0  0  0
    6.5249    3.6844   84.5725 C   0  0  0  0  0  0  0  0  0  0  0  0
    6.5340    3.5386   85.9017 C   0  0  0  0  0  0  0  0  0  0  0  0
    6.7335    2.4575   83.8625 C   0  0  0  0  0  0  0  0  0  0  0  0
    6.8815    1.4842   84.8882 C   0  0  0  0  0  0  0  0  0  0  0  0
    6.8024    2.0774   82.5504 C   0  0  0  0  0  0  0  0  0  0  0  0
    6.7488    2.2198   86.0858 N   0  0  0  0  0  0  0  0  0  0  0  0
    7.0995    0.1835   84.6403 C   0  0  0  0  0  0  0  0  0  0  0  0
    7.0465    0.6991   82.2652 C   0  0  0  0  0  0  0  0  0  0  0  0
    7.2036   -0.2671   83.3209 C   0  0  0  0  0  0  0  0  0  0  0  0
    7.1226    4.7038   81.1024 O   0  0  0  0  0  0  0  0  0  0  0  0
  2  1  1  6  0  0  0
  2  3  1  0  0  0  0
  2  6  1  0  0  0  0
  3  4  1  0  0  0  0
  3 16  1  0  0  0  0
  5 14  1  0  0  0  0
  6  7  1  0  0  0  0
  7  8  2  0  0  0  0
  7  9  1  0  0  0  0
  8 12  1  0  0  0  0
  9 10  2  0  0  0  0
  9 11  1  0  0  0  0
 10 13  1  0  0  0  0
 10 12  1  0  0  0  0
 11 14  2  0  0  0  0
 13 15  2  0  0  0  0
 14 15  1  0  0  0  0
M  END
>  <CHROM.1>
109.38504348,-158.64038908,103.53227782,7.16396694,3.05827523,83.29779211
1.13239806,1.32495390,0.26989566

>  <Name>
ligand

>  <RI>
0

>  <Rbt.Current_Directory>
/home/itssahil/PROJECTS/Mol_Feturizer/Test_systems_manuscript/rnas/5kpy

>  <Rbt.Executable>
rbdock ($Id: //depot/dev/client3/rdock/2013.1/src/exe/rbdock.cxx#4 $)

>  <Rbt.Library>
libRbt.so (2013.1, Build901 2013/11/27)

>  <Rbt.Parameter_File>
/export/apps/rDock/src/rDock_2013.1_src/data/scripts/dock_solv.prm

>  <Rbt.Receptor>
prm/pocket_docking_6.prm

>  <SCORE>
-20.9976

>  <SCORE.INTER>
-20.496

>  <SCORE.INTER.CONST>
1

>  <SCORE.INTER.POLAR>
0

>  <SCORE.INTER.ROT>
3

>  <SCORE.INTER.SOLV>
5.26249

>  <SCORE.INTER.VDW>
-21.0181

>  <SCORE.INTER.norm>
-1.281

>  <SCORE.INTRA>
-0.501603

>  <SCORE.INTRA.DIHEDRAL>
1.52009

>  <SCORE.INTRA.DIHEDRAL.0>
3.89056

>  <SCORE.INTRA.POLAR>
0

>  <SCORE.INTRA.POLAR.0>
0

>  <SCORE.INTRA.REPUL>
0

>  <SCORE.INTRA.REPUL.0>
0

>  <SCORE.INTRA.SOLV>
-1.16516

>  <SCORE.INTRA.SOLV.lig_0>
-20.733

>  <SCORE.INTRA.VDW>
-0.679068

>  <SCORE.INTRA.VDW.0>
-0.828515

>  <SCORE.INTRA.norm>
-0.0313502

>  <SCORE.RESTR>
0

>  <SCORE.RESTR.CAVITY>
0

>  <SCORE.RESTR.norm>
0

>  <SCORE.SYSTEM>
0

>  <SCORE.SYSTEM.CONST>
0

>  <SCORE.SYSTEM.DIHEDRAL>
0

>  <SCORE.SYSTEM.SOLV>
0

>  <SCORE.SYSTEM.norm>
0

>  <SCORE.heavy>
16

>  <SCORE.norm>
-1.31235

>  <RMSD>
2.470

$$$$
ligand
 OpenBabel02271912153D
libRbt.so/2013.1/901 2013/11/27
 16 17  0  0  0  0  0  0  0  0999 V2000
    7.3810    6.9522   82.9934 N   0  0  0  0  0  0  0  0  0  0  0  0
    7.5462    5.5606   83.2446 C   0  0  2  0  0  0  0  0  0  0  0  0
    7.8999    4.8029   81.9954 C   0  0  0  0  0  0  0  0  0  0  0  0
    7.0226    4.6244   81.1158 O   0  0  0  0  0  0  0  0  0  0  0  0
    7.1588    0.2856   80.9094 O   0  0  0  0  0  0  0  0  0  0  0  0
    6.2901    4.9713   83.8402 C   0  0  0  0  0  0  0  0  0  0  0  0
    6.5319    3.6717   84.5706 C   0  0  0  0  0  0  0  0  0  0  0  0
    6.5443    3.5175   85.8988 C   0  0  0  0  0  0  0  0  0  0  0  0
    6.7463    2.4506   83.8524 C   0  0  0  0  0  0  0  0  0  0  0  0
    6.9018    1.4716   84.8715 C   0  0  0  0  0  0  0  0  0  0  0  0
    6.8151    2.0794   82.5377 C   0  0  0  0  0  0  0  0  0  0  0  0
    6.7670    2.1988   86.0740 N   0  0  0  0  0  0  0  0  0  0  0  0
    7.1268    0.1738   84.6149 C   0  0  0  0  0  0  0  0  0  0  0  0
    7.0666    0.7044   82.2432 C   0  0  0  0  0  0  0  0  0  0  0  0
    7.2312   -0.2677   83.2924 C   0  0  0  0  0  0  0  0  0  0  0  0
    9.0525    4.3446   81.8487 O   0  0  0  0  0  0  0  0  0  0  0  0
  2  1  1  6  0  0  0
  2  3  1  0  0  0  0
  2  6  1  0  0  0  0
  3  4  1  0  0  0  0
  3 16  1  0  0  0  0
  5 14  1  0  0  0  0
  6  7  1  0  0  0  0
  7  8  2  0  0  0  0
  7  9  1  0  0  0  0
  8 12  1  0  0  0  0
  9 10  2  0  0  0  0
  9 11  1  0  0  0  0
 10 13  1  0  0  0  0
 10 12  1  0  0  0  0
 11 14  2  0  0  0  0
 13 15  2  0  0  0  0
 14 15  1  0  0  0  0
M  END
>  <CHROM.1>
-72.10441887,-159.56240131,105.54622197,7.15784728,3.03957020,83.27713732
1.16831047,1.33689490,0.23455764

>  <Name>
ligand

>  <RI>
0

>  <Rbt.Current_Directory>
/home/itssahil/PROJECTS/Mol_Feturizer/Test_systems_manuscript/rnas/5kpy

>  <Rbt.Executable>
rbdock ($Id: //depot/dev/client3/rdock/2013.1/src/exe/rbdock.cxx#4 $)

>  <Rbt.Library>
libRbt.so (2013.1, Build901 2013/11/27)

>  <Rbt.Parameter_File>
/export/apps/rDock/src/rDock_2013.1_src/data/scripts/dock_solv.prm

>  <Rbt.Receptor>
prm/pocket_docking_3.prm

>  <SCORE>
-20.902

>  <SCORE.INTER>
-20.5141

>  <SCORE.INTER.CONST>
1

>  <SCORE.INTER.POLAR>
0

>  <SCORE.INTER.ROT>
3

>  <SCORE.INTER.SOLV>
5.25831

>  <SCORE.INTER.VDW>
-21.0289

>  <SCORE.INTER.norm>
-1.28213

>  <SCORE.INTRA>
-0.387814

>  <SCORE.INTRA.DIHEDRAL>
1.42677

>  <SCORE.INTRA.DIHEDRAL.0>
3.89056

>  <SCORE.INTRA.POLAR>
0

>  <SCORE.INTRA.POLAR.0>
0

>  <SCORE.INTRA.REPUL>
0

>  <SCORE.INTRA.REPUL.0>
0

>  <SCORE.INTRA.SOLV>
-1.17229

>  <SCORE.INTRA.SOLV.lig_0>
-20.733

>  <SCORE.INTRA.VDW>
-0.515052

>  <SCORE.INTRA.VDW.0>
-0.828515

>  <SCORE.INTRA.norm>
-0.0242384

>  <SCORE.RESTR>
0

>  <SCORE.RESTR.CAVITY>
0

>  <SCORE.RESTR.norm>
0

>  <SCORE.SYSTEM>
0

>  <SCORE.SYSTEM.CONST>
0

>  <SCORE.SYSTEM.DIHEDRAL>
0

>  <SCORE.SYSTEM.SOLV>
0

>  <SCORE.SYSTEM.norm>
0

>  <SCORE.heavy>
16

>  <SCORE.norm>
-1.30637

>  <RMSD>
2.481

$$$$
ligand
 OpenBabel02271912153D
libRbt.so/2013.1/901 2013/11/27
 16 17  0  0  0  0  0  0  0  0999 V2000
    7.3218    6.9716   83.0104 N   0  0  0  0  0  0  0  0  0  0  0  0
    7.4799    5.5749   83.2367 C   0  0  2  0  0  0  0  0  0  0  0  0
    7.7488    4.8266   81.9610 C   0  0  0  0  0  0  0  0  0  0  0  0
    6.8564    4.7732   81.0800 O   0  0  0  0  0  0  0  0  0  0  0  0
    7.1227    0.3467   80.9126 O   0  0  0  0  0  0  0  0  0  0  0  0
    6.2517    4.9972   83.8981 C   0  0  0  0  0  0  0  0  0  0  0  0
    6.5192    3.6940   84.6130 C   0  0  0  0  0  0  0  0  0  0  0  0
    6.5547    3.5285   85.9394 C   0  0  0  0  0  0  0  0  0  0  0  0
    6.7349    2.4816   83.8807 C   0  0  0  0  0  0  0  0  0  0  0  0
    6.9173    1.4956   84.8886 C   0  0  0  0  0  0  0  0  0  0  0  0
    6.7863    2.1225   82.5619 C   0  0  0  0  0  0  0  0  0  0  0  0
    6.7942    2.2108   86.0995 N   0  0  0  0  0  0  0  0  0  0  0  0
    7.1519    0.2025   84.6169 C   0  0  0  0  0  0  0  0  0  0  0  0
    7.0477    0.7529   82.2513 C   0  0  0  0  0  0  0  0  0  0  0  0
    7.2396   -0.2264   83.2891 C   0  0  0  0  0  0  0  0  0  0  0  0
    8.8454    4.2525   81.7934 O   0  0  0  0  0  0  0  0  0  0  0  0
  2  1  1  6  0  0  0
  2  3  1  0  0  0  0
  2  6  1  0  0  0  0
  3  4  1  0  0  0  0
  3 16  1  0  0  0  0
  5 14  1  0  0  0  0
  6  7  1  0  0  0  0
  7  8  2  0  0  0  0
  7  9  1  0  0  0  0
  8 12  1  0  0  0  0
  9 10  2  0  0  0  0
  9 11  1  0  0  0  0
 10 13  1  0  0  0  0
 10 12  1  0  0  0  0
 11 14  2  0  0  0  0
 13 15  2  0  0  0  0
 14 15  1  0  0  0  0
M  END
>  <CHROM.1>
-65.79346913,-158.88392594,108.03763365,7.10877903,3.06875673,83.28375523
1.23316907,1.37394302,0.16139032

>  <Name>
ligand

>  <RI>
0

>  <Rbt.Current_Directory>
/home/itssahil/PROJECTS/Mol_Feturizer/Test_systems_manuscript/rnas/5kpy

>  <Rbt.Executable>
rbdock ($Id: //depot/dev/client3/rdock/2013.1/src/exe/rbdock.cxx#4 $)

>  <Rbt.Library>
libRbt.so (2013.1, Build901 2013/11/27)

>  <Rbt.Parameter_File>
/export/apps/rDock/src/rDock_2013.1_src/data/scripts/dock_solv.prm

>  <Rbt.Receptor>
prm/pocket_docking_4.prm

>  <SCORE>
-20.8939

>  <SCORE.INTER>
-20.4078

>  <SCORE.INTER.CONST>
1

>  <SCORE.INTER.POLAR>
0

>  <SCORE.INTER.ROT>
3

>  <SCORE.INTER.SOLV>
5.24768

>  <SCORE.INTER.VDW>
-20.9544

>  <SCORE.INTER.norm>
-1.27548

>  <SCORE.INTRA>
-0.486501

>  <SCORE.INTRA.DIHEDRAL>
1.49972

>  <SCORE.INTRA.DIHEDRAL.0>
3.89056

>  <SCORE.INTRA.POLAR>
0

>  <SCORE.INTRA.POLAR.0>
0

>  <SCORE.INTRA.REPUL>
0

>  <SCORE.INTRA.REPUL.0>
0

>  <SCORE.INTRA.SOLV>
-1.16723

>  <SCORE.INTRA.SOLV.lig_0>
-20.733

>  <SCORE.INTRA.VDW>
-0.652749

>  <SCORE.INTRA.VDW.0>
-0.828515

>  <SCORE.INTRA.norm>
-0.0304063

>  <SCORE.RESTR>
0.00033717

>  <SCORE.RESTR.CAVITY>
0.00033717

>  <SCORE.RESTR.norm>
2.10731e-05

>  <SCORE.SYSTEM>
0

>  <SCORE.SYSTEM.CONST>
0

>  <SCORE.SYSTEM.DIHEDRAL>
0

>  <SCORE.SYSTEM.SOLV>
0

>  <SCORE.SYSTEM.norm>
0

>  <SCORE.heavy>
16

>  <SCORE.norm>
-1.30587

>  <RMSD>
2.483

$$$$
ligand
 OpenBabel02271912153D
libRbt.so/2013.1/901 2013/11/27
 16 17  0  0  0  0  0  0  0  0999 V2000
    7.2856    6.9603   82.9800 N   0  0  0  0  0  0  0  0  0  0  0  0
    7.4638    5.5693   83.2257 C   0  0  2  0  0  0  0  0  0  0  0  0
    7.7740    4.8118   81.9649 C   0  0  0  0  0  0  0  0  0  0  0  0
    6.9401    4.8123   81.0268 O   0  0  0  0  0  0  0  0  0  0  0  0
    7.1406    0.3296   80.8874 O   0  0  0  0  0  0  0  0  0  0  0  0
    6.2320    4.9767   83.8670 C   0  0  0  0  0  0  0  0  0  0  0  0
    6.5028    3.6752   84.5836 C   0  0  0  0  0  0  0  0  0  0  0  0
    6.5330    3.5104   85.9102 C   0  0  0  0  0  0  0  0  0  0  0  0
    6.7281    2.4636   83.8528 C   0  0  0  0  0  0  0  0  0  0  0  0
    6.9109    1.4790   84.8619 C   0  0  0  0  0  0  0  0  0  0  0  0
    6.7875    2.1043   82.5344 C   0  0  0  0  0  0  0  0  0  0  0  0
    6.7785    2.1940   86.0719 N   0  0  0  0  0  0  0  0  0  0  0  0
    7.1534    0.1870   84.5919 C   0  0  0  0  0  0  0  0  0  0  0  0
    7.0573    0.7359   82.2256 C   0  0  0  0  0  0  0  0  0  0  0  0
    7.2494   -0.2419   83.2647 C   0  0  0  0  0  0  0  0  0  0  0  0
    8.8454    4.1774   81.8655 O   0  0  0  0  0  0  0  0  0  0  0  0
  2  1  1  6  0  0  0
  2  3  1  0  0  0  0
  2  6  1  0  0  0  0
  3  4  1  0  0  0  0
  3 16  1  0  0  0  0
  5 14  1  0  0  0  0
  6  7  1  0  0  0  0
  7  8  2  0  0  0  0
  7  9  1  0  0  0  0
  8 12  1  0  0  0  0
  9 10  2  0  0  0  0
  9 11  1  0  0  0  0
 10 13  1  0  0  0  0
 10 12  1  0  0  0  0
 11 14  2  0  0  0  0
 13 15  2  0  0  0  0
 14 15  1  0  0  0  0
M  END
>  <CHROM.1>
-60.74079949,-159.81159523,107.31443103,7.11050962,3.05247747,83.26463042
1.26415356,1.36683432,0.13508610

>  <Name>
ligand

>  <RI>
0

>  <Rbt.Current_Directory>
/home/itssahil/PROJECTS/Mol_Feturizer/Test_systems_manuscript/rnas/5kpy

>  <Rbt.Executable>
rbdock ($Id: //depot/dev/client3/rdock/2013.1/src/exe/rbdock.cxx#4 $)

>  <Rbt.Library>
libRbt.so (2013.1, Build901 2013/11/27)

>  <Rbt.Parameter_File>
/export/apps/rDock/src/rDock_2013.1_src/data/scripts/dock_solv.prm

>  <Rbt.Receptor>
prm/pocket_docking_6.prm

>  <SCORE>
-20.976

>  <SCORE.INTER>
-20.3458

>  <SCORE.INTER.CONST>
1

>  <SCORE.INTER.POLAR>
0

>  <SCORE.INTER.ROT>
3

>  <SCORE.INTER.SOLV>
5.32616

>  <SCORE.INTER.VDW>
-20.9392

>  <SCORE.INTER.norm>
-1.27161

>  <SCORE.INTRA>
-0.630167

>  <SCORE.INTRA.DIHEDRAL>
1.37019

>  <SCORE.INTRA.DIHEDRAL.0>
3.89056

>  <SCORE.INTRA.POLAR>
0

>  <SCORE.INTRA.POLAR.0>
0

>  <SCORE.INTRA.REPUL>
0

>  <SCORE.INTRA.REPUL.0>
0

>  <SCORE.INTRA.SOLV>
-1.16676

>  <SCORE.INTRA.SOLV.lig_0>
-20.733

>  <SCORE.INTRA.VDW>
-0.73188

>  <SCORE.INTRA.VDW.0>
-0.828515

>  <SCORE.INTRA.norm>
-0.0393855

>  <SCORE.RESTR>
0

>  <SCORE.RESTR.CAVITY>
0

>  <SCORE.RESTR.norm>
0

>  <SCORE.SYSTEM>
0

>  <SCORE.SYSTEM.CONST>
0

>  <SCORE.SYSTEM.DIHEDRAL>
0

>  <SCORE.SYSTEM.SOLV>
0

>  <SCORE.SYSTEM.norm>
0

>  <SCORE.heavy>
16

>  <SCORE.norm>
-1.311

>  <RMSD>
2.484

$$$$
ligand
 OpenBabel02271912153D
libRbt.so/2013.1/901 2013/11/27
 16 17  0  0  0  0  0  0  0  0999 V2000
    7.4170    7.0006   82.9449 N   0  0  0  0  0  0  0  0  0  0  0  0
    7.5724    5.6091   83.2030 C   0  0  2  0  0  0  0  0  0  0  0  0
    7.9201    4.8426   81.9574 C   0  0  0  0  0  0  0  0  0  0  0  0
    9.0587    4.3254   81.8519 O   0  0  0  0  0  0  0  0  0  0  0  0
    7.1330    0.3208   80.8982 O   0  0  0  0  0  0  0  0  0  0  0  0
    6.3125    5.0318   83.8022 C   0  0  0  0  0  0  0  0  0  0  0  0
    6.5457    3.7348   84.5399 C   0  0  0  0  0  0  0  0  0  0  0  0
    6.5607    3.5888   85.8690 C   0  0  0  0  0  0  0  0  0  0  0  0
    6.7476    2.5075   83.8287 C   0  0  0  0  0  0  0  0  0  0  0  0
    6.8980    1.5336   84.8535 C   0  0  0  0  0  0  0  0  0  0  0  0
    6.8094    2.1275   82.5163 C   0  0  0  0  0  0  0  0  0  0  0  0
    6.7729    2.2694   86.0519 N   0  0  0  0  0  0  0  0  0  0  0  0
    7.1113    0.2324   84.6044 C   0  0  0  0  0  0  0  0  0  0  0  0
    7.0484    0.7486   82.2296 C   0  0  0  0  0  0  0  0  0  0  0  0
    7.2080   -0.2182   83.2844 C   0  0  0  0  0  0  0  0  0  0  0  0
    7.0848    4.7397   81.0344 O   0  0  0  0  0  0  0  0  0  0  0  0
  2  1  1  6  0  0  0
  2  3  1  0  0  0  0
  2  6  1  0  0  0  0
  3  4  1  0  0  0  0
  3 16  1  0  0  0  0
  5 14  1  0  0  0  0
  6  7  1  0  0  0  0
  7  8  2  0  0  0  0
  7  9  1  0  0  0  0
  8 12  1  0  0  0  0
  9 10  2  0  0  0  0
  9 11  1  0  0  0  0
 10 13  1  0  0  0  0
 10 12  1  0  0  0  0
 11 14  2  0  0  0  0
 13 15  2  0  0  0  0
 14 15  1  0  0  0  0
M  END
>  <CHROM.1>
112.05807602,-159.51317723,105.35895654,7.16616000,3.09248784,83.24954178
1.13021815,1.33807907,0.26288269

>  <Name>
ligand

>  <RI>
0

>  <Rbt.Current_Directory>
/home/itssahil/PROJECTS/Mol_Feturizer/Test_systems_manuscript/rnas/5kpy

>  <Rbt.Executable>
rbdock ($Id: //depot/dev/client3/rdock/2013.1/src/exe/rbdock.cxx#4 $)

>  <Rbt.Library>
libRbt.so (2013.1, Build901 2013/11/27)

>  <Rbt.Parameter_File>
/export/apps/rDock/src/rDock_2013.1_src/data/scripts/dock_solv.prm

>  <Rbt.Receptor>
prm/pocket_docking_5.prm

>  <SCORE>
-21.0045

>  <SCORE.INTER>
-20.4137

>  <SCORE.INTER.CONST>
1

>  <SCORE.INTER.POLAR>
0

>  <SCORE.INTER.ROT>
3

>  <SCORE.INTER.SOLV>
5.30443

>  <SCORE.INTER.VDW>
-20.9773

>  <SCORE.INTER.norm>
-1.27585

>  <SCORE.INTRA>
-0.590794

>  <SCORE.INTRA.DIHEDRAL>
1.40148

>  <SCORE.INTRA.DIHEDRAL.0>
3.89056

>  <SCORE.INTRA.POLAR>
0

>  <SCORE.INTRA.POLAR.0>
0

>  <SCORE.INTRA.REPUL>
0

>  <SCORE.INTRA.REPUL.0>
0

>  <SCORE.INTRA.SOLV>
-1.16537

>  <SCORE.INTRA.SOLV.lig_0>
-20.733

>  <SCORE.INTRA.VDW>
-0.70885

>  <SCORE.INTRA.VDW.0>
-0.828515

>  <SCORE.INTRA.norm>
-0.0369246

>  <SCORE.RESTR>
0

>  <SCORE.RESTR.CAVITY>
0

>  <SCORE.RESTR.norm>
0

>  <SCORE.SYSTEM>
0

>  <SCORE.SYSTEM.CONST>
0

>  <SCORE.SYSTEM.DIHEDRAL>
0

>  <SCORE.SYSTEM.SOLV>
0

>  <SCORE.SYSTEM.norm>
0

>  <SCORE.heavy>
16

>  <SCORE.norm>
-1.31278

>  <RMSD>
2.487

$$$$
ligand
 OpenBabel02271912153D
libRbt.so/2013.1/901 2013/11/27
 16 17  0  0  0  0  0  0  0  0999 V2000
    7.3041    6.9677   82.9966 N   0  0  0  0  0  0  0  0  0  0  0  0
    7.4712    5.5710   83.2164 C   0  0  2  0  0  0  0  0  0  0  0  0
    7.7624    4.8328   81.9397 C   0  0  0  0  0  0  0  0  0  0  0  0
    8.8769    4.2746   81.7931 O   0  0  0  0  0  0  0  0  0  0  0  0
    7.1205    0.3235   80.8840 O   0  0  0  0  0  0  0  0  0  0  0  0
    6.2396    4.9790   83.8587 C   0  0  0  0  0  0  0  0  0  0  0  0
    6.5108    3.6783   84.5767 C   0  0  0  0  0  0  0  0  0  0  0  0
    6.5475    3.5161   85.9034 C   0  0  0  0  0  0  0  0  0  0  0  0
    6.7291    2.4646   83.8471 C   0  0  0  0  0  0  0  0  0  0  0  0
    6.9146    1.4815   84.8573 C   0  0  0  0  0  0  0  0  0  0  0  0
    6.7807    2.1025   82.5292 C   0  0  0  0  0  0  0  0  0  0  0  0
    6.7905    2.1994   86.0665 N   0  0  0  0  0  0  0  0  0  0  0  0
    7.1524    0.1884   84.5887 C   0  0  0  0  0  0  0  0  0  0  0  0
    7.0453    0.7328   82.2218 C   0  0  0  0  0  0  0  0  0  0  0  0
    7.2403   -0.2435   83.2619 C   0  0  0  0  0  0  0  0  0  0  0  0
    6.9052    4.7935   81.0320 O   0  0  0  0  0  0  0  0  0  0  0  0
  2  1  1  6  0  0  0
  2  3  1  0  0  0  0
  2  6  1  0  0  0  0
  3  4  1  0  0  0  0
  3 16  1  0  0  0  0
  5 14  1  0  0  0  0
  6  7  1  0  0  0  0
  7  8  2  0  0  0  0
  7  9  1  0  0  0  0
  8 12  1  0  0  0  0
  9 10  2  0  0  0  0
  9 11  1  0  0  0  0
 10 13  1  0  0  0  0
 10 12  1  0  0  0  0
 11 14  2  0  0  0  0
 13 15  2  0  0  0  0
 14 15  1  0  0  0  0
M  END
>  <CHROM.1>
114.82934298,-158.51196115,106.99243133,7.11095053,3.06067967,83.25523742
1.22988833,1.36905181,0.16509645

>  <Name>
ligand

>  <RI>
0

>  <Rbt.Current_Directory>
/home/itssahil/PROJECTS/Mol_Feturizer/Test_systems_manuscript/rnas/5kpy

>  <Rbt.Executable>
rbdock ($Id: //depot/dev/client3/rdock/2013.1/src/exe/rbdock.cxx#4 $)

>  <Rbt.Library>
libRbt.so (2013.1, Build901 2013/11/27)

>  <Rbt.Parameter_File>
/export/apps/rDock/src/rDock_2013.1_src/data/scripts/dock_solv.prm

>  <Rbt.Receptor>
prm/pocket_docking_4.prm

>  <SCORE>
-20.9823

>  <SCORE.INTER>
-20.4324

>  <SCORE.INTER.CONST>
1

>  <SCORE.INTER.POLAR>
0

>  <SCORE.INTER.ROT>
3

>  <SCORE.INTER.SOLV>
5.29588

>  <SCORE.INTER.VDW>
-20.9869

>  <SCORE.INTER.norm>
-1.27702

>  <SCORE.INTRA>
-0.549852

>  <SCORE.INTRA.DIHEDRAL>
1.5353

>  <SCORE.INTRA.DIHEDRAL.0>
3.89056

>  <SCORE.INTRA.POLAR>
0

>  <SCORE.INTRA.POLAR.0>
0

>  <SCORE.INTRA.REPUL>
0

>  <SCORE.INTRA.REPUL.0>
0

>  <SCORE.INTRA.SOLV>
-1.16192

>  <SCORE.INTRA.SOLV.lig_0>
-20.733

>  <SCORE.INTRA.VDW>
-0.73654

>  <SCORE.INTRA.VDW.0>
-0.828515

>  <SCORE.INTRA.norm>
-0.0343657

>  <SCORE.RESTR>
0

>  <SCORE.RESTR.CAVITY>
0

>  <SCORE.RESTR.norm>
0

>  <SCORE.SYSTEM>
0

>  <SCORE.SYSTEM.CONST>
0

>  <SCORE.SYSTEM.DIHEDRAL>
0

>  <SCORE.SYSTEM.SOLV>
0

>  <SCORE.SYSTEM.norm>
0

>  <SCORE.heavy>
16

>  <SCORE.norm>
-1.31139

>  <RMSD>
2.490

$$$$
ligand
 OpenBabel02271912153D
libRbt.so/2013.1/901 2013/11/27
 16 17  0  0  0  0  0  0  0  0999 V2000
    7.3911    6.9658   82.9730 N   0  0  0  0  0  0  0  0  0  0  0  0
    7.5591    5.5744   83.2236 C   0  0  2  0  0  0  0  0  0  0  0  0
    7.9291    4.8203   81.9769 C   0  0  0  0  0  0  0  0  0  0  0  0
    9.0925    4.3649   81.8566 O   0  0  0  0  0  0  0  0  0  0  0  0
    7.1024    0.2642   80.9023 O   0  0  0  0  0  0  0  0  0  0  0  0
    6.2992    4.9791   83.8047 C   0  0  0  0  0  0  0  0  0  0  0  0
    6.5396    3.6836   84.5428 C   0  0  0  0  0  0  0  0  0  0  0  0
    6.5653    3.5399   85.8720 C   0  0  0  0  0  0  0  0  0  0  0  0
    6.7374    2.4554   83.8321 C   0  0  0  0  0  0  0  0  0  0  0  0
    6.8970    1.4834   84.8574 C   0  0  0  0  0  0  0  0  0  0  0  0
    6.7893    2.0733   82.5199 C   0  0  0  0  0  0  0  0  0  0  0  0
    6.7805    2.2210   86.0554 N   0  0  0  0  0  0  0  0  0  0  0  0
    7.1099    0.1820   84.6087 C   0  0  0  0  0  0  0  0  0  0  0  0
    7.0278    0.6942   82.2337 C   0  0  0  0  0  0  0  0  0  0  0  0
    7.1968   -0.2707   83.2888 C   0  0  0  0  0  0  0  0  0  0  0  0
    7.0870    4.6666   81.0674 O   0  0  0  0  0  0  0  0  0  0  0  0
  2  1  1  6  0  0  0
  2  3  1  0  0  0  0
  2  6  1  0  0  0  0
  3  4  1  0  0  0  0
  3 16  1  0  0  0  0
  5 14  1  0  0  0  0
  6  7  1  0  0  0  0
  7  8  2  0  0  0  0
  7  9  1  0  0  0  0
  8 12  1  0  0  0  0
  9 10  2  0  0  0  0
  9 11  1  0  0  0  0
 10 13  1  0  0  0  0
 10 12  1  0  0  0  0
 11 14  2  0  0  0  0
 13 15  2  0  0  0  0
 14 15  1  0  0  0  0
M  END
>  <CHROM.1>
109.07250319,-159.19980625,103.94657847,7.16038376,3.04968968,83.25904626
1.11414646,1.33721492,0.28520258

>  <Name>
ligand

>  <RI>
0

>  <Rbt.Current_Directory>
/home/itssahil/PROJECTS/Mol_Feturizer/Test_systems_manuscript/rnas/5kpy

>  <Rbt.Executable>
rbdock ($Id: //depot/dev/client3/rdock/2013.1/src/exe/rbdock.cxx#4 $)

>  <Rbt.Library>
libRbt.so (2013.1, Build901 2013/11/27)

>  <Rbt.Parameter_File>
/export/apps/rDock/src/rDock_2013.1_src/data/scripts/dock_solv.prm

>  <Rbt.Receptor>
prm/pocket_docking_4.prm

>  <SCORE>
-21.0459

>  <SCORE.INTER>
-20.5301

>  <SCORE.INTER.CONST>
1

>  <SCORE.INTER.POLAR>
0

>  <SCORE.INTER.ROT>
3

>  <SCORE.INTER.SOLV>
5.29098

>  <SCORE.INTER.VDW>
-21.0504

>  <SCORE.INTER.norm>
-1.28313

>  <SCORE.INTRA>
-0.515819

>  <SCORE.INTRA.DIHEDRAL>
1.44302

>  <SCORE.INTRA.DIHEDRAL.0>
3.89056

>  <SCORE.INTRA.POLAR>
0

>  <SCORE.INTRA.POLAR.0>
0

>  <SCORE.INTRA.REPUL>
0

>  <SCORE.INTRA.REPUL.0>
0

>  <SCORE.INTRA.SOLV>
-1.16615

>  <SCORE.INTRA.SOLV.lig_0>
-20.733

>  <SCORE.INTRA.VDW>
-0.654253

>  <SCORE.INTRA.VDW.0>
-0.828515

>  <SCORE.INTRA.norm>
-0.0322387

>  <SCORE.RESTR>
0

>  <SCORE.RESTR.CAVITY>
0

>  <SCORE.RESTR.norm>
0

>  <SCORE.SYSTEM>
0

>  <SCORE.SYSTEM.CONST>
0

>  <SCORE.SYSTEM.DIHEDRAL>
0

>  <SCORE.SYSTEM.SOLV>
0

>  <SCORE.SYSTEM.norm>
0

>  <SCORE.heavy>
16

>  <SCORE.norm>
-1.31537

>  <RMSD>
2.491

$$$$
ligand
 OpenBabel02271912153D
libRbt.so/2013.1/901 2013/11/27
 16 17  0  0  0  0  0  0  0  0999 V2000
    7.3805    6.9545   82.9419 N   0  0  0  0  0  0  0  0  0  0  0  0
    7.5429    5.5673   83.2180 C   0  0  2  0  0  0  0  0  0  0  0  0
    7.9088    4.7887   81.9852 C   0  0  0  0  0  0  0  0  0  0  0  0
    9.0656    4.3137   81.8792 O   0  0  0  0  0  0  0  0  0  0  0  0
    7.1377    0.2669   80.9340 O   0  0  0  0  0  0  0  0  0  0  0  0
    6.2809    4.9880   83.8110 C   0  0  0  0  0  0  0  0  0  0  0  0
    6.5136    3.6952   84.5562 C   0  0  0  0  0  0  0  0  0  0  0  0
    6.5201    3.5552   85.8860 C   0  0  0  0  0  0  0  0  0  0  0  0
    6.7247    2.4654   83.8519 C   0  0  0  0  0  0  0  0  0  0  0  0
    6.8714    1.4967   84.8821 C   0  0  0  0  0  0  0  0  0  0  0  0
    6.7967    2.0798   82.5416 C   0  0  0  0  0  0  0  0  0  0  0  0
    6.7356    2.2374   86.0762 N   0  0  0  0  0  0  0  0  0  0  0  0
    7.0910    0.1951   84.6403 C   0  0  0  0  0  0  0  0  0  0  0  0
    7.0425    0.7005   82.2629 C   0  0  0  0  0  0  0  0  0  0  0  0
    7.1982   -0.2611   83.3231 C   0  0  0  0  0  0  0  0  0  0  0  0
    7.0699    4.6342   81.0728 O   0  0  0  0  0  0  0  0  0  0  0  0
  2  1  1  6  0  0  0
  2  3  1  0  0  0  0
  2  6  1  0  0  0  0
  3  4  1  0  0  0  0
  3 16  1  0  0  0  0
  5 14  1  0  0  0  0
  6  7  1  0  0  0  0
  7  8  2  0  0  0  0
  7  9  1  0  0  0  0
  8 12  1  0  0  0  0
  9 10  2  0  0  0  0
  9 11  1  0  0  0  0
 10 13  1  0  0  0  0
 10 12  1  0  0  0  0
 11 14  2  0  0  0  0
 13 15  2  0  0  0  0
 14 15  1  0  0  0  0
M  END
>  <CHROM.1>
109.85621190,-160.01204009,105.34807912,7.14669479,3.04712024,83.27414721
1.14925582,1.32958924,0.24193868

>  <Name>
ligand

>  <RI>
0

>  <Rbt.Current_Directory>
/home/itssahil/PROJECTS/Mol_Feturizer/Test_systems_manuscript/rnas/5kpy

>  <Rbt.Executable>
rbdock ($Id: //depot/dev/client3/rdock/2013.1/src/exe/rbdock.cxx#4 $)

>  <Rbt.Library>
libRbt.so (2013.1, Build901 2013/11/27)

>  <Rbt.Parameter_File>
/export/apps/rDock/src/rDock_2013.1_src/data/scripts/dock_solv.prm

>  <Rbt.Receptor>
prm/pocket_docking_3.prm

>  <SCORE>
-21.0009

>  <SCORE.INTER>
-20.4598

>  <SCORE.INTER.CONST>
1

>  <SCORE.INTER.POLAR>
0

>  <SCORE.INTER.ROT>
3

>  <SCORE.INTER.SOLV>
5.27179

>  <SCORE.INTER.VDW>
-20.9971

>  <SCORE.INTER.norm>
-1.27874

>  <SCORE.INTRA>
-0.541131

>  <SCORE.INTRA.DIHEDRAL>
1.33251

>  <SCORE.INTRA.DIHEDRAL.0>
3.89056

>  <SCORE.INTRA.POLAR>
0

>  <SCORE.INTRA.POLAR.0>
0

>  <SCORE.INTRA.REPUL>
0

>  <SCORE.INTRA.REPUL.0>
0

>  <SCORE.INTRA.SOLV>
-1.16689

>  <SCORE.INTRA.SOLV.lig_0>
-20.733

>  <SCORE.INTRA.VDW>
-0.623943

>  <SCORE.INTRA.VDW.0>
-0.828515

>  <SCORE.INTRA.norm>
-0.0338207

>  <SCORE.RESTR>
0

>  <SCORE.RESTR.CAVITY>
0

>  <SCORE.RESTR.norm>
0

>  <SCORE.SYSTEM>
0

>  <SCORE.SYSTEM.CONST>
0

>  <SCORE.SYSTEM.DIHEDRAL>
0

>  <SCORE.SYSTEM.SOLV>
0

>  <SCORE.SYSTEM.norm>
0

>  <SCORE.heavy>
16

>  <SCORE.norm>
-1.31256

>  <RMSD>
2.493

$$$$
ligand
 OpenBabel02271912153D
libRbt.so/2013.1/901 2013/11/27
 16 17  0  0  0  0  0  0  0  0999 V2000
    7.3982    6.9453   82.9206 N   0  0  0  0  0  0  0  0  0  0  0  0
    7.5597    5.5583   83.1982 C   0  0  2  0  0  0  0  0  0  0  0  0
    7.9040    4.7748   81.9623 C   0  0  0  0  0  0  0  0  0  0  0  0
    9.0596    4.3016   81.8368 O   0  0  0  0  0  0  0  0  0  0  0  0
    7.1203    0.2904   80.8810 O   0  0  0  0  0  0  0  0  0  0  0  0
    6.3048    4.9854   83.8121 C   0  0  0  0  0  0  0  0  0  0  0  0
    6.5408    3.6847   84.5423 C   0  0  0  0  0  0  0  0  0  0  0  0
    6.5597    3.5317   85.8705 C   0  0  0  0  0  0  0  0  0  0  0  0
    6.7416    2.4613   83.8241 C   0  0  0  0  0  0  0  0  0  0  0  0
    6.8954    1.4821   84.8433 C   0  0  0  0  0  0  0  0  0  0  0  0
    6.7999    2.0883   82.5094 C   0  0  0  0  0  0  0  0  0  0  0  0
    6.7732    2.2115   86.0458 N   0  0  0  0  0  0  0  0  0  0  0  0
    7.1089    0.1824   84.5866 C   0  0  0  0  0  0  0  0  0  0  0  0
    7.0391    0.7111   82.2148 C   0  0  0  0  0  0  0  0  0  0  0  0
    7.2022   -0.2612   83.2641 C   0  0  0  0  0  0  0  0  0  0  0  0
    7.0484    4.6145   81.0666 O   0  0  0  0  0  0  0  0  0  0  0  0
  2  1  1  6  0  0  0
  2  3  1  0  0  0  0
  2  6  1  0  0  0  0
  3  4  1  0  0  0  0
  3 16  1  0  0  0  0
  5 14  1  0  0  0  0
  6  7  1  0  0  0  0
  7  8  2  0  0  0  0
  7  9  1  0  0  0  0
  8 12  1  0  0  0  0
  9 10  2  0  0  0  0
  9 11  1  0  0  0  0
 10 13  1  0  0  0  0
 10 12  1  0  0  0  0
 11 14  2  0  0  0  0
 13 15  2  0  0  0  0
 14 15  1  0  0  0  0
M  END
>  <CHROM.1>
109.45985123,-160.75602212,106.05211175,7.15670148,3.04000660,83.24414507
1.13137540,1.33978767,0.26706685

>  <Name>
ligand

>  <RI>
0

>  <Rbt.Current_Directory>
/home/itssahil/PROJECTS/Mol_Feturizer/Test_systems_manuscript/rnas/5kpy

>  <Rbt.Executable>
rbdock ($Id: //depot/dev/client3/rdock/2013.1/src/exe/rbdock.cxx#4 $)

>  <Rbt.Library>
libRbt.so (2013.1, Build901 2013/11/27)

>  <Rbt.Parameter_File>
/export/apps/rDock/src/rDock_2013.1_src/data/scripts/dock_solv.prm

>  <Rbt.Receptor>
prm/pocket_docking_3.prm

>  <SCORE>
-21.0219

>  <SCORE.INTER>
-20.467

>  <SCORE.INTER.CONST>
1

>  <SCORE.INTER.POLAR>
0

>  <SCORE.INTER.ROT>
3

>  <SCORE.INTER.SOLV>
5.29702

>  <SCORE.INTER.VDW>
-21.0103

>  <SCORE.INTER.norm>
-1.27918

>  <SCORE.INTRA>
-0.554931

>  <SCORE.INTRA.DIHEDRAL>
1.23364

>  <SCORE.INTRA.DIHEDRAL.0>
3.89056

>  <SCORE.INTRA.POLAR>
0

>  <SCORE.INTRA.POLAR.0>
0

>  <SCORE.INTRA.REPUL>
0

>  <SCORE.INTRA.REPUL.0>
0

>  <SCORE.INTRA.SOLV>
-1.16804

>  <SCORE.INTRA.SOLV.lig_0>
-20.733

>  <SCORE.INTRA.VDW>
-0.587731

>  <SCORE.INTRA.VDW.0>
-0.828515

>  <SCORE.INTRA.norm>
-0.0346832

>  <SCORE.RESTR>
0

>  <SCORE.RESTR.CAVITY>
0

>  <SCORE.RESTR.norm>
0

>  <SCORE.SYSTEM>
0

>  <SCORE.SYSTEM.CONST>
0

>  <SCORE.SYSTEM.DIHEDRAL>
0

>  <SCORE.SYSTEM.SOLV>
0

>  <SCORE.SYSTEM.norm>
0

>  <SCORE.heavy>
16

>  <SCORE.norm>
-1.31387

>  <RMSD>
2.496

$$$$
ligand
 OpenBabel02271912153D
libRbt.so/2013.1/901 2013/11/27
 16 17  0  0  0  0  0  0  0  0999 V2000
    7.3764    6.9484   82.9436 N   0  0  0  0  0  0  0  0  0  0  0  0
    7.5352    5.5577   83.2038 C   0  0  2  0  0  0  0  0  0  0  0  0
    7.8530    4.7854   81.9539 C   0  0  0  0  0  0  0  0  0  0  0  0
    8.9938    4.2805   81.8168 O   0  0  0  0  0  0  0  0  0  0  0  0
    7.0945    0.3025   80.8806 O   0  0  0  0  0  0  0  0  0  0  0  0
    6.2883    4.9852   83.8340 C   0  0  0  0  0  0  0  0  0  0  0  0
    6.5328    3.6825   84.5580 C   0  0  0  0  0  0  0  0  0  0  0  0
    6.5616    3.5248   85.8855 C   0  0  0  0  0  0  0  0  0  0  0  0
    6.7315    2.4621   83.8340 C   0  0  0  0  0  0  0  0  0  0  0  0
    6.8951    1.4798   84.8486 C   0  0  0  0  0  0  0  0  0  0  0  0
    6.7813    2.0939   82.5177 C   0  0  0  0  0  0  0  0  0  0  0  0
    6.7796    2.2046   86.0546 N   0  0  0  0  0  0  0  0  0  0  0  0
    7.1100    0.1815   84.5859 C   0  0  0  0  0  0  0  0  0  0  0  0
    7.0218    0.7184   82.2165 C   0  0  0  0  0  0  0  0  0  0  0  0
    7.1949   -0.2572   83.2611 C   0  0  0  0  0  0  0  0  0  0  0  0
    6.9908    4.6657   81.0581 O   0  0  0  0  0  0  0  0  0  0  0  0
  2  1  1  6  0  0  0
  2  3  1  0  0  0  0
  2  6  1  0  0  0  0
  3  4  1  0  0  0  0
  3 16  1  0  0  0  0
  5 14  1  0  0  0  0
  6  7  1  0  0  0  0
  7  8  2  0  0  0  0
  7  9  1  0  0  0  0
  8 12  1  0  0  0  0
  9 10  2  0  0  0  0
  9 11  1  0  0  0  0
 10 13  1  0  0  0  0
 10 12  1  0  0  0  0
 11 14  2  0  0  0  0
 13 15  2  0  0  0  0
 14 15  1  0  0  0  0
M  END
>  <CHROM.1>
111.13214966,-160.18646227,106.51401262,7.13551593,3.04381247,83.24835697
1.13844889,1.35246245,0.25900019

>  <Name>
ligand

>  <RI>
0

>  <Rbt.Current_Directory>
/home/itssahil/PROJECTS/Mol_Feturizer/Test_systems_manuscript/rnas/5kpy

>  <Rbt.Executable>
rbdock ($Id: //depot/dev/client3/rdock/2013.1/src/exe/rbdock.cxx#4 $)

>  <Rbt.Library>
libRbt.so (2013.1, Build901 2013/11/27)

>  <Rbt.Parameter_File>
/export/apps/rDock/src/rDock_2013.1_src/data/scripts/dock_solv.prm

>  <Rbt.Receptor>
prm/pocket_docking_5.prm

>  <SCORE>
-21.01

>  <SCORE.INTER>
-20.4437

>  <SCORE.INTER.CONST>
1

>  <SCORE.INTER.POLAR>
0

>  <SCORE.INTER.ROT>
3

>  <SCORE.INTER.SOLV>
5.28398

>  <SCORE.INTER.VDW>
-20.9905

>  <SCORE.INTER.norm>
-1.27773

>  <SCORE.INTRA>
-0.566266

>  <SCORE.INTRA.DIHEDRAL>
1.30794

>  <SCORE.INTRA.DIHEDRAL.0>
3.89056

>  <SCORE.INTRA.POLAR>
0

>  <SCORE.INTRA.POLAR.0>
0

>  <SCORE.INTRA.REPUL>
0

>  <SCORE.INTRA.REPUL.0>
0

>  <SCORE.INTRA.SOLV>
-1.16639

>  <SCORE.INTRA.SOLV.lig_0>
-20.733

>  <SCORE.INTRA.VDW>
-0.637046

>  <SCORE.INTRA.VDW.0>
-0.828515

>  <SCORE.INTRA.norm>
-0.0353917

>  <SCORE.RESTR>
0

>  <SCORE.RESTR.CAVITY>
0

>  <SCORE.RESTR.norm>
0

>  <SCORE.SYSTEM>
0

>  <SCORE.SYSTEM.CONST>
0

>  <SCORE.SYSTEM.DIHEDRAL>
0

>  <SCORE.SYSTEM.SOLV>
0

>  <SCORE.SYSTEM.norm>
0

>  <SCORE.heavy>
16

>  <SCORE.norm>
-1.31312

>  <RMSD>
2.496

$$$$
ligand
 OpenBabel02271912153D
libRbt.so/2013.1/901 2013/11/27
 16 17  0  0  0  0  0  0  0  0999 V2000
    7.4059    6.9574   82.9820 N   0  0  0  0  0  0  0  0  0  0  0  0
    7.5576    5.5628   83.2254 C   0  0  2  0  0  0  0  0  0  0  0  0
    7.8952    4.8075   81.9703 C   0  0  0  0  0  0  0  0  0  0  0  0
    9.0421    4.3147   81.8394 O   0  0  0  0  0  0  0  0  0  0  0  0
    7.1196    0.2643   80.9366 O   0  0  0  0  0  0  0  0  0  0  0  0
    6.2991    4.9841   83.8261 C   0  0  0  0  0  0  0  0  0  0  0  0
    6.5352    3.6900   84.5679 C   0  0  0  0  0  0  0  0  0  0  0  0
    6.5531    3.5485   85.8974 C   0  0  0  0  0  0  0  0  0  0  0  0
    6.7373    2.4605   83.8604 C   0  0  0  0  0  0  0  0  0  0  0  0
    6.8909    1.4903   84.8883 C   0  0  0  0  0  0  0  0  0  0  0  0
    6.7969    2.0761   82.5492 C   0  0  0  0  0  0  0  0  0  0  0  0
    6.7673    2.2300   86.0843 N   0  0  0  0  0  0  0  0  0  0  0  0
    7.1054    0.1885   84.6431 C   0  0  0  0  0  0  0  0  0  0  0  0
    7.0371    0.6966   82.2668 C   0  0  0  0  0  0  0  0  0  0  0  0
    7.2000   -0.2665   83.3245 C   0  0  0  0  0  0  0  0  0  0  0  0
    7.0433    4.6897   81.0646 O   0  0  0  0  0  0  0  0  0  0  0  0
  2  1  1  6  0  0  0
  2  3  1  0  0  0  0
  2  6  1  0  0  0  0
  3  4  1  0  0  0  0
  3 16  1  0  0  0  0
  5 14  1  0  0  0  0
  6  7  1  0  0  0  0
  7  8  2  0  0  0  0
  7  9  1  0  0  0  0
  8 12  1  0  0  0  0
  9 10  2  0  0  0  0
  9 11  1  0  0  0  0
 10 13  1  0  0  0  0
 10 12  1  0  0  0  0
 11 14  2  0  0  0  0
 13 15  2  0  0  0  0
 14 15  1  0  0  0  0
M  END
>  <CHROM.1>
110.35045804,-158.62315051,105.21411801,7.15224015,3.04901044,83.27758026
1.12846648,1.34069749,0.26031655

>  <Name>
ligand

>  <RI>
0

>  <Rbt.Current_Directory>
/home/itssahil/PROJECTS/Mol_Feturizer/Test_systems_manuscript/rnas/5kpy

>  <Rbt.Executable>
rbdock ($Id: //depot/dev/client3/rdock/2013.1/src/exe/rbdock.cxx#4 $)

>  <Rbt.Library>
libRbt.so (2013.1, Build901 2013/11/27)

>  <Rbt.Parameter_File>
/export/apps/rDock/src/rDock_2013.1_src/data/scripts/dock_solv.prm

>  <Rbt.Receptor>
prm/pocket_docking_5.prm

>  <SCORE>
-21.0164

>  <SCORE.INTER>
-20.5233

>  <SCORE.INTER.CONST>
1

>  <SCORE.INTER.POLAR>
0

>  <SCORE.INTER.ROT>
3

>  <SCORE.INTER.SOLV>
5.27898

>  <SCORE.INTER.VDW>
-21.0419

>  <SCORE.INTER.norm>
-1.28271

>  <SCORE.INTRA>
-0.493089

>  <SCORE.INTRA.DIHEDRAL>
1.5189

>  <SCORE.INTRA.DIHEDRAL.0>
3.89056

>  <SCORE.INTRA.POLAR>
0

>  <SCORE.INTRA.POLAR.0>
0

>  <SCORE.INTRA.REPUL>
0

>  <SCORE.INTRA.REPUL.0>
0

>  <SCORE.INTRA.SOLV>
-1.16417

>  <SCORE.INTRA.SOLV.lig_0>
-20.733

>  <SCORE.INTRA.VDW>
-0.670455

>  <SCORE.INTRA.VDW.0>
-0.828515

>  <SCORE.INTRA.norm>
-0.0308181

>  <SCORE.RESTR>
0

>  <SCORE.RESTR.CAVITY>
0

>  <SCORE.RESTR.norm>
0

>  <SCORE.SYSTEM>
0

>  <SCORE.SYSTEM.CONST>
0

>  <SCORE.SYSTEM.DIHEDRAL>
0

>  <SCORE.SYSTEM.SOLV>
0

>  <SCORE.SYSTEM.norm>
0

>  <SCORE.heavy>
16

>  <SCORE.norm>
-1.31352

>  <RMSD>
2.496

$$$$
ligand
 OpenBabel02271912153D
libRbt.so/2013.1/901 2013/11/27
 16 17  0  0  0  0  0  0  0  0999 V2000
    7.3937    6.9627   82.9461 N   0  0  0  0  0  0  0  0  0  0  0  0
    7.5548    5.5712   83.2009 C   0  0  2  0  0  0  0  0  0  0  0  0
    7.8881    4.8065   81.9503 C   0  0  0  0  0  0  0  0  0  0  0  0
    9.0437    4.3387   81.8057 O   0  0  0  0  0  0  0  0  0  0  0  0
    7.0418    0.2960   80.8639 O   0  0  0  0  0  0  0  0  0  0  0  0
    6.3037    4.9910   83.8154 C   0  0  0  0  0  0  0  0  0  0  0  0
    6.5464    3.6881   84.5396 C   0  0  0  0  0  0  0  0  0  0  0  0
    6.5888    3.5332   85.8670 C   0  0  0  0  0  0  0  0  0  0  0  0
    6.7279    2.4647   83.8162 C   0  0  0  0  0  0  0  0  0  0  0  0
    6.8954    1.4834   84.8312 C   0  0  0  0  0  0  0  0  0  0  0  0
    6.7603    2.0933   82.5003 C   0  0  0  0  0  0  0  0  0  0  0  0
    6.7988    2.2117   86.0367 N   0  0  0  0  0  0  0  0  0  0  0  0
    7.0976    0.1829   84.5690 C   0  0  0  0  0  0  0  0  0  0  0  0
    6.9871    0.7153   82.1996 C   0  0  0  0  0  0  0  0  0  0  0  0
    7.1645   -0.2592   83.2444 C   0  0  0  0  0  0  0  0  0  0  0  0
    7.0234    4.6564   81.0615 O   0  0  0  0  0  0  0  0  0  0  0  0
  2  1  1  6  0  0  0
  2  3  1  0  0  0  0
  2  6  1  0  0  0  0
  3  4  1  0  0  0  0
  3 16  1  0  0  0  0
  5 14  1  0  0  0  0
  6  7  1  0  0  0  0
  7  8  2  0  0  0  0
  7  9  1  0  0  0  0
  8 12  1  0  0  0  0
  9 10  2  0  0  0  0
  9 11  1  0  0  0  0
 10 13  1  0  0  0  0
 10 12  1  0  0  0  0
 11 14  2  0  0  0  0
 13 15  2  0  0  0  0
 14 15  1  0  0  0  0
M  END
>  <CHROM.1>
109.12949271,-159.97261978,105.00365336,7.14096031,3.05176930,83.23591062
1.07884473,1.35187635,0.32373509

>  <Name>
ligand

>  <RI>
0

>  <Rbt.Current_Directory>
/home/itssahil/PROJECTS/Mol_Feturizer/Test_systems_manuscript/rnas/5kpy

>  <Rbt.Executable>
rbdock ($Id: //depot/dev/client3/rdock/2013.1/src/exe/rbdock.cxx#4 $)

>  <Rbt.Library>
libRbt.so (2013.1, Build901 2013/11/27)

>  <Rbt.Parameter_File>
/export/apps/rDock/src/rDock_2013.1_src/data/scripts/dock_solv.prm

>  <Rbt.Receptor>
prm/pocket_docking_4.prm

>  <SCORE>
-20.9761

>  <SCORE.INTER>
-20.4471

>  <SCORE.INTER.CONST>
1

>  <SCORE.INTER.POLAR>
0

>  <SCORE.INTER.ROT>
3

>  <SCORE.INTER.SOLV>
5.31088

>  <SCORE.INTER.VDW>
-21.0017

>  <SCORE.INTER.norm>
-1.27794

>  <SCORE.INTRA>
-0.528935

>  <SCORE.INTRA.DIHEDRAL>
1.33768

>  <SCORE.INTRA.DIHEDRAL.0>
3.89056

>  <SCORE.INTRA.POLAR>
0

>  <SCORE.INTRA.POLAR.0>
0

>  <SCORE.INTRA.REPUL>
0

>  <SCORE.INTRA.REPUL.0>
0

>  <SCORE.INTRA.SOLV>
-1.16714

>  <SCORE.INTRA.SOLV.lig_0>
-20.733

>  <SCORE.INTRA.VDW>
-0.614204

>  <SCORE.INTRA.VDW.0>
-0.828515

>  <SCORE.INTRA.norm>
-0.0330584

>  <SCORE.RESTR>
0

>  <SCORE.RESTR.CAVITY>
0

>  <SCORE.RESTR.norm>
0

>  <SCORE.SYSTEM>
0

>  <SCORE.SYSTEM.CONST>
0

>  <SCORE.SYSTEM.DIHEDRAL>
0

>  <SCORE.SYSTEM.SOLV>
0

>  <SCORE.SYSTEM.norm>
0

>  <SCORE.heavy>
16

>  <SCORE.norm>
-1.311

>  <RMSD>
2.497

$$$$
ligand
 OpenBabel02271912153D
libRbt.so/2013.1/901 2013/11/27
 16 17  0  0  0  0  0  0  0  0999 V2000
    7.3871    6.9490   83.0017 N   0  0  0  0  0  0  0  0  0  0  0  0
    7.5240    5.5482   83.2163 C   0  0  2  0  0  0  0  0  0  0  0  0
    7.7991    4.8086   81.9368 C   0  0  0  0  0  0  0  0  0  0  0  0
    8.9245    4.2811   81.7617 O   0  0  0  0  0  0  0  0  0  0  0  0
    7.1335    0.3052   80.9050 O   0  0  0  0  0  0  0  0  0  0  0  0
    6.2801    4.9805   83.8567 C   0  0  0  0  0  0  0  0  0  0  0  0
    6.5261    3.6785   84.5812 C   0  0  0  0  0  0  0  0  0  0  0  0
    6.5456    3.5196   85.9088 C   0  0  0  0  0  0  0  0  0  0  0  0
    6.7367    2.4599   83.8576 C   0  0  0  0  0  0  0  0  0  0  0  0
    6.8978    1.4774   84.8725 C   0  0  0  0  0  0  0  0  0  0  0  0
    6.7984    2.0933   82.5413 C   0  0  0  0  0  0  0  0  0  0  0  0
    6.7694    2.2004   86.0782 N   0  0  0  0  0  0  0  0  0  0  0  0
    7.1216    0.1805   84.6101 C   0  0  0  0  0  0  0  0  0  0  0  0
    7.0485    0.7193   82.2407 C   0  0  0  0  0  0  0  0  0  0  0  0
    7.2189   -0.2563   83.2856 C   0  0  0  0  0  0  0  0  0  0  0  0
    6.9175    4.7379   81.0548 O   0  0  0  0  0  0  0  0  0  0  0  0
  2  1  1  6  0  0  0
  2  3  1  0  0  0  0
  2  6  1  0  0  0  0
  3  4  1  0  0  0  0
  3 16  1  0  0  0  0
  5 14  1  0  0  0  0
  6  7  1  0  0  0  0
  7  8  2  0  0  0  0
  7  9  1  0  0  0  0
  8 12  1  0  0  0  0
  9 10  2  0  0  0  0
  9 11  1  0  0  0  0
 10 13  1  0  0  0  0
 10 12  1  0  0  0  0
 11 14  2  0  0  0  0
 13 15  2  0  0  0  0
 14 15  1  0  0  0  0
M  END
>  <CHROM.1>
111.45915141,-157.94957913,107.50660170,7.12708480,3.04894346,83.26335378
1.17527991,1.35767274,0.21234149

>  <Name>
ligand

>  <RI>
0

>  <Rbt.Current_Directory>
/home/itssahil/PROJECTS/Mol_Feturizer/Test_systems_manuscript/rnas/5kpy

>  <Rbt.Executable>
rbdock ($Id: //depot/dev/client3/rdock/2013.1/src/exe/rbdock.cxx#4 $)

>  <Rbt.Library>
libRbt.so (2013.1, Build901 2013/11/27)

>  <Rbt.Parameter_File>
/export/apps/rDock/src/rDock_2013.1_src/data/scripts/dock_solv.prm

>  <Rbt.Receptor>
prm/pocket_docking_4.prm

>  <SCORE>
-20.9573

>  <SCORE.INTER>
-20.528

>  <SCORE.INTER.CONST>
1

>  <SCORE.INTER.POLAR>
0

>  <SCORE.INTER.ROT>
3

>  <SCORE.INTER.SOLV>
5.24769

>  <SCORE.INTER.VDW>
-21.0345

>  <SCORE.INTER.norm>
-1.283

>  <SCORE.INTRA>
-0.429288

>  <SCORE.INTRA.DIHEDRAL>
1.60544

>  <SCORE.INTRA.DIHEDRAL.0>
3.89056

>  <SCORE.INTRA.POLAR>
0

>  <SCORE.INTRA.POLAR.0>
0

>  <SCORE.INTRA.REPUL>
0

>  <SCORE.INTRA.REPUL.0>
0

>  <SCORE.INTRA.SOLV>
-1.16156

>  <SCORE.INTRA.SOLV.lig_0>
-20.733

>  <SCORE.INTRA.VDW>
-0.651228

>  <SCORE.INTRA.VDW.0>
-0.828515

>  <SCORE.INTRA.norm>
-0.0268305

>  <SCORE.RESTR>
0

>  <SCORE.RESTR.CAVITY>
0

>  <SCORE.RESTR.norm>
0

>  <SCORE.SYSTEM>
0

>  <SCORE.SYSTEM.CONST>
0

>  <SCORE.SYSTEM.DIHEDRAL>
0

>  <SCORE.SYSTEM.SOLV>
0

>  <SCORE.SYSTEM.norm>
0

>  <SCORE.heavy>
16

>  <SCORE.norm>
-1.30983

>  <RMSD>
2.497

$$$$
ligand
 OpenBabel02271912153D
libRbt.so/2013.1/901 2013/11/27
 16 17  0  0  0  0  0  0  0  0999 V2000
    7.3921    6.9432   82.9218 N   0  0  0  0  0  0  0  0  0  0  0  0
    7.5501    5.5565   83.2029 C   0  0  2  0  0  0  0  0  0  0  0  0
    7.9018    4.7705   81.9707 C   0  0  0  0  0  0  0  0  0  0  0  0
    9.0556    4.2898   81.8569 O   0  0  0  0  0  0  0  0  0  0  0  0
    7.1390    0.2648   80.9303 O   0  0  0  0  0  0  0  0  0  0  0  0
    6.2904    4.9862   83.8092 C   0  0  0  0  0  0  0  0  0  0  0  0
    6.5221    3.6929   84.5538 C   0  0  0  0  0  0  0  0  0  0  0  0
    6.5296    3.5526   85.8836 C   0  0  0  0  0  0  0  0  0  0  0  0
    6.7311    2.4630   83.8491 C   0  0  0  0  0  0  0  0  0  0  0  0
    6.8776    1.4939   84.8789 C   0  0  0  0  0  0  0  0  0  0  0  0
    6.8015    2.0776   82.5387 C   0  0  0  0  0  0  0  0  0  0  0  0
    6.7437    2.2345   86.0733 N   0  0  0  0  0  0  0  0  0  0  0  0
    7.0954    0.1921   84.6366 C   0  0  0  0  0  0  0  0  0  0  0  0
    7.0455    0.6981   82.2593 C   0  0  0  0  0  0  0  0  0  0  0  0
    7.2010   -0.2639   83.3192 C   0  0  0  0  0  0  0  0  0  0  0  0
    7.0543    4.6156   81.0663 O   0  0  0  0  0  0  0  0  0  0  0  0
  2  1  1  6  0  0  0
  2  3  1  0  0  0  0
  2  6  1  0  0  0  0
  3  4  1  0  0  0  0
  3 16  1  0  0  0  0
  5 14  1  0  0  0  0
  6  7  1  0  0  0  0
  7  8  2  0  0  0  0
  7  9  1  0  0  0  0
  8 12  1  0  0  0  0
  9 10  2  0  0  0  0
  9 11  1  0  0  0  0
 10 13  1  0  0  0  0
 10 12  1  0  0  0  0
 11 14  2  0  0  0  0
 13 15  2  0  0  0  0
 14 15  1  0  0  0  0
M  END
>  <CHROM.1>
109.82975105,-160.23384150,105.95360384,7.14944333,3.03982257,83.26688031
1.14696039,1.33279188,0.24145347

>  <Name>
ligand

>  <RI>
0

>  <Rbt.Current_Directory>
/home/itssahil/PROJECTS/Mol_Feturizer/Test_systems_manuscript/rnas/5kpy

>  <Rbt.Executable>
rbdock ($Id: //depot/dev/client3/rdock/2013.1/src/exe/rbdock.cxx#4 $)

>  <Rbt.Library>
libRbt.so (2013.1, Build901 2013/11/27)

>  <Rbt.Parameter_File>
/export/apps/rDock/src/rDock_2013.1_src/data/scripts/dock_solv.prm

>  <Rbt.Receptor>
prm/pocket_docking_3.prm

>  <SCORE>
-21.0225

>  <SCORE.INTER>
-20.4713

>  <SCORE.INTER.CONST>
1

>  <SCORE.INTER.POLAR>
0

>  <SCORE.INTER.ROT>
3

>  <SCORE.INTER.SOLV>
5.2792

>  <SCORE.INTER.VDW>
-21.0073

>  <SCORE.INTER.norm>
-1.27946

>  <SCORE.INTRA>
-0.551194

>  <SCORE.INTRA.DIHEDRAL>
1.30168

>  <SCORE.INTRA.DIHEDRAL.0>
3.89056

>  <SCORE.INTRA.POLAR>
0

>  <SCORE.INTRA.POLAR.0>
0

>  <SCORE.INTRA.REPUL>
0

>  <SCORE.INTRA.REPUL.0>
0

>  <SCORE.INTRA.SOLV>
-1.16705

>  <SCORE.INTRA.SOLV.lig_0>
-20.733

>  <SCORE.INTRA.VDW>
-0.61851

>  <SCORE.INTRA.VDW.0>
-0.828515

>  <SCORE.INTRA.norm>
-0.0344496

>  <SCORE.RESTR>
0

>  <SCORE.RESTR.CAVITY>
0

>  <SCORE.RESTR.norm>
0

>  <SCORE.SYSTEM>
0

>  <SCORE.SYSTEM.CONST>
0

>  <SCORE.SYSTEM.DIHEDRAL>
0

>  <SCORE.SYSTEM.SOLV>
0

>  <SCORE.SYSTEM.norm>
0

>  <SCORE.heavy>
16

>  <SCORE.norm>
-1.31391

>  <RMSD>
2.500

$$$$
ligand
 OpenBabel02271912153D
libRbt.so/2013.1/901 2013/11/27
 16 17  0  0  0  0  0  0  0  0999 V2000
    7.3789    6.9359   82.9655 N   0  0  0  0  0  0  0  0  0  0  0  0
    7.5206    5.5397   83.2052 C   0  0  2  0  0  0  0  0  0  0  0  0
    7.7993    4.7783   81.9393 C   0  0  0  0  0  0  0  0  0  0  0  0
    8.8908    4.1713   81.8150 O   0  0  0  0  0  0  0  0  0  0  0  0
    7.1388    0.2996   80.9119 O   0  0  0  0  0  0  0  0  0  0  0  0
    6.2781    4.9792   83.8547 C   0  0  0  0  0  0  0  0  0  0  0  0
    6.5228    3.6783   84.5817 C   0  0  0  0  0  0  0  0  0  0  0  0
    6.5397    3.5215   85.9095 C   0  0  0  0  0  0  0  0  0  0  0  0
    6.7353    2.4587   83.8604 C   0  0  0  0  0  0  0  0  0  0  0  0
    6.8945    1.4778   84.8772 C   0  0  0  0  0  0  0  0  0  0  0  0
    6.7998    2.0901   82.5448 C   0  0  0  0  0  0  0  0  0  0  0  0
    6.7635    2.2026   86.0815 N   0  0  0  0  0  0  0  0  0  0  0  0
    7.1192    0.1806   84.6172 C   0  0  0  0  0  0  0  0  0  0  0  0
    7.0509    0.7157   82.2468 C   0  0  0  0  0  0  0  0  0  0  0  0
    7.2193   -0.2583   83.2936 C   0  0  0  0  0  0  0  0  0  0  0  0
    6.9554    4.7679   81.0186 O   0  0  0  0  0  0  0  0  0  0  0  0
  2  1  1  6  0  0  0
  2  3  1  0  0  0  0
  2  6  1  0  0  0  0
  3  4  1  0  0  0  0
  3 16  1  0  0  0  0
  5 14  1  0  0  0  0
  6  7  1  0  0  0  0
  7  8  2  0  0  0  0
  7  9  1  0  0  0  0
  8 12  1  0  0  0  0
  9 10  2  0  0  0  0
  9 11  1  0  0  0  0
 10 13  1  0  0  0  0
 10 12  1  0  0  0  0
 11 14  2  0  0  0  0
 13 15  2  0  0  0  0
 14 15  1  0  0  0  0
M  END
>  <CHROM.1>
116.52931884,-158.98117134,108.03773794,7.12583182,3.03898152,83.26421458
1.19233415,1.35890752,0.19195796

>  <Name>
ligand

>  <RI>
0

>  <Rbt.Current_Directory>
/home/itssahil/PROJECTS/Mol_Feturizer/Test_systems_manuscript/rnas/5kpy

>  <Rbt.Executable>
rbdock ($Id: //depot/dev/client3/rdock/2013.1/src/exe/rbdock.cxx#4 $)

>  <Rbt.Library>
libRbt.so (2013.1, Build901 2013/11/27)

>  <Rbt.Parameter_File>
/export/apps/rDock/src/rDock_2013.1_src/data/scripts/dock_solv.prm

>  <Rbt.Receptor>
prm/pocket_docking_6.prm

>  <SCORE>
-21.0308

>  <SCORE.INTER>
-20.4708

>  <SCORE.INTER.CONST>
1

>  <SCORE.INTER.POLAR>
0

>  <SCORE.INTER.ROT>
3

>  <SCORE.INTER.SOLV>
5.25094

>  <SCORE.INTER.VDW>
-20.9975

>  <SCORE.INTER.norm>
-1.27942

>  <SCORE.INTRA>
-0.559975

>  <SCORE.INTRA.DIHEDRAL>
1.4709

>  <SCORE.INTRA.DIHEDRAL.0>
3.89056

>  <SCORE.INTRA.POLAR>
0

>  <SCORE.INTRA.POLAR.0>
0

>  <SCORE.INTRA.REPUL>
0

>  <SCORE.INTRA.REPUL.0>
0

>  <SCORE.INTRA.SOLV>
-1.16186

>  <SCORE.INTRA.SOLV.lig_0>
-20.733

>  <SCORE.INTRA.VDW>
-0.714498

>  <SCORE.INTRA.VDW.0>
-0.828515

>  <SCORE.INTRA.norm>
-0.0349984

>  <SCORE.RESTR>
0

>  <SCORE.RESTR.CAVITY>
0

>  <SCORE.RESTR.norm>
0

>  <SCORE.SYSTEM>
0

>  <SCORE.SYSTEM.CONST>
0

>  <SCORE.SYSTEM.DIHEDRAL>
0

>  <SCORE.SYSTEM.SOLV>
0

>  <SCORE.SYSTEM.norm>
0

>  <SCORE.heavy>
16

>  <SCORE.norm>
-1.31442

>  <RMSD>
2.503

$$$$
ligand
 OpenBabel02271912153D
libRbt.so/2013.1/901 2013/11/27
 16 17  0  0  0  0  0  0  0  0999 V2000
    7.3750    6.9453   82.9334 N   0  0  0  0  0  0  0  0  0  0  0  0
    7.5341    5.5523   83.1812 C   0  0  2  0  0  0  0  0  0  0  0  0
    7.8780    4.7952   81.9288 C   0  0  0  0  0  0  0  0  0  0  0  0
    8.9957    4.2313   81.8390 O   0  0  0  0  0  0  0  0  0  0  0  0
    7.1530    0.2786   80.8593 O   0  0  0  0  0  0  0  0  0  0  0  0
    6.2779    4.9683   83.7816 C   0  0  0  0  0  0  0  0  0  0  0  0
    6.5176    3.6697   84.5143 C   0  0  0  0  0  0  0  0  0  0  0  0
    6.5266    3.5173   85.8427 C   0  0  0  0  0  0  0  0  0  0  0  0
    6.7336    2.4476   83.7983 C   0  0  0  0  0  0  0  0  0  0  0  0
    6.8863    1.4700   84.8192 C   0  0  0  0  0  0  0  0  0  0  0  0
    6.8056    2.0746   82.4844 C   0  0  0  0  0  0  0  0  0  0  0  0
    6.7486    2.1988   86.0204 N   0  0  0  0  0  0  0  0  0  0  0  0
    7.1117    0.1718   84.5649 C   0  0  0  0  0  0  0  0  0  0  0  0
    7.0576    0.6992   82.1923 C   0  0  0  0  0  0  0  0  0  0  0  0
    7.2193   -0.2715   83.2433 C   0  0  0  0  0  0  0  0  0  0  0  0
    7.0611    4.7459   80.9852 O   0  0  0  0  0  0  0  0  0  0  0  0
  2  1  1  6  0  0  0
  2  3  1  0  0  0  0
  2  6  1  0  0  0  0
  3  4  1  0  0  0  0
  3 16  1  0  0  0  0
  5 14  1  0  0  0  0
  6  7  1  0  0  0  0
  7  8  2  0  0  0  0
  7  9  1  0  0  0  0
  8 12  1  0  0  0  0
  9 10  2  0  0  0  0
  9 11  1  0  0  0  0
 10 13  1  0  0  0  0
 10 12  1  0  0  0  0
 11 14  2  0  0  0  0
 13 15  2  0  0  0  0
 14 15  1  0  0  0  0
M  END
>  <CHROM.1>
115.15531411,-159.26932129,105.89816220,7.14559513,3.03677156,83.21955393
1.17805567,1.34006187,0.21633787

>  <Name>
ligand

>  <RI>
0

>  <Rbt.Current_Directory>
/home/itssahil/PROJECTS/Mol_Feturizer/Test_systems_manuscript/rnas/5kpy

>  <Rbt.Executable>
rbdock ($Id: //depot/dev/client3/rdock/2013.1/src/exe/rbdock.cxx#4 $)

>  <Rbt.Library>
libRbt.so (2013.1, Build901 2013/11/27)

>  <Rbt.Parameter_File>
/export/apps/rDock/src/rDock_2013.1_src/data/scripts/dock_solv.prm

>  <Rbt.Receptor>
prm/pocket_docking_6.prm

>  <SCORE>
-21.0022

>  <SCORE.INTER>
-20.3786

>  <SCORE.INTER.CONST>
1

>  <SCORE.INTER.POLAR>
0

>  <SCORE.INTER.ROT>
3

>  <SCORE.INTER.SOLV>
5.30745

>  <SCORE.INTER.VDW>
-20.9549

>  <SCORE.INTER.norm>
-1.27366

>  <SCORE.INTRA>
-0.623683

>  <SCORE.INTRA.DIHEDRAL>
1.43719

>  <SCORE.INTRA.DIHEDRAL.0>
3.89056

>  <SCORE.INTRA.POLAR>
0

>  <SCORE.INTRA.POLAR.0>
0

>  <SCORE.INTRA.REPUL>
0

>  <SCORE.INTRA.REPUL.0>
0

>  <SCORE.INTRA.SOLV>
-1.16376

>  <SCORE.INTRA.SOLV.lig_0>
-20.733

>  <SCORE.INTRA.VDW>
-0.760399

>  <SCORE.INTRA.VDW.0>
-0.828515

>  <SCORE.INTRA.norm>
-0.0389802

>  <SCORE.RESTR>
0

>  <SCORE.RESTR.CAVITY>
0

>  <SCORE.RESTR.norm>
0

>  <SCORE.SYSTEM>
0

>  <SCORE.SYSTEM.CONST>
0

>  <SCORE.SYSTEM.DIHEDRAL>
0

>  <SCORE.SYSTEM.SOLV>
0

>  <SCORE.SYSTEM.norm>
0

>  <SCORE.heavy>
16

>  <SCORE.norm>
-1.31264

>  <RMSD>
2.503

$$$$
ligand
 OpenBabel02271912153D
libRbt.so/2013.1/901 2013/11/27
 16 17  0  0  0  0  0  0  0  0999 V2000
    7.3151    6.9480   82.9795 N   0  0  0  0  0  0  0  0  0  0  0  0
    7.4796    5.5530   83.2112 C   0  0  2  0  0  0  0  0  0  0  0  0
    7.7865    4.8058   81.9434 C   0  0  0  0  0  0  0  0  0  0  0  0
    6.9575    4.8278   81.0012 O   0  0  0  0  0  0  0  0  0  0  0  0
    7.0819    0.2721   80.9160 O   0  0  0  0  0  0  0  0  0  0  0  0
    6.2404    4.9653   83.8426 C   0  0  0  0  0  0  0  0  0  0  0  0
    6.5031    3.6703   84.5739 C   0  0  0  0  0  0  0  0  0  0  0  0
    6.5408    3.5219   85.9022 C   0  0  0  0  0  0  0  0  0  0  0  0
    6.7113    2.4473   83.8569 C   0  0  0  0  0  0  0  0  0  0  0  0
    6.8911    1.4737   84.8772 C   0  0  0  0  0  0  0  0  0  0  0  0
    6.7580    2.0709   82.5429 C   0  0  0  0  0  0  0  0  0  0  0  0
    6.7743    2.2052   86.0789 N   0  0  0  0  0  0  0  0  0  0  0  0
    7.1189    0.1761   84.6219 C   0  0  0  0  0  0  0  0  0  0  0  0
    7.0119    0.6961   82.2495 C   0  0  0  0  0  0  0  0  0  0  0  0
    7.2014   -0.2705   83.2996 C   0  0  0  0  0  0  0  0  0  0  0  0
    8.8500    4.1586   81.8421 O   0  0  0  0  0  0  0  0  0  0  0  0
  2  1  1  6  0  0  0
  2  3  1  0  0  0  0
  2  6  1  0  0  0  0
  3  4  1  0  0  0  0
  3 16  1  0  0  0  0
  5 14  1  0  0  0  0
  6  7  1  0  0  0  0
  7  8  2  0  0  0  0
  7  9  1  0  0  0  0
  8 12  1  0  0  0  0
  9 10  2  0  0  0  0
  9 11  1  0  0  0  0
 10 13  1  0  0  0  0
 10 12  1  0  0  0  0
 11 14  2  0  0  0  0
 13 15  2  0  0  0  0
 14 15  1  0  0  0  0
M  END
>  <CHROM.1>
-60.49044498,-158.46905553,106.05210611,7.10107596,3.03842116,83.26541204
1.19792193,1.36866274,0.19114030

>  <Name>
ligand

>  <RI>
0

>  <Rbt.Current_Directory>
/home/itssahil/PROJECTS/Mol_Feturizer/Test_systems_manuscript/rnas/5kpy

>  <Rbt.Executable>
rbdock ($Id: //depot/dev/client3/rdock/2013.1/src/exe/rbdock.cxx#4 $)

>  <Rbt.Library>
libRbt.so (2013.1, Build901 2013/11/27)

>  <Rbt.Parameter_File>
/export/apps/rDock/src/rDock_2013.1_src/data/scripts/dock_solv.prm

>  <Rbt.Receptor>
prm/pocket_docking_8.prm

>  <SCORE>
-20.9505

>  <SCORE.INTER>
-20.3428

>  <SCORE.INTER.CONST>
1

>  <SCORE.INTER.POLAR>
0

>  <SCORE.INTER.ROT>
3

>  <SCORE.INTER.SOLV>
5.30373

>  <SCORE.INTER.VDW>
-20.9298

>  <SCORE.INTER.norm>
-1.27143

>  <SCORE.INTRA>
-0.607733

>  <SCORE.INTRA.DIHEDRAL>
1.55393

>  <SCORE.INTRA.DIHEDRAL.0>
3.89056

>  <SCORE.INTRA.POLAR>
0

>  <SCORE.INTRA.POLAR.0>
0

>  <SCORE.INTRA.REPUL>
0

>  <SCORE.INTRA.REPUL.0>
0

>  <SCORE.INTRA.SOLV>
-1.16458

>  <SCORE.INTRA.SOLV.lig_0>
-20.733

>  <SCORE.INTRA.VDW>
-0.802407

>  <SCORE.INTRA.VDW.0>
-0.828515

>  <SCORE.INTRA.norm>
-0.0379833

>  <SCORE.RESTR>
0

>  <SCORE.RESTR.CAVITY>
0

>  <SCORE.RESTR.norm>
0

>  <SCORE.SYSTEM>
0

>  <SCORE.SYSTEM.CONST>
0

>  <SCORE.SYSTEM.DIHEDRAL>
0

>  <SCORE.SYSTEM.SOLV>
0

>  <SCORE.SYSTEM.norm>
0

>  <SCORE.heavy>
16

>  <SCORE.norm>
-1.30941

>  <RMSD>
2.504

$$$$
ligand
 OpenBabel02271912153D
libRbt.so/2013.1/901 2013/11/27
 16 17  0  0  0  0  0  0  0  0999 V2000
    7.3922    6.9335   82.9114 N   0  0  0  0  0  0  0  0  0  0  0  0
    7.5399    5.5423   83.1755 C   0  0  2  0  0  0  0  0  0  0  0  0
    7.8356    4.7619   81.9252 C   0  0  0  0  0  0  0  0  0  0  0  0
    8.9369    4.1698   81.8165 O   0  0  0  0  0  0  0  0  0  0  0  0
    7.1247    0.3001   80.8788 O   0  0  0  0  0  0  0  0  0  0  0  0
    6.2945    4.9849   83.8221 C   0  0  0  0  0  0  0  0  0  0  0  0
    6.5341    3.6830   84.5490 C   0  0  0  0  0  0  0  0  0  0  0  0
    6.5530    3.5265   85.8768 C   0  0  0  0  0  0  0  0  0  0  0  0
    6.7388    2.4621   83.8275 C   0  0  0  0  0  0  0  0  0  0  0  0
    6.8952    1.4807   84.8442 C   0  0  0  0  0  0  0  0  0  0  0  0
    6.7986    2.0928   82.5120 C   0  0  0  0  0  0  0  0  0  0  0  0
    6.7704    2.2064   86.0487 N   0  0  0  0  0  0  0  0  0  0  0  0
    7.1126    0.1822   84.5842 C   0  0  0  0  0  0  0  0  0  0  0  0
    7.0419    0.7171   82.2138 C   0  0  0  0  0  0  0  0  0  0  0  0
    7.2076   -0.2575   83.2605 C   0  0  0  0  0  0  0  0  0  0  0  0
    6.9958    4.7212   81.0016 O   0  0  0  0  0  0  0  0  0  0  0  0
  2  1  1  6  0  0  0
  2  3  1  0  0  0  0
  2  6  1  0  0  0  0
  3  4  1  0  0  0  0
  3 16  1  0  0  0  0
  5 14  1  0  0  0  0
  6  7  1  0  0  0  0
  7  8  2  0  0  0  0
  7  9  1  0  0  0  0
  8 12  1  0  0  0  0
  9 10  2  0  0  0  0
  9 11  1  0  0  0  0
 10 13  1  0  0  0  0
 10 12  1  0  0  0  0
 11 14  2  0  0  0  0
 13 15  2  0  0  0  0
 14 15  1  0  0  0  0
M  END
>  <CHROM.1>
115.88487992,-160.16590267,107.75400673,7.13703164,3.03633421,83.23498500
1.16457873,1.35512857,0.22372869

>  <Name>
ligand

>  <RI>
0

>  <Rbt.Current_Directory>
/home/itssahil/PROJECTS/Mol_Feturizer/Test_systems_manuscript/rnas/5kpy

>  <Rbt.Executable>
rbdock ($Id: //depot/dev/client3/rdock/2013.1/src/exe/rbdock.cxx#4 $)

>  <Rbt.Library>
libRbt.so (2013.1, Build901 2013/11/27)

>  <Rbt.Parameter_File>
/export/apps/rDock/src/rDock_2013.1_src/data/scripts/dock_solv.prm

>  <Rbt.Receptor>
prm/pocket_docking_5.prm

>  <SCORE>
-21.0397

>  <SCORE.INTER>
-20.4253

>  <SCORE.INTER.CONST>
1

>  <SCORE.INTER.POLAR>
0

>  <SCORE.INTER.ROT>
3

>  <SCORE.INTER.SOLV>
5.29466

>  <SCORE.INTER.VDW>
-20.9818

>  <SCORE.INTER.norm>
-1.27658

>  <SCORE.INTRA>
-0.614388

>  <SCORE.INTRA.DIHEDRAL>
1.31397

>  <SCORE.INTRA.DIHEDRAL.0>
3.89056

>  <SCORE.INTRA.POLAR>
0

>  <SCORE.INTRA.POLAR.0>
0

>  <SCORE.INTRA.REPUL>
0

>  <SCORE.INTRA.REPUL.0>
0

>  <SCORE.INTRA.SOLV>
-1.16442

>  <SCORE.INTRA.SOLV.lig_0>
-20.733

>  <SCORE.INTRA.VDW>
-0.689165

>  <SCORE.INTRA.VDW.0>
-0.828515

>  <SCORE.INTRA.norm>
-0.0383992

>  <SCORE.RESTR>
0

>  <SCORE.RESTR.CAVITY>
0

>  <SCORE.RESTR.norm>
0

>  <SCORE.SYSTEM>
0

>  <SCORE.SYSTEM.CONST>
0

>  <SCORE.SYSTEM.DIHEDRAL>
0

>  <SCORE.SYSTEM.SOLV>
0

>  <SCORE.SYSTEM.norm>
0

>  <SCORE.heavy>
16

>  <SCORE.norm>
-1.31498

>  <RMSD>
2.508

$$$$
ligand
 OpenBabel02271912153D
libRbt.so/2013.1/901 2013/11/27
 16 17  0  0  0  0  0  0  0  0999 V2000
    7.3871    6.9401   82.9152 N   0  0  0  0  0  0  0  0  0  0  0  0
    7.5326    5.5442   83.1545 C   0  0  2  0  0  0  0  0  0  0  0  0
    7.8298    4.7860   81.8910 C   0  0  0  0  0  0  0  0  0  0  0  0
    8.9367    4.2075   81.7673 O   0  0  0  0  0  0  0  0  0  0  0  0
    7.0995    0.3115   80.8103 O   0  0  0  0  0  0  0  0  0  0  0  0
    6.2853    4.9769   83.7887 C   0  0  0  0  0  0  0  0  0  0  0  0
    6.5252    3.6695   84.5057 C   0  0  0  0  0  0  0  0  0  0  0  0
    6.5479    3.5037   85.8324 C   0  0  0  0  0  0  0  0  0  0  0  0
    6.7258    2.4534   83.7752 C   0  0  0  0  0  0  0  0  0  0  0  0
    6.8838    1.4647   84.7845 C   0  0  0  0  0  0  0  0  0  0  0  0
    6.7810    2.0932   82.4569 C   0  0  0  0  0  0  0  0  0  0  0  0
    6.7638    2.1822   85.9944 N   0  0  0  0  0  0  0  0  0  0  0  0
    7.0985    0.1678   84.5148 C   0  0  0  0  0  0  0  0  0  0  0  0
    7.0214    0.7192   82.1484 C   0  0  0  0  0  0  0  0  0  0  0  0
    7.1888   -0.2629   83.1878 C   0  0  0  0  0  0  0  0  0  0  0  0
    6.9853    4.7502   80.9714 O   0  0  0  0  0  0  0  0  0  0  0  0
  2  1  1  6  0  0  0
  2  3  1  0  0  0  0
  2  6  1  0  0  0  0
  3  4  1  0  0  0  0
  3 16  1  0  0  0  0
  5 14  1  0  0  0  0
  6  7  1  0  0  0  0
  7  8  2  0  0  0  0
  7  9  1  0  0  0  0
  8 12  1  0  0  0  0
  9 10  2  0  0  0  0
  9 11  1  0  0  0  0
 10 13  1  0  0  0  0
 10 12  1  0  0  0  0
 11 14  2  0  0  0  0
 13 15  2  0  0  0  0
 14 15  1  0  0  0  0
M  END
>  <CHROM.1>
115.06217426,-159.51914570,107.14871838,7.12591896,3.03758777,83.18867585
1.14814796,1.35553584,0.24889860

>  <Name>
ligand

>  <RI>
0

>  <Rbt.Current_Directory>
/home/itssahil/PROJECTS/Mol_Feturizer/Test_systems_manuscript/rnas/5kpy

>  <Rbt.Executable>
rbdock ($Id: //depot/dev/client3/rdock/2013.1/src/exe/rbdock.cxx#4 $)

>  <Rbt.Library>
libRbt.so (2013.1, Build901 2013/11/27)

>  <Rbt.Parameter_File>
/export/apps/rDock/src/rDock_2013.1_src/data/scripts/dock_solv.prm

>  <Rbt.Receptor>
prm/pocket_docking_5.prm

>  <SCORE>
-21.0268

>  <SCORE.INTER>
-20.4298

>  <SCORE.INTER.CONST>
1

>  <SCORE.INTER.POLAR>
0

>  <SCORE.INTER.ROT>
3

>  <SCORE.INTER.SOLV>
5.32091

>  <SCORE.INTER.VDW>
-20.9935

>  <SCORE.INTER.norm>
-1.27686

>  <SCORE.INTRA>
-0.597003

>  <SCORE.INTRA.DIHEDRAL>
1.39965

>  <SCORE.INTRA.DIHEDRAL.0>
3.89056

>  <SCORE.INTRA.POLAR>
0

>  <SCORE.INTRA.POLAR.0>
0

>  <SCORE.INTRA.REPUL>
0

>  <SCORE.INTRA.REPUL.0>
0

>  <SCORE.INTRA.SOLV>
-1.16373

>  <SCORE.INTRA.SOLV.lig_0>
-20.733

>  <SCORE.INTRA.VDW>
-0.714964

>  <SCORE.INTRA.VDW.0>
-0.828515

>  <SCORE.INTRA.norm>
-0.0373127

>  <SCORE.RESTR>
0

>  <SCORE.RESTR.CAVITY>
0

>  <SCORE.RESTR.norm>
0

>  <SCORE.SYSTEM>
0

>  <SCORE.SYSTEM.CONST>
0

>  <SCORE.SYSTEM.DIHEDRAL>
0

>  <SCORE.SYSTEM.SOLV>
0

>  <SCORE.SYSTEM.norm>
0

>  <SCORE.heavy>
16

>  <SCORE.norm>
-1.31417

>  <RMSD>
2.510

$$$$
ligand
 OpenBabel02271912153D
libRbt.so/2013.1/901 2013/11/27
 16 17  0  0  0  0  0  0  0  0999 V2000
    7.4174    6.9360   82.9096 N   0  0  0  0  0  0  0  0  0  0  0  0
    7.5505    5.5433   83.1735 C   0  0  2  0  0  0  0  0  0  0  0  0
    7.8415    4.7604   81.9236 C   0  0  0  0  0  0  0  0  0  0  0  0
    6.9833    4.7224   81.0085 O   0  0  0  0  0  0  0  0  0  0  0  0
    7.0854    0.3028   80.8785 O   0  0  0  0  0  0  0  0  0  0  0  0
    6.2980    4.9981   83.8167 C   0  0  0  0  0  0  0  0  0  0  0  0
    6.5231    3.6944   84.5450 C   0  0  0  0  0  0  0  0  0  0  0  0
    6.5381    3.5388   85.8730 C   0  0  0  0  0  0  0  0  0  0  0  0
    6.7165    2.4709   83.8249 C   0  0  0  0  0  0  0  0  0  0  0  0
    6.8611    1.4888   84.8426 C   0  0  0  0  0  0  0  0  0  0  0  0
    6.7748    2.1000   82.5097 C   0  0  0  0  0  0  0  0  0  0  0  0
    6.7417    2.2167   86.0463 N   0  0  0  0  0  0  0  0  0  0  0  0
    7.0657    0.1880   84.5840 C   0  0  0  0  0  0  0  0  0  0  0  0
    7.0046    0.7216   82.2130 C   0  0  0  0  0  0  0  0  0  0  0  0
    7.1585   -0.2538   83.2608 C   0  0  0  0  0  0  0  0  0  0  0  0
    8.9217    4.1434   81.8109 O   0  0  0  0  0  0  0  0  0  0  0  0
  2  1  1  6  0  0  0
  2  3  1  0  0  0  0
  2  6  1  0  0  0  0
  3  4  1  0  0  0  0
  3 16  1  0  0  0  0
  5 14  1  0  0  0  0
  6  7  1  0  0  0  0
  7  8  2  0  0  0  0
  7  9  1  0  0  0  0
  8 12  1  0  0  0  0
  9 10  2  0  0  0  0
  9 11  1  0  0  0  0
 10 13  1  0  0  0  0
 10 12  1  0  0  0  0
 11 14  2  0  0  0  0
 13 15  2  0  0  0  0
 14 15  1  0  0  0  0
M  END
>  <CHROM.1>
-64.18856713,-160.09790277,107.67327572,7.11933153,3.03985048,83.23336137
1.12502749,1.35243441,0.26385842

>  <Name>
ligand

>  <RI>
0

>  <Rbt.Current_Directory>
/home/itssahil/PROJECTS/Mol_Feturizer/Test_systems_manuscript/rnas/5kpy

>  <Rbt.Executable>
rbdock ($Id: //depot/dev/client3/rdock/2013.1/src/exe/rbdock.cxx#4 $)

>  <Rbt.Library>
libRbt.so (2013.1, Build901 2013/11/27)

>  <Rbt.Parameter_File>
/export/apps/rDock/src/rDock_2013.1_src/data/scripts/dock_solv.prm

>  <Rbt.Receptor>
prm/pocket_docking_6.prm

>  <SCORE>
-20.9766

>  <SCORE.INTER>
-20.3959

>  <SCORE.INTER.CONST>
1

>  <SCORE.INTER.POLAR>
0

>  <SCORE.INTER.ROT>
3

>  <SCORE.INTER.SOLV>
5.30161

>  <SCORE.INTER.VDW>
-20.9645

>  <SCORE.INTER.norm>
-1.27474

>  <SCORE.INTRA>
-0.58072

>  <SCORE.INTRA.DIHEDRAL>
1.33725

>  <SCORE.INTRA.DIHEDRAL.0>
3.89056

>  <SCORE.INTRA.POLAR>
0

>  <SCORE.INTRA.POLAR.0>
0

>  <SCORE.INTRA.REPUL>
0

>  <SCORE.INTRA.REPUL.0>
0

>  <SCORE.INTRA.SOLV>
-1.1689

>  <SCORE.INTRA.SOLV.lig_0>
-20.733

>  <SCORE.INTRA.VDW>
-0.664896

>  <SCORE.INTRA.VDW.0>
-0.828515

>  <SCORE.INTRA.norm>
-0.036295

>  <SCORE.RESTR>
0

>  <SCORE.RESTR.CAVITY>
0

>  <SCORE.RESTR.norm>
0

>  <SCORE.SYSTEM>
0

>  <SCORE.SYSTEM.CONST>
0

>  <SCORE.SYSTEM.DIHEDRAL>
0

>  <SCORE.SYSTEM.SOLV>
0

>  <SCORE.SYSTEM.norm>
0

>  <SCORE.heavy>
16

>  <SCORE.norm>
-1.31104

>  <RMSD>
2.510

$$$$
ligand
 OpenBabel02271912153D
libRbt.so/2013.1/901 2013/11/27
 16 17  0  0  0  0  0  0  0  0999 V2000
    7.3105    6.9082   82.8707 N   0  0  0  0  0  0  0  0  0  0  0  0
    7.4932    5.5331   83.1913 C   0  0  2  0  0  0  0  0  0  0  0  0
    7.8324    4.7140   81.9774 C   0  0  0  0  0  0  0  0  0  0  0  0
    6.9727    4.5680   81.0747 O   0  0  0  0  0  0  0  0  0  0  0  0
    7.1957    0.2492   80.9805 O   0  0  0  0  0  0  0  0  0  0  0  0
    6.2533    4.9650   83.8392 C   0  0  0  0  0  0  0  0  0  0  0  0
    6.5105    3.6798   84.5894 C   0  0  0  0  0  0  0  0  0  0  0  0
    6.5206    3.5453   85.9197 C   0  0  0  0  0  0  0  0  0  0  0  0
    6.7439    2.4513   83.8899 C   0  0  0  0  0  0  0  0  0  0  0  0
    6.9094    1.4897   84.9239 C   0  0  0  0  0  0  0  0  0  0  0  0
    6.8222    2.0618   82.5811 C   0  0  0  0  0  0  0  0  0  0  0  0
    6.7607    2.2325   86.1151 N   0  0  0  0  0  0  0  0  0  0  0  0
    7.1531    0.1914   84.6871 C   0  0  0  0  0  0  0  0  0  0  0  0
    7.0934    0.6862   82.3077 C   0  0  0  0  0  0  0  0  0  0  0  0
    7.2678   -0.2680   83.3716 C   0  0  0  0  0  0  0  0  0  0  0  0
    8.9547    4.1738   81.8826 O   0  0  0  0  0  0  0  0  0  0  0  0
  2  1  1  6  0  0  0
  2  3  1  0  0  0  0
  2  6  1  0  0  0  0
  3  4  1  0  0  0  0
  3 16  1  0  0  0  0
  5 14  1  0  0  0  0
  6  7  1  0  0  0  0
  7  8  2  0  0  0  0
  7  9  1  0  0  0  0
  8 12  1  0  0  0  0
  9 10  2  0  0  0  0
  9 11  1  0  0  0  0
 10 13  1  0  0  0  0
 10 12  1  0  0  0  0
 11 14  2  0  0  0  0
 13 15  2  0  0  0  0
 14 15  1  0  0  0  0
M  END
>  <CHROM.1>
-66.66893525,-161.70370253,107.89300873,7.13805650,3.01379694,83.29427831
1.25888401,1.34682233,0.12162287

>  <Name>
ligand

>  <RI>
0

>  <Rbt.Current_Directory>
/home/itssahil/PROJECTS/Mol_Feturizer/Test_systems_manuscript/rnas/5kpy

>  <Rbt.Executable>
rbdock ($Id: //depot/dev/client3/rdock/2013.1/src/exe/rbdock.cxx#4 $)

>  <Rbt.Library>
libRbt.so (2013.1, Build901 2013/11/27)

>  <Rbt.Parameter_File>
/export/apps/rDock/src/rDock_2013.1_src/data/scripts/dock_solv.prm

>  <Rbt.Receptor>
prm/pocket_docking_3.prm

>  <SCORE>
-20.8472

>  <SCORE.INTER>
-20.2791

>  <SCORE.INTER.CONST>
1

>  <SCORE.INTER.POLAR>
0

>  <SCORE.INTER.ROT>
3

>  <SCORE.INTER.SOLV>
5.38303

>  <SCORE.INTER.VDW>
-20.9137

>  <SCORE.INTER.norm>
-1.26744

>  <SCORE.INTRA>
-0.568146

>  <SCORE.INTRA.DIHEDRAL>
1.13676

>  <SCORE.INTRA.DIHEDRAL.0>
3.89056

>  <SCORE.INTRA.POLAR>
0

>  <SCORE.INTRA.POLAR.0>
0

>  <SCORE.INTRA.REPUL>
0

>  <SCORE.INTRA.REPUL.0>
0

>  <SCORE.INTRA.SOLV>
-1.17283

>  <SCORE.INTRA.SOLV.lig_0>
-20.733

>  <SCORE.INTRA.VDW>
-0.550113

>  <SCORE.INTRA.VDW.0>
-0.828515

>  <SCORE.INTRA.norm>
-0.0355091

>  <SCORE.RESTR>
0

>  <SCORE.RESTR.CAVITY>
0

>  <SCORE.RESTR.norm>
0

>  <SCORE.SYSTEM>
0

>  <SCORE.SYSTEM.CONST>
0

>  <SCORE.SYSTEM.DIHEDRAL>
0

>  <SCORE.SYSTEM.SOLV>
0

>  <SCORE.SYSTEM.norm>
0

>  <SCORE.heavy>
16

>  <SCORE.norm>
-1.30295

>  <RMSD>
2.511

$$$$
ligand
 OpenBabel02271912153D
libRbt.so/2013.1/901 2013/11/27
 16 17  0  0  0  0  0  0  0  0999 V2000
    7.4000    6.9544   82.9592 N   0  0  0  0  0  0  0  0  0  0  0  0
    7.5303    5.5555   83.1896 C   0  0  2  0  0  0  0  0  0  0  0  0
    7.8054    4.8007   81.9190 C   0  0  0  0  0  0  0  0  0  0  0  0
    8.9336    4.2786   81.7464 O   0  0  0  0  0  0  0  0  0  0  0  0
    7.1051    0.2876   80.9326 O   0  0  0  0  0  0  0  0  0  0  0  0
    6.2823    5.0003   83.8330 C   0  0  0  0  0  0  0  0  0  0  0  0
    6.5207    3.7048   84.5717 C   0  0  0  0  0  0  0  0  0  0  0  0
    6.5400    3.5605   85.9009 C   0  0  0  0  0  0  0  0  0  0  0  0
    6.7234    2.4770   83.8615 C   0  0  0  0  0  0  0  0  0  0  0  0
    6.8790    1.5048   84.8871 C   0  0  0  0  0  0  0  0  0  0  0  0
    6.7820    2.0956   82.5493 C   0  0  0  0  0  0  0  0  0  0  0  0
    6.7558    2.2418   86.0848 N   0  0  0  0  0  0  0  0  0  0  0  0
    7.0946    0.2038   84.6389 C   0  0  0  0  0  0  0  0  0  0  0  0
    7.0234    0.7169   82.2637 C   0  0  0  0  0  0  0  0  0  0  0  0
    7.1884   -0.2483   83.3192 C   0  0  0  0  0  0  0  0  0  0  0  0
    6.9208    4.7122   81.0416 O   0  0  0  0  0  0  0  0  0  0  0  0
  2  1  1  6  0  0  0
  2  3  1  0  0  0  0
  2  6  1  0  0  0  0
  3  4  1  0  0  0  0
  3 16  1  0  0  0  0
  5 14  1  0  0  0  0
  6  7  1  0  0  0  0
  7  8  2  0  0  0  0
  7  9  1  0  0  0  0
  8 12  1  0  0  0  0
  9 10  2  0  0  0  0
  9 11  1  0  0  0  0
 10 13  1  0  0  0  0
 10 12  1  0  0  0  0
 11 14  2  0  0  0  0
 13 15  2  0  0  0  0
 14 15  1  0  0  0  0
M  END
>  <CHROM.1>
110.70477657,-157.98564947,107.31682628,7.11862408,3.05801703,83.26203542
1.14372036,1.35525503,0.23357947

>  <Name>
ligand

>  <RI>
0

>  <Rbt.Current_Directory>
/home/itssahil/PROJECTS/Mol_Feturizer/Test_systems_manuscript/rnas/5kpy

>  <Rbt.Executable>
rbdock ($Id: //depot/dev/client3/rdock/2013.1/src/exe/rbdock.cxx#4 $)

>  <Rbt.Library>
libRbt.so (2013.1, Build901 2013/11/27)

>  <Rbt.Parameter_File>
/export/apps/rDock/src/rDock_2013.1_src/data/scripts/dock_solv.prm

>  <Rbt.Receptor>
prm/pocket_docking_4.prm

>  <SCORE>
-20.9802

>  <SCORE.INTER>
-20.5594

>  <SCORE.INTER.CONST>
1

>  <SCORE.INTER.POLAR>
0

>  <SCORE.INTER.ROT>
3

>  <SCORE.INTER.SOLV>
5.25757

>  <SCORE.INTER.VDW>
-21.0588

>  <SCORE.INTER.norm>
-1.28496

>  <SCORE.INTRA>
-0.420826

>  <SCORE.INTRA.DIHEDRAL>
1.59997

>  <SCORE.INTRA.DIHEDRAL.0>
3.89056

>  <SCORE.INTRA.POLAR>
0

>  <SCORE.INTRA.POLAR.0>
0

>  <SCORE.INTRA.REPUL>
0

>  <SCORE.INTRA.REPUL.0>
0

>  <SCORE.INTRA.SOLV>
-1.16192

>  <SCORE.INTRA.SOLV.lig_0>
-20.733

>  <SCORE.INTRA.VDW>
-0.639851

>  <SCORE.INTRA.VDW.0>
-0.828515

>  <SCORE.INTRA.norm>
-0.0263016

>  <SCORE.RESTR>
0

>  <SCORE.RESTR.CAVITY>
0

>  <SCORE.RESTR.norm>
0

>  <SCORE.SYSTEM>
0

>  <SCORE.SYSTEM.CONST>
0

>  <SCORE.SYSTEM.DIHEDRAL>
0

>  <SCORE.SYSTEM.SOLV>
0

>  <SCORE.SYSTEM.norm>
0

>  <SCORE.heavy>
16

>  <SCORE.norm>
-1.31126

>  <RMSD>
2.511

$$$$
ligand
 OpenBabel02271912153D
libRbt.so/2013.1/901 2013/11/27
 16 17  0  0  0  0  0  0  0  0999 V2000
    7.3978    6.9485   82.9347 N   0  0  0  0  0  0  0  0  0  0  0  0
    7.5290    5.5501   83.1675 C   0  0  2  0  0  0  0  0  0  0  0  0
    7.7760    4.7899   81.8944 C   0  0  0  0  0  0  0  0  0  0  0  0
    8.8811    4.2199   81.7237 O   0  0  0  0  0  0  0  0  0  0  0  0
    7.1278    0.3194   80.8910 O   0  0  0  0  0  0  0  0  0  0  0  0
    6.2928    5.0008   83.8383 C   0  0  0  0  0  0  0  0  0  0  0  0
    6.5391    3.6994   84.5640 C   0  0  0  0  0  0  0  0  0  0  0  0
    6.5631    3.5427   85.8917 C   0  0  0  0  0  0  0  0  0  0  0  0
    6.7451    2.4794   83.8416 C   0  0  0  0  0  0  0  0  0  0  0  0
    6.9081    1.4982   84.8575 C   0  0  0  0  0  0  0  0  0  0  0  0
    6.8016    2.1106   82.5257 C   0  0  0  0  0  0  0  0  0  0  0  0
    6.7852    2.2233   86.0625 N   0  0  0  0  0  0  0  0  0  0  0  0
    7.1288    0.2005   84.5963 C   0  0  0  0  0  0  0  0  0  0  0  0
    7.0482    0.7358   82.2263 C   0  0  0  0  0  0  0  0  0  0  0  0
    7.2206   -0.2386   83.2722 C   0  0  0  0  0  0  0  0  0  0  0  0
    6.8919    4.7440   81.0133 O   0  0  0  0  0  0  0  0  0  0  0  0
  2  1  1  6  0  0  0
  2  3  1  0  0  0  0
  2  6  1  0  0  0  0
  3  4  1  0  0  0  0
  3 16  1  0  0  0  0
  5 14  1  0  0  0  0
  6  7  1  0  0  0  0
  7  8  2  0  0  0  0
  7  9  1  0  0  0  0
  8 12  1  0  0  0  0
  9 10  2  0  0  0  0
  9 11  1  0  0  0  0
 10 13  1  0  0  0  0
 10 12  1  0  0  0  0
 11 14  2  0  0  0  0
 13 15  2  0  0  0  0
 14 15  1  0  0  0  0
M  END
>  <CHROM.1>
113.46330889,-158.62185906,108.74718500,7.12647571,3.05659282,83.23717468
1.17776685,1.36703886,0.20217376

>  <Name>
ligand

>  <RI>
0

>  <Rbt.Current_Directory>
/home/itssahil/PROJECTS/Mol_Feturizer/Test_systems_manuscript/rnas/5kpy

>  <Rbt.Executable>
rbdock ($Id: //depot/dev/client3/rdock/2013.1/src/exe/rbdock.cxx#4 $)

>  <Rbt.Library>
libRbt.so (2013.1, Build901 2013/11/27)

>  <Rbt.Parameter_File>
/export/apps/rDock/src/rDock_2013.1_src/data/scripts/dock_solv.prm

>  <Rbt.Receptor>
prm/pocket_docking_4.prm

>  <SCORE>
-20.9671

>  <SCORE.INTER>
-20.4942

>  <SCORE.INTER.CONST>
1

>  <SCORE.INTER.POLAR>
0

>  <SCORE.INTER.ROT>
3

>  <SCORE.INTER.SOLV>
5.26739

>  <SCORE.INTER.VDW>
-21.0186

>  <SCORE.INTER.norm>
-1.28089

>  <SCORE.INTRA>
-0.472931

>  <SCORE.INTRA.DIHEDRAL>
1.51198

>  <SCORE.INTRA.DIHEDRAL.0>
3.89056

>  <SCORE.INTRA.POLAR>
0

>  <SCORE.INTRA.POLAR.0>
0

>  <SCORE.INTRA.REPUL>
0

>  <SCORE.INTRA.REPUL.0>
0

>  <SCORE.INTRA.SOLV>
-1.16181

>  <SCORE.INTRA.SOLV.lig_0>
-20.733

>  <SCORE.INTRA.VDW>
-0.648014

>  <SCORE.INTRA.VDW.0>
-0.828515

>  <SCORE.INTRA.norm>
-0.0295582

>  <SCORE.RESTR>
0

>  <SCORE.RESTR.CAVITY>
0

>  <SCORE.RESTR.norm>
0

>  <SCORE.SYSTEM>
0

>  <SCORE.SYSTEM.CONST>
0

>  <SCORE.SYSTEM.DIHEDRAL>
0

>  <SCORE.SYSTEM.SOLV>
0

>  <SCORE.SYSTEM.norm>
0

>  <SCORE.heavy>
16

>  <SCORE.norm>
-1.31044

>  <RMSD>
2.512

$$$$
ligand
 OpenBabel02271912153D
libRbt.so/2013.1/901 2013/11/27
 16 17  0  0  0  0  0  0  0  0999 V2000
    7.3378    4.4433   85.1332 N   0  0  0  0  0  0  0  0  0  0  0  0
    6.0968    3.8130   85.4327 C   0  0  2  0  0  0  0  0  0  0  0  0
    5.3564    4.5246   86.5306 C   0  0  0  0  0  0  0  0  0  0  0  0
    5.9148    4.6879   87.6427 O   0  0  0  0  0  0  0  0  0  0  0  0
    6.9292    4.5978   80.7385 O   0  0  0  0  0  0  0  0  0  0  0  0
    6.3107    2.3734   85.8344 C   0  0  0  0  0  0  0  0  0  0  0  0
    6.8012    1.5063   84.6994 C   0  0  0  0  0  0  0  0  0  0  0  0
    7.0994    0.2058   84.7878 C   0  0  0  0  0  0  0  0  0  0  0  0
    6.9601    2.0396   83.3791 C   0  0  0  0  0  0  0  0  0  0  0  0
    7.4003    0.9296   82.6074 C   0  0  0  0  0  0  0  0  0  0  0  0
    6.7860    3.2569   82.7802 C   0  0  0  0  0  0  0  0  0  0  0  0
    7.4584   -0.1347   83.5331 N   0  0  0  0  0  0  0  0  0  0  0  0
    7.6708    1.0084   81.2954 C   0  0  0  0  0  0  0  0  0  0  0  0
    7.0807    3.3650   81.3866 C   0  0  0  0  0  0  0  0  0  0  0  0
    7.5354    2.2292   80.6276 C   0  0  0  0  0  0  0  0  0  0  0  0
    4.1918    4.9318   86.3357 O   0  0  0  0  0  0  0  0  0  0  0  0
  2  1  1  1  0  0  0
  2  3  1  0  0  0  0
  2  6  1  0  0  0  0
  3  4  1  0  0  0  0
  3 16  1  0  0  0  0
  5 14  1  0  0  0  0
  6  7  1  0  0  0  0
  7  8  2  0  0  0  0
  7  9  1  0  0  0  0
  8 12  1  0  0  0  0
  9 10  2  0  0  0  0
  9 11  1  0  0  0  0
 10 13  1  0  0  0  0
 10 12  1  0  0  0  0
 11 14  2  0  0  0  0
 13 15  2  0  0  0  0
 14 15  1  0  0  0  0
M  END
>  <CHROM.1>
-56.89594192,-67.67263527,178.36332099,6.63335191,2.84031708,84.01055803
2.77511998,-1.22354061,2.28164912

>  <Name>
ligand

>  <RI>
0

>  <Rbt.Current_Directory>
/home/itssahil/PROJECTS/Mol_Feturizer/Test_systems_manuscript/rnas/5kpy

>  <Rbt.Executable>
rbdock ($Id: //depot/dev/client3/rdock/2013.1/src/exe/rbdock.cxx#4 $)

>  <Rbt.Library>
libRbt.so (2013.1, Build901 2013/11/27)

>  <Rbt.Parameter_File>
/export/apps/rDock/src/rDock_2013.1_src/data/scripts/dock_solv.prm

>  <Rbt.Receptor>
prm/pocket_docking_5.prm

>  <SCORE>
-18.8078

>  <SCORE.INTER>
-20.6375

>  <SCORE.INTER.CONST>
1

>  <SCORE.INTER.POLAR>
0

>  <SCORE.INTER.ROT>
3

>  <SCORE.INTER.SOLV>
8.52214

>  <SCORE.INTER.VDW>
-22.199

>  <SCORE.INTER.norm>
-1.28984

>  <SCORE.INTRA>
1.82964

>  <SCORE.INTRA.DIHEDRAL>
0.0957068

>  <SCORE.INTRA.DIHEDRAL.0>
3.89056

>  <SCORE.INTRA.POLAR>
0

>  <SCORE.INTRA.POLAR.0>
0

>  <SCORE.INTRA.REPUL>
0

>  <SCORE.INTRA.REPUL.0>
0

>  <SCORE.INTRA.SOLV>
0.663627

>  <SCORE.INTRA.SOLV.lig_0>
-20.733

>  <SCORE.INTRA.VDW>
1.44998

>  <SCORE.INTRA.VDW.0>
-0.828515

>  <SCORE.INTRA.norm>
0.114353

>  <SCORE.RESTR>
0

>  <SCORE.RESTR.CAVITY>
0

>  <SCORE.RESTR.norm>
0

>  <SCORE.SYSTEM>
0

>  <SCORE.SYSTEM.CONST>
0

>  <SCORE.SYSTEM.DIHEDRAL>
0

>  <SCORE.SYSTEM.SOLV>
0

>  <SCORE.SYSTEM.norm>
0

>  <SCORE.heavy>
16

>  <SCORE.norm>
-1.17549

>  <RMSD>
2.513

$$$$
ligand
 OpenBabel02271912153D
libRbt.so/2013.1/901 2013/11/27
 16 17  0  0  0  0  0  0  0  0999 V2000
    7.4411    6.9336   82.9055 N   0  0  0  0  0  0  0  0  0  0  0  0
    7.5835    5.5414   83.1672 C   0  0  2  0  0  0  0  0  0  0  0  0
    7.9006    4.7652   81.9194 C   0  0  0  0  0  0  0  0  0  0  0  0
    9.0379    4.2509   81.7880 O   0  0  0  0  0  0  0  0  0  0  0  0
    7.0721    0.2781   80.8550 O   0  0  0  0  0  0  0  0  0  0  0  0
    6.3268    4.9824   83.7900 C   0  0  0  0  0  0  0  0  0  0  0  0
    6.5537    3.6794   84.5191 C   0  0  0  0  0  0  0  0  0  0  0  0
    6.5798    3.5265   85.8472 C   0  0  0  0  0  0  0  0  0  0  0  0
    6.7365    2.4537   83.7999 C   0  0  0  0  0  0  0  0  0  0  0  0
    6.8866    1.4732   84.8184 C   0  0  0  0  0  0  0  0  0  0  0  0
    6.7820    2.0798   82.4850 C   0  0  0  0  0  0  0  0  0  0  0  0
    6.7803    2.2041   86.0215 N   0  0  0  0  0  0  0  0  0  0  0  0
    7.0845    0.1712   84.5608 C   0  0  0  0  0  0  0  0  0  0  0  0
    7.0044    0.7000   82.1893 C   0  0  0  0  0  0  0  0  0  0  0  0
    7.1641   -0.2737   83.2377 C   0  0  0  0  0  0  0  0  0  0  0  0
    7.0414    4.6515   81.0199 O   0  0  0  0  0  0  0  0  0  0  0  0
  2  1  1  6  0  0  0
  2  3  1  0  0  0  0
  2  6  1  0  0  0  0
  3  4  1  0  0  0  0
  3 16  1  0  0  0  0
  5 14  1  0  0  0  0
  6  7  1  0  0  0  0
  7  8  2  0  0  0  0
  7  9  1  0  0  0  0
  8 12  1  0  0  0  0
  9 10  2  0  0  0  0
  9 11  1  0  0  0  0
 10 13  1  0  0  0  0
 10 12  1  0  0  0  0
 11 14  2  0  0  0  0
 13 15  2  0  0  0  0
 14 15  1  0  0  0  0
M  END
>  <CHROM.1>
110.95497495,-160.02761186,106.07133561,7.15145331,3.03099308,83.21525292
1.07832129,1.34613362,0.31599255

>  <Name>
ligand

>  <RI>
0

>  <Rbt.Current_Directory>
/home/itssahil/PROJECTS/Mol_Feturizer/Test_systems_manuscript/rnas/5kpy

>  <Rbt.Executable>
rbdock ($Id: //depot/dev/client3/rdock/2013.1/src/exe/rbdock.cxx#4 $)

>  <Rbt.Library>
libRbt.so (2013.1, Build901 2013/11/27)

>  <Rbt.Parameter_File>
/export/apps/rDock/src/rDock_2013.1_src/data/scripts/dock_solv.prm

>  <Rbt.Receptor>
prm/pocket_docking_8.prm

>  <SCORE>
-20.9649

>  <SCORE.INTER>
-20.3957

>  <SCORE.INTER.CONST>
1

>  <SCORE.INTER.POLAR>
0

>  <SCORE.INTER.ROT>
3

>  <SCORE.INTER.SOLV>
5.34454

>  <SCORE.INTER.VDW>
-20.9786

>  <SCORE.INTER.norm>
-1.27473

>  <SCORE.INTRA>
-0.569252

>  <SCORE.INTRA.DIHEDRAL>
1.32982

>  <SCORE.INTRA.DIHEDRAL.0>
3.89056

>  <SCORE.INTRA.POLAR>
0

>  <SCORE.INTRA.POLAR.0>
0

>  <SCORE.INTRA.REPUL>
0

>  <SCORE.INTRA.REPUL.0>
0

>  <SCORE.INTRA.SOLV>
-1.16633

>  <SCORE.INTRA.SOLV.lig_0>
-20.733

>  <SCORE.INTRA.VDW>
-0.650996

>  <SCORE.INTRA.VDW.0>
-0.828515

>  <SCORE.INTRA.norm>
-0.0355782

>  <SCORE.RESTR>
0

>  <SCORE.RESTR.CAVITY>
0

>  <SCORE.RESTR.norm>
0

>  <SCORE.SYSTEM>
0

>  <SCORE.SYSTEM.CONST>
0

>  <SCORE.SYSTEM.DIHEDRAL>
0

>  <SCORE.SYSTEM.SOLV>
0

>  <SCORE.SYSTEM.norm>
0

>  <SCORE.heavy>
16

>  <SCORE.norm>
-1.31031

>  <RMSD>
2.514

$$$$
ligand
 OpenBabel02271912153D
libRbt.so/2013.1/901 2013/11/27
 16 17  0  0  0  0  0  0  0  0999 V2000
    7.3903    6.9187   82.9263 N   0  0  0  0  0  0  0  0  0  0  0  0
    7.5337    5.5272   83.1906 C   0  0  2  0  0  0  0  0  0  0  0  0
    7.8115    4.7436   81.9381 C   0  0  0  0  0  0  0  0  0  0  0  0
    8.9163    4.1621   81.8094 O   0  0  0  0  0  0  0  0  0  0  0  0
    7.1025    0.2720   80.9352 O   0  0  0  0  0  0  0  0  0  0  0  0
    6.2927    4.9771   83.8517 C   0  0  0  0  0  0  0  0  0  0  0  0
    6.5358    3.6799   84.5859 C   0  0  0  0  0  0  0  0  0  0  0  0
    6.5625    3.5323   85.9146 C   0  0  0  0  0  0  0  0  0  0  0  0
    6.7354    2.4540   83.8715 C   0  0  0  0  0  0  0  0  0  0  0  0
    6.8972    1.4794   84.8939 C   0  0  0  0  0  0  0  0  0  0  0  0
    6.7872    2.0758   82.5582 C   0  0  0  0  0  0  0  0  0  0  0  0
    6.7801    2.2134   86.0941 N   0  0  0  0  0  0  0  0  0  0  0  0
    7.1123    0.1791   84.6413 C   0  0  0  0  0  0  0  0  0  0  0  0
    7.0279    0.6980   82.2678 C   0  0  0  0  0  0  0  0  0  0  0  0
    7.1992   -0.2696   83.3201 C   0  0  0  0  0  0  0  0  0  0  0  0
    6.9532    4.6899   81.0323 O   0  0  0  0  0  0  0  0  0  0  0  0
  2  1  1  6  0  0  0
  2  3  1  0  0  0  0
  2  6  1  0  0  0  0
  3  4  1  0  0  0  0
  3 16  1  0  0  0  0
  5 14  1  0  0  0  0
  6  7  1  0  0  0  0
  7  8  2  0  0  0  0
  7  9  1  0  0  0  0
  8 12  1  0  0  0  0
  9 10  2  0  0  0  0
  9 11  1  0  0  0  0
 10 13  1  0  0  0  0
 10 12  1  0  0  0  0
 11 14  2  0  0  0  0
 13 15  2  0  0  0  0
 14 15  1  0  0  0  0
M  END
>  <CHROM.1>
114.83174294,-159.75499981,107.92314983,7.12781829,3.02494114,83.27060362
1.15437021,1.36210448,0.22530876

>  <Name>
ligand

>  <RI>
0

>  <Rbt.Current_Directory>
/home/itssahil/PROJECTS/Mol_Feturizer/Test_systems_manuscript/rnas/5kpy

>  <Rbt.Executable>
rbdock ($Id: //depot/dev/client3/rdock/2013.1/src/exe/rbdock.cxx#4 $)

>  <Rbt.Library>
libRbt.so (2013.1, Build901 2013/11/27)

>  <Rbt.Parameter_File>
/export/apps/rDock/src/rDock_2013.1_src/data/scripts/dock_solv.prm

>  <Rbt.Receptor>
prm/pocket_docking_6.prm

>  <SCORE>
-21.0511

>  <SCORE.INTER>
-20.4762

>  <SCORE.INTER.CONST>
1

>  <SCORE.INTER.POLAR>
0

>  <SCORE.INTER.ROT>
3

>  <SCORE.INTER.SOLV>
5.27254

>  <SCORE.INTER.VDW>
-21.0083

>  <SCORE.INTER.norm>
-1.27976

>  <SCORE.INTRA>
-0.574871

>  <SCORE.INTRA.DIHEDRAL>
1.36543

>  <SCORE.INTRA.DIHEDRAL.0>
3.89056

>  <SCORE.INTRA.POLAR>
0

>  <SCORE.INTRA.POLAR.0>
0

>  <SCORE.INTRA.REPUL>
0

>  <SCORE.INTRA.REPUL.0>
0

>  <SCORE.INTRA.SOLV>
-1.16392

>  <SCORE.INTRA.SOLV.lig_0>
-20.733

>  <SCORE.INTRA.VDW>
-0.675625

>  <SCORE.INTRA.VDW.0>
-0.828515

>  <SCORE.INTRA.norm>
-0.0359294

>  <SCORE.RESTR>
0

>  <SCORE.RESTR.CAVITY>
0

>  <SCORE.RESTR.norm>
0

>  <SCORE.SYSTEM>
0

>  <SCORE.SYSTEM.CONST>
0

>  <SCORE.SYSTEM.DIHEDRAL>
0

>  <SCORE.SYSTEM.SOLV>
0

>  <SCORE.SYSTEM.norm>
0

>  <SCORE.heavy>
16

>  <SCORE.norm>
-1.31569

>  <RMSD>
2.515

$$$$
ligand
 OpenBabel02271912153D
libRbt.so/2013.1/901 2013/11/27
 16 17  0  0  0  0  0  0  0  0999 V2000
    7.3952    6.9190   82.9191 N   0  0  0  0  0  0  0  0  0  0  0  0
    7.5399    5.5279   83.1853 C   0  0  2  0  0  0  0  0  0  0  0  0
    7.8313    4.7446   81.9357 C   0  0  0  0  0  0  0  0  0  0  0  0
    8.9372    4.1626   81.8192 O   0  0  0  0  0  0  0  0  0  0  0  0
    7.1239    0.2644   80.9325 O   0  0  0  0  0  0  0  0  0  0  0  0
    6.2944    4.9746   83.8352 C   0  0  0  0  0  0  0  0  0  0  0  0
    6.5346    3.6791   84.5733 C   0  0  0  0  0  0  0  0  0  0  0  0
    6.5543    3.5342   85.9024 C   0  0  0  0  0  0  0  0  0  0  0  0
    6.7391    2.4520   83.8624 C   0  0  0  0  0  0  0  0  0  0  0  0
    6.8962    1.4795   84.8876 C   0  0  0  0  0  0  0  0  0  0  0  0
    6.7983    2.0712   82.5501 C   0  0  0  0  0  0  0  0  0  0  0  0
    6.7719    2.2158   86.0857 N   0  0  0  0  0  0  0  0  0  0  0  0
    7.1137    0.1789   84.6388 C   0  0  0  0  0  0  0  0  0  0  0  0
    7.0417    0.6930   82.2638 C   0  0  0  0  0  0  0  0  0  0  0  0
    7.2081   -0.2724   83.3189 C   0  0  0  0  0  0  0  0  0  0  0  0
    6.9833    4.6918   81.0203 O   0  0  0  0  0  0  0  0  0  0  0  0
  2  1  1  6  0  0  0
  2  3  1  0  0  0  0
  2  6  1  0  0  0  0
  3  4  1  0  0  0  0
  3 16  1  0  0  0  0
  5 14  1  0  0  0  0
  6  7  1  0  0  0  0
  7  8  2  0  0  0  0
  7  9  1  0  0  0  0
  8 12  1  0  0  0  0
  9 10  2  0  0  0  0
  9 11  1  0  0  0  0
 10 13  1  0  0  0  0
 10 12  1  0  0  0  0
 11 14  2  0  0  0  0
 13 15  2  0  0  0  0
 14 15  1  0  0  0  0
M  END
>  <CHROM.1>
115.05703837,-159.69529854,107.64685582,7.13632661,3.02390018,83.26444567
1.16214349,1.35575328,0.21708974

>  <Name>
ligand

>  <RI>
0

>  <Rbt.Current_Directory>
/home/itssahil/PROJECTS/Mol_Feturizer/Test_systems_manuscript/rnas/5kpy

>  <Rbt.Executable>
rbdock ($Id: //depot/dev/client3/rdock/2013.1/src/exe/rbdock.cxx#4 $)

>  <Rbt.Library>
libRbt.so (2013.1, Build901 2013/11/27)

>  <Rbt.Parameter_File>
/export/apps/rDock/src/rDock_2013.1_src/data/scripts/dock_solv.prm

>  <Rbt.Receptor>
prm/pocket_docking_7.prm

>  <SCORE>
-21.0776

>  <SCORE.INTER>
-20.4909

>  <SCORE.INTER.CONST>
1

>  <SCORE.INTER.POLAR>
0

>  <SCORE.INTER.ROT>
3

>  <SCORE.INTER.SOLV>
5.27888

>  <SCORE.INTER.VDW>
-21.0202

>  <SCORE.INTER.norm>
-1.28068

>  <SCORE.INTRA>
-0.586726

>  <SCORE.INTRA.DIHEDRAL>
1.37463

>  <SCORE.INTRA.DIHEDRAL.0>
3.89056

>  <SCORE.INTRA.POLAR>
0

>  <SCORE.INTRA.POLAR.0>
0

>  <SCORE.INTRA.REPUL>
0

>  <SCORE.INTRA.REPUL.0>
0

>  <SCORE.INTRA.SOLV>
-1.16385

>  <SCORE.INTRA.SOLV.lig_0>
-20.733

>  <SCORE.INTRA.VDW>
-0.692115

>  <SCORE.INTRA.VDW.0>
-0.828515

>  <SCORE.INTRA.norm>
-0.0366704

>  <SCORE.RESTR>
0

>  <SCORE.RESTR.CAVITY>
0

>  <SCORE.RESTR.norm>
0

>  <SCORE.SYSTEM>
0

>  <SCORE.SYSTEM.CONST>
0

>  <SCORE.SYSTEM.DIHEDRAL>
0

>  <SCORE.SYSTEM.SOLV>
0

>  <SCORE.SYSTEM.norm>
0

>  <SCORE.heavy>
16

>  <SCORE.norm>
-1.31735

>  <RMSD>
2.516

$$$$
ligand
 OpenBabel02271912153D
libRbt.so/2013.1/901 2013/11/27
 16 17  0  0  0  0  0  0  0  0999 V2000
    7.3940    6.9089   82.9017 N   0  0  0  0  0  0  0  0  0  0  0  0
    7.5435    5.5218   83.1857 C   0  0  2  0  0  0  0  0  0  0  0  0
    7.8218    4.7215   81.9439 C   0  0  0  0  0  0  0  0  0  0  0  0
    8.9455    4.1812   81.8001 O   0  0  0  0  0  0  0  0  0  0  0  0
    7.0995    0.2711   80.9366 O   0  0  0  0  0  0  0  0  0  0  0  0
    6.3060    4.9764   83.8572 C   0  0  0  0  0  0  0  0  0  0  0  0
    6.5506    3.6788   84.5902 C   0  0  0  0  0  0  0  0  0  0  0  0
    6.5823    3.5310   85.9188 C   0  0  0  0  0  0  0  0  0  0  0  0
    6.7461    2.4529   83.8748 C   0  0  0  0  0  0  0  0  0  0  0  0
    6.9109    1.4779   84.8963 C   0  0  0  0  0  0  0  0  0  0  0  0
    6.7924    2.0749   82.5611 C   0  0  0  0  0  0  0  0  0  0  0  0
    6.7992    2.2117   86.0971 N   0  0  0  0  0  0  0  0  0  0  0  0
    7.1236    0.1774   84.6426 C   0  0  0  0  0  0  0  0  0  0  0  0
    7.0305    0.6969   82.2696 C   0  0  0  0  0  0  0  0  0  0  0  0
    7.2049   -0.2711   83.3209 C   0  0  0  0  0  0  0  0  0  0  0  0
    6.9445    4.6134   81.0615 O   0  0  0  0  0  0  0  0  0  0  0  0
  2  1  1  6  0  0  0
  2  3  1  0  0  0  0
  2  6  1  0  0  0  0
  3  4  1  0  0  0  0
  3 16  1  0  0  0  0
  5 14  1  0  0  0  0
  6  7  1  0  0  0  0
  7  8  2  0  0  0  0
  7  9  1  0  0  0  0
  8 12  1  0  0  0  0
  9 10  2  0  0  0  0
  9 11  1  0  0  0  0
 10 13  1  0  0  0  0
 10 12  1  0  0  0  0
 11 14  2  0  0  0  0
 13 15  2  0  0  0  0
 14 15  1  0  0  0  0
M  END
>  <CHROM.1>
112.35729245,-160.71406377,108.20807135,7.13748877,3.01754723,83.27235831
1.14438669,1.36324641,0.23698739

>  <Name>
ligand

>  <RI>
0

>  <Rbt.Current_Directory>
/home/itssahil/PROJECTS/Mol_Feturizer/Test_systems_manuscript/rnas/5kpy

>  <Rbt.Executable>
rbdock ($Id: //depot/dev/client3/rdock/2013.1/src/exe/rbdock.cxx#4 $)

>  <Rbt.Library>
libRbt.so (2013.1, Build901 2013/11/27)

>  <Rbt.Parameter_File>
/export/apps/rDock/src/rDock_2013.1_src/data/scripts/dock_solv.prm

>  <Rbt.Receptor>
prm/pocket_docking_3.prm

>  <SCORE>
-21.0121

>  <SCORE.INTER>
-20.4639

>  <SCORE.INTER.CONST>
1

>  <SCORE.INTER.POLAR>
0

>  <SCORE.INTER.ROT>
3

>  <SCORE.INTER.SOLV>
5.2831

>  <SCORE.INTER.VDW>
-21.0037

>  <SCORE.INTER.norm>
-1.279

>  <SCORE.INTRA>
-0.548212

>  <SCORE.INTRA.DIHEDRAL>
1.23603

>  <SCORE.INTRA.DIHEDRAL.0>
3.89056

>  <SCORE.INTRA.POLAR>
0

>  <SCORE.INTRA.POLAR.0>
0

>  <SCORE.INTRA.REPUL>
0

>  <SCORE.INTRA.REPUL.0>
0

>  <SCORE.INTRA.SOLV>
-1.16629

>  <SCORE.INTRA.SOLV.lig_0>
-20.733

>  <SCORE.INTRA.VDW>
-0.583086

>  <SCORE.INTRA.VDW.0>
-0.828515

>  <SCORE.INTRA.norm>
-0.0342633

>  <SCORE.RESTR>
0

>  <SCORE.RESTR.CAVITY>
0

>  <SCORE.RESTR.norm>
0

>  <SCORE.SYSTEM>
0

>  <SCORE.SYSTEM.CONST>
0

>  <SCORE.SYSTEM.DIHEDRAL>
0

>  <SCORE.SYSTEM.SOLV>
0

>  <SCORE.SYSTEM.norm>
0

>  <SCORE.heavy>
16

>  <SCORE.norm>
-1.31326

>  <RMSD>
2.517

$$$$
ligand
 OpenBabel02271912153D
libRbt.so/2013.1/901 2013/11/27
 16 17  0  0  0  0  0  0  0  0999 V2000
    7.4000    6.9363   82.9140 N   0  0  0  0  0  0  0  0  0  0  0  0
    7.5436    5.5442   83.1756 C   0  0  2  0  0  0  0  0  0  0  0  0
    7.8418    4.7658   81.9246 C   0  0  0  0  0  0  0  0  0  0  0  0
    8.9508    4.1897   81.8089 O   0  0  0  0  0  0  0  0  0  0  0  0
    7.0979    0.2704   80.9192 O   0  0  0  0  0  0  0  0  0  0  0  0
    6.2948    4.9882   83.8168 C   0  0  0  0  0  0  0  0  0  0  0  0
    6.5326    3.6931   84.5562 C   0  0  0  0  0  0  0  0  0  0  0  0
    6.5559    3.5502   85.8855 C   0  0  0  0  0  0  0  0  0  0  0  0
    6.7303    2.4641   83.8467 C   0  0  0  0  0  0  0  0  0  0  0  0
    6.8871    1.4927   84.8730 C   0  0  0  0  0  0  0  0  0  0  0  0
    6.7840    2.0810   82.5348 C   0  0  0  0  0  0  0  0  0  0  0  0
    6.7693    2.2313   86.0703 N   0  0  0  0  0  0  0  0  0  0  0  0
    7.0990    0.1909   84.6256 C   0  0  0  0  0  0  0  0  0  0  0  0
    7.0215    0.7014   82.2501 C   0  0  0  0  0  0  0  0  0  0  0  0
    7.1876   -0.2629   83.3062 C   0  0  0  0  0  0  0  0  0  0  0  0
    6.9959    4.7110   81.0072 O   0  0  0  0  0  0  0  0  0  0  0  0
  2  1  1  6  0  0  0
  2  3  1  0  0  0  0
  2  6  1  0  0  0  0
  3  4  1  0  0  0  0
  3 16  1  0  0  0  0
  5 14  1  0  0  0  0
  6  7  1  0  0  0  0
  7  8  2  0  0  0  0
  7  9  1  0  0  0  0
  8 12  1  0  0  0  0
  9 10  2  0  0  0  0
  9 11  1  0  0  0  0
 10 13  1  0  0  0  0
 10 12  1  0  0  0  0
 11 14  2  0  0  0  0
 13 15  2  0  0  0  0
 14 15  1  0  0  0  0
M  END
>  <CHROM.1>
114.71536954,-159.44722701,106.97856155,7.13234226,3.03854266,83.25106667
1.13681116,1.35472263,0.24357993

>  <Name>
ligand

>  <RI>
0

>  <Rbt.Current_Directory>
/home/itssahil/PROJECTS/Mol_Feturizer/Test_systems_manuscript/rnas/5kpy

>  <Rbt.Executable>
rbdock ($Id: //depot/dev/client3/rdock/2013.1/src/exe/rbdock.cxx#4 $)

>  <Rbt.Library>
libRbt.so (2013.1, Build901 2013/11/27)

>  <Rbt.Parameter_File>
/export/apps/rDock/src/rDock_2013.1_src/data/scripts/dock_solv.prm

>  <Rbt.Receptor>
prm/pocket_docking_5.prm

>  <SCORE>
-21.0352

>  <SCORE.INTER>
-20.4414

>  <SCORE.INTER.CONST>
1

>  <SCORE.INTER.POLAR>
0

>  <SCORE.INTER.ROT>
3

>  <SCORE.INTER.SOLV>
5.28832

>  <SCORE.INTER.VDW>
-20.9903

>  <SCORE.INTER.norm>
-1.27758

>  <SCORE.INTRA>
-0.593794

>  <SCORE.INTRA.DIHEDRAL>
1.40921

>  <SCORE.INTRA.DIHEDRAL.0>
3.89056

>  <SCORE.INTRA.POLAR>
0

>  <SCORE.INTRA.POLAR.0>
0

>  <SCORE.INTRA.REPUL>
0

>  <SCORE.INTRA.REPUL.0>
0

>  <SCORE.INTRA.SOLV>
-1.16378

>  <SCORE.INTRA.SOLV.lig_0>
-20.733

>  <SCORE.INTRA.VDW>
-0.716513

>  <SCORE.INTRA.VDW.0>
-0.828515

>  <SCORE.INTRA.norm>
-0.0371121

>  <SCORE.RESTR>
0

>  <SCORE.RESTR.CAVITY>
0

>  <SCORE.RESTR.norm>
0

>  <SCORE.SYSTEM>
0

>  <SCORE.SYSTEM.CONST>
0

>  <SCORE.SYSTEM.DIHEDRAL>
0

>  <SCORE.SYSTEM.SOLV>
0

>  <SCORE.SYSTEM.norm>
0

>  <SCORE.heavy>
16

>  <SCORE.norm>
-1.3147

>  <RMSD>
2.517

$$$$
ligand
 OpenBabel02271912153D
libRbt.so/2013.1/901 2013/11/27
 16 17  0  0  0  0  0  0  0  0999 V2000
    7.3961    6.9322   82.8997 N   0  0  0  0  0  0  0  0  0  0  0  0
    7.5473    5.5424   83.1690 C   0  0  2  0  0  0  0  0  0  0  0  0
    7.8502    4.7589   81.9223 C   0  0  0  0  0  0  0  0  0  0  0  0
    6.9940    4.7068   81.0061 O   0  0  0  0  0  0  0  0  0  0  0  0
    7.0875    0.2673   80.9072 O   0  0  0  0  0  0  0  0  0  0  0  0
    6.3013    4.9831   83.8128 C   0  0  0  0  0  0  0  0  0  0  0  0
    6.5437    3.6875   84.5499 C   0  0  0  0  0  0  0  0  0  0  0  0
    6.5750    3.5437   85.8789 C   0  0  0  0  0  0  0  0  0  0  0  0
    6.7373    2.4590   83.8384 C   0  0  0  0  0  0  0  0  0  0  0  0
    6.9004    1.4869   84.8630 C   0  0  0  0  0  0  0  0  0  0  0  0
    6.7832    2.0767   82.5259 C   0  0  0  0  0  0  0  0  0  0  0  0
    6.7897    2.2247   86.0615 N   0  0  0  0  0  0  0  0  0  0  0  0
    7.1110    0.1853   84.6135 C   0  0  0  0  0  0  0  0  0  0  0  0
    7.0190    0.6974   82.2388 C   0  0  0  0  0  0  0  0  0  0  0  0
    7.1917   -0.2676   83.2932 C   0  0  0  0  0  0  0  0  0  0  0  0
    8.9382    4.1551   81.8135 O   0  0  0  0  0  0  0  0  0  0  0  0
  2  1  1  6  0  0  0
  2  3  1  0  0  0  0
  2  6  1  0  0  0  0
  3  4  1  0  0  0  0
  3 16  1  0  0  0  0
  5 14  1  0  0  0  0
  6  7  1  0  0  0  0
  7  8  2  0  0  0  0
  7  9  1  0  0  0  0
  8 12  1  0  0  0  0
  9 10  2  0  0  0  0
  9 11  1  0  0  0  0
 10 13  1  0  0  0  0
 10 12  1  0  0  0  0
 11 14  2  0  0  0  0
 13 15  2  0  0  0  0
 14 15  1  0  0  0  0
M  END
>  <CHROM.1>
-64.14255412,-159.91291806,106.75437864,7.13628193,3.03146735,83.24373156
1.13661943,1.36064279,0.24843076

>  <Name>
ligand

>  <RI>
0

>  <Rbt.Current_Directory>
/home/itssahil/PROJECTS/Mol_Feturizer/Test_systems_manuscript/rnas/5kpy

>  <Rbt.Executable>
rbdock ($Id: //depot/dev/client3/rdock/2013.1/src/exe/rbdock.cxx#4 $)

>  <Rbt.Library>
libRbt.so (2013.1, Build901 2013/11/27)

>  <Rbt.Parameter_File>
/export/apps/rDock/src/rDock_2013.1_src/data/scripts/dock_solv.prm

>  <Rbt.Receptor>
prm/pocket_docking_5.prm

>  <SCORE>
-21.0323

>  <SCORE.INTER>
-20.4233

>  <SCORE.INTER.CONST>
1

>  <SCORE.INTER.POLAR>
0

>  <SCORE.INTER.ROT>
3

>  <SCORE.INTER.SOLV>
5.31696

>  <SCORE.INTER.VDW>
-20.9879

>  <SCORE.INTER.norm>
-1.27646

>  <SCORE.INTRA>
-0.608942

>  <SCORE.INTRA.DIHEDRAL>
1.36449

>  <SCORE.INTRA.DIHEDRAL.0>
3.89056

>  <SCORE.INTRA.POLAR>
0

>  <SCORE.INTRA.POLAR.0>
0

>  <SCORE.INTRA.REPUL>
0

>  <SCORE.INTRA.REPUL.0>
0

>  <SCORE.INTRA.SOLV>
-1.16893

>  <SCORE.INTRA.SOLV.lig_0>
-20.733

>  <SCORE.INTRA.VDW>
-0.706722

>  <SCORE.INTRA.VDW.0>
-0.828515

>  <SCORE.INTRA.norm>
-0.0380589

>  <SCORE.RESTR>
0

>  <SCORE.RESTR.CAVITY>
0

>  <SCORE.RESTR.norm>
0

>  <SCORE.SYSTEM>
0

>  <SCORE.SYSTEM.CONST>
0

>  <SCORE.SYSTEM.DIHEDRAL>
0

>  <SCORE.SYSTEM.SOLV>
0

>  <SCORE.SYSTEM.norm>
0

>  <SCORE.heavy>
16

>  <SCORE.norm>
-1.31452

>  <RMSD>
2.518

$$$$
ligand
 OpenBabel02271912153D
libRbt.so/2013.1/901 2013/11/27
 16 17  0  0  0  0  0  0  0  0999 V2000
    7.4039    6.9336   82.9189 N   0  0  0  0  0  0  0  0  0  0  0  0
    7.5441    5.5406   83.1778 C   0  0  2  0  0  0  0  0  0  0  0  0
    7.8417    4.7641   81.9255 C   0  0  0  0  0  0  0  0  0  0  0  0
    6.9886    4.7312   81.0055 O   0  0  0  0  0  0  0  0  0  0  0  0
    7.1162    0.2624   80.9343 O   0  0  0  0  0  0  0  0  0  0  0  0
    6.2933    4.9862   83.8166 C   0  0  0  0  0  0  0  0  0  0  0  0
    6.5290    3.6931   84.5603 C   0  0  0  0  0  0  0  0  0  0  0  0
    6.5459    3.5535   85.8900 C   0  0  0  0  0  0  0  0  0  0  0  0
    6.7317    2.4626   83.8548 C   0  0  0  0  0  0  0  0  0  0  0  0
    6.8845    1.4939   84.8841 C   0  0  0  0  0  0  0  0  0  0  0  0
    6.7923    2.0765   82.5441 C   0  0  0  0  0  0  0  0  0  0  0  0
    6.7600    2.2352   86.0790 N   0  0  0  0  0  0  0  0  0  0  0  0
    7.0992    0.1917   84.6409 C   0  0  0  0  0  0  0  0  0  0  0  0
    7.0327    0.6965   82.2638 C   0  0  0  0  0  0  0  0  0  0  0  0
    7.1948   -0.2651   83.3230 C   0  0  0  0  0  0  0  0  0  0  0  0
    8.9221    4.1471   81.8156 O   0  0  0  0  0  0  0  0  0  0  0  0
  2  1  1  6  0  0  0
  2  3  1  0  0  0  0
  2  6  1  0  0  0  0
  3  4  1  0  0  0  0
  3 16  1  0  0  0  0
  5 14  1  0  0  0  0
  6  7  1  0  0  0  0
  7  8  2  0  0  0  0
  7  9  1  0  0  0  0
  8 12  1  0  0  0  0
  9 10  2  0  0  0  0
  9 11  1  0  0  0  0
 10 13  1  0  0  0  0
 10 12  1  0  0  0  0
 11 14  2  0  0  0  0
 13 15  2  0  0  0  0
 14 15  1  0  0  0  0
M  END
>  <CHROM.1>
-63.77849927,-159.11589187,107.09854343,7.13125261,3.03544713,83.25837988
1.15529035,1.35433078,0.22297650

>  <Name>
ligand

>  <RI>
0

>  <Rbt.Current_Directory>
/home/itssahil/PROJECTS/Mol_Feturizer/Test_systems_manuscript/rnas/5kpy

>  <Rbt.Executable>
rbdock ($Id: //depot/dev/client3/rdock/2013.1/src/exe/rbdock.cxx#4 $)

>  <Rbt.Library>
libRbt.so (2013.1, Build901 2013/11/27)

>  <Rbt.Parameter_File>
/export/apps/rDock/src/rDock_2013.1_src/data/scripts/dock_solv.prm

>  <Rbt.Receptor>
prm/pocket_docking_7.prm

>  <SCORE>
-21.0337

>  <SCORE.INTER>
-20.4677

>  <SCORE.INTER.CONST>
1

>  <SCORE.INTER.POLAR>
0

>  <SCORE.INTER.ROT>
3

>  <SCORE.INTER.SOLV>
5.28314

>  <SCORE.INTER.VDW>
-21.0062

>  <SCORE.INTER.norm>
-1.27923

>  <SCORE.INTRA>
-0.566011

>  <SCORE.INTRA.DIHEDRAL>
1.46844

>  <SCORE.INTRA.DIHEDRAL.0>
3.89056

>  <SCORE.INTRA.POLAR>
0

>  <SCORE.INTRA.POLAR.0>
0

>  <SCORE.INTRA.REPUL>
0

>  <SCORE.INTRA.REPUL.0>
0

>  <SCORE.INTRA.SOLV>
-1.16709

>  <SCORE.INTRA.SOLV.lig_0>
-20.733

>  <SCORE.INTRA.VDW>
-0.716687

>  <SCORE.INTRA.VDW.0>
-0.828515

>  <SCORE.INTRA.norm>
-0.0353757

>  <SCORE.RESTR>
0

>  <SCORE.RESTR.CAVITY>
0

>  <SCORE.RESTR.norm>
0

>  <SCORE.SYSTEM>
0

>  <SCORE.SYSTEM.CONST>
0

>  <SCORE.SYSTEM.DIHEDRAL>
0

>  <SCORE.SYSTEM.SOLV>
0

>  <SCORE.SYSTEM.norm>
0

>  <SCORE.heavy>
16

>  <SCORE.norm>
-1.31461

>  <RMSD>
2.518

$$$$
ligand
 OpenBabel02271912153D
libRbt.so/2013.1/901 2013/11/27
 16 17  0  0  0  0  0  0  0  0999 V2000
    7.3932    6.9259   82.9060 N   0  0  0  0  0  0  0  0  0  0  0  0
    7.5336    5.5346   83.1736 C   0  0  2  0  0  0  0  0  0  0  0  0
    7.8213    4.7490   81.9246 C   0  0  0  0  0  0  0  0  0  0  0  0
    6.9616    4.7110   81.0109 O   0  0  0  0  0  0  0  0  0  0  0  0
    7.1211    0.2685   80.9361 O   0  0  0  0  0  0  0  0  0  0  0  0
    6.2869    4.9861   83.8253 C   0  0  0  0  0  0  0  0  0  0  0  0
    6.5243    3.6922   84.5671 C   0  0  0  0  0  0  0  0  0  0  0  0
    6.5402    3.5505   85.8966 C   0  0  0  0  0  0  0  0  0  0  0  0
    6.7298    2.4633   83.8598 C   0  0  0  0  0  0  0  0  0  0  0  0
    6.8834    1.4932   84.8876 C   0  0  0  0  0  0  0  0  0  0  0  0
    6.7923    2.0793   82.5485 C   0  0  0  0  0  0  0  0  0  0  0  0
    6.7564    2.2323   86.0836 N   0  0  0  0  0  0  0  0  0  0  0  0
    7.1007    0.1918   84.6425 C   0  0  0  0  0  0  0  0  0  0  0  0
    7.0355    0.7003   82.2662 C   0  0  0  0  0  0  0  0  0  0  0  0
    7.1984   -0.2627   83.3240 C   0  0  0  0  0  0  0  0  0  0  0  0
    8.9001    4.1298   81.8113 O   0  0  0  0  0  0  0  0  0  0  0  0
  2  1  1  6  0  0  0
  2  3  1  0  0  0  0
  2  6  1  0  0  0  0
  3  4  1  0  0  0  0
  3 16  1  0  0  0  0
  5 14  1  0  0  0  0
  6  7  1  0  0  0  0
  7  8  2  0  0  0  0
  7  9  1  0  0  0  0
  8 12  1  0  0  0  0
  9 10  2  0  0  0  0
  9 11  1  0  0  0  0
 10 13  1  0  0  0  0
 10 12  1  0  0  0  0
 11 14  2  0  0  0  0
 13 15  2  0  0  0  0
 14 15  1  0  0  0  0
M  END
>  <CHROM.1>
-63.76259828,-159.56967662,107.83933529,7.12441071,3.03141888,83.26012355
1.17019654,1.35675860,0.20692619

>  <Name>
ligand

>  <RI>
0

>  <Rbt.Current_Directory>
/home/itssahil/PROJECTS/Mol_Feturizer/Test_systems_manuscript/rnas/5kpy

>  <Rbt.Executable>
rbdock ($Id: //depot/dev/client3/rdock/2013.1/src/exe/rbdock.cxx#4 $)

>  <Rbt.Library>
libRbt.so (2013.1, Build901 2013/11/27)

>  <Rbt.Parameter_File>
/export/apps/rDock/src/rDock_2013.1_src/data/scripts/dock_solv.prm

>  <Rbt.Receptor>
prm/pocket_docking_5.prm

>  <SCORE>
-21.0437

>  <SCORE.INTER>
-20.4849

>  <SCORE.INTER.CONST>
1

>  <SCORE.INTER.POLAR>
0

>  <SCORE.INTER.ROT>
3

>  <SCORE.INTER.SOLV>
5.27871

>  <SCORE.INTER.VDW>
-21.0162

>  <SCORE.INTER.norm>
-1.2803

>  <SCORE.INTRA>
-0.558813

>  <SCORE.INTRA.DIHEDRAL>
1.40537

>  <SCORE.INTRA.DIHEDRAL.0>
3.89056

>  <SCORE.INTRA.POLAR>
0

>  <SCORE.INTRA.POLAR.0>
0

>  <SCORE.INTRA.REPUL>
0

>  <SCORE.INTRA.REPUL.0>
0

>  <SCORE.INTRA.SOLV>
-1.16764

>  <SCORE.INTRA.SOLV.lig_0>
-20.733

>  <SCORE.INTRA.VDW>
-0.677679

>  <SCORE.INTRA.VDW.0>
-0.828515

>  <SCORE.INTRA.norm>
-0.0349258

>  <SCORE.RESTR>
0

>  <SCORE.RESTR.CAVITY>
0

>  <SCORE.RESTR.norm>
0

>  <SCORE.SYSTEM>
0

>  <SCORE.SYSTEM.CONST>
0

>  <SCORE.SYSTEM.DIHEDRAL>
0

>  <SCORE.SYSTEM.SOLV>
0

>  <SCORE.SYSTEM.norm>
0

>  <SCORE.heavy>
16

>  <SCORE.norm>
-1.31523

>  <RMSD>
2.519

$$$$
ligand
 OpenBabel02271912153D
libRbt.so/2013.1/901 2013/11/27
 16 17  0  0  0  0  0  0  0  0999 V2000
    7.3566    6.9167   82.9181 N   0  0  0  0  0  0  0  0  0  0  0  0
    7.5114    5.5265   83.1835 C   0  0  2  0  0  0  0  0  0  0  0  0
    7.8135    4.7468   81.9343 C   0  0  0  0  0  0  0  0  0  0  0  0
    8.9145    4.1531   81.8317 O   0  0  0  0  0  0  0  0  0  0  0  0
    7.1356    0.2479   80.9447 O   0  0  0  0  0  0  0  0  0  0  0  0
    6.2679    4.9629   83.8284 C   0  0  0  0  0  0  0  0  0  0  0  0
    6.5169    3.6721   84.5717 C   0  0  0  0  0  0  0  0  0  0  0  0
    6.5361    3.5324   85.9014 C   0  0  0  0  0  0  0  0  0  0  0  0
    6.7313    2.4438   83.8658 C   0  0  0  0  0  0  0  0  0  0  0  0
    6.8944    1.4765   84.8949 C   0  0  0  0  0  0  0  0  0  0  0  0
    6.7948    2.0584   82.5550 C   0  0  0  0  0  0  0  0  0  0  0  0
    6.7634    2.2163   86.0900 N   0  0  0  0  0  0  0  0  0  0  0  0
    7.1219    0.1765   84.6513 C   0  0  0  0  0  0  0  0  0  0  0  0
    7.0487    0.6810   82.2743 C   0  0  0  0  0  0  0  0  0  0  0  0
    7.2211   -0.2791   83.3333 C   0  0  0  0  0  0  0  0  0  0  0  0
    6.9792    4.7083   81.0056 O   0  0  0  0  0  0  0  0  0  0  0  0
  2  1  1  6  0  0  0
  2  3  1  0  0  0  0
  2  6  1  0  0  0  0
  3  4  1  0  0  0  0
  3 16  1  0  0  0  0
  5 14  1  0  0  0  0
  6  7  1  0  0  0  0
  7  8  2  0  0  0  0
  7  9  1  0  0  0  0
  8 12  1  0  0  0  0
  9 10  2  0  0  0  0
  9 11  1  0  0  0  0
 10 13  1  0  0  0  0
 10 12  1  0  0  0  0
 11 14  2  0  0  0  0
 13 15  2  0  0  0  0
 14 15  1  0  0  0  0
M  END
>  <CHROM.1>
116.36249475,-159.41929435,107.35629014,7.12633987,3.01925737,83.26764194
1.19705170,1.35599753,0.17963140

>  <Name>
ligand

>  <RI>
0

>  <Rbt.Current_Directory>
/home/itssahil/PROJECTS/Mol_Feturizer/Test_systems_manuscript/rnas/5kpy

>  <Rbt.Executable>
rbdock ($Id: //depot/dev/client3/rdock/2013.1/src/exe/rbdock.cxx#4 $)

>  <Rbt.Library>
libRbt.so (2013.1, Build901 2013/11/27)

>  <Rbt.Parameter_File>
/export/apps/rDock/src/rDock_2013.1_src/data/scripts/dock_solv.prm

>  <Rbt.Receptor>
prm/pocket_docking_8.prm

>  <SCORE>
-21.025

>  <SCORE.INTER>
-20.4211

>  <SCORE.INTER.CONST>
1

>  <SCORE.INTER.POLAR>
0

>  <SCORE.INTER.ROT>
3

>  <SCORE.INTER.SOLV>
5.30004

>  <SCORE.INTER.VDW>
-20.9807

>  <SCORE.INTER.norm>
-1.27632

>  <SCORE.INTRA>
-0.603943

>  <SCORE.INTRA.DIHEDRAL>
1.41435

>  <SCORE.INTRA.DIHEDRAL.0>
3.89056

>  <SCORE.INTRA.POLAR>
0

>  <SCORE.INTRA.POLAR.0>
0

>  <SCORE.INTRA.REPUL>
0

>  <SCORE.INTRA.REPUL.0>
0

>  <SCORE.INTRA.SOLV>
-1.16304

>  <SCORE.INTRA.SOLV.lig_0>
-20.733

>  <SCORE.INTRA.VDW>
-0.7296

>  <SCORE.INTRA.VDW.0>
-0.828515

>  <SCORE.INTRA.norm>
-0.0377464

>  <SCORE.RESTR>
0

>  <SCORE.RESTR.CAVITY>
0

>  <SCORE.RESTR.norm>
0

>  <SCORE.SYSTEM>
0

>  <SCORE.SYSTEM.CONST>
0

>  <SCORE.SYSTEM.DIHEDRAL>
0

>  <SCORE.SYSTEM.SOLV>
0

>  <SCORE.SYSTEM.norm>
0

>  <SCORE.heavy>
16

>  <SCORE.norm>
-1.31406

>  <RMSD>
2.519

$$$$
ligand
 OpenBabel02271912153D
libRbt.so/2013.1/901 2013/11/27
 16 17  0  0  0  0  0  0  0  0999 V2000
    7.3847    6.9147   82.9079 N   0  0  0  0  0  0  0  0  0  0  0  0
    7.5318    5.5244   83.1772 C   0  0  2  0  0  0  0  0  0  0  0  0
    7.8219    4.7386   81.9290 C   0  0  0  0  0  0  0  0  0  0  0  0
    6.9702    4.7122   81.0075 O   0  0  0  0  0  0  0  0  0  0  0  0
    7.1255    0.2602   80.9314 O   0  0  0  0  0  0  0  0  0  0  0  0
    6.2881    4.9712   83.8307 C   0  0  0  0  0  0  0  0  0  0  0  0
    6.5309    3.6767   84.5697 C   0  0  0  0  0  0  0  0  0  0  0  0
    6.5511    3.5329   85.8989 C   0  0  0  0  0  0  0  0  0  0  0  0
    6.7374    2.4494   83.8598 C   0  0  0  0  0  0  0  0  0  0  0  0
    6.8965    1.4780   84.8856 C   0  0  0  0  0  0  0  0  0  0  0  0
    6.7969    2.0677   82.5477 C   0  0  0  0  0  0  0  0  0  0  0  0
    6.7712    2.2150   86.0832 N   0  0  0  0  0  0  0  0  0  0  0  0
    7.1163    0.1776   84.6378 C   0  0  0  0  0  0  0  0  0  0  0  0
    7.0428    0.6897   82.2625 C   0  0  0  0  0  0  0  0  0  0  0  0
    7.2112   -0.2746   83.3182 C   0  0  0  0  0  0  0  0  0  0  0  0
    8.8948    4.1076   81.8240 O   0  0  0  0  0  0  0  0  0  0  0  0
  2  1  1  6  0  0  0
  2  3  1  0  0  0  0
  2  6  1  0  0  0  0
  3  4  1  0  0  0  0
  3 16  1  0  0  0  0
  5 14  1  0  0  0  0
  6  7  1  0  0  0  0
  7  8  2  0  0  0  0
  7  9  1  0  0  0  0
  8 12  1  0  0  0  0
  9 10  2  0  0  0  0
  9 11  1  0  0  0  0
 10 13  1  0  0  0  0
 10 12  1  0  0  0  0
 11 14  2  0  0  0  0
 13 15  2  0  0  0  0
 14 15  1  0  0  0  0
M  END
>  <CHROM.1>
-62.68027760,-159.78239156,107.78720319,7.12986760,3.01880997,83.26070364
1.18045938,1.35999007,0.19887925

>  <Name>
ligand

>  <RI>
0

>  <Rbt.Current_Directory>
/home/itssahil/PROJECTS/Mol_Feturizer/Test_systems_manuscript/rnas/5kpy

>  <Rbt.Executable>
rbdock ($Id: //depot/dev/client3/rdock/2013.1/src/exe/rbdock.cxx#4 $)

>  <Rbt.Library>
libRbt.so (2013.1, Build901 2013/11/27)

>  <Rbt.Parameter_File>
/export/apps/rDock/src/rDock_2013.1_src/data/scripts/dock_solv.prm

>  <Rbt.Receptor>
prm/pocket_docking_8.prm

>  <SCORE>
-21.0516

>  <SCORE.INTER>
-20.4657

>  <SCORE.INTER.CONST>
1

>  <SCORE.INTER.POLAR>
0

>  <SCORE.INTER.ROT>
3

>  <SCORE.INTER.SOLV>
5.28964

>  <SCORE.INTER.VDW>
-21.007

>  <SCORE.INTER.norm>
-1.27911

>  <SCORE.INTRA>
-0.585852

>  <SCORE.INTRA.DIHEDRAL>
1.37567

>  <SCORE.INTRA.DIHEDRAL.0>
3.89056

>  <SCORE.INTRA.POLAR>
0

>  <SCORE.INTRA.POLAR.0>
0

>  <SCORE.INTRA.REPUL>
0

>  <SCORE.INTRA.REPUL.0>
0

>  <SCORE.INTRA.SOLV>
-1.16752

>  <SCORE.INTRA.SOLV.lig_0>
-20.733

>  <SCORE.INTRA.VDW>
-0.689927

>  <SCORE.INTRA.VDW.0>
-0.828515

>  <SCORE.INTRA.norm>
-0.0366158

>  <SCORE.RESTR>
0

>  <SCORE.RESTR.CAVITY>
0

>  <SCORE.RESTR.norm>
0

>  <SCORE.SYSTEM>
0

>  <SCORE.SYSTEM.CONST>
0

>  <SCORE.SYSTEM.DIHEDRAL>
0

>  <SCORE.SYSTEM.SOLV>
0

>  <SCORE.SYSTEM.norm>
0

>  <SCORE.heavy>
16

>  <SCORE.norm>
-1.31572

>  <RMSD>
2.520

$$$$
ligand
 OpenBabel02271912153D
libRbt.so/2013.1/901 2013/11/27
 16 17  0  0  0  0  0  0  0  0999 V2000
    7.3724    6.9167   82.8951 N   0  0  0  0  0  0  0  0  0  0  0  0
    7.5328    5.5278   83.1635 C   0  0  2  0  0  0  0  0  0  0  0  0
    7.8761    4.7522   81.9224 C   0  0  0  0  0  0  0  0  0  0  0  0
    9.0266    4.2658   81.8003 O   0  0  0  0  0  0  0  0  0  0  0  0
    7.1438    0.2265   80.9069 O   0  0  0  0  0  0  0  0  0  0  0  0
    6.2775    4.9520   83.7738 C   0  0  0  0  0  0  0  0  0  0  0  0
    6.5179    3.6622   84.5218 C   0  0  0  0  0  0  0  0  0  0  0  0
    6.5296    3.5259   85.8519 C   0  0  0  0  0  0  0  0  0  0  0  0
    6.7317    2.4313   83.8202 C   0  0  0  0  0  0  0  0  0  0  0  0
    6.8859    1.4661   84.8526 C   0  0  0  0  0  0  0  0  0  0  0  0
    6.8008    2.0424   82.5107 C   0  0  0  0  0  0  0  0  0  0  0  0
    6.7512    2.2095   86.0451 N   0  0  0  0  0  0  0  0  0  0  0  0
    7.1100    0.1648   84.6136 C   0  0  0  0  0  0  0  0  0  0  0  0
    7.0513    0.6633   82.2349 C   0  0  0  0  0  0  0  0  0  0  0  0
    7.2147   -0.2946   83.2973 C   0  0  0  0  0  0  0  0  0  0  0  0
    7.0250    4.6114   81.0191 O   0  0  0  0  0  0  0  0  0  0  0  0
  2  1  1  6  0  0  0
  2  3  1  0  0  0  0
  2  6  1  0  0  0  0
  3  4  1  0  0  0  0
  3 16  1  0  0  0  0
  5 14  1  0  0  0  0
  6  7  1  0  0  0  0
  7  8  2  0  0  0  0
  7  9  1  0  0  0  0
  8 12  1  0  0  0  0
  9 10  2  0  0  0  0
  9 11  1  0  0  0  0
 10 13  1  0  0  0  0
 10 12  1  0  0  0  0
 11 14  2  0  0  0  0
 13 15  2  0  0  0  0
 14 15  1  0  0  0  0
M  END
>  <CHROM.1>
110.26658336,-159.46385062,105.90498748,7.14335769,3.01233338,83.23377482
1.16606102,1.33850882,0.21801808

>  <Name>
ligand

>  <RI>
0

>  <Rbt.Current_Directory>
/home/itssahil/PROJECTS/Mol_Feturizer/Test_systems_manuscript/rnas/5kpy

>  <Rbt.Executable>
rbdock ($Id: //depot/dev/client3/rdock/2013.1/src/exe/rbdock.cxx#4 $)

>  <Rbt.Library>
libRbt.so (2013.1, Build901 2013/11/27)

>  <Rbt.Parameter_File>
/export/apps/rDock/src/rDock_2013.1_src/data/scripts/dock_solv.prm

>  <Rbt.Receptor>
prm/pocket_docking_3.prm

>  <SCORE>
-21.0052

>  <SCORE.INTER>
-20.4733

>  <SCORE.INTER.CONST>
1

>  <SCORE.INTER.POLAR>
0

>  <SCORE.INTER.ROT>
3

>  <SCORE.INTER.SOLV>
5.33022

>  <SCORE.INTER.VDW>
-21.0256

>  <SCORE.INTER.norm>
-1.27958

>  <SCORE.INTRA>
-0.533622

>  <SCORE.INTRA.DIHEDRAL>
1.4036

>  <SCORE.INTRA.DIHEDRAL.0>
3.89056

>  <SCORE.INTRA.POLAR>
0

>  <SCORE.INTRA.POLAR.0>
0

>  <SCORE.INTRA.REPUL>
0

>  <SCORE.INTRA.REPUL.0>
0

>  <SCORE.INTRA.SOLV>
-1.16553

>  <SCORE.INTRA.SOLV.lig_0>
-20.733

>  <SCORE.INTRA.VDW>
-0.652656

>  <SCORE.INTRA.VDW.0>
-0.828515

>  <SCORE.INTRA.norm>
-0.0333514

>  <SCORE.RESTR>
0.00174388

>  <SCORE.RESTR.CAVITY>
0.00174388

>  <SCORE.RESTR.norm>
0.000108993

>  <SCORE.SYSTEM>
0

>  <SCORE.SYSTEM.CONST>
0

>  <SCORE.SYSTEM.DIHEDRAL>
0

>  <SCORE.SYSTEM.SOLV>
0

>  <SCORE.SYSTEM.norm>
0

>  <SCORE.heavy>
16

>  <SCORE.norm>
-1.31282

>  <RMSD>
2.521

$$$$
ligand
 OpenBabel02271912153D
libRbt.so/2013.1/901 2013/11/27
 16 17  0  0  0  0  0  0  0  0999 V2000
    7.3922    6.9209   82.9057 N   0  0  0  0  0  0  0  0  0  0  0  0
    7.5370    5.5293   83.1692 C   0  0  2  0  0  0  0  0  0  0  0  0
    7.8261    4.7482   81.9178 C   0  0  0  0  0  0  0  0  0  0  0  0
    6.9825    4.7423   80.9885 O   0  0  0  0  0  0  0  0  0  0  0  0
    7.1093    0.2665   80.9117 O   0  0  0  0  0  0  0  0  0  0  0  0
    6.2924    4.9753   83.8202 C   0  0  0  0  0  0  0  0  0  0  0  0
    6.5337    3.6791   84.5567 C   0  0  0  0  0  0  0  0  0  0  0  0
    6.5571    3.5332   85.8856 C   0  0  0  0  0  0  0  0  0  0  0  0
    6.7350    2.4523   83.8443 C   0  0  0  0  0  0  0  0  0  0  0  0
    6.8942    1.4790   84.8683 C   0  0  0  0  0  0  0  0  0  0  0  0
    6.7900    2.0724   82.5315 C   0  0  0  0  0  0  0  0  0  0  0  0
    6.7742    2.2144   86.0673 N   0  0  0  0  0  0  0  0  0  0  0  0
    7.1099    0.1783   84.6179 C   0  0  0  0  0  0  0  0  0  0  0  0
    7.0314    0.6942   82.2436 C   0  0  0  0  0  0  0  0  0  0  0  0
    7.2000   -0.2721   83.2974 C   0  0  0  0  0  0  0  0  0  0  0  0
    8.8897    4.1010   81.8178 O   0  0  0  0  0  0  0  0  0  0  0  0
  2  1  1  6  0  0  0
  2  3  1  0  0  0  0
  2  6  1  0  0  0  0
  3  4  1  0  0  0  0
  3 16  1  0  0  0  0
  5 14  1  0  0  0  0
  6  7  1  0  0  0  0
  7  8  2  0  0  0  0
  7  9  1  0  0  0  0
  8 12  1  0  0  0  0
  9 10  2  0  0  0  0
  9 11  1  0  0  0  0
 10 13  1  0  0  0  0
 10 12  1  0  0  0  0
 11 14  2  0  0  0  0
 13 15  2  0  0  0  0
 14 15  1  0  0  0  0
M  END
>  <CHROM.1>
-61.69194149,-159.64580862,107.53922194,7.12891413,3.02365688,83.24659239
1.16471453,1.36162647,0.21641793

>  <Name>
ligand

>  <RI>
0

>  <Rbt.Current_Directory>
/home/itssahil/PROJECTS/Mol_Feturizer/Test_systems_manuscript/rnas/5kpy

>  <Rbt.Executable>
rbdock ($Id: //depot/dev/client3/rdock/2013.1/src/exe/rbdock.cxx#4 $)

>  <Rbt.Library>
libRbt.so (2013.1, Build901 2013/11/27)

>  <Rbt.Parameter_File>
/export/apps/rDock/src/rDock_2013.1_src/data/scripts/dock_solv.prm

>  <Rbt.Receptor>
prm/pocket_docking_5.prm

>  <SCORE>
-21.0348

>  <SCORE.INTER>
-20.4321

>  <SCORE.INTER.CONST>
1

>  <SCORE.INTER.POLAR>
0

>  <SCORE.INTER.ROT>
3

>  <SCORE.INTER.SOLV>
5.2961

>  <SCORE.INTER.VDW>
-20.9867

>  <SCORE.INTER.norm>
-1.277

>  <SCORE.INTRA>
-0.602703

>  <SCORE.INTRA.DIHEDRAL>
1.39288

>  <SCORE.INTRA.DIHEDRAL.0>
3.89056

>  <SCORE.INTRA.POLAR>
0

>  <SCORE.INTRA.POLAR.0>
0

>  <SCORE.INTRA.REPUL>
0

>  <SCORE.INTRA.REPUL.0>
0

>  <SCORE.INTRA.SOLV>
-1.16686

>  <SCORE.INTRA.SOLV.lig_0>
-20.733

>  <SCORE.INTRA.VDW>
-0.715712

>  <SCORE.INTRA.VDW.0>
-0.828515

>  <SCORE.INTRA.norm>
-0.0376689

>  <SCORE.RESTR>
0

>  <SCORE.RESTR.CAVITY>
0

>  <SCORE.RESTR.norm>
0

>  <SCORE.SYSTEM>
0

>  <SCORE.SYSTEM.CONST>
0

>  <SCORE.SYSTEM.DIHEDRAL>
0

>  <SCORE.SYSTEM.SOLV>
0

>  <SCORE.SYSTEM.norm>
0

>  <SCORE.heavy>
16

>  <SCORE.norm>
-1.31467

>  <RMSD>
2.521

$$$$
ligand
 OpenBabel02271912153D
libRbt.so/2013.1/901 2013/11/27
 16 17  0  0  0  0  0  0  0  0999 V2000
    7.3793    6.9425   82.9344 N   0  0  0  0  0  0  0  0  0  0  0  0
    7.5146    5.5453   83.1719 C   0  0  2  0  0  0  0  0  0  0  0  0
    7.7840    4.7840   81.9039 C   0  0  0  0  0  0  0  0  0  0  0  0
    6.9233    4.7877   80.9904 O   0  0  0  0  0  0  0  0  0  0  0  0
    7.0863    0.2749   80.9278 O   0  0  0  0  0  0  0  0  0  0  0  0
    6.2720    4.9905   83.8260 C   0  0  0  0  0  0  0  0  0  0  0  0
    6.5168    3.6965   84.5652 C   0  0  0  0  0  0  0  0  0  0  0  0
    6.5441    3.5542   85.8945 C   0  0  0  0  0  0  0  0  0  0  0  0
    6.7176    2.4681   83.8556 C   0  0  0  0  0  0  0  0  0  0  0  0
    6.8808    1.4976   84.8817 C   0  0  0  0  0  0  0  0  0  0  0  0
    6.7694    2.0848   82.5437 C   0  0  0  0  0  0  0  0  0  0  0  0
    6.7632    2.2362   86.0791 N   0  0  0  0  0  0  0  0  0  0  0  0
    7.0973    0.1966   84.6342 C   0  0  0  0  0  0  0  0  0  0  0  0
    7.0116    0.7061   82.2587 C   0  0  0  0  0  0  0  0  0  0  0  0
    7.1842   -0.2572   83.3147 C   0  0  0  0  0  0  0  0  0  0  0  0
    8.8484    4.1434   81.7747 O   0  0  0  0  0  0  0  0  0  0  0  0
  2  1  1  6  0  0  0
  2  3  1  0  0  0  0
  2  6  1  0  0  0  0
  3  4  1  0  0  0  0
  3 16  1  0  0  0  0
  5 14  1  0  0  0  0
  6  7  1  0  0  0  0
  7  8  2  0  0  0  0
  7  9  1  0  0  0  0
  8 12  1  0  0  0  0
  9 10  2  0  0  0  0
  9 11  1  0  0  0  0
 10 13  1  0  0  0  0
 10 12  1  0  0  0  0
 11 14  2  0  0  0  0
 13 15  2  0  0  0  0
 14 15  1  0  0  0  0
M  END
>  <CHROM.1>
-62.59962244,-158.24879783,107.45132624,7.10549505,3.04523314,83.25300244
1.16365349,1.36700020,0.21218768

>  <Name>
ligand

>  <RI>
0

>  <Rbt.Current_Directory>
/home/itssahil/PROJECTS/Mol_Feturizer/Test_systems_manuscript/rnas/5kpy

>  <Rbt.Executable>
rbdock ($Id: //depot/dev/client3/rdock/2013.1/src/exe/rbdock.cxx#4 $)

>  <Rbt.Library>
libRbt.so (2013.1, Build901 2013/11/27)

>  <Rbt.Parameter_File>
/export/apps/rDock/src/rDock_2013.1_src/data/scripts/dock_solv.prm

>  <Rbt.Receptor>
prm/pocket_docking_5.prm

>  <SCORE>
-20.9672

>  <SCORE.INTER>
-20.4407

>  <SCORE.INTER.CONST>
1

>  <SCORE.INTER.POLAR>
0

>  <SCORE.INTER.ROT>
3

>  <SCORE.INTER.SOLV>
5.26877

>  <SCORE.INTER.VDW>
-20.9834

>  <SCORE.INTER.norm>
-1.27754

>  <SCORE.INTRA>
-0.526517

>  <SCORE.INTRA.DIHEDRAL>
1.58297

>  <SCORE.INTRA.DIHEDRAL.0>
3.89056

>  <SCORE.INTRA.POLAR>
0

>  <SCORE.INTRA.POLAR.0>
0

>  <SCORE.INTRA.REPUL>
0

>  <SCORE.INTRA.REPUL.0>
0

>  <SCORE.INTRA.SOLV>
-1.16465

>  <SCORE.INTRA.SOLV.lig_0>
-20.733

>  <SCORE.INTRA.VDW>
-0.73568

>  <SCORE.INTRA.VDW.0>
-0.828515

>  <SCORE.INTRA.norm>
-0.0329073

>  <SCORE.RESTR>
0

>  <SCORE.RESTR.CAVITY>
0

>  <SCORE.RESTR.norm>
0

>  <SCORE.SYSTEM>
0

>  <SCORE.SYSTEM.CONST>
0

>  <SCORE.SYSTEM.DIHEDRAL>
0

>  <SCORE.SYSTEM.SOLV>
0

>  <SCORE.SYSTEM.norm>
0

>  <SCORE.heavy>
16

>  <SCORE.norm>
-1.31045

>  <RMSD>
2.521

$$$$
ligand
 OpenBabel02271912153D
libRbt.so/2013.1/901 2013/11/27
 16 17  0  0  0  0  0  0  0  0999 V2000
    7.4014    6.9212   82.9057 N   0  0  0  0  0  0  0  0  0  0  0  0
    7.5430    5.5289   83.1672 C   0  0  2  0  0  0  0  0  0  0  0  0
    7.8271    4.7484   81.9143 C   0  0  0  0  0  0  0  0  0  0  0  0
    8.9192    4.1397   81.8038 O   0  0  0  0  0  0  0  0  0  0  0  0
    7.1035    0.2712   80.9047 O   0  0  0  0  0  0  0  0  0  0  0  0
    6.2984    4.9775   83.8204 C   0  0  0  0  0  0  0  0  0  0  0  0
    6.5379    3.6798   84.5549 C   0  0  0  0  0  0  0  0  0  0  0  0
    6.5622    3.5321   85.8836 C   0  0  0  0  0  0  0  0  0  0  0  0
    6.7361    2.4536   83.8407 C   0  0  0  0  0  0  0  0  0  0  0  0
    6.8945    1.4786   84.8631 C   0  0  0  0  0  0  0  0  0  0  0  0
    6.7892    2.0755   82.5273 C   0  0  0  0  0  0  0  0  0  0  0  0
    6.7769    2.2126   86.0633 N   0  0  0  0  0  0  0  0  0  0  0  0
    7.1074    0.1779   84.6108 C   0  0  0  0  0  0  0  0  0  0  0  0
    7.0276    0.6972   82.2372 C   0  0  0  0  0  0  0  0  0  0  0  0
    7.1954   -0.2709   83.2896 C   0  0  0  0  0  0  0  0  0  0  0  0
    6.9872    4.7241   80.9902 O   0  0  0  0  0  0  0  0  0  0  0  0
  2  1  1  6  0  0  0
  2  3  1  0  0  0  0
  2  6  1  0  0  0  0
  3  4  1  0  0  0  0
  3 16  1  0  0  0  0
  5 14  1  0  0  0  0
  6  7  1  0  0  0  0
  7  8  2  0  0  0  0
  7  9  1  0  0  0  0
  8 12  1  0  0  0  0
  9 10  2  0  0  0  0
  9 11  1  0  0  0  0
 10 13  1  0  0  0  0
 10 12  1  0  0  0  0
 11 14  2  0  0  0  0
 13 15  2  0  0  0  0
 14 15  1  0  0  0  0
M  END
>  <CHROM.1>
116.57831827,-159.64402729,107.62854431,7.13264530,3.02600766,83.24238590
1.14737158,1.35982864,0.23304283

>  <Name>
ligand

>  <RI>
0

>  <Rbt.Current_Directory>
/home/itssahil/PROJECTS/Mol_Feturizer/Test_systems_manuscript/rnas/5kpy

>  <Rbt.Executable>
rbdock ($Id: //depot/dev/client3/rdock/2013.1/src/exe/rbdock.cxx#4 $)

>  <Rbt.Library>
libRbt.so (2013.1, Build901 2013/11/27)

>  <Rbt.Parameter_File>
/export/apps/rDock/src/rDock_2013.1_src/data/scripts/dock_solv.prm

>  <Rbt.Receptor>
prm/pocket_docking_8.prm

>  <SCORE>
-21.0644

>  <SCORE.INTER>
-20.4577

>  <SCORE.INTER.CONST>
1

>  <SCORE.INTER.POLAR>
0

>  <SCORE.INTER.ROT>
3

>  <SCORE.INTER.SOLV>
5.29557

>  <SCORE.INTER.VDW>
-21.0036

>  <SCORE.INTER.norm>
-1.2786

>  <SCORE.INTRA>
-0.606743

>  <SCORE.INTRA.DIHEDRAL>
1.38398

>  <SCORE.INTRA.DIHEDRAL.0>
3.89056

>  <SCORE.INTRA.POLAR>
0

>  <SCORE.INTRA.POLAR.0>
0

>  <SCORE.INTRA.REPUL>
0

>  <SCORE.INTRA.REPUL.0>
0

>  <SCORE.INTRA.SOLV>
-1.16328

>  <SCORE.INTRA.SOLV.lig_0>
-20.733

>  <SCORE.INTRA.VDW>
-0.717094

>  <SCORE.INTRA.VDW.0>
-0.828515

>  <SCORE.INTRA.norm>
-0.0379214

>  <SCORE.RESTR>
0

>  <SCORE.RESTR.CAVITY>
0

>  <SCORE.RESTR.norm>
0

>  <SCORE.SYSTEM>
0

>  <SCORE.SYSTEM.CONST>
0

>  <SCORE.SYSTEM.DIHEDRAL>
0

>  <SCORE.SYSTEM.SOLV>
0

>  <SCORE.SYSTEM.norm>
0

>  <SCORE.heavy>
16

>  <SCORE.norm>
-1.31652

>  <RMSD>
2.521

$$$$
ligand
 OpenBabel02271912153D
libRbt.so/2013.1/901 2013/11/27
 16 17  0  0  0  0  0  0  0  0999 V2000
    7.2995    6.9065   82.8610 N   0  0  0  0  0  0  0  0  0  0  0  0
    7.4759    5.5270   83.1656 C   0  0  2  0  0  0  0  0  0  0  0  0
    7.7767    4.7149   81.9369 C   0  0  0  0  0  0  0  0  0  0  0  0
    6.9037    4.6088   81.0415 O   0  0  0  0  0  0  0  0  0  0  0  0
    7.0735    0.2613   80.9268 O   0  0  0  0  0  0  0  0  0  0  0  0
    6.2466    4.9659   83.8392 C   0  0  0  0  0  0  0  0  0  0  0  0
    6.5095    3.6731   84.5742 C   0  0  0  0  0  0  0  0  0  0  0  0
    6.5506    3.5293   85.9030 C   0  0  0  0  0  0  0  0  0  0  0  0
    6.7139    2.4474   83.8610 C   0  0  0  0  0  0  0  0  0  0  0  0
    6.8952    1.4770   84.8842 C   0  0  0  0  0  0  0  0  0  0  0  0
    6.7565    2.0662   82.5481 C   0  0  0  0  0  0  0  0  0  0  0  0
    6.7827    2.2129   86.0836 N   0  0  0  0  0  0  0  0  0  0  0  0
    7.1204    0.1782   84.6328 C   0  0  0  0  0  0  0  0  0  0  0  0
    7.0078    0.6900   82.2590 C   0  0  0  0  0  0  0  0  0  0  0  0
    7.1987   -0.2731   83.3119 C   0  0  0  0  0  0  0  0  0  0  0  0
    8.8803    4.1410   81.8228 O   0  0  0  0  0  0  0  0  0  0  0  0
  2  1  1  6  0  0  0
  2  3  1  0  0  0  0
  2  6  1  0  0  0  0
  3  4  1  0  0  0  0
  3 16  1  0  0  0  0
  5 14  1  0  0  0  0
  6  7  1  0  0  0  0
  7  8  2  0  0  0  0
  7  9  1  0  0  0  0
  8 12  1  0  0  0  0
  9 10  2  0  0  0  0
  9 11  1  0  0  0  0
 10 13  1  0  0  0  0
 10 12  1  0  0  0  0
 11 14  2  0  0  0  0
 13 15  2  0  0  0  0
 14 15  1  0  0  0  0
M  END
>  <CHROM.1>
-65.16300630,-161.59773197,107.86782292,7.09871672,3.01084126,83.25970733
1.19843193,1.37051723,0.18678272

>  <Name>
ligand

>  <RI>
0

>  <Rbt.Current_Directory>
/home/itssahil/PROJECTS/Mol_Feturizer/Test_systems_manuscript/rnas/5kpy

>  <Rbt.Executable>
rbdock ($Id: //depot/dev/client3/rdock/2013.1/src/exe/rbdock.cxx#4 $)

>  <Rbt.Library>
libRbt.so (2013.1, Build901 2013/11/27)

>  <Rbt.Parameter_File>
/export/apps/rDock/src/rDock_2013.1_src/data/scripts/dock_solv.prm

>  <Rbt.Receptor>
prm/pocket_docking_3.prm

>  <SCORE>
-20.9523

>  <SCORE.INTER>
-20.349

>  <SCORE.INTER.CONST>
1

>  <SCORE.INTER.POLAR>
0

>  <SCORE.INTER.ROT>
3

>  <SCORE.INTER.SOLV>
5.43168

>  <SCORE.INTER.VDW>
-20.9765

>  <SCORE.INTER.norm>
-1.27181

>  <SCORE.INTRA>
-0.603319

>  <SCORE.INTRA.DIHEDRAL>
1.14752

>  <SCORE.INTRA.DIHEDRAL.0>
3.89056

>  <SCORE.INTRA.POLAR>
0

>  <SCORE.INTRA.POLAR.0>
0

>  <SCORE.INTRA.REPUL>
0

>  <SCORE.INTRA.REPUL.0>
0

>  <SCORE.INTRA.SOLV>
-1.17195

>  <SCORE.INTRA.SOLV.lig_0>
-20.733

>  <SCORE.INTRA.VDW>
-0.591101

>  <SCORE.INTRA.VDW.0>
-0.828515

>  <SCORE.INTRA.norm>
-0.0377074

>  <SCORE.RESTR>
0

>  <SCORE.RESTR.CAVITY>
0

>  <SCORE.RESTR.norm>
0

>  <SCORE.SYSTEM>
0

>  <SCORE.SYSTEM.CONST>
0

>  <SCORE.SYSTEM.DIHEDRAL>
0

>  <SCORE.SYSTEM.SOLV>
0

>  <SCORE.SYSTEM.norm>
0

>  <SCORE.heavy>
16

>  <SCORE.norm>
-1.30952

>  <RMSD>
2.522

$$$$
ligand
 OpenBabel02271912153D
libRbt.so/2013.1/901 2013/11/27
 16 17  0  0  0  0  0  0  0  0999 V2000
    7.3966    6.9243   82.8965 N   0  0  0  0  0  0  0  0  0  0  0  0
    7.5426    5.5333   83.1625 C   0  0  2  0  0  0  0  0  0  0  0  0
    7.8337    4.7503   81.9126 C   0  0  0  0  0  0  0  0  0  0  0  0
    6.9771    4.7152   80.9960 O   0  0  0  0  0  0  0  0  0  0  0  0
    7.0963    0.2680   80.9033 O   0  0  0  0  0  0  0  0  0  0  0  0
    6.2979    4.9791   83.8132 C   0  0  0  0  0  0  0  0  0  0  0  0
    6.5391    3.6826   84.5492 C   0  0  0  0  0  0  0  0  0  0  0  0
    6.5666    3.5370   85.8781 C   0  0  0  0  0  0  0  0  0  0  0  0
    6.7357    2.4552   83.8365 C   0  0  0  0  0  0  0  0  0  0  0  0
    6.8965    1.4819   84.8603 C   0  0  0  0  0  0  0  0  0  0  0  0
    6.7858    2.0749   82.5237 C   0  0  0  0  0  0  0  0  0  0  0  0
    6.7817    2.2179   86.0594 N   0  0  0  0  0  0  0  0  0  0  0  0
    7.1088    0.1808   84.6095 C   0  0  0  0  0  0  0  0  0  0  0  0
    7.0236    0.6962   82.2353 C   0  0  0  0  0  0  0  0  0  0  0  0
    7.1938   -0.2702   83.2889 C   0  0  0  0  0  0  0  0  0  0  0  0
    8.9123    4.1303   81.8016 O   0  0  0  0  0  0  0  0  0  0  0  0
  2  1  1  6  0  0  0
  2  3  1  0  0  0  0
  2  6  1  0  0  0  0
  3  4  1  0  0  0  0
  3 16  1  0  0  0  0
  5 14  1  0  0  0  0
  6  7  1  0  0  0  0
  7  8  2  0  0  0  0
  7  9  1  0  0  0  0
  8 12  1  0  0  0  0
  9 10  2  0  0  0  0
  9 11  1  0  0  0  0
 10 13  1  0  0  0  0
 10 12  1  0  0  0  0
 11 14  2  0  0  0  0
 13 15  2  0  0  0  0
 14 15  1  0  0  0  0
M  END
>  <CHROM.1>
-63.42038629,-159.78701867,107.31723492,7.13110385,3.02624577,83.23936289
1.14826955,1.36179172,0.23460608

>  <Name>
ligand

>  <RI>
0

>  <Rbt.Current_Directory>
/home/itssahil/PROJECTS/Mol_Feturizer/Test_systems_manuscript/rnas/5kpy

>  <Rbt.Executable>
rbdock ($Id: //depot/dev/client3/rdock/2013.1/src/exe/rbdock.cxx#4 $)

>  <Rbt.Library>
libRbt.so (2013.1, Build901 2013/11/27)

>  <Rbt.Parameter_File>
/export/apps/rDock/src/rDock_2013.1_src/data/scripts/dock_solv.prm

>  <Rbt.Receptor>
prm/pocket_docking_7.prm

>  <SCORE>
-21.0413

>  <SCORE.INTER>
-20.4466

>  <SCORE.INTER.CONST>
1

>  <SCORE.INTER.POLAR>
0

>  <SCORE.INTER.ROT>
3

>  <SCORE.INTER.SOLV>
5.30935

>  <SCORE.INTER.VDW>
-21.0009

>  <SCORE.INTER.norm>
-1.27792

>  <SCORE.INTRA>
-0.59465

>  <SCORE.INTRA.DIHEDRAL>
1.37792

>  <SCORE.INTRA.DIHEDRAL.0>
3.89056

>  <SCORE.INTRA.POLAR>
0

>  <SCORE.INTRA.POLAR.0>
0

>  <SCORE.INTRA.REPUL>
0

>  <SCORE.INTRA.REPUL.0>
0

>  <SCORE.INTRA.SOLV>
-1.1681

>  <SCORE.INTRA.SOLV.lig_0>
-20.733

>  <SCORE.INTRA.VDW>
-0.699562

>  <SCORE.INTRA.VDW.0>
-0.828515

>  <SCORE.INTRA.norm>
-0.0371657

>  <SCORE.RESTR>
0

>  <SCORE.RESTR.CAVITY>
0

>  <SCORE.RESTR.norm>
0

>  <SCORE.SYSTEM>
0

>  <SCORE.SYSTEM.CONST>
0

>  <SCORE.SYSTEM.DIHEDRAL>
0

>  <SCORE.SYSTEM.SOLV>
0

>  <SCORE.SYSTEM.norm>
0

>  <SCORE.heavy>
16

>  <SCORE.norm>
-1.31508

>  <RMSD>
2.522

$$$$
ligand
 OpenBabel02271912153D
libRbt.so/2013.1/901 2013/11/27
 16 17  0  0  0  0  0  0  0  0999 V2000
    7.3199    6.9210   82.9489 N   0  0  0  0  0  0  0  0  0  0  0  0
    7.4614    5.5212   83.1671 C   0  0  2  0  0  0  0  0  0  0  0  0
    7.7040    4.7750   81.8849 C   0  0  0  0  0  0  0  0  0  0  0  0
    6.8154    4.7713   80.9985 O   0  0  0  0  0  0  0  0  0  0  0  0
    7.1160    0.2793   80.9029 O   0  0  0  0  0  0  0  0  0  0  0  0
    6.2336    4.9576   83.8413 C   0  0  0  0  0  0  0  0  0  0  0  0
    6.4978    3.6612   84.5694 C   0  0  0  0  0  0  0  0  0  0  0  0
    6.5278    3.5080   85.8974 C   0  0  0  0  0  0  0  0  0  0  0  0
    6.7163    2.4419   83.8493 C   0  0  0  0  0  0  0  0  0  0  0  0
    6.8943    1.4653   84.8671 C   0  0  0  0  0  0  0  0  0  0  0  0
    6.7732    2.0705   82.5342 C   0  0  0  0  0  0  0  0  0  0  0  0
    6.7664    2.1918   86.0708 N   0  0  0  0  0  0  0  0  0  0  0  0
    7.1298    0.1697   84.6085 C   0  0  0  0  0  0  0  0  0  0  0  0
    7.0356    0.6980   82.2375 C   0  0  0  0  0  0  0  0  0  0  0  0
    7.2229   -0.2715   83.2852 C   0  0  0  0  0  0  0  0  0  0  0  0
    8.7746    4.1539   81.7172 O   0  0  0  0  0  0  0  0  0  0  0  0
  2  1  1  6  0  0  0
  2  3  1  0  0  0  0
  2  6  1  0  0  0  0
  3  4  1  0  0  0  0
  3 16  1  0  0  0  0
  5 14  1  0  0  0  0
  6  7  1  0  0  0  0
  7  8  2  0  0  0  0
  7  9  1  0  0  0  0
  8 12  1  0  0  0  0
  9 10  2  0  0  0  0
  9 11  1  0  0  0  0
 10 13  1  0  0  0  0
 10 12  1  0  0  0  0
 11 14  2  0  0  0  0
 13 15  2  0  0  0  0
 14 15  1  0  0  0  0
M  END
>  <CHROM.1>
-63.69453022,-157.77911297,108.65930517,7.08419390,3.02502108,83.24175412
1.24556053,1.37701120,0.13263957

>  <Name>
ligand

>  <RI>
0

>  <Rbt.Current_Directory>
/home/itssahil/PROJECTS/Mol_Feturizer/Test_systems_manuscript/rnas/5kpy

>  <Rbt.Executable>
rbdock ($Id: //depot/dev/client3/rdock/2013.1/src/exe/rbdock.cxx#4 $)

>  <Rbt.Library>
libRbt.so (2013.1, Build901 2013/11/27)

>  <Rbt.Parameter_File>
/export/apps/rDock/src/rDock_2013.1_src/data/scripts/dock_solv.prm

>  <Rbt.Receptor>
prm/pocket_docking_4.prm

>  <SCORE>
-20.8504

>  <SCORE.INTER>
-20.4074

>  <SCORE.INTER.CONST>
1

>  <SCORE.INTER.POLAR>
0

>  <SCORE.INTER.ROT>
3

>  <SCORE.INTER.SOLV>
5.30185

>  <SCORE.INTER.VDW>
-20.9722

>  <SCORE.INTER.norm>
-1.27546

>  <SCORE.INTRA>
-0.442982

>  <SCORE.INTRA.DIHEDRAL>
1.64538

>  <SCORE.INTRA.DIHEDRAL.0>
3.89056

>  <SCORE.INTRA.POLAR>
0

>  <SCORE.INTRA.POLAR.0>
0

>  <SCORE.INTRA.REPUL>
0

>  <SCORE.INTRA.REPUL.0>
0

>  <SCORE.INTRA.SOLV>
-1.16374

>  <SCORE.INTRA.SOLV.lig_0>
-20.733

>  <SCORE.INTRA.VDW>
-0.683803

>  <SCORE.INTRA.VDW.0>
-0.828515

>  <SCORE.INTRA.norm>
-0.0276864

>  <SCORE.RESTR>
0

>  <SCORE.RESTR.CAVITY>
0

>  <SCORE.RESTR.norm>
0

>  <SCORE.SYSTEM>
0

>  <SCORE.SYSTEM.CONST>
0

>  <SCORE.SYSTEM.DIHEDRAL>
0

>  <SCORE.SYSTEM.SOLV>
0

>  <SCORE.SYSTEM.norm>
0

>  <SCORE.heavy>
16

>  <SCORE.norm>
-1.30315

>  <RMSD>
2.523

$$$$
ligand
 OpenBabel02271912153D
libRbt.so/2013.1/901 2013/11/27
 16 17  0  0  0  0  0  0  0  0999 V2000
    7.3938    6.9322   82.9216 N   0  0  0  0  0  0  0  0  0  0  0  0
    7.5348    5.5364   83.1640 C   0  0  2  0  0  0  0  0  0  0  0  0
    7.8186    4.7731   81.9005 C   0  0  0  0  0  0  0  0  0  0  0  0
    8.9551    4.2687   81.7295 O   0  0  0  0  0  0  0  0  0  0  0  0
    7.1049    0.2608   80.9119 O   0  0  0  0  0  0  0  0  0  0  0  0
    6.2898    4.9767   83.8095 C   0  0  0  0  0  0  0  0  0  0  0  0
    6.5343    3.6827   84.5489 C   0  0  0  0  0  0  0  0  0  0  0  0
    6.5610    3.5405   85.8782 C   0  0  0  0  0  0  0  0  0  0  0  0
    6.7352    2.4542   83.8395 C   0  0  0  0  0  0  0  0  0  0  0  0
    6.8979    1.4839   84.8657 C   0  0  0  0  0  0  0  0  0  0  0  0
    6.7875    2.0708   82.5276 C   0  0  0  0  0  0  0  0  0  0  0  0
    6.7799    2.2225   86.0630 N   0  0  0  0  0  0  0  0  0  0  0  0
    7.1144    0.1828   84.6184 C   0  0  0  0  0  0  0  0  0  0  0  0
    7.0297    0.6921   82.2428 C   0  0  0  0  0  0  0  0  0  0  0  0
    7.2019   -0.2711   83.2989 C   0  0  0  0  0  0  0  0  0  0  0  0
    6.9328    4.6602   81.0272 O   0  0  0  0  0  0  0  0  0  0  0  0
  2  1  1  6  0  0  0
  2  3  1  0  0  0  0
  2  6  1  0  0  0  0
  3  4  1  0  0  0  0
  3 16  1  0  0  0  0
  5 14  1  0  0  0  0
  6  7  1  0  0  0  0
  7  8  2  0  0  0  0
  7  9  1  0  0  0  0
  8 12  1  0  0  0  0
  9 10  2  0  0  0  0
  9 11  1  0  0  0  0
 10 13  1  0  0  0  0
 10 12  1  0  0  0  0
 11 14  2  0  0  0  0
 13 15  2  0  0  0  0
 14 15  1  0  0  0  0
M  END
>  <CHROM.1>
110.07684007,-158.51857562,107.04362247,7.13013255,3.03404489,83.24016768
1.14337916,1.35757386,0.23550451

>  <Name>
ligand

>  <RI>
0

>  <Rbt.Current_Directory>
/home/itssahil/PROJECTS/Mol_Feturizer/Test_systems_manuscript/rnas/5kpy

>  <Rbt.Executable>
rbdock ($Id: //depot/dev/client3/rdock/2013.1/src/exe/rbdock.cxx#4 $)

>  <Rbt.Library>
libRbt.so (2013.1, Build901 2013/11/27)

>  <Rbt.Parameter_File>
/export/apps/rDock/src/rDock_2013.1_src/data/scripts/dock_solv.prm

>  <Rbt.Receptor>
prm/pocket_docking_4.prm

>  <SCORE>
-20.9922

>  <SCORE.INTER>
-20.5535

>  <SCORE.INTER.CONST>
1

>  <SCORE.INTER.POLAR>
0

>  <SCORE.INTER.ROT>
3

>  <SCORE.INTER.SOLV>
5.28512

>  <SCORE.INTER.VDW>
-21.064

>  <SCORE.INTER.norm>
-1.28459

>  <SCORE.INTRA>
-0.438754

>  <SCORE.INTRA.DIHEDRAL>
1.52682

>  <SCORE.INTRA.DIHEDRAL.0>
3.89056

>  <SCORE.INTRA.POLAR>
0

>  <SCORE.INTRA.POLAR.0>
0

>  <SCORE.INTRA.REPUL>
0

>  <SCORE.INTRA.REPUL.0>
0

>  <SCORE.INTRA.SOLV>
-1.16326

>  <SCORE.INTRA.SOLV.lig_0>
-20.733

>  <SCORE.INTRA.VDW>
-0.620533

>  <SCORE.INTRA.VDW.0>
-0.828515

>  <SCORE.INTRA.norm>
-0.0274221

>  <SCORE.RESTR>
0

>  <SCORE.RESTR.CAVITY>
0

>  <SCORE.RESTR.norm>
0

>  <SCORE.SYSTEM>
0

>  <SCORE.SYSTEM.CONST>
0

>  <SCORE.SYSTEM.DIHEDRAL>
0

>  <SCORE.SYSTEM.SOLV>
0

>  <SCORE.SYSTEM.norm>
0

>  <SCORE.heavy>
16

>  <SCORE.norm>
-1.31201

>  <RMSD>
2.523

$$$$
ligand
 OpenBabel02271912153D
libRbt.so/2013.1/901 2013/11/27
 16 17  0  0  0  0  0  0  0  0999 V2000
    7.3874    6.9232   82.8944 N   0  0  0  0  0  0  0  0  0  0  0  0
    7.5368    5.5329   83.1623 C   0  0  2  0  0  0  0  0  0  0  0  0
    7.8318    4.7492   81.9138 C   0  0  0  0  0  0  0  0  0  0  0  0
    6.9785    4.7147   80.9940 O   0  0  0  0  0  0  0  0  0  0  0  0
    7.1066    0.2588   80.9163 O   0  0  0  0  0  0  0  0  0  0  0  0
    6.2927    4.9761   83.8119 C   0  0  0  0  0  0  0  0  0  0  0  0
    6.5368    3.6824   84.5518 C   0  0  0  0  0  0  0  0  0  0  0  0
    6.5635    3.5407   85.8812 C   0  0  0  0  0  0  0  0  0  0  0  0
    6.7375    2.4535   83.8429 C   0  0  0  0  0  0  0  0  0  0  0  0
    6.9000    1.4836   84.8695 C   0  0  0  0  0  0  0  0  0  0  0  0
    6.7897    2.0696   82.5312 C   0  0  0  0  0  0  0  0  0  0  0  0
    6.7822    2.2227   86.0665 N   0  0  0  0  0  0  0  0  0  0  0  0
    7.1162    0.1823   84.6228 C   0  0  0  0  0  0  0  0  0  0  0  0
    7.0315    0.6907   82.2470 C   0  0  0  0  0  0  0  0  0  0  0  0
    7.2035   -0.2722   83.3035 C   0  0  0  0  0  0  0  0  0  0  0  0
    8.9102    4.1281   81.8070 O   0  0  0  0  0  0  0  0  0  0  0  0
  2  1  1  6  0  0  0
  2  3  1  0  0  0  0
  2  6  1  0  0  0  0
  3  4  1  0  0  0  0
  3 16  1  0  0  0  0
  5 14  1  0  0  0  0
  6  7  1  0  0  0  0
  7  8  2  0  0  0  0
  7  9  1  0  0  0  0
  8 12  1  0  0  0  0
  9 10  2  0  0  0  0
  9 11  1  0  0  0  0
 10 13  1  0  0  0  0
 10 12  1  0  0  0  0
 11 14  2  0  0  0  0
 13 15  2  0  0  0  0
 14 15  1  0  0  0  0
M  END
>  <CHROM.1>
-63.16821254,-159.68462014,107.23618024,7.13207666,3.02486714,83.24478458
1.16188306,1.36153202,0.21850840

>  <Name>
ligand

>  <RI>
0

>  <Rbt.Current_Directory>
/home/itssahil/PROJECTS/Mol_Feturizer/Test_systems_manuscript/rnas/5kpy

>  <Rbt.Executable>
rbdock ($Id: //depot/dev/client3/rdock/2013.1/src/exe/rbdock.cxx#4 $)

>  <Rbt.Library>
libRbt.so (2013.1, Build901 2013/11/27)

>  <Rbt.Parameter_File>
/export/apps/rDock/src/rDock_2013.1_src/data/scripts/dock_solv.prm

>  <Rbt.Receptor>
prm/pocket_docking_5.prm

>  <SCORE>
-21.0326

>  <SCORE.INTER>
-20.4355

>  <SCORE.INTER.CONST>
1

>  <SCORE.INTER.POLAR>
0

>  <SCORE.INTER.ROT>
3

>  <SCORE.INTER.SOLV>
5.31534

>  <SCORE.INTER.VDW>
-20.9955

>  <SCORE.INTER.norm>
-1.27722

>  <SCORE.INTRA>
-0.597053

>  <SCORE.INTRA.DIHEDRAL>
1.39127

>  <SCORE.INTRA.DIHEDRAL.0>
3.89056

>  <SCORE.INTRA.POLAR>
0

>  <SCORE.INTRA.POLAR.0>
0

>  <SCORE.INTRA.REPUL>
0

>  <SCORE.INTRA.REPUL.0>
0

>  <SCORE.INTRA.SOLV>
-1.16781

>  <SCORE.INTRA.SOLV.lig_0>
-20.733

>  <SCORE.INTRA.VDW>
-0.708782

>  <SCORE.INTRA.VDW.0>
-0.828515

>  <SCORE.INTRA.norm>
-0.0373158

>  <SCORE.RESTR>
0

>  <SCORE.RESTR.CAVITY>
0

>  <SCORE.RESTR.norm>
0

>  <SCORE.SYSTEM>
0

>  <SCORE.SYSTEM.CONST>
0

>  <SCORE.SYSTEM.DIHEDRAL>
0

>  <SCORE.SYSTEM.SOLV>
0

>  <SCORE.SYSTEM.norm>
0

>  <SCORE.heavy>
16

>  <SCORE.norm>
-1.31454

>  <RMSD>
2.523

$$$$
ligand
 OpenBabel02271912153D
libRbt.so/2013.1/901 2013/11/27
 16 17  0  0  0  0  0  0  0  0999 V2000
    7.3869    6.9213   82.8954 N   0  0  0  0  0  0  0  0  0  0  0  0
    7.5350    5.5308   83.1630 C   0  0  2  0  0  0  0  0  0  0  0  0
    7.8260    4.7467   81.9139 C   0  0  0  0  0  0  0  0  0  0  0  0
    6.9728    4.7177   80.9938 O   0  0  0  0  0  0  0  0  0  0  0  0
    7.1053    0.2633   80.9123 O   0  0  0  0  0  0  0  0  0  0  0  0
    6.2916    4.9759   83.8156 C   0  0  0  0  0  0  0  0  0  0  0  0
    6.5353    3.6809   84.5534 C   0  0  0  0  0  0  0  0  0  0  0  0
    6.5616    3.5370   85.8825 C   0  0  0  0  0  0  0  0  0  0  0  0
    6.7359    2.4532   83.8425 C   0  0  0  0  0  0  0  0  0  0  0  0
    6.8979    1.4815   84.8676 C   0  0  0  0  0  0  0  0  0  0  0  0
    6.7883    2.0714   82.5302 C   0  0  0  0  0  0  0  0  0  0  0  0
    6.7799    2.2186   86.0657 N   0  0  0  0  0  0  0  0  0  0  0  0
    7.1139    0.1806   84.6186 C   0  0  0  0  0  0  0  0  0  0  0  0
    7.0300    0.6929   82.2437 C   0  0  0  0  0  0  0  0  0  0  0  0
    7.2015   -0.2717   83.2987 C   0  0  0  0  0  0  0  0  0  0  0  0
    8.9009    4.1198   81.8068 O   0  0  0  0  0  0  0  0  0  0  0  0
  2  1  1  6  0  0  0
  2  3  1  0  0  0  0
  2  6  1  0  0  0  0
  3  4  1  0  0  0  0
  3 16  1  0  0  0  0
  5 14  1  0  0  0  0
  6  7  1  0  0  0  0
  7  8  2  0  0  0  0
  7  9  1  0  0  0  0
  8 12  1  0  0  0  0
  9 10  2  0  0  0  0
  9 11  1  0  0  0  0
 10 13  1  0  0  0  0
 10 12  1  0  0  0  0
 11 14  2  0  0  0  0
 13 15  2  0  0  0  0
 14 15  1  0  0  0  0
M  END
>  <CHROM.1>
-62.88227847,-159.76510870,107.44465470,7.12934450,3.02383717,83.24404974
1.16317355,1.36234640,0.21780696

>  <Name>
ligand

>  <RI>
0

>  <Rbt.Current_Directory>
/home/itssahil/PROJECTS/Mol_Feturizer/Test_systems_manuscript/rnas/5kpy

>  <Rbt.Executable>
rbdock ($Id: //depot/dev/client3/rdock/2013.1/src/exe/rbdock.cxx#4 $)

>  <Rbt.Library>
libRbt.so (2013.1, Build901 2013/11/27)

>  <Rbt.Parameter_File>
/export/apps/rDock/src/rDock_2013.1_src/data/scripts/dock_solv.prm

>  <Rbt.Receptor>
prm/pocket_docking_6.prm

>  <SCORE>
-21.0363

>  <SCORE.INTER>
-20.4397

>  <SCORE.INTER.CONST>
1

>  <SCORE.INTER.POLAR>
0

>  <SCORE.INTER.ROT>
3

>  <SCORE.INTER.SOLV>
5.31267

>  <SCORE.INTER.VDW>
-20.9973

>  <SCORE.INTER.norm>
-1.27748

>  <SCORE.INTRA>
-0.596663

>  <SCORE.INTRA.DIHEDRAL>
1.37947

>  <SCORE.INTRA.DIHEDRAL.0>
3.89056

>  <SCORE.INTRA.POLAR>
0

>  <SCORE.INTRA.POLAR.0>
0

>  <SCORE.INTRA.REPUL>
0

>  <SCORE.INTRA.REPUL.0>
0

>  <SCORE.INTRA.SOLV>
-1.16773

>  <SCORE.INTRA.SOLV.lig_0>
-20.733

>  <SCORE.INTRA.VDW>
-0.702531

>  <SCORE.INTRA.VDW.0>
-0.828515

>  <SCORE.INTRA.norm>
-0.0372914

>  <SCORE.RESTR>
0

>  <SCORE.RESTR.CAVITY>
0

>  <SCORE.RESTR.norm>
0

>  <SCORE.SYSTEM>
0

>  <SCORE.SYSTEM.CONST>
0

>  <SCORE.SYSTEM.DIHEDRAL>
0

>  <SCORE.SYSTEM.SOLV>
0

>  <SCORE.SYSTEM.norm>
0

>  <SCORE.heavy>
16

>  <SCORE.norm>
-1.31477

>  <RMSD>
2.523

$$$$
ligand
 OpenBabel02271912153D
libRbt.so/2013.1/901 2013/11/27
 16 17  0  0  0  0  0  0  0  0999 V2000
    7.4116    6.9099   82.8786 N   0  0  0  0  0  0  0  0  0  0  0  0
    7.5529    5.5194   83.1500 C   0  0  2  0  0  0  0  0  0  0  0  0
    7.8447    4.7311   81.9037 C   0  0  0  0  0  0  0  0  0  0  0  0
    6.9476    4.5993   81.0359 O   0  0  0  0  0  0  0  0  0  0  0  0
    7.1107    0.2678   80.8795 O   0  0  0  0  0  0  0  0  0  0  0  0
    6.3051    4.9712   83.7998 C   0  0  0  0  0  0  0  0  0  0  0  0
    6.5388    3.6718   84.5331 C   0  0  0  0  0  0  0  0  0  0  0  0
    6.5577    3.5218   85.8616 C   0  0  0  0  0  0  0  0  0  0  0  0
    6.7370    2.4463   83.8176 C   0  0  0  0  0  0  0  0  0  0  0  0
    6.8892    1.4692   84.8391 C   0  0  0  0  0  0  0  0  0  0  0  0
    6.7943    2.0701   82.5039 C   0  0  0  0  0  0  0  0  0  0  0  0
    6.7687    2.2016   86.0400 N   0  0  0  0  0  0  0  0  0  0  0  0
    7.1002    0.1685   84.5854 C   0  0  0  0  0  0  0  0  0  0  0  0
    7.0307    0.6918   82.2124 C   0  0  0  0  0  0  0  0  0  0  0  0
    7.1922   -0.2784   83.2639 C   0  0  0  0  0  0  0  0  0  0  0  0
    8.9653    4.2019   81.7481 O   0  0  0  0  0  0  0  0  0  0  0  0
  2  1  1  6  0  0  0
  2  3  1  0  0  0  0
  2  6  1  0  0  0  0
  3  4  1  0  0  0  0
  3 16  1  0  0  0  0
  5 14  1  0  0  0  0
  6  7  1  0  0  0  0
  7  8  2  0  0  0  0
  7  9  1  0  0  0  0
  8 12  1  0  0  0  0
  9 10  2  0  0  0  0
  9 11  1  0  0  0  0
 10 13  1  0  0  0  0
 10 12  1  0  0  0  0
 11 14  2  0  0  0  0
 13 15  2  0  0  0  0
 14 15  1  0  0  0  0
M  END
>  <CHROM.1>
-69.51825018,-160.18669963,107.74210201,7.13529649,3.01397308,83.22252676
1.13865307,1.35260711,0.24821337

>  <Name>
ligand

>  <RI>
0

>  <Rbt.Current_Directory>
/home/itssahil/PROJECTS/Mol_Feturizer/Test_systems_manuscript/rnas/5kpy

>  <Rbt.Executable>
rbdock ($Id: //depot/dev/client3/rdock/2013.1/src/exe/rbdock.cxx#4 $)

>  <Rbt.Library>
libRbt.so (2013.1, Build901 2013/11/27)

>  <Rbt.Parameter_File>
/export/apps/rDock/src/rDock_2013.1_src/data/scripts/dock_solv.prm

>  <Rbt.Receptor>
prm/pocket_docking_3.prm

>  <SCORE>
-20.9941

>  <SCORE.INTER>
-20.5377

>  <SCORE.INTER.CONST>
1

>  <SCORE.INTER.POLAR>
0

>  <SCORE.INTER.ROT>
3

>  <SCORE.INTER.SOLV>
5.30669

>  <SCORE.INTER.VDW>
-21.0607

>  <SCORE.INTER.norm>
-1.28361

>  <SCORE.INTRA>
-0.45636

>  <SCORE.INTRA.DIHEDRAL>
1.33388

>  <SCORE.INTRA.DIHEDRAL.0>
3.89056

>  <SCORE.INTRA.POLAR>
0

>  <SCORE.INTRA.POLAR.0>
0

>  <SCORE.INTRA.REPUL>
0

>  <SCORE.INTRA.REPUL.0>
0

>  <SCORE.INTRA.SOLV>
-1.17148

>  <SCORE.INTRA.SOLV.lig_0>
-20.733

>  <SCORE.INTRA.VDW>
-0.537557

>  <SCORE.INTRA.VDW.0>
-0.828515

>  <SCORE.INTRA.norm>
-0.0285225

>  <SCORE.RESTR>
0

>  <SCORE.RESTR.CAVITY>
0

>  <SCORE.RESTR.norm>
0

>  <SCORE.SYSTEM>
0

>  <SCORE.SYSTEM.CONST>
0

>  <SCORE.SYSTEM.DIHEDRAL>
0

>  <SCORE.SYSTEM.SOLV>
0

>  <SCORE.SYSTEM.norm>
0

>  <SCORE.heavy>
16

>  <SCORE.norm>
-1.31213

>  <RMSD>
2.524

$$$$
ligand
 OpenBabel02271912153D
libRbt.so/2013.1/901 2013/11/27
 16 17  0  0  0  0  0  0  0  0999 V2000
    7.3890    6.9349   82.9298 N   0  0  0  0  0  0  0  0  0  0  0  0
    7.5319    5.5392   83.1720 C   0  0  2  0  0  0  0  0  0  0  0  0
    7.8166    4.7765   81.9083 C   0  0  0  0  0  0  0  0  0  0  0  0
    6.9775    4.7982   80.9752 O   0  0  0  0  0  0  0  0  0  0  0  0
    7.1142    0.2531   80.9375 O   0  0  0  0  0  0  0  0  0  0  0  0
    6.2879    4.9777   83.8177 C   0  0  0  0  0  0  0  0  0  0  0  0
    6.5355    3.6870   84.5618 C   0  0  0  0  0  0  0  0  0  0  0  0
    6.5626    3.5498   85.8916 C   0  0  0  0  0  0  0  0  0  0  0  0
    6.7393    2.4564   83.8569 C   0  0  0  0  0  0  0  0  0  0  0  0
    6.9045    1.4903   84.8867 C   0  0  0  0  0  0  0  0  0  0  0  0
    6.7925    2.0683   82.5465 C   0  0  0  0  0  0  0  0  0  0  0  0
    6.7847    2.2330   86.0813 N   0  0  0  0  0  0  0  0  0  0  0  0
    7.1240    0.1888   84.6442 C   0  0  0  0  0  0  0  0  0  0  0  0
    7.0380    0.6891   82.2668 C   0  0  0  0  0  0  0  0  0  0  0  0
    7.2126   -0.2698   83.3264 C   0  0  0  0  0  0  0  0  0  0  0  0
    8.8720    4.1170   81.8016 O   0  0  0  0  0  0  0  0  0  0  0  0
  2  1  1  6  0  0  0
  2  3  1  0  0  0  0
  2  6  1  0  0  0  0
  3  4  1  0  0  0  0
  3 16  1  0  0  0  0
  5 14  1  0  0  0  0
  6  7  1  0  0  0  0
  7  8  2  0  0  0  0
  7  9  1  0  0  0  0
  8 12  1  0  0  0  0
  9 10  2  0  0  0  0
  9 11  1  0  0  0  0
 10 13  1  0  0  0  0
 10 12  1  0  0  0  0
 11 14  2  0  0  0  0
 13 15  2  0  0  0  0
 14 15  1  0  0  0  0
M  END
>  <CHROM.1>
-60.90373080,-158.26843373,106.94646361,7.13019654,3.03509589,83.25602170
1.17406654,1.36523836,0.20046030

>  <Name>
ligand

>  <RI>
0

>  <Rbt.Current_Directory>
/home/itssahil/PROJECTS/Mol_Feturizer/Test_systems_manuscript/rnas/5kpy

>  <Rbt.Executable>
rbdock ($Id: //depot/dev/client3/rdock/2013.1/src/exe/rbdock.cxx#4 $)

>  <Rbt.Library>
libRbt.so (2013.1, Build901 2013/11/27)

>  <Rbt.Parameter_File>
/export/apps/rDock/src/rDock_2013.1_src/data/scripts/dock_solv.prm

>  <Rbt.Receptor>
prm/pocket_docking_5.prm

>  <SCORE>
-20.9958

>  <SCORE.INTER>
-20.4319

>  <SCORE.INTER.CONST>
1

>  <SCORE.INTER.POLAR>
0

>  <SCORE.INTER.ROT>
3

>  <SCORE.INTER.SOLV>
5.28375

>  <SCORE.INTER.VDW>
-20.9825

>  <SCORE.INTER.norm>
-1.27699

>  <SCORE.INTRA>
-0.563858

>  <SCORE.INTRA.DIHEDRAL>
1.57914

>  <SCORE.INTRA.DIHEDRAL.0>
3.89056

>  <SCORE.INTRA.POLAR>
0

>  <SCORE.INTRA.POLAR.0>
0

>  <SCORE.INTRA.REPUL>
0

>  <SCORE.INTRA.REPUL.0>
0

>  <SCORE.INTRA.SOLV>
-1.16402

>  <SCORE.INTRA.SOLV.lig_0>
-20.733

>  <SCORE.INTRA.VDW>
-0.771416

>  <SCORE.INTRA.VDW.0>
-0.828515

>  <SCORE.INTRA.norm>
-0.0352411

>  <SCORE.RESTR>
0

>  <SCORE.RESTR.CAVITY>
0

>  <SCORE.RESTR.norm>
0

>  <SCORE.SYSTEM>
0

>  <SCORE.SYSTEM.CONST>
0

>  <SCORE.SYSTEM.DIHEDRAL>
0

>  <SCORE.SYSTEM.SOLV>
0

>  <SCORE.SYSTEM.norm>
0

>  <SCORE.heavy>
16

>  <SCORE.norm>
-1.31223

>  <RMSD>
2.524

$$$$
ligand
 OpenBabel02271912153D
libRbt.so/2013.1/901 2013/11/27
 16 17  0  0  0  0  0  0  0  0999 V2000
    7.4009    6.9205   82.8947 N   0  0  0  0  0  0  0  0  0  0  0  0
    7.5438    5.5290   83.1600 C   0  0  2  0  0  0  0  0  0  0  0  0
    7.8284    4.7454   81.9091 C   0  0  0  0  0  0  0  0  0  0  0  0
    6.9690    4.7138   80.9950 O   0  0  0  0  0  0  0  0  0  0  0  0
    7.1010    0.2670   80.9062 O   0  0  0  0  0  0  0  0  0  0  0  0
    6.2998    4.9784   83.8149 C   0  0  0  0  0  0  0  0  0  0  0  0
    6.5401    3.6819   84.5513 C   0  0  0  0  0  0  0  0  0  0  0  0
    6.5661    3.5364   85.8803 C   0  0  0  0  0  0  0  0  0  0  0  0
    6.7374    2.4545   83.8389 C   0  0  0  0  0  0  0  0  0  0  0  0
    6.8970    1.4812   84.8629 C   0  0  0  0  0  0  0  0  0  0  0  0
    6.7888    2.0741   82.5262 C   0  0  0  0  0  0  0  0  0  0  0  0
    6.7810    2.2173   86.0619 N   0  0  0  0  0  0  0  0  0  0  0  0
    7.1095    0.1800   84.6125 C   0  0  0  0  0  0  0  0  0  0  0  0
    7.0268    0.6953   82.2381 C   0  0  0  0  0  0  0  0  0  0  0  0
    7.1959   -0.2710   83.2920 C   0  0  0  0  0  0  0  0  0  0  0  0
    8.9044    4.1215   81.7948 O   0  0  0  0  0  0  0  0  0  0  0  0
  2  1  1  6  0  0  0
  2  3  1  0  0  0  0
  2  6  1  0  0  0  0
  3  4  1  0  0  0  0
  3 16  1  0  0  0  0
  5 14  1  0  0  0  0
  6  7  1  0  0  0  0
  7  8  2  0  0  0  0
  7  9  1  0  0  0  0
  8 12  1  0  0  0  0
  9 10  2  0  0  0  0
  9 11  1  0  0  0  0
 10 13  1  0  0  0  0
 10 12  1  0  0  0  0
 11 14  2  0  0  0  0
 13 15  2  0  0  0  0
 14 15  1  0  0  0  0
M  END
>  <CHROM.1>
-63.36441433,-159.72178106,107.58951498,7.13105519,3.02416036,83.23997608
1.15105758,1.36243065,0.23007255

>  <Name>
ligand

>  <RI>
0

>  <Rbt.Current_Directory>
/home/itssahil/PROJECTS/Mol_Feturizer/Test_systems_manuscript/rnas/5kpy

>  <Rbt.Executable>
rbdock ($Id: //depot/dev/client3/rdock/2013.1/src/exe/rbdock.cxx#4 $)

>  <Rbt.Library>
libRbt.so (2013.1, Build901 2013/11/27)

>  <Rbt.Parameter_File>
/export/apps/rDock/src/rDock_2013.1_src/data/scripts/dock_solv.prm

>  <Rbt.Receptor>
prm/pocket_docking_7.prm

>  <SCORE>
-21.0404

>  <SCORE.INTER>
-20.4586

>  <SCORE.INTER.CONST>
1

>  <SCORE.INTER.POLAR>
0

>  <SCORE.INTER.ROT>
3

>  <SCORE.INTER.SOLV>
5.30332

>  <SCORE.INTER.VDW>
-21.0068

>  <SCORE.INTER.norm>
-1.27866

>  <SCORE.INTRA>
-0.581784

>  <SCORE.INTRA.DIHEDRAL>
1.38548

>  <SCORE.INTRA.DIHEDRAL.0>
3.89056

>  <SCORE.INTRA.POLAR>
0

>  <SCORE.INTRA.POLAR.0>
0

>  <SCORE.INTRA.REPUL>
0

>  <SCORE.INTRA.REPUL.0>
0

>  <SCORE.INTRA.SOLV>
-1.16783

>  <SCORE.INTRA.SOLV.lig_0>
-20.733

>  <SCORE.INTRA.VDW>
-0.690609

>  <SCORE.INTRA.VDW.0>
-0.828515

>  <SCORE.INTRA.norm>
-0.0363615

>  <SCORE.RESTR>
0

>  <SCORE.RESTR.CAVITY>
0

>  <SCORE.RESTR.norm>
0

>  <SCORE.SYSTEM>
0

>  <SCORE.SYSTEM.CONST>
0

>  <SCORE.SYSTEM.DIHEDRAL>
0

>  <SCORE.SYSTEM.SOLV>
0

>  <SCORE.SYSTEM.norm>
0

>  <SCORE.heavy>
16

>  <SCORE.norm>
-1.31502

>  <RMSD>
2.524

$$$$
ligand
 OpenBabel02271912153D
libRbt.so/2013.1/901 2013/11/27
 16 17  0  0  0  0  0  0  0  0999 V2000
    7.3512    4.4719   85.1300 N   0  0  0  0  0  0  0  0  0  0  0  0
    6.1868    3.7508   85.5188 C   0  0  2  0  0  0  0  0  0  0  0  0
    5.4552    4.4299   86.6428 C   0  0  0  0  0  0  0  0  0  0  0  0
    4.2902    4.8549   86.4496 O   0  0  0  0  0  0  0  0  0  0  0  0
    6.7617    4.4962   80.7801 O   0  0  0  0  0  0  0  0  0  0  0  0
    6.5431    2.3453   85.9400 C   0  0  0  0  0  0  0  0  0  0  0  0
    6.9439    1.4617   84.7827 C   0  0  0  0  0  0  0  0  0  0  0  0
    7.2485    0.1624   84.8662 C   0  0  0  0  0  0  0  0  0  0  0  0
    6.9992    1.9760   83.4465 C   0  0  0  0  0  0  0  0  0  0  0  0
    7.3782    0.8547   82.6589 C   0  0  0  0  0  0  0  0  0  0  0  0
    6.7785    3.1847   82.8457 C   0  0  0  0  0  0  0  0  0  0  0  0
    7.5086   -0.1964   83.5923 N   0  0  0  0  0  0  0  0  0  0  0  0
    7.5456    0.9145   81.3287 C   0  0  0  0  0  0  0  0  0  0  0  0
    6.9637    3.2726   81.4319 C   0  0  0  0  0  0  0  0  0  0  0  0
    7.3581    2.1258   80.6561 C   0  0  0  0  0  0  0  0  0  0  0  0
    6.0136    4.5805   87.7499 O   0  0  0  0  0  0  0  0  0  0  0  0
  2  1  1  1  0  0  0
  2  3  1  0  0  0  0
  2  6  1  0  0  0  0
  3  4  1  0  0  0  0
  3 16  1  0  0  0  0
  5 14  1  0  0  0  0
  6  7  1  0  0  0  0
  7  8  2  0  0  0  0
  7  9  1  0  0  0  0
  8 12  1  0  0  0  0
  9 10  2  0  0  0  0
  9 11  1  0  0  0  0
 10 13  1  0  0  0  0
 10 12  1  0  0  0  0
 11 14  2  0  0  0  0
 13 15  2  0  0  0  0
 14 15  1  0  0  0  0
M  END
>  <CHROM.1>
116.64943231,-71.72854555,-176.84089364,6.65969140,2.77188890,84.07866190
2.59761191,-1.23310102,2.10211348

>  <Name>
ligand

>  <RI>
0

>  <Rbt.Current_Directory>
/home/itssahil/PROJECTS/Mol_Feturizer/Test_systems_manuscript/rnas/5kpy

>  <Rbt.Executable>
rbdock ($Id: //depot/dev/client3/rdock/2013.1/src/exe/rbdock.cxx#4 $)

>  <Rbt.Library>
libRbt.so (2013.1, Build901 2013/11/27)

>  <Rbt.Parameter_File>
/export/apps/rDock/src/rDock_2013.1_src/data/scripts/dock_solv.prm

>  <Rbt.Receptor>
prm/pocket_docking_3.prm

>  <SCORE>
-18.8963

>  <SCORE.INTER>
-20.934

>  <SCORE.INTER.CONST>
1

>  <SCORE.INTER.POLAR>
0

>  <SCORE.INTER.ROT>
3

>  <SCORE.INTER.SOLV>
8.6607

>  <SCORE.INTER.VDW>
-22.4429

>  <SCORE.INTER.norm>
-1.30837

>  <SCORE.INTRA>
2.03367

>  <SCORE.INTRA.DIHEDRAL>
0.422038

>  <SCORE.INTRA.DIHEDRAL.0>
3.89056

>  <SCORE.INTRA.POLAR>
0

>  <SCORE.INTRA.POLAR.0>
0

>  <SCORE.INTRA.REPUL>
0

>  <SCORE.INTRA.REPUL.0>
0

>  <SCORE.INTRA.SOLV>
0.630715

>  <SCORE.INTRA.SOLV.lig_0>
-20.733

>  <SCORE.INTRA.VDW>
1.50729

>  <SCORE.INTRA.VDW.0>
-0.828515

>  <SCORE.INTRA.norm>
0.127104

>  <SCORE.RESTR>
0.00402679

>  <SCORE.RESTR.CAVITY>
0.00402679

>  <SCORE.RESTR.norm>
0.000251675

>  <SCORE.SYSTEM>
0

>  <SCORE.SYSTEM.CONST>
0

>  <SCORE.SYSTEM.DIHEDRAL>
0

>  <SCORE.SYSTEM.SOLV>
0

>  <SCORE.SYSTEM.norm>
0

>  <SCORE.heavy>
16

>  <SCORE.norm>
-1.18102

>  <RMSD>
2.525

$$$$
ligand
 OpenBabel02271912153D
libRbt.so/2013.1/901 2013/11/27
 16 17  0  0  0  0  0  0  0  0999 V2000
    7.3976    6.9196   82.9063 N   0  0  0  0  0  0  0  0  0  0  0  0
    7.5417    5.5279   83.1699 C   0  0  2  0  0  0  0  0  0  0  0  0
    7.8307    4.7467   81.9185 C   0  0  0  0  0  0  0  0  0  0  0  0
    6.9758    4.7192   81.0000 O   0  0  0  0  0  0  0  0  0  0  0  0
    7.1137    0.2495   80.9385 O   0  0  0  0  0  0  0  0  0  0  0  0
    6.2966    4.9745   83.8205 C   0  0  0  0  0  0  0  0  0  0  0  0
    6.5389    3.6826   84.5642 C   0  0  0  0  0  0  0  0  0  0  0  0
    6.5632    3.5443   85.8940 C   0  0  0  0  0  0  0  0  0  0  0  0
    6.7403    2.4519   83.8588 C   0  0  0  0  0  0  0  0  0  0  0  0
    6.9006    1.4845   84.8882 C   0  0  0  0  0  0  0  0  0  0  0  0
    6.7946    2.0645   82.5482 C   0  0  0  0  0  0  0  0  0  0  0  0
    6.7809    2.2267   86.0831 N   0  0  0  0  0  0  0  0  0  0  0  0
    7.1166    0.1825   84.6451 C   0  0  0  0  0  0  0  0  0  0  0  0
    7.0364    0.6848   82.2679 C   0  0  0  0  0  0  0  0  0  0  0  0
    7.2061   -0.2754   83.3272 C   0  0  0  0  0  0  0  0  0  0  0  0
    8.9058    4.1205   81.8080 O   0  0  0  0  0  0  0  0  0  0  0  0
  2  1  1  6  0  0  0
  2  3  1  0  0  0  0
  2  6  1  0  0  0  0
  3  4  1  0  0  0  0
  3 16  1  0  0  0  0
  5 14  1  0  0  0  0
  6  7  1  0  0  0  0
  7  8  2  0  0  0  0
  7  9  1  0  0  0  0
  8 12  1  0  0  0  0
  9 10  2  0  0  0  0
  9 11  1  0  0  0  0
 10 13  1  0  0  0  0
 10 12  1  0  0  0  0
 11 14  2  0  0  0  0
 13 15  2  0  0  0  0
 14 15  1  0  0  0  0
M  END
>  <CHROM.1>
-63.11238284,-159.28853901,107.32703715,7.13420399,3.02277343,83.25838371
1.16195245,1.36121654,0.21432849

>  <Name>
ligand

>  <RI>
0

>  <Rbt.Current_Directory>
/home/itssahil/PROJECTS/Mol_Feturizer/Test_systems_manuscript/rnas/5kpy

>  <Rbt.Executable>
rbdock ($Id: //depot/dev/client3/rdock/2013.1/src/exe/rbdock.cxx#4 $)

>  <Rbt.Library>
libRbt.so (2013.1, Build901 2013/11/27)

>  <Rbt.Parameter_File>
/export/apps/rDock/src/rDock_2013.1_src/data/scripts/dock_solv.prm

>  <Rbt.Receptor>
prm/pocket_docking_6.prm

>  <SCORE>
-21.056

>  <SCORE.INTER>
-20.4799

>  <SCORE.INTER.CONST>
1

>  <SCORE.INTER.POLAR>
0

>  <SCORE.INTER.ROT>
3

>  <SCORE.INTER.SOLV>
5.29191

>  <SCORE.INTER.VDW>
-21.0173

>  <SCORE.INTER.norm>
-1.28

>  <SCORE.INTRA>
-0.576081

>  <SCORE.INTRA.DIHEDRAL>
1.44345

>  <SCORE.INTRA.DIHEDRAL.0>
3.89056

>  <SCORE.INTRA.POLAR>
0

>  <SCORE.INTRA.POLAR.0>
0

>  <SCORE.INTRA.REPUL>
0

>  <SCORE.INTRA.REPUL.0>
0

>  <SCORE.INTRA.SOLV>
-1.167

>  <SCORE.INTRA.SOLV.lig_0>
-20.733

>  <SCORE.INTRA.VDW>
-0.714307

>  <SCORE.INTRA.VDW.0>
-0.828515

>  <SCORE.INTRA.norm>
-0.036005

>  <SCORE.RESTR>
0

>  <SCORE.RESTR.CAVITY>
0

>  <SCORE.RESTR.norm>
0

>  <SCORE.SYSTEM>
0

>  <SCORE.SYSTEM.CONST>
0

>  <SCORE.SYSTEM.DIHEDRAL>
0

>  <SCORE.SYSTEM.SOLV>
0

>  <SCORE.SYSTEM.norm>
0

>  <SCORE.heavy>
16

>  <SCORE.norm>
-1.316

>  <RMSD>
2.525

$$$$
ligand
 OpenBabel02271912153D
libRbt.so/2013.1/901 2013/11/27
 16 17  0  0  0  0  0  0  0  0999 V2000
    7.4018    6.9215   82.8936 N   0  0  0  0  0  0  0  0  0  0  0  0
    7.5452    5.5301   83.1592 C   0  0  2  0  0  0  0  0  0  0  0  0
    7.8342    4.7470   81.9090 C   0  0  0  0  0  0  0  0  0  0  0  0
    6.9912    4.7406   80.9792 O   0  0  0  0  0  0  0  0  0  0  0  0
    7.1084    0.2606   80.9140 O   0  0  0  0  0  0  0  0  0  0  0  0
    6.2997    4.9782   83.8103 C   0  0  0  0  0  0  0  0  0  0  0  0
    6.5398    3.6837   84.5501 C   0  0  0  0  0  0  0  0  0  0  0  0
    6.5639    3.5413   85.8794 C   0  0  0  0  0  0  0  0  0  0  0  0
    6.7390    2.4547   83.8409 C   0  0  0  0  0  0  0  0  0  0  0  0
    6.8976    1.4839   84.8674 C   0  0  0  0  0  0  0  0  0  0  0  0
    6.7926    2.0712   82.5291 C   0  0  0  0  0  0  0  0  0  0  0  0
    6.7793    2.2228   86.0645 N   0  0  0  0  0  0  0  0  0  0  0  0
    7.1114    0.1823   84.6204 C   0  0  0  0  0  0  0  0  0  0  0  0
    7.0320    0.6919   82.2447 C   0  0  0  0  0  0  0  0  0  0  0  0
    7.2000   -0.2718   83.3011 C   0  0  0  0  0  0  0  0  0  0  0  0
    8.8971    4.0985   81.8105 O   0  0  0  0  0  0  0  0  0  0  0  0
  2  1  1  6  0  0  0
  2  3  1  0  0  0  0
  2  6  1  0  0  0  0
  3  4  1  0  0  0  0
  3 16  1  0  0  0  0
  5 14  1  0  0  0  0
  6  7  1  0  0  0  0
  7  8  2  0  0  0  0
  7  9  1  0  0  0  0
  8 12  1  0  0  0  0
  9 10  2  0  0  0  0
  9 11  1  0  0  0  0
 10 13  1  0  0  0  0
 10 12  1  0  0  0  0
 11 14  2  0  0  0  0
 13 15  2  0  0  0  0
 14 15  1  0  0  0  0
M  END
>  <CHROM.1>
-61.68231769,-159.57893192,107.43269187,7.13392896,3.02483204,83.24205998
1.15691258,1.36156123,0.22179654

>  <Name>
ligand

>  <RI>
0

>  <Rbt.Current_Directory>
/home/itssahil/PROJECTS/Mol_Feturizer/Test_systems_manuscript/rnas/5kpy

>  <Rbt.Executable>
rbdock ($Id: //depot/dev/client3/rdock/2013.1/src/exe/rbdock.cxx#4 $)

>  <Rbt.Library>
libRbt.so (2013.1, Build901 2013/11/27)

>  <Rbt.Parameter_File>
/export/apps/rDock/src/rDock_2013.1_src/data/scripts/dock_solv.prm

>  <Rbt.Receptor>
prm/pocket_docking_7.prm

>  <SCORE>
-21.0337

>  <SCORE.INTER>
-20.4295

>  <SCORE.INTER.CONST>
1

>  <SCORE.INTER.POLAR>
0

>  <SCORE.INTER.ROT>
3

>  <SCORE.INTER.SOLV>
5.30642

>  <SCORE.INTER.VDW>
-20.9885

>  <SCORE.INTER.norm>
-1.27684

>  <SCORE.INTRA>
-0.60417

>  <SCORE.INTRA.DIHEDRAL>
1.40207

>  <SCORE.INTRA.DIHEDRAL.0>
3.89056

>  <SCORE.INTRA.POLAR>
0

>  <SCORE.INTRA.POLAR.0>
0

>  <SCORE.INTRA.REPUL>
0

>  <SCORE.INTRA.REPUL.0>
0

>  <SCORE.INTRA.SOLV>
-1.16677

>  <SCORE.INTRA.SOLV.lig_0>
-20.733

>  <SCORE.INTRA.VDW>
-0.72182

>  <SCORE.INTRA.VDW.0>
-0.828515

>  <SCORE.INTRA.norm>
-0.0377606

>  <SCORE.RESTR>
0

>  <SCORE.RESTR.CAVITY>
0

>  <SCORE.RESTR.norm>
0

>  <SCORE.SYSTEM>
0

>  <SCORE.SYSTEM.CONST>
0

>  <SCORE.SYSTEM.DIHEDRAL>
0

>  <SCORE.SYSTEM.SOLV>
0

>  <SCORE.SYSTEM.norm>
0

>  <SCORE.heavy>
16

>  <SCORE.norm>
-1.3146

>  <RMSD>
2.525

$$$$
ligand
 OpenBabel02271912153D
libRbt.so/2013.1/901 2013/11/27
 16 17  0  0  0  0  0  0  0  0999 V2000
    7.3333    6.9046   82.9024 N   0  0  0  0  0  0  0  0  0  0  0  0
    7.4869    5.5151   83.1717 C   0  0  2  0  0  0  0  0  0  0  0  0
    7.7628    4.7281   81.9209 C   0  0  0  0  0  0  0  0  0  0  0  0
    8.8602    4.1311   81.8001 O   0  0  0  0  0  0  0  0  0  0  0  0
    7.1266    0.2537   80.9457 O   0  0  0  0  0  0  0  0  0  0  0  0
    6.2530    4.9600   83.8418 C   0  0  0  0  0  0  0  0  0  0  0  0
    6.5086    3.6685   84.5817 C   0  0  0  0  0  0  0  0  0  0  0  0
    6.5326    3.5262   85.9110 C   0  0  0  0  0  0  0  0  0  0  0  0
    6.7247    2.4424   83.8726 C   0  0  0  0  0  0  0  0  0  0  0  0
    6.8944    1.4735   84.8991 C   0  0  0  0  0  0  0  0  0  0  0  0
    6.7851    2.0599   82.5608 C   0  0  0  0  0  0  0  0  0  0  0  0
    6.7648    2.2105   86.0962 N   0  0  0  0  0  0  0  0  0  0  0  0
    7.1253    0.1748   84.6522 C   0  0  0  0  0  0  0  0  0  0  0  0
    7.0427    0.6838   82.2765 C   0  0  0  0  0  0  0  0  0  0  0  0
    7.2217   -0.2778   83.3329 C   0  0  0  0  0  0  0  0  0  0  0  0
    6.9105    4.6868   81.0088 O   0  0  0  0  0  0  0  0  0  0  0  0
  2  1  1  6  0  0  0
  2  3  1  0  0  0  0
  2  6  1  0  0  0  0
  3  4  1  0  0  0  0
  3 16  1  0  0  0  0
  5 14  1  0  0  0  0
  6  7  1  0  0  0  0
  7  8  2  0  0  0  0
  7  9  1  0  0  0  0
  8 12  1  0  0  0  0
  9 10  2  0  0  0  0
  9 11  1  0  0  0  0
 10 13  1  0  0  0  0
 10 12  1  0  0  0  0
 11 14  2  0  0  0  0
 13 15  2  0  0  0  0
 14 15  1  0  0  0  0
M  END
>  <CHROM.1>
116.23134253,-159.67073033,108.47029647,7.10778938,3.01266518,83.26657022
1.21928280,1.36505898,0.15412517

>  <Name>
ligand

>  <RI>
0

>  <Rbt.Current_Directory>
/home/itssahil/PROJECTS/Mol_Feturizer/Test_systems_manuscript/rnas/5kpy

>  <Rbt.Executable>
rbdock ($Id: //depot/dev/client3/rdock/2013.1/src/exe/rbdock.cxx#4 $)

>  <Rbt.Library>
libRbt.so (2013.1, Build901 2013/11/27)

>  <Rbt.Parameter_File>
/export/apps/rDock/src/rDock_2013.1_src/data/scripts/dock_solv.prm

>  <Rbt.Receptor>
prm/pocket_docking_6.prm

>  <SCORE>
-21.0088

>  <SCORE.INTER>
-20.4406

>  <SCORE.INTER.CONST>
1

>  <SCORE.INTER.POLAR>
0

>  <SCORE.INTER.ROT>
3

>  <SCORE.INTER.SOLV>
5.32498

>  <SCORE.INTER.VDW>
-21.0021

>  <SCORE.INTER.norm>
-1.27754

>  <SCORE.INTRA>
-0.568167

>  <SCORE.INTRA.DIHEDRAL>
1.3769

>  <SCORE.INTRA.DIHEDRAL.0>
3.89056

>  <SCORE.INTRA.POLAR>
0

>  <SCORE.INTRA.POLAR.0>
0

>  <SCORE.INTRA.REPUL>
0

>  <SCORE.INTRA.REPUL.0>
0

>  <SCORE.INTRA.SOLV>
-1.16309

>  <SCORE.INTRA.SOLV.lig_0>
-20.733

>  <SCORE.INTRA.VDW>
-0.675075

>  <SCORE.INTRA.VDW.0>
-0.828515

>  <SCORE.INTRA.norm>
-0.0355104

>  <SCORE.RESTR>
0

>  <SCORE.RESTR.CAVITY>
0

>  <SCORE.RESTR.norm>
0

>  <SCORE.SYSTEM>
0

>  <SCORE.SYSTEM.CONST>
0

>  <SCORE.SYSTEM.DIHEDRAL>
0

>  <SCORE.SYSTEM.SOLV>
0

>  <SCORE.SYSTEM.norm>
0

>  <SCORE.heavy>
16

>  <SCORE.norm>
-1.31305

>  <RMSD>
2.526

$$$$
ligand
 OpenBabel02271912153D
libRbt.so/2013.1/901 2013/11/27
 16 17  0  0  0  0  0  0  0  0999 V2000
    7.3929    6.9172   82.8840 N   0  0  0  0  0  0  0  0  0  0  0  0
    7.5381    5.5271   83.1550 C   0  0  2  0  0  0  0  0  0  0  0  0
    7.8233    4.7388   81.9072 C   0  0  0  0  0  0  0  0  0  0  0  0
    6.9580    4.6912   80.9992 O   0  0  0  0  0  0  0  0  0  0  0  0
    7.1046    0.2626   80.9116 O   0  0  0  0  0  0  0  0  0  0  0  0
    6.2953    4.9772   83.8129 C   0  0  0  0  0  0  0  0  0  0  0  0
    6.5372    3.6822   84.5513 C   0  0  0  0  0  0  0  0  0  0  0  0
    6.5629    3.5387   85.8804 C   0  0  0  0  0  0  0  0  0  0  0  0
    6.7367    2.4540   83.8408 C   0  0  0  0  0  0  0  0  0  0  0  0
    6.8973    1.4824   84.8663 C   0  0  0  0  0  0  0  0  0  0  0  0
    6.7891    2.0717   82.5287 C   0  0  0  0  0  0  0  0  0  0  0  0
    6.7797    2.2202   86.0642 N   0  0  0  0  0  0  0  0  0  0  0  0
    7.1118    0.1812   84.6179 C   0  0  0  0  0  0  0  0  0  0  0  0
    7.0293    0.6928   82.2428 C   0  0  0  0  0  0  0  0  0  0  0  0
    7.1994   -0.2716   83.2981 C   0  0  0  0  0  0  0  0  0  0  0  0
    8.9057    4.1267   81.7894 O   0  0  0  0  0  0  0  0  0  0  0  0
  2  1  1  6  0  0  0
  2  3  1  0  0  0  0
  2  6  1  0  0  0  0
  3  4  1  0  0  0  0
  3 16  1  0  0  0  0
  5 14  1  0  0  0  0
  6  7  1  0  0  0  0
  7  8  2  0  0  0  0
  7  9  1  0  0  0  0
  8 12  1  0  0  0  0
  9 10  2  0  0  0  0
  9 11  1  0  0  0  0
 10 13  1  0  0  0  0
 10 12  1  0  0  0  0
 11 14  2  0  0  0  0
 13 15  2  0  0  0  0
 14 15  1  0  0  0  0
M  END
>  <CHROM.1>
-64.06270005,-159.87834461,107.71891820,7.12915602,3.02185832,83.24055327
1.15850919,1.36227539,0.22122950

>  <Name>
ligand

>  <RI>
0

>  <Rbt.Current_Directory>
/home/itssahil/PROJECTS/Mol_Feturizer/Test_systems_manuscript/rnas/5kpy

>  <Rbt.Executable>
rbdock ($Id: //depot/dev/client3/rdock/2013.1/src/exe/rbdock.cxx#4 $)

>  <Rbt.Library>
libRbt.so (2013.1, Build901 2013/11/27)

>  <Rbt.Parameter_File>
/export/apps/rDock/src/rDock_2013.1_src/data/scripts/dock_solv.prm

>  <Rbt.Receptor>
prm/pocket_docking_8.prm

>  <SCORE>
-21.0093

>  <SCORE.INTER>
-20.4373

>  <SCORE.INTER.CONST>
1

>  <SCORE.INTER.POLAR>
0

>  <SCORE.INTER.ROT>
3

>  <SCORE.INTER.SOLV>
5.31386

>  <SCORE.INTER.VDW>
-20.9961

>  <SCORE.INTER.norm>
-1.27733

>  <SCORE.INTRA>
-0.572023

>  <SCORE.INTRA.DIHEDRAL>
1.3656

>  <SCORE.INTRA.DIHEDRAL.0>
3.89056

>  <SCORE.INTRA.POLAR>
0

>  <SCORE.INTRA.POLAR.0>
0

>  <SCORE.INTRA.REPUL>
0

>  <SCORE.INTRA.REPUL.0>
0

>  <SCORE.INTRA.SOLV>
-1.16842

>  <SCORE.INTRA.SOLV.lig_0>
-20.733

>  <SCORE.INTRA.VDW>
-0.670615

>  <SCORE.INTRA.VDW.0>
-0.828515

>  <SCORE.INTRA.norm>
-0.0357514

>  <SCORE.RESTR>
0

>  <SCORE.RESTR.CAVITY>
0

>  <SCORE.RESTR.norm>
0

>  <SCORE.SYSTEM>
0

>  <SCORE.SYSTEM.CONST>
0

>  <SCORE.SYSTEM.DIHEDRAL>
0

>  <SCORE.SYSTEM.SOLV>
0

>  <SCORE.SYSTEM.norm>
0

>  <SCORE.heavy>
16

>  <SCORE.norm>
-1.31308

>  <RMSD>
2.526

$$$$
ligand
 OpenBabel02271912153D
libRbt.so/2013.1/901 2013/11/27
 16 17  0  0  0  0  0  0  0  0999 V2000
    7.3981    6.9209   82.8791 N   0  0  0  0  0  0  0  0  0  0  0  0
    7.5408    5.5318   83.1568 C   0  0  2  0  0  0  0  0  0  0  0  0
    7.8399    4.7390   81.9152 C   0  0  0  0  0  0  0  0  0  0  0  0
    6.9491    4.6073   81.0408 O   0  0  0  0  0  0  0  0  0  0  0  0
    7.1283    0.2458   80.9484 O   0  0  0  0  0  0  0  0  0  0  0  0
    6.2911    4.9839   83.8031 C   0  0  0  0  0  0  0  0  0  0  0  0
    6.5268    3.6951   84.5544 C   0  0  0  0  0  0  0  0  0  0  0  0
    6.5405    3.5627   85.8849 C   0  0  0  0  0  0  0  0  0  0  0  0
    6.7330    2.4612   83.8560 C   0  0  0  0  0  0  0  0  0  0  0  0
    6.8847    1.4982   84.8909 C   0  0  0  0  0  0  0  0  0  0  0  0
    6.7975    2.0680   82.5476 C   0  0  0  0  0  0  0  0  0  0  0  0
    6.7560    2.2458   86.0815 N   0  0  0  0  0  0  0  0  0  0  0  0
    7.1019    0.1951   84.6553 C   0  0  0  0  0  0  0  0  0  0  0  0
    7.0407    0.6869   82.2753 C   0  0  0  0  0  0  0  0  0  0  0  0
    7.2015   -0.2687   83.3401 C   0  0  0  0  0  0  0  0  0  0  0  0
    8.9601    4.2060   81.7697 O   0  0  0  0  0  0  0  0  0  0  0  0
  2  1  1  6  0  0  0
  2  3  1  0  0  0  0
  2  6  1  0  0  0  0
  3  4  1  0  0  0  0
  3 16  1  0  0  0  0
  5 14  1  0  0  0  0
  6  7  1  0  0  0  0
  7  8  2  0  0  0  0
  7  9  1  0  0  0  0
  8 12  1  0  0  0  0
  9 10  2  0  0  0  0
  9 11  1  0  0  0  0
 10 13  1  0  0  0  0
 10 12  1  0  0  0  0
 11 14  2  0  0  0  0
 13 15  2  0  0  0  0
 14 15  1  0  0  0  0
M  END
>  <CHROM.1>
-69.17959959,-159.60825075,107.48010370,7.13189829,3.02675528,83.25587733
1.15915947,1.34956751,0.21492827

>  <Name>
ligand

>  <RI>
0

>  <Rbt.Current_Directory>
/home/itssahil/PROJECTS/Mol_Feturizer/Test_systems_manuscript/rnas/5kpy

>  <Rbt.Executable>
rbdock ($Id: //depot/dev/client3/rdock/2013.1/src/exe/rbdock.cxx#4 $)

>  <Rbt.Library>
libRbt.so (2013.1, Build901 2013/11/27)

>  <Rbt.Parameter_File>
/export/apps/rDock/src/rDock_2013.1_src/data/scripts/dock_solv.prm

>  <Rbt.Receptor>
prm/pocket_docking_3.prm

>  <SCORE>
-21.0105

>  <SCORE.INTER>
-20.5528

>  <SCORE.INTER.CONST>
1

>  <SCORE.INTER.POLAR>
0

>  <SCORE.INTER.ROT>
3

>  <SCORE.INTER.SOLV>
5.29623

>  <SCORE.INTER.VDW>
-21.0672

>  <SCORE.INTER.norm>
-1.28455

>  <SCORE.INTRA>
-0.457718

>  <SCORE.INTRA.DIHEDRAL>
1.41013

>  <SCORE.INTRA.DIHEDRAL.0>
3.89056

>  <SCORE.INTRA.POLAR>
0

>  <SCORE.INTRA.POLAR.0>
0

>  <SCORE.INTRA.REPUL>
0

>  <SCORE.INTRA.REPUL.0>
0

>  <SCORE.INTRA.SOLV>
-1.17037

>  <SCORE.INTRA.SOLV.lig_0>
-20.733

>  <SCORE.INTRA.VDW>
-0.577597

>  <SCORE.INTRA.VDW.0>
-0.828515

>  <SCORE.INTRA.norm>
-0.0286073

>  <SCORE.RESTR>
0

>  <SCORE.RESTR.CAVITY>
0

>  <SCORE.RESTR.norm>
0

>  <SCORE.SYSTEM>
0

>  <SCORE.SYSTEM.CONST>
0

>  <SCORE.SYSTEM.DIHEDRAL>
0

>  <SCORE.SYSTEM.SOLV>
0

>  <SCORE.SYSTEM.norm>
0

>  <SCORE.heavy>
16

>  <SCORE.norm>
-1.31315

>  <RMSD>
2.527

$$$$
ligand
 OpenBabel02271912153D
libRbt.so/2013.1/901 2013/11/27
 16 17  0  0  0  0  0  0  0  0999 V2000
    7.4188    6.9223   82.8841 N   0  0  0  0  0  0  0  0  0  0  0  0
    7.5607    5.5302   83.1462 C   0  0  2  0  0  0  0  0  0  0  0  0
    7.8580    4.7510   81.8955 C   0  0  0  0  0  0  0  0  0  0  0  0
    7.0019    4.7104   80.9787 O   0  0  0  0  0  0  0  0  0  0  0  0
    7.1022    0.2609   80.8821 O   0  0  0  0  0  0  0  0  0  0  0  0
    6.3111    4.9761   83.7875 C   0  0  0  0  0  0  0  0  0  0  0  0
    6.5465    3.6792   84.5247 C   0  0  0  0  0  0  0  0  0  0  0  0
    6.5702    3.5343   85.8538 C   0  0  0  0  0  0  0  0  0  0  0  0
    6.7411    2.4509   83.8132 C   0  0  0  0  0  0  0  0  0  0  0  0
    6.8963    1.4776   84.8379 C   0  0  0  0  0  0  0  0  0  0  0  0
    6.7932    2.0697   82.5007 C   0  0  0  0  0  0  0  0  0  0  0  0
    6.7809    2.2146   86.0364 N   0  0  0  0  0  0  0  0  0  0  0  0
    7.1053    0.1757   84.5884 C   0  0  0  0  0  0  0  0  0  0  0  0
    7.0274    0.6901   82.2137 C   0  0  0  0  0  0  0  0  0  0  0  0
    7.1921   -0.2762   83.2682 C   0  0  0  0  0  0  0  0  0  0  0  0
    8.9413    4.1393   81.7840 O   0  0  0  0  0  0  0  0  0  0  0  0
  2  1  1  6  0  0  0
  2  3  1  0  0  0  0
  2  6  1  0  0  0  0
  3  4  1  0  0  0  0
  3 16  1  0  0  0  0
  5 14  1  0  0  0  0
  6  7  1  0  0  0  0
  7  8  2  0  0  0  0
  7  9  1  0  0  0  0
  8 12  1  0  0  0  0
  9 10  2  0  0  0  0
  9 11  1  0  0  0  0
 10 13  1  0  0  0  0
 10 12  1  0  0  0  0
 11 14  2  0  0  0  0
 13 15  2  0  0  0  0
 14 15  1  0  0  0  0
M  END
>  <CHROM.1>
-64.07123500,-159.57806486,106.98502338,7.14168480,3.02321201,83.21877662
1.13346033,1.35696315,0.25018683

>  <Name>
ligand

>  <RI>
0

>  <Rbt.Current_Directory>
/home/itssahil/PROJECTS/Mol_Feturizer/Test_systems_manuscript/rnas/5kpy

>  <Rbt.Executable>
rbdock ($Id: //depot/dev/client3/rdock/2013.1/src/exe/rbdock.cxx#4 $)

>  <Rbt.Library>
libRbt.so (2013.1, Build901 2013/11/27)

>  <Rbt.Parameter_File>
/export/apps/rDock/src/rDock_2013.1_src/data/scripts/dock_solv.prm

>  <Rbt.Receptor>
prm/pocket_docking_5.prm

>  <SCORE>
-20.9976

>  <SCORE.INTER>
-20.4107

>  <SCORE.INTER.CONST>
1

>  <SCORE.INTER.POLAR>
0

>  <SCORE.INTER.ROT>
3

>  <SCORE.INTER.SOLV>
5.32313

>  <SCORE.INTER.VDW>
-20.9815

>  <SCORE.INTER.norm>
-1.27567

>  <SCORE.INTRA>
-0.586939

>  <SCORE.INTRA.DIHEDRAL>
1.40771

>  <SCORE.INTRA.DIHEDRAL.0>
3.89056

>  <SCORE.INTRA.POLAR>
0

>  <SCORE.INTRA.POLAR.0>
0

>  <SCORE.INTRA.REPUL>
0

>  <SCORE.INTRA.REPUL.0>
0

>  <SCORE.INTRA.SOLV>
-1.16817

>  <SCORE.INTRA.SOLV.lig_0>
-20.733

>  <SCORE.INTRA.VDW>
-0.70671

>  <SCORE.INTRA.VDW.0>
-0.828515

>  <SCORE.INTRA.norm>
-0.0366837

>  <SCORE.RESTR>
0

>  <SCORE.RESTR.CAVITY>
0

>  <SCORE.RESTR.norm>
0

>  <SCORE.SYSTEM>
0

>  <SCORE.SYSTEM.CONST>
0

>  <SCORE.SYSTEM.DIHEDRAL>
0

>  <SCORE.SYSTEM.SOLV>
0

>  <SCORE.SYSTEM.norm>
0

>  <SCORE.heavy>
16

>  <SCORE.norm>
-1.31235

>  <RMSD>
2.527

$$$$
ligand
 OpenBabel02271912153D
libRbt.so/2013.1/901 2013/11/27
 16 17  0  0  0  0  0  0  0  0999 V2000
    7.4201    6.9179   82.8768 N   0  0  0  0  0  0  0  0  0  0  0  0
    7.5590    5.5243   83.1326 C   0  0  2  0  0  0  0  0  0  0  0  0
    7.8549    4.7501   81.8785 C   0  0  0  0  0  0  0  0  0  0  0  0
    7.0144    4.7455   80.9464 O   0  0  0  0  0  0  0  0  0  0  0  0
    7.0657    0.2786   80.8186 O   0  0  0  0  0  0  0  0  0  0  0  0
    6.3080    4.9699   83.7711 C   0  0  0  0  0  0  0  0  0  0  0  0
    6.5388    3.6649   84.4953 C   0  0  0  0  0  0  0  0  0  0  0  0
    6.5657    3.5072   85.8228 C   0  0  0  0  0  0  0  0  0  0  0  0
    6.7248    2.4424   83.7715 C   0  0  0  0  0  0  0  0  0  0  0  0
    6.8779    1.4586   84.7864 C   0  0  0  0  0  0  0  0  0  0  0  0
    6.7710    2.0734   82.4553 C   0  0  0  0  0  0  0  0  0  0  0  0
    6.7699    2.1847   85.9922 N   0  0  0  0  0  0  0  0  0  0  0  0
    7.0793    0.1580   84.5239 C   0  0  0  0  0  0  0  0  0  0  0  0
    6.9971    0.6954   82.1544 C   0  0  0  0  0  0  0  0  0  0  0  0
    7.1598   -0.2817   83.1992 C   0  0  0  0  0  0  0  0  0  0  0  0
    8.9212    4.1072   81.7789 O   0  0  0  0  0  0  0  0  0  0  0  0
  2  1  1  6  0  0  0
  2  3  1  0  0  0  0
  2  6  1  0  0  0  0
  3  4  1  0  0  0  0
  3 16  1  0  0  0  0
  5 14  1  0  0  0  0
  6  7  1  0  0  0  0
  7  8  2  0  0  0  0
  7  9  1  0  0  0  0
  8 12  1  0  0  0  0
  9 10  2  0  0  0  0
  9 11  1  0  0  0  0
 10 13  1  0  0  0  0
 10 12  1  0  0  0  0
 11 14  2  0  0  0  0
 13 15  2  0  0  0  0
 14 15  1  0  0  0  0
M  END
>  <CHROM.1>
-62.13929299,-159.93419694,106.92476781,7.12824351,3.01695109,83.18255166
1.10856511,1.35838367,0.28445609

>  <Name>
ligand

>  <RI>
0

>  <Rbt.Current_Directory>
/home/itssahil/PROJECTS/Mol_Feturizer/Test_systems_manuscript/rnas/5kpy

>  <Rbt.Executable>
rbdock ($Id: //depot/dev/client3/rdock/2013.1/src/exe/rbdock.cxx#4 $)

>  <Rbt.Library>
libRbt.so (2013.1, Build901 2013/11/27)

>  <Rbt.Parameter_File>
/export/apps/rDock/src/rDock_2013.1_src/data/scripts/dock_solv.prm

>  <Rbt.Receptor>
prm/pocket_docking_5.prm

>  <SCORE>
-20.9952

>  <SCORE.INTER>
-20.3601

>  <SCORE.INTER.CONST>
1

>  <SCORE.INTER.POLAR>
0

>  <SCORE.INTER.ROT>
3

>  <SCORE.INTER.SOLV>
5.35068

>  <SCORE.INTER.VDW>
-20.957

>  <SCORE.INTER.norm>
-1.27251

>  <SCORE.INTRA>
-0.635099

>  <SCORE.INTRA.DIHEDRAL>
1.35778

>  <SCORE.INTRA.DIHEDRAL.0>
3.89056

>  <SCORE.INTRA.POLAR>
0

>  <SCORE.INTRA.POLAR.0>
0

>  <SCORE.INTRA.REPUL>
0

>  <SCORE.INTRA.REPUL.0>
0

>  <SCORE.INTRA.SOLV>
-1.16789

>  <SCORE.INTRA.SOLV.lig_0>
-20.733

>  <SCORE.INTRA.VDW>
-0.730048

>  <SCORE.INTRA.VDW.0>
-0.828515

>  <SCORE.INTRA.norm>
-0.0396937

>  <SCORE.RESTR>
0

>  <SCORE.RESTR.CAVITY>
0

>  <SCORE.RESTR.norm>
0

>  <SCORE.SYSTEM>
0

>  <SCORE.SYSTEM.CONST>
0

>  <SCORE.SYSTEM.DIHEDRAL>
0

>  <SCORE.SYSTEM.SOLV>
0

>  <SCORE.SYSTEM.norm>
0

>  <SCORE.heavy>
16

>  <SCORE.norm>
-1.3122

>  <RMSD>
2.527

$$$$
ligand
 OpenBabel02271912153D
libRbt.so/2013.1/901 2013/11/27
 16 17  0  0  0  0  0  0  0  0999 V2000
    7.4034    6.9177   82.8930 N   0  0  0  0  0  0  0  0  0  0  0  0
    7.5466    5.5269   83.1617 C   0  0  2  0  0  0  0  0  0  0  0  0
    7.8352    4.7408   81.9132 C   0  0  0  0  0  0  0  0  0  0  0  0
    6.9700    4.6898   81.0054 O   0  0  0  0  0  0  0  0  0  0  0  0
    7.1181    0.2490   80.9367 O   0  0  0  0  0  0  0  0  0  0  0  0
    6.3011    4.9767   83.8143 C   0  0  0  0  0  0  0  0  0  0  0  0
    6.5417    3.6852   84.5593 C   0  0  0  0  0  0  0  0  0  0  0  0
    6.5644    3.5479   85.8891 C   0  0  0  0  0  0  0  0  0  0  0  0
    6.7430    2.4537   83.8550 C   0  0  0  0  0  0  0  0  0  0  0  0
    6.9014    1.4870   84.8853 C   0  0  0  0  0  0  0  0  0  0  0  0
    6.7985    2.0654   82.5447 C   0  0  0  0  0  0  0  0  0  0  0  0
    6.7810    2.2302   86.0794 N   0  0  0  0  0  0  0  0  0  0  0  0
    7.1168    0.1847   84.6434 C   0  0  0  0  0  0  0  0  0  0  0  0
    7.0396    0.6853   82.2658 C   0  0  0  0  0  0  0  0  0  0  0  0
    7.2075   -0.2743   83.3259 C   0  0  0  0  0  0  0  0  0  0  0  0
    8.9204    4.1340   81.7947 O   0  0  0  0  0  0  0  0  0  0  0  0
  2  1  1  6  0  0  0
  2  3  1  0  0  0  0
  2  6  1  0  0  0  0
  3  4  1  0  0  0  0
  3 16  1  0  0  0  0
  5 14  1  0  0  0  0
  6  7  1  0  0  0  0
  7  8  2  0  0  0  0
  7  9  1  0  0  0  0
  8 12  1  0  0  0  0
  9 10  2  0  0  0  0
  9 11  1  0  0  0  0
 10 13  1  0  0  0  0
 10 12  1  0  0  0  0
 11 14  2  0  0  0  0
 13 15  2  0  0  0  0
 14 15  1  0  0  0  0
M  END
>  <CHROM.1>
-64.44789583,-159.46468946,107.47512800,7.13735965,3.02224701,83.25387125
1.15906081,1.35954674,0.21656279

>  <Name>
ligand

>  <RI>
0

>  <Rbt.Current_Directory>
/home/itssahil/PROJECTS/Mol_Feturizer/Test_systems_manuscript/rnas/5kpy

>  <Rbt.Executable>
rbdock ($Id: //depot/dev/client3/rdock/2013.1/src/exe/rbdock.cxx#4 $)

>  <Rbt.Library>
libRbt.so (2013.1, Build901 2013/11/27)

>  <Rbt.Parameter_File>
/export/apps/rDock/src/rDock_2013.1_src/data/scripts/dock_solv.prm

>  <Rbt.Receptor>
prm/pocket_docking_6.prm

>  <SCORE>
-21.0556

>  <SCORE.INTER>
-20.4981

>  <SCORE.INTER.CONST>
1

>  <SCORE.INTER.POLAR>
0

>  <SCORE.INTER.ROT>
3

>  <SCORE.INTER.SOLV>
5.29508

>  <SCORE.INTER.VDW>
-21.0304

>  <SCORE.INTER.norm>
-1.28113

>  <SCORE.INTRA>
-0.557506

>  <SCORE.INTRA.DIHEDRAL>
1.4217

>  <SCORE.INTRA.DIHEDRAL.0>
3.89056

>  <SCORE.INTRA.POLAR>
0

>  <SCORE.INTRA.POLAR.0>
0

>  <SCORE.INTRA.REPUL>
0

>  <SCORE.INTRA.REPUL.0>
0

>  <SCORE.INTRA.SOLV>
-1.16793

>  <SCORE.INTRA.SOLV.lig_0>
-20.733

>  <SCORE.INTRA.VDW>
-0.684388

>  <SCORE.INTRA.VDW.0>
-0.828515

>  <SCORE.INTRA.norm>
-0.0348441

>  <SCORE.RESTR>
0

>  <SCORE.RESTR.CAVITY>
0

>  <SCORE.RESTR.norm>
0

>  <SCORE.SYSTEM>
0

>  <SCORE.SYSTEM.CONST>
0

>  <SCORE.SYSTEM.DIHEDRAL>
0

>  <SCORE.SYSTEM.SOLV>
0

>  <SCORE.SYSTEM.norm>
0

>  <SCORE.heavy>
16

>  <SCORE.norm>
-1.31597

>  <RMSD>
2.527

$$$$
ligand
 OpenBabel02271912153D
libRbt.so/2013.1/901 2013/11/27
 16 17  0  0  0  0  0  0  0  0999 V2000
    7.3852    6.9245   82.9075 N   0  0  0  0  0  0  0  0  0  0  0  0
    7.5242    5.5300   83.1590 C   0  0  2  0  0  0  0  0  0  0  0  0
    7.7862    4.7556   81.8975 C   0  0  0  0  0  0  0  0  0  0  0  0
    8.8668    4.1292   81.7743 O   0  0  0  0  0  0  0  0  0  0  0  0
    7.0899    0.2726   80.9136 O   0  0  0  0  0  0  0  0  0  0  0  0
    6.2868    4.9806   83.8272 C   0  0  0  0  0  0  0  0  0  0  0  0
    6.5340    3.6846   84.5621 C   0  0  0  0  0  0  0  0  0  0  0  0
    6.5660    3.5388   85.8909 C   0  0  0  0  0  0  0  0  0  0  0  0
    6.7320    2.4580   83.8485 C   0  0  0  0  0  0  0  0  0  0  0  0
    6.8988    1.4849   84.8715 C   0  0  0  0  0  0  0  0  0  0  0  0
    6.7791    2.0782   82.5354 C   0  0  0  0  0  0  0  0  0  0  0  0
    6.7856    2.2202   86.0712 N   0  0  0  0  0  0  0  0  0  0  0  0
    7.1141    0.1844   84.6197 C   0  0  0  0  0  0  0  0  0  0  0  0
    7.0200    0.7002   82.2459 C   0  0  0  0  0  0  0  0  0  0  0  0
    7.1963   -0.2659   83.2987 C   0  0  0  0  0  0  0  0  0  0  0  0
    6.9396    4.7536   80.9791 O   0  0  0  0  0  0  0  0  0  0  0  0
  2  1  1  6  0  0  0
  2  3  1  0  0  0  0
  2  6  1  0  0  0  0
  3  4  1  0  0  0  0
  3 16  1  0  0  0  0
  5 14  1  0  0  0  0
  6  7  1  0  0  0  0
  7  8  2  0  0  0  0
  7  9  1  0  0  0  0
  8 12  1  0  0  0  0
  9 10  2  0  0  0  0
  9 11  1  0  0  0  0
 10 13  1  0  0  0  0
 10 12  1  0  0  0  0
 11 14  2  0  0  0  0
 13 15  2  0  0  0  0
 14 15  1  0  0  0  0
M  END
>  <CHROM.1>
117.43774184,-159.07228309,108.00487576,7.11872233,3.03119193,83.24335277
1.15884313,1.36974725,0.21650134

>  <Name>
ligand

>  <RI>
0

>  <Rbt.Current_Directory>
/home/itssahil/PROJECTS/Mol_Feturizer/Test_systems_manuscript/rnas/5kpy

>  <Rbt.Executable>
rbdock ($Id: //depot/dev/client3/rdock/2013.1/src/exe/rbdock.cxx#4 $)

>  <Rbt.Library>
libRbt.so (2013.1, Build901 2013/11/27)

>  <Rbt.Parameter_File>
/export/apps/rDock/src/rDock_2013.1_src/data/scripts/dock_solv.prm

>  <Rbt.Receptor>
prm/pocket_docking_8.prm

>  <SCORE>
-21.0228

>  <SCORE.INTER>
-20.4475

>  <SCORE.INTER.CONST>
1

>  <SCORE.INTER.POLAR>
0

>  <SCORE.INTER.ROT>
3

>  <SCORE.INTER.SOLV>
5.29115

>  <SCORE.INTER.VDW>
-20.9954

>  <SCORE.INTER.norm>
-1.27797

>  <SCORE.INTRA>
-0.575352

>  <SCORE.INTRA.DIHEDRAL>
1.46028

>  <SCORE.INTRA.DIHEDRAL.0>
3.89056

>  <SCORE.INTRA.POLAR>
0

>  <SCORE.INTRA.POLAR.0>
0

>  <SCORE.INTRA.REPUL>
0

>  <SCORE.INTRA.REPUL.0>
0

>  <SCORE.INTRA.SOLV>
-1.16174

>  <SCORE.INTRA.SOLV.lig_0>
-20.733

>  <SCORE.INTRA.VDW>
-0.724621

>  <SCORE.INTRA.VDW.0>
-0.828515

>  <SCORE.INTRA.norm>
-0.0359595

>  <SCORE.RESTR>
0

>  <SCORE.RESTR.CAVITY>
0

>  <SCORE.RESTR.norm>
0

>  <SCORE.SYSTEM>
0

>  <SCORE.SYSTEM.CONST>
0

>  <SCORE.SYSTEM.DIHEDRAL>
0

>  <SCORE.SYSTEM.SOLV>
0

>  <SCORE.SYSTEM.norm>
0

>  <SCORE.heavy>
16

>  <SCORE.norm>
-1.31393

>  <RMSD>
2.527

$$$$
ligand
 OpenBabel02271912153D
libRbt.so/2013.1/901 2013/11/27
 16 17  0  0  0  0  0  0  0  0999 V2000
    7.2348    6.9054   82.8678 N   0  0  0  0  0  0  0  0  0  0  0  0
    7.4295    5.5281   83.1712 C   0  0  2  0  0  0  0  0  0  0  0  0
    7.7173    4.7171   81.9387 C   0  0  0  0  0  0  0  0  0  0  0  0
    8.8427    4.1773   81.8071 O   0  0  0  0  0  0  0  0  0  0  0  0
    7.1577    0.2453   80.9990 O   0  0  0  0  0  0  0  0  0  0  0  0
    6.2172    4.9564   83.8662 C   0  0  0  0  0  0  0  0  0  0  0  0
    6.5090    3.6769   84.6137 C   0  0  0  0  0  0  0  0  0  0  0  0
    6.5514    3.5465   85.9438 C   0  0  0  0  0  0  0  0  0  0  0  0
    6.7430    2.4497   83.9122 C   0  0  0  0  0  0  0  0  0  0  0  0
    6.9452    1.4934   84.9446 C   0  0  0  0  0  0  0  0  0  0  0  0
    6.7964    2.0574   82.6030 C   0  0  0  0  0  0  0  0  0  0  0  0
    6.8138    2.2376   86.1370 N   0  0  0  0  0  0  0  0  0  0  0  0
    7.2010    0.1979   84.7057 C   0  0  0  0  0  0  0  0  0  0  0  0
    7.0800    0.6848   82.3270 C   0  0  0  0  0  0  0  0  0  0  0  0
    7.2917   -0.2638   83.3892 C   0  0  0  0  0  0  0  0  0  0  0  0
    6.8460    4.5995   81.0514 O   0  0  0  0  0  0  0  0  0  0  0  0
  2  1  1  6  0  0  0
  2  3  1  0  0  0  0
  2  6  1  0  0  0  0
  3  4  1  0  0  0  0
  3 16  1  0  0  0  0
  5 14  1  0  0  0  0
  6  7  1  0  0  0  0
  7  8  2  0  0  0  0
  7  9  1  0  0  0  0
  8 12  1  0  0  0  0
  9 10  2  0  0  0  0
  9 11  1  0  0  0  0
 10 13  1  0  0  0  0
 10 12  1  0  0  0  0
 11 14  2  0  0  0  0
 13 15  2  0  0  0  0
 14 15  1  0  0  0  0
M  END
>  <CHROM.1>
114.34957198,-160.83363134,108.76346424,7.10822470,3.01592199,83.29741937
1.31961696,1.37651845,0.04947435

>  <Name>
ligand

>  <RI>
0

>  <Rbt.Current_Directory>
/home/itssahil/PROJECTS/Mol_Feturizer/Test_systems_manuscript/rnas/5kpy

>  <Rbt.Executable>
rbdock ($Id: //depot/dev/client3/rdock/2013.1/src/exe/rbdock.cxx#4 $)

>  <Rbt.Library>
libRbt.so (2013.1, Build901 2013/11/27)

>  <Rbt.Parameter_File>
/export/apps/rDock/src/rDock_2013.1_src/data/scripts/dock_solv.prm

>  <Rbt.Receptor>
prm/pocket_docking_5.prm

>  <SCORE>
-20.851

>  <SCORE.INTER>
-20.268

>  <SCORE.INTER.CONST>
1

>  <SCORE.INTER.POLAR>
0

>  <SCORE.INTER.ROT>
3

>  <SCORE.INTER.SOLV>
5.46813

>  <SCORE.INTER.VDW>
-20.9347

>  <SCORE.INTER.norm>
-1.26675

>  <SCORE.INTRA>
-0.583004

>  <SCORE.INTRA.DIHEDRAL>
1.22196

>  <SCORE.INTRA.DIHEDRAL.0>
3.89056

>  <SCORE.INTRA.POLAR>
0

>  <SCORE.INTRA.POLAR.0>
0

>  <SCORE.INTRA.REPUL>
0

>  <SCORE.INTRA.REPUL.0>
0

>  <SCORE.INTRA.SOLV>
-1.16568

>  <SCORE.INTRA.SOLV.lig_0>
-20.733

>  <SCORE.INTRA.VDW>
-0.611147

>  <SCORE.INTRA.VDW.0>
-0.828515

>  <SCORE.INTRA.norm>
-0.0364377

>  <SCORE.RESTR>
0

>  <SCORE.RESTR.CAVITY>
0

>  <SCORE.RESTR.norm>
0

>  <SCORE.SYSTEM>
0

>  <SCORE.SYSTEM.CONST>
0

>  <SCORE.SYSTEM.DIHEDRAL>
0

>  <SCORE.SYSTEM.SOLV>
0

>  <SCORE.SYSTEM.norm>
0

>  <SCORE.heavy>
16

>  <SCORE.norm>
-1.30319

>  <RMSD>
2.528

$$$$
ligand
 OpenBabel02271912153D
libRbt.so/2013.1/901 2013/11/27
 16 17  0  0  0  0  0  0  0  0999 V2000
    7.3934    6.9196   82.8990 N   0  0  0  0  0  0  0  0  0  0  0  0
    7.5405    5.5283   83.1629 C   0  0  2  0  0  0  0  0  0  0  0  0
    7.8412    4.7487   81.9133 C   0  0  0  0  0  0  0  0  0  0  0  0
    6.9835    4.6995   80.9983 O   0  0  0  0  0  0  0  0  0  0  0  0
    7.1283    0.2357   80.9433 O   0  0  0  0  0  0  0  0  0  0  0  0
    6.2927    4.9702   83.8044 C   0  0  0  0  0  0  0  0  0  0  0  0
    6.5353    3.6817   84.5539 C   0  0  0  0  0  0  0  0  0  0  0  0
    6.5558    3.5486   85.8842 C   0  0  0  0  0  0  0  0  0  0  0  0
    6.7414    2.4486   83.8539 C   0  0  0  0  0  0  0  0  0  0  0  0
    6.9004    1.4855   84.8875 C   0  0  0  0  0  0  0  0  0  0  0  0
    6.8006    2.0563   82.5449 C   0  0  0  0  0  0  0  0  0  0  0  0
    6.7756    2.2322   86.0791 N   0  0  0  0  0  0  0  0  0  0  0  0
    7.1199    0.1831   84.6502 C   0  0  0  0  0  0  0  0  0  0  0  0
    7.0460    0.6760   82.2708 C   0  0  0  0  0  0  0  0  0  0  0  0
    7.2144   -0.2798   83.3343 C   0  0  0  0  0  0  0  0  0  0  0  0
    8.9289    4.1451   81.8008 O   0  0  0  0  0  0  0  0  0  0  0  0
  2  1  1  6  0  0  0
  2  3  1  0  0  0  0
  2  6  1  0  0  0  0
  3  4  1  0  0  0  0
  3 16  1  0  0  0  0
  5 14  1  0  0  0  0
  6  7  1  0  0  0  0
  7  8  2  0  0  0  0
  7  9  1  0  0  0  0
  8 12  1  0  0  0  0
  9 10  2  0  0  0  0
  9 11  1  0  0  0  0
 10 13  1  0  0  0  0
 10 12  1  0  0  0  0
 11 14  2  0  0  0  0
 13 15  2  0  0  0  0
 14 15  1  0  0  0  0
M  END
>  <CHROM.1>
-64.33947903,-159.05717287,106.95693987,7.13823639,3.02118872,83.25472293
1.16967003,1.35643123,0.20494202

>  <Name>
ligand

>  <RI>
0

>  <Rbt.Current_Directory>
/home/itssahil/PROJECTS/Mol_Feturizer/Test_systems_manuscript/rnas/5kpy

>  <Rbt.Executable>
rbdock ($Id: //depot/dev/client3/rdock/2013.1/src/exe/rbdock.cxx#4 $)

>  <Rbt.Library>
libRbt.so (2013.1, Build901 2013/11/27)

>  <Rbt.Parameter_File>
/export/apps/rDock/src/rDock_2013.1_src/data/scripts/dock_solv.prm

>  <Rbt.Receptor>
prm/pocket_docking_6.prm

>  <SCORE>
-21.0419

>  <SCORE.INTER>
-20.4831

>  <SCORE.INTER.CONST>
1

>  <SCORE.INTER.POLAR>
0

>  <SCORE.INTER.ROT>
3

>  <SCORE.INTER.SOLV>
5.29457

>  <SCORE.INTER.VDW>
-21.0202

>  <SCORE.INTER.norm>
-1.28019

>  <SCORE.INTRA>
-0.558772

>  <SCORE.INTRA.DIHEDRAL>
1.47774

>  <SCORE.INTRA.DIHEDRAL.0>
3.89056

>  <SCORE.INTRA.POLAR>
0

>  <SCORE.INTRA.POLAR.0>
0

>  <SCORE.INTRA.REPUL>
0

>  <SCORE.INTRA.REPUL.0>
0

>  <SCORE.INTRA.SOLV>
-1.16732

>  <SCORE.INTRA.SOLV.lig_0>
-20.733

>  <SCORE.INTRA.VDW>
-0.713982

>  <SCORE.INTRA.VDW.0>
-0.828515

>  <SCORE.INTRA.norm>
-0.0349233

>  <SCORE.RESTR>
0

>  <SCORE.RESTR.CAVITY>
0

>  <SCORE.RESTR.norm>
0

>  <SCORE.SYSTEM>
0

>  <SCORE.SYSTEM.CONST>
0

>  <SCORE.SYSTEM.DIHEDRAL>
0

>  <SCORE.SYSTEM.SOLV>
0

>  <SCORE.SYSTEM.norm>
0

>  <SCORE.heavy>
16

>  <SCORE.norm>
-1.31512

>  <RMSD>
2.528

$$$$
ligand
 OpenBabel02271912153D
libRbt.so/2013.1/901 2013/11/27
 16 17  0  0  0  0  0  0  0  0999 V2000
    7.3191    6.8717   82.9243 N   0  0  0  0  0  0  0  0  0  0  0  0
    7.4814    5.4903   83.2281 C   0  0  2  0  0  0  0  0  0  0  0  0
    7.7315    4.6697   81.9936 C   0  0  0  0  0  0  0  0  0  0  0  0
    6.8057    4.5157   81.1602 O   0  0  0  0  0  0  0  0  0  0  0  0
    7.1142    0.2167   81.0845 O   0  0  0  0  0  0  0  0  0  0  0  0
    6.2636    4.9519   83.9400 C   0  0  0  0  0  0  0  0  0  0  0  0
    6.5326    3.6693   84.6906 C   0  0  0  0  0  0  0  0  0  0  0  0
    6.5741    3.5417   86.0210 C   0  0  0  0  0  0  0  0  0  0  0  0
    6.7432    2.4361   83.9922 C   0  0  0  0  0  0  0  0  0  0  0  0
    6.9290    1.4790   85.0270 C   0  0  0  0  0  0  0  0  0  0  0  0
    6.7880    2.0395   82.6840 C   0  0  0  0  0  0  0  0  0  0  0  0
    6.8126    2.2288   86.2175 N   0  0  0  0  0  0  0  0  0  0  0  0
    7.1606    0.1784   84.7913 C   0  0  0  0  0  0  0  0  0  0  0  0
    7.0460    0.6611   82.4114 C   0  0  0  0  0  0  0  0  0  0  0  0
    7.2414   -0.2884   83.4759 C   0  0  0  0  0  0  0  0  0  0  0  0
    8.8465    4.1364   81.8140 O   0  0  0  0  0  0  0  0  0  0  0  0
  2  1  1  6  0  0  0
  2  3  1  0  0  0  0
  2  6  1  0  0  0  0
  3  4  1  0  0  0  0
  3 16  1  0  0  0  0
  5 14  1  0  0  0  0
  6  7  1  0  0  0  0
  7  8  2  0  0  0  0
  7  9  1  0  0  0  0
  8 12  1  0  0  0  0
  9 10  2  0  0  0  0
  9 11  1  0  0  0  0
 10 13  1  0  0  0  0
 10 12  1  0  0  0  0
 11 14  2  0  0  0  0
 13 15  2  0  0  0  0
 14 15  1  0  0  0  0
M  END
>  <CHROM.1>
-69.03257784,-160.61413452,109.48018908,7.10891992,2.98898327,83.37050198
1.23137405,1.37967473,0.13198274

>  <Name>
ligand

>  <RI>
0

>  <Rbt.Current_Directory>
/home/itssahil/PROJECTS/Mol_Feturizer/Test_systems_manuscript/rnas/5kpy

>  <Rbt.Executable>
rbdock ($Id: //depot/dev/client3/rdock/2013.1/src/exe/rbdock.cxx#4 $)

>  <Rbt.Library>
libRbt.so (2013.1, Build901 2013/11/27)

>  <Rbt.Parameter_File>
/export/apps/rDock/src/rDock_2013.1_src/data/scripts/dock_solv.prm

>  <Rbt.Receptor>
prm/pocket_docking_3.prm

>  <SCORE>
-20.8786

>  <SCORE.INTER>
-20.4634

>  <SCORE.INTER.CONST>
1

>  <SCORE.INTER.POLAR>
0

>  <SCORE.INTER.ROT>
3

>  <SCORE.INTER.SOLV>
5.26934

>  <SCORE.INTER.VDW>
-20.9987

>  <SCORE.INTER.norm>
-1.27896

>  <SCORE.INTRA>
-0.415257

>  <SCORE.INTRA.DIHEDRAL>
1.27171

>  <SCORE.INTRA.DIHEDRAL.0>
3.89056

>  <SCORE.INTRA.POLAR>
0

>  <SCORE.INTRA.POLAR.0>
0

>  <SCORE.INTRA.REPUL>
0

>  <SCORE.INTRA.REPUL.0>
0

>  <SCORE.INTRA.SOLV>
-1.17132

>  <SCORE.INTRA.SOLV.lig_0>
-20.733

>  <SCORE.INTRA.VDW>
-0.465452

>  <SCORE.INTRA.VDW.0>
-0.828515

>  <SCORE.INTRA.norm>
-0.0259535

>  <SCORE.RESTR>
0

>  <SCORE.RESTR.CAVITY>
0

>  <SCORE.RESTR.norm>
0

>  <SCORE.SYSTEM>
0

>  <SCORE.SYSTEM.CONST>
0

>  <SCORE.SYSTEM.DIHEDRAL>
0

>  <SCORE.SYSTEM.SOLV>
0

>  <SCORE.SYSTEM.norm>
0

>  <SCORE.heavy>
16

>  <SCORE.norm>
-1.30491

>  <RMSD>
2.529

$$$$
ligand
 OpenBabel02271912153D
libRbt.so/2013.1/901 2013/11/27
 16 17  0  0  0  0  0  0  0  0999 V2000
    7.4017    6.9230   82.8974 N   0  0  0  0  0  0  0  0  0  0  0  0
    7.5376    5.5287   83.1511 C   0  0  2  0  0  0  0  0  0  0  0  0
    7.7997    4.7518   81.8911 C   0  0  0  0  0  0  0  0  0  0  0  0
    8.8833    4.1310   81.7661 O   0  0  0  0  0  0  0  0  0  0  0  0
    7.0876    0.2721   80.9055 O   0  0  0  0  0  0  0  0  0  0  0  0
    6.2982    4.9827   83.8186 C   0  0  0  0  0  0  0  0  0  0  0  0
    6.5414    3.6860   84.5536 C   0  0  0  0  0  0  0  0  0  0  0  0
    6.5727    3.5402   85.8824 C   0  0  0  0  0  0  0  0  0  0  0  0
    6.7358    2.4588   83.8402 C   0  0  0  0  0  0  0  0  0  0  0  0
    6.8994    1.4852   84.8632 C   0  0  0  0  0  0  0  0  0  0  0  0
    6.7820    2.0787   82.5271 C   0  0  0  0  0  0  0  0  0  0  0  0
    6.7882    2.2210   86.0629 N   0  0  0  0  0  0  0  0  0  0  0  0
    7.1109    0.1841   84.6116 C   0  0  0  0  0  0  0  0  0  0  0  0
    7.0188    0.7000   82.2378 C   0  0  0  0  0  0  0  0  0  0  0  0
    7.1919   -0.2666   83.2907 C   0  0  0  0  0  0  0  0  0  0  0  0
    6.9500    4.7422   80.9756 O   0  0  0  0  0  0  0  0  0  0  0  0
  2  1  1  6  0  0  0
  2  3  1  0  0  0  0
  2  6  1  0  0  0  0
  3  4  1  0  0  0  0
  3 16  1  0  0  0  0
  5 14  1  0  0  0  0
  6  7  1  0  0  0  0
  7  8  2  0  0  0  0
  7  9  1  0  0  0  0
  8 12  1  0  0  0  0
  9 10  2  0  0  0  0
  9 11  1  0  0  0  0
 10 13  1  0  0  0  0
 10 12  1  0  0  0  0
 11 14  2  0  0  0  0
 13 15  2  0  0  0  0
 14 15  1  0  0  0  0
M  END
>  <CHROM.1>
116.91879703,-159.17501827,107.97786611,7.12490253,3.03040655,83.23544513
1.14343804,1.36817376,0.23212102

>  <Name>
ligand

>  <RI>
0

>  <Rbt.Current_Directory>
/home/itssahil/PROJECTS/Mol_Feturizer/Test_systems_manuscript/rnas/5kpy

>  <Rbt.Executable>
rbdock ($Id: //depot/dev/client3/rdock/2013.1/src/exe/rbdock.cxx#4 $)

>  <Rbt.Library>
libRbt.so (2013.1, Build901 2013/11/27)

>  <Rbt.Parameter_File>
/export/apps/rDock/src/rDock_2013.1_src/data/scripts/dock_solv.prm

>  <Rbt.Receptor>
prm/pocket_docking_6.prm

>  <SCORE>
-21.0214

>  <SCORE.INTER>
-20.4457

>  <SCORE.INTER.CONST>
1

>  <SCORE.INTER.POLAR>
0

>  <SCORE.INTER.ROT>
3

>  <SCORE.INTER.SOLV>
5.29514

>  <SCORE.INTER.VDW>
-20.9955

>  <SCORE.INTER.norm>
-1.27785

>  <SCORE.INTRA>
-0.575744

>  <SCORE.INTRA.DIHEDRAL>
1.44573

>  <SCORE.INTRA.DIHEDRAL.0>
3.89056

>  <SCORE.INTRA.POLAR>
0

>  <SCORE.INTRA.POLAR.0>
0

>  <SCORE.INTRA.REPUL>
0

>  <SCORE.INTRA.REPUL.0>
0

>  <SCORE.INTRA.SOLV>
-1.16213

>  <SCORE.INTRA.SOLV.lig_0>
-20.733

>  <SCORE.INTRA.VDW>
-0.717545

>  <SCORE.INTRA.VDW.0>
-0.828515

>  <SCORE.INTRA.norm>
-0.035984

>  <SCORE.RESTR>
0

>  <SCORE.RESTR.CAVITY>
0

>  <SCORE.RESTR.norm>
0

>  <SCORE.SYSTEM>
0

>  <SCORE.SYSTEM.CONST>
0

>  <SCORE.SYSTEM.DIHEDRAL>
0

>  <SCORE.SYSTEM.SOLV>
0

>  <SCORE.SYSTEM.norm>
0

>  <SCORE.heavy>
16

>  <SCORE.norm>
-1.31384

>  <RMSD>
2.529

$$$$
ligand
 OpenBabel02271912153D
libRbt.so/2013.1/901 2013/11/27
 16 17  0  0  0  0  0  0  0  0999 V2000
    7.4176    6.9138   82.8846 N   0  0  0  0  0  0  0  0  0  0  0  0
    7.5648    5.5197   83.1331 C   0  0  2  0  0  0  0  0  0  0  0  0
    7.8834    4.7564   81.8779 C   0  0  0  0  0  0  0  0  0  0  0  0
    7.0193    4.6767   80.9711 O   0  0  0  0  0  0  0  0  0  0  0  0
    7.1030    0.2342   80.8491 O   0  0  0  0  0  0  0  0  0  0  0  0
    6.3104    4.9508   83.7517 C   0  0  0  0  0  0  0  0  0  0  0  0
    6.5469    3.6546   84.4897 C   0  0  0  0  0  0  0  0  0  0  0  0
    6.5714    3.5106   85.8189 C   0  0  0  0  0  0  0  0  0  0  0  0
    6.7420    2.4259   83.7790 C   0  0  0  0  0  0  0  0  0  0  0  0
    6.8983    1.4534   84.8042 C   0  0  0  0  0  0  0  0  0  0  0  0
    6.7936    2.0439   82.4667 C   0  0  0  0  0  0  0  0  0  0  0  0
    6.7829    2.1912   86.0022 N   0  0  0  0  0  0  0  0  0  0  0  0
    7.1079    0.1515   84.5555 C   0  0  0  0  0  0  0  0  0  0  0  0
    7.0286    0.6642   82.1805 C   0  0  0  0  0  0  0  0  0  0  0  0
    7.1944   -0.3013   83.2356 C   0  0  0  0  0  0  0  0  0  0  0  0
    8.9927    4.1961   81.7527 O   0  0  0  0  0  0  0  0  0  0  0  0
  2  1  1  6  0  0  0
  2  3  1  0  0  0  0
  2  6  1  0  0  0  0
  3  4  1  0  0  0  0
  3 16  1  0  0  0  0
  5 14  1  0  0  0  0
  6  7  1  0  0  0  0
  7  8  2  0  0  0  0
  7  9  1  0  0  0  0
  8 12  1  0  0  0  0
  9 10  2  0  0  0  0
  9 11  1  0  0  0  0
 10 13  1  0  0  0  0
 10 12  1  0  0  0  0
 11 14  2  0  0  0  0
 13 15  2  0  0  0  0
 14 15  1  0  0  0  0
M  END
>  <CHROM.1>
-66.85811565,-158.98096007,105.81813965,7.14928318,3.00751578,83.19154012
1.12379001,1.35087963,0.26521115

>  <Name>
ligand

>  <RI>
0

>  <Rbt.Current_Directory>
/home/itssahil/PROJECTS/Mol_Feturizer/Test_systems_manuscript/rnas/5kpy

>  <Rbt.Executable>
rbdock ($Id: //depot/dev/client3/rdock/2013.1/src/exe/rbdock.cxx#4 $)

>  <Rbt.Library>
libRbt.so (2013.1, Build901 2013/11/27)

>  <Rbt.Parameter_File>
/export/apps/rDock/src/rDock_2013.1_src/data/scripts/dock_solv.prm

>  <Rbt.Receptor>
prm/pocket_docking_5.prm

>  <SCORE>
-21.01

>  <SCORE.INTER>
-20.4717

>  <SCORE.INTER.CONST>
1

>  <SCORE.INTER.POLAR>
0

>  <SCORE.INTER.ROT>
3

>  <SCORE.INTER.SOLV>
5.34423

>  <SCORE.INTER.VDW>
-21.0292

>  <SCORE.INTER.norm>
-1.27948

>  <SCORE.INTRA>
-0.538314

>  <SCORE.INTRA.DIHEDRAL>
1.4958

>  <SCORE.INTRA.DIHEDRAL.0>
3.89056

>  <SCORE.INTRA.POLAR>
0

>  <SCORE.INTRA.POLAR.0>
0

>  <SCORE.INTRA.REPUL>
0

>  <SCORE.INTRA.REPUL.0>
0

>  <SCORE.INTRA.SOLV>
-1.16885

>  <SCORE.INTRA.SOLV.lig_0>
-20.733

>  <SCORE.INTRA.VDW>
-0.701791

>  <SCORE.INTRA.VDW.0>
-0.828515

>  <SCORE.INTRA.norm>
-0.0336447

>  <SCORE.RESTR>
0

>  <SCORE.RESTR.CAVITY>
0

>  <SCORE.RESTR.norm>
0

>  <SCORE.SYSTEM>
0

>  <SCORE.SYSTEM.CONST>
0

>  <SCORE.SYSTEM.DIHEDRAL>
0

>  <SCORE.SYSTEM.SOLV>
0

>  <SCORE.SYSTEM.norm>
0

>  <SCORE.heavy>
16

>  <SCORE.norm>
-1.31312

>  <RMSD>
2.532

$$$$
ligand
 OpenBabel02271912153D
libRbt.so/2013.1/901 2013/11/27
 16 17  0  0  0  0  0  0  0  0999 V2000
    7.3985    6.9192   82.8906 N   0  0  0  0  0  0  0  0  0  0  0  0
    7.5467    5.5271   83.1496 C   0  0  2  0  0  0  0  0  0  0  0  0
    7.8535    4.7528   81.8982 C   0  0  0  0  0  0  0  0  0  0  0  0
    8.9780    4.2099   81.7716 O   0  0  0  0  0  0  0  0  0  0  0  0
    7.1244    0.2289   80.9225 O   0  0  0  0  0  0  0  0  0  0  0  0
    6.2974    4.9646   83.7841 C   0  0  0  0  0  0  0  0  0  0  0  0
    6.5400    3.6760   84.5334 C   0  0  0  0  0  0  0  0  0  0  0  0
    6.5623    3.5431   85.8637 C   0  0  0  0  0  0  0  0  0  0  0  0
    6.7439    2.4426   83.8332 C   0  0  0  0  0  0  0  0  0  0  0  0
    6.9036    1.4796   84.8668 C   0  0  0  0  0  0  0  0  0  0  0  0
    6.8008    2.0500   82.5243 C   0  0  0  0  0  0  0  0  0  0  0  0
    6.7812    2.2265   86.0585 N   0  0  0  0  0  0  0  0  0  0  0  0
    7.1216    0.1769   84.6294 C   0  0  0  0  0  0  0  0  0  0  0  0
    7.0446    0.6695   82.2500 C   0  0  0  0  0  0  0  0  0  0  0  0
    7.2137   -0.2862   83.3134 C   0  0  0  0  0  0  0  0  0  0  0  0
    6.9990    4.6688   80.9910 O   0  0  0  0  0  0  0  0  0  0  0  0
  2  1  1  6  0  0  0
  2  3  1  0  0  0  0
  2  6  1  0  0  0  0
  3  4  1  0  0  0  0
  3 16  1  0  0  0  0
  5 14  1  0  0  0  0
  6  7  1  0  0  0  0
  7  8  2  0  0  0  0
  7  9  1  0  0  0  0
  8 12  1  0  0  0  0
  9 10  2  0  0  0  0
  9 11  1  0  0  0  0
 10 13  1  0  0  0  0
 10 12  1  0  0  0  0
 11 14  2  0  0  0  0
 13 15  2  0  0  0  0
 14 15  1  0  0  0  0
M  END
>  <CHROM.1>
112.92419070,-158.86450162,106.51003368,7.14589062,3.01988332,83.23601965
1.15115538,1.35241693,0.22400969

>  <Name>
ligand

>  <RI>
0

>  <Rbt.Current_Directory>
/home/itssahil/PROJECTS/Mol_Feturizer/Test_systems_manuscript/rnas/5kpy

>  <Rbt.Executable>
rbdock ($Id: //depot/dev/client3/rdock/2013.1/src/exe/rbdock.cxx#4 $)

>  <Rbt.Library>
libRbt.so (2013.1, Build901 2013/11/27)

>  <Rbt.Parameter_File>
/export/apps/rDock/src/rDock_2013.1_src/data/scripts/dock_solv.prm

>  <Rbt.Receptor>
prm/pocket_docking_7.prm

>  <SCORE>
-21.0398

>  <SCORE.INTER>
-20.4914

>  <SCORE.INTER.CONST>
1

>  <SCORE.INTER.POLAR>
0

>  <SCORE.INTER.ROT>
3

>  <SCORE.INTER.SOLV>
5.308

>  <SCORE.INTER.VDW>
-21.0303

>  <SCORE.INTER.norm>
-1.28071

>  <SCORE.INTRA>
-0.548374

>  <SCORE.INTRA.DIHEDRAL>
1.486

>  <SCORE.INTRA.DIHEDRAL.0>
3.89056

>  <SCORE.INTRA.POLAR>
0

>  <SCORE.INTRA.POLAR.0>
0

>  <SCORE.INTRA.REPUL>
0

>  <SCORE.INTRA.REPUL.0>
0

>  <SCORE.INTRA.SOLV>
-1.16339

>  <SCORE.INTRA.SOLV.lig_0>
-20.733

>  <SCORE.INTRA.VDW>
-0.709678

>  <SCORE.INTRA.VDW.0>
-0.828515

>  <SCORE.INTRA.norm>
-0.0342734

>  <SCORE.RESTR>
0

>  <SCORE.RESTR.CAVITY>
0

>  <SCORE.RESTR.norm>
0

>  <SCORE.SYSTEM>
0

>  <SCORE.SYSTEM.CONST>
0

>  <SCORE.SYSTEM.DIHEDRAL>
0

>  <SCORE.SYSTEM.SOLV>
0

>  <SCORE.SYSTEM.norm>
0

>  <SCORE.heavy>
16

>  <SCORE.norm>
-1.31499

>  <RMSD>
2.532

$$$$
ligand
 OpenBabel02271912153D
libRbt.so/2013.1/901 2013/11/27
 16 17  0  0  0  0  0  0  0  0999 V2000
    7.3972    6.9233   82.8484 N   0  0  0  0  0  0  0  0  0  0  0  0
    7.5486    5.5339   83.1196 C   0  0  2  0  0  0  0  0  0  0  0  0
    7.8620    4.7501   81.8757 C   0  0  0  0  0  0  0  0  0  0  0  0
    7.0188    4.7081   80.9470 O   0  0  0  0  0  0  0  0  0  0  0  0
    7.0693    0.2597   80.8406 O   0  0  0  0  0  0  0  0  0  0  0  0
    6.2987    4.9730   83.7544 C   0  0  0  0  0  0  0  0  0  0  0  0
    6.5365    3.6752   84.4893 C   0  0  0  0  0  0  0  0  0  0  0  0
    6.5670    3.5290   85.8181 C   0  0  0  0  0  0  0  0  0  0  0  0
    6.7260    2.4473   83.7756 C   0  0  0  0  0  0  0  0  0  0  0  0
    6.8855    1.4729   84.7985 C   0  0  0  0  0  0  0  0  0  0  0  0
    6.7708    2.0673   82.4625 C   0  0  0  0  0  0  0  0  0  0  0  0
    6.7771    2.2089   85.9983 N   0  0  0  0  0  0  0  0  0  0  0  0
    7.0916    0.1710   84.5468 C   0  0  0  0  0  0  0  0  0  0  0  0
    7.0020    0.6877   82.1730 C   0  0  0  0  0  0  0  0  0  0  0  0
    7.1711   -0.2798   83.2257 C   0  0  0  0  0  0  0  0  0  0  0  0
    8.9456    4.1361   81.7815 O   0  0  0  0  0  0  0  0  0  0  0  0
  2  1  1  6  0  0  0
  2  3  1  0  0  0  0
  2  6  1  0  0  0  0
  3  4  1  0  0  0  0
  3 16  1  0  0  0  0
  5 14  1  0  0  0  0
  6  7  1  0  0  0  0
  7  8  2  0  0  0  0
  7  9  1  0  0  0  0
  8 12  1  0  0  0  0
  9 10  2  0  0  0  0
  9 11  1  0  0  0  0
 10 13  1  0  0  0  0
 10 12  1  0  0  0  0
 11 14  2  0  0  0  0
 13 15  2  0  0  0  0
 14 15  1  0  0  0  0
M  END
>  <CHROM.1>
-63.36587317,-160.15441954,106.37209451,7.13084174,3.02061834,83.18549748
1.12014231,1.35734041,0.26877348

>  <Name>
ligand

>  <RI>
0

>  <Rbt.Current_Directory>
/home/itssahil/PROJECTS/Mol_Feturizer/Test_systems_manuscript/rnas/5kpy

>  <Rbt.Executable>
rbdock ($Id: //depot/dev/client3/rdock/2013.1/src/exe/rbdock.cxx#4 $)

>  <Rbt.Library>
libRbt.so (2013.1, Build901 2013/11/27)

>  <Rbt.Parameter_File>
/export/apps/rDock/src/rDock_2013.1_src/data/scripts/dock_solv.prm

>  <Rbt.Receptor>
prm/pocket_docking_6.prm

>  <SCORE>
-20.9906

>  <SCORE.INTER>
-20.3443

>  <SCORE.INTER.CONST>
1

>  <SCORE.INTER.POLAR>
0

>  <SCORE.INTER.ROT>
3

>  <SCORE.INTER.SOLV>
5.39961

>  <SCORE.INTER.VDW>
-20.9627

>  <SCORE.INTER.norm>
-1.27152

>  <SCORE.INTRA>
-0.646377

>  <SCORE.INTRA.DIHEDRAL>
1.33292

>  <SCORE.INTRA.DIHEDRAL.0>
3.89056

>  <SCORE.INTRA.POLAR>
0

>  <SCORE.INTRA.POLAR.0>
0

>  <SCORE.INTRA.REPUL>
0

>  <SCORE.INTRA.REPUL.0>
0

>  <SCORE.INTRA.SOLV>
-1.16915

>  <SCORE.INTRA.SOLV.lig_0>
-20.733

>  <SCORE.INTRA.VDW>
-0.728265

>  <SCORE.INTRA.VDW.0>
-0.828515

>  <SCORE.INTRA.norm>
-0.0403985

>  <SCORE.RESTR>
0

>  <SCORE.RESTR.CAVITY>
0

>  <SCORE.RESTR.norm>
0

>  <SCORE.SYSTEM>
0

>  <SCORE.SYSTEM.CONST>
0

>  <SCORE.SYSTEM.DIHEDRAL>
0

>  <SCORE.SYSTEM.SOLV>
0

>  <SCORE.SYSTEM.norm>
0

>  <SCORE.heavy>
16

>  <SCORE.norm>
-1.31192

>  <RMSD>
2.533

$$$$
ligand
 OpenBabel02271912153D
libRbt.so/2013.1/901 2013/11/27
 16 17  0  0  0  0  0  0  0  0999 V2000
    7.3397    6.8954   82.8788 N   0  0  0  0  0  0  0  0  0  0  0  0
    7.4976    5.5080   83.1564 C   0  0  2  0  0  0  0  0  0  0  0  0
    7.7898    4.7164   81.9123 C   0  0  0  0  0  0  0  0  0  0  0  0
    6.9216    4.6495   81.0084 O   0  0  0  0  0  0  0  0  0  0  0  0
    7.1270    0.2230   80.9527 O   0  0  0  0  0  0  0  0  0  0  0  0
    6.2600    4.9499   83.8171 C   0  0  0  0  0  0  0  0  0  0  0  0
    6.5149    3.6632   84.5656 C   0  0  0  0  0  0  0  0  0  0  0  0
    6.5397    3.5300   85.8959 C   0  0  0  0  0  0  0  0  0  0  0  0
    6.7293    2.4320   83.8648 C   0  0  0  0  0  0  0  0  0  0  0  0
    6.8987    1.4700   84.8978 C   0  0  0  0  0  0  0  0  0  0  0  0
    6.7884    2.0405   82.5556 C   0  0  0  0  0  0  0  0  0  0  0  0
    6.7707    2.2154   86.0899 N   0  0  0  0  0  0  0  0  0  0  0  0
    7.1281    0.1695   84.6596 C   0  0  0  0  0  0  0  0  0  0  0  0
    7.0444    0.6623   82.2805 C   0  0  0  0  0  0  0  0  0  0  0  0
    7.2232   -0.2923   83.3434 C   0  0  0  0  0  0  0  0  0  0  0  0
    8.8812    4.1206   81.7936 O   0  0  0  0  0  0  0  0  0  0  0  0
  2  1  1  6  0  0  0
  2  3  1  0  0  0  0
  2  6  1  0  0  0  0
  3  4  1  0  0  0  0
  3 16  1  0  0  0  0
  5 14  1  0  0  0  0
  6  7  1  0  0  0  0
  7  8  2  0  0  0  0
  7  9  1  0  0  0  0
  8 12  1  0  0  0  0
  9 10  2  0  0  0  0
  9 11  1  0  0  0  0
 10 13  1  0  0  0  0
 10 12  1  0  0  0  0
 11 14  2  0  0  0  0
 13 15  2  0  0  0  0
 14 15  1  0  0  0  0
M  END
>  <CHROM.1>
-64.51326132,-159.68005145,107.76636422,7.11554601,3.00032476,83.26018194
1.21236332,1.36306761,0.16044207

>  <Name>
ligand

>  <RI>
0

>  <Rbt.Current_Directory>
/home/itssahil/PROJECTS/Mol_Feturizer/Test_systems_manuscript/rnas/5kpy

>  <Rbt.Executable>
rbdock ($Id: //depot/dev/client3/rdock/2013.1/src/exe/rbdock.cxx#4 $)

>  <Rbt.Library>
libRbt.so (2013.1, Build901 2013/11/27)

>  <Rbt.Parameter_File>
/export/apps/rDock/src/rDock_2013.1_src/data/scripts/dock_solv.prm

>  <Rbt.Receptor>
prm/pocket_docking_7.prm

>  <SCORE>
-20.9808

>  <SCORE.INTER>
-20.4266

>  <SCORE.INTER.CONST>
1

>  <SCORE.INTER.POLAR>
0

>  <SCORE.INTER.ROT>
3

>  <SCORE.INTER.SOLV>
5.35397

>  <SCORE.INTER.VDW>
-21.0024

>  <SCORE.INTER.norm>
-1.27666

>  <SCORE.INTRA>
-0.554193

>  <SCORE.INTRA.DIHEDRAL>
1.39227

>  <SCORE.INTRA.DIHEDRAL.0>
3.89056

>  <SCORE.INTRA.POLAR>
0

>  <SCORE.INTRA.POLAR.0>
0

>  <SCORE.INTRA.REPUL>
0

>  <SCORE.INTRA.REPUL.0>
0

>  <SCORE.INTRA.SOLV>
-1.16825

>  <SCORE.INTRA.SOLV.lig_0>
-20.733

>  <SCORE.INTRA.VDW>
-0.666207

>  <SCORE.INTRA.VDW.0>
-0.828515

>  <SCORE.INTRA.norm>
-0.0346371

>  <SCORE.RESTR>
0

>  <SCORE.RESTR.CAVITY>
0

>  <SCORE.RESTR.norm>
0

>  <SCORE.SYSTEM>
0

>  <SCORE.SYSTEM.CONST>
0

>  <SCORE.SYSTEM.DIHEDRAL>
0

>  <SCORE.SYSTEM.SOLV>
0

>  <SCORE.SYSTEM.norm>
0

>  <SCORE.heavy>
16

>  <SCORE.norm>
-1.3113

>  <RMSD>
2.535

$$$$
ligand
 OpenBabel02271912153D
libRbt.so/2013.1/901 2013/11/27
 16 17  0  0  0  0  0  0  0  0999 V2000
    7.4092    6.8897   82.8646 N   0  0  0  0  0  0  0  0  0  0  0  0
    7.5422    5.5009   83.1483 C   0  0  2  0  0  0  0  0  0  0  0  0
    7.7916    4.6952   81.9039 C   0  0  0  0  0  0  0  0  0  0  0  0
    8.8870    4.0978   81.7679 O   0  0  0  0  0  0  0  0  0  0  0  0
    7.1080    0.2526   80.9460 O   0  0  0  0  0  0  0  0  0  0  0  0
    6.3063    4.9744   83.8375 C   0  0  0  0  0  0  0  0  0  0  0  0
    6.5448    3.6804   84.5786 C   0  0  0  0  0  0  0  0  0  0  0  0
    6.5691    3.5394   85.9081 C   0  0  0  0  0  0  0  0  0  0  0  0
    6.7422    2.4504   83.8707 C   0  0  0  0  0  0  0  0  0  0  0  0
    6.8999    1.4805   84.8982 C   0  0  0  0  0  0  0  0  0  0  0  0
    6.7950    2.0654   82.5593 C   0  0  0  0  0  0  0  0  0  0  0  0
    6.7829    2.2208   86.0945 N   0  0  0  0  0  0  0  0  0  0  0  0
    7.1119    0.1783   84.6525 C   0  0  0  0  0  0  0  0  0  0  0  0
    7.0325    0.6855   82.2763 C   0  0  0  0  0  0  0  0  0  0  0  0
    7.1996   -0.2773   83.3337 C   0  0  0  0  0  0  0  0  0  0  0  0
    6.9194    4.6389   81.0116 O   0  0  0  0  0  0  0  0  0  0  0  0
  2  1  1  6  0  0  0
  2  3  1  0  0  0  0
  2  6  1  0  0  0  0
  3  4  1  0  0  0  0
  3 16  1  0  0  0  0
  5 14  1  0  0  0  0
  6  7  1  0  0  0  0
  7  8  2  0  0  0  0
  7  9  1  0  0  0  0
  8 12  1  0  0  0  0
  9 10  2  0  0  0  0
  9 11  1  0  0  0  0
 10 13  1  0  0  0  0
 10 12  1  0  0  0  0
 11 14  2  0  0  0  0
 13 15  2  0  0  0  0
 14 15  1  0  0  0  0
M  END
>  <CHROM.1>
114.96930821,-160.22002629,109.28576930,7.12730490,3.00726731,83.25850202
1.15448249,1.36653004,0.21345052

>  <Name>
ligand

>  <RI>
0

>  <Rbt.Current_Directory>
/home/itssahil/PROJECTS/Mol_Feturizer/Test_systems_manuscript/rnas/5kpy

>  <Rbt.Executable>
rbdock ($Id: //depot/dev/client3/rdock/2013.1/src/exe/rbdock.cxx#4 $)

>  <Rbt.Library>
libRbt.so (2013.1, Build901 2013/11/27)

>  <Rbt.Parameter_File>
/export/apps/rDock/src/rDock_2013.1_src/data/scripts/dock_solv.prm

>  <Rbt.Receptor>
prm/pocket_docking_7.prm

>  <SCORE>
-21.0199

>  <SCORE.INTER>
-20.4721

>  <SCORE.INTER.CONST>
1

>  <SCORE.INTER.POLAR>
0

>  <SCORE.INTER.ROT>
3

>  <SCORE.INTER.SOLV>
5.28563

>  <SCORE.INTER.VDW>
-21.0099

>  <SCORE.INTER.norm>
-1.2795

>  <SCORE.INTRA>
-0.547841

>  <SCORE.INTRA.DIHEDRAL>
1.29992

>  <SCORE.INTRA.DIHEDRAL.0>
3.89056

>  <SCORE.INTRA.POLAR>
0

>  <SCORE.INTRA.POLAR.0>
0

>  <SCORE.INTRA.REPUL>
0

>  <SCORE.INTRA.REPUL.0>
0

>  <SCORE.INTRA.SOLV>
-1.16416

>  <SCORE.INTRA.SOLV.lig_0>
-20.733

>  <SCORE.INTRA.VDW>
-0.615721

>  <SCORE.INTRA.VDW.0>
-0.828515

>  <SCORE.INTRA.norm>
-0.0342401

>  <SCORE.RESTR>
0

>  <SCORE.RESTR.CAVITY>
0

>  <SCORE.RESTR.norm>
0

>  <SCORE.SYSTEM>
0

>  <SCORE.SYSTEM.CONST>
0

>  <SCORE.SYSTEM.DIHEDRAL>
0

>  <SCORE.SYSTEM.SOLV>
0

>  <SCORE.SYSTEM.norm>
0

>  <SCORE.heavy>
16

>  <SCORE.norm>
-1.31374

>  <RMSD>
2.537

$$$$
ligand
 OpenBabel02271912153D
libRbt.so/2013.1/901 2013/11/27
 16 17  0  0  0  0  0  0  0  0999 V2000
    7.4114    6.9000   82.8678 N   0  0  0  0  0  0  0  0  0  0  0  0
    7.5445    5.5088   83.1395 C   0  0  2  0  0  0  0  0  0  0  0  0
    7.8064    4.7153   81.8898 C   0  0  0  0  0  0  0  0  0  0  0  0
    8.9214    4.1596   81.7372 O   0  0  0  0  0  0  0  0  0  0  0  0
    7.1329    0.2459   80.9386 O   0  0  0  0  0  0  0  0  0  0  0  0
    6.3034    4.9736   83.8127 C   0  0  0  0  0  0  0  0  0  0  0  0
    6.5419    3.6823   84.5586 C   0  0  0  0  0  0  0  0  0  0  0  0
    6.5599    3.5452   85.8886 C   0  0  0  0  0  0  0  0  0  0  0  0
    6.7463    2.4509   83.8552 C   0  0  0  0  0  0  0  0  0  0  0  0
    6.9015    1.4844   84.8862 C   0  0  0  0  0  0  0  0  0  0  0  0
    6.8067    2.0624   82.5452 C   0  0  0  0  0  0  0  0  0  0  0  0
    6.7765    2.2277   86.0799 N   0  0  0  0  0  0  0  0  0  0  0  0
    7.1184    0.1821   84.6453 C   0  0  0  0  0  0  0  0  0  0  0  0
    7.0495    0.6824   82.2673 C   0  0  0  0  0  0  0  0  0  0  0  0
    7.2140   -0.2769   83.3282 C   0  0  0  0  0  0  0  0  0  0  0  0
    6.9246    4.6282   81.0096 O   0  0  0  0  0  0  0  0  0  0  0  0
  2  1  1  6  0  0  0
  2  3  1  0  0  0  0
  2  6  1  0  0  0  0
  3  4  1  0  0  0  0
  3 16  1  0  0  0  0
  5 14  1  0  0  0  0
  6  7  1  0  0  0  0
  7  8  2  0  0  0  0
  7  9  1  0  0  0  0
  8 12  1  0  0  0  0
  9 10  2  0  0  0  0
  9 11  1  0  0  0  0
 10 13  1  0  0  0  0
 10 12  1  0  0  0  0
 11 14  2  0  0  0  0
 13 15  2  0  0  0  0
 14 15  1  0  0  0  0
M  END
>  <CHROM.1>
112.51143753,-159.47112521,108.71647608,7.13518272,3.01391302,83.24589068
1.16332269,1.35940199,0.20412958

>  <Name>
ligand

>  <RI>
0

>  <Rbt.Current_Directory>
/home/itssahil/PROJECTS/Mol_Feturizer/Test_systems_manuscript/rnas/5kpy

>  <Rbt.Executable>
rbdock ($Id: //depot/dev/client3/rdock/2013.1/src/exe/rbdock.cxx#4 $)

>  <Rbt.Library>
libRbt.so (2013.1, Build901 2013/11/27)

>  <Rbt.Parameter_File>
/export/apps/rDock/src/rDock_2013.1_src/data/scripts/dock_solv.prm

>  <Rbt.Receptor>
prm/pocket_docking_8.prm

>  <SCORE>
-21.0701

>  <SCORE.INTER>
-20.5803

>  <SCORE.INTER.CONST>
1

>  <SCORE.INTER.POLAR>
0

>  <SCORE.INTER.ROT>
3

>  <SCORE.INTER.SOLV>
5.2853

>  <SCORE.INTER.VDW>
-21.0819

>  <SCORE.INTER.norm>
-1.28627

>  <SCORE.INTRA>
-0.489875

>  <SCORE.INTRA.DIHEDRAL>
1.39643

>  <SCORE.INTRA.DIHEDRAL.0>
3.89056

>  <SCORE.INTRA.POLAR>
0

>  <SCORE.INTRA.POLAR.0>
0

>  <SCORE.INTRA.REPUL>
0

>  <SCORE.INTRA.REPUL.0>
0

>  <SCORE.INTRA.SOLV>
-1.16374

>  <SCORE.INTRA.SOLV.lig_0>
-20.733

>  <SCORE.INTRA.VDW>
-0.60622

>  <SCORE.INTRA.VDW.0>
-0.828515

>  <SCORE.INTRA.norm>
-0.0306172

>  <SCORE.RESTR>
0

>  <SCORE.RESTR.CAVITY>
0

>  <SCORE.RESTR.norm>
0

>  <SCORE.SYSTEM>
0

>  <SCORE.SYSTEM.CONST>
0

>  <SCORE.SYSTEM.DIHEDRAL>
0

>  <SCORE.SYSTEM.SOLV>
0

>  <SCORE.SYSTEM.norm>
0

>  <SCORE.heavy>
16

>  <SCORE.norm>
-1.31688

>  <RMSD>
2.538

$$$$
ligand
 OpenBabel02271912153D
libRbt.so/2013.1/901 2013/11/27
 16 17  0  0  0  0  0  0  0  0999 V2000
    7.4152    6.9017   82.8716 N   0  0  0  0  0  0  0  0  0  0  0  0
    7.5470    5.5101   83.1416 C   0  0  2  0  0  0  0  0  0  0  0  0
    7.8077    4.7178   81.8909 C   0  0  0  0  0  0  0  0  0  0  0  0
    8.8977    4.1084   81.7656 O   0  0  0  0  0  0  0  0  0  0  0  0
    7.1223    0.2452   80.9409 O   0  0  0  0  0  0  0  0  0  0  0  0
    6.3057    4.9754   83.8147 C   0  0  0  0  0  0  0  0  0  0  0  0
    6.5437    3.6840   84.5607 C   0  0  0  0  0  0  0  0  0  0  0  0
    6.5641    3.5474   85.8907 C   0  0  0  0  0  0  0  0  0  0  0  0
    6.7448    2.4520   83.8574 C   0  0  0  0  0  0  0  0  0  0  0  0
    6.9006    1.4857   84.8885 C   0  0  0  0  0  0  0  0  0  0  0  0
    6.8020    2.0629   82.5474 C   0  0  0  0  0  0  0  0  0  0  0  0
    6.7790    2.2297   86.0821 N   0  0  0  0  0  0  0  0  0  0  0  0
    7.1150    0.1830   84.6477 C   0  0  0  0  0  0  0  0  0  0  0  0
    7.0422    0.6824   82.2696 C   0  0  0  0  0  0  0  0  0  0  0  0
    7.2073   -0.2768   83.3306 C   0  0  0  0  0  0  0  0  0  0  0  0
    6.9503    4.6845   80.9832 O   0  0  0  0  0  0  0  0  0  0  0  0
  2  1  1  6  0  0  0
  2  3  1  0  0  0  0
  2  6  1  0  0  0  0
  3  4  1  0  0  0  0
  3 16  1  0  0  0  0
  5 14  1  0  0  0  0
  6  7  1  0  0  0  0
  7  8  2  0  0  0  0
  7  9  1  0  0  0  0
  8 12  1  0  0  0  0
  9 10  2  0  0  0  0
  9 11  1  0  0  0  0
 10 13  1  0  0  0  0
 10 12  1  0  0  0  0
 11 14  2  0  0  0  0
 13 15  2  0  0  0  0
 14 15  1  0  0  0  0
M  END
>  <CHROM.1>
115.90012297,-159.38924449,108.57768457,7.13426176,3.01527701,83.24795187
1.15872784,1.36249644,0.20766511

>  <Name>
ligand

>  <RI>
0

>  <Rbt.Current_Directory>
/home/itssahil/PROJECTS/Mol_Feturizer/Test_systems_manuscript/rnas/5kpy

>  <Rbt.Executable>
rbdock ($Id: //depot/dev/client3/rdock/2013.1/src/exe/rbdock.cxx#4 $)

>  <Rbt.Library>
libRbt.so (2013.1, Build901 2013/11/27)

>  <Rbt.Parameter_File>
/export/apps/rDock/src/rDock_2013.1_src/data/scripts/dock_solv.prm

>  <Rbt.Receptor>
prm/pocket_docking_6.prm

>  <SCORE>
-21.058

>  <SCORE.INTER>
-20.5103

>  <SCORE.INTER.CONST>
1

>  <SCORE.INTER.POLAR>
0

>  <SCORE.INTER.ROT>
3

>  <SCORE.INTER.SOLV>
5.29085

>  <SCORE.INTER.VDW>
-21.0371

>  <SCORE.INTER.norm>
-1.28189

>  <SCORE.INTRA>
-0.547685

>  <SCORE.INTRA.DIHEDRAL>
1.41329

>  <SCORE.INTRA.DIHEDRAL.0>
3.89056

>  <SCORE.INTRA.POLAR>
0

>  <SCORE.INTRA.POLAR.0>
0

>  <SCORE.INTRA.REPUL>
0

>  <SCORE.INTRA.REPUL.0>
0

>  <SCORE.INTRA.SOLV>
-1.16262

>  <SCORE.INTRA.SOLV.lig_0>
-20.733

>  <SCORE.INTRA.VDW>
-0.673021

>  <SCORE.INTRA.VDW.0>
-0.828515

>  <SCORE.INTRA.norm>
-0.0342303

>  <SCORE.RESTR>
0

>  <SCORE.RESTR.CAVITY>
0

>  <SCORE.RESTR.norm>
0

>  <SCORE.SYSTEM>
0

>  <SCORE.SYSTEM.CONST>
0

>  <SCORE.SYSTEM.DIHEDRAL>
0

>  <SCORE.SYSTEM.SOLV>
0

>  <SCORE.SYSTEM.norm>
0

>  <SCORE.heavy>
16

>  <SCORE.norm>
-1.31612

>  <RMSD>
2.539

$$$$
ligand
 OpenBabel02271912153D
libRbt.so/2013.1/901 2013/11/27
 16 17  0  0  0  0  0  0  0  0999 V2000
    7.3888    6.8839   82.8518 N   0  0  0  0  0  0  0  0  0  0  0  0
    7.5252    5.4948   83.1324 C   0  0  2  0  0  0  0  0  0  0  0  0
    7.7787    4.6927   81.8865 C   0  0  0  0  0  0  0  0  0  0  0  0
    8.8806    4.1087   81.7453 O   0  0  0  0  0  0  0  0  0  0  0  0
    7.1157    0.2507   80.9188 O   0  0  0  0  0  0  0  0  0  0  0  0
    6.2897    4.9634   83.8185 C   0  0  0  0  0  0  0  0  0  0  0  0
    6.5308    3.6685   84.5574 C   0  0  0  0  0  0  0  0  0  0  0  0
    6.5520    3.5247   85.8867 C   0  0  0  0  0  0  0  0  0  0  0  0
    6.7344    2.4408   83.8474 C   0  0  0  0  0  0  0  0  0  0  0  0
    6.8928    1.4692   84.8732 C   0  0  0  0  0  0  0  0  0  0  0  0
    6.7920    2.0589   82.5353 C   0  0  0  0  0  0  0  0  0  0  0  0
    6.7699    2.2064   86.0708 N   0  0  0  0  0  0  0  0  0  0  0  0
    7.1100    0.1683   84.6252 C   0  0  0  0  0  0  0  0  0  0  0  0
    7.0351    0.6805   82.2499 C   0  0  0  0  0  0  0  0  0  0  0  0
    7.2028   -0.2840   83.3056 C   0  0  0  0  0  0  0  0  0  0  0  0
    6.9032    4.6263   80.9982 O   0  0  0  0  0  0  0  0  0  0  0  0
  2  1  1  6  0  0  0
  2  3  1  0  0  0  0
  2  6  1  0  0  0  0
  3  4  1  0  0  0  0
  3 16  1  0  0  0  0
  5 14  1  0  0  0  0
  6  7  1  0  0  0  0
  7  8  2  0  0  0  0
  7  9  1  0  0  0  0
  8 12  1  0  0  0  0
  9 10  2  0  0  0  0
  9 11  1  0  0  0  0
 10 13  1  0  0  0  0
 10 12  1  0  0  0  0
 11 14  2  0  0  0  0
 13 15  2  0  0  0  0
 14 15  1  0  0  0  0
M  END
>  <CHROM.1>
114.32384821,-160.19831035,109.35360786,7.11852563,3.00008539,83.23687742
1.17348173,1.36467034,0.19681892

>  <Name>
ligand

>  <RI>
0

>  <Rbt.Current_Directory>
/home/itssahil/PROJECTS/Mol_Feturizer/Test_systems_manuscript/rnas/5kpy

>  <Rbt.Executable>
rbdock ($Id: //depot/dev/client3/rdock/2013.1/src/exe/rbdock.cxx#4 $)

>  <Rbt.Library>
libRbt.so (2013.1, Build901 2013/11/27)

>  <Rbt.Parameter_File>
/export/apps/rDock/src/rDock_2013.1_src/data/scripts/dock_solv.prm

>  <Rbt.Receptor>
prm/pocket_docking_5.prm

>  <SCORE>
-21.0548

>  <SCORE.INTER>
-20.5214

>  <SCORE.INTER.CONST>
1

>  <SCORE.INTER.POLAR>
0

>  <SCORE.INTER.ROT>
3

>  <SCORE.INTER.SOLV>
5.31817

>  <SCORE.INTER.VDW>
-21.0536

>  <SCORE.INTER.norm>
-1.28259

>  <SCORE.INTRA>
-0.533439

>  <SCORE.INTRA.DIHEDRAL>
1.30144

>  <SCORE.INTRA.DIHEDRAL.0>
3.89056

>  <SCORE.INTRA.POLAR>
0

>  <SCORE.INTRA.POLAR.0>
0

>  <SCORE.INTRA.REPUL>
0

>  <SCORE.INTRA.REPUL.0>
0

>  <SCORE.INTRA.SOLV>
-1.16429

>  <SCORE.INTRA.SOLV.lig_0>
-20.733

>  <SCORE.INTRA.VDW>
-0.602013

>  <SCORE.INTRA.VDW.0>
-0.828515

>  <SCORE.INTRA.norm>
-0.03334

>  <SCORE.RESTR>
0

>  <SCORE.RESTR.CAVITY>
0

>  <SCORE.RESTR.norm>
0

>  <SCORE.SYSTEM>
0

>  <SCORE.SYSTEM.CONST>
0

>  <SCORE.SYSTEM.DIHEDRAL>
0

>  <SCORE.SYSTEM.SOLV>
0

>  <SCORE.SYSTEM.norm>
0

>  <SCORE.heavy>
16

>  <SCORE.norm>
-1.31593

>  <RMSD>
2.541

$$$$
ligand
 OpenBabel02271912153D
libRbt.so/2013.1/901 2013/11/27
 16 17  0  0  0  0  0  0  0  0999 V2000
    7.3849    6.8857   82.8541 N   0  0  0  0  0  0  0  0  0  0  0  0
    7.5234    5.4970   83.1358 C   0  0  2  0  0  0  0  0  0  0  0  0
    7.7771    4.6942   81.8904 C   0  0  0  0  0  0  0  0  0  0  0  0
    8.8813    4.1149   81.7471 O   0  0  0  0  0  0  0  0  0  0  0  0
    7.1273    0.2471   80.9347 O   0  0  0  0  0  0  0  0  0  0  0  0
    6.2890    4.9645   83.8232 C   0  0  0  0  0  0  0  0  0  0  0  0
    6.5330    3.6719   84.5652 C   0  0  0  0  0  0  0  0  0  0  0  0
    6.5541    3.5313   85.8947 C   0  0  0  0  0  0  0  0  0  0  0  0
    6.7398    2.4430   83.8580 C   0  0  0  0  0  0  0  0  0  0  0  0
    6.9000    1.4742   84.8861 C   0  0  0  0  0  0  0  0  0  0  0  0
    6.7988    2.0582   82.5469 C   0  0  0  0  0  0  0  0  0  0  0  0
    6.7751    2.2139   86.0820 N   0  0  0  0  0  0  0  0  0  0  0  0
    7.1205    0.1733   84.6413 C   0  0  0  0  0  0  0  0  0  0  0  0
    7.0452    0.6797   82.2648 C   0  0  0  0  0  0  0  0  0  0  0  0
    7.2148   -0.2819   83.3228 C   0  0  0  0  0  0  0  0  0  0  0  0
    6.8996    4.6225   81.0045 O   0  0  0  0  0  0  0  0  0  0  0  0
  2  1  1  6  0  0  0
  2  3  1  0  0  0  0
  2  6  1  0  0  0  0
  3  4  1  0  0  0  0
  3 16  1  0  0  0  0
  5 14  1  0  0  0  0
  6  7  1  0  0  0  0
  7  8  2  0  0  0  0
  7  9  1  0  0  0  0
  8 12  1  0  0  0  0
  9 10  2  0  0  0  0
  9 11  1  0  0  0  0
 10 13  1  0  0  0  0
 10 12  1  0  0  0  0
 11 14  2  0  0  0  0
 13 15  2  0  0  0  0
 14 15  1  0  0  0  0
M  END
>  <CHROM.1>
114.10673619,-160.08870198,109.37586668,7.12222293,3.00220527,83.24596411
1.18493293,1.36503753,0.18293696

>  <Name>
ligand

>  <RI>
0

>  <Rbt.Current_Directory>
/home/itssahil/PROJECTS/Mol_Feturizer/Test_systems_manuscript/rnas/5kpy

>  <Rbt.Executable>
rbdock ($Id: //depot/dev/client3/rdock/2013.1/src/exe/rbdock.cxx#4 $)

>  <Rbt.Library>
libRbt.so (2013.1, Build901 2013/11/27)

>  <Rbt.Parameter_File>
/export/apps/rDock/src/rDock_2013.1_src/data/scripts/dock_solv.prm

>  <Rbt.Receptor>
prm/pocket_docking_7.prm

>  <SCORE>
-21.0889

>  <SCORE.INTER>
-20.5635

>  <SCORE.INTER.CONST>
1

>  <SCORE.INTER.POLAR>
0

>  <SCORE.INTER.ROT>
3

>  <SCORE.INTER.SOLV>
5.3153

>  <SCORE.INTER.VDW>
-21.0808

>  <SCORE.INTER.norm>
-1.28522

>  <SCORE.INTRA>
-0.525333

>  <SCORE.INTRA.DIHEDRAL>
1.31527

>  <SCORE.INTRA.DIHEDRAL.0>
3.89056

>  <SCORE.INTRA.POLAR>
0

>  <SCORE.INTRA.POLAR.0>
0

>  <SCORE.INTRA.REPUL>
0

>  <SCORE.INTRA.REPUL.0>
0

>  <SCORE.INTRA.SOLV>
-1.16415

>  <SCORE.INTRA.SOLV.lig_0>
-20.733

>  <SCORE.INTRA.VDW>
-0.600895

>  <SCORE.INTRA.VDW.0>
-0.828515

>  <SCORE.INTRA.norm>
-0.0328333

>  <SCORE.RESTR>
0

>  <SCORE.RESTR.CAVITY>
0

>  <SCORE.RESTR.norm>
0

>  <SCORE.SYSTEM>
0

>  <SCORE.SYSTEM.CONST>
0

>  <SCORE.SYSTEM.DIHEDRAL>
0

>  <SCORE.SYSTEM.SOLV>
0

>  <SCORE.SYSTEM.norm>
0

>  <SCORE.heavy>
16

>  <SCORE.norm>
-1.31805

>  <RMSD>
2.541

$$$$
ligand
 OpenBabel02271912153D
libRbt.so/2013.1/901 2013/11/27
 16 17  0  0  0  0  0  0  0  0999 V2000
    7.3857    6.9019   82.8879 N   0  0  0  0  0  0  0  0  0  0  0  0
    7.5141    5.5057   83.1352 C   0  0  2  0  0  0  0  0  0  0  0  0
    7.7537    4.7312   81.8692 C   0  0  0  0  0  0  0  0  0  0  0  0
    6.8502    4.6808   80.9994 O   0  0  0  0  0  0  0  0  0  0  0  0
    7.1239    0.2437   80.9401 O   0  0  0  0  0  0  0  0  0  0  0  0
    6.2794    4.9669   83.8171 C   0  0  0  0  0  0  0  0  0  0  0  0
    6.5272    3.6769   84.5622 C   0  0  0  0  0  0  0  0  0  0  0  0
    6.5504    3.5399   85.8921 C   0  0  0  0  0  0  0  0  0  0  0  0
    6.7356    2.4466   83.8580 C   0  0  0  0  0  0  0  0  0  0  0  0
    6.8994    1.4808   84.8885 C   0  0  0  0  0  0  0  0  0  0  0  0
    6.7936    2.0584   82.5478 C   0  0  0  0  0  0  0  0  0  0  0  0
    6.7745    2.2235   86.0825 N   0  0  0  0  0  0  0  0  0  0  0  0
    7.1223    0.1798   84.6468 C   0  0  0  0  0  0  0  0  0  0  0  0
    7.0427    0.6797   82.2691 C   0  0  0  0  0  0  0  0  0  0  0  0
    7.2158   -0.2788   83.3294 C   0  0  0  0  0  0  0  0  0  0  0  0
    8.8369    4.1332   81.6990 O   0  0  0  0  0  0  0  0  0  0  0  0
  2  1  1  6  0  0  0
  2  3  1  0  0  0  0
  2  6  1  0  0  0  0
  3  4  1  0  0  0  0
  3 16  1  0  0  0  0
  5 14  1  0  0  0  0
  6  7  1  0  0  0  0
  7  8  2  0  0  0  0
  7  9  1  0  0  0  0
  8 12  1  0  0  0  0
  9 10  2  0  0  0  0
  9 11  1  0  0  0  0
 10 13  1  0  0  0  0
 10 12  1  0  0  0  0
 11 14  2  0  0  0  0
 13 15  2  0  0  0  0
 14 15  1  0  0  0  0
M  END
>  <CHROM.1>
-66.02918600,-158.29254445,108.94314971,7.11124399,3.01417084,83.24377392
1.19433437,1.37049287,0.17105171

>  <Name>
ligand

>  <RI>
0

>  <Rbt.Current_Directory>
/home/itssahil/PROJECTS/Mol_Feturizer/Test_systems_manuscript/rnas/5kpy

>  <Rbt.Executable>
rbdock ($Id: //depot/dev/client3/rdock/2013.1/src/exe/rbdock.cxx#4 $)

>  <Rbt.Library>
libRbt.so (2013.1, Build901 2013/11/27)

>  <Rbt.Parameter_File>
/export/apps/rDock/src/rDock_2013.1_src/data/scripts/dock_solv.prm

>  <Rbt.Receptor>
prm/pocket_docking_4.prm

>  <SCORE>
-20.9986

>  <SCORE.INTER>
-20.5783

>  <SCORE.INTER.CONST>
1

>  <SCORE.INTER.POLAR>
0

>  <SCORE.INTER.ROT>
3

>  <SCORE.INTER.SOLV>
5.28425

>  <SCORE.INTER.VDW>
-21.0803

>  <SCORE.INTER.norm>
-1.28614

>  <SCORE.INTRA>
-0.420311

>  <SCORE.INTRA.DIHEDRAL>
1.57732

>  <SCORE.INTRA.DIHEDRAL.0>
3.89056

>  <SCORE.INTRA.POLAR>
0

>  <SCORE.INTRA.POLAR.0>
0

>  <SCORE.INTRA.REPUL>
0

>  <SCORE.INTRA.REPUL.0>
0

>  <SCORE.INTRA.SOLV>
-1.16579

>  <SCORE.INTRA.SOLV.lig_0>
-20.733

>  <SCORE.INTRA.VDW>
-0.626079

>  <SCORE.INTRA.VDW.0>
-0.828515

>  <SCORE.INTRA.norm>
-0.0262694

>  <SCORE.RESTR>
0

>  <SCORE.RESTR.CAVITY>
0

>  <SCORE.RESTR.norm>
0

>  <SCORE.SYSTEM>
0

>  <SCORE.SYSTEM.CONST>
0

>  <SCORE.SYSTEM.DIHEDRAL>
0

>  <SCORE.SYSTEM.SOLV>
0

>  <SCORE.SYSTEM.norm>
0

>  <SCORE.heavy>
16

>  <SCORE.norm>
-1.31241

>  <RMSD>
2.542

$$$$
ligand
 OpenBabel02271912153D
libRbt.so/2013.1/901 2013/11/27
 16 17  0  0  0  0  0  0  0  0999 V2000
    7.3562    6.9217   82.9146 N   0  0  0  0  0  0  0  0  0  0  0  0
    7.4922    5.5233   83.1446 C   0  0  2  0  0  0  0  0  0  0  0  0
    7.7364    4.7659   81.8692 C   0  0  0  0  0  0  0  0  0  0  0  0
    6.9028    4.8509   80.9348 O   0  0  0  0  0  0  0  0  0  0  0  0
    7.1031    0.2423   80.9480 O   0  0  0  0  0  0  0  0  0  0  0  0
    6.2603    4.9693   83.8193 C   0  0  0  0  0  0  0  0  0  0  0  0
    6.5195    3.6823   84.5657 C   0  0  0  0  0  0  0  0  0  0  0  0
    6.5538    3.5489   85.8958 C   0  0  0  0  0  0  0  0  0  0  0  0
    6.7279    2.4511   83.8632 C   0  0  0  0  0  0  0  0  0  0  0  0
    6.9040    1.4888   84.8948 C   0  0  0  0  0  0  0  0  0  0  0  0
    6.7774    2.0597   82.5536 C   0  0  0  0  0  0  0  0  0  0  0  0
    6.7851    2.2340   86.0879 N   0  0  0  0  0  0  0  0  0  0  0  0
    7.1307    0.1881   84.6548 C   0  0  0  0  0  0  0  0  0  0  0  0
    7.0304    0.6814   82.2764 C   0  0  0  0  0  0  0  0  0  0  0  0
    7.2160   -0.2735   83.3378 C   0  0  0  0  0  0  0  0  0  0  0  0
    8.7524    4.0485   81.7541 O   0  0  0  0  0  0  0  0  0  0  0  0
  2  1  1  6  0  0  0
  2  3  1  0  0  0  0
  2  6  1  0  0  0  0
  3  4  1  0  0  0  0
  3 16  1  0  0  0  0
  5 14  1  0  0  0  0
  6  7  1  0  0  0  0
  7  8  2  0  0  0  0
  7  9  1  0  0  0  0
  8 12  1  0  0  0  0
  9 10  2  0  0  0  0
  9 11  1  0  0  0  0
 10 13  1  0  0  0  0
 10 12  1  0  0  0  0
 11 14  2  0  0  0  0
 13 15  2  0  0  0  0
 14 15  1  0  0  0  0
M  END
>  <CHROM.1>
-57.63022299,-157.42860623,108.03017102,7.10083784,3.02822604,83.24926013
1.21515300,1.38045244,0.14778231

>  <Name>
ligand

>  <RI>
0

>  <Rbt.Current_Directory>
/home/itssahil/PROJECTS/Mol_Feturizer/Test_systems_manuscript/rnas/5kpy

>  <Rbt.Executable>
rbdock ($Id: //depot/dev/client3/rdock/2013.1/src/exe/rbdock.cxx#4 $)

>  <Rbt.Library>
libRbt.so (2013.1, Build901 2013/11/27)

>  <Rbt.Parameter_File>
/export/apps/rDock/src/rDock_2013.1_src/data/scripts/dock_solv.prm

>  <Rbt.Receptor>
prm/pocket_docking_7.prm

>  <SCORE>
-20.8692

>  <SCORE.INTER>
-20.3978

>  <SCORE.INTER.CONST>
1

>  <SCORE.INTER.POLAR>
0

>  <SCORE.INTER.ROT>
3

>  <SCORE.INTER.SOLV>
5.30443

>  <SCORE.INTER.VDW>
-20.9667

>  <SCORE.INTER.norm>
-1.27486

>  <SCORE.INTRA>
-0.471379

>  <SCORE.INTRA.DIHEDRAL>
1.68626

>  <SCORE.INTRA.DIHEDRAL.0>
3.89056

>  <SCORE.INTRA.POLAR>
0

>  <SCORE.INTRA.POLAR.0>
0

>  <SCORE.INTRA.REPUL>
0

>  <SCORE.INTRA.REPUL.0>
0

>  <SCORE.INTRA.SOLV>
-1.16008

>  <SCORE.INTRA.SOLV.lig_0>
-20.733

>  <SCORE.INTRA.VDW>
-0.73447

>  <SCORE.INTRA.VDW.0>
-0.828515

>  <SCORE.INTRA.norm>
-0.0294612

>  <SCORE.RESTR>
0

>  <SCORE.RESTR.CAVITY>
0

>  <SCORE.RESTR.norm>
0

>  <SCORE.SYSTEM>
0

>  <SCORE.SYSTEM.CONST>
0

>  <SCORE.SYSTEM.DIHEDRAL>
0

>  <SCORE.SYSTEM.SOLV>
0

>  <SCORE.SYSTEM.norm>
0

>  <SCORE.heavy>
16

>  <SCORE.norm>
-1.30432

>  <RMSD>
2.542

$$$$
ligand
 OpenBabel02271912153D
libRbt.so/2013.1/901 2013/11/27
 16 17  0  0  0  0  0  0  0  0999 V2000
    7.3822    6.9091   82.8990 N   0  0  0  0  0  0  0  0  0  0  0  0
    7.5066    5.5098   83.1305 C   0  0  2  0  0  0  0  0  0  0  0  0
    7.7324    4.7477   81.8545 C   0  0  0  0  0  0  0  0  0  0  0  0
    8.8079    4.1207   81.6954 O   0  0  0  0  0  0  0  0  0  0  0  0
    7.1049    0.2546   80.9214 O   0  0  0  0  0  0  0  0  0  0  0  0
    6.2752    4.9691   83.8169 C   0  0  0  0  0  0  0  0  0  0  0  0
    6.5264    3.6768   84.5568 C   0  0  0  0  0  0  0  0  0  0  0  0
    6.5562    3.5357   85.8861 C   0  0  0  0  0  0  0  0  0  0  0  0
    6.7313    2.4486   83.8479 C   0  0  0  0  0  0  0  0  0  0  0  0
    6.9000    1.4798   84.8746 C   0  0  0  0  0  0  0  0  0  0  0  0
    6.7828    2.0644   82.5362 C   0  0  0  0  0  0  0  0  0  0  0  0
    6.7811    2.2188   86.0715 N   0  0  0  0  0  0  0  0  0  0  0  0
    7.1215    0.1794   84.6278 C   0  0  0  0  0  0  0  0  0  0  0  0
    7.0303    0.6865   82.2521 C   0  0  0  0  0  0  0  0  0  0  0  0
    7.2085   -0.2752   83.3086 C   0  0  0  0  0  0  0  0  0  0  0  0
    6.8609    4.7565   80.9598 O   0  0  0  0  0  0  0  0  0  0  0  0
  2  1  1  6  0  0  0
  2  3  1  0  0  0  0
  2  6  1  0  0  0  0
  3  4  1  0  0  0  0
  3 16  1  0  0  0  0
  5 14  1  0  0  0  0
  6  7  1  0  0  0  0
  7  8  2  0  0  0  0
  7  9  1  0  0  0  0
  8 12  1  0  0  0  0
  9 10  2  0  0  0  0
  9 11  1  0  0  0  0
 10 13  1  0  0  0  0
 10 12  1  0  0  0  0
 11 14  2  0  0  0  0
 13 15  2  0  0  0  0
 14 15  1  0  0  0  0
M  END
>  <CHROM.1>
116.62159137,-157.76759180,108.94609588,7.10495560,3.02202585,83.23205355
1.18773469,1.37644245,0.17625386

>  <Name>
ligand

>  <RI>
0

>  <Rbt.Current_Directory>
/home/itssahil/PROJECTS/Mol_Feturizer/Test_systems_manuscript/rnas/5kpy

>  <Rbt.Executable>
rbdock ($Id: //depot/dev/client3/rdock/2013.1/src/exe/rbdock.cxx#4 $)

>  <Rbt.Library>
libRbt.so (2013.1, Build901 2013/11/27)

>  <Rbt.Parameter_File>
/export/apps/rDock/src/rDock_2013.1_src/data/scripts/dock_solv.prm

>  <Rbt.Receptor>
prm/pocket_docking_4.prm

>  <SCORE>
-20.9852

>  <SCORE.INTER>
-20.5191

>  <SCORE.INTER.CONST>
1

>  <SCORE.INTER.POLAR>
0

>  <SCORE.INTER.ROT>
3

>  <SCORE.INTER.SOLV>
5.28629

>  <SCORE.INTER.VDW>
-21.0415

>  <SCORE.INTER.norm>
-1.28244

>  <SCORE.INTRA>
-0.466159

>  <SCORE.INTRA.DIHEDRAL>
1.63383

>  <SCORE.INTRA.DIHEDRAL.0>
3.89056

>  <SCORE.INTRA.POLAR>
0

>  <SCORE.INTRA.POLAR.0>
0

>  <SCORE.INTRA.REPUL>
0

>  <SCORE.INTRA.REPUL.0>
0

>  <SCORE.INTRA.SOLV>
-1.15903

>  <SCORE.INTRA.SOLV.lig_0>
-20.733

>  <SCORE.INTRA.VDW>
-0.703561

>  <SCORE.INTRA.VDW.0>
-0.828515

>  <SCORE.INTRA.norm>
-0.029135

>  <SCORE.RESTR>
0

>  <SCORE.RESTR.CAVITY>
0

>  <SCORE.RESTR.norm>
0

>  <SCORE.SYSTEM>
0

>  <SCORE.SYSTEM.CONST>
0

>  <SCORE.SYSTEM.DIHEDRAL>
0

>  <SCORE.SYSTEM.SOLV>
0

>  <SCORE.SYSTEM.norm>
0

>  <SCORE.heavy>
16

>  <SCORE.norm>
-1.31158

>  <RMSD>
2.544

$$$$
ligand
 OpenBabel02271912153D
libRbt.so/2013.1/901 2013/11/27
 16 17  0  0  0  0  0  0  0  0999 V2000
    7.3858    6.8509   82.9273 N   0  0  0  0  0  0  0  0  0  0  0  0
    7.4993    5.4589   83.2036 C   0  0  2  0  0  0  0  0  0  0  0  0
    7.6484    4.6475   81.9469 C   0  0  0  0  0  0  0  0  0  0  0  0
    6.6933    4.5917   81.1345 O   0  0  0  0  0  0  0  0  0  0  0  0
    7.0723    0.2391   81.0784 O   0  0  0  0  0  0  0  0  0  0  0  0
    6.2955    4.9652   83.9697 C   0  0  0  0  0  0  0  0  0  0  0  0
    6.5510    3.6741   84.7104 C   0  0  0  0  0  0  0  0  0  0  0  0
    6.5965    3.5368   86.0397 C   0  0  0  0  0  0  0  0  0  0  0  0
    6.7426    2.4431   84.0027 C   0  0  0  0  0  0  0  0  0  0  0  0
    6.9203    1.4766   85.0301 C   0  0  0  0  0  0  0  0  0  0  0  0
    6.7767    2.0549   82.6917 C   0  0  0  0  0  0  0  0  0  0  0  0
    6.8187    2.2196   86.2262 N   0  0  0  0  0  0  0  0  0  0  0  0
    7.1340    0.1747   84.7846 C   0  0  0  0  0  0  0  0  0  0  0  0
    7.0156    0.6752   82.4086 C   0  0  0  0  0  0  0  0  0  0  0  0
    7.2032   -0.2840   83.4657 C   0  0  0  0  0  0  0  0  0  0  0  0
    8.7088    4.0248   81.7282 O   0  0  0  0  0  0  0  0  0  0  0  0
  2  1  1  6  0  0  0
  2  3  1  0  0  0  0
  2  6  1  0  0  0  0
  3  4  1  0  0  0  0
  3 16  1  0  0  0  0
  5 14  1  0  0  0  0
  6  7  1  0  0  0  0
  7  8  2  0  0  0  0
  7  9  1  0  0  0  0
  8 12  1  0  0  0  0
  9 10  2  0  0  0  0
  9 11  1  0  0  0  0
 10 13  1  0  0  0  0
 10 12  1  0  0  0  0
 11 14  2  0  0  0  0
 13 15  2  0  0  0  0
 14 15  1  0  0  0  0
M  END
>  <CHROM.1>
-66.26343206,-159.47205073,112.16295352,7.08585683,2.98565947,83.36244844
1.19252422,1.40154927,0.15754739

>  <Name>
ligand

>  <RI>
0

>  <Rbt.Current_Directory>
/home/itssahil/PROJECTS/Mol_Feturizer/Test_systems_manuscript/rnas/5kpy

>  <Rbt.Executable>
rbdock ($Id: //depot/dev/client3/rdock/2013.1/src/exe/rbdock.cxx#4 $)

>  <Rbt.Library>
libRbt.so (2013.1, Build901 2013/11/27)

>  <Rbt.Parameter_File>
/export/apps/rDock/src/rDock_2013.1_src/data/scripts/dock_solv.prm

>  <Rbt.Receptor>
prm/pocket_docking_3.prm

>  <SCORE>
-20.7977

>  <SCORE.INTER>
-20.5148

>  <SCORE.INTER.CONST>
1

>  <SCORE.INTER.POLAR>
0

>  <SCORE.INTER.ROT>
3

>  <SCORE.INTER.SOLV>
5.22489

>  <SCORE.INTER.VDW>
-21.0182

>  <SCORE.INTER.norm>
-1.28218

>  <SCORE.INTRA>
-0.282897

>  <SCORE.INTRA.DIHEDRAL>
1.40603

>  <SCORE.INTRA.DIHEDRAL.0>
3.89056

>  <SCORE.INTRA.POLAR>
0

>  <SCORE.INTRA.POLAR.0>
0

>  <SCORE.INTRA.REPUL>
0

>  <SCORE.INTRA.REPUL.0>
0

>  <SCORE.INTRA.SOLV>
-1.16685

>  <SCORE.INTRA.SOLV.lig_0>
-20.733

>  <SCORE.INTRA.VDW>
-0.402491

>  <SCORE.INTRA.VDW.0>
-0.828515

>  <SCORE.INTRA.norm>
-0.017681

>  <SCORE.RESTR>
0

>  <SCORE.RESTR.CAVITY>
0

>  <SCORE.RESTR.norm>
0

>  <SCORE.SYSTEM>
0

>  <SCORE.SYSTEM.CONST>
0

>  <SCORE.SYSTEM.DIHEDRAL>
0

>  <SCORE.SYSTEM.SOLV>
0

>  <SCORE.SYSTEM.norm>
0

>  <SCORE.heavy>
16

>  <SCORE.norm>
-1.29986

>  <RMSD>
2.545

$$$$
ligand
 OpenBabel02271912153D
libRbt.so/2013.1/901 2013/11/27
 16 17  0  0  0  0  0  0  0  0999 V2000
    7.3883    6.9047   82.8804 N   0  0  0  0  0  0  0  0  0  0  0  0
    7.5221    5.5070   83.1161 C   0  0  2  0  0  0  0  0  0  0  0  0
    7.7846    4.7462   81.8464 C   0  0  0  0  0  0  0  0  0  0  0  0
    6.8928    4.6958   80.9647 O   0  0  0  0  0  0  0  0  0  0  0  0
    7.0905    0.2388   80.8748 O   0  0  0  0  0  0  0  0  0  0  0  0
    6.2814    4.9540   83.7752 C   0  0  0  0  0  0  0  0  0  0  0  0
    6.5274    3.6599   84.5138 C   0  0  0  0  0  0  0  0  0  0  0  0
    6.5569    3.5173   85.8430 C   0  0  0  0  0  0  0  0  0  0  0  0
    6.7269    2.4315   83.8036 C   0  0  0  0  0  0  0  0  0  0  0  0
    6.8918    1.4609   84.8293 C   0  0  0  0  0  0  0  0  0  0  0  0
    6.7764    2.0484   82.4916 C   0  0  0  0  0  0  0  0  0  0  0  0
    6.7762    2.1993   86.0270 N   0  0  0  0  0  0  0  0  0  0  0  0
    7.1078    0.1599   84.5812 C   0  0  0  0  0  0  0  0  0  0  0  0
    7.0181    0.6698   82.2060 C   0  0  0  0  0  0  0  0  0  0  0  0
    7.1925   -0.2937   83.2615 C   0  0  0  0  0  0  0  0  0  0  0  0
    8.8752    4.1593   81.6846 O   0  0  0  0  0  0  0  0  0  0  0  0
  2  1  1  6  0  0  0
  2  3  1  0  0  0  0
  2  6  1  0  0  0  0
  3  4  1  0  0  0  0
  3 16  1  0  0  0  0
  5 14  1  0  0  0  0
  6  7  1  0  0  0  0
  7  8  2  0  0  0  0
  7  9  1  0  0  0  0
  8 12  1  0  0  0  0
  9 10  2  0  0  0  0
  9 11  1  0  0  0  0
 10 13  1  0  0  0  0
 10 12  1  0  0  0  0
 11 14  2  0  0  0  0
 13 15  2  0  0  0  0
 14 15  1  0  0  0  0
M  END
>  <CHROM.1>
-66.19458686,-158.17576593,107.59490519,7.11244020,3.00821808,83.19929019
1.15679118,1.36750958,0.21943652

>  <Name>
ligand

>  <RI>
0

>  <Rbt.Current_Directory>
/home/itssahil/PROJECTS/Mol_Feturizer/Test_systems_manuscript/rnas/5kpy

>  <Rbt.Executable>
rbdock ($Id: //depot/dev/client3/rdock/2013.1/src/exe/rbdock.cxx#4 $)

>  <Rbt.Library>
libRbt.so (2013.1, Build901 2013/11/27)

>  <Rbt.Parameter_File>
/export/apps/rDock/src/rDock_2013.1_src/data/scripts/dock_solv.prm

>  <Rbt.Receptor>
prm/pocket_docking_4.prm

>  <SCORE>
-20.9906

>  <SCORE.INTER>
-20.5288

>  <SCORE.INTER.CONST>
1

>  <SCORE.INTER.POLAR>
0

>  <SCORE.INTER.ROT>
3

>  <SCORE.INTER.SOLV>
5.33287

>  <SCORE.INTER.VDW>
-21.0635

>  <SCORE.INTER.norm>
-1.28305

>  <SCORE.INTRA>
-0.461781

>  <SCORE.INTRA.DIHEDRAL>
1.59843

>  <SCORE.INTRA.DIHEDRAL.0>
3.89056

>  <SCORE.INTRA.POLAR>
0

>  <SCORE.INTRA.POLAR.0>
0

>  <SCORE.INTRA.REPUL>
0

>  <SCORE.INTRA.REPUL.0>
0

>  <SCORE.INTRA.SOLV>
-1.1662

>  <SCORE.INTRA.SOLV.lig_0>
-20.733

>  <SCORE.INTRA.VDW>
-0.677896

>  <SCORE.INTRA.VDW.0>
-0.828515

>  <SCORE.INTRA.norm>
-0.0288613

>  <SCORE.RESTR>
0

>  <SCORE.RESTR.CAVITY>
0

>  <SCORE.RESTR.norm>
0

>  <SCORE.SYSTEM>
0

>  <SCORE.SYSTEM.CONST>
0

>  <SCORE.SYSTEM.DIHEDRAL>
0

>  <SCORE.SYSTEM.SOLV>
0

>  <SCORE.SYSTEM.norm>
0

>  <SCORE.heavy>
16

>  <SCORE.norm>
-1.31191

>  <RMSD>
2.545

$$$$
ligand
 OpenBabel02271912153D
libRbt.so/2013.1/901 2013/11/27
 16 17  0  0  0  0  0  0  0  0999 V2000
    7.3911    6.8795   82.8550 N   0  0  0  0  0  0  0  0  0  0  0  0
    7.5246    5.4902   83.1364 C   0  0  2  0  0  0  0  0  0  0  0  0
    7.7749    4.6867   81.8908 C   0  0  0  0  0  0  0  0  0  0  0  0
    6.8968    4.6528   80.9946 O   0  0  0  0  0  0  0  0  0  0  0  0
    7.1247    0.2344   80.9520 O   0  0  0  0  0  0  0  0  0  0  0  0
    6.2885    4.9620   83.8242 C   0  0  0  0  0  0  0  0  0  0  0  0
    6.5295    3.6715   84.5707 C   0  0  0  0  0  0  0  0  0  0  0  0
    6.5483    3.5350   85.9007 C   0  0  0  0  0  0  0  0  0  0  0  0
    6.7357    2.4401   83.8677 C   0  0  0  0  0  0  0  0  0  0  0  0
    6.8929    1.4743   84.8991 C   0  0  0  0  0  0  0  0  0  0  0  0
    6.7962    2.0511   82.5579 C   0  0  0  0  0  0  0  0  0  0  0  0
    6.7671    2.2180   86.0924 N   0  0  0  0  0  0  0  0  0  0  0  0
    7.1119    0.1723   84.6587 C   0  0  0  0  0  0  0  0  0  0  0  0
    7.0411    0.6713   82.2805 C   0  0  0  0  0  0  0  0  0  0  0  0
    7.2077   -0.2872   83.3418 C   0  0  0  0  0  0  0  0  0  0  0  0
    8.8412    4.0490   81.7632 O   0  0  0  0  0  0  0  0  0  0  0  0
  2  1  1  6  0  0  0
  2  3  1  0  0  0  0
  2  6  1  0  0  0  0
  3  4  1  0  0  0  0
  3 16  1  0  0  0  0
  5 14  1  0  0  0  0
  6  7  1  0  0  0  0
  7  8  2  0  0  0  0
  7  9  1  0  0  0  0
  8 12  1  0  0  0  0
  9 10  2  0  0  0  0
  9 11  1  0  0  0  0
 10 13  1  0  0  0  0
 10 12  1  0  0  0  0
 11 14  2  0  0  0  0
 13 15  2  0  0  0  0
 14 15  1  0  0  0  0
M  END
>  <CHROM.1>
-63.32544413,-159.84803653,109.41098787,7.11613331,2.99617908,83.25417101
1.18966318,1.36727028,0.17543349

>  <Name>
ligand

>  <RI>
0

>  <Rbt.Current_Directory>
/home/itssahil/PROJECTS/Mol_Feturizer/Test_systems_manuscript/rnas/5kpy

>  <Rbt.Executable>
rbdock ($Id: //depot/dev/client3/rdock/2013.1/src/exe/rbdock.cxx#4 $)

>  <Rbt.Library>
libRbt.so (2013.1, Build901 2013/11/27)

>  <Rbt.Parameter_File>
/export/apps/rDock/src/rDock_2013.1_src/data/scripts/dock_solv.prm

>  <Rbt.Receptor>
prm/pocket_docking_5.prm

>  <SCORE>
-21.008

>  <SCORE.INTER>
-20.4923

>  <SCORE.INTER.CONST>
1

>  <SCORE.INTER.POLAR>
0

>  <SCORE.INTER.ROT>
3

>  <SCORE.INTER.SOLV>
5.30437

>  <SCORE.INTER.VDW>
-21.0296

>  <SCORE.INTER.norm>
-1.28077

>  <SCORE.INTRA>
-0.515711

>  <SCORE.INTRA.DIHEDRAL>
1.36226

>  <SCORE.INTRA.DIHEDRAL.0>
3.89056

>  <SCORE.INTRA.POLAR>
0

>  <SCORE.INTRA.POLAR.0>
0

>  <SCORE.INTRA.REPUL>
0

>  <SCORE.INTRA.REPUL.0>
0

>  <SCORE.INTRA.SOLV>
-1.16728

>  <SCORE.INTRA.SOLV.lig_0>
-20.733

>  <SCORE.INTRA.VDW>
-0.613198

>  <SCORE.INTRA.VDW.0>
-0.828515

>  <SCORE.INTRA.norm>
-0.0322319

>  <SCORE.RESTR>
0

>  <SCORE.RESTR.CAVITY>
0

>  <SCORE.RESTR.norm>
0

>  <SCORE.SYSTEM>
0

>  <SCORE.SYSTEM.CONST>
0

>  <SCORE.SYSTEM.DIHEDRAL>
0

>  <SCORE.SYSTEM.SOLV>
0

>  <SCORE.SYSTEM.norm>
0

>  <SCORE.heavy>
16

>  <SCORE.norm>
-1.313

>  <RMSD>
2.545

$$$$
ligand
 OpenBabel02271912153D
libRbt.so/2013.1/901 2013/11/27
 16 17  0  0  0  0  0  0  0  0999 V2000
    7.3784    6.9074   82.9043 N   0  0  0  0  0  0  0  0  0  0  0  0
    7.4979    5.5070   83.1313 C   0  0  2  0  0  0  0  0  0  0  0  0
    7.7088    4.7470   81.8515 C   0  0  0  0  0  0  0  0  0  0  0  0
    6.8604    4.8448   80.9318 O   0  0  0  0  0  0  0  0  0  0  0  0
    7.1010    0.2566   80.9310 O   0  0  0  0  0  0  0  0  0  0  0  0
    6.2699    4.9706   83.8270 C   0  0  0  0  0  0  0  0  0  0  0  0
    6.5228    3.6784   84.5668 C   0  0  0  0  0  0  0  0  0  0  0  0
    6.5538    3.5374   85.8961 C   0  0  0  0  0  0  0  0  0  0  0  0
    6.7281    2.4504   83.8578 C   0  0  0  0  0  0  0  0  0  0  0  0
    6.8984    1.4817   84.8843 C   0  0  0  0  0  0  0  0  0  0  0  0
    6.7788    2.0662   82.5461 C   0  0  0  0  0  0  0  0  0  0  0  0
    6.7799    2.2207   86.0813 N   0  0  0  0  0  0  0  0  0  0  0  0
    7.1208    0.1815   84.6374 C   0  0  0  0  0  0  0  0  0  0  0  0
    7.0271    0.6885   82.2617 C   0  0  0  0  0  0  0  0  0  0  0  0
    7.2070   -0.2730   83.3181 C   0  0  0  0  0  0  0  0  0  0  0  0
    8.7121    4.0150   81.7185 O   0  0  0  0  0  0  0  0  0  0  0  0
  2  1  1  6  0  0  0
  2  3  1  0  0  0  0
  2  6  1  0  0  0  0
  3  4  1  0  0  0  0
  3 16  1  0  0  0  0
  5 14  1  0  0  0  0
  6  7  1  0  0  0  0
  7  8  2  0  0  0  0
  7  9  1  0  0  0  0
  8 12  1  0  0  0  0
  9 10  2  0  0  0  0
  9 11  1  0  0  0  0
 10 13  1  0  0  0  0
 10 12  1  0  0  0  0
 11 14  2  0  0  0  0
 13 15  2  0  0  0  0
 14 15  1  0  0  0  0
M  END
>  <CHROM.1>
-57.63440637,-157.50574673,109.36498605,7.09366559,3.02159502,83.23841310
1.21020289,1.38496790,0.15076669

>  <Name>
ligand

>  <RI>
0

>  <Rbt.Current_Directory>
/home/itssahil/PROJECTS/Mol_Feturizer/Test_systems_manuscript/rnas/5kpy

>  <Rbt.Executable>
rbdock ($Id: //depot/dev/client3/rdock/2013.1/src/exe/rbdock.cxx#4 $)

>  <Rbt.Library>
libRbt.so (2013.1, Build901 2013/11/27)

>  <Rbt.Parameter_File>
/export/apps/rDock/src/rDock_2013.1_src/data/scripts/dock_solv.prm

>  <Rbt.Receptor>
prm/pocket_docking_4.prm

>  <SCORE>
-20.9135

>  <SCORE.INTER>
-20.493

>  <SCORE.INTER.CONST>
1

>  <SCORE.INTER.POLAR>
0

>  <SCORE.INTER.ROT>
3

>  <SCORE.INTER.SOLV>
5.27714

>  <SCORE.INTER.VDW>
-21.021

>  <SCORE.INTER.norm>
-1.28081

>  <SCORE.INTRA>
-0.420515

>  <SCORE.INTRA.DIHEDRAL>
1.67065

>  <SCORE.INTRA.DIHEDRAL.0>
3.89056

>  <SCORE.INTRA.POLAR>
0

>  <SCORE.INTRA.POLAR.0>
0

>  <SCORE.INTRA.REPUL>
0

>  <SCORE.INTRA.REPUL.0>
0

>  <SCORE.INTRA.SOLV>
-1.15968

>  <SCORE.INTRA.SOLV.lig_0>
-20.733

>  <SCORE.INTRA.VDW>
-0.675999

>  <SCORE.INTRA.VDW.0>
-0.828515

>  <SCORE.INTRA.norm>
-0.0262822

>  <SCORE.RESTR>
0

>  <SCORE.RESTR.CAVITY>
0

>  <SCORE.RESTR.norm>
0

>  <SCORE.SYSTEM>
0

>  <SCORE.SYSTEM.CONST>
0

>  <SCORE.SYSTEM.DIHEDRAL>
0

>  <SCORE.SYSTEM.SOLV>
0

>  <SCORE.SYSTEM.norm>
0

>  <SCORE.heavy>
16

>  <SCORE.norm>
-1.30709

>  <RMSD>
2.546

$$$$
ligand
 OpenBabel02271912153D
libRbt.so/2013.1/901 2013/11/27
 16 17  0  0  0  0  0  0  0  0999 V2000
    7.3753    6.8936   82.8418 N   0  0  0  0  0  0  0  0  0  0  0  0
    7.5240    5.5048   83.1178 C   0  0  2  0  0  0  0  0  0  0  0  0
    7.8223    4.7143   81.8744 C   0  0  0  0  0  0  0  0  0  0  0  0
    6.9724    4.6764   80.9517 O   0  0  0  0  0  0  0  0  0  0  0  0
    7.1209    0.2173   80.9080 O   0  0  0  0  0  0  0  0  0  0  0  0
    6.2783    4.9516   83.7673 C   0  0  0  0  0  0  0  0  0  0  0  0
    6.5212    3.6635   84.5173 C   0  0  0  0  0  0  0  0  0  0  0  0
    6.5403    3.5307   85.8477 C   0  0  0  0  0  0  0  0  0  0  0  0
    6.7290    2.4304   83.8177 C   0  0  0  0  0  0  0  0  0  0  0  0
    6.8878    1.4677   84.8517 C   0  0  0  0  0  0  0  0  0  0  0  0
    6.7899    2.0379   82.5089 C   0  0  0  0  0  0  0  0  0  0  0  0
    6.7611    2.2145   86.0430 N   0  0  0  0  0  0  0  0  0  0  0  0
    7.1086    0.1654   84.6149 C   0  0  0  0  0  0  0  0  0  0  0  0
    7.0368    0.6578   82.2353 C   0  0  0  0  0  0  0  0  0  0  0  0
    7.2049   -0.2976   83.2992 C   0  0  0  0  0  0  0  0  0  0  0  0
    8.8999    4.0907   81.7748 O   0  0  0  0  0  0  0  0  0  0  0  0
  2  1  1  6  0  0  0
  2  3  1  0  0  0  0
  2  6  1  0  0  0  0
  3  4  1  0  0  0  0
  3 16  1  0  0  0  0
  5 14  1  0  0  0  0
  6  7  1  0  0  0  0
  7  8  2  0  0  0  0
  7  9  1  0  0  0  0
  8 12  1  0  0  0  0
  9 10  2  0  0  0  0
  9 11  1  0  0  0  0
 10 13  1  0  0  0  0
 10 12  1  0  0  0  0
 11 14  2  0  0  0  0
 13 15  2  0  0  0  0
 14 15  1  0  0  0  0
M  END
>  <CHROM.1>
-63.04221522,-159.57727984,107.41765434,7.12400835,2.99818484,83.21657312
1.18044020,1.35754436,0.19236214

>  <Name>
ligand

>  <RI>
0

>  <Rbt.Current_Directory>
/home/itssahil/PROJECTS/Mol_Feturizer/Test_systems_manuscript/rnas/5kpy

>  <Rbt.Executable>
rbdock ($Id: //depot/dev/client3/rdock/2013.1/src/exe/rbdock.cxx#4 $)

>  <Rbt.Library>
libRbt.so (2013.1, Build901 2013/11/27)

>  <Rbt.Parameter_File>
/export/apps/rDock/src/rDock_2013.1_src/data/scripts/dock_solv.prm

>  <Rbt.Receptor>
prm/pocket_docking_8.prm

>  <SCORE>
-21.0222

>  <SCORE.INTER>
-20.4352

>  <SCORE.INTER.CONST>
1

>  <SCORE.INTER.POLAR>
0

>  <SCORE.INTER.ROT>
3

>  <SCORE.INTER.SOLV>
5.38279

>  <SCORE.INTER.VDW>
-21.0178

>  <SCORE.INTER.norm>
-1.2772

>  <SCORE.INTRA>
-0.586994

>  <SCORE.INTRA.DIHEDRAL>
1.40463

>  <SCORE.INTRA.DIHEDRAL.0>
3.89056

>  <SCORE.INTRA.POLAR>
0

>  <SCORE.INTRA.POLAR.0>
0

>  <SCORE.INTRA.REPUL>
0

>  <SCORE.INTRA.REPUL.0>
0

>  <SCORE.INTRA.SOLV>
-1.16747

>  <SCORE.INTRA.SOLV.lig_0>
-20.733

>  <SCORE.INTRA.VDW>
-0.705573

>  <SCORE.INTRA.VDW.0>
-0.828515

>  <SCORE.INTRA.norm>
-0.0366871

>  <SCORE.RESTR>
0

>  <SCORE.RESTR.CAVITY>
0

>  <SCORE.RESTR.norm>
0

>  <SCORE.SYSTEM>
0

>  <SCORE.SYSTEM.CONST>
0

>  <SCORE.SYSTEM.DIHEDRAL>
0

>  <SCORE.SYSTEM.SOLV>
0

>  <SCORE.SYSTEM.norm>
0

>  <SCORE.heavy>
16

>  <SCORE.norm>
-1.31389

>  <RMSD>
2.546

$$$$
ligand
 OpenBabel02271912153D
libRbt.so/2013.1/901 2013/11/27
 16 17  0  0  0  0  0  0  0  0999 V2000
    7.3985    6.9092   82.8920 N   0  0  0  0  0  0  0  0  0  0  0  0
    7.5152    5.5088   83.1206 C   0  0  2  0  0  0  0  0  0  0  0  0
    7.7315    4.7476   81.8425 C   0  0  0  0  0  0  0  0  0  0  0  0
    6.8388    4.7616   80.9603 O   0  0  0  0  0  0  0  0  0  0  0  0
    7.1024    0.2548   80.9204 O   0  0  0  0  0  0  0  0  0  0  0  0
    6.2831    4.9744   83.8107 C   0  0  0  0  0  0  0  0  0  0  0  0
    6.5306    3.6822   84.5521 C   0  0  0  0  0  0  0  0  0  0  0  0
    6.5593    3.5423   85.8816 C   0  0  0  0  0  0  0  0  0  0  0  0
    6.7327    2.4527   83.8445 C   0  0  0  0  0  0  0  0  0  0  0  0
    6.8984    1.4845   84.8723 C   0  0  0  0  0  0  0  0  0  0  0  0
    6.7840    2.0671   82.5333 C   0  0  0  0  0  0  0  0  0  0  0  0
    6.7806    2.2250   86.0684 N   0  0  0  0  0  0  0  0  0  0  0  0
    7.1167    0.1833   84.6269 C   0  0  0  0  0  0  0  0  0  0  0  0
    7.0281    0.6883   82.2506 C   0  0  0  0  0  0  0  0  0  0  0  0
    7.2032   -0.2728   83.3082 C   0  0  0  0  0  0  0  0  0  0  0  0
    8.7843    4.0969   81.6742 O   0  0  0  0  0  0  0  0  0  0  0  0
  2  1  1  6  0  0  0
  2  3  1  0  0  0  0
  2  6  1  0  0  0  0
  3  4  1  0  0  0  0
  3 16  1  0  0  0  0
  5 14  1  0  0  0  0
  6  7  1  0  0  0  0
  7  8  2  0  0  0  0
  7  9  1  0  0  0  0
  8 12  1  0  0  0  0
  9 10  2  0  0  0  0
  9 11  1  0  0  0  0
 10 13  1  0  0  0  0
 10 12  1  0  0  0  0
 11 14  2  0  0  0  0
 13 15  2  0  0  0  0
 14 15  1  0  0  0  0
M  END
>  <CHROM.1>
-63.18205503,-157.53548807,109.14215240,7.10312904,3.02310261,83.22685516
1.18287704,1.37892233,0.18023306

>  <Name>
ligand

>  <RI>
0

>  <Rbt.Current_Directory>
/home/itssahil/PROJECTS/Mol_Feturizer/Test_systems_manuscript/rnas/5kpy

>  <Rbt.Executable>
rbdock ($Id: //depot/dev/client3/rdock/2013.1/src/exe/rbdock.cxx#4 $)

>  <Rbt.Library>
libRbt.so (2013.1, Build901 2013/11/27)

>  <Rbt.Parameter_File>
/export/apps/rDock/src/rDock_2013.1_src/data/scripts/dock_solv.prm

>  <Rbt.Receptor>
prm/pocket_docking_4.prm

>  <SCORE>
-20.9591

>  <SCORE.INTER>
-20.5429

>  <SCORE.INTER.CONST>
1

>  <SCORE.INTER.POLAR>
0

>  <SCORE.INTER.ROT>
3

>  <SCORE.INTER.SOLV>
5.28118

>  <SCORE.INTER.VDW>
-21.0557

>  <SCORE.INTER.norm>
-1.28393

>  <SCORE.INTRA>
-0.416129

>  <SCORE.INTRA.DIHEDRAL>
1.67668

>  <SCORE.INTRA.DIHEDRAL.0>
3.89056

>  <SCORE.INTRA.POLAR>
0

>  <SCORE.INTRA.POLAR.0>
0

>  <SCORE.INTRA.REPUL>
0

>  <SCORE.INTRA.REPUL.0>
0

>  <SCORE.INTRA.SOLV>
-1.16278

>  <SCORE.INTRA.SOLV.lig_0>
-20.733

>  <SCORE.INTRA.VDW>
-0.673081

>  <SCORE.INTRA.VDW.0>
-0.828515

>  <SCORE.INTRA.norm>
-0.026008

>  <SCORE.RESTR>
0

>  <SCORE.RESTR.CAVITY>
0

>  <SCORE.RESTR.norm>
0

>  <SCORE.SYSTEM>
0

>  <SCORE.SYSTEM.CONST>
0

>  <SCORE.SYSTEM.DIHEDRAL>
0

>  <SCORE.SYSTEM.SOLV>
0

>  <SCORE.SYSTEM.norm>
0

>  <SCORE.heavy>
16

>  <SCORE.norm>
-1.30994

>  <RMSD>
2.547

$$$$
ligand
 OpenBabel02271912153D
libRbt.so/2013.1/901 2013/11/27
 16 17  0  0  0  0  0  0  0  0999 V2000
    7.3995    6.8895   82.8125 N   0  0  0  0  0  0  0  0  0  0  0  0
    7.5300    5.5034   83.1102 C   0  0  2  0  0  0  0  0  0  0  0  0
    7.7781    4.6847   81.8741 C   0  0  0  0  0  0  0  0  0  0  0  0
    6.9007    4.6440   80.9776 O   0  0  0  0  0  0  0  0  0  0  0  0
    7.0867    0.2574   80.9221 O   0  0  0  0  0  0  0  0  0  0  0  0
    6.2929    4.9862   83.8045 C   0  0  0  0  0  0  0  0  0  0  0  0
    6.5259    3.6925   84.5481 C   0  0  0  0  0  0  0  0  0  0  0  0
    6.5467    3.5536   85.8779 C   0  0  0  0  0  0  0  0  0  0  0  0
    6.7211    2.4608   83.8426 C   0  0  0  0  0  0  0  0  0  0  0  0
    6.8735    1.4921   84.8719 C   0  0  0  0  0  0  0  0  0  0  0  0
    6.7756    2.0737   82.5319 C   0  0  0  0  0  0  0  0  0  0  0  0
    6.7560    2.2346   86.0669 N   0  0  0  0  0  0  0  0  0  0  0  0
    7.0820    0.1889   84.6288 C   0  0  0  0  0  0  0  0  0  0  0  0
    7.0095    0.6926   82.2516 C   0  0  0  0  0  0  0  0  0  0  0  0
    7.1713   -0.2690   83.3108 C   0  0  0  0  0  0  0  0  0  0  0  0
    8.8420    4.0412   81.7549 O   0  0  0  0  0  0  0  0  0  0  0  0
  2  1  1  6  0  0  0
  2  3  1  0  0  0  0
  2  6  1  0  0  0  0
  3  4  1  0  0  0  0
  3 16  1  0  0  0  0
  5 14  1  0  0  0  0
  6  7  1  0  0  0  0
  7  8  2  0  0  0  0
  7  9  1  0  0  0  0
  8 12  1  0  0  0  0
  9 10  2  0  0  0  0
  9 11  1  0  0  0  0
 10 13  1  0  0  0  0
 10 12  1  0  0  0  0
 11 14  2  0  0  0  0
 13 15  2  0  0  0  0
 14 15  1  0  0  0  0
M  END
>  <CHROM.1>
-63.20099539,-160.75374929,109.63801434,7.10526884,3.00965048,83.22946529
1.15401209,1.36720164,0.21310966

>  <Name>
ligand

>  <RI>
0

>  <Rbt.Current_Directory>
/home/itssahil/PROJECTS/Mol_Feturizer/Test_systems_manuscript/rnas/5kpy

>  <Rbt.Executable>
rbdock ($Id: //depot/dev/client3/rdock/2013.1/src/exe/rbdock.cxx#4 $)

>  <Rbt.Library>
libRbt.so (2013.1, Build901 2013/11/27)

>  <Rbt.Parameter_File>
/export/apps/rDock/src/rDock_2013.1_src/data/scripts/dock_solv.prm

>  <Rbt.Receptor>
prm/pocket_docking_7.prm

>  <SCORE>
-20.9555

>  <SCORE.INTER>
-20.4232

>  <SCORE.INTER.CONST>
1

>  <SCORE.INTER.POLAR>
0

>  <SCORE.INTER.ROT>
3

>  <SCORE.INTER.SOLV>
5.37482

>  <SCORE.INTER.VDW>
-21.0071

>  <SCORE.INTER.norm>
-1.27645

>  <SCORE.INTRA>
-0.532307

>  <SCORE.INTRA.DIHEDRAL>
1.24393

>  <SCORE.INTRA.DIHEDRAL.0>
3.89056

>  <SCORE.INTRA.POLAR>
0

>  <SCORE.INTRA.POLAR.0>
0

>  <SCORE.INTRA.REPUL>
0

>  <SCORE.INTRA.REPUL.0>
0

>  <SCORE.INTRA.SOLV>
-1.16877

>  <SCORE.INTRA.SOLV.lig_0>
-20.733

>  <SCORE.INTRA.VDW>
-0.569889

>  <SCORE.INTRA.VDW.0>
-0.828515

>  <SCORE.INTRA.norm>
-0.0332692

>  <SCORE.RESTR>
0

>  <SCORE.RESTR.CAVITY>
0

>  <SCORE.RESTR.norm>
0

>  <SCORE.SYSTEM>
0

>  <SCORE.SYSTEM.CONST>
0

>  <SCORE.SYSTEM.DIHEDRAL>
0

>  <SCORE.SYSTEM.SOLV>
0

>  <SCORE.SYSTEM.norm>
0

>  <SCORE.heavy>
16

>  <SCORE.norm>
-1.30972

>  <RMSD>
2.547

$$$$
ligand
 OpenBabel02271912153D
libRbt.so/2013.1/901 2013/11/27
 16 17  0  0  0  0  0  0  0  0999 V2000
    8.8901    5.5426   83.3552 N   0  0  0  0  0  0  0  0  0  0  0  0
    7.7796    5.2469   82.5149 C   0  0  2  0  0  0  0  0  0  0  0  0
    7.5187    6.3452   81.5222 C   0  0  0  0  0  0  0  0  0  0  0  0
    8.0681    7.4621   81.6831 O   0  0  0  0  0  0  0  0  0  0  0  0
    7.2687   -0.0373   81.0531 O   0  0  0  0  0  0  0  0  0  0  0  0
    6.5332    5.0173   83.3356 C   0  0  0  0  0  0  0  0  0  0  0  0
    6.6260    3.8040   84.2302 C   0  0  0  0  0  0  0  0  0  0  0  0
    6.5305    3.8129   85.5639 C   0  0  0  0  0  0  0  0  0  0  0  0
    6.8024    2.4931   83.6795 C   0  0  0  0  0  0  0  0  0  0  0  0
    6.8116    1.6382   84.8154 C   0  0  0  0  0  0  0  0  0  0  0  0
    6.9393    1.9603   82.4272 C   0  0  0  0  0  0  0  0  0  0  0  0
    6.6431    2.5140   85.9097 N   0  0  0  0  0  0  0  0  0  0  0  0
    6.9595    0.3071   84.7314 C   0  0  0  0  0  0  0  0  0  0  0  0
    7.1106    0.5464   82.3169 C   0  0  0  0  0  0  0  0  0  0  0  0
    7.1272   -0.2986   83.4825 C   0  0  0  0  0  0  0  0  0  0  0  0
    6.7491    6.1459   80.5588 O   0  0  0  0  0  0  0  0  0  0  0  0
  2  1  1  1  0  0  0
  2  3  1  0  0  0  0
  2  6  1  0  0  0  0
  3  4  1  0  0  0  0
  3 16  1  0  0  0  0
  5 14  1  0  0  0  0
  6  7  1  0  0  0  0
  7  8  2  0  0  0  0
  7  9  1  0  0  0  0
  8 12  1  0  0  0  0
  9 10  2  0  0  0  0
  9 11  1  0  0  0  0
 10 13  1  0  0  0  0
 10 12  1  0  0  0  0
 11 14  2  0  0  0  0
 13 15  2  0  0  0  0
 14 15  1  0  0  0  0
M  END
>  <CHROM.1>
-14.02645553,-64.49138985,119.76977594,7.16838028,3.39174075,83.10484126
0.66742506,1.43083655,0.60766358

>  <Name>
ligand

>  <RI>
0

>  <Rbt.Current_Directory>
/home/itssahil/PROJECTS/Mol_Feturizer/Test_systems_manuscript/rnas/5kpy

>  <Rbt.Executable>
rbdock ($Id: //depot/dev/client3/rdock/2013.1/src/exe/rbdock.cxx#4 $)

>  <Rbt.Library>
libRbt.so (2013.1, Build901 2013/11/27)

>  <Rbt.Parameter_File>
/export/apps/rDock/src/rDock_2013.1_src/data/scripts/dock_solv.prm

>  <Rbt.Receptor>
prm/pocket_docking_8.prm

>  <SCORE>
-19.9801

>  <SCORE.INTER>
-19.6635

>  <SCORE.INTER.CONST>
1

>  <SCORE.INTER.POLAR>
0

>  <SCORE.INTER.ROT>
3

>  <SCORE.INTER.SOLV>
9.02292

>  <SCORE.INTER.VDW>
-21.7167

>  <SCORE.INTER.norm>
-1.22897

>  <SCORE.INTRA>
-0.31659

>  <SCORE.INTRA.DIHEDRAL>
-0.0626943

>  <SCORE.INTRA.DIHEDRAL.0>
3.89056

>  <SCORE.INTRA.POLAR>
0

>  <SCORE.INTRA.POLAR.0>
0

>  <SCORE.INTRA.REPUL>
0

>  <SCORE.INTRA.REPUL.0>
0

>  <SCORE.INTRA.SOLV>
-0.306294

>  <SCORE.INTRA.SOLV.lig_0>
-20.733

>  <SCORE.INTRA.VDW>
-0.132096

>  <SCORE.INTRA.VDW.0>
-0.828515

>  <SCORE.INTRA.norm>
-0.0197868

>  <SCORE.RESTR>
0

>  <SCORE.RESTR.CAVITY>
0

>  <SCORE.RESTR.norm>
0

>  <SCORE.SYSTEM>
0

>  <SCORE.SYSTEM.CONST>
0

>  <SCORE.SYSTEM.DIHEDRAL>
0

>  <SCORE.SYSTEM.SOLV>
0

>  <SCORE.SYSTEM.norm>
0

>  <SCORE.heavy>
16

>  <SCORE.norm>
-1.24876

>  <RMSD>
2.549

$$$$
ligand
 OpenBabel02271912153D
libRbt.so/2013.1/901 2013/11/27
 16 17  0  0  0  0  0  0  0  0999 V2000
    7.3938    6.9017   82.8543 N   0  0  0  0  0  0  0  0  0  0  0  0
    7.5169    5.5034   83.0924 C   0  0  2  0  0  0  0  0  0  0  0  0
    7.7439    4.7353   81.8204 C   0  0  0  0  0  0  0  0  0  0  0  0
    6.8811    4.7848   80.9102 O   0  0  0  0  0  0  0  0  0  0  0  0
    7.0578    0.2728   80.8357 O   0  0  0  0  0  0  0  0  0  0  0  0
    6.2841    4.9669   83.7795 C   0  0  0  0  0  0  0  0  0  0  0  0
    6.5277    3.6654   84.5060 C   0  0  0  0  0  0  0  0  0  0  0  0
    6.5628    3.5115   85.8338 C   0  0  0  0  0  0  0  0  0  0  0  0
    6.7181    2.4423   83.7846 C   0  0  0  0  0  0  0  0  0  0  0  0
    6.8835    1.4623   84.8012 C   0  0  0  0  0  0  0  0  0  0  0  0
    6.7597    2.0700   82.4691 C   0  0  0  0  0  0  0  0  0  0  0  0
    6.7770    2.1910   86.0056 N   0  0  0  0  0  0  0  0  0  0  0  0
    7.0923    0.1624   84.5411 C   0  0  0  0  0  0  0  0  0  0  0  0
    6.9937    0.6928   82.1707 C   0  0  0  0  0  0  0  0  0  0  0  0
    7.1687   -0.2804   83.2172 C   0  0  0  0  0  0  0  0  0  0  0  0
    8.7753    4.0440   81.6843 O   0  0  0  0  0  0  0  0  0  0  0  0
  2  1  1  6  0  0  0
  2  3  1  0  0  0  0
  2  6  1  0  0  0  0
  3  4  1  0  0  0  0
  3 16  1  0  0  0  0
  5 14  1  0  0  0  0
  6  7  1  0  0  0  0
  7  8  2  0  0  0  0
  7  9  1  0  0  0  0
  8 12  1  0  0  0  0
  9 10  2  0  0  0  0
  9 11  1  0  0  0  0
 10 13  1  0  0  0  0
 10 12  1  0  0  0  0
 11 14  2  0  0  0  0
 13 15  2  0  0  0  0
 14 15  1  0  0  0  0
M  END
>  <CHROM.1>
-60.17915080,-158.75890879,108.92656111,7.09427032,3.01217671,83.17463774
1.14933756,1.38057091,0.22666121

>  <Name>
ligand

>  <RI>
0

>  <Rbt.Current_Directory>
/home/itssahil/PROJECTS/Mol_Feturizer/Test_systems_manuscript/rnas/5kpy

>  <Rbt.Executable>
rbdock ($Id: //depot/dev/client3/rdock/2013.1/src/exe/rbdock.cxx#4 $)

>  <Rbt.Library>
libRbt.so (2013.1, Build901 2013/11/27)

>  <Rbt.Parameter_File>
/export/apps/rDock/src/rDock_2013.1_src/data/scripts/dock_solv.prm

>  <Rbt.Receptor>
prm/pocket_docking_4.prm

>  <SCORE>
-20.9409

>  <SCORE.INTER>
-20.4338

>  <SCORE.INTER.CONST>
1

>  <SCORE.INTER.POLAR>
0

>  <SCORE.INTER.ROT>
3

>  <SCORE.INTER.SOLV>
5.35865

>  <SCORE.INTER.VDW>
-21.0088

>  <SCORE.INTER.norm>
-1.27711

>  <SCORE.INTRA>
-0.507105

>  <SCORE.INTRA.DIHEDRAL>
1.50408

>  <SCORE.INTRA.DIHEDRAL.0>
3.89056

>  <SCORE.INTRA.POLAR>
0

>  <SCORE.INTRA.POLAR.0>
0

>  <SCORE.INTRA.REPUL>
0

>  <SCORE.INTRA.REPUL.0>
0

>  <SCORE.INTRA.SOLV>
-1.16378

>  <SCORE.INTRA.SOLV.lig_0>
-20.733

>  <SCORE.INTRA.VDW>
-0.677256

>  <SCORE.INTRA.VDW.0>
-0.828515

>  <SCORE.INTRA.norm>
-0.031694

>  <SCORE.RESTR>
0

>  <SCORE.RESTR.CAVITY>
0

>  <SCORE.RESTR.norm>
0

>  <SCORE.SYSTEM>
0

>  <SCORE.SYSTEM.CONST>
0

>  <SCORE.SYSTEM.DIHEDRAL>
0

>  <SCORE.SYSTEM.SOLV>
0

>  <SCORE.SYSTEM.norm>
0

>  <SCORE.heavy>
16

>  <SCORE.norm>
-1.30881

>  <RMSD>
2.551

$$$$
ligand
 OpenBabel02271912153D
libRbt.so/2013.1/901 2013/11/27
 16 17  0  0  0  0  0  0  0  0999 V2000
    7.4110    6.9132   82.8745 N   0  0  0  0  0  0  0  0  0  0  0  0
    7.5304    5.5115   83.0933 C   0  0  2  0  0  0  0  0  0  0  0  0
    7.7671    4.7615   81.8122 C   0  0  0  0  0  0  0  0  0  0  0  0
    6.8986    4.8021   80.9070 O   0  0  0  0  0  0  0  0  0  0  0  0
    7.0605    0.2617   80.8345 O   0  0  0  0  0  0  0  0  0  0  0  0
    6.2914    4.9666   83.7624 C   0  0  0  0  0  0  0  0  0  0  0  0
    6.5334    3.6673   84.4933 C   0  0  0  0  0  0  0  0  0  0  0  0
    6.5681    3.5179   85.8217 C   0  0  0  0  0  0  0  0  0  0  0  0
    6.7227    2.4415   83.7761 C   0  0  0  0  0  0  0  0  0  0  0  0
    6.8867    1.4648   84.7960 C   0  0  0  0  0  0  0  0  0  0  0  0
    6.7641    2.0648   82.4619 C   0  0  0  0  0  0  0  0  0  0  0  0
    6.7808    2.1977   85.9980 N   0  0  0  0  0  0  0  0  0  0  0  0
    7.0941    0.1638   84.5404 C   0  0  0  0  0  0  0  0  0  0  0  0
    6.9965    0.6863   82.1682 C   0  0  0  0  0  0  0  0  0  0  0  0
    7.1703   -0.2835   83.2180 C   0  0  0  0  0  0  0  0  0  0  0  0
    8.8122    4.0938   81.6638 O   0  0  0  0  0  0  0  0  0  0  0  0
  2  1  1  6  0  0  0
  2  3  1  0  0  0  0
  2  6  1  0  0  0  0
  3  4  1  0  0  0  0
  3 16  1  0  0  0  0
  5 14  1  0  0  0  0
  6  7  1  0  0  0  0
  7  8  2  0  0  0  0
  7  9  1  0  0  0  0
  8 12  1  0  0  0  0
  9 10  2  0  0  0  0
  9 11  1  0  0  0  0
 10 13  1  0  0  0  0
 10 12  1  0  0  0  0
 11 14  2  0  0  0  0
 13 15  2  0  0  0  0
 14 15  1  0  0  0  0
M  END
>  <CHROM.1>
-61.69332846,-157.70139319,107.95173199,7.10430381,3.01941467,83.16930006
1.13255829,1.37642626,0.24334211

>  <Name>
ligand

>  <RI>
0

>  <Rbt.Current_Directory>
/home/itssahil/PROJECTS/Mol_Feturizer/Test_systems_manuscript/rnas/5kpy

>  <Rbt.Executable>
rbdock ($Id: //depot/dev/client3/rdock/2013.1/src/exe/rbdock.cxx#4 $)

>  <Rbt.Library>
libRbt.so (2013.1, Build901 2013/11/27)

>  <Rbt.Parameter_File>
/export/apps/rDock/src/rDock_2013.1_src/data/scripts/dock_solv.prm

>  <Rbt.Receptor>
prm/pocket_docking_4.prm

>  <SCORE>
-20.921

>  <SCORE.INTER>
-20.4322

>  <SCORE.INTER.CONST>
1

>  <SCORE.INTER.POLAR>
0

>  <SCORE.INTER.ROT>
3

>  <SCORE.INTER.SOLV>
5.34141

>  <SCORE.INTER.VDW>
-21.0019

>  <SCORE.INTER.norm>
-1.27701

>  <SCORE.INTRA>
-0.488794

>  <SCORE.INTRA.DIHEDRAL>
1.65535

>  <SCORE.INTRA.DIHEDRAL.0>
3.89056

>  <SCORE.INTRA.POLAR>
0

>  <SCORE.INTRA.POLAR.0>
0

>  <SCORE.INTRA.REPUL>
0

>  <SCORE.INTRA.REPUL.0>
0

>  <SCORE.INTRA.SOLV>
-1.16286

>  <SCORE.INTRA.SOLV.lig_0>
-20.733

>  <SCORE.INTRA.VDW>
-0.735039

>  <SCORE.INTRA.VDW.0>
-0.828515

>  <SCORE.INTRA.norm>
-0.0305496

>  <SCORE.RESTR>
0

>  <SCORE.RESTR.CAVITY>
0

>  <SCORE.RESTR.norm>
0

>  <SCORE.SYSTEM>
0

>  <SCORE.SYSTEM.CONST>
0

>  <SCORE.SYSTEM.DIHEDRAL>
0

>  <SCORE.SYSTEM.SOLV>
0

>  <SCORE.SYSTEM.norm>
0

>  <SCORE.heavy>
16

>  <SCORE.norm>
-1.30756

>  <RMSD>
2.551

$$$$
ligand
 OpenBabel02271912153D
libRbt.so/2013.1/901 2013/11/27
 16 17  0  0  0  0  0  0  0  0999 V2000
    7.4130    6.8968   82.8776 N   0  0  0  0  0  0  0  0  0  0  0  0
    7.5275    5.4992   83.1235 C   0  0  2  0  0  0  0  0  0  0  0  0
    7.7550    4.7231   81.8564 C   0  0  0  0  0  0  0  0  0  0  0  0
    8.8165    4.0676   81.7194 O   0  0  0  0  0  0  0  0  0  0  0  0
    7.1174    0.2373   80.9475 O   0  0  0  0  0  0  0  0  0  0  0  0
    6.2894    4.9729   83.8089 C   0  0  0  0  0  0  0  0  0  0  0  0
    6.5276    3.6835   84.5583 C   0  0  0  0  0  0  0  0  0  0  0  0
    6.5457    3.5500   85.8887 C   0  0  0  0  0  0  0  0  0  0  0  0
    6.7316    2.4502   83.8582 C   0  0  0  0  0  0  0  0  0  0  0  0
    6.8868    1.4864   84.8918 C   0  0  0  0  0  0  0  0  0  0  0  0
    6.7918    2.0582   82.5492 C   0  0  0  0  0  0  0  0  0  0  0  0
    6.7620    2.2330   86.0834 N   0  0  0  0  0  0  0  0  0  0  0  0
    7.1033    0.1835   84.6543 C   0  0  0  0  0  0  0  0  0  0  0  0
    7.0342    0.6773   82.2750 C   0  0  0  0  0  0  0  0  0  0  0  0
    7.1986   -0.2792   83.3385 C   0  0  0  0  0  0  0  0  0  0  0  0
    6.8993    4.7484   80.9469 O   0  0  0  0  0  0  0  0  0  0  0  0
  2  1  1  6  0  0  0
  2  3  1  0  0  0  0
  2  6  1  0  0  0  0
  3  4  1  0  0  0  0
  3 16  1  0  0  0  0
  5 14  1  0  0  0  0
  6  7  1  0  0  0  0
  7  8  2  0  0  0  0
  7  9  1  0  0  0  0
  8 12  1  0  0  0  0
  9 10  2  0  0  0  0
  9 11  1  0  0  0  0
 10 13  1  0  0  0  0
 10 12  1  0  0  0  0
 11 14  2  0  0  0  0
 13 15  2  0  0  0  0
 14 15  1  0  0  0  0
M  END
>  <CHROM.1>
117.94925025,-157.99714759,109.25096469,7.11163129,3.01518745,83.24043348
1.17343411,1.36923965,0.18285416

>  <Name>
ligand

>  <RI>
0

>  <Rbt.Current_Directory>
/home/itssahil/PROJECTS/Mol_Feturizer/Test_systems_manuscript/rnas/5kpy

>  <Rbt.Executable>
rbdock ($Id: //depot/dev/client3/rdock/2013.1/src/exe/rbdock.cxx#4 $)

>  <Rbt.Library>
libRbt.so (2013.1, Build901 2013/11/27)

>  <Rbt.Parameter_File>
/export/apps/rDock/src/rDock_2013.1_src/data/scripts/dock_solv.prm

>  <Rbt.Receptor>
prm/pocket_docking_7.prm

>  <SCORE>
-20.9554

>  <SCORE.INTER>
-20.4816

>  <SCORE.INTER.CONST>
1

>  <SCORE.INTER.POLAR>
0

>  <SCORE.INTER.ROT>
3

>  <SCORE.INTER.SOLV>
5.27201

>  <SCORE.INTER.VDW>
-21.0117

>  <SCORE.INTER.norm>
-1.2801

>  <SCORE.INTRA>
-0.473836

>  <SCORE.INTRA.DIHEDRAL>
1.60314

>  <SCORE.INTRA.DIHEDRAL.0>
3.89056

>  <SCORE.INTRA.POLAR>
0

>  <SCORE.INTRA.POLAR.0>
0

>  <SCORE.INTRA.REPUL>
0

>  <SCORE.INTRA.REPUL.0>
0

>  <SCORE.INTRA.SOLV>
-1.15892

>  <SCORE.INTRA.SOLV.lig_0>
-20.733

>  <SCORE.INTRA.VDW>
-0.695947

>  <SCORE.INTRA.VDW.0>
-0.828515

>  <SCORE.INTRA.norm>
-0.0296148

>  <SCORE.RESTR>
0

>  <SCORE.RESTR.CAVITY>
0

>  <SCORE.RESTR.norm>
0

>  <SCORE.SYSTEM>
0

>  <SCORE.SYSTEM.CONST>
0

>  <SCORE.SYSTEM.DIHEDRAL>
0

>  <SCORE.SYSTEM.SOLV>
0

>  <SCORE.SYSTEM.norm>
0

>  <SCORE.heavy>
16

>  <SCORE.norm>
-1.30971

>  <RMSD>
2.551

$$$$
ligand
 OpenBabel02271912153D
libRbt.so/2013.1/901 2013/11/27
 16 17  0  0  0  0  0  0  0  0999 V2000
    7.4018    6.9010   82.8719 N   0  0  0  0  0  0  0  0  0  0  0  0
    7.5069    5.5013   83.1103 C   0  0  2  0  0  0  0  0  0  0  0  0
    7.6992    4.7277   81.8358 C   0  0  0  0  0  0  0  0  0  0  0  0
    8.7610    4.0811   81.6637 O   0  0  0  0  0  0  0  0  0  0  0  0
    7.1183    0.2623   80.9415 O   0  0  0  0  0  0  0  0  0  0  0  0
    6.2783    4.9854   83.8202 C   0  0  0  0  0  0  0  0  0  0  0  0
    6.5205    3.6940   84.5648 C   0  0  0  0  0  0  0  0  0  0  0  0
    6.5397    3.5558   85.8947 C   0  0  0  0  0  0  0  0  0  0  0  0
    6.7277    2.4638   83.8603 C   0  0  0  0  0  0  0  0  0  0  0  0
    6.8860    1.4967   84.8903 C   0  0  0  0  0  0  0  0  0  0  0  0
    6.7883    2.0765   82.5499 C   0  0  0  0  0  0  0  0  0  0  0  0
    6.7597    2.2387   86.0847 N   0  0  0  0  0  0  0  0  0  0  0  0
    7.1061    0.1953   84.6482 C   0  0  0  0  0  0  0  0  0  0  0  0
    7.0345    0.6974   82.2706 C   0  0  0  0  0  0  0  0  0  0  0  0
    7.2021   -0.2624   83.3306 C   0  0  0  0  0  0  0  0  0  0  0  0
    6.8139    4.7462   80.9549 O   0  0  0  0  0  0  0  0  0  0  0  0
  2  1  1  6  0  0  0
  2  3  1  0  0  0  0
  2  6  1  0  0  0  0
  3  4  1  0  0  0  0
  3 16  1  0  0  0  0
  5 14  1  0  0  0  0
  6  7  1  0  0  0  0
  7  8  2  0  0  0  0
  7  9  1  0  0  0  0
  8 12  1  0  0  0  0
  9 10  2  0  0  0  0
  9 11  1  0  0  0  0
 10 13  1  0  0  0  0
 10 12  1  0  0  0  0
 11 14  2  0  0  0  0
 13 15  2  0  0  0  0
 14 15  1  0  0  0  0
M  END
>  <CHROM.1>
116.67885934,-157.73643565,110.54663843,7.09411017,3.02591293,83.23457414
1.19637738,1.37736742,0.15614186

>  <Name>
ligand

>  <RI>
0

>  <Rbt.Current_Directory>
/home/itssahil/PROJECTS/Mol_Feturizer/Test_systems_manuscript/rnas/5kpy

>  <Rbt.Executable>
rbdock ($Id: //depot/dev/client3/rdock/2013.1/src/exe/rbdock.cxx#4 $)

>  <Rbt.Library>
libRbt.so (2013.1, Build901 2013/11/27)

>  <Rbt.Parameter_File>
/export/apps/rDock/src/rDock_2013.1_src/data/scripts/dock_solv.prm

>  <Rbt.Receptor>
prm/pocket_docking_4.prm

>  <SCORE>
-21.0036

>  <SCORE.INTER>
-20.5985

>  <SCORE.INTER.CONST>
1

>  <SCORE.INTER.POLAR>
0

>  <SCORE.INTER.ROT>
3

>  <SCORE.INTER.SOLV>
5.26741

>  <SCORE.INTER.VDW>
-21.0881

>  <SCORE.INTER.norm>
-1.28741

>  <SCORE.INTRA>
-0.405132

>  <SCORE.INTRA.DIHEDRAL>
1.63223

>  <SCORE.INTRA.DIHEDRAL.0>
3.89056

>  <SCORE.INTRA.POLAR>
0

>  <SCORE.INTRA.POLAR.0>
0

>  <SCORE.INTRA.REPUL>
0

>  <SCORE.INTRA.REPUL.0>
0

>  <SCORE.INTRA.SOLV>
-1.15827

>  <SCORE.INTRA.SOLV.lig_0>
-20.733

>  <SCORE.INTRA.VDW>
-0.642113

>  <SCORE.INTRA.VDW.0>
-0.828515

>  <SCORE.INTRA.norm>
-0.0253207

>  <SCORE.RESTR>
0

>  <SCORE.RESTR.CAVITY>
0

>  <SCORE.RESTR.norm>
0

>  <SCORE.SYSTEM>
0

>  <SCORE.SYSTEM.CONST>
0

>  <SCORE.SYSTEM.DIHEDRAL>
0

>  <SCORE.SYSTEM.SOLV>
0

>  <SCORE.SYSTEM.norm>
0

>  <SCORE.heavy>
16

>  <SCORE.norm>
-1.31273

>  <RMSD>
2.553

$$$$
ligand
 OpenBabel02271912153D
libRbt.so/2013.1/901 2013/11/27
 16 17  0  0  0  0  0  0  0  0999 V2000
    7.3108    6.8798   82.8189 N   0  0  0  0  0  0  0  0  0  0  0  0
    7.4784    5.4987   83.1216 C   0  0  2  0  0  0  0  0  0  0  0  0
    7.7797    4.6872   81.8926 C   0  0  0  0  0  0  0  0  0  0  0  0
    6.9729    4.7052   80.9313 O   0  0  0  0  0  0  0  0  0  0  0  0
    7.1306    0.1965   80.9640 O   0  0  0  0  0  0  0  0  0  0  0  0
    6.2433    4.9432   83.7891 C   0  0  0  0  0  0  0  0  0  0  0  0
    6.5027    3.6637   84.5483 C   0  0  0  0  0  0  0  0  0  0  0  0
    6.5271    3.5414   85.8796 C   0  0  0  0  0  0  0  0  0  0  0  0
    6.7223    2.4277   83.8577 C   0  0  0  0  0  0  0  0  0  0  0  0
    6.8947    1.4748   84.8986 C   0  0  0  0  0  0  0  0  0  0  0  0
    6.7839    2.0257   82.5518 C   0  0  0  0  0  0  0  0  0  0  0  0
    6.7630    2.2293   86.0845 N   0  0  0  0  0  0  0  0  0  0  0  0
    7.1294    0.1732   84.6712 C   0  0  0  0  0  0  0  0  0  0  0  0
    7.0454    0.6463   82.2881 C   0  0  0  0  0  0  0  0  0  0  0  0
    7.2271   -0.2989   83.3588 C   0  0  0  0  0  0  0  0  0  0  0  0
    8.8161    3.9919   81.8424 O   0  0  0  0  0  0  0  0  0  0  0  0
  2  1  1  6  0  0  0
  2  3  1  0  0  0  0
  2  6  1  0  0  0  0
  3  4  1  0  0  0  0
  3 16  1  0  0  0  0
  5 14  1  0  0  0  0
  6  7  1  0  0  0  0
  7  8  2  0  0  0  0
  7  9  1  0  0  0  0
  8 12  1  0  0  0  0
  9 10  2  0  0  0  0
  9 11  1  0  0  0  0
 10 13  1  0  0  0  0
 10 12  1  0  0  0  0
 11 14  2  0  0  0  0
 13 15  2  0  0  0  0
 14 15  1  0  0  0  0
M  END
>  <CHROM.1>
-57.44852429,-160.32576194,107.92294718,7.10752251,2.98879209,83.24889886
1.24434604,1.36597006,0.11848159

>  <Name>
ligand

>  <RI>
0

>  <Rbt.Current_Directory>
/home/itssahil/PROJECTS/Mol_Feturizer/Test_systems_manuscript/rnas/5kpy

>  <Rbt.Executable>
rbdock ($Id: //depot/dev/client3/rdock/2013.1/src/exe/rbdock.cxx#4 $)

>  <Rbt.Library>
libRbt.so (2013.1, Build901 2013/11/27)

>  <Rbt.Parameter_File>
/export/apps/rDock/src/rDock_2013.1_src/data/scripts/dock_solv.prm

>  <Rbt.Receptor>
prm/pocket_docking_6.prm

>  <SCORE>
-20.9107

>  <SCORE.INTER>
-20.2496

>  <SCORE.INTER.CONST>
1

>  <SCORE.INTER.POLAR>
0

>  <SCORE.INTER.ROT>
3

>  <SCORE.INTER.SOLV>
5.45788

>  <SCORE.INTER.VDW>
-20.919

>  <SCORE.INTER.norm>
-1.2656

>  <SCORE.INTRA>
-0.661084

>  <SCORE.INTRA.DIHEDRAL>
1.29545

>  <SCORE.INTRA.DIHEDRAL.0>
3.89056

>  <SCORE.INTRA.POLAR>
0

>  <SCORE.INTRA.POLAR.0>
0

>  <SCORE.INTRA.REPUL>
0

>  <SCORE.INTRA.REPUL.0>
0

>  <SCORE.INTRA.SOLV>
-1.16567

>  <SCORE.INTRA.SOLV.lig_0>
-20.733

>  <SCORE.INTRA.VDW>
-0.725974

>  <SCORE.INTRA.VDW.0>
-0.828515

>  <SCORE.INTRA.norm>
-0.0413178

>  <SCORE.RESTR>
0

>  <SCORE.RESTR.CAVITY>
0

>  <SCORE.RESTR.norm>
0

>  <SCORE.SYSTEM>
0

>  <SCORE.SYSTEM.CONST>
0

>  <SCORE.SYSTEM.DIHEDRAL>
0

>  <SCORE.SYSTEM.SOLV>
0

>  <SCORE.SYSTEM.norm>
0

>  <SCORE.heavy>
16

>  <SCORE.norm>
-1.30692

>  <RMSD>
2.553

$$$$
ligand
 OpenBabel02271912153D
libRbt.so/2013.1/901 2013/11/27
 16 17  0  0  0  0  0  0  0  0999 V2000
    8.8932    5.7021   83.4766 N   0  0  0  0  0  0  0  0  0  0  0  0
    7.8674    5.3034   82.5733 C   0  0  2  0  0  0  0  0  0  0  0  0
    7.6116    6.3447   81.5196 C   0  0  0  0  0  0  0  0  0  0  0  0
    8.1321    7.4805   81.6390 O   0  0  0  0  0  0  0  0  0  0  0  0
    7.2564   -0.0498   81.0543 O   0  0  0  0  0  0  0  0  0  0  0  0
    6.5813    5.0238   83.3132 C   0  0  0  0  0  0  0  0  0  0  0  0
    6.6648    3.8143   84.2137 C   0  0  0  0  0  0  0  0  0  0  0  0
    6.5742    3.8310   85.5476 C   0  0  0  0  0  0  0  0  0  0  0  0
    6.8257    2.4988   83.6691 C   0  0  0  0  0  0  0  0  0  0  0  0
    6.8302    1.6497   84.8094 C   0  0  0  0  0  0  0  0  0  0  0  0
    6.9526    1.9582   82.4192 C   0  0  0  0  0  0  0  0  0  0  0  0
    6.6747    2.5328   85.8998 N   0  0  0  0  0  0  0  0  0  0  0  0
    6.9640    0.3167   84.7318 C   0  0  0  0  0  0  0  0  0  0  0  0
    7.1089    0.5420   82.3156 C   0  0  0  0  0  0  0  0  0  0  0  0
    7.1210   -0.2971   83.4855 C   0  0  0  0  0  0  0  0  0  0  0  0
    6.8744    6.0801   80.5467 O   0  0  0  0  0  0  0  0  0  0  0  0
  2  1  1  1  0  0  0
  2  3  1  0  0  0  0
  2  6  1  0  0  0  0
  3  4  1  0  0  0  0
  3 16  1  0  0  0  0
  5 14  1  0  0  0  0
  6  7  1  0  0  0  0
  7  8  2  0  0  0  0
  7  9  1  0  0  0  0
  8 12  1  0  0  0  0
  9 10  2  0  0  0  0
  9 11  1  0  0  0  0
 10 13  1  0  0  0  0
 10 12  1  0  0  0  0
 11 14  2  0  0  0  0
 13 15  2  0  0  0  0
 14 15  1  0  0  0  0
M  END
>  <CHROM.1>
-10.51310103,-67.17854110,114.95023957,7.20562579,3.40577128,83.10689495
0.55343910,1.42481127,0.73003417

>  <Name>
ligand

>  <RI>
0

>  <Rbt.Current_Directory>
/home/itssahil/PROJECTS/Mol_Feturizer/Test_systems_manuscript/rnas/5kpy

>  <Rbt.Executable>
rbdock ($Id: //depot/dev/client3/rdock/2013.1/src/exe/rbdock.cxx#4 $)

>  <Rbt.Library>
libRbt.so (2013.1, Build901 2013/11/27)

>  <Rbt.Parameter_File>
/export/apps/rDock/src/rDock_2013.1_src/data/scripts/dock_solv.prm

>  <Rbt.Receptor>
prm/pocket_docking_6.prm

>  <SCORE>
-19.9503

>  <SCORE.INTER>
-19.6993

>  <SCORE.INTER.CONST>
1

>  <SCORE.INTER.POLAR>
0

>  <SCORE.INTER.ROT>
3

>  <SCORE.INTER.SOLV>
9.07895

>  <SCORE.INTER.VDW>
-21.7592

>  <SCORE.INTER.norm>
-1.2312

>  <SCORE.INTRA>
-0.251082

>  <SCORE.INTRA.DIHEDRAL>
0.090541

>  <SCORE.INTRA.DIHEDRAL.0>
3.89056

>  <SCORE.INTRA.POLAR>
0

>  <SCORE.INTRA.POLAR.0>
0

>  <SCORE.INTRA.REPUL>
0

>  <SCORE.INTRA.REPUL.0>
0

>  <SCORE.INTRA.SOLV>
-0.364211

>  <SCORE.INTRA.SOLV.lig_0>
-20.733

>  <SCORE.INTRA.VDW>
-0.114247

>  <SCORE.INTRA.VDW.0>
-0.828515

>  <SCORE.INTRA.norm>
-0.0156926

>  <SCORE.RESTR>
0

>  <SCORE.RESTR.CAVITY>
0

>  <SCORE.RESTR.norm>
0

>  <SCORE.SYSTEM>
0

>  <SCORE.SYSTEM.CONST>
0

>  <SCORE.SYSTEM.DIHEDRAL>
0

>  <SCORE.SYSTEM.SOLV>
0

>  <SCORE.SYSTEM.norm>
0

>  <SCORE.heavy>
16

>  <SCORE.norm>
-1.2469

>  <RMSD>
2.557

$$$$
ligand
 OpenBabel02271912153D
libRbt.so/2013.1/901 2013/11/27
 16 17  0  0  0  0  0  0  0  0999 V2000
    8.0068    6.4174   82.2517 N   0  0  0  0  0  0  0  0  0  0  0  0
    7.3253    5.2380   82.6661 C   0  0  2  0  0  0  0  0  0  0  0  0
    6.0892    4.9874   81.8483 C   0  0  0  0  0  0  0  0  0  0  0  0
    5.0655    5.6843   82.0524 O   0  0  0  0  0  0  0  0  0  0  0  0
    8.1399    0.6136   81.3546 O   0  0  0  0  0  0  0  0  0  0  0  0
    6.9430    5.3249   84.1242 C   0  0  0  0  0  0  0  0  0  0  0  0
    6.5415    3.9937   84.7136 C   0  0  0  0  0  0  0  0  0  0  0  0
    5.8891    3.8200   85.8678 C   0  0  0  0  0  0  0  0  0  0  0  0
    6.8214    2.7680   84.0264 C   0  0  0  0  0  0  0  0  0  0  0  0
    6.2729    1.7641   84.8705 C   0  0  0  0  0  0  0  0  0  0  0  0
    7.4313    2.4119   82.8551 C   0  0  0  0  0  0  0  0  0  0  0  0
    5.7314    2.4835   85.9579 N   0  0  0  0  0  0  0  0  0  0  0  0
    6.3269    0.4541   84.5844 C   0  0  0  0  0  0  0  0  0  0  0  0
    7.5105    1.0212   82.5381 C   0  0  0  0  0  0  0  0  0  0  0  0
    6.9568    0.0214   83.4137 C   0  0  0  0  0  0  0  0  0  0  0  0
    6.0832    4.0823   80.9875 O   0  0  0  0  0  0  0  0  0  0  0  0
  2  1  1  6  0  0  0
  2  3  1  0  0  0  0
  2  6  1  0  0  0  0
  3  4  1  0  0  0  0
  3 16  1  0  0  0  0
  5 14  1  0  0  0  0
  6  7  1  0  0  0  0
  7  8  2  0  0  0  0
  7  9  1  0  0  0  0
  8 12  1  0  0  0  0
  9 10  2  0  0  0  0
  9 11  1  0  0  0  0
 10 13  1  0  0  0  0
 10 12  1  0  0  0  0
 11 14  2  0  0  0  0
 13 15  2  0  0  0  0
 14 15  1  0  0  0  0
M  END
>  <CHROM.1>
-75.31792964,-165.31238017,-164.50520958,6.68945726,3.26189625,83.29071195
-1.80585519,-1.25579979,2.63400734

>  <Name>
ligand

>  <RI>
0

>  <Rbt.Current_Directory>
/home/itssahil/PROJECTS/Mol_Feturizer/Test_systems_manuscript/rnas/5kpy

>  <Rbt.Executable>
rbdock ($Id: //depot/dev/client3/rdock/2013.1/src/exe/rbdock.cxx#4 $)

>  <Rbt.Library>
libRbt.so (2013.1, Build901 2013/11/27)

>  <Rbt.Parameter_File>
/export/apps/rDock/src/rDock_2013.1_src/data/scripts/dock_solv.prm

>  <Rbt.Receptor>
prm/pocket_docking_5.prm

>  <SCORE>
-18.7319

>  <SCORE.INTER>
-19.2546

>  <SCORE.INTER.CONST>
1

>  <SCORE.INTER.POLAR>
0

>  <SCORE.INTER.ROT>
3

>  <SCORE.INTER.SOLV>
6.24941

>  <SCORE.INTER.VDW>
-20.5195

>  <SCORE.INTER.norm>
-1.20341

>  <SCORE.INTRA>
0.522639

>  <SCORE.INTRA.DIHEDRAL>
0.743401

>  <SCORE.INTRA.DIHEDRAL.0>
3.89056

>  <SCORE.INTRA.POLAR>
0

>  <SCORE.INTRA.POLAR.0>
0

>  <SCORE.INTRA.REPUL>
0

>  <SCORE.INTRA.REPUL.0>
0

>  <SCORE.INTRA.SOLV>
-1.16337

>  <SCORE.INTRA.SOLV.lig_0>
-20.733

>  <SCORE.INTRA.VDW>
0.732625

>  <SCORE.INTRA.VDW.0>
-0.828515

>  <SCORE.INTRA.norm>
0.032665

>  <SCORE.RESTR>
0

>  <SCORE.RESTR.CAVITY>
0

>  <SCORE.RESTR.norm>
0

>  <SCORE.SYSTEM>
0

>  <SCORE.SYSTEM.CONST>
0

>  <SCORE.SYSTEM.DIHEDRAL>
0

>  <SCORE.SYSTEM.SOLV>
0

>  <SCORE.SYSTEM.norm>
0

>  <SCORE.heavy>
16

>  <SCORE.norm>
-1.17075

>  <RMSD>
2.567

$$$$
ligand
 OpenBabel02271912153D
libRbt.so/2013.1/901 2013/11/27
 16 17  0  0  0  0  0  0  0  0999 V2000
    8.7876    5.2529   82.9396 N   0  0  0  0  0  0  0  0  0  0  0  0
    7.4903    5.0659   82.3838 C   0  0  2  0  0  0  0  0  0  0  0  0
    7.1200    6.1738   81.4376 C   0  0  0  0  0  0  0  0  0  0  0  0
    6.0402    6.1035   80.8016 O   0  0  0  0  0  0  0  0  0  0  0  0
    7.1761   -0.0157   81.0591 O   0  0  0  0  0  0  0  0  0  0  0  0
    6.4485    4.9785   83.4732 C   0  0  0  0  0  0  0  0  0  0  0  0
    6.5947    3.7491   84.3380 C   0  0  0  0  0  0  0  0  0  0  0  0
    6.5503    3.7293   85.6742 C   0  0  0  0  0  0  0  0  0  0  0  0
    6.7707    2.4527   83.7536 C   0  0  0  0  0  0  0  0  0  0  0  0
    6.8370    1.5752   84.8703 C   0  0  0  0  0  0  0  0  0  0  0  0
    6.8679    1.9478   82.4862 C   0  0  0  0  0  0  0  0  0  0  0  0
    6.6967    2.4257   85.9883 N   0  0  0  0  0  0  0  0  0  0  0  0
    7.0026    0.2487   84.7529 C   0  0  0  0  0  0  0  0  0  0  0  0
    7.0573    0.5395   82.3399 C   0  0  0  0  0  0  0  0  0  0  0  0
    7.1320   -0.3285   83.4861 C   0  0  0  0  0  0  0  0  0  0  0  0
    7.8916    7.1431   81.2790 O   0  0  0  0  0  0  0  0  0  0  0  0
  2  1  1  1  0  0  0
  2  3  1  0  0  0  0
  2  6  1  0  0  0  0
  3  4  1  0  0  0  0
  3 16  1  0  0  0  0
  5 14  1  0  0  0  0
  6  7  1  0  0  0  0
  7  8  2  0  0  0  0
  7  9  1  0  0  0  0
  8 12  1  0  0  0  0
  9 10  2  0  0  0  0
  9 11  1  0  0  0  0
 10 13  1  0  0  0  0
 10 12  1  0  0  0  0
 11 14  2  0  0  0  0
 13 15  2  0  0  0  0
 14 15  1  0  0  0  0
M  END
>  <CHROM.1>
175.40945467,-66.38472102,133.62301305,7.03950037,3.29754710,83.09280266
0.91505306,1.48308057,0.30434087

>  <Name>
ligand

>  <RI>
0

>  <Rbt.Current_Directory>
/home/itssahil/PROJECTS/Mol_Feturizer/Test_systems_manuscript/rnas/5kpy

>  <Rbt.Executable>
rbdock ($Id: //depot/dev/client3/rdock/2013.1/src/exe/rbdock.cxx#4 $)

>  <Rbt.Library>
libRbt.so (2013.1, Build901 2013/11/27)

>  <Rbt.Parameter_File>
/export/apps/rDock/src/rDock_2013.1_src/data/scripts/dock_solv.prm

>  <Rbt.Receptor>
prm/pocket_docking_8.prm

>  <SCORE>
-20.0482

>  <SCORE.INTER>
-20.046

>  <SCORE.INTER.CONST>
1

>  <SCORE.INTER.POLAR>
0

>  <SCORE.INTER.ROT>
3

>  <SCORE.INTER.SOLV>
8.2981

>  <SCORE.INTER.VDW>
-21.73

>  <SCORE.INTER.norm>
-1.25287

>  <SCORE.INTRA>
-0.00224957

>  <SCORE.INTRA.DIHEDRAL>
-0.00690835

>  <SCORE.INTRA.DIHEDRAL.0>
3.89056

>  <SCORE.INTRA.POLAR>
0

>  <SCORE.INTRA.POLAR.0>
0

>  <SCORE.INTRA.REPUL>
0

>  <SCORE.INTRA.REPUL.0>
0

>  <SCORE.INTRA.SOLV>
-0.236432

>  <SCORE.INTRA.SOLV.lig_0>
-20.733

>  <SCORE.INTRA.VDW>
0.11942

>  <SCORE.INTRA.VDW.0>
-0.828515

>  <SCORE.INTRA.norm>
-0.000140598

>  <SCORE.RESTR>
0

>  <SCORE.RESTR.CAVITY>
0

>  <SCORE.RESTR.norm>
0

>  <SCORE.SYSTEM>
0

>  <SCORE.SYSTEM.CONST>
0

>  <SCORE.SYSTEM.DIHEDRAL>
0

>  <SCORE.SYSTEM.SOLV>
0

>  <SCORE.SYSTEM.norm>
0

>  <SCORE.heavy>
16

>  <SCORE.norm>
-1.25301

>  <RMSD>
2.588

$$$$
ligand
 OpenBabel02271912153D
libRbt.so/2013.1/901 2013/11/27
 16 17  0  0  0  0  0  0  0  0999 V2000
    7.3922    6.8406   82.8507 N   0  0  0  0  0  0  0  0  0  0  0  0
    7.3989    5.4236   82.9893 C   0  0  2  0  0  0  0  0  0  0  0  0
    7.3549    4.7291   81.6568 C   0  0  0  0  0  0  0  0  0  0  0  0
    8.3512    4.0679   81.2753 O   0  0  0  0  0  0  0  0  0  0  0  0
    7.0920    0.2373   80.9559 O   0  0  0  0  0  0  0  0  0  0  0  0
    6.2294    4.9619   83.8253 C   0  0  0  0  0  0  0  0  0  0  0  0
    6.5028    3.6781   84.5721 C   0  0  0  0  0  0  0  0  0  0  0  0
    6.5458    3.5469   85.9021 C   0  0  0  0  0  0  0  0  0  0  0  0
    6.7167    2.4475   83.8701 C   0  0  0  0  0  0  0  0  0  0  0  0
    6.9061    1.4881   84.9020 C   0  0  0  0  0  0  0  0  0  0  0  0
    6.7616    2.0546   82.5607 C   0  0  0  0  0  0  0  0  0  0  0  0
    6.7884    2.2341   86.0947 N   0  0  0  0  0  0  0  0  0  0  0  0
    7.1415    0.1888   84.6625 C   0  0  0  0  0  0  0  0  0  0  0  0
    7.0236    0.6778   82.2841 C   0  0  0  0  0  0  0  0  0  0  0  0
    7.2227   -0.2741   83.3458 C   0  0  0  0  0  0  0  0  0  0  0  0
    6.3401    4.8270   80.9352 O   0  0  0  0  0  0  0  0  0  0  0  0
  2  1  1  6  0  0  0
  2  3  1  0  0  0  0
  2  6  1  0  0  0  0
  3  4  1  0  0  0  0
  3 16  1  0  0  0  0
  5 14  1  0  0  0  0
  6  7  1  0  0  0  0
  7  8  2  0  0  0  0
  7  9  1  0  0  0  0
  8 12  1  0  0  0  0
  9 10  2  0  0  0  0
  9 11  1  0  0  0  0
 10 13  1  0  0  0  0
 10 12  1  0  0  0  0
 11 14  2  0  0  0  0
 13 15  2  0  0  0  0
 14 15  1  0  0  0  0
M  END
>  <CHROM.1>
112.96696802,-151.51481952,115.93198135,6.99783561,3.01232591,83.19182325
1.35921456,1.43725124,-0.05589696

>  <Name>
ligand

>  <RI>
0

>  <Rbt.Current_Directory>
/home/itssahil/PROJECTS/Mol_Feturizer/Test_systems_manuscript/rnas/5kpy

>  <Rbt.Executable>
rbdock ($Id: //depot/dev/client3/rdock/2013.1/src/exe/rbdock.cxx#4 $)

>  <Rbt.Library>
libRbt.so (2013.1, Build901 2013/11/27)

>  <Rbt.Parameter_File>
/export/apps/rDock/src/rDock_2013.1_src/data/scripts/dock_solv.prm

>  <Rbt.Receptor>
prm/pocket_docking_7.prm

>  <SCORE>
-20.6706

>  <SCORE.INTER>
-20.8906

>  <SCORE.INTER.CONST>
1

>  <SCORE.INTER.POLAR>
0

>  <SCORE.INTER.ROT>
3

>  <SCORE.INTER.SOLV>
5.29555

>  <SCORE.INTER.VDW>
-21.2923

>  <SCORE.INTER.norm>
-1.30566

>  <SCORE.INTRA>
0.220051

>  <SCORE.INTRA.DIHEDRAL>
2.51517

>  <SCORE.INTRA.DIHEDRAL.0>
3.89056

>  <SCORE.INTRA.POLAR>
0

>  <SCORE.INTRA.POLAR.0>
0

>  <SCORE.INTRA.REPUL>
0

>  <SCORE.INTRA.REPUL.0>
0

>  <SCORE.INTRA.SOLV>
-1.14275

>  <SCORE.INTRA.SOLV.lig_0>
-20.733

>  <SCORE.INTRA.VDW>
-0.466159

>  <SCORE.INTRA.VDW.0>
-0.828515

>  <SCORE.INTRA.norm>
0.0137532

>  <SCORE.RESTR>
0

>  <SCORE.RESTR.CAVITY>
0

>  <SCORE.RESTR.norm>
0

>  <SCORE.SYSTEM>
0

>  <SCORE.SYSTEM.CONST>
0

>  <SCORE.SYSTEM.DIHEDRAL>
0

>  <SCORE.SYSTEM.SOLV>
0

>  <SCORE.SYSTEM.norm>
0

>  <SCORE.heavy>
16

>  <SCORE.norm>
-1.29191

>  <RMSD>
2.620

$$$$
ligand
 OpenBabel02271912153D
libRbt.so/2013.1/901 2013/11/27
 16 17  0  0  0  0  0  0  0  0999 V2000
    7.5095    6.7257   82.7212 N   0  0  0  0  0  0  0  0  0  0  0  0
    7.6723    5.3269   82.9310 C   0  0  2  0  0  0  0  0  0  0  0  0
    7.9319    4.5930   81.6450 C   0  0  0  0  0  0  0  0  0  0  0  0
    8.9924    3.9341   81.5168 O   0  0  0  0  0  0  0  0  0  0  0  0
    6.8588    0.4464   80.0324 O   0  0  0  0  0  0  0  0  0  0  0  0
    6.4509    4.7395   83.5964 C   0  0  0  0  0  0  0  0  0  0  0  0
    6.6788    3.3466   84.1335 C   0  0  0  0  0  0  0  0  0  0  0  0
    6.7812    3.0193   85.4260 C   0  0  0  0  0  0  0  0  0  0  0  0
    6.7765    2.2223   83.2507 C   0  0  0  0  0  0  0  0  0  0  0  0
    6.9563    1.1126   84.1211 C   0  0  0  0  0  0  0  0  0  0  0  0
    6.7289    2.0240   81.8983 C   0  0  0  0  0  0  0  0  0  0  0  0
    6.9482    1.6809   85.4134 N   0  0  0  0  0  0  0  0  0  0  0  0
    7.0947   -0.1486   83.6840 C   0  0  0  0  0  0  0  0  0  0  0  0
    6.8870    0.6902   81.4118 C   0  0  0  0  0  0  0  0  0  0  0  0
    7.0784   -0.4169   82.3120 C   0  0  0  0  0  0  0  0  0  0  0  0
    7.1038    4.6563   80.7121 O   0  0  0  0  0  0  0  0  0  0  0  0
  2  1  1  6  0  0  0
  2  3  1  0  0  0  0
  2  6  1  0  0  0  0
  3  4  1  0  0  0  0
  3 16  1  0  0  0  0
  5 14  1  0  0  0  0
  6  7  1  0  0  0  0
  7  8  2  0  0  0  0
  7  9  1  0  0  0  0
  8 12  1  0  0  0  0
  9 10  2  0  0  0  0
  9 11  1  0  0  0  0
 10 13  1  0  0  0  0
 10 12  1  0  0  0  0
 11 14  2  0  0  0  0
 13 15  2  0  0  0  0
 14 15  1  0  0  0  0
M  END
>  <CHROM.1>
120.83401651,-166.63015271,107.95122409,7.17856369,2.82092330,82.71655199
0.83547459,1.38995774,0.68824380

>  <Name>
ligand

>  <RI>
0

>  <Rbt.Current_Directory>
/home/itssahil/PROJECTS/Mol_Feturizer/Test_systems_manuscript/rnas/5kpy

>  <Rbt.Executable>
rbdock ($Id: //depot/dev/client3/rdock/2013.1/src/exe/rbdock.cxx#4 $)

>  <Rbt.Library>
libRbt.so (2013.1, Build901 2013/11/27)

>  <Rbt.Parameter_File>
/export/apps/rDock/src/rDock_2013.1_src/data/scripts/dock_solv.prm

>  <Rbt.Receptor>
prm/blind_docking_100.prm

>  <SCORE>
-19.3797

>  <SCORE.INTER>
-18.5133

>  <SCORE.INTER.CONST>
1

>  <SCORE.INTER.POLAR>
0

>  <SCORE.INTER.ROT>
3

>  <SCORE.INTER.SOLV>
5.97216

>  <SCORE.INTER.VDW>
-19.9329

>  <SCORE.INTER.norm>
-1.15708

>  <SCORE.INTRA>
-0.866342

>  <SCORE.INTRA.DIHEDRAL>
0.582159

>  <SCORE.INTRA.DIHEDRAL.0>
3.89056

>  <SCORE.INTRA.POLAR>
0

>  <SCORE.INTRA.POLAR.0>
0

>  <SCORE.INTRA.REPUL>
0

>  <SCORE.INTRA.REPUL.0>
0

>  <SCORE.INTRA.SOLV>
-1.17258

>  <SCORE.INTRA.SOLV.lig_0>
-20.733

>  <SCORE.INTRA.VDW>
-0.571132

>  <SCORE.INTRA.VDW.0>
-0.828515

>  <SCORE.INTRA.norm>
-0.0541464

>  <SCORE.RESTR>
0

>  <SCORE.RESTR.CAVITY>
0

>  <SCORE.RESTR.norm>
0

>  <SCORE.SYSTEM>
0

>  <SCORE.SYSTEM.CONST>
0

>  <SCORE.SYSTEM.DIHEDRAL>
0

>  <SCORE.SYSTEM.SOLV>
0

>  <SCORE.SYSTEM.norm>
0

>  <SCORE.heavy>
16

>  <SCORE.norm>
-1.21123

>  <RMSD>
2.630

$$$$
ligand
 OpenBabel02271912153D
libRbt.so/2013.1/901 2013/11/27
 16 17  0  0  0  0  0  0  0  0999 V2000
    8.0257    6.3337   82.1875 N   0  0  0  0  0  0  0  0  0  0  0  0
    7.3797    5.1396   82.6162 C   0  0  2  0  0  0  0  0  0  0  0  0
    6.1659    4.8288   81.7857 C   0  0  0  0  0  0  0  0  0  0  0  0
    6.2018    3.8660   80.9813 O   0  0  0  0  0  0  0  0  0  0  0  0
    8.4141    0.4671   81.5334 O   0  0  0  0  0  0  0  0  0  0  0  0
    6.9721    5.2424   84.0664 C   0  0  0  0  0  0  0  0  0  0  0  0
    6.5223    3.9251   84.6521 C   0  0  0  0  0  0  0  0  0  0  0  0
    5.7715    3.7782   85.7488 C   0  0  0  0  0  0  0  0  0  0  0  0
    6.8633    2.6835   84.0235 C   0  0  0  0  0  0  0  0  0  0  0  0
    6.2443    1.6992   84.8417 C   0  0  0  0  0  0  0  0  0  0  0  0
    7.5740    2.3000   82.9197 C   0  0  0  0  0  0  0  0  0  0  0  0
    5.6085    2.4438   85.8587 N   0  0  0  0  0  0  0  0  0  0  0  0
    6.3251    0.3826   84.5950 C   0  0  0  0  0  0  0  0  0  0  0  0
    7.6827    0.9021   82.6464 C   0  0  0  0  0  0  0  0  0  0  0  0
    7.0558   -0.0773   83.4954 C   0  0  0  0  0  0  0  0  0  0  0  0
    5.1415    5.5360   81.8886 O   0  0  0  0  0  0  0  0  0  0  0  0
  2  1  1  6  0  0  0
  2  3  1  0  0  0  0
  2  6  1  0  0  0  0
  3  4  1  0  0  0  0
  3 16  1  0  0  0  0
  5 14  1  0  0  0  0
  6  7  1  0  0  0  0
  7  8  2  0  0  0  0
  7  9  1  0  0  0  0
  8 12  1  0  0  0  0
  9 10  2  0  0  0  0
  9 11  1  0  0  0  0
 10 13  1  0  0  0  0
 10 12  1  0  0  0  0
 11 14  2  0  0  0  0
 13 15  2  0  0  0  0
 14 15  1  0  0  0  0
M  END
>  <CHROM.1>
108.34739599,-169.06889227,-160.02348881,6.74413518,3.15683094,83.27306543
-1.78883333,-1.17721666,2.64351787

>  <Name>
ligand

>  <RI>
0

>  <Rbt.Current_Directory>
/home/itssahil/PROJECTS/Mol_Feturizer/Test_systems_manuscript/rnas/5kpy

>  <Rbt.Executable>
rbdock ($Id: //depot/dev/client3/rdock/2013.1/src/exe/rbdock.cxx#4 $)

>  <Rbt.Library>
libRbt.so (2013.1, Build901 2013/11/27)

>  <Rbt.Parameter_File>
/export/apps/rDock/src/rDock_2013.1_src/data/scripts/dock_solv.prm

>  <Rbt.Receptor>
prm/pocket_docking_7.prm

>  <SCORE>
-19.0659

>  <SCORE.INTER>
-19.1334

>  <SCORE.INTER.CONST>
1

>  <SCORE.INTER.POLAR>
0

>  <SCORE.INTER.ROT>
3

>  <SCORE.INTER.SOLV>
6.57604

>  <SCORE.INTER.VDW>
-20.5476

>  <SCORE.INTER.norm>
-1.19583

>  <SCORE.INTRA>
0.0674879

>  <SCORE.INTRA.DIHEDRAL>
0.365022

>  <SCORE.INTRA.DIHEDRAL.0>
3.89056

>  <SCORE.INTRA.POLAR>
0

>  <SCORE.INTRA.POLAR.0>
0

>  <SCORE.INTRA.REPUL>
0

>  <SCORE.INTRA.REPUL.0>
0

>  <SCORE.INTRA.SOLV>
-1.16134

>  <SCORE.INTRA.SOLV.lig_0>
-20.733

>  <SCORE.INTRA.VDW>
0.465645

>  <SCORE.INTRA.VDW.0>
-0.828515

>  <SCORE.INTRA.norm>
0.00421799

>  <SCORE.RESTR>
0

>  <SCORE.RESTR.CAVITY>
0

>  <SCORE.RESTR.norm>
0

>  <SCORE.SYSTEM>
0

>  <SCORE.SYSTEM.CONST>
0

>  <SCORE.SYSTEM.DIHEDRAL>
0

>  <SCORE.SYSTEM.SOLV>
0

>  <SCORE.SYSTEM.norm>
0

>  <SCORE.heavy>
16

>  <SCORE.norm>
-1.19162

>  <RMSD>
2.631

$$$$
ligand
 OpenBabel02271912153D
libRbt.so/2013.1/901 2013/11/27
 16 17  0  0  0  0  0  0  0  0999 V2000
    7.5236    6.7267   82.7142 N   0  0  0  0  0  0  0  0  0  0  0  0
    7.6696    5.3258   82.9223 C   0  0  2  0  0  0  0  0  0  0  0  0
    7.9437    4.5932   81.6386 C   0  0  0  0  0  0  0  0  0  0  0  0
    7.1232    4.6820   80.6930 O   0  0  0  0  0  0  0  0  0  0  0  0
    6.8877    0.3365   80.1554 O   0  0  0  0  0  0  0  0  0  0  0  0
    6.4316    4.7482   83.5653 C   0  0  0  0  0  0  0  0  0  0  0  0
    6.6528    3.3745   84.1526 C   0  0  0  0  0  0  0  0  0  0  0  0
    6.7382    3.0915   85.4566 C   0  0  0  0  0  0  0  0  0  0  0  0
    6.7625    2.2209   83.3099 C   0  0  0  0  0  0  0  0  0  0  0  0
    6.9310    1.1417   84.2199 C   0  0  0  0  0  0  0  0  0  0  0  0
    6.7328    1.9766   81.9645 C   0  0  0  0  0  0  0  0  0  0  0  0
    6.9056    1.7536   85.4919 N   0  0  0  0  0  0  0  0  0  0  0  0
    7.0755   -0.1336   83.8279 C   0  0  0  0  0  0  0  0  0  0  0  0
    6.8976    0.6272   81.5259 C   0  0  0  0  0  0  0  0  0  0  0  0
    7.0774   -0.4485   82.4658 C   0  0  0  0  0  0  0  0  0  0  0  0
    8.9715    3.8922   81.5273 O   0  0  0  0  0  0  0  0  0  0  0  0
  2  1  1  6  0  0  0
  2  3  1  0  0  0  0
  2  6  1  0  0  0  0
  3  4  1  0  0  0  0
  3 16  1  0  0  0  0
  5 14  1  0  0  0  0
  6  7  1  0  0  0  0
  7  8  2  0  0  0  0
  7  9  1  0  0  0  0
  8 12  1  0  0  0  0
  9 10  2  0  0  0  0
  9 11  1  0  0  0  0
 10 13  1  0  0  0  0
 10 12  1  0  0  0  0
 11 14  2  0  0  0  0
 13 15  2  0  0  0  0
 14 15  1  0  0  0  0
M  END
>  <CHROM.1>
-57.92021944,-164.24611722,106.72358402,7.17148101,2.81682479,82.76599580
0.87370548,1.38069314,0.61826366

>  <Name>
ligand

>  <RI>
0

>  <Rbt.Current_Directory>
/home/itssahil/PROJECTS/Mol_Feturizer/Test_systems_manuscript/rnas/5kpy

>  <Rbt.Executable>
rbdock ($Id: //depot/dev/client3/rdock/2013.1/src/exe/rbdock.cxx#4 $)

>  <Rbt.Library>
libRbt.so (2013.1, Build901 2013/11/27)

>  <Rbt.Parameter_File>
/export/apps/rDock/src/rDock_2013.1_src/data/scripts/dock_solv.prm

>  <Rbt.Receptor>
prm/blind_docking_100.prm

>  <SCORE>
-19.4032

>  <SCORE.INTER>
-18.5281

>  <SCORE.INTER.CONST>
1

>  <SCORE.INTER.POLAR>
0

>  <SCORE.INTER.ROT>
3

>  <SCORE.INTER.SOLV>
5.90855

>  <SCORE.INTER.VDW>
-19.9216

>  <SCORE.INTER.norm>
-1.15801

>  <SCORE.INTRA>
-0.889412

>  <SCORE.INTRA.DIHEDRAL>
0.828652

>  <SCORE.INTRA.DIHEDRAL.0>
3.89056

>  <SCORE.INTRA.POLAR>
0

>  <SCORE.INTRA.POLAR.0>
0

>  <SCORE.INTRA.REPUL>
0

>  <SCORE.INTRA.REPUL.0>
0

>  <SCORE.INTRA.SOLV>
-1.17287

>  <SCORE.INTRA.SOLV.lig_0>
-20.733

>  <SCORE.INTRA.VDW>
-0.717304

>  <SCORE.INTRA.VDW.0>
-0.828515

>  <SCORE.INTRA.norm>
-0.0555882

>  <SCORE.RESTR>
0.0142807

>  <SCORE.RESTR.CAVITY>
0.0142807

>  <SCORE.RESTR.norm>
0.000892545

>  <SCORE.SYSTEM>
0

>  <SCORE.SYSTEM.CONST>
0

>  <SCORE.SYSTEM.DIHEDRAL>
0

>  <SCORE.SYSTEM.SOLV>
0

>  <SCORE.SYSTEM.norm>
0

>  <SCORE.heavy>
16

>  <SCORE.norm>
-1.2127

>  <RMSD>
2.638

$$$$
ligand
 OpenBabel02271912153D
libRbt.so/2013.1/901 2013/11/27
 16 17  0  0  0  0  0  0  0  0999 V2000
    8.0223    6.3312   82.1367 N   0  0  0  0  0  0  0  0  0  0  0  0
    7.3750    5.1437   82.5815 C   0  0  2  0  0  0  0  0  0  0  0  0
    6.1501    4.8335   81.7672 C   0  0  0  0  0  0  0  0  0  0  0  0
    6.1799    3.8804   80.9511 O   0  0  0  0  0  0  0  0  0  0  0  0
    8.3556    0.4621   81.5044 O   0  0  0  0  0  0  0  0  0  0  0  0
    6.9846    5.2593   84.0355 C   0  0  0  0  0  0  0  0  0  0  0  0
    6.5395    3.9476   84.6373 C   0  0  0  0  0  0  0  0  0  0  0  0
    5.8086    3.8109   85.7486 C   0  0  0  0  0  0  0  0  0  0  0  0
    6.8625    2.7007   84.0098 C   0  0  0  0  0  0  0  0  0  0  0  0
    6.2542    1.7243   84.8453 C   0  0  0  0  0  0  0  0  0  0  0  0
    7.5506    2.3073   82.8951 C   0  0  0  0  0  0  0  0  0  0  0  0
    5.6411    2.4780   85.8695 N   0  0  0  0  0  0  0  0  0  0  0  0
    6.3239    0.4059   84.6048 C   0  0  0  0  0  0  0  0  0  0  0  0
    7.6473    0.9073   82.6282 C   0  0  0  0  0  0  0  0  0  0  0  0
    7.0317   -0.0640   83.4945 C   0  0  0  0  0  0  0  0  0  0  0  0
    5.1223    5.5316   81.8951 O   0  0  0  0  0  0  0  0  0  0  0  0
  2  1  1  6  0  0  0
  2  3  1  0  0  0  0
  2  6  1  0  0  0  0
  3  4  1  0  0  0  0
  3 16  1  0  0  0  0
  5 14  1  0  0  0  0
  6  7  1  0  0  0  0
  7  8  2  0  0  0  0
  7  9  1  0  0  0  0
  8 12  1  0  0  0  0
  9 10  2  0  0  0  0
  9 11  1  0  0  0  0
 10 13  1  0  0  0  0
 10 12  1  0  0  0  0
 11 14  2  0  0  0  0
 13 15  2  0  0  0  0
 14 15  1  0  0  0  0
M  END
>  <CHROM.1>
107.00693253,-168.85920160,-160.48139106,6.73699713,3.16926372,83.25782816
-1.79104753,-1.19585035,2.63338096

>  <Name>
ligand

>  <RI>
0

>  <Rbt.Current_Directory>
/home/itssahil/PROJECTS/Mol_Feturizer/Test_systems_manuscript/rnas/5kpy

>  <Rbt.Executable>
rbdock ($Id: //depot/dev/client3/rdock/2013.1/src/exe/rbdock.cxx#4 $)

>  <Rbt.Library>
libRbt.so (2013.1, Build901 2013/11/27)

>  <Rbt.Parameter_File>
/export/apps/rDock/src/rDock_2013.1_src/data/scripts/dock_solv.prm

>  <Rbt.Receptor>
prm/pocket_docking_5.prm

>  <SCORE>
-19.0979

>  <SCORE.INTER>
-19.21

>  <SCORE.INTER.CONST>
1

>  <SCORE.INTER.POLAR>
0

>  <SCORE.INTER.ROT>
3

>  <SCORE.INTER.SOLV>
6.51507

>  <SCORE.INTER.VDW>
-20.5783

>  <SCORE.INTER.norm>
-1.20062

>  <SCORE.INTRA>
0.1121

>  <SCORE.INTRA.DIHEDRAL>
0.379191

>  <SCORE.INTRA.DIHEDRAL.0>
3.89056

>  <SCORE.INTRA.POLAR>
0

>  <SCORE.INTRA.POLAR.0>
0

>  <SCORE.INTRA.REPUL>
0

>  <SCORE.INTRA.REPUL.0>
0

>  <SCORE.INTRA.SOLV>
-1.16135

>  <SCORE.INTRA.SOLV.lig_0>
-20.733

>  <SCORE.INTRA.VDW>
0.503181

>  <SCORE.INTRA.VDW.0>
-0.828515

>  <SCORE.INTRA.norm>
0.00700624

>  <SCORE.RESTR>
0

>  <SCORE.RESTR.CAVITY>
0

>  <SCORE.RESTR.norm>
0

>  <SCORE.SYSTEM>
0

>  <SCORE.SYSTEM.CONST>
0

>  <SCORE.SYSTEM.DIHEDRAL>
0

>  <SCORE.SYSTEM.SOLV>
0

>  <SCORE.SYSTEM.norm>
0

>  <SCORE.heavy>
16

>  <SCORE.norm>
-1.19362

>  <RMSD>
2.638

$$$$
ligand
 OpenBabel02271912153D
libRbt.so/2013.1/901 2013/11/27
 16 17  0  0  0  0  0  0  0  0999 V2000
    7.5394    5.1744   82.1851 N   0  0  0  0  0  0  0  0  0  0  0  0
    6.1900    4.9435   82.5761 C   0  0  2  0  0  0  0  0  0  0  0  0
    5.2428    5.9102   81.9219 C   0  0  0  0  0  0  0  0  0  0  0  0
    4.6089    5.5527   80.8993 O   0  0  0  0  0  0  0  0  0  0  0  0
    7.1065    0.4214   81.1118 O   0  0  0  0  0  0  0  0  0  0  0  0
    6.0420    5.0457   84.0752 C   0  0  0  0  0  0  0  0  0  0  0  0
    6.3920    3.7653   84.7956 C   0  0  0  0  0  0  0  0  0  0  0  0
    6.4606    3.6141   86.1224 C   0  0  0  0  0  0  0  0  0  0  0  0
    6.6591    2.5595   84.0692 C   0  0  0  0  0  0  0  0  0  0  0  0
    6.9124    1.5939   85.0815 C   0  0  0  0  0  0  0  0  0  0  0  0
    6.7056    2.1917   82.7527 C   0  0  0  0  0  0  0  0  0  0  0  0
    6.7733    2.3126   86.2886 N   0  0  0  0  0  0  0  0  0  0  0  0
    7.2111    0.3129   84.8160 C   0  0  0  0  0  0  0  0  0  0  0  0
    7.0343    0.8352   82.4484 C   0  0  0  0  0  0  0  0  0  0  0  0
    7.2974   -0.1229   83.4904 C   0  0  0  0  0  0  0  0  0  0  0  0
    5.1056    7.0612   82.3872 O   0  0  0  0  0  0  0  0  0  0  0  0
  2  1  1  1  0  0  0
  2  3  1  0  0  0  0
  2  6  1  0  0  0  0
  3  4  1  0  0  0  0
  3 16  1  0  0  0  0
  5 14  1  0  0  0  0
  6  7  1  0  0  0  0
  7  8  2  0  0  0  0
  7  9  1  0  0  0  0
  8 12  1  0  0  0  0
  9 10  2  0  0  0  0
  9 11  1  0  0  0  0
 10 13  1  0  0  0  0
 10 12  1  0  0  0  0
 11 14  2  0  0  0  0
 13 15  2  0  0  0  0
 14 15  1  0  0  0  0
M  END
>  <CHROM.1>
98.41357491,-83.94591175,173.83146205,6.41505244,3.29950049,83.34409252,-3.07107630
-1.27957104,1.29160103

>  <Name>
ligand

>  <RI>
0

>  <Rbt.Current_Directory>
/home/itssahil/PROJECTS/Mol_Feturizer/Test_systems_manuscript/rnas/5kpy

>  <Rbt.Executable>
rbdock ($Id: //depot/dev/client3/rdock/2013.1/src/exe/rbdock.cxx#4 $)

>  <Rbt.Library>
libRbt.so (2013.1, Build901 2013/11/27)

>  <Rbt.Parameter_File>
/export/apps/rDock/src/rDock_2013.1_src/data/scripts/dock_solv.prm

>  <Rbt.Receptor>
prm/pocket_docking_7.prm

>  <SCORE>
-19.8997

>  <SCORE.INTER>
-22.1532

>  <SCORE.INTER.CONST>
1

>  <SCORE.INTER.POLAR>
0

>  <SCORE.INTER.ROT>
3

>  <SCORE.INTER.SOLV>
6.28631

>  <SCORE.INTER.VDW>
-22.4642

>  <SCORE.INTER.norm>
-1.38457

>  <SCORE.INTRA>
2.25348

>  <SCORE.INTRA.DIHEDRAL>
1.83744

>  <SCORE.INTRA.DIHEDRAL.0>
3.89056

>  <SCORE.INTRA.POLAR>
0

>  <SCORE.INTRA.POLAR.0>
0

>  <SCORE.INTRA.REPUL>
0

>  <SCORE.INTRA.REPUL.0>
0

>  <SCORE.INTRA.SOLV>
0.0862534

>  <SCORE.INTRA.SOLV.lig_0>
-20.733

>  <SCORE.INTRA.VDW>
1.29164

>  <SCORE.INTRA.VDW.0>
-0.828515

>  <SCORE.INTRA.norm>
0.140843

>  <SCORE.RESTR>
0

>  <SCORE.RESTR.CAVITY>
0

>  <SCORE.RESTR.norm>
0

>  <SCORE.SYSTEM>
0

>  <SCORE.SYSTEM.CONST>
0

>  <SCORE.SYSTEM.DIHEDRAL>
0

>  <SCORE.SYSTEM.SOLV>
0

>  <SCORE.SYSTEM.norm>
0

>  <SCORE.heavy>
16

>  <SCORE.norm>
-1.24373

>  <RMSD>
2.638

$$$$
ligand
 OpenBabel02271912153D
libRbt.so/2013.1/901 2013/11/27
 16 17  0  0  0  0  0  0  0  0999 V2000
    7.9967    6.3389   82.1105 N   0  0  0  0  0  0  0  0  0  0  0  0
    7.3507    5.1507   82.5553 C   0  0  2  0  0  0  0  0  0  0  0  0
    6.1242    4.8409   81.7432 C   0  0  0  0  0  0  0  0  0  0  0  0
    6.1460    3.8757   80.9412 O   0  0  0  0  0  0  0  0  0  0  0  0
    8.3974    0.4725   81.5045 O   0  0  0  0  0  0  0  0  0  0  0  0
    6.9633    5.2645   84.0103 C   0  0  0  0  0  0  0  0  0  0  0  0
    6.5268    3.9506   84.6135 C   0  0  0  0  0  0  0  0  0  0  0  0
    5.7899    3.8105   85.7204 C   0  0  0  0  0  0  0  0  0  0  0  0
    6.8661    2.7048   83.9924 C   0  0  0  0  0  0  0  0  0  0  0  0
    6.2616    1.7254   84.8270 C   0  0  0  0  0  0  0  0  0  0  0  0
    7.5653    2.3144   82.8836 C   0  0  0  0  0  0  0  0  0  0  0  0
    5.6345    2.4765   85.8446 N   0  0  0  0  0  0  0  0  0  0  0  0
    6.3457    0.4069   84.5915 C   0  0  0  0  0  0  0  0  0  0  0  0
    7.6774    0.9145   82.6221 C   0  0  0  0  0  0  0  0  0  0  0  0
    7.0654   -0.0598   83.4875 C   0  0  0  0  0  0  0  0  0  0  0  0
    5.1033    5.5510   81.8588 O   0  0  0  0  0  0  0  0  0  0  0  0
  2  1  1  6  0  0  0
  2  3  1  0  0  0  0
  2  6  1  0  0  0  0
  3  4  1  0  0  0  0
  3 16  1  0  0  0  0
  5 14  1  0  0  0  0
  6  7  1  0  0  0  0
  7  8  2  0  0  0  0
  7  9  1  0  0  0  0
  8 12  1  0  0  0  0
  9 10  2  0  0  0  0
  9 11  1  0  0  0  0
 10 13  1  0  0  0  0
 10 12  1  0  0  0  0
 11 14  2  0  0  0  0
 13 15  2  0  0  0  0
 14 15  1  0  0  0  0
M  END
>  <CHROM.1>
108.11087498,-168.55552648,-159.88110003,6.73418791,3.17433943,83.23913579
-1.81834750,-1.18463080,2.60654392

>  <Name>
ligand

>  <RI>
0

>  <Rbt.Current_Directory>
/home/itssahil/PROJECTS/Mol_Feturizer/Test_systems_manuscript/rnas/5kpy

>  <Rbt.Executable>
rbdock ($Id: //depot/dev/client3/rdock/2013.1/src/exe/rbdock.cxx#4 $)

>  <Rbt.Library>
libRbt.so (2013.1, Build901 2013/11/27)

>  <Rbt.Parameter_File>
/export/apps/rDock/src/rDock_2013.1_src/data/scripts/dock_solv.prm

>  <Rbt.Receptor>
prm/pocket_docking_4.prm

>  <SCORE>
-19.1162

>  <SCORE.INTER>
-19.1759

>  <SCORE.INTER.CONST>
1

>  <SCORE.INTER.POLAR>
0

>  <SCORE.INTER.ROT>
3

>  <SCORE.INTER.SOLV>
6.52211

>  <SCORE.INTER.VDW>
-20.5579

>  <SCORE.INTER.norm>
-1.19849

>  <SCORE.INTRA>
0.0596663

>  <SCORE.INTRA.DIHEDRAL>
0.407405

>  <SCORE.INTRA.DIHEDRAL.0>
3.89056

>  <SCORE.INTRA.POLAR>
0

>  <SCORE.INTRA.POLAR.0>
0

>  <SCORE.INTRA.REPUL>
0

>  <SCORE.INTRA.REPUL.0>
0

>  <SCORE.INTRA.SOLV>
-1.16088

>  <SCORE.INTRA.SOLV.lig_0>
-20.733

>  <SCORE.INTRA.VDW>
0.436403

>  <SCORE.INTRA.VDW.0>
-0.828515

>  <SCORE.INTRA.norm>
0.00372914

>  <SCORE.RESTR>
0

>  <SCORE.RESTR.CAVITY>
0

>  <SCORE.RESTR.norm>
0

>  <SCORE.SYSTEM>
0

>  <SCORE.SYSTEM.CONST>
0

>  <SCORE.SYSTEM.DIHEDRAL>
0

>  <SCORE.SYSTEM.SOLV>
0

>  <SCORE.SYSTEM.norm>
0

>  <SCORE.heavy>
16

>  <SCORE.norm>
-1.19476

>  <RMSD>
2.648

$$$$
ligand
 OpenBabel02271912153D
libRbt.so/2013.1/901 2013/11/27
 16 17  0  0  0  0  0  0  0  0999 V2000
    7.5573    5.1196   82.1684 N   0  0  0  0  0  0  0  0  0  0  0  0
    6.1980    4.9201   82.5420 C   0  0  2  0  0  0  0  0  0  0  0  0
    5.2802    5.8989   81.8643 C   0  0  0  0  0  0  0  0  0  0  0  0
    4.6785    5.5541   80.8181 O   0  0  0  0  0  0  0  0  0  0  0  0
    7.1922    0.3958   81.1443 O   0  0  0  0  0  0  0  0  0  0  0  0
    6.0306    5.0410   84.0377 C   0  0  0  0  0  0  0  0  0  0  0  0
    6.3692    3.7691   84.7783 C   0  0  0  0  0  0  0  0  0  0  0  0
    6.4056    3.6303   86.1077 C   0  0  0  0  0  0  0  0  0  0  0  0
    6.6605    2.5582   84.0699 C   0  0  0  0  0  0  0  0  0  0  0  0
    6.8937    1.6033   85.0970 C   0  0  0  0  0  0  0  0  0  0  0  0
    6.7416    2.1787   82.7584 C   0  0  0  0  0  0  0  0  0  0  0  0
    6.7209    2.3321   86.2936 N   0  0  0  0  0  0  0  0  0  0  0  0
    7.2055    0.3214   84.8508 C   0  0  0  0  0  0  0  0  0  0  0  0
    7.0848    0.8213   82.4748 C   0  0  0  0  0  0  0  0  0  0  0  0
    7.3268   -0.1258   83.5318 C   0  0  0  0  0  0  0  0  0  0  0  0
    5.1355    7.0471   82.3341 O   0  0  0  0  0  0  0  0  0  0  0  0
  2  1  1  1  0  0  0
  2  3  1  0  0  0  0
  2  6  1  0  0  0  0
  3  4  1  0  0  0  0
  3 16  1  0  0  0  0
  5 14  1  0  0  0  0
  6  7  1  0  0  0  0
  7  8  2  0  0  0  0
  7  9  1  0  0  0  0
  8 12  1  0  0  0  0
  9 10  2  0  0  0  0
  9 11  1  0  0  0  0
 10 13  1  0  0  0  0
 10 12  1  0  0  0  0
 11 14  2  0  0  0  0
 13 15  2  0  0  0  0
 14 15  1  0  0  0  0
M  END
>  <CHROM.1>
96.71585987,-82.85380680,174.62778912,6.42951705,3.29224014,83.33299932,-2.97680281
-1.27949512,1.37507372

>  <Name>
ligand

>  <RI>
0

>  <Rbt.Current_Directory>
/home/itssahil/PROJECTS/Mol_Feturizer/Test_systems_manuscript/rnas/5kpy

>  <Rbt.Executable>
rbdock ($Id: //depot/dev/client3/rdock/2013.1/src/exe/rbdock.cxx#4 $)

>  <Rbt.Library>
libRbt.so (2013.1, Build901 2013/11/27)

>  <Rbt.Parameter_File>
/export/apps/rDock/src/rDock_2013.1_src/data/scripts/dock_solv.prm

>  <Rbt.Receptor>
prm/pocket_docking_6.prm

>  <SCORE>
-19.8334

>  <SCORE.INTER>
-22.1133

>  <SCORE.INTER.CONST>
1

>  <SCORE.INTER.POLAR>
0

>  <SCORE.INTER.ROT>
3

>  <SCORE.INTER.SOLV>
6.28426

>  <SCORE.INTER.VDW>
-22.4369

>  <SCORE.INTER.norm>
-1.38208

>  <SCORE.INTRA>
2.27984

>  <SCORE.INTRA.DIHEDRAL>
1.68292

>  <SCORE.INTRA.DIHEDRAL.0>
3.89056

>  <SCORE.INTRA.POLAR>
0

>  <SCORE.INTRA.POLAR.0>
0

>  <SCORE.INTRA.REPUL>
0

>  <SCORE.INTRA.REPUL.0>
0

>  <SCORE.INTRA.SOLV>
0.130401

>  <SCORE.INTRA.SOLV.lig_0>
-20.733

>  <SCORE.INTRA.VDW>
1.37319

>  <SCORE.INTRA.VDW.0>
-0.828515

>  <SCORE.INTRA.norm>
0.14249

>  <SCORE.RESTR>
0

>  <SCORE.RESTR.CAVITY>
0

>  <SCORE.RESTR.norm>
0

>  <SCORE.SYSTEM>
0

>  <SCORE.SYSTEM.CONST>
0

>  <SCORE.SYSTEM.DIHEDRAL>
0

>  <SCORE.SYSTEM.SOLV>
0

>  <SCORE.SYSTEM.norm>
0

>  <SCORE.heavy>
16

>  <SCORE.norm>
-1.23959

>  <RMSD>
2.658

$$$$
ligand
 OpenBabel02271912153D
libRbt.so/2013.1/901 2013/11/27
 16 17  0  0  0  0  0  0  0  0999 V2000
    7.5503    5.1583   82.1710 N   0  0  0  0  0  0  0  0  0  0  0  0
    6.1971    4.9263   82.5479 C   0  0  2  0  0  0  0  0  0  0  0  0
    5.2548    5.8852   81.8752 C   0  0  0  0  0  0  0  0  0  0  0  0
    4.6646    5.5320   80.8253 O   0  0  0  0  0  0  0  0  0  0  0  0
    7.1443    0.3961   81.1291 O   0  0  0  0  0  0  0  0  0  0  0  0
    6.0312    5.0396   84.0443 C   0  0  0  0  0  0  0  0  0  0  0  0
    6.3761    3.7657   84.7785 C   0  0  0  0  0  0  0  0  0  0  0  0
    6.4292    3.6247   86.1071 C   0  0  0  0  0  0  0  0  0  0  0  0
    6.6553    2.5552   84.0646 C   0  0  0  0  0  0  0  0  0  0  0  0
    6.8992    1.5980   85.0871 C   0  0  0  0  0  0  0  0  0  0  0  0
    6.7187    2.1776   82.7515 C   0  0  0  0  0  0  0  0  0  0  0  0
    6.7436    2.3254   86.2870 N   0  0  0  0  0  0  0  0  0  0  0  0
    7.2047    0.3159   84.8350 C   0  0  0  0  0  0  0  0  0  0  0  0
    7.0549    0.8198   82.4615 C   0  0  0  0  0  0  0  0  0  0  0  0
    7.3081   -0.1296   83.5138 C   0  0  0  0  0  0  0  0  0  0  0  0
    5.0787    7.0257   82.3529 O   0  0  0  0  0  0  0  0  0  0  0  0
  2  1  1  1  0  0  0
  2  3  1  0  0  0  0
  2  6  1  0  0  0  0
  3  4  1  0  0  0  0
  3 16  1  0  0  0  0
  5 14  1  0  0  0  0
  6  7  1  0  0  0  0
  7  8  2  0  0  0  0
  7  9  1  0  0  0  0
  8 12  1  0  0  0  0
  9 10  2  0  0  0  0
  9 11  1  0  0  0  0
 10 13  1  0  0  0  0
 10 12  1  0  0  0  0
 11 14  2  0  0  0  0
 13 15  2  0  0  0  0
 14 15  1  0  0  0  0
M  END
>  <CHROM.1>
96.28787072,-83.95794404,173.84810257,6.41774913,3.28893086,83.33100085,-3.02171823
-1.27913185,1.33166608

>  <Name>
ligand

>  <RI>
0

>  <Rbt.Current_Directory>
/home/itssahil/PROJECTS/Mol_Feturizer/Test_systems_manuscript/rnas/5kpy

>  <Rbt.Executable>
rbdock ($Id: //depot/dev/client3/rdock/2013.1/src/exe/rbdock.cxx#4 $)

>  <Rbt.Library>
libRbt.so (2013.1, Build901 2013/11/27)

>  <Rbt.Parameter_File>
/export/apps/rDock/src/rDock_2013.1_src/data/scripts/dock_solv.prm

>  <Rbt.Receptor>
prm/pocket_docking_7.prm

>  <SCORE>
-19.8802

>  <SCORE.INTER>
-22.1884

>  <SCORE.INTER.CONST>
1

>  <SCORE.INTER.POLAR>
0

>  <SCORE.INTER.ROT>
3

>  <SCORE.INTER.SOLV>
6.27979

>  <SCORE.INTER.VDW>
-22.4856

>  <SCORE.INTER.norm>
-1.38678

>  <SCORE.INTRA>
2.30829

>  <SCORE.INTRA.DIHEDRAL>
1.83792

>  <SCORE.INTRA.DIHEDRAL.0>
3.89056

>  <SCORE.INTRA.POLAR>
0

>  <SCORE.INTRA.POLAR.0>
0

>  <SCORE.INTRA.REPUL>
0

>  <SCORE.INTRA.REPUL.0>
0

>  <SCORE.INTRA.SOLV>
0.0860906

>  <SCORE.INTRA.SOLV.lig_0>
-20.733

>  <SCORE.INTRA.VDW>
1.34628

>  <SCORE.INTRA.VDW.0>
-0.828515

>  <SCORE.INTRA.norm>
0.144268

>  <SCORE.RESTR>
0

>  <SCORE.RESTR.CAVITY>
0

>  <SCORE.RESTR.norm>
0

>  <SCORE.SYSTEM>
0

>  <SCORE.SYSTEM.CONST>
0

>  <SCORE.SYSTEM.DIHEDRAL>
0

>  <SCORE.SYSTEM.SOLV>
0

>  <SCORE.SYSTEM.norm>
0

>  <SCORE.heavy>
16

>  <SCORE.norm>
-1.24251

>  <RMSD>
2.659

$$$$
ligand
 OpenBabel02271912153D
libRbt.so/2013.1/901 2013/11/27
 16 17  0  0  0  0  0  0  0  0999 V2000
    7.0474    6.0613   80.6955 N   0  0  0  0  0  0  0  0  0  0  0  0
    6.3666    5.3509   81.7244 C   0  0  2  0  0  0  0  0  0  0  0  0
    5.1787    6.1134   82.2415 C   0  0  0  0  0  0  0  0  0  0  0  0
    5.3551    7.0323   83.0780 O   0  0  0  0  0  0  0  0  0  0  0  0
    8.3941   -0.3166   81.7341 O   0  0  0  0  0  0  0  0  0  0  0  0
    7.2982    5.0499   82.8739 C   0  0  0  0  0  0  0  0  0  0  0  0
    6.7767    3.9728   83.7951 C   0  0  0  0  0  0  0  0  0  0  0  0
    6.0370    4.1779   84.8899 C   0  0  0  0  0  0  0  0  0  0  0  0
    7.0282    2.5878   83.5276 C   0  0  0  0  0  0  0  0  0  0  0  0
    6.3628    1.9047   84.5820 C   0  0  0  0  0  0  0  0  0  0  0  0
    7.6945    1.8742   82.5698 C   0  0  0  0  0  0  0  0  0  0  0  0
    5.7924    2.9368   85.3581 N   0  0  0  0  0  0  0  0  0  0  0  0
    6.3566    0.5681   84.7022 C   0  0  0  0  0  0  0  0  0  0  0  0
    7.7106    0.4505   82.6866 C   0  0  0  0  0  0  0  0  0  0  0  0
    7.0381   -0.2191   83.7693 C   0  0  0  0  0  0  0  0  0  0  0  0
    4.0296    5.8189   81.8505 O   0  0  0  0  0  0  0  0  0  0  0  0
  2  1  1  6  0  0  0
  2  3  1  0  0  0  0
  2  6  1  0  0  0  0
  3  4  1  0  0  0  0
  3 16  1  0  0  0  0
  5 14  1  0  0  0  0
  6  7  1  0  0  0  0
  7  8  2  0  0  0  0
  7  9  1  0  0  0  0
  8 12  1  0  0  0  0
  9 10  2  0  0  0  0
  9 11  1  0  0  0  0
 10 13  1  0  0  0  0
 10 12  1  0  0  0  0
 11 14  2  0  0  0  0
 13 15  2  0  0  0  0
 14 15  1  0  0  0  0
M  END
>  <CHROM.1>
-80.48848071,-163.07006989,-91.74478240,6.49949217,3.43101162,83.06727906
-2.16707497,-1.01133343,2.43180686

>  <Name>
ligand

>  <RI>
0

>  <Rbt.Current_Directory>
/home/itssahil/PROJECTS/Mol_Feturizer/Test_systems_manuscript/rnas/5kpy

>  <Rbt.Executable>
rbdock ($Id: //depot/dev/client3/rdock/2013.1/src/exe/rbdock.cxx#4 $)

>  <Rbt.Library>
libRbt.so (2013.1, Build901 2013/11/27)

>  <Rbt.Parameter_File>
/export/apps/rDock/src/rDock_2013.1_src/data/scripts/dock_solv.prm

>  <Rbt.Receptor>
prm/pocket_docking_4.prm

>  <SCORE>
-18.0939

>  <SCORE.INTER>
-17.8419

>  <SCORE.INTER.CONST>
1

>  <SCORE.INTER.POLAR>
0

>  <SCORE.INTER.ROT>
3

>  <SCORE.INTER.SOLV>
11.2032

>  <SCORE.INTER.VDW>
-21.229

>  <SCORE.INTER.norm>
-1.11512

>  <SCORE.INTRA>
-0.251999

>  <SCORE.INTRA.DIHEDRAL>
0.851949

>  <SCORE.INTRA.DIHEDRAL.0>
3.89056

>  <SCORE.INTRA.POLAR>
0

>  <SCORE.INTRA.POLAR.0>
0

>  <SCORE.INTRA.REPUL>
0

>  <SCORE.INTRA.REPUL.0>
0

>  <SCORE.INTRA.SOLV>
-1.18536

>  <SCORE.INTRA.SOLV.lig_0>
-20.733

>  <SCORE.INTRA.VDW>
-0.0852931

>  <SCORE.INTRA.VDW.0>
-0.828515

>  <SCORE.INTRA.norm>
-0.01575

>  <SCORE.RESTR>
0

>  <SCORE.RESTR.CAVITY>
0

>  <SCORE.RESTR.norm>
0

>  <SCORE.SYSTEM>
0

>  <SCORE.SYSTEM.CONST>
0

>  <SCORE.SYSTEM.DIHEDRAL>
0

>  <SCORE.SYSTEM.SOLV>
0

>  <SCORE.SYSTEM.norm>
0

>  <SCORE.heavy>
16

>  <SCORE.norm>
-1.13087

>  <RMSD>
2.670

$$$$
ligand
 OpenBabel02271912153D
libRbt.so/2013.1/901 2013/11/27
 16 17  0  0  0  0  0  0  0  0999 V2000
    8.5229    4.7706   82.3334 N   0  0  0  0  0  0  0  0  0  0  0  0
    7.1190    4.8720   82.1192 C   0  0  2  0  0  0  0  0  0  0  0  0
    6.7665    6.0518   81.2570 C   0  0  0  0  0  0  0  0  0  0  0  0
    5.5840    6.1916   80.8604 O   0  0  0  0  0  0  0  0  0  0  0  0
    7.1682   -0.0271   81.0721 O   0  0  0  0  0  0  0  0  0  0  0  0
    6.3837    4.9838   83.4332 C   0  0  0  0  0  0  0  0  0  0  0  0
    6.5468    3.7658   84.3110 C   0  0  0  0  0  0  0  0  0  0  0  0
    6.5053    3.7600   85.6475 C   0  0  0  0  0  0  0  0  0  0  0  0
    6.7376    2.4654   83.7404 C   0  0  0  0  0  0  0  0  0  0  0  0
    6.8170    1.6011   84.8664 C   0  0  0  0  0  0  0  0  0  0  0  0
    6.8386    1.9480   82.4784 C   0  0  0  0  0  0  0  0  0  0  0  0
    6.6684    2.4619   85.9754 N   0  0  0  0  0  0  0  0  0  0  0  0
    6.9988    0.2755   84.7631 C   0  0  0  0  0  0  0  0  0  0  0  0
    7.0451    0.5406   82.3470 C   0  0  0  0  0  0  0  0  0  0  0  0
    7.1328   -0.3139   83.5024 C   0  0  0  0  0  0  0  0  0  0  0  0
    7.6502    6.8715   80.9293 O   0  0  0  0  0  0  0  0  0  0  0  0
  2  1  1  1  0  0  0
  2  3  1  0  0  0  0
  2  6  1  0  0  0  0
  3  4  1  0  0  0  0
  3 16  1  0  0  0  0
  5 14  1  0  0  0  0
  6  7  1  0  0  0  0
  7  8  2  0  0  0  0
  7  9  1  0  0  0  0
  8 12  1  0  0  0  0
  9 10  2  0  0  0  0
  9 11  1  0  0  0  0
 10 13  1  0  0  0  0
 10 12  1  0  0  0  0
 11 14  2  0  0  0  0
 13 15  2  0  0  0  0
 14 15  1  0  0  0  0
M  END
>  <CHROM.1>
172.36663221,-62.95388972,151.25161774,6.90847317,3.24197678,82.99887845
-1.64670154,-1.45605947,2.65134554

>  <Name>
ligand

>  <RI>
0

>  <Rbt.Current_Directory>
/home/itssahil/PROJECTS/Mol_Feturizer/Test_systems_manuscript/rnas/5kpy

>  <Rbt.Executable>
rbdock ($Id: //depot/dev/client3/rdock/2013.1/src/exe/rbdock.cxx#4 $)

>  <Rbt.Library>
libRbt.so (2013.1, Build901 2013/11/27)

>  <Rbt.Parameter_File>
/export/apps/rDock/src/rDock_2013.1_src/data/scripts/dock_solv.prm

>  <Rbt.Receptor>
prm/pocket_docking_6.prm

>  <SCORE>
-20.4222

>  <SCORE.INTER>
-20.9235

>  <SCORE.INTER.CONST>
1

>  <SCORE.INTER.POLAR>
0

>  <SCORE.INTER.ROT>
3

>  <SCORE.INTER.SOLV>
7.3161

>  <SCORE.INTER.VDW>
-21.9877

>  <SCORE.INTER.norm>
-1.30772

>  <SCORE.INTRA>
0.501233

>  <SCORE.INTRA.DIHEDRAL>
-0.165985

>  <SCORE.INTRA.DIHEDRAL.0>
3.89056

>  <SCORE.INTRA.POLAR>
0

>  <SCORE.INTRA.POLAR.0>
0

>  <SCORE.INTRA.REPUL>
0

>  <SCORE.INTRA.REPUL.0>
0

>  <SCORE.INTRA.SOLV>
0.197753

>  <SCORE.INTRA.SOLV.lig_0>
-20.733

>  <SCORE.INTRA.VDW>
0.485349

>  <SCORE.INTRA.VDW.0>
-0.828515

>  <SCORE.INTRA.norm>
0.031327

>  <SCORE.RESTR>
0

>  <SCORE.RESTR.CAVITY>
0

>  <SCORE.RESTR.norm>
0

>  <SCORE.SYSTEM>
0

>  <SCORE.SYSTEM.CONST>
0

>  <SCORE.SYSTEM.DIHEDRAL>
0

>  <SCORE.SYSTEM.SOLV>
0

>  <SCORE.SYSTEM.norm>
0

>  <SCORE.heavy>
16

>  <SCORE.norm>
-1.27639

>  <RMSD>
2.700

$$$$
ligand
 OpenBabel02271912153D
libRbt.so/2013.1/901 2013/11/27
 16 17  0  0  0  0  0  0  0  0999 V2000
    7.7111    6.4614   82.8633 N   0  0  0  0  0  0  0  0  0  0  0  0
    7.0283    5.2167   82.7565 C   0  0  2  0  0  0  0  0  0  0  0  0
    6.2214    5.1258   81.4914 C   0  0  0  0  0  0  0  0  0  0  0  0
    5.5508    6.1187   81.1177 O   0  0  0  0  0  0  0  0  0  0  0  0
    7.2568    0.3043   81.1267 O   0  0  0  0  0  0  0  0  0  0  0  0
    6.1156    5.0033   83.9402 C   0  0  0  0  0  0  0  0  0  0  0  0
    6.4178    3.7352   84.7027 C   0  0  0  0  0  0  0  0  0  0  0  0
    6.4251    3.6121   86.0341 C   0  0  0  0  0  0  0  0  0  0  0  0
    6.7028    2.5110   84.0149 C   0  0  0  0  0  0  0  0  0  0  0  0
    6.8992    1.5650   85.0578 C   0  0  0  0  0  0  0  0  0  0  0  0
    6.8039    2.1141   82.7099 C   0  0  0  0  0  0  0  0  0  0  0  0
    6.7147    2.3112   86.2419 N   0  0  0  0  0  0  0  0  0  0  0  0
    7.1942    0.2753   84.8334 C   0  0  0  0  0  0  0  0  0  0  0  0
    7.1298    0.7479   82.4496 C   0  0  0  0  0  0  0  0  0  0  0  0
    7.3346   -0.1901   83.5225 C   0  0  0  0  0  0  0  0  0  0  0  0
    6.2105    4.0645   80.8330 O   0  0  0  0  0  0  0  0  0  0  0  0
  2  1  1  1  0  0  0
  2  3  1  0  0  0  0
  2  6  1  0  0  0  0
  3  4  1  0  0  0  0
  3 16  1  0  0  0  0
  5 14  1  0  0  0  0
  6  7  1  0  0  0  0
  7  8  2  0  0  0  0
  7  9  1  0  0  0  0
  8 12  1  0  0  0  0
  9 10  2  0  0  0  0
  9 11  1  0  0  0  0
 10 13  1  0  0  0  0
 10 12  1  0  0  0  0
 11 14  2  0  0  0  0
 13 15  2  0  0  0  0
 14 15  1  0  0  0  0
M  END
>  <CHROM.1>
-42.55615746,-122.41456739,138.65751623,6.71463117,3.13955422,83.24924990
2.87064387,1.43968534,-1.70423329

>  <Name>
ligand

>  <RI>
0

>  <Rbt.Current_Directory>
/home/itssahil/PROJECTS/Mol_Feturizer/Test_systems_manuscript/rnas/5kpy

>  <Rbt.Executable>
rbdock ($Id: //depot/dev/client3/rdock/2013.1/src/exe/rbdock.cxx#4 $)

>  <Rbt.Library>
libRbt.so (2013.1, Build901 2013/11/27)

>  <Rbt.Parameter_File>
/export/apps/rDock/src/rDock_2013.1_src/data/scripts/dock_solv.prm

>  <Rbt.Receptor>
prm/pocket_docking_4.prm

>  <SCORE>
-19.7454

>  <SCORE.INTER>
-21.7424

>  <SCORE.INTER.CONST>
1

>  <SCORE.INTER.POLAR>
0

>  <SCORE.INTER.ROT>
3

>  <SCORE.INTER.SOLV>
5.95974

>  <SCORE.INTER.VDW>
-22.0815

>  <SCORE.INTER.norm>
-1.3589

>  <SCORE.INTRA>
1.99696

>  <SCORE.INTRA.DIHEDRAL>
5.54977

>  <SCORE.INTRA.DIHEDRAL.0>
3.89056

>  <SCORE.INTRA.POLAR>
0

>  <SCORE.INTRA.POLAR.0>
0

>  <SCORE.INTRA.REPUL>
0

>  <SCORE.INTRA.REPUL.0>
0

>  <SCORE.INTRA.SOLV>
-1.0159

>  <SCORE.INTRA.SOLV.lig_0>
-20.733

>  <SCORE.INTRA.VDW>
-0.269977

>  <SCORE.INTRA.VDW.0>
-0.828515

>  <SCORE.INTRA.norm>
0.12481

>  <SCORE.RESTR>
0

>  <SCORE.RESTR.CAVITY>
0

>  <SCORE.RESTR.norm>
0

>  <SCORE.SYSTEM>
0

>  <SCORE.SYSTEM.CONST>
0

>  <SCORE.SYSTEM.DIHEDRAL>
0

>  <SCORE.SYSTEM.SOLV>
0

>  <SCORE.SYSTEM.norm>
0

>  <SCORE.heavy>
16

>  <SCORE.norm>
-1.23409

>  <RMSD>
2.703

$$$$
ligand
 OpenBabel02271912153D
libRbt.so/2013.1/901 2013/11/27
 16 17  0  0  0  0  0  0  0  0999 V2000
    8.4956    4.9210   82.4430 N   0  0  0  0  0  0  0  0  0  0  0  0
    7.1050    4.8870   82.1399 C   0  0  2  0  0  0  0  0  0  0  0  0
    6.6952    6.0310   81.2550 C   0  0  0  0  0  0  0  0  0  0  0  0
    7.5563    6.8724   80.9001 O   0  0  0  0  0  0  0  0  0  0  0  0
    7.1223   -0.1248   81.1399 O   0  0  0  0  0  0  0  0  0  0  0  0
    6.2804    4.9213   83.4043 C   0  0  0  0  0  0  0  0  0  0  0  0
    6.5238    3.7336   84.3048 C   0  0  0  0  0  0  0  0  0  0  0  0
    6.5436    3.7631   85.6415 C   0  0  0  0  0  0  0  0  0  0  0  0
    6.7315    2.4248   83.7599 C   0  0  0  0  0  0  0  0  0  0  0  0
    6.8909    1.5946   84.9030 C   0  0  0  0  0  0  0  0  0  0  0  0
    6.7918    1.8765   82.5083 C   0  0  0  0  0  0  0  0  0  0  0  0
    6.7646    2.4804   85.9949 N   0  0  0  0  0  0  0  0  0  0  0  0
    7.1117    0.2732   84.8257 C   0  0  0  0  0  0  0  0  0  0  0  0
    7.0388    0.4734   82.4040 C   0  0  0  0  0  0  0  0  0  0  0  0
    7.2074   -0.3459   83.5758 C   0  0  0  0  0  0  0  0  0  0  0  0
    5.5049    6.1456   80.8941 O   0  0  0  0  0  0  0  0  0  0  0  0
  2  1  1  1  0  0  0
  2  3  1  0  0  0  0
  2  6  1  0  0  0  0
  3  4  1  0  0  0  0
  3 16  1  0  0  0  0
  5 14  1  0  0  0  0
  6  7  1  0  0  0  0
  7  8  2  0  0  0  0
  7  9  1  0  0  0  0
  8 12  1  0  0  0  0
  9 10  2  0  0  0  0
  9 11  1  0  0  0  0
 10 13  1  0  0  0  0
 10 12  1  0  0  0  0
 11 14  2  0  0  0  0
 13 15  2  0  0  0  0
 14 15  1  0  0  0  0
M  END
>  <CHROM.1>
-0.96927835,-61.88428809,143.43055080,6.89704482,3.22375853,83.02733053,1.89641562
1.48351171,-0.73517522

>  <Name>
ligand

>  <RI>
0

>  <Rbt.Current_Directory>
/home/itssahil/PROJECTS/Mol_Feturizer/Test_systems_manuscript/rnas/5kpy

>  <Rbt.Executable>
rbdock ($Id: //depot/dev/client3/rdock/2013.1/src/exe/rbdock.cxx#4 $)

>  <Rbt.Library>
libRbt.so (2013.1, Build901 2013/11/27)

>  <Rbt.Parameter_File>
/export/apps/rDock/src/rDock_2013.1_src/data/scripts/dock_solv.prm

>  <Rbt.Receptor>
prm/pocket_docking_4.prm

>  <SCORE>
-20.2939

>  <SCORE.INTER>
-20.6135

>  <SCORE.INTER.CONST>
1

>  <SCORE.INTER.POLAR>
0

>  <SCORE.INTER.ROT>
3

>  <SCORE.INTER.SOLV>
7.55932

>  <SCORE.INTER.VDW>
-21.8621

>  <SCORE.INTER.norm>
-1.28834

>  <SCORE.INTRA>
0.319626

>  <SCORE.INTRA.DIHEDRAL>
-0.196699

>  <SCORE.INTRA.DIHEDRAL.0>
3.89056

>  <SCORE.INTRA.POLAR>
0

>  <SCORE.INTRA.POLAR.0>
0

>  <SCORE.INTRA.REPUL>
0

>  <SCORE.INTRA.REPUL.0>
0

>  <SCORE.INTRA.SOLV>
0.0884525

>  <SCORE.INTRA.SOLV.lig_0>
-20.733

>  <SCORE.INTRA.VDW>
0.373749

>  <SCORE.INTRA.VDW.0>
-0.828515

>  <SCORE.INTRA.norm>
0.0199766

>  <SCORE.RESTR>
0

>  <SCORE.RESTR.CAVITY>
0

>  <SCORE.RESTR.norm>
0

>  <SCORE.SYSTEM>
0

>  <SCORE.SYSTEM.CONST>
0

>  <SCORE.SYSTEM.DIHEDRAL>
0

>  <SCORE.SYSTEM.SOLV>
0

>  <SCORE.SYSTEM.norm>
0

>  <SCORE.heavy>
16

>  <SCORE.norm>
-1.26837

>  <RMSD>
2.713

$$$$
ligand
 OpenBabel02271912153D
libRbt.so/2013.1/901 2013/11/27
 16 17  0  0  0  0  0  0  0  0999 V2000
    8.4142    4.6942   82.2674 N   0  0  0  0  0  0  0  0  0  0  0  0
    7.0045    4.8141   82.1086 C   0  0  2  0  0  0  0  0  0  0  0  0
    6.6343    5.9932   81.2527 C   0  0  0  0  0  0  0  0  0  0  0  0
    5.4437    6.1329   80.8808 O   0  0  0  0  0  0  0  0  0  0  0  0
    7.2150   -0.0594   81.1133 O   0  0  0  0  0  0  0  0  0  0  0  0
    6.3238    4.9451   83.4500 C   0  0  0  0  0  0  0  0  0  0  0  0
    6.5146    3.7354   84.3338 C   0  0  0  0  0  0  0  0  0  0  0  0
    6.4747    3.7355   85.6703 C   0  0  0  0  0  0  0  0  0  0  0  0
    6.7331    2.4366   83.7695 C   0  0  0  0  0  0  0  0  0  0  0  0
    6.8327    1.5799   84.8998 C   0  0  0  0  0  0  0  0  0  0  0  0
    6.8439    1.9151   82.5100 C   0  0  0  0  0  0  0  0  0  0  0  0
    6.6666    2.4429   86.0045 N   0  0  0  0  0  0  0  0  0  0  0  0
    7.0433    0.2581   84.8029 C   0  0  0  0  0  0  0  0  0  0  0  0
    7.0810    0.5119   82.3855 C   0  0  0  0  0  0  0  0  0  0  0  0
    7.1887   -0.3346   83.5451 C   0  0  0  0  0  0  0  0  0  0  0  0
    7.5111    6.8123   80.9058 O   0  0  0  0  0  0  0  0  0  0  0  0
  2  1  1  1  0  0  0
  2  3  1  0  0  0  0
  2  6  1  0  0  0  0
  3  4  1  0  0  0  0
  3 16  1  0  0  0  0
  5 14  1  0  0  0  0
  6  7  1  0  0  0  0
  7  8  2  0  0  0  0
  7  9  1  0  0  0  0
  8 12  1  0  0  0  0
  9 10  2  0  0  0  0
  9 11  1  0  0  0  0
 10 13  1  0  0  0  0
 10 12  1  0  0  0  0
 11 14  2  0  0  0  0
 13 15  2  0  0  0  0
 14 15  1  0  0  0  0
M  END
>  <CHROM.1>
170.97784425,-62.47262173,154.05818215,6.87008004,3.20316383,83.01436145
-1.86280072,-1.43829383,2.42520567

>  <Name>
ligand

>  <RI>
0

>  <Rbt.Current_Directory>
/home/itssahil/PROJECTS/Mol_Feturizer/Test_systems_manuscript/rnas/5kpy

>  <Rbt.Executable>
rbdock ($Id: //depot/dev/client3/rdock/2013.1/src/exe/rbdock.cxx#4 $)

>  <Rbt.Library>
libRbt.so (2013.1, Build901 2013/11/27)

>  <Rbt.Parameter_File>
/export/apps/rDock/src/rDock_2013.1_src/data/scripts/dock_solv.prm

>  <Rbt.Receptor>
prm/pocket_docking_4.prm

>  <SCORE>
-20.4902

>  <SCORE.INTER>
-21.0872

>  <SCORE.INTER.CONST>
1

>  <SCORE.INTER.POLAR>
0

>  <SCORE.INTER.ROT>
3

>  <SCORE.INTER.SOLV>
7.243

>  <SCORE.INTER.VDW>
-22.0725

>  <SCORE.INTER.norm>
-1.31795

>  <SCORE.INTRA>
0.597056

>  <SCORE.INTRA.DIHEDRAL>
-0.173784

>  <SCORE.INTRA.DIHEDRAL.0>
3.89056

>  <SCORE.INTRA.POLAR>
0

>  <SCORE.INTRA.POLAR.0>
0

>  <SCORE.INTRA.REPUL>
0

>  <SCORE.INTRA.REPUL.0>
0

>  <SCORE.INTRA.SOLV>
0.276598

>  <SCORE.INTRA.SOLV.lig_0>
-20.733

>  <SCORE.INTRA.VDW>
0.54565

>  <SCORE.INTRA.VDW.0>
-0.828515

>  <SCORE.INTRA.norm>
0.037316

>  <SCORE.RESTR>
0

>  <SCORE.RESTR.CAVITY>
0

>  <SCORE.RESTR.norm>
0

>  <SCORE.SYSTEM>
0

>  <SCORE.SYSTEM.CONST>
0

>  <SCORE.SYSTEM.DIHEDRAL>
0

>  <SCORE.SYSTEM.SOLV>
0

>  <SCORE.SYSTEM.norm>
0

>  <SCORE.heavy>
16

>  <SCORE.norm>
-1.28064

>  <RMSD>
2.721

$$$$
ligand
 OpenBabel02271912153D
libRbt.so/2013.1/901 2013/11/27
 16 17  0  0  0  0  0  0  0  0999 V2000
    8.4269    4.6589   82.2056 N   0  0  0  0  0  0  0  0  0  0  0  0
    7.0189    4.8240   82.0744 C   0  0  2  0  0  0  0  0  0  0  0  0
    6.6700    6.0195   81.2324 C   0  0  0  0  0  0  0  0  0  0  0  0
    5.4834    6.1815   80.8569 O   0  0  0  0  0  0  0  0  0  0  0  0
    7.1831   -0.0371   81.0658 O   0  0  0  0  0  0  0  0  0  0  0  0
    6.3682    4.9679   83.4292 C   0  0  0  0  0  0  0  0  0  0  0  0
    6.5473    3.7518   84.3066 C   0  0  0  0  0  0  0  0  0  0  0  0
    6.5137    3.7464   85.6433 C   0  0  0  0  0  0  0  0  0  0  0  0
    6.7463    2.4529   83.7355 C   0  0  0  0  0  0  0  0  0  0  0  0
    6.8400    1.5899   84.8614 C   0  0  0  0  0  0  0  0  0  0  0  0
    6.8443    1.9357   82.4731 C   0  0  0  0  0  0  0  0  0  0  0  0
    6.6904    2.4499   85.9708 N   0  0  0  0  0  0  0  0  0  0  0  0
    7.0329    0.2659   84.7577 C   0  0  0  0  0  0  0  0  0  0  0  0
    7.0625    0.5302   82.3412 C   0  0  0  0  0  0  0  0  0  0  0  0
    7.1646   -0.3229   83.4965 C   0  0  0  0  0  0  0  0  0  0  0  0
    7.5603    6.8301   80.9001 O   0  0  0  0  0  0  0  0  0  0  0  0
  2  1  1  1  0  0  0
  2  3  1  0  0  0  0
  2  6  1  0  0  0  0
  3  4  1  0  0  0  0
  3 16  1  0  0  0  0
  5 14  1  0  0  0  0
  6  7  1  0  0  0  0
  7  8  2  0  0  0  0
  7  9  1  0  0  0  0
  8 12  1  0  0  0  0
  9 10  2  0  0  0  0
  9 11  1  0  0  0  0
 10 13  1  0  0  0  0
 10 12  1  0  0  0  0
 11 14  2  0  0  0  0
 13 15  2  0  0  0  0
 14 15  1  0  0  0  0
M  END
>  <CHROM.1>
169.26902678,-61.98386160,155.12827985,6.88494525,3.21799393,82.98038641
-1.82669145,-1.44906755,2.46413467

>  <Name>
ligand

>  <RI>
0

>  <Rbt.Current_Directory>
/home/itssahil/PROJECTS/Mol_Feturizer/Test_systems_manuscript/rnas/5kpy

>  <Rbt.Executable>
rbdock ($Id: //depot/dev/client3/rdock/2013.1/src/exe/rbdock.cxx#4 $)

>  <Rbt.Library>
libRbt.so (2013.1, Build901 2013/11/27)

>  <Rbt.Parameter_File>
/export/apps/rDock/src/rDock_2013.1_src/data/scripts/dock_solv.prm

>  <Rbt.Receptor>
prm/pocket_docking_4.prm

>  <SCORE>
-20.5261

>  <SCORE.INTER>
-21.1588

>  <SCORE.INTER.CONST>
1

>  <SCORE.INTER.POLAR>
0

>  <SCORE.INTER.ROT>
3

>  <SCORE.INTER.SOLV>
7.15136

>  <SCORE.INTER.VDW>
-22.0897

>  <SCORE.INTER.norm>
-1.32243

>  <SCORE.INTRA>
0.632732

>  <SCORE.INTRA.DIHEDRAL>
-0.179814

>  <SCORE.INTRA.DIHEDRAL.0>
3.89056

>  <SCORE.INTRA.POLAR>
0

>  <SCORE.INTRA.POLAR.0>
0

>  <SCORE.INTRA.REPUL>
0

>  <SCORE.INTRA.REPUL.0>
0

>  <SCORE.INTRA.SOLV>
0.314422

>  <SCORE.INTRA.SOLV.lig_0>
-20.733

>  <SCORE.INTRA.VDW>
0.565428

>  <SCORE.INTRA.VDW.0>
-0.828515

>  <SCORE.INTRA.norm>
0.0395457

>  <SCORE.RESTR>
0

>  <SCORE.RESTR.CAVITY>
0

>  <SCORE.RESTR.norm>
0

>  <SCORE.SYSTEM>
0

>  <SCORE.SYSTEM.CONST>
0

>  <SCORE.SYSTEM.DIHEDRAL>
0

>  <SCORE.SYSTEM.SOLV>
0

>  <SCORE.SYSTEM.norm>
0

>  <SCORE.heavy>
16

>  <SCORE.norm>
-1.28288

>  <RMSD>
2.723

$$$$
ligand
 OpenBabel02271912153D
libRbt.so/2013.1/901 2013/11/27
 16 17  0  0  0  0  0  0  0  0999 V2000
    8.8175    6.9890   85.9075 N   0  0  0  0  0  0  0  0  0  0  0  0
    7.9719    6.2413   85.0399 C   0  0  2  0  0  0  0  0  0  0  0  0
    6.5212    6.3888   85.4056 C   0  0  0  0  0  0  0  0  0  0  0  0
    5.7036    6.7716   84.5337 O   0  0  0  0  0  0  0  0  0  0  0  0
    5.9538   -0.2752   85.3421 O   0  0  0  0  0  0  0  0  0  0  0  0
    8.3404    4.7772   85.0639 C   0  0  0  0  0  0  0  0  0  0  0  0
    7.9817    4.0532   83.7879 C   0  0  0  0  0  0  0  0  0  0  0  0
    8.1995    4.5075   82.5493 C   0  0  0  0  0  0  0  0  0  0  0  0
    7.3803    2.7532   83.8214 C   0  0  0  0  0  0  0  0  0  0  0  0
    7.2281    2.4062   82.4511 C   0  0  0  0  0  0  0  0  0  0  0  0
    6.9779    1.8781   84.7925 C   0  0  0  0  0  0  0  0  0  0  0  0
    7.7458    3.5183   81.7525 N   0  0  0  0  0  0  0  0  0  0  0  0
    6.6914    1.2460   82.0427 C   0  0  0  0  0  0  0  0  0  0  0  0
    6.3923    0.6426   84.3786 C   0  0  0  0  0  0  0  0  0  0  0  0
    6.2388    0.3172   82.9845 C   0  0  0  0  0  0  0  0  0  0  0  0
    6.1437    6.1467   86.5713 O   0  0  0  0  0  0  0  0  0  0  0  0
  2  1  1  1  0  0  0
  2  3  1  0  0  0  0
  2  6  1  0  0  0  0
  3  4  1  0  0  0  0
  3 16  1  0  0  0  0
  5 14  1  0  0  0  0
  6  7  1  0  0  0  0
  7  8  2  0  0  0  0
  7  9  1  0  0  0  0
  8 12  1  0  0  0  0
  9 10  2  0  0  0  0
  9 11  1  0  0  0  0
 10 13  1  0  0  0  0
 10 12  1  0  0  0  0
 11 14  2  0  0  0  0
 13 15  2  0  0  0  0
 14 15  1  0  0  0  0
M  END
>  <CHROM.1>
125.28486340,-153.33314355,44.57282743,7.11137687,3.73325091,84.23382960
1.29590773,1.12308728,0.56279927

>  <Name>
ligand

>  <RI>
0

>  <Rbt.Current_Directory>
/home/itssahil/PROJECTS/Mol_Feturizer/Test_systems_manuscript/rnas/5kpy

>  <Rbt.Executable>
rbdock ($Id: //depot/dev/client3/rdock/2013.1/src/exe/rbdock.cxx#4 $)

>  <Rbt.Library>
libRbt.so (2013.1, Build901 2013/11/27)

>  <Rbt.Parameter_File>
/export/apps/rDock/src/rDock_2013.1_src/data/scripts/dock_solv.prm

>  <Rbt.Receptor>
prm/pocket_docking_3.prm

>  <SCORE>
62.2692

>  <SCORE.INTER>
61.7352

>  <SCORE.INTER.CONST>
1

>  <SCORE.INTER.POLAR>
0

>  <SCORE.INTER.ROT>
3

>  <SCORE.INTER.SOLV>
10.5988

>  <SCORE.INTER.VDW>
32.0239

>  <SCORE.INTER.norm>
3.85845

>  <SCORE.INTRA>
0.276706

>  <SCORE.INTRA.DIHEDRAL>
2.17679

>  <SCORE.INTRA.DIHEDRAL.0>
3.89056

>  <SCORE.INTRA.POLAR>
0

>  <SCORE.INTRA.POLAR.0>
0

>  <SCORE.INTRA.REPUL>
0

>  <SCORE.INTRA.REPUL.0>
0

>  <SCORE.INTRA.SOLV>
-1.16222

>  <SCORE.INTRA.SOLV.lig_0>
-20.733

>  <SCORE.INTRA.VDW>
-0.23058

>  <SCORE.INTRA.VDW.0>
-0.828515

>  <SCORE.INTRA.norm>
0.0172941

>  <SCORE.RESTR>
0.257294

>  <SCORE.RESTR.CAVITY>
0.257294

>  <SCORE.RESTR.norm>
0.0160809

>  <SCORE.SYSTEM>
0

>  <SCORE.SYSTEM.CONST>
0

>  <SCORE.SYSTEM.DIHEDRAL>
0

>  <SCORE.SYSTEM.SOLV>
0

>  <SCORE.SYSTEM.norm>
0

>  <SCORE.heavy>
16

>  <SCORE.norm>
3.89182

>  <RMSD>
2.737

$$$$
ligand
 OpenBabel02271912153D
libRbt.so/2013.1/901 2013/11/27
 16 17  0  0  0  0  0  0  0  0999 V2000
    8.6053    3.7909   80.9022 N   0  0  0  0  0  0  0  0  0  0  0  0
    7.8691    4.9913   81.1118 C   0  0  2  0  0  0  0  0  0  0  0  0
    8.6147    5.9618   81.9848 C   0  0  0  0  0  0  0  0  0  0  0  0
    9.3503    5.5231   82.9024 O   0  0  0  0  0  0  0  0  0  0  0  0
    7.2213   -0.8568   81.7931 O   0  0  0  0  0  0  0  0  0  0  0  0
    6.5277    4.6943   81.7379 C   0  0  0  0  0  0  0  0  0  0  0  0
    6.6357    3.9718   83.0597 C   0  0  0  0  0  0  0  0  0  0  0  0
    6.5637    4.5439   84.2661 C   0  0  0  0  0  0  0  0  0  0  0  0
    6.8020    2.5496   83.1116 C   0  0  0  0  0  0  0  0  0  0  0  0
    6.8309    2.2545   84.5020 C   0  0  0  0  0  0  0  0  0  0  0  0
    6.9167    1.5367   82.1997 C   0  0  0  0  0  0  0  0  0  0  0  0
    6.6819    3.5118   85.1264 N   0  0  0  0  0  0  0  0  0  0  0  0
    6.9768    1.0113   84.9859 C   0  0  0  0  0  0  0  0  0  0  0  0
    7.0856    0.2073   82.6943 C   0  0  0  0  0  0  0  0  0  0  0  0
    7.1224   -0.0664   84.1073 C   0  0  0  0  0  0  0  0  0  0  0  0
    8.4857    7.1908   81.8034 O   0  0  0  0  0  0  0  0  0  0  0  0
  2  1  1  1  0  0  0
  2  3  1  0  0  0  0
  2  6  1  0  0  0  0
  3  4  1  0  0  0  0
  3 16  1  0  0  0  0
  5 14  1  0  0  0  0
  6  7  1  0  0  0  0
  7  8  2  0  0  0  0
  7  9  1  0  0  0  0
  8 12  1  0  0  0  0
  9 10  2  0  0  0  0
  9 11  1  0  0  0  0
 10 13  1  0  0  0  0
 10 12  1  0  0  0  0
 11 14  2  0  0  0  0
 13 15  2  0  0  0  0
 14 15  1  0  0  0  0
M  END
>  <CHROM.1>
-33.70842860,58.34895438,98.39159247,7.44622731,3.25214761,82.83461507,-0.86721256
-1.21585772,-2.70009678

>  <Name>
ligand

>  <RI>
0

>  <Rbt.Current_Directory>
/home/itssahil/PROJECTS/Mol_Feturizer/Test_systems_manuscript/rnas/5kpy

>  <Rbt.Executable>
rbdock ($Id: //depot/dev/client3/rdock/2013.1/src/exe/rbdock.cxx#4 $)

>  <Rbt.Library>
libRbt.so (2013.1, Build901 2013/11/27)

>  <Rbt.Parameter_File>
/export/apps/rDock/src/rDock_2013.1_src/data/scripts/dock_solv.prm

>  <Rbt.Receptor>
prm/pocket_docking_4.prm

>  <SCORE>
-20.7548

>  <SCORE.INTER>
-20.0686

>  <SCORE.INTER.CONST>
1

>  <SCORE.INTER.POLAR>
0

>  <SCORE.INTER.ROT>
3

>  <SCORE.INTER.SOLV>
7.09059

>  <SCORE.INTER.VDW>
-21.3426

>  <SCORE.INTER.norm>
-1.25429

>  <SCORE.INTRA>
-0.686195

>  <SCORE.INTRA.DIHEDRAL>
-0.072154

>  <SCORE.INTRA.DIHEDRAL.0>
3.89056

>  <SCORE.INTRA.POLAR>
0

>  <SCORE.INTRA.POLAR.0>
0

>  <SCORE.INTRA.REPUL>
0

>  <SCORE.INTRA.REPUL.0>
0

>  <SCORE.INTRA.SOLV>
0.372663

>  <SCORE.INTRA.SOLV.lig_0>
-20.733

>  <SCORE.INTRA.VDW>
-0.836449

>  <SCORE.INTRA.VDW.0>
-0.828515

>  <SCORE.INTRA.norm>
-0.0428872

>  <SCORE.RESTR>
0

>  <SCORE.RESTR.CAVITY>
0

>  <SCORE.RESTR.norm>
0

>  <SCORE.SYSTEM>
0

>  <SCORE.SYSTEM.CONST>
0

>  <SCORE.SYSTEM.DIHEDRAL>
0

>  <SCORE.SYSTEM.SOLV>
0

>  <SCORE.SYSTEM.norm>
0

>  <SCORE.heavy>
16

>  <SCORE.norm>
-1.29717

>  <RMSD>
2.815

$$$$
ligand
 OpenBabel02271912153D
libRbt.so/2013.1/901 2013/11/27
 16 17  0  0  0  0  0  0  0  0999 V2000
    8.6162    3.7686   80.9005 N   0  0  0  0  0  0  0  0  0  0  0  0
    7.8754    4.9710   81.0802 C   0  0  2  0  0  0  0  0  0  0  0  0
    8.6104    5.9597   81.9415 C   0  0  0  0  0  0  0  0  0  0  0  0
    9.3664    5.5397   82.8511 O   0  0  0  0  0  0  0  0  0  0  0  0
    7.1926   -0.8712   81.8126 O   0  0  0  0  0  0  0  0  0  0  0  0
    6.5287    4.6827   81.6993 C   0  0  0  0  0  0  0  0  0  0  0  0
    6.6256    3.9726   83.0286 C   0  0  0  0  0  0  0  0  0  0  0  0
    6.5499    4.5569   84.2290 C   0  0  0  0  0  0  0  0  0  0  0  0
    6.7840    2.5502   83.0954 C   0  0  0  0  0  0  0  0  0  0  0  0
    6.8037    2.2685   84.4888 C   0  0  0  0  0  0  0  0  0  0  0  0
    6.8984    1.5278   82.1940 C   0  0  0  0  0  0  0  0  0  0  0  0
    6.6579    3.5327   85.1000 N   0  0  0  0  0  0  0  0  0  0  0  0
    6.9403    1.0294   84.9856 C   0  0  0  0  0  0  0  0  0  0  0  0
    7.0576    0.2024   82.7026 C   0  0  0  0  0  0  0  0  0  0  0  0
    7.0850   -0.0576   84.1184 C   0  0  0  0  0  0  0  0  0  0  0  0
    8.4528    7.1852   81.7585 O   0  0  0  0  0  0  0  0  0  0  0  0
  2  1  1  1  0  0  0
  2  3  1  0  0  0  0
  2  6  1  0  0  0  0
  3  4  1  0  0  0  0
  3 16  1  0  0  0  0
  5 14  1  0  0  0  0
  6  7  1  0  0  0  0
  7  8  2  0  0  0  0
  7  9  1  0  0  0  0
  8 12  1  0  0  0  0
  9 10  2  0  0  0  0
  9 11  1  0  0  0  0
 10 13  1  0  0  0  0
 10 12  1  0  0  0  0
 11 14  2  0  0  0  0
 13 15  2  0  0  0  0
 14 15  1  0  0  0  0
M  END
>  <CHROM.1>
-31.80570828,57.73565347,98.18004259,7.43135460,3.25200336,82.81516992,-0.86835183
-1.20836582,-2.71043784

>  <Name>
ligand

>  <RI>
0

>  <Rbt.Current_Directory>
/home/itssahil/PROJECTS/Mol_Feturizer/Test_systems_manuscript/rnas/5kpy

>  <Rbt.Executable>
rbdock ($Id: //depot/dev/client3/rdock/2013.1/src/exe/rbdock.cxx#4 $)

>  <Rbt.Library>
libRbt.so (2013.1, Build901 2013/11/27)

>  <Rbt.Parameter_File>
/export/apps/rDock/src/rDock_2013.1_src/data/scripts/dock_solv.prm

>  <Rbt.Receptor>
prm/pocket_docking_6.prm

>  <SCORE>
-20.7419

>  <SCORE.INTER>
-20.0746

>  <SCORE.INTER.CONST>
1

>  <SCORE.INTER.POLAR>
0

>  <SCORE.INTER.ROT>
3

>  <SCORE.INTER.SOLV>
7.09485

>  <SCORE.INTER.VDW>
-21.348

>  <SCORE.INTER.norm>
-1.25466

>  <SCORE.INTRA>
-0.667337

>  <SCORE.INTRA.DIHEDRAL>
-0.0616416

>  <SCORE.INTRA.DIHEDRAL.0>
3.89056

>  <SCORE.INTRA.POLAR>
0

>  <SCORE.INTRA.POLAR.0>
0

>  <SCORE.INTRA.REPUL>
0

>  <SCORE.INTRA.REPUL.0>
0

>  <SCORE.INTRA.SOLV>
0.377471

>  <SCORE.INTRA.SOLV.lig_0>
-20.733

>  <SCORE.INTRA.VDW>
-0.825252

>  <SCORE.INTRA.VDW.0>
-0.828515

>  <SCORE.INTRA.norm>
-0.0417086

>  <SCORE.RESTR>
0

>  <SCORE.RESTR.CAVITY>
0

>  <SCORE.RESTR.norm>
0

>  <SCORE.SYSTEM>
0

>  <SCORE.SYSTEM.CONST>
0

>  <SCORE.SYSTEM.DIHEDRAL>
0

>  <SCORE.SYSTEM.SOLV>
0

>  <SCORE.SYSTEM.norm>
0

>  <SCORE.heavy>
16

>  <SCORE.norm>
-1.29637

>  <RMSD>
2.840

$$$$
ligand
 OpenBabel02271912153D
libRbt.so/2013.1/901 2013/11/27
 16 17  0  0  0  0  0  0  0  0999 V2000
    7.8546    6.7768   83.0333 N   0  0  0  0  0  0  0  0  0  0  0  0
    7.5753    5.4696   82.5433 C   0  0  2  0  0  0  0  0  0  0  0  0
    7.4693    5.4428   81.0441 C   0  0  0  0  0  0  0  0  0  0  0  0
    6.8250    6.3461   80.4574 O   0  0  0  0  0  0  0  0  0  0  0  0
    7.2632   -0.2092   81.1703 O   0  0  0  0  0  0  0  0  0  0  0  0
    6.2937    4.9373   83.1382 C   0  0  0  0  0  0  0  0  0  0  0  0
    6.5155    3.8005   84.1073 C   0  0  0  0  0  0  0  0  0  0  0  0
    6.4870    3.8992   85.4405 C   0  0  0  0  0  0  0  0  0  0  0  0
    6.7548    2.4678   83.6388 C   0  0  0  0  0  0  0  0  0  0  0  0
    6.8807    1.6994   84.8284 C   0  0  0  0  0  0  0  0  0  0  0  0
    6.8652    1.8563   82.4203 C   0  0  0  0  0  0  0  0  0  0  0  0
    6.7070    2.6389   85.8677 N   0  0  0  0  0  0  0  0  0  0  0  0
    7.1164    0.3783   84.8277 C   0  0  0  0  0  0  0  0  0  0  0  0
    7.1287    0.4525   82.3979 C   0  0  0  0  0  0  0  0  0  0  0  0
    7.2628   -0.3034   83.6159 C   0  0  0  0  0  0  0  0  0  0  0  0
    8.0056    4.5189   80.3968 O   0  0  0  0  0  0  0  0  0  0  0  0
  2  1  1  1  0  0  0
  2  3  1  0  0  0  0
  2  6  1  0  0  0  0
  3  4  1  0  0  0  0
  3 16  1  0  0  0  0
  5 14  1  0  0  0  0
  6  7  1  0  0  0  0
  7  8  2  0  0  0  0
  7  9  1  0  0  0  0
  8 12  1  0  0  0  0
  9 10  2  0  0  0  0
  9 11  1  0  0  0  0
 10 13  1  0  0  0  0
 10 12  1  0  0  0  0
 11 14  2  0  0  0  0
 13 15  2  0  0  0  0
 14 15  1  0  0  0  0
M  END
>  <CHROM.1>
-43.97254085,-110.57246789,102.05995167,7.07912435,3.21738995,82.94757417
1.20203363,1.41489146,-0.01311463

>  <Name>
ligand

>  <RI>
0

>  <Rbt.Current_Directory>
/home/itssahil/PROJECTS/Mol_Feturizer/Test_systems_manuscript/rnas/5kpy

>  <Rbt.Executable>
rbdock ($Id: //depot/dev/client3/rdock/2013.1/src/exe/rbdock.cxx#4 $)

>  <Rbt.Library>
libRbt.so (2013.1, Build901 2013/11/27)

>  <Rbt.Parameter_File>
/export/apps/rDock/src/rDock_2013.1_src/data/scripts/dock_solv.prm

>  <Rbt.Receptor>
prm/pocket_docking_6.prm

>  <SCORE>
-19.0174

>  <SCORE.INTER>
-20.7372

>  <SCORE.INTER.CONST>
1

>  <SCORE.INTER.POLAR>
0

>  <SCORE.INTER.ROT>
3

>  <SCORE.INTER.SOLV>
6.24886

>  <SCORE.INTER.VDW>
-21.5077

>  <SCORE.INTER.norm>
-1.29607

>  <SCORE.INTRA>
1.71971

>  <SCORE.INTRA.DIHEDRAL>
5.38837

>  <SCORE.INTRA.DIHEDRAL.0>
3.89056

>  <SCORE.INTRA.POLAR>
0

>  <SCORE.INTRA.POLAR.0>
0

>  <SCORE.INTRA.REPUL>
0

>  <SCORE.INTRA.REPUL.0>
0

>  <SCORE.INTRA.SOLV>
-0.967979

>  <SCORE.INTRA.SOLV.lig_0>
-20.733

>  <SCORE.INTRA.VDW>
-0.490487

>  <SCORE.INTRA.VDW.0>
-0.828515

>  <SCORE.INTRA.norm>
0.107482

>  <SCORE.RESTR>
0

>  <SCORE.RESTR.CAVITY>
0

>  <SCORE.RESTR.norm>
0

>  <SCORE.SYSTEM>
0

>  <SCORE.SYSTEM.CONST>
0

>  <SCORE.SYSTEM.DIHEDRAL>
0

>  <SCORE.SYSTEM.SOLV>
0

>  <SCORE.SYSTEM.norm>
0

>  <SCORE.heavy>
16

>  <SCORE.norm>
-1.18859

>  <RMSD>
2.848

$$$$
ligand
 OpenBabel02271912153D
libRbt.so/2013.1/901 2013/11/27
 16 17  0  0  0  0  0  0  0  0999 V2000
    8.2981    4.8319   82.0519 N   0  0  0  0  0  0  0  0  0  0  0  0
    6.8789    4.7702   81.9569 C   0  0  2  0  0  0  0  0  0  0  0  0
    6.3318    5.8232   81.0341 C   0  0  0  0  0  0  0  0  0  0  0  0
    7.1258    6.5107   80.3469 O   0  0  0  0  0  0  0  0  0  0  0  0
    7.1745   -0.1283   81.1123 O   0  0  0  0  0  0  0  0  0  0  0  0
    6.2439    4.9284   83.3177 C   0  0  0  0  0  0  0  0  0  0  0  0
    6.4984    3.7538   84.2323 C   0  0  0  0  0  0  0  0  0  0  0  0
    6.5085    3.7976   85.5687 C   0  0  0  0  0  0  0  0  0  0  0  0
    6.7287    2.4426   83.7026 C   0  0  0  0  0  0  0  0  0  0  0  0
    6.8923    1.6268   84.8554 C   0  0  0  0  0  0  0  0  0  0  0  0
    6.8057    1.8822   82.4573 C   0  0  0  0  0  0  0  0  0  0  0  0
    6.7457    2.5220   85.9371 N   0  0  0  0  0  0  0  0  0  0  0  0
    7.1328    0.3080   84.7935 C   0  0  0  0  0  0  0  0  0  0  0  0
    7.0736    0.4818   82.3694 C   0  0  0  0  0  0  0  0  0  0  0  0
    7.2461   -0.3227   83.5509 C   0  0  0  0  0  0  0  0  0  0  0  0
    5.0996    6.0173   80.9695 O   0  0  0  0  0  0  0  0  0  0  0  0
  2  1  1  1  0  0  0
  2  3  1  0  0  0  0
  2  6  1  0  0  0  0
  3  4  1  0  0  0  0
  3 16  1  0  0  0  0
  5 14  1  0  0  0  0
  6  7  1  0  0  0  0
  7  8  2  0  0  0  0
  7  9  1  0  0  0  0
  8 12  1  0  0  0  0
  9 10  2  0  0  0  0
  9 11  1  0  0  0  0
 10 13  1  0  0  0  0
 10 12  1  0  0  0  0
 11 14  2  0  0  0  0
 13 15  2  0  0  0  0
 14 15  1  0  0  0  0
M  END
>  <CHROM.1>
8.20505960,-68.56496533,153.96672836,6.78894920,3.17473393,82.90729892,-2.24791008
-1.42315983,1.99434328

>  <Name>
ligand

>  <RI>
0

>  <Rbt.Current_Directory>
/home/itssahil/PROJECTS/Mol_Feturizer/Test_systems_manuscript/rnas/5kpy

>  <Rbt.Executable>
rbdock ($Id: //depot/dev/client3/rdock/2013.1/src/exe/rbdock.cxx#4 $)

>  <Rbt.Library>
libRbt.so (2013.1, Build901 2013/11/27)

>  <Rbt.Parameter_File>
/export/apps/rDock/src/rDock_2013.1_src/data/scripts/dock_solv.prm

>  <Rbt.Receptor>
prm/pocket_docking_5.prm

>  <SCORE>
-21.0959

>  <SCORE.INTER>
-22.0101

>  <SCORE.INTER.CONST>
1

>  <SCORE.INTER.POLAR>
0

>  <SCORE.INTER.ROT>
3

>  <SCORE.INTER.SOLV>
7.18242

>  <SCORE.INTER.VDW>
-22.6675

>  <SCORE.INTER.norm>
-1.37563

>  <SCORE.INTRA>
0.914179

>  <SCORE.INTRA.DIHEDRAL>
0.0977586

>  <SCORE.INTRA.DIHEDRAL.0>
3.89056

>  <SCORE.INTRA.POLAR>
0

>  <SCORE.INTRA.POLAR.0>
0

>  <SCORE.INTRA.REPUL>
0

>  <SCORE.INTRA.REPUL.0>
0

>  <SCORE.INTRA.SOLV>
0.115792

>  <SCORE.INTRA.SOLV.lig_0>
-20.733

>  <SCORE.INTRA.VDW>
0.807403

>  <SCORE.INTRA.VDW.0>
-0.828515

>  <SCORE.INTRA.norm>
0.0571362

>  <SCORE.RESTR>
0

>  <SCORE.RESTR.CAVITY>
0

>  <SCORE.RESTR.norm>
0

>  <SCORE.SYSTEM>
0

>  <SCORE.SYSTEM.CONST>
0

>  <SCORE.SYSTEM.DIHEDRAL>
0

>  <SCORE.SYSTEM.SOLV>
0

>  <SCORE.SYSTEM.norm>
0

>  <SCORE.heavy>
16

>  <SCORE.norm>
-1.31849

>  <RMSD>
2.851

$$$$
ligand
 OpenBabel02271912153D
libRbt.so/2013.1/901 2013/11/27
 16 17  0  0  0  0  0  0  0  0999 V2000
    8.6534    3.7553   80.8506 N   0  0  0  0  0  0  0  0  0  0  0  0
    7.9350    4.9663   81.0610 C   0  0  2  0  0  0  0  0  0  0  0  0
    8.7091    5.9384   81.9069 C   0  0  0  0  0  0  0  0  0  0  0  0
    9.4949    5.5010   82.7824 O   0  0  0  0  0  0  0  0  0  0  0  0
    7.1182   -0.8785   81.7976 O   0  0  0  0  0  0  0  0  0  0  0  0
    6.6036    4.6918   81.7180 C   0  0  0  0  0  0  0  0  0  0  0  0
    6.7305    3.9758   83.0416 C   0  0  0  0  0  0  0  0  0  0  0  0
    6.7159    4.5589   84.2449 C   0  0  0  0  0  0  0  0  0  0  0  0
    6.8522    2.5494   83.1002 C   0  0  0  0  0  0  0  0  0  0  0  0
    6.9161    2.2637   84.4914 C   0  0  0  0  0  0  0  0  0  0  0  0
    6.9046    1.5266   82.1936 C   0  0  0  0  0  0  0  0  0  0  0  0
    6.8282    3.5298   85.1096 N   0  0  0  0  0  0  0  0  0  0  0  0
    7.0371    1.0201   84.9808 C   0  0  0  0  0  0  0  0  0  0  0  0
    7.0461    0.1960   82.6937 C   0  0  0  0  0  0  0  0  0  0  0  0
    7.1194   -0.0683   84.1071 C   0  0  0  0  0  0  0  0  0  0  0  0
    8.5544    7.1673   81.7455 O   0  0  0  0  0  0  0  0  0  0  0  0
  2  1  1  1  0  0  0
  2  3  1  0  0  0  0
  2  6  1  0  0  0  0
  3  4  1  0  0  0  0
  3 16  1  0  0  0  0
  5 14  1  0  0  0  0
  6  7  1  0  0  0  0
  7  8  2  0  0  0  0
  7  9  1  0  0  0  0
  8 12  1  0  0  0  0
  9 10  2  0  0  0  0
  9 11  1  0  0  0  0
 10 13  1  0  0  0  0
 10 12  1  0  0  0  0
 11 14  2  0  0  0  0
 13 15  2  0  0  0  0
 14 15  1  0  0  0  0
M  END
>  <CHROM.1>
-31.18006068,57.99007670,97.16350797,7.50402917,3.24360808,82.80388903,-0.75230444
-1.23136086,-2.59373588

>  <Name>
ligand

>  <RI>
0

>  <Rbt.Current_Directory>
/home/itssahil/PROJECTS/Mol_Feturizer/Test_systems_manuscript/rnas/5kpy

>  <Rbt.Executable>
rbdock ($Id: //depot/dev/client3/rdock/2013.1/src/exe/rbdock.cxx#4 $)

>  <Rbt.Library>
libRbt.so (2013.1, Build901 2013/11/27)

>  <Rbt.Parameter_File>
/export/apps/rDock/src/rDock_2013.1_src/data/scripts/dock_solv.prm

>  <Rbt.Receptor>
prm/pocket_docking_6.prm

>  <SCORE>
-20.7892

>  <SCORE.INTER>
-20.109

>  <SCORE.INTER.CONST>
1

>  <SCORE.INTER.POLAR>
0

>  <SCORE.INTER.ROT>
3

>  <SCORE.INTER.SOLV>
7.22543

>  <SCORE.INTER.VDW>
-21.4145

>  <SCORE.INTER.norm>
-1.25681

>  <SCORE.INTRA>
-0.680256

>  <SCORE.INTRA.DIHEDRAL>
-0.0648715

>  <SCORE.INTRA.DIHEDRAL.0>
3.89056

>  <SCORE.INTRA.POLAR>
0

>  <SCORE.INTRA.POLAR.0>
0

>  <SCORE.INTRA.REPUL>
0

>  <SCORE.INTRA.REPUL.0>
0

>  <SCORE.INTRA.SOLV>
0.354603

>  <SCORE.INTRA.SOLV.lig_0>
-20.733

>  <SCORE.INTRA.VDW>
-0.825122

>  <SCORE.INTRA.VDW.0>
-0.828515

>  <SCORE.INTRA.norm>
-0.042516

>  <SCORE.RESTR>
0

>  <SCORE.RESTR.CAVITY>
0

>  <SCORE.RESTR.norm>
0

>  <SCORE.SYSTEM>
0

>  <SCORE.SYSTEM.CONST>
0

>  <SCORE.SYSTEM.DIHEDRAL>
0

>  <SCORE.SYSTEM.SOLV>
0

>  <SCORE.SYSTEM.norm>
0

>  <SCORE.heavy>
16

>  <SCORE.norm>
-1.29933

>  <RMSD>
2.870

$$$$
ligand
 OpenBabel02271912153D
libRbt.so/2013.1/901 2013/11/27
 16 17  0  0  0  0  0  0  0  0999 V2000
    8.2998    4.8504   82.0487 N   0  0  0  0  0  0  0  0  0  0  0  0
    6.8830    4.7868   81.9230 C   0  0  2  0  0  0  0  0  0  0  0  0
    6.3551    5.8363   80.9850 C   0  0  0  0  0  0  0  0  0  0  0  0
    7.1633    6.5235   80.3143 O   0  0  0  0  0  0  0  0  0  0  0  0
    7.2005   -0.1329   81.1444 O   0  0  0  0  0  0  0  0  0  0  0  0
    6.2183    4.9486   83.2689 C   0  0  0  0  0  0  0  0  0  0  0  0
    6.4766    3.7898   84.2024 C   0  0  0  0  0  0  0  0  0  0  0  0
    6.4788    3.8535   85.5380 C   0  0  0  0  0  0  0  0  0  0  0  0
    6.7201    2.4727   83.6936 C   0  0  0  0  0  0  0  0  0  0  0  0
    6.8835    1.6754   84.8593 C   0  0  0  0  0  0  0  0  0  0  0  0
    6.8084    1.8944   82.4572 C   0  0  0  0  0  0  0  0  0  0  0  0
    6.7238    2.5854   85.9267 N   0  0  0  0  0  0  0  0  0  0  0  0
    7.1345    0.3578   84.8185 C   0  0  0  0  0  0  0  0  0  0  0  0
    7.0878    0.4950   82.3918 C   0  0  0  0  0  0  0  0  0  0  0  0
    7.2598   -0.2904   83.5861 C   0  0  0  0  0  0  0  0  0  0  0  0
    5.1244    6.0277   80.8916 O   0  0  0  0  0  0  0  0  0  0  0  0
  2  1  1  1  0  0  0
  2  3  1  0  0  0  0
  2  6  1  0  0  0  0
  3  4  1  0  0  0  0
  3 16  1  0  0  0  0
  5 14  1  0  0  0  0
  6  7  1  0  0  0  0
  7  8  2  0  0  0  0
  7  9  1  0  0  0  0
  8 12  1  0  0  0  0
  9 10  2  0  0  0  0
  9 11  1  0  0  0  0
 10 13  1  0  0  0  0
 10 12  1  0  0  0  0
 11 14  2  0  0  0  0
 13 15  2  0  0  0  0
 14 15  1  0  0  0  0
M  END
>  <CHROM.1>
8.11991303,-67.42050100,152.91757119,6.79207664,3.20050239,82.89329635,-2.19654618
-1.41719957,2.03611557

>  <Name>
ligand

>  <RI>
0

>  <Rbt.Current_Directory>
/home/itssahil/PROJECTS/Mol_Feturizer/Test_systems_manuscript/rnas/5kpy

>  <Rbt.Executable>
rbdock ($Id: //depot/dev/client3/rdock/2013.1/src/exe/rbdock.cxx#4 $)

>  <Rbt.Library>
libRbt.so (2013.1, Build901 2013/11/27)

>  <Rbt.Parameter_File>
/export/apps/rDock/src/rDock_2013.1_src/data/scripts/dock_solv.prm

>  <Rbt.Receptor>
prm/pocket_docking_5.prm

>  <SCORE>
-21.0962

>  <SCORE.INTER>
-21.9623

>  <SCORE.INTER.CONST>
1

>  <SCORE.INTER.POLAR>
0

>  <SCORE.INTER.ROT>
3

>  <SCORE.INTER.SOLV>
7.19984

>  <SCORE.INTER.VDW>
-22.6415

>  <SCORE.INTER.norm>
-1.37264

>  <SCORE.INTRA>
0.866137

>  <SCORE.INTRA.DIHEDRAL>
0.0244322

>  <SCORE.INTRA.DIHEDRAL.0>
3.89056

>  <SCORE.INTRA.POLAR>
0

>  <SCORE.INTRA.POLAR.0>
0

>  <SCORE.INTRA.REPUL>
0

>  <SCORE.INTRA.REPUL.0>
0

>  <SCORE.INTRA.SOLV>
0.122362

>  <SCORE.INTRA.SOLV.lig_0>
-20.733

>  <SCORE.INTRA.VDW>
0.792739

>  <SCORE.INTRA.VDW.0>
-0.828515

>  <SCORE.INTRA.norm>
0.0541335

>  <SCORE.RESTR>
0

>  <SCORE.RESTR.CAVITY>
0

>  <SCORE.RESTR.norm>
0

>  <SCORE.SYSTEM>
0

>  <SCORE.SYSTEM.CONST>
0

>  <SCORE.SYSTEM.DIHEDRAL>
0

>  <SCORE.SYSTEM.SOLV>
0

>  <SCORE.SYSTEM.norm>
0

>  <SCORE.heavy>
16

>  <SCORE.norm>
-1.31851

>  <RMSD>
2.872

$$$$
ligand
 OpenBabel02271912153D
libRbt.so/2013.1/901 2013/11/27
 16 17  0  0  0  0  0  0  0  0999 V2000
    8.6862    3.7817   80.8394 N   0  0  0  0  0  0  0  0  0  0  0  0
    7.9507    4.9810   81.0583 C   0  0  2  0  0  0  0  0  0  0  0  0
    8.7064    5.9534   81.9204 C   0  0  0  0  0  0  0  0  0  0  0  0
    8.5601    7.1854   81.7305 O   0  0  0  0  0  0  0  0  0  0  0  0
    7.1026   -0.8907   81.8056 O   0  0  0  0  0  0  0  0  0  0  0  0
    6.6185    4.6819   81.7029 C   0  0  0  0  0  0  0  0  0  0  0  0
    6.7463    3.9712   83.0293 C   0  0  0  0  0  0  0  0  0  0  0  0
    6.7393    4.5597   84.2299 C   0  0  0  0  0  0  0  0  0  0  0  0
    6.8603    2.5444   83.0937 C   0  0  0  0  0  0  0  0  0  0  0  0
    6.9278    2.2646   84.4860 C   0  0  0  0  0  0  0  0  0  0  0  0
    6.9038    1.5173   82.1916 C   0  0  0  0  0  0  0  0  0  0  0  0
    6.8491    3.5339   85.0989 N   0  0  0  0  0  0  0  0  0  0  0  0
    7.0437    1.0225   84.9806 C   0  0  0  0  0  0  0  0  0  0  0  0
    7.0398    0.1882   82.6972 C   0  0  0  0  0  0  0  0  0  0  0  0
    7.1167   -0.0702   84.1114 C   0  0  0  0  0  0  0  0  0  0  0  0
    9.4824    5.5320   82.8038 O   0  0  0  0  0  0  0  0  0  0  0  0
  2  1  1  1  0  0  0
  2  3  1  0  0  0  0
  2  6  1  0  0  0  0
  3  4  1  0  0  0  0
  3 16  1  0  0  0  0
  5 14  1  0  0  0  0
  6  7  1  0  0  0  0
  7  8  2  0  0  0  0
  7  9  1  0  0  0  0
  8 12  1  0  0  0  0
  9 10  2  0  0  0  0
  9 11  1  0  0  0  0
 10 13  1  0  0  0  0
 10 12  1  0  0  0  0
 11 14  2  0  0  0  0
 13 15  2  0  0  0  0
 14 15  1  0  0  0  0
M  END
>  <CHROM.1>
147.33321872,58.85276881,95.53440917,7.51085853,3.24812608,82.80120598,-0.73067725
-1.23676135,-2.57034692

>  <Name>
ligand

>  <RI>
0

>  <Rbt.Current_Directory>
/home/itssahil/PROJECTS/Mol_Feturizer/Test_systems_manuscript/rnas/5kpy

>  <Rbt.Executable>
rbdock ($Id: //depot/dev/client3/rdock/2013.1/src/exe/rbdock.cxx#4 $)

>  <Rbt.Library>
libRbt.so (2013.1, Build901 2013/11/27)

>  <Rbt.Parameter_File>
/export/apps/rDock/src/rDock_2013.1_src/data/scripts/dock_solv.prm

>  <Rbt.Receptor>
prm/pocket_docking_4.prm

>  <SCORE>
-20.762

>  <SCORE.INTER>
-20.0695

>  <SCORE.INTER.CONST>
1

>  <SCORE.INTER.POLAR>
0

>  <SCORE.INTER.ROT>
3

>  <SCORE.INTER.SOLV>
7.29713

>  <SCORE.INTER.VDW>
-21.4121

>  <SCORE.INTER.norm>
-1.25435

>  <SCORE.INTRA>
-0.692489

>  <SCORE.INTRA.DIHEDRAL>
-0.0107821

>  <SCORE.INTRA.DIHEDRAL.0>
3.89056

>  <SCORE.INTRA.POLAR>
0

>  <SCORE.INTRA.POLAR.0>
0

>  <SCORE.INTRA.REPUL>
0

>  <SCORE.INTRA.REPUL.0>
0

>  <SCORE.INTRA.SOLV>
0.306976

>  <SCORE.INTRA.SOLV.lig_0>
-20.733

>  <SCORE.INTRA.VDW>
-0.840586

>  <SCORE.INTRA.VDW.0>
-0.828515

>  <SCORE.INTRA.norm>
-0.0432805

>  <SCORE.RESTR>
0

>  <SCORE.RESTR.CAVITY>
0

>  <SCORE.RESTR.norm>
0

>  <SCORE.SYSTEM>
0

>  <SCORE.SYSTEM.CONST>
0

>  <SCORE.SYSTEM.DIHEDRAL>
0

>  <SCORE.SYSTEM.SOLV>
0

>  <SCORE.SYSTEM.norm>
0

>  <SCORE.heavy>
16

>  <SCORE.norm>
-1.29763

>  <RMSD>
2.873

$$$$
ligand
 OpenBabel02271912153D
libRbt.so/2013.1/901 2013/11/27
 16 17  0  0  0  0  0  0  0  0999 V2000
    8.2805    4.8360   82.0201 N   0  0  0  0  0  0  0  0  0  0  0  0
    6.8603    4.7603   81.9531 C   0  0  2  0  0  0  0  0  0  0  0  0
    6.2867    5.7902   81.0204 C   0  0  0  0  0  0  0  0  0  0  0  0
    5.0408    5.9163   80.9354 O   0  0  0  0  0  0  0  0  0  0  0  0
    7.1859   -0.1373   81.1667 O   0  0  0  0  0  0  0  0  0  0  0  0
    6.2494    4.9397   83.3222 C   0  0  0  0  0  0  0  0  0  0  0  0
    6.5140    3.7763   84.2481 C   0  0  0  0  0  0  0  0  0  0  0  0
    6.5322    3.8348   85.5838 C   0  0  0  0  0  0  0  0  0  0  0  0
    6.7462    2.4602   83.7314 C   0  0  0  0  0  0  0  0  0  0  0  0
    6.9199    1.6578   84.8920 C   0  0  0  0  0  0  0  0  0  0  0  0
    6.8176    1.8864   82.4919 C   0  0  0  0  0  0  0  0  0  0  0  0
    6.7765    2.5642   85.9647 N   0  0  0  0  0  0  0  0  0  0  0  0
    7.1652    0.3393   84.8432 C   0  0  0  0  0  0  0  0  0  0  0  0
    7.0904    0.4861   82.4177 C   0  0  0  0  0  0  0  0  0  0  0  0
    7.2732   -0.3046   83.6069 C   0  0  0  0  0  0  0  0  0  0  0  0
    7.0480    6.4983   80.3282 O   0  0  0  0  0  0  0  0  0  0  0  0
  2  1  1  1  0  0  0
  2  3  1  0  0  0  0
  2  6  1  0  0  0  0
  3  4  1  0  0  0  0
  3 16  1  0  0  0  0
  5 14  1  0  0  0  0
  6  7  1  0  0  0  0
  7  8  2  0  0  0  0
  7  9  1  0  0  0  0
  8 12  1  0  0  0  0
  9 10  2  0  0  0  0
  9 11  1  0  0  0  0
 10 13  1  0  0  0  0
 10 12  1  0  0  0  0
 11 14  2  0  0  0  0
 13 15  2  0  0  0  0
 14 15  1  0  0  0  0
M  END
>  <CHROM.1>
-174.50488503,-69.42246278,154.77273201,6.78679605,3.17624508,82.92263199
-2.35084669,-1.42197869,1.87525237

>  <Name>
ligand

>  <RI>
0

>  <Rbt.Current_Directory>
/home/itssahil/PROJECTS/Mol_Feturizer/Test_systems_manuscript/rnas/5kpy

>  <Rbt.Executable>
rbdock ($Id: //depot/dev/client3/rdock/2013.1/src/exe/rbdock.cxx#4 $)

>  <Rbt.Library>
libRbt.so (2013.1, Build901 2013/11/27)

>  <Rbt.Parameter_File>
/export/apps/rDock/src/rDock_2013.1_src/data/scripts/dock_solv.prm

>  <Rbt.Receptor>
prm/pocket_docking_5.prm

>  <SCORE>
-21.2063

>  <SCORE.INTER>
-22.0926

>  <SCORE.INTER.CONST>
1

>  <SCORE.INTER.POLAR>
0

>  <SCORE.INTER.ROT>
3

>  <SCORE.INTER.SOLV>
7.17211

>  <SCORE.INTER.VDW>
-22.7191

>  <SCORE.INTER.norm>
-1.38079

>  <SCORE.INTRA>
0.886351

>  <SCORE.INTRA.DIHEDRAL>
0.136444

>  <SCORE.INTRA.DIHEDRAL.0>
3.89056

>  <SCORE.INTRA.POLAR>
0

>  <SCORE.INTRA.POLAR.0>
0

>  <SCORE.INTRA.REPUL>
0

>  <SCORE.INTRA.REPUL.0>
0

>  <SCORE.INTRA.SOLV>
0.104268

>  <SCORE.INTRA.SOLV.lig_0>
-20.733

>  <SCORE.INTRA.VDW>
0.765995

>  <SCORE.INTRA.VDW.0>
-0.828515

>  <SCORE.INTRA.norm>
0.0553969

>  <SCORE.RESTR>
0

>  <SCORE.RESTR.CAVITY>
0

>  <SCORE.RESTR.norm>
0

>  <SCORE.SYSTEM>
0

>  <SCORE.SYSTEM.CONST>
0

>  <SCORE.SYSTEM.DIHEDRAL>
0

>  <SCORE.SYSTEM.SOLV>
0

>  <SCORE.SYSTEM.norm>
0

>  <SCORE.heavy>
16

>  <SCORE.norm>
-1.32539

>  <RMSD>
2.874

$$$$
ligand
 OpenBabel02271912153D
libRbt.so/2013.1/901 2013/11/27
 16 17  0  0  0  0  0  0  0  0999 V2000
    8.7243    3.7996   80.8237 N   0  0  0  0  0  0  0  0  0  0  0  0
    7.9954    5.0035   81.0385 C   0  0  2  0  0  0  0  0  0  0  0  0
    8.7387    5.9581   81.9307 C   0  0  0  0  0  0  0  0  0  0  0  0
    8.5736    7.1934   81.7821 O   0  0  0  0  0  0  0  0  0  0  0  0
    7.1601   -0.8579   81.8105 O   0  0  0  0  0  0  0  0  0  0  0  0
    6.6446    4.7104   81.6461 C   0  0  0  0  0  0  0  0  0  0  0  0
    6.7329    4.0112   82.9817 C   0  0  0  0  0  0  0  0  0  0  0  0
    6.6824    4.6092   84.1767 C   0  0  0  0  0  0  0  0  0  0  0  0
    6.8536    2.5857   83.0617 C   0  0  0  0  0  0  0  0  0  0  0  0
    6.8767    2.3175   84.4577 C   0  0  0  0  0  0  0  0  0  0  0  0
    6.9335    1.5518   82.1699 C   0  0  0  0  0  0  0  0  0  0  0  0
    6.7698    3.5911   85.0571 N   0  0  0  0  0  0  0  0  0  0  0  0
    6.9840    1.0802   84.9660 C   0  0  0  0  0  0  0  0  0  0  0  0
    7.0610    0.2277   82.6906 C   0  0  0  0  0  0  0  0  0  0  0  0
    7.0926   -0.0189   84.1087 C   0  0  0  0  0  0  0  0  0  0  0  0
    9.5233    5.5194   82.7980 O   0  0  0  0  0  0  0  0  0  0  0  0
  2  1  1  1  0  0  0
  2  3  1  0  0  0  0
  2  6  1  0  0  0  0
  3  4  1  0  0  0  0
  3 16  1  0  0  0  0
  5 14  1  0  0  0  0
  6  7  1  0  0  0  0
  7  8  2  0  0  0  0
  7  9  1  0  0  0  0
  8 12  1  0  0  0  0
  9 10  2  0  0  0  0
  9 11  1  0  0  0  0
 10 13  1  0  0  0  0
 10 12  1  0  0  0  0
 11 14  2  0  0  0  0
 13 15  2  0  0  0  0
 14 15  1  0  0  0  0
M  END
>  <CHROM.1>
149.78045596,60.17338115,95.97834191,7.51377564,3.27965390,82.78506824,-0.79829889
-1.20625059,-2.64243207

>  <Name>
ligand

>  <RI>
0

>  <Rbt.Current_Directory>
/home/itssahil/PROJECTS/Mol_Feturizer/Test_systems_manuscript/rnas/5kpy

>  <Rbt.Executable>
rbdock ($Id: //depot/dev/client3/rdock/2013.1/src/exe/rbdock.cxx#4 $)

>  <Rbt.Library>
libRbt.so (2013.1, Build901 2013/11/27)

>  <Rbt.Parameter_File>
/export/apps/rDock/src/rDock_2013.1_src/data/scripts/dock_solv.prm

>  <Rbt.Receptor>
prm/pocket_docking_6.prm

>  <SCORE>
-20.7346

>  <SCORE.INTER>
-20.0589

>  <SCORE.INTER.CONST>
1

>  <SCORE.INTER.POLAR>
0

>  <SCORE.INTER.ROT>
3

>  <SCORE.INTER.SOLV>
7.28733

>  <SCORE.INTER.VDW>
-21.4017

>  <SCORE.INTER.norm>
-1.25368

>  <SCORE.INTRA>
-0.675628

>  <SCORE.INTRA.DIHEDRAL>
-0.0184339

>  <SCORE.INTRA.DIHEDRAL.0>
3.89056

>  <SCORE.INTRA.POLAR>
0

>  <SCORE.INTRA.POLAR.0>
0

>  <SCORE.INTRA.REPUL>
0

>  <SCORE.INTRA.REPUL.0>
0

>  <SCORE.INTRA.SOLV>
0.295703

>  <SCORE.INTRA.SOLV.lig_0>
-20.733

>  <SCORE.INTRA.VDW>
-0.814262

>  <SCORE.INTRA.VDW.0>
-0.828515

>  <SCORE.INTRA.norm>
-0.0422267

>  <SCORE.RESTR>
0

>  <SCORE.RESTR.CAVITY>
0

>  <SCORE.RESTR.norm>
0

>  <SCORE.SYSTEM>
0

>  <SCORE.SYSTEM.CONST>
0

>  <SCORE.SYSTEM.DIHEDRAL>
0

>  <SCORE.SYSTEM.SOLV>
0

>  <SCORE.SYSTEM.norm>
0

>  <SCORE.heavy>
16

>  <SCORE.norm>
-1.29591

>  <RMSD>
2.875

$$$$
ligand
 OpenBabel02271912153D
libRbt.so/2013.1/901 2013/11/27
 16 17  0  0  0  0  0  0  0  0999 V2000
    8.6810    3.7993   80.8365 N   0  0  0  0  0  0  0  0  0  0  0  0
    7.9329    4.9958   81.0256 C   0  0  2  0  0  0  0  0  0  0  0  0
    8.6623    5.9824   81.8941 C   0  0  0  0  0  0  0  0  0  0  0  0
    9.4315    5.5601   82.7915 O   0  0  0  0  0  0  0  0  0  0  0  0
    7.1414   -0.8694   81.8309 O   0  0  0  0  0  0  0  0  0  0  0  0
    6.5883    4.6946   81.6430 C   0  0  0  0  0  0  0  0  0  0  0  0
    6.6906    4.0025   82.9814 C   0  0  0  0  0  0  0  0  0  0  0  0
    6.6446    4.6060   84.1737 C   0  0  0  0  0  0  0  0  0  0  0  0
    6.8212    2.5783   83.0674 C   0  0  0  0  0  0  0  0  0  0  0  0
    6.8559    2.3171   84.4645 C   0  0  0  0  0  0  0  0  0  0  0  0
    6.9015    1.5405   82.1801 C   0  0  0  0  0  0  0  0  0  0  0  0
    6.7449    3.5929   85.0585 N   0  0  0  0  0  0  0  0  0  0  0  0
    6.9749    1.0830   84.9781 C   0  0  0  0  0  0  0  0  0  0  0  0
    7.0414    0.2198   82.7064 C   0  0  0  0  0  0  0  0  0  0  0  0
    7.0847   -0.0196   84.1254 C   0  0  0  0  0  0  0  0  0  0  0  0
    8.4871    7.2081   81.7291 O   0  0  0  0  0  0  0  0  0  0  0  0
  2  1  1  1  0  0  0
  2  3  1  0  0  0  0
  2  6  1  0  0  0  0
  3  4  1  0  0  0  0
  3 16  1  0  0  0  0
  5 14  1  0  0  0  0
  6  7  1  0  0  0  0
  7  8  2  0  0  0  0
  7  9  1  0  0  0  0
  8 12  1  0  0  0  0
  9 10  2  0  0  0  0
  9 11  1  0  0  0  0
 10 13  1  0  0  0  0
 10 12  1  0  0  0  0
 11 14  2  0  0  0  0
 13 15  2  0  0  0  0
 14 15  1  0  0  0  0
M  END
>  <CHROM.1>
-31.10165475,59.01726373,95.87214199,7.47089862,3.28085125,82.78360973,-0.80719863
-1.21888420,-2.65481531

>  <Name>
ligand

>  <RI>
0

>  <Rbt.Current_Directory>
/home/itssahil/PROJECTS/Mol_Feturizer/Test_systems_manuscript/rnas/5kpy

>  <Rbt.Executable>
rbdock ($Id: //depot/dev/client3/rdock/2013.1/src/exe/rbdock.cxx#4 $)

>  <Rbt.Library>
libRbt.so (2013.1, Build901 2013/11/27)

>  <Rbt.Parameter_File>
/export/apps/rDock/src/rDock_2013.1_src/data/scripts/dock_solv.prm

>  <Rbt.Receptor>
prm/pocket_docking_7.prm

>  <SCORE>
-20.7534

>  <SCORE.INTER>
-20.0427

>  <SCORE.INTER.CONST>
1

>  <SCORE.INTER.POLAR>
0

>  <SCORE.INTER.ROT>
3

>  <SCORE.INTER.SOLV>
7.2802

>  <SCORE.INTER.VDW>
-21.3885

>  <SCORE.INTER.norm>
-1.25267

>  <SCORE.INTRA>
-0.710703

>  <SCORE.INTRA.DIHEDRAL>
-0.077183

>  <SCORE.INTRA.DIHEDRAL.0>
3.89056

>  <SCORE.INTRA.POLAR>
0

>  <SCORE.INTRA.POLAR.0>
0

>  <SCORE.INTRA.REPUL>
0

>  <SCORE.INTRA.REPUL.0>
0

>  <SCORE.INTRA.SOLV>
0.311995

>  <SCORE.INTRA.SOLV.lig_0>
-20.733

>  <SCORE.INTRA.VDW>
-0.828109

>  <SCORE.INTRA.VDW.0>
-0.828515

>  <SCORE.INTRA.norm>
-0.0444189

>  <SCORE.RESTR>
0

>  <SCORE.RESTR.CAVITY>
0

>  <SCORE.RESTR.norm>
0

>  <SCORE.SYSTEM>
0

>  <SCORE.SYSTEM.CONST>
0

>  <SCORE.SYSTEM.DIHEDRAL>
0

>  <SCORE.SYSTEM.SOLV>
0

>  <SCORE.SYSTEM.norm>
0

>  <SCORE.heavy>
16

>  <SCORE.norm>
-1.29709

>  <RMSD>
2.877

$$$$
ligand
 OpenBabel02271912153D
libRbt.so/2013.1/901 2013/11/27
 16 17  0  0  0  0  0  0  0  0999 V2000
    8.2911    4.8350   82.0274 N   0  0  0  0  0  0  0  0  0  0  0  0
    6.8723    4.7732   81.9266 C   0  0  2  0  0  0  0  0  0  0  0  0
    6.3300    5.8179   80.9916 C   0  0  0  0  0  0  0  0  0  0  0  0
    5.0881    5.9748   80.8992 O   0  0  0  0  0  0  0  0  0  0  0  0
    7.2061   -0.1374   81.1557 O   0  0  0  0  0  0  0  0  0  0  0  0
    6.2312    4.9443   83.2829 C   0  0  0  0  0  0  0  0  0  0  0  0
    6.4957    3.7862   84.2155 C   0  0  0  0  0  0  0  0  0  0  0  0
    6.5053    3.8507   85.5511 C   0  0  0  0  0  0  0  0  0  0  0  0
    6.7376    2.4691   83.7061 C   0  0  0  0  0  0  0  0  0  0  0  0
    6.9080    1.6726   84.8713 C   0  0  0  0  0  0  0  0  0  0  0  0
    6.8196    1.8902   82.4696 C   0  0  0  0  0  0  0  0  0  0  0  0
    6.7534    2.5830   85.9391 N   0  0  0  0  0  0  0  0  0  0  0  0
    7.1600    0.3551   84.8298 C   0  0  0  0  0  0  0  0  0  0  0  0
    7.0998    0.4910   82.4033 C   0  0  0  0  0  0  0  0  0  0  0  0
    7.2790   -0.2936   83.5971 C   0  0  0  0  0  0  0  0  0  0  0  0
    7.1127    6.5077   80.3049 O   0  0  0  0  0  0  0  0  0  0  0  0
  2  1  1  1  0  0  0
  2  3  1  0  0  0  0
  2  6  1  0  0  0  0
  3  4  1  0  0  0  0
  3 16  1  0  0  0  0
  5 14  1  0  0  0  0
  6  7  1  0  0  0  0
  7  8  2  0  0  0  0
  7  9  1  0  0  0  0
  8 12  1  0  0  0  0
  9 10  2  0  0  0  0
  9 11  1  0  0  0  0
 10 13  1  0  0  0  0
 10 12  1  0  0  0  0
 11 14  2  0  0  0  0
 13 15  2  0  0  0  0
 14 15  1  0  0  0  0
M  END
>  <CHROM.1>
-173.07704315,-67.82253396,153.74174200,6.79492524,3.19006253,82.90047281
-2.26550965,-1.41718627,1.96224244

>  <Name>
ligand

>  <RI>
0

>  <Rbt.Current_Directory>
/home/itssahil/PROJECTS/Mol_Feturizer/Test_systems_manuscript/rnas/5kpy

>  <Rbt.Executable>
rbdock ($Id: //depot/dev/client3/rdock/2013.1/src/exe/rbdock.cxx#4 $)

>  <Rbt.Library>
libRbt.so (2013.1, Build901 2013/11/27)

>  <Rbt.Parameter_File>
/export/apps/rDock/src/rDock_2013.1_src/data/scripts/dock_solv.prm

>  <Rbt.Receptor>
prm/pocket_docking_5.prm

>  <SCORE>
-21.1298

>  <SCORE.INTER>
-21.9871

>  <SCORE.INTER.CONST>
1

>  <SCORE.INTER.POLAR>
0

>  <SCORE.INTER.ROT>
3

>  <SCORE.INTER.SOLV>
7.19487

>  <SCORE.INTER.VDW>
-22.6563

>  <SCORE.INTER.norm>
-1.37419

>  <SCORE.INTRA>
0.857313

>  <SCORE.INTRA.DIHEDRAL>
0.0246939

>  <SCORE.INTRA.DIHEDRAL.0>
3.89056

>  <SCORE.INTRA.POLAR>
0

>  <SCORE.INTRA.POLAR.0>
0

>  <SCORE.INTRA.REPUL>
0

>  <SCORE.INTRA.REPUL.0>
0

>  <SCORE.INTRA.SOLV>
0.123536

>  <SCORE.INTRA.SOLV.lig_0>
-20.733

>  <SCORE.INTRA.VDW>
0.783198

>  <SCORE.INTRA.VDW.0>
-0.828515

>  <SCORE.INTRA.norm>
0.053582

>  <SCORE.RESTR>
0

>  <SCORE.RESTR.CAVITY>
0

>  <SCORE.RESTR.norm>
0

>  <SCORE.SYSTEM>
0

>  <SCORE.SYSTEM.CONST>
0

>  <SCORE.SYSTEM.DIHEDRAL>
0

>  <SCORE.SYSTEM.SOLV>
0

>  <SCORE.SYSTEM.norm>
0

>  <SCORE.heavy>
16

>  <SCORE.norm>
-1.32061

>  <RMSD>
2.878

$$$$
ligand
 OpenBabel02271912153D
libRbt.so/2013.1/901 2013/11/27
 16 17  0  0  0  0  0  0  0  0999 V2000
    8.3580    4.9717   82.1174 N   0  0  0  0  0  0  0  0  0  0  0  0
    6.9537    4.8041   81.9535 C   0  0  2  0  0  0  0  0  0  0  0  0
    6.3782    5.8023   80.9879 C   0  0  0  0  0  0  0  0  0  0  0  0
    5.1324    5.8871   80.8614 O   0  0  0  0  0  0  0  0  0  0  0  0
    7.1185   -0.1714   81.1605 O   0  0  0  0  0  0  0  0  0  0  0  0
    6.2410    4.9319   83.2785 C   0  0  0  0  0  0  0  0  0  0  0  0
    6.5106    3.7759   84.2121 C   0  0  0  0  0  0  0  0  0  0  0  0
    6.5465    3.8472   85.5469 C   0  0  0  0  0  0  0  0  0  0  0  0
    6.7280    2.4535   83.7053 C   0  0  0  0  0  0  0  0  0  0  0  0
    6.9120    1.6612   84.8713 C   0  0  0  0  0  0  0  0  0  0  0  0
    6.7798    1.8673   82.4706 C   0  0  0  0  0  0  0  0  0  0  0  0
    6.7881    2.5788   85.9369 N   0  0  0  0  0  0  0  0  0  0  0  0
    7.1486    0.3408   84.8321 C   0  0  0  0  0  0  0  0  0  0  0  0
    7.0431    0.4647   82.4066 C   0  0  0  0  0  0  0  0  0  0  0  0
    7.2367   -0.3156   83.6009 C   0  0  0  0  0  0  0  0  0  0  0  0
    7.1388    6.5249   80.3100 O   0  0  0  0  0  0  0  0  0  0  0  0
  2  1  1  1  0  0  0
  2  3  1  0  0  0  0
  2  6  1  0  0  0  0
  3  4  1  0  0  0  0
  3 16  1  0  0  0  0
  5 14  1  0  0  0  0
  6  7  1  0  0  0  0
  7  8  2  0  0  0  0
  7  9  1  0  0  0  0
  8 12  1  0  0  0  0
  9 10  2  0  0  0  0
  9 11  1  0  0  0  0
 10 13  1  0  0  0  0
 10 12  1  0  0  0  0
 11 14  2  0  0  0  0
 13 15  2  0  0  0  0
 14 15  1  0  0  0  0
M  END
>  <CHROM.1>
-171.45592371,-69.81294551,148.67610414,6.80311101,3.18395164,82.90543862
2.36153368,1.45554527,-1.27392480

>  <Name>
ligand

>  <RI>
0

>  <Rbt.Current_Directory>
/home/itssahil/PROJECTS/Mol_Feturizer/Test_systems_manuscript/rnas/5kpy

>  <Rbt.Executable>
rbdock ($Id: //depot/dev/client3/rdock/2013.1/src/exe/rbdock.cxx#4 $)

>  <Rbt.Library>
libRbt.so (2013.1, Build901 2013/11/27)

>  <Rbt.Parameter_File>
/export/apps/rDock/src/rDock_2013.1_src/data/scripts/dock_solv.prm

>  <Rbt.Receptor>
prm/pocket_docking_5.prm

>  <SCORE>
-21.037

>  <SCORE.INTER>
-21.7487

>  <SCORE.INTER.CONST>
1

>  <SCORE.INTER.POLAR>
0

>  <SCORE.INTER.ROT>
3

>  <SCORE.INTER.SOLV>
7.26525

>  <SCORE.INTER.VDW>
-22.5209

>  <SCORE.INTER.norm>
-1.35929

>  <SCORE.INTRA>
0.711668

>  <SCORE.INTRA.DIHEDRAL>
0.159431

>  <SCORE.INTRA.DIHEDRAL.0>
3.89056

>  <SCORE.INTRA.POLAR>
0

>  <SCORE.INTRA.POLAR.0>
0

>  <SCORE.INTRA.REPUL>
0

>  <SCORE.INTRA.REPUL.0>
0

>  <SCORE.INTRA.SOLV>
-0.0500858

>  <SCORE.INTRA.SOLV.lig_0>
-20.733

>  <SCORE.INTRA.VDW>
0.656995

>  <SCORE.INTRA.VDW.0>
-0.828515

>  <SCORE.INTRA.norm>
0.0444792

>  <SCORE.RESTR>
0

>  <SCORE.RESTR.CAVITY>
0

>  <SCORE.RESTR.norm>
0

>  <SCORE.SYSTEM>
0

>  <SCORE.SYSTEM.CONST>
0

>  <SCORE.SYSTEM.DIHEDRAL>
0

>  <SCORE.SYSTEM.SOLV>
0

>  <SCORE.SYSTEM.norm>
0

>  <SCORE.heavy>
16

>  <SCORE.norm>
-1.31481

>  <RMSD>
2.878

$$$$
ligand
 OpenBabel02271912153D
libRbt.so/2013.1/901 2013/11/27
 16 17  0  0  0  0  0  0  0  0999 V2000
    8.3781    4.9543   82.1339 N   0  0  0  0  0  0  0  0  0  0  0  0
    6.9750    4.7776   81.9695 C   0  0  2  0  0  0  0  0  0  0  0  0
    6.3954    5.7647   80.9951 C   0  0  0  0  0  0  0  0  0  0  0  0
    7.1677    6.4933   80.3258 O   0  0  0  0  0  0  0  0  0  0  0  0
    7.1286   -0.2039   81.2016 O   0  0  0  0  0  0  0  0  0  0  0  0
    6.2598    4.9121   83.2924 C   0  0  0  0  0  0  0  0  0  0  0  0
    6.5271    3.7605   84.2322 C   0  0  0  0  0  0  0  0  0  0  0  0
    6.5629    3.8388   85.5666 C   0  0  0  0  0  0  0  0  0  0  0  0
    6.7423    2.4351   83.7324 C   0  0  0  0  0  0  0  0  0  0  0  0
    6.9247    1.6486   84.9027 C   0  0  0  0  0  0  0  0  0  0  0  0
    6.7932    1.8423   82.5008 C   0  0  0  0  0  0  0  0  0  0  0  0
    6.8021    2.5721   85.9634 N   0  0  0  0  0  0  0  0  0  0  0  0
    7.1589    0.3276   84.8705 C   0  0  0  0  0  0  0  0  0  0  0  0
    7.0541    0.4389   82.4443 C   0  0  0  0  0  0  0  0  0  0  0  0
    7.2460   -0.3355   83.6428 C   0  0  0  0  0  0  0  0  0  0  0  0
    5.1566    5.8645   80.8702 O   0  0  0  0  0  0  0  0  0  0  0  0
  2  1  1  1  0  0  0
  2  3  1  0  0  0  0
  2  6  1  0  0  0  0
  3  4  1  0  0  0  0
  3 16  1  0  0  0  0
  5 14  1  0  0  0  0
  6  7  1  0  0  0  0
  7  8  2  0  0  0  0
  7  9  1  0  0  0  0
  8 12  1  0  0  0  0
  9 10  2  0  0  0  0
  9 11  1  0  0  0  0
 10 13  1  0  0  0  0
 10 12  1  0  0  0  0
 11 14  2  0  0  0  0
 13 15  2  0  0  0  0
 14 15  1  0  0  0  0
M  END
>  <CHROM.1>
8.65888813,-70.19738020,148.54137459,6.81959925,3.16280779,82.92960923,2.35444407
1.45789011,-1.27095087

>  <Name>
ligand

>  <RI>
0

>  <Rbt.Current_Directory>
/home/itssahil/PROJECTS/Mol_Feturizer/Test_systems_manuscript/rnas/5kpy

>  <Rbt.Executable>
rbdock ($Id: //depot/dev/client3/rdock/2013.1/src/exe/rbdock.cxx#4 $)

>  <Rbt.Library>
libRbt.so (2013.1, Build901 2013/11/27)

>  <Rbt.Parameter_File>
/export/apps/rDock/src/rDock_2013.1_src/data/scripts/dock_solv.prm

>  <Rbt.Receptor>
prm/pocket_docking_6.prm

>  <SCORE>
-20.975

>  <SCORE.INTER>
-21.7212

>  <SCORE.INTER.CONST>
1

>  <SCORE.INTER.POLAR>
0

>  <SCORE.INTER.ROT>
3

>  <SCORE.INTER.SOLV>
7.27434

>  <SCORE.INTER.VDW>
-22.5056

>  <SCORE.INTER.norm>
-1.35758

>  <SCORE.INTRA>
0.746204

>  <SCORE.INTRA.DIHEDRAL>
0.217306

>  <SCORE.INTRA.DIHEDRAL.0>
3.89056

>  <SCORE.INTRA.POLAR>
0

>  <SCORE.INTRA.POLAR.0>
0

>  <SCORE.INTRA.REPUL>
0

>  <SCORE.INTRA.REPUL.0>
0

>  <SCORE.INTRA.SOLV>
-0.0561365

>  <SCORE.INTRA.SOLV.lig_0>
-20.733

>  <SCORE.INTRA.VDW>
0.665619

>  <SCORE.INTRA.VDW.0>
-0.828515

>  <SCORE.INTRA.norm>
0.0466377

>  <SCORE.RESTR>
0

>  <SCORE.RESTR.CAVITY>
0

>  <SCORE.RESTR.norm>
0

>  <SCORE.SYSTEM>
0

>  <SCORE.SYSTEM.CONST>
0

>  <SCORE.SYSTEM.DIHEDRAL>
0

>  <SCORE.SYSTEM.SOLV>
0

>  <SCORE.SYSTEM.norm>
0

>  <SCORE.heavy>
16

>  <SCORE.norm>
-1.31094

>  <RMSD>
2.880

$$$$
ligand
 OpenBabel02271912153D
libRbt.so/2013.1/901 2013/11/27
 16 17  0  0  0  0  0  0  0  0999 V2000
    8.3002    5.1177   82.1470 N   0  0  0  0  0  0  0  0  0  0  0  0
    6.9136    4.8706   81.9388 C   0  0  2  0  0  0  0  0  0  0  0  0
    6.3146    5.8309   80.9494 C   0  0  0  0  0  0  0  0  0  0  0  0
    5.0661    5.9244   80.8624 O   0  0  0  0  0  0  0  0  0  0  0  0
    7.2293   -0.1056   81.1305 O   0  0  0  0  0  0  0  0  0  0  0  0
    6.1521    4.9631   83.2393 C   0  0  0  0  0  0  0  0  0  0  0  0
    6.4344    3.8128   84.1763 C   0  0  0  0  0  0  0  0  0  0  0  0
    6.4375    3.8812   85.5117 C   0  0  0  0  0  0  0  0  0  0  0  0
    6.7026    2.4989   83.6716 C   0  0  0  0  0  0  0  0  0  0  0  0
    6.8832    1.7090   84.8397 C   0  0  0  0  0  0  0  0  0  0  0  0
    6.8001    1.9182   82.4371 C   0  0  0  0  0  0  0  0  0  0  0  0
    6.7076    2.6193   85.9043 N   0  0  0  0  0  0  0  0  0  0  0  0
    7.1597    0.3963   84.8030 C   0  0  0  0  0  0  0  0  0  0  0  0
    7.1064    0.5243   82.3759 C   0  0  0  0  0  0  0  0  0  0  0  0
    7.2955   -0.2536   83.5726 C   0  0  0  0  0  0  0  0  0  0  0  0
    7.0581    6.5135   80.2136 O   0  0  0  0  0  0  0  0  0  0  0  0
  2  1  1  1  0  0  0
  2  3  1  0  0  0  0
  2  6  1  0  0  0  0
  3  4  1  0  0  0  0
  3 16  1  0  0  0  0
  5 14  1  0  0  0  0
  6  7  1  0  0  0  0
  7  8  2  0  0  0  0
  7  9  1  0  0  0  0
  8 12  1  0  0  0  0
  9 10  2  0  0  0  0
  9 11  1  0  0  0  0
 10 13  1  0  0  0  0
 10 12  1  0  0  0  0
 11 14  2  0  0  0  0
 13 15  2  0  0  0  0
 14 15  1  0  0  0  0
M  END
>  <CHROM.1>
-165.53569065,-70.98973347,147.85821540,6.77430101,3.23338416,82.87537015
2.25807992,1.41690846,-1.17069540

>  <Name>
ligand

>  <RI>
0

>  <Rbt.Current_Directory>
/home/itssahil/PROJECTS/Mol_Feturizer/Test_systems_manuscript/rnas/5kpy

>  <Rbt.Executable>
rbdock ($Id: //depot/dev/client3/rdock/2013.1/src/exe/rbdock.cxx#4 $)

>  <Rbt.Library>
libRbt.so (2013.1, Build901 2013/11/27)

>  <Rbt.Parameter_File>
/export/apps/rDock/src/rDock_2013.1_src/data/scripts/dock_solv.prm

>  <Rbt.Receptor>
prm/pocket_docking_8.prm

>  <SCORE>
-20.9903

>  <SCORE.INTER>
-21.8462

>  <SCORE.INTER.CONST>
1

>  <SCORE.INTER.POLAR>
0

>  <SCORE.INTER.ROT>
3

>  <SCORE.INTER.SOLV>
7.24826

>  <SCORE.INTER.VDW>
-22.5802

>  <SCORE.INTER.norm>
-1.36538

>  <SCORE.INTRA>
0.855904

>  <SCORE.INTRA.DIHEDRAL>
0.246076

>  <SCORE.INTRA.DIHEDRAL.0>
3.89056

>  <SCORE.INTRA.POLAR>
0

>  <SCORE.INTRA.POLAR.0>
0

>  <SCORE.INTRA.REPUL>
0

>  <SCORE.INTRA.REPUL.0>
0

>  <SCORE.INTRA.SOLV>
-0.102737

>  <SCORE.INTRA.SOLV.lig_0>
-20.733

>  <SCORE.INTRA.VDW>
0.784234

>  <SCORE.INTRA.VDW.0>
-0.828515

>  <SCORE.INTRA.norm>
0.053494

>  <SCORE.RESTR>
0

>  <SCORE.RESTR.CAVITY>
0

>  <SCORE.RESTR.norm>
0

>  <SCORE.SYSTEM>
0

>  <SCORE.SYSTEM.CONST>
0

>  <SCORE.SYSTEM.DIHEDRAL>
0

>  <SCORE.SYSTEM.SOLV>
0

>  <SCORE.SYSTEM.norm>
0

>  <SCORE.heavy>
16

>  <SCORE.norm>
-1.31189

>  <RMSD>
2.881

$$$$
ligand
 OpenBabel02271912153D
libRbt.so/2013.1/901 2013/11/27
 16 17  0  0  0  0  0  0  0  0999 V2000
    6.2123    6.9912   83.3708 N   0  0  0  0  0  0  0  0  0  0  0  0
    6.5690    6.2475   82.2103 C   0  0  2  0  0  0  0  0  0  0  0  0
    5.3761    5.5845   81.5800 C   0  0  0  0  0  0  0  0  0  0  0  0
    5.5545    4.6870   80.7209 O   0  0  0  0  0  0  0  0  0  0  0  0
    7.4493   -0.2779   81.3951 O   0  0  0  0  0  0  0  0  0  0  0  0
    7.5991    5.1953   82.5444 C   0  0  0  0  0  0  0  0  0  0  0  0
    7.1354    4.2254   83.6051 C   0  0  0  0  0  0  0  0  0  0  0  0
    6.7256    4.5557   84.8343 C   0  0  0  0  0  0  0  0  0  0  0  0
    7.0732    2.8184   83.3417 C   0  0  0  0  0  0  0  0  0  0  0  0
    6.5717    2.2614   84.5498 C   0  0  0  0  0  0  0  0  0  0  0  0
    7.3580    2.0002   82.2834 C   0  0  0  0  0  0  0  0  0  0  0  0
    6.3900    3.3764   85.3964 N   0  0  0  0  0  0  0  0  0  0  0  0
    6.3642    0.9467   84.7217 C   0  0  0  0  0  0  0  0  0  0  0  0
    7.1561    0.5959   82.4502 C   0  0  0  0  0  0  0  0  0  0  0  0
    6.6569    0.0534   83.6869 C   0  0  0  0  0  0  0  0  0  0  0  0
    4.2225    5.9398   81.9009 O   0  0  0  0  0  0  0  0  0  0  0  0
  2  1  1  1  0  0  0
  2  3  1  0  0  0  0
  2  6  1  0  0  0  0
  3  4  1  0  0  0  0
  3 16  1  0  0  0  0
  5 14  1  0  0  0  0
  6  7  1  0  0  0  0
  7  8  2  0  0  0  0
  7  9  1  0  0  0  0
  8 12  1  0  0  0  0
  9 10  2  0  0  0  0
  9 11  1  0  0  0  0
 10 13  1  0  0  0  0
 10 12  1  0  0  0  0
 11 14  2  0  0  0  0
 13 15  2  0  0  0  0
 14 15  1  0  0  0  0
M  END
>  <CHROM.1>
-165.81312508,58.16405788,-57.09232878,6.48765545,3.51280924,82.95756451
-2.71110344,1.32913814,-2.15197870

>  <Name>
ligand

>  <RI>
0

>  <Rbt.Current_Directory>
/home/itssahil/PROJECTS/Mol_Feturizer/Test_systems_manuscript/rnas/5kpy

>  <Rbt.Executable>
rbdock ($Id: //depot/dev/client3/rdock/2013.1/src/exe/rbdock.cxx#4 $)

>  <Rbt.Library>
libRbt.so (2013.1, Build901 2013/11/27)

>  <Rbt.Parameter_File>
/export/apps/rDock/src/rDock_2013.1_src/data/scripts/dock_solv.prm

>  <Rbt.Receptor>
prm/pocket_docking_7.prm

>  <SCORE>
-18.4725

>  <SCORE.INTER>
-18.5386

>  <SCORE.INTER.CONST>
1

>  <SCORE.INTER.POLAR>
0

>  <SCORE.INTER.ROT>
3

>  <SCORE.INTER.SOLV>
6.40951

>  <SCORE.INTER.VDW>
-20.0956

>  <SCORE.INTER.norm>
-1.15866

>  <SCORE.INTRA>
0.0660989

>  <SCORE.INTRA.DIHEDRAL>
-0.128333

>  <SCORE.INTRA.DIHEDRAL.0>
3.89056

>  <SCORE.INTRA.POLAR>
0

>  <SCORE.INTRA.POLAR.0>
0

>  <SCORE.INTRA.REPUL>
0

>  <SCORE.INTRA.REPUL.0>
0

>  <SCORE.INTRA.SOLV>
-0.0244924

>  <SCORE.INTRA.SOLV.lig_0>
-20.733

>  <SCORE.INTRA.VDW>
0.142511

>  <SCORE.INTRA.VDW.0>
-0.828515

>  <SCORE.INTRA.norm>
0.00413118

>  <SCORE.RESTR>
0

>  <SCORE.RESTR.CAVITY>
0

>  <SCORE.RESTR.norm>
0

>  <SCORE.SYSTEM>
0

>  <SCORE.SYSTEM.CONST>
0

>  <SCORE.SYSTEM.DIHEDRAL>
0

>  <SCORE.SYSTEM.SOLV>
0

>  <SCORE.SYSTEM.norm>
0

>  <SCORE.heavy>
16

>  <SCORE.norm>
-1.15453

>  <RMSD>
2.882

$$$$
ligand
 OpenBabel02271912153D
libRbt.so/2013.1/901 2013/11/27
 16 17  0  0  0  0  0  0  0  0999 V2000
    8.2665    4.7314   81.9136 N   0  0  0  0  0  0  0  0  0  0  0  0
    6.8454    4.7014   81.8322 C   0  0  2  0  0  0  0  0  0  0  0  0
    6.3115    5.7838   80.9361 C   0  0  0  0  0  0  0  0  0  0  0  0
    7.1137    6.4750   80.2622 O   0  0  0  0  0  0  0  0  0  0  0  0
    7.1189   -0.1747   80.8998 O   0  0  0  0  0  0  0  0  0  0  0  0
    6.2275    4.8456   83.2023 C   0  0  0  0  0  0  0  0  0  0  0  0
    6.4741    3.6520   84.0940 C   0  0  0  0  0  0  0  0  0  0  0  0
    6.4858    3.6702   85.4310 C   0  0  0  0  0  0  0  0  0  0  0  0
    6.6944    2.3495   83.5392 C   0  0  0  0  0  0  0  0  0  0  0  0
    6.8531    1.5107   84.6760 C   0  0  0  0  0  0  0  0  0  0  0  0
    6.7661    1.8124   82.2833 C   0  0  0  0  0  0  0  0  0  0  0  0
    6.7140    2.3860   85.7748 N   0  0  0  0  0  0  0  0  0  0  0  0
    7.0839    0.1916   84.5888 C   0  0  0  0  0  0  0  0  0  0  0  0
    7.0237    0.4120   82.1685 C   0  0  0  0  0  0  0  0  0  0  0  0
    7.1914   -0.4161   83.3342 C   0  0  0  0  0  0  0  0  0  0  0  0
    5.0823    5.9981   80.8803 O   0  0  0  0  0  0  0  0  0  0  0  0
  2  1  1  1  0  0  0
  2  3  1  0  0  0  0
  2  6  1  0  0  0  0
  3  4  1  0  0  0  0
  3 16  1  0  0  0  0
  5 14  1  0  0  0  0
  6  7  1  0  0  0  0
  7  8  2  0  0  0  0
  7  9  1  0  0  0  0
  8 12  1  0  0  0  0
  9 10  2  0  0  0  0
  9 11  1  0  0  0  0
 10 13  1  0  0  0  0
 10 12  1  0  0  0  0
 11 14  2  0  0  0  0
 13 15  2  0  0  0  0
 14 15  1  0  0  0  0
M  END
>  <CHROM.1>
7.65327101,-68.16958573,154.68669907,6.75614287,3.09456764,82.75666144,-2.23539827
-1.42767281,2.02546574

>  <Name>
ligand

>  <RI>
0

>  <Rbt.Current_Directory>
/home/itssahil/PROJECTS/Mol_Feturizer/Test_systems_manuscript/rnas/5kpy

>  <Rbt.Executable>
rbdock ($Id: //depot/dev/client3/rdock/2013.1/src/exe/rbdock.cxx#4 $)

>  <Rbt.Library>
libRbt.so (2013.1, Build901 2013/11/27)

>  <Rbt.Parameter_File>
/export/apps/rDock/src/rDock_2013.1_src/data/scripts/dock_solv.prm

>  <Rbt.Receptor>
prm/blind_docking_100.prm

>  <SCORE>
-19.8772

>  <SCORE.INTER>
-21.3212

>  <SCORE.INTER.CONST>
1

>  <SCORE.INTER.POLAR>
0

>  <SCORE.INTER.ROT>
3

>  <SCORE.INTER.SOLV>
7.28688

>  <SCORE.INTER.VDW>
-22.2431

>  <SCORE.INTER.norm>
-1.33257

>  <SCORE.INTRA>
0.928658

>  <SCORE.INTRA.DIHEDRAL>
0.071383

>  <SCORE.INTRA.DIHEDRAL.0>
3.89056

>  <SCORE.INTRA.POLAR>
0

>  <SCORE.INTRA.POLAR.0>
0

>  <SCORE.INTRA.REPUL>
0

>  <SCORE.INTRA.REPUL.0>
0

>  <SCORE.INTRA.SOLV>
0.143199

>  <SCORE.INTRA.SOLV.lig_0>
-20.733

>  <SCORE.INTRA.VDW>
0.821367

>  <SCORE.INTRA.VDW.0>
-0.828515

>  <SCORE.INTRA.norm>
0.0580412

>  <SCORE.RESTR>
0.515292

>  <SCORE.RESTR.CAVITY>
0.515292

>  <SCORE.RESTR.norm>
0.0322058

>  <SCORE.SYSTEM>
0

>  <SCORE.SYSTEM.CONST>
0

>  <SCORE.SYSTEM.DIHEDRAL>
0

>  <SCORE.SYSTEM.SOLV>
0

>  <SCORE.SYSTEM.norm>
0

>  <SCORE.heavy>
16

>  <SCORE.norm>
-1.24233

>  <RMSD>
2.892

$$$$
ligand
 OpenBabel02271912153D
libRbt.so/2013.1/901 2013/11/27
 16 17  0  0  0  0  0  0  0  0999 V2000
    8.2666    4.8749   82.0028 N   0  0  0  0  0  0  0  0  0  0  0  0
    6.8486    4.7828   81.9142 C   0  0  2  0  0  0  0  0  0  0  0  0
    6.2771    5.8083   80.9753 C   0  0  0  0  0  0  0  0  0  0  0  0
    5.0320    5.9504   80.9045 O   0  0  0  0  0  0  0  0  0  0  0  0
    7.1266   -0.1404   81.1440 O   0  0  0  0  0  0  0  0  0  0  0  0
    6.2151    4.9518   83.2743 C   0  0  0  0  0  0  0  0  0  0  0  0
    6.4891    3.7946   84.2053 C   0  0  0  0  0  0  0  0  0  0  0  0
    6.5216    3.8624   85.5404 C   0  0  0  0  0  0  0  0  0  0  0  0
    6.7152    2.4749   83.6953 C   0  0  0  0  0  0  0  0  0  0  0  0
    6.9011    1.6804   84.8595 C   0  0  0  0  0  0  0  0  0  0  0  0
    6.7732    1.8926   82.4591 C   0  0  0  0  0  0  0  0  0  0  0  0
    6.7695    2.5943   85.9274 N   0  0  0  0  0  0  0  0  0  0  0  0
    7.1453    0.3615   84.8171 C   0  0  0  0  0  0  0  0  0  0  0  0
    7.0447    0.4917   82.3917 C   0  0  0  0  0  0  0  0  0  0  0  0
    7.2399   -0.2909   83.5842 C   0  0  0  0  0  0  0  0  0  0  0  0
    7.0390    6.4968   80.2642 O   0  0  0  0  0  0  0  0  0  0  0  0
  2  1  1  1  0  0  0
  2  3  1  0  0  0  0
  2  6  1  0  0  0  0
  3  4  1  0  0  0  0
  3 16  1  0  0  0  0
  5 14  1  0  0  0  0
  6  7  1  0  0  0  0
  7  8  2  0  0  0  0
  7  9  1  0  0  0  0
  8 12  1  0  0  0  0
  9 10  2  0  0  0  0
  9 11  1  0  0  0  0
 10 13  1  0  0  0  0
 10 12  1  0  0  0  0
 11 14  2  0  0  0  0
 13 15  2  0  0  0  0
 14 15  1  0  0  0  0
M  END
>  <CHROM.1>
-172.17342216,-68.93271368,152.92906388,6.76301407,3.19372352,82.88704196
-2.37587142,-1.43074731,1.84893204

>  <Name>
ligand

>  <RI>
0

>  <Rbt.Current_Directory>
/home/itssahil/PROJECTS/Mol_Feturizer/Test_systems_manuscript/rnas/5kpy

>  <Rbt.Executable>
rbdock ($Id: //depot/dev/client3/rdock/2013.1/src/exe/rbdock.cxx#4 $)

>  <Rbt.Library>
libRbt.so (2013.1, Build901 2013/11/27)

>  <Rbt.Parameter_File>
/export/apps/rDock/src/rDock_2013.1_src/data/scripts/dock_solv.prm

>  <Rbt.Receptor>
prm/pocket_docking_7.prm

>  <SCORE>
-21.1694

>  <SCORE.INTER>
-22.0272

>  <SCORE.INTER.CONST>
1

>  <SCORE.INTER.POLAR>
0

>  <SCORE.INTER.ROT>
3

>  <SCORE.INTER.SOLV>
7.19269

>  <SCORE.INTER.VDW>
-22.6824

>  <SCORE.INTER.norm>
-1.3767

>  <SCORE.INTRA>
0.857857

>  <SCORE.INTRA.DIHEDRAL>
0.0962063

>  <SCORE.INTRA.DIHEDRAL.0>
3.89056

>  <SCORE.INTRA.POLAR>
0

>  <SCORE.INTRA.POLAR.0>
0

>  <SCORE.INTRA.REPUL>
0

>  <SCORE.INTRA.REPUL.0>
0

>  <SCORE.INTRA.SOLV>
0.0743578

>  <SCORE.INTRA.SOLV.lig_0>
-20.733

>  <SCORE.INTRA.VDW>
0.772575

>  <SCORE.INTRA.VDW.0>
-0.828515

>  <SCORE.INTRA.norm>
0.053616

>  <SCORE.RESTR>
0

>  <SCORE.RESTR.CAVITY>
0

>  <SCORE.RESTR.norm>
0

>  <SCORE.SYSTEM>
0

>  <SCORE.SYSTEM.CONST>
0

>  <SCORE.SYSTEM.DIHEDRAL>
0

>  <SCORE.SYSTEM.SOLV>
0

>  <SCORE.SYSTEM.norm>
0

>  <SCORE.heavy>
16

>  <SCORE.norm>
-1.32309

>  <RMSD>
2.892

$$$$
ligand
 OpenBabel02271912153D
libRbt.so/2013.1/901 2013/11/27
 16 17  0  0  0  0  0  0  0  0999 V2000
    8.3137    5.0533   82.1405 N   0  0  0  0  0  0  0  0  0  0  0  0
    6.9213    4.8157   81.9626 C   0  0  2  0  0  0  0  0  0  0  0  0
    6.3125    5.7646   80.9682 C   0  0  0  0  0  0  0  0  0  0  0  0
    7.0641    6.4457   80.2290 O   0  0  0  0  0  0  0  0  0  0  0  0
    7.1823   -0.1694   81.2198 O   0  0  0  0  0  0  0  0  0  0  0  0
    6.1853    4.9375   83.2753 C   0  0  0  0  0  0  0  0  0  0  0  0
    6.4690    3.7968   84.2236 C   0  0  0  0  0  0  0  0  0  0  0  0
    6.4914    3.8828   85.5578 C   0  0  0  0  0  0  0  0  0  0  0  0
    6.7170    2.4737   83.7329 C   0  0  0  0  0  0  0  0  0  0  0  0
    6.9059    1.6975   84.9089 C   0  0  0  0  0  0  0  0  0  0  0  0
    6.7916    1.8757   82.5050 C   0  0  0  0  0  0  0  0  0  0  0  0
    6.7543    2.6236   85.9635 N   0  0  0  0  0  0  0  0  0  0  0  0
    7.1687    0.3817   84.8859 C   0  0  0  0  0  0  0  0  0  0  0  0
    7.0830    0.4781   82.4583 C   0  0  0  0  0  0  0  0  0  0  0  0
    7.2809   -0.2858   83.6625 C   0  0  0  0  0  0  0  0  0  0  0  0
    5.0709    5.8807   80.8956 O   0  0  0  0  0  0  0  0  0  0  0  0
  2  1  1  1  0  0  0
  2  3  1  0  0  0  0
  2  6  1  0  0  0  0
  3  4  1  0  0  0  0
  3 16  1  0  0  0  0
  5 14  1  0  0  0  0
  6  7  1  0  0  0  0
  7  8  2  0  0  0  0
  7  9  1  0  0  0  0
  8 12  1  0  0  0  0
  9 10  2  0  0  0  0
  9 11  1  0  0  0  0
 10 13  1  0  0  0  0
 10 12  1  0  0  0  0
 11 14  2  0  0  0  0
 13 15  2  0  0  0  0
 14 15  1  0  0  0  0
M  END
>  <CHROM.1>
13.81867174,-71.29749787,148.20333921,6.78311885,3.19663825,82.92536257,2.32768089
1.43072996,-1.25278739

>  <Name>
ligand

>  <RI>
0

>  <Rbt.Current_Directory>
/home/itssahil/PROJECTS/Mol_Feturizer/Test_systems_manuscript/rnas/5kpy

>  <Rbt.Executable>
rbdock ($Id: //depot/dev/client3/rdock/2013.1/src/exe/rbdock.cxx#4 $)

>  <Rbt.Library>
libRbt.so (2013.1, Build901 2013/11/27)

>  <Rbt.Parameter_File>
/export/apps/rDock/src/rDock_2013.1_src/data/scripts/dock_solv.prm

>  <Rbt.Receptor>
prm/pocket_docking_8.prm

>  <SCORE>
-20.9921

>  <SCORE.INTER>
-21.8673

>  <SCORE.INTER.CONST>
1

>  <SCORE.INTER.POLAR>
0

>  <SCORE.INTER.ROT>
3

>  <SCORE.INTER.SOLV>
7.24713

>  <SCORE.INTER.VDW>
-22.5939

>  <SCORE.INTER.norm>
-1.36671

>  <SCORE.INTRA>
0.875265

>  <SCORE.INTRA.DIHEDRAL>
0.315588

>  <SCORE.INTRA.DIHEDRAL.0>
3.89056

>  <SCORE.INTRA.POLAR>
0

>  <SCORE.INTRA.POLAR.0>
0

>  <SCORE.INTRA.REPUL>
0

>  <SCORE.INTRA.REPUL.0>
0

>  <SCORE.INTRA.SOLV>
-0.0944244

>  <SCORE.INTRA.SOLV.lig_0>
-20.733

>  <SCORE.INTRA.VDW>
0.764683

>  <SCORE.INTRA.VDW.0>
-0.828515

>  <SCORE.INTRA.norm>
0.0547041

>  <SCORE.RESTR>
0

>  <SCORE.RESTR.CAVITY>
0

>  <SCORE.RESTR.norm>
0

>  <SCORE.SYSTEM>
0

>  <SCORE.SYSTEM.CONST>
0

>  <SCORE.SYSTEM.DIHEDRAL>
0

>  <SCORE.SYSTEM.SOLV>
0

>  <SCORE.SYSTEM.norm>
0

>  <SCORE.heavy>
16

>  <SCORE.norm>
-1.31201

>  <RMSD>
2.893

$$$$
ligand
 OpenBabel02271912153D
libRbt.so/2013.1/901 2013/11/27
 16 17  0  0  0  0  0  0  0  0999 V2000
    8.2572    4.8814   81.9966 N   0  0  0  0  0  0  0  0  0  0  0  0
    6.8391    4.7889   81.9096 C   0  0  2  0  0  0  0  0  0  0  0  0
    6.2660    5.8158   80.9732 C   0  0  0  0  0  0  0  0  0  0  0  0
    5.0205    5.9501   80.8963 O   0  0  0  0  0  0  0  0  0  0  0  0
    7.1032   -0.1424   81.1467 O   0  0  0  0  0  0  0  0  0  0  0  0
    6.2072    4.9552   83.2708 C   0  0  0  0  0  0  0  0  0  0  0  0
    6.4906    3.8009   84.2025 C   0  0  0  0  0  0  0  0  0  0  0  0
    6.5352    3.8724   85.5370 C   0  0  0  0  0  0  0  0  0  0  0  0
    6.7131    2.4799   83.6941 C   0  0  0  0  0  0  0  0  0  0  0  0
    6.9102    1.6888   84.8589 C   0  0  0  0  0  0  0  0  0  0  0  0
    6.7602    1.8941   82.4591 C   0  0  0  0  0  0  0  0  0  0  0  0
    6.7876    2.6056   85.9253 N   0  0  0  0  0  0  0  0  0  0  0  0
    7.1550    0.3700   84.8180 C   0  0  0  0  0  0  0  0  0  0  0  0
    7.0322    0.4932   82.3932 C   0  0  0  0  0  0  0  0  0  0  0  0
    7.2389   -0.2859   83.5862 C   0  0  0  0  0  0  0  0  0  0  0  0
    7.0273    6.5131   80.2701 O   0  0  0  0  0  0  0  0  0  0  0  0
  2  1  1  1  0  0  0
  2  3  1  0  0  0  0
  2  6  1  0  0  0  0
  3  4  1  0  0  0  0
  3 16  1  0  0  0  0
  5 14  1  0  0  0  0
  6  7  1  0  0  0  0
  7  8  2  0  0  0  0
  7  9  1  0  0  0  0
  8 12  1  0  0  0  0
  9 10  2  0  0  0  0
  9 11  1  0  0  0  0
 10 13  1  0  0  0  0
 10 12  1  0  0  0  0
 11 14  2  0  0  0  0
 13 15  2  0  0  0  0
 14 15  1  0  0  0  0
M  END
>  <CHROM.1>
-172.73225647,-68.54130247,152.38905300,6.75862697,3.19962311,82.88566837
-2.43124446,-1.43526941,1.79362603

>  <Name>
ligand

>  <RI>
0

>  <Rbt.Current_Directory>
/home/itssahil/PROJECTS/Mol_Feturizer/Test_systems_manuscript/rnas/5kpy

>  <Rbt.Executable>
rbdock ($Id: //depot/dev/client3/rdock/2013.1/src/exe/rbdock.cxx#4 $)

>  <Rbt.Library>
libRbt.so (2013.1, Build901 2013/11/27)

>  <Rbt.Parameter_File>
/export/apps/rDock/src/rDock_2013.1_src/data/scripts/dock_solv.prm

>  <Rbt.Receptor>
prm/pocket_docking_5.prm

>  <SCORE>
-21.1574

>  <SCORE.INTER>
-21.9731

>  <SCORE.INTER.CONST>
1

>  <SCORE.INTER.POLAR>
0

>  <SCORE.INTER.ROT>
3

>  <SCORE.INTER.SOLV>
7.20791

>  <SCORE.INTER.VDW>
-22.6514

>  <SCORE.INTER.norm>
-1.37332

>  <SCORE.INTRA>
0.815665

>  <SCORE.INTRA.DIHEDRAL>
0.0699404

>  <SCORE.INTRA.DIHEDRAL.0>
3.89056

>  <SCORE.INTRA.POLAR>
0

>  <SCORE.INTRA.POLAR.0>
0

>  <SCORE.INTRA.REPUL>
0

>  <SCORE.INTRA.REPUL.0>
0

>  <SCORE.INTRA.SOLV>
0.0724227

>  <SCORE.INTRA.SOLV.lig_0>
-20.733

>  <SCORE.INTRA.VDW>
0.744483

>  <SCORE.INTRA.VDW.0>
-0.828515

>  <SCORE.INTRA.norm>
0.050979

>  <SCORE.RESTR>
0

>  <SCORE.RESTR.CAVITY>
0

>  <SCORE.RESTR.norm>
0

>  <SCORE.SYSTEM>
0

>  <SCORE.SYSTEM.CONST>
0

>  <SCORE.SYSTEM.DIHEDRAL>
0

>  <SCORE.SYSTEM.SOLV>
0

>  <SCORE.SYSTEM.norm>
0

>  <SCORE.heavy>
16

>  <SCORE.norm>
-1.32234

>  <RMSD>
2.895

$$$$
ligand
 OpenBabel02271912153D
libRbt.so/2013.1/901 2013/11/27
 16 17  0  0  0  0  0  0  0  0999 V2000
    8.0704    4.4953   81.7908 N   0  0  0  0  0  0  0  0  0  0  0  0
    6.6578    4.6451   81.8870 C   0  0  2  0  0  0  0  0  0  0  0  0
    6.1482    5.7454   80.9985 C   0  0  0  0  0  0  0  0  0  0  0  0
    6.9633    6.4062   80.3097 O   0  0  0  0  0  0  0  0  0  0  0  0
    7.1737   -0.1725   81.2132 O   0  0  0  0  0  0  0  0  0  0  0  0
    6.2454    4.9301   83.3113 C   0  0  0  0  0  0  0  0  0  0  0  0
    6.5156    3.7782   84.2499 C   0  0  0  0  0  0  0  0  0  0  0  0
    6.5408    3.8531   85.5847 C   0  0  0  0  0  0  0  0  0  0  0  0
    6.7458    2.4561   83.7481 C   0  0  0  0  0  0  0  0  0  0  0  0
    6.9262    1.6680   84.9176 C   0  0  0  0  0  0  0  0  0  0  0  0
    6.8111    1.8671   82.5154 C   0  0  0  0  0  0  0  0  0  0  0  0
    6.7879    2.5874   85.9799 N   0  0  0  0  0  0  0  0  0  0  0  0
    7.1720    0.3492   84.8836 C   0  0  0  0  0  0  0  0  0  0  0  0
    7.0844    0.4662   82.4570 C   0  0  0  0  0  0  0  0  0  0  0  0
    7.2740   -0.3098   83.6548 C   0  0  0  0  0  0  0  0  0  0  0  0
    4.9268    6.0044   80.9638 O   0  0  0  0  0  0  0  0  0  0  0  0
  2  1  1  1  0  0  0
  2  3  1  0  0  0  0
  2  6  1  0  0  0  0
  3  4  1  0  0  0  0
  3 16  1  0  0  0  0
  5 14  1  0  0  0  0
  6  7  1  0  0  0  0
  7  8  2  0  0  0  0
  7  9  1  0  0  0  0
  8 12  1  0  0  0  0
  9 10  2  0  0  0  0
  9 11  1  0  0  0  0
 10 13  1  0  0  0  0
 10 12  1  0  0  0  0
 11 14  2  0  0  0  0
 13 15  2  0  0  0  0
 14 15  1  0  0  0  0
M  END
>  <CHROM.1>
-1.01078862,-65.58892738,163.77994414,6.73764778,3.14146829,82.91782622,-2.41763835
-1.39311869,1.79462586

>  <Name>
ligand

>  <RI>
0

>  <Rbt.Current_Directory>
/home/itssahil/PROJECTS/Mol_Feturizer/Test_systems_manuscript/rnas/5kpy

>  <Rbt.Executable>
rbdock ($Id: //depot/dev/client3/rdock/2013.1/src/exe/rbdock.cxx#4 $)

>  <Rbt.Library>
libRbt.so (2013.1, Build901 2013/11/27)

>  <Rbt.Parameter_File>
/export/apps/rDock/src/rDock_2013.1_src/data/scripts/dock_solv.prm

>  <Rbt.Receptor>
prm/pocket_docking_5.prm

>  <SCORE>
-21.0852

>  <SCORE.INTER>
-22.3084

>  <SCORE.INTER.CONST>
1

>  <SCORE.INTER.POLAR>
0

>  <SCORE.INTER.ROT>
3

>  <SCORE.INTER.SOLV>
7.29508

>  <SCORE.INTER.VDW>
-22.904

>  <SCORE.INTER.norm>
-1.39428

>  <SCORE.INTRA>
1.22326

>  <SCORE.INTRA.DIHEDRAL>
-0.067954

>  <SCORE.INTRA.DIHEDRAL.0>
3.89056

>  <SCORE.INTRA.POLAR>
0

>  <SCORE.INTRA.POLAR.0>
0

>  <SCORE.INTRA.REPUL>
0

>  <SCORE.INTRA.REPUL.0>
0

>  <SCORE.INTRA.SOLV>
0.414657

>  <SCORE.INTRA.SOLV.lig_0>
-20.733

>  <SCORE.INTRA.VDW>
1.04991

>  <SCORE.INTRA.VDW.0>
-0.828515

>  <SCORE.INTRA.norm>
0.0764537

>  <SCORE.RESTR>
0

>  <SCORE.RESTR.CAVITY>
0

>  <SCORE.RESTR.norm>
0

>  <SCORE.SYSTEM>
0

>  <SCORE.SYSTEM.CONST>
0

>  <SCORE.SYSTEM.DIHEDRAL>
0

>  <SCORE.SYSTEM.SOLV>
0

>  <SCORE.SYSTEM.norm>
0

>  <SCORE.heavy>
16

>  <SCORE.norm>
-1.31782

>  <RMSD>
2.922

$$$$
ligand
 OpenBabel02271912153D
libRbt.so/2013.1/901 2013/11/27
 16 17  0  0  0  0  0  0  0  0999 V2000
    8.2002    4.7208   81.9164 N   0  0  0  0  0  0  0  0  0  0  0  0
    6.7770    4.7033   81.8800 C   0  0  2  0  0  0  0  0  0  0  0  0
    6.2263    5.7485   80.9504 C   0  0  0  0  0  0  0  0  0  0  0  0
    7.0195    6.4771   80.3061 O   0  0  0  0  0  0  0  0  0  0  0  0
    7.0596   -0.2166   81.2123 O   0  0  0  0  0  0  0  0  0  0  0  0
    6.2035    4.9189   83.2600 C   0  0  0  0  0  0  0  0  0  0  0  0
    6.4916    3.7791   84.2080 C   0  0  0  0  0  0  0  0  0  0  0  0
    6.5495    3.8726   85.5406 C   0  0  0  0  0  0  0  0  0  0  0  0
    6.7042    2.4491   83.7195 C   0  0  0  0  0  0  0  0  0  0  0  0
    6.9097    1.6766   84.8953 C   0  0  0  0  0  0  0  0  0  0  0  0
    6.7371    1.8427   82.4940 C   0  0  0  0  0  0  0  0  0  0  0  0
    6.8010    2.6115   85.9475 N   0  0  0  0  0  0  0  0  0  0  0  0
    7.1491    0.3564   84.8740 C   0  0  0  0  0  0  0  0  0  0  0  0
    7.0032    0.4399   82.4488 C   0  0  0  0  0  0  0  0  0  0  0  0
    7.2186   -0.3201   83.6524 C   0  0  0  0  0  0  0  0  0  0  0  0
    4.9911    5.8953   80.8380 O   0  0  0  0  0  0  0  0  0  0  0  0
  2  1  1  1  0  0  0
  2  3  1  0  0  0  0
  2  6  1  0  0  0  0
  3  4  1  0  0  0  0
  3 16  1  0  0  0  0
  5 14  1  0  0  0  0
  6  7  1  0  0  0  0
  7  8  2  0  0  0  0
  7  9  1  0  0  0  0
  8 12  1  0  0  0  0
  9 10  2  0  0  0  0
  9 11  1  0  0  0  0
 10 13  1  0  0  0  0
 10 12  1  0  0  0  0
 11 14  2  0  0  0  0
 13 15  2  0  0  0  0
 14 15  1  0  0  0  0
M  END
>  <CHROM.1>
1.53482628,-66.92314245,154.58240987,6.73916170,3.15298797,82.89740123,-2.50672763
-1.43766706,1.70458424

>  <Name>
ligand

>  <RI>
0

>  <Rbt.Current_Directory>
/home/itssahil/PROJECTS/Mol_Feturizer/Test_systems_manuscript/rnas/5kpy

>  <Rbt.Executable>
rbdock ($Id: //depot/dev/client3/rdock/2013.1/src/exe/rbdock.cxx#4 $)

>  <Rbt.Library>
libRbt.so (2013.1, Build901 2013/11/27)

>  <Rbt.Parameter_File>
/export/apps/rDock/src/rDock_2013.1_src/data/scripts/dock_solv.prm

>  <Rbt.Receptor>
prm/pocket_docking_6.prm

>  <SCORE>
-21.0352

>  <SCORE.INTER>
-21.8222

>  <SCORE.INTER.CONST>
1

>  <SCORE.INTER.POLAR>
0

>  <SCORE.INTER.ROT>
3

>  <SCORE.INTER.SOLV>
7.28025

>  <SCORE.INTER.VDW>
-22.5749

>  <SCORE.INTER.norm>
-1.36389

>  <SCORE.INTRA>
0.786955

>  <SCORE.INTRA.DIHEDRAL>
-0.0136862

>  <SCORE.INTRA.DIHEDRAL.0>
3.89056

>  <SCORE.INTRA.POLAR>
0

>  <SCORE.INTRA.POLAR.0>
0

>  <SCORE.INTRA.REPUL>
0

>  <SCORE.INTRA.REPUL.0>
0

>  <SCORE.INTRA.SOLV>
0.174687

>  <SCORE.INTRA.SOLV.lig_0>
-20.733

>  <SCORE.INTRA.VDW>
0.706455

>  <SCORE.INTRA.VDW.0>
-0.828515

>  <SCORE.INTRA.norm>
0.0491847

>  <SCORE.RESTR>
0

>  <SCORE.RESTR.CAVITY>
0

>  <SCORE.RESTR.norm>
0

>  <SCORE.SYSTEM>
0

>  <SCORE.SYSTEM.CONST>
0

>  <SCORE.SYSTEM.DIHEDRAL>
0

>  <SCORE.SYSTEM.SOLV>
0

>  <SCORE.SYSTEM.norm>
0

>  <SCORE.heavy>
16

>  <SCORE.norm>
-1.3147

>  <RMSD>
2.932

$$$$
ligand
 OpenBabel02271912153D
libRbt.so/2013.1/901 2013/11/27
 16 17  0  0  0  0  0  0  0  0999 V2000
    5.2703    5.6484   82.5439 N   0  0  0  0  0  0  0  0  0  0  0  0
    6.6714    5.5562   82.3085 C   0  0  2  0  0  0  0  0  0  0  0  0
    6.9977    4.5329   81.2567 C   0  0  0  0  0  0  0  0  0  0  0  0
    8.1615    4.4816   80.7895 O   0  0  0  0  0  0  0  0  0  0  0  0
    8.3503    0.0603   81.6029 O   0  0  0  0  0  0  0  0  0  0  0  0
    7.4062    5.2078   83.5807 C   0  0  0  0  0  0  0  0  0  0  0  0
    6.8188    4.0161   84.2989 C   0  0  0  0  0  0  0  0  0  0  0  0
    6.0525    4.0688   85.3934 C   0  0  0  0  0  0  0  0  0  0  0  0
    7.0303    2.6846   83.8140 C   0  0  0  0  0  0  0  0  0  0  0  0
    6.3086    1.8653   84.7246 C   0  0  0  0  0  0  0  0  0  0  0  0
    7.7013    2.1111   82.7692 C   0  0  0  0  0  0  0  0  0  0  0  0
    5.7503    2.7786   85.6449 N   0  0  0  0  0  0  0  0  0  0  0  0
    6.2521    0.5283   84.6233 C   0  0  0  0  0  0  0  0  0  0  0  0
    7.6642    0.6880   82.6509 C   0  0  0  0  0  0  0  0  0  0  0  0
    6.9350   -0.1224   83.5914 C   0  0  0  0  0  0  0  0  0  0  0  0
    6.1105    3.7560   80.8453 O   0  0  0  0  0  0  0  0  0  0  0  0
  2  1  1  1  0  0  0
  2  3  1  0  0  0  0
  2  6  1  0  0  0  0
  3  4  1  0  0  0  0
  3 16  1  0  0  0  0
  5 14  1  0  0  0  0
  6  7  1  0  0  0  0
  7  8  2  0  0  0  0
  7  9  1  0  0  0  0
  8 12  1  0  0  0  0
  9 10  2  0  0  0  0
  9 11  1  0  0  0  0
 10 13  1  0  0  0  0
 10 12  1  0  0  0  0
 11 14  2  0  0  0  0
 13 15  2  0  0  0  0
 14 15  1  0  0  0  0
M  END
>  <CHROM.1>
168.93964487,50.23770561,-103.37388102,6.86150111,3.03508795,83.05276369
1.82102374,1.15550560,-0.53610117

>  <Name>
ligand

>  <RI>
0

>  <Rbt.Current_Directory>
/home/itssahil/PROJECTS/Mol_Feturizer/Test_systems_manuscript/rnas/5kpy

>  <Rbt.Executable>
rbdock ($Id: //depot/dev/client3/rdock/2013.1/src/exe/rbdock.cxx#4 $)

>  <Rbt.Library>
libRbt.so (2013.1, Build901 2013/11/27)

>  <Rbt.Parameter_File>
/export/apps/rDock/src/rDock_2013.1_src/data/scripts/dock_solv.prm

>  <Rbt.Receptor>
prm/pocket_docking_7.prm

>  <SCORE>
-17.7847

>  <SCORE.INTER>
-17.1132

>  <SCORE.INTER.CONST>
1

>  <SCORE.INTER.POLAR>
0

>  <SCORE.INTER.ROT>
3

>  <SCORE.INTER.SOLV>
8.52475

>  <SCORE.INTER.VDW>
-19.8504

>  <SCORE.INTER.norm>
-1.06958

>  <SCORE.INTRA>
-0.671454

>  <SCORE.INTRA.DIHEDRAL>
0.20905

>  <SCORE.INTRA.DIHEDRAL.0>
3.89056

>  <SCORE.INTRA.POLAR>
0

>  <SCORE.INTRA.POLAR.0>
0

>  <SCORE.INTRA.REPUL>
0

>  <SCORE.INTRA.REPUL.0>
0

>  <SCORE.INTRA.SOLV>
-0.0374887

>  <SCORE.INTRA.SOLV.lig_0>
-20.733

>  <SCORE.INTRA.VDW>
-0.757235

>  <SCORE.INTRA.VDW.0>
-0.828515

>  <SCORE.INTRA.norm>
-0.0419659

>  <SCORE.RESTR>
0

>  <SCORE.RESTR.CAVITY>
0

>  <SCORE.RESTR.norm>
0

>  <SCORE.SYSTEM>
0

>  <SCORE.SYSTEM.CONST>
0

>  <SCORE.SYSTEM.DIHEDRAL>
0

>  <SCORE.SYSTEM.SOLV>
0

>  <SCORE.SYSTEM.norm>
0

>  <SCORE.heavy>
16

>  <SCORE.norm>
-1.11154

>  <RMSD>
2.971

$$$$
ligand
 OpenBabel02271912153D
libRbt.so/2013.1/901 2013/11/27
 16 17  0  0  0  0  0  0  0  0999 V2000
    7.2898    6.8694   82.3498 N   0  0  0  0  0  0  0  0  0  0  0  0
    6.5967    6.0316   81.4307 C   0  0  2  0  0  0  0  0  0  0  0  0
    5.1249    5.9674   81.7298 C   0  0  0  0  0  0  0  0  0  0  0  0
    4.7154    6.2873   82.8722 O   0  0  0  0  0  0  0  0  0  0  0  0
    7.0747   -0.9508   81.7852 O   0  0  0  0  0  0  0  0  0  0  0  0
    7.1651    4.6329   81.4476 C   0  0  0  0  0  0  0  0  0  0  0  0
    7.0756    3.9714   82.8023 C   0  0  0  0  0  0  0  0  0  0  0  0
    6.9966    4.6094   83.9748 C   0  0  0  0  0  0  0  0  0  0  0  0
    7.0385    2.5444   82.9255 C   0  0  0  0  0  0  0  0  0  0  0  0
    6.9252    2.3201   84.3249 C   0  0  0  0  0  0  0  0  0  0  0  0
    7.0771    1.4797   82.0679 C   0  0  0  0  0  0  0  0  0  0  0  0
    6.9076    3.6165   84.8834 N   0  0  0  0  0  0  0  0  0  0  0  0
    6.8615    1.0952   84.8694 C   0  0  0  0  0  0  0  0  0  0  0  0
    7.0233    0.1669   82.6285 C   0  0  0  0  0  0  0  0  0  0  0  0
    6.9192   -0.0361   84.0500 C   0  0  0  0  0  0  0  0  0  0  0  0
    4.3255    5.5830   80.8503 O   0  0  0  0  0  0  0  0  0  0  0  0
  2  1  1  1  0  0  0
  2  3  1  0  0  0  0
  2  6  1  0  0  0  0
  3  4  1  0  0  0  0
  3 16  1  0  0  0  0
  5 14  1  0  0  0  0
  6  7  1  0  0  0  0
  7  8  2  0  0  0  0
  7  9  1  0  0  0  0
  8 12  1  0  0  0  0
  9 10  2  0  0  0  0
  9 11  1  0  0  0  0
 10 13  1  0  0  0  0
 10 12  1  0  0  0  0
 11 14  2  0  0  0  0
 13 15  2  0  0  0  0
 14 15  1  0  0  0  0
M  END
>  <CHROM.1>
-19.68691649,59.83009705,-24.08498979,6.51772719,3.46072955,82.75229171,-2.29704231
1.24329764,-2.64843160

>  <Name>
ligand

>  <RI>
0

>  <Rbt.Current_Directory>
/home/itssahil/PROJECTS/Mol_Feturizer/Test_systems_manuscript/rnas/5kpy

>  <Rbt.Executable>
rbdock ($Id: //depot/dev/client3/rdock/2013.1/src/exe/rbdock.cxx#4 $)

>  <Rbt.Library>
libRbt.so (2013.1, Build901 2013/11/27)

>  <Rbt.Parameter_File>
/export/apps/rDock/src/rDock_2013.1_src/data/scripts/dock_solv.prm

>  <Rbt.Receptor>
prm/pocket_docking_5.prm

>  <SCORE>
-19.8117

>  <SCORE.INTER>
-19.9288

>  <SCORE.INTER.CONST>
1

>  <SCORE.INTER.POLAR>
0

>  <SCORE.INTER.ROT>
3

>  <SCORE.INTER.SOLV>
7.78797

>  <SCORE.INTER.VDW>
-21.4819

>  <SCORE.INTER.norm>
-1.24555

>  <SCORE.INTRA>
0.11716

>  <SCORE.INTRA.DIHEDRAL>
-0.0779092

>  <SCORE.INTRA.DIHEDRAL.0>
3.89056

>  <SCORE.INTRA.POLAR>
0

>  <SCORE.INTRA.POLAR.0>
0

>  <SCORE.INTRA.REPUL>
0

>  <SCORE.INTRA.REPUL.0>
0

>  <SCORE.INTRA.SOLV>
0.0193119

>  <SCORE.INTRA.SOLV.lig_0>
-20.733

>  <SCORE.INTRA.VDW>
0.146459

>  <SCORE.INTRA.VDW.0>
-0.828515

>  <SCORE.INTRA.norm>
0.00732251

>  <SCORE.RESTR>
0

>  <SCORE.RESTR.CAVITY>
0

>  <SCORE.RESTR.norm>
0

>  <SCORE.SYSTEM>
0

>  <SCORE.SYSTEM.CONST>
0

>  <SCORE.SYSTEM.DIHEDRAL>
0

>  <SCORE.SYSTEM.SOLV>
0

>  <SCORE.SYSTEM.norm>
0

>  <SCORE.heavy>
16

>  <SCORE.norm>
-1.23823

>  <RMSD>
3.011

$$$$
ligand
 OpenBabel02271912153D
libRbt.so/2013.1/901 2013/11/27
 16 17  0  0  0  0  0  0  0  0999 V2000
    7.4126    6.8321   82.2202 N   0  0  0  0  0  0  0  0  0  0  0  0
    6.7269    5.9557   81.3321 C   0  0  2  0  0  0  0  0  0  0  0  0
    5.2586    5.8760   81.6447 C   0  0  0  0  0  0  0  0  0  0  0  0
    4.4532    5.5590   80.7358 O   0  0  0  0  0  0  0  0  0  0  0  0
    6.9469   -1.0028   81.7463 O   0  0  0  0  0  0  0  0  0  0  0  0
    7.3190    4.5678   81.3863 C   0  0  0  0  0  0  0  0  0  0  0  0
    7.1864    3.9177   82.7431 C   0  0  0  0  0  0  0  0  0  0  0  0
    7.1306    4.5642   83.9122 C   0  0  0  0  0  0  0  0  0  0  0  0
    7.0770    2.4949   82.8719 C   0  0  0  0  0  0  0  0  0  0  0  0
    6.9422    2.2829   84.2712 C   0  0  0  0  0  0  0  0  0  0  0  0
    7.0687    1.4258   82.0189 C   0  0  0  0  0  0  0  0  0  0  0  0
    6.9853    3.5811   84.8242 N   0  0  0  0  0  0  0  0  0  0  0  0
    6.8133    1.0652   84.8203 C   0  0  0  0  0  0  0  0  0  0  0  0
    6.9452    0.1198   82.5845 C   0  0  0  0  0  0  0  0  0  0  0  0
    6.8204   -0.0713   84.0061 C   0  0  0  0  0  0  0  0  0  0  0  0
    4.8502    6.1397   82.7952 O   0  0  0  0  0  0  0  0  0  0  0  0
  2  1  1  1  0  0  0
  2  3  1  0  0  0  0
  2  6  1  0  0  0  0
  3  4  1  0  0  0  0
  3 16  1  0  0  0  0
  5 14  1  0  0  0  0
  6  7  1  0  0  0  0
  7  8  2  0  0  0  0
  7  9  1  0  0  0  0
  8 12  1  0  0  0  0
  9 10  2  0  0  0  0
  9 11  1  0  0  0  0
 10 13  1  0  0  0  0
 10 12  1  0  0  0  0
 11 14  2  0  0  0  0
 13 15  2  0  0  0  0
 14 15  1  0  0  0  0
M  END
>  <CHROM.1>
155.05735272,62.82074388,-28.42585617,6.57087483,3.40475115,82.68371660,-2.16495527
1.24969472,-2.78909822

>  <Name>
ligand

>  <RI>
0

>  <Rbt.Current_Directory>
/home/itssahil/PROJECTS/Mol_Feturizer/Test_systems_manuscript/rnas/5kpy

>  <Rbt.Executable>
rbdock ($Id: //depot/dev/client3/rdock/2013.1/src/exe/rbdock.cxx#4 $)

>  <Rbt.Library>
libRbt.so (2013.1, Build901 2013/11/27)

>  <Rbt.Parameter_File>
/export/apps/rDock/src/rDock_2013.1_src/data/scripts/dock_solv.prm

>  <Rbt.Receptor>
prm/pocket_docking_8.prm

>  <SCORE>
-19.8777

>  <SCORE.INTER>
-19.8748

>  <SCORE.INTER.CONST>
1

>  <SCORE.INTER.POLAR>
0

>  <SCORE.INTER.ROT>
3

>  <SCORE.INTER.SOLV>
7.82322

>  <SCORE.INTER.VDW>
-21.4576

>  <SCORE.INTER.norm>
-1.24218

>  <SCORE.INTRA>
-0.00292052

>  <SCORE.INTRA.DIHEDRAL>
0.0104059

>  <SCORE.INTRA.DIHEDRAL.0>
3.89056

>  <SCORE.INTRA.POLAR>
0

>  <SCORE.INTRA.POLAR.0>
0

>  <SCORE.INTRA.REPUL>
0

>  <SCORE.INTRA.REPUL.0>
0

>  <SCORE.INTRA.SOLV>
-0.0252853

>  <SCORE.INTRA.SOLV.lig_0>
-20.733

>  <SCORE.INTRA.VDW>
0.00451917

>  <SCORE.INTRA.VDW.0>
-0.828515

>  <SCORE.INTRA.norm>
-0.000182533

>  <SCORE.RESTR>
0

>  <SCORE.RESTR.CAVITY>
0

>  <SCORE.RESTR.norm>
0

>  <SCORE.SYSTEM>
0

>  <SCORE.SYSTEM.CONST>
0

>  <SCORE.SYSTEM.DIHEDRAL>
0

>  <SCORE.SYSTEM.SOLV>
0

>  <SCORE.SYSTEM.norm>
0

>  <SCORE.heavy>
16

>  <SCORE.norm>
-1.24236

>  <RMSD>
3.047

$$$$
ligand
 OpenBabel02271912153D
libRbt.so/2013.1/901 2013/11/27
 16 17  0  0  0  0  0  0  0  0999 V2000
    9.0818    3.7663   80.7018 N   0  0  0  0  0  0  0  0  0  0  0  0
    8.2911    4.9494   80.7459 C   0  0  2  0  0  0  0  0  0  0  0  0
    8.8311    5.9491   81.7302 C   0  0  0  0  0  0  0  0  0  0  0  0
    8.4899    7.1530   81.6331 O   0  0  0  0  0  0  0  0  0  0  0  0
    7.3541   -0.8833   81.9547 O   0  0  0  0  0  0  0  0  0  0  0  0
    6.8613    4.6247   81.1066 C   0  0  0  0  0  0  0  0  0  0  0  0
    6.7120    4.0714   82.5039 C   0  0  0  0  0  0  0  0  0  0  0  0
    6.4477    4.7901   83.6001 C   0  0  0  0  0  0  0  0  0  0  0  0
    6.8204    2.6651   82.7560 C   0  0  0  0  0  0  0  0  0  0  0  0
    6.5950    2.5453   84.1547 C   0  0  0  0  0  0  0  0  0  0  0  0
    7.0607    1.5453   82.0083 C   0  0  0  0  0  0  0  0  0  0  0  0
    6.3795    3.8721   84.5859 N   0  0  0  0  0  0  0  0  0  0  0  0
    6.6133    1.3707   84.8034 C   0  0  0  0  0  0  0  0  0  0  0  0
    7.0969    0.2862   82.6821 C   0  0  0  0  0  0  0  0  0  0  0  0
    6.8759    0.1904   84.1015 C   0  0  0  0  0  0  0  0  0  0  0  0
    9.6236    5.5808   82.6226 O   0  0  0  0  0  0  0  0  0  0  0  0
  2  1  1  1  0  0  0
  2  3  1  0  0  0  0
  2  6  1  0  0  0  0
  3  4  1  0  0  0  0
  3 16  1  0  0  0  0
  5 14  1  0  0  0  0
  6  7  1  0  0  0  0
  7  8  2  0  0  0  0
  7  9  1  0  0  0  0
  8 12  1  0  0  0  0
  9 10  2  0  0  0  0
  9 11  1  0  0  0  0
 10 13  1  0  0  0  0
 10 12  1  0  0  0  0
 11 14  2  0  0  0  0
 13 15  2  0  0  0  0
 14 15  1  0  0  0  0
M  END
>  <CHROM.1>
160.58945029,65.21391602,92.96828668,7.50887224,3.34880708,82.55286422,-1.00072084
-1.03569112,-2.91309324

>  <Name>
ligand

>  <RI>
0

>  <Rbt.Current_Directory>
/home/itssahil/PROJECTS/Mol_Feturizer/Test_systems_manuscript/rnas/5kpy

>  <Rbt.Executable>
rbdock ($Id: //depot/dev/client3/rdock/2013.1/src/exe/rbdock.cxx#4 $)

>  <Rbt.Library>
libRbt.so (2013.1, Build901 2013/11/27)

>  <Rbt.Parameter_File>
/export/apps/rDock/src/rDock_2013.1_src/data/scripts/dock_solv.prm

>  <Rbt.Receptor>
prm/blind_docking_100.prm

>  <SCORE>
-19.1178

>  <SCORE.INTER>
-18.9871

>  <SCORE.INTER.CONST>
1

>  <SCORE.INTER.POLAR>
0

>  <SCORE.INTER.ROT>
3

>  <SCORE.INTER.SOLV>
7.61102

>  <SCORE.INTER.VDW>
-20.795

>  <SCORE.INTER.norm>
-1.18669

>  <SCORE.INTRA>
-0.576429

>  <SCORE.INTRA.DIHEDRAL>
0.0779411

>  <SCORE.INTRA.DIHEDRAL.0>
3.89056

>  <SCORE.INTRA.POLAR>
0

>  <SCORE.INTRA.POLAR.0>
0

>  <SCORE.INTRA.REPUL>
0

>  <SCORE.INTRA.REPUL.0>
0

>  <SCORE.INTRA.SOLV>
0.165427

>  <SCORE.INTRA.SOLV.lig_0>
-20.733

>  <SCORE.INTRA.VDW>
-0.698112

>  <SCORE.INTRA.VDW.0>
-0.828515

>  <SCORE.INTRA.norm>
-0.0360268

>  <SCORE.RESTR>
0.445638

>  <SCORE.RESTR.CAVITY>
0.445638

>  <SCORE.RESTR.norm>
0.0278524

>  <SCORE.SYSTEM>
0

>  <SCORE.SYSTEM.CONST>
0

>  <SCORE.SYSTEM.DIHEDRAL>
0

>  <SCORE.SYSTEM.SOLV>
0

>  <SCORE.SYSTEM.norm>
0

>  <SCORE.heavy>
16

>  <SCORE.norm>
-1.19487

>  <RMSD>
3.060

$$$$
ligand
 OpenBabel02271912153D
libRbt.so/2013.1/901 2013/11/27
 16 17  0  0  0  0  0  0  0  0999 V2000
    8.9154    5.0053   80.8482 N   0  0  0  0  0  0  0  0  0  0  0  0
    7.6834    5.3759   81.4580 C   0  0  2  0  0  0  0  0  0  0  0  0
    7.8175    5.5273   82.9476 C   0  0  0  0  0  0  0  0  0  0  0  0
    6.7905    5.7321   83.6394 O   0  0  0  0  0  0  0  0  0  0  0  0
    6.3524    2.4076   86.3983 O   0  0  0  0  0  0  0  0  0  0  0  0
    6.6105    4.3561   81.1603 C   0  0  0  0  0  0  0  0  0  0  0  0
    7.0426    2.9378   81.4480 C   0  0  0  0  0  0  0  0  0  0  0  0
    7.5142    2.0711   80.5457 C   0  0  0  0  0  0  0  0  0  0  0  0
    7.0009    2.4096   82.7792 C   0  0  0  0  0  0  0  0  0  0  0  0
    7.5035    1.0866   82.6431 C   0  0  0  0  0  0  0  0  0  0  0  0
    6.6266    2.8707   84.0113 C   0  0  0  0  0  0  0  0  0  0  0  0
    7.7879    0.9639   81.2658 N   0  0  0  0  0  0  0  0  0  0  0  0
    7.6273    0.2384   83.6756 C   0  0  0  0  0  0  0  0  0  0  0  0
    6.7388    1.9789   85.1216 C   0  0  0  0  0  0  0  0  0  0  0  0
    7.2409    0.6395   84.9579 C   0  0  0  0  0  0  0  0  0  0  0  0
    8.9447    5.4650   83.4822 O   0  0  0  0  0  0  0  0  0  0  0  0
  2  1  1  1  0  0  0
  2  3  1  0  0  0  0
  2  6  1  0  0  0  0
  3  4  1  0  0  0  0
  3 16  1  0  0  0  0
  5 14  1  0  0  0  0
  6  7  1  0  0  0  0
  7  8  2  0  0  0  0
  7  9  1  0  0  0  0
  8 12  1  0  0  0  0
  9 10  2  0  0  0  0
  9 11  1  0  0  0  0
 10 13  1  0  0  0  0
 10 12  1  0  0  0  0
 11 14  2  0  0  0  0
 13 15  2  0  0  0  0
 14 15  1  0  0  0  0
M  END
>  <CHROM.1>
-173.57872844,50.22699782,-97.03529457,7.39814574,3.17160486,82.93169839
-0.54409978,-1.35194235,-2.72053461

>  <Name>
ligand

>  <RI>
0

>  <Rbt.Current_Directory>
/home/itssahil/PROJECTS/Mol_Feturizer/Test_systems_manuscript/rnas/5kpy

>  <Rbt.Executable>
rbdock ($Id: //depot/dev/client3/rdock/2013.1/src/exe/rbdock.cxx#4 $)

>  <Rbt.Library>
libRbt.so (2013.1, Build901 2013/11/27)

>  <Rbt.Parameter_File>
/export/apps/rDock/src/rDock_2013.1_src/data/scripts/dock_solv.prm

>  <Rbt.Receptor>
prm/pocket_docking_5.prm

>  <SCORE>
-18.9467

>  <SCORE.INTER>
-18.5298

>  <SCORE.INTER.CONST>
1

>  <SCORE.INTER.POLAR>
0

>  <SCORE.INTER.ROT>
3

>  <SCORE.INTER.SOLV>
7.72208

>  <SCORE.INTER.VDW>
-20.5272

>  <SCORE.INTER.norm>
-1.15811

>  <SCORE.INTRA>
-0.416847

>  <SCORE.INTRA.DIHEDRAL>
0.166185

>  <SCORE.INTRA.DIHEDRAL.0>
3.89056

>  <SCORE.INTRA.POLAR>
0

>  <SCORE.INTRA.POLAR.0>
0

>  <SCORE.INTRA.REPUL>
0

>  <SCORE.INTRA.REPUL.0>
0

>  <SCORE.INTRA.SOLV>
-0.0421681

>  <SCORE.INTRA.SOLV.lig_0>
-20.733

>  <SCORE.INTRA.VDW>
-0.478856

>  <SCORE.INTRA.VDW.0>
-0.828515

>  <SCORE.INTRA.norm>
-0.0260529

>  <SCORE.RESTR>
0

>  <SCORE.RESTR.CAVITY>
0

>  <SCORE.RESTR.norm>
0

>  <SCORE.SYSTEM>
0

>  <SCORE.SYSTEM.CONST>
0

>  <SCORE.SYSTEM.DIHEDRAL>
0

>  <SCORE.SYSTEM.SOLV>
0

>  <SCORE.SYSTEM.norm>
0

>  <SCORE.heavy>
16

>  <SCORE.norm>
-1.18417

>  <RMSD>
3.469

$$$$
ligand
 OpenBabel02271912153D
libRbt.so/2013.1/901 2013/11/27
 16 17  0  0  0  0  0  0  0  0999 V2000
    9.0172    4.9566   80.6111 N   0  0  0  0  0  0  0  0  0  0  0  0
    7.8413    5.3988   81.2810 C   0  0  2  0  0  0  0  0  0  0  0  0
    8.0769    5.6053   82.7512 C   0  0  0  0  0  0  0  0  0  0  0  0
    9.2392    5.4867   83.2099 O   0  0  0  0  0  0  0  0  0  0  0  0
    6.2442    2.5207   86.3405 O   0  0  0  0  0  0  0  0  0  0  0  0
    6.7156    4.4098   81.0957 C   0  0  0  0  0  0  0  0  0  0  0  0
    7.1153    2.9883   81.4125 C   0  0  0  0  0  0  0  0  0  0  0  0
    7.6048    2.1051   80.5360 C   0  0  0  0  0  0  0  0  0  0  0  0
    7.0189    2.4748   82.7467 C   0  0  0  0  0  0  0  0  0  0  0  0
    7.5053    1.1430   82.6415 C   0  0  0  0  0  0  0  0  0  0  0  0
    6.6089    2.9544   83.9602 C   0  0  0  0  0  0  0  0  0  0  0  0
    7.8359    1.0016   81.2764 N   0  0  0  0  0  0  0  0  0  0  0  0
    7.5798    0.3039   83.6861 C   0  0  0  0  0  0  0  0  0  0  0  0
    6.6683    2.0727   85.0826 C   0  0  0  0  0  0  0  0  0  0  0  0
    7.1550    0.7243   84.9500 C   0  0  0  0  0  0  0  0  0  0  0  0
    7.1184    5.8757   83.5050 O   0  0  0  0  0  0  0  0  0  0  0  0
  2  1  1  6  0  0  0
  2  3  1  0  0  0  0
  2  6  1  0  0  0  0
  3  4  1  0  0  0  0
  3 16  1  0  0  0  0
  5 14  1  0  0  0  0
  6  7  1  0  0  0  0
  7  8  2  0  0  0  0
  7  9  1  0  0  0  0
  8 12  1  0  0  0  0
  9 10  2  0  0  0  0
  9 11  1  0  0  0  0
 10 13  1  0  0  0  0
 10 12  1  0  0  0  0
 11 14  2  0  0  0  0
 13 15  2  0  0  0  0
 14 15  1  0  0  0  0
M  END
>  <CHROM.1>
5.60331411,50.06705468,-90.88506211,7.47632447,3.23175350,82.84561429,-0.39952632
-1.30257156,-2.62242671

>  <Name>
ligand

>  <RI>
0

>  <Rbt.Current_Directory>
/home/itssahil/PROJECTS/Mol_Feturizer/Test_systems_manuscript/rnas/5kpy

>  <Rbt.Executable>
rbdock ($Id: //depot/dev/client3/rdock/2013.1/src/exe/rbdock.cxx#4 $)

>  <Rbt.Library>
libRbt.so (2013.1, Build901 2013/11/27)

>  <Rbt.Parameter_File>
/export/apps/rDock/src/rDock_2013.1_src/data/scripts/dock_solv.prm

>  <Rbt.Receptor>
prm/pocket_docking_6.prm

>  <SCORE>
-18.8679

>  <SCORE.INTER>
-18.391

>  <SCORE.INTER.CONST>
1

>  <SCORE.INTER.POLAR>
0

>  <SCORE.INTER.ROT>
3

>  <SCORE.INTER.SOLV>
8.14033

>  <SCORE.INTER.VDW>
-20.5741

>  <SCORE.INTER.norm>
-1.14944

>  <SCORE.INTRA>
-0.476935

>  <SCORE.INTRA.DIHEDRAL>
0.191615

>  <SCORE.INTRA.DIHEDRAL.0>
3.89056

>  <SCORE.INTRA.POLAR>
0

>  <SCORE.INTRA.POLAR.0>
0

>  <SCORE.INTRA.REPUL>
0

>  <SCORE.INTRA.REPUL.0>
0

>  <SCORE.INTRA.SOLV>
-0.0344809

>  <SCORE.INTRA.SOLV.lig_0>
-20.733

>  <SCORE.INTRA.VDW>
-0.555502

>  <SCORE.INTRA.VDW.0>
-0.828515

>  <SCORE.INTRA.norm>
-0.0298084

>  <SCORE.RESTR>
0

>  <SCORE.RESTR.CAVITY>
0

>  <SCORE.RESTR.norm>
0

>  <SCORE.SYSTEM>
0

>  <SCORE.SYSTEM.CONST>
0

>  <SCORE.SYSTEM.DIHEDRAL>
0

>  <SCORE.SYSTEM.SOLV>
0

>  <SCORE.SYSTEM.norm>
0

>  <SCORE.heavy>
16

>  <SCORE.norm>
-1.17925

>  <RMSD>
3.543

$$$$
ligand
 OpenBabel02271912153D
libRbt.so/2013.1/901 2013/11/27
 16 17  0  0  0  0  0  0  0  0999 V2000
    8.9713    4.9289   80.5820 N   0  0  0  0  0  0  0  0  0  0  0  0
    7.8239    5.3545   81.3096 C   0  0  2  0  0  0  0  0  0  0  0  0
    8.1202    5.5292   82.7730 C   0  0  0  0  0  0  0  0  0  0  0  0
    7.1786    5.7754   83.5654 O   0  0  0  0  0  0  0  0  0  0  0  0
    6.3705    2.4168   86.3831 O   0  0  0  0  0  0  0  0  0  0  0  0
    6.6922    4.3679   81.1496 C   0  0  0  0  0  0  0  0  0  0  0  0
    7.1008    2.9429   81.4382 C   0  0  0  0  0  0  0  0  0  0  0  0
    7.5652    2.0703   80.5377 C   0  0  0  0  0  0  0  0  0  0  0  0
    7.0425    2.4136   82.7684 C   0  0  0  0  0  0  0  0  0  0  0  0
    7.5258    1.0834   82.6337 C   0  0  0  0  0  0  0  0  0  0  0  0
    6.6673    2.8787   83.9986 C   0  0  0  0  0  0  0  0  0  0  0  0
    7.8174    0.9582   81.2581 N   0  0  0  0  0  0  0  0  0  0  0  0
    7.6301    0.2320   83.6657 C   0  0  0  0  0  0  0  0  0  0  0  0
    6.7587    1.9839   85.1084 C   0  0  0  0  0  0  0  0  0  0  0  0
    7.2415    0.6373   84.9461 C   0  0  0  0  0  0  0  0  0  0  0  0
    9.2959    5.4449   83.1861 O   0  0  0  0  0  0  0  0  0  0  0  0
  2  1  1  6  0  0  0
  2  3  1  0  0  0  0
  2  6  1  0  0  0  0
  3  4  1  0  0  0  0
  3 16  1  0  0  0  0
  5 14  1  0  0  0  0
  6  7  1  0  0  0  0
  7  8  2  0  0  0  0
  7  9  1  0  0  0  0
  8 12  1  0  0  0  0
  9 10  2  0  0  0  0
  9 11  1  0  0  0  0
 10 13  1  0  0  0  0
 10 12  1  0  0  0  0
 11 14  2  0  0  0  0
 13 15  2  0  0  0  0
 14 15  1  0  0  0  0
M  END
>  <CHROM.1>
-173.15414576,50.90939239,-90.67817174,7.50599570,3.16873874,82.85968767
-0.31986592,-1.32572836,-2.53686891

>  <Name>
ligand

>  <RI>
0

>  <Rbt.Current_Directory>
/home/itssahil/PROJECTS/Mol_Feturizer/Test_systems_manuscript/rnas/5kpy

>  <Rbt.Executable>
rbdock ($Id: //depot/dev/client3/rdock/2013.1/src/exe/rbdock.cxx#4 $)

>  <Rbt.Library>
libRbt.so (2013.1, Build901 2013/11/27)

>  <Rbt.Parameter_File>
/export/apps/rDock/src/rDock_2013.1_src/data/scripts/dock_solv.prm

>  <Rbt.Receptor>
prm/pocket_docking_7.prm

>  <SCORE>
-19.0527

>  <SCORE.INTER>
-18.5474

>  <SCORE.INTER.CONST>
1

>  <SCORE.INTER.POLAR>
0

>  <SCORE.INTER.ROT>
3

>  <SCORE.INTER.SOLV>
8.25943

>  <SCORE.INTER.VDW>
-20.7181

>  <SCORE.INTER.norm>
-1.15921

>  <SCORE.INTRA>
-0.505318

>  <SCORE.INTRA.DIHEDRAL>
0.10856

>  <SCORE.INTRA.DIHEDRAL.0>
3.89056

>  <SCORE.INTRA.POLAR>
0

>  <SCORE.INTRA.POLAR.0>
0

>  <SCORE.INTRA.REPUL>
0

>  <SCORE.INTRA.REPUL.0>
0

>  <SCORE.INTRA.SOLV>
-0.0562171

>  <SCORE.INTRA.SOLV.lig_0>
-20.733

>  <SCORE.INTRA.VDW>
-0.531489

>  <SCORE.INTRA.VDW.0>
-0.828515

>  <SCORE.INTRA.norm>
-0.0315824

>  <SCORE.RESTR>
0

>  <SCORE.RESTR.CAVITY>
0

>  <SCORE.RESTR.norm>
0

>  <SCORE.SYSTEM>
0

>  <SCORE.SYSTEM.CONST>
0

>  <SCORE.SYSTEM.DIHEDRAL>
0

>  <SCORE.SYSTEM.SOLV>
0

>  <SCORE.SYSTEM.norm>
0

>  <SCORE.heavy>
16

>  <SCORE.norm>
-1.19079

>  <RMSD>
3.545

$$$$
ligand
 OpenBabel02271912153D
libRbt.so/2013.1/901 2013/11/27
 16 17  0  0  0  0  0  0  0  0999 V2000
    8.9448    4.8259   80.4662 N   0  0  0  0  0  0  0  0  0  0  0  0
    7.8743    5.3072   81.2719 C   0  0  2  0  0  0  0  0  0  0  0  0
    8.2816    5.4657   82.7103 C   0  0  0  0  0  0  0  0  0  0  0  0
    9.4939    5.3674   83.0200 O   0  0  0  0  0  0  0  0  0  0  0  0
    6.4926    2.4352   86.4377 O   0  0  0  0  0  0  0  0  0  0  0  0
    6.6866    4.3782   81.1949 C   0  0  0  0  0  0  0  0  0  0  0  0
    7.0418    2.9357   81.4667 C   0  0  0  0  0  0  0  0  0  0  0  0
    7.4288    2.0444   80.5481 C   0  0  0  0  0  0  0  0  0  0  0  0
    7.0144    2.4075   82.7983 C   0  0  0  0  0  0  0  0  0  0  0  0
    7.4311    1.0570   82.6442 C   0  0  0  0  0  0  0  0  0  0  0  0
    6.7115    2.8871   84.0429 C   0  0  0  0  0  0  0  0  0  0  0  0
    7.6598    0.9209   81.2578 N   0  0  0  0  0  0  0  0  0  0  0  0
    7.5391    0.2001   83.6713 C   0  0  0  0  0  0  0  0  0  0  0  0
    6.8079    1.9873   85.1482 C   0  0  0  0  0  0  0  0  0  0  0  0
    7.2223    0.6205   84.9665 C   0  0  0  0  0  0  0  0  0  0  0  0
    7.4150    5.6766   83.5847 O   0  0  0  0  0  0  0  0  0  0  0  0
  2  1  1  6  0  0  0
  2  3  1  0  0  0  0
  2  6  1  0  0  0  0
  3  4  1  0  0  0  0
  3 16  1  0  0  0  0
  5 14  1  0  0  0  0
  6  7  1  0  0  0  0
  7  8  2  0  0  0  0
  7  9  1  0  0  0  0
  8 12  1  0  0  0  0
  9 10  2  0  0  0  0
  9 11  1  0  0  0  0
 10 13  1  0  0  0  0
 10 12  1  0  0  0  0
 11 14  2  0  0  0  0
 13 15  2  0  0  0  0
 14 15  1  0  0  0  0
M  END
>  <CHROM.1>
10.27818333,51.29757667,-89.15274766,7.52880773,3.13578387,82.85288821,-0.01145992
-1.31804519,-2.24999575

>  <Name>
ligand

>  <RI>
0

>  <Rbt.Current_Directory>
/home/itssahil/PROJECTS/Mol_Feturizer/Test_systems_manuscript/rnas/5kpy

>  <Rbt.Executable>
rbdock ($Id: //depot/dev/client3/rdock/2013.1/src/exe/rbdock.cxx#4 $)

>  <Rbt.Library>
libRbt.so (2013.1, Build901 2013/11/27)

>  <Rbt.Parameter_File>
/export/apps/rDock/src/rDock_2013.1_src/data/scripts/dock_solv.prm

>  <Rbt.Receptor>
prm/pocket_docking_7.prm

>  <SCORE>
-19.1845

>  <SCORE.INTER>
-18.794

>  <SCORE.INTER.CONST>
1

>  <SCORE.INTER.POLAR>
0

>  <SCORE.INTER.ROT>
3

>  <SCORE.INTER.SOLV>
8.54066

>  <SCORE.INTER.VDW>
-20.9762

>  <SCORE.INTER.norm>
-1.17462

>  <SCORE.INTRA>
-0.390506

>  <SCORE.INTRA.DIHEDRAL>
0.108981

>  <SCORE.INTRA.DIHEDRAL.0>
3.89056

>  <SCORE.INTRA.POLAR>
0

>  <SCORE.INTRA.POLAR.0>
0

>  <SCORE.INTRA.REPUL>
0

>  <SCORE.INTRA.REPUL.0>
0

>  <SCORE.INTRA.SOLV>
-0.056166

>  <SCORE.INTRA.SOLV.lig_0>
-20.733

>  <SCORE.INTRA.VDW>
-0.416914

>  <SCORE.INTRA.VDW.0>
-0.828515

>  <SCORE.INTRA.norm>
-0.0244067

>  <SCORE.RESTR>
0

>  <SCORE.RESTR.CAVITY>
0

>  <SCORE.RESTR.norm>
0

>  <SCORE.SYSTEM>
0

>  <SCORE.SYSTEM.CONST>
0

>  <SCORE.SYSTEM.DIHEDRAL>
0

>  <SCORE.SYSTEM.SOLV>
0

>  <SCORE.SYSTEM.norm>
0

>  <SCORE.heavy>
16

>  <SCORE.norm>
-1.19903

>  <RMSD>
3.579

$$$$
ligand
 OpenBabel02271912153D
libRbt.so/2013.1/901 2013/11/27
 16 17  0  0  0  0  0  0  0  0999 V2000
    9.0406    4.5331   80.2850 N   0  0  0  0  0  0  0  0  0  0  0  0
    8.0682    5.1298   81.1367 C   0  0  2  0  0  0  0  0  0  0  0  0
    8.5970    5.3464   82.5271 C   0  0  0  0  0  0  0  0  0  0  0  0
    7.7890    5.5136   83.4728 O   0  0  0  0  0  0  0  0  0  0  0  0
    6.5901    2.3415   86.4531 O   0  0  0  0  0  0  0  0  0  0  0  0
    6.8244    4.2768   81.2092 C   0  0  0  0  0  0  0  0  0  0  0  0
    7.1179    2.8199   81.4777 C   0  0  0  0  0  0  0  0  0  0  0  0
    7.4570    1.9128   80.5556 C   0  0  0  0  0  0  0  0  0  0  0  0
    7.0786    2.2927   82.8094 C   0  0  0  0  0  0  0  0  0  0  0  0
    7.4338    0.9251   82.6514 C   0  0  0  0  0  0  0  0  0  0  0  0
    6.8081    2.7845   84.0566 C   0  0  0  0  0  0  0  0  0  0  0  0
    7.6442    0.7798   81.2631 N   0  0  0  0  0  0  0  0  0  0  0  0
    7.5127    0.0638   83.6774 C   0  0  0  0  0  0  0  0  0  0  0  0
    6.8742    1.8808   85.1609 C   0  0  0  0  0  0  0  0  0  0  0  0
    7.2260    0.4970   84.9754 C   0  0  0  0  0  0  0  0  0  0  0  0
    9.8294    5.3747   82.7287 O   0  0  0  0  0  0  0  0  0  0  0  0
  2  1  1  6  0  0  0
  2  3  1  0  0  0  0
  2  6  1  0  0  0  0
  3  4  1  0  0  0  0
  3 16  1  0  0  0  0
  5 14  1  0  0  0  0
  6  7  1  0  0  0  0
  7  8  2  0  0  0  0
  7  9  1  0  0  0  0
  8 12  1  0  0  0  0
  9 10  2  0  0  0  0
  9 11  1  0  0  0  0
 10 13  1  0  0  0  0
 10 12  1  0  0  0  0
 11 14  2  0  0  0  0
 13 15  2  0  0  0  0
 14 15  1  0  0  0  0
M  END
>  <CHROM.1>
-160.71933326,48.44849008,-83.28987550,7.65203585,3.00886861,82.79847037
0.15983110,-1.26989260,-2.09234031

>  <Name>
ligand

>  <RI>
0

>  <Rbt.Current_Directory>
/home/itssahil/PROJECTS/Mol_Feturizer/Test_systems_manuscript/rnas/5kpy

>  <Rbt.Executable>
rbdock ($Id: //depot/dev/client3/rdock/2013.1/src/exe/rbdock.cxx#4 $)

>  <Rbt.Library>
libRbt.so (2013.1, Build901 2013/11/27)

>  <Rbt.Parameter_File>
/export/apps/rDock/src/rDock_2013.1_src/data/scripts/dock_solv.prm

>  <Rbt.Receptor>
prm/pocket_docking_6.prm

>  <SCORE>
-19.206

>  <SCORE.INTER>
-19.2528

>  <SCORE.INTER.CONST>
1

>  <SCORE.INTER.POLAR>
0

>  <SCORE.INTER.ROT>
3

>  <SCORE.INTER.SOLV>
9.00475

>  <SCORE.INTER.VDW>
-21.4368

>  <SCORE.INTER.norm>
-1.2033

>  <SCORE.INTRA>
0.0447211

>  <SCORE.INTRA.DIHEDRAL>
0.29245

>  <SCORE.INTRA.DIHEDRAL.0>
3.89056

>  <SCORE.INTRA.POLAR>
0

>  <SCORE.INTRA.POLAR.0>
0

>  <SCORE.INTRA.REPUL>
0

>  <SCORE.INTRA.REPUL.0>
0

>  <SCORE.INTRA.SOLV>
-0.0189567

>  <SCORE.INTRA.SOLV.lig_0>
-20.733

>  <SCORE.INTRA.VDW>
-0.0920255

>  <SCORE.INTRA.VDW.0>
-0.828515

>  <SCORE.INTRA.norm>
0.00279507

>  <SCORE.RESTR>
0.00213556

>  <SCORE.RESTR.CAVITY>
0.00213556

>  <SCORE.RESTR.norm>
0.000133473

>  <SCORE.SYSTEM>
0

>  <SCORE.SYSTEM.CONST>
0

>  <SCORE.SYSTEM.DIHEDRAL>
0

>  <SCORE.SYSTEM.SOLV>
0

>  <SCORE.SYSTEM.norm>
0

>  <SCORE.heavy>
16

>  <SCORE.norm>
-1.20037

>  <RMSD>
3.685

$$$$
ligand
 OpenBabel02271912153D
libRbt.so/2013.1/901 2013/11/27
 16 17  0  0  0  0  0  0  0  0999 V2000
    9.5049    6.4170   81.9963 N   0  0  0  0  0  0  0  0  0  0  0  0
    9.2508    5.0465   81.7063 C   0  0  2  0  0  0  0  0  0  0  0  0
    9.8435    4.6323   80.3884 C   0  0  0  0  0  0  0  0  0  0  0  0
   10.9181    5.1561   80.0061 O   0  0  0  0  0  0  0  0  0  0  0  0
    7.2747   -0.7975   81.9511 O   0  0  0  0  0  0  0  0  0  0  0  0
    7.7667    4.7692   81.6888 C   0  0  0  0  0  0  0  0  0  0  0  0
    7.2672    4.1262   82.9608 C   0  0  0  0  0  0  0  0  0  0  0  0
    6.9010    4.7783   84.0692 C   0  0  0  0  0  0  0  0  0  0  0  0
    7.1177    2.7046   83.0594 C   0  0  0  0  0  0  0  0  0  0  0  0
    6.6075    2.4998   84.3705 C   0  0  0  0  0  0  0  0  0  0  0  0
    7.3339    1.6316   82.2393 C   0  0  0  0  0  0  0  0  0  0  0  0
    6.5076    3.8003   84.9106 N   0  0  0  0  0  0  0  0  0  0  0  0
    6.3267    1.2854   84.8677 C   0  0  0  0  0  0  0  0  0  0  0  0
    7.0532    0.3290   82.7541 C   0  0  0  0  0  0  0  0  0  0  0  0
    6.5468    0.1451   84.0892 C   0  0  0  0  0  0  0  0  0  0  0  0
    9.2584    3.7869   79.6790 O   0  0  0  0  0  0  0  0  0  0  0  0
  2  1  1  6  0  0  0
  2  3  1  0  0  0  0
  2  6  1  0  0  0  0
  3  4  1  0  0  0  0
  3 16  1  0  0  0  0
  5 14  1  0  0  0  0
  6  7  1  0  0  0  0
  7  8  2  0  0  0  0
  7  9  1  0  0  0  0
  8 12  1  0  0  0  0
  9 10  2  0  0  0  0
  9 11  1  0  0  0  0
 10 13  1  0  0  0  0
 10 12  1  0  0  0  0
 11 14  2  0  0  0  0
 13 15  2  0  0  0  0
 14 15  1  0  0  0  0
M  END
>  <CHROM.1>
33.38451061,-100.58175254,85.51074518,7.92563864,3.18181190,82.43761395,0.51972455
0.94017426,0.34713448

>  <Name>
ligand

>  <RI>
0

>  <Rbt.Current_Directory>
/home/itssahil/PROJECTS/Mol_Feturizer/Test_systems_manuscript/rnas/5kpy

>  <Rbt.Executable>
rbdock ($Id: //depot/dev/client3/rdock/2013.1/src/exe/rbdock.cxx#4 $)

>  <Rbt.Library>
libRbt.so (2013.1, Build901 2013/11/27)

>  <Rbt.Parameter_File>
/export/apps/rDock/src/rDock_2013.1_src/data/scripts/dock_solv.prm

>  <Rbt.Receptor>
prm/pocket_docking_8.prm

>  <SCORE>
-17.0426

>  <SCORE.INTER>
-19.6401

>  <SCORE.INTER.CONST>
1

>  <SCORE.INTER.POLAR>
0

>  <SCORE.INTER.ROT>
3

>  <SCORE.INTER.SOLV>
9.11995

>  <SCORE.INTER.VDW>
-21.7334

>  <SCORE.INTER.norm>
-1.22751

>  <SCORE.INTRA>
2.5975

>  <SCORE.INTRA.DIHEDRAL>
4.43967

>  <SCORE.INTRA.DIHEDRAL.0>
3.89056

>  <SCORE.INTRA.POLAR>
0

>  <SCORE.INTRA.POLAR.0>
0

>  <SCORE.INTRA.REPUL>
0

>  <SCORE.INTRA.REPUL.0>
0

>  <SCORE.INTRA.SOLV>
-0.735032

>  <SCORE.INTRA.SOLV.lig_0>
-20.733

>  <SCORE.INTRA.VDW>
0.74518

>  <SCORE.INTRA.VDW.0>
-0.828515

>  <SCORE.INTRA.norm>
0.162344

>  <SCORE.RESTR>
0

>  <SCORE.RESTR.CAVITY>
0

>  <SCORE.RESTR.norm>
0

>  <SCORE.SYSTEM>
0

>  <SCORE.SYSTEM.CONST>
0

>  <SCORE.SYSTEM.DIHEDRAL>
0

>  <SCORE.SYSTEM.SOLV>
0

>  <SCORE.SYSTEM.norm>
0

>  <SCORE.heavy>
16

>  <SCORE.norm>
-1.06516

>  <RMSD>
3.716

$$$$
ligand
 OpenBabel02271912153D
libRbt.so/2013.1/901 2013/11/27
 16 17  0  0  0  0  0  0  0  0999 V2000
    9.4221    4.7975   80.2594 N   0  0  0  0  0  0  0  0  0  0  0  0
    8.3433    5.4108   80.9573 C   0  0  2  0  0  0  0  0  0  0  0  0
    8.7175    5.7649   82.3696 C   0  0  0  0  0  0  0  0  0  0  0  0
    9.7829    5.3125   82.8548 O   0  0  0  0  0  0  0  0  0  0  0  0
    5.7788    2.5076   86.0260 O   0  0  0  0  0  0  0  0  0  0  0  0
    7.1358    4.5047   80.9792 C   0  0  0  0  0  0  0  0  0  0  0  0
    7.4724    3.0743   81.3277 C   0  0  0  0  0  0  0  0  0  0  0  0
    8.1007    2.2068   80.5274 C   0  0  0  0  0  0  0  0  0  0  0  0
    7.1502    2.5332   82.6147 C   0  0  0  0  0  0  0  0  0  0  0  0
    7.6440    1.2009   82.5641 C   0  0  0  0  0  0  0  0  0  0  0  0
    6.5421    2.9895   83.7517 C   0  0  0  0  0  0  0  0  0  0  0  0
    8.2004    1.0864   81.2717 N   0  0  0  0  0  0  0  0  0  0  0  0
    7.5385    0.3393   83.5875 C   0  0  0  0  0  0  0  0  0  0  0  0
    6.4085    2.0838   84.8483 C   0  0  0  0  0  0  0  0  0  0  0  0
    6.9071    0.7354   84.7703 C   0  0  0  0  0  0  0  0  0  0  0  0
    7.9628    6.4890   83.0523 O   0  0  0  0  0  0  0  0  0  0  0  0
  2  1  1  1  0  0  0
  2  3  1  0  0  0  0
  2  6  1  0  0  0  0
  3  4  1  0  0  0  0
  3 16  1  0  0  0  0
  5 14  1  0  0  0  0
  6  7  1  0  0  0  0
  7  8  2  0  0  0  0
  7  9  1  0  0  0  0
  8 12  1  0  0  0  0
  9 10  2  0  0  0  0
  9 11  1  0  0  0  0
 10 13  1  0  0  0  0
 10 12  1  0  0  0  0
 11 14  2  0  0  0  0
 13 15  2  0  0  0  0
 14 15  1  0  0  0  0
M  END
>  <CHROM.1>
-11.80366962,45.42468899,-72.59217290,7.72142473,3.29780256,82.62930881,-0.45939261
-1.13403061,-2.70626406

>  <Name>
ligand

>  <RI>
0

>  <Rbt.Current_Directory>
/home/itssahil/PROJECTS/Mol_Feturizer/Test_systems_manuscript/rnas/5kpy

>  <Rbt.Executable>
rbdock ($Id: //depot/dev/client3/rdock/2013.1/src/exe/rbdock.cxx#4 $)

>  <Rbt.Library>
libRbt.so (2013.1, Build901 2013/11/27)

>  <Rbt.Parameter_File>
/export/apps/rDock/src/rDock_2013.1_src/data/scripts/dock_solv.prm

>  <Rbt.Receptor>
prm/blind_docking_100.prm

>  <SCORE>
-17.9488

>  <SCORE.INTER>
-17.8821

>  <SCORE.INTER.CONST>
1

>  <SCORE.INTER.POLAR>
0

>  <SCORE.INTER.ROT>
3

>  <SCORE.INTER.SOLV>
9.26432

>  <SCORE.INTER.VDW>
-20.6095

>  <SCORE.INTER.norm>
-1.11763

>  <SCORE.INTRA>
-0.0666943

>  <SCORE.INTRA.DIHEDRAL>
0.621668

>  <SCORE.INTRA.DIHEDRAL.0>
3.89056

>  <SCORE.INTRA.POLAR>
0

>  <SCORE.INTRA.POLAR.0>
0

>  <SCORE.INTRA.REPUL>
0

>  <SCORE.INTRA.REPUL.0>
0

>  <SCORE.INTRA.SOLV>
0.0400002

>  <SCORE.INTRA.SOLV.lig_0>
-20.733

>  <SCORE.INTRA.VDW>
-0.397528

>  <SCORE.INTRA.VDW.0>
-0.828515

>  <SCORE.INTRA.norm>
-0.0041684

>  <SCORE.RESTR>
0

>  <SCORE.RESTR.CAVITY>
0

>  <SCORE.RESTR.norm>
0

>  <SCORE.SYSTEM>
0

>  <SCORE.SYSTEM.CONST>
0

>  <SCORE.SYSTEM.DIHEDRAL>
0

>  <SCORE.SYSTEM.SOLV>
0

>  <SCORE.SYSTEM.norm>
0

>  <SCORE.heavy>
16

>  <SCORE.norm>
-1.1218

>  <RMSD>
3.717

$$$$
ligand
 OpenBabel02271912153D
libRbt.so/2013.1/901 2013/11/27
 16 17  0  0  0  0  0  0  0  0999 V2000
    6.9661    6.2065   80.2163 N   0  0  0  0  0  0  0  0  0  0  0  0
    6.7648    5.0408   81.0084 C   0  0  2  0  0  0  0  0  0  0  0  0
    6.5985    5.3737   82.4649 C   0  0  0  0  0  0  0  0  0  0  0  0
    7.5751    5.8331   83.1056 O   0  0  0  0  0  0  0  0  0  0  0  0
    6.6126    2.5843   86.0807 O   0  0  0  0  0  0  0  0  0  0  0  0
    7.9190    4.0802   80.8505 C   0  0  0  0  0  0  0  0  0  0  0  0
    7.5432    2.6468   81.1418 C   0  0  0  0  0  0  0  0  0  0  0  0
    7.5048    1.6559   80.2447 C   0  0  0  0  0  0  0  0  0  0  0  0
    7.2144    2.2259   82.4713 C   0  0  0  0  0  0  0  0  0  0  0  0
    6.9541    0.8344   82.3401 C   0  0  0  0  0  0  0  0  0  0  0  0
    7.1197    2.8219   83.6987 C   0  0  0  0  0  0  0  0  0  0  0  0
    7.1507    0.5731   80.9668 N   0  0  0  0  0  0  0  0  0  0  0  0
    6.6032    0.0524   83.3727 C   0  0  0  0  0  0  0  0  0  0  0  0
    6.7351    2.0094   84.8089 C   0  0  0  0  0  0  0  0  0  0  0  0
    6.4662    0.6039   84.6501 C   0  0  0  0  0  0  0  0  0  0  0  0
    5.5014    5.1772   83.0287 O   0  0  0  0  0  0  0  0  0  0  0  0
  2  1  1  6  0  0  0
  2  3  1  0  0  0  0
  2  6  1  0  0  0  0
  3  4  1  0  0  0  0
  3 16  1  0  0  0  0
  5 14  1  0  0  0  0
  6  7  1  0  0  0  0
  7  8  2  0  0  0  0
  7  9  1  0  0  0  0
  8 12  1  0  0  0  0
  9 10  2  0  0  0  0
  9 11  1  0  0  0  0
 10 13  1  0  0  0  0
 10 12  1  0  0  0  0
 11 14  2  0  0  0  0
 13 15  2  0  0  0  0
 14 15  1  0  0  0  0
M  END
>  <CHROM.1>
-67.58088971,-155.17290197,112.88923773,6.94013743,3.09826362,82.55571998
-1.35331207,-1.38298760,2.85128013

>  <Name>
ligand

>  <RI>
0

>  <Rbt.Current_Directory>
/home/itssahil/PROJECTS/Mol_Feturizer/Test_systems_manuscript/rnas/5kpy

>  <Rbt.Executable>
rbdock ($Id: //depot/dev/client3/rdock/2013.1/src/exe/rbdock.cxx#4 $)

>  <Rbt.Library>
libRbt.so (2013.1, Build901 2013/11/27)

>  <Rbt.Parameter_File>
/export/apps/rDock/src/rDock_2013.1_src/data/scripts/dock_solv.prm

>  <Rbt.Receptor>
prm/blind_docking_100.prm

>  <SCORE>
-16.0476

>  <SCORE.INTER>
-15.9743

>  <SCORE.INTER.CONST>
1

>  <SCORE.INTER.POLAR>
0

>  <SCORE.INTER.ROT>
3

>  <SCORE.INTER.SOLV>
11.6655

>  <SCORE.INTER.VDW>
-20.1381

>  <SCORE.INTER.norm>
-0.998396

>  <SCORE.INTRA>
-0.0735502

>  <SCORE.INTRA.DIHEDRAL>
2.00694

>  <SCORE.INTRA.DIHEDRAL.0>
3.89056

>  <SCORE.INTRA.POLAR>
0

>  <SCORE.INTRA.POLAR.0>
0

>  <SCORE.INTRA.REPUL>
0

>  <SCORE.INTRA.REPUL.0>
0

>  <SCORE.INTRA.SOLV>
-1.15818

>  <SCORE.INTRA.SOLV.lig_0>
-20.733

>  <SCORE.INTRA.VDW>
-0.497929

>  <SCORE.INTRA.VDW.0>
-0.828515

>  <SCORE.INTRA.norm>
-0.00459689

>  <SCORE.RESTR>
0.000299209

>  <SCORE.RESTR.CAVITY>
0.000299209

>  <SCORE.RESTR.norm>
1.87006e-05

>  <SCORE.SYSTEM>
0

>  <SCORE.SYSTEM.CONST>
0

>  <SCORE.SYSTEM.DIHEDRAL>
0

>  <SCORE.SYSTEM.SOLV>
0

>  <SCORE.SYSTEM.norm>
0

>  <SCORE.heavy>
16

>  <SCORE.norm>
-1.00297

>  <RMSD>
3.729

$$$$
ligand
 OpenBabel02271912153D
libRbt.so/2013.1/901 2013/11/27
 16 17  0  0  0  0  0  0  0  0999 V2000
    9.3771    4.5194   80.1187 N   0  0  0  0  0  0  0  0  0  0  0  0
    8.4201    5.1825   80.9380 C   0  0  2  0  0  0  0  0  0  0  0  0
    8.9165    5.3656   82.3451 C   0  0  0  0  0  0  0  0  0  0  0  0
   10.1460    5.2735   82.5798 O   0  0  0  0  0  0  0  0  0  0  0  0
    5.9598    2.5195   86.1033 O   0  0  0  0  0  0  0  0  0  0  0  0
    7.1195    4.4162   80.9694 C   0  0  0  0  0  0  0  0  0  0  0  0
    7.3015    2.9492   81.2786 C   0  0  0  0  0  0  0  0  0  0  0  0
    7.7442    2.0235   80.4213 C   0  0  0  0  0  0  0  0  0  0  0  0
    7.0254    2.4309   82.5856 C   0  0  0  0  0  0  0  0  0  0  0  0
    7.3408    1.0484   82.4840 C   0  0  0  0  0  0  0  0  0  0  0  0
    6.5797    2.9405   83.7740 C   0  0  0  0  0  0  0  0  0  0  0  0
    7.7652    0.8870   81.1473 N   0  0  0  0  0  0  0  0  0  0  0  0
    7.2157    0.1896   83.5076 C   0  0  0  0  0  0  0  0  0  0  0  0
    6.4275    2.0402   84.8727 C   0  0  0  0  0  0  0  0  0  0  0  0
    6.7433    0.6415   84.7434 C   0  0  0  0  0  0  0  0  0  0  0  0
    8.1061    5.5907   83.2685 O   0  0  0  0  0  0  0  0  0  0  0  0
  2  1  1  6  0  0  0
  2  3  1  0  0  0  0
  2  6  1  0  0  0  0
  3  4  1  0  0  0  0
  3 16  1  0  0  0  0
  5 14  1  0  0  0  0
  6  7  1  0  0  0  0
  7  8  2  0  0  0  0
  7  9  1  0  0  0  0
  8 12  1  0  0  0  0
  9 10  2  0  0  0  0
  9 11  1  0  0  0  0
 10 13  1  0  0  0  0
 10 12  1  0  0  0  0
 11 14  2  0  0  0  0
 13 15  2  0  0  0  0
 14 15  1  0  0  0  0
M  END
>  <CHROM.1>
18.31471371,49.77077145,-76.40967194,7.67782627,3.10216871,82.59142088,-0.02410872
-1.11906764,-2.30438839

>  <Name>
ligand

>  <RI>
0

>  <Rbt.Current_Directory>
/home/itssahil/PROJECTS/Mol_Feturizer/Test_systems_manuscript/rnas/5kpy

>  <Rbt.Executable>
rbdock ($Id: //depot/dev/client3/rdock/2013.1/src/exe/rbdock.cxx#4 $)

>  <Rbt.Library>
libRbt.so (2013.1, Build901 2013/11/27)

>  <Rbt.Parameter_File>
/export/apps/rDock/src/rDock_2013.1_src/data/scripts/dock_solv.prm

>  <Rbt.Receptor>
prm/blind_docking_100.prm

>  <SCORE>
-18.4245

>  <SCORE.INTER>
-18.4744

>  <SCORE.INTER.CONST>
1

>  <SCORE.INTER.POLAR>
0

>  <SCORE.INTER.ROT>
3

>  <SCORE.INTER.SOLV>
9.37353

>  <SCORE.INTER.VDW>
-21.0408

>  <SCORE.INTER.norm>
-1.15465

>  <SCORE.INTRA>
0.0465626

>  <SCORE.INTRA.DIHEDRAL>
0.250333

>  <SCORE.INTRA.DIHEDRAL.0>
3.89056

>  <SCORE.INTRA.POLAR>
0

>  <SCORE.INTRA.POLAR.0>
0

>  <SCORE.INTRA.REPUL>
0

>  <SCORE.INTRA.REPUL.0>
0

>  <SCORE.INTRA.SOLV>
-0.0312139

>  <SCORE.INTRA.SOLV.lig_0>
-20.733

>  <SCORE.INTRA.VDW>
-0.0629969

>  <SCORE.INTRA.VDW.0>
-0.828515

>  <SCORE.INTRA.norm>
0.00291016

>  <SCORE.RESTR>
0.00334943

>  <SCORE.RESTR.CAVITY>
0.00334943

>  <SCORE.RESTR.norm>
0.00020934

>  <SCORE.SYSTEM>
0

>  <SCORE.SYSTEM.CONST>
0

>  <SCORE.SYSTEM.DIHEDRAL>
0

>  <SCORE.SYSTEM.SOLV>
0

>  <SCORE.SYSTEM.norm>
0

>  <SCORE.heavy>
16

>  <SCORE.norm>
-1.15153

>  <RMSD>
3.787

$$$$
ligand
 OpenBabel02271912153D
libRbt.so/2013.1/901 2013/11/27
 16 17  0  0  0  0  0  0  0  0999 V2000
    7.4729    5.5196   83.2068 N   0  0  0  0  0  0  0  0  0  0  0  0
    8.4455    4.9834   82.3159 C   0  0  2  0  0  0  0  0  0  0  0  0
    9.3918    6.0392   81.8166 C   0  0  0  0  0  0  0  0  0  0  0  0
    9.0762    7.2490   81.9265 O   0  0  0  0  0  0  0  0  0  0  0  0
    6.3642    2.4071   86.1984 O   0  0  0  0  0  0  0  0  0  0  0  0
    7.7806    4.3182   81.1347 C   0  0  0  0  0  0  0  0  0  0  0  0
    7.5565    2.8381   81.3347 C   0  0  0  0  0  0  0  0  0  0  0  0
    7.6826    1.8987   80.3916 C   0  0  0  0  0  0  0  0  0  0  0  0
    7.2043    2.3124   82.6202 C   0  0  0  0  0  0  0  0  0  0  0  0
    7.1136    0.9096   82.4080 C   0  0  0  0  0  0  0  0  0  0  0  0
    6.9731    2.8273   83.8661 C   0  0  0  0  0  0  0  0  0  0  0  0
    7.4156    0.7459   81.0388 N   0  0  0  0  0  0  0  0  0  0  0  0
    6.7977    0.0389   83.3792 C   0  0  0  0  0  0  0  0  0  0  0  0
    6.6230    1.9185   84.9111 C   0  0  0  0  0  0  0  0  0  0  0  0
    6.5269    0.5023   84.6702 C   0  0  0  0  0  0  0  0  0  0  0  0
   10.4720    5.7078   81.2842 O   0  0  0  0  0  0  0  0  0  0  0  0
  2  1  1  1  0  0  0
  2  3  1  0  0  0  0
  2  6  1  0  0  0  0
  3  4  1  0  0  0  0
  3 16  1  0  0  0  0
  5 14  1  0  0  0  0
  6  7  1  0  0  0  0
  7  8  2  0  0  0  0
  7  9  1  0  0  0  0
  8 12  1  0  0  0  0
  9 10  2  0  0  0  0
  9 11  1  0  0  0  0
 10 13  1  0  0  0  0
 10 12  1  0  0  0  0
 11 14  2  0  0  0  0
 13 15  2  0  0  0  0
 14 15  1  0  0  0  0
M  END
>  <CHROM.1>
-17.27371840,-93.02232075,-142.19424277,7.73536077,3.27083722,82.65738336
0.31990425,1.11719255,0.80360011

>  <Name>
ligand

>  <RI>
0

>  <Rbt.Current_Directory>
/home/itssahil/PROJECTS/Mol_Feturizer/Test_systems_manuscript/rnas/5kpy

>  <Rbt.Executable>
rbdock ($Id: //depot/dev/client3/rdock/2013.1/src/exe/rbdock.cxx#4 $)

>  <Rbt.Library>
libRbt.so (2013.1, Build901 2013/11/27)

>  <Rbt.Parameter_File>
/export/apps/rDock/src/rDock_2013.1_src/data/scripts/dock_solv.prm

>  <Rbt.Receptor>
prm/pocket_docking_8.prm

>  <SCORE>
-18.1046

>  <SCORE.INTER>
-20.1879

>  <SCORE.INTER.CONST>
1

>  <SCORE.INTER.POLAR>
0

>  <SCORE.INTER.ROT>
3

>  <SCORE.INTER.SOLV>
5.25135

>  <SCORE.INTER.VDW>
-20.8091

>  <SCORE.INTER.norm>
-1.26175

>  <SCORE.INTRA>
2.08331

>  <SCORE.INTRA.DIHEDRAL>
3.31459

>  <SCORE.INTRA.DIHEDRAL.0>
3.89056

>  <SCORE.INTRA.POLAR>
0

>  <SCORE.INTRA.POLAR.0>
0

>  <SCORE.INTRA.REPUL>
0

>  <SCORE.INTRA.REPUL.0>
0

>  <SCORE.INTRA.SOLV>
0.273731

>  <SCORE.INTRA.SOLV.lig_0>
-20.733

>  <SCORE.INTRA.VDW>
0.289149

>  <SCORE.INTRA.VDW.0>
-0.828515

>  <SCORE.INTRA.norm>
0.130207

>  <SCORE.RESTR>
0

>  <SCORE.RESTR.CAVITY>
0

>  <SCORE.RESTR.norm>
0

>  <SCORE.SYSTEM>
0

>  <SCORE.SYSTEM.CONST>
0

>  <SCORE.SYSTEM.DIHEDRAL>
0

>  <SCORE.SYSTEM.SOLV>
0

>  <SCORE.SYSTEM.norm>
0

>  <SCORE.heavy>
16

>  <SCORE.norm>
-1.13154

>  <RMSD>
3.888

$$$$
ligand
 OpenBabel02271912153D
libRbt.so/2013.1/901 2013/11/27
 16 17  0  0  0  0  0  0  0  0999 V2000
    7.4753    5.5171   83.2066 N   0  0  0  0  0  0  0  0  0  0  0  0
    8.4383    4.9679   82.3133 C   0  0  2  0  0  0  0  0  0  0  0  0
    9.3943    6.0118   81.8075 C   0  0  0  0  0  0  0  0  0  0  0  0
   10.4646    5.6513   81.2599 O   0  0  0  0  0  0  0  0  0  0  0  0
    6.4434    2.4005   86.2284 O   0  0  0  0  0  0  0  0  0  0  0  0
    7.7614    4.3070   81.1365 C   0  0  0  0  0  0  0  0  0  0  0  0
    7.5267    2.8289   81.3391 C   0  0  0  0  0  0  0  0  0  0  0  0
    7.6212    1.8902   80.3916 C   0  0  0  0  0  0  0  0  0  0  0  0
    7.1991    2.3043   82.6315 C   0  0  0  0  0  0  0  0  0  0  0  0
    7.0889    0.9029   82.4191 C   0  0  0  0  0  0  0  0  0  0  0  0
    7.0023    2.8191   83.8833 C   0  0  0  0  0  0  0  0  0  0  0  0
    7.3573    0.7388   81.0428 N   0  0  0  0  0  0  0  0  0  0  0  0
    6.7868    0.0336   83.3958 C   0  0  0  0  0  0  0  0  0  0  0  0
    6.6672    1.9118   84.9346 C   0  0  0  0  0  0  0  0  0  0  0  0
    6.5508    0.4972   84.6935 C   0  0  0  0  0  0  0  0  0  0  0  0
    9.1271    7.2238   81.9489 O   0  0  0  0  0  0  0  0  0  0  0  0
  2  1  1  1  0  0  0
  2  3  1  0  0  0  0
  2  6  1  0  0  0  0
  3  4  1  0  0  0  0
  3 16  1  0  0  0  0
  5 14  1  0  0  0  0
  6  7  1  0  0  0  0
  7  8  2  0  0  0  0
  7  9  1  0  0  0  0
  8 12  1  0  0  0  0
  9 10  2  0  0  0  0
  9 11  1  0  0  0  0
 10 13  1  0  0  0  0
 10 12  1  0  0  0  0
 11 14  2  0  0  0  0
 13 15  2  0  0  0  0
 14 15  1  0  0  0  0
M  END
>  <CHROM.1>
164.25654174,-93.25380949,-143.21948744,7.73740418,3.25696558,82.66533204
0.27086367,1.12467874,0.85493999

>  <Name>
ligand

>  <RI>
0

>  <Rbt.Current_Directory>
/home/itssahil/PROJECTS/Mol_Feturizer/Test_systems_manuscript/rnas/5kpy

>  <Rbt.Executable>
rbdock ($Id: //depot/dev/client3/rdock/2013.1/src/exe/rbdock.cxx#4 $)

>  <Rbt.Library>
libRbt.so (2013.1, Build901 2013/11/27)

>  <Rbt.Parameter_File>
/export/apps/rDock/src/rDock_2013.1_src/data/scripts/dock_solv.prm

>  <Rbt.Receptor>
prm/pocket_docking_6.prm

>  <SCORE>
-18.0815

>  <SCORE.INTER>
-20.2278

>  <SCORE.INTER.CONST>
1

>  <SCORE.INTER.POLAR>
0

>  <SCORE.INTER.ROT>
3

>  <SCORE.INTER.SOLV>
5.24356

>  <SCORE.INTER.VDW>
-20.8331

>  <SCORE.INTER.norm>
-1.26424

>  <SCORE.INTRA>
2.14631

>  <SCORE.INTRA.DIHEDRAL>
3.40009

>  <SCORE.INTRA.DIHEDRAL.0>
3.89056

>  <SCORE.INTRA.POLAR>
0

>  <SCORE.INTRA.POLAR.0>
0

>  <SCORE.INTRA.REPUL>
0

>  <SCORE.INTRA.REPUL.0>
0

>  <SCORE.INTRA.SOLV>
0.264264

>  <SCORE.INTRA.SOLV.lig_0>
-20.733

>  <SCORE.INTRA.VDW>
0.314135

>  <SCORE.INTRA.VDW.0>
-0.828515

>  <SCORE.INTRA.norm>
0.134144

>  <SCORE.RESTR>
0

>  <SCORE.RESTR.CAVITY>
0

>  <SCORE.RESTR.norm>
0

>  <SCORE.SYSTEM>
0

>  <SCORE.SYSTEM.CONST>
0

>  <SCORE.SYSTEM.DIHEDRAL>
0

>  <SCORE.SYSTEM.SOLV>
0

>  <SCORE.SYSTEM.norm>
0

>  <SCORE.heavy>
16

>  <SCORE.norm>
-1.13009

>  <RMSD>
3.891

$$$$
ligand
 OpenBabel02271912153D
libRbt.so/2013.1/901 2013/11/27
 16 17  0  0  0  0  0  0  0  0999 V2000
    9.5655    4.2666   79.9233 N   0  0  0  0  0  0  0  0  0  0  0  0
    8.7662    5.0653   80.7894 C   0  0  2  0  0  0  0  0  0  0  0  0
    9.4114    5.2532   82.1341 C   0  0  0  0  0  0  0  0  0  0  0  0
    8.7139    5.6459   83.1008 O   0  0  0  0  0  0  0  0  0  0  0  0
    6.0275    2.6324   86.0892 O   0  0  0  0  0  0  0  0  0  0  0  0
    7.4013    4.4482   80.9789 C   0  0  0  0  0  0  0  0  0  0  0  0
    7.4544    2.9696   81.2816 C   0  0  0  0  0  0  0  0  0  0  0  0
    7.8263    2.0137   80.4237 C   0  0  0  0  0  0  0  0  0  0  0  0
    7.1207    2.4704   82.5825 C   0  0  0  0  0  0  0  0  0  0  0  0
    7.3186    1.0665   82.4764 C   0  0  0  0  0  0  0  0  0  0  0  0
    6.7068    3.0103   83.7691 C   0  0  0  0  0  0  0  0  0  0  0  0
    7.7425    0.8761   81.1434 N   0  0  0  0  0  0  0  0  0  0  0  0
    7.1095    0.2166   83.4936 C   0  0  0  0  0  0  0  0  0  0  0  0
    6.4664    2.1210   84.8609 C   0  0  0  0  0  0  0  0  0  0  0  0
    6.6635    0.7011   84.7269 C   0  0  0  0  0  0  0  0  0  0  0  0
   10.6329    5.0345   82.2763 O   0  0  0  0  0  0  0  0  0  0  0  0
  2  1  1  6  0  0  0
  2  3  1  0  0  0  0
  2  6  1  0  0  0  0
  3  4  1  0  0  0  0
  3 16  1  0  0  0  0
  5 14  1  0  0  0  0
  6  7  1  0  0  0  0
  7  8  2  0  0  0  0
  7  9  1  0  0  0  0
  8 12  1  0  0  0  0
  9 10  2  0  0  0  0
  9 11  1  0  0  0  0
 10 13  1  0  0  0  0
 10 12  1  0  0  0  0
 11 14  2  0  0  0  0
 13 15  2  0  0  0  0
 14 15  1  0  0  0  0
M  END
>  <CHROM.1>
-162.93858400,46.96692598,-68.97231816,7.86148886,3.08519411,82.51791412
0.09646131,-1.04009692,-2.21179071

>  <Name>
ligand

>  <RI>
0

>  <Rbt.Current_Directory>
/home/itssahil/PROJECTS/Mol_Feturizer/Test_systems_manuscript/rnas/5kpy

>  <Rbt.Executable>
rbdock ($Id: //depot/dev/client3/rdock/2013.1/src/exe/rbdock.cxx#4 $)

>  <Rbt.Library>
libRbt.so (2013.1, Build901 2013/11/27)

>  <Rbt.Parameter_File>
/export/apps/rDock/src/rDock_2013.1_src/data/scripts/dock_solv.prm

>  <Rbt.Receptor>
prm/blind_docking_100.prm

>  <SCORE>
-18.5291

>  <SCORE.INTER>
-18.9012

>  <SCORE.INTER.CONST>
1

>  <SCORE.INTER.POLAR>
0

>  <SCORE.INTER.ROT>
3

>  <SCORE.INTER.SOLV>
9.73424

>  <SCORE.INTER.VDW>
-21.4456

>  <SCORE.INTER.norm>
-1.18133

>  <SCORE.INTRA>
0.371227

>  <SCORE.INTRA.DIHEDRAL>
0.471654

>  <SCORE.INTRA.DIHEDRAL.0>
3.89056

>  <SCORE.INTRA.POLAR>
0

>  <SCORE.INTRA.POLAR.0>
0

>  <SCORE.INTRA.REPUL>
0

>  <SCORE.INTRA.REPUL.0>
0

>  <SCORE.INTRA.SOLV>
0.0287287

>  <SCORE.INTRA.SOLV.lig_0>
-20.733

>  <SCORE.INTRA.VDW>
0.121035

>  <SCORE.INTRA.VDW.0>
-0.828515

>  <SCORE.INTRA.norm>
0.0232017

>  <SCORE.RESTR>
0.000834685

>  <SCORE.RESTR.CAVITY>
0.000834685

>  <SCORE.RESTR.norm>
5.21678e-05

>  <SCORE.SYSTEM>
0

>  <SCORE.SYSTEM.CONST>
0

>  <SCORE.SYSTEM.DIHEDRAL>
0

>  <SCORE.SYSTEM.SOLV>
0

>  <SCORE.SYSTEM.norm>
0

>  <SCORE.heavy>
16

>  <SCORE.norm>
-1.15807

>  <RMSD>
3.933

$$$$
ligand
 OpenBabel02271912153D
libRbt.so/2013.1/901 2013/11/27
 16 17  0  0  0  0  0  0  0  0999 V2000
    9.5767    4.2559   79.8535 N   0  0  0  0  0  0  0  0  0  0  0  0
    8.8271    5.0555   80.7622 C   0  0  2  0  0  0  0  0  0  0  0  0
    9.5147    5.1881   82.0923 C   0  0  0  0  0  0  0  0  0  0  0  0
    8.8490    5.5424   83.0956 O   0  0  0  0  0  0  0  0  0  0  0  0
    6.0478    2.7018   86.0921 O   0  0  0  0  0  0  0  0  0  0  0  0
    7.4492    4.4757   80.9746 C   0  0  0  0  0  0  0  0  0  0  0  0
    7.4674    2.9967   81.2795 C   0  0  0  0  0  0  0  0  0  0  0  0
    7.8133    2.0308   80.4221 C   0  0  0  0  0  0  0  0  0  0  0  0
    7.1258    2.5078   82.5823 C   0  0  0  0  0  0  0  0  0  0  0  0
    7.2891    1.0994   82.4778 C   0  0  0  0  0  0  0  0  0  0  0  0
    6.7288    3.0595   83.7692 C   0  0  0  0  0  0  0  0  0  0  0  0
    7.7042    0.8966   81.1438 N   0  0  0  0  0  0  0  0  0  0  0  0
    7.0627    0.2563   83.4971 C   0  0  0  0  0  0  0  0  0  0  0  0
    6.4703    2.1780   84.8632 C   0  0  0  0  0  0  0  0  0  0  0  0
    6.6325    0.7535   84.7309 C   0  0  0  0  0  0  0  0  0  0  0  0
   10.7395    4.9620   82.1870 O   0  0  0  0  0  0  0  0  0  0  0  0
  2  1  1  6  0  0  0
  2  3  1  0  0  0  0
  2  6  1  0  0  0  0
  3  4  1  0  0  0  0
  3 16  1  0  0  0  0
  5 14  1  0  0  0  0
  6  7  1  0  0  0  0
  7  8  2  0  0  0  0
  7  9  1  0  0  0  0
  8 12  1  0  0  0  0
  9 10  2  0  0  0  0
  9 11  1  0  0  0  0
 10 13  1  0  0  0  0
 10 12  1  0  0  0  0
 11 14  2  0  0  0  0
 13 15  2  0  0  0  0
 14 15  1  0  0  0  0
M  END
>  <CHROM.1>
-161.07841338,48.72544587,-68.22619045,7.88801932,3.09307801,82.50244955
0.15700565,-1.01732989,-2.16903933

>  <Name>
ligand

>  <RI>
0

>  <Rbt.Current_Directory>
/home/itssahil/PROJECTS/Mol_Feturizer/Test_systems_manuscript/rnas/5kpy

>  <Rbt.Executable>
rbdock ($Id: //depot/dev/client3/rdock/2013.1/src/exe/rbdock.cxx#4 $)

>  <Rbt.Library>
libRbt.so (2013.1, Build901 2013/11/27)

>  <Rbt.Parameter_File>
/export/apps/rDock/src/rDock_2013.1_src/data/scripts/dock_solv.prm

>  <Rbt.Receptor>
prm/blind_docking_100.prm

>  <SCORE>
-18.5191

>  <SCORE.INTER>
-18.8227

>  <SCORE.INTER.CONST>
1

>  <SCORE.INTER.POLAR>
0

>  <SCORE.INTER.ROT>
3

>  <SCORE.INTER.SOLV>
9.87089

>  <SCORE.INTER.VDW>
-21.4388

>  <SCORE.INTER.norm>
-1.17642

>  <SCORE.INTRA>
0.302701

>  <SCORE.INTRA.DIHEDRAL>
0.311477

>  <SCORE.INTRA.DIHEDRAL.0>
3.89056

>  <SCORE.INTRA.POLAR>
0

>  <SCORE.INTRA.POLAR.0>
0

>  <SCORE.INTRA.REPUL>
0

>  <SCORE.INTRA.REPUL.0>
0

>  <SCORE.INTRA.SOLV>
0.0166555

>  <SCORE.INTRA.SOLV.lig_0>
-20.733

>  <SCORE.INTRA.VDW>
0.138634

>  <SCORE.INTRA.VDW.0>
-0.828515

>  <SCORE.INTRA.norm>
0.0189188

>  <SCORE.RESTR>
0.000958715

>  <SCORE.RESTR.CAVITY>
0.000958715

>  <SCORE.RESTR.norm>
5.99197e-05

>  <SCORE.SYSTEM>
0

>  <SCORE.SYSTEM.CONST>
0

>  <SCORE.SYSTEM.DIHEDRAL>
0

>  <SCORE.SYSTEM.SOLV>
0

>  <SCORE.SYSTEM.norm>
0

>  <SCORE.heavy>
16

>  <SCORE.norm>
-1.15744

>  <RMSD>
3.968

$$$$
ligand
 OpenBabel02271912153D
libRbt.so/2013.1/901 2013/11/27
 16 17  0  0  0  0  0  0  0  0999 V2000
    9.5237    4.1519   79.8584 N   0  0  0  0  0  0  0  0  0  0  0  0
    8.7993    4.9828   80.7594 C   0  0  2  0  0  0  0  0  0  0  0  0
    9.5144    5.1449   82.0717 C   0  0  0  0  0  0  0  0  0  0  0  0
   10.7550    4.9615   82.1223 O   0  0  0  0  0  0  0  0  0  0  0  0
    6.0117    2.5553   86.0967 O   0  0  0  0  0  0  0  0  0  0  0  0
    7.4209    4.4220   81.0144 C   0  0  0  0  0  0  0  0  0  0  0  0
    7.4250    2.9368   81.2884 C   0  0  0  0  0  0  0  0  0  0  0  0
    7.7596    1.9857   80.4102 C   0  0  0  0  0  0  0  0  0  0  0  0
    7.0810    2.4242   82.5813 C   0  0  0  0  0  0  0  0  0  0  0  0
    7.2301    1.0167   82.4471 C   0  0  0  0  0  0  0  0  0  0  0  0
    6.6918    2.9547   83.7804 C   0  0  0  0  0  0  0  0  0  0  0  0
    7.6405    0.8378   81.1083 N   0  0  0  0  0  0  0  0  0  0  0  0
    6.9972    0.1548   83.4490 C   0  0  0  0  0  0  0  0  0  0  0  0
    6.4266    2.0531   84.8562 C   0  0  0  0  0  0  0  0  0  0  0  0
    6.5743    0.6302   84.6939 C   0  0  0  0  0  0  0  0  0  0  0  0
    8.8713    5.4432   83.1001 O   0  0  0  0  0  0  0  0  0  0  0  0
  2  1  1  6  0  0  0
  2  3  1  0  0  0  0
  2  6  1  0  0  0  0
  3  4  1  0  0  0  0
  3 16  1  0  0  0  0
  5 14  1  0  0  0  0
  6  7  1  0  0  0  0
  7  8  2  0  0  0  0
  7  9  1  0  0  0  0
  8 12  1  0  0  0  0
  9 10  2  0  0  0  0
  9 11  1  0  0  0  0
 10 13  1  0  0  0  0
 10 12  1  0  0  0  0
 11 14  2  0  0  0  0
 13 15  2  0  0  0  0
 14 15  1  0  0  0  0
M  END
>  <CHROM.1>
22.83637605,45.72311489,-66.03825407,7.85379956,3.01182409,82.49093081,0.16387586
-1.01037686,-2.14244322

>  <Name>
ligand

>  <RI>
0

>  <Rbt.Current_Directory>
/home/itssahil/PROJECTS/Mol_Feturizer/Test_systems_manuscript/rnas/5kpy

>  <Rbt.Executable>
rbdock ($Id: //depot/dev/client3/rdock/2013.1/src/exe/rbdock.cxx#4 $)

>  <Rbt.Library>
libRbt.so (2013.1, Build901 2013/11/27)

>  <Rbt.Parameter_File>
/export/apps/rDock/src/rDock_2013.1_src/data/scripts/dock_solv.prm

>  <Rbt.Receptor>
prm/blind_docking_100.prm

>  <SCORE>
-18.4012

>  <SCORE.INTER>
-19.1164

>  <SCORE.INTER.CONST>
1

>  <SCORE.INTER.POLAR>
0

>  <SCORE.INTER.ROT>
3

>  <SCORE.INTER.SOLV>
9.91841

>  <SCORE.INTER.VDW>
-21.6504

>  <SCORE.INTER.norm>
-1.19478

>  <SCORE.INTRA>
0.715075

>  <SCORE.INTRA.DIHEDRAL>
0.664381

>  <SCORE.INTRA.DIHEDRAL.0>
3.89056

>  <SCORE.INTRA.POLAR>
0

>  <SCORE.INTRA.POLAR.0>
0

>  <SCORE.INTRA.REPUL>
0

>  <SCORE.INTRA.REPUL.0>
0

>  <SCORE.INTRA.SOLV>
0.0631043

>  <SCORE.INTRA.SOLV.lig_0>
-20.733

>  <SCORE.INTRA.VDW>
0.351332

>  <SCORE.INTRA.VDW.0>
-0.828515

>  <SCORE.INTRA.norm>
0.0446922

>  <SCORE.RESTR>
0.000138254

>  <SCORE.RESTR.CAVITY>
0.000138254

>  <SCORE.RESTR.norm>
8.64087e-06

>  <SCORE.SYSTEM>
0

>  <SCORE.SYSTEM.CONST>
0

>  <SCORE.SYSTEM.DIHEDRAL>
0

>  <SCORE.SYSTEM.SOLV>
0

>  <SCORE.SYSTEM.norm>
0

>  <SCORE.heavy>
16

>  <SCORE.norm>
-1.15007

>  <RMSD>
3.982

$$$$
ligand
 OpenBabel02271912153D
libRbt.so/2013.1/901 2013/11/27
 16 17  0  0  0  0  0  0  0  0999 V2000
    8.7910    4.6853   82.2358 N   0  0  0  0  0  0  0  0  0  0  0  0
    7.9700    4.8809   81.0892 C   0  0  2  0  0  0  0  0  0  0  0  0
    7.6303    6.3307   80.8828 C   0  0  0  0  0  0  0  0  0  0  0  0
    8.0350    7.1808   81.7127 O   0  0  0  0  0  0  0  0  0  0  0  0
    6.8663    2.2014   86.4689 O   0  0  0  0  0  0  0  0  0  0  0  0
    6.6914    4.0860   81.2042 C   0  0  0  0  0  0  0  0  0  0  0  0
    6.9264    2.6163   81.4602 C   0  0  0  0  0  0  0  0  0  0  0  0
    7.1205    1.6852   80.5204 C   0  0  0  0  0  0  0  0  0  0  0  0
    6.9889    2.1009   82.7956 C   0  0  0  0  0  0  0  0  0  0  0  0
    7.2482    0.7141   82.6201 C   0  0  0  0  0  0  0  0  0  0  0  0
    6.8714    2.6156   84.0573 C   0  0  0  0  0  0  0  0  0  0  0  0
    7.3118    0.5478   81.2197 N   0  0  0  0  0  0  0  0  0  0  0  0
    7.3788   -0.1438   83.6438 C   0  0  0  0  0  0  0  0  0  0  0  0
    6.9946    1.7166   85.1607 C   0  0  0  0  0  0  0  0  0  0  0  0
    7.2469    0.3137   84.9583 C   0  0  0  0  0  0  0  0  0  0  0  0
    6.9383    6.6760   79.9020 O   0  0  0  0  0  0  0  0  0  0  0  0
  2  1  1  1  0  0  0
  2  3  1  0  0  0  0
  2  6  1  0  0  0  0
  3  4  1  0  0  0  0
  3 16  1  0  0  0  0
  5 14  1  0  0  0  0
  6  7  1  0  0  0  0
  7  8  2  0  0  0  0
  7  9  1  0  0  0  0
  8 12  1  0  0  0  0
  9 10  2  0  0  0  0
  9 11  1  0  0  0  0
 10 13  1  0  0  0  0
 10 12  1  0  0  0  0
 11 14  2  0  0  0  0
 13 15  2  0  0  0  0
 14 15  1  0  0  0  0
M  END
>  <CHROM.1>
-2.35032033,-54.47556991,-87.04760776,7.32239262,3.15723932,82.47342651,-0.57023233
1.47729262,1.55919541

>  <Name>
ligand

>  <RI>
0

>  <Rbt.Current_Directory>
/home/itssahil/PROJECTS/Mol_Feturizer/Test_systems_manuscript/rnas/5kpy

>  <Rbt.Executable>
rbdock ($Id: //depot/dev/client3/rdock/2013.1/src/exe/rbdock.cxx#4 $)

>  <Rbt.Library>
libRbt.so (2013.1, Build901 2013/11/27)

>  <Rbt.Parameter_File>
/export/apps/rDock/src/rDock_2013.1_src/data/scripts/dock_solv.prm

>  <Rbt.Receptor>
prm/pocket_docking_5.prm

>  <SCORE>
-19.8196

>  <SCORE.INTER>
-19.9131

>  <SCORE.INTER.CONST>
1

>  <SCORE.INTER.POLAR>
0

>  <SCORE.INTER.ROT>
3

>  <SCORE.INTER.SOLV>
8.18512

>  <SCORE.INTER.VDW>
-21.6038

>  <SCORE.INTER.norm>
-1.24457

>  <SCORE.INTRA>
0.0935321

>  <SCORE.INTRA.DIHEDRAL>
-0.111144

>  <SCORE.INTRA.DIHEDRAL.0>
3.89056

>  <SCORE.INTRA.POLAR>
0

>  <SCORE.INTRA.POLAR.0>
0

>  <SCORE.INTRA.REPUL>
0

>  <SCORE.INTRA.REPUL.0>
0

>  <SCORE.INTRA.SOLV>
0.298711

>  <SCORE.INTRA.SOLV.lig_0>
-20.733

>  <SCORE.INTRA.VDW>
-0.000251476

>  <SCORE.INTRA.VDW.0>
-0.828515

>  <SCORE.INTRA.norm>
0.00584576

>  <SCORE.RESTR>
0

>  <SCORE.RESTR.CAVITY>
0

>  <SCORE.RESTR.norm>
0

>  <SCORE.SYSTEM>
0

>  <SCORE.SYSTEM.CONST>
0

>  <SCORE.SYSTEM.DIHEDRAL>
0

>  <SCORE.SYSTEM.SOLV>
0

>  <SCORE.SYSTEM.norm>
0

>  <SCORE.heavy>
16

>  <SCORE.norm>
-1.23872

>  <RMSD>
4.013

$$$$
ligand
 OpenBabel02271912153D
libRbt.so/2013.1/901 2013/11/27
 16 17  0  0  0  0  0  0  0  0999 V2000
    6.5714    3.9748   82.7451 N   0  0  0  0  0  0  0  0  0  0  0  0
    7.8776    3.8718   82.1880 C   0  0  2  0  0  0  0  0  0  0  0  0
    8.4087    5.2087   81.7518 C   0  0  0  0  0  0  0  0  0  0  0  0
    9.5789    5.5371   82.0651 O   0  0  0  0  0  0  0  0  0  0  0  0
    4.3667   -0.1324   77.9172 O   0  0  0  0  0  0  0  0  0  0  0  0
    7.8837    2.9296   81.0083 C   0  0  0  0  0  0  0  0  0  0  0  0
    7.6129    1.4944   81.3926 C   0  0  0  0  0  0  0  0  0  0  0  0
    8.1363    0.8604   82.4472 C   0  0  0  0  0  0  0  0  0  0  0  0
    6.7091    0.6846   80.6308 C   0  0  0  0  0  0  0  0  0  0  0  0
    6.7013   -0.5624   81.3136 C   0  0  0  0  0  0  0  0  0  0  0  0
    5.9366    0.8527   79.5147 C   0  0  0  0  0  0  0  0  0  0  0  0
    7.5882   -0.3709   82.3951 N   0  0  0  0  0  0  0  0  0  0  0  0
    5.9700   -1.6141   80.9135 C   0  0  0  0  0  0  0  0  0  0  0  0
    5.1603   -0.2589   79.0648 C   0  0  0  0  0  0  0  0  0  0  0  0
    5.1763   -1.5158   79.7668 C   0  0  0  0  0  0  0  0  0  0  0  0
    7.6815    5.9862   81.0984 O   0  0  0  0  0  0  0  0  0  0  0  0
  2  1  1  6  0  0  0
  2  3  1  0  0  0  0
  2  6  1  0  0  0  0
  3  4  1  0  0  0  0
  3 16  1  0  0  0  0
  5 14  1  0  0  0  0
  6  7  1  0  0  0  0
  7  8  2  0  0  0  0
  7  9  1  0  0  0  0
  8 12  1  0  0  0  0
  9 10  2  0  0  0  0
  9 11  1  0  0  0  0
 10 13  1  0  0  0  0
 10 12  1  0  0  0  0
 11 14  2  0  0  0  0
 13 15  2  0  0  0  0
 14 15  1  0  0  0  0
M  END
>  <CHROM.1>
133.41381819,-67.07353368,-42.97301800,6.98953909,1.82840940,81.01130156
-0.83820657,0.90358246,2.87909296

>  <Name>
ligand

>  <RI>
0

>  <Rbt.Current_Directory>
/home/itssahil/PROJECTS/Mol_Feturizer/Test_systems_manuscript/rnas/5kpy

>  <Rbt.Executable>
rbdock ($Id: //depot/dev/client3/rdock/2013.1/src/exe/rbdock.cxx#4 $)

>  <Rbt.Library>
libRbt.so (2013.1, Build901 2013/11/27)

>  <Rbt.Parameter_File>
/export/apps/rDock/src/rDock_2013.1_src/data/scripts/dock_solv.prm

>  <Rbt.Receptor>
prm/blind_docking_100.prm

>  <SCORE>
-11.7945

>  <SCORE.INTER>
-11.6619

>  <SCORE.INTER.CONST>
1

>  <SCORE.INTER.POLAR>
0

>  <SCORE.INTER.ROT>
3

>  <SCORE.INTER.SOLV>
10.0414

>  <SCORE.INTER.VDW>
-16.7218

>  <SCORE.INTER.norm>
-0.728872

>  <SCORE.INTRA>
-0.132576

>  <SCORE.INTRA.DIHEDRAL>
0.161464

>  <SCORE.INTRA.DIHEDRAL.0>
3.89056

>  <SCORE.INTRA.POLAR>
0

>  <SCORE.INTRA.POLAR.0>
0

>  <SCORE.INTRA.REPUL>
0

>  <SCORE.INTRA.REPUL.0>
0

>  <SCORE.INTRA.SOLV>
-0.377518

>  <SCORE.INTRA.SOLV.lig_0>
-20.733

>  <SCORE.INTRA.VDW>
-0.0245486

>  <SCORE.INTRA.VDW.0>
-0.828515

>  <SCORE.INTRA.norm>
-0.00828599

>  <SCORE.RESTR>
0

>  <SCORE.RESTR.CAVITY>
0

>  <SCORE.RESTR.norm>
0

>  <SCORE.SYSTEM>
0

>  <SCORE.SYSTEM.CONST>
0

>  <SCORE.SYSTEM.DIHEDRAL>
0

>  <SCORE.SYSTEM.SOLV>
0

>  <SCORE.SYSTEM.norm>
0

>  <SCORE.heavy>
16

>  <SCORE.norm>
-0.737158

>  <RMSD>
4.107

$$$$
ligand
 OpenBabel02271912153D
libRbt.so/2013.1/901 2013/11/27
 16 17  0  0  0  0  0  0  0  0999 V2000
    5.6504    4.6749   80.9286 N   0  0  0  0  0  0  0  0  0  0  0  0
    6.9277    5.0095   81.4610 C   0  0  2  0  0  0  0  0  0  0  0  0
    7.3479    6.4014   81.0792 C   0  0  0  0  0  0  0  0  0  0  0  0
    7.9624    7.1087   81.9143 O   0  0  0  0  0  0  0  0  0  0  0  0
    6.6950    2.4239   86.1939 O   0  0  0  0  0  0  0  0  0  0  0  0
    7.9769    4.0309   80.9907 C   0  0  0  0  0  0  0  0  0  0  0  0
    7.6067    2.5906   81.2539 C   0  0  0  0  0  0  0  0  0  0  0  0
    7.5679    1.6182   80.3369 C   0  0  0  0  0  0  0  0  0  0  0  0
    7.2841    2.1415   82.5758 C   0  0  0  0  0  0  0  0  0  0  0  0
    7.0276    0.7522   82.4169 C   0  0  0  0  0  0  0  0  0  0  0  0
    7.1923    2.7119   83.8155 C   0  0  0  0  0  0  0  0  0  0  0  0
    7.2198    0.5197   81.0378 N   0  0  0  0  0  0  0  0  0  0  0  0
    6.6830   -0.0519   83.4346 C   0  0  0  0  0  0  0  0  0  0  0  0
    6.8144    1.8756   84.9102 C   0  0  0  0  0  0  0  0  0  0  0  0
    6.5492    0.4728   84.7235 C   0  0  0  0  0  0  0  0  0  0  0  0
    7.0705    6.8484   79.9463 O   0  0  0  0  0  0  0  0  0  0  0  0
  2  1  1  6  0  0  0
  2  3  1  0  0  0  0
  2  6  1  0  0  0  0
  3  4  1  0  0  0  0
  3 16  1  0  0  0  0
  5 14  1  0  0  0  0
  6  7  1  0  0  0  0
  7  8  2  0  0  0  0
  7  9  1  0  0  0  0
  8 12  1  0  0  0  0
  9 10  2  0  0  0  0
  9 11  1  0  0  0  0
 10 13  1  0  0  0  0
 10 12  1  0  0  0  0
 11 14  2  0  0  0  0
 13 15  2  0  0  0  0
 14 15  1  0  0  0  0
M  END
>  <CHROM.1>
142.03495833,-52.90678996,125.65882939,7.10168525,3.21545292,82.29287381
-0.76348344,-1.47654673,-2.87482585

>  <Name>
ligand

>  <RI>
0

>  <Rbt.Current_Directory>
/home/itssahil/PROJECTS/Mol_Feturizer/Test_systems_manuscript/rnas/5kpy

>  <Rbt.Executable>
rbdock ($Id: //depot/dev/client3/rdock/2013.1/src/exe/rbdock.cxx#4 $)

>  <Rbt.Library>
libRbt.so (2013.1, Build901 2013/11/27)

>  <Rbt.Parameter_File>
/export/apps/rDock/src/rDock_2013.1_src/data/scripts/dock_solv.prm

>  <Rbt.Receptor>
prm/pocket_docking_7.prm

>  <SCORE>
-17.3244

>  <SCORE.INTER>
-17.1602

>  <SCORE.INTER.CONST>
1

>  <SCORE.INTER.POLAR>
0

>  <SCORE.INTER.ROT>
3

>  <SCORE.INTER.SOLV>
10.6129

>  <SCORE.INTER.VDW>
-20.5778

>  <SCORE.INTER.norm>
-1.07251

>  <SCORE.INTRA>
-0.16415

>  <SCORE.INTRA.DIHEDRAL>
0.0602535

>  <SCORE.INTRA.DIHEDRAL.0>
3.89056

>  <SCORE.INTRA.POLAR>
0

>  <SCORE.INTRA.POLAR.0>
0

>  <SCORE.INTRA.REPUL>
0

>  <SCORE.INTRA.REPUL.0>
0

>  <SCORE.INTRA.SOLV>
0.0191429

>  <SCORE.INTRA.SOLV.lig_0>
-20.733

>  <SCORE.INTRA.VDW>
-0.203848

>  <SCORE.INTRA.VDW.0>
-0.828515

>  <SCORE.INTRA.norm>
-0.0102594

>  <SCORE.RESTR>
0

>  <SCORE.RESTR.CAVITY>
0

>  <SCORE.RESTR.norm>
0

>  <SCORE.SYSTEM>
0

>  <SCORE.SYSTEM.CONST>
0

>  <SCORE.SYSTEM.DIHEDRAL>
0

>  <SCORE.SYSTEM.SOLV>
0

>  <SCORE.SYSTEM.norm>
0

>  <SCORE.heavy>
16

>  <SCORE.norm>
-1.08277

>  <RMSD>
4.127

$$$$
ligand
 OpenBabel02271912153D
libRbt.so/2013.1/901 2013/11/27
 16 17  0  0  0  0  0  0  0  0999 V2000
    5.5771    4.6810   80.9077 N   0  0  0  0  0  0  0  0  0  0  0  0
    6.8723    5.0119   81.3974 C   0  0  2  0  0  0  0  0  0  0  0  0
    7.2793    6.4063   81.0105 C   0  0  0  0  0  0  0  0  0  0  0  0
    7.8273    7.1456   81.8640 O   0  0  0  0  0  0  0  0  0  0  0  0
    6.5111    2.5615   86.0978 O   0  0  0  0  0  0  0  0  0  0  0  0
    7.9041    4.0364   80.8840 C   0  0  0  0  0  0  0  0  0  0  0  0
    7.5607    2.5963   81.1826 C   0  0  0  0  0  0  0  0  0  0  0  0
    7.5715    1.5952   80.2963 C   0  0  0  0  0  0  0  0  0  0  0  0
    7.2110    2.1809   82.5084 C   0  0  0  0  0  0  0  0  0  0  0  0
    6.9922    0.7814   82.3869 C   0  0  0  0  0  0  0  0  0  0  0  0
    7.0699    2.7872   83.7263 C   0  0  0  0  0  0  0  0  0  0  0  0
    7.2296    0.5108   81.0219 N   0  0  0  0  0  0  0  0  0  0  0  0
    6.6376    0.0012   83.4196 C   0  0  0  0  0  0  0  0  0  0  0  0
    6.6805    1.9764   84.8361 C   0  0  0  0  0  0  0  0  0  0  0  0
    6.4542    0.5624   84.6869 C   0  0  0  0  0  0  0  0  0  0  0  0
    7.0564    6.8235   79.8545 O   0  0  0  0  0  0  0  0  0  0  0  0
  2  1  1  6  0  0  0
  2  3  1  0  0  0  0
  2  6  1  0  0  0  0
  3  4  1  0  0  0  0
  3 16  1  0  0  0  0
  5 14  1  0  0  0  0
  6  7  1  0  0  0  0
  7  8  2  0  0  0  0
  7  9  1  0  0  0  0
  8 12  1  0  0  0  0
  9 10  2  0  0  0  0
  9 11  1  0  0  0  0
 10 13  1  0  0  0  0
 10 12  1  0  0  0  0
 11 14  2  0  0  0  0
 13 15  2  0  0  0  0
 14 15  1  0  0  0  0
M  END
>  <CHROM.1>
136.34035776,-54.43230098,130.50755665,7.02894724,3.24843825,82.23332727
-0.97819727,-1.44097895,-3.09282124

>  <Name>
ligand

>  <RI>
0

>  <Rbt.Current_Directory>
/home/itssahil/PROJECTS/Mol_Feturizer/Test_systems_manuscript/rnas/5kpy

>  <Rbt.Executable>
rbdock ($Id: //depot/dev/client3/rdock/2013.1/src/exe/rbdock.cxx#4 $)

>  <Rbt.Library>
libRbt.so (2013.1, Build901 2013/11/27)

>  <Rbt.Parameter_File>
/export/apps/rDock/src/rDock_2013.1_src/data/scripts/dock_solv.prm

>  <Rbt.Receptor>
prm/blind_docking_100.prm

>  <SCORE>
-17.2908

>  <SCORE.INTER>
-17.1131

>  <SCORE.INTER.CONST>
1

>  <SCORE.INTER.POLAR>
0

>  <SCORE.INTER.ROT>
3

>  <SCORE.INTER.SOLV>
10.7062

>  <SCORE.INTER.VDW>
-20.5775

>  <SCORE.INTER.norm>
-1.06957

>  <SCORE.INTRA>
-0.177632

>  <SCORE.INTRA.DIHEDRAL>
-0.037872

>  <SCORE.INTRA.DIHEDRAL.0>
3.89056

>  <SCORE.INTRA.POLAR>
0

>  <SCORE.INTRA.POLAR.0>
0

>  <SCORE.INTRA.REPUL>
0

>  <SCORE.INTRA.REPUL.0>
0

>  <SCORE.INTRA.SOLV>
0.0604796

>  <SCORE.INTRA.SOLV.lig_0>
-20.733

>  <SCORE.INTRA.VDW>
-0.188936

>  <SCORE.INTRA.VDW.0>
-0.828515

>  <SCORE.INTRA.norm>
-0.011102

>  <SCORE.RESTR>
0

>  <SCORE.RESTR.CAVITY>
0

>  <SCORE.RESTR.norm>
0

>  <SCORE.SYSTEM>
0

>  <SCORE.SYSTEM.CONST>
0

>  <SCORE.SYSTEM.DIHEDRAL>
0

>  <SCORE.SYSTEM.SOLV>
0

>  <SCORE.SYSTEM.norm>
0

>  <SCORE.heavy>
16

>  <SCORE.norm>
-1.08067

>  <RMSD>
4.158

$$$$
ligand
 OpenBabel02271912153D
libRbt.so/2013.1/901 2013/11/27
 16 17  0  0  0  0  0  0  0  0999 V2000
    8.0099    6.5326   81.6953 N   0  0  0  0  0  0  0  0  0  0  0  0
    8.2934    5.1381   81.7405 C   0  0  2  0  0  0  0  0  0  0  0  0
    9.6130    4.8125   81.0983 C   0  0  0  0  0  0  0  0  0  0  0  0
   10.6659    4.9085   81.7748 O   0  0  0  0  0  0  0  0  0  0  0  0
    6.0763    2.3277   86.1507 O   0  0  0  0  0  0  0  0  0  0  0  0
    7.2036    4.3477   81.0568 C   0  0  0  0  0  0  0  0  0  0  0  0
    7.3022    2.8614   81.3057 C   0  0  0  0  0  0  0  0  0  0  0  0
    7.6611    1.9443   80.4012 C   0  0  0  0  0  0  0  0  0  0  0  0
    7.0321    2.3106   82.6005 C   0  0  0  0  0  0  0  0  0  0  0  0
    7.2572    0.9163   82.4380 C   0  0  0  0  0  0  0  0  0  0  0  0
    6.6537    2.8000   83.8204 C   0  0  0  0  0  0  0  0  0  0  0  0
    7.6318    0.7812   81.0836 N   0  0  0  0  0  0  0  0  0  0  0  0
    7.1081    0.0276   83.4325 C   0  0  0  0  0  0  0  0  0  0  0  0
    6.4772    1.8688   84.8892 C   0  0  0  0  0  0  0  0  0  0  0  0
    6.7009    0.4594   84.6983 C   0  0  0  0  0  0  0  0  0  0  0  0
    9.6550    4.4665   79.8989 O   0  0  0  0  0  0  0  0  0  0  0  0
  2  1  1  6  0  0  0
  2  3  1  0  0  0  0
  2  6  1  0  0  0  0
  3  4  1  0  0  0  0
  3 16  1  0  0  0  0
  5 14  1  0  0  0  0
  6  7  1  0  0  0  0
  7  8  2  0  0  0  0
  7  9  1  0  0  0  0
  8 12  1  0  0  0  0
  9 10  2  0  0  0  0
  9 11  1  0  0  0  0
 10 13  1  0  0  0  0
 10 12  1  0  0  0  0
 11 14  2  0  0  0  0
 13 15  2  0  0  0  0
 14 15  1  0  0  0  0
M  END
>  <CHROM.1>
84.78620738,-168.60705615,-108.94825050,7.77071151,3.00139665,82.35878197
0.22741517,1.08861863,0.57877403

>  <Name>
ligand

>  <RI>
0

>  <Rbt.Current_Directory>
/home/itssahil/PROJECTS/Mol_Feturizer/Test_systems_manuscript/rnas/5kpy

>  <Rbt.Executable>
rbdock ($Id: //depot/dev/client3/rdock/2013.1/src/exe/rbdock.cxx#4 $)

>  <Rbt.Library>
libRbt.so (2013.1, Build901 2013/11/27)

>  <Rbt.Parameter_File>
/export/apps/rDock/src/rDock_2013.1_src/data/scripts/dock_solv.prm

>  <Rbt.Receptor>
prm/blind_docking_100.prm

>  <SCORE>
-20.5423

>  <SCORE.INTER>
-20.3324

>  <SCORE.INTER.CONST>
1

>  <SCORE.INTER.POLAR>
0

>  <SCORE.INTER.ROT>
3

>  <SCORE.INTER.SOLV>
7.15551

>  <SCORE.INTER.VDW>
-21.5401

>  <SCORE.INTER.norm>
-1.27078

>  <SCORE.INTRA>
-0.216631

>  <SCORE.INTRA.DIHEDRAL>
0.274042

>  <SCORE.INTRA.DIHEDRAL.0>
3.89056

>  <SCORE.INTRA.POLAR>
0

>  <SCORE.INTRA.POLAR.0>
0

>  <SCORE.INTRA.REPUL>
0

>  <SCORE.INTRA.REPUL.0>
0

>  <SCORE.INTRA.SOLV>
-1.17809

>  <SCORE.INTRA.SOLV.lig_0>
-20.733

>  <SCORE.INTRA.VDW>
0.235392

>  <SCORE.INTRA.VDW.0>
-0.828515

>  <SCORE.INTRA.norm>
-0.0135394

>  <SCORE.RESTR>
0.00671561

>  <SCORE.RESTR.CAVITY>
0.00671561

>  <SCORE.RESTR.norm>
0.000419725

>  <SCORE.SYSTEM>
0

>  <SCORE.SYSTEM.CONST>
0

>  <SCORE.SYSTEM.DIHEDRAL>
0

>  <SCORE.SYSTEM.SOLV>
0

>  <SCORE.SYSTEM.norm>
0

>  <SCORE.heavy>
16

>  <SCORE.norm>
-1.2839

>  <RMSD>
4.213

$$$$
ligand
 OpenBabel02271912153D
libRbt.so/2013.1/901 2013/11/27
 16 17  0  0  0  0  0  0  0  0999 V2000
    9.0950    6.7593   82.0312 N   0  0  0  0  0  0  0  0  0  0  0  0
    9.2134    5.3406   82.0087 C   0  0  2  0  0  0  0  0  0  0  0  0
   10.4302    4.8909   81.2493 C   0  0  0  0  0  0  0  0  0  0  0  0
   11.4617    4.5586   81.8825 O   0  0  0  0  0  0  0  0  0  0  0  0
    5.6852    2.4469   85.9624 O   0  0  0  0  0  0  0  0  0  0  0  0
    7.9869    4.7107   81.3933 C   0  0  0  0  0  0  0  0  0  0  0  0
    7.9526    3.2082   81.5418 C   0  0  0  0  0  0  0  0  0  0  0  0
    8.4501    2.3292   80.6655 C   0  0  0  0  0  0  0  0  0  0  0  0
    7.3816    2.5945   82.7038 C   0  0  0  0  0  0  0  0  0  0  0  0
    7.5640    1.2016   82.4853 C   0  0  0  0  0  0  0  0  0  0  0  0
    6.7750    3.0286   83.8503 C   0  0  0  0  0  0  0  0  0  0  0  0
    8.2142    1.1292   81.2344 N   0  0  0  0  0  0  0  0  0  0  0  0
    7.1583    0.2628   83.3542 C   0  0  0  0  0  0  0  0  0  0  0  0
    6.3243    2.0444   84.7824 C   0  0  0  0  0  0  0  0  0  0  0  0
    6.5107    0.6384   84.5349 C   0  0  0  0  0  0  0  0  0  0  0  0
   10.4129    4.8664   80.0006 O   0  0  0  0  0  0  0  0  0  0  0  0
  2  1  1  6  0  0  0
  2  3  1  0  0  0  0
  2  6  1  0  0  0  0
  3  4  1  0  0  0  0
  3 16  1  0  0  0  0
  5 14  1  0  0  0  0
  6  7  1  0  0  0  0
  7  8  2  0  0  0  0
  7  9  1  0  0  0  0
  8 12  1  0  0  0  0
  9 10  2  0  0  0  0
  9 11  1  0  0  0  0
 10 13  1  0  0  0  0
 10 12  1  0  0  0  0
 11 14  2  0  0  0  0
 13 15  2  0  0  0  0
 14 15  1  0  0  0  0
M  END
>  <CHROM.1>
100.06693332,-170.72534459,-90.80457347,8.23410186,3.21395944,82.45906264
0.34313484,0.88417298,0.41422333

>  <Name>
ligand

>  <RI>
0

>  <Rbt.Current_Directory>
/home/itssahil/PROJECTS/Mol_Feturizer/Test_systems_manuscript/rnas/5kpy

>  <Rbt.Executable>
rbdock ($Id: //depot/dev/client3/rdock/2013.1/src/exe/rbdock.cxx#4 $)

>  <Rbt.Library>
libRbt.so (2013.1, Build901 2013/11/27)

>  <Rbt.Parameter_File>
/export/apps/rDock/src/rDock_2013.1_src/data/scripts/dock_solv.prm

>  <Rbt.Receptor>
prm/pocket_docking_6.prm

>  <SCORE>
-20.9751

>  <SCORE.INTER>
-20.2638

>  <SCORE.INTER.CONST>
1

>  <SCORE.INTER.POLAR>
0

>  <SCORE.INTER.ROT>
3

>  <SCORE.INTER.SOLV>
8.86107

>  <SCORE.INTER.VDW>
-22.0629

>  <SCORE.INTER.norm>
-1.26648

>  <SCORE.INTRA>
-0.711352

>  <SCORE.INTRA.DIHEDRAL>
0.0734248

>  <SCORE.INTRA.DIHEDRAL.0>
3.89056

>  <SCORE.INTRA.POLAR>
0

>  <SCORE.INTRA.POLAR.0>
0

>  <SCORE.INTRA.REPUL>
0

>  <SCORE.INTRA.REPUL.0>
0

>  <SCORE.INTRA.SOLV>
-1.18791

>  <SCORE.INTRA.SOLV.lig_0>
-20.733

>  <SCORE.INTRA.VDW>
-0.154108

>  <SCORE.INTRA.VDW.0>
-0.828515

>  <SCORE.INTRA.norm>
-0.0444595

>  <SCORE.RESTR>
0

>  <SCORE.RESTR.CAVITY>
0

>  <SCORE.RESTR.norm>
0

>  <SCORE.SYSTEM>
0

>  <SCORE.SYSTEM.CONST>
0

>  <SCORE.SYSTEM.DIHEDRAL>
0

>  <SCORE.SYSTEM.SOLV>
0

>  <SCORE.SYSTEM.norm>
0

>  <SCORE.heavy>
16

>  <SCORE.norm>
-1.31094

>  <RMSD>
4.264

$$$$
ligand
 OpenBabel02271912153D
libRbt.so/2013.1/901 2013/11/27
 16 17  0  0  0  0  0  0  0  0999 V2000
    9.0754    6.7608   81.9894 N   0  0  0  0  0  0  0  0  0  0  0  0
    9.2324    5.3458   82.0073 C   0  0  2  0  0  0  0  0  0  0  0  0
   10.4579    4.9075   81.2553 C   0  0  0  0  0  0  0  0  0  0  0  0
   10.4383    4.8982   80.0004 O   0  0  0  0  0  0  0  0  0  0  0  0
    5.6184    2.4112   85.9380 O   0  0  0  0  0  0  0  0  0  0  0  0
    8.0210    4.6653   81.4163 C   0  0  0  0  0  0  0  0  0  0  0  0
    8.0351    3.1658   81.5960 C   0  0  0  0  0  0  0  0  0  0  0  0
    8.5994    2.2883   80.7597 C   0  0  0  0  0  0  0  0  0  0  0  0
    7.4398    2.5552   82.7474 C   0  0  0  0  0  0  0  0  0  0  0  0
    7.6813    1.1658   82.5668 C   0  0  0  0  0  0  0  0  0  0  0  0
    6.7716    2.9897   83.8589 C   0  0  0  0  0  0  0  0  0  0  0  0
    8.3842    1.0922   81.3448 N   0  0  0  0  0  0  0  0  0  0  0  0
    7.2748    0.2305   83.4390 C   0  0  0  0  0  0  0  0  0  0  0  0
    6.3193    2.0087   84.7936 C   0  0  0  0  0  0  0  0  0  0  0  0
    6.5664    0.6058   84.5844 C   0  0  0  0  0  0  0  0  0  0  0  0
   11.4760    4.5421   81.8799 O   0  0  0  0  0  0  0  0  0  0  0  0
  2  1  1  6  0  0  0
  2  3  1  0  0  0  0
  2  6  1  0  0  0  0
  3  4  1  0  0  0  0
  3 16  1  0  0  0  0
  5 14  1  0  0  0  0
  6  7  1  0  0  0  0
  7  8  2  0  0  0  0
  7  9  1  0  0  0  0
  8 12  1  0  0  0  0
  9 10  2  0  0  0  0
  9 11  1  0  0  0  0
 10 13  1  0  0  0  0
 10 12  1  0  0  0  0
 11 14  2  0  0  0  0
 13 15  2  0  0  0  0
 14 15  1  0  0  0  0
M  END
>  <CHROM.1>
-76.43315075,-171.30437957,-87.96494676,8.27951476,3.19136103,82.48765007
0.42511995,0.86296438,0.30659041

>  <Name>
ligand

>  <RI>
0

>  <Rbt.Current_Directory>
/home/itssahil/PROJECTS/Mol_Feturizer/Test_systems_manuscript/rnas/5kpy

>  <Rbt.Executable>
rbdock ($Id: //depot/dev/client3/rdock/2013.1/src/exe/rbdock.cxx#4 $)

>  <Rbt.Library>
libRbt.so (2013.1, Build901 2013/11/27)

>  <Rbt.Parameter_File>
/export/apps/rDock/src/rDock_2013.1_src/data/scripts/dock_solv.prm

>  <Rbt.Receptor>
prm/pocket_docking_8.prm

>  <SCORE>
-20.8756

>  <SCORE.INTER>
-20.144

>  <SCORE.INTER.CONST>
1

>  <SCORE.INTER.POLAR>
0

>  <SCORE.INTER.ROT>
3

>  <SCORE.INTER.SOLV>
8.9879

>  <SCORE.INTER.VDW>
-22.0253

>  <SCORE.INTER.norm>
-1.259

>  <SCORE.INTRA>
-0.731655

>  <SCORE.INTRA.DIHEDRAL>
0.0869951

>  <SCORE.INTRA.DIHEDRAL.0>
3.89056

>  <SCORE.INTRA.POLAR>
0

>  <SCORE.INTRA.POLAR.0>
0

>  <SCORE.INTRA.REPUL>
0

>  <SCORE.INTRA.REPUL.0>
0

>  <SCORE.INTRA.SOLV>
-1.19562

>  <SCORE.INTRA.SOLV.lig_0>
-20.733

>  <SCORE.INTRA.VDW>
-0.177345

>  <SCORE.INTRA.VDW.0>
-0.828515

>  <SCORE.INTRA.norm>
-0.0457284

>  <SCORE.RESTR>
0

>  <SCORE.RESTR.CAVITY>
0

>  <SCORE.RESTR.norm>
0

>  <SCORE.SYSTEM>
0

>  <SCORE.SYSTEM.CONST>
0

>  <SCORE.SYSTEM.DIHEDRAL>
0

>  <SCORE.SYSTEM.SOLV>
0

>  <SCORE.SYSTEM.norm>
0

>  <SCORE.heavy>
16

>  <SCORE.norm>
-1.30473

>  <RMSD>
4.268

$$$$
ligand
 OpenBabel02271912153D
libRbt.so/2013.1/901 2013/11/27
 16 17  0  0  0  0  0  0  0  0999 V2000
    9.0503    6.6896   82.0647 N   0  0  0  0  0  0  0  0  0  0  0  0
    9.1750    5.2729   81.9985 C   0  0  2  0  0  0  0  0  0  0  0  0
   10.3710    4.8518   81.1911 C   0  0  0  0  0  0  0  0  0  0  0  0
   11.4645    4.6487   81.7728 O   0  0  0  0  0  0  0  0  0  0  0  0
    5.7735    2.4342   86.0608 O   0  0  0  0  0  0  0  0  0  0  0  0
    7.9339    4.6536   81.4017 C   0  0  0  0  0  0  0  0  0  0  0  0
    7.8857    3.1521   81.5568 C   0  0  0  0  0  0  0  0  0  0  0  0
    8.3392    2.2640   80.6659 C   0  0  0  0  0  0  0  0  0  0  0  0
    7.3502    2.5495   82.7413 C   0  0  0  0  0  0  0  0  0  0  0  0
    7.5064    1.1537   82.5212 C   0  0  0  0  0  0  0  0  0  0  0  0
    6.7920    2.9950   83.9078 C   0  0  0  0  0  0  0  0  0  0  0  0
    8.1090    1.0689   81.2474 N   0  0  0  0  0  0  0  0  0  0  0  0
    7.1210    0.2229   83.4078 C   0  0  0  0  0  0  0  0  0  0  0  0
    6.3634    2.0197   84.8594 C   0  0  0  0  0  0  0  0  0  0  0  0
    6.5224    0.6106   84.6102 C   0  0  0  0  0  0  0  0  0  0  0  0
   10.2741    4.7233   79.9525 O   0  0  0  0  0  0  0  0  0  0  0  0
  2  1  1  6  0  0  0
  2  3  1  0  0  0  0
  2  6  1  0  0  0  0
  3  4  1  0  0  0  0
  3 16  1  0  0  0  0
  5 14  1  0  0  0  0
  6  7  1  0  0  0  0
  7  8  2  0  0  0  0
  7  9  1  0  0  0  0
  8 12  1  0  0  0  0
  9 10  2  0  0  0  0
  9 11  1  0  0  0  0
 10 13  1  0  0  0  0
 10 12  1  0  0  0  0
 11 14  2  0  0  0  0
 13 15  2  0  0  0  0
 14 15  1  0  0  0  0
M  END
>  <CHROM.1>
92.33134466,-168.45586803,-92.17508809,8.19784977,3.17081499,82.47428335
0.28743175,0.91368652,0.47264830

>  <Name>
ligand

>  <RI>
0

>  <Rbt.Current_Directory>
/home/itssahil/PROJECTS/Mol_Feturizer/Test_systems_manuscript/rnas/5kpy

>  <Rbt.Executable>
rbdock ($Id: //depot/dev/client3/rdock/2013.1/src/exe/rbdock.cxx#4 $)

>  <Rbt.Library>
libRbt.so (2013.1, Build901 2013/11/27)

>  <Rbt.Parameter_File>
/export/apps/rDock/src/rDock_2013.1_src/data/scripts/dock_solv.prm

>  <Rbt.Receptor>
prm/blind_docking_100.prm

>  <SCORE>
-20.8998

>  <SCORE.INTER>
-20.4652

>  <SCORE.INTER.CONST>
1

>  <SCORE.INTER.POLAR>
0

>  <SCORE.INTER.ROT>
3

>  <SCORE.INTER.SOLV>
8.6288

>  <SCORE.INTER.VDW>
-22.1197

>  <SCORE.INTER.norm>
-1.27907

>  <SCORE.INTRA>
-0.434576

>  <SCORE.INTRA.DIHEDRAL>
0.24528

>  <SCORE.INTRA.DIHEDRAL.0>
3.89056

>  <SCORE.INTRA.POLAR>
0

>  <SCORE.INTRA.POLAR.0>
0

>  <SCORE.INTRA.REPUL>
0

>  <SCORE.INTRA.REPUL.0>
0

>  <SCORE.INTRA.SOLV>
-1.18553

>  <SCORE.INTRA.SOLV.lig_0>
-20.733

>  <SCORE.INTRA.VDW>
0.0355486

>  <SCORE.INTRA.VDW.0>
-0.828515

>  <SCORE.INTRA.norm>
-0.027161

>  <SCORE.RESTR>
0

>  <SCORE.RESTR.CAVITY>
0

>  <SCORE.RESTR.norm>
0

>  <SCORE.SYSTEM>
0

>  <SCORE.SYSTEM.CONST>
0

>  <SCORE.SYSTEM.DIHEDRAL>
0

>  <SCORE.SYSTEM.SOLV>
0

>  <SCORE.SYSTEM.norm>
0

>  <SCORE.heavy>
16

>  <SCORE.norm>
-1.30623

>  <RMSD>
4.272

$$$$
ligand
 OpenBabel02271912153D
libRbt.so/2013.1/901 2013/11/27
 16 17  0  0  0  0  0  0  0  0999 V2000
    9.1426    6.7597   82.0420 N   0  0  0  0  0  0  0  0  0  0  0  0
    9.2675    5.3418   82.0122 C   0  0  2  0  0  0  0  0  0  0  0  0
   10.4762    4.9010   81.2346 C   0  0  0  0  0  0  0  0  0  0  0  0
   10.4226    4.8695   79.9811 O   0  0  0  0  0  0  0  0  0  0  0  0
    5.6627    2.4639   85.9527 O   0  0  0  0  0  0  0  0  0  0  0  0
    8.0359    4.7084   81.4107 C   0  0  0  0  0  0  0  0  0  0  0  0
    8.0032    3.2067   81.5671 C   0  0  0  0  0  0  0  0  0  0  0  0
    8.5182    2.3242   80.7045 C   0  0  0  0  0  0  0  0  0  0  0  0
    7.4142    2.5979   82.7227 C   0  0  0  0  0  0  0  0  0  0  0  0
    7.6043    1.2043   82.5154 C   0  0  0  0  0  0  0  0  0  0  0  0
    6.7868    3.0367   83.8562 C   0  0  0  0  0  0  0  0  0  0  0  0
    8.2760    1.1268   81.2762 N   0  0  0  0  0  0  0  0  0  0  0  0
    7.1864    0.2692   83.3825 C   0  0  0  0  0  0  0  0  0  0  0  0
    6.3231    2.0565   84.7861 C   0  0  0  0  0  0  0  0  0  0  0  0
    6.5176    0.6497   84.5498 C   0  0  0  0  0  0  0  0  0  0  0  0
   11.5141    4.5554   81.8374 O   0  0  0  0  0  0  0  0  0  0  0  0
  2  1  1  6  0  0  0
  2  3  1  0  0  0  0
  2  6  1  0  0  0  0
  3  4  1  0  0  0  0
  3 16  1  0  0  0  0
  5 14  1  0  0  0  0
  6  7  1  0  0  0  0
  7  8  2  0  0  0  0
  7  9  1  0  0  0  0
  8 12  1  0  0  0  0
  9 10  2  0  0  0  0
  9 11  1  0  0  0  0
 10 13  1  0  0  0  0
 10 12  1  0  0  0  0
 11 14  2  0  0  0  0
 13 15  2  0  0  0  0
 14 15  1  0  0  0  0
M  END
>  <CHROM.1>
-79.98559543,-170.07869279,-89.31662996,8.26704628,3.21773596,82.46689866
0.35848352,0.87375675,0.38610671

>  <Name>
ligand

>  <RI>
0

>  <Rbt.Current_Directory>
/home/itssahil/PROJECTS/Mol_Feturizer/Test_systems_manuscript/rnas/5kpy

>  <Rbt.Executable>
rbdock ($Id: //depot/dev/client3/rdock/2013.1/src/exe/rbdock.cxx#4 $)

>  <Rbt.Library>
libRbt.so (2013.1, Build901 2013/11/27)

>  <Rbt.Parameter_File>
/export/apps/rDock/src/rDock_2013.1_src/data/scripts/dock_solv.prm

>  <Rbt.Receptor>
prm/pocket_docking_6.prm

>  <SCORE>
-20.8308

>  <SCORE.INTER>
-20.2219

>  <SCORE.INTER.CONST>
1

>  <SCORE.INTER.POLAR>
0

>  <SCORE.INTER.ROT>
3

>  <SCORE.INTER.SOLV>
8.93045

>  <SCORE.INTER.VDW>
-22.0581

>  <SCORE.INTER.norm>
-1.26387

>  <SCORE.INTRA>
-0.608893

>  <SCORE.INTRA.DIHEDRAL>
0.175552

>  <SCORE.INTRA.DIHEDRAL.0>
3.89056

>  <SCORE.INTRA.POLAR>
0

>  <SCORE.INTRA.POLAR.0>
0

>  <SCORE.INTRA.REPUL>
0

>  <SCORE.INTRA.REPUL.0>
0

>  <SCORE.INTRA.SOLV>
-1.19501

>  <SCORE.INTRA.SOLV.lig_0>
-20.733

>  <SCORE.INTRA.VDW>
-0.0991658

>  <SCORE.INTRA.VDW.0>
-0.828515

>  <SCORE.INTRA.norm>
-0.0380558

>  <SCORE.RESTR>
0

>  <SCORE.RESTR.CAVITY>
0

>  <SCORE.RESTR.norm>
0

>  <SCORE.SYSTEM>
0

>  <SCORE.SYSTEM.CONST>
0

>  <SCORE.SYSTEM.DIHEDRAL>
0

>  <SCORE.SYSTEM.SOLV>
0

>  <SCORE.SYSTEM.norm>
0

>  <SCORE.heavy>
16

>  <SCORE.norm>
-1.30192

>  <RMSD>
4.277

$$$$
ligand
 OpenBabel02271912153D
libRbt.so/2013.1/901 2013/11/27
 16 17  0  0  0  0  0  0  0  0999 V2000
    9.0853    6.7509   81.9734 N   0  0  0  0  0  0  0  0  0  0  0  0
    9.2446    5.3362   81.9840 C   0  0  2  0  0  0  0  0  0  0  0  0
   10.4702    4.9037   81.2285 C   0  0  0  0  0  0  0  0  0  0  0  0
   10.4391    4.8707   79.9743 O   0  0  0  0  0  0  0  0  0  0  0  0
    5.6103    2.4695   85.9342 O   0  0  0  0  0  0  0  0  0  0  0  0
    8.0339    4.6565   81.3908 C   0  0  0  0  0  0  0  0  0  0  0  0
    8.0372    3.1591   81.5872 C   0  0  0  0  0  0  0  0  0  0  0  0
    8.5963    2.2684   80.7613 C   0  0  0  0  0  0  0  0  0  0  0  0
    7.4363    2.5655   82.7445 C   0  0  0  0  0  0  0  0  0  0  0  0
    7.6682    1.1725   82.5796 C   0  0  0  0  0  0  0  0  0  0  0  0
    6.7699    3.0169   83.8503 C   0  0  0  0  0  0  0  0  0  0  0  0
    8.3720    1.0804   81.3593 N   0  0  0  0  0  0  0  0  0  0  0  0
    7.2542    0.2497   83.4616 C   0  0  0  0  0  0  0  0  0  0  0  0
    6.3096    2.0495   84.7952 C   0  0  0  0  0  0  0  0  0  0  0  0
    6.5471    0.6427   84.6019 C   0  0  0  0  0  0  0  0  0  0  0  0
   11.4998    4.5664   81.8500 O   0  0  0  0  0  0  0  0  0  0  0  0
  2  1  1  6  0  0  0
  2  3  1  0  0  0  0
  2  6  1  0  0  0  0
  3  4  1  0  0  0  0
  3 16  1  0  0  0  0
  5 14  1  0  0  0  0
  6  7  1  0  0  0  0
  7  8  2  0  0  0  0
  7  9  1  0  0  0  0
  8 12  1  0  0  0  0
  9 10  2  0  0  0  0
  9 11  1  0  0  0  0
 10 13  1  0  0  0  0
 10 12  1  0  0  0  0
 11 14  2  0  0  0  0
 13 15  2  0  0  0  0
 14 15  1  0  0  0  0
M  END
>  <CHROM.1>
-78.08687023,-170.15730559,-88.35750716,8.27901438,3.19921595,82.48041271
0.41324537,0.86140744,0.30970704

>  <Name>
ligand

>  <RI>
0

>  <Rbt.Current_Directory>
/home/itssahil/PROJECTS/Mol_Feturizer/Test_systems_manuscript/rnas/5kpy

>  <Rbt.Executable>
rbdock ($Id: //depot/dev/client3/rdock/2013.1/src/exe/rbdock.cxx#4 $)

>  <Rbt.Library>
libRbt.so (2013.1, Build901 2013/11/27)

>  <Rbt.Parameter_File>
/export/apps/rDock/src/rDock_2013.1_src/data/scripts/dock_solv.prm

>  <Rbt.Receptor>
prm/blind_docking_100.prm

>  <SCORE>
-20.9071

>  <SCORE.INTER>
-20.2499

>  <SCORE.INTER.CONST>
1

>  <SCORE.INTER.POLAR>
0

>  <SCORE.INTER.ROT>
3

>  <SCORE.INTER.SOLV>
8.9813

>  <SCORE.INTER.VDW>
-22.0937

>  <SCORE.INTER.norm>
-1.26562

>  <SCORE.INTRA>
-0.65726

>  <SCORE.INTRA.DIHEDRAL>
0.168126

>  <SCORE.INTRA.DIHEDRAL.0>
3.89056

>  <SCORE.INTRA.POLAR>
0

>  <SCORE.INTRA.POLAR.0>
0

>  <SCORE.INTRA.REPUL>
0

>  <SCORE.INTRA.REPUL.0>
0

>  <SCORE.INTRA.SOLV>
-1.19496

>  <SCORE.INTRA.SOLV.lig_0>
-20.733

>  <SCORE.INTRA.VDW>
-0.143844

>  <SCORE.INTRA.VDW.0>
-0.828515

>  <SCORE.INTRA.norm>
-0.0410788

>  <SCORE.RESTR>
0

>  <SCORE.RESTR.CAVITY>
0

>  <SCORE.RESTR.norm>
0

>  <SCORE.SYSTEM>
0

>  <SCORE.SYSTEM.CONST>
0

>  <SCORE.SYSTEM.DIHEDRAL>
0

>  <SCORE.SYSTEM.SOLV>
0

>  <SCORE.SYSTEM.norm>
0

>  <SCORE.heavy>
16

>  <SCORE.norm>
-1.3067

>  <RMSD>
4.280

$$$$
ligand
 OpenBabel02271912153D
libRbt.so/2013.1/901 2013/11/27
 16 17  0  0  0  0  0  0  0  0999 V2000
    7.9447    6.2883   81.5036 N   0  0  0  0  0  0  0  0  0  0  0  0
    8.1587    4.8877   81.6433 C   0  0  2  0  0  0  0  0  0  0  0  0
    9.3820    4.4298   80.8994 C   0  0  0  0  0  0  0  0  0  0  0  0
    9.2624    3.9971   79.7273 O   0  0  0  0  0  0  0  0  0  0  0  0
    6.8511    2.1712   86.3958 O   0  0  0  0  0  0  0  0  0  0  0  0
    6.9615    4.1113   81.1496 C   0  0  0  0  0  0  0  0  0  0  0  0
    7.0743    2.6255   81.3952 C   0  0  0  0  0  0  0  0  0  0  0  0
    7.2197    1.6906   80.4503 C   0  0  0  0  0  0  0  0  0  0  0  0
    7.0614    2.0946   82.7259 C   0  0  0  0  0  0  0  0  0  0  0  0
    7.2162    0.6934   82.5417 C   0  0  0  0  0  0  0  0  0  0  0  0
    6.9515    2.6055   83.9899 C   0  0  0  0  0  0  0  0  0  0  0  0
    7.3033    0.5355   81.1416 N   0  0  0  0  0  0  0  0  0  0  0  0
    7.2527   -0.1813   83.5588 C   0  0  0  0  0  0  0  0  0  0  0  0
    6.9753    1.6897   85.0859 C   0  0  0  0  0  0  0  0  0  0  0  0
    7.1226    0.2732   84.8745 C   0  0  0  0  0  0  0  0  0  0  0  0
   10.5004    4.4673   81.4543 O   0  0  0  0  0  0  0  0  0  0  0  0
  2  1  1  6  0  0  0
  2  3  1  0  0  0  0
  2  6  1  0  0  0  0
  3  4  1  0  0  0  0
  3 16  1  0  0  0  0
  5 14  1  0  0  0  0
  6  7  1  0  0  0  0
  7  8  2  0  0  0  0
  7  9  1  0  0  0  0
  8 12  1  0  0  0  0
  9 10  2  0  0  0  0
  9 11  1  0  0  0  0
 10 13  1  0  0  0  0
 10 12  1  0  0  0  0
 11 14  2  0  0  0  0
 13 15  2  0  0  0  0
 14 15  1  0  0  0  0
M  END
>  <CHROM.1>
-93.57141356,-174.43272664,-111.62634041,7.76223763,2.73859878,82.37900033
-0.18765480,1.21672528,0.96479722

>  <Name>
ligand

>  <RI>
0

>  <Rbt.Current_Directory>
/home/itssahil/PROJECTS/Mol_Feturizer/Test_systems_manuscript/rnas/5kpy

>  <Rbt.Executable>
rbdock ($Id: //depot/dev/client3/rdock/2013.1/src/exe/rbdock.cxx#4 $)

>  <Rbt.Library>
libRbt.so (2013.1, Build901 2013/11/27)

>  <Rbt.Parameter_File>
/export/apps/rDock/src/rDock_2013.1_src/data/scripts/dock_solv.prm

>  <Rbt.Receptor>
prm/pocket_docking_7.prm

>  <SCORE>
-21.1216

>  <SCORE.INTER>
-20.7811

>  <SCORE.INTER.CONST>
1

>  <SCORE.INTER.POLAR>
0

>  <SCORE.INTER.ROT>
3

>  <SCORE.INTER.SOLV>
7.51363

>  <SCORE.INTER.VDW>
-21.9586

>  <SCORE.INTER.norm>
-1.29882

>  <SCORE.INTRA>
-0.34047

>  <SCORE.INTRA.DIHEDRAL>
-0.0218998

>  <SCORE.INTRA.DIHEDRAL.0>
3.89056

>  <SCORE.INTRA.POLAR>
0

>  <SCORE.INTRA.POLAR.0>
0

>  <SCORE.INTRA.REPUL>
0

>  <SCORE.INTRA.REPUL.0>
0

>  <SCORE.INTRA.SOLV>
-1.19058

>  <SCORE.INTRA.SOLV.lig_0>
-20.733

>  <SCORE.INTRA.VDW>
0.265771

>  <SCORE.INTRA.VDW.0>
-0.828515

>  <SCORE.INTRA.norm>
-0.0212794

>  <SCORE.RESTR>
0

>  <SCORE.RESTR.CAVITY>
0

>  <SCORE.RESTR.norm>
0

>  <SCORE.SYSTEM>
0

>  <SCORE.SYSTEM.CONST>
0

>  <SCORE.SYSTEM.DIHEDRAL>
0

>  <SCORE.SYSTEM.SOLV>
0

>  <SCORE.SYSTEM.norm>
0

>  <SCORE.heavy>
16

>  <SCORE.norm>
-1.3201

>  <RMSD>
4.282

$$$$
ligand
 OpenBabel02271912153D
libRbt.so/2013.1/901 2013/11/27
 16 17  0  0  0  0  0  0  0  0999 V2000
    9.1368    6.7438   82.0042 N   0  0  0  0  0  0  0  0  0  0  0  0
    9.2720    5.3265   81.9932 C   0  0  2  0  0  0  0  0  0  0  0  0
   10.4844    4.8842   81.2223 C   0  0  0  0  0  0  0  0  0  0  0  0
   11.5269    4.5676   81.8453 O   0  0  0  0  0  0  0  0  0  0  0  0
    5.6274    2.4606   85.9319 O   0  0  0  0  0  0  0  0  0  0  0  0
    8.0454    4.6763   81.3994 C   0  0  0  0  0  0  0  0  0  0  0  0
    8.0252    3.1762   81.5728 C   0  0  0  0  0  0  0  0  0  0  0  0
    8.5614    2.2890   80.7282 C   0  0  0  0  0  0  0  0  0  0  0  0
    7.4251    2.5750   82.7267 C   0  0  0  0  0  0  0  0  0  0  0  0
    7.6318    1.1810   82.5384 C   0  0  0  0  0  0  0  0  0  0  0  0
    6.7768    3.0205   83.8456 C   0  0  0  0  0  0  0  0  0  0  0  0
    8.3226    1.0959   81.3102 N   0  0  0  0  0  0  0  0  0  0  0  0
    7.2104    0.2519   83.4101 C   0  0  0  0  0  0  0  0  0  0  0  0
    6.3089    2.0465   84.7799 C   0  0  0  0  0  0  0  0  0  0  0  0
    6.5207    0.6390   84.5630 C   0  0  0  0  0  0  0  0  0  0  0  0
   10.4522    4.8504   79.9741 O   0  0  0  0  0  0  0  0  0  0  0  0
  2  1  1  6  0  0  0
  2  3  1  0  0  0  0
  2  6  1  0  0  0  0
  3  4  1  0  0  0  0
  3 16  1  0  0  0  0
  5 14  1  0  0  0  0
  6  7  1  0  0  0  0
  7  8  2  0  0  0  0
  7  9  1  0  0  0  0
  8 12  1  0  0  0  0
  9 10  2  0  0  0  0
  9 11  1  0  0  0  0
 10 13  1  0  0  0  0
 10 12  1  0  0  0  0
 11 14  2  0  0  0  0
 13 15  2  0  0  0  0
 14 15  1  0  0  0  0
M  END
>  <CHROM.1>
100.20668296,-170.21553480,-88.44535825,8.27773700,3.20038391,82.46707203
0.38018666,0.86452545,0.35441209

>  <Name>
ligand

>  <RI>
0

>  <Rbt.Current_Directory>
/home/itssahil/PROJECTS/Mol_Feturizer/Test_systems_manuscript/rnas/5kpy

>  <Rbt.Executable>
rbdock ($Id: //depot/dev/client3/rdock/2013.1/src/exe/rbdock.cxx#4 $)

>  <Rbt.Library>
libRbt.so (2013.1, Build901 2013/11/27)

>  <Rbt.Parameter_File>
/export/apps/rDock/src/rDock_2013.1_src/data/scripts/dock_solv.prm

>  <Rbt.Receptor>
prm/pocket_docking_7.prm

>  <SCORE>
-20.9175

>  <SCORE.INTER>
-20.2274

>  <SCORE.INTER.CONST>
1

>  <SCORE.INTER.POLAR>
0

>  <SCORE.INTER.ROT>
3

>  <SCORE.INTER.SOLV>
8.99126

>  <SCORE.INTER.VDW>
-22.082

>  <SCORE.INTER.norm>
-1.26421

>  <SCORE.INTRA>
-0.690086

>  <SCORE.INTRA.DIHEDRAL>
0.109633

>  <SCORE.INTRA.DIHEDRAL.0>
3.89056

>  <SCORE.INTRA.POLAR>
0

>  <SCORE.INTRA.POLAR.0>
0

>  <SCORE.INTRA.REPUL>
0

>  <SCORE.INTRA.REPUL.0>
0

>  <SCORE.INTRA.SOLV>
-1.18842

>  <SCORE.INTRA.SOLV.lig_0>
-20.733

>  <SCORE.INTRA.VDW>
-0.150691

>  <SCORE.INTRA.VDW.0>
-0.828515

>  <SCORE.INTRA.norm>
-0.0431304

>  <SCORE.RESTR>
0

>  <SCORE.RESTR.CAVITY>
0

>  <SCORE.RESTR.norm>
0

>  <SCORE.SYSTEM>
0

>  <SCORE.SYSTEM.CONST>
0

>  <SCORE.SYSTEM.DIHEDRAL>
0

>  <SCORE.SYSTEM.SOLV>
0

>  <SCORE.SYSTEM.norm>
0

>  <SCORE.heavy>
16

>  <SCORE.norm>
-1.30734

>  <RMSD>
4.284

$$$$
ligand
 OpenBabel02271912153D
libRbt.so/2013.1/901 2013/11/27
 16 17  0  0  0  0  0  0  0  0999 V2000
    9.1719    6.7308   82.0243 N   0  0  0  0  0  0  0  0  0  0  0  0
    9.2622    5.3106   81.9808 C   0  0  2  0  0  0  0  0  0  0  0  0
   10.4478    4.8478   81.1808 C   0  0  0  0  0  0  0  0  0  0  0  0
   11.5151    4.5592   81.7748 O   0  0  0  0  0  0  0  0  0  0  0  0
    5.7139    2.4755   85.9805 O   0  0  0  0  0  0  0  0  0  0  0  0
    8.0066    4.7120   81.3934 C   0  0  0  0  0  0  0  0  0  0  0  0
    7.9418    3.2099   81.5352 C   0  0  0  0  0  0  0  0  0  0  0  0
    8.4093    2.3248   80.6486 C   0  0  0  0  0  0  0  0  0  0  0  0
    7.3723    2.6029   82.7015 C   0  0  0  0  0  0  0  0  0  0  0  0
    7.5219    1.2075   82.4742 C   0  0  0  0  0  0  0  0  0  0  0  0
    6.7895    3.0441   83.8575 C   0  0  0  0  0  0  0  0  0  0  0  0
    8.1548    1.1274   81.2148 N   0  0  0  0  0  0  0  0  0  0  0  0
    7.1070    0.2732   83.3436 C   0  0  0  0  0  0  0  0  0  0  0  0
    6.3295    2.0652   84.7907 C   0  0  0  0  0  0  0  0  0  0  0  0
    6.4824    0.6568   84.5342 C   0  0  0  0  0  0  0  0  0  0  0  0
   10.3691    4.7695   79.9367 O   0  0  0  0  0  0  0  0  0  0  0  0
  2  1  1  6  0  0  0
  2  3  1  0  0  0  0
  2  6  1  0  0  0  0
  3  4  1  0  0  0  0
  3 16  1  0  0  0  0
  5 14  1  0  0  0  0
  6  7  1  0  0  0  0
  7  8  2  0  0  0  0
  7  9  1  0  0  0  0
  8 12  1  0  0  0  0
  9 10  2  0  0  0  0
  9 11  1  0  0  0  0
 10 13  1  0  0  0  0
 10 12  1  0  0  0  0
 11 14  2  0  0  0  0
 13 15  2  0  0  0  0
 14 15  1  0  0  0  0
M  END
>  <CHROM.1>
96.10654123,-170.20416340,-90.07344773,8.23420394,3.20697893,82.43818517
0.29725525,0.88907096,0.45448261

>  <Name>
ligand

>  <RI>
0

>  <Rbt.Current_Directory>
/home/itssahil/PROJECTS/Mol_Feturizer/Test_systems_manuscript/rnas/5kpy

>  <Rbt.Executable>
rbdock ($Id: //depot/dev/client3/rdock/2013.1/src/exe/rbdock.cxx#4 $)

>  <Rbt.Library>
libRbt.so (2013.1, Build901 2013/11/27)

>  <Rbt.Parameter_File>
/export/apps/rDock/src/rDock_2013.1_src/data/scripts/dock_solv.prm

>  <Rbt.Receptor>
prm/blind_docking_100.prm

>  <SCORE>
-20.9229

>  <SCORE.INTER>
-20.3299

>  <SCORE.INTER.CONST>
1

>  <SCORE.INTER.POLAR>
0

>  <SCORE.INTER.ROT>
3

>  <SCORE.INTER.SOLV>
8.89332

>  <SCORE.INTER.VDW>
-22.1177

>  <SCORE.INTER.norm>
-1.27062

>  <SCORE.INTRA>
-0.593029

>  <SCORE.INTRA.DIHEDRAL>
0.107601

>  <SCORE.INTRA.DIHEDRAL.0>
3.89056

>  <SCORE.INTRA.POLAR>
0

>  <SCORE.INTRA.POLAR.0>
0

>  <SCORE.INTRA.REPUL>
0

>  <SCORE.INTRA.REPUL.0>
0

>  <SCORE.INTRA.SOLV>
-1.18808

>  <SCORE.INTRA.SOLV.lig_0>
-20.733

>  <SCORE.INTRA.VDW>
-0.0527923

>  <SCORE.INTRA.VDW.0>
-0.828515

>  <SCORE.INTRA.norm>
-0.0370643

>  <SCORE.RESTR>
0

>  <SCORE.RESTR.CAVITY>
0

>  <SCORE.RESTR.norm>
0

>  <SCORE.SYSTEM>
0

>  <SCORE.SYSTEM.CONST>
0

>  <SCORE.SYSTEM.DIHEDRAL>
0

>  <SCORE.SYSTEM.SOLV>
0

>  <SCORE.SYSTEM.norm>
0

>  <SCORE.heavy>
16

>  <SCORE.norm>
-1.30768

>  <RMSD>
4.291

$$$$
ligand
 OpenBabel02271912153D
libRbt.so/2013.1/901 2013/11/27
 16 17  0  0  0  0  0  0  0  0999 V2000
    7.8730    6.2738   81.4939 N   0  0  0  0  0  0  0  0  0  0  0  0
    8.1152    4.8754   81.6065 C   0  0  2  0  0  0  0  0  0  0  0  0
    9.3197    4.4488   80.8146 C   0  0  0  0  0  0  0  0  0  0  0  0
    9.1604    3.9556   79.6715 O   0  0  0  0  0  0  0  0  0  0  0  0
    6.8455    2.1770   86.4021 O   0  0  0  0  0  0  0  0  0  0  0  0
    6.9150    4.0851   81.1434 C   0  0  0  0  0  0  0  0  0  0  0  0
    7.0457    2.6022   81.3979 C   0  0  0  0  0  0  0  0  0  0  0  0
    7.1984    1.6631   80.4584 C   0  0  0  0  0  0  0  0  0  0  0  0
    7.0436    2.0797   82.7321 C   0  0  0  0  0  0  0  0  0  0  0  0
    7.2138    0.6792   82.5561 C   0  0  0  0  0  0  0  0  0  0  0  0
    6.9323    2.5973   83.9932 C   0  0  0  0  0  0  0  0  0  0  0  0
    7.2977    0.5133   81.1567 N   0  0  0  0  0  0  0  0  0  0  0  0
    7.2639   -0.1886   83.5785 C   0  0  0  0  0  0  0  0  0  0  0  0
    6.9705    1.6888   85.0949 C   0  0  0  0  0  0  0  0  0  0  0  0
    7.1333    0.2727   84.8918 C   0  0  0  0  0  0  0  0  0  0  0  0
   10.4629    4.5720   81.3023 O   0  0  0  0  0  0  0  0  0  0  0  0
  2  1  1  6  0  0  0
  2  3  1  0  0  0  0
  2  6  1  0  0  0  0
  3  4  1  0  0  0  0
  3 16  1  0  0  0  0
  5 14  1  0  0  0  0
  6  7  1  0  0  0  0
  7  8  2  0  0  0  0
  7  9  1  0  0  0  0
  8 12  1  0  0  0  0
  9 10  2  0  0  0  0
  9 11  1  0  0  0  0
 10 13  1  0  0  0  0
 10 12  1  0  0  0  0
 11 14  2  0  0  0  0
 13 15  2  0  0  0  0
 14 15  1  0  0  0  0
M  END
>  <CHROM.1>
-97.78266682,-172.88653555,-110.63993428,7.73268440,2.73446829,82.36119722
-0.16676954,1.22879456,0.93325884

>  <Name>
ligand

>  <RI>
0

>  <Rbt.Current_Directory>
/home/itssahil/PROJECTS/Mol_Feturizer/Test_systems_manuscript/rnas/5kpy

>  <Rbt.Executable>
rbdock ($Id: //depot/dev/client3/rdock/2013.1/src/exe/rbdock.cxx#4 $)

>  <Rbt.Library>
libRbt.so (2013.1, Build901 2013/11/27)

>  <Rbt.Parameter_File>
/export/apps/rDock/src/rDock_2013.1_src/data/scripts/dock_solv.prm

>  <Rbt.Receptor>
prm/pocket_docking_8.prm

>  <SCORE>
-21.0829

>  <SCORE.INTER>
-20.9275

>  <SCORE.INTER.CONST>
1

>  <SCORE.INTER.POLAR>
0

>  <SCORE.INTER.ROT>
3

>  <SCORE.INTER.SOLV>
7.53268

>  <SCORE.INTER.VDW>
-22.0626

>  <SCORE.INTER.norm>
-1.30797

>  <SCORE.INTRA>
-0.155452

>  <SCORE.INTRA.DIHEDRAL>
0.045937

>  <SCORE.INTRA.DIHEDRAL.0>
3.89056

>  <SCORE.INTRA.POLAR>
0

>  <SCORE.INTRA.POLAR.0>
0

>  <SCORE.INTRA.REPUL>
0

>  <SCORE.INTRA.REPUL.0>
0

>  <SCORE.INTRA.SOLV>
-1.1899

>  <SCORE.INTRA.SOLV.lig_0>
-20.733

>  <SCORE.INTRA.VDW>
0.416529

>  <SCORE.INTRA.VDW.0>
-0.828515

>  <SCORE.INTRA.norm>
-0.00971574

>  <SCORE.RESTR>
0

>  <SCORE.RESTR.CAVITY>
0

>  <SCORE.RESTR.norm>
0

>  <SCORE.SYSTEM>
0

>  <SCORE.SYSTEM.CONST>
0

>  <SCORE.SYSTEM.DIHEDRAL>
0

>  <SCORE.SYSTEM.SOLV>
0

>  <SCORE.SYSTEM.norm>
0

>  <SCORE.heavy>
16

>  <SCORE.norm>
-1.31768

>  <RMSD>
4.300

$$$$
ligand
 OpenBabel02271912153D
libRbt.so/2013.1/901 2013/11/27
 16 17  0  0  0  0  0  0  0  0999 V2000
    7.9544    6.2253   81.4537 N   0  0  0  0  0  0  0  0  0  0  0  0
    8.1648    4.8248   81.6000 C   0  0  2  0  0  0  0  0  0  0  0  0
    9.3748    4.3567   80.8408 C   0  0  0  0  0  0  0  0  0  0  0  0
   10.5051    4.4272   81.3819 O   0  0  0  0  0  0  0  0  0  0  0  0
    6.8830    2.1684   86.3982 O   0  0  0  0  0  0  0  0  0  0  0  0
    6.9571    4.0500   81.1301 C   0  0  0  0  0  0  0  0  0  0  0  0
    7.0644    2.5664   81.3911 C   0  0  0  0  0  0  0  0  0  0  0  0
    7.1967    1.6204   80.4554 C   0  0  0  0  0  0  0  0  0  0  0  0
    7.0606    2.0503   82.7277 C   0  0  0  0  0  0  0  0  0  0  0  0
    7.2066    0.6464   82.5577 C   0  0  0  0  0  0  0  0  0  0  0  0
    6.9644    2.5757   83.9869 C   0  0  0  0  0  0  0  0  0  0  0  0
    7.2805    0.4725   81.1587 N   0  0  0  0  0  0  0  0  0  0  0  0
    7.2475   -0.2173   83.5840 C   0  0  0  0  0  0  0  0  0  0  0  0
    6.9932    1.6719   85.0927 C   0  0  0  0  0  0  0  0  0  0  0  0
    7.1313    0.2524   84.8957 C   0  0  0  0  0  0  0  0  0  0  0  0
    9.2508    3.9184   79.6777 O   0  0  0  0  0  0  0  0  0  0  0  0
  2  1  1  6  0  0  0
  2  3  1  0  0  0  0
  2  6  1  0  0  0  0
  3  4  1  0  0  0  0
  3 16  1  0  0  0  0
  5 14  1  0  0  0  0
  6  7  1  0  0  0  0
  7  8  2  0  0  0  0
  7  9  1  0  0  0  0
  8 12  1  0  0  0  0
  9 10  2  0  0  0  0
  9 11  1  0  0  0  0
 10 13  1  0  0  0  0
 10 12  1  0  0  0  0
 11 14  2  0  0  0  0
 13 15  2  0  0  0  0
 14 15  1  0  0  0  0
M  END
>  <CHROM.1>
85.69339795,-174.12248180,-111.41090665,7.76242399,2.69042349,82.36439506
-0.21826779,1.21638011,0.98337825

>  <Name>
ligand

>  <RI>
0

>  <Rbt.Current_Directory>
/home/itssahil/PROJECTS/Mol_Feturizer/Test_systems_manuscript/rnas/5kpy

>  <Rbt.Executable>
rbdock ($Id: //depot/dev/client3/rdock/2013.1/src/exe/rbdock.cxx#4 $)

>  <Rbt.Library>
libRbt.so (2013.1, Build901 2013/11/27)

>  <Rbt.Parameter_File>
/export/apps/rDock/src/rDock_2013.1_src/data/scripts/dock_solv.prm

>  <Rbt.Receptor>
prm/pocket_docking_6.prm

>  <SCORE>
-21.2326

>  <SCORE.INTER>
-20.8075

>  <SCORE.INTER.CONST>
1

>  <SCORE.INTER.POLAR>
0

>  <SCORE.INTER.ROT>
3

>  <SCORE.INTER.SOLV>
7.65728

>  <SCORE.INTER.VDW>
-22.0241

>  <SCORE.INTER.norm>
-1.30047

>  <SCORE.INTRA>
-0.425082

>  <SCORE.INTRA.DIHEDRAL>
-0.0726869

>  <SCORE.INTRA.DIHEDRAL.0>
3.89056

>  <SCORE.INTRA.POLAR>
0

>  <SCORE.INTRA.POLAR.0>
0

>  <SCORE.INTRA.REPUL>
0

>  <SCORE.INTRA.REPUL.0>
0

>  <SCORE.INTRA.SOLV>
-1.18164

>  <SCORE.INTRA.SOLV.lig_0>
-20.733

>  <SCORE.INTRA.VDW>
0.202081

>  <SCORE.INTRA.VDW.0>
-0.828515

>  <SCORE.INTRA.norm>
-0.0265676

>  <SCORE.RESTR>
0

>  <SCORE.RESTR.CAVITY>
0

>  <SCORE.RESTR.norm>
0

>  <SCORE.SYSTEM>
0

>  <SCORE.SYSTEM.CONST>
0

>  <SCORE.SYSTEM.DIHEDRAL>
0

>  <SCORE.SYSTEM.SOLV>
0

>  <SCORE.SYSTEM.norm>
0

>  <SCORE.heavy>
16

>  <SCORE.norm>
-1.32704

>  <RMSD>
4.312

$$$$
ligand
 OpenBabel02271912153D
libRbt.so/2013.1/901 2013/11/27
 16 17  0  0  0  0  0  0  0  0999 V2000
    9.2090    6.7610   81.9532 N   0  0  0  0  0  0  0  0  0  0  0  0
    9.3132    5.3411   81.9380 C   0  0  2  0  0  0  0  0  0  0  0  0
   10.4940    4.8736   81.1338 C   0  0  0  0  0  0  0  0  0  0  0  0
   10.4108    4.8413   79.8818 O   0  0  0  0  0  0  0  0  0  0  0  0
    5.7183    2.5768   85.9874 O   0  0  0  0  0  0  0  0  0  0  0  0
    8.0570    4.7181   81.3781 C   0  0  0  0  0  0  0  0  0  0  0  0
    8.0057    3.2195   81.5582 C   0  0  0  0  0  0  0  0  0  0  0  0
    8.4959    2.3169   80.7021 C   0  0  0  0  0  0  0  0  0  0  0  0
    7.4249    2.6369   82.7313 C   0  0  0  0  0  0  0  0  0  0  0  0
    7.5926    1.2377   82.5428 C   0  0  0  0  0  0  0  0  0  0  0  0
    6.8201    3.1017   83.8666 C   0  0  0  0  0  0  0  0  0  0  0  0
    8.2454    1.1318   81.2956 N   0  0  0  0  0  0  0  0  0  0  0  0
    7.1744    0.3219   83.4301 C   0  0  0  0  0  0  0  0  0  0  0  0
    6.3562    2.1424   84.8180 C   0  0  0  0  0  0  0  0  0  0  0  0
    6.5278    0.7295   84.6007 C   0  0  0  0  0  0  0  0  0  0  0  0
   11.5381    4.5071   81.7132 O   0  0  0  0  0  0  0  0  0  0  0  0
  2  1  1  6  0  0  0
  2  3  1  0  0  0  0
  2  6  1  0  0  0  0
  3  4  1  0  0  0  0
  3 16  1  0  0  0  0
  5 14  1  0  0  0  0
  6  7  1  0  0  0  0
  7  8  2  0  0  0  0
  7  9  1  0  0  0  0
  8 12  1  0  0  0  0
  9 10  2  0  0  0  0
  9 11  1  0  0  0  0
 10 13  1  0  0  0  0
 10 12  1  0  0  0  0
 11 14  2  0  0  0  0
 13 15  2  0  0  0  0
 14 15  1  0  0  0  0
M  END
>  <CHROM.1>
-79.21711316,-169.90434170,-88.64871071,8.28227575,3.24050170,82.44492130
0.33097510,0.88320972,0.38735480

>  <Name>
ligand

>  <RI>
0

>  <Rbt.Current_Directory>
/home/itssahil/PROJECTS/Mol_Feturizer/Test_systems_manuscript/rnas/5kpy

>  <Rbt.Executable>
rbdock ($Id: //depot/dev/client3/rdock/2013.1/src/exe/rbdock.cxx#4 $)

>  <Rbt.Library>
libRbt.so (2013.1, Build901 2013/11/27)

>  <Rbt.Parameter_File>
/export/apps/rDock/src/rDock_2013.1_src/data/scripts/dock_solv.prm

>  <Rbt.Receptor>
prm/blind_docking_100.prm

>  <SCORE>
-20.8428

>  <SCORE.INTER>
-20.222

>  <SCORE.INTER.CONST>
1

>  <SCORE.INTER.POLAR>
0

>  <SCORE.INTER.ROT>
3

>  <SCORE.INTER.SOLV>
8.99577

>  <SCORE.INTER.VDW>
-22.0799

>  <SCORE.INTER.norm>
-1.26387

>  <SCORE.INTRA>
-0.620863

>  <SCORE.INTRA.DIHEDRAL>
0.187918

>  <SCORE.INTRA.DIHEDRAL.0>
3.89056

>  <SCORE.INTRA.POLAR>
0

>  <SCORE.INTRA.POLAR.0>
0

>  <SCORE.INTRA.REPUL>
0

>  <SCORE.INTRA.REPUL.0>
0

>  <SCORE.INTRA.SOLV>
-1.19492

>  <SCORE.INTRA.SOLV.lig_0>
-20.733

>  <SCORE.INTRA.VDW>
-0.117363

>  <SCORE.INTRA.VDW.0>
-0.828515

>  <SCORE.INTRA.norm>
-0.0388039

>  <SCORE.RESTR>
0

>  <SCORE.RESTR.CAVITY>
0

>  <SCORE.RESTR.norm>
0

>  <SCORE.SYSTEM>
0

>  <SCORE.SYSTEM.CONST>
0

>  <SCORE.SYSTEM.DIHEDRAL>
0

>  <SCORE.SYSTEM.SOLV>
0

>  <SCORE.SYSTEM.norm>
0

>  <SCORE.heavy>
16

>  <SCORE.norm>
-1.30268

>  <RMSD>
4.317

$$$$
ligand
 OpenBabel02271912153D
libRbt.so/2013.1/901 2013/11/27
 16 17  0  0  0  0  0  0  0  0999 V2000
    9.2561    6.7086   82.0054 N   0  0  0  0  0  0  0  0  0  0  0  0
    9.2973    5.2872   81.9365 C   0  0  2  0  0  0  0  0  0  0  0  0
   10.4522    4.7987   81.1073 C   0  0  0  0  0  0  0  0  0  0  0  0
   10.3664    4.8294   79.8556 O   0  0  0  0  0  0  0  0  0  0  0  0
    5.9476    2.5608   86.0827 O   0  0  0  0  0  0  0  0  0  0  0  0
    8.0120    4.7414   81.3622 C   0  0  0  0  0  0  0  0  0  0  0  0
    7.8901    3.2422   81.4974 C   0  0  0  0  0  0  0  0  0  0  0  0
    8.2545    2.3466   80.5737 C   0  0  0  0  0  0  0  0  0  0  0  0
    7.3769    2.6488   82.6963 C   0  0  0  0  0  0  0  0  0  0  0  0
    7.4478    1.2506   82.4490 C   0  0  0  0  0  0  0  0  0  0  0  0
    6.8966    3.1034   83.8936 C   0  0  0  0  0  0  0  0  0  0  0  0
    7.9869    1.1557   81.1477 N   0  0  0  0  0  0  0  0  0  0  0  0
    7.0532    0.3266   83.3386 C   0  0  0  0  0  0  0  0  0  0  0  0
    6.4596    2.1361   84.8496 C   0  0  0  0  0  0  0  0  0  0  0  0
    6.5311    0.7250   84.5728 C   0  0  0  0  0  0  0  0  0  0  0  0
   11.4769    4.3531   81.6656 O   0  0  0  0  0  0  0  0  0  0  0  0
  2  1  1  6  0  0  0
  2  3  1  0  0  0  0
  2  6  1  0  0  0  0
  3  4  1  0  0  0  0
  3 16  1  0  0  0  0
  5 14  1  0  0  0  0
  6  7  1  0  0  0  0
  7  8  2  0  0  0  0
  7  9  1  0  0  0  0
  8 12  1  0  0  0  0
  9 10  2  0  0  0  0
  9 11  1  0  0  0  0
 10 13  1  0  0  0  0
 10 12  1  0  0  0  0
 11 14  2  0  0  0  0
 13 15  2  0  0  0  0
 14 15  1  0  0  0  0
M  END
>  <CHROM.1>
-78.52178942,-169.40403394,-93.38502111,8.24353530,3.22294675,82.41599628
0.19087652,0.92397193,0.56108108

>  <Name>
ligand

>  <RI>
0

>  <Rbt.Current_Directory>
/home/itssahil/PROJECTS/Mol_Feturizer/Test_systems_manuscript/rnas/5kpy

>  <Rbt.Executable>
rbdock ($Id: //depot/dev/client3/rdock/2013.1/src/exe/rbdock.cxx#4 $)

>  <Rbt.Library>
libRbt.so (2013.1, Build901 2013/11/27)

>  <Rbt.Parameter_File>
/export/apps/rDock/src/rDock_2013.1_src/data/scripts/dock_solv.prm

>  <Rbt.Receptor>
prm/blind_docking_100.prm

>  <SCORE>
-20.8445

>  <SCORE.INTER>
-20.2107

>  <SCORE.INTER.CONST>
1

>  <SCORE.INTER.POLAR>
0

>  <SCORE.INTER.ROT>
3

>  <SCORE.INTER.SOLV>
8.74908

>  <SCORE.INTER.VDW>
-21.9902

>  <SCORE.INTER.norm>
-1.26317

>  <SCORE.INTRA>
-0.633828

>  <SCORE.INTRA.DIHEDRAL>
0.227632

>  <SCORE.INTRA.DIHEDRAL.0>
3.89056

>  <SCORE.INTRA.POLAR>
0

>  <SCORE.INTRA.POLAR.0>
0

>  <SCORE.INTRA.REPUL>
0

>  <SCORE.INTRA.REPUL.0>
0

>  <SCORE.INTRA.SOLV>
-1.19227

>  <SCORE.INTRA.SOLV.lig_0>
-20.733

>  <SCORE.INTRA.VDW>
-0.151508

>  <SCORE.INTRA.VDW.0>
-0.828515

>  <SCORE.INTRA.norm>
-0.0396142

>  <SCORE.RESTR>
0

>  <SCORE.RESTR.CAVITY>
0

>  <SCORE.RESTR.norm>
0

>  <SCORE.SYSTEM>
0

>  <SCORE.SYSTEM.CONST>
0

>  <SCORE.SYSTEM.DIHEDRAL>
0

>  <SCORE.SYSTEM.SOLV>
0

>  <SCORE.SYSTEM.norm>
0

>  <SCORE.heavy>
16

>  <SCORE.norm>
-1.30278

>  <RMSD>
4.324

$$$$
ligand
 OpenBabel02271912153D
libRbt.so/2013.1/901 2013/11/27
 16 17  0  0  0  0  0  0  0  0999 V2000
    8.0277    6.2555   81.4015 N   0  0  0  0  0  0  0  0  0  0  0  0
    8.2163    4.8541   81.5666 C   0  0  2  0  0  0  0  0  0  0  0  0
    9.3982    4.3510   80.7856 C   0  0  0  0  0  0  0  0  0  0  0  0
    9.2272    3.9282   79.6163 O   0  0  0  0  0  0  0  0  0  0  0  0
    6.8393    2.1838   86.3966 O   0  0  0  0  0  0  0  0  0  0  0  0
    6.9834    4.0939   81.1401 C   0  0  0  0  0  0  0  0  0  0  0  0
    7.0835    2.6086   81.3943 C   0  0  0  0  0  0  0  0  0  0  0  0
    7.2247    1.6674   80.4551 C   0  0  0  0  0  0  0  0  0  0  0  0
    7.0618    2.0853   82.7279 C   0  0  0  0  0  0  0  0  0  0  0  0
    7.2060    0.6819   82.5520 C   0  0  0  0  0  0  0  0  0  0  0  0
    6.9515    2.6040   83.9887 C   0  0  0  0  0  0  0  0  0  0  0  0
    7.2967    0.5155   81.1531 N   0  0  0  0  0  0  0  0  0  0  0  0
    7.2320   -0.1874   83.5740 C   0  0  0  0  0  0  0  0  0  0  0  0
    6.9642    1.6941   85.0898 C   0  0  0  0  0  0  0  0  0  0  0  0
    7.1009    0.2754   84.8867 C   0  0  0  0  0  0  0  0  0  0  0  0
   10.5330    4.3418   81.3075 O   0  0  0  0  0  0  0  0  0  0  0  0
  2  1  1  6  0  0  0
  2  3  1  0  0  0  0
  2  6  1  0  0  0  0
  3  4  1  0  0  0  0
  3 16  1  0  0  0  0
  5 14  1  0  0  0  0
  6  7  1  0  0  0  0
  7  8  2  0  0  0  0
  7  9  1  0  0  0  0
  8 12  1  0  0  0  0
  9 10  2  0  0  0  0
  9 11  1  0  0  0  0
 10 13  1  0  0  0  0
 10 12  1  0  0  0  0
 11 14  2  0  0  0  0
 13 15  2  0  0  0  0
 14 15  1  0  0  0  0
M  END
>  <CHROM.1>
-91.60911865,-175.46780804,-108.53950487,7.76934167,2.71008717,82.34432142
-0.17812395,1.21212306,0.92590400

>  <Name>
ligand

>  <RI>
0

>  <Rbt.Current_Directory>
/home/itssahil/PROJECTS/Mol_Feturizer/Test_systems_manuscript/rnas/5kpy

>  <Rbt.Executable>
rbdock ($Id: //depot/dev/client3/rdock/2013.1/src/exe/rbdock.cxx#4 $)

>  <Rbt.Library>
libRbt.so (2013.1, Build901 2013/11/27)

>  <Rbt.Parameter_File>
/export/apps/rDock/src/rDock_2013.1_src/data/scripts/dock_solv.prm

>  <Rbt.Receptor>
prm/pocket_docking_7.prm

>  <SCORE>
-21.1395

>  <SCORE.INTER>
-20.7178

>  <SCORE.INTER.CONST>
1

>  <SCORE.INTER.POLAR>
0

>  <SCORE.INTER.ROT>
3

>  <SCORE.INTER.SOLV>
7.79258

>  <SCORE.INTER.VDW>
-22.0094

>  <SCORE.INTER.norm>
-1.29486

>  <SCORE.INTRA>
-0.421751

>  <SCORE.INTRA.DIHEDRAL>
-0.0730176

>  <SCORE.INTRA.DIHEDRAL.0>
3.89056

>  <SCORE.INTRA.POLAR>
0

>  <SCORE.INTRA.POLAR.0>
0

>  <SCORE.INTRA.REPUL>
0

>  <SCORE.INTRA.REPUL.0>
0

>  <SCORE.INTRA.SOLV>
-1.19231

>  <SCORE.INTRA.SOLV.lig_0>
-20.733

>  <SCORE.INTRA.VDW>
0.210912

>  <SCORE.INTRA.VDW.0>
-0.828515

>  <SCORE.INTRA.norm>
-0.0263595

>  <SCORE.RESTR>
0

>  <SCORE.RESTR.CAVITY>
0

>  <SCORE.RESTR.norm>
0

>  <SCORE.SYSTEM>
0

>  <SCORE.SYSTEM.CONST>
0

>  <SCORE.SYSTEM.DIHEDRAL>
0

>  <SCORE.SYSTEM.SOLV>
0

>  <SCORE.SYSTEM.norm>
0

>  <SCORE.heavy>
16

>  <SCORE.norm>
-1.32122

>  <RMSD>
4.331

$$$$
ligand
 OpenBabel02271912153D
libRbt.so/2013.1/901 2013/11/27
 16 17  0  0  0  0  0  0  0  0999 V2000
    8.0217    6.1998   81.4082 N   0  0  0  0  0  0  0  0  0  0  0  0
    8.1894    4.7956   81.5721 C   0  0  2  0  0  0  0  0  0  0  0  0
    9.3420    4.2697   80.7630 C   0  0  0  0  0  0  0  0  0  0  0  0
    9.1414    3.8860   79.5849 O   0  0  0  0  0  0  0  0  0  0  0  0
    6.9693    2.0433   86.3985 O   0  0  0  0  0  0  0  0  0  0  0  0
    6.9327    4.0567   81.1789 C   0  0  0  0  0  0  0  0  0  0  0  0
    7.0262    2.5657   81.3999 C   0  0  0  0  0  0  0  0  0  0  0  0
    7.1210    1.6420   80.4377 C   0  0  0  0  0  0  0  0  0  0  0  0
    7.0499    2.0160   82.7228 C   0  0  0  0  0  0  0  0  0  0  0  0
    7.1719    0.6150   82.5140 C   0  0  0  0  0  0  0  0  0  0  0  0
    6.9937    2.5105   83.9968 C   0  0  0  0  0  0  0  0  0  0  0  0
    7.2070    0.4757   81.1096 N   0  0  0  0  0  0  0  0  0  0  0  0
    7.2275   -0.2748   83.5170 C   0  0  0  0  0  0  0  0  0  0  0  0
    7.0386    1.5787   85.0786 C   0  0  0  0  0  0  0  0  0  0  0  0
    7.1519    0.1629   84.8426 C   0  0  0  0  0  0  0  0  0  0  0  0
   10.4815    4.2030   81.2701 O   0  0  0  0  0  0  0  0  0  0  0  0
  2  1  1  6  0  0  0
  2  3  1  0  0  0  0
  2  6  1  0  0  0  0
  3  4  1  0  0  0  0
  3 16  1  0  0  0  0
  5 14  1  0  0  0  0
  6  7  1  0  0  0  0
  7  8  2  0  0  0  0
  7  9  1  0  0  0  0
  8 12  1  0  0  0  0
  9 10  2  0  0  0  0
  9 11  1  0  0  0  0
 10 13  1  0  0  0  0
 10 12  1  0  0  0  0
 11 14  2  0  0  0  0
 13 15  2  0  0  0  0
 14 15  1  0  0  0  0
M  END
>  <CHROM.1>
-89.41524051,-177.01227515,-108.53172993,7.75172172,2.63380857,82.32939754
-0.29079796,1.22415230,1.05054375

>  <Name>
ligand

>  <RI>
0

>  <Rbt.Current_Directory>
/home/itssahil/PROJECTS/Mol_Feturizer/Test_systems_manuscript/rnas/5kpy

>  <Rbt.Executable>
rbdock ($Id: //depot/dev/client3/rdock/2013.1/src/exe/rbdock.cxx#4 $)

>  <Rbt.Library>
libRbt.so (2013.1, Build901 2013/11/27)

>  <Rbt.Parameter_File>
/export/apps/rDock/src/rDock_2013.1_src/data/scripts/dock_solv.prm

>  <Rbt.Receptor>
prm/pocket_docking_6.prm

>  <SCORE>
-21.0629

>  <SCORE.INTER>
-20.5593

>  <SCORE.INTER.CONST>
1

>  <SCORE.INTER.POLAR>
0

>  <SCORE.INTER.ROT>
3

>  <SCORE.INTER.SOLV>
7.87072

>  <SCORE.INTER.VDW>
-21.9298

>  <SCORE.INTER.norm>
-1.28496

>  <SCORE.INTRA>
-0.503635

>  <SCORE.INTRA.DIHEDRAL>
-0.116146

>  <SCORE.INTRA.DIHEDRAL.0>
3.89056

>  <SCORE.INTRA.POLAR>
0

>  <SCORE.INTRA.POLAR.0>
0

>  <SCORE.INTRA.REPUL>
0

>  <SCORE.INTRA.REPUL.0>
0

>  <SCORE.INTRA.SOLV>
-1.19273

>  <SCORE.INTRA.SOLV.lig_0>
-20.733

>  <SCORE.INTRA.VDW>
0.150802

>  <SCORE.INTRA.VDW.0>
-0.828515

>  <SCORE.INTRA.norm>
-0.0314772

>  <SCORE.RESTR>
0

>  <SCORE.RESTR.CAVITY>
0

>  <SCORE.RESTR.norm>
0

>  <SCORE.SYSTEM>
0

>  <SCORE.SYSTEM.CONST>
0

>  <SCORE.SYSTEM.DIHEDRAL>
0

>  <SCORE.SYSTEM.SOLV>
0

>  <SCORE.SYSTEM.norm>
0

>  <SCORE.heavy>
16

>  <SCORE.norm>
-1.31643

>  <RMSD>
4.339

$$$$
ligand
 OpenBabel02271912153D
libRbt.so/2013.1/901 2013/11/27
 16 17  0  0  0  0  0  0  0  0999 V2000
    9.9140    2.7957   79.9805 N   0  0  0  0  0  0  0  0  0  0  0  0
    9.3000    4.0200   80.3690 C   0  0  2  0  0  0  0  0  0  0  0  0
   10.0646    4.7083   81.4651 C   0  0  0  0  0  0  0  0  0  0  0  0
    9.4637    5.5042   82.2273 O   0  0  0  0  0  0  0  0  0  0  0  0
    5.7068    4.6690   85.9077 O   0  0  0  0  0  0  0  0  0  0  0  0
    7.8813    3.7851   80.8294 C   0  0  0  0  0  0  0  0  0  0  0  0
    7.7533    2.6305   81.7944 C   0  0  0  0  0  0  0  0  0  0  0  0
    8.1364    1.3719   81.5555 C   0  0  0  0  0  0  0  0  0  0  0  0
    7.2120    2.8227   83.1071 C   0  0  0  0  0  0  0  0  0  0  0  0
    7.2854    1.5346   83.7044 C   0  0  0  0  0  0  0  0  0  0  0  0
    6.7059    3.8744   83.8203 C   0  0  0  0  0  0  0  0  0  0  0  0
    7.8535    0.7194   82.7015 N   0  0  0  0  0  0  0  0  0  0  0  0
    6.8691    1.2801   84.9545 C   0  0  0  0  0  0  0  0  0  0  0  0
    6.2454    3.6218   85.1487 C   0  0  0  0  0  0  0  0  0  0  0  0
    6.3202    2.3064   85.7292 C   0  0  0  0  0  0  0  0  0  0  0  0
   11.2884    4.4978   81.5996 O   0  0  0  0  0  0  0  0  0  0  0  0
  2  1  1  1  0  0  0
  2  3  1  0  0  0  0
  2  6  1  0  0  0  0
  3  4  1  0  0  0  0
  3 16  1  0  0  0  0
  5 14  1  0  0  0  0
  6  7  1  0  0  0  0
  7  8  2  0  0  0  0
  7  9  1  0  0  0  0
  8 12  1  0  0  0  0
  9 10  2  0  0  0  0
  9 11  1  0  0  0  0
 10 13  1  0  0  0  0
 10 12  1  0  0  0  0
 11 14  2  0  0  0  0
 13 15  2  0  0  0  0
 14 15  1  0  0  0  0
M  END
>  <CHROM.1>
-155.26227899,47.01940281,-57.14694352,8.06823681,3.21784436,82.77256550
0.11515506,-0.87549678,-2.73601341

>  <Name>
ligand

>  <RI>
0

>  <Rbt.Current_Directory>
/home/itssahil/PROJECTS/Mol_Feturizer/Test_systems_manuscript/rnas/5kpy

>  <Rbt.Executable>
rbdock ($Id: //depot/dev/client3/rdock/2013.1/src/exe/rbdock.cxx#4 $)

>  <Rbt.Library>
libRbt.so (2013.1, Build901 2013/11/27)

>  <Rbt.Parameter_File>
/export/apps/rDock/src/rDock_2013.1_src/data/scripts/dock_solv.prm

>  <Rbt.Receptor>
prm/pocket_docking_5.prm

>  <SCORE>
-17.7421

>  <SCORE.INTER>
-18.679

>  <SCORE.INTER.CONST>
1

>  <SCORE.INTER.POLAR>
0

>  <SCORE.INTER.ROT>
3

>  <SCORE.INTER.SOLV>
7.3828

>  <SCORE.INTER.VDW>
-20.5136

>  <SCORE.INTER.norm>
-1.16744

>  <SCORE.INTRA>
0.936957

>  <SCORE.INTRA.DIHEDRAL>
0.511742

>  <SCORE.INTRA.DIHEDRAL.0>
3.89056

>  <SCORE.INTRA.POLAR>
0

>  <SCORE.INTRA.POLAR.0>
0

>  <SCORE.INTRA.REPUL>
0

>  <SCORE.INTRA.REPUL.0>
0

>  <SCORE.INTRA.SOLV>
0.0927586

>  <SCORE.INTRA.SOLV.lig_0>
-20.733

>  <SCORE.INTRA.VDW>
0.634706

>  <SCORE.INTRA.VDW.0>
-0.828515

>  <SCORE.INTRA.norm>
0.0585598

>  <SCORE.RESTR>
0

>  <SCORE.RESTR.CAVITY>
0

>  <SCORE.RESTR.norm>
0

>  <SCORE.SYSTEM>
0

>  <SCORE.SYSTEM.CONST>
0

>  <SCORE.SYSTEM.DIHEDRAL>
0

>  <SCORE.SYSTEM.SOLV>
0

>  <SCORE.SYSTEM.norm>
0

>  <SCORE.heavy>
16

>  <SCORE.norm>
-1.10888

>  <RMSD>
4.368

$$$$
ligand
 OpenBabel02271912153D
libRbt.so/2013.1/901 2013/11/27
 16 17  0  0  0  0  0  0  0  0999 V2000
    9.6989    2.0351   80.8976 N   0  0  0  0  0  0  0  0  0  0  0  0
    8.4689    2.6031   80.4600 C   0  0  2  0  0  0  0  0  0  0  0  0
    8.2367    3.9646   81.0535 C   0  0  0  0  0  0  0  0  0  0  0  0
    7.2527    4.6425   80.6697 O   0  0  0  0  0  0  0  0  0  0  0  0
    5.7985    5.3694   84.7647 O   0  0  0  0  0  0  0  0  0  0  0  0
    7.3081    1.7053   80.8156 C   0  0  0  0  0  0  0  0  0  0  0  0
    7.3087    1.2790   82.2644 C   0  0  0  0  0  0  0  0  0  0  0  0
    7.6624    0.0724   82.7192 C   0  0  0  0  0  0  0  0  0  0  0  0
    6.9392    2.1945   83.3029 C   0  0  0  0  0  0  0  0  0  0  0  0
    7.0929    1.4419   84.4993 C   0  0  0  0  0  0  0  0  0  0  0  0
    6.5249    3.4963   83.3678 C   0  0  0  0  0  0  0  0  0  0  0  0
    7.5308    0.1745   84.0577 N   0  0  0  0  0  0  0  0  0  0  0  0
    6.8409    1.9420   85.7188 C   0  0  0  0  0  0  0  0  0  0  0  0
    6.2392    4.0439   84.6559 C   0  0  0  0  0  0  0  0  0  0  0  0
    6.3922    3.2593   85.8533 C   0  0  0  0  0  0  0  0  0  0  0  0
    9.0284    4.4164   81.9074 O   0  0  0  0  0  0  0  0  0  0  0  0
  2  1  1  1  0  0  0
  2  3  1  0  0  0  0
  2  6  1  0  0  0  0
  3  4  1  0  0  0  0
  3 16  1  0  0  0  0
  5 14  1  0  0  0  0
  6  7  1  0  0  0  0
  7  8  2  0  0  0  0
  7  9  1  0  0  0  0
  8 12  1  0  0  0  0
  9 10  2  0  0  0  0
  9 11  1  0  0  0  0
 10 13  1  0  0  0  0
 10 12  1  0  0  0  0
 11 14  2  0  0  0  0
 13 15  2  0  0  0  0
 14 15  1  0  0  0  0
M  END
>  <CHROM.1>
173.71191752,50.45444629,-104.28603385,7.42055845,2.74759324,82.86937499
-0.28946035,-1.10871714,2.76835496

>  <Name>
ligand

>  <RI>
0

>  <Rbt.Current_Directory>
/home/itssahil/PROJECTS/Mol_Feturizer/Test_systems_manuscript/rnas/5kpy

>  <Rbt.Executable>
rbdock ($Id: //depot/dev/client3/rdock/2013.1/src/exe/rbdock.cxx#4 $)

>  <Rbt.Library>
libRbt.so (2013.1, Build901 2013/11/27)

>  <Rbt.Parameter_File>
/export/apps/rDock/src/rDock_2013.1_src/data/scripts/dock_solv.prm

>  <Rbt.Receptor>
prm/pocket_docking_7.prm

>  <SCORE>
-20.2351

>  <SCORE.INTER>
-19.6786

>  <SCORE.INTER.CONST>
1

>  <SCORE.INTER.POLAR>
0

>  <SCORE.INTER.ROT>
3

>  <SCORE.INTER.SOLV>
7.78576

>  <SCORE.INTER.VDW>
-21.3143

>  <SCORE.INTER.norm>
-1.22991

>  <SCORE.INTRA>
-0.556438

>  <SCORE.INTRA.DIHEDRAL>
0.188349

>  <SCORE.INTRA.DIHEDRAL.0>
3.89056

>  <SCORE.INTRA.POLAR>
0

>  <SCORE.INTRA.POLAR.0>
0

>  <SCORE.INTRA.REPUL>
0

>  <SCORE.INTRA.REPUL.0>
0

>  <SCORE.INTRA.SOLV>
-0.0401889

>  <SCORE.INTRA.SOLV.lig_0>
-20.733

>  <SCORE.INTRA.VDW>
-0.630518

>  <SCORE.INTRA.VDW.0>
-0.828515

>  <SCORE.INTRA.norm>
-0.0347774

>  <SCORE.RESTR>
0

>  <SCORE.RESTR.CAVITY>
0

>  <SCORE.RESTR.norm>
0

>  <SCORE.SYSTEM>
0

>  <SCORE.SYSTEM.CONST>
0

>  <SCORE.SYSTEM.DIHEDRAL>
0

>  <SCORE.SYSTEM.SOLV>
0

>  <SCORE.SYSTEM.norm>
0

>  <SCORE.heavy>
16

>  <SCORE.norm>
-1.26469

>  <RMSD>
4.381

$$$$
ligand
 OpenBabel02271912153D
libRbt.so/2013.1/901 2013/11/27
 16 17  0  0  0  0  0  0  0  0999 V2000
    9.7118    2.0485   80.8933 N   0  0  0  0  0  0  0  0  0  0  0  0
    8.4819    2.6064   80.4426 C   0  0  2  0  0  0  0  0  0  0  0  0
    8.2416    3.9741   81.0182 C   0  0  0  0  0  0  0  0  0  0  0  0
    9.0162    4.4133   81.9027 O   0  0  0  0  0  0  0  0  0  0  0  0
    5.8174    5.4058   84.7231 O   0  0  0  0  0  0  0  0  0  0  0  0
    7.3228    1.7086   80.8034 C   0  0  0  0  0  0  0  0  0  0  0  0
    7.3220    1.2936   82.2555 C   0  0  0  0  0  0  0  0  0  0  0  0
    7.6737    0.0900   82.7198 C   0  0  0  0  0  0  0  0  0  0  0  0
    6.9536    2.2177   83.2866 C   0  0  0  0  0  0  0  0  0  0  0  0
    7.1057    1.4743   84.4889 C   0  0  0  0  0  0  0  0  0  0  0  0
    6.5414    3.5207   83.3412 C   0  0  0  0  0  0  0  0  0  0  0  0
    7.5416    0.2028   84.0574 N   0  0  0  0  0  0  0  0  0  0  0  0
    6.8540    1.9843   85.7044 C   0  0  0  0  0  0  0  0  0  0  0  0
    6.2560    4.0788   84.6249 C   0  0  0  0  0  0  0  0  0  0  0  0
    6.4073    3.3033   85.8284 C   0  0  0  0  0  0  0  0  0  0  0  0
    7.2695    4.6539   80.6271 O   0  0  0  0  0  0  0  0  0  0  0  0
  2  1  1  1  0  0  0
  2  3  1  0  0  0  0
  2  6  1  0  0  0  0
  3  4  1  0  0  0  0
  3 16  1  0  0  0  0
  5 14  1  0  0  0  0
  6  7  1  0  0  0  0
  7  8  2  0  0  0  0
  7  9  1  0  0  0  0
  8 12  1  0  0  0  0
  9 10  2  0  0  0  0
  9 11  1  0  0  0  0
 10 13  1  0  0  0  0
 10 12  1  0  0  0  0
 11 14  2  0  0  0  0
 13 15  2  0  0  0  0
 14 15  1  0  0  0  0
M  END
>  <CHROM.1>
-7.52684354,50.12466211,-104.52734608,7.43241640,2.76797127,82.85095151,-0.29225724
-1.11060520,2.75748918

>  <Name>
ligand

>  <RI>
0

>  <Rbt.Current_Directory>
/home/itssahil/PROJECTS/Mol_Feturizer/Test_systems_manuscript/rnas/5kpy

>  <Rbt.Executable>
rbdock ($Id: //depot/dev/client3/rdock/2013.1/src/exe/rbdock.cxx#4 $)

>  <Rbt.Library>
libRbt.so (2013.1, Build901 2013/11/27)

>  <Rbt.Parameter_File>
/export/apps/rDock/src/rDock_2013.1_src/data/scripts/dock_solv.prm

>  <Rbt.Receptor>
prm/pocket_docking_6.prm

>  <SCORE>
-20.1984

>  <SCORE.INTER>
-19.6503

>  <SCORE.INTER.CONST>
1

>  <SCORE.INTER.POLAR>
0

>  <SCORE.INTER.ROT>
3

>  <SCORE.INTER.SOLV>
7.77208

>  <SCORE.INTER.VDW>
-21.2909

>  <SCORE.INTER.norm>
-1.22815

>  <SCORE.INTRA>
-0.548033

>  <SCORE.INTRA.DIHEDRAL>
0.190958

>  <SCORE.INTRA.DIHEDRAL.0>
3.89056

>  <SCORE.INTRA.POLAR>
0

>  <SCORE.INTRA.POLAR.0>
0

>  <SCORE.INTRA.REPUL>
0

>  <SCORE.INTRA.REPUL.0>
0

>  <SCORE.INTRA.SOLV>
-0.0290329

>  <SCORE.INTRA.SOLV.lig_0>
-20.733

>  <SCORE.INTRA.VDW>
-0.628996

>  <SCORE.INTRA.VDW.0>
-0.828515

>  <SCORE.INTRA.norm>
-0.0342521

>  <SCORE.RESTR>
0

>  <SCORE.RESTR.CAVITY>
0

>  <SCORE.RESTR.norm>
0

>  <SCORE.SYSTEM>
0

>  <SCORE.SYSTEM.CONST>
0

>  <SCORE.SYSTEM.DIHEDRAL>
0

>  <SCORE.SYSTEM.SOLV>
0

>  <SCORE.SYSTEM.norm>
0

>  <SCORE.heavy>
16

>  <SCORE.norm>
-1.2624

>  <RMSD>
4.385

$$$$
ligand
 OpenBabel02271912153D
libRbt.so/2013.1/901 2013/11/27
 16 17  0  0  0  0  0  0  0  0999 V2000
    9.5556    1.8886   81.0623 N   0  0  0  0  0  0  0  0  0  0  0  0
    8.3074    2.4122   80.6209 C   0  0  2  0  0  0  0  0  0  0  0  0
    8.0687    3.8040   81.1363 C   0  0  0  0  0  0  0  0  0  0  0  0
    8.8539    4.2869   81.9882 O   0  0  0  0  0  0  0  0  0  0  0  0
    5.7133    5.4772   84.7376 O   0  0  0  0  0  0  0  0  0  0  0  0
    7.1688    1.5221   81.0581 C   0  0  0  0  0  0  0  0  0  0  0  0
    7.1931    1.2084   82.5352 C   0  0  0  0  0  0  0  0  0  0  0  0
    7.5567    0.0407   83.0756 C   0  0  0  0  0  0  0  0  0  0  0  0
    6.8380    2.2005   83.5060 C   0  0  0  0  0  0  0  0  0  0  0  0
    7.0123    1.5423   84.7540 C   0  0  0  0  0  0  0  0  0  0  0  0
    6.4219    3.5031   83.4773 C   0  0  0  0  0  0  0  0  0  0  0  0
    7.4459    0.2452   84.4042 N   0  0  0  0  0  0  0  0  0  0  0  0
    6.7784    2.1343   85.9354 C   0  0  0  0  0  0  0  0  0  0  0  0
    6.1552    4.1477   84.7240 C   0  0  0  0  0  0  0  0  0  0  0  0
    6.3289    3.4575   85.9755 C   0  0  0  0  0  0  0  0  0  0  0  0
    7.0878    4.4609   80.7284 O   0  0  0  0  0  0  0  0  0  0  0  0
  2  1  1  1  0  0  0
  2  3  1  0  0  0  0
  2  6  1  0  0  0  0
  3  4  1  0  0  0  0
  3 16  1  0  0  0  0
  5 14  1  0  0  0  0
  6  7  1  0  0  0  0
  7  8  2  0  0  0  0
  7  9  1  0  0  0  0
  8 12  1  0  0  0  0
  9 10  2  0  0  0  0
  9 11  1  0  0  0  0
 10 13  1  0  0  0  0
 10 12  1  0  0  0  0
 11 14  2  0  0  0  0
 13 15  2  0  0  0  0
 14 15  1  0  0  0  0
M  END
>  <CHROM.1>
-8.40988757,51.65518335,-105.35566672,7.30376475,2.72282884,83.03363064,-0.30364117
-1.12475283,2.66943226

>  <Name>
ligand

>  <RI>
0

>  <Rbt.Current_Directory>
/home/itssahil/PROJECTS/Mol_Feturizer/Test_systems_manuscript/rnas/5kpy

>  <Rbt.Executable>
rbdock ($Id: //depot/dev/client3/rdock/2013.1/src/exe/rbdock.cxx#4 $)

>  <Rbt.Library>
libRbt.so (2013.1, Build901 2013/11/27)

>  <Rbt.Parameter_File>
/export/apps/rDock/src/rDock_2013.1_src/data/scripts/dock_solv.prm

>  <Rbt.Receptor>
prm/pocket_docking_8.prm

>  <SCORE>
-20.3355

>  <SCORE.INTER>
-19.7594

>  <SCORE.INTER.CONST>
1

>  <SCORE.INTER.POLAR>
0

>  <SCORE.INTER.ROT>
3

>  <SCORE.INTER.SOLV>
7.94758

>  <SCORE.INTER.VDW>
-21.4221

>  <SCORE.INTER.norm>
-1.23496

>  <SCORE.INTRA>
-0.576085

>  <SCORE.INTRA.DIHEDRAL>
0.0831338

>  <SCORE.INTRA.DIHEDRAL.0>
3.89056

>  <SCORE.INTRA.POLAR>
0

>  <SCORE.INTRA.POLAR.0>
0

>  <SCORE.INTRA.REPUL>
0

>  <SCORE.INTRA.REPUL.0>
0

>  <SCORE.INTRA.SOLV>
-0.0549708

>  <SCORE.INTRA.SOLV.lig_0>
-20.733

>  <SCORE.INTRA.VDW>
-0.590167

>  <SCORE.INTRA.VDW.0>
-0.828515

>  <SCORE.INTRA.norm>
-0.0360053

>  <SCORE.RESTR>
0

>  <SCORE.RESTR.CAVITY>
0

>  <SCORE.RESTR.norm>
0

>  <SCORE.SYSTEM>
0

>  <SCORE.SYSTEM.CONST>
0

>  <SCORE.SYSTEM.DIHEDRAL>
0

>  <SCORE.SYSTEM.SOLV>
0

>  <SCORE.SYSTEM.norm>
0

>  <SCORE.heavy>
16

>  <SCORE.norm>
-1.27097

>  <RMSD>
4.385

$$$$
ligand
 OpenBabel02271912153D
libRbt.so/2013.1/901 2013/11/27
 16 17  0  0  0  0  0  0  0  0999 V2000
    8.0928    6.0767   81.2847 N   0  0  0  0  0  0  0  0  0  0  0  0
    8.2031    4.6738   81.5004 C   0  0  2  0  0  0  0  0  0  0  0  0
    9.3139    4.0668   80.6896 C   0  0  0  0  0  0  0  0  0  0  0  0
    9.7601    4.6896   79.6954 O   0  0  0  0  0  0  0  0  0  0  0  0
    7.0251    2.0511   86.4135 O   0  0  0  0  0  0  0  0  0  0  0  0
    6.9073    3.9765   81.1620 C   0  0  0  0  0  0  0  0  0  0  0  0
    6.9525    2.4869   81.4067 C   0  0  0  0  0  0  0  0  0  0  0  0
    6.9845    1.5444   80.4588 C   0  0  0  0  0  0  0  0  0  0  0  0
    6.9953    1.9590   82.7381 C   0  0  0  0  0  0  0  0  0  0  0  0
    7.0594    0.5512   82.5508 C   0  0  0  0  0  0  0  0  0  0  0  0
    6.9952    2.4766   84.0041 C   0  0  0  0  0  0  0  0  0  0  0  0
    7.0476    0.3871   81.1487 N   0  0  0  0  0  0  0  0  0  0  0  0
    7.1121   -0.3232   83.5675 C   0  0  0  0  0  0  0  0  0  0  0  0
    7.0380    1.5621   85.1006 C   0  0  0  0  0  0  0  0  0  0  0  0
    7.0921    0.1393   84.8867 C   0  0  0  0  0  0  0  0  0  0  0  0
    9.7718    2.9465   80.9984 O   0  0  0  0  0  0  0  0  0  0  0  0
  2  1  1  6  0  0  0
  2  3  1  0  0  0  0
  2  6  1  0  0  0  0
  3  4  1  0  0  0  0
  3 16  1  0  0  0  0
  5 14  1  0  0  0  0
  6  7  1  0  0  0  0
  7  8  2  0  0  0  0
  7  9  1  0  0  0  0
  8 12  1  0  0  0  0
  9 10  2  0  0  0  0
  9 11  1  0  0  0  0
 10 13  1  0  0  0  0
 10 12  1  0  0  0  0
 11 14  2  0  0  0  0
 13 15  2  0  0  0  0
 14 15  1  0  0  0  0
M  END
>  <CHROM.1>
-19.12264040,-178.46479864,-108.31993771,7.70938429,2.53778495,82.31460796
-0.19376057,1.23336681,0.92889683

>  <Name>
ligand

>  <RI>
0

>  <Rbt.Current_Directory>
/home/itssahil/PROJECTS/Mol_Feturizer/Test_systems_manuscript/rnas/5kpy

>  <Rbt.Executable>
rbdock ($Id: //depot/dev/client3/rdock/2013.1/src/exe/rbdock.cxx#4 $)

>  <Rbt.Library>
libRbt.so (2013.1, Build901 2013/11/27)

>  <Rbt.Parameter_File>
/export/apps/rDock/src/rDock_2013.1_src/data/scripts/dock_solv.prm

>  <Rbt.Receptor>
prm/pocket_docking_4.prm

>  <SCORE>
-20.3751

>  <SCORE.INTER>
-19.3825

>  <SCORE.INTER.CONST>
1

>  <SCORE.INTER.POLAR>
0

>  <SCORE.INTER.ROT>
3

>  <SCORE.INTER.SOLV>
8.25109

>  <SCORE.INTER.VDW>
-21.2721

>  <SCORE.INTER.norm>
-1.21141

>  <SCORE.INTRA>
-1.1526

>  <SCORE.INTRA.DIHEDRAL>
-0.200103

>  <SCORE.INTRA.DIHEDRAL.0>
3.89056

>  <SCORE.INTRA.POLAR>
0

>  <SCORE.INTRA.POLAR.0>
0

>  <SCORE.INTRA.REPUL>
0

>  <SCORE.INTRA.REPUL.0>
0

>  <SCORE.INTRA.SOLV>
-1.16086

>  <SCORE.INTRA.SOLV.lig_0>
-20.733

>  <SCORE.INTRA.VDW>
-0.472118

>  <SCORE.INTRA.VDW.0>
-0.828515

>  <SCORE.INTRA.norm>
-0.0720374

>  <SCORE.RESTR>
0.160076

>  <SCORE.RESTR.CAVITY>
0.160076

>  <SCORE.RESTR.norm>
0.0100048

>  <SCORE.SYSTEM>
0

>  <SCORE.SYSTEM.CONST>
0

>  <SCORE.SYSTEM.DIHEDRAL>
0

>  <SCORE.SYSTEM.SOLV>
0

>  <SCORE.SYSTEM.norm>
0

>  <SCORE.heavy>
16

>  <SCORE.norm>
-1.27344

>  <RMSD>
4.406

$$$$
ligand
 OpenBabel02271912153D
libRbt.so/2013.1/901 2013/11/27
 16 17  0  0  0  0  0  0  0  0999 V2000
    8.3101    6.1165   81.4769 N   0  0  0  0  0  0  0  0  0  0  0  0
    8.4252    4.6988   81.5386 C   0  0  2  0  0  0  0  0  0  0  0  0
    9.5762    4.1928   80.7147 C   0  0  0  0  0  0  0  0  0  0  0  0
    9.8129    2.9607   80.6808 O   0  0  0  0  0  0  0  0  0  0  0  0
    6.9434    2.1876   86.3430 O   0  0  0  0  0  0  0  0  0  0  0  0
    7.1525    4.0373   81.0672 C   0  0  0  0  0  0  0  0  0  0  0  0
    7.1216    2.5510   81.3332 C   0  0  0  0  0  0  0  0  0  0  0  0
    7.1566    1.5938   80.4002 C   0  0  0  0  0  0  0  0  0  0  0  0
    7.0798    2.0418   82.6718 C   0  0  0  0  0  0  0  0  0  0  0  0
    7.0914    0.6298   82.5061 C   0  0  0  0  0  0  0  0  0  0  0  0
    7.0436    2.5778   83.9296 C   0  0  0  0  0  0  0  0  0  0  0  0
    7.1374    0.4453   81.1072 N   0  0  0  0  0  0  0  0  0  0  0  0
    7.0589   -0.2306   83.5354 C   0  0  0  0  0  0  0  0  0  0  0  0
    6.9958    1.6788   85.0387 C   0  0  0  0  0  0  0  0  0  0  0  0
    6.9980    0.2520   84.8461 C   0  0  0  0  0  0  0  0  0  0  0  0
   10.2952    4.9978   80.0860 O   0  0  0  0  0  0  0  0  0  0  0  0
  2  1  1  6  0  0  0
  2  3  1  0  0  0  0
  2  6  1  0  0  0  0
  3  4  1  0  0  0  0
  3 16  1  0  0  0  0
  5 14  1  0  0  0  0
  6  7  1  0  0  0  0
  7  8  2  0  0  0  0
  7  9  1  0  0  0  0
  8 12  1  0  0  0  0
  9 10  2  0  0  0  0
  9 11  1  0  0  0  0
 10 13  1  0  0  0  0
 10 12  1  0  0  0  0
 11 14  2  0  0  0  0
 13 15  2  0  0  0  0
 14 15  1  0  0  0  0
M  END
>  <CHROM.1>
179.31017090,-169.96888236,-112.04365441,7.83012266,2.63151313,82.29656249
-0.15154514,1.16269782,0.91645739

>  <Name>
ligand

>  <RI>
0

>  <Rbt.Current_Directory>
/home/itssahil/PROJECTS/Mol_Feturizer/Test_systems_manuscript/rnas/5kpy

>  <Rbt.Executable>
rbdock ($Id: //depot/dev/client3/rdock/2013.1/src/exe/rbdock.cxx#4 $)

>  <Rbt.Library>
libRbt.so (2013.1, Build901 2013/11/27)

>  <Rbt.Parameter_File>
/export/apps/rDock/src/rDock_2013.1_src/data/scripts/dock_solv.prm

>  <Rbt.Receptor>
prm/pocket_docking_6.prm

>  <SCORE>
-21.4269

>  <SCORE.INTER>
-20.8191

>  <SCORE.INTER.CONST>
1

>  <SCORE.INTER.POLAR>
0

>  <SCORE.INTER.ROT>
3

>  <SCORE.INTER.SOLV>
7.7175

>  <SCORE.INTER.VDW>
-22.0519

>  <SCORE.INTER.norm>
-1.30119

>  <SCORE.INTRA>
-0.607818

>  <SCORE.INTRA.DIHEDRAL>
0.210841

>  <SCORE.INTRA.DIHEDRAL.0>
3.89056

>  <SCORE.INTRA.POLAR>
0

>  <SCORE.INTRA.POLAR.0>
0

>  <SCORE.INTRA.REPUL>
0

>  <SCORE.INTRA.REPUL.0>
0

>  <SCORE.INTRA.SOLV>
-1.15704

>  <SCORE.INTRA.SOLV.lig_0>
-20.733

>  <SCORE.INTRA.VDW>
-0.134719

>  <SCORE.INTRA.VDW.0>
-0.828515

>  <SCORE.INTRA.norm>
-0.0379886

>  <SCORE.RESTR>
0

>  <SCORE.RESTR.CAVITY>
0

>  <SCORE.RESTR.norm>
0

>  <SCORE.SYSTEM>
0

>  <SCORE.SYSTEM.CONST>
0

>  <SCORE.SYSTEM.DIHEDRAL>
0

>  <SCORE.SYSTEM.SOLV>
0

>  <SCORE.SYSTEM.norm>
0

>  <SCORE.heavy>
16

>  <SCORE.norm>
-1.33918

>  <RMSD>
4.415

$$$$
ligand
 OpenBabel02271912153D
libRbt.so/2013.1/901 2013/11/27
 16 17  0  0  0  0  0  0  0  0999 V2000
    9.2562    6.4304   81.9579 N   0  0  0  0  0  0  0  0  0  0  0  0
    9.2493    5.0136   81.8178 C   0  0  2  0  0  0  0  0  0  0  0  0
   10.3547    4.5330   80.9195 C   0  0  0  0  0  0  0  0  0  0  0  0
   11.0274    5.3708   80.2707 O   0  0  0  0  0  0  0  0  0  0  0  0
    6.0745    2.4144   86.1045 O   0  0  0  0  0  0  0  0  0  0  0  0
    7.9257    4.5361   81.2702 C   0  0  0  0  0  0  0  0  0  0  0  0
    7.7318    3.0442   81.4014 C   0  0  0  0  0  0  0  0  0  0  0  0
    7.9824    2.1412   80.4475 C   0  0  0  0  0  0  0  0  0  0  0  0
    7.2705    2.4652   82.6281 C   0  0  0  0  0  0  0  0  0  0  0  0
    7.2478    1.0682   82.3652 C   0  0  0  0  0  0  0  0  0  0  0  0
    6.8992    2.9308   83.8594 C   0  0  0  0  0  0  0  0  0  0  0  0
    7.6903    0.9598   81.0290 N   0  0  0  0  0  0  0  0  0  0  0  0
    6.8655    0.1564   83.2725 C   0  0  0  0  0  0  0  0  0  0  0  0
    6.4767    1.9773   84.8356 C   0  0  0  0  0  0  0  0  0  0  0  0
    6.4519    0.5678   84.5431 C   0  0  0  0  0  0  0  0  0  0  0  0
   10.5849    3.3100   80.8126 O   0  0  0  0  0  0  0  0  0  0  0  0
  2  1  1  6  0  0  0
  2  3  1  0  0  0  0
  2  6  1  0  0  0  0
  3  4  1  0  0  0  0
  3 16  1  0  0  0  0
  5 14  1  0  0  0  0
  6  7  1  0  0  0  0
  7  8  2  0  0  0  0
  7  9  1  0  0  0  0
  8 12  1  0  0  0  0
  9 10  2  0  0  0  0
  9 11  1  0  0  0  0
 10 13  1  0  0  0  0
 10 12  1  0  0  0  0
 11 14  2  0  0  0  0
 13 15  2  0  0  0  0
 14 15  1  0  0  0  0
M  END
>  <CHROM.1>
-9.06822849,-166.44501836,-96.08417990,8.14578731,3.01552437,82.31985325
0.14773951,0.93899670,0.60898169

>  <Name>
ligand

>  <RI>
0

>  <Rbt.Current_Directory>
/home/itssahil/PROJECTS/Mol_Feturizer/Test_systems_manuscript/rnas/5kpy

>  <Rbt.Executable>
rbdock ($Id: //depot/dev/client3/rdock/2013.1/src/exe/rbdock.cxx#4 $)

>  <Rbt.Library>
libRbt.so (2013.1, Build901 2013/11/27)

>  <Rbt.Parameter_File>
/export/apps/rDock/src/rDock_2013.1_src/data/scripts/dock_solv.prm

>  <Rbt.Receptor>
prm/blind_docking_100.prm

>  <SCORE>
-20.7097

>  <SCORE.INTER>
-20.1

>  <SCORE.INTER.CONST>
1

>  <SCORE.INTER.POLAR>
0

>  <SCORE.INTER.ROT>
3

>  <SCORE.INTER.SOLV>
8.67377

>  <SCORE.INTER.VDW>
-21.8912

>  <SCORE.INTER.norm>
-1.25625

>  <SCORE.INTRA>
-0.609743

>  <SCORE.INTRA.DIHEDRAL>
0.450667

>  <SCORE.INTRA.DIHEDRAL.0>
3.89056

>  <SCORE.INTRA.POLAR>
0

>  <SCORE.INTRA.POLAR.0>
0

>  <SCORE.INTRA.REPUL>
0

>  <SCORE.INTRA.REPUL.0>
0

>  <SCORE.INTRA.SOLV>
-1.15435

>  <SCORE.INTRA.SOLV.lig_0>
-20.733

>  <SCORE.INTRA.VDW>
-0.257899

>  <SCORE.INTRA.VDW.0>
-0.828515

>  <SCORE.INTRA.norm>
-0.038109

>  <SCORE.RESTR>
0

>  <SCORE.RESTR.CAVITY>
0

>  <SCORE.RESTR.norm>
0

>  <SCORE.SYSTEM>
0

>  <SCORE.SYSTEM.CONST>
0

>  <SCORE.SYSTEM.DIHEDRAL>
0

>  <SCORE.SYSTEM.SOLV>
0

>  <SCORE.SYSTEM.norm>
0

>  <SCORE.heavy>
16

>  <SCORE.norm>
-1.29436

>  <RMSD>
4.416

$$$$
ligand
 OpenBabel02271912153D
libRbt.so/2013.1/901 2013/11/27
 16 17  0  0  0  0  0  0  0  0999 V2000
    9.2847    6.4465   81.9050 N   0  0  0  0  0  0  0  0  0  0  0  0
    9.2612    5.0273   81.7938 C   0  0  2  0  0  0  0  0  0  0  0  0
   10.3541    4.5164   80.8969 C   0  0  0  0  0  0  0  0  0  0  0  0
   10.9981    5.3286   80.1891 O   0  0  0  0  0  0  0  0  0  0  0  0
    6.1979    2.4734   86.1629 O   0  0  0  0  0  0  0  0  0  0  0  0
    7.9282    4.5536   81.2661 C   0  0  0  0  0  0  0  0  0  0  0  0
    7.7269    3.0639   81.4115 C   0  0  0  0  0  0  0  0  0  0  0  0
    7.9439    2.1537   80.4563 C   0  0  0  0  0  0  0  0  0  0  0  0
    7.2960    2.4955   82.6541 C   0  0  0  0  0  0  0  0  0  0  0  0
    7.2555    1.0972   82.4002 C   0  0  0  0  0  0  0  0  0  0  0  0
    6.9629    2.9708   83.8926 C   0  0  0  0  0  0  0  0  0  0  0  0
    7.6595    0.9778   81.0528 N   0  0  0  0  0  0  0  0  0  0  0  0
    6.8921    0.1935   83.3232 C   0  0  0  0  0  0  0  0  0  0  0  0
    6.5609    2.0261   84.8858 C   0  0  0  0  0  0  0  0  0  0  0  0
    6.5175    0.6152   84.6025 C   0  0  0  0  0  0  0  0  0  0  0  0
   10.6021    3.2931   80.8498 O   0  0  0  0  0  0  0  0  0  0  0  0
  2  1  1  6  0  0  0
  2  3  1  0  0  0  0
  2  6  1  0  0  0  0
  3  4  1  0  0  0  0
  3 16  1  0  0  0  0
  5 14  1  0  0  0  0
  6  7  1  0  0  0  0
  7  8  2  0  0  0  0
  7  9  1  0  0  0  0
  8 12  1  0  0  0  0
  9 10  2  0  0  0  0
  9 11  1  0  0  0  0
 10 13  1  0  0  0  0
 10 12  1  0  0  0  0
 11 14  2  0  0  0  0
 13 15  2  0  0  0  0
 14 15  1  0  0  0  0
M  END
>  <CHROM.1>
-11.66032897,-167.24763151,-97.00645429,8.16800623,3.03390167,82.33150762
0.11381832,0.95457189,0.63300225

>  <Name>
ligand

>  <RI>
0

>  <Rbt.Current_Directory>
/home/itssahil/PROJECTS/Mol_Feturizer/Test_systems_manuscript/rnas/5kpy

>  <Rbt.Executable>
rbdock ($Id: //depot/dev/client3/rdock/2013.1/src/exe/rbdock.cxx#4 $)

>  <Rbt.Library>
libRbt.so (2013.1, Build901 2013/11/27)

>  <Rbt.Parameter_File>
/export/apps/rDock/src/rDock_2013.1_src/data/scripts/dock_solv.prm

>  <Rbt.Receptor>
prm/pocket_docking_8.prm

>  <SCORE>
-20.7974

>  <SCORE.INTER>
-20.0698

>  <SCORE.INTER.CONST>
1

>  <SCORE.INTER.POLAR>
0

>  <SCORE.INTER.ROT>
3

>  <SCORE.INTER.SOLV>
8.66318

>  <SCORE.INTER.VDW>
-21.8676

>  <SCORE.INTER.norm>
-1.25436

>  <SCORE.INTRA>
-0.727538

>  <SCORE.INTRA.DIHEDRAL>
0.372035

>  <SCORE.INTRA.DIHEDRAL.0>
3.89056

>  <SCORE.INTRA.POLAR>
0

>  <SCORE.INTRA.POLAR.0>
0

>  <SCORE.INTRA.REPUL>
0

>  <SCORE.INTRA.REPUL.0>
0

>  <SCORE.INTRA.SOLV>
-1.15561

>  <SCORE.INTRA.SOLV.lig_0>
-20.733

>  <SCORE.INTRA.VDW>
-0.335752

>  <SCORE.INTRA.VDW.0>
-0.828515

>  <SCORE.INTRA.norm>
-0.0454711

>  <SCORE.RESTR>
0

>  <SCORE.RESTR.CAVITY>
0

>  <SCORE.RESTR.norm>
0

>  <SCORE.SYSTEM>
0

>  <SCORE.SYSTEM.CONST>
0

>  <SCORE.SYSTEM.DIHEDRAL>
0

>  <SCORE.SYSTEM.SOLV>
0

>  <SCORE.SYSTEM.norm>
0

>  <SCORE.heavy>
16

>  <SCORE.norm>
-1.29984

>  <RMSD>
4.425

$$$$
ligand
 OpenBabel02271912153D
libRbt.so/2013.1/901 2013/11/27
 16 17  0  0  0  0  0  0  0  0999 V2000
    8.3209    6.1046   81.3965 N   0  0  0  0  0  0  0  0  0  0  0  0
    8.4097    4.6881   81.5089 C   0  0  2  0  0  0  0  0  0  0  0  0
    9.5364    4.1292   80.6855 C   0  0  0  0  0  0  0  0  0  0  0  0
    9.8146    2.9085   80.7729 O   0  0  0  0  0  0  0  0  0  0  0  0
    6.9771    2.1073   86.3336 O   0  0  0  0  0  0  0  0  0  0  0  0
    7.1165    4.0351   81.0835 C   0  0  0  0  0  0  0  0  0  0  0  0
    7.0948    2.5449   81.3279 C   0  0  0  0  0  0  0  0  0  0  0  0
    7.1227    1.6017   80.3805 C   0  0  0  0  0  0  0  0  0  0  0  0
    7.0708    2.0160   82.6592 C   0  0  0  0  0  0  0  0  0  0  0  0
    7.0862    0.6066   82.4726 C   0  0  0  0  0  0  0  0  0  0  0  0
    7.0473    2.5333   83.9251 C   0  0  0  0  0  0  0  0  0  0  0  0
    7.1165    0.4429   81.0708 N   0  0  0  0  0  0  0  0  0  0  0  0
    7.0694   -0.2689   83.4895 C   0  0  0  0  0  0  0  0  0  0  0  0
    7.0163    1.6180   85.0214 C   0  0  0  0  0  0  0  0  0  0  0  0
    7.0219    0.1942   84.8078 C   0  0  0  0  0  0  0  0  0  0  0  0
   10.1949    4.8813   79.9366 O   0  0  0  0  0  0  0  0  0  0  0  0
  2  1  1  6  0  0  0
  2  3  1  0  0  0  0
  2  6  1  0  0  0  0
  3  4  1  0  0  0  0
  3 16  1  0  0  0  0
  5 14  1  0  0  0  0
  6  7  1  0  0  0  0
  7  8  2  0  0  0  0
  7  9  1  0  0  0  0
  8 12  1  0  0  0  0
  9 10  2  0  0  0  0
  9 11  1  0  0  0  0
 10 13  1  0  0  0  0
 10 12  1  0  0  0  0
 11 14  2  0  0  0  0
 13 15  2  0  0  0  0
 14 15  1  0  0  0  0
M  END
>  <CHROM.1>
173.83938741,-173.49582016,-110.18871799,7.81801799,2.59314279,82.27127058
-0.16793502,1.17578726,0.92783836

>  <Name>
ligand

>  <RI>
0

>  <Rbt.Current_Directory>
/home/itssahil/PROJECTS/Mol_Feturizer/Test_systems_manuscript/rnas/5kpy

>  <Rbt.Executable>
rbdock ($Id: //depot/dev/client3/rdock/2013.1/src/exe/rbdock.cxx#4 $)

>  <Rbt.Library>
libRbt.so (2013.1, Build901 2013/11/27)

>  <Rbt.Parameter_File>
/export/apps/rDock/src/rDock_2013.1_src/data/scripts/dock_solv.prm

>  <Rbt.Receptor>
prm/pocket_docking_7.prm

>  <SCORE>
-21.4601

>  <SCORE.INTER>
-20.6479

>  <SCORE.INTER.CONST>
1

>  <SCORE.INTER.POLAR>
0

>  <SCORE.INTER.ROT>
3

>  <SCORE.INTER.SOLV>
7.9346

>  <SCORE.INTER.VDW>
-22.0101

>  <SCORE.INTER.norm>
-1.29049

>  <SCORE.INTRA>
-0.812221

>  <SCORE.INTRA.DIHEDRAL>
-0.0064897

>  <SCORE.INTRA.DIHEDRAL.0>
3.89056

>  <SCORE.INTRA.POLAR>
0

>  <SCORE.INTRA.POLAR.0>
0

>  <SCORE.INTRA.REPUL>
0

>  <SCORE.INTRA.REPUL.0>
0

>  <SCORE.INTRA.SOLV>
-1.16039

>  <SCORE.INTRA.SOLV.lig_0>
-20.733

>  <SCORE.INTRA.VDW>
-0.228783

>  <SCORE.INTRA.VDW.0>
-0.828515

>  <SCORE.INTRA.norm>
-0.0507638

>  <SCORE.RESTR>
0

>  <SCORE.RESTR.CAVITY>
0

>  <SCORE.RESTR.norm>
0

>  <SCORE.SYSTEM>
0

>  <SCORE.SYSTEM.CONST>
0

>  <SCORE.SYSTEM.DIHEDRAL>
0

>  <SCORE.SYSTEM.SOLV>
0

>  <SCORE.SYSTEM.norm>
0

>  <SCORE.heavy>
16

>  <SCORE.norm>
-1.34126

>  <RMSD>
4.428

$$$$
ligand
 OpenBabel02271912153D
libRbt.so/2013.1/901 2013/11/27
 16 17  0  0  0  0  0  0  0  0999 V2000
    8.3392    6.1187   81.4478 N   0  0  0  0  0  0  0  0  0  0  0  0
    8.4381    4.7002   81.5188 C   0  0  2  0  0  0  0  0  0  0  0  0
    9.5644    4.1731   80.6741 C   0  0  0  0  0  0  0  0  0  0  0  0
    9.7999    2.9403   80.6637 O   0  0  0  0  0  0  0  0  0  0  0  0
    6.9459    2.1567   86.3413 O   0  0  0  0  0  0  0  0  0  0  0  0
    7.1472    4.0508   81.0809 C   0  0  0  0  0  0  0  0  0  0  0  0
    7.1150    2.5624   81.3343 C   0  0  0  0  0  0  0  0  0  0  0  0
    7.1470    1.6131   80.3931 C   0  0  0  0  0  0  0  0  0  0  0  0
    7.0751    2.0419   82.6686 C   0  0  0  0  0  0  0  0  0  0  0  0
    7.0846    0.6313   82.4909 C   0  0  0  0  0  0  0  0  0  0  0  0
    7.0420    2.5673   83.9310 C   0  0  0  0  0  0  0  0  0  0  0  0
    7.1277    0.4587   81.0905 N   0  0  0  0  0  0  0  0  0  0  0  0
    7.0531   -0.2377   83.5130 C   0  0  0  0  0  0  0  0  0  0  0  0
    6.9952    1.6589   85.0326 C   0  0  0  0  0  0  0  0  0  0  0  0
    6.9952    0.2338   84.8279 C   0  0  0  0  0  0  0  0  0  0  0  0
   10.2646    4.9618   80.0049 O   0  0  0  0  0  0  0  0  0  0  0  0
  2  1  1  6  0  0  0
  2  3  1  0  0  0  0
  2  6  1  0  0  0  0
  3  4  1  0  0  0  0
  3 16  1  0  0  0  0
  5 14  1  0  0  0  0
  6  7  1  0  0  0  0
  7  8  2  0  0  0  0
  7  9  1  0  0  0  0
  8 12  1  0  0  0  0
  9 10  2  0  0  0  0
  9 11  1  0  0  0  0
 10 13  1  0  0  0  0
 10 12  1  0  0  0  0
 11 14  2  0  0  0  0
 13 15  2  0  0  0  0
 14 15  1  0  0  0  0
M  END
>  <CHROM.1>
178.06651331,-171.14033769,-110.36067281,7.82588452,2.62446597,82.27935997
-0.15396403,1.16540452,0.91273912

>  <Name>
ligand

>  <RI>
0

>  <Rbt.Current_Directory>
/home/itssahil/PROJECTS/Mol_Feturizer/Test_systems_manuscript/rnas/5kpy

>  <Rbt.Executable>
rbdock ($Id: //depot/dev/client3/rdock/2013.1/src/exe/rbdock.cxx#4 $)

>  <Rbt.Library>
libRbt.so (2013.1, Build901 2013/11/27)

>  <Rbt.Parameter_File>
/export/apps/rDock/src/rDock_2013.1_src/data/scripts/dock_solv.prm

>  <Rbt.Receptor>
prm/pocket_docking_7.prm

>  <SCORE>
-21.4702

>  <SCORE.INTER>
-20.814

>  <SCORE.INTER.CONST>
1

>  <SCORE.INTER.POLAR>
0

>  <SCORE.INTER.ROT>
3

>  <SCORE.INTER.SOLV>
7.83799

>  <SCORE.INTER.VDW>
-22.0887

>  <SCORE.INTER.norm>
-1.30087

>  <SCORE.INTRA>
-0.65622

>  <SCORE.INTRA.DIHEDRAL>
0.123411

>  <SCORE.INTRA.DIHEDRAL.0>
3.89056

>  <SCORE.INTRA.POLAR>
0

>  <SCORE.INTRA.POLAR.0>
0

>  <SCORE.INTRA.REPUL>
0

>  <SCORE.INTRA.REPUL.0>
0

>  <SCORE.INTRA.SOLV>
-1.15869

>  <SCORE.INTRA.SOLV.lig_0>
-20.733

>  <SCORE.INTRA.VDW>
-0.138581

>  <SCORE.INTRA.VDW.0>
-0.828515

>  <SCORE.INTRA.norm>
-0.0410137

>  <SCORE.RESTR>
0

>  <SCORE.RESTR.CAVITY>
0

>  <SCORE.RESTR.norm>
0

>  <SCORE.SYSTEM>
0

>  <SCORE.SYSTEM.CONST>
0

>  <SCORE.SYSTEM.DIHEDRAL>
0

>  <SCORE.SYSTEM.SOLV>
0

>  <SCORE.SYSTEM.norm>
0

>  <SCORE.heavy>
16

>  <SCORE.norm>
-1.34189

>  <RMSD>
4.428

$$$$
ligand
 OpenBabel02271912153D
libRbt.so/2013.1/901 2013/11/27
 16 17  0  0  0  0  0  0  0  0999 V2000
    8.3517    6.1052   81.4584 N   0  0  0  0  0  0  0  0  0  0  0  0
    8.4426    4.6858   81.5222 C   0  0  2  0  0  0  0  0  0  0  0  0
    9.5665    4.1567   80.6756 C   0  0  0  0  0  0  0  0  0  0  0  0
   10.2148    4.9493   79.9498 O   0  0  0  0  0  0  0  0  0  0  0  0
    6.9507    2.1530   86.3410 O   0  0  0  0  0  0  0  0  0  0  0  0
    7.1484    4.0460   81.0801 C   0  0  0  0  0  0  0  0  0  0  0  0
    7.1043    2.5578   81.3335 C   0  0  0  0  0  0  0  0  0  0  0  0
    7.1245    1.6084   80.3921 C   0  0  0  0  0  0  0  0  0  0  0  0
    7.0650    2.0375   82.6679 C   0  0  0  0  0  0  0  0  0  0  0  0
    7.0617    0.6270   82.4900 C   0  0  0  0  0  0  0  0  0  0  0  0
    7.0412    2.5630   83.9304 C   0  0  0  0  0  0  0  0  0  0  0  0
    7.0980    0.4542   81.0894 N   0  0  0  0  0  0  0  0  0  0  0  0
    7.0265   -0.2419   83.5121 C   0  0  0  0  0  0  0  0  0  0  0  0
    6.9908    1.6550   85.0321 C   0  0  0  0  0  0  0  0  0  0  0  0
    6.9777    0.2300   84.8273 C   0  0  0  0  0  0  0  0  0  0  0  0
    9.8359    2.9372   80.6873 O   0  0  0  0  0  0  0  0  0  0  0  0
  2  1  1  6  0  0  0
  2  3  1  0  0  0  0
  2  6  1  0  0  0  0
  3  4  1  0  0  0  0
  3 16  1  0  0  0  0
  5 14  1  0  0  0  0
  6  7  1  0  0  0  0
  7  8  2  0  0  0  0
  7  9  1  0  0  0  0
  8 12  1  0  0  0  0
  9 10  2  0  0  0  0
  9 11  1  0  0  0  0
 10 13  1  0  0  0  0
 10 12  1  0  0  0  0
 11 14  2  0  0  0  0
 13 15  2  0  0  0  0
 14 15  1  0  0  0  0
M  END
>  <CHROM.1>
-5.39319653,-170.79147145,-110.77471811,7.81796484,2.61772882,82.27749327
-0.17238748,1.16302935,0.93053010

>  <Name>
ligand

>  <RI>
0

>  <Rbt.Current_Directory>
/home/itssahil/PROJECTS/Mol_Feturizer/Test_systems_manuscript/rnas/5kpy

>  <Rbt.Executable>
rbdock ($Id: //depot/dev/client3/rdock/2013.1/src/exe/rbdock.cxx#4 $)

>  <Rbt.Library>
libRbt.so (2013.1, Build901 2013/11/27)

>  <Rbt.Parameter_File>
/export/apps/rDock/src/rDock_2013.1_src/data/scripts/dock_solv.prm

>  <Rbt.Receptor>
prm/pocket_docking_7.prm

>  <SCORE>
-21.4368

>  <SCORE.INTER>
-20.683

>  <SCORE.INTER.CONST>
1

>  <SCORE.INTER.POLAR>
0

>  <SCORE.INTER.ROT>
3

>  <SCORE.INTER.SOLV>
7.81894

>  <SCORE.INTER.VDW>
-21.995

>  <SCORE.INTER.norm>
-1.29269

>  <SCORE.INTRA>
-0.753845

>  <SCORE.INTRA.DIHEDRAL>
0.1362

>  <SCORE.INTRA.DIHEDRAL.0>
3.89056

>  <SCORE.INTRA.POLAR>
0

>  <SCORE.INTRA.POLAR.0>
0

>  <SCORE.INTRA.REPUL>
0

>  <SCORE.INTRA.REPUL.0>
0

>  <SCORE.INTRA.SOLV>
-1.15208

>  <SCORE.INTRA.SOLV.lig_0>
-20.733

>  <SCORE.INTRA.VDW>
-0.245905

>  <SCORE.INTRA.VDW.0>
-0.828515

>  <SCORE.INTRA.norm>
-0.0471153

>  <SCORE.RESTR>
0

>  <SCORE.RESTR.CAVITY>
0

>  <SCORE.RESTR.norm>
0

>  <SCORE.SYSTEM>
0

>  <SCORE.SYSTEM.CONST>
0

>  <SCORE.SYSTEM.DIHEDRAL>
0

>  <SCORE.SYSTEM.SOLV>
0

>  <SCORE.SYSTEM.norm>
0

>  <SCORE.heavy>
16

>  <SCORE.norm>
-1.3398

>  <RMSD>
4.431

$$$$
ligand
 OpenBabel02271912153D
libRbt.so/2013.1/901 2013/11/27
 16 17  0  0  0  0  0  0  0  0999 V2000
    9.2727    6.4293   81.8918 N   0  0  0  0  0  0  0  0  0  0  0  0
    9.2521    5.0101   81.7797 C   0  0  2  0  0  0  0  0  0  0  0  0
   10.3396    4.5028   80.8744 C   0  0  0  0  0  0  0  0  0  0  0  0
   10.9863    5.3188   80.1736 O   0  0  0  0  0  0  0  0  0  0  0  0
    6.0797    2.4301   86.1096 O   0  0  0  0  0  0  0  0  0  0  0  0
    7.9164    4.5333   81.2616 C   0  0  0  0  0  0  0  0  0  0  0  0
    7.7237    3.0418   81.3994 C   0  0  0  0  0  0  0  0  0  0  0  0
    7.9722    2.1351   80.4485 C   0  0  0  0  0  0  0  0  0  0  0  0
    7.2661    2.4675   82.6298 C   0  0  0  0  0  0  0  0  0  0  0  0
    7.2435    1.0695   82.3726 C   0  0  0  0  0  0  0  0  0  0  0  0
    6.8978    2.9379   83.8602 C   0  0  0  0  0  0  0  0  0  0  0  0
    7.6824    0.9559   81.0356 N   0  0  0  0  0  0  0  0  0  0  0  0
    6.8642    0.1611   83.2846 C   0  0  0  0  0  0  0  0  0  0  0  0
    6.4786    1.9881   84.8413 C   0  0  0  0  0  0  0  0  0  0  0  0
    6.4538    0.5774   84.5547 C   0  0  0  0  0  0  0  0  0  0  0  0
   10.5805    3.2787   80.8134 O   0  0  0  0  0  0  0  0  0  0  0  0
  2  1  1  6  0  0  0
  2  3  1  0  0  0  0
  2  6  1  0  0  0  0
  3  4  1  0  0  0  0
  3 16  1  0  0  0  0
  5 14  1  0  0  0  0
  6  7  1  0  0  0  0
  7  8  2  0  0  0  0
  7  9  1  0  0  0  0
  8 12  1  0  0  0  0
  9 10  2  0  0  0  0
  9 11  1  0  0  0  0
 10 13  1  0  0  0  0
 10 12  1  0  0  0  0
 11 14  2  0  0  0  0
 13 15  2  0  0  0  0
 14 15  1  0  0  0  0
M  END
>  <CHROM.1>
-10.86785240,-167.61322082,-94.98683111,8.14051258,3.00950537,82.30570156
0.14551442,0.94336779,0.59737162

>  <Name>
ligand

>  <RI>
0

>  <Rbt.Current_Directory>
/home/itssahil/PROJECTS/Mol_Feturizer/Test_systems_manuscript/rnas/5kpy

>  <Rbt.Executable>
rbdock ($Id: //depot/dev/client3/rdock/2013.1/src/exe/rbdock.cxx#4 $)

>  <Rbt.Library>
libRbt.so (2013.1, Build901 2013/11/27)

>  <Rbt.Parameter_File>
/export/apps/rDock/src/rDock_2013.1_src/data/scripts/dock_solv.prm

>  <Rbt.Receptor>
prm/blind_docking_100.prm

>  <SCORE>
-20.7491

>  <SCORE.INTER>
-20.0653

>  <SCORE.INTER.CONST>
1

>  <SCORE.INTER.POLAR>
0

>  <SCORE.INTER.ROT>
3

>  <SCORE.INTER.SOLV>
8.76036

>  <SCORE.INTER.VDW>
-21.897

>  <SCORE.INTER.norm>
-1.25408

>  <SCORE.INTRA>
-0.683839

>  <SCORE.INTRA.DIHEDRAL>
0.336565

>  <SCORE.INTRA.DIHEDRAL.0>
3.89056

>  <SCORE.INTRA.POLAR>
0

>  <SCORE.INTRA.POLAR.0>
0

>  <SCORE.INTRA.REPUL>
0

>  <SCORE.INTRA.REPUL.0>
0

>  <SCORE.INTRA.SOLV>
-1.15667

>  <SCORE.INTRA.SOLV.lig_0>
-20.733

>  <SCORE.INTRA.VDW>
-0.273787

>  <SCORE.INTRA.VDW.0>
-0.828515

>  <SCORE.INTRA.norm>
-0.04274

>  <SCORE.RESTR>
0

>  <SCORE.RESTR.CAVITY>
0

>  <SCORE.RESTR.norm>
0

>  <SCORE.SYSTEM>
0

>  <SCORE.SYSTEM.CONST>
0

>  <SCORE.SYSTEM.DIHEDRAL>
0

>  <SCORE.SYSTEM.SOLV>
0

>  <SCORE.SYSTEM.norm>
0

>  <SCORE.heavy>
16

>  <SCORE.norm>
-1.29682

>  <RMSD>
4.433

$$$$
ligand
 OpenBabel02271912153D
libRbt.so/2013.1/901 2013/11/27
 16 17  0  0  0  0  0  0  0  0999 V2000
    8.3563    6.1088   81.4489 N   0  0  0  0  0  0  0  0  0  0  0  0
    8.4467    4.6895   81.5148 C   0  0  2  0  0  0  0  0  0  0  0  0
    9.5716    4.1589   80.6705 C   0  0  0  0  0  0  0  0  0  0  0  0
   10.2571    4.9581   79.9874 O   0  0  0  0  0  0  0  0  0  0  0  0
    6.9248    2.1542   86.3306 O   0  0  0  0  0  0  0  0  0  0  0  0
    7.1529    4.0495   81.0718 C   0  0  0  0  0  0  0  0  0  0  0  0
    7.1092    2.5611   81.3244 C   0  0  0  0  0  0  0  0  0  0  0  0
    7.1367    1.6121   80.3828 C   0  0  0  0  0  0  0  0  0  0  0  0
    7.0623    2.0402   82.6583 C   0  0  0  0  0  0  0  0  0  0  0  0
    7.0620    0.6298   82.4799 C   0  0  0  0  0  0  0  0  0  0  0  0
    7.0298    2.5652   83.9209 C   0  0  0  0  0  0  0  0  0  0  0  0
    7.1074    0.4576   81.0795 N   0  0  0  0  0  0  0  0  0  0  0  0
    7.0217   -0.2396   83.5014 C   0  0  0  0  0  0  0  0  0  0  0  0
    6.9738    1.6567   85.0218 C   0  0  0  0  0  0  0  0  0  0  0  0
    6.9640    0.2318   84.8164 C   0  0  0  0  0  0  0  0  0  0  0  0
    9.8053    2.9323   80.6416 O   0  0  0  0  0  0  0  0  0  0  0  0
  2  1  1  6  0  0  0
  2  3  1  0  0  0  0
  2  6  1  0  0  0  0
  3  4  1  0  0  0  0
  3 16  1  0  0  0  0
  5 14  1  0  0  0  0
  6  7  1  0  0  0  0
  7  8  2  0  0  0  0
  7  9  1  0  0  0  0
  8 12  1  0  0  0  0
  9 10  2  0  0  0  0
  9 11  1  0  0  0  0
 10 13  1  0  0  0  0
 10 12  1  0  0  0  0
 11 14  2  0  0  0  0
 13 15  2  0  0  0  0
 14 15  1  0  0  0  0
M  END
>  <CHROM.1>
-2.43231792,-170.92368287,-110.43321817,7.81681648,2.62033328,82.26896738
-0.15883959,1.15946451,0.91733896

>  <Name>
ligand

>  <RI>
0

>  <Rbt.Current_Directory>
/home/itssahil/PROJECTS/Mol_Feturizer/Test_systems_manuscript/rnas/5kpy

>  <Rbt.Executable>
rbdock ($Id: //depot/dev/client3/rdock/2013.1/src/exe/rbdock.cxx#4 $)

>  <Rbt.Library>
libRbt.so (2013.1, Build901 2013/11/27)

>  <Rbt.Parameter_File>
/export/apps/rDock/src/rDock_2013.1_src/data/scripts/dock_solv.prm

>  <Rbt.Receptor>
prm/pocket_docking_5.prm

>  <SCORE>
-21.447

>  <SCORE.INTER>
-20.7856

>  <SCORE.INTER.CONST>
1

>  <SCORE.INTER.POLAR>
0

>  <SCORE.INTER.ROT>
3

>  <SCORE.INTER.SOLV>
7.82521

>  <SCORE.INTER.VDW>
-22.0655

>  <SCORE.INTER.norm>
-1.2991

>  <SCORE.INTRA>
-0.661365

>  <SCORE.INTRA.DIHEDRAL>
0.130682

>  <SCORE.INTRA.DIHEDRAL.0>
3.89056

>  <SCORE.INTRA.POLAR>
0

>  <SCORE.INTRA.POLAR.0>
0

>  <SCORE.INTRA.REPUL>
0

>  <SCORE.INTRA.REPUL.0>
0

>  <SCORE.INTRA.SOLV>
-1.15193

>  <SCORE.INTRA.SOLV.lig_0>
-20.733

>  <SCORE.INTRA.VDW>
-0.150743

>  <SCORE.INTRA.VDW.0>
-0.828515

>  <SCORE.INTRA.norm>
-0.0413353

>  <SCORE.RESTR>
0

>  <SCORE.RESTR.CAVITY>
0

>  <SCORE.RESTR.norm>
0

>  <SCORE.SYSTEM>
0

>  <SCORE.SYSTEM.CONST>
0

>  <SCORE.SYSTEM.DIHEDRAL>
0

>  <SCORE.SYSTEM.SOLV>
0

>  <SCORE.SYSTEM.norm>
0

>  <SCORE.heavy>
16

>  <SCORE.norm>
-1.34044

>  <RMSD>
4.434

$$$$
ligand
 OpenBabel02271912153D
libRbt.so/2013.1/901 2013/11/27
 16 17  0  0  0  0  0  0  0  0999 V2000
    8.3294    6.0959   81.4401 N   0  0  0  0  0  0  0  0  0  0  0  0
    8.4383    4.6776   81.5006 C   0  0  2  0  0  0  0  0  0  0  0  0
    9.5871    4.1672   80.6763 C   0  0  0  0  0  0  0  0  0  0  0  0
   10.2568    4.9757   79.9884 O   0  0  0  0  0  0  0  0  0  0  0  0
    6.9290    2.1385   86.2913 O   0  0  0  0  0  0  0  0  0  0  0  0
    7.1627    4.0221   81.0285 C   0  0  0  0  0  0  0  0  0  0  0  0
    7.1291    2.5341   81.2847 C   0  0  0  0  0  0  0  0  0  0  0  0
    7.1672    1.5830   80.3456 C   0  0  0  0  0  0  0  0  0  0  0  0
    7.0811    2.0163   82.6198 C   0  0  0  0  0  0  0  0  0  0  0  0
    7.0920    0.6054   82.4450 C   0  0  0  0  0  0  0  0  0  0  0  0
    7.0400    2.5442   83.8808 C   0  0  0  0  0  0  0  0  0  0  0  0
    7.1438    0.4300   81.0452 N   0  0  0  0  0  0  0  0  0  0  0  0
    7.0542   -0.2616   83.4686 C   0  0  0  0  0  0  0  0  0  0  0  0
    6.9866    1.6381   84.9839 C   0  0  0  0  0  0  0  0  0  0  0  0
    6.9881    0.2126   84.7821 C   0  0  0  0  0  0  0  0  0  0  0  0
    9.8562    2.9475   80.6684 O   0  0  0  0  0  0  0  0  0  0  0  0
  2  1  1  6  0  0  0
  2  3  1  0  0  0  0
  2  6  1  0  0  0  0
  3  4  1  0  0  0  0
  3 16  1  0  0  0  0
  5 14  1  0  0  0  0
  6  7  1  0  0  0  0
  7  8  2  0  0  0  0
  7  9  1  0  0  0  0
  8 12  1  0  0  0  0
  9 10  2  0  0  0  0
  9 11  1  0  0  0  0
 10 13  1  0  0  0  0
 10 12  1  0  0  0  0
 11 14  2  0  0  0  0
 13 15  2  0  0  0  0
 14 15  1  0  0  0  0
M  END
>  <CHROM.1>
-3.96584127,-170.36105847,-111.62432935,7.83280767,2.60631067,82.24500734
-0.14094048,1.16214725,0.90717145

>  <Name>
ligand

>  <RI>
0

>  <Rbt.Current_Directory>
/home/itssahil/PROJECTS/Mol_Feturizer/Test_systems_manuscript/rnas/5kpy

>  <Rbt.Executable>
rbdock ($Id: //depot/dev/client3/rdock/2013.1/src/exe/rbdock.cxx#4 $)

>  <Rbt.Library>
libRbt.so (2013.1, Build901 2013/11/27)

>  <Rbt.Parameter_File>
/export/apps/rDock/src/rDock_2013.1_src/data/scripts/dock_solv.prm

>  <Rbt.Receptor>
prm/pocket_docking_5.prm

>  <SCORE>
-21.3925

>  <SCORE.INTER>
-20.687

>  <SCORE.INTER.CONST>
1

>  <SCORE.INTER.POLAR>
0

>  <SCORE.INTER.ROT>
3

>  <SCORE.INTER.SOLV>
7.78841

>  <SCORE.INTER.VDW>
-21.9875

>  <SCORE.INTER.norm>
-1.29294

>  <SCORE.INTRA>
-0.70556

>  <SCORE.INTRA.DIHEDRAL>
0.172323

>  <SCORE.INTRA.DIHEDRAL.0>
3.89056

>  <SCORE.INTRA.POLAR>
0

>  <SCORE.INTRA.POLAR.0>
0

>  <SCORE.INTRA.REPUL>
0

>  <SCORE.INTRA.REPUL.0>
0

>  <SCORE.INTRA.SOLV>
-1.15114

>  <SCORE.INTRA.SOLV.lig_0>
-20.733

>  <SCORE.INTRA.VDW>
-0.216154

>  <SCORE.INTRA.VDW.0>
-0.828515

>  <SCORE.INTRA.norm>
-0.0440975

>  <SCORE.RESTR>
0

>  <SCORE.RESTR.CAVITY>
0

>  <SCORE.RESTR.norm>
0

>  <SCORE.SYSTEM>
0

>  <SCORE.SYSTEM.CONST>
0

>  <SCORE.SYSTEM.DIHEDRAL>
0

>  <SCORE.SYSTEM.SOLV>
0

>  <SCORE.SYSTEM.norm>
0

>  <SCORE.heavy>
16

>  <SCORE.norm>
-1.33703

>  <RMSD>
4.440

$$$$
ligand
 OpenBabel02271912153D
libRbt.so/2013.1/901 2013/11/27
 16 17  0  0  0  0  0  0  0  0999 V2000
    8.3743    6.0901   81.3532 N   0  0  0  0  0  0  0  0  0  0  0  0
    8.4548    4.6734   81.4698 C   0  0  2  0  0  0  0  0  0  0  0  0
    9.5947    4.1082   80.6694 C   0  0  0  0  0  0  0  0  0  0  0  0
   10.2280    4.8584   79.8874 O   0  0  0  0  0  0  0  0  0  0  0  0
    6.9115    2.1613   86.2893 O   0  0  0  0  0  0  0  0  0  0  0  0
    7.1672    4.0253   81.0206 C   0  0  0  0  0  0  0  0  0  0  0  0
    7.1277    2.5383   81.2820 C   0  0  0  0  0  0  0  0  0  0  0  0
    7.1652    1.5837   80.3464 C   0  0  0  0  0  0  0  0  0  0  0  0
    7.0739    2.0255   82.6187 C   0  0  0  0  0  0  0  0  0  0  0  0
    7.0804    0.6139   82.4490 C   0  0  0  0  0  0  0  0  0  0  0  0
    7.0310    2.5580   83.8778 C   0  0  0  0  0  0  0  0  0  0  0  0
    7.1357    0.4333   81.0500 N   0  0  0  0  0  0  0  0  0  0  0  0
    7.0366   -0.2493   83.4756 C   0  0  0  0  0  0  0  0  0  0  0  0
    6.9711    1.6561   84.9839 C   0  0  0  0  0  0  0  0  0  0  0  0
    6.9683    0.2298   84.7872 C   0  0  0  0  0  0  0  0  0  0  0  0
    9.8923    2.8997   80.7745 O   0  0  0  0  0  0  0  0  0  0  0  0
  2  1  1  6  0  0  0
  2  3  1  0  0  0  0
  2  6  1  0  0  0  0
  3  4  1  0  0  0  0
  3 16  1  0  0  0  0
  5 14  1  0  0  0  0
  6  7  1  0  0  0  0
  7  8  2  0  0  0  0
  7  9  1  0  0  0  0
  8 12  1  0  0  0  0
  9 10  2  0  0  0  0
  9 11  1  0  0  0  0
 10 13  1  0  0  0  0
 10 12  1  0  0  0  0
 11 14  2  0  0  0  0
 13 15  2  0  0  0  0
 14 15  1  0  0  0  0
M  END
>  <CHROM.1>
-8.45225022,-172.81505078,-110.50878188,7.83142996,2.59675189,82.23756331
-0.14146782,1.15933069,0.89217640

>  <Name>
ligand

>  <RI>
0

>  <Rbt.Current_Directory>
/home/itssahil/PROJECTS/Mol_Feturizer/Test_systems_manuscript/rnas/5kpy

>  <Rbt.Executable>
rbdock ($Id: //depot/dev/client3/rdock/2013.1/src/exe/rbdock.cxx#4 $)

>  <Rbt.Library>
libRbt.so (2013.1, Build901 2013/11/27)

>  <Rbt.Parameter_File>
/export/apps/rDock/src/rDock_2013.1_src/data/scripts/dock_solv.prm

>  <Rbt.Receptor>
prm/pocket_docking_6.prm

>  <SCORE>
-21.4682

>  <SCORE.INTER>
-20.5953

>  <SCORE.INTER.CONST>
1

>  <SCORE.INTER.POLAR>
0

>  <SCORE.INTER.ROT>
3

>  <SCORE.INTER.SOLV>
7.99837

>  <SCORE.INTER.VDW>
-21.9964

>  <SCORE.INTER.norm>
-1.28721

>  <SCORE.INTRA>
-0.872848

>  <SCORE.INTRA.DIHEDRAL>
0.0056496

>  <SCORE.INTRA.DIHEDRAL.0>
3.89056

>  <SCORE.INTRA.POLAR>
0

>  <SCORE.INTRA.POLAR.0>
0

>  <SCORE.INTRA.REPUL>
0

>  <SCORE.INTRA.REPUL.0>
0

>  <SCORE.INTRA.SOLV>
-1.15433

>  <SCORE.INTRA.SOLV.lig_0>
-20.733

>  <SCORE.INTRA.VDW>
-0.298508

>  <SCORE.INTRA.VDW.0>
-0.828515

>  <SCORE.INTRA.norm>
-0.054553

>  <SCORE.RESTR>
0

>  <SCORE.RESTR.CAVITY>
0

>  <SCORE.RESTR.norm>
0

>  <SCORE.SYSTEM>
0

>  <SCORE.SYSTEM.CONST>
0

>  <SCORE.SYSTEM.DIHEDRAL>
0

>  <SCORE.SYSTEM.SOLV>
0

>  <SCORE.SYSTEM.norm>
0

>  <SCORE.heavy>
16

>  <SCORE.norm>
-1.34176

>  <RMSD>
4.451

$$$$
ligand
 OpenBabel02271912153D
libRbt.so/2013.1/901 2013/11/27
 16 17  0  0  0  0  0  0  0  0999 V2000
    8.3318    6.0532   81.3237 N   0  0  0  0  0  0  0  0  0  0  0  0
    8.4033    4.6379   81.4611 C   0  0  2  0  0  0  0  0  0  0  0  0
    9.5241    4.0511   80.6491 C   0  0  0  0  0  0  0  0  0  0  0  0
   10.1696    4.7912   79.8676 O   0  0  0  0  0  0  0  0  0  0  0  0
    6.9995    2.1244   86.3174 O   0  0  0  0  0  0  0  0  0  0  0  0
    7.1027    3.9933   81.0452 C   0  0  0  0  0  0  0  0  0  0  0  0
    7.0665    2.5062   81.3062 C   0  0  0  0  0  0  0  0  0  0  0  0
    7.0729    1.5525   80.3690 C   0  0  0  0  0  0  0  0  0  0  0  0
    7.0512    1.9920   82.6435 C   0  0  0  0  0  0  0  0  0  0  0  0
    7.0482    0.5807   82.4722 C   0  0  0  0  0  0  0  0  0  0  0  0
    7.0478    2.5234   83.9038 C   0  0  0  0  0  0  0  0  0  0  0  0
    7.0610    0.4014   81.0720 N   0  0  0  0  0  0  0  0  0  0  0  0
    7.0326   -0.2835   83.4988 C   0  0  0  0  0  0  0  0  0  0  0  0
    7.0184    1.6204   85.0103 C   0  0  0  0  0  0  0  0  0  0  0  0
    7.0052    0.1944   84.8123 C   0  0  0  0  0  0  0  0  0  0  0  0
    9.7936    2.8352   80.7445 O   0  0  0  0  0  0  0  0  0  0  0  0
  2  1  1  6  0  0  0
  2  3  1  0  0  0  0
  2  6  1  0  0  0  0
  3  4  1  0  0  0  0
  3 16  1  0  0  0  0
  5 14  1  0  0  0  0
  6  7  1  0  0  0  0
  7  8  2  0  0  0  0
  7  9  1  0  0  0  0
  8 12  1  0  0  0  0
  9 10  2  0  0  0  0
  9 11  1  0  0  0  0
 10 13  1  0  0  0  0
 10 12  1  0  0  0  0
 11 14  2  0  0  0  0
 13 15  2  0  0  0  0
 14 15  1  0  0  0  0
M  END
>  <CHROM.1>
-6.77277478,-173.92080967,-110.72490081,7.80061651,2.55647436,82.24649501
-0.21080139,1.17273933,0.95942698

>  <Name>
ligand

>  <RI>
0

>  <Rbt.Current_Directory>
/home/itssahil/PROJECTS/Mol_Feturizer/Test_systems_manuscript/rnas/5kpy

>  <Rbt.Executable>
rbdock ($Id: //depot/dev/client3/rdock/2013.1/src/exe/rbdock.cxx#4 $)

>  <Rbt.Library>
libRbt.so (2013.1, Build901 2013/11/27)

>  <Rbt.Parameter_File>
/export/apps/rDock/src/rDock_2013.1_src/data/scripts/dock_solv.prm

>  <Rbt.Receptor>
prm/pocket_docking_6.prm

>  <SCORE>
-21.4211

>  <SCORE.INTER>
-20.5906

>  <SCORE.INTER.CONST>
1

>  <SCORE.INTER.POLAR>
0

>  <SCORE.INTER.ROT>
3

>  <SCORE.INTER.SOLV>
8.06124

>  <SCORE.INTER.VDW>
-22.0142

>  <SCORE.INTER.norm>
-1.28691

>  <SCORE.INTRA>
-0.830502

>  <SCORE.INTRA.DIHEDRAL>
-0.0461959

>  <SCORE.INTRA.DIHEDRAL.0>
3.89056

>  <SCORE.INTRA.POLAR>
0

>  <SCORE.INTRA.POLAR.0>
0

>  <SCORE.INTRA.REPUL>
0

>  <SCORE.INTRA.REPUL.0>
0

>  <SCORE.INTRA.SOLV>
-1.15458

>  <SCORE.INTRA.SOLV.lig_0>
-20.733

>  <SCORE.INTRA.VDW>
-0.230115

>  <SCORE.INTRA.VDW.0>
-0.828515

>  <SCORE.INTRA.norm>
-0.0519064

>  <SCORE.RESTR>
0

>  <SCORE.RESTR.CAVITY>
0

>  <SCORE.RESTR.norm>
0

>  <SCORE.SYSTEM>
0

>  <SCORE.SYSTEM.CONST>
0

>  <SCORE.SYSTEM.DIHEDRAL>
0

>  <SCORE.SYSTEM.SOLV>
0

>  <SCORE.SYSTEM.norm>
0

>  <SCORE.heavy>
16

>  <SCORE.norm>
-1.33882

>  <RMSD>
4.455

$$$$
ligand
 OpenBabel02271912153D
libRbt.so/2013.1/901 2013/11/27
 16 17  0  0  0  0  0  0  0  0999 V2000
    8.3588    6.0833   81.3446 N   0  0  0  0  0  0  0  0  0  0  0  0
    8.4547    4.6682   81.4691 C   0  0  2  0  0  0  0  0  0  0  0  0
    9.5932    4.1097   80.6618 C   0  0  0  0  0  0  0  0  0  0  0  0
   10.2049    4.8588   79.8618 O   0  0  0  0  0  0  0  0  0  0  0  0
    6.9139    2.1655   86.3129 O   0  0  0  0  0  0  0  0  0  0  0  0
    7.1699    4.0043   81.0354 C   0  0  0  0  0  0  0  0  0  0  0  0
    7.1485    2.5184   81.3047 C   0  0  0  0  0  0  0  0  0  0  0  0
    7.2028    1.5594   80.3745 C   0  0  0  0  0  0  0  0  0  0  0  0
    7.0951    2.0121   82.6439 C   0  0  0  0  0  0  0  0  0  0  0  0
    7.1208    0.5998   82.4819 C   0  0  0  0  0  0  0  0  0  0  0  0
    7.0395    2.5508   83.8999 C   0  0  0  0  0  0  0  0  0  0  0  0
    7.1850    0.4125   81.0841 N   0  0  0  0  0  0  0  0  0  0  0  0
    7.0835   -0.2583   83.5129 C   0  0  0  0  0  0  0  0  0  0  0  0
    6.9862    1.6541   85.0106 C   0  0  0  0  0  0  0  0  0  0  0  0
    7.0028    0.2269   84.8216 C   0  0  0  0  0  0  0  0  0  0  0  0
    9.9107    2.9074   80.7793 O   0  0  0  0  0  0  0  0  0  0  0  0
  2  1  1  6  0  0  0
  2  3  1  0  0  0  0
  2  6  1  0  0  0  0
  3  4  1  0  0  0  0
  3 16  1  0  0  0  0
  5 14  1  0  0  0  0
  6  7  1  0  0  0  0
  7  8  2  0  0  0  0
  7  9  1  0  0  0  0
  8 12  1  0  0  0  0
  9 10  2  0  0  0  0
  9 11  1  0  0  0  0
 10 13  1  0  0  0  0
 10 12  1  0  0  0  0
 11 14  2  0  0  0  0
 13 15  2  0  0  0  0
 14 15  1  0  0  0  0
M  END
>  <CHROM.1>
-9.01357359,-172.88301351,-109.68576226,7.84639297,2.58892051,82.25301422
-0.10861945,1.16801898,0.84972072

>  <Name>
ligand

>  <RI>
0

>  <Rbt.Current_Directory>
/home/itssahil/PROJECTS/Mol_Feturizer/Test_systems_manuscript/rnas/5kpy

>  <Rbt.Executable>
rbdock ($Id: //depot/dev/client3/rdock/2013.1/src/exe/rbdock.cxx#4 $)

>  <Rbt.Library>
libRbt.so (2013.1, Build901 2013/11/27)

>  <Rbt.Parameter_File>
/export/apps/rDock/src/rDock_2013.1_src/data/scripts/dock_solv.prm

>  <Rbt.Receptor>
prm/pocket_docking_7.prm

>  <SCORE>
-21.4581

>  <SCORE.INTER>
-20.5707

>  <SCORE.INTER.CONST>
1

>  <SCORE.INTER.POLAR>
0

>  <SCORE.INTER.ROT>
3

>  <SCORE.INTER.SOLV>
8.02522

>  <SCORE.INTER.VDW>
-21.9889

>  <SCORE.INTER.norm>
-1.28567

>  <SCORE.INTRA>
-0.887431

>  <SCORE.INTRA.DIHEDRAL>
-0.00213752

>  <SCORE.INTRA.DIHEDRAL.0>
3.89056

>  <SCORE.INTRA.POLAR>
0

>  <SCORE.INTRA.POLAR.0>
0

>  <SCORE.INTRA.REPUL>
0

>  <SCORE.INTRA.REPUL.0>
0

>  <SCORE.INTRA.SOLV>
-1.15484

>  <SCORE.INTRA.SOLV.lig_0>
-20.733

>  <SCORE.INTRA.VDW>
-0.308942

>  <SCORE.INTRA.VDW.0>
-0.828515

>  <SCORE.INTRA.norm>
-0.0554645

>  <SCORE.RESTR>
0

>  <SCORE.RESTR.CAVITY>
0

>  <SCORE.RESTR.norm>
0

>  <SCORE.SYSTEM>
0

>  <SCORE.SYSTEM.CONST>
0

>  <SCORE.SYSTEM.DIHEDRAL>
0

>  <SCORE.SYSTEM.SOLV>
0

>  <SCORE.SYSTEM.norm>
0

>  <SCORE.heavy>
16

>  <SCORE.norm>
-1.34113

>  <RMSD>
4.455

$$$$
ligand
 OpenBabel02271912153D
libRbt.so/2013.1/901 2013/11/27
 16 17  0  0  0  0  0  0  0  0999 V2000
    8.3327    5.7303   81.3909 N   0  0  0  0  0  0  0  0  0  0  0  0
    9.1008    4.5402   81.5354 C   0  0  2  0  0  0  0  0  0  0  0  0
   10.4947    4.7030   80.9965 C   0  0  0  0  0  0  0  0  0  0  0  0
   11.4709    4.6113   81.7799 O   0  0  0  0  0  0  0  0  0  0  0  0
    5.6354    4.5357   85.5392 O   0  0  0  0  0  0  0  0  0  0  0  0
    8.4322    3.3829   80.8330 C   0  0  0  0  0  0  0  0  0  0  0  0
    8.0546    2.2584   81.7677 C   0  0  0  0  0  0  0  0  0  0  0  0
    8.3460    0.9661   81.5861 C   0  0  0  0  0  0  0  0  0  0  0  0
    7.3487    2.5183   82.9872 C   0  0  0  0  0  0  0  0  0  0  0  0
    7.2104    1.2370   83.5875 C   0  0  0  0  0  0  0  0  0  0  0  0
    6.8473    3.6225   83.6197 C   0  0  0  0  0  0  0  0  0  0  0  0
    7.8377    0.3585   82.6778 N   0  0  0  0  0  0  0  0  0  0  0  0
    6.5937    1.0395   84.7629 C   0  0  0  0  0  0  0  0  0  0  0  0
    6.1759    3.4322   84.8662 C   0  0  0  0  0  0  0  0  0  0  0  0
    6.0387    2.1233   85.4500 C   0  0  0  0  0  0  0  0  0  0  0  0
   10.6708    4.9430   79.7835 O   0  0  0  0  0  0  0  0  0  0  0  0
  2  1  1  6  0  0  0
  2  3  1  0  0  0  0
  2  6  1  0  0  0  0
  3  4  1  0  0  0  0
  3 16  1  0  0  0  0
  5 14  1  0  0  0  0
  6  7  1  0  0  0  0
  7  8  2  0  0  0  0
  7  9  1  0  0  0  0
  8 12  1  0  0  0  0
  9 10  2  0  0  0  0
  9 11  1  0  0  0  0
 10 13  1  0  0  0  0
 10 12  1  0  0  0  0
 11 14  2  0  0  0  0
 13 15  2  0  0  0  0
 14 15  1  0  0  0  0
M  END
>  <CHROM.1>
116.52205944,-118.54694674,-129.79103716,8.11592843,3.22188336,82.64311292
0.29966535,0.81762054,0.14051795

>  <Name>
ligand

>  <RI>
0

>  <Rbt.Current_Directory>
/home/itssahil/PROJECTS/Mol_Feturizer/Test_systems_manuscript/rnas/5kpy

>  <Rbt.Executable>
rbdock ($Id: //depot/dev/client3/rdock/2013.1/src/exe/rbdock.cxx#4 $)

>  <Rbt.Library>
libRbt.so (2013.1, Build901 2013/11/27)

>  <Rbt.Parameter_File>
/export/apps/rDock/src/rDock_2013.1_src/data/scripts/dock_solv.prm

>  <Rbt.Receptor>
prm/pocket_docking_8.prm

>  <SCORE>
-17.7883

>  <SCORE.INTER>
-20.2616

>  <SCORE.INTER.CONST>
1

>  <SCORE.INTER.POLAR>
0

>  <SCORE.INTER.ROT>
3

>  <SCORE.INTER.SOLV>
5.87235

>  <SCORE.INTER.VDW>
-21.0652

>  <SCORE.INTER.norm>
-1.26635

>  <SCORE.INTRA>
2.47324

>  <SCORE.INTRA.DIHEDRAL>
5.70484

>  <SCORE.INTRA.DIHEDRAL.0>
3.89056

>  <SCORE.INTRA.POLAR>
0

>  <SCORE.INTRA.POLAR.0>
0

>  <SCORE.INTRA.REPUL>
0

>  <SCORE.INTRA.REPUL.0>
0

>  <SCORE.INTRA.SOLV>
-0.475875

>  <SCORE.INTRA.SOLV.lig_0>
-20.733

>  <SCORE.INTRA.VDW>
-0.141241

>  <SCORE.INTRA.VDW.0>
-0.828515

>  <SCORE.INTRA.norm>
0.154578

>  <SCORE.RESTR>
0

>  <SCORE.RESTR.CAVITY>
0

>  <SCORE.RESTR.norm>
0

>  <SCORE.SYSTEM>
0

>  <SCORE.SYSTEM.CONST>
0

>  <SCORE.SYSTEM.DIHEDRAL>
0

>  <SCORE.SYSTEM.SOLV>
0

>  <SCORE.SYSTEM.norm>
0

>  <SCORE.heavy>
16

>  <SCORE.norm>
-1.11177

>  <RMSD>
4.455

$$$$
ligand
 OpenBabel02271912153D
libRbt.so/2013.1/901 2013/11/27
 16 17  0  0  0  0  0  0  0  0999 V2000
    8.3559    6.0849   81.3397 N   0  0  0  0  0  0  0  0  0  0  0  0
    8.4572    4.6706   81.4687 C   0  0  2  0  0  0  0  0  0  0  0  0
    9.5966    4.1136   80.6616 C   0  0  0  0  0  0  0  0  0  0  0  0
   10.2143    4.8662   79.8696 O   0  0  0  0  0  0  0  0  0  0  0  0
    6.8699    2.1887   86.3234 O   0  0  0  0  0  0  0  0  0  0  0  0
    7.1742    4.0006   81.0390 C   0  0  0  0  0  0  0  0  0  0  0  0
    7.1575    2.5160   81.3161 C   0  0  0  0  0  0  0  0  0  0  0  0
    7.2268    1.5523   80.3918 C   0  0  0  0  0  0  0  0  0  0  0  0
    7.0920    2.0166   82.6574 C   0  0  0  0  0  0  0  0  0  0  0  0
    7.1266    0.6037   82.5033 C   0  0  0  0  0  0  0  0  0  0  0  0
    7.0199    2.5617   83.9098 C   0  0  0  0  0  0  0  0  0  0  0  0
    7.2071    0.4092   81.1074 N   0  0  0  0  0  0  0  0  0  0  0  0
    7.0824   -0.2492   83.5384 C   0  0  0  0  0  0  0  0  0  0  0  0
    6.9590    1.6707   85.0246 C   0  0  0  0  0  0  0  0  0  0  0  0
    6.9850    0.2426   84.8436 C   0  0  0  0  0  0  0  0  0  0  0  0
    9.9089    2.9092   80.7714 O   0  0  0  0  0  0  0  0  0  0  0  0
  2  1  1  6  0  0  0
  2  3  1  0  0  0  0
  2  6  1  0  0  0  0
  3  4  1  0  0  0  0
  3 16  1  0  0  0  0
  5 14  1  0  0  0  0
  6  7  1  0  0  0  0
  7  8  2  0  0  0  0
  7  9  1  0  0  0  0
  8 12  1  0  0  0  0
  9 10  2  0  0  0  0
  9 11  1  0  0  0  0
 10 13  1  0  0  0  0
 10 12  1  0  0  0  0
 11 14  2  0  0  0  0
 13 15  2  0  0  0  0
 14 15  1  0  0  0  0
M  END
>  <CHROM.1>
-8.19607423,-172.75366125,-109.02479178,7.84383295,2.59430389,82.26290932
-0.07678992,1.16537018,0.81030697

>  <Name>
ligand

>  <RI>
0

>  <Rbt.Current_Directory>
/home/itssahil/PROJECTS/Mol_Feturizer/Test_systems_manuscript/rnas/5kpy

>  <Rbt.Executable>
rbdock ($Id: //depot/dev/client3/rdock/2013.1/src/exe/rbdock.cxx#4 $)

>  <Rbt.Library>
libRbt.so (2013.1, Build901 2013/11/27)

>  <Rbt.Parameter_File>
/export/apps/rDock/src/rDock_2013.1_src/data/scripts/dock_solv.prm

>  <Rbt.Receptor>
prm/pocket_docking_6.prm

>  <SCORE>
-21.4626

>  <SCORE.INTER>
-20.6029

>  <SCORE.INTER.CONST>
1

>  <SCORE.INTER.POLAR>
0

>  <SCORE.INTER.ROT>
3

>  <SCORE.INTER.SOLV>
8.01058

>  <SCORE.INTER.VDW>
-22.0055

>  <SCORE.INTER.norm>
-1.28768

>  <SCORE.INTRA>
-0.8597

>  <SCORE.INTRA.DIHEDRAL>
0.00354168

>  <SCORE.INTRA.DIHEDRAL.0>
3.89056

>  <SCORE.INTRA.POLAR>
0

>  <SCORE.INTRA.POLAR.0>
0

>  <SCORE.INTRA.REPUL>
0

>  <SCORE.INTRA.REPUL.0>
0

>  <SCORE.INTRA.SOLV>
-1.15484

>  <SCORE.INTRA.SOLV.lig_0>
-20.733

>  <SCORE.INTRA.VDW>
-0.284049

>  <SCORE.INTRA.VDW.0>
-0.828515

>  <SCORE.INTRA.norm>
-0.0537312

>  <SCORE.RESTR>
0

>  <SCORE.RESTR.CAVITY>
0

>  <SCORE.RESTR.norm>
0

>  <SCORE.SYSTEM>
0

>  <SCORE.SYSTEM.CONST>
0

>  <SCORE.SYSTEM.DIHEDRAL>
0

>  <SCORE.SYSTEM.SOLV>
0

>  <SCORE.SYSTEM.norm>
0

>  <SCORE.heavy>
16

>  <SCORE.norm>
-1.34141

>  <RMSD>
4.456

$$$$
ligand
 OpenBabel02271912153D
libRbt.so/2013.1/901 2013/11/27
 16 17  0  0  0  0  0  0  0  0999 V2000
    8.3571    6.0741   81.3351 N   0  0  0  0  0  0  0  0  0  0  0  0
    8.4559    4.6612   81.4807 C   0  0  2  0  0  0  0  0  0  0  0  0
    9.5822    4.0903   80.6650 C   0  0  0  0  0  0  0  0  0  0  0  0
   10.2092    4.8376   79.8752 O   0  0  0  0  0  0  0  0  0  0  0  0
    6.9470    2.1218   86.3464 O   0  0  0  0  0  0  0  0  0  0  0  0
    7.1650    3.9900   81.0774 C   0  0  0  0  0  0  0  0  0  0  0  0
    7.1616    2.5026   81.3392 C   0  0  0  0  0  0  0  0  0  0  0  0
    7.2239    1.5489   80.4041 C   0  0  0  0  0  0  0  0  0  0  0  0
    7.1183    1.9889   82.6761 C   0  0  0  0  0  0  0  0  0  0  0  0
    7.1598    0.5779   82.5068 C   0  0  0  0  0  0  0  0  0  0  0  0
    7.0604    2.5207   83.9349 C   0  0  0  0  0  0  0  0  0  0  0  0
    7.2217    0.3983   81.1080 N   0  0  0  0  0  0  0  0  0  0  0  0
    7.1356   -0.2858   83.5336 C   0  0  0  0  0  0  0  0  0  0  0  0
    7.0211    1.6178   85.0412 C   0  0  0  0  0  0  0  0  0  0  0  0
    7.0536    0.1919   84.8450 C   0  0  0  0  0  0  0  0  0  0  0  0
    9.8745    2.8801   80.7655 O   0  0  0  0  0  0  0  0  0  0  0  0
  2  1  1  6  0  0  0
  2  3  1  0  0  0  0
  2  6  1  0  0  0  0
  3  4  1  0  0  0  0
  3 16  1  0  0  0  0
  5 14  1  0  0  0  0
  6  7  1  0  0  0  0
  7  8  2  0  0  0  0
  7  9  1  0  0  0  0
  8 12  1  0  0  0  0
  9 10  2  0  0  0  0
  9 11  1  0  0  0  0
 10 13  1  0  0  0  0
 10 12  1  0  0  0  0
 11 14  2  0  0  0  0
 13 15  2  0  0  0  0
 14 15  1  0  0  0  0
M  END
>  <CHROM.1>
-6.73431462,-174.30490846,-108.33753455,7.86243673,2.56653015,82.27330287
-0.09310421,1.17900452,0.83062407

>  <Name>
ligand

>  <RI>
0

>  <Rbt.Current_Directory>
/home/itssahil/PROJECTS/Mol_Feturizer/Test_systems_manuscript/rnas/5kpy

>  <Rbt.Executable>
rbdock ($Id: //depot/dev/client3/rdock/2013.1/src/exe/rbdock.cxx#4 $)

>  <Rbt.Library>
libRbt.so (2013.1, Build901 2013/11/27)

>  <Rbt.Parameter_File>
/export/apps/rDock/src/rDock_2013.1_src/data/scripts/dock_solv.prm

>  <Rbt.Receptor>
prm/pocket_docking_7.prm

>  <SCORE>
-21.4603

>  <SCORE.INTER>
-20.6423

>  <SCORE.INTER.CONST>
1

>  <SCORE.INTER.POLAR>
0

>  <SCORE.INTER.ROT>
3

>  <SCORE.INTER.SOLV>
8.10479

>  <SCORE.INTER.VDW>
-22.0631

>  <SCORE.INTER.norm>
-1.29015

>  <SCORE.INTRA>
-0.817958

>  <SCORE.INTRA.DIHEDRAL>
-0.0725235

>  <SCORE.INTRA.DIHEDRAL.0>
3.89056

>  <SCORE.INTRA.POLAR>
0

>  <SCORE.INTRA.POLAR.0>
0

>  <SCORE.INTRA.REPUL>
0

>  <SCORE.INTRA.REPUL.0>
0

>  <SCORE.INTRA.SOLV>
-1.15577

>  <SCORE.INTRA.SOLV.lig_0>
-20.733

>  <SCORE.INTRA.VDW>
-0.203811

>  <SCORE.INTRA.VDW.0>
-0.828515

>  <SCORE.INTRA.norm>
-0.0511224

>  <SCORE.RESTR>
0

>  <SCORE.RESTR.CAVITY>
0

>  <SCORE.RESTR.norm>
0

>  <SCORE.SYSTEM>
0

>  <SCORE.SYSTEM.CONST>
0

>  <SCORE.SYSTEM.DIHEDRAL>
0

>  <SCORE.SYSTEM.SOLV>
0

>  <SCORE.SYSTEM.norm>
0

>  <SCORE.heavy>
16

>  <SCORE.norm>
-1.34127

>  <RMSD>
4.456

$$$$
ligand
 OpenBabel02271912153D
libRbt.so/2013.1/901 2013/11/27
 16 17  0  0  0  0  0  0  0  0999 V2000
    8.3288    6.0910   81.2786 N   0  0  0  0  0  0  0  0  0  0  0  0
    8.4328    4.6806   81.4426 C   0  0  2  0  0  0  0  0  0  0  0  0
    9.5727    4.1058   80.6488 C   0  0  0  0  0  0  0  0  0  0  0  0
    9.8797    2.8983   80.8003 O   0  0  0  0  0  0  0  0  0  0  0  0
    6.8660    2.2011   86.3213 O   0  0  0  0  0  0  0  0  0  0  0  0
    7.1508    3.9976   81.0306 C   0  0  0  0  0  0  0  0  0  0  0  0
    7.1506    2.5140   81.3129 C   0  0  0  0  0  0  0  0  0  0  0  0
    7.2308    1.5479   80.3920 C   0  0  0  0  0  0  0  0  0  0  0  0
    7.0905    2.0186   82.6560 C   0  0  0  0  0  0  0  0  0  0  0  0
    7.1410    0.6056   82.5069 C   0  0  0  0  0  0  0  0  0  0  0  0
    7.0121    2.5673   83.9064 C   0  0  0  0  0  0  0  0  0  0  0  0
    7.2238    0.4071   81.1116 N   0  0  0  0  0  0  0  0  0  0  0  0
    7.1061   -0.2440   83.5450 C   0  0  0  0  0  0  0  0  0  0  0  0
    6.9611    1.6796   85.0244 C   0  0  0  0  0  0  0  0  0  0  0  0
    7.0030    0.2513   84.8484 C   0  0  0  0  0  0  0  0  0  0  0  0
   10.2135    4.8327   79.8606 O   0  0  0  0  0  0  0  0  0  0  0  0
  2  1  1  6  0  0  0
  2  3  1  0  0  0  0
  2  6  1  0  0  0  0
  3  4  1  0  0  0  0
  3 16  1  0  0  0  0
  5 14  1  0  0  0  0
  6  7  1  0  0  0  0
  7  8  2  0  0  0  0
  7  9  1  0  0  0  0
  8 12  1  0  0  0  0
  9 10  2  0  0  0  0
  9 11  1  0  0  0  0
 10 13  1  0  0  0  0
 10 12  1  0  0  0  0
 11 14  2  0  0  0  0
 13 15  2  0  0  0  0
 14 15  1  0  0  0  0
M  END
>  <CHROM.1>
172.55374507,-174.19536728,-108.31977639,7.83875954,2.59359630,82.25798906
-0.05845738,1.17194161,0.78534759

>  <Name>
ligand

>  <RI>
0

>  <Rbt.Current_Directory>
/home/itssahil/PROJECTS/Mol_Feturizer/Test_systems_manuscript/rnas/5kpy

>  <Rbt.Executable>
rbdock ($Id: //depot/dev/client3/rdock/2013.1/src/exe/rbdock.cxx#4 $)

>  <Rbt.Library>
libRbt.so (2013.1, Build901 2013/11/27)

>  <Rbt.Parameter_File>
/export/apps/rDock/src/rDock_2013.1_src/data/scripts/dock_solv.prm

>  <Rbt.Receptor>
prm/pocket_docking_8.prm

>  <SCORE>
-21.4716

>  <SCORE.INTER>
-20.6254

>  <SCORE.INTER.CONST>
1

>  <SCORE.INTER.POLAR>
0

>  <SCORE.INTER.ROT>
3

>  <SCORE.INTER.SOLV>
8.12647

>  <SCORE.INTER.VDW>
-22.0591

>  <SCORE.INTER.norm>
-1.28909

>  <SCORE.INTRA>
-0.84619

>  <SCORE.INTRA.DIHEDRAL>
-0.0441844

>  <SCORE.INTRA.DIHEDRAL.0>
3.89056

>  <SCORE.INTRA.POLAR>
0

>  <SCORE.INTRA.POLAR.0>
0

>  <SCORE.INTRA.REPUL>
0

>  <SCORE.INTRA.REPUL.0>
0

>  <SCORE.INTRA.SOLV>
-1.1616

>  <SCORE.INTRA.SOLV.lig_0>
-20.733

>  <SCORE.INTRA.VDW>
-0.243298

>  <SCORE.INTRA.VDW.0>
-0.828515

>  <SCORE.INTRA.norm>
-0.0528869

>  <SCORE.RESTR>
0

>  <SCORE.RESTR.CAVITY>
0

>  <SCORE.RESTR.norm>
0

>  <SCORE.SYSTEM>
0

>  <SCORE.SYSTEM.CONST>
0

>  <SCORE.SYSTEM.DIHEDRAL>
0

>  <SCORE.SYSTEM.SOLV>
0

>  <SCORE.SYSTEM.norm>
0

>  <SCORE.heavy>
16

>  <SCORE.norm>
-1.34197

>  <RMSD>
4.458

$$$$
ligand
 OpenBabel02271912153D
libRbt.so/2013.1/901 2013/11/27
 16 17  0  0  0  0  0  0  0  0999 V2000
    8.9887    6.1949   81.5942 N   0  0  0  0  0  0  0  0  0  0  0  0
    8.9942    4.7726   81.5301 C   0  0  2  0  0  0  0  0  0  0  0  0
   10.1291    4.2529   80.6924 C   0  0  0  0  0  0  0  0  0  0  0  0
   10.3521    3.0183   80.6578 O   0  0  0  0  0  0  0  0  0  0  0  0
    6.4006    2.4452   86.1028 O   0  0  0  0  0  0  0  0  0  0  0  0
    7.6906    4.2569   80.9693 C   0  0  0  0  0  0  0  0  0  0  0  0
    7.4847    2.7797   81.2064 C   0  0  0  0  0  0  0  0  0  0  0  0
    7.5995    1.8209   80.2814 C   0  0  0  0  0  0  0  0  0  0  0  0
    7.1650    2.2793   82.5103 C   0  0  0  0  0  0  0  0  0  0  0  0
    7.0829    0.8713   82.3308 C   0  0  0  0  0  0  0  0  0  0  0  0
    6.9556    2.8194   83.7493 C   0  0  0  0  0  0  0  0  0  0  0  0
    7.3572    0.6803   80.9592 N   0  0  0  0  0  0  0  0  0  0  0  0
    6.7961    0.0195   83.3273 C   0  0  0  0  0  0  0  0  0  0  0  0
    6.6364    1.9307   84.8212 C   0  0  0  0  0  0  0  0  0  0  0  0
    6.5485    0.5088   84.6134 C   0  0  0  0  0  0  0  0  0  0  0  0
   10.8485    5.0491   80.0531 O   0  0  0  0  0  0  0  0  0  0  0  0
  2  1  1  6  0  0  0
  2  3  1  0  0  0  0
  2  6  1  0  0  0  0
  3  4  1  0  0  0  0
  3 16  1  0  0  0  0
  5 14  1  0  0  0  0
  6  7  1  0  0  0  0
  7  8  2  0  0  0  0
  7  9  1  0  0  0  0
  8 12  1  0  0  0  0
  9 10  2  0  0  0  0
  9 11  1  0  0  0  0
 10 13  1  0  0  0  0
 10 12  1  0  0  0  0
 11 14  2  0  0  0  0
 13 15  2  0  0  0  0
 14 15  1  0  0  0  0
M  END
>  <CHROM.1>
172.41559739,-164.92892906,-105.42912110,8.01788712,2.81272055,82.18294727
0.00252435,0.99799555,0.73518562

>  <Name>
ligand

>  <RI>
0

>  <Rbt.Current_Directory>
/home/itssahil/PROJECTS/Mol_Feturizer/Test_systems_manuscript/rnas/5kpy

>  <Rbt.Executable>
rbdock ($Id: //depot/dev/client3/rdock/2013.1/src/exe/rbdock.cxx#4 $)

>  <Rbt.Library>
libRbt.so (2013.1, Build901 2013/11/27)

>  <Rbt.Parameter_File>
/export/apps/rDock/src/rDock_2013.1_src/data/scripts/dock_solv.prm

>  <Rbt.Receptor>
prm/blind_docking_100.prm

>  <SCORE>
-20.6313

>  <SCORE.INTER>
-20.0243

>  <SCORE.INTER.CONST>
1

>  <SCORE.INTER.POLAR>
0

>  <SCORE.INTER.ROT>
3

>  <SCORE.INTER.SOLV>
8.48103

>  <SCORE.INTER.VDW>
-21.7765

>  <SCORE.INTER.norm>
-1.25152

>  <SCORE.INTRA>
-0.60761

>  <SCORE.INTRA.DIHEDRAL>
0.656534

>  <SCORE.INTRA.DIHEDRAL.0>
3.89056

>  <SCORE.INTRA.POLAR>
0

>  <SCORE.INTRA.POLAR.0>
0

>  <SCORE.INTRA.REPUL>
0

>  <SCORE.INTRA.REPUL.0>
0

>  <SCORE.INTRA.SOLV>
-1.1538

>  <SCORE.INTRA.SOLV.lig_0>
-20.733

>  <SCORE.INTRA.VDW>
-0.358976

>  <SCORE.INTRA.VDW.0>
-0.828515

>  <SCORE.INTRA.norm>
-0.0379756

>  <SCORE.RESTR>
0.000572719

>  <SCORE.RESTR.CAVITY>
0.000572719

>  <SCORE.RESTR.norm>
3.57949e-05

>  <SCORE.SYSTEM>
0

>  <SCORE.SYSTEM.CONST>
0

>  <SCORE.SYSTEM.DIHEDRAL>
0

>  <SCORE.SYSTEM.SOLV>
0

>  <SCORE.SYSTEM.norm>
0

>  <SCORE.heavy>
16

>  <SCORE.norm>
-1.28946

>  <RMSD>
4.502

$$$$
ligand
 OpenBabel02271912153D
libRbt.so/2013.1/901 2013/11/27
 16 17  0  0  0  0  0  0  0  0999 V2000
    9.1552    6.2321   81.6763 N   0  0  0  0  0  0  0  0  0  0  0  0
    9.1260    4.8114   81.5889 C   0  0  2  0  0  0  0  0  0  0  0  0
   10.2144    4.2814   80.6976 C   0  0  0  0  0  0  0  0  0  0  0  0
   10.5114    3.0630   80.7484 O   0  0  0  0  0  0  0  0  0  0  0  0
    6.2280    2.4559   86.1062 O   0  0  0  0  0  0  0  0  0  0  0  0
    7.7896    4.3341   81.0730 C   0  0  0  0  0  0  0  0  0  0  0  0
    7.5675    2.8545   81.2782 C   0  0  0  0  0  0  0  0  0  0  0  0
    7.7277    1.9082   80.3471 C   0  0  0  0  0  0  0  0  0  0  0  0
    7.1786    2.3371   82.5565 C   0  0  0  0  0  0  0  0  0  0  0  0
    7.1020    0.9321   82.3531 C   0  0  0  0  0  0  0  0  0  0  0  0
    6.9063    2.8607   83.7903 C   0  0  0  0  0  0  0  0  0  0  0  0
    7.4470    0.7591   80.9952 N   0  0  0  0  0  0  0  0  0  0  0  0
    6.7611    0.0676   83.3212 C   0  0  0  0  0  0  0  0  0  0  0  0
    6.5291    1.9584   84.8315 C   0  0  0  0  0  0  0  0  0  0  0  0
    6.4480    0.5398   84.5994 C   0  0  0  0  0  0  0  0  0  0  0  0
   10.8235    5.0547   79.9289 O   0  0  0  0  0  0  0  0  0  0  0  0
  2  1  1  6  0  0  0
  2  3  1  0  0  0  0
  2  6  1  0  0  0  0
  3  4  1  0  0  0  0
  3 16  1  0  0  0  0
  5 14  1  0  0  0  0
  6  7  1  0  0  0  0
  7  8  2  0  0  0  0
  7  9  1  0  0  0  0
  8 12  1  0  0  0  0
  9 10  2  0  0  0  0
  9 11  1  0  0  0  0
 10 13  1  0  0  0  0
 10 12  1  0  0  0  0
 11 14  2  0  0  0  0
 13 15  2  0  0  0  0
 14 15  1  0  0  0  0
M  END
>  <CHROM.1>
164.26004336,-165.66532774,-99.76660569,8.04879006,2.85855222,82.21280374
0.05018992,0.97095437,0.66796377

>  <Name>
ligand

>  <RI>
0

>  <Rbt.Current_Directory>
/home/itssahil/PROJECTS/Mol_Feturizer/Test_systems_manuscript/rnas/5kpy

>  <Rbt.Executable>
rbdock ($Id: //depot/dev/client3/rdock/2013.1/src/exe/rbdock.cxx#4 $)

>  <Rbt.Library>
libRbt.so (2013.1, Build901 2013/11/27)

>  <Rbt.Parameter_File>
/export/apps/rDock/src/rDock_2013.1_src/data/scripts/dock_solv.prm

>  <Rbt.Receptor>
prm/blind_docking_100.prm

>  <SCORE>
-20.7453

>  <SCORE.INTER>
-19.9686

>  <SCORE.INTER.CONST>
1

>  <SCORE.INTER.POLAR>
0

>  <SCORE.INTER.ROT>
3

>  <SCORE.INTER.SOLV>
8.73548

>  <SCORE.INTER.VDW>
-21.8242

>  <SCORE.INTER.norm>
-1.24804

>  <SCORE.INTRA>
-0.777775

>  <SCORE.INTRA.DIHEDRAL>
0.574561

>  <SCORE.INTRA.DIHEDRAL.0>
3.89056

>  <SCORE.INTRA.POLAR>
0

>  <SCORE.INTRA.POLAR.0>
0

>  <SCORE.INTRA.REPUL>
0

>  <SCORE.INTRA.REPUL.0>
0

>  <SCORE.INTRA.SOLV>
-1.15807

>  <SCORE.INTRA.SOLV.lig_0>
-20.733

>  <SCORE.INTRA.VDW>
-0.486022

>  <SCORE.INTRA.VDW.0>
-0.828515

>  <SCORE.INTRA.norm>
-0.0486109

>  <SCORE.RESTR>
0.00107517

>  <SCORE.RESTR.CAVITY>
0.00107517

>  <SCORE.RESTR.norm>
6.71979e-05

>  <SCORE.SYSTEM>
0

>  <SCORE.SYSTEM.CONST>
0

>  <SCORE.SYSTEM.DIHEDRAL>
0

>  <SCORE.SYSTEM.SOLV>
0

>  <SCORE.SYSTEM.norm>
0

>  <SCORE.heavy>
16

>  <SCORE.norm>
-1.29658

>  <RMSD>
4.504

$$$$
ligand
 OpenBabel02271912153D
libRbt.so/2013.1/901 2013/11/27
 16 17  0  0  0  0  0  0  0  0999 V2000
    9.1477    6.2219   81.6975 N   0  0  0  0  0  0  0  0  0  0  0  0
    9.1241    4.8023   81.5914 C   0  0  2  0  0  0  0  0  0  0  0  0
   10.2168    4.2882   80.6960 C   0  0  0  0  0  0  0  0  0  0  0  0
   10.4699    3.0590   80.6791 O   0  0  0  0  0  0  0  0  0  0  0  0
    6.2705    2.4365   86.1072 O   0  0  0  0  0  0  0  0  0  0  0  0
    7.7909    4.3267   81.0659 C   0  0  0  0  0  0  0  0  0  0  0  0
    7.5660    2.8471   81.2682 C   0  0  0  0  0  0  0  0  0  0  0  0
    7.7145    1.9035   80.3325 C   0  0  0  0  0  0  0  0  0  0  0  0
    7.1875    2.3267   82.5484 C   0  0  0  0  0  0  0  0  0  0  0  0
    7.1045    0.9226   82.3411 C   0  0  0  0  0  0  0  0  0  0  0  0
    6.9284    2.8470   83.7865 C   0  0  0  0  0  0  0  0  0  0  0  0
    7.4362    0.7531   80.9794 N   0  0  0  0  0  0  0  0  0  0  0  0
    6.7699    0.0559   83.3094 C   0  0  0  0  0  0  0  0  0  0  0  0
    6.5580    1.9423   84.8281 C   0  0  0  0  0  0  0  0  0  0  0  0
    6.4704    0.5248   84.5920 C   0  0  0  0  0  0  0  0  0  0  0  0
   10.8725    5.0841   79.9913 O   0  0  0  0  0  0  0  0  0  0  0  0
  2  1  1  6  0  0  0
  2  3  1  0  0  0  0
  2  6  1  0  0  0  0
  3  4  1  0  0  0  0
  3 16  1  0  0  0  0
  5 14  1  0  0  0  0
  6  7  1  0  0  0  0
  7  8  2  0  0  0  0
  7  9  1  0  0  0  0
  8 12  1  0  0  0  0
  9 10  2  0  0  0  0
  9 11  1  0  0  0  0
 10 13  1  0  0  0  0
 10 12  1  0  0  0  0
 11 14  2  0  0  0  0
 13 15  2  0  0  0  0
 14 15  1  0  0  0  0
M  END
>  <CHROM.1>
168.05058084,-164.87644131,-100.71478085,8.05596156,2.85224015,82.20825026
0.03607355,0.97361329,0.69181121

>  <Name>
ligand

>  <RI>
0

>  <Rbt.Current_Directory>
/home/itssahil/PROJECTS/Mol_Feturizer/Test_systems_manuscript/rnas/5kpy

>  <Rbt.Executable>
rbdock ($Id: //depot/dev/client3/rdock/2013.1/src/exe/rbdock.cxx#4 $)

>  <Rbt.Library>
libRbt.so (2013.1, Build901 2013/11/27)

>  <Rbt.Parameter_File>
/export/apps/rDock/src/rDock_2013.1_src/data/scripts/dock_solv.prm

>  <Rbt.Receptor>
prm/blind_docking_100.prm

>  <SCORE>
-20.7051

>  <SCORE.INTER>
-20.0321

>  <SCORE.INTER.CONST>
1

>  <SCORE.INTER.POLAR>
0

>  <SCORE.INTER.ROT>
3

>  <SCORE.INTER.SOLV>
8.6901

>  <SCORE.INTER.VDW>
-21.8514

>  <SCORE.INTER.norm>
-1.25201

>  <SCORE.INTRA>
-0.673962

>  <SCORE.INTRA.DIHEDRAL>
0.654633

>  <SCORE.INTRA.DIHEDRAL.0>
3.89056

>  <SCORE.INTRA.POLAR>
0

>  <SCORE.INTRA.POLAR.0>
0

>  <SCORE.INTRA.REPUL>
0

>  <SCORE.INTRA.REPUL.0>
0

>  <SCORE.INTRA.SOLV>
-1.15605

>  <SCORE.INTRA.SOLV.lig_0>
-20.733

>  <SCORE.INTRA.VDW>
-0.423253

>  <SCORE.INTRA.VDW.0>
-0.828515

>  <SCORE.INTRA.norm>
-0.0421226

>  <SCORE.RESTR>
0.000926875

>  <SCORE.RESTR.CAVITY>
0.000926875

>  <SCORE.RESTR.norm>
5.79297e-05

>  <SCORE.SYSTEM>
0

>  <SCORE.SYSTEM.CONST>
0

>  <SCORE.SYSTEM.DIHEDRAL>
0

>  <SCORE.SYSTEM.SOLV>
0

>  <SCORE.SYSTEM.norm>
0

>  <SCORE.heavy>
16

>  <SCORE.norm>
-1.29407

>  <RMSD>
4.506

$$$$
ligand
 OpenBabel02271912153D
libRbt.so/2013.1/901 2013/11/27
 16 17  0  0  0  0  0  0  0  0999 V2000
    9.1720    6.2355   81.6646 N   0  0  0  0  0  0  0  0  0  0  0  0
    9.1346    4.8144   81.5863 C   0  0  2  0  0  0  0  0  0  0  0  0
   10.2169    4.2727   80.6947 C   0  0  0  0  0  0  0  0  0  0  0  0
   10.8238    5.0530   79.9213 O   0  0  0  0  0  0  0  0  0  0  0  0
    6.2212    2.4569   86.1057 O   0  0  0  0  0  0  0  0  0  0  0  0
    7.7938    4.3413   81.0782 C   0  0  0  0  0  0  0  0  0  0  0  0
    7.5700    2.8615   81.2808 C   0  0  0  0  0  0  0  0  0  0  0  0
    7.7312    1.9165   80.3486 C   0  0  0  0  0  0  0  0  0  0  0  0
    7.1784    2.3426   82.5576 C   0  0  0  0  0  0  0  0  0  0  0  0
    7.1010    0.9380   82.3520 C   0  0  0  0  0  0  0  0  0  0  0  0
    6.9042    2.8647   83.7917 C   0  0  0  0  0  0  0  0  0  0  0  0
    7.4484    0.7667   80.9945 N   0  0  0  0  0  0  0  0  0  0  0  0
    6.7575    0.0723   83.3182 C   0  0  0  0  0  0  0  0  0  0  0  0
    6.5242    1.9611   84.8308 C   0  0  0  0  0  0  0  0  0  0  0  0
    6.4425    0.5429   84.5965 C   0  0  0  0  0  0  0  0  0  0  0  0
   10.4925    3.0547   80.7171 O   0  0  0  0  0  0  0  0  0  0  0  0
  2  1  1  6  0  0  0
  2  3  1  0  0  0  0
  2  6  1  0  0  0  0
  3  4  1  0  0  0  0
  3 16  1  0  0  0  0
  5 14  1  0  0  0  0
  6  7  1  0  0  0  0
  7  8  2  0  0  0  0
  7  9  1  0  0  0  0
  8 12  1  0  0  0  0
  9 10  2  0  0  0  0
  9 11  1  0  0  0  0
 10 13  1  0  0  0  0
 10 12  1  0  0  0  0
 11 14  2  0  0  0  0
 13 15  2  0  0  0  0
 14 15  1  0  0  0  0
M  END
>  <CHROM.1>
-14.77056039,-166.25927224,-99.25946186,8.04839538,2.86111537,82.20894359
0.04994546,0.97053240,0.66565861

>  <Name>
ligand

>  <RI>
0

>  <Rbt.Current_Directory>
/home/itssahil/PROJECTS/Mol_Feturizer/Test_systems_manuscript/rnas/5kpy

>  <Rbt.Executable>
rbdock ($Id: //depot/dev/client3/rdock/2013.1/src/exe/rbdock.cxx#4 $)

>  <Rbt.Library>
libRbt.so (2013.1, Build901 2013/11/27)

>  <Rbt.Parameter_File>
/export/apps/rDock/src/rDock_2013.1_src/data/scripts/dock_solv.prm

>  <Rbt.Receptor>
prm/blind_docking_100.prm

>  <SCORE>
-20.7545

>  <SCORE.INTER>
-19.967

>  <SCORE.INTER.CONST>
1

>  <SCORE.INTER.POLAR>
0

>  <SCORE.INTER.ROT>
3

>  <SCORE.INTER.SOLV>
8.77026

>  <SCORE.INTER.VDW>
-21.8348

>  <SCORE.INTER.norm>
-1.24794

>  <SCORE.INTRA>
-0.788021

>  <SCORE.INTRA.DIHEDRAL>
0.467168

>  <SCORE.INTRA.DIHEDRAL.0>
3.89056

>  <SCORE.INTRA.POLAR>
0

>  <SCORE.INTRA.POLAR.0>
0

>  <SCORE.INTRA.REPUL>
0

>  <SCORE.INTRA.REPUL.0>
0

>  <SCORE.INTRA.SOLV>
-1.15438

>  <SCORE.INTRA.SOLV.lig_0>
-20.733

>  <SCORE.INTRA.VDW>
-0.444413

>  <SCORE.INTRA.VDW.0>
-0.828515

>  <SCORE.INTRA.norm>
-0.0492513

>  <SCORE.RESTR>
0.000585155

>  <SCORE.RESTR.CAVITY>
0.000585155

>  <SCORE.RESTR.norm>
3.65722e-05

>  <SCORE.SYSTEM>
0

>  <SCORE.SYSTEM.CONST>
0

>  <SCORE.SYSTEM.DIHEDRAL>
0

>  <SCORE.SYSTEM.SOLV>
0

>  <SCORE.SYSTEM.norm>
0

>  <SCORE.heavy>
16

>  <SCORE.norm>
-1.29715

>  <RMSD>
4.508

$$$$
ligand
 OpenBabel02271912153D
libRbt.so/2013.1/901 2013/11/27
 16 17  0  0  0  0  0  0  0  0999 V2000
    8.3819    4.9292   81.0691 N   0  0  0  0  0  0  0  0  0  0  0  0
    9.2194    3.7834   81.1811 C   0  0  2  0  0  0  0  0  0  0  0  0
   10.5127    3.9583   80.4350 C   0  0  0  0  0  0  0  0  0  0  0  0
   11.3986    3.0738   80.5250 O   0  0  0  0  0  0  0  0  0  0  0  0
    5.9518    4.8823   85.0580 O   0  0  0  0  0  0  0  0  0  0  0  0
    8.5143    2.5523   80.6644 C   0  0  0  0  0  0  0  0  0  0  0  0
    7.9763    1.6695   81.7653 C   0  0  0  0  0  0  0  0  0  0  0  0
    8.0676    0.3361   81.8066 C   0  0  0  0  0  0  0  0  0  0  0  0
    7.3250    2.2326   82.9106 C   0  0  0  0  0  0  0  0  0  0  0  0
    6.9978    1.1052   83.7125 C   0  0  0  0  0  0  0  0  0  0  0  0
    7.0003    3.4896   83.3409 C   0  0  0  0  0  0  0  0  0  0  0  0
    7.4795    0.0029   82.9738 N   0  0  0  0  0  0  0  0  0  0  0  0
    6.3652    1.2019   84.8921 C   0  0  0  0  0  0  0  0  0  0  0  0
    6.3151    3.6133   84.5883 C   0  0  0  0  0  0  0  0  0  0  0  0
    5.9847    2.4561   85.3786 C   0  0  0  0  0  0  0  0  0  0  0  0
   10.7029    4.9838   79.7478 O   0  0  0  0  0  0  0  0  0  0  0  0
  2  1  1  6  0  0  0
  2  3  1  0  0  0  0
  2  6  1  0  0  0  0
  3  4  1  0  0  0  0
  3 16  1  0  0  0  0
  5 14  1  0  0  0  0
  6  7  1  0  0  0  0
  7  8  2  0  0  0  0
  7  9  1  0  0  0  0
  8 12  1  0  0  0  0
  9 10  2  0  0  0  0
  9 11  1  0  0  0  0
 10 13  1  0  0  0  0
 10 12  1  0  0  0  0
 11 14  2  0  0  0  0
 13 15  2  0  0  0  0
 14 15  1  0  0  0  0
M  END
>  <CHROM.1>
174.56870376,-101.99874673,-136.41732861,8.09698499,2.85165909,82.42894648
0.22244280,0.82651896,0.05560658

>  <Name>
ligand

>  <RI>
0

>  <Rbt.Current_Directory>
/home/itssahil/PROJECTS/Mol_Feturizer/Test_systems_manuscript/rnas/5kpy

>  <Rbt.Executable>
rbdock ($Id: //depot/dev/client3/rdock/2013.1/src/exe/rbdock.cxx#4 $)

>  <Rbt.Library>
libRbt.so (2013.1, Build901 2013/11/27)

>  <Rbt.Parameter_File>
/export/apps/rDock/src/rDock_2013.1_src/data/scripts/dock_solv.prm

>  <Rbt.Receptor>
prm/pocket_docking_8.prm

>  <SCORE>
-17.8382

>  <SCORE.INTER>
-20.2648

>  <SCORE.INTER.CONST>
1

>  <SCORE.INTER.POLAR>
0

>  <SCORE.INTER.ROT>
3

>  <SCORE.INTER.SOLV>
6.26669

>  <SCORE.INTER.VDW>
-21.1987

>  <SCORE.INTER.norm>
-1.26655

>  <SCORE.INTRA>
2.42654

>  <SCORE.INTRA.DIHEDRAL>
4.57879

>  <SCORE.INTRA.DIHEDRAL.0>
3.89056

>  <SCORE.INTRA.POLAR>
0

>  <SCORE.INTRA.POLAR.0>
0

>  <SCORE.INTRA.REPUL>
0

>  <SCORE.INTRA.REPUL.0>
0

>  <SCORE.INTRA.SOLV>
0.0168481

>  <SCORE.INTRA.SOLV.lig_0>
-20.733

>  <SCORE.INTRA.VDW>
0.128717

>  <SCORE.INTRA.VDW.0>
-0.828515

>  <SCORE.INTRA.norm>
0.151658

>  <SCORE.RESTR>
0

>  <SCORE.RESTR.CAVITY>
0

>  <SCORE.RESTR.norm>
0

>  <SCORE.SYSTEM>
0

>  <SCORE.SYSTEM.CONST>
0

>  <SCORE.SYSTEM.DIHEDRAL>
0

>  <SCORE.SYSTEM.SOLV>
0

>  <SCORE.SYSTEM.norm>
0

>  <SCORE.heavy>
16

>  <SCORE.norm>
-1.11489

>  <RMSD>
4.731

$$$$
ligand
 OpenBabel02271912153D
libRbt.so/2013.1/901 2013/11/27
 16 17  0  0  0  0  0  0  0  0999 V2000
    7.4023    4.0954   81.0179 N   0  0  0  0  0  0  0  0  0  0  0  0
    8.4169    3.1478   81.3338 C   0  0  2  0  0  0  0  0  0  0  0  0
    9.5526    3.1926   80.3501 C   0  0  0  0  0  0  0  0  0  0  0  0
    9.7258    4.2253   79.6580 O   0  0  0  0  0  0  0  0  0  0  0  0
    6.3286    5.8183   84.8946 O   0  0  0  0  0  0  0  0  0  0  0  0
    7.8502    1.7488   81.3700 C   0  0  0  0  0  0  0  0  0  0  0  0
    7.2437    1.3876   82.7050 C   0  0  0  0  0  0  0  0  0  0  0  0
    7.0399    0.1451   83.1552 C   0  0  0  0  0  0  0  0  0  0  0  0
    6.8534    2.4034   83.6371 C   0  0  0  0  0  0  0  0  0  0  0  0
    6.3665    1.6769   84.7580 C   0  0  0  0  0  0  0  0  0  0  0  0
    6.8616    3.7708   83.6654 C   0  0  0  0  0  0  0  0  0  0  0  0
    6.5137    0.3235   84.3843 N   0  0  0  0  0  0  0  0  0  0  0  0
    5.8941    2.2672   85.8667 C   0  0  0  0  0  0  0  0  0  0  0  0
    6.3511    4.4188   84.8316 C   0  0  0  0  0  0  0  0  0  0  0  0
    5.8534    3.6621   85.9508 C   0  0  0  0  0  0  0  0  0  0  0  0
   10.3022    2.2024   80.2167 O   0  0  0  0  0  0  0  0  0  0  0  0
  2  1  1  6  0  0  0
  2  3  1  0  0  0  0
  2  6  1  0  0  0  0
  3  4  1  0  0  0  0
  3 16  1  0  0  0  0
  5 14  1  0  0  0  0
  6  7  1  0  0  0  0
  7  8  2  0  0  0  0
  7  9  1  0  0  0  0
  8 12  1  0  0  0  0
  9 10  2  0  0  0  0
  9 11  1  0  0  0  0
 10 13  1  0  0  0  0
 10 12  1  0  0  0  0
 11 14  2  0  0  0  0
 13 15  2  0  0  0  0
 14 15  1  0  0  0  0
M  END
>  <CHROM.1>
21.14643638,-85.30313998,-158.81530291,7.48820105,2.83524579,82.87925699
0.00486231,0.98603728,0.01310044

>  <Name>
ligand

>  <RI>
0

>  <Rbt.Current_Directory>
/home/itssahil/PROJECTS/Mol_Feturizer/Test_systems_manuscript/rnas/5kpy

>  <Rbt.Executable>
rbdock ($Id: //depot/dev/client3/rdock/2013.1/src/exe/rbdock.cxx#4 $)

>  <Rbt.Library>
libRbt.so (2013.1, Build901 2013/11/27)

>  <Rbt.Parameter_File>
/export/apps/rDock/src/rDock_2013.1_src/data/scripts/dock_solv.prm

>  <Rbt.Receptor>
prm/pocket_docking_7.prm

>  <SCORE>
-18.3609

>  <SCORE.INTER>
-21.3948

>  <SCORE.INTER.CONST>
1

>  <SCORE.INTER.POLAR>
0

>  <SCORE.INTER.ROT>
3

>  <SCORE.INTER.SOLV>
6.12671

>  <SCORE.INTER.VDW>
-21.9054

>  <SCORE.INTER.norm>
-1.33717

>  <SCORE.INTRA>
3.03386

>  <SCORE.INTRA.DIHEDRAL>
2.19977

>  <SCORE.INTRA.DIHEDRAL.0>
3.89056

>  <SCORE.INTRA.POLAR>
0

>  <SCORE.INTRA.POLAR.0>
0

>  <SCORE.INTRA.REPUL>
0

>  <SCORE.INTRA.REPUL.0>
0

>  <SCORE.INTRA.SOLV>
0.446807

>  <SCORE.INTRA.SOLV.lig_0>
-20.733

>  <SCORE.INTRA.VDW>
1.71057

>  <SCORE.INTRA.VDW.0>
-0.828515

>  <SCORE.INTRA.norm>
0.189616

>  <SCORE.RESTR>
0

>  <SCORE.RESTR.CAVITY>
0

>  <SCORE.RESTR.norm>
0

>  <SCORE.SYSTEM>
0

>  <SCORE.SYSTEM.CONST>
0

>  <SCORE.SYSTEM.DIHEDRAL>
0

>  <SCORE.SYSTEM.SOLV>
0

>  <SCORE.SYSTEM.norm>
0

>  <SCORE.heavy>
16

>  <SCORE.norm>
-1.14756

>  <RMSD>
4.790

$$$$
ligand
 OpenBabel02271912153D
libRbt.so/2013.1/901 2013/11/27
 16 17  0  0  0  0  0  0  0  0999 V2000
    6.7504    3.6078   81.0326 N   0  0  0  0  0  0  0  0  0  0  0  0
    8.0515    3.1159   81.3360 C   0  0  2  0  0  0  0  0  0  0  0  0
    9.0149    3.3416   80.2044 C   0  0  0  0  0  0  0  0  0  0  0  0
    9.0047    2.5589   79.2233 O   0  0  0  0  0  0  0  0  0  0  0  0
    6.3674    5.8609   84.9462 O   0  0  0  0  0  0  0  0  0  0  0  0
    8.0049    1.6414   81.6577 C   0  0  0  0  0  0  0  0  0  0  0  0
    7.3040    1.3394   82.9610 C   0  0  0  0  0  0  0  0  0  0  0  0
    7.0386    0.1178   83.4355 C   0  0  0  0  0  0  0  0  0  0  0  0
    6.8814    2.3946   83.8332 C   0  0  0  0  0  0  0  0  0  0  0  0
    6.3041    1.7176   84.9421 C   0  0  0  0  0  0  0  0  0  0  0  0
    6.9241    3.7616   83.8191 C   0  0  0  0  0  0  0  0  0  0  0  0
    6.4392    0.3494   84.6214 N   0  0  0  0  0  0  0  0  0  0  0  0
    5.7769    2.3555   85.9985 C   0  0  0  0  0  0  0  0  0  0  0  0
    6.3568    4.4600   84.9286 C   0  0  0  0  0  0  0  0  0  0  0  0
    5.7679    3.7530   86.0360 C   0  0  0  0  0  0  0  0  0  0  0  0
    9.8253    4.2907   80.2546 O   0  0  0  0  0  0  0  0  0  0  0  0
  2  1  1  6  0  0  0
  2  3  1  0  0  0  0
  2  6  1  0  0  0  0
  3  4  1  0  0  0  0
  3 16  1  0  0  0  0
  5 14  1  0  0  0  0
  6  7  1  0  0  0  0
  7  8  2  0  0  0  0
  7  9  1  0  0  0  0
  8 12  1  0  0  0  0
  9 10  2  0  0  0  0
  9 11  1  0  0  0  0
 10 13  1  0  0  0  0
 10 12  1  0  0  0  0
 11 14  2  0  0  0  0
 13 15  2  0  0  0  0
 14 15  1  0  0  0  0
M  END
>  <CHROM.1>
-79.93361024,-68.81961314,174.92828283,7.30308921,2.84873118,82.95949992
-0.03861062,1.08112255,0.07730743

>  <Name>
ligand

>  <RI>
0

>  <Rbt.Current_Directory>
/home/itssahil/PROJECTS/Mol_Feturizer/Test_systems_manuscript/rnas/5kpy

>  <Rbt.Executable>
rbdock ($Id: //depot/dev/client3/rdock/2013.1/src/exe/rbdock.cxx#4 $)

>  <Rbt.Library>
libRbt.so (2013.1, Build901 2013/11/27)

>  <Rbt.Parameter_File>
/export/apps/rDock/src/rDock_2013.1_src/data/scripts/dock_solv.prm

>  <Rbt.Receptor>
prm/pocket_docking_8.prm

>  <SCORE>
-17.7017

>  <SCORE.INTER>
-19.6306

>  <SCORE.INTER.CONST>
1

>  <SCORE.INTER.POLAR>
0

>  <SCORE.INTER.ROT>
3

>  <SCORE.INTER.SOLV>
7.29991

>  <SCORE.INTER.VDW>
-21.1204

>  <SCORE.INTER.norm>
-1.22691

>  <SCORE.INTRA>
1.92891

>  <SCORE.INTRA.DIHEDRAL>
0.188615

>  <SCORE.INTRA.DIHEDRAL.0>
3.89056

>  <SCORE.INTRA.POLAR>
0

>  <SCORE.INTRA.POLAR.0>
0

>  <SCORE.INTRA.REPUL>
0

>  <SCORE.INTRA.REPUL.0>
0

>  <SCORE.INTRA.SOLV>
0.513302

>  <SCORE.INTRA.SOLV.lig_0>
-20.733

>  <SCORE.INTRA.VDW>
1.57795

>  <SCORE.INTRA.VDW.0>
-0.828515

>  <SCORE.INTRA.norm>
0.120557

>  <SCORE.RESTR>
0

>  <SCORE.RESTR.CAVITY>
0

>  <SCORE.RESTR.norm>
0

>  <SCORE.SYSTEM>
0

>  <SCORE.SYSTEM.CONST>
0

>  <SCORE.SYSTEM.DIHEDRAL>
0

>  <SCORE.SYSTEM.SOLV>
0

>  <SCORE.SYSTEM.norm>
0

>  <SCORE.heavy>
16

>  <SCORE.norm>
-1.10636

>  <RMSD>
4.807

$$$$
ligand
 OpenBabel02271912153D
libRbt.so/2013.1/901 2013/11/27
 16 17  0  0  0  0  0  0  0  0999 V2000
    6.7690    3.6350   81.0533 N   0  0  0  0  0  0  0  0  0  0  0  0
    8.0711    3.1360   81.3405 C   0  0  2  0  0  0  0  0  0  0  0  0
    9.0183    3.3454   80.1921 C   0  0  0  0  0  0  0  0  0  0  0  0
    9.7816    4.3417   80.1989 O   0  0  0  0  0  0  0  0  0  0  0  0
    6.5291    5.9002   85.0127 O   0  0  0  0  0  0  0  0  0  0  0  0
    8.0189    1.6646   81.6751 C   0  0  0  0  0  0  0  0  0  0  0  0
    7.2860    1.3738   82.9631 C   0  0  0  0  0  0  0  0  0  0  0  0
    6.9578    0.1580   83.4129 C   0  0  0  0  0  0  0  0  0  0  0  0
    6.8996    2.4328   83.8474 C   0  0  0  0  0  0  0  0  0  0  0  0
    6.2757    1.7649   84.9364 C   0  0  0  0  0  0  0  0  0  0  0  0
    7.0053    3.7964   83.8575 C   0  0  0  0  0  0  0  0  0  0  0  0
    6.3524    0.3975   84.5941 N   0  0  0  0  0  0  0  0  0  0  0  0
    5.7630    2.4089   85.9962 C   0  0  0  0  0  0  0  0  0  0  0  0
    6.4544    4.5018   84.9709 C   0  0  0  0  0  0  0  0  0  0  0  0
    5.8176    3.8046   86.0577 C   0  0  0  0  0  0  0  0  0  0  0  0
    9.0284    2.5408   79.2367 O   0  0  0  0  0  0  0  0  0  0  0  0
  2  1  1  6  0  0  0
  2  3  1  0  0  0  0
  2  6  1  0  0  0  0
  3  4  1  0  0  0  0
  3 16  1  0  0  0  0
  5 14  1  0  0  0  0
  6  7  1  0  0  0  0
  7  8  2  0  0  0  0
  7  9  1  0  0  0  0
  8 12  1  0  0  0  0
  9 10  2  0  0  0  0
  9 11  1  0  0  0  0
 10 13  1  0  0  0  0
 10 12  1  0  0  0  0
 11 14  2  0  0  0  0
 13 15  2  0  0  0  0
 14 15  1  0  0  0  0
M  END
>  <CHROM.1>
96.83810804,-66.41954786,171.72992845,7.31763268,2.88164097,82.96663717,-0.11783531
1.08418727,0.16080823

>  <Name>
ligand

>  <RI>
0

>  <Rbt.Current_Directory>
/home/itssahil/PROJECTS/Mol_Feturizer/Test_systems_manuscript/rnas/5kpy

>  <Rbt.Executable>
rbdock ($Id: //depot/dev/client3/rdock/2013.1/src/exe/rbdock.cxx#4 $)

>  <Rbt.Library>
libRbt.so (2013.1, Build901 2013/11/27)

>  <Rbt.Parameter_File>
/export/apps/rDock/src/rDock_2013.1_src/data/scripts/dock_solv.prm

>  <Rbt.Receptor>
prm/pocket_docking_8.prm

>  <SCORE>
-17.7816

>  <SCORE.INTER>
-19.5496

>  <SCORE.INTER.CONST>
1

>  <SCORE.INTER.POLAR>
0

>  <SCORE.INTER.ROT>
3

>  <SCORE.INTER.SOLV>
7.18028

>  <SCORE.INTER.VDW>
-21.0265

>  <SCORE.INTER.norm>
-1.22185

>  <SCORE.INTRA>
1.76805

>  <SCORE.INTRA.DIHEDRAL>
-0.0285158

>  <SCORE.INTRA.DIHEDRAL.0>
3.89056

>  <SCORE.INTRA.POLAR>
0

>  <SCORE.INTRA.POLAR.0>
0

>  <SCORE.INTRA.REPUL>
0

>  <SCORE.INTRA.REPUL.0>
0

>  <SCORE.INTRA.SOLV>
0.525506

>  <SCORE.INTRA.SOLV.lig_0>
-20.733

>  <SCORE.INTRA.VDW>
1.51956

>  <SCORE.INTRA.VDW.0>
-0.828515

>  <SCORE.INTRA.norm>
0.110503

>  <SCORE.RESTR>
0

>  <SCORE.RESTR.CAVITY>
0

>  <SCORE.RESTR.norm>
0

>  <SCORE.SYSTEM>
0

>  <SCORE.SYSTEM.CONST>
0

>  <SCORE.SYSTEM.DIHEDRAL>
0

>  <SCORE.SYSTEM.SOLV>
0

>  <SCORE.SYSTEM.norm>
0

>  <SCORE.heavy>
16

>  <SCORE.norm>
-1.11135

>  <RMSD>
4.812

$$$$
ligand
 OpenBabel02271912153D
libRbt.so/2013.1/901 2013/11/27
 16 17  0  0  0  0  0  0  0  0999 V2000
    7.0448    3.4291   80.9358 N   0  0  0  0  0  0  0  0  0  0  0  0
    8.2788    2.8350   81.3249 C   0  0  2  0  0  0  0  0  0  0  0  0
    9.3300    2.9755   80.2595 C   0  0  0  0  0  0  0  0  0  0  0  0
   10.4078    2.3423   80.3724 O   0  0  0  0  0  0  0  0  0  0  0  0
    6.4990    5.7475   84.7433 O   0  0  0  0  0  0  0  0  0  0  0  0
    8.0914    1.3710   81.6432 C   0  0  0  0  0  0  0  0  0  0  0  0
    7.3579    1.1344   82.9420 C   0  0  0  0  0  0  0  0  0  0  0  0
    7.0522   -0.0620   83.4549 C   0  0  0  0  0  0  0  0  0  0  0  0
    6.9457    2.2311   83.7668 C   0  0  0  0  0  0  0  0  0  0  0  0
    6.3298    1.6096   84.8874 C   0  0  0  0  0  0  0  0  0  0  0  0
    7.0236    3.5952   83.7043 C   0  0  0  0  0  0  0  0  0  0  0  0
    6.4360    0.2277   84.6192 N   0  0  0  0  0  0  0  0  0  0  0  0
    5.7988    2.2987   85.9092 C   0  0  0  0  0  0  0  0  0  0  0  0
    6.4529    4.3476   84.7761 C   0  0  0  0  0  0  0  0  0  0  0  0
    5.8248    3.6965   85.8961 C   0  0  0  0  0  0  0  0  0  0  0  0
    9.1324    3.7291   79.2832 O   0  0  0  0  0  0  0  0  0  0  0  0
  2  1  1  6  0  0  0
  2  3  1  0  0  0  0
  2  6  1  0  0  0  0
  3  4  1  0  0  0  0
  3 16  1  0  0  0  0
  5 14  1  0  0  0  0
  6  7  1  0  0  0  0
  7  8  2  0  0  0  0
  7  9  1  0  0  0  0
  8 12  1  0  0  0  0
  9 10  2  0  0  0  0
  9 11  1  0  0  0  0
 10 13  1  0  0  0  0
 10 12  1  0  0  0  0
 11 14  2  0  0  0  0
 13 15  2  0  0  0  0
 14 15  1  0  0  0  0
M  END
>  <CHROM.1>
-169.97689628,-72.39394509,179.53850716,7.44844327,2.64549125,82.91739624
0.05033753,1.02708182,-0.06110249

>  <Name>
ligand

>  <RI>
0

>  <Rbt.Current_Directory>
/home/itssahil/PROJECTS/Mol_Feturizer/Test_systems_manuscript/rnas/5kpy

>  <Rbt.Executable>
rbdock ($Id: //depot/dev/client3/rdock/2013.1/src/exe/rbdock.cxx#4 $)

>  <Rbt.Library>
libRbt.so (2013.1, Build901 2013/11/27)

>  <Rbt.Parameter_File>
/export/apps/rDock/src/rDock_2013.1_src/data/scripts/dock_solv.prm

>  <Rbt.Receptor>
prm/pocket_docking_7.prm

>  <SCORE>
-18.3749

>  <SCORE.INTER>
-20.6278

>  <SCORE.INTER.CONST>
1

>  <SCORE.INTER.POLAR>
0

>  <SCORE.INTER.ROT>
3

>  <SCORE.INTER.SOLV>
7.09981

>  <SCORE.INTER.VDW>
-21.7185

>  <SCORE.INTER.norm>
-1.28924

>  <SCORE.INTRA>
2.25291

>  <SCORE.INTRA.DIHEDRAL>
0.45611

>  <SCORE.INTRA.DIHEDRAL.0>
3.89056

>  <SCORE.INTRA.POLAR>
0

>  <SCORE.INTRA.POLAR.0>
0

>  <SCORE.INTRA.REPUL>
0

>  <SCORE.INTRA.REPUL.0>
0

>  <SCORE.INTRA.SOLV>
0.522965

>  <SCORE.INTRA.SOLV.lig_0>
-20.733

>  <SCORE.INTRA.VDW>
1.76337

>  <SCORE.INTRA.VDW.0>
-0.828515

>  <SCORE.INTRA.norm>
0.140807

>  <SCORE.RESTR>
0

>  <SCORE.RESTR.CAVITY>
0

>  <SCORE.RESTR.norm>
0

>  <SCORE.SYSTEM>
0

>  <SCORE.SYSTEM.CONST>
0

>  <SCORE.SYSTEM.DIHEDRAL>
0

>  <SCORE.SYSTEM.SOLV>
0

>  <SCORE.SYSTEM.norm>
0

>  <SCORE.heavy>
16

>  <SCORE.norm>
-1.14843

>  <RMSD>
4.847

$$$$
ligand
 OpenBabel02271912153D
libRbt.so/2013.1/901 2013/11/27
 16 17  0  0  0  0  0  0  0  0999 V2000
    7.2464   -0.7171   81.9941 N   0  0  0  0  0  0  0  0  0  0  0  0
    7.5784    0.6557   82.1733 C   0  0  2  0  0  0  0  0  0  0  0  0
    7.0178    1.2061   83.4549 C   0  0  0  0  0  0  0  0  0  0  0  0
    6.2745    0.4824   84.1614 O   0  0  0  0  0  0  0  0  0  0  0  0
   12.5467    2.3858   80.3004 O   0  0  0  0  0  0  0  0  0  0  0  0
    7.0719    1.4843   81.0171 C   0  0  0  0  0  0  0  0  0  0  0  0
    7.5995    2.8994   81.0242 C   0  0  0  0  0  0  0  0  0  0  0  0
    6.8649    4.0016   81.2074 C   0  0  0  0  0  0  0  0  0  0  0  0
    8.9970    3.1666   80.8553 C   0  0  0  0  0  0  0  0  0  0  0  0
    9.0932    4.5819   80.9497 C   0  0  0  0  0  0  0  0  0  0  0  0
   10.1257    2.4210   80.6535 C   0  0  0  0  0  0  0  0  0  0  0  0
    7.7635    5.0064   81.1611 N   0  0  0  0  0  0  0  0  0  0  0  0
   10.2531    5.2479   80.8409 C   0  0  0  0  0  0  0  0  0  0  0  0
   11.3691    3.1118   80.5223 C   0  0  0  0  0  0  0  0  0  0  0  0
   11.4408    4.5470   80.6110 C   0  0  0  0  0  0  0  0  0  0  0  0
    7.2801    2.3780   83.7985 O   0  0  0  0  0  0  0  0  0  0  0  0
  2  1  1  6  0  0  0
  2  3  1  0  0  0  0
  2  6  1  0  0  0  0
  3  4  1  0  0  0  0
  3 16  1  0  0  0  0
  5 14  1  0  0  0  0
  6  7  1  0  0  0  0
  7  8  2  0  0  0  0
  7  9  1  0  0  0  0
  8 12  1  0  0  0  0
  9 10  2  0  0  0  0
  9 11  1  0  0  0  0
 10 13  1  0  0  0  0
 10 12  1  0  0  0  0
 11 14  2  0  0  0  0
 13 15  2  0  0  0  0
 14 15  1  0  0  0  0
M  END
>  <CHROM.1>
-4.77953976,-169.80199568,-113.89505824,8.61800041,2.59483470,81.61234533
-2.47468902,0.39410586,-0.23051505

>  <Name>
ligand

>  <RI>
0

>  <Rbt.Current_Directory>
/home/itssahil/PROJECTS/Mol_Feturizer/Test_systems_manuscript/rnas/5kpy

>  <Rbt.Executable>
rbdock ($Id: //depot/dev/client3/rdock/2013.1/src/exe/rbdock.cxx#4 $)

>  <Rbt.Library>
libRbt.so (2013.1, Build901 2013/11/27)

>  <Rbt.Parameter_File>
/export/apps/rDock/src/rDock_2013.1_src/data/scripts/dock_solv.prm

>  <Rbt.Receptor>
prm/blind_docking_100.prm

>  <SCORE>
-16.8427

>  <SCORE.INTER>
-16.1227

>  <SCORE.INTER.CONST>
1

>  <SCORE.INTER.POLAR>
0

>  <SCORE.INTER.ROT>
3

>  <SCORE.INTER.SOLV>
11.511

>  <SCORE.INTER.VDW>
-20.1854

>  <SCORE.INTER.norm>
-1.00767

>  <SCORE.INTRA>
-0.720013

>  <SCORE.INTRA.DIHEDRAL>
0.221868

>  <SCORE.INTRA.DIHEDRAL.0>
3.89056

>  <SCORE.INTRA.POLAR>
0

>  <SCORE.INTRA.POLAR.0>
0

>  <SCORE.INTRA.REPUL>
0

>  <SCORE.INTRA.REPUL.0>
0

>  <SCORE.INTRA.SOLV>
-1.14981

>  <SCORE.INTRA.SOLV.lig_0>
-20.733

>  <SCORE.INTRA.VDW>
-0.256041

>  <SCORE.INTRA.VDW.0>
-0.828515

>  <SCORE.INTRA.norm>
-0.0450008

>  <SCORE.RESTR>
0

>  <SCORE.RESTR.CAVITY>
0

>  <SCORE.RESTR.norm>
0

>  <SCORE.SYSTEM>
0

>  <SCORE.SYSTEM.CONST>
0

>  <SCORE.SYSTEM.DIHEDRAL>
0

>  <SCORE.SYSTEM.SOLV>
0

>  <SCORE.SYSTEM.norm>
0

>  <SCORE.heavy>
16

>  <SCORE.norm>
-1.05267

>  <RMSD>
5.138

$$$$
ligand
 OpenBabel02271912153D
libRbt.so/2013.1/901 2013/11/27
 16 17  0  0  0  0  0  0  0  0999 V2000
    7.2051   -0.7513   81.9229 N   0  0  0  0  0  0  0  0  0  0  0  0
    7.5652    0.6110   82.1267 C   0  0  2  0  0  0  0  0  0  0  0  0
    7.0240    1.1468   83.4228 C   0  0  0  0  0  0  0  0  0  0  0  0
    6.2656    0.4265   84.1166 O   0  0  0  0  0  0  0  0  0  0  0  0
   12.5424    2.3517   80.2470 O   0  0  0  0  0  0  0  0  0  0  0  0
    7.0677    1.4720   80.9906 C   0  0  0  0  0  0  0  0  0  0  0  0
    7.6066    2.8822   81.0336 C   0  0  0  0  0  0  0  0  0  0  0  0
    6.8826    3.9842   81.2560 C   0  0  0  0  0  0  0  0  0  0  0  0
    9.0045    3.1434   80.8590 C   0  0  0  0  0  0  0  0  0  0  0  0
    9.1129    4.5546   80.9935 C   0  0  0  0  0  0  0  0  0  0  0  0
   10.1252    2.3953   80.6246 C   0  0  0  0  0  0  0  0  0  0  0  0
    7.7888    4.9830   81.2301 N   0  0  0  0  0  0  0  0  0  0  0  0
   10.2771    5.2145   80.8928 C   0  0  0  0  0  0  0  0  0  0  0  0
   11.3729    3.0800   80.5014 C   0  0  0  0  0  0  0  0  0  0  0  0
   11.4569    4.5114   80.6311 C   0  0  0  0  0  0  0  0  0  0  0  0
    7.3172    2.3038   83.7908 O   0  0  0  0  0  0  0  0  0  0  0  0
  2  1  1  6  0  0  0
  2  3  1  0  0  0  0
  2  6  1  0  0  0  0
  3  4  1  0  0  0  0
  3 16  1  0  0  0  0
  5 14  1  0  0  0  0
  6  7  1  0  0  0  0
  7  8  2  0  0  0  0
  7  9  1  0  0  0  0
  8 12  1  0  0  0  0
  9 10  2  0  0  0  0
  9 11  1  0  0  0  0
 10 13  1  0  0  0  0
 10 12  1  0  0  0  0
 11 14  2  0  0  0  0
 13 15  2  0  0  0  0
 14 15  1  0  0  0  0
M  END
>  <CHROM.1>
-5.14738045,-170.67644110,-113.19325394,8.62343236,2.55956379,81.60499641
-2.48726341,0.40666739,-0.19684966

>  <Name>
ligand

>  <RI>
0

>  <Rbt.Current_Directory>
/home/itssahil/PROJECTS/Mol_Feturizer/Test_systems_manuscript/rnas/5kpy

>  <Rbt.Executable>
rbdock ($Id: //depot/dev/client3/rdock/2013.1/src/exe/rbdock.cxx#4 $)

>  <Rbt.Library>
libRbt.so (2013.1, Build901 2013/11/27)

>  <Rbt.Parameter_File>
/export/apps/rDock/src/rDock_2013.1_src/data/scripts/dock_solv.prm

>  <Rbt.Receptor>
prm/blind_docking_100.prm

>  <SCORE>
-16.8342

>  <SCORE.INTER>
-16.0851

>  <SCORE.INTER.CONST>
1

>  <SCORE.INTER.POLAR>
0

>  <SCORE.INTER.ROT>
3

>  <SCORE.INTER.SOLV>
11.5945

>  <SCORE.INTER.VDW>
-20.1882

>  <SCORE.INTER.norm>
-1.00532

>  <SCORE.INTRA>
-0.749059

>  <SCORE.INTRA.DIHEDRAL>
0.154624

>  <SCORE.INTRA.DIHEDRAL.0>
3.89056

>  <SCORE.INTRA.POLAR>
0

>  <SCORE.INTRA.POLAR.0>
0

>  <SCORE.INTRA.REPUL>
0

>  <SCORE.INTRA.REPUL.0>
0

>  <SCORE.INTRA.SOLV>
-1.15095

>  <SCORE.INTRA.SOLV.lig_0>
-20.733

>  <SCORE.INTRA.VDW>
-0.250895

>  <SCORE.INTRA.VDW.0>
-0.828515

>  <SCORE.INTRA.norm>
-0.0468162

>  <SCORE.RESTR>
0

>  <SCORE.RESTR.CAVITY>
0

>  <SCORE.RESTR.norm>
0

>  <SCORE.SYSTEM>
0

>  <SCORE.SYSTEM.CONST>
0

>  <SCORE.SYSTEM.DIHEDRAL>
0

>  <SCORE.SYSTEM.SOLV>
0

>  <SCORE.SYSTEM.norm>
0

>  <SCORE.heavy>
16

>  <SCORE.norm>
-1.05214

>  <RMSD>
5.150

$$$$
ligand
 OpenBabel02271912153D
libRbt.so/2013.1/901 2013/11/27
 16 17  0  0  0  0  0  0  0  0999 V2000
   11.1518    3.7688   80.4185 N   0  0  0  0  0  0  0  0  0  0  0  0
   10.6396    2.4923   80.7862 C   0  0  2  0  0  0  0  0  0  0  0  0
   11.4005    1.3726   80.1324 C   0  0  0  0  0  0  0  0  0  0  0  0
   11.4119    0.2399   80.6728 O   0  0  0  0  0  0  0  0  0  0  0  0
    7.1108   -0.4834   84.7620 O   0  0  0  0  0  0  0  0  0  0  0  0
    9.1793    2.3758   80.4208 C   0  0  0  0  0  0  0  0  0  0  0  0
    8.2643    3.0710   81.4007 C   0  0  0  0  0  0  0  0  0  0  0  0
    7.8696    4.3463   81.3249 C   0  0  0  0  0  0  0  0  0  0  0  0
    7.7070    2.3667   82.5171 C   0  0  0  0  0  0  0  0  0  0  0  0
    6.8959    3.3357   83.1685 C   0  0  0  0  0  0  0  0  0  0  0  0
    7.7830    1.0965   83.0186 C   0  0  0  0  0  0  0  0  0  0  0  0
    7.0512    4.5003   82.3859 N   0  0  0  0  0  0  0  0  0  0  0  0
    6.1894    3.0749   84.2793 C   0  0  0  0  0  0  0  0  0  0  0  0
    7.0484    0.8018   84.2078 C   0  0  0  0  0  0  0  0  0  0  0  0
    6.2416    1.8025   84.8563 C   0  0  0  0  0  0  0  0  0  0  0  0
   12.0258    1.5793   79.0712 O   0  0  0  0  0  0  0  0  0  0  0  0
  2  1  1  6  0  0  0
  2  3  1  0  0  0  0
  2  6  1  0  0  0  0
  3  4  1  0  0  0  0
  3 16  1  0  0  0  0
  5 14  1  0  0  0  0
  6  7  1  0  0  0  0
  7  8  2  0  0  0  0
  7  9  1  0  0  0  0
  8 12  1  0  0  0  0
  9 10  2  0  0  0  0
  9 11  1  0  0  0  0
 10 13  1  0  0  0  0
 10 12  1  0  0  0  0
 11 14  2  0  0  0  0
 13 15  2  0  0  0  0
 14 15  1  0  0  0  0
M  END
>  <CHROM.1>
155.20499334,-78.81710426,89.77043151,8.73550556,2.17096537,82.02053399,0.28887778
0.67339982,-0.44461936

>  <Name>
ligand

>  <RI>
0

>  <Rbt.Current_Directory>
/home/itssahil/PROJECTS/Mol_Feturizer/Test_systems_manuscript/rnas/5kpy

>  <Rbt.Executable>
rbdock ($Id: //depot/dev/client3/rdock/2013.1/src/exe/rbdock.cxx#4 $)

>  <Rbt.Library>
libRbt.so (2013.1, Build901 2013/11/27)

>  <Rbt.Parameter_File>
/export/apps/rDock/src/rDock_2013.1_src/data/scripts/dock_solv.prm

>  <Rbt.Receptor>
prm/blind_docking_100.prm

>  <SCORE>
-13.8007

>  <SCORE.INTER>
-13.9606

>  <SCORE.INTER.CONST>
1

>  <SCORE.INTER.POLAR>
0

>  <SCORE.INTER.ROT>
3

>  <SCORE.INTER.SOLV>
11.0349

>  <SCORE.INTER.VDW>
-18.5854

>  <SCORE.INTER.norm>
-0.872535

>  <SCORE.INTRA>
0.15987

>  <SCORE.INTRA.DIHEDRAL>
1.31038

>  <SCORE.INTRA.DIHEDRAL.0>
3.89056

>  <SCORE.INTRA.POLAR>
0

>  <SCORE.INTRA.POLAR.0>
0

>  <SCORE.INTRA.REPUL>
0

>  <SCORE.INTRA.REPUL.0>
0

>  <SCORE.INTRA.SOLV>
-0.455142

>  <SCORE.INTRA.SOLV.lig_0>
-20.733

>  <SCORE.INTRA.VDW>
-0.267747

>  <SCORE.INTRA.VDW.0>
-0.828515

>  <SCORE.INTRA.norm>
0.00999185

>  <SCORE.RESTR>
0

>  <SCORE.RESTR.CAVITY>
0

>  <SCORE.RESTR.norm>
0

>  <SCORE.SYSTEM>
0

>  <SCORE.SYSTEM.CONST>
0

>  <SCORE.SYSTEM.DIHEDRAL>
0

>  <SCORE.SYSTEM.SOLV>
0

>  <SCORE.SYSTEM.norm>
0

>  <SCORE.heavy>
16

>  <SCORE.norm>
-0.862544

>  <RMSD>
5.468

$$$$
ligand
 OpenBabel02271912153D
libRbt.so/2013.1/901 2013/11/27
 16 17  0  0  0  0  0  0  0  0999 V2000
    6.7575    3.6898   81.0148 N   0  0  0  0  0  0  0  0  0  0  0  0
    8.0499    4.2155   81.2986 C   0  0  2  0  0  0  0  0  0  0  0  0
    8.0470    5.7180   81.3449 C   0  0  0  0  0  0  0  0  0  0  0  0
    7.3621    6.3572   80.5097 O   0  0  0  0  0  0  0  0  0  0  0  0
   12.2494   -0.7514   81.1462 O   0  0  0  0  0  0  0  0  0  0  0  0
    9.0531    3.7555   80.2682 C   0  0  0  0  0  0  0  0  0  0  0  0
   10.4855    3.9350   80.7118 C   0  0  0  0  0  0  0  0  0  0  0  0
   11.0869    5.1071   80.9407 C   0  0  0  0  0  0  0  0  0  0  0  0
   11.3291    2.8032   80.9573 C   0  0  0  0  0  0  0  0  0  0  0  0
   12.5619    3.3742   81.3763 C   0  0  0  0  0  0  0  0  0  0  0  0
   11.1997    1.4435   80.8859 C   0  0  0  0  0  0  0  0  0  0  0  0
   12.3301    4.7662   81.3374 N   0  0  0  0  0  0  0  0  0  0  0  0
   13.6364    2.6408   81.7057 C   0  0  0  0  0  0  0  0  0  0  0  0
   12.3360    0.6450   81.2202 C   0  0  0  0  0  0  0  0  0  0  0  0
   13.5779    1.2459   81.6321 C   0  0  0  0  0  0  0  0  0  0  0  0
    8.7343    6.3174   82.1983 O   0  0  0  0  0  0  0  0  0  0  0  0
  2  1  1  6  0  0  0
  2  3  1  0  0  0  0
  2  6  1  0  0  0  0
  3  4  1  0  0  0  0
  3 16  1  0  0  0  0
  5 14  1  0  0  0  0
  6  7  1  0  0  0  0
  7  8  2  0  0  0  0
  7  9  1  0  0  0  0
  8 12  1  0  0  0  0
  9 10  2  0  0  0  0
  9 11  1  0  0  0  0
 10 13  1  0  0  0  0
 10 12  1  0  0  0  0
 11 14  2  0  0  0  0
 13 15  2  0  0  0  0
 14 15  1  0  0  0  0
M  END
>  <CHROM.1>
-39.65514872,-163.41995769,-65.21819392,10.44215148,3.50458472,81.15885758
2.41636006,-0.11872612,0.09063859

>  <Name>
ligand

>  <RI>
0

>  <Rbt.Current_Directory>
/home/itssahil/PROJECTS/Mol_Feturizer/Test_systems_manuscript/rnas/5kpy

>  <Rbt.Executable>
rbdock ($Id: //depot/dev/client3/rdock/2013.1/src/exe/rbdock.cxx#4 $)

>  <Rbt.Library>
libRbt.so (2013.1, Build901 2013/11/27)

>  <Rbt.Parameter_File>
/export/apps/rDock/src/rDock_2013.1_src/data/scripts/dock_solv.prm

>  <Rbt.Receptor>
prm/blind_docking_100.prm

>  <SCORE>
-12.8649

>  <SCORE.INTER>
-12.3413

>  <SCORE.INTER.CONST>
1

>  <SCORE.INTER.POLAR>
0

>  <SCORE.INTER.ROT>
3

>  <SCORE.INTER.SOLV>
8.5292

>  <SCORE.INTER.VDW>
-16.6706

>  <SCORE.INTER.norm>
-0.771329

>  <SCORE.INTRA>
-0.523617

>  <SCORE.INTRA.DIHEDRAL>
0.813434

>  <SCORE.INTRA.DIHEDRAL.0>
3.89056

>  <SCORE.INTRA.POLAR>
0

>  <SCORE.INTRA.POLAR.0>
0

>  <SCORE.INTRA.REPUL>
0

>  <SCORE.INTRA.REPUL.0>
0

>  <SCORE.INTRA.SOLV>
-1.17562

>  <SCORE.INTRA.SOLV.lig_0>
-20.733

>  <SCORE.INTRA.VDW>
-0.342525

>  <SCORE.INTRA.VDW.0>
-0.828515

>  <SCORE.INTRA.norm>
-0.032726

>  <SCORE.RESTR>
0

>  <SCORE.RESTR.CAVITY>
0

>  <SCORE.RESTR.norm>
0

>  <SCORE.SYSTEM>
0

>  <SCORE.SYSTEM.CONST>
0

>  <SCORE.SYSTEM.DIHEDRAL>
0

>  <SCORE.SYSTEM.SOLV>
0

>  <SCORE.SYSTEM.norm>
0

>  <SCORE.heavy>
16

>  <SCORE.norm>
-0.804056

>  <RMSD>
5.562

$$$$
ligand
 OpenBabel02271912153D
libRbt.so/2013.1/901 2013/11/27
 16 17  0  0  0  0  0  0  0  0999 V2000
    8.2220    2.7534   81.0177 N   0  0  0  0  0  0  0  0  0  0  0  0
    7.7955    3.7057   81.9863 C   0  0  2  0  0  0  0  0  0  0  0  0
    7.0677    3.0558   83.1298 C   0  0  0  0  0  0  0  0  0  0  0  0
    6.4775    1.9642   82.9417 O   0  0  0  0  0  0  0  0  0  0  0  0
   10.0196    9.3701   81.7569 O   0  0  0  0  0  0  0  0  0  0  0  0
    6.8984    4.7444   81.3570 C   0  0  0  0  0  0  0  0  0  0  0  0
    6.4894    5.8364   82.3167 C   0  0  0  0  0  0  0  0  0  0  0  0
    5.4242    5.8024   83.1242 C   0  0  0  0  0  0  0  0  0  0  0  0
    7.2714    7.0292   82.4536 C   0  0  0  0  0  0  0  0  0  0  0  0
    6.5897    7.7780   83.4515 C   0  0  0  0  0  0  0  0  0  0  0  0
    8.4123    7.5300   81.8895 C   0  0  0  0  0  0  0  0  0  0  0  0
    5.4880    6.9674   83.8009 N   0  0  0  0  0  0  0  0  0  0  0  0
    7.0038    8.9813   83.8776 C   0  0  0  0  0  0  0  0  0  0  0  0
    8.8631    8.8152   82.3203 C   0  0  0  0  0  0  0  0  0  0  0  0
    8.1503    9.5601   83.3252 C   0  0  0  0  0  0  0  0  0  0  0  0
    7.0413    3.6105   84.2487 O   0  0  0  0  0  0  0  0  0  0  0  0
  2  1  1  6  0  0  0
  2  3  1  0  0  0  0
  2  6  1  0  0  0  0
  3  4  1  0  0  0  0
  3 16  1  0  0  0  0
  5 14  1  0  0  0  0
  6  7  1  0  0  0  0
  7  8  2  0  0  0  0
  7  9  1  0  0  0  0
  8 12  1  0  0  0  0
  9 10  2  0  0  0  0
  9 11  1  0  0  0  0
 10 13  1  0  0  0  0
 10 12  1  0  0  0  0
 11 14  2  0  0  0  0
 13 15  2  0  0  0  0
 14 15  1  0  0  0  0
M  END
>  <CHROM.1>
-26.21354655,-176.08209169,-88.12604733,7.34462490,5.98335931,82.68276026
-1.83733474,0.64187656,0.18065877

>  <Name>
ligand

>  <RI>
0

>  <Rbt.Current_Directory>
/home/itssahil/PROJECTS/Mol_Feturizer/Test_systems_manuscript/rnas/5kpy

>  <Rbt.Executable>
rbdock ($Id: //depot/dev/client3/rdock/2013.1/src/exe/rbdock.cxx#4 $)

>  <Rbt.Library>
libRbt.so (2013.1, Build901 2013/11/27)

>  <Rbt.Parameter_File>
/export/apps/rDock/src/rDock_2013.1_src/data/scripts/dock_solv.prm

>  <Rbt.Receptor>
prm/pocket_docking_8.prm

>  <SCORE>
-8.59638

>  <SCORE.INTER>
-7.46458

>  <SCORE.INTER.CONST>
1

>  <SCORE.INTER.POLAR>
0

>  <SCORE.INTER.ROT>
3

>  <SCORE.INTER.SOLV>
6.75457

>  <SCORE.INTER.VDW>
-12.8279

>  <SCORE.INTER.norm>
-0.466536

>  <SCORE.INTRA>
-1.1318

>  <SCORE.INTRA.DIHEDRAL>
-0.196203

>  <SCORE.INTRA.DIHEDRAL.0>
3.89056

>  <SCORE.INTRA.POLAR>
0

>  <SCORE.INTRA.POLAR.0>
0

>  <SCORE.INTRA.REPUL>
0

>  <SCORE.INTRA.REPUL.0>
0

>  <SCORE.INTRA.SOLV>
-1.17186

>  <SCORE.INTRA.SOLV.lig_0>
-20.733

>  <SCORE.INTRA.VDW>
-0.447771

>  <SCORE.INTRA.VDW.0>
-0.828515

>  <SCORE.INTRA.norm>
-0.0707377

>  <SCORE.RESTR>
0

>  <SCORE.RESTR.CAVITY>
0

>  <SCORE.RESTR.norm>
0

>  <SCORE.SYSTEM>
0

>  <SCORE.SYSTEM.CONST>
0

>  <SCORE.SYSTEM.DIHEDRAL>
0

>  <SCORE.SYSTEM.SOLV>
0

>  <SCORE.SYSTEM.norm>
0

>  <SCORE.heavy>
16

>  <SCORE.norm>
-0.537274

>  <RMSD>
5.628

$$$$
ligand
 OpenBabel02271912153D
libRbt.so/2013.1/901 2013/11/27
 16 17  0  0  0  0  0  0  0  0999 V2000
    8.2296    2.9586   81.7136 N   0  0  0  0  0  0  0  0  0  0  0  0
    8.5162    4.2869   81.2890 C   0  0  2  0  0  0  0  0  0  0  0  0
    7.3009    4.9714   80.7281 C   0  0  0  0  0  0  0  0  0  0  0  0
    7.4111    6.1285   80.2545 O   0  0  0  0  0  0  0  0  0  0  0  0
   11.4621   -0.9460   80.9043 O   0  0  0  0  0  0  0  0  0  0  0  0
    9.6099    4.2921   80.2481 C   0  0  0  0  0  0  0  0  0  0  0  0
   10.9840    4.0568   80.8289 C   0  0  0  0  0  0  0  0  0  0  0  0
   11.8303    5.0098   81.2331 C   0  0  0  0  0  0  0  0  0  0  0  0
   11.4858    2.7287   81.0219 C   0  0  0  0  0  0  0  0  0  0  0  0
   12.7684    2.9238   81.6035 C   0  0  0  0  0  0  0  0  0  0  0  0
   11.0294    1.4597   80.7936 C   0  0  0  0  0  0  0  0  0  0  0  0
   12.8976    4.3266   81.6952 N   0  0  0  0  0  0  0  0  0  0  0  0
   13.5826    1.9123   81.9422 C   0  0  0  0  0  0  0  0  0  0  0  0
   11.8863    0.3691   81.1355 C   0  0  0  0  0  0  0  0  0  0  0  0
   13.1859    0.5913   81.7140 C   0  0  0  0  0  0  0  0  0  0  0  0
    6.1933    4.3946   80.7514 O   0  0  0  0  0  0  0  0  0  0  0  0
  2  1  1  6  0  0  0
  2  3  1  0  0  0  0
  2  6  1  0  0  0  0
  3  4  1  0  0  0  0
  3 16  1  0  0  0  0
  5 14  1  0  0  0  0
  6  7  1  0  0  0  0
  7  8  2  0  0  0  0
  7  9  1  0  0  0  0
  8 12  1  0  0  0  0
  9 10  2  0  0  0  0
  9 11  1  0  0  0  0
 10 13  1  0  0  0  0
 10 12  1  0  0  0  0
 11 14  2  0  0  0  0
 13 15  2  0  0  0  0
 14 15  1  0  0  0  0
M  END
>  <CHROM.1>
-176.71962851,-75.41491373,-91.83159395,10.38294769,3.12481137,81.09255012
2.50859258,-0.13160157,-0.00377602

>  <Name>
ligand

>  <RI>
0

>  <Rbt.Current_Directory>
/home/itssahil/PROJECTS/Mol_Feturizer/Test_systems_manuscript/rnas/5kpy

>  <Rbt.Executable>
rbdock ($Id: //depot/dev/client3/rdock/2013.1/src/exe/rbdock.cxx#4 $)

>  <Rbt.Library>
libRbt.so (2013.1, Build901 2013/11/27)

>  <Rbt.Parameter_File>
/export/apps/rDock/src/rDock_2013.1_src/data/scripts/dock_solv.prm

>  <Rbt.Receptor>
prm/blind_docking_100.prm

>  <SCORE>
-12.9347

>  <SCORE.INTER>
-13.3225

>  <SCORE.INTER.CONST>
1

>  <SCORE.INTER.POLAR>
0

>  <SCORE.INTER.ROT>
3

>  <SCORE.INTER.SOLV>
8.39599

>  <SCORE.INTER.VDW>
-17.2804

>  <SCORE.INTER.norm>
-0.832659

>  <SCORE.INTRA>
0.387827

>  <SCORE.INTRA.DIHEDRAL>
0.696412

>  <SCORE.INTRA.DIHEDRAL.0>
3.89056

>  <SCORE.INTRA.POLAR>
0

>  <SCORE.INTRA.POLAR.0>
0

>  <SCORE.INTRA.REPUL>
0

>  <SCORE.INTRA.REPUL.0>
0

>  <SCORE.INTRA.SOLV>
0.0431041

>  <SCORE.INTRA.SOLV.lig_0>
-20.733

>  <SCORE.INTRA.VDW>
0.0180691

>  <SCORE.INTRA.VDW.0>
-0.828515

>  <SCORE.INTRA.norm>
0.0242392

>  <SCORE.RESTR>
0

>  <SCORE.RESTR.CAVITY>
0

>  <SCORE.RESTR.norm>
0

>  <SCORE.SYSTEM>
0

>  <SCORE.SYSTEM.CONST>
0

>  <SCORE.SYSTEM.DIHEDRAL>
0

>  <SCORE.SYSTEM.SOLV>
0

>  <SCORE.SYSTEM.norm>
0

>  <SCORE.heavy>
16

>  <SCORE.norm>
-0.808419

>  <RMSD>
5.674

$$$$
ligand
 OpenBabel02271912153D
libRbt.so/2013.1/901 2013/11/27
 16 17  0  0  0  0  0  0  0  0999 V2000
    7.8294    2.7304   82.3037 N   0  0  0  0  0  0  0  0  0  0  0  0
    7.5631    2.4129   80.9416 C   0  0  2  0  0  0  0  0  0  0  0  0
    6.9264    1.0590   80.7951 C   0  0  0  0  0  0  0  0  0  0  0  0
    7.0051    0.2374   81.7406 O   0  0  0  0  0  0  0  0  0  0  0  0
   14.0620    1.1457   81.6221 O   0  0  0  0  0  0  0  0  0  0  0  0
    8.8323    2.4522   80.1247 C   0  0  0  0  0  0  0  0  0  0  0  0
    9.7795    3.5487   80.5507 C   0  0  0  0  0  0  0  0  0  0  0  0
    9.4791    4.8495   80.6248 C   0  0  0  0  0  0  0  0  0  0  0  0
   11.1220    3.2492   80.9518 C   0  0  0  0  0  0  0  0  0  0  0  0
   11.6702    4.5141   81.2995 C   0  0  0  0  0  0  0  0  0  0  0  0
   11.8896    2.1226   81.0623 C   0  0  0  0  0  0  0  0  0  0  0  0
   10.6146    5.4235   81.0727 N   0  0  0  0  0  0  0  0  0  0  0  0
   12.9304    4.6743   81.7320 C   0  0  0  0  0  0  0  0  0  0  0  0
   13.2381    2.2732   81.5090 C   0  0  0  0  0  0  0  0  0  0  0  0
   13.7750    3.5660   81.8456 C   0  0  0  0  0  0  0  0  0  0  0  0
    6.3408    0.7563   79.7342 O   0  0  0  0  0  0  0  0  0  0  0  0
  2  1  1  1  0  0  0
  2  3  1  0  0  0  0
  2  6  1  0  0  0  0
  3  4  1  0  0  0  0
  3 16  1  0  0  0  0
  5 14  1  0  0  0  0
  6  7  1  0  0  0  0
  7  8  2  0  0  0  0
  7  9  1  0  0  0  0
  8 12  1  0  0  0  0
  9 10  2  0  0  0  0
  9 11  1  0  0  0  0
 10 13  1  0  0  0  0
 10 12  1  0  0  0  0
 11 14  2  0  0  0  0
 13 15  2  0  0  0  0
 14 15  1  0  0  0  0
M  END
>  <CHROM.1>
-18.02546534,-36.76075497,-55.66172020,10.08747235,2.71294204,81.11487968
2.83225610,0.13143298,3.08509059

>  <Name>
ligand

>  <RI>
0

>  <Rbt.Current_Directory>
/home/itssahil/PROJECTS/Mol_Feturizer/Test_systems_manuscript/rnas/5kpy

>  <Rbt.Executable>
rbdock ($Id: //depot/dev/client3/rdock/2013.1/src/exe/rbdock.cxx#4 $)

>  <Rbt.Library>
libRbt.so (2013.1, Build901 2013/11/27)

>  <Rbt.Parameter_File>
/export/apps/rDock/src/rDock_2013.1_src/data/scripts/dock_solv.prm

>  <Rbt.Receptor>
prm/blind_docking_100.prm

>  <SCORE>
-13.4138

>  <SCORE.INTER>
-14.5527

>  <SCORE.INTER.CONST>
1

>  <SCORE.INTER.POLAR>
0

>  <SCORE.INTER.ROT>
3

>  <SCORE.INTER.SOLV>
6.86353

>  <SCORE.INTER.VDW>
-17.5896

>  <SCORE.INTER.norm>
-0.909541

>  <SCORE.INTRA>
1.13884

>  <SCORE.INTRA.DIHEDRAL>
1.72141

>  <SCORE.INTRA.DIHEDRAL.0>
3.89056

>  <SCORE.INTRA.POLAR>
0

>  <SCORE.INTRA.POLAR.0>
0

>  <SCORE.INTRA.REPUL>
0

>  <SCORE.INTRA.REPUL.0>
0

>  <SCORE.INTRA.SOLV>
0.155362

>  <SCORE.INTRA.SOLV.lig_0>
-20.733

>  <SCORE.INTRA.VDW>
0.200458

>  <SCORE.INTRA.VDW.0>
-0.828515

>  <SCORE.INTRA.norm>
0.0711777

>  <SCORE.RESTR>
0

>  <SCORE.RESTR.CAVITY>
0

>  <SCORE.RESTR.norm>
0

>  <SCORE.SYSTEM>
0

>  <SCORE.SYSTEM.CONST>
0

>  <SCORE.SYSTEM.DIHEDRAL>
0

>  <SCORE.SYSTEM.SOLV>
0

>  <SCORE.SYSTEM.norm>
0

>  <SCORE.heavy>
16

>  <SCORE.norm>
-0.838363

>  <RMSD>
6.287

$$$$
ligand
 OpenBabel02271912153D
libRbt.so/2013.1/901 2013/11/27
 16 17  0  0  0  0  0  0  0  0999 V2000
    8.7611    0.9789   81.6284 N   0  0  0  0  0  0  0  0  0  0  0  0
    7.3541    0.9301   81.8405 C   0  0  2  0  0  0  0  0  0  0  0  0
    6.9909    1.2301   83.2680 C   0  0  0  0  0  0  0  0  0  0  0  0
    6.2575    2.2166   83.5212 O   0  0  0  0  0  0  0  0  0  0  0  0
    5.0002   -5.2476   79.2770 O   0  0  0  0  0  0  0  0  0  0  0  0
    6.8027   -0.4245   81.4653 C   0  0  0  0  0  0  0  0  0  0  0  0
    6.0043   -0.4069   80.1835 C   0  0  0  0  0  0  0  0  0  0  0  0
    5.6852    0.6858   79.4819 C   0  0  0  0  0  0  0  0  0  0  0  0
    5.5368   -1.6237   79.5887 C   0  0  0  0  0  0  0  0  0  0  0  0
    4.8695   -1.1982   78.4076 C   0  0  0  0  0  0  0  0  0  0  0  0
    5.6028   -2.9564   79.8889 C   0  0  0  0  0  0  0  0  0  0  0  0
    5.0051    0.2070   78.4201 N   0  0  0  0  0  0  0  0  0  0  0  0
    4.2776   -2.0463   77.5526 C   0  0  0  0  0  0  0  0  0  0  0  0
    4.9679   -3.8750   78.9980 C   0  0  0  0  0  0  0  0  0  0  0  0
    4.2888   -3.4199   77.8129 C   0  0  0  0  0  0  0  0  0  0  0  0
    7.4316    0.5101   84.1887 O   0  0  0  0  0  0  0  0  0  0  0  0
  2  1  1  1  0  0  0
  2  3  1  0  0  0  0
  2  6  1  0  0  0  0
  3  4  1  0  0  0  0
  3 16  1  0  0  0  0
  5 14  1  0  0  0  0
  6  7  1  0  0  0  0
  7  8  2  0  0  0  0
  7  9  1  0  0  0  0
  8 12  1  0  0  0  0
  9 10  2  0  0  0  0
  9 11  1  0  0  0  0
 10 13  1  0  0  0  0
 10 12  1  0  0  0  0
 11 14  2  0  0  0  0
 13 15  2  0  0  0  0
 14 15  1  0  0  0  0
M  END
>  <CHROM.1>
119.45840275,-107.33424074,-5.92414273,5.97764186,-0.85739212,80.46939860
-0.56927946,1.12375850,2.96865247

>  <Name>
ligand

>  <RI>
0

>  <Rbt.Current_Directory>
/home/itssahil/PROJECTS/Mol_Feturizer/Test_systems_manuscript/rnas/5kpy

>  <Rbt.Executable>
rbdock ($Id: //depot/dev/client3/rdock/2013.1/src/exe/rbdock.cxx#4 $)

>  <Rbt.Library>
libRbt.so (2013.1, Build901 2013/11/27)

>  <Rbt.Parameter_File>
/export/apps/rDock/src/rDock_2013.1_src/data/scripts/dock_solv.prm

>  <Rbt.Receptor>
prm/blind_docking_100.prm

>  <SCORE>
-12.607

>  <SCORE.INTER>
-15.4072

>  <SCORE.INTER.CONST>
1

>  <SCORE.INTER.POLAR>
0

>  <SCORE.INTER.ROT>
3

>  <SCORE.INTER.SOLV>
9.67286

>  <SCORE.INTER.VDW>
-19.0957

>  <SCORE.INTER.norm>
-0.962947

>  <SCORE.INTRA>
2.49417

>  <SCORE.INTRA.DIHEDRAL>
5.10569

>  <SCORE.INTRA.DIHEDRAL.0>
3.89056

>  <SCORE.INTRA.POLAR>
0

>  <SCORE.INTRA.POLAR.0>
0

>  <SCORE.INTRA.REPUL>
0

>  <SCORE.INTRA.REPUL.0>
0

>  <SCORE.INTRA.SOLV>
-0.826589

>  <SCORE.INTRA.SOLV.lig_0>
-20.733

>  <SCORE.INTRA.VDW>
0.354618

>  <SCORE.INTRA.VDW.0>
-0.828515

>  <SCORE.INTRA.norm>
0.155885

>  <SCORE.RESTR>
0.30599

>  <SCORE.RESTR.CAVITY>
0.30599

>  <SCORE.RESTR.norm>
0.0191244

>  <SCORE.SYSTEM>
0

>  <SCORE.SYSTEM.CONST>
0

>  <SCORE.SYSTEM.DIHEDRAL>
0

>  <SCORE.SYSTEM.SOLV>
0

>  <SCORE.SYSTEM.norm>
0

>  <SCORE.heavy>
16

>  <SCORE.norm>
-0.787937

>  <RMSD>
6.413

$$$$
ligand
 OpenBabel02271912153D
libRbt.so/2013.1/901 2013/11/27
 16 17  0  0  0  0  0  0  0  0999 V2000
   13.7381    3.0032   81.6400 N   0  0  0  0  0  0  0  0  0  0  0  0
   12.3715    2.7373   81.3422 C   0  0  2  0  0  0  0  0  0  0  0  0
   12.2229    1.6750   80.2890 C   0  0  0  0  0  0  0  0  0  0  0  0
   12.7626    1.8412   79.1681 O   0  0  0  0  0  0  0  0  0  0  0  0
    8.1806    8.0362   82.5428 O   0  0  0  0  0  0  0  0  0  0  0  0
   11.6704    3.9920   80.8797 C   0  0  0  0  0  0  0  0  0  0  0  0
   10.1819    3.8095   80.7009 C   0  0  0  0  0  0  0  0  0  0  0  0
    9.5885    2.7305   80.1797 C   0  0  0  0  0  0  0  0  0  0  0  0
    9.2585    4.8192   81.1259 C   0  0  0  0  0  0  0  0  0  0  0  0
    7.9821    4.2726   80.8203 C   0  0  0  0  0  0  0  0  0  0  0  0
    9.3471    6.0547   81.7061 C   0  0  0  0  0  0  0  0  0  0  0  0
    8.2715    3.0129   80.2525 N   0  0  0  0  0  0  0  0  0  0  0  0
    6.8301    4.9160   81.0646 C   0  0  0  0  0  0  0  0  0  0  0  0
    8.1326    6.7617   81.9628 C   0  0  0  0  0  0  0  0  0  0  0  0
    6.8516    6.1923   81.6350 C   0  0  0  0  0  0  0  0  0  0  0  0
   11.5543    0.6476   80.5289 O   0  0  0  0  0  0  0  0  0  0  0  0
  2  1  1  6  0  0  0
  2  3  1  0  0  0  0
  2  6  1  0  0  0  0
  3  4  1  0  0  0  0
  3 16  1  0  0  0  0
  5 14  1  0  0  0  0
  6  7  1  0  0  0  0
  7  8  2  0  0  0  0
  7  9  1  0  0  0  0
  8 12  1  0  0  0  0
  9 10  2  0  0  0  0
  9 11  1  0  0  0  0
 10 13  1  0  0  0  0
 10 12  1  0  0  0  0
 11 14  2  0  0  0  0
 13 15  2  0  0  0  0
 14 15  1  0  0  0  0
M  END
>  <CHROM.1>
-57.60212672,-173.37063736,-39.93661693,10.03338306,3.97582476,80.97592767
-0.77345032,-0.14448822,0.43563481

>  <Name>
ligand

>  <RI>
0

>  <Rbt.Current_Directory>
/home/itssahil/PROJECTS/Mol_Feturizer/Test_systems_manuscript/rnas/5kpy

>  <Rbt.Executable>
rbdock ($Id: //depot/dev/client3/rdock/2013.1/src/exe/rbdock.cxx#4 $)

>  <Rbt.Library>
libRbt.so (2013.1, Build901 2013/11/27)

>  <Rbt.Parameter_File>
/export/apps/rDock/src/rDock_2013.1_src/data/scripts/dock_solv.prm

>  <Rbt.Receptor>
prm/blind_docking_100.prm

>  <SCORE>
-10.9656

>  <SCORE.INTER>
-10.7457

>  <SCORE.INTER.CONST>
1

>  <SCORE.INTER.POLAR>
0

>  <SCORE.INTER.ROT>
3

>  <SCORE.INTER.SOLV>
6.88077

>  <SCORE.INTER.VDW>
-15.0574

>  <SCORE.INTER.norm>
-0.671609

>  <SCORE.INTRA>
-0.219863

>  <SCORE.INTRA.DIHEDRAL>
0.0972675

>  <SCORE.INTRA.DIHEDRAL.0>
3.89056

>  <SCORE.INTRA.POLAR>
0

>  <SCORE.INTRA.POLAR.0>
0

>  <SCORE.INTRA.REPUL>
0

>  <SCORE.INTRA.REPUL.0>
0

>  <SCORE.INTRA.SOLV>
-1.19719

>  <SCORE.INTRA.SOLV.lig_0>
-20.733

>  <SCORE.INTRA.VDW>
0.330096

>  <SCORE.INTRA.VDW.0>
-0.828515

>  <SCORE.INTRA.norm>
-0.0137414

>  <SCORE.RESTR>
0

>  <SCORE.RESTR.CAVITY>
0

>  <SCORE.RESTR.norm>
0

>  <SCORE.SYSTEM>
0

>  <SCORE.SYSTEM.CONST>
0

>  <SCORE.SYSTEM.DIHEDRAL>
0

>  <SCORE.SYSTEM.SOLV>
0

>  <SCORE.SYSTEM.norm>
0

>  <SCORE.heavy>
16

>  <SCORE.norm>
-0.68535

>  <RMSD>
6.524

$$$$
ligand
 OpenBabel02271912153D
libRbt.so/2013.1/901 2013/11/27
 16 17  0  0  0  0  0  0  0  0999 V2000
   11.7265    0.7120   79.0914 N   0  0  0  0  0  0  0  0  0  0  0  0
   12.6595    1.7492   79.3755 C   0  0  2  0  0  0  0  0  0  0  0  0
   14.0752    1.2436   79.3851 C   0  0  0  0  0  0  0  0  0  0  0  0
   14.9485    1.8492   78.7174 O   0  0  0  0  0  0  0  0  0  0  0  0
    7.1502    0.5305   81.5627 O   0  0  0  0  0  0  0  0  0  0  0  0
   12.3562    2.3922   80.7076 C   0  0  0  0  0  0  0  0  0  0  0  0
   11.2007    3.3628   80.6495 C   0  0  0  0  0  0  0  0  0  0  0  0
   11.2970    4.6707   80.3884 C   0  0  0  0  0  0  0  0  0  0  0  0
    9.8535    2.9190   80.8519 C   0  0  0  0  0  0  0  0  0  0  0  0
    9.0729    4.0965   80.6921 C   0  0  0  0  0  0  0  0  0  0  0  0
    9.2387    1.7287   81.1273 C   0  0  0  0  0  0  0  0  0  0  0  0
   10.0205    5.1057   80.4159 N   0  0  0  0  0  0  0  0  0  0  0  0
    7.7360    4.1124   80.8073 C   0  0  0  0  0  0  0  0  0  0  0  0
    7.8170    1.7265   81.2664 C   0  0  0  0  0  0  0  0  0  0  0  0
    7.0480    2.9337   81.1106 C   0  0  0  0  0  0  0  0  0  0  0  0
   14.3683    0.2213   80.0401 O   0  0  0  0  0  0  0  0  0  0  0  0
  2  1  1  1  0  0  0
  2  3  1  0  0  0  0
  2  6  1  0  0  0  0
  3  4  1  0  0  0  0
  3 16  1  0  0  0  0
  5 14  1  0  0  0  0
  6  7  1  0  0  0  0
  7  8  2  0  0  0  0
  7  9  1  0  0  0  0
  8 12  1  0  0  0  0
  9 10  2  0  0  0  0
  9 11  1  0  0  0  0
 10 13  1  0  0  0  0
 10 12  1  0  0  0  0
 11 14  2  0  0  0  0
 13 15  2  0  0  0  0
 14 15  1  0  0  0  0
M  END
>  <CHROM.1>
129.86984518,-77.88639719,-90.08974817,10.77504576,2.37381722,80.35722083
0.21492183,-0.27653180,3.11885823

>  <Name>
ligand

>  <RI>
0

>  <Rbt.Current_Directory>
/home/itssahil/PROJECTS/Mol_Feturizer/Test_systems_manuscript/rnas/5kpy

>  <Rbt.Executable>
rbdock ($Id: //depot/dev/client3/rdock/2013.1/src/exe/rbdock.cxx#4 $)

>  <Rbt.Library>
libRbt.so (2013.1, Build901 2013/11/27)

>  <Rbt.Parameter_File>
/export/apps/rDock/src/rDock_2013.1_src/data/scripts/dock_solv.prm

>  <Rbt.Receptor>
prm/blind_docking_100.prm

>  <SCORE>
-9.15196

>  <SCORE.INTER>
-9.25325

>  <SCORE.INTER.CONST>
1

>  <SCORE.INTER.POLAR>
0

>  <SCORE.INTER.ROT>
3

>  <SCORE.INTER.SOLV>
8.82671

>  <SCORE.INTER.VDW>
-14.7111

>  <SCORE.INTER.norm>
-0.578328

>  <SCORE.INTRA>
0.101293

>  <SCORE.INTRA.DIHEDRAL>
1.0072

>  <SCORE.INTRA.DIHEDRAL.0>
3.89056

>  <SCORE.INTRA.POLAR>
0

>  <SCORE.INTRA.POLAR.0>
0

>  <SCORE.INTRA.REPUL>
0

>  <SCORE.INTRA.REPUL.0>
0

>  <SCORE.INTRA.SOLV>
-0.0491839

>  <SCORE.INTRA.SOLV.lig_0>
-20.733

>  <SCORE.INTRA.VDW>
-0.377715

>  <SCORE.INTRA.VDW.0>
-0.828515

>  <SCORE.INTRA.norm>
0.00633083

>  <SCORE.RESTR>
0

>  <SCORE.RESTR.CAVITY>
0

>  <SCORE.RESTR.norm>
0

>  <SCORE.SYSTEM>
0

>  <SCORE.SYSTEM.CONST>
0

>  <SCORE.SYSTEM.DIHEDRAL>
0

>  <SCORE.SYSTEM.SOLV>
0

>  <SCORE.SYSTEM.norm>
0

>  <SCORE.heavy>
16

>  <SCORE.norm>
-0.571997

>  <RMSD>
7.069

$$$$
ligand
 OpenBabel02271912153D
libRbt.so/2013.1/901 2013/11/27
 16 17  0  0  0  0  0  0  0  0999 V2000
   13.2372   -1.0532   80.8485 N   0  0  0  0  0  0  0  0  0  0  0  0
   12.9873    0.3313   80.6301 C   0  0  2  0  0  0  0  0  0  0  0  0
   13.4829    0.7858   79.2857 C   0  0  0  0  0  0  0  0  0  0  0  0
   12.7571    1.5302   78.5826 O   0  0  0  0  0  0  0  0  0  0  0  0
    8.5666    2.6008   79.8254 O   0  0  0  0  0  0  0  0  0  0  0  0
   13.6378    1.1688   81.7048 C   0  0  0  0  0  0  0  0  0  0  0  0
   13.2564    2.6283   81.6331 C   0  0  0  0  0  0  0  0  0  0  0  0
   14.0439    3.6547   81.9712 C   0  0  0  0  0  0  0  0  0  0  0  0
   11.9708    3.0318   81.1460 C   0  0  0  0  0  0  0  0  0  0  0  0
   12.0078    4.4518   81.2049 C   0  0  0  0  0  0  0  0  0  0  0  0
   10.8497    2.4002   80.6824 C   0  0  0  0  0  0  0  0  0  0  0  0
   13.2916    4.7443   81.7140 N   0  0  0  0  0  0  0  0  0  0  0  0
   10.9795    5.2293   80.8321 C   0  0  0  0  0  0  0  0  0  0  0  0
    9.7390    3.2094   80.2923 C   0  0  0  0  0  0  0  0  0  0  0  0
    9.7957    4.6459   80.3705 C   0  0  0  0  0  0  0  0  0  0  0  0
   14.5998    0.4093   78.8723 O   0  0  0  0  0  0  0  0  0  0  0  0
  2  1  1  1  0  0  0
  2  3  1  0  0  0  0
  2  6  1  0  0  0  0
  3  4  1  0  0  0  0
  3 16  1  0  0  0  0
  5 14  1  0  0  0  0
  6  7  1  0  0  0  0
  7  8  2  0  0  0  0
  7  9  1  0  0  0  0
  8 12  1  0  0  0  0
  9 10  2  0  0  0  0
  9 11  1  0  0  0  0
 10 13  1  0  0  0  0
 10 12  1  0  0  0  0
 11 14  2  0  0  0  0
 13 15  2  0  0  0  0
 14 15  1  0  0  0  0
M  END
>  <CHROM.1>
135.95246263,-172.32139274,-147.48065005,12.22500493,2.39550086,80.53794633
0.80577084,0.30440195,-2.69722702

>  <Name>
ligand

>  <RI>
0

>  <Rbt.Current_Directory>
/home/itssahil/PROJECTS/Mol_Feturizer/Test_systems_manuscript/rnas/5kpy

>  <Rbt.Executable>
rbdock ($Id: //depot/dev/client3/rdock/2013.1/src/exe/rbdock.cxx#4 $)

>  <Rbt.Library>
libRbt.so (2013.1, Build901 2013/11/27)

>  <Rbt.Parameter_File>
/export/apps/rDock/src/rDock_2013.1_src/data/scripts/dock_solv.prm

>  <Rbt.Receptor>
prm/blind_docking_100.prm

>  <SCORE>
-13.9736

>  <SCORE.INTER>
-13.1433

>  <SCORE.INTER.CONST>
1

>  <SCORE.INTER.POLAR>
0

>  <SCORE.INTER.ROT>
3

>  <SCORE.INTER.SOLV>
6.96336

>  <SCORE.INTER.VDW>
-16.6833

>  <SCORE.INTER.norm>
-0.821457

>  <SCORE.INTRA>
-0.830308

>  <SCORE.INTRA.DIHEDRAL>
0.194344

>  <SCORE.INTRA.DIHEDRAL.0>
3.89056

>  <SCORE.INTRA.POLAR>
0

>  <SCORE.INTRA.POLAR.0>
0

>  <SCORE.INTRA.REPUL>
0

>  <SCORE.INTRA.REPUL.0>
0

>  <SCORE.INTRA.SOLV>
-1.1568

>  <SCORE.INTRA.SOLV.lig_0>
-20.733

>  <SCORE.INTRA.VDW>
-0.34908

>  <SCORE.INTRA.VDW.0>
-0.828515

>  <SCORE.INTRA.norm>
-0.0518943

>  <SCORE.RESTR>
0

>  <SCORE.RESTR.CAVITY>
0

>  <SCORE.RESTR.norm>
0

>  <SCORE.SYSTEM>
0

>  <SCORE.SYSTEM.CONST>
0

>  <SCORE.SYSTEM.DIHEDRAL>
0

>  <SCORE.SYSTEM.SOLV>
0

>  <SCORE.SYSTEM.norm>
0

>  <SCORE.heavy>
16

>  <SCORE.norm>
-0.873351

>  <RMSD>
7.840

$$$$
ligand
 OpenBabel02271912153D
libRbt.so/2013.1/901 2013/11/27
 16 17  0  0  0  0  0  0  0  0999 V2000
   17.1311    0.3563   84.7681 N   0  0  0  0  0  0  0  0  0  0  0  0
   15.9351    0.8797   84.2001 C   0  0  2  0  0  0  0  0  0  0  0  0
   14.8893   -0.1842   84.0149 C   0  0  0  0  0  0  0  0  0  0  0  0
   15.1810   -1.2294   83.3843 O   0  0  0  0  0  0  0  0  0  0  0  0
   11.5786   -0.8457   80.8341 O   0  0  0  0  0  0  0  0  0  0  0  0
   16.2161    1.5326   82.8680 C   0  0  0  0  0  0  0  0  0  0  0  0
   15.0835    2.4065   82.3839 C   0  0  0  0  0  0  0  0  0  0  0  0
   15.0822    3.7436   82.3766 C   0  0  0  0  0  0  0  0  0  0  0  0
   13.8862    1.8317   81.8462 C   0  0  0  0  0  0  0  0  0  0  0  0
   13.0947    2.9557   81.4834 C   0  0  0  0  0  0  0  0  0  0  0  0
   13.4107    0.5677   81.6295 C   0  0  0  0  0  0  0  0  0  0  0  0
   13.8891    4.0677   81.8374 N   0  0  0  0  0  0  0  0  0  0  0  0
   11.8744    2.8483   80.9356 C   0  0  0  0  0  0  0  0  0  0  0  0
   12.1082    0.4317   81.0588 C   0  0  0  0  0  0  0  0  0  0  0  0
   11.3204    1.5849   80.7090 C   0  0  0  0  0  0  0  0  0  0  0  0
   13.7395   -0.0154   84.4726 O   0  0  0  0  0  0  0  0  0  0  0  0
  2  1  1  6  0  0  0
  2  3  1  0  0  0  0
  2  6  1  0  0  0  0
  3  4  1  0  0  0  0
  3 16  1  0  0  0  0
  5 14  1  0  0  0  0
  6  7  1  0  0  0  0
  7  8  2  0  0  0  0
  7  9  1  0  0  0  0
  8 12  1  0  0  0  0
  9 10  2  0  0  0  0
  9 11  1  0  0  0  0
 10 13  1  0  0  0  0
 10 12  1  0  0  0  0
 11 14  2  0  0  0  0
 13 15  2  0  0  0  0
 14 15  1  0  0  0  0
M  END
>  <CHROM.1>
-53.26703846,-165.20448570,106.17351871,14.05448287,1.21178843,82.48118548
-0.44325319,-0.59305701,-0.29681076

>  <Name>
ligand

>  <RI>
0

>  <Rbt.Current_Directory>
/home/itssahil/PROJECTS/Mol_Feturizer/Test_systems_manuscript/rnas/5kpy

>  <Rbt.Executable>
rbdock ($Id: //depot/dev/client3/rdock/2013.1/src/exe/rbdock.cxx#4 $)

>  <Rbt.Library>
libRbt.so (2013.1, Build901 2013/11/27)

>  <Rbt.Parameter_File>
/export/apps/rDock/src/rDock_2013.1_src/data/scripts/dock_solv.prm

>  <Rbt.Receptor>
prm/blind_docking_100.prm

>  <SCORE>
-8.97598

>  <SCORE.INTER>
-8.00056

>  <SCORE.INTER.CONST>
1

>  <SCORE.INTER.POLAR>
0

>  <SCORE.INTER.ROT>
3

>  <SCORE.INTER.SOLV>
4.74748

>  <SCORE.INTER.VDW>
-12.5162

>  <SCORE.INTER.norm>
-0.500035

>  <SCORE.INTRA>
-0.975423

>  <SCORE.INTRA.DIHEDRAL>
0.71954

>  <SCORE.INTRA.DIHEDRAL.0>
3.89056

>  <SCORE.INTRA.POLAR>
0

>  <SCORE.INTRA.POLAR.0>
0

>  <SCORE.INTRA.REPUL>
0

>  <SCORE.INTRA.REPUL.0>
0

>  <SCORE.INTRA.SOLV>
-1.17181

>  <SCORE.INTRA.SOLV.lig_0>
-20.733

>  <SCORE.INTRA.VDW>
-0.749289

>  <SCORE.INTRA.VDW.0>
-0.828515

>  <SCORE.INTRA.norm>
-0.0609639

>  <SCORE.RESTR>
0

>  <SCORE.RESTR.CAVITY>
0

>  <SCORE.RESTR.norm>
0

>  <SCORE.SYSTEM>
0

>  <SCORE.SYSTEM.CONST>
0

>  <SCORE.SYSTEM.DIHEDRAL>
0

>  <SCORE.SYSTEM.SOLV>
0

>  <SCORE.SYSTEM.norm>
0

>  <SCORE.heavy>
16

>  <SCORE.norm>
-0.560999

>  <RMSD>
8.366

$$$$
ligand
 OpenBabel02271912153D
libRbt.so/2013.1/901 2013/11/27
 16 17  0  0  0  0  0  0  0  0999 V2000
   14.0389    1.1454   78.3664 N   0  0  0  0  0  0  0  0  0  0  0  0
   13.4239   -0.0442   78.8498 C   0  0  2  0  0  0  0  0  0  0  0  0
   12.8182   -0.8546   77.7381 C   0  0  0  0  0  0  0  0  0  0  0  0
   11.7541   -0.4619   77.2007 O   0  0  0  0  0  0  0  0  0  0  0  0
    8.8331    4.6160   80.1993 O   0  0  0  0  0  0  0  0  0  0  0  0
   12.3532    0.2806   79.8637 C   0  0  0  0  0  0  0  0  0  0  0  0
   12.7047    1.4571   80.7429 C   0  0  0  0  0  0  0  0  0  0  0  0
   13.8229    1.5804   81.4655 C   0  0  0  0  0  0  0  0  0  0  0  0
   11.8324    2.5894   80.8436 C   0  0  0  0  0  0  0  0  0  0  0  0
   12.5140    3.4750   81.7225 C   0  0  0  0  0  0  0  0  0  0  0  0
   10.6220    2.9509   80.3193 C   0  0  0  0  0  0  0  0  0  0  0  0
   13.7038    2.7897   82.0510 N   0  0  0  0  0  0  0  0  0  0  0  0
   12.0245    4.6707   82.0851 C   0  0  0  0  0  0  0  0  0  0  0  0
   10.0774    4.2146   80.7028 C   0  0  0  0  0  0  0  0  0  0  0  0
   10.7812    5.0906   81.6029 C   0  0  0  0  0  0  0  0  0  0  0  0
   13.3651   -1.9153   77.3694 O   0  0  0  0  0  0  0  0  0  0  0  0
  2  1  1  6  0  0  0
  2  3  1  0  0  0  0
  2  6  1  0  0  0  0
  3  4  1  0  0  0  0
  3 16  1  0  0  0  0
  5 14  1  0  0  0  0
  6  7  1  0  0  0  0
  7  8  2  0  0  0  0
  7  9  1  0  0  0  0
  8 12  1  0  0  0  0
  9 10  2  0  0  0  0
  9 11  1  0  0  0  0
 10 13  1  0  0  0  0
 10 12  1  0  0  0  0
 11 14  2  0  0  0  0
 13 15  2  0  0  0  0
 14 15  1  0  0  0  0
M  END
>  <CHROM.1>
-73.96384404,-36.24623362,-54.07441916,12.15871084,1.87851586,79.96222962
-1.18435405,-0.48494991,0.77810278

>  <Name>
ligand

>  <RI>
0

>  <Rbt.Current_Directory>
/home/itssahil/PROJECTS/Mol_Feturizer/Test_systems_manuscript/rnas/5kpy

>  <Rbt.Executable>
rbdock ($Id: //depot/dev/client3/rdock/2013.1/src/exe/rbdock.cxx#4 $)

>  <Rbt.Library>
libRbt.so (2013.1, Build901 2013/11/27)

>  <Rbt.Parameter_File>
/export/apps/rDock/src/rDock_2013.1_src/data/scripts/dock_solv.prm

>  <Rbt.Receptor>
prm/blind_docking_100.prm

>  <SCORE>
-12.294

>  <SCORE.INTER>
-13.6587

>  <SCORE.INTER.CONST>
1

>  <SCORE.INTER.POLAR>
0

>  <SCORE.INTER.ROT>
3

>  <SCORE.INTER.SOLV>
8.35511

>  <SCORE.INTER.VDW>
-17.4908

>  <SCORE.INTER.norm>
-0.853667

>  <SCORE.INTRA>
1.36464

>  <SCORE.INTRA.DIHEDRAL>
1.84966

>  <SCORE.INTRA.DIHEDRAL.0>
3.89056

>  <SCORE.INTRA.POLAR>
0

>  <SCORE.INTRA.POLAR.0>
0

>  <SCORE.INTRA.REPUL>
0

>  <SCORE.INTRA.REPUL.0>
0

>  <SCORE.INTRA.SOLV>
0.135114

>  <SCORE.INTRA.SOLV.lig_0>
-20.733

>  <SCORE.INTRA.VDW>
0.372252

>  <SCORE.INTRA.VDW.0>
-0.828515

>  <SCORE.INTRA.norm>
0.08529

>  <SCORE.RESTR>
0

>  <SCORE.RESTR.CAVITY>
0

>  <SCORE.RESTR.norm>
0

>  <SCORE.SYSTEM>
0

>  <SCORE.SYSTEM.CONST>
0

>  <SCORE.SYSTEM.DIHEDRAL>
0

>  <SCORE.SYSTEM.SOLV>
0

>  <SCORE.SYSTEM.norm>
0

>  <SCORE.heavy>
16

>  <SCORE.norm>
-0.768377

>  <RMSD>
8.482

$$$$
ligand
 OpenBabel02271912153D
libRbt.so/2013.1/901 2013/11/27
 16 17  0  0  0  0  0  0  0  0999 V2000
   16.9674   -1.6085   82.1975 N   0  0  0  0  0  0  0  0  0  0  0  0
   16.0267   -0.5818   82.4942 C   0  0  2  0  0  0  0  0  0  0  0  0
   14.7349   -1.1399   83.0229 C   0  0  0  0  0  0  0  0  0  0  0  0
   14.2914   -2.2152   82.5514 O   0  0  0  0  0  0  0  0  0  0  0  0
   10.2488    0.4777   80.2178 O   0  0  0  0  0  0  0  0  0  0  0  0
   15.7392    0.2514   81.2683 C   0  0  0  0  0  0  0  0  0  0  0  0
   14.9750    1.5172   81.5760 C   0  0  0  0  0  0  0  0  0  0  0  0
   15.5004    2.6392   82.0789 C   0  0  0  0  0  0  0  0  0  0  0  0
   13.5707    1.6145   81.3090 C   0  0  0  0  0  0  0  0  0  0  0  0
   13.2348    2.9399   81.6983 C   0  0  0  0  0  0  0  0  0  0  0  0
   12.6034    0.7885   80.8061 C   0  0  0  0  0  0  0  0  0  0  0  0
   14.4545    3.4878   82.1512 N   0  0  0  0  0  0  0  0  0  0  0  0
   11.9923    3.4391   81.6084 C   0  0  0  0  0  0  0  0  0  0  0  0
   11.2715    1.2966   80.7140 C   0  0  0  0  0  0  0  0  0  0  0  0
   10.9528    2.6393   81.1243 C   0  0  0  0  0  0  0  0  0  0  0  0
   14.1068   -0.5258   83.9108 O   0  0  0  0  0  0  0  0  0  0  0  0
  2  1  1  6  0  0  0
  2  3  1  0  0  0  0
  2  6  1  0  0  0  0
  3  4  1  0  0  0  0
  3 16  1  0  0  0  0
  5 14  1  0  0  0  0
  6  7  1  0  0  0  0
  7  8  2  0  0  0  0
  7  9  1  0  0  0  0
  8 12  1  0  0  0  0
  9 10  2  0  0  0  0
  9 11  1  0  0  0  0
 10 13  1  0  0  0  0
 10 12  1  0  0  0  0
 11 14  2  0  0  0  0
 13 15  2  0  0  0  0
 14 15  1  0  0  0  0
M  END
>  <CHROM.1>
-37.07251334,-168.27217698,78.76657675,13.80589557,0.82899262,81.82546405
-0.67921651,-0.28898737,-0.10272424

>  <Name>
ligand

>  <RI>
0

>  <Rbt.Current_Directory>
/home/itssahil/PROJECTS/Mol_Feturizer/Test_systems_manuscript/rnas/5kpy

>  <Rbt.Executable>
rbdock ($Id: //depot/dev/client3/rdock/2013.1/src/exe/rbdock.cxx#4 $)

>  <Rbt.Library>
libRbt.so (2013.1, Build901 2013/11/27)

>  <Rbt.Parameter_File>
/export/apps/rDock/src/rDock_2013.1_src/data/scripts/dock_solv.prm

>  <Rbt.Receptor>
prm/blind_docking_100.prm

>  <SCORE>
17.4991

>  <SCORE.INTER>
18.4159

>  <SCORE.INTER.CONST>
1

>  <SCORE.INTER.POLAR>
0

>  <SCORE.INTER.ROT>
3

>  <SCORE.INTER.SOLV>
6.30215

>  <SCORE.INTER.VDW>
4.57658

>  <SCORE.INTER.norm>
1.151

>  <SCORE.INTRA>
-1.2022

>  <SCORE.INTRA.DIHEDRAL>
0.416986

>  <SCORE.INTRA.DIHEDRAL.0>
3.89056

>  <SCORE.INTRA.POLAR>
0

>  <SCORE.INTRA.POLAR.0>
0

>  <SCORE.INTRA.REPUL>
0

>  <SCORE.INTRA.REPUL.0>
0

>  <SCORE.INTRA.SOLV>
-1.17723

>  <SCORE.INTRA.SOLV.lig_0>
-20.733

>  <SCORE.INTRA.VDW>
-0.822076

>  <SCORE.INTRA.VDW.0>
-0.828515

>  <SCORE.INTRA.norm>
-0.0751375

>  <SCORE.RESTR>
0.285366

>  <SCORE.RESTR.CAVITY>
0.285366

>  <SCORE.RESTR.norm>
0.0178354

>  <SCORE.SYSTEM>
0

>  <SCORE.SYSTEM.CONST>
0

>  <SCORE.SYSTEM.DIHEDRAL>
0

>  <SCORE.SYSTEM.SOLV>
0

>  <SCORE.SYSTEM.norm>
0

>  <SCORE.heavy>
16

>  <SCORE.norm>
1.09369

>  <RMSD>
8.690

$$$$
ligand
 OpenBabel02271912153D
libRbt.so/2013.1/901 2013/11/27
 16 17  0  0  0  0  0  0  0  0999 V2000
   14.7618   -0.5980   84.1783 N   0  0  0  0  0  0  0  0  0  0  0  0
   14.1723   -1.7719   83.6293 C   0  0  2  0  0  0  0  0  0  0  0  0
   14.9621   -3.0062   83.9648 C   0  0  0  0  0  0  0  0  0  0  0  0
   16.2102   -2.9916   83.8339 O   0  0  0  0  0  0  0  0  0  0  0  0
   15.5110    3.7280   82.5247 O   0  0  0  0  0  0  0  0  0  0  0  0
   14.0492   -1.6577   82.1287 C   0  0  0  0  0  0  0  0  0  0  0  0
   13.0754   -0.5891   81.6921 C   0  0  0  0  0  0  0  0  0  0  0  0
   11.8447   -0.8067   81.2166 C   0  0  0  0  0  0  0  0  0  0  0  0
   13.4118    0.8002   81.7904 C   0  0  0  0  0  0  0  0  0  0  0  0
   12.2503    1.4722   81.3206 C   0  0  0  0  0  0  0  0  0  0  0  0
   14.4951    1.5252   82.2045 C   0  0  0  0  0  0  0  0  0  0  0  0
   11.3551    0.4304   80.9948 N   0  0  0  0  0  0  0  0  0  0  0  0
   12.1539    2.8088   81.2485 C   0  0  0  0  0  0  0  0  0  0  0  0
   14.4175    2.9493   82.1239 C   0  0  0  0  0  0  0  0  0  0  0  0
   13.2343    3.6077   81.6347 C   0  0  0  0  0  0  0  0  0  0  0  0
   14.3737   -4.0371   84.3536 O   0  0  0  0  0  0  0  0  0  0  0  0
  2  1  1  6  0  0  0
  2  3  1  0  0  0  0
  2  6  1  0  0  0  0
  3  4  1  0  0  0  0
  3 16  1  0  0  0  0
  5 14  1  0  0  0  0
  6  7  1  0  0  0  0
  7  8  2  0  0  0  0
  7  9  1  0  0  0  0
  8 12  1  0  0  0  0
  9 10  2  0  0  0  0
  9 11  1  0  0  0  0
 10 13  1  0  0  0  0
 10 12  1  0  0  0  0
 11 14  2  0  0  0  0
 13 15  2  0  0  0  0
 14 15  1  0  0  0  0
M  END
>  <CHROM.1>
-45.79132657,-66.37617898,-104.51362112,13.84915629,0.01777244,82.49814355
-1.28708050,-0.53705805,-0.22079668

>  <Name>
ligand

>  <RI>
0

>  <Rbt.Current_Directory>
/home/itssahil/PROJECTS/Mol_Feturizer/Test_systems_manuscript/rnas/5kpy

>  <Rbt.Executable>
rbdock ($Id: //depot/dev/client3/rdock/2013.1/src/exe/rbdock.cxx#4 $)

>  <Rbt.Library>
libRbt.so (2013.1, Build901 2013/11/27)

>  <Rbt.Parameter_File>
/export/apps/rDock/src/rDock_2013.1_src/data/scripts/dock_solv.prm

>  <Rbt.Receptor>
prm/blind_docking_100.prm

>  <SCORE>
-11.0373

>  <SCORE.INTER>
-10.9365

>  <SCORE.INTER.CONST>
1

>  <SCORE.INTER.POLAR>
0

>  <SCORE.INTER.ROT>
3

>  <SCORE.INTER.SOLV>
5.49346

>  <SCORE.INTER.VDW>
-14.7221

>  <SCORE.INTER.norm>
-0.68353

>  <SCORE.INTRA>
-0.100808

>  <SCORE.INTRA.DIHEDRAL>
-0.0432375

>  <SCORE.INTRA.DIHEDRAL.0>
3.89056

>  <SCORE.INTRA.POLAR>
0

>  <SCORE.INTRA.POLAR.0>
0

>  <SCORE.INTRA.REPUL>
0

>  <SCORE.INTRA.REPUL.0>
0

>  <SCORE.INTRA.SOLV>
0.44819

>  <SCORE.INTRA.SOLV.lig_0>
-20.733

>  <SCORE.INTRA.VDW>
-0.303284

>  <SCORE.INTRA.VDW.0>
-0.828515

>  <SCORE.INTRA.norm>
-0.00630047

>  <SCORE.RESTR>
0

>  <SCORE.RESTR.CAVITY>
0

>  <SCORE.RESTR.norm>
0

>  <SCORE.SYSTEM>
0

>  <SCORE.SYSTEM.CONST>
0

>  <SCORE.SYSTEM.DIHEDRAL>
0

>  <SCORE.SYSTEM.SOLV>
0

>  <SCORE.SYSTEM.norm>
0

>  <SCORE.heavy>
16

>  <SCORE.norm>
-0.68983

>  <RMSD>
9.038

$$$$
ligand
 OpenBabel02271912153D
libRbt.so/2013.1/901 2013/11/27
 16 17  0  0  0  0  0  0  0  0999 V2000
   15.8479   -1.2562   84.2408 N   0  0  0  0  0  0  0  0  0  0  0  0
   15.5564   -2.1084   83.1382 C   0  0  2  0  0  0  0  0  0  0  0  0
   16.3660   -1.7508   81.9231 C   0  0  0  0  0  0  0  0  0  0  0  0
   16.5132   -0.5427   81.6164 O   0  0  0  0  0  0  0  0  0  0  0  0
   12.8040   -0.9642   77.4523 O   0  0  0  0  0  0  0  0  0  0  0  0
   14.0888   -2.0483   82.7884 C   0  0  0  0  0  0  0  0  0  0  0  0
   13.6263   -0.6636   82.4017 C   0  0  0  0  0  0  0  0  0  0  0  0
   13.5028    0.3752   83.2345 C   0  0  0  0  0  0  0  0  0  0  0  0
   13.3002   -0.3474   81.0428 C   0  0  0  0  0  0  0  0  0  0  0  0
   12.9462    1.0290   81.0825 C   0  0  0  0  0  0  0  0  0  0  0  0
   13.2723   -1.0219   79.8533 C   0  0  0  0  0  0  0  0  0  0  0  0
   13.0946    1.3860   82.4402 N   0  0  0  0  0  0  0  0  0  0  0  0
   12.5679    1.7214   79.9971 C   0  0  0  0  0  0  0  0  0  0  0  0
   12.8601   -0.3060   78.6879 C   0  0  0  0  0  0  0  0  0  0  0  0
   12.4959    1.0853   78.7541 C   0  0  0  0  0  0  0  0  0  0  0  0
   16.8704   -2.6528   81.2216 O   0  0  0  0  0  0  0  0  0  0  0  0
  2  1  1  1  0  0  0
  2  3  1  0  0  0  0
  2  6  1  0  0  0  0
  3  4  1  0  0  0  0
  3 16  1  0  0  0  0
  5 14  1  0  0  0  0
  6  7  1  0  0  0  0
  7  8  2  0  0  0  0
  7  9  1  0  0  0  0
  8 12  1  0  0  0  0
  9 10  2  0  0  0  0
  9 11  1  0  0  0  0
 10 13  1  0  0  0  0
 10 12  1  0  0  0  0
 11 14  2  0  0  0  0
 13 15  2  0  0  0  0
 14 15  1  0  0  0  0
M  END
>  <CHROM.1>
-42.77764290,60.19235819,-70.29379720,14.19372137,-0.56574127,81.24075832
0.61366595,-0.74411246,1.28962685

>  <Name>
ligand

>  <RI>
0

>  <Rbt.Current_Directory>
/home/itssahil/PROJECTS/Mol_Feturizer/Test_systems_manuscript/rnas/5kpy

>  <Rbt.Executable>
rbdock ($Id: //depot/dev/client3/rdock/2013.1/src/exe/rbdock.cxx#4 $)

>  <Rbt.Library>
libRbt.so (2013.1, Build901 2013/11/27)

>  <Rbt.Parameter_File>
/export/apps/rDock/src/rDock_2013.1_src/data/scripts/dock_solv.prm

>  <Rbt.Receptor>
prm/blind_docking_100.prm

>  <SCORE>
-10.2641

>  <SCORE.INTER>
-9.24685

>  <SCORE.INTER.CONST>
1

>  <SCORE.INTER.POLAR>
0

>  <SCORE.INTER.ROT>
3

>  <SCORE.INTER.SOLV>
4.55007

>  <SCORE.INTER.VDW>
-13.2813

>  <SCORE.INTER.norm>
-0.577928

>  <SCORE.INTRA>
-1.0173

>  <SCORE.INTRA.DIHEDRAL>
-0.205146

>  <SCORE.INTRA.DIHEDRAL.0>
3.89056

>  <SCORE.INTRA.POLAR>
0

>  <SCORE.INTRA.POLAR.0>
0

>  <SCORE.INTRA.REPUL>
0

>  <SCORE.INTRA.REPUL.0>
0

>  <SCORE.INTRA.SOLV>
-0.118642

>  <SCORE.INTRA.SOLV.lig_0>
-20.733

>  <SCORE.INTRA.VDW>
-0.855403

>  <SCORE.INTRA.VDW.0>
-0.828515

>  <SCORE.INTRA.norm>
-0.0635811

>  <SCORE.RESTR>
0

>  <SCORE.RESTR.CAVITY>
0

>  <SCORE.RESTR.norm>
0

>  <SCORE.SYSTEM>
0

>  <SCORE.SYSTEM.CONST>
0

>  <SCORE.SYSTEM.DIHEDRAL>
0

>  <SCORE.SYSTEM.SOLV>
0

>  <SCORE.SYSTEM.norm>
0

>  <SCORE.heavy>
16

>  <SCORE.norm>
-0.641509

>  <RMSD>
9.345

$$$$
ligand
 OpenBabel02271912153D
libRbt.so/2013.1/901 2013/11/27
 16 17  0  0  0  0  0  0  0  0999 V2000
   16.2759   -1.8064   83.2974 N   0  0  0  0  0  0  0  0  0  0  0  0
   15.4079   -2.5333   82.4343 C   0  0  2  0  0  0  0  0  0  0  0  0
   15.6690   -2.2251   80.9863 C   0  0  0  0  0  0  0  0  0  0  0  0
   15.3668   -3.0745   80.1130 O   0  0  0  0  0  0  0  0  0  0  0  0
   12.2630   -0.4364   77.7312 O   0  0  0  0  0  0  0  0  0  0  0  0
   13.9626   -2.2313   82.7501 C   0  0  0  0  0  0  0  0  0  0  0  0
   13.6051   -0.7760   82.5630 C   0  0  0  0  0  0  0  0  0  0  0  0
   13.6711    0.1680   83.5077 C   0  0  0  0  0  0  0  0  0  0  0  0
   13.1774   -0.2793   81.2889 C   0  0  0  0  0  0  0  0  0  0  0  0
   12.9693    1.1096   81.5104 C   0  0  0  0  0  0  0  0  0  0  0  0
   12.9623   -0.8087   80.0463 C   0  0  0  0  0  0  0  0  0  0  0  0
   13.2886    1.2950   82.8730 N   0  0  0  0  0  0  0  0  0  0  0  0
   12.5552    1.9521   80.5515 C   0  0  0  0  0  0  0  0  0  0  0  0
   12.5089    0.0691   79.0145 C   0  0  0  0  0  0  0  0  0  0  0  0
   12.2950    1.4707   79.2649 C   0  0  0  0  0  0  0  0  0  0  0  0
   16.1966   -1.1397   80.6645 O   0  0  0  0  0  0  0  0  0  0  0  0
  2  1  1  1  0  0  0
  2  3  1  0  0  0  0
  2  6  1  0  0  0  0
  3  4  1  0  0  0  0
  3 16  1  0  0  0  0
  5 14  1  0  0  0  0
  6  7  1  0  0  0  0
  7  8  2  0  0  0  0
  7  9  1  0  0  0  0
  8 12  1  0  0  0  0
  9 10  2  0  0  0  0
  9 11  1  0  0  0  0
 10 13  1  0  0  0  0
 10 12  1  0  0  0  0
 11 14  2  0  0  0  0
 13 15  2  0  0  0  0
 14 15  1  0  0  0  0
M  END
>  <CHROM.1>
154.70855701,61.35278930,-91.00517321,13.95182281,-0.65200567,81.12586631
0.31159992,-0.86059995,1.21474649

>  <Name>
ligand

>  <RI>
0

>  <Rbt.Current_Directory>
/home/itssahil/PROJECTS/Mol_Feturizer/Test_systems_manuscript/rnas/5kpy

>  <Rbt.Executable>
rbdock ($Id: //depot/dev/client3/rdock/2013.1/src/exe/rbdock.cxx#4 $)

>  <Rbt.Library>
libRbt.so (2013.1, Build901 2013/11/27)

>  <Rbt.Parameter_File>
/export/apps/rDock/src/rDock_2013.1_src/data/scripts/dock_solv.prm

>  <Rbt.Receptor>
prm/blind_docking_100.prm

>  <SCORE>
-10.7155

>  <SCORE.INTER>
-9.41438

>  <SCORE.INTER.CONST>
1

>  <SCORE.INTER.POLAR>
0

>  <SCORE.INTER.ROT>
3

>  <SCORE.INTER.SOLV>
4.94282

>  <SCORE.INTER.VDW>
-13.5239

>  <SCORE.INTER.norm>
-0.588399

>  <SCORE.INTRA>
-1.30115

>  <SCORE.INTRA.DIHEDRAL>
-0.18194

>  <SCORE.INTRA.DIHEDRAL.0>
3.89056

>  <SCORE.INTRA.POLAR>
0

>  <SCORE.INTRA.POLAR.0>
0

>  <SCORE.INTRA.REPUL>
0

>  <SCORE.INTRA.REPUL.0>
0

>  <SCORE.INTRA.SOLV>
-0.247762

>  <SCORE.INTRA.SOLV.lig_0>
-20.733

>  <SCORE.INTRA.VDW>
-1.0863

>  <SCORE.INTRA.VDW.0>
-0.828515

>  <SCORE.INTRA.norm>
-0.0813219

>  <SCORE.RESTR>
0

>  <SCORE.RESTR.CAVITY>
0

>  <SCORE.RESTR.norm>
0

>  <SCORE.SYSTEM>
0

>  <SCORE.SYSTEM.CONST>
0

>  <SCORE.SYSTEM.DIHEDRAL>
0

>  <SCORE.SYSTEM.SOLV>
0

>  <SCORE.SYSTEM.norm>
0

>  <SCORE.heavy>
16

>  <SCORE.norm>
-0.669721

>  <RMSD>
9.357

$$$$
ligand
 OpenBabel02271912153D
libRbt.so/2013.1/901 2013/11/27
 16 17  0  0  0  0  0  0  0  0999 V2000
   16.1958   -1.6527   82.8429 N   0  0  0  0  0  0  0  0  0  0  0  0
   15.0905   -2.1576   83.5847 C   0  0  2  0  0  0  0  0  0  0  0  0
   15.3014   -3.5856   84.0044 C   0  0  0  0  0  0  0  0  0  0  0  0
   14.8793   -3.9660   85.1235 O   0  0  0  0  0  0  0  0  0  0  0  0
   12.8359   -0.8975   77.3960 O   0  0  0  0  0  0  0  0  0  0  0  0
   13.8170   -2.0631   82.7791 C   0  0  0  0  0  0  0  0  0  0  0  0
   13.4728   -0.6491   82.3754 C   0  0  0  0  0  0  0  0  0  0  0  0
   13.3910    0.3974   83.2038 C   0  0  0  0  0  0  0  0  0  0  0  0
   13.2270   -0.3123   81.0046 C   0  0  0  0  0  0  0  0  0  0  0  0
   12.9727    1.0862   81.0315 C   0  0  0  0  0  0  0  0  0  0  0  0
   13.1992   -0.9850   79.8141 C   0  0  0  0  0  0  0  0  0  0  0  0
   13.0904    1.4338   82.3947 N   0  0  0  0  0  0  0  0  0  0  0  0
   12.6909    1.8026   79.9323 C   0  0  0  0  0  0  0  0  0  0  0  0
   12.8886   -0.2430   78.6336 C   0  0  0  0  0  0  0  0  0  0  0  0
   12.6242    1.1713   78.6866 C   0  0  0  0  0  0  0  0  0  0  0  0
   15.9059   -4.3754   83.2487 O   0  0  0  0  0  0  0  0  0  0  0  0
  2  1  1  6  0  0  0
  2  3  1  0  0  0  0
  2  6  1  0  0  0  0
  3  4  1  0  0  0  0
  3 16  1  0  0  0  0
  5 14  1  0  0  0  0
  6  7  1  0  0  0  0
  7  8  2  0  0  0  0
  7  9  1  0  0  0  0
  8 12  1  0  0  0  0
  9 10  2  0  0  0  0
  9 11  1  0  0  0  0
 10 13  1  0  0  0  0
 10 12  1  0  0  0  0
 11 14  2  0  0  0  0
 13 15  2  0  0  0  0
 14 15  1  0  0  0  0
M  END
>  <CHROM.1>
143.51722411,-59.68589905,-52.19867603,13.90872120,-1.05958998,81.68422002
-0.40651886,1.14574800,-2.01626698

>  <Name>
ligand

>  <RI>
0

>  <Rbt.Current_Directory>
/home/itssahil/PROJECTS/Mol_Feturizer/Test_systems_manuscript/rnas/5kpy

>  <Rbt.Executable>
rbdock ($Id: //depot/dev/client3/rdock/2013.1/src/exe/rbdock.cxx#4 $)

>  <Rbt.Library>
libRbt.so (2013.1, Build901 2013/11/27)

>  <Rbt.Parameter_File>
/export/apps/rDock/src/rDock_2013.1_src/data/scripts/dock_solv.prm

>  <Rbt.Receptor>
prm/blind_docking_100.prm

>  <SCORE>
-10.964

>  <SCORE.INTER>
-10.7293

>  <SCORE.INTER.CONST>
1

>  <SCORE.INTER.POLAR>
0

>  <SCORE.INTER.ROT>
3

>  <SCORE.INTER.SOLV>
4.54213

>  <SCORE.INTER.VDW>
-14.2669

>  <SCORE.INTER.norm>
-0.670583

>  <SCORE.INTRA>
-0.234696

>  <SCORE.INTRA.DIHEDRAL>
-0.0716299

>  <SCORE.INTRA.DIHEDRAL.0>
3.89056

>  <SCORE.INTRA.POLAR>
0

>  <SCORE.INTRA.POLAR.0>
0

>  <SCORE.INTRA.REPUL>
0

>  <SCORE.INTRA.REPUL.0>
0

>  <SCORE.INTRA.SOLV>
-0.227505

>  <SCORE.INTRA.SOLV.lig_0>
-20.733

>  <SCORE.INTRA.VDW>
-0.0851281

>  <SCORE.INTRA.VDW.0>
-0.828515

>  <SCORE.INTRA.norm>
-0.0146685

>  <SCORE.RESTR>
0

>  <SCORE.RESTR.CAVITY>
0

>  <SCORE.RESTR.norm>
0

>  <SCORE.SYSTEM>
0

>  <SCORE.SYSTEM.CONST>
0

>  <SCORE.SYSTEM.DIHEDRAL>
0

>  <SCORE.SYSTEM.SOLV>
0

>  <SCORE.SYSTEM.norm>
0

>  <SCORE.heavy>
16

>  <SCORE.norm>
-0.685251

>  <RMSD>
9.370

$$$$
ligand
 OpenBabel02271912153D
libRbt.so/2013.1/901 2013/11/27
 16 17  0  0  0  0  0  0  0  0999 V2000
   13.7811    1.0782   79.8339 N   0  0  0  0  0  0  0  0  0  0  0  0
   13.6331   -0.3305   79.6908 C   0  0  2  0  0  0  0  0  0  0  0  0
   13.0363   -0.7001   78.3615 C   0  0  0  0  0  0  0  0  0  0  0  0
   12.0663   -0.0385   77.9181 O   0  0  0  0  0  0  0  0  0  0  0  0
   15.5068   -4.8239   83.6822 O   0  0  0  0  0  0  0  0  0  0  0  0
   12.7682   -0.8927   80.7934 C   0  0  0  0  0  0  0  0  0  0  0  0
   13.2859   -0.5740   82.1758 C   0  0  0  0  0  0  0  0  0  0  0  0
   13.1369    0.5929   82.8115 C   0  0  0  0  0  0  0  0  0  0  0  0
   13.9813   -1.5600   82.9486 C   0  0  0  0  0  0  0  0  0  0  0  0
   14.2726   -0.8987   84.1730 C   0  0  0  0  0  0  0  0  0  0  0  0
   14.3684   -2.8596   82.7697 C   0  0  0  0  0  0  0  0  0  0  0  0
   13.7300    0.3938   84.0064 N   0  0  0  0  0  0  0  0  0  0  0  0
   14.9292   -1.4849   85.1860 C   0  0  0  0  0  0  0  0  0  0  0  0
   15.0800   -3.4978   83.8313 C   0  0  0  0  0  0  0  0  0  0  0  0
   15.3729   -2.8046   85.0587 C   0  0  0  0  0  0  0  0  0  0  0  0
   13.4960   -1.6671   77.7183 O   0  0  0  0  0  0  0  0  0  0  0  0
  2  1  1  1  0  0  0
  2  3  1  0  0  0  0
  2  6  1  0  0  0  0
  3  4  1  0  0  0  0
  3 16  1  0  0  0  0
  5 14  1  0  0  0  0
  6  7  1  0  0  0  0
  7  8  2  0  0  0  0
  7  9  1  0  0  0  0
  8 12  1  0  0  0  0
  9 10  2  0  0  0  0
  9 11  1  0  0  0  0
 10 13  1  0  0  0  0
 10 12  1  0  0  0  0
 11 14  2  0  0  0  0
 13 15  2  0  0  0  0
 14 15  1  0  0  0  0
M  END
>  <CHROM.1>
-43.31175316,-56.38125462,79.01588790,13.87582807,-1.26100226,81.79053099
2.51771131,1.18906984,-2.10591957

>  <Name>
ligand

>  <RI>
0

>  <Rbt.Current_Directory>
/home/itssahil/PROJECTS/Mol_Feturizer/Test_systems_manuscript/rnas/5kpy

>  <Rbt.Executable>
rbdock ($Id: //depot/dev/client3/rdock/2013.1/src/exe/rbdock.cxx#4 $)

>  <Rbt.Library>
libRbt.so (2013.1, Build901 2013/11/27)

>  <Rbt.Parameter_File>
/export/apps/rDock/src/rDock_2013.1_src/data/scripts/dock_solv.prm

>  <Rbt.Receptor>
prm/blind_docking_100.prm

>  <SCORE>
-12.6694

>  <SCORE.INTER>
-12.4262

>  <SCORE.INTER.CONST>
1

>  <SCORE.INTER.POLAR>
0

>  <SCORE.INTER.ROT>
3

>  <SCORE.INTER.SOLV>
4.16238

>  <SCORE.INTER.VDW>
-15.2716

>  <SCORE.INTER.norm>
-0.776637

>  <SCORE.INTRA>
-0.243179

>  <SCORE.INTRA.DIHEDRAL>
-0.042129

>  <SCORE.INTRA.DIHEDRAL.0>
3.89056

>  <SCORE.INTRA.POLAR>
0

>  <SCORE.INTRA.POLAR.0>
0

>  <SCORE.INTRA.REPUL>
0

>  <SCORE.INTRA.REPUL.0>
0

>  <SCORE.INTRA.SOLV>
-0.128806

>  <SCORE.INTRA.SOLV.lig_0>
-20.733

>  <SCORE.INTRA.VDW>
-0.157712

>  <SCORE.INTRA.VDW.0>
-0.828515

>  <SCORE.INTRA.norm>
-0.0151987

>  <SCORE.RESTR>
0

>  <SCORE.RESTR.CAVITY>
0

>  <SCORE.RESTR.norm>
0

>  <SCORE.SYSTEM>
0

>  <SCORE.SYSTEM.CONST>
0

>  <SCORE.SYSTEM.DIHEDRAL>
0

>  <SCORE.SYSTEM.SOLV>
0

>  <SCORE.SYSTEM.norm>
0

>  <SCORE.heavy>
16

>  <SCORE.norm>
-0.791836

>  <RMSD>
9.615

$$$$
ligand
 OpenBabel02271912153D
libRbt.so/2013.1/901 2013/11/27
 16 17  0  0  0  0  0  0  0  0999 V2000
   16.7807   -1.4286   83.5943 N   0  0  0  0  0  0  0  0  0  0  0  0
   16.6444   -2.0706   82.3309 C   0  0  2  0  0  0  0  0  0  0  0  0
   16.9591   -1.1411   81.1921 C   0  0  0  0  0  0  0  0  0  0  0  0
   16.8299    0.0966   81.3555 O   0  0  0  0  0  0  0  0  0  0  0  0
   13.1259   -0.9484   77.2511 O   0  0  0  0  0  0  0  0  0  0  0  0
   15.2463   -2.6124   82.1536 C   0  0  0  0  0  0  0  0  0  0  0  0
   14.1897   -1.5336   82.1285 C   0  0  0  0  0  0  0  0  0  0  0  0
   13.7014   -0.8992   83.1994 C   0  0  0  0  0  0  0  0  0  0  0  0
   13.6331   -1.0748   80.8905 C   0  0  0  0  0  0  0  0  0  0  0  0
   12.7169   -0.0590   81.2776 C   0  0  0  0  0  0  0  0  0  0  0  0
   13.7933   -1.3763   79.5660 C   0  0  0  0  0  0  0  0  0  0  0  0
   12.8193   -0.0180   82.6850 N   0  0  0  0  0  0  0  0  0  0  0  0
   11.9740    0.6331   80.4001 C   0  0  0  0  0  0  0  0  0  0  0  0
   13.0024   -0.6596   78.6165 C   0  0  0  0  0  0  0  0  0  0  0  0
   12.0730    0.3580   79.0329 C   0  0  0  0  0  0  0  0  0  0  0  0
   17.3292   -1.6041   80.0926 O   0  0  0  0  0  0  0  0  0  0  0  0
  2  1  1  1  0  0  0
  2  3  1  0  0  0  0
  2  6  1  0  0  0  0
  3  4  1  0  0  0  0
  3 16  1  0  0  0  0
  5 14  1  0  0  0  0
  6  7  1  0  0  0  0
  7  8  2  0  0  0  0
  7  9  1  0  0  0  0
  8 12  1  0  0  0  0
  9 10  2  0  0  0  0
  9 11  1  0  0  0  0
 10 13  1  0  0  0  0
 10 12  1  0  0  0  0
 11 14  2  0  0  0  0
 13 15  2  0  0  0  0
 14 15  1  0  0  0  0
M  END
>  <CHROM.1>
-24.99478649,63.77087263,-78.06350232,14.52734735,-0.91046536,80.96330638
0.64087544,-0.29072461,1.56584381

>  <Name>
ligand

>  <RI>
0

>  <Rbt.Current_Directory>
/home/itssahil/PROJECTS/Mol_Feturizer/Test_systems_manuscript/rnas/5kpy

>  <Rbt.Executable>
rbdock ($Id: //depot/dev/client3/rdock/2013.1/src/exe/rbdock.cxx#4 $)

>  <Rbt.Library>
libRbt.so (2013.1, Build901 2013/11/27)

>  <Rbt.Parameter_File>
/export/apps/rDock/src/rDock_2013.1_src/data/scripts/dock_solv.prm

>  <Rbt.Receptor>
prm/blind_docking_100.prm

>  <SCORE>
-10.1465

>  <SCORE.INTER>
-9.03726

>  <SCORE.INTER.CONST>
1

>  <SCORE.INTER.POLAR>
0

>  <SCORE.INTER.ROT>
3

>  <SCORE.INTER.SOLV>
5.64381

>  <SCORE.INTER.VDW>
-13.5061

>  <SCORE.INTER.norm>
-0.564829

>  <SCORE.INTRA>
-1.10923

>  <SCORE.INTRA.DIHEDRAL>
-0.185757

>  <SCORE.INTRA.DIHEDRAL.0>
3.89056

>  <SCORE.INTRA.POLAR>
0

>  <SCORE.INTRA.POLAR.0>
0

>  <SCORE.INTRA.REPUL>
0

>  <SCORE.INTRA.REPUL.0>
0

>  <SCORE.INTRA.SOLV>
-0.193736

>  <SCORE.INTRA.SOLV.lig_0>
-20.733

>  <SCORE.INTRA.VDW>
-0.919486

>  <SCORE.INTRA.VDW.0>
-0.828515

>  <SCORE.INTRA.norm>
-0.069327

>  <SCORE.RESTR>
0

>  <SCORE.RESTR.CAVITY>
0

>  <SCORE.RESTR.norm>
0

>  <SCORE.SYSTEM>
0

>  <SCORE.SYSTEM.CONST>
0

>  <SCORE.SYSTEM.DIHEDRAL>
0

>  <SCORE.SYSTEM.SOLV>
0

>  <SCORE.SYSTEM.norm>
0

>  <SCORE.heavy>
16

>  <SCORE.norm>
-0.634156

>  <RMSD>
9.746

$$$$
ligand
 OpenBabel02271912153D
libRbt.so/2013.1/901 2013/11/27
 16 17  0  0  0  0  0  0  0  0999 V2000
   16.0320   -0.5769   83.7339 N   0  0  0  0  0  0  0  0  0  0  0  0
   15.5932   -1.9104   83.9712 C   0  0  2  0  0  0  0  0  0  0  0  0
   16.6077   -2.9238   83.5199 C   0  0  0  0  0  0  0  0  0  0  0  0
   16.4060   -4.1406   83.7520 O   0  0  0  0  0  0  0  0  0  0  0  0
   10.7500    1.4051   80.8216 O   0  0  0  0  0  0  0  0  0  0  0  0
   14.2837   -2.1762   83.2682 C   0  0  0  0  0  0  0  0  0  0  0  0
   14.3570   -1.9629   81.7749 C   0  0  0  0  0  0  0  0  0  0  0  0
   15.2030   -2.5788   80.9426 C   0  0  0  0  0  0  0  0  0  0  0  0
   13.4601   -1.0623   81.1135 C   0  0  0  0  0  0  0  0  0  0  0  0
   13.8195   -1.1604   79.7414 C   0  0  0  0  0  0  0  0  0  0  0  0
   12.4417   -0.2310   81.4911 C   0  0  0  0  0  0  0  0  0  0  0  0
   14.8780   -2.0944   79.7264 N   0  0  0  0  0  0  0  0  0  0  0  0
   13.2103   -0.4619   78.7710 C   0  0  0  0  0  0  0  0  0  0  0  0
   11.7885    0.5311   80.4746 C   0  0  0  0  0  0  0  0  0  0  0  0
   12.1768    0.4231   79.0924 C   0  0  0  0  0  0  0  0  0  0  0  0
   17.6460   -2.5497   82.9351 O   0  0  0  0  0  0  0  0  0  0  0  0
  2  1  1  6  0  0  0
  2  3  1  0  0  0  0
  2  6  1  0  0  0  0
  3  4  1  0  0  0  0
  3 16  1  0  0  0  0
  5 14  1  0  0  0  0
  6  7  1  0  0  0  0
  7  8  2  0  0  0  0
  7  9  1  0  0  0  0
  8 12  1  0  0  0  0
  9 10  2  0  0  0  0
  9 11  1  0  0  0  0
 10 13  1  0  0  0  0
 10 12  1  0  0  0  0
 11 14  2  0  0  0  0
 13 15  2  0  0  0  0
 14 15  1  0  0  0  0
M  END
>  <CHROM.1>
174.84356867,58.30652260,57.09535939,14.35545213,-1.37622377,81.65412814
0.45264850,-0.68750574,1.40147594

>  <Name>
ligand

>  <RI>
0

>  <Rbt.Current_Directory>
/home/itssahil/PROJECTS/Mol_Feturizer/Test_systems_manuscript/rnas/5kpy

>  <Rbt.Executable>
rbdock ($Id: //depot/dev/client3/rdock/2013.1/src/exe/rbdock.cxx#4 $)

>  <Rbt.Library>
libRbt.so (2013.1, Build901 2013/11/27)

>  <Rbt.Parameter_File>
/export/apps/rDock/src/rDock_2013.1_src/data/scripts/dock_solv.prm

>  <Rbt.Receptor>
prm/blind_docking_100.prm

>  <SCORE>
-9.29579

>  <SCORE.INTER>
-9.07087

>  <SCORE.INTER.CONST>
1

>  <SCORE.INTER.POLAR>
0

>  <SCORE.INTER.ROT>
3

>  <SCORE.INTER.SOLV>
3.58581

>  <SCORE.INTER.VDW>
-12.8425

>  <SCORE.INTER.norm>
-0.566929

>  <SCORE.INTRA>
-0.224918

>  <SCORE.INTRA.DIHEDRAL>
-0.125976

>  <SCORE.INTRA.DIHEDRAL.0>
3.89056

>  <SCORE.INTRA.POLAR>
0

>  <SCORE.INTRA.POLAR.0>
0

>  <SCORE.INTRA.REPUL>
0

>  <SCORE.INTRA.REPUL.0>
0

>  <SCORE.INTRA.SOLV>
-0.216242

>  <SCORE.INTRA.SOLV.lig_0>
-20.733

>  <SCORE.INTRA.VDW>
-0.0538085

>  <SCORE.INTRA.VDW.0>
-0.828515

>  <SCORE.INTRA.norm>
-0.0140573

>  <SCORE.RESTR>
0

>  <SCORE.RESTR.CAVITY>
0

>  <SCORE.RESTR.norm>
0

>  <SCORE.SYSTEM>
0

>  <SCORE.SYSTEM.CONST>
0

>  <SCORE.SYSTEM.DIHEDRAL>
0

>  <SCORE.SYSTEM.SOLV>
0

>  <SCORE.SYSTEM.norm>
0

>  <SCORE.heavy>
16

>  <SCORE.norm>
-0.580987

>  <RMSD>
9.968

$$$$
ligand
 OpenBabel02271912153D
libRbt.so/2013.1/901 2013/11/27
 16 17  0  0  0  0  0  0  0  0999 V2000
   17.8059    0.3505   83.4378 N   0  0  0  0  0  0  0  0  0  0  0  0
   16.8309    1.3750   83.6005 C   0  0  2  0  0  0  0  0  0  0  0  0
   17.4395    2.6544   84.1031 C   0  0  0  0  0  0  0  0  0  0  0  0
   18.5253    2.6131   84.7313 O   0  0  0  0  0  0  0  0  0  0  0  0
   15.2992   -4.3646   86.2891 O   0  0  0  0  0  0  0  0  0  0  0  0
   15.7469    0.9358   84.5555 C   0  0  0  0  0  0  0  0  0  0  0  0
   16.2747    0.5520   85.9175 C   0  0  0  0  0  0  0  0  0  0  0  0
   16.8463    1.3860   86.7926 C   0  0  0  0  0  0  0  0  0  0  0  0
   16.1663   -0.7933   86.3985 C   0  0  0  0  0  0  0  0  0  0  0  0
   16.7375   -0.7434   87.6994 C   0  0  0  0  0  0  0  0  0  0  0  0
   15.6741   -1.9753   85.9176 C   0  0  0  0  0  0  0  0  0  0  0  0
   17.1224    0.6056   87.8574 N   0  0  0  0  0  0  0  0  0  0  0  0
   16.8336   -1.8155   88.5008 C   0  0  0  0  0  0  0  0  0  0  0  0
   15.7783   -3.1314   86.7502 C   0  0  0  0  0  0  0  0  0  0  0  0
   16.3704   -3.0590   88.0605 C   0  0  0  0  0  0  0  0  0  0  0  0
   16.8566    3.7417   83.9079 O   0  0  0  0  0  0  0  0  0  0  0  0
  2  1  1  1  0  0  0
  2  3  1  0  0  0  0
  2  6  1  0  0  0  0
  3  4  1  0  0  0  0
  3 16  1  0  0  0  0
  5 14  1  0  0  0  0
  6  7  1  0  0  0  0
  7  8  2  0  0  0  0
  7  9  1  0  0  0  0
  8 12  1  0  0  0  0
  9 10  2  0  0  0  0
  9 11  1  0  0  0  0
 10 13  1  0  0  0  0
 10 12  1  0  0  0  0
 11 14  2  0  0  0  0
 13 15  2  0  0  0  0
 14 15  1  0  0  0  0
M  END
>  <CHROM.1>
-23.50872446,57.75779812,66.10532195,16.66619868,-0.03278178,85.82586491
0.87909623,-1.22719104,-1.17041676

>  <Name>
ligand

>  <RI>
0

>  <Rbt.Current_Directory>
/home/itssahil/PROJECTS/Mol_Feturizer/Test_systems_manuscript/rnas/5kpy

>  <Rbt.Executable>
rbdock ($Id: //depot/dev/client3/rdock/2013.1/src/exe/rbdock.cxx#4 $)

>  <Rbt.Library>
libRbt.so (2013.1, Build901 2013/11/27)

>  <Rbt.Parameter_File>
/export/apps/rDock/src/rDock_2013.1_src/data/scripts/dock_solv.prm

>  <Rbt.Receptor>
prm/blind_docking_100.prm

>  <SCORE>
-8.08205

>  <SCORE.INTER>
-7.56155

>  <SCORE.INTER.CONST>
1

>  <SCORE.INTER.POLAR>
0

>  <SCORE.INTER.ROT>
3

>  <SCORE.INTER.SOLV>
3.94655

>  <SCORE.INTER.VDW>
-11.9566

>  <SCORE.INTER.norm>
-0.472597

>  <SCORE.INTRA>
-0.520504

>  <SCORE.INTRA.DIHEDRAL>
-0.115728

>  <SCORE.INTRA.DIHEDRAL.0>
3.89056

>  <SCORE.INTRA.POLAR>
0

>  <SCORE.INTRA.POLAR.0>
0

>  <SCORE.INTRA.REPUL>
0

>  <SCORE.INTRA.REPUL.0>
0

>  <SCORE.INTRA.SOLV>
-0.198243

>  <SCORE.INTRA.SOLV.lig_0>
-20.733

>  <SCORE.INTRA.VDW>
-0.363518

>  <SCORE.INTRA.VDW.0>
-0.828515

>  <SCORE.INTRA.norm>
-0.0325315

>  <SCORE.RESTR>
0

>  <SCORE.RESTR.CAVITY>
0

>  <SCORE.RESTR.norm>
0

>  <SCORE.SYSTEM>
0

>  <SCORE.SYSTEM.CONST>
0

>  <SCORE.SYSTEM.DIHEDRAL>
0

>  <SCORE.SYSTEM.SOLV>
0

>  <SCORE.SYSTEM.norm>
0

>  <SCORE.heavy>
16

>  <SCORE.norm>
-0.505128

>  <RMSD>
10.865

$$$$
ligand
 OpenBabel02271912153D
libRbt.so/2013.1/901 2013/11/27
 16 17  0  0  0  0  0  0  0  0999 V2000
   16.1446    0.7397   82.2336 N   0  0  0  0  0  0  0  0  0  0  0  0
   15.7504   -0.6184   82.3990 C   0  0  2  0  0  0  0  0  0  0  0  0
   14.5053   -0.7440   83.2318 C   0  0  0  0  0  0  0  0  0  0  0  0
   14.2180    0.1647   84.0485 O   0  0  0  0  0  0  0  0  0  0  0  0
   13.9923   -2.4175   87.7419 O   0  0  0  0  0  0  0  0  0  0  0  0
   16.8560   -1.4225   83.0400 C   0  0  0  0  0  0  0  0  0  0  0  0
   17.3399   -0.8336   84.3438 C   0  0  0  0  0  0  0  0  0  0  0  0
   18.4165   -0.0547   84.4925 C   0  0  0  0  0  0  0  0  0  0  0  0
   16.6250   -1.0581   85.5650 C   0  0  0  0  0  0  0  0  0  0  0  0
   17.3637   -0.3307   86.5379 C   0  0  0  0  0  0  0  0  0  0  0  0
   15.5019   -1.7440   85.9379 C   0  0  0  0  0  0  0  0  0  0  0  0
   18.4271    0.2431   85.8079 N   0  0  0  0  0  0  0  0  0  0  0  0
   17.0219   -0.2828   87.8347 C   0  0  0  0  0  0  0  0  0  0  0  0
   15.1280   -1.7161   87.3163 C   0  0  0  0  0  0  0  0  0  0  0  0
   15.8977   -0.9809   88.2858 C   0  0  0  0  0  0  0  0  0  0  0  0
   13.7777   -1.7529   83.1183 O   0  0  0  0  0  0  0  0  0  0  0  0
  2  1  1  1  0  0  0
  2  3  1  0  0  0  0
  2  6  1  0  0  0  0
  3  4  1  0  0  0  0
  3 16  1  0  0  0  0
  5 14  1  0  0  0  0
  6  7  1  0  0  0  0
  7  8  2  0  0  0  0
  7  9  1  0  0  0  0
  8 12  1  0  0  0  0
  9 10  2  0  0  0  0
  9 11  1  0  0  0  0
 10 13  1  0  0  0  0
 10 12  1  0  0  0  0
 11 14  2  0  0  0  0
 13 15  2  0  0  0  0
 14 15  1  0  0  0  0
M  END
>  <CHROM.1>
-24.77447548,54.44387882,-97.52084198,15.97266269,-0.81148593,85.05870824
-1.64760365,0.36633434,1.75356271

>  <Name>
ligand

>  <RI>
0

>  <Rbt.Current_Directory>
/home/itssahil/PROJECTS/Mol_Feturizer/Test_systems_manuscript/rnas/5kpy

>  <Rbt.Executable>
rbdock ($Id: //depot/dev/client3/rdock/2013.1/src/exe/rbdock.cxx#4 $)

>  <Rbt.Library>
libRbt.so (2013.1, Build901 2013/11/27)

>  <Rbt.Parameter_File>
/export/apps/rDock/src/rDock_2013.1_src/data/scripts/dock_solv.prm

>  <Rbt.Receptor>
prm/blind_docking_100.prm

>  <SCORE>
-9.43161

>  <SCORE.INTER>
-8.28824

>  <SCORE.INTER.CONST>
1

>  <SCORE.INTER.POLAR>
0

>  <SCORE.INTER.ROT>
3

>  <SCORE.INTER.SOLV>
2.351

>  <SCORE.INTER.VDW>
-11.9092

>  <SCORE.INTER.norm>
-0.518015

>  <SCORE.INTRA>
-1.14338

>  <SCORE.INTRA.DIHEDRAL>
-0.110227

>  <SCORE.INTRA.DIHEDRAL.0>
3.89056

>  <SCORE.INTRA.POLAR>
0

>  <SCORE.INTRA.POLAR.0>
0

>  <SCORE.INTRA.REPUL>
0

>  <SCORE.INTRA.REPUL.0>
0

>  <SCORE.INTRA.SOLV>
-0.114984

>  <SCORE.INTRA.SOLV.lig_0>
-20.733

>  <SCORE.INTRA.VDW>
-1.03077

>  <SCORE.INTRA.VDW.0>
-0.828515

>  <SCORE.INTRA.norm>
-0.071461

>  <SCORE.RESTR>
0

>  <SCORE.RESTR.CAVITY>
0

>  <SCORE.RESTR.norm>
0

>  <SCORE.SYSTEM>
0

>  <SCORE.SYSTEM.CONST>
0

>  <SCORE.SYSTEM.DIHEDRAL>
0

>  <SCORE.SYSTEM.SOLV>
0

>  <SCORE.SYSTEM.norm>
0

>  <SCORE.heavy>
16

>  <SCORE.norm>
-0.589476

>  <RMSD>
10.951

$$$$
ligand
 OpenBabel02271912153D
libRbt.so/2013.1/901 2013/11/27
 16 17  0  0  0  0  0  0  0  0999 V2000
   13.7882   -1.3859   81.9974 N   0  0  0  0  0  0  0  0  0  0  0  0
   14.8160   -1.2158   82.9678 C   0  0  2  0  0  0  0  0  0  0  0  0
   15.3653   -2.5328   83.4404 C   0  0  0  0  0  0  0  0  0  0  0  0
   14.5765   -3.4834   83.6629 O   0  0  0  0  0  0  0  0  0  0  0  0
   15.4379   -4.3297   88.0145 O   0  0  0  0  0  0  0  0  0  0  0  0
   14.3059   -0.4385   84.1574 C   0  0  0  0  0  0  0  0  0  0  0  0
   15.3716   -0.1703   85.1934 C   0  0  0  0  0  0  0  0  0  0  0  0
   16.0895    0.9530   85.2968 C   0  0  0  0  0  0  0  0  0  0  0  0
   15.6794   -1.1393   86.2030 C   0  0  0  0  0  0  0  0  0  0  0  0
   16.6897   -0.5159   86.9852 C   0  0  0  0  0  0  0  0  0  0  0  0
   15.2423   -2.3929   86.5319 C   0  0  0  0  0  0  0  0  0  0  0  0
   16.8779    0.7409   86.3705 N   0  0  0  0  0  0  0  0  0  0  0  0
   17.2614   -1.1020   88.0485 C   0  0  0  0  0  0  0  0  0  0  0  0
   15.8471   -3.0394   87.6531 C   0  0  0  0  0  0  0  0  0  0  0  0
   16.8763   -2.3924   88.4245 C   0  0  0  0  0  0  0  0  0  0  0  0
   16.5936   -2.6674   83.6231 O   0  0  0  0  0  0  0  0  0  0  0  0
  2  1  1  6  0  0  0
  2  3  1  0  0  0  0
  2  6  1  0  0  0  0
  3  4  1  0  0  0  0
  3 16  1  0  0  0  0
  5 14  1  0  0  0  0
  6  7  1  0  0  0  0
  7  8  2  0  0  0  0
  7  9  1  0  0  0  0
  8 12  1  0  0  0  0
  9 10  2  0  0  0  0
  9 11  1  0  0  0  0
 10 13  1  0  0  0  0
 10 12  1  0  0  0  0
 11 14  2  0  0  0  0
 13 15  2  0  0  0  0
 14 15  1  0  0  0  0
M  END
>  <CHROM.1>
-41.45629978,-177.30677607,96.39712853,15.64454738,-1.64245376,85.46000001
2.57116778,-1.15491363,-0.52156312

>  <Name>
ligand

>  <RI>
0

>  <Rbt.Current_Directory>
/home/itssahil/PROJECTS/Mol_Feturizer/Test_systems_manuscript/rnas/5kpy

>  <Rbt.Executable>
rbdock ($Id: //depot/dev/client3/rdock/2013.1/src/exe/rbdock.cxx#4 $)

>  <Rbt.Library>
libRbt.so (2013.1, Build901 2013/11/27)

>  <Rbt.Parameter_File>
/export/apps/rDock/src/rDock_2013.1_src/data/scripts/dock_solv.prm

>  <Rbt.Receptor>
prm/blind_docking_100.prm

>  <SCORE>
-10.6453

>  <SCORE.INTER>
-9.03698

>  <SCORE.INTER.CONST>
1

>  <SCORE.INTER.POLAR>
0

>  <SCORE.INTER.ROT>
3

>  <SCORE.INTER.SOLV>
4.79602

>  <SCORE.INTER.VDW>
-13.2233

>  <SCORE.INTER.norm>
-0.564811

>  <SCORE.INTRA>
-1.60836

>  <SCORE.INTRA.DIHEDRAL>
-0.0537365

>  <SCORE.INTRA.DIHEDRAL.0>
3.89056

>  <SCORE.INTRA.POLAR>
0

>  <SCORE.INTRA.POLAR.0>
0

>  <SCORE.INTRA.REPUL>
0

>  <SCORE.INTRA.REPUL.0>
0

>  <SCORE.INTRA.SOLV>
-1.17874

>  <SCORE.INTRA.SOLV.lig_0>
-20.733

>  <SCORE.INTRA.VDW>
-0.99212

>  <SCORE.INTRA.VDW.0>
-0.828515

>  <SCORE.INTRA.norm>
-0.100522

>  <SCORE.RESTR>
0

>  <SCORE.RESTR.CAVITY>
0

>  <SCORE.RESTR.norm>
0

>  <SCORE.SYSTEM>
0

>  <SCORE.SYSTEM.CONST>
0

>  <SCORE.SYSTEM.DIHEDRAL>
0

>  <SCORE.SYSTEM.SOLV>
0

>  <SCORE.SYSTEM.norm>
0

>  <SCORE.heavy>
16

>  <SCORE.norm>
-0.665334

>  <RMSD>
11.051

$$$$
ligand
 OpenBabel02271912153D
libRbt.so/2013.1/901 2013/11/27
 16 17  0  0  0  0  0  0  0  0999 V2000
   17.9989    2.3698   86.2516 N   0  0  0  0  0  0  0  0  0  0  0  0
   17.9763    1.0180   86.6978 C   0  0  2  0  0  0  0  0  0  0  0  0
   18.6864    0.0997   85.7426 C   0  0  0  0  0  0  0  0  0  0  0  0
   19.6018   -0.6443   86.1713 O   0  0  0  0  0  0  0  0  0  0  0  0
   14.1959   -2.9424   83.1903 O   0  0  0  0  0  0  0  0  0  0  0  0
   16.5564    0.5380   86.8801 C   0  0  0  0  0  0  0  0  0  0  0  0
   16.4636   -0.9347   87.2015 C   0  0  0  0  0  0  0  0  0  0  0  0
   16.8905   -1.5122   88.3294 C   0  0  0  0  0  0  0  0  0  0  0  0
   15.8551   -1.8529   86.2852 C   0  0  0  0  0  0  0  0  0  0  0  0
   15.9336   -3.1079   86.9485 C   0  0  0  0  0  0  0  0  0  0  0  0
   15.2745   -1.7729   85.0494 C   0  0  0  0  0  0  0  0  0  0  0  0
   16.5718   -2.8135   88.1728 N   0  0  0  0  0  0  0  0  0  0  0  0
   15.4688   -4.2494   86.4176 C   0  0  0  0  0  0  0  0  0  0  0  0
   14.7846   -2.9790   84.4611 C   0  0  0  0  0  0  0  0  0  0  0  0
   14.8846   -4.2406   85.1475 C   0  0  0  0  0  0  0  0  0  0  0  0
   18.3743    0.0947   84.5332 O   0  0  0  0  0  0  0  0  0  0  0  0
  2  1  1  6  0  0  0
  2  3  1  0  0  0  0
  2  6  1  0  0  0  0
  3  4  1  0  0  0  0
  3 16  1  0  0  0  0
  5 14  1  0  0  0  0
  6  7  1  0  0  0  0
  7  8  2  0  0  0  0
  7  9  1  0  0  0  0
  8 12  1  0  0  0  0
  9 10  2  0  0  0  0
  9 11  1  0  0  0  0
 10 13  1  0  0  0  0
 10 12  1  0  0  0  0
 11 14  2  0  0  0  0
 13 15  2  0  0  0  0
 14 15  1  0  0  0  0
M  END
>  <CHROM.1>
126.00674385,173.48997837,67.21877656,16.65920856,-1.36441563,86.04127662
0.15024996,-0.89865648,-1.12035064

>  <Name>
ligand

>  <RI>
0

>  <Rbt.Current_Directory>
/home/itssahil/PROJECTS/Mol_Feturizer/Test_systems_manuscript/rnas/5kpy

>  <Rbt.Executable>
rbdock ($Id: //depot/dev/client3/rdock/2013.1/src/exe/rbdock.cxx#4 $)

>  <Rbt.Library>
libRbt.so (2013.1, Build901 2013/11/27)

>  <Rbt.Parameter_File>
/export/apps/rDock/src/rDock_2013.1_src/data/scripts/dock_solv.prm

>  <Rbt.Receptor>
prm/blind_docking_100.prm

>  <SCORE>
-13.9455

>  <SCORE.INTER>
-12.8384

>  <SCORE.INTER.CONST>
1

>  <SCORE.INTER.POLAR>
0

>  <SCORE.INTER.ROT>
3

>  <SCORE.INTER.SOLV>
6.58521

>  <SCORE.INTER.VDW>
-16.354

>  <SCORE.INTER.norm>
-0.802398

>  <SCORE.INTRA>
-1.10889

>  <SCORE.INTRA.DIHEDRAL>
0.0838469

>  <SCORE.INTRA.DIHEDRAL.0>
3.89056

>  <SCORE.INTRA.POLAR>
0

>  <SCORE.INTRA.POLAR.0>
0

>  <SCORE.INTRA.REPUL>
0

>  <SCORE.INTRA.REPUL.0>
0

>  <SCORE.INTRA.SOLV>
-1.19277

>  <SCORE.INTRA.SOLV.lig_0>
-20.733

>  <SCORE.INTRA.VDW>
-0.55443

>  <SCORE.INTRA.VDW.0>
-0.828515

>  <SCORE.INTRA.norm>
-0.0693057

>  <SCORE.RESTR>
0.001776

>  <SCORE.RESTR.CAVITY>
0.001776

>  <SCORE.RESTR.norm>
0.000111

>  <SCORE.SYSTEM>
0

>  <SCORE.SYSTEM.CONST>
0

>  <SCORE.SYSTEM.DIHEDRAL>
0

>  <SCORE.SYSTEM.SOLV>
0

>  <SCORE.SYSTEM.norm>
0

>  <SCORE.heavy>
16

>  <SCORE.norm>
-0.871593

>  <RMSD>
11.157

$$$$
ligand
 OpenBabel02271912153D
libRbt.so/2013.1/901 2013/11/27
 16 17  0  0  0  0  0  0  0  0999 V2000
   17.6968    2.0966   85.0682 N   0  0  0  0  0  0  0  0  0  0  0  0
   17.8336    0.9953   85.9600 C   0  0  2  0  0  0  0  0  0  0  0  0
   18.7662   -0.0524   85.4192 C   0  0  0  0  0  0  0  0  0  0  0  0
   19.5902   -0.5994   86.1919 O   0  0  0  0  0  0  0  0  0  0  0  0
   14.4421   -4.5123   84.4165 O   0  0  0  0  0  0  0  0  0  0  0  0
   16.4912    0.3636   86.2404 C   0  0  0  0  0  0  0  0  0  0  0  0
   16.5822   -0.8580   87.1237 C   0  0  0  0  0  0  0  0  0  0  0  0
   17.1090   -0.8911   88.3522 C   0  0  0  0  0  0  0  0  0  0  0  0
   16.0575   -2.1201   86.6937 C   0  0  0  0  0  0  0  0  0  0  0  0
   16.3037   -2.9899   87.7910 C   0  0  0  0  0  0  0  0  0  0  0  0
   15.4333   -2.5983   85.5746 C   0  0  0  0  0  0  0  0  0  0  0  0
   16.9408   -2.1697   88.7473 N   0  0  0  0  0  0  0  0  0  0  0  0
   15.9600   -4.2871   87.7913 C   0  0  0  0  0  0  0  0  0  0  0  0
   15.0704   -3.9797   85.5498 C   0  0  0  0  0  0  0  0  0  0  0  0
   15.3394   -4.8443   86.6692 C   0  0  0  0  0  0  0  0  0  0  0  0
   18.7266   -0.3584   84.2089 O   0  0  0  0  0  0  0  0  0  0  0  0
  2  1  1  6  0  0  0
  2  3  1  0  0  0  0
  2  6  1  0  0  0  0
  3  4  1  0  0  0  0
  3 16  1  0  0  0  0
  5 14  1  0  0  0  0
  6  7  1  0  0  0  0
  7  8  2  0  0  0  0
  7  9  1  0  0  0  0
  8 12  1  0  0  0  0
  9 10  2  0  0  0  0
  9 11  1  0  0  0  0
 10 13  1  0  0  0  0
 10 12  1  0  0  0  0
 11 14  2  0  0  0  0
 13 15  2  0  0  0  0
 14 15  1  0  0  0  0
M  END
>  <CHROM.1>
138.20050455,176.91350927,57.86648448,16.83036174,-1.62051167,86.28893515
0.31476062,-0.97570630,-1.34891765

>  <Name>
ligand

>  <RI>
0

>  <Rbt.Current_Directory>
/home/itssahil/PROJECTS/Mol_Feturizer/Test_systems_manuscript/rnas/5kpy

>  <Rbt.Executable>
rbdock ($Id: //depot/dev/client3/rdock/2013.1/src/exe/rbdock.cxx#4 $)

>  <Rbt.Library>
libRbt.so (2013.1, Build901 2013/11/27)

>  <Rbt.Parameter_File>
/export/apps/rDock/src/rDock_2013.1_src/data/scripts/dock_solv.prm

>  <Rbt.Receptor>
prm/blind_docking_100.prm

>  <SCORE>
-14.091

>  <SCORE.INTER>
-12.9782

>  <SCORE.INTER.CONST>
1

>  <SCORE.INTER.POLAR>
0

>  <SCORE.INTER.ROT>
3

>  <SCORE.INTER.SOLV>
4.59326

>  <SCORE.INTER.VDW>
-15.7832

>  <SCORE.INTER.norm>
-0.811138

>  <SCORE.INTRA>
-1.11314

>  <SCORE.INTRA.DIHEDRAL>
-0.0761066

>  <SCORE.INTRA.DIHEDRAL.0>
3.89056

>  <SCORE.INTRA.POLAR>
0

>  <SCORE.INTRA.POLAR.0>
0

>  <SCORE.INTRA.REPUL>
0

>  <SCORE.INTRA.REPUL.0>
0

>  <SCORE.INTRA.SOLV>
-1.18934

>  <SCORE.INTRA.SOLV.lig_0>
-20.733

>  <SCORE.INTRA.VDW>
-0.480411

>  <SCORE.INTRA.VDW.0>
-0.828515

>  <SCORE.INTRA.norm>
-0.069571

>  <SCORE.RESTR>
0.000339753

>  <SCORE.RESTR.CAVITY>
0.000339753

>  <SCORE.RESTR.norm>
2.12346e-05

>  <SCORE.SYSTEM>
0

>  <SCORE.SYSTEM.CONST>
0

>  <SCORE.SYSTEM.DIHEDRAL>
0

>  <SCORE.SYSTEM.SOLV>
0

>  <SCORE.SYSTEM.norm>
0

>  <SCORE.heavy>
16

>  <SCORE.norm>
-0.880688

>  <RMSD>
11.537

$$$$
ligand
 OpenBabel02271912153D
libRbt.so/2013.1/901 2013/11/27
 16 17  0  0  0  0  0  0  0  0999 V2000
   17.4338   -0.6363   84.3280 N   0  0  0  0  0  0  0  0  0  0  0  0
   17.3814    0.4252   85.2754 C   0  0  2  0  0  0  0  0  0  0  0  0
   18.6808    0.5822   86.0148 C   0  0  0  0  0  0  0  0  0  0  0  0
   19.4520   -0.4026   86.1179 O   0  0  0  0  0  0  0  0  0  0  0  0
   14.2945   -4.8026   84.7287 O   0  0  0  0  0  0  0  0  0  0  0  0
   16.2705    0.1985   86.2726 C   0  0  0  0  0  0  0  0  0  0  0  0
   16.5050   -1.0000   87.1611 C   0  0  0  0  0  0  0  0  0  0  0  0
   17.1483   -0.9843   88.3332 C   0  0  0  0  0  0  0  0  0  0  0  0
   16.0032   -2.2934   86.8028 C   0  0  0  0  0  0  0  0  0  0  0  0
   16.3954   -3.1291   87.8840 C   0  0  0  0  0  0  0  0  0  0  0  0
   15.2983   -2.8220   85.7567 C   0  0  0  0  0  0  0  0  0  0  0  0
   17.0808   -2.2614   88.7617 N   0  0  0  0  0  0  0  0  0  0  0  0
   16.1165   -4.4407   87.9370 C   0  0  0  0  0  0  0  0  0  0  0  0
   15.0022   -4.2192   85.7878 C   0  0  0  0  0  0  0  0  0  0  0  0
   15.4188   -5.0481   86.8887 C   0  0  0  0  0  0  0  0  0  0  0  0
   18.9756    1.6800   86.5324 O   0  0  0  0  0  0  0  0  0  0  0  0
  2  1  1  6  0  0  0
  2  3  1  0  0  0  0
  2  6  1  0  0  0  0
  3  4  1  0  0  0  0
  3 16  1  0  0  0  0
  5 14  1  0  0  0  0
  6  7  1  0  0  0  0
  7  8  2  0  0  0  0
  7  9  1  0  0  0  0
  8 12  1  0  0  0  0
  9 10  2  0  0  0  0
  9 11  1  0  0  0  0
 10 13  1  0  0  0  0
 10 12  1  0  0  0  0
 11 14  2  0  0  0  0
 13 15  2  0  0  0  0
 14 15  1  0  0  0  0
M  END
>  <CHROM.1>
-24.55614050,66.30482024,89.58664691,16.77385383,-1.74836991,86.48591120
0.39905949,-0.93785355,-1.12767255

>  <Name>
ligand

>  <RI>
0

>  <Rbt.Current_Directory>
/home/itssahil/PROJECTS/Mol_Feturizer/Test_systems_manuscript/rnas/5kpy

>  <Rbt.Executable>
rbdock ($Id: //depot/dev/client3/rdock/2013.1/src/exe/rbdock.cxx#4 $)

>  <Rbt.Library>
libRbt.so (2013.1, Build901 2013/11/27)

>  <Rbt.Parameter_File>
/export/apps/rDock/src/rDock_2013.1_src/data/scripts/dock_solv.prm

>  <Rbt.Receptor>
prm/blind_docking_100.prm

>  <SCORE>
-12.6704

>  <SCORE.INTER>
-12.0429

>  <SCORE.INTER.CONST>
1

>  <SCORE.INTER.POLAR>
0

>  <SCORE.INTER.ROT>
3

>  <SCORE.INTER.SOLV>
5.60319

>  <SCORE.INTER.VDW>
-15.4963

>  <SCORE.INTER.norm>
-0.752681

>  <SCORE.INTRA>
-0.643718

>  <SCORE.INTRA.DIHEDRAL>
0.0671297

>  <SCORE.INTRA.DIHEDRAL.0>
3.89056

>  <SCORE.INTRA.POLAR>
0

>  <SCORE.INTRA.POLAR.0>
0

>  <SCORE.INTRA.REPUL>
0

>  <SCORE.INTRA.REPUL.0>
0

>  <SCORE.INTRA.SOLV>
0.0721576

>  <SCORE.INTRA.SOLV.lig_0>
-20.733

>  <SCORE.INTRA.VDW>
-0.713361

>  <SCORE.INTRA.VDW.0>
-0.828515

>  <SCORE.INTRA.norm>
-0.0402324

>  <SCORE.RESTR>
0.0162237

>  <SCORE.RESTR.CAVITY>
0.0162237

>  <SCORE.RESTR.norm>
0.00101398

>  <SCORE.SYSTEM>
0

>  <SCORE.SYSTEM.CONST>
0

>  <SCORE.SYSTEM.DIHEDRAL>
0

>  <SCORE.SYSTEM.SOLV>
0

>  <SCORE.SYSTEM.norm>
0

>  <SCORE.heavy>
16

>  <SCORE.norm>
-0.791899

>  <RMSD>
11.558

$$$$
ligand
 OpenBabel02271912153D
libRbt.so/2013.1/901 2013/11/27
 16 17  0  0  0  0  0  0  0  0999 V2000
    4.4716   15.0325   71.9319 N   0  0  0  0  0  0  0  0  0  0  0  0
    3.8889   13.7858   72.2969 C   0  0  2  0  0  0  0  0  0  0  0  0
    2.8687   13.9417   73.3899 C   0  0  0  0  0  0  0  0  0  0  0  0
    3.0154   14.8512   74.2423 O   0  0  0  0  0  0  0  0  0  0  0  0
   10.0991   10.6369   72.9919 O   0  0  0  0  0  0  0  0  0  0  0  0
    4.9497   12.8104   72.7475 C   0  0  0  0  0  0  0  0  0  0  0  0
    5.4238   11.8960   71.6430 C   0  0  0  0  0  0  0  0  0  0  0  0
    4.7164   11.5519   70.5618 C   0  0  0  0  0  0  0  0  0  0  0  0
    6.7403   11.3310   71.6671 C   0  0  0  0  0  0  0  0  0  0  0  0
    6.8135   10.5712   70.4677 C   0  0  0  0  0  0  0  0  0  0  0  0
    7.8173   11.3768   72.5090 C   0  0  0  0  0  0  0  0  0  0  0  0
    5.5523   10.7579   69.8616 N   0  0  0  0  0  0  0  0  0  0  0  0
    7.9001    9.8711   70.1071 C   0  0  0  0  0  0  0  0  0  0  0  0
    8.9796   10.6281   72.1496 C   0  0  0  0  0  0  0  0  0  0  0  0
    9.0270    9.8572   70.9345 C   0  0  0  0  0  0  0  0  0  0  0  0
    1.8965   13.1600   73.4523 O   0  0  0  0  0  0  0  0  0  0  0  0
  2  1  1  1  0  0  0
  2  3  1  0  0  0  0
  2  6  1  0  0  0  0
  3  4  1  0  0  0  0
  3 16  1  0  0  0  0
  5 14  1  0  0  0  0
  6  7  1  0  0  0  0
  7  8  2  0  0  0  0
  7  9  1  0  0  0  0
  8 12  1  0  0  0  0
  9 10  2  0  0  0  0
  9 11  1  0  0  0  0
 10 13  1  0  0  0  0
 10 12  1  0  0  0  0
 11 14  2  0  0  0  0
 13 15  2  0  0  0  0
 14 15  1  0  0  0  0
M  END
>  <CHROM.1>
-31.30663236,-94.98563280,-25.48160242,5.80009786,12.08662037,72.01673740
-2.60096272,0.34797334,-2.18442929

>  <Name>
ligand

>  <RI>
0

>  <Rbt.Current_Directory>
/home/itssahil/PROJECTS/Mol_Feturizer/Test_systems_manuscript/rnas/5kpy

>  <Rbt.Executable>
rbdock ($Id: //depot/dev/client3/rdock/2013.1/src/exe/rbdock.cxx#4 $)

>  <Rbt.Library>
libRbt.so (2013.1, Build901 2013/11/27)

>  <Rbt.Parameter_File>
/export/apps/rDock/src/rDock_2013.1_src/data/scripts/dock_solv.prm

>  <Rbt.Receptor>
prm/blind_docking_80.prm

>  <SCORE>
-8.74272

>  <SCORE.INTER>
-10.3573

>  <SCORE.INTER.CONST>
1

>  <SCORE.INTER.POLAR>
0

>  <SCORE.INTER.ROT>
3

>  <SCORE.INTER.SOLV>
6.81469

>  <SCORE.INTER.VDW>
-14.7765

>  <SCORE.INTER.norm>
-0.647334

>  <SCORE.INTRA>
1.61463

>  <SCORE.INTRA.DIHEDRAL>
3.60292

>  <SCORE.INTRA.DIHEDRAL.0>
3.89056

>  <SCORE.INTRA.POLAR>
0

>  <SCORE.INTRA.POLAR.0>
0

>  <SCORE.INTRA.REPUL>
0

>  <SCORE.INTRA.REPUL.0>
0

>  <SCORE.INTRA.SOLV>
-0.735549

>  <SCORE.INTRA.SOLV.lig_0>
-20.733

>  <SCORE.INTRA.VDW>
0.180945

>  <SCORE.INTRA.VDW.0>
-0.828515

>  <SCORE.INTRA.norm>
0.100915

>  <SCORE.RESTR>
0

>  <SCORE.RESTR.CAVITY>
0

>  <SCORE.RESTR.norm>
0

>  <SCORE.SYSTEM>
0

>  <SCORE.SYSTEM.CONST>
0

>  <SCORE.SYSTEM.DIHEDRAL>
0

>  <SCORE.SYSTEM.SOLV>
0

>  <SCORE.SYSTEM.norm>
0

>  <SCORE.heavy>
16

>  <SCORE.norm>
-0.54642

>  <RMSD>
15.100

$$$$
ligand
 OpenBabel02271912153D
libRbt.so/2013.1/901 2013/11/27
 16 17  0  0  0  0  0  0  0  0999 V2000
    1.9554   11.1293   71.1451 N   0  0  0  0  0  0  0  0  0  0  0  0
    2.5970   11.5491   72.3448 C   0  0  2  0  0  0  0  0  0  0  0  0
    1.6202   12.1243   73.3321 C   0  0  0  0  0  0  0  0  0  0  0  0
    0.7183   11.3896   73.8035 O   0  0  0  0  0  0  0  0  0  0  0  0
    4.8498    8.8228   68.0750 O   0  0  0  0  0  0  0  0  0  0  0  0
    3.6636   12.5764   72.0503 C   0  0  0  0  0  0  0  0  0  0  0  0
    5.0520   11.9867   71.9752 C   0  0  0  0  0  0  0  0  0  0  0  0
    6.0621   12.2694   72.8044 C   0  0  0  0  0  0  0  0  0  0  0  0
    5.3876   11.0144   70.9777 C   0  0  0  0  0  0  0  0  0  0  0  0
    6.7446   10.6908   71.2517 C   0  0  0  0  0  0  0  0  0  0  0  0
    4.7388   10.4008   69.9417 C   0  0  0  0  0  0  0  0  0  0  0  0
    7.0736   11.4918   72.3667 N   0  0  0  0  0  0  0  0  0  0  0  0
    7.4478    9.8038   70.5310 C   0  0  0  0  0  0  0  0  0  0  0  0
    5.4736    9.4625   69.1542 C   0  0  0  0  0  0  0  0  0  0  0  0
    6.8506    9.1583   69.4442 C   0  0  0  0  0  0  0  0  0  0  0  0
    1.7015   13.3261   73.6626 O   0  0  0  0  0  0  0  0  0  0  0  0
  2  1  1  6  0  0  0
  2  3  1  0  0  0  0
  2  6  1  0  0  0  0
  3  4  1  0  0  0  0
  3 16  1  0  0  0  0
  5 14  1  0  0  0  0
  6  7  1  0  0  0  0
  7  8  2  0  0  0  0
  7  9  1  0  0  0  0
  8 12  1  0  0  0  0
  9 10  2  0  0  0  0
  9 11  1  0  0  0  0
 10 13  1  0  0  0  0
 10 12  1  0  0  0  0
 11 14  2  0  0  0  0
 13 15  2  0  0  0  0
 14 15  1  0  0  0  0
M  END
>  <CHROM.1>
63.35873191,-97.87003198,-115.99498807,4.36188952,11.10174229,71.46896100
2.39837441,0.01949165,0.92676105

>  <Name>
ligand

>  <RI>
0

>  <Rbt.Current_Directory>
/home/itssahil/PROJECTS/Mol_Feturizer/Test_systems_manuscript/rnas/5kpy

>  <Rbt.Executable>
rbdock ($Id: //depot/dev/client3/rdock/2013.1/src/exe/rbdock.cxx#4 $)

>  <Rbt.Library>
libRbt.so (2013.1, Build901 2013/11/27)

>  <Rbt.Parameter_File>
/export/apps/rDock/src/rDock_2013.1_src/data/scripts/dock_solv.prm

>  <Rbt.Receptor>
prm/blind_docking_80.prm

>  <SCORE>
-8.97208

>  <SCORE.INTER>
-11.9666

>  <SCORE.INTER.CONST>
1

>  <SCORE.INTER.POLAR>
0

>  <SCORE.INTER.ROT>
3

>  <SCORE.INTER.SOLV>
9.97154

>  <SCORE.INTER.VDW>
-16.9016

>  <SCORE.INTER.norm>
-0.747915

>  <SCORE.INTRA>
2.87246

>  <SCORE.INTRA.DIHEDRAL>
3.94273

>  <SCORE.INTRA.DIHEDRAL.0>
3.89056

>  <SCORE.INTRA.POLAR>
0

>  <SCORE.INTRA.POLAR.0>
0

>  <SCORE.INTRA.REPUL>
0

>  <SCORE.INTRA.REPUL.0>
0

>  <SCORE.INTRA.SOLV>
-0.0385819

>  <SCORE.INTRA.SOLV.lig_0>
-20.733

>  <SCORE.INTRA.VDW>
0.920386

>  <SCORE.INTRA.VDW.0>
-0.828515

>  <SCORE.INTRA.norm>
0.179529

>  <SCORE.RESTR>
0.122098

>  <SCORE.RESTR.CAVITY>
0.122098

>  <SCORE.RESTR.norm>
0.00763112

>  <SCORE.SYSTEM>
0

>  <SCORE.SYSTEM.CONST>
0

>  <SCORE.SYSTEM.DIHEDRAL>
0

>  <SCORE.SYSTEM.SOLV>
0

>  <SCORE.SYSTEM.norm>
0

>  <SCORE.heavy>
16

>  <SCORE.norm>
-0.560755

>  <RMSD>
15.136

$$$$
ligand
 OpenBabel02271912153D
libRbt.so/2013.1/901 2013/11/27
 16 17  0  0  0  0  0  0  0  0999 V2000
    3.4140   12.4392   71.7662 N   0  0  0  0  0  0  0  0  0  0  0  0
    4.1911   13.1118   72.7514 C   0  0  2  0  0  0  0  0  0  0  0  0
    3.4644   14.2945   73.3284 C   0  0  0  0  0  0  0  0  0  0  0  0
    2.8889   15.0989   72.5558 O   0  0  0  0  0  0  0  0  0  0  0  0
    4.1021    9.6579   68.4323 O   0  0  0  0  0  0  0  0  0  0  0  0
    5.5058   13.5756   72.1714 C   0  0  0  0  0  0  0  0  0  0  0  0
    6.4627   12.4423   71.8874 C   0  0  0  0  0  0  0  0  0  0  0  0
    7.6514   12.2637   72.4731 C   0  0  0  0  0  0  0  0  0  0  0  0
    6.1311   11.4154   70.9448 C   0  0  0  0  0  0  0  0  0  0  0  0
    7.2486   10.5373   70.9813 C   0  0  0  0  0  0  0  0  0  0  0  0
    5.0759   11.1381   70.1199 C   0  0  0  0  0  0  0  0  0  0  0  0
    8.1185   11.1224   71.9267 N   0  0  0  0  0  0  0  0  0  0  0  0
    7.3367    9.4293   70.2292 C   0  0  0  0  0  0  0  0  0  0  0  0
    5.1556    9.9699   69.3016 C   0  0  0  0  0  0  0  0  0  0  0  0
    6.3024    9.1006   69.3478 C   0  0  0  0  0  0  0  0  0  0  0  0
    3.4515   14.4769   74.5640 O   0  0  0  0  0  0  0  0  0  0  0  0
  2  1  1  6  0  0  0
  2  3  1  0  0  0  0
  2  6  1  0  0  0  0
  3  4  1  0  0  0  0
  3 16  1  0  0  0  0
  5 14  1  0  0  0  0
  6  7  1  0  0  0  0
  7  8  2  0  0  0  0
  7  9  1  0  0  0  0
  8 12  1  0  0  0  0
  9 10  2  0  0  0  0
  9 11  1  0  0  0  0
 10 13  1  0  0  0  0
 10 12  1  0  0  0  0
 11 14  2  0  0  0  0
 13 15  2  0  0  0  0
 14 15  1  0  0  0  0
M  END
>  <CHROM.1>
-46.55399105,-71.10801463,-116.69576219,5.29912821,11.96773620,71.46948305
2.03457046,-0.29021862,0.80622757

>  <Name>
ligand

>  <RI>
0

>  <Rbt.Current_Directory>
/home/itssahil/PROJECTS/Mol_Feturizer/Test_systems_manuscript/rnas/5kpy

>  <Rbt.Executable>
rbdock ($Id: //depot/dev/client3/rdock/2013.1/src/exe/rbdock.cxx#4 $)

>  <Rbt.Library>
libRbt.so (2013.1, Build901 2013/11/27)

>  <Rbt.Parameter_File>
/export/apps/rDock/src/rDock_2013.1_src/data/scripts/dock_solv.prm

>  <Rbt.Receptor>
prm/blind_docking_80.prm

>  <SCORE>
-10.3517

>  <SCORE.INTER>
-10.9498

>  <SCORE.INTER.CONST>
1

>  <SCORE.INTER.POLAR>
0

>  <SCORE.INTER.ROT>
3

>  <SCORE.INTER.SOLV>
5.47993

>  <SCORE.INTER.VDW>
-14.7265

>  <SCORE.INTER.norm>
-0.684365

>  <SCORE.INTRA>
0.598159

>  <SCORE.INTRA.DIHEDRAL>
0.33045

>  <SCORE.INTRA.DIHEDRAL.0>
3.89056

>  <SCORE.INTRA.POLAR>
0

>  <SCORE.INTRA.POLAR.0>
0

>  <SCORE.INTRA.REPUL>
0

>  <SCORE.INTRA.REPUL.0>
0

>  <SCORE.INTRA.SOLV>
0.639078

>  <SCORE.INTRA.SOLV.lig_0>
-20.733

>  <SCORE.INTRA.VDW>
0.113395

>  <SCORE.INTRA.VDW.0>
-0.828515

>  <SCORE.INTRA.norm>
0.037385

>  <SCORE.RESTR>
0

>  <SCORE.RESTR.CAVITY>
0

>  <SCORE.RESTR.norm>
0

>  <SCORE.SYSTEM>
0

>  <SCORE.SYSTEM.CONST>
0

>  <SCORE.SYSTEM.DIHEDRAL>
0

>  <SCORE.SYSTEM.SOLV>
0

>  <SCORE.SYSTEM.norm>
0

>  <SCORE.heavy>
16

>  <SCORE.norm>
-0.64698

>  <RMSD>
15.341

$$$$
ligand
 OpenBabel02271912153D
libRbt.so/2013.1/901 2013/11/27
 16 17  0  0  0  0  0  0  0  0999 V2000
   10.1383   10.0710   72.2580 N   0  0  0  0  0  0  0  0  0  0  0  0
    8.9322   10.5144   71.6452 C   0  0  2  0  0  0  0  0  0  0  0  0
    9.1972   11.3400   70.4171 C   0  0  0  0  0  0  0  0  0  0  0  0
    9.3707   10.7644   69.3154 O   0  0  0  0  0  0  0  0  0  0  0  0
    5.9104    8.2204   68.5099 O   0  0  0  0  0  0  0  0  0  0  0  0
    8.1051   11.3239   72.6149 C   0  0  0  0  0  0  0  0  0  0  0  0
    6.7267   11.6509   72.0915 C   0  0  0  0  0  0  0  0  0  0  0  0
    5.9531   12.6561   72.5147 C   0  0  0  0  0  0  0  0  0  0  0  0
    6.1385   10.8848   71.0332 C   0  0  0  0  0  0  0  0  0  0  0  0
    4.8808   11.5092   70.8108 C   0  0  0  0  0  0  0  0  0  0  0  0
    6.5041    9.8054   70.2769 C   0  0  0  0  0  0  0  0  0  0  0  0
    4.8487   12.5666   71.7456 N   0  0  0  0  0  0  0  0  0  0  0  0
    4.0046   11.0870   69.8862 C   0  0  0  0  0  0  0  0  0  0  0  0
    5.5801    9.3324   69.2956 C   0  0  0  0  0  0  0  0  0  0  0  0
    4.3072    9.9746   69.0953 C   0  0  0  0  0  0  0  0  0  0  0  0
    9.2587   12.5846   70.5031 O   0  0  0  0  0  0  0  0  0  0  0  0
  2  1  1  1  0  0  0
  2  3  1  0  0  0  0
  2  6  1  0  0  0  0
  3  4  1  0  0  0  0
  3 16  1  0  0  0  0
  5 14  1  0  0  0  0
  6  7  1  0  0  0  0
  7  8  2  0  0  0  0
  7  9  1  0  0  0  0
  8 12  1  0  0  0  0
  9 10  2  0  0  0  0
  9 11  1  0  0  0  0
 10 13  1  0  0  0  0
 10 12  1  0  0  0  0
 11 14  2  0  0  0  0
 13 15  2  0  0  0  0
 14 15  1  0  0  0  0
M  END
>  <CHROM.1>
85.39582765,-171.56789011,-158.17935188,6.97403439,10.88226137,70.72242142
-0.36214166,0.09517278,-2.34677441

>  <Name>
ligand

>  <RI>
0

>  <Rbt.Current_Directory>
/home/itssahil/PROJECTS/Mol_Feturizer/Test_systems_manuscript/rnas/5kpy

>  <Rbt.Executable>
rbdock ($Id: //depot/dev/client3/rdock/2013.1/src/exe/rbdock.cxx#4 $)

>  <Rbt.Library>
libRbt.so (2013.1, Build901 2013/11/27)

>  <Rbt.Parameter_File>
/export/apps/rDock/src/rDock_2013.1_src/data/scripts/dock_solv.prm

>  <Rbt.Receptor>
prm/blind_docking_80.prm

>  <SCORE>
-13.5967

>  <SCORE.INTER>
-13.9817

>  <SCORE.INTER.CONST>
1

>  <SCORE.INTER.POLAR>
0

>  <SCORE.INTER.ROT>
3

>  <SCORE.INTER.SOLV>
15.0562

>  <SCORE.INTER.VDW>
-19.9399

>  <SCORE.INTER.norm>
-0.873859

>  <SCORE.INTRA>
0.385026

>  <SCORE.INTRA.DIHEDRAL>
0.175936

>  <SCORE.INTRA.DIHEDRAL.0>
3.89056

>  <SCORE.INTRA.POLAR>
0

>  <SCORE.INTRA.POLAR.0>
0

>  <SCORE.INTRA.REPUL>
0

>  <SCORE.INTRA.REPUL.0>
0

>  <SCORE.INTRA.SOLV>
-1.16524

>  <SCORE.INTRA.SOLV.lig_0>
-20.733

>  <SCORE.INTRA.VDW>
0.87968

>  <SCORE.INTRA.VDW.0>
-0.828515

>  <SCORE.INTRA.norm>
0.0240641

>  <SCORE.RESTR>
0

>  <SCORE.RESTR.CAVITY>
0

>  <SCORE.RESTR.norm>
0

>  <SCORE.SYSTEM>
0

>  <SCORE.SYSTEM.CONST>
0

>  <SCORE.SYSTEM.DIHEDRAL>
0

>  <SCORE.SYSTEM.SOLV>
0

>  <SCORE.SYSTEM.norm>
0

>  <SCORE.heavy>
16

>  <SCORE.norm>
-0.849795

>  <RMSD>
15.496

$$$$
ligand
 OpenBabel02271912153D
libRbt.so/2013.1/901 2013/11/27
 16 17  0  0  0  0  0  0  0  0999 V2000
    5.3673   14.0324   70.9092 N   0  0  0  0  0  0  0  0  0  0  0  0
    4.8126   13.1628   71.8906 C   0  0  2  0  0  0  0  0  0  0  0  0
    4.0291   13.9157   72.9292 C   0  0  0  0  0  0  0  0  0  0  0  0
    2.8581   13.5528   73.1984 O   0  0  0  0  0  0  0  0  0  0  0  0
    2.8031   10.0552   68.5248 O   0  0  0  0  0  0  0  0  0  0  0  0
    5.8975   12.3648   72.5733 C   0  0  0  0  0  0  0  0  0  0  0  0
    6.5067   11.3075   71.6835 C   0  0  0  0  0  0  0  0  0  0  0  0
    7.7547   10.8369   71.7785 C   0  0  0  0  0  0  0  0  0  0  0  0
    5.7402   10.6863   70.6445 C   0  0  0  0  0  0  0  0  0  0  0  0
    6.6374    9.7476   70.0657 C   0  0  0  0  0  0  0  0  0  0  0  0
    4.4659   10.7960   70.1598 C   0  0  0  0  0  0  0  0  0  0  0  0
    7.8285    9.9039   70.8072 N   0  0  0  0  0  0  0  0  0  0  0  0
    6.3037    8.9488   69.0403 C   0  0  0  0  0  0  0  0  0  0  0  0
    4.0946    9.9634   69.0601 C   0  0  0  0  0  0  0  0  0  0  0  0
    5.0238    9.0271   68.4832 C   0  0  0  0  0  0  0  0  0  0  0  0
    4.5389   14.9014   73.5026 O   0  0  0  0  0  0  0  0  0  0  0  0
  2  1  1  6  0  0  0
  2  3  1  0  0  0  0
  2  6  1  0  0  0  0
  3  4  1  0  0  0  0
  3 16  1  0  0  0  0
  5 14  1  0  0  0  0
  6  7  1  0  0  0  0
  7  8  2  0  0  0  0
  7  9  1  0  0  0  0
  8 12  1  0  0  0  0
  9 10  2  0  0  0  0
  9 11  1  0  0  0  0
 10 13  1  0  0  0  0
 10 12  1  0  0  0  0
 11 14  2  0  0  0  0
 13 15  2  0  0  0  0
 14 15  1  0  0  0  0
M  END
>  <CHROM.1>
128.63952824,-71.33070861,151.90819526,5.21239380,11.55542013,71.01602232
1.78837254,-0.31195978,0.74242552

>  <Name>
ligand

>  <RI>
0

>  <Rbt.Current_Directory>
/home/itssahil/PROJECTS/Mol_Feturizer/Test_systems_manuscript/rnas/5kpy

>  <Rbt.Executable>
rbdock ($Id: //depot/dev/client3/rdock/2013.1/src/exe/rbdock.cxx#4 $)

>  <Rbt.Library>
libRbt.so (2013.1, Build901 2013/11/27)

>  <Rbt.Parameter_File>
/export/apps/rDock/src/rDock_2013.1_src/data/scripts/dock_solv.prm

>  <Rbt.Receptor>
prm/blind_docking_80.prm

>  <SCORE>
-11.2924

>  <SCORE.INTER>
-11.6562

>  <SCORE.INTER.CONST>
1

>  <SCORE.INTER.POLAR>
0

>  <SCORE.INTER.ROT>
3

>  <SCORE.INTER.SOLV>
3.52764

>  <SCORE.INTER.VDW>
-14.5467

>  <SCORE.INTER.norm>
-0.728515

>  <SCORE.INTRA>
0.363805

>  <SCORE.INTRA.DIHEDRAL>
0.310588

>  <SCORE.INTRA.DIHEDRAL.0>
3.89056

>  <SCORE.INTRA.POLAR>
0

>  <SCORE.INTRA.POLAR.0>
0

>  <SCORE.INTRA.REPUL>
0

>  <SCORE.INTRA.REPUL.0>
0

>  <SCORE.INTRA.SOLV>
-0.0253285

>  <SCORE.INTRA.SOLV.lig_0>
-20.733

>  <SCORE.INTRA.VDW>
0.221176

>  <SCORE.INTRA.VDW.0>
-0.828515

>  <SCORE.INTRA.norm>
0.0227378

>  <SCORE.RESTR>
0

>  <SCORE.RESTR.CAVITY>
0

>  <SCORE.RESTR.norm>
0

>  <SCORE.SYSTEM>
0

>  <SCORE.SYSTEM.CONST>
0

>  <SCORE.SYSTEM.DIHEDRAL>
0

>  <SCORE.SYSTEM.SOLV>
0

>  <SCORE.SYSTEM.norm>
0

>  <SCORE.heavy>
16

>  <SCORE.norm>
-0.705777

>  <RMSD>
15.504

$$$$
ligand
 OpenBabel02271912153D
libRbt.so/2013.1/901 2013/11/27
 16 17  0  0  0  0  0  0  0  0999 V2000
    8.1549   13.2953   71.6293 N   0  0  0  0  0  0  0  0  0  0  0  0
    8.4726   11.9560   71.9933 C   0  0  2  0  0  0  0  0  0  0  0  0
    8.8502   11.1244   70.7993 C   0  0  0  0  0  0  0  0  0  0  0  0
    8.8387   11.6469   69.6581 O   0  0  0  0  0  0  0  0  0  0  0  0
    6.1011    7.9996   68.3510 O   0  0  0  0  0  0  0  0  0  0  0  0
    7.3095   11.3034   72.7012 C   0  0  0  0  0  0  0  0  0  0  0  0
    5.9970   11.4803   71.9754 C   0  0  0  0  0  0  0  0  0  0  0  0
    5.0642   12.3926   72.2680 C   0  0  0  0  0  0  0  0  0  0  0  0
    5.6597   10.6599   70.8502 C   0  0  0  0  0  0  0  0  0  0  0  0
    4.3886   11.1441   70.4368 C   0  0  0  0  0  0  0  0  0  0  0  0
    6.2492    9.6310   70.1687 C   0  0  0  0  0  0  0  0  0  0  0  0
    4.1028   12.1868   71.3446 N   0  0  0  0  0  0  0  0  0  0  0  0
    3.7109   10.6333   69.3972 C   0  0  0  0  0  0  0  0  0  0  0  0
    5.5384    9.0647   69.0665 C   0  0  0  0  0  0  0  0  0  0  0  0
    4.2471    9.5648   68.6724 C   0  0  0  0  0  0  0  0  0  0  0  0
    9.1553    9.9223   70.9472 O   0  0  0  0  0  0  0  0  0  0  0  0
  2  1  1  6  0  0  0
  2  3  1  0  0  0  0
  2  6  1  0  0  0  0
  3  4  1  0  0  0  0
  3 16  1  0  0  0  0
  5 14  1  0  0  0  0
  6  7  1  0  0  0  0
  7  8  2  0  0  0  0
  7  9  1  0  0  0  0
  8 12  1  0  0  0  0
  9 10  2  0  0  0  0
  9 11  1  0  0  0  0
 10 13  1  0  0  0  0
 10 12  1  0  0  0  0
 11 14  2  0  0  0  0
 13 15  2  0  0  0  0
 14 15  1  0  0  0  0
M  END
>  <CHROM.1>
-0.72590611,48.77403213,-98.94637301,6.47409037,10.86210849,70.62725185,0.70791919
-0.06146843,0.73531402

>  <Name>
ligand

>  <RI>
0

>  <Rbt.Current_Directory>
/home/itssahil/PROJECTS/Mol_Feturizer/Test_systems_manuscript/rnas/5kpy

>  <Rbt.Executable>
rbdock ($Id: //depot/dev/client3/rdock/2013.1/src/exe/rbdock.cxx#4 $)

>  <Rbt.Library>
libRbt.so (2013.1, Build901 2013/11/27)

>  <Rbt.Parameter_File>
/export/apps/rDock/src/rDock_2013.1_src/data/scripts/dock_solv.prm

>  <Rbt.Receptor>
prm/blind_docking_80.prm

>  <SCORE>
-13.0288

>  <SCORE.INTER>
-12.5511

>  <SCORE.INTER.CONST>
1

>  <SCORE.INTER.POLAR>
0

>  <SCORE.INTER.ROT>
3

>  <SCORE.INTER.SOLV>
9.32197

>  <SCORE.INTER.VDW>
-17.0747

>  <SCORE.INTER.norm>
-0.784443

>  <SCORE.INTRA>
-0.503706

>  <SCORE.INTRA.DIHEDRAL>
0.296747

>  <SCORE.INTRA.DIHEDRAL.0>
3.89056

>  <SCORE.INTRA.POLAR>
0

>  <SCORE.INTRA.POLAR.0>
0

>  <SCORE.INTRA.REPUL>
0

>  <SCORE.INTRA.REPUL.0>
0

>  <SCORE.INTRA.SOLV>
-0.00939767

>  <SCORE.INTRA.SOLV.lig_0>
-20.733

>  <SCORE.INTRA.VDW>
-0.647381

>  <SCORE.INTRA.VDW.0>
-0.828515

>  <SCORE.INTRA.norm>
-0.0314816

>  <SCORE.RESTR>
0.0260185

>  <SCORE.RESTR.CAVITY>
0.0260185

>  <SCORE.RESTR.norm>
0.00162615

>  <SCORE.SYSTEM>
0

>  <SCORE.SYSTEM.CONST>
0

>  <SCORE.SYSTEM.DIHEDRAL>
0

>  <SCORE.SYSTEM.SOLV>
0

>  <SCORE.SYSTEM.norm>
0

>  <SCORE.heavy>
16

>  <SCORE.norm>
-0.814298

>  <RMSD>
15.533

$$$$
ligand
 OpenBabel02271912153D
libRbt.so/2013.1/901 2013/11/27
 16 17  0  0  0  0  0  0  0  0999 V2000
    7.6577   11.4615   73.1213 N   0  0  0  0  0  0  0  0  0  0  0  0
    6.9880   12.5471   72.4889 C   0  0  2  0  0  0  0  0  0  0  0  0
    5.5105   12.5331   72.7659 C   0  0  0  0  0  0  0  0  0  0  0  0
    4.9530   13.5784   73.1803 O   0  0  0  0  0  0  0  0  0  0  0  0
    2.1704   10.9848   69.1113 O   0  0  0  0  0  0  0  0  0  0  0  0
    7.2104   12.5167   70.9958 C   0  0  0  0  0  0  0  0  0  0  0  0
    7.0272   11.1430   70.3956 C   0  0  0  0  0  0  0  0  0  0  0  0
    7.9805   10.2128   70.2784 C   0  0  0  0  0  0  0  0  0  0  0  0
    5.7481   10.7131   69.9138 C   0  0  0  0  0  0  0  0  0  0  0  0
    5.9760    9.3837   69.4641 C   0  0  0  0  0  0  0  0  0  0  0  0
    4.4970   11.2573   69.8183 C   0  0  0  0  0  0  0  0  0  0  0  0
    7.3466    9.1617   69.7194 N   0  0  0  0  0  0  0  0  0  0  0  0
    5.0151    8.6145   68.9296 C   0  0  0  0  0  0  0  0  0  0  0  0
    3.4627   10.4592   69.2405 C   0  0  0  0  0  0  0  0  0  0  0  0
    3.7195    9.1187   68.7823 C   0  0  0  0  0  0  0  0  0  0  0  0
    4.8541   11.4837   72.5986 O   0  0  0  0  0  0  0  0  0  0  0  0
  2  1  1  1  0  0  0
  2  3  1  0  0  0  0
  2  6  1  0  0  0  0
  3  4  1  0  0  0  0
  3 16  1  0  0  0  0
  5 14  1  0  0  0  0
  6  7  1  0  0  0  0
  7  8  2  0  0  0  0
  7  9  1  0  0  0  0
  8 12  1  0  0  0  0
  9 10  2  0  0  0  0
  9 11  1  0  0  0  0
 10 13  1  0  0  0  0
 10 12  1  0  0  0  0
 11 14  2  0  0  0  0
 13 15  2  0  0  0  0
 14 15  1  0  0  0  0
M  END
>  <CHROM.1>
129.50187330,45.78319030,-88.24032438,5.59624956,11.01916059,70.75515815
-1.08180263,0.21369719,-2.32354515

>  <Name>
ligand

>  <RI>
0

>  <Rbt.Current_Directory>
/home/itssahil/PROJECTS/Mol_Feturizer/Test_systems_manuscript/rnas/5kpy

>  <Rbt.Executable>
rbdock ($Id: //depot/dev/client3/rdock/2013.1/src/exe/rbdock.cxx#4 $)

>  <Rbt.Library>
libRbt.so (2013.1, Build901 2013/11/27)

>  <Rbt.Parameter_File>
/export/apps/rDock/src/rDock_2013.1_src/data/scripts/dock_solv.prm

>  <Rbt.Receptor>
prm/blind_docking_80.prm

>  <SCORE>
-11.1276

>  <SCORE.INTER>
-10.6419

>  <SCORE.INTER.CONST>
1

>  <SCORE.INTER.POLAR>
0

>  <SCORE.INTER.ROT>
3

>  <SCORE.INTER.SOLV>
9.10896

>  <SCORE.INTER.VDW>
-15.7309

>  <SCORE.INTER.norm>
-0.665116

>  <SCORE.INTRA>
-0.514209

>  <SCORE.INTRA.DIHEDRAL>
0.58757

>  <SCORE.INTRA.DIHEDRAL.0>
3.89056

>  <SCORE.INTRA.POLAR>
0

>  <SCORE.INTRA.POLAR.0>
0

>  <SCORE.INTRA.REPUL>
0

>  <SCORE.INTRA.REPUL.0>
0

>  <SCORE.INTRA.SOLV>
0.017076

>  <SCORE.INTRA.SOLV.lig_0>
-20.733

>  <SCORE.INTRA.VDW>
-0.816532

>  <SCORE.INTRA.VDW.0>
-0.828515

>  <SCORE.INTRA.norm>
-0.032138

>  <SCORE.RESTR>
0.028444

>  <SCORE.RESTR.CAVITY>
0.028444

>  <SCORE.RESTR.norm>
0.00177775

>  <SCORE.SYSTEM>
0

>  <SCORE.SYSTEM.CONST>
0

>  <SCORE.SYSTEM.DIHEDRAL>
0

>  <SCORE.SYSTEM.SOLV>
0

>  <SCORE.SYSTEM.norm>
0

>  <SCORE.heavy>
16

>  <SCORE.norm>
-0.695476

>  <RMSD>
15.534

$$$$
ligand
 OpenBabel02271912153D
libRbt.so/2013.1/901 2013/11/27
 16 17  0  0  0  0  0  0  0  0999 V2000
    9.1708   11.5420   69.8923 N   0  0  0  0  0  0  0  0  0  0  0  0
    8.4778   10.9165   70.9673 C   0  0  2  0  0  0  0  0  0  0  0  0
    9.4072   10.5258   72.0824 C   0  0  0  0  0  0  0  0  0  0  0  0
    9.2543   11.0383   73.2178 O   0  0  0  0  0  0  0  0  0  0  0  0
    4.8959   13.5695   73.3434 O   0  0  0  0  0  0  0  0  0  0  0  0
    7.7400    9.6898   70.4871 C   0  0  0  0  0  0  0  0  0  0  0  0
    6.2975    9.9642   70.1341 C   0  0  0  0  0  0  0  0  0  0  0  0
    5.5982    9.3386   69.1815 C   0  0  0  0  0  0  0  0  0  0  0  0
    5.5354   10.9423   70.8521 C   0  0  0  0  0  0  0  0  0  0  0  0
    4.2466   10.8844   70.2548 C   0  0  0  0  0  0  0  0  0  0  0  0
    5.7687   11.8124   71.8813 C   0  0  0  0  0  0  0  0  0  0  0  0
    4.3712    9.8936   69.2570 N   0  0  0  0  0  0  0  0  0  0  0  0
    3.2216   11.6583   70.6438 C   0  0  0  0  0  0  0  0  0  0  0  0
    4.6941   12.6543   72.3021 C   0  0  0  0  0  0  0  0  0  0  0  0
    3.3999   12.5854   71.6751 C   0  0  0  0  0  0  0  0  0  0  0  0
   10.3298    9.7112   71.8694 O   0  0  0  0  0  0  0  0  0  0  0  0
  2  1  1  6  0  0  0
  2  3  1  0  0  0  0
  2  6  1  0  0  0  0
  3  4  1  0  0  0  0
  3 16  1  0  0  0  0
  5 14  1  0  0  0  0
  6  7  1  0  0  0  0
  7  8  2  0  0  0  0
  7  9  1  0  0  0  0
  8 12  1  0  0  0  0
  9 10  2  0  0  0  0
  9 11  1  0  0  0  0
 10 13  1  0  0  0  0
 10 12  1  0  0  0  0
 11 14  2  0  0  0  0
 13 15  2  0  0  0  0
 14 15  1  0  0  0  0
M  END
>  <CHROM.1>
118.03417459,-94.60835887,147.87026491,6.52997941,11.04801220,71.18670332
0.08680409,0.24472929,-2.26978992

>  <Name>
ligand

>  <RI>
0

>  <Rbt.Current_Directory>
/home/itssahil/PROJECTS/Mol_Feturizer/Test_systems_manuscript/rnas/5kpy

>  <Rbt.Executable>
rbdock ($Id: //depot/dev/client3/rdock/2013.1/src/exe/rbdock.cxx#4 $)

>  <Rbt.Library>
libRbt.so (2013.1, Build901 2013/11/27)

>  <Rbt.Parameter_File>
/export/apps/rDock/src/rDock_2013.1_src/data/scripts/dock_solv.prm

>  <Rbt.Receptor>
prm/blind_docking_80.prm

>  <SCORE>
-9.80473

>  <SCORE.INTER>
-12.0628

>  <SCORE.INTER.CONST>
1

>  <SCORE.INTER.POLAR>
0

>  <SCORE.INTER.ROT>
3

>  <SCORE.INTER.SOLV>
11.7861

>  <SCORE.INTER.VDW>
-17.5706

>  <SCORE.INTER.norm>
-0.753927

>  <SCORE.INTRA>
1.52665

>  <SCORE.INTRA.DIHEDRAL>
3.40785

>  <SCORE.INTRA.DIHEDRAL.0>
3.89056

>  <SCORE.INTRA.POLAR>
0

>  <SCORE.INTRA.POLAR.0>
0

>  <SCORE.INTRA.REPUL>
0

>  <SCORE.INTRA.REPUL.0>
0

>  <SCORE.INTRA.SOLV>
-0.721728

>  <SCORE.INTRA.SOLV.lig_0>
-20.733

>  <SCORE.INTRA.VDW>
0.18359

>  <SCORE.INTRA.VDW.0>
-0.828515

>  <SCORE.INTRA.norm>
0.0954157

>  <SCORE.RESTR>
0.731443

>  <SCORE.RESTR.CAVITY>
0.731443

>  <SCORE.RESTR.norm>
0.0457152

>  <SCORE.SYSTEM>
0

>  <SCORE.SYSTEM.CONST>
0

>  <SCORE.SYSTEM.DIHEDRAL>
0

>  <SCORE.SYSTEM.SOLV>
0

>  <SCORE.SYSTEM.norm>
0

>  <SCORE.heavy>
16

>  <SCORE.norm>
-0.612796

>  <RMSD>
15.537

$$$$
ligand
 OpenBabel02271912153D
libRbt.so/2013.1/901 2013/11/27
 16 17  0  0  0  0  0  0  0  0999 V2000
    9.9431   10.4175   72.3414 N   0  0  0  0  0  0  0  0  0  0  0  0
    8.7458   10.7573   71.6501 C   0  0  2  0  0  0  0  0  0  0  0  0
    9.0135   11.6462   70.4677 C   0  0  0  0  0  0  0  0  0  0  0  0
    9.2593   11.1270   69.3517 O   0  0  0  0  0  0  0  0  0  0  0  0
    6.0523    8.0679   68.4595 O   0  0  0  0  0  0  0  0  0  0  0  0
    7.7708   11.4462   72.5745 C   0  0  0  0  0  0  0  0  0  0  0  0
    6.4138   11.6668   71.9495 C   0  0  0  0  0  0  0  0  0  0  0  0
    5.5537   12.6352   72.2814 C   0  0  0  0  0  0  0  0  0  0  0  0
    5.9464   10.8283   70.8858 C   0  0  0  0  0  0  0  0  0  0  0  0
    4.6710   11.3638   70.5572 C   0  0  0  0  0  0  0  0  0  0  0  0
    6.4274    9.7484   70.1980 C   0  0  0  0  0  0  0  0  0  0  0  0
    4.5114   12.4491   71.4457 N   0  0  0  0  0  0  0  0  0  0  0  0
    3.8869   10.8548   69.5945 C   0  0  0  0  0  0  0  0  0  0  0  0
    5.6025    9.1837   69.1776 C   0  0  0  0  0  0  0  0  0  0  0  0
    4.3095    9.7367   68.8693 C   0  0  0  0  0  0  0  0  0  0  0  0
    9.0056   12.8876   70.6056 O   0  0  0  0  0  0  0  0  0  0  0  0
  2  1  1  1  0  0  0
  2  3  1  0  0  0  0
  2  6  1  0  0  0  0
  3  4  1  0  0  0  0
  3 16  1  0  0  0  0
  5 14  1  0  0  0  0
  6  7  1  0  0  0  0
  7  8  2  0  0  0  0
  7  9  1  0  0  0  0
  8 12  1  0  0  0  0
  9 10  2  0  0  0  0
  9 11  1  0  0  0  0
 10 13  1  0  0  0  0
 10 12  1  0  0  0  0
 11 14  2  0  0  0  0
 13 15  2  0  0  0  0
 14 15  1  0  0  0  0
M  END
>  <CHROM.1>
88.97157676,-172.35424360,-153.42673340,6.80468942,10.92664589,70.63045229
-0.48999068,0.07288554,-2.38793292

>  <Name>
ligand

>  <RI>
0

>  <Rbt.Current_Directory>
/home/itssahil/PROJECTS/Mol_Feturizer/Test_systems_manuscript/rnas/5kpy

>  <Rbt.Executable>
rbdock ($Id: //depot/dev/client3/rdock/2013.1/src/exe/rbdock.cxx#4 $)

>  <Rbt.Library>
libRbt.so (2013.1, Build901 2013/11/27)

>  <Rbt.Parameter_File>
/export/apps/rDock/src/rDock_2013.1_src/data/scripts/dock_solv.prm

>  <Rbt.Receptor>
prm/blind_docking_80.prm

>  <SCORE>
-13.6694

>  <SCORE.INTER>
-13.7405

>  <SCORE.INTER.CONST>
1

>  <SCORE.INTER.POLAR>
0

>  <SCORE.INTER.ROT>
3

>  <SCORE.INTER.SOLV>
14.4901

>  <SCORE.INTER.VDW>
-19.5903

>  <SCORE.INTER.norm>
-0.858779

>  <SCORE.INTRA>
0.0710839

>  <SCORE.INTRA.DIHEDRAL>
0.134592

>  <SCORE.INTRA.DIHEDRAL.0>
3.89056

>  <SCORE.INTRA.POLAR>
0

>  <SCORE.INTRA.POLAR.0>
0

>  <SCORE.INTRA.REPUL>
0

>  <SCORE.INTRA.REPUL.0>
0

>  <SCORE.INTRA.SOLV>
-1.16707

>  <SCORE.INTRA.SOLV.lig_0>
-20.733

>  <SCORE.INTRA.VDW>
0.587323

>  <SCORE.INTRA.VDW.0>
-0.828515

>  <SCORE.INTRA.norm>
0.00444274

>  <SCORE.RESTR>
0

>  <SCORE.RESTR.CAVITY>
0

>  <SCORE.RESTR.norm>
0

>  <SCORE.SYSTEM>
0

>  <SCORE.SYSTEM.CONST>
0

>  <SCORE.SYSTEM.DIHEDRAL>
0

>  <SCORE.SYSTEM.SOLV>
0

>  <SCORE.SYSTEM.norm>
0

>  <SCORE.heavy>
16

>  <SCORE.norm>
-0.854336

>  <RMSD>
15.568

$$$$
ligand
 OpenBabel02271912153D
libRbt.so/2013.1/901 2013/11/27
 16 17  0  0  0  0  0  0  0  0999 V2000
    5.7256   14.1751   70.9113 N   0  0  0  0  0  0  0  0  0  0  0  0
    4.9482   13.3358   71.7588 C   0  0  2  0  0  0  0  0  0  0  0  0
    4.1244   14.1306   72.7332 C   0  0  0  0  0  0  0  0  0  0  0  0
    2.9692   13.7366   73.0258 O   0  0  0  0  0  0  0  0  0  0  0  0
    2.7721    9.9880   68.4987 O   0  0  0  0  0  0  0  0  0  0  0  0
    5.8329   12.3811   72.5241 C   0  0  0  0  0  0  0  0  0  0  0  0
    6.4544   11.3172   71.6509 C   0  0  0  0  0  0  0  0  0  0  0  0
    7.7063   10.8593   71.7561 C   0  0  0  0  0  0  0  0  0  0  0  0
    5.6968   10.6749   70.6183 C   0  0  0  0  0  0  0  0  0  0  0  0
    6.6042    9.7364   70.0552 C   0  0  0  0  0  0  0  0  0  0  0  0
    4.4231   10.7664   70.1283 C   0  0  0  0  0  0  0  0  0  0  0  0
    7.7915    9.9136   70.7981 N   0  0  0  0  0  0  0  0  0  0  0  0
    6.2809    8.9205   69.0400 C   0  0  0  0  0  0  0  0  0  0  0  0
    4.0627    9.9153   69.0390 C   0  0  0  0  0  0  0  0  0  0  0  0
    5.0021    8.9796   68.4780 C   0  0  0  0  0  0  0  0  0  0  0  0
    4.5853   15.1799   73.2298 O   0  0  0  0  0  0  0  0  0  0  0  0
  2  1  1  1  0  0  0
  2  3  1  0  0  0  0
  2  6  1  0  0  0  0
  3  4  1  0  0  0  0
  3 16  1  0  0  0  0
  5 14  1  0  0  0  0
  6  7  1  0  0  0  0
  7  8  2  0  0  0  0
  7  9  1  0  0  0  0
  8 12  1  0  0  0  0
  9 10  2  0  0  0  0
  9 11  1  0  0  0  0
 10 13  1  0  0  0  0
 10 12  1  0  0  0  0
 11 14  2  0  0  0  0
 13 15  2  0  0  0  0
 14 15  1  0  0  0  0
M  END
>  <CHROM.1>
142.71294539,-70.06419466,140.37905700,5.23590455,11.61126110,70.94878377
-1.74700764,0.31387344,-2.46008049

>  <Name>
ligand

>  <RI>
0

>  <Rbt.Current_Directory>
/home/itssahil/PROJECTS/Mol_Feturizer/Test_systems_manuscript/rnas/5kpy

>  <Rbt.Executable>
rbdock ($Id: //depot/dev/client3/rdock/2013.1/src/exe/rbdock.cxx#4 $)

>  <Rbt.Library>
libRbt.so (2013.1, Build901 2013/11/27)

>  <Rbt.Parameter_File>
/export/apps/rDock/src/rDock_2013.1_src/data/scripts/dock_solv.prm

>  <Rbt.Receptor>
prm/blind_docking_80.prm

>  <SCORE>
-11.4572

>  <SCORE.INTER>
-11.3823

>  <SCORE.INTER.CONST>
1

>  <SCORE.INTER.POLAR>
0

>  <SCORE.INTER.ROT>
3

>  <SCORE.INTER.SOLV>
3.25562

>  <SCORE.INTER.VDW>
-14.2734

>  <SCORE.INTER.norm>
-0.711393

>  <SCORE.INTRA>
-0.0749079

>  <SCORE.INTRA.DIHEDRAL>
0.234454

>  <SCORE.INTRA.DIHEDRAL.0>
3.89056

>  <SCORE.INTRA.POLAR>
0

>  <SCORE.INTRA.POLAR.0>
0

>  <SCORE.INTRA.REPUL>
0

>  <SCORE.INTRA.REPUL.0>
0

>  <SCORE.INTRA.SOLV>
-0.236267

>  <SCORE.INTRA.SOLV.lig_0>
-20.733

>  <SCORE.INTRA.VDW>
-0.0740017

>  <SCORE.INTRA.VDW.0>
-0.828515

>  <SCORE.INTRA.norm>
-0.00468175

>  <SCORE.RESTR>
0

>  <SCORE.RESTR.CAVITY>
0

>  <SCORE.RESTR.norm>
0

>  <SCORE.SYSTEM>
0

>  <SCORE.SYSTEM.CONST>
0

>  <SCORE.SYSTEM.DIHEDRAL>
0

>  <SCORE.SYSTEM.SOLV>
0

>  <SCORE.SYSTEM.norm>
0

>  <SCORE.heavy>
16

>  <SCORE.norm>
-0.716075

>  <RMSD>
15.575

$$$$
ligand
 OpenBabel02271912153D
libRbt.so/2013.1/901 2013/11/27
 16 17  0  0  0  0  0  0  0  0999 V2000
    9.9352   10.4583   72.3481 N   0  0  0  0  0  0  0  0  0  0  0  0
    8.7386   10.7881   71.6506 C   0  0  2  0  0  0  0  0  0  0  0  0
    8.9976   11.7242   70.5032 C   0  0  0  0  0  0  0  0  0  0  0  0
    8.9465   12.9631   70.6974 O   0  0  0  0  0  0  0  0  0  0  0  0
    6.0387    8.0489   68.4494 O   0  0  0  0  0  0  0  0  0  0  0  0
    7.7315   11.4173   72.5831 C   0  0  0  0  0  0  0  0  0  0  0  0
    6.3880   11.6532   71.9350 C   0  0  0  0  0  0  0  0  0  0  0  0
    5.5348   12.6334   72.2499 C   0  0  0  0  0  0  0  0  0  0  0  0
    5.9276   10.8176   70.8660 C   0  0  0  0  0  0  0  0  0  0  0  0
    4.6648   11.3681   70.5148 C   0  0  0  0  0  0  0  0  0  0  0  0
    6.4063    9.7296   70.1893 C   0  0  0  0  0  0  0  0  0  0  0  0
    4.5042   12.4580   71.3975 N   0  0  0  0  0  0  0  0  0  0  0  0
    3.8903   10.8662   69.5406 C   0  0  0  0  0  0  0  0  0  0  0  0
    5.5913    9.1723   69.1569 C   0  0  0  0  0  0  0  0  0  0  0  0
    4.3106    9.7407   68.8256 C   0  0  0  0  0  0  0  0  0  0  0  0
    9.2444   11.2662   69.3677 O   0  0  0  0  0  0  0  0  0  0  0  0
  2  1  1  1  0  0  0
  2  3  1  0  0  0  0
  2  6  1  0  0  0  0
  3  4  1  0  0  0  0
  3 16  1  0  0  0  0
  5 14  1  0  0  0  0
  6  7  1  0  0  0  0
  7  8  2  0  0  0  0
  7  9  1  0  0  0  0
  8 12  1  0  0  0  0
  9 10  2  0  0  0  0
  9 11  1  0  0  0  0
 10 13  1  0  0  0  0
 10 12  1  0  0  0  0
 11 14  2  0  0  0  0
 13 15  2  0  0  0  0
 14 15  1  0  0  0  0
M  END
>  <CHROM.1>
-90.30692361,-173.80285358,-149.99167826,6.78751997,10.94710795,70.62436106
-0.52017564,0.07906121,-2.40072916

>  <Name>
ligand

>  <RI>
0

>  <Rbt.Current_Directory>
/home/itssahil/PROJECTS/Mol_Feturizer/Test_systems_manuscript/rnas/5kpy

>  <Rbt.Executable>
rbdock ($Id: //depot/dev/client3/rdock/2013.1/src/exe/rbdock.cxx#4 $)

>  <Rbt.Library>
libRbt.so (2013.1, Build901 2013/11/27)

>  <Rbt.Parameter_File>
/export/apps/rDock/src/rDock_2013.1_src/data/scripts/dock_solv.prm

>  <Rbt.Receptor>
prm/blind_docking_80.prm

>  <SCORE>
-13.5214

>  <SCORE.INTER>
-13.5633

>  <SCORE.INTER.CONST>
1

>  <SCORE.INTER.POLAR>
0

>  <SCORE.INTER.ROT>
3

>  <SCORE.INTER.SOLV>
14.4678

>  <SCORE.INTER.VDW>
-19.4648

>  <SCORE.INTER.norm>
-0.847706

>  <SCORE.INTRA>
0.0411749

>  <SCORE.INTRA.DIHEDRAL>
0.125571

>  <SCORE.INTRA.DIHEDRAL.0>
3.89056

>  <SCORE.INTRA.POLAR>
0

>  <SCORE.INTRA.POLAR.0>
0

>  <SCORE.INTRA.REPUL>
0

>  <SCORE.INTRA.REPUL.0>
0

>  <SCORE.INTRA.SOLV>
-1.1772

>  <SCORE.INTRA.SOLV.lig_0>
-20.733

>  <SCORE.INTRA.VDW>
0.56699

>  <SCORE.INTRA.VDW.0>
-0.828515

>  <SCORE.INTRA.norm>
0.00257343

>  <SCORE.RESTR>
0.000697433

>  <SCORE.RESTR.CAVITY>
0.000697433

>  <SCORE.RESTR.norm>
4.35896e-05

>  <SCORE.SYSTEM>
0

>  <SCORE.SYSTEM.CONST>
0

>  <SCORE.SYSTEM.DIHEDRAL>
0

>  <SCORE.SYSTEM.SOLV>
0

>  <SCORE.SYSTEM.norm>
0

>  <SCORE.heavy>
16

>  <SCORE.norm>
-0.845089

>  <RMSD>
15.579

$$$$
ligand
 OpenBabel02271912153D
libRbt.so/2013.1/901 2013/11/27
 16 17  0  0  0  0  0  0  0  0999 V2000
    8.3416   12.9128   70.7828 N   0  0  0  0  0  0  0  0  0  0  0  0
    8.6957   11.7803   71.5697 C   0  0  2  0  0  0  0  0  0  0  0  0
    9.0801   10.6029   70.7177 C   0  0  0  0  0  0  0  0  0  0  0  0
    9.4722    9.5465   71.2704 O   0  0  0  0  0  0  0  0  0  0  0  0
    6.0546    7.9282   68.3402 O   0  0  0  0  0  0  0  0  0  0  0  0
    7.5568   11.3818   72.4773 C   0  0  0  0  0  0  0  0  0  0  0  0
    6.2001   11.5397   71.8328 C   0  0  0  0  0  0  0  0  0  0  0  0
    5.2916   12.4675   72.1518 C   0  0  0  0  0  0  0  0  0  0  0  0
    5.7870   10.6807   70.7630 C   0  0  0  0  0  0  0  0  0  0  0  0
    4.4932   11.1569   70.4159 C   0  0  0  0  0  0  0  0  0  0  0  0
    6.3271    9.6240   70.0829 C   0  0  0  0  0  0  0  0  0  0  0  0
    4.2711   12.2337   71.3014 N   0  0  0  0  0  0  0  0  0  0  0  0
    3.7471   10.6123   69.4424 C   0  0  0  0  0  0  0  0  0  0  0  0
    5.5437    9.0220   69.0511 C   0  0  0  0  0  0  0  0  0  0  0  0
    4.2311    9.5149   68.7240 C   0  0  0  0  0  0  0  0  0  0  0  0
    9.0227   10.6881   69.4729 O   0  0  0  0  0  0  0  0  0  0  0  0
  2  1  1  6  0  0  0
  2  3  1  0  0  0  0
  2  6  1  0  0  0  0
  3  4  1  0  0  0  0
  3 16  1  0  0  0  0
  5 14  1  0  0  0  0
  6  7  1  0  0  0  0
  7  8  2  0  0  0  0
  7  9  1  0  0  0  0
  8 12  1  0  0  0  0
  9 10  2  0  0  0  0
  9 11  1  0  0  0  0
 10 13  1  0  0  0  0
 10 12  1  0  0  0  0
 11 14  2  0  0  0  0
 13 15  2  0  0  0  0
 14 15  1  0  0  0  0
M  END
>  <CHROM.1>
177.00063431,37.50127218,-109.04013902,6.61888582,10.70069026,70.51113276
0.45486409,-0.12216554,0.69438388

>  <Name>
ligand

>  <RI>
0

>  <Rbt.Current_Directory>
/home/itssahil/PROJECTS/Mol_Feturizer/Test_systems_manuscript/rnas/5kpy

>  <Rbt.Executable>
rbdock ($Id: //depot/dev/client3/rdock/2013.1/src/exe/rbdock.cxx#4 $)

>  <Rbt.Library>
libRbt.so (2013.1, Build901 2013/11/27)

>  <Rbt.Parameter_File>
/export/apps/rDock/src/rDock_2013.1_src/data/scripts/dock_solv.prm

>  <Rbt.Receptor>
prm/blind_docking_80.prm

>  <SCORE>
-13.524

>  <SCORE.INTER>
-13.9659

>  <SCORE.INTER.CONST>
1

>  <SCORE.INTER.POLAR>
0

>  <SCORE.INTER.ROT>
3

>  <SCORE.INTER.SOLV>
9.67388

>  <SCORE.INTER.VDW>
-18.1352

>  <SCORE.INTER.norm>
-0.87287

>  <SCORE.INTRA>
0.441955

>  <SCORE.INTRA.DIHEDRAL>
1.6513

>  <SCORE.INTRA.DIHEDRAL.0>
3.89056

>  <SCORE.INTRA.POLAR>
0

>  <SCORE.INTRA.POLAR.0>
0

>  <SCORE.INTRA.REPUL>
0

>  <SCORE.INTRA.REPUL.0>
0

>  <SCORE.INTRA.SOLV>
0.214668

>  <SCORE.INTRA.SOLV.lig_0>
-20.733

>  <SCORE.INTRA.VDW>
-0.49103

>  <SCORE.INTRA.VDW.0>
-0.828515

>  <SCORE.INTRA.norm>
0.0276222

>  <SCORE.RESTR>
0

>  <SCORE.RESTR.CAVITY>
0

>  <SCORE.RESTR.norm>
0

>  <SCORE.SYSTEM>
0

>  <SCORE.SYSTEM.CONST>
0

>  <SCORE.SYSTEM.DIHEDRAL>
0

>  <SCORE.SYSTEM.SOLV>
0

>  <SCORE.SYSTEM.norm>
0

>  <SCORE.heavy>
16

>  <SCORE.norm>
-0.845248

>  <RMSD>
15.585

$$$$
ligand
 OpenBabel02271912153D
libRbt.so/2013.1/901 2013/11/27
 16 17  0  0  0  0  0  0  0  0999 V2000
    6.1834   14.1535   70.8486 N   0  0  0  0  0  0  0  0  0  0  0  0
    5.3640   13.2753   71.6130 C   0  0  2  0  0  0  0  0  0  0  0  0
    4.5003   14.0221   72.5907 C   0  0  0  0  0  0  0  0  0  0  0  0
    4.9409   15.0688   73.1252 O   0  0  0  0  0  0  0  0  0  0  0  0
    2.9153    9.8874   68.5227 O   0  0  0  0  0  0  0  0  0  0  0  0
    6.2080   12.2741   72.3647 C   0  0  0  0  0  0  0  0  0  0  0  0
    6.7665   11.1847   71.4803 C   0  0  0  0  0  0  0  0  0  0  0  0
    8.0124   10.7022   71.5347 C   0  0  0  0  0  0  0  0  0  0  0  0
    5.9488   10.5435   70.4939 C   0  0  0  0  0  0  0  0  0  0  0  0
    6.8098    9.5780   69.9042 C   0  0  0  0  0  0  0  0  0  0  0  0
    4.6558   10.6545   70.0620 C   0  0  0  0  0  0  0  0  0  0  0  0
    8.0337    9.7411   70.5885 N   0  0  0  0  0  0  0  0  0  0  0  0
    6.4231    8.7544   68.9178 C   0  0  0  0  0  0  0  0  0  0  0  0
    4.2279    9.7954   69.0039 C   0  0  0  0  0  0  0  0  0  0  0  0
    5.1210    8.8321   68.4146 C   0  0  0  0  0  0  0  0  0  0  0  0
    3.3633   13.5905   72.8756 O   0  0  0  0  0  0  0  0  0  0  0  0
  2  1  1  1  0  0  0
  2  3  1  0  0  0  0
  2  6  1  0  0  0  0
  3  4  1  0  0  0  0
  3 16  1  0  0  0  0
  5 14  1  0  0  0  0
  6  7  1  0  0  0  0
  7  8  2  0  0  0  0
  7  9  1  0  0  0  0
  8 12  1  0  0  0  0
  9 10  2  0  0  0  0
  9 11  1  0  0  0  0
 10 13  1  0  0  0  0
 10 12  1  0  0  0  0
 11 14  2  0  0  0  0
 13 15  2  0  0  0  0
 14 15  1  0  0  0  0
M  END
>  <CHROM.1>
-33.99602780,-75.04740709,137.50872393,5.52062876,11.49028750,70.83125930
-1.70102157,0.27976610,-2.49151111

>  <Name>
ligand

>  <RI>
0

>  <Rbt.Current_Directory>
/home/itssahil/PROJECTS/Mol_Feturizer/Test_systems_manuscript/rnas/5kpy

>  <Rbt.Executable>
rbdock ($Id: //depot/dev/client3/rdock/2013.1/src/exe/rbdock.cxx#4 $)

>  <Rbt.Library>
libRbt.so (2013.1, Build901 2013/11/27)

>  <Rbt.Parameter_File>
/export/apps/rDock/src/rDock_2013.1_src/data/scripts/dock_solv.prm

>  <Rbt.Receptor>
prm/blind_docking_80.prm

>  <SCORE>
-11.46

>  <SCORE.INTER>
-11.4448

>  <SCORE.INTER.CONST>
1

>  <SCORE.INTER.POLAR>
0

>  <SCORE.INTER.ROT>
3

>  <SCORE.INTER.SOLV>
3.35123

>  <SCORE.INTER.VDW>
-14.3469

>  <SCORE.INTER.norm>
-0.715299

>  <SCORE.INTRA>
-0.0151814

>  <SCORE.INTRA.DIHEDRAL>
0.648699

>  <SCORE.INTRA.DIHEDRAL.0>
3.89056

>  <SCORE.INTRA.POLAR>
0

>  <SCORE.INTRA.POLAR.0>
0

>  <SCORE.INTRA.REPUL>
0

>  <SCORE.INTRA.REPUL.0>
0

>  <SCORE.INTRA.SOLV>
-0.441879

>  <SCORE.INTRA.SOLV.lig_0>
-20.733

>  <SCORE.INTRA.VDW>
-0.118591

>  <SCORE.INTRA.VDW.0>
-0.828515

>  <SCORE.INTRA.norm>
-0.000948839

>  <SCORE.RESTR>
0

>  <SCORE.RESTR.CAVITY>
0

>  <SCORE.RESTR.norm>
0

>  <SCORE.SYSTEM>
0

>  <SCORE.SYSTEM.CONST>
0

>  <SCORE.SYSTEM.DIHEDRAL>
0

>  <SCORE.SYSTEM.SOLV>
0

>  <SCORE.SYSTEM.norm>
0

>  <SCORE.heavy>
16

>  <SCORE.norm>
-0.716248

>  <RMSD>
15.586

$$$$
ligand
 OpenBabel02271912153D
libRbt.so/2013.1/901 2013/11/27
 16 17  0  0  0  0  0  0  0  0999 V2000
    6.4693   14.2437   71.0039 N   0  0  0  0  0  0  0  0  0  0  0  0
    5.5399   13.3384   71.5901 C   0  0  2  0  0  0  0  0  0  0  0  0
    4.5822   14.0373   72.5143 C   0  0  0  0  0  0  0  0  0  0  0  0
    4.9431   15.0929   73.0895 O   0  0  0  0  0  0  0  0  0  0  0  0
    2.9104    9.8984   68.5406 O   0  0  0  0  0  0  0  0  0  0  0  0
    6.2592   12.2526   72.3541 C   0  0  0  0  0  0  0  0  0  0  0  0
    6.7996   11.1584   71.4645 C   0  0  0  0  0  0  0  0  0  0  0  0
    8.0413   10.6641   71.5077 C   0  0  0  0  0  0  0  0  0  0  0  0
    5.9672   10.5252   70.4852 C   0  0  0  0  0  0  0  0  0  0  0  0
    6.8138    9.5519   69.8875 C   0  0  0  0  0  0  0  0  0  0  0  0
    4.6715   10.6486   70.0647 C   0  0  0  0  0  0  0  0  0  0  0  0
    8.0452    9.7032   70.5611 N   0  0  0  0  0  0  0  0  0  0  0  0
    6.4107    8.7323   68.9044 C   0  0  0  0  0  0  0  0  0  0  0  0
    4.2262    9.7939   69.0102 C   0  0  0  0  0  0  0  0  0  0  0  0
    5.1050    8.8225   68.4127 C   0  0  0  0  0  0  0  0  0  0  0  0
    3.4466   13.5577   72.7154 O   0  0  0  0  0  0  0  0  0  0  0  0
  2  1  1  1  0  0  0
  2  3  1  0  0  0  0
  2  6  1  0  0  0  0
  3  4  1  0  0  0  0
  3 16  1  0  0  0  0
  5 14  1  0  0  0  0
  6  7  1  0  0  0  0
  7  8  2  0  0  0  0
  7  9  1  0  0  0  0
  8 12  1  0  0  0  0
  9 10  2  0  0  0  0
  9 11  1  0  0  0  0
 10 13  1  0  0  0  0
 10 12  1  0  0  0  0
 11 14  2  0  0  0  0
 13 15  2  0  0  0  0
 14 15  1  0  0  0  0
M  END
>  <CHROM.1>
-27.64254550,-79.61537125,131.51277251,5.56933865,11.48884384,70.81554832
-1.67413792,0.27225558,-2.51173141

>  <Name>
ligand

>  <RI>
0

>  <Rbt.Current_Directory>
/home/itssahil/PROJECTS/Mol_Feturizer/Test_systems_manuscript/rnas/5kpy

>  <Rbt.Executable>
rbdock ($Id: //depot/dev/client3/rdock/2013.1/src/exe/rbdock.cxx#4 $)

>  <Rbt.Library>
libRbt.so (2013.1, Build901 2013/11/27)

>  <Rbt.Parameter_File>
/export/apps/rDock/src/rDock_2013.1_src/data/scripts/dock_solv.prm

>  <Rbt.Receptor>
prm/blind_docking_80.prm

>  <SCORE>
-11.3993

>  <SCORE.INTER>
-11.5167

>  <SCORE.INTER.CONST>
1

>  <SCORE.INTER.POLAR>
0

>  <SCORE.INTER.ROT>
3

>  <SCORE.INTER.SOLV>
3.45004

>  <SCORE.INTER.VDW>
-14.4278

>  <SCORE.INTER.norm>
-0.719791

>  <SCORE.INTRA>
0.117371

>  <SCORE.INTRA.DIHEDRAL>
1.21896

>  <SCORE.INTRA.DIHEDRAL.0>
3.89056

>  <SCORE.INTRA.POLAR>
0

>  <SCORE.INTRA.POLAR.0>
0

>  <SCORE.INTRA.REPUL>
0

>  <SCORE.INTRA.REPUL.0>
0

>  <SCORE.INTRA.SOLV>
-0.606424

>  <SCORE.INTRA.SOLV.lig_0>
-20.733

>  <SCORE.INTRA.VDW>
-0.188895

>  <SCORE.INTRA.VDW.0>
-0.828515

>  <SCORE.INTRA.norm>
0.00733566

>  <SCORE.RESTR>
0

>  <SCORE.RESTR.CAVITY>
0

>  <SCORE.RESTR.norm>
0

>  <SCORE.SYSTEM>
0

>  <SCORE.SYSTEM.CONST>
0

>  <SCORE.SYSTEM.DIHEDRAL>
0

>  <SCORE.SYSTEM.SOLV>
0

>  <SCORE.SYSTEM.norm>
0

>  <SCORE.heavy>
16

>  <SCORE.norm>
-0.712455

>  <RMSD>
15.593

$$$$
ligand
 OpenBabel02271912153D
libRbt.so/2013.1/901 2013/11/27
 16 17  0  0  0  0  0  0  0  0999 V2000
    9.8215   10.5807   72.3093 N   0  0  0  0  0  0  0  0  0  0  0  0
    8.6294   10.8826   71.5918 C   0  0  2  0  0  0  0  0  0  0  0  0
    8.8544   11.9430   70.5503 C   0  0  0  0  0  0  0  0  0  0  0  0
    9.1418   11.6011   69.3773 O   0  0  0  0  0  0  0  0  0  0  0  0
    6.0169    7.9446   68.3526 O   0  0  0  0  0  0  0  0  0  0  0  0
    7.5393   11.3379   72.5320 C   0  0  0  0  0  0  0  0  0  0  0  0
    6.2131   11.5557   71.8431 C   0  0  0  0  0  0  0  0  0  0  0  0
    5.3380   12.5250   72.1309 C   0  0  0  0  0  0  0  0  0  0  0  0
    5.7964   10.7134   70.7616 C   0  0  0  0  0  0  0  0  0  0  0  0
    4.5377   11.2471   70.3716 C   0  0  0  0  0  0  0  0  0  0  0  0
    6.3095    9.6313   70.1009 C   0  0  0  0  0  0  0  0  0  0  0  0
    4.3362   12.3355   71.2478 N   0  0  0  0  0  0  0  0  0  0  0  0
    3.7997   10.7345   69.3748 C   0  0  0  0  0  0  0  0  0  0  0  0
    5.5335    9.0627   69.0449 C   0  0  0  0  0  0  0  0  0  0  0  0
    4.2563    9.6140   68.6742 C   0  0  0  0  0  0  0  0  0  0  0  0
    8.7705   13.1500   70.8603 O   0  0  0  0  0  0  0  0  0  0  0  0
  2  1  1  1  0  0  0
  2  3  1  0  0  0  0
  2  6  1  0  0  0  0
  3  4  1  0  0  0  0
  3 16  1  0  0  0  0
  5 14  1  0  0  0  0
  6  7  1  0  0  0  0
  7  8  2  0  0  0  0
  7  9  1  0  0  0  0
  8 12  1  0  0  0  0
  9 10  2  0  0  0  0
  9 11  1  0  0  0  0
 10 13  1  0  0  0  0
 10 12  1  0  0  0  0
 11 14  2  0  0  0  0
 13 15  2  0  0  0  0
 14 15  1  0  0  0  0
M  END
>  <CHROM.1>
92.74182253,-174.90524356,-142.86105788,6.66555939,10.94067974,70.55770686
-0.59881573,0.06540255,-2.42420975

>  <Name>
ligand

>  <RI>
0

>  <Rbt.Current_Directory>
/home/itssahil/PROJECTS/Mol_Feturizer/Test_systems_manuscript/rnas/5kpy

>  <Rbt.Executable>
rbdock ($Id: //depot/dev/client3/rdock/2013.1/src/exe/rbdock.cxx#4 $)

>  <Rbt.Library>
libRbt.so (2013.1, Build901 2013/11/27)

>  <Rbt.Parameter_File>
/export/apps/rDock/src/rDock_2013.1_src/data/scripts/dock_solv.prm

>  <Rbt.Receptor>
prm/blind_docking_80.prm

>  <SCORE>
-13.5052

>  <SCORE.INTER>
-13.1296

>  <SCORE.INTER.CONST>
1

>  <SCORE.INTER.POLAR>
0

>  <SCORE.INTER.ROT>
3

>  <SCORE.INTER.SOLV>
14.0503

>  <SCORE.INTER.VDW>
-19.0365

>  <SCORE.INTER.norm>
-0.820603

>  <SCORE.INTRA>
-0.375546

>  <SCORE.INTRA.DIHEDRAL>
0.0095187

>  <SCORE.INTRA.DIHEDRAL.0>
3.89056

>  <SCORE.INTRA.POLAR>
0

>  <SCORE.INTRA.POLAR.0>
0

>  <SCORE.INTRA.REPUL>
0

>  <SCORE.INTRA.REPUL.0>
0

>  <SCORE.INTRA.SOLV>
-1.17129

>  <SCORE.INTRA.SOLV.lig_0>
-20.733

>  <SCORE.INTRA.VDW>
0.205338

>  <SCORE.INTRA.VDW.0>
-0.828515

>  <SCORE.INTRA.norm>
-0.0234716

>  <SCORE.RESTR>
0

>  <SCORE.RESTR.CAVITY>
0

>  <SCORE.RESTR.norm>
0

>  <SCORE.SYSTEM>
0

>  <SCORE.SYSTEM.CONST>
0

>  <SCORE.SYSTEM.DIHEDRAL>
0

>  <SCORE.SYSTEM.SOLV>
0

>  <SCORE.SYSTEM.norm>
0

>  <SCORE.heavy>
16

>  <SCORE.norm>
-0.844075

>  <RMSD>
15.618

$$$$
ligand
 OpenBabel02271912153D
libRbt.so/2013.1/901 2013/11/27
 16 17  0  0  0  0  0  0  0  0999 V2000
    4.6554   15.1281   72.0013 N   0  0  0  0  0  0  0  0  0  0  0  0
    4.1932   13.7979   72.2110 C   0  0  2  0  0  0  0  0  0  0  0  0
    3.2598   13.7066   73.3858 C   0  0  0  0  0  0  0  0  0  0  0  0
    2.2158   13.0167   73.2890 O   0  0  0  0  0  0  0  0  0  0  0  0
   10.0382    9.8203   72.7958 O   0  0  0  0  0  0  0  0  0  0  0  0
    5.3532   12.8560   72.4282 C   0  0  0  0  0  0  0  0  0  0  0  0
    6.2732   12.7611   71.2342 C   0  0  0  0  0  0  0  0  0  0  0  0
    6.0828   13.3655   70.0567 C   0  0  0  0  0  0  0  0  0  0  0  0
    7.4869   12.0023   71.2965 C   0  0  0  0  0  0  0  0  0  0  0  0
    8.0737   12.1809   70.0139 C   0  0  0  0  0  0  0  0  0  0  0  0
    8.1240   11.2373   72.2344 C   0  0  0  0  0  0  0  0  0  0  0  0
    7.1629   13.0144   69.3292 N   0  0  0  0  0  0  0  0  0  0  0  0
    9.2402   11.6224   69.6559 C   0  0  0  0  0  0  0  0  0  0  0  0
    9.3610   10.6234   71.8688 C   0  0  0  0  0  0  0  0  0  0  0  0
    9.9311   10.8101   70.5600 C   0  0  0  0  0  0  0  0  0  0  0  0
    3.5190   14.3269   74.4385 O   0  0  0  0  0  0  0  0  0  0  0  0
  2  1  1  1  0  0  0
  2  3  1  0  0  0  0
  2  6  1  0  0  0  0
  3  4  1  0  0  0  0
  3 16  1  0  0  0  0
  5 14  1  0  0  0  0
  6  7  1  0  0  0  0
  7  8  2  0  0  0  0
  7  9  1  0  0  0  0
  8 12  1  0  0  0  0
  9 10  2  0  0  0  0
  9 11  1  0  0  0  0
 10 13  1  0  0  0  0
 10 12  1  0  0  0  0
 11 14  2  0  0  0  0
 13 15  2  0  0  0  0
 14 15  1  0  0  0  0
M  END
>  <CHROM.1>
136.77565588,-62.64514283,-3.79188369,6.45165724,12.54831285,71.76949731
3.04955107,-0.54227964,2.01455007

>  <Name>
ligand

>  <RI>
0

>  <Rbt.Current_Directory>
/home/itssahil/PROJECTS/Mol_Feturizer/Test_systems_manuscript/rnas/5kpy

>  <Rbt.Executable>
rbdock ($Id: //depot/dev/client3/rdock/2013.1/src/exe/rbdock.cxx#4 $)

>  <Rbt.Library>
libRbt.so (2013.1, Build901 2013/11/27)

>  <Rbt.Parameter_File>
/export/apps/rDock/src/rDock_2013.1_src/data/scripts/dock_solv.prm

>  <Rbt.Receptor>
prm/blind_docking_80.prm

>  <SCORE>
-11.4397

>  <SCORE.INTER>
-11.7598

>  <SCORE.INTER.CONST>
1

>  <SCORE.INTER.POLAR>
0

>  <SCORE.INTER.ROT>
3

>  <SCORE.INTER.SOLV>
5.84875

>  <SCORE.INTER.VDW>
-15.3895

>  <SCORE.INTER.norm>
-0.73499

>  <SCORE.INTRA>
0.292058

>  <SCORE.INTRA.DIHEDRAL>
-0.0556325

>  <SCORE.INTRA.DIHEDRAL.0>
3.89056

>  <SCORE.INTRA.POLAR>
0

>  <SCORE.INTRA.POLAR.0>
0

>  <SCORE.INTRA.REPUL>
0

>  <SCORE.INTRA.REPUL.0>
0

>  <SCORE.INTRA.SOLV>
-0.11003

>  <SCORE.INTRA.SOLV.lig_0>
-20.733

>  <SCORE.INTRA.VDW>
0.374889

>  <SCORE.INTRA.VDW.0>
-0.828515

>  <SCORE.INTRA.norm>
0.0182536

>  <SCORE.RESTR>
0.0280651

>  <SCORE.RESTR.CAVITY>
0.0280651

>  <SCORE.RESTR.norm>
0.00175407

>  <SCORE.SYSTEM>
0

>  <SCORE.SYSTEM.CONST>
0

>  <SCORE.SYSTEM.DIHEDRAL>
0

>  <SCORE.SYSTEM.SOLV>
0

>  <SCORE.SYSTEM.norm>
0

>  <SCORE.heavy>
16

>  <SCORE.norm>
-0.714983

>  <RMSD>
15.627

$$$$
ligand
 OpenBabel02271912153D
libRbt.so/2013.1/901 2013/11/27
 16 17  0  0  0  0  0  0  0  0999 V2000
    4.8948   11.5453   72.6401 N   0  0  0  0  0  0  0  0  0  0  0  0
    5.7652   12.6669   72.7475 C   0  0  2  0  0  0  0  0  0  0  0  0
    5.0064   13.9638   72.7937 C   0  0  0  0  0  0  0  0  0  0  0  0
    4.9405   14.6743   71.7611 O   0  0  0  0  0  0  0  0  0  0  0  0
    2.8766   10.5898   68.1366 O   0  0  0  0  0  0  0  0  0  0  0  0
    6.7358   12.7040   71.5915 C   0  0  0  0  0  0  0  0  0  0  0  0
    6.9630   11.3498   70.9627 C   0  0  0  0  0  0  0  0  0  0  0  0
    8.0270   10.5664   71.1679 C   0  0  0  0  0  0  0  0  0  0  0  0
    5.9908   10.7727   70.0825 C   0  0  0  0  0  0  0  0  0  0  0  0
    6.5456    9.5114   69.7324 C   0  0  0  0  0  0  0  0  0  0  0  0
    4.7752   11.1439   69.5772 C   0  0  0  0  0  0  0  0  0  0  0  0
    7.7729    9.4673   70.4285 N   0  0  0  0  0  0  0  0  0  0  0  0
    5.9371    8.6450   68.9078 C   0  0  0  0  0  0  0  0  0  0  0  0
    4.1167   10.2411   68.6873 C   0  0  0  0  0  0  0  0  0  0  0  0
    4.7029    8.9731   68.3387 C   0  0  0  0  0  0  0  0  0  0  0  0
    4.4636   14.3318   73.8567 O   0  0  0  0  0  0  0  0  0  0  0  0
  2  1  1  6  0  0  0
  2  3  1  0  0  0  0
  2  6  1  0  0  0  0
  3  4  1  0  0  0  0
  3 16  1  0  0  0  0
  5 14  1  0  0  0  0
  6  7  1  0  0  0  0
  7  8  2  0  0  0  0
  7  9  1  0  0  0  0
  8 12  1  0  0  0  0
  9 10  2  0  0  0  0
  9 11  1  0  0  0  0
 10 13  1  0  0  0  0
 10 12  1  0  0  0  0
 11 14  2  0  0  0  0
 13 15  2  0  0  0  0
 14 15  1  0  0  0  0
M  END
>  <CHROM.1>
-102.05938262,-23.99206789,-101.64482018,5.53524597,11.43223363,70.77737445
-1.60613604,0.43075645,-2.38627008

>  <Name>
ligand

>  <RI>
0

>  <Rbt.Current_Directory>
/home/itssahil/PROJECTS/Mol_Feturizer/Test_systems_manuscript/rnas/5kpy

>  <Rbt.Executable>
rbdock ($Id: //depot/dev/client3/rdock/2013.1/src/exe/rbdock.cxx#4 $)

>  <Rbt.Library>
libRbt.so (2013.1, Build901 2013/11/27)

>  <Rbt.Parameter_File>
/export/apps/rDock/src/rDock_2013.1_src/data/scripts/dock_solv.prm

>  <Rbt.Receptor>
prm/blind_docking_80.prm

>  <SCORE>
-6.65196

>  <SCORE.INTER>
-9.98032

>  <SCORE.INTER.CONST>
1

>  <SCORE.INTER.POLAR>
0

>  <SCORE.INTER.ROT>
3

>  <SCORE.INTER.SOLV>
9.27855

>  <SCORE.INTER.VDW>
-15.3464

>  <SCORE.INTER.norm>
-0.62377

>  <SCORE.INTRA>
3.32659

>  <SCORE.INTRA.DIHEDRAL>
3.59302

>  <SCORE.INTRA.DIHEDRAL.0>
3.89056

>  <SCORE.INTRA.POLAR>
0

>  <SCORE.INTRA.POLAR.0>
0

>  <SCORE.INTRA.REPUL>
0

>  <SCORE.INTRA.REPUL.0>
0

>  <SCORE.INTRA.SOLV>
0.882354

>  <SCORE.INTRA.SOLV.lig_0>
-20.733

>  <SCORE.INTRA.VDW>
1.0889

>  <SCORE.INTRA.VDW.0>
-0.828515

>  <SCORE.INTRA.norm>
0.207912

>  <SCORE.RESTR>
0.00176741

>  <SCORE.RESTR.CAVITY>
0.00176741

>  <SCORE.RESTR.norm>
0.000110463

>  <SCORE.SYSTEM>
0

>  <SCORE.SYSTEM.CONST>
0

>  <SCORE.SYSTEM.DIHEDRAL>
0

>  <SCORE.SYSTEM.SOLV>
0

>  <SCORE.SYSTEM.norm>
0

>  <SCORE.heavy>
16

>  <SCORE.norm>
-0.415748

>  <RMSD>
15.633

$$$$
ligand
 OpenBabel02271912153D
libRbt.so/2013.1/901 2013/11/27
 16 17  0  0  0  0  0  0  0  0999 V2000
    8.3881   12.7155   70.4489 N   0  0  0  0  0  0  0  0  0  0  0  0
    8.8091   11.7076   71.3620 C   0  0  2  0  0  0  0  0  0  0  0  0
    9.2649   10.4629   70.6531 C   0  0  0  0  0  0  0  0  0  0  0  0
    9.8288    9.5536   71.3092 O   0  0  0  0  0  0  0  0  0  0  0  0
    6.0045    7.8496   68.2951 O   0  0  0  0  0  0  0  0  0  0  0  0
    7.6953   11.3515   72.3173 C   0  0  0  0  0  0  0  0  0  0  0  0
    6.3202   11.5189   71.7156 C   0  0  0  0  0  0  0  0  0  0  0  0
    5.4366   12.4659   72.0479 C   0  0  0  0  0  0  0  0  0  0  0  0
    5.8589   10.6477   70.6758 C   0  0  0  0  0  0  0  0  0  0  0  0
    4.5612   11.1375   70.3635 C   0  0  0  0  0  0  0  0  0  0  0  0
    6.3602    9.5713   69.9971 C   0  0  0  0  0  0  0  0  0  0  0  0
    4.3848   12.2328   71.2363 N   0  0  0  0  0  0  0  0  0  0  0  0
    3.7750   10.5875   69.4253 C   0  0  0  0  0  0  0  0  0  0  0  0
    5.5339    8.9633   69.0030 C   0  0  0  0  0  0  0  0  0  0  0  0
    4.2184    9.4704   68.7110 C   0  0  0  0  0  0  0  0  0  0  0  0
    9.0955   10.3489   69.4209 O   0  0  0  0  0  0  0  0  0  0  0  0
  2  1  1  6  0  0  0
  2  3  1  0  0  0  0
  2  6  1  0  0  0  0
  3  4  1  0  0  0  0
  3 16  1  0  0  0  0
  5 14  1  0  0  0  0
  6  7  1  0  0  0  0
  7  8  2  0  0  0  0
  7  9  1  0  0  0  0
  8 12  1  0  0  0  0
  9 10  2  0  0  0  0
  9 11  1  0  0  0  0
 10 13  1  0  0  0  0
 10 12  1  0  0  0  0
 11 14  2  0  0  0  0
 13 15  2  0  0  0  0
 14 15  1  0  0  0  0
M  END
>  <CHROM.1>
170.68489247,30.22795730,-109.44098237,6.71018723,10.62744406,70.42327798
0.36073724,-0.13558090,0.67550037

>  <Name>
ligand

>  <RI>
0

>  <Rbt.Current_Directory>
/home/itssahil/PROJECTS/Mol_Feturizer/Test_systems_manuscript/rnas/5kpy

>  <Rbt.Executable>
rbdock ($Id: //depot/dev/client3/rdock/2013.1/src/exe/rbdock.cxx#4 $)

>  <Rbt.Library>
libRbt.so (2013.1, Build901 2013/11/27)

>  <Rbt.Parameter_File>
/export/apps/rDock/src/rDock_2013.1_src/data/scripts/dock_solv.prm

>  <Rbt.Receptor>
prm/blind_docking_80.prm

>  <SCORE>
-13.5814

>  <SCORE.INTER>
-14.6877

>  <SCORE.INTER.CONST>
1

>  <SCORE.INTER.POLAR>
0

>  <SCORE.INTER.ROT>
3

>  <SCORE.INTER.SOLV>
10.0822

>  <SCORE.INTER.VDW>
-18.7525

>  <SCORE.INTER.norm>
-0.917979

>  <SCORE.INTRA>
1.10625

>  <SCORE.INTRA.DIHEDRAL>
2.74177

>  <SCORE.INTRA.DIHEDRAL.0>
3.89056

>  <SCORE.INTRA.POLAR>
0

>  <SCORE.INTRA.POLAR.0>
0

>  <SCORE.INTRA.REPUL>
0

>  <SCORE.INTRA.REPUL.0>
0

>  <SCORE.INTRA.SOLV>
0.395367

>  <SCORE.INTRA.SOLV.lig_0>
-20.733

>  <SCORE.INTRA.VDW>
-0.462314

>  <SCORE.INTRA.VDW.0>
-0.828515

>  <SCORE.INTRA.norm>
0.0691408

>  <SCORE.RESTR>
0

>  <SCORE.RESTR.CAVITY>
0

>  <SCORE.RESTR.norm>
0

>  <SCORE.SYSTEM>
0

>  <SCORE.SYSTEM.CONST>
0

>  <SCORE.SYSTEM.DIHEDRAL>
0

>  <SCORE.SYSTEM.SOLV>
0

>  <SCORE.SYSTEM.norm>
0

>  <SCORE.heavy>
16

>  <SCORE.norm>
-0.848838

>  <RMSD>
15.637

$$$$
ligand
 OpenBabel02271912153D
libRbt.so/2013.1/901 2013/11/27
 16 17  0  0  0  0  0  0  0  0999 V2000
    5.8595   13.6636   70.8664 N   0  0  0  0  0  0  0  0  0  0  0  0
    6.8584   13.7457   71.8776 C   0  0  2  0  0  0  0  0  0  0  0  0
    8.1892   14.1662   71.3191 C   0  0  0  0  0  0  0  0  0  0  0  0
    8.6470   13.5753   70.3109 O   0  0  0  0  0  0  0  0  0  0  0  0
    3.2306   10.2570   69.0775 O   0  0  0  0  0  0  0  0  0  0  0  0
    7.0161   12.4202   72.5833 C   0  0  0  0  0  0  0  0  0  0  0  0
    7.4175   11.2975   71.6563 C   0  0  0  0  0  0  0  0  0  0  0  0
    8.6289   10.7346   71.5967 C   0  0  0  0  0  0  0  0  0  0  0  0
    6.4712   10.7119   70.7538 C   0  0  0  0  0  0  0  0  0  0  0  0
    7.2087    9.6929   70.0913 C   0  0  0  0  0  0  0  0  0  0  0  0
    5.1535   10.9075   70.4437 C   0  0  0  0  0  0  0  0  0  0  0  0
    8.4992    9.7751   70.6576 N   0  0  0  0  0  0  0  0  0  0  0  0
    6.6788    8.8972   69.1495 C   0  0  0  0  0  0  0  0  0  0  0  0
    4.5736   10.0791   69.4346 C   0  0  0  0  0  0  0  0  0  0  0  0
    5.3432    9.0601   68.7696 C   0  0  0  0  0  0  0  0  0  0  0  0
    8.8343   15.0842   71.8678 O   0  0  0  0  0  0  0  0  0  0  0  0
  2  1  1  6  0  0  0
  2  3  1  0  0  0  0
  2  6  1  0  0  0  0
  3  4  1  0  0  0  0
  3 16  1  0  0  0  0
  5 14  1  0  0  0  0
  6  7  1  0  0  0  0
  7  8  2  0  0  0  0
  7  9  1  0  0  0  0
  8 12  1  0  0  0  0
  9 10  2  0  0  0  0
  9 11  1  0  0  0  0
 10 13  1  0  0  0  0
 10 12  1  0  0  0  0
 11 14  2  0  0  0  0
 13 15  2  0  0  0  0
 14 15  1  0  0  0  0
M  END
>  <CHROM.1>
-49.57511703,59.84311726,106.67444364,6.80457100,11.61095791,70.66649273
0.98890357,-0.27992011,0.29229100

>  <Name>
ligand

>  <RI>
0

>  <Rbt.Current_Directory>
/home/itssahil/PROJECTS/Mol_Feturizer/Test_systems_manuscript/rnas/5kpy

>  <Rbt.Executable>
rbdock ($Id: //depot/dev/client3/rdock/2013.1/src/exe/rbdock.cxx#4 $)

>  <Rbt.Library>
libRbt.so (2013.1, Build901 2013/11/27)

>  <Rbt.Parameter_File>
/export/apps/rDock/src/rDock_2013.1_src/data/scripts/dock_solv.prm

>  <Rbt.Receptor>
prm/blind_docking_80.prm

>  <SCORE>
-14.2904

>  <SCORE.INTER>
-13.8398

>  <SCORE.INTER.CONST>
1

>  <SCORE.INTER.POLAR>
0

>  <SCORE.INTER.ROT>
3

>  <SCORE.INTER.SOLV>
3.2637

>  <SCORE.INTER.VDW>
-15.9144

>  <SCORE.INTER.norm>
-0.864986

>  <SCORE.INTRA>
-0.450649

>  <SCORE.INTRA.DIHEDRAL>
-0.0918889

>  <SCORE.INTRA.DIHEDRAL.0>
3.89056

>  <SCORE.INTRA.POLAR>
0

>  <SCORE.INTRA.POLAR.0>
0

>  <SCORE.INTRA.REPUL>
0

>  <SCORE.INTRA.REPUL.0>
0

>  <SCORE.INTRA.SOLV>
0.531497

>  <SCORE.INTRA.SOLV.lig_0>
-20.733

>  <SCORE.INTRA.VDW>
-0.670453

>  <SCORE.INTRA.VDW.0>
-0.828515

>  <SCORE.INTRA.norm>
-0.0281656

>  <SCORE.RESTR>
0

>  <SCORE.RESTR.CAVITY>
0

>  <SCORE.RESTR.norm>
0

>  <SCORE.SYSTEM>
0

>  <SCORE.SYSTEM.CONST>
0

>  <SCORE.SYSTEM.DIHEDRAL>
0

>  <SCORE.SYSTEM.SOLV>
0

>  <SCORE.SYSTEM.norm>
0

>  <SCORE.heavy>
16

>  <SCORE.norm>
-0.893151

>  <RMSD>
15.736

$$$$
ligand
 OpenBabel02271912153D
libRbt.so/2013.1/901 2013/11/27
 16 17  0  0  0  0  0  0  0  0999 V2000
    5.8728   13.7030   70.8794 N   0  0  0  0  0  0  0  0  0  0  0  0
    6.8938   13.7435   71.8707 C   0  0  2  0  0  0  0  0  0  0  0  0
    8.2310   14.1023   71.2850 C   0  0  0  0  0  0  0  0  0  0  0  0
    8.8889   15.0456   71.7875 O   0  0  0  0  0  0  0  0  0  0  0  0
    3.2419   10.2955   69.0230 O   0  0  0  0  0  0  0  0  0  0  0  0
    7.0057   12.4146   72.5787 C   0  0  0  0  0  0  0  0  0  0  0  0
    7.4048   11.2839   71.6604 C   0  0  0  0  0  0  0  0  0  0  0  0
    8.6089   10.7039   71.6200 C   0  0  0  0  0  0  0  0  0  0  0  0
    6.4636   10.7093   70.7456 C   0  0  0  0  0  0  0  0  0  0  0  0
    7.1963    9.6782   70.0965 C   0  0  0  0  0  0  0  0  0  0  0  0
    5.1535   10.9226   70.4157 C   0  0  0  0  0  0  0  0  0  0  0  0
    8.4794    9.7438   70.6815 N   0  0  0  0  0  0  0  0  0  0  0  0
    6.6691    8.8876   69.1490 C   0  0  0  0  0  0  0  0  0  0  0  0
    4.5769   10.0998   69.4003 C   0  0  0  0  0  0  0  0  0  0  0  0
    5.3417    9.0683   68.7491 C   0  0  0  0  0  0  0  0  0  0  0  0
    8.6688   13.4741   70.2981 O   0  0  0  0  0  0  0  0  0  0  0  0
  2  1  1  6  0  0  0
  2  3  1  0  0  0  0
  2  6  1  0  0  0  0
  3  4  1  0  0  0  0
  3 16  1  0  0  0  0
  5 14  1  0  0  0  0
  6  7  1  0  0  0  0
  7  8  2  0  0  0  0
  7  9  1  0  0  0  0
  8 12  1  0  0  0  0
  9 10  2  0  0  0  0
  9 11  1  0  0  0  0
 10 13  1  0  0  0  0
 10 12  1  0  0  0  0
 11 14  2  0  0  0  0
 13 15  2  0  0  0  0
 14 15  1  0  0  0  0
M  END
>  <CHROM.1>
127.57774491,62.66834461,105.95938702,6.81121914,11.59813740,70.65173963
0.97694568,-0.29286811,0.28482245

>  <Name>
ligand

>  <RI>
0

>  <Rbt.Current_Directory>
/home/itssahil/PROJECTS/Mol_Feturizer/Test_systems_manuscript/rnas/5kpy

>  <Rbt.Executable>
rbdock ($Id: //depot/dev/client3/rdock/2013.1/src/exe/rbdock.cxx#4 $)

>  <Rbt.Library>
libRbt.so (2013.1, Build901 2013/11/27)

>  <Rbt.Parameter_File>
/export/apps/rDock/src/rDock_2013.1_src/data/scripts/dock_solv.prm

>  <Rbt.Receptor>
prm/blind_docking_80.prm

>  <SCORE>
-14.345

>  <SCORE.INTER>
-13.8965

>  <SCORE.INTER.CONST>
1

>  <SCORE.INTER.POLAR>
0

>  <SCORE.INTER.ROT>
3

>  <SCORE.INTER.SOLV>
3.26468

>  <SCORE.INTER.VDW>
-15.9526

>  <SCORE.INTER.norm>
-0.868532

>  <SCORE.INTRA>
-0.448504

>  <SCORE.INTRA.DIHEDRAL>
-0.0372416

>  <SCORE.INTRA.DIHEDRAL.0>
3.89056

>  <SCORE.INTRA.POLAR>
0

>  <SCORE.INTRA.POLAR.0>
0

>  <SCORE.INTRA.REPUL>
0

>  <SCORE.INTRA.REPUL.0>
0

>  <SCORE.INTRA.SOLV>
0.479696

>  <SCORE.INTRA.SOLV.lig_0>
-20.733

>  <SCORE.INTRA.VDW>
-0.669731

>  <SCORE.INTRA.VDW.0>
-0.828515

>  <SCORE.INTRA.norm>
-0.0280315

>  <SCORE.RESTR>
0

>  <SCORE.RESTR.CAVITY>
0

>  <SCORE.RESTR.norm>
0

>  <SCORE.SYSTEM>
0

>  <SCORE.SYSTEM.CONST>
0

>  <SCORE.SYSTEM.DIHEDRAL>
0

>  <SCORE.SYSTEM.SOLV>
0

>  <SCORE.SYSTEM.norm>
0

>  <SCORE.heavy>
16

>  <SCORE.norm>
-0.896563

>  <RMSD>
15.741

$$$$
ligand
 OpenBabel02271912153D
libRbt.so/2013.1/901 2013/11/27
 16 17  0  0  0  0  0  0  0  0999 V2000
    8.2529   12.7990   70.6524 N   0  0  0  0  0  0  0  0  0  0  0  0
    8.2447   11.9604   71.8029 C   0  0  2  0  0  0  0  0  0  0  0  0
    9.3905   10.9873   71.7964 C   0  0  0  0  0  0  0  0  0  0  0  0
    9.7438   10.4469   72.8727 O   0  0  0  0  0  0  0  0  0  0  0  0
    1.8998   11.1285   69.4853 O   0  0  0  0  0  0  0  0  0  0  0  0
    6.9471   11.1943   71.8977 C   0  0  0  0  0  0  0  0  0  0  0  0
    6.7018   10.2920   70.7117 C   0  0  0  0  0  0  0  0  0  0  0  0
    7.5985    9.4627   70.1677 C   0  0  0  0  0  0  0  0  0  0  0  0
    5.4184   10.2410   70.0766 C   0  0  0  0  0  0  0  0  0  0  0  0
    5.5798    9.2750   69.0460 C   0  0  0  0  0  0  0  0  0  0  0  0
    4.2089   10.8562   70.2476 C   0  0  0  0  0  0  0  0  0  0  0  0
    6.9224    8.8567   69.1703 N   0  0  0  0  0  0  0  0  0  0  0  0
    4.5944    8.9284   68.2036 C   0  0  0  0  0  0  0  0  0  0  0  0
    3.1502   10.5105   69.3530 C   0  0  0  0  0  0  0  0  0  0  0  0
    3.3401    9.5367   68.3097 C   0  0  0  0  0  0  0  0  0  0  0  0
    9.9903   10.7366   70.7299 O   0  0  0  0  0  0  0  0  0  0  0  0
  2  1  1  6  0  0  0
  2  3  1  0  0  0  0
  2  6  1  0  0  0  0
  3  4  1  0  0  0  0
  3 16  1  0  0  0  0
  5 14  1  0  0  0  0
  6  7  1  0  0  0  0
  7  8  2  0  0  0  0
  7  9  1  0  0  0  0
  8 12  1  0  0  0  0
  9 10  2  0  0  0  0
  9 11  1  0  0  0  0
 10 13  1  0  0  0  0
 10 12  1  0  0  0  0
 11 14  2  0  0  0  0
 13 15  2  0  0  0  0
 14 15  1  0  0  0  0
M  END
>  <CHROM.1>
160.42847119,60.65080706,46.41993625,6.45877678,10.49032802,70.34070479,0.36777806
-0.24974412,0.66326456

>  <Name>
ligand

>  <RI>
0

>  <Rbt.Current_Directory>
/home/itssahil/PROJECTS/Mol_Feturizer/Test_systems_manuscript/rnas/5kpy

>  <Rbt.Executable>
rbdock ($Id: //depot/dev/client3/rdock/2013.1/src/exe/rbdock.cxx#4 $)

>  <Rbt.Library>
libRbt.so (2013.1, Build901 2013/11/27)

>  <Rbt.Parameter_File>
/export/apps/rDock/src/rDock_2013.1_src/data/scripts/dock_solv.prm

>  <Rbt.Receptor>
prm/blind_docking_80.prm

>  <SCORE>
-13.5746

>  <SCORE.INTER>
-13.6622

>  <SCORE.INTER.CONST>
1

>  <SCORE.INTER.POLAR>
0

>  <SCORE.INTER.ROT>
3

>  <SCORE.INTER.SOLV>
6.37823

>  <SCORE.INTER.VDW>
-16.8342

>  <SCORE.INTER.norm>
-0.853889

>  <SCORE.INTRA>
0.0563906

>  <SCORE.INTRA.DIHEDRAL>
-0.162997

>  <SCORE.INTRA.DIHEDRAL.0>
3.89056

>  <SCORE.INTRA.POLAR>
0

>  <SCORE.INTRA.POLAR.0>
0

>  <SCORE.INTRA.REPUL>
0

>  <SCORE.INTRA.REPUL.0>
0

>  <SCORE.INTRA.SOLV>
-0.265314

>  <SCORE.INTRA.SOLV.lig_0>
-20.733

>  <SCORE.INTRA.VDW>
0.270546

>  <SCORE.INTRA.VDW.0>
-0.828515

>  <SCORE.INTRA.norm>
0.00352441

>  <SCORE.RESTR>
0.0312184

>  <SCORE.RESTR.CAVITY>
0.0312184

>  <SCORE.RESTR.norm>
0.00195115

>  <SCORE.SYSTEM>
0

>  <SCORE.SYSTEM.CONST>
0

>  <SCORE.SYSTEM.DIHEDRAL>
0

>  <SCORE.SYSTEM.SOLV>
0

>  <SCORE.SYSTEM.norm>
0

>  <SCORE.heavy>
16

>  <SCORE.norm>
-0.848413

>  <RMSD>
15.746

$$$$
ligand
 OpenBabel02271912153D
libRbt.so/2013.1/901 2013/11/27
 16 17  0  0  0  0  0  0  0  0999 V2000
    5.8344   13.6760   70.8975 N   0  0  0  0  0  0  0  0  0  0  0  0
    6.8727   13.7424   71.8693 C   0  0  2  0  0  0  0  0  0  0  0  0
    8.1905   14.1282   71.2573 C   0  0  0  0  0  0  0  0  0  0  0  0
    8.8563   15.0608   71.7694 O   0  0  0  0  0  0  0  0  0  0  0  0
    3.2454   10.2861   69.0507 O   0  0  0  0  0  0  0  0  0  0  0  0
    7.0271   12.4188   72.5792 C   0  0  0  0  0  0  0  0  0  0  0  0
    7.4246   11.2919   71.6556 C   0  0  0  0  0  0  0  0  0  0  0  0
    8.6314   10.7184   71.6042 C   0  0  0  0  0  0  0  0  0  0  0  0
    6.4790   10.7139   70.7474 C   0  0  0  0  0  0  0  0  0  0  0  0
    7.2118    9.6880   70.0904 C   0  0  0  0  0  0  0  0  0  0  0  0
    5.1651   10.9208   70.4288 C   0  0  0  0  0  0  0  0  0  0  0  0
    8.4993    9.7594   70.6650 N   0  0  0  0  0  0  0  0  0  0  0  0
    6.6810    8.8962   69.1458 C   0  0  0  0  0  0  0  0  0  0  0  0
    4.5845   10.0968   69.4166 C   0  0  0  0  0  0  0  0  0  0  0  0
    5.3494    9.0706   68.7572 C   0  0  0  0  0  0  0  0  0  0  0  0
    8.6042   13.5332   70.2400 O   0  0  0  0  0  0  0  0  0  0  0  0
  2  1  1  6  0  0  0
  2  3  1  0  0  0  0
  2  6  1  0  0  0  0
  3  4  1  0  0  0  0
  3 16  1  0  0  0  0
  5 14  1  0  0  0  0
  6  7  1  0  0  0  0
  7  8  2  0  0  0  0
  7  9  1  0  0  0  0
  8 12  1  0  0  0  0
  9 10  2  0  0  0  0
  9 11  1  0  0  0  0
 10 13  1  0  0  0  0
 10 12  1  0  0  0  0
 11 14  2  0  0  0  0
 13 15  2  0  0  0  0
 14 15  1  0  0  0  0
M  END
>  <CHROM.1>
129.75130902,62.28382665,107.22248790,6.80707403,11.60641891,70.64706892
0.98573783,-0.28688172,0.28454810

>  <Name>
ligand

>  <RI>
0

>  <Rbt.Current_Directory>
/home/itssahil/PROJECTS/Mol_Feturizer/Test_systems_manuscript/rnas/5kpy

>  <Rbt.Executable>
rbdock ($Id: //depot/dev/client3/rdock/2013.1/src/exe/rbdock.cxx#4 $)

>  <Rbt.Library>
libRbt.so (2013.1, Build901 2013/11/27)

>  <Rbt.Parameter_File>
/export/apps/rDock/src/rDock_2013.1_src/data/scripts/dock_solv.prm

>  <Rbt.Receptor>
prm/blind_docking_80.prm

>  <SCORE>
-14.3354

>  <SCORE.INTER>
-13.8901

>  <SCORE.INTER.CONST>
1

>  <SCORE.INTER.POLAR>
0

>  <SCORE.INTER.ROT>
3

>  <SCORE.INTER.SOLV>
3.25777

>  <SCORE.INTER.VDW>
-15.946

>  <SCORE.INTER.norm>
-0.868129

>  <SCORE.INTRA>
-0.445312

>  <SCORE.INTRA.DIHEDRAL>
-0.0449875

>  <SCORE.INTRA.DIHEDRAL.0>
3.89056

>  <SCORE.INTRA.POLAR>
0

>  <SCORE.INTRA.POLAR.0>
0

>  <SCORE.INTRA.REPUL>
0

>  <SCORE.INTRA.REPUL.0>
0

>  <SCORE.INTRA.SOLV>
0.512135

>  <SCORE.INTRA.SOLV.lig_0>
-20.733

>  <SCORE.INTRA.VDW>
-0.678886

>  <SCORE.INTRA.VDW.0>
-0.828515

>  <SCORE.INTRA.norm>
-0.027832

>  <SCORE.RESTR>
0

>  <SCORE.RESTR.CAVITY>
0

>  <SCORE.RESTR.norm>
0

>  <SCORE.SYSTEM>
0

>  <SCORE.SYSTEM.CONST>
0

>  <SCORE.SYSTEM.DIHEDRAL>
0

>  <SCORE.SYSTEM.SOLV>
0

>  <SCORE.SYSTEM.norm>
0

>  <SCORE.heavy>
16

>  <SCORE.norm>
-0.895961

>  <RMSD>
15.749

$$$$
ligand
 OpenBabel02271912153D
libRbt.so/2013.1/901 2013/11/27
 16 17  0  0  0  0  0  0  0  0999 V2000
    4.4721   14.3456   73.1965 N   0  0  0  0  0  0  0  0  0  0  0  0
    5.1034   13.7659   72.0597 C   0  0  2  0  0  0  0  0  0  0  0  0
    4.5232   12.4213   71.7202 C   0  0  0  0  0  0  0  0  0  0  0  0
    3.6098   11.9471   72.4386 O   0  0  0  0  0  0  0  0  0  0  0  0
   10.1519    9.3320   72.7624 O   0  0  0  0  0  0  0  0  0  0  0  0
    6.5885   13.6189   72.2889 C   0  0  0  0  0  0  0  0  0  0  0  0
    7.3329   13.1326   71.0681 C   0  0  0  0  0  0  0  0  0  0  0  0
    7.2354   13.6529   69.8402 C   0  0  0  0  0  0  0  0  0  0  0  0
    8.2617   12.0451   71.1549 C   0  0  0  0  0  0  0  0  0  0  0  0
    8.7647   11.9123   69.8318 C   0  0  0  0  0  0  0  0  0  0  0  0
    8.7147   11.2121   72.1407 C   0  0  0  0  0  0  0  0  0  0  0  0
    8.0938   12.9184   69.1034 N   0  0  0  0  0  0  0  0  0  0  0  0
    9.6737   10.9895   69.4810 C   0  0  0  0  0  0  0  0  0  0  0  0
    9.6733   10.2144   71.7852 C   0  0  0  0  0  0  0  0  0  0  0  0
   10.1607   10.0920   70.4360 C   0  0  0  0  0  0  0  0  0  0  0  0
    4.9619   11.7814   70.7414 O   0  0  0  0  0  0  0  0  0  0  0  0
  2  1  1  1  0  0  0
  2  3  1  0  0  0  0
  2  6  1  0  0  0  0
  3  4  1  0  0  0  0
  3 16  1  0  0  0  0
  5 14  1  0  0  0  0
  6  7  1  0  0  0  0
  7  8  2  0  0  0  0
  7  9  1  0  0  0  0
  8 12  1  0  0  0  0
  9 10  2  0  0  0  0
  9 11  1  0  0  0  0
 10 13  1  0  0  0  0
 10 12  1  0  0  0  0
 11 14  2  0  0  0  0
 13 15  2  0  0  0  0
 14 15  1  0  0  0  0
M  END
>  <CHROM.1>
-1.30258913,-174.45439964,50.32909872,7.23315358,12.07779660,71.30609462
3.01659376,0.49377146,-0.91359264

>  <Name>
ligand

>  <RI>
0

>  <Rbt.Current_Directory>
/home/itssahil/PROJECTS/Mol_Feturizer/Test_systems_manuscript/rnas/5kpy

>  <Rbt.Executable>
rbdock ($Id: //depot/dev/client3/rdock/2013.1/src/exe/rbdock.cxx#4 $)

>  <Rbt.Library>
libRbt.so (2013.1, Build901 2013/11/27)

>  <Rbt.Parameter_File>
/export/apps/rDock/src/rDock_2013.1_src/data/scripts/dock_solv.prm

>  <Rbt.Receptor>
prm/blind_docking_80.prm

>  <SCORE>
-11.6516

>  <SCORE.INTER>
-11.2289

>  <SCORE.INTER.CONST>
1

>  <SCORE.INTER.POLAR>
0

>  <SCORE.INTER.ROT>
3

>  <SCORE.INTER.SOLV>
8.90603

>  <SCORE.INTER.VDW>
-16.0546

>  <SCORE.INTER.norm>
-0.701805

>  <SCORE.INTRA>
-0.463888

>  <SCORE.INTRA.DIHEDRAL>
-0.0677779

>  <SCORE.INTRA.DIHEDRAL.0>
3.89056

>  <SCORE.INTRA.POLAR>
0

>  <SCORE.INTRA.POLAR.0>
0

>  <SCORE.INTRA.REPUL>
0

>  <SCORE.INTRA.REPUL.0>
0

>  <SCORE.INTRA.SOLV>
-1.17257

>  <SCORE.INTRA.SOLV.lig_0>
-20.733

>  <SCORE.INTRA.VDW>
0.156285

>  <SCORE.INTRA.VDW.0>
-0.828515

>  <SCORE.INTRA.norm>
-0.028993

>  <SCORE.RESTR>
0.0411293

>  <SCORE.RESTR.CAVITY>
0.0411293

>  <SCORE.RESTR.norm>
0.00257058

>  <SCORE.SYSTEM>
0

>  <SCORE.SYSTEM.CONST>
0

>  <SCORE.SYSTEM.DIHEDRAL>
0

>  <SCORE.SYSTEM.SOLV>
0

>  <SCORE.SYSTEM.norm>
0

>  <SCORE.heavy>
16

>  <SCORE.norm>
-0.728228

>  <RMSD>
15.759

$$$$
ligand
 OpenBabel02271912153D
libRbt.so/2013.1/901 2013/11/27
 16 17  0  0  0  0  0  0  0  0999 V2000
    5.8995    9.0410   69.0457 N   0  0  0  0  0  0  0  0  0  0  0  0
    4.7270    9.7887   69.3507 C   0  0  2  0  0  0  0  0  0  0  0  0
    3.7085    9.7101   68.2478 C   0  0  0  0  0  0  0  0  0  0  0  0
    4.0970    9.6159   67.0581 O   0  0  0  0  0  0  0  0  0  0  0  0
   10.3986    9.8443   70.5726 O   0  0  0  0  0  0  0  0  0  0  0  0
    5.0672   11.2375   69.6059 C   0  0  0  0  0  0  0  0  0  0  0  0
    5.6616   11.4763   70.9735 C   0  0  0  0  0  0  0  0  0  0  0  0
    5.0136   11.9924   72.0231 C   0  0  0  0  0  0  0  0  0  0  0  0
    7.0198   11.1210   71.2598 C   0  0  0  0  0  0  0  0  0  0  0  0
    7.1875   11.4669   72.6286 C   0  0  0  0  0  0  0  0  0  0  0  0
    8.0626   10.5727   70.5651 C   0  0  0  0  0  0  0  0  0  0  0  0
    5.9316   11.9856   73.0113 N   0  0  0  0  0  0  0  0  0  0  0  0
    8.3394   11.2918   73.2944 C   0  0  0  0  0  0  0  0  0  0  0  0
    9.3015   10.3896   71.2523 C   0  0  0  0  0  0  0  0  0  0  0  0
    9.4510   10.7572   72.6363 C   0  0  0  0  0  0  0  0  0  0  0  0
    2.4901    9.7552   68.5191 O   0  0  0  0  0  0  0  0  0  0  0  0
  2  1  1  6  0  0  0
  2  3  1  0  0  0  0
  2  6  1  0  0  0  0
  3  4  1  0  0  0  0
  3 16  1  0  0  0  0
  5 14  1  0  0  0  0
  6  7  1  0  0  0  0
  7  8  2  0  0  0  0
  7  9  1  0  0  0  0
  8 12  1  0  0  0  0
  9 10  2  0  0  0  0
  9 11  1  0  0  0  0
 10 13  1  0  0  0  0
 10 12  1  0  0  0  0
 11 14  2  0  0  0  0
 13 15  2  0  0  0  0
 14 15  1  0  0  0  0
M  END
>  <CHROM.1>
-32.75715320,-77.45619503,-102.75498893,6.32582104,10.57713778,70.51117837
-2.50237065,-0.19353730,1.04554282

>  <Name>
ligand

>  <RI>
0

>  <Rbt.Current_Directory>
/home/itssahil/PROJECTS/Mol_Feturizer/Test_systems_manuscript/rnas/5kpy

>  <Rbt.Executable>
rbdock ($Id: //depot/dev/client3/rdock/2013.1/src/exe/rbdock.cxx#4 $)

>  <Rbt.Library>
libRbt.so (2013.1, Build901 2013/11/27)

>  <Rbt.Parameter_File>
/export/apps/rDock/src/rDock_2013.1_src/data/scripts/dock_solv.prm

>  <Rbt.Receptor>
prm/blind_docking_80.prm

>  <SCORE>
-13.3974

>  <SCORE.INTER>
-13.5938

>  <SCORE.INTER.CONST>
1

>  <SCORE.INTER.POLAR>
0

>  <SCORE.INTER.ROT>
3

>  <SCORE.INTER.SOLV>
12.9525

>  <SCORE.INTER.VDW>
-18.9801

>  <SCORE.INTER.norm>
-0.849614

>  <SCORE.INTRA>
0.196372

>  <SCORE.INTRA.DIHEDRAL>
0.926963

>  <SCORE.INTRA.DIHEDRAL.0>
3.89056

>  <SCORE.INTRA.POLAR>
0

>  <SCORE.INTRA.POLAR.0>
0

>  <SCORE.INTRA.REPUL>
0

>  <SCORE.INTRA.REPUL.0>
0

>  <SCORE.INTRA.SOLV>
0.228709

>  <SCORE.INTRA.SOLV.lig_0>
-20.733

>  <SCORE.INTRA.VDW>
-0.381464

>  <SCORE.INTRA.VDW.0>
-0.828515

>  <SCORE.INTRA.norm>
0.0122732

>  <SCORE.RESTR>
0

>  <SCORE.RESTR.CAVITY>
0

>  <SCORE.RESTR.norm>
0

>  <SCORE.SYSTEM>
0

>  <SCORE.SYSTEM.CONST>
0

>  <SCORE.SYSTEM.DIHEDRAL>
0

>  <SCORE.SYSTEM.SOLV>
0

>  <SCORE.SYSTEM.norm>
0

>  <SCORE.heavy>
16

>  <SCORE.norm>
-0.83734

>  <RMSD>
15.798

$$$$
ligand
 OpenBabel02271912153D
libRbt.so/2013.1/901 2013/11/27
 16 17  0  0  0  0  0  0  0  0999 V2000
    5.9148    9.0464   69.0419 N   0  0  0  0  0  0  0  0  0  0  0  0
    4.7307    9.7772   69.3431 C   0  0  2  0  0  0  0  0  0  0  0  0
    3.7219    9.6944   68.2317 C   0  0  0  0  0  0  0  0  0  0  0  0
    2.5020    9.6084   68.5141 O   0  0  0  0  0  0  0  0  0  0  0  0
   10.4061    9.9026   70.5407 O   0  0  0  0  0  0  0  0  0  0  0  0
    5.0508   11.2281   69.6119 C   0  0  0  0  0  0  0  0  0  0  0  0
    5.6479   11.4615   70.9792 C   0  0  0  0  0  0  0  0  0  0  0  0
    4.9973   11.9574   72.0369 C   0  0  0  0  0  0  0  0  0  0  0  0
    7.0124   11.1230   71.2559 C   0  0  0  0  0  0  0  0  0  0  0  0
    7.1812   11.4573   72.6274 C   0  0  0  0  0  0  0  0  0  0  0  0
    8.0599   10.5970   70.5510 C   0  0  0  0  0  0  0  0  0  0  0  0
    5.9197   11.9537   73.0210 N   0  0  0  0  0  0  0  0  0  0  0  0
    8.3386   11.2920   73.2864 C   0  0  0  0  0  0  0  0  0  0  0  0
    9.3044   10.4249   71.2309 C   0  0  0  0  0  0  0  0  0  0  0  0
    9.4548   10.7804   72.6179 C   0  0  0  0  0  0  0  0  0  0  0  0
    4.1025    9.6952   67.0420 O   0  0  0  0  0  0  0  0  0  0  0  0
  2  1  1  6  0  0  0
  2  3  1  0  0  0  0
  2  6  1  0  0  0  0
  3  4  1  0  0  0  0
  3 16  1  0  0  0  0
  5 14  1  0  0  0  0
  6  7  1  0  0  0  0
  7  8  2  0  0  0  0
  7  9  1  0  0  0  0
  8 12  1  0  0  0  0
  9 10  2  0  0  0  0
  9 11  1  0  0  0  0
 10 13  1  0  0  0  0
 10 12  1  0  0  0  0
 11 14  2  0  0  0  0
 13 15  2  0  0  0  0
 14 15  1  0  0  0  0
M  END
>  <CHROM.1>
142.07108560,-76.71793159,-102.76766226,6.32553923,10.57390366,70.50388022
-2.49589178,-0.17555169,1.05878322

>  <Name>
ligand

>  <RI>
0

>  <Rbt.Current_Directory>
/home/itssahil/PROJECTS/Mol_Feturizer/Test_systems_manuscript/rnas/5kpy

>  <Rbt.Executable>
rbdock ($Id: //depot/dev/client3/rdock/2013.1/src/exe/rbdock.cxx#4 $)

>  <Rbt.Library>
libRbt.so (2013.1, Build901 2013/11/27)

>  <Rbt.Parameter_File>
/export/apps/rDock/src/rDock_2013.1_src/data/scripts/dock_solv.prm

>  <Rbt.Receptor>
prm/blind_docking_80.prm

>  <SCORE>
-13.3911

>  <SCORE.INTER>
-13.5548

>  <SCORE.INTER.CONST>
1

>  <SCORE.INTER.POLAR>
0

>  <SCORE.INTER.ROT>
3

>  <SCORE.INTER.SOLV>
12.953

>  <SCORE.INTER.VDW>
-18.9542

>  <SCORE.INTER.norm>
-0.847174

>  <SCORE.INTRA>
0.163711

>  <SCORE.INTRA.DIHEDRAL>
0.900248

>  <SCORE.INTRA.DIHEDRAL.0>
3.89056

>  <SCORE.INTRA.POLAR>
0

>  <SCORE.INTRA.POLAR.0>
0

>  <SCORE.INTRA.REPUL>
0

>  <SCORE.INTRA.REPUL.0>
0

>  <SCORE.INTRA.SOLV>
0.240032

>  <SCORE.INTRA.SOLV.lig_0>
-20.733

>  <SCORE.INTRA.VDW>
-0.406429

>  <SCORE.INTRA.VDW.0>
-0.828515

>  <SCORE.INTRA.norm>
0.010232

>  <SCORE.RESTR>
0

>  <SCORE.RESTR.CAVITY>
0

>  <SCORE.RESTR.norm>
0

>  <SCORE.SYSTEM>
0

>  <SCORE.SYSTEM.CONST>
0

>  <SCORE.SYSTEM.DIHEDRAL>
0

>  <SCORE.SYSTEM.SOLV>
0

>  <SCORE.SYSTEM.norm>
0

>  <SCORE.heavy>
16

>  <SCORE.norm>
-0.836942

>  <RMSD>
15.803

$$$$
ligand
 OpenBabel02271912153D
libRbt.so/2013.1/901 2013/11/27
 16 17  0  0  0  0  0  0  0  0999 V2000
    8.4756   11.3134   72.6668 N   0  0  0  0  0  0  0  0  0  0  0  0
    8.1033   10.8439   71.3753 C   0  0  2  0  0  0  0  0  0  0  0  0
    8.8902   11.5163   70.2852 C   0  0  0  0  0  0  0  0  0  0  0  0
    8.8782   12.7686   70.2016 O   0  0  0  0  0  0  0  0  0  0  0  0
    1.2926   11.3687   72.7776 O   0  0  0  0  0  0  0  0  0  0  0  0
    6.6302   11.0656   71.1291 C   0  0  0  0  0  0  0  0  0  0  0  0
    6.1121   12.3465   71.7387 C   0  0  0  0  0  0  0  0  0  0  0  0
    6.8226   13.4651   71.9172 C   0  0  0  0  0  0  0  0  0  0  0  0
    4.7480   12.4634   72.1612 C   0  0  0  0  0  0  0  0  0  0  0  0
    4.6467   13.7980   72.6407 C   0  0  0  0  0  0  0  0  0  0  0  0
    3.6503   11.6478   72.1855 C   0  0  0  0  0  0  0  0  0  0  0  0
    5.9412   14.3310   72.4582 N   0  0  0  0  0  0  0  0  0  0  0  0
    3.5125   14.3160   73.1367 C   0  0  0  0  0  0  0  0  0  0  0  0
    2.4361   12.1762   72.7215 C   0  0  0  0  0  0  0  0  0  0  0  0
    2.3601   13.5280   73.2111 C   0  0  0  0  0  0  0  0  0  0  0  0
    9.5338   10.8286   69.4648 O   0  0  0  0  0  0  0  0  0  0  0  0
  2  1  1  1  0  0  0
  2  3  1  0  0  0  0
  2  6  1  0  0  0  0
  3  4  1  0  0  0  0
  3 16  1  0  0  0  0
  5 14  1  0  0  0  0
  6  7  1  0  0  0  0
  7  8  2  0  0  0  0
  7  9  1  0  0  0  0
  8 12  1  0  0  0  0
  9 10  2  0  0  0  0
  9 11  1  0  0  0  0
 10 13  1  0  0  0  0
 10 12  1  0  0  0  0
 11 14  2  0  0  0  0
 13 15  2  0  0  0  0
 14 15  1  0  0  0  0
M  END
>  <CHROM.1>
-56.28816600,35.97115201,30.30294512,5.84548249,12.31018314,71.82244091,0.27344301
-0.28898338,-2.84189993

>  <Name>
ligand

>  <RI>
0

>  <Rbt.Current_Directory>
/home/itssahil/PROJECTS/Mol_Feturizer/Test_systems_manuscript/rnas/5kpy

>  <Rbt.Executable>
rbdock ($Id: //depot/dev/client3/rdock/2013.1/src/exe/rbdock.cxx#4 $)

>  <Rbt.Library>
libRbt.so (2013.1, Build901 2013/11/27)

>  <Rbt.Parameter_File>
/export/apps/rDock/src/rDock_2013.1_src/data/scripts/dock_solv.prm

>  <Rbt.Receptor>
prm/blind_docking_80.prm

>  <SCORE>
-9.77174

>  <SCORE.INTER>
-11.222

>  <SCORE.INTER.CONST>
1

>  <SCORE.INTER.POLAR>
0

>  <SCORE.INTER.ROT>
3

>  <SCORE.INTER.SOLV>
9.52109

>  <SCORE.INTER.VDW>
-16.255

>  <SCORE.INTER.norm>
-0.701376

>  <SCORE.INTRA>
1.45028

>  <SCORE.INTRA.DIHEDRAL>
1.81725

>  <SCORE.INTRA.DIHEDRAL.0>
3.89056

>  <SCORE.INTRA.POLAR>
0

>  <SCORE.INTRA.POLAR.0>
0

>  <SCORE.INTRA.REPUL>
0

>  <SCORE.INTRA.REPUL.0>
0

>  <SCORE.INTRA.SOLV>
0.169164

>  <SCORE.INTRA.SOLV.lig_0>
-20.733

>  <SCORE.INTRA.VDW>
0.457075

>  <SCORE.INTRA.VDW.0>
-0.828515

>  <SCORE.INTRA.norm>
0.0906426

>  <SCORE.RESTR>
0

>  <SCORE.RESTR.CAVITY>
0

>  <SCORE.RESTR.norm>
0

>  <SCORE.SYSTEM>
0

>  <SCORE.SYSTEM.CONST>
0

>  <SCORE.SYSTEM.DIHEDRAL>
0

>  <SCORE.SYSTEM.SOLV>
0

>  <SCORE.SYSTEM.norm>
0

>  <SCORE.heavy>
16

>  <SCORE.norm>
-0.610734

>  <RMSD>
15.805

$$$$
ligand
 OpenBabel02271912153D
libRbt.so/2013.1/901 2013/11/27
 16 17  0  0  0  0  0  0  0  0999 V2000
    5.9387    8.9765   69.0020 N   0  0  0  0  0  0  0  0  0  0  0  0
    4.7410    9.6833   69.3065 C   0  0  2  0  0  0  0  0  0  0  0  0
    3.7222    9.5607   68.2080 C   0  0  0  0  0  0  0  0  0  0  0  0
    4.0970    9.6275   67.0120 O   0  0  0  0  0  0  0  0  0  0  0  0
   10.3845    9.8835   70.5661 O   0  0  0  0  0  0  0  0  0  0  0  0
    5.0294   11.1451   69.5511 C   0  0  0  0  0  0  0  0  0  0  0  0
    5.6105   11.4154   70.9186 C   0  0  0  0  0  0  0  0  0  0  0  0
    4.9451   11.9312   71.9575 C   0  0  0  0  0  0  0  0  0  0  0  0
    6.9745   11.0942   71.2172 C   0  0  0  0  0  0  0  0  0  0  0  0
    7.1265   11.4621   72.5821 C   0  0  0  0  0  0  0  0  0  0  0  0
    8.0332   10.5597   70.5358 C   0  0  0  0  0  0  0  0  0  0  0  0
    5.8572   11.9580   72.9508 N   0  0  0  0  0  0  0  0  0  0  0  0
    8.2781   11.3215   73.2566 C   0  0  0  0  0  0  0  0  0  0  0  0
    9.2718   10.4135   71.2323 C   0  0  0  0  0  0  0  0  0  0  0  0
    9.4051   10.8029   72.6119 C   0  0  0  0  0  0  0  0  0  0  0  0
    2.5148    9.4104   68.4905 O   0  0  0  0  0  0  0  0  0  0  0  0
  2  1  1  6  0  0  0
  2  3  1  0  0  0  0
  2  6  1  0  0  0  0
  3  4  1  0  0  0  0
  3 16  1  0  0  0  0
  5 14  1  0  0  0  0
  6  7  1  0  0  0  0
  7  8  2  0  0  0  0
  7  9  1  0  0  0  0
  8 12  1  0  0  0  0
  9 10  2  0  0  0  0
  9 11  1  0  0  0  0
 10 13  1  0  0  0  0
 10 12  1  0  0  0  0
 11 14  2  0  0  0  0
 13 15  2  0  0  0  0
 14 15  1  0  0  0  0
M  END
>  <CHROM.1>
-40.89987433,-77.86459422,-103.57227017,6.30111685,10.52377934,70.47121690
-2.48333163,-0.17145934,1.04044857

>  <Name>
ligand

>  <RI>
0

>  <Rbt.Current_Directory>
/home/itssahil/PROJECTS/Mol_Feturizer/Test_systems_manuscript/rnas/5kpy

>  <Rbt.Executable>
rbdock ($Id: //depot/dev/client3/rdock/2013.1/src/exe/rbdock.cxx#4 $)

>  <Rbt.Library>
libRbt.so (2013.1, Build901 2013/11/27)

>  <Rbt.Parameter_File>
/export/apps/rDock/src/rDock_2013.1_src/data/scripts/dock_solv.prm

>  <Rbt.Receptor>
prm/blind_docking_80.prm

>  <SCORE>
-13.2505

>  <SCORE.INTER>
-13.459

>  <SCORE.INTER.CONST>
1

>  <SCORE.INTER.POLAR>
0

>  <SCORE.INTER.ROT>
3

>  <SCORE.INTER.SOLV>
13.0524

>  <SCORE.INTER.VDW>
-18.9235

>  <SCORE.INTER.norm>
-0.841186

>  <SCORE.INTRA>
0.208495

>  <SCORE.INTRA.DIHEDRAL>
0.984217

>  <SCORE.INTRA.DIHEDRAL.0>
3.89056

>  <SCORE.INTRA.POLAR>
0

>  <SCORE.INTRA.POLAR.0>
0

>  <SCORE.INTRA.REPUL>
0

>  <SCORE.INTRA.REPUL.0>
0

>  <SCORE.INTRA.SOLV>
0.232053

>  <SCORE.INTRA.SOLV.lig_0>
-20.733

>  <SCORE.INTRA.VDW>
-0.39964

>  <SCORE.INTRA.VDW.0>
-0.828515

>  <SCORE.INTRA.norm>
0.0130309

>  <SCORE.RESTR>
0

>  <SCORE.RESTR.CAVITY>
0

>  <SCORE.RESTR.norm>
0

>  <SCORE.SYSTEM>
0

>  <SCORE.SYSTEM.CONST>
0

>  <SCORE.SYSTEM.DIHEDRAL>
0

>  <SCORE.SYSTEM.SOLV>
0

>  <SCORE.SYSTEM.norm>
0

>  <SCORE.heavy>
16

>  <SCORE.norm>
-0.828155

>  <RMSD>
15.820

$$$$
ligand
 OpenBabel02271912153D
libRbt.so/2013.1/901 2013/11/27
 16 17  0  0  0  0  0  0  0  0999 V2000
    8.6517   12.7495   69.9844 N   0  0  0  0  0  0  0  0  0  0  0  0
    9.2330   11.7858   70.8564 C   0  0  2  0  0  0  0  0  0  0  0  0
    9.6534   10.5443   70.1205 C   0  0  0  0  0  0  0  0  0  0  0  0
   10.5866    9.8430   70.5816 O   0  0  0  0  0  0  0  0  0  0  0  0
    4.2042   14.6604   74.0015 O   0  0  0  0  0  0  0  0  0  0  0  0
    8.2682   11.4060   71.9540 C   0  0  0  0  0  0  0  0  0  0  0  0
    6.8516   11.2237   71.4631 C   0  0  0  0  0  0  0  0  0  0  0  0
    6.4509   10.3174   70.5654 C   0  0  0  0  0  0  0  0  0  0  0  0
    5.7841   12.0314   71.9741 C   0  0  0  0  0  0  0  0  0  0  0  0
    4.6295   11.5456   71.3018 C   0  0  0  0  0  0  0  0  0  0  0  0
    5.6652   13.0506   72.8784 C   0  0  0  0  0  0  0  0  0  0  0  0
    5.1199   10.5146   70.4715 N   0  0  0  0  0  0  0  0  0  0  0  0
    3.3999   12.0456   71.4995 C   0  0  0  0  0  0  0  0  0  0  0  0
    4.3666   13.6054   73.0940 C   0  0  0  0  0  0  0  0  0  0  0  0
    3.2129   13.1039   72.3937 C   0  0  0  0  0  0  0  0  0  0  0  0
    9.0862   10.2292   69.0532 O   0  0  0  0  0  0  0  0  0  0  0  0
  2  1  1  6  0  0  0
  2  3  1  0  0  0  0
  2  6  1  0  0  0  0
  3  4  1  0  0  0  0
  3 16  1  0  0  0  0
  5 14  1  0  0  0  0
  6  7  1  0  0  0  0
  7  8  2  0  0  0  0
  7  9  1  0  0  0  0
  8 12  1  0  0  0  0
  9 10  2  0  0  0  0
  9 11  1  0  0  0  0
 10 13  1  0  0  0  0
 10 12  1  0  0  0  0
 11 14  2  0  0  0  0
 13 15  2  0  0  0  0
 14 15  1  0  0  0  0
M  END
>  <CHROM.1>
153.51639732,41.89154000,61.70066043,6.68611948,11.77221675,71.35811534,-0.59541378
0.04746663,0.70778706

>  <Name>
ligand

>  <RI>
0

>  <Rbt.Current_Directory>
/home/itssahil/PROJECTS/Mol_Feturizer/Test_systems_manuscript/rnas/5kpy

>  <Rbt.Executable>
rbdock ($Id: //depot/dev/client3/rdock/2013.1/src/exe/rbdock.cxx#4 $)

>  <Rbt.Library>
libRbt.so (2013.1, Build901 2013/11/27)

>  <Rbt.Parameter_File>
/export/apps/rDock/src/rDock_2013.1_src/data/scripts/dock_solv.prm

>  <Rbt.Receptor>
prm/blind_docking_80.prm

>  <SCORE>
-12.1046

>  <SCORE.INTER>
-12.3583

>  <SCORE.INTER.CONST>
1

>  <SCORE.INTER.POLAR>
0

>  <SCORE.INTER.ROT>
3

>  <SCORE.INTER.SOLV>
10.3764

>  <SCORE.INTER.VDW>
-17.2977

>  <SCORE.INTER.norm>
-0.772396

>  <SCORE.INTRA>
0.253228

>  <SCORE.INTRA.DIHEDRAL>
1.14058

>  <SCORE.INTRA.DIHEDRAL.0>
3.89056

>  <SCORE.INTRA.POLAR>
0

>  <SCORE.INTRA.POLAR.0>
0

>  <SCORE.INTRA.REPUL>
0

>  <SCORE.INTRA.REPUL.0>
0

>  <SCORE.INTRA.SOLV>
0.0561999

>  <SCORE.INTRA.SOLV.lig_0>
-20.733

>  <SCORE.INTRA.VDW>
-0.345164

>  <SCORE.INTRA.VDW.0>
-0.828515

>  <SCORE.INTRA.norm>
0.0158267

>  <SCORE.RESTR>
0.000537438

>  <SCORE.RESTR.CAVITY>
0.000537438

>  <SCORE.RESTR.norm>
3.35899e-05

>  <SCORE.SYSTEM>
0

>  <SCORE.SYSTEM.CONST>
0

>  <SCORE.SYSTEM.DIHEDRAL>
0

>  <SCORE.SYSTEM.SOLV>
0

>  <SCORE.SYSTEM.norm>
0

>  <SCORE.heavy>
16

>  <SCORE.norm>
-0.756536

>  <RMSD>
15.835

$$$$
ligand
 OpenBabel02271912153D
libRbt.so/2013.1/901 2013/11/27
 16 17  0  0  0  0  0  0  0  0999 V2000
    5.8770    9.0120   68.9935 N   0  0  0  0  0  0  0  0  0  0  0  0
    4.6726    9.7189   69.2704 C   0  0  2  0  0  0  0  0  0  0  0  0
    3.6817    9.6014   68.1461 C   0  0  0  0  0  0  0  0  0  0  0  0
    4.0891    9.6522   66.9601 O   0  0  0  0  0  0  0  0  0  0  0  0
   10.3136    9.9471   70.5654 O   0  0  0  0  0  0  0  0  0  0  0  0
    4.9560   11.1794   69.5278 C   0  0  0  0  0  0  0  0  0  0  0  0
    5.5264   11.4410   70.9015 C   0  0  0  0  0  0  0  0  0  0  0  0
    4.8506   11.9421   71.9408 C   0  0  0  0  0  0  0  0  0  0  0  0
    6.8907   11.1269   71.2059 C   0  0  0  0  0  0  0  0  0  0  0  0
    7.0313   11.4830   72.5751 C   0  0  0  0  0  0  0  0  0  0  0  0
    7.9576   10.6066   70.5263 C   0  0  0  0  0  0  0  0  0  0  0  0
    5.7561   11.9661   72.9402 N   0  0  0  0  0  0  0  0  0  0  0  0
    8.1795   11.3443   73.2557 C   0  0  0  0  0  0  0  0  0  0  0  0
    9.1928   10.4627   71.2294 C   0  0  0  0  0  0  0  0  0  0  0  0
    9.3144   10.8400   72.6135 C   0  0  0  0  0  0  0  0  0  0  0  0
    2.4651    9.4712   68.3975 O   0  0  0  0  0  0  0  0  0  0  0  0
  2  1  1  6  0  0  0
  2  3  1  0  0  0  0
  2  6  1  0  0  0  0
  3  4  1  0  0  0  0
  3 16  1  0  0  0  0
  5 14  1  0  0  0  0
  6  7  1  0  0  0  0
  7  8  2  0  0  0  0
  7  9  1  0  0  0  0
  8 12  1  0  0  0  0
  9 10  2  0  0  0  0
  9 11  1  0  0  0  0
 10 13  1  0  0  0  0
 10 12  1  0  0  0  0
 11 14  2  0  0  0  0
 13 15  2  0  0  0  0
 14 15  1  0  0  0  0
M  END
>  <CHROM.1>
-39.83245879,-76.81305134,-103.24714805,6.22929369,10.55876423,70.44800782
-2.47145783,-0.17062680,1.05121401

>  <Name>
ligand

>  <RI>
0

>  <Rbt.Current_Directory>
/home/itssahil/PROJECTS/Mol_Feturizer/Test_systems_manuscript/rnas/5kpy

>  <Rbt.Executable>
rbdock ($Id: //depot/dev/client3/rdock/2013.1/src/exe/rbdock.cxx#4 $)

>  <Rbt.Library>
libRbt.so (2013.1, Build901 2013/11/27)

>  <Rbt.Parameter_File>
/export/apps/rDock/src/rDock_2013.1_src/data/scripts/dock_solv.prm

>  <Rbt.Receptor>
prm/blind_docking_80.prm

>  <SCORE>
-13.2594

>  <SCORE.INTER>
-13.4136

>  <SCORE.INTER.CONST>
1

>  <SCORE.INTER.POLAR>
0

>  <SCORE.INTER.ROT>
3

>  <SCORE.INTER.SOLV>
12.7743

>  <SCORE.INTER.VDW>
-18.8005

>  <SCORE.INTER.norm>
-0.838348

>  <SCORE.INTRA>
0.154179

>  <SCORE.INTRA.DIHEDRAL>
0.855209

>  <SCORE.INTRA.DIHEDRAL.0>
3.89056

>  <SCORE.INTRA.POLAR>
0

>  <SCORE.INTRA.POLAR.0>
0

>  <SCORE.INTRA.REPUL>
0

>  <SCORE.INTRA.REPUL.0>
0

>  <SCORE.INTRA.SOLV>
0.246615

>  <SCORE.INTRA.SOLV.lig_0>
-20.733

>  <SCORE.INTRA.VDW>
-0.396733

>  <SCORE.INTRA.VDW.0>
-0.828515

>  <SCORE.INTRA.norm>
0.00963616

>  <SCORE.RESTR>
0

>  <SCORE.RESTR.CAVITY>
0

>  <SCORE.RESTR.norm>
0

>  <SCORE.SYSTEM>
0

>  <SCORE.SYSTEM.CONST>
0

>  <SCORE.SYSTEM.DIHEDRAL>
0

>  <SCORE.SYSTEM.SOLV>
0

>  <SCORE.SYSTEM.norm>
0

>  <SCORE.heavy>
16

>  <SCORE.norm>
-0.828712

>  <RMSD>
15.859

$$$$
ligand
 OpenBabel02271912153D
libRbt.so/2013.1/901 2013/11/27
 16 17  0  0  0  0  0  0  0  0999 V2000
    8.5603   11.7679   70.2447 N   0  0  0  0  0  0  0  0  0  0  0  0
    7.4642   11.9409   71.1367 C   0  0  2  0  0  0  0  0  0  0  0  0
    7.8866   12.5875   72.4264 C   0  0  0  0  0  0  0  0  0  0  0  0
    7.7953   13.8333   72.5479 O   0  0  0  0  0  0  0  0  0  0  0  0
    1.5002   11.6396   69.9965 O   0  0  0  0  0  0  0  0  0  0  0  0
    6.8073   10.6159   71.4409 C   0  0  0  0  0  0  0  0  0  0  0  0
    6.2271    9.9456   70.2182 C   0  0  0  0  0  0  0  0  0  0  0  0
    6.8730    9.0861   69.4233 C   0  0  0  0  0  0  0  0  0  0  0  0
    4.8685   10.1755   69.8256 C   0  0  0  0  0  0  0  0  0  0  0  0
    4.6982    9.3611   68.6728 C   0  0  0  0  0  0  0  0  0  0  0  0
    3.8226   10.9263   70.2874 C   0  0  0  0  0  0  0  0  0  0  0  0
    5.9537    8.7396   68.4990 N   0  0  0  0  0  0  0  0  0  0  0  0
    3.5465    9.2898   67.9877 C   0  0  0  0  0  0  0  0  0  0  0  0
    2.5915   10.8743   69.5648 C   0  0  0  0  0  0  0  0  0  0  0  0
    2.4455   10.0500   68.3935 C   0  0  0  0  0  0  0  0  0  0  0  0
    8.3381   11.8873   73.3569 O   0  0  0  0  0  0  0  0  0  0  0  0
  2  1  1  6  0  0  0
  2  3  1  0  0  0  0
  2  6  1  0  0  0  0
  3  4  1  0  0  0  0
  3 16  1  0  0  0  0
  5 14  1  0  0  0  0
  6  7  1  0  0  0  0
  7  8  2  0  0  0  0
  7  9  1  0  0  0  0
  8 12  1  0  0  0  0
  9 10  2  0  0  0  0
  9 11  1  0  0  0  0
 10 13  1  0  0  0  0
 10 12  1  0  0  0  0
 11 14  2  0  0  0  0
 13 15  2  0  0  0  0
 14 15  1  0  0  0  0
M  END
>  <CHROM.1>
93.86372465,-61.90100742,90.42163102,5.65489237,10.88255576,70.34759441,-0.65041093
0.19183065,-2.41907379

>  <Name>
ligand

>  <RI>
0

>  <Rbt.Current_Directory>
/home/itssahil/PROJECTS/Mol_Feturizer/Test_systems_manuscript/rnas/5kpy

>  <Rbt.Executable>
rbdock ($Id: //depot/dev/client3/rdock/2013.1/src/exe/rbdock.cxx#4 $)

>  <Rbt.Library>
libRbt.so (2013.1, Build901 2013/11/27)

>  <Rbt.Parameter_File>
/export/apps/rDock/src/rDock_2013.1_src/data/scripts/dock_solv.prm

>  <Rbt.Receptor>
prm/blind_docking_80.prm

>  <SCORE>
-8.86518

>  <SCORE.INTER>
-9.30727

>  <SCORE.INTER.CONST>
1

>  <SCORE.INTER.POLAR>
0

>  <SCORE.INTER.ROT>
3

>  <SCORE.INTER.SOLV>
5.87827

>  <SCORE.INTER.VDW>
-13.7643

>  <SCORE.INTER.norm>
-0.581705

>  <SCORE.INTRA>
0.139112

>  <SCORE.INTRA.DIHEDRAL>
-0.0613637

>  <SCORE.INTRA.DIHEDRAL.0>
3.89056

>  <SCORE.INTRA.POLAR>
0

>  <SCORE.INTRA.POLAR.0>
0

>  <SCORE.INTRA.REPUL>
0

>  <SCORE.INTRA.REPUL.0>
0

>  <SCORE.INTRA.SOLV>
-0.271344

>  <SCORE.INTRA.SOLV.lig_0>
-20.733

>  <SCORE.INTRA.VDW>
0.305466

>  <SCORE.INTRA.VDW.0>
-0.828515

>  <SCORE.INTRA.norm>
0.00869449

>  <SCORE.RESTR>
0.302986

>  <SCORE.RESTR.CAVITY>
0.302986

>  <SCORE.RESTR.norm>
0.0189366

>  <SCORE.SYSTEM>
0

>  <SCORE.SYSTEM.CONST>
0

>  <SCORE.SYSTEM.DIHEDRAL>
0

>  <SCORE.SYSTEM.SOLV>
0

>  <SCORE.SYSTEM.norm>
0

>  <SCORE.heavy>
16

>  <SCORE.norm>
-0.554074

>  <RMSD>
15.949

$$$$
ligand
 OpenBabel02271912153D
libRbt.so/2013.1/901 2013/11/27
 16 17  0  0  0  0  0  0  0  0999 V2000
    6.0892   13.6834   69.9878 N   0  0  0  0  0  0  0  0  0  0  0  0
    6.8218   13.7217   71.2080 C   0  0  2  0  0  0  0  0  0  0  0  0
    8.2929   13.9233   70.9733 C   0  0  0  0  0  0  0  0  0  0  0  0
    8.8831   14.8691   71.5498 O   0  0  0  0  0  0  0  0  0  0  0  0
    2.7411   10.4203   68.5088 O   0  0  0  0  0  0  0  0  0  0  0  0
    6.6174   12.4496   71.9953 C   0  0  0  0  0  0  0  0  0  0  0  0
    6.9152   11.2025   71.1972 C   0  0  0  0  0  0  0  0  0  0  0  0
    8.0496   10.4969   71.2529 C   0  0  0  0  0  0  0  0  0  0  0  0
    5.9418   10.6484   70.3038 C   0  0  0  0  0  0  0  0  0  0  0  0
    6.5748    9.4896   69.7768 C   0  0  0  0  0  0  0  0  0  0  0  0
    4.6719   10.9678   69.9086 C   0  0  0  0  0  0  0  0  0  0  0  0
    7.8413    9.4728   70.4001 N   0  0  0  0  0  0  0  0  0  0  0  0
    5.9899    8.6746   68.8854 C   0  0  0  0  0  0  0  0  0  0  0  0
    4.0363   10.1200   68.9506 C   0  0  0  0  0  0  0  0  0  0  0  0
    4.7012    8.9571   68.4228 C   0  0  0  0  0  0  0  0  0  0  0  0
    8.9112   13.1633   70.1986 O   0  0  0  0  0  0  0  0  0  0  0  0
  2  1  1  6  0  0  0
  2  3  1  0  0  0  0
  2  6  1  0  0  0  0
  3  4  1  0  0  0  0
  3 16  1  0  0  0  0
  5 14  1  0  0  0  0
  6  7  1  0  0  0  0
  7  8  2  0  0  0  0
  7  9  1  0  0  0  0
  8 12  1  0  0  0  0
  9 10  2  0  0  0  0
  9 11  1  0  0  0  0
 10 13  1  0  0  0  0
 10 12  1  0  0  0  0
 11 14  2  0  0  0  0
 13 15  2  0  0  0  0
 14 15  1  0  0  0  0
M  END
>  <CHROM.1>
125.79536770,53.34723132,99.45337526,6.47861636,11.49686977,70.23355237,0.85217748
-0.35665046,0.19069456

>  <Name>
ligand

>  <RI>
0

>  <Rbt.Current_Directory>
/home/itssahil/PROJECTS/Mol_Feturizer/Test_systems_manuscript/rnas/5kpy

>  <Rbt.Executable>
rbdock ($Id: //depot/dev/client3/rdock/2013.1/src/exe/rbdock.cxx#4 $)

>  <Rbt.Library>
libRbt.so (2013.1, Build901 2013/11/27)

>  <Rbt.Parameter_File>
/export/apps/rDock/src/rDock_2013.1_src/data/scripts/dock_solv.prm

>  <Rbt.Receptor>
prm/blind_docking_80.prm

>  <SCORE>
-14.2074

>  <SCORE.INTER>
-13.7875

>  <SCORE.INTER.CONST>
1

>  <SCORE.INTER.POLAR>
0

>  <SCORE.INTER.ROT>
3

>  <SCORE.INTER.SOLV>
2.58311

>  <SCORE.INTER.VDW>
-15.6527

>  <SCORE.INTER.norm>
-0.86172

>  <SCORE.INTRA>
-0.419915

>  <SCORE.INTRA.DIHEDRAL>
0.139291

>  <SCORE.INTRA.DIHEDRAL.0>
3.89056

>  <SCORE.INTRA.POLAR>
0

>  <SCORE.INTRA.POLAR.0>
0

>  <SCORE.INTRA.REPUL>
0

>  <SCORE.INTRA.REPUL.0>
0

>  <SCORE.INTRA.SOLV>
0.467835

>  <SCORE.INTRA.SOLV.lig_0>
-20.733

>  <SCORE.INTRA.VDW>
-0.723478

>  <SCORE.INTRA.VDW.0>
-0.828515

>  <SCORE.INTRA.norm>
-0.0262447

>  <SCORE.RESTR>
0

>  <SCORE.RESTR.CAVITY>
0

>  <SCORE.RESTR.norm>
0

>  <SCORE.SYSTEM>
0

>  <SCORE.SYSTEM.CONST>
0

>  <SCORE.SYSTEM.DIHEDRAL>
0

>  <SCORE.SYSTEM.SOLV>
0

>  <SCORE.SYSTEM.norm>
0

>  <SCORE.heavy>
16

>  <SCORE.norm>
-0.887965

>  <RMSD>
16.061

$$$$
ligand
 OpenBabel02271912153D
libRbt.so/2013.1/901 2013/11/27
 16 17  0  0  0  0  0  0  0  0999 V2000
    5.8087   13.6043   71.8011 N   0  0  0  0  0  0  0  0  0  0  0  0
    6.0084   12.3805   71.1015 C   0  0  2  0  0  0  0  0  0  0  0  0
    7.1960   12.4468   70.1823 C   0  0  0  0  0  0  0  0  0  0  0  0
    8.1032   11.5858   70.2873 O   0  0  0  0  0  0  0  0  0  0  0  0
    0.7394    8.7119   68.2909 O   0  0  0  0  0  0  0  0  0  0  0  0
    4.7826   12.0166   70.2986 C   0  0  0  0  0  0  0  0  0  0  0  0
    3.5795   11.7082   71.1577 C   0  0  0  0  0  0  0  0  0  0  0  0
    3.3658   12.1757   72.3921 C   0  0  0  0  0  0  0  0  0  0  0  0
    2.5198   10.8754   70.6715 C   0  0  0  0  0  0  0  0  0  0  0  0
    1.5804   10.8514   71.7385 C   0  0  0  0  0  0  0  0  0  0  0  0
    2.2570   10.1865   69.5196 C   0  0  0  0  0  0  0  0  0  0  0  0
    2.1681   11.6593   72.7359 N   0  0  0  0  0  0  0  0  0  0  0  0
    0.4263   10.1687   71.6855 C   0  0  0  0  0  0  0  0  0  0  0  0
    1.0394    9.4428   69.4478 C   0  0  0  0  0  0  0  0  0  0  0  0
    0.1078    9.4248   70.5454 C   0  0  0  0  0  0  0  0  0  0  0  0
    7.2800   13.3617   69.3361 O   0  0  0  0  0  0  0  0  0  0  0  0
  2  1  1  6  0  0  0
  2  3  1  0  0  0  0
  2  6  1  0  0  0  0
  3  4  1  0  0  0  0
  3 16  1  0  0  0  0
  5 14  1  0  0  0  0
  6  7  1  0  0  0  0
  7  8  2  0  0  0  0
  7  9  1  0  0  0  0
  8 12  1  0  0  0  0
  9 10  2  0  0  0  0
  9 11  1  0  0  0  0
 10 13  1  0  0  0  0
 10 12  1  0  0  0  0
 11 14  2  0  0  0  0
 13 15  2  0  0  0  0
 14 15  1  0  0  0  0
M  END
>  <CHROM.1>
125.27552134,-65.58621843,25.71601999,3.69442775,11.32127165,70.64819316
0.24515396,0.37652135,1.03490777

>  <Name>
ligand

>  <RI>
0

>  <Rbt.Current_Directory>
/home/itssahil/PROJECTS/Mol_Feturizer/Test_systems_manuscript/rnas/5kpy

>  <Rbt.Executable>
rbdock ($Id: //depot/dev/client3/rdock/2013.1/src/exe/rbdock.cxx#4 $)

>  <Rbt.Library>
libRbt.so (2013.1, Build901 2013/11/27)

>  <Rbt.Parameter_File>
/export/apps/rDock/src/rDock_2013.1_src/data/scripts/dock_solv.prm

>  <Rbt.Receptor>
prm/blind_docking_80.prm

>  <SCORE>
-6.42492

>  <SCORE.INTER>
-7.12492

>  <SCORE.INTER.CONST>
1

>  <SCORE.INTER.POLAR>
0

>  <SCORE.INTER.ROT>
3

>  <SCORE.INTER.SOLV>
1.98297

>  <SCORE.INTER.VDW>
-11.0109

>  <SCORE.INTER.norm>
-0.445308

>  <SCORE.INTRA>
0.262702

>  <SCORE.INTRA.DIHEDRAL>
-0.0738728

>  <SCORE.INTRA.DIHEDRAL.0>
3.89056

>  <SCORE.INTRA.POLAR>
0

>  <SCORE.INTRA.POLAR.0>
0

>  <SCORE.INTRA.REPUL>
0

>  <SCORE.INTRA.REPUL.0>
0

>  <SCORE.INTRA.SOLV>
-0.077042

>  <SCORE.INTRA.SOLV.lig_0>
-20.733

>  <SCORE.INTRA.VDW>
0.33816

>  <SCORE.INTRA.VDW.0>
-0.828515

>  <SCORE.INTRA.norm>
0.0164189

>  <SCORE.RESTR>
0.437303

>  <SCORE.RESTR.CAVITY>
0.437303

>  <SCORE.RESTR.norm>
0.0273315

>  <SCORE.SYSTEM>
0

>  <SCORE.SYSTEM.CONST>
0

>  <SCORE.SYSTEM.DIHEDRAL>
0

>  <SCORE.SYSTEM.SOLV>
0

>  <SCORE.SYSTEM.norm>
0

>  <SCORE.heavy>
16

>  <SCORE.norm>
-0.401557

>  <RMSD>
16.142

$$$$
ligand
 OpenBabel02271912153D
libRbt.so/2013.1/901 2013/11/27
 16 17  0  0  0  0  0  0  0  0999 V2000
    4.2622   12.5201   71.5306 N   0  0  0  0  0  0  0  0  0  0  0  0
    4.7531   13.5754   72.3505 C   0  0  2  0  0  0  0  0  0  0  0  0
    3.6485   14.2583   73.1076 C   0  0  0  0  0  0  0  0  0  0  0  0
    3.6384   14.2042   74.3615 O   0  0  0  0  0  0  0  0  0  0  0  0
    9.1302   10.7291   73.2699 O   0  0  0  0  0  0  0  0  0  0  0  0
    5.4892   14.5999   71.5207 C   0  0  0  0  0  0  0  0  0  0  0  0
    6.4515   13.9843   70.5329 C   0  0  0  0  0  0  0  0  0  0  0  0
    6.5363   14.2936   69.2348 C   0  0  0  0  0  0  0  0  0  0  0  0
    7.4052   12.9989   70.9482 C   0  0  0  0  0  0  0  0  0  0  0  0
    8.1296   12.6964   69.7629 C   0  0  0  0  0  0  0  0  0  0  0  0
    7.7266   12.3705   72.1197 C   0  0  0  0  0  0  0  0  0  0  0  0
    7.5418   13.5194   68.7779 N   0  0  0  0  0  0  0  0  0  0  0  0
    9.1293   11.8021   69.7213 C   0  0  0  0  0  0  0  0  0  0  0  0
    8.7796   11.4055   72.0942 C   0  0  0  0  0  0  0  0  0  0  0  0
    9.4925   11.1079   70.8792 C   0  0  0  0  0  0  0  0  0  0  0  0
    2.7447   14.8574   72.4878 O   0  0  0  0  0  0  0  0  0  0  0  0
  2  1  1  6  0  0  0
  2  3  1  0  0  0  0
  2  6  1  0  0  0  0
  3  4  1  0  0  0  0
  3 16  1  0  0  0  0
  5 14  1  0  0  0  0
  6  7  1  0  0  0  0
  7  8  2  0  0  0  0
  7  9  1  0  0  0  0
  8 12  1  0  0  0  0
  9 10  2  0  0  0  0
  9 11  1  0  0  0  0
 10 13  1  0  0  0  0
 10 12  1  0  0  0  0
 11 14  2  0  0  0  0
 13 15  2  0  0  0  0
 14 15  1  0  0  0  0
M  END
>  <CHROM.1>
116.25213412,-45.86070405,131.19181975,6.44423362,13.08583677,71.51101558
-3.00147552,0.53369618,-1.16750544

>  <Name>
ligand

>  <RI>
0

>  <Rbt.Current_Directory>
/home/itssahil/PROJECTS/Mol_Feturizer/Test_systems_manuscript/rnas/5kpy

>  <Rbt.Executable>
rbdock ($Id: //depot/dev/client3/rdock/2013.1/src/exe/rbdock.cxx#4 $)

>  <Rbt.Library>
libRbt.so (2013.1, Build901 2013/11/27)

>  <Rbt.Parameter_File>
/export/apps/rDock/src/rDock_2013.1_src/data/scripts/dock_solv.prm

>  <Rbt.Receptor>
prm/blind_docking_80.prm

>  <SCORE>
-9.17359

>  <SCORE.INTER>
-9.60527

>  <SCORE.INTER.CONST>
1

>  <SCORE.INTER.POLAR>
0

>  <SCORE.INTER.ROT>
3

>  <SCORE.INTER.SOLV>
5.51414

>  <SCORE.INTER.VDW>
-13.8416

>  <SCORE.INTER.norm>
-0.600329

>  <SCORE.INTRA>
0.431629

>  <SCORE.INTRA.DIHEDRAL>
0.55285

>  <SCORE.INTRA.DIHEDRAL.0>
3.89056

>  <SCORE.INTRA.POLAR>
0

>  <SCORE.INTRA.POLAR.0>
0

>  <SCORE.INTRA.REPUL>
0

>  <SCORE.INTRA.REPUL.0>
0

>  <SCORE.INTRA.SOLV>
0.313313

>  <SCORE.INTRA.SOLV.lig_0>
-20.733

>  <SCORE.INTRA.VDW>
-0.00145221

>  <SCORE.INTRA.VDW.0>
-0.828515

>  <SCORE.INTRA.norm>
0.0269768

>  <SCORE.RESTR>
4.65635e-05

>  <SCORE.RESTR.CAVITY>
4.65635e-05

>  <SCORE.RESTR.norm>
2.91022e-06

>  <SCORE.SYSTEM>
0

>  <SCORE.SYSTEM.CONST>
0

>  <SCORE.SYSTEM.DIHEDRAL>
0

>  <SCORE.SYSTEM.SOLV>
0

>  <SCORE.SYSTEM.norm>
0

>  <SCORE.heavy>
16

>  <SCORE.norm>
-0.573349

>  <RMSD>
16.157

$$$$
ligand
 OpenBabel02271912153D
libRbt.so/2013.1/901 2013/11/27
 16 17  0  0  0  0  0  0  0  0999 V2000
    4.1191   12.5311   71.5144 N   0  0  0  0  0  0  0  0  0  0  0  0
    4.7901   13.5135   72.2965 C   0  0  2  0  0  0  0  0  0  0  0  0
    3.8604   14.1921   73.2635 C   0  0  0  0  0  0  0  0  0  0  0  0
    2.6329   13.9343   73.2195 O   0  0  0  0  0  0  0  0  0  0  0  0
    9.0908   10.7222   73.1977 O   0  0  0  0  0  0  0  0  0  0  0  0
    5.4294   14.5569   71.4120 C   0  0  0  0  0  0  0  0  0  0  0  0
    6.4336   13.9798   70.4427 C   0  0  0  0  0  0  0  0  0  0  0  0
    6.5521   14.3167   69.1542 C   0  0  0  0  0  0  0  0  0  0  0  0
    7.3934   13.0047   70.8681 C   0  0  0  0  0  0  0  0  0  0  0  0
    8.1597   12.7401   69.7002 C   0  0  0  0  0  0  0  0  0  0  0  0
    7.6911   12.3592   72.0366 C   0  0  0  0  0  0  0  0  0  0  0  0
    7.5862   13.5712   68.7137 N   0  0  0  0  0  0  0  0  0  0  0  0
    9.1776   11.8660   69.6723 C   0  0  0  0  0  0  0  0  0  0  0  0
    8.7632   11.4152   72.0250 C   0  0  0  0  0  0  0  0  0  0  0  0
    9.5188   11.1558   70.8272 C   0  0  0  0  0  0  0  0  0  0  0  0
    4.3101   15.0150   74.0885 O   0  0  0  0  0  0  0  0  0  0  0  0
  2  1  1  6  0  0  0
  2  3  1  0  0  0  0
  2  6  1  0  0  0  0
  3  4  1  0  0  0  0
  3 16  1  0  0  0  0
  5 14  1  0  0  0  0
  6  7  1  0  0  0  0
  7  8  2  0  0  0  0
  7  9  1  0  0  0  0
  8 12  1  0  0  0  0
  9 10  2  0  0  0  0
  9 11  1  0  0  0  0
 10 13  1  0  0  0  0
 10 12  1  0  0  0  0
 11 14  2  0  0  0  0
 13 15  2  0  0  0  0
 14 15  1  0  0  0  0
M  END
>  <CHROM.1>
-5.81713124,-59.02597246,137.03912558,6.48969167,13.08067537,71.50103523
2.93744740,-0.53828250,1.97036657

>  <Name>
ligand

>  <RI>
0

>  <Rbt.Current_Directory>
/home/itssahil/PROJECTS/Mol_Feturizer/Test_systems_manuscript/rnas/5kpy

>  <Rbt.Executable>
rbdock ($Id: //depot/dev/client3/rdock/2013.1/src/exe/rbdock.cxx#4 $)

>  <Rbt.Library>
libRbt.so (2013.1, Build901 2013/11/27)

>  <Rbt.Parameter_File>
/export/apps/rDock/src/rDock_2013.1_src/data/scripts/dock_solv.prm

>  <Rbt.Receptor>
prm/blind_docking_80.prm

>  <SCORE>
-9.7801

>  <SCORE.INTER>
-9.88381

>  <SCORE.INTER.CONST>
1

>  <SCORE.INTER.POLAR>
0

>  <SCORE.INTER.ROT>
3

>  <SCORE.INTER.SOLV>
5.5101

>  <SCORE.INTER.VDW>
-14.0259

>  <SCORE.INTER.norm>
-0.617738

>  <SCORE.INTRA>
0.1017

>  <SCORE.INTRA.DIHEDRAL>
-0.20529

>  <SCORE.INTRA.DIHEDRAL.0>
3.89056

>  <SCORE.INTRA.POLAR>
0

>  <SCORE.INTRA.POLAR.0>
0

>  <SCORE.INTRA.REPUL>
0

>  <SCORE.INTRA.REPUL.0>
0

>  <SCORE.INTRA.SOLV>
0.0576317

>  <SCORE.INTRA.SOLV.lig_0>
-20.733

>  <SCORE.INTRA.VDW>
0.175529

>  <SCORE.INTRA.VDW.0>
-0.828515

>  <SCORE.INTRA.norm>
0.00635623

>  <SCORE.RESTR>
0.00201257

>  <SCORE.RESTR.CAVITY>
0.00201257

>  <SCORE.RESTR.norm>
0.000125786

>  <SCORE.SYSTEM>
0

>  <SCORE.SYSTEM.CONST>
0

>  <SCORE.SYSTEM.DIHEDRAL>
0

>  <SCORE.SYSTEM.SOLV>
0

>  <SCORE.SYSTEM.norm>
0

>  <SCORE.heavy>
16

>  <SCORE.norm>
-0.611256

>  <RMSD>
16.160

$$$$
ligand
 OpenBabel02271912153D
libRbt.so/2013.1/901 2013/11/27
 16 17  0  0  0  0  0  0  0  0999 V2000
    6.6786   13.6471   70.6559 N   0  0  0  0  0  0  0  0  0  0  0  0
    7.6771   12.8644   71.3020 C   0  0  2  0  0  0  0  0  0  0  0  0
    8.8191   12.5392   70.3801 C   0  0  0  0  0  0  0  0  0  0  0  0
    8.8270   13.0168   69.2194 O   0  0  0  0  0  0  0  0  0  0  0  0
    2.0120   11.1012   69.5322 O   0  0  0  0  0  0  0  0  0  0  0  0
    7.0895   11.5786   71.8323 C   0  0  0  0  0  0  0  0  0  0  0  0
    6.8548   10.5446   70.7569 C   0  0  0  0  0  0  0  0  0  0  0  0
    7.7687    9.6868   70.2911 C   0  0  0  0  0  0  0  0  0  0  0  0
    5.5646   10.3867   70.1543 C   0  0  0  0  0  0  0  0  0  0  0  0
    5.7406    9.3182   69.2330 C   0  0  0  0  0  0  0  0  0  0  0  0
    4.3393   10.9816   70.2784 C   0  0  0  0  0  0  0  0  0  0  0  0
    7.0971    8.9553   69.3784 N   0  0  0  0  0  0  0  0  0  0  0  0
    4.7542    8.8525   68.4514 C   0  0  0  0  0  0  0  0  0  0  0  0
    3.2788   10.5089   69.4462 C   0  0  0  0  0  0  0  0  0  0  0  0
    3.4833    9.4321   68.5126 C   0  0  0  0  0  0  0  0  0  0  0  0
    9.7388   11.7877   70.7667 O   0  0  0  0  0  0  0  0  0  0  0  0
  2  1  1  6  0  0  0
  2  3  1  0  0  0  0
  2  6  1  0  0  0  0
  3  4  1  0  0  0  0
  3 16  1  0  0  0  0
  5 14  1  0  0  0  0
  6  7  1  0  0  0  0
  7  8  2  0  0  0  0
  7  9  1  0  0  0  0
  8 12  1  0  0  0  0
  9 10  2  0  0  0  0
  9 11  1  0  0  0  0
 10 13  1  0  0  0  0
 10 12  1  0  0  0  0
 11 14  2  0  0  0  0
 13 15  2  0  0  0  0
 14 15  1  0  0  0  0
M  END
>  <CHROM.1>
3.66342073,76.86848382,84.58471276,6.29569271,11.02960011,70.02579413,0.47050556
-0.09857946,0.33773355

>  <Name>
ligand

>  <RI>
0

>  <Rbt.Current_Directory>
/home/itssahil/PROJECTS/Mol_Feturizer/Test_systems_manuscript/rnas/5kpy

>  <Rbt.Executable>
rbdock ($Id: //depot/dev/client3/rdock/2013.1/src/exe/rbdock.cxx#4 $)

>  <Rbt.Library>
libRbt.so (2013.1, Build901 2013/11/27)

>  <Rbt.Parameter_File>
/export/apps/rDock/src/rDock_2013.1_src/data/scripts/dock_solv.prm

>  <Rbt.Receptor>
prm/blind_docking_80.prm

>  <SCORE>
-14.3632

>  <SCORE.INTER>
-14.7856

>  <SCORE.INTER.CONST>
1

>  <SCORE.INTER.POLAR>
0

>  <SCORE.INTER.ROT>
3

>  <SCORE.INTER.SOLV>
2.65111

>  <SCORE.INTER.VDW>
-16.3408

>  <SCORE.INTER.norm>
-0.924098

>  <SCORE.INTRA>
0.421167

>  <SCORE.INTRA.DIHEDRAL>
0.988502

>  <SCORE.INTRA.DIHEDRAL.0>
3.89056

>  <SCORE.INTRA.POLAR>
0

>  <SCORE.INTRA.POLAR.0>
0

>  <SCORE.INTRA.REPUL>
0

>  <SCORE.INTRA.REPUL.0>
0

>  <SCORE.INTRA.SOLV>
-0.195919

>  <SCORE.INTRA.SOLV.lig_0>
-20.733

>  <SCORE.INTRA.VDW>
0.0248755

>  <SCORE.INTRA.VDW.0>
-0.828515

>  <SCORE.INTRA.norm>
0.026323

>  <SCORE.RESTR>
0.00117124

>  <SCORE.RESTR.CAVITY>
0.00117124

>  <SCORE.RESTR.norm>
7.32028e-05

>  <SCORE.SYSTEM>
0

>  <SCORE.SYSTEM.CONST>
0

>  <SCORE.SYSTEM.DIHEDRAL>
0

>  <SCORE.SYSTEM.SOLV>
0

>  <SCORE.SYSTEM.norm>
0

>  <SCORE.heavy>
16

>  <SCORE.norm>
-0.897702

>  <RMSD>
16.164

$$$$
ligand
 OpenBabel02271912153D
libRbt.so/2013.1/901 2013/11/27
 16 17  0  0  0  0  0  0  0  0999 V2000
    6.5792   13.6120   70.6146 N   0  0  0  0  0  0  0  0  0  0  0  0
    7.6131   12.8589   71.2399 C   0  0  2  0  0  0  0  0  0  0  0  0
    8.7450   12.5669   70.2947 C   0  0  0  0  0  0  0  0  0  0  0  0
    9.7171   11.8805   70.6935 O   0  0  0  0  0  0  0  0  0  0  0  0
    1.9607   11.1011   69.5579 O   0  0  0  0  0  0  0  0  0  0  0  0
    7.0741   11.5566   71.7815 C   0  0  0  0  0  0  0  0  0  0  0  0
    6.8198   10.5261   70.7072 C   0  0  0  0  0  0  0  0  0  0  0  0
    7.7237    9.6666   70.2254 C   0  0  0  0  0  0  0  0  0  0  0  0
    5.5200   10.3738   70.1239 C   0  0  0  0  0  0  0  0  0  0  0  0
    5.6786    9.3072   69.1974 C   0  0  0  0  0  0  0  0  0  0  0  0
    4.2986   10.9722   70.2682 C   0  0  0  0  0  0  0  0  0  0  0  0
    7.0360    8.9396   69.3211 N   0  0  0  0  0  0  0  0  0  0  0  0
    4.6789    8.8466   68.4297 C   0  0  0  0  0  0  0  0  0  0  0  0
    3.2241   10.5050   69.4510 C   0  0  0  0  0  0  0  0  0  0  0  0
    3.4110    9.4300   68.5117 C   0  0  0  0  0  0  0  0  0  0  0  0
    8.7189   13.0198   69.1309 O   0  0  0  0  0  0  0  0  0  0  0  0
  2  1  1  6  0  0  0
  2  3  1  0  0  0  0
  2  6  1  0  0  0  0
  3  4  1  0  0  0  0
  3 16  1  0  0  0  0
  5 14  1  0  0  0  0
  6  7  1  0  0  0  0
  7  8  2  0  0  0  0
  7  9  1  0  0  0  0
  8 12  1  0  0  0  0
  9 10  2  0  0  0  0
  9 11  1  0  0  0  0
 10 13  1  0  0  0  0
 10 12  1  0  0  0  0
 11 14  2  0  0  0  0
 13 15  2  0  0  0  0
 14 15  1  0  0  0  0
M  END
>  <CHROM.1>
-178.22504615,75.63718625,86.56757602,6.23770382,11.02848568,69.98498279
0.47070252,-0.08557984,0.33584205

>  <Name>
ligand

>  <RI>
0

>  <Rbt.Current_Directory>
/home/itssahil/PROJECTS/Mol_Feturizer/Test_systems_manuscript/rnas/5kpy

>  <Rbt.Executable>
rbdock ($Id: //depot/dev/client3/rdock/2013.1/src/exe/rbdock.cxx#4 $)

>  <Rbt.Library>
libRbt.so (2013.1, Build901 2013/11/27)

>  <Rbt.Parameter_File>
/export/apps/rDock/src/rDock_2013.1_src/data/scripts/dock_solv.prm

>  <Rbt.Receptor>
prm/blind_docking_80.prm

>  <SCORE>
-14.3153

>  <SCORE.INTER>
-14.5369

>  <SCORE.INTER.CONST>
1

>  <SCORE.INTER.POLAR>
0

>  <SCORE.INTER.ROT>
3

>  <SCORE.INTER.SOLV>
2.58022

>  <SCORE.INTER.VDW>
-16.1513

>  <SCORE.INTER.norm>
-0.908555

>  <SCORE.INTRA>
0.21944

>  <SCORE.INTRA.DIHEDRAL>
0.84265

>  <SCORE.INTRA.DIHEDRAL.0>
3.89056

>  <SCORE.INTRA.POLAR>
0

>  <SCORE.INTRA.POLAR.0>
0

>  <SCORE.INTRA.REPUL>
0

>  <SCORE.INTRA.REPUL.0>
0

>  <SCORE.INTRA.SOLV>
-0.136444

>  <SCORE.INTRA.SOLV.lig_0>
-20.733

>  <SCORE.INTRA.VDW>
-0.133662

>  <SCORE.INTRA.VDW.0>
-0.828515

>  <SCORE.INTRA.norm>
0.013715

>  <SCORE.RESTR>
0.00215024

>  <SCORE.RESTR.CAVITY>
0.00215024

>  <SCORE.RESTR.norm>
0.00013439

>  <SCORE.SYSTEM>
0

>  <SCORE.SYSTEM.CONST>
0

>  <SCORE.SYSTEM.DIHEDRAL>
0

>  <SCORE.SYSTEM.SOLV>
0

>  <SCORE.SYSTEM.norm>
0

>  <SCORE.heavy>
16

>  <SCORE.norm>
-0.894706

>  <RMSD>
16.203

$$$$
ligand
 OpenBabel02271912153D
libRbt.so/2013.1/901 2013/11/27
 16 17  0  0  0  0  0  0  0  0999 V2000
    7.6304   14.8295   71.8683 N   0  0  0  0  0  0  0  0  0  0  0  0
    7.9251   13.5503   71.3172 C   0  0  2  0  0  0  0  0  0  0  0  0
    8.0676   13.6028   69.8216 C   0  0  0  0  0  0  0  0  0  0  0  0
    8.8437   12.7991   69.2497 O   0  0  0  0  0  0  0  0  0  0  0  0
    2.7038   10.5992   68.4677 O   0  0  0  0  0  0  0  0  0  0  0  0
    6.8503   12.5523   71.6757 C   0  0  0  0  0  0  0  0  0  0  0  0
    7.0148   11.2245   70.9751 C   0  0  0  0  0  0  0  0  0  0  0  0
    8.0862   10.4290   71.0593 C   0  0  0  0  0  0  0  0  0  0  0  0
    5.9690   10.6884   70.1553 C   0  0  0  0  0  0  0  0  0  0  0  0
    6.4837    9.4405   69.7090 C   0  0  0  0  0  0  0  0  0  0  0  0
    4.7188   11.0853   69.7679 C   0  0  0  0  0  0  0  0  0  0  0  0
    7.7639    9.3626   70.2989 N   0  0  0  0  0  0  0  0  0  0  0  0
    5.8028    8.6116   68.9026 C   0  0  0  0  0  0  0  0  0  0  0  0
    3.9825   10.2228   68.8992 C   0  0  0  0  0  0  0  0  0  0  0  0
    4.5284    8.9681   68.4516 C   0  0  0  0  0  0  0  0  0  0  0  0
    7.4295   14.4510   69.1632 O   0  0  0  0  0  0  0  0  0  0  0  0
  2  1  1  6  0  0  0
  2  3  1  0  0  0  0
  2  6  1  0  0  0  0
  3  4  1  0  0  0  0
  3 16  1  0  0  0  0
  5 14  1  0  0  0  0
  6  7  1  0  0  0  0
  7  8  2  0  0  0  0
  7  9  1  0  0  0  0
  8 12  1  0  0  0  0
  9 10  2  0  0  0  0
  9 11  1  0  0  0  0
 10 13  1  0  0  0  0
 10 12  1  0  0  0  0
 11 14  2  0  0  0  0
 13 15  2  0  0  0  0
 14 15  1  0  0  0  0
M  END
>  <CHROM.1>
149.49960981,172.64555932,58.50746764,6.51154828,11.50432530,69.97144684
0.84652915,-0.39393483,0.06581221

>  <Name>
ligand

>  <RI>
0

>  <Rbt.Current_Directory>
/home/itssahil/PROJECTS/Mol_Feturizer/Test_systems_manuscript/rnas/5kpy

>  <Rbt.Executable>
rbdock ($Id: //depot/dev/client3/rdock/2013.1/src/exe/rbdock.cxx#4 $)

>  <Rbt.Library>
libRbt.so (2013.1, Build901 2013/11/27)

>  <Rbt.Parameter_File>
/export/apps/rDock/src/rDock_2013.1_src/data/scripts/dock_solv.prm

>  <Rbt.Receptor>
prm/blind_docking_80.prm

>  <SCORE>
-14.9939

>  <SCORE.INTER>
-14.1148

>  <SCORE.INTER.CONST>
1

>  <SCORE.INTER.POLAR>
0

>  <SCORE.INTER.ROT>
3

>  <SCORE.INTER.SOLV>
4.2219

>  <SCORE.INTER.VDW>
-16.4171

>  <SCORE.INTER.norm>
-0.882173

>  <SCORE.INTRA>
-0.879106

>  <SCORE.INTRA.DIHEDRAL>
0.114772

>  <SCORE.INTRA.DIHEDRAL.0>
3.89056

>  <SCORE.INTRA.POLAR>
0

>  <SCORE.INTRA.POLAR.0>
0

>  <SCORE.INTRA.REPUL>
0

>  <SCORE.INTRA.REPUL.0>
0

>  <SCORE.INTRA.SOLV>
-1.18291

>  <SCORE.INTRA.SOLV.lig_0>
-20.733

>  <SCORE.INTRA.VDW>
-0.345037

>  <SCORE.INTRA.VDW.0>
-0.828515

>  <SCORE.INTRA.norm>
-0.0549441

>  <SCORE.RESTR>
0

>  <SCORE.RESTR.CAVITY>
0

>  <SCORE.RESTR.norm>
0

>  <SCORE.SYSTEM>
0

>  <SCORE.SYSTEM.CONST>
0

>  <SCORE.SYSTEM.DIHEDRAL>
0

>  <SCORE.SYSTEM.SOLV>
0

>  <SCORE.SYSTEM.norm>
0

>  <SCORE.heavy>
16

>  <SCORE.norm>
-0.937118

>  <RMSD>
16.295

$$$$
ligand
 OpenBabel02271912153D
libRbt.so/2013.1/901 2013/11/27
 16 17  0  0  0  0  0  0  0  0999 V2000
    7.7375   14.8462   71.7811 N   0  0  0  0  0  0  0  0  0  0  0  0
    8.0075   13.5520   71.2529 C   0  0  2  0  0  0  0  0  0  0  0  0
    8.1719   13.5785   69.7589 C   0  0  0  0  0  0  0  0  0  0  0  0
    8.9040   12.7220   69.2060 O   0  0  0  0  0  0  0  0  0  0  0  0
    2.6226   10.5999   68.6056 O   0  0  0  0  0  0  0  0  0  0  0  0
    6.9030   12.5866   71.6107 C   0  0  0  0  0  0  0  0  0  0  0  0
    7.0360   11.2495   70.9213 C   0  0  0  0  0  0  0  0  0  0  0  0
    8.1089   10.4531   70.9708 C   0  0  0  0  0  0  0  0  0  0  0  0
    5.9560   10.7048   70.1533 C   0  0  0  0  0  0  0  0  0  0  0  0
    6.4497    9.4502   69.7022 C   0  0  0  0  0  0  0  0  0  0  0  0
    4.6911   11.0990   69.8136 C   0  0  0  0  0  0  0  0  0  0  0  0
    7.7534    9.3775   70.2387 N   0  0  0  0  0  0  0  0  0  0  0  0
    5.7344    8.6121   68.9360 C   0  0  0  0  0  0  0  0  0  0  0  0
    3.9177   10.2267   68.9880 C   0  0  0  0  0  0  0  0  0  0  0  0
    4.4427    8.9652   68.5343 C   0  0  0  0  0  0  0  0  0  0  0  0
    7.5958   14.4569   69.0831 O   0  0  0  0  0  0  0  0  0  0  0  0
  2  1  1  6  0  0  0
  2  3  1  0  0  0  0
  2  6  1  0  0  0  0
  3  4  1  0  0  0  0
  3 16  1  0  0  0  0
  5 14  1  0  0  0  0
  6  7  1  0  0  0  0
  7  8  2  0  0  0  0
  7  9  1  0  0  0  0
  8 12  1  0  0  0  0
  9 10  2  0  0  0  0
  9 11  1  0  0  0  0
 10 13  1  0  0  0  0
 10 12  1  0  0  0  0
 11 14  2  0  0  0  0
 13 15  2  0  0  0  0
 14 15  1  0  0  0  0
M  END
>  <CHROM.1>
151.60841743,172.07258476,55.29028303,6.52928664,11.50723477,69.95655963
0.82945888,-0.33035556,0.07120025

>  <Name>
ligand

>  <RI>
0

>  <Rbt.Current_Directory>
/home/itssahil/PROJECTS/Mol_Feturizer/Test_systems_manuscript/rnas/5kpy

>  <Rbt.Executable>
rbdock ($Id: //depot/dev/client3/rdock/2013.1/src/exe/rbdock.cxx#4 $)

>  <Rbt.Library>
libRbt.so (2013.1, Build901 2013/11/27)

>  <Rbt.Parameter_File>
/export/apps/rDock/src/rDock_2013.1_src/data/scripts/dock_solv.prm

>  <Rbt.Receptor>
prm/blind_docking_80.prm

>  <SCORE>
-15.0158

>  <SCORE.INTER>
-14.256

>  <SCORE.INTER.CONST>
1

>  <SCORE.INTER.POLAR>
0

>  <SCORE.INTER.ROT>
3

>  <SCORE.INTER.SOLV>
4.15069

>  <SCORE.INTER.VDW>
-16.4875

>  <SCORE.INTER.norm>
-0.890997

>  <SCORE.INTRA>
-0.75986

>  <SCORE.INTRA.DIHEDRAL>
0.135414

>  <SCORE.INTRA.DIHEDRAL.0>
3.89056

>  <SCORE.INTRA.POLAR>
0

>  <SCORE.INTRA.POLAR.0>
0

>  <SCORE.INTRA.REPUL>
0

>  <SCORE.INTRA.REPUL.0>
0

>  <SCORE.INTRA.SOLV>
-1.1818

>  <SCORE.INTRA.SOLV.lig_0>
-20.733

>  <SCORE.INTRA.VDW>
-0.236668

>  <SCORE.INTRA.VDW.0>
-0.828515

>  <SCORE.INTRA.norm>
-0.0474913

>  <SCORE.RESTR>
0

>  <SCORE.RESTR.CAVITY>
0

>  <SCORE.RESTR.norm>
0

>  <SCORE.SYSTEM>
0

>  <SCORE.SYSTEM.CONST>
0

>  <SCORE.SYSTEM.DIHEDRAL>
0

>  <SCORE.SYSTEM.SOLV>
0

>  <SCORE.SYSTEM.norm>
0

>  <SCORE.heavy>
16

>  <SCORE.norm>
-0.938489

>  <RMSD>
16.318

$$$$
ligand
 OpenBabel02271912153D
libRbt.so/2013.1/901 2013/11/27
 16 17  0  0  0  0  0  0  0  0999 V2000
    7.7503   14.8638   71.7653 N   0  0  0  0  0  0  0  0  0  0  0  0
    8.0059   13.5792   71.2072 C   0  0  2  0  0  0  0  0  0  0  0  0
    8.1231   13.6312   69.7094 C   0  0  0  0  0  0  0  0  0  0  0  0
    7.5132   14.5269   69.0760 O   0  0  0  0  0  0  0  0  0  0  0  0
    2.7092   10.6037   68.4844 O   0  0  0  0  0  0  0  0  0  0  0  0
    6.9151   12.6054   71.5833 C   0  0  0  0  0  0  0  0  0  0  0  0
    7.0613   11.2608   70.9113 C   0  0  0  0  0  0  0  0  0  0  0  0
    8.1293   10.4610   70.9978 C   0  0  0  0  0  0  0  0  0  0  0  0
    6.0002   10.7122   70.1201 C   0  0  0  0  0  0  0  0  0  0  0  0
    6.5008    9.4512   69.6952 C   0  0  0  0  0  0  0  0  0  0  0  0
    4.7464   11.1075   69.7425 C   0  0  0  0  0  0  0  0  0  0  0  0
    7.7894    9.3793   70.2674 N   0  0  0  0  0  0  0  0  0  0  0  0
    5.8031    8.6080   68.9186 C   0  0  0  0  0  0  0  0  0  0  0  0
    3.9921   10.2297   68.9052 C   0  0  0  0  0  0  0  0  0  0  0  0
    4.5241    8.9616   68.4787 C   0  0  0  0  0  0  0  0  0  0  0  0
    8.8089   12.7786   69.1070 O   0  0  0  0  0  0  0  0  0  0  0  0
  2  1  1  6  0  0  0
  2  3  1  0  0  0  0
  2  6  1  0  0  0  0
  3  4  1  0  0  0  0
  3 16  1  0  0  0  0
  5 14  1  0  0  0  0
  6  7  1  0  0  0  0
  7  8  2  0  0  0  0
  7  9  1  0  0  0  0
  8 12  1  0  0  0  0
  9 10  2  0  0  0  0
  9 11  1  0  0  0  0
 10 13  1  0  0  0  0
 10 12  1  0  0  0  0
 11 14  2  0  0  0  0
 13 15  2  0  0  0  0
 14 15  1  0  0  0  0
M  END
>  <CHROM.1>
-27.71538903,174.46203734,57.33470883,6.54749295,11.52609966,69.91851289
0.84156424,-0.38542150,0.03899937

>  <Name>
ligand

>  <RI>
0

>  <Rbt.Current_Directory>
/home/itssahil/PROJECTS/Mol_Feturizer/Test_systems_manuscript/rnas/5kpy

>  <Rbt.Executable>
rbdock ($Id: //depot/dev/client3/rdock/2013.1/src/exe/rbdock.cxx#4 $)

>  <Rbt.Library>
libRbt.so (2013.1, Build901 2013/11/27)

>  <Rbt.Parameter_File>
/export/apps/rDock/src/rDock_2013.1_src/data/scripts/dock_solv.prm

>  <Rbt.Receptor>
prm/blind_docking_80.prm

>  <SCORE>
-15.016

>  <SCORE.INTER>
-14.083

>  <SCORE.INTER.CONST>
1

>  <SCORE.INTER.POLAR>
0

>  <SCORE.INTER.ROT>
3

>  <SCORE.INTER.SOLV>
4.2048

>  <SCORE.INTER.VDW>
-16.3902

>  <SCORE.INTER.norm>
-0.880185

>  <SCORE.INTRA>
-0.936756

>  <SCORE.INTRA.DIHEDRAL>
-0.0493285

>  <SCORE.INTRA.DIHEDRAL.0>
3.89056

>  <SCORE.INTRA.POLAR>
0

>  <SCORE.INTRA.POLAR.0>
0

>  <SCORE.INTRA.REPUL>
0

>  <SCORE.INTRA.REPUL.0>
0

>  <SCORE.INTRA.SOLV>
-1.1809

>  <SCORE.INTRA.SOLV.lig_0>
-20.733

>  <SCORE.INTRA.VDW>
-0.321643

>  <SCORE.INTRA.VDW.0>
-0.828515

>  <SCORE.INTRA.norm>
-0.0585472

>  <SCORE.RESTR>
0.00366591

>  <SCORE.RESTR.CAVITY>
0.00366591

>  <SCORE.RESTR.norm>
0.00022912

>  <SCORE.SYSTEM>
0

>  <SCORE.SYSTEM.CONST>
0

>  <SCORE.SYSTEM.DIHEDRAL>
0

>  <SCORE.SYSTEM.SOLV>
0

>  <SCORE.SYSTEM.norm>
0

>  <SCORE.heavy>
16

>  <SCORE.norm>
-0.938503

>  <RMSD>
16.351

$$$$
ligand
 OpenBabel02271912153D
libRbt.so/2013.1/901 2013/11/27
 16 17  0  0  0  0  0  0  0  0999 V2000
    7.9952   14.6998   72.0356 N   0  0  0  0  0  0  0  0  0  0  0  0
    7.9655   13.5869   71.1481 C   0  0  2  0  0  0  0  0  0  0  0  0
    7.7566   14.0122   69.7214 C   0  0  0  0  0  0  0  0  0  0  0  0
    8.2449   13.3193   68.7958 O   0  0  0  0  0  0  0  0  0  0  0  0
    2.8414   10.6072   68.2248 O   0  0  0  0  0  0  0  0  0  0  0  0
    6.8745   12.6191   71.5392 C   0  0  0  0  0  0  0  0  0  0  0  0
    7.0384   11.2544   70.9135 C   0  0  0  0  0  0  0  0  0  0  0  0
    8.0831   10.4389   71.0905 C   0  0  0  0  0  0  0  0  0  0  0  0
    6.0207   10.7030   70.0690 C   0  0  0  0  0  0  0  0  0  0  0  0
    6.5237    9.4225   69.7107 C   0  0  0  0  0  0  0  0  0  0  0  0
    4.8019   11.1096   69.6000 C   0  0  0  0  0  0  0  0  0  0  0  0
    7.7708    9.3437   70.3677 N   0  0  0  0  0  0  0  0  0  0  0  0
    5.8620    8.5707   68.9124 C   0  0  0  0  0  0  0  0  0  0  0  0
    4.0869   10.2226   68.7383 C   0  0  0  0  0  0  0  0  0  0  0  0
    4.6212    8.9343   68.3806 C   0  0  0  0  0  0  0  0  0  0  0  0
    7.1165   15.0544   69.4682 O   0  0  0  0  0  0  0  0  0  0  0  0
  2  1  1  1  0  0  0
  2  3  1  0  0  0  0
  2  6  1  0  0  0  0
  3  4  1  0  0  0  0
  3 16  1  0  0  0  0
  5 14  1  0  0  0  0
  6  7  1  0  0  0  0
  7  8  2  0  0  0  0
  7  9  1  0  0  0  0
  8 12  1  0  0  0  0
  9 10  2  0  0  0  0
  9 11  1  0  0  0  0
 10 13  1  0  0  0  0
 10 12  1  0  0  0  0
 11 14  2  0  0  0  0
 13 15  2  0  0  0  0
 14 15  1  0  0  0  0
M  END
>  <CHROM.1>
149.97094169,-163.17737495,60.54451205,6.48963300,11.60939104,69.90351034
-0.87630480,0.56210159,3.09365670

>  <Name>
ligand

>  <RI>
0

>  <Rbt.Current_Directory>
/home/itssahil/PROJECTS/Mol_Feturizer/Test_systems_manuscript/rnas/5kpy

>  <Rbt.Executable>
rbdock ($Id: //depot/dev/client3/rdock/2013.1/src/exe/rbdock.cxx#4 $)

>  <Rbt.Library>
libRbt.so (2013.1, Build901 2013/11/27)

>  <Rbt.Parameter_File>
/export/apps/rDock/src/rDock_2013.1_src/data/scripts/dock_solv.prm

>  <Rbt.Receptor>
prm/blind_docking_80.prm

>  <SCORE>
-13.0047

>  <SCORE.INTER>
-12.3466

>  <SCORE.INTER.CONST>
1

>  <SCORE.INTER.POLAR>
0

>  <SCORE.INTER.ROT>
3

>  <SCORE.INTER.SOLV>
5.16834

>  <SCORE.INTER.VDW>
-15.5538

>  <SCORE.INTER.norm>
-0.771659

>  <SCORE.INTRA>
-0.665357

>  <SCORE.INTRA.DIHEDRAL>
0.927461

>  <SCORE.INTRA.DIHEDRAL.0>
3.89056

>  <SCORE.INTRA.POLAR>
0

>  <SCORE.INTRA.POLAR.0>
0

>  <SCORE.INTRA.REPUL>
0

>  <SCORE.INTRA.REPUL.0>
0

>  <SCORE.INTRA.SOLV>
-1.17209

>  <SCORE.INTRA.SOLV.lig_0>
-20.733

>  <SCORE.INTRA.VDW>
-0.543043

>  <SCORE.INTRA.VDW.0>
-0.828515

>  <SCORE.INTRA.norm>
-0.0415848

>  <SCORE.RESTR>
0.00718473

>  <SCORE.RESTR.CAVITY>
0.00718473

>  <SCORE.RESTR.norm>
0.000449046

>  <SCORE.SYSTEM>
0

>  <SCORE.SYSTEM.CONST>
0

>  <SCORE.SYSTEM.DIHEDRAL>
0

>  <SCORE.SYSTEM.SOLV>
0

>  <SCORE.SYSTEM.norm>
0

>  <SCORE.heavy>
16

>  <SCORE.norm>
-0.812795

>  <RMSD>
16.382

$$$$
ligand
 OpenBabel02271912153D
libRbt.so/2013.1/901 2013/11/27
 16 17  0  0  0  0  0  0  0  0999 V2000
    2.3183    9.4574   67.5403 N   0  0  0  0  0  0  0  0  0  0  0  0
    2.2952    9.7052   68.9421 C   0  0  2  0  0  0  0  0  0  0  0  0
    0.9869   10.2980   69.3858 C   0  0  0  0  0  0  0  0  0  0  0  0
    0.3932   11.1087   68.6338 O   0  0  0  0  0  0  0  0  0  0  0  0
    7.4371   12.5588   72.7220 O   0  0  0  0  0  0  0  0  0  0  0  0
    3.4177   10.6331   69.3404 C   0  0  0  0  0  0  0  0  0  0  0  0
    4.7705    9.9617   69.3446 C   0  0  0  0  0  0  0  0  0  0  0  0
    5.1247    8.9229   68.5809 C   0  0  0  0  0  0  0  0  0  0  0  0
    5.8266   10.4355   70.1891 C   0  0  0  0  0  0  0  0  0  0  0  0
    6.9215    9.5802   69.8878 C   0  0  0  0  0  0  0  0  0  0  0  0
    5.9780   11.4332   71.1123 C   0  0  0  0  0  0  0  0  0  0  0  0
    6.4131    8.6976   68.9103 N   0  0  0  0  0  0  0  0  0  0  0  0
    8.1226    9.6899   70.4763 C   0  0  0  0  0  0  0  0  0  0  0  0
    7.2452   11.5589   71.7596 C   0  0  0  0  0  0  0  0  0  0  0  0
    8.3369   10.6742   71.4458 C   0  0  0  0  0  0  0  0  0  0  0  0
    0.5100    9.9946   70.4996 O   0  0  0  0  0  0  0  0  0  0  0  0
  2  1  1  6  0  0  0
  2  3  1  0  0  0  0
  2  6  1  0  0  0  0
  3  4  1  0  0  0  0
  3 16  1  0  0  0  0
  5 14  1  0  0  0  0
  6  7  1  0  0  0  0
  7  8  2  0  0  0  0
  7  9  1  0  0  0  0
  8 12  1  0  0  0  0
  9 10  2  0  0  0  0
  9 11  1  0  0  0  0
 10 13  1  0  0  0  0
 10 12  1  0  0  0  0
 11 14  2  0  0  0  0
 13 15  2  0  0  0  0
 14 15  1  0  0  0  0
M  END
>  <CHROM.1>
-36.21691014,-74.57070239,28.13215654,4.61220715,10.32428427,69.92023360
-2.82036881,-0.15498803,0.84031271

>  <Name>
ligand

>  <RI>
0

>  <Rbt.Current_Directory>
/home/itssahil/PROJECTS/Mol_Feturizer/Test_systems_manuscript/rnas/5kpy

>  <Rbt.Executable>
rbdock ($Id: //depot/dev/client3/rdock/2013.1/src/exe/rbdock.cxx#4 $)

>  <Rbt.Library>
libRbt.so (2013.1, Build901 2013/11/27)

>  <Rbt.Parameter_File>
/export/apps/rDock/src/rDock_2013.1_src/data/scripts/dock_solv.prm

>  <Rbt.Receptor>
prm/blind_docking_80.prm

>  <SCORE>
-11.4274

>  <SCORE.INTER>
-11.8078

>  <SCORE.INTER.CONST>
1

>  <SCORE.INTER.POLAR>
0

>  <SCORE.INTER.ROT>
3

>  <SCORE.INTER.SOLV>
4.73421

>  <SCORE.INTER.VDW>
-15.0499

>  <SCORE.INTER.norm>
-0.737986

>  <SCORE.INTRA>
0.380332

>  <SCORE.INTRA.DIHEDRAL>
0.579504

>  <SCORE.INTRA.DIHEDRAL.0>
3.89056

>  <SCORE.INTRA.POLAR>
0

>  <SCORE.INTRA.POLAR.0>
0

>  <SCORE.INTRA.REPUL>
0

>  <SCORE.INTRA.REPUL.0>
0

>  <SCORE.INTRA.SOLV>
-0.202932

>  <SCORE.INTRA.SOLV.lig_0>
-20.733

>  <SCORE.INTRA.VDW>
0.192046

>  <SCORE.INTRA.VDW.0>
-0.828515

>  <SCORE.INTRA.norm>
0.0237708

>  <SCORE.RESTR>
0

>  <SCORE.RESTR.CAVITY>
0

>  <SCORE.RESTR.norm>
0

>  <SCORE.SYSTEM>
0

>  <SCORE.SYSTEM.CONST>
0

>  <SCORE.SYSTEM.DIHEDRAL>
0

>  <SCORE.SYSTEM.SOLV>
0

>  <SCORE.SYSTEM.norm>
0

>  <SCORE.heavy>
16

>  <SCORE.norm>
-0.714216

>  <RMSD>
16.459

$$$$
ligand
 OpenBabel02271912153D
libRbt.so/2013.1/901 2013/11/27
 16 17  0  0  0  0  0  0  0  0999 V2000
    0.5907    9.9615   67.9177 N   0  0  0  0  0  0  0  0  0  0  0  0
    1.7213    9.7078   68.7450 C   0  0  2  0  0  0  0  0  0  0  0  0
    1.4418   10.0201   70.1887 C   0  0  0  0  0  0  0  0  0  0  0  0
    0.8300    9.1796   70.8919 O   0  0  0  0  0  0  0  0  0  0  0  0
    5.3565   13.0648   72.6257 O   0  0  0  0  0  0  0  0  0  0  0  0
    2.9118   10.5156   68.2870 C   0  0  0  0  0  0  0  0  0  0  0  0
    4.2254    9.9894   68.8146 C   0  0  0  0  0  0  0  0  0  0  0  0
    4.8985    8.9447   68.3210 C   0  0  0  0  0  0  0  0  0  0  0  0
    4.8854   10.6243   69.9165 C   0  0  0  0  0  0  0  0  0  0  0  0
    6.0774    9.8688   70.0887 C   0  0  0  0  0  0  0  0  0  0  0  0
    4.6331   11.6909   70.7347 C   0  0  0  0  0  0  0  0  0  0  0  0
    6.0061    8.8759   69.0876 N   0  0  0  0  0  0  0  0  0  0  0  0
    6.9886   10.1405   71.0356 C   0  0  0  0  0  0  0  0  0  0  0  0
    5.5847   11.9892   71.7575 C   0  0  0  0  0  0  0  0  0  0  0  0
    6.7801   11.2033   71.9196 C   0  0  0  0  0  0  0  0  0  0  0  0
    1.8033   11.1136   70.6720 O   0  0  0  0  0  0  0  0  0  0  0  0
  2  1  1  6  0  0  0
  2  3  1  0  0  0  0
  2  6  1  0  0  0  0
  3  4  1  0  0  0  0
  3 16  1  0  0  0  0
  5 14  1  0  0  0  0
  6  7  1  0  0  0  0
  7  8  2  0  0  0  0
  7  9  1  0  0  0  0
  8 12  1  0  0  0  0
  9 10  2  0  0  0  0
  9 11  1  0  0  0  0
 10 13  1  0  0  0  0
 10 12  1  0  0  0  0
 11 14  2  0  0  0  0
 13 15  2  0  0  0  0
 14 15  1  0  0  0  0
M  END
>  <CHROM.1>
81.10873081,-161.72857705,79.39326658,3.93150255,10.44788820,70.08559263
-2.65192502,-0.05390495,0.89580315

>  <Name>
ligand

>  <RI>
0

>  <Rbt.Current_Directory>
/home/itssahil/PROJECTS/Mol_Feturizer/Test_systems_manuscript/rnas/5kpy

>  <Rbt.Executable>
rbdock ($Id: //depot/dev/client3/rdock/2013.1/src/exe/rbdock.cxx#4 $)

>  <Rbt.Library>
libRbt.so (2013.1, Build901 2013/11/27)

>  <Rbt.Parameter_File>
/export/apps/rDock/src/rDock_2013.1_src/data/scripts/dock_solv.prm

>  <Rbt.Receptor>
prm/blind_docking_80.prm

>  <SCORE>
-10.9417

>  <SCORE.INTER>
-11.0956

>  <SCORE.INTER.CONST>
1

>  <SCORE.INTER.POLAR>
0

>  <SCORE.INTER.ROT>
3

>  <SCORE.INTER.SOLV>
3.67763

>  <SCORE.INTER.VDW>
-14.2229

>  <SCORE.INTER.norm>
-0.693474

>  <SCORE.INTRA>
0.153873

>  <SCORE.INTRA.DIHEDRAL>
1.1114

>  <SCORE.INTRA.DIHEDRAL.0>
3.89056

>  <SCORE.INTRA.POLAR>
0

>  <SCORE.INTRA.POLAR.0>
0

>  <SCORE.INTRA.REPUL>
0

>  <SCORE.INTRA.REPUL.0>
0

>  <SCORE.INTRA.SOLV>
-1.18167

>  <SCORE.INTRA.SOLV.lig_0>
-20.733

>  <SCORE.INTRA.VDW>
0.189006

>  <SCORE.INTRA.VDW.0>
-0.828515

>  <SCORE.INTRA.norm>
0.00961706

>  <SCORE.RESTR>
0

>  <SCORE.RESTR.CAVITY>
0

>  <SCORE.RESTR.norm>
0

>  <SCORE.SYSTEM>
0

>  <SCORE.SYSTEM.CONST>
0

>  <SCORE.SYSTEM.DIHEDRAL>
0

>  <SCORE.SYSTEM.SOLV>
0

>  <SCORE.SYSTEM.norm>
0

>  <SCORE.heavy>
16

>  <SCORE.norm>
-0.683857

>  <RMSD>
16.466

$$$$
ligand
 OpenBabel02271912153D
libRbt.so/2013.1/901 2013/11/27
 16 17  0  0  0  0  0  0  0  0999 V2000
    1.9052    9.1541   67.7082 N   0  0  0  0  0  0  0  0  0  0  0  0
    1.9845    9.6493   69.0407 C   0  0  2  0  0  0  0  0  0  0  0  0
    0.7151   10.3363   69.4607 C   0  0  0  0  0  0  0  0  0  0  0  0
    0.2399   10.1066   70.5994 O   0  0  0  0  0  0  0  0  0  0  0  0
    7.1559   12.5256   72.5769 O   0  0  0  0  0  0  0  0  0  0  0  0
    3.1382   10.6125   69.1860 C   0  0  0  0  0  0  0  0  0  0  0  0
    4.4846    9.9287   69.2029 C   0  0  0  0  0  0  0  0  0  0  0  0
    4.8336    8.8812   68.4487 C   0  0  0  0  0  0  0  0  0  0  0  0
    5.5402   10.3989   70.0500 C   0  0  0  0  0  0  0  0  0  0  0  0
    6.6290    9.5314   69.7611 C   0  0  0  0  0  0  0  0  0  0  0  0
    5.6956   11.4018   70.9669 C   0  0  0  0  0  0  0  0  0  0  0  0
    6.1180    8.6465   68.7871 N   0  0  0  0  0  0  0  0  0  0  0  0
    7.8276    9.6343   70.3558 C   0  0  0  0  0  0  0  0  0  0  0  0
    6.9602   11.5205   71.6206 C   0  0  0  0  0  0  0  0  0  0  0  0
    8.0454   10.6236   71.3194 C   0  0  0  0  0  0  0  0  0  0  0  0
    0.1361   11.1137   68.6730 O   0  0  0  0  0  0  0  0  0  0  0  0
  2  1  1  6  0  0  0
  2  3  1  0  0  0  0
  2  6  1  0  0  0  0
  3  4  1  0  0  0  0
  3 16  1  0  0  0  0
  5 14  1  0  0  0  0
  6  7  1  0  0  0  0
  7  8  2  0  0  0  0
  7  9  1  0  0  0  0
  8 12  1  0  0  0  0
  9 10  2  0  0  0  0
  9 11  1  0  0  0  0
 10 13  1  0  0  0  0
 10 12  1  0  0  0  0
 11 14  2  0  0  0  0
 13 15  2  0  0  0  0
 14 15  1  0  0  0  0
M  END
>  <CHROM.1>
135.97098347,-74.00510610,38.77794346,4.31940023,10.28535319,69.86189647
-2.84940299,-0.14071755,0.82214469

>  <Name>
ligand

>  <RI>
0

>  <Rbt.Current_Directory>
/home/itssahil/PROJECTS/Mol_Feturizer/Test_systems_manuscript/rnas/5kpy

>  <Rbt.Executable>
rbdock ($Id: //depot/dev/client3/rdock/2013.1/src/exe/rbdock.cxx#4 $)

>  <Rbt.Library>
libRbt.so (2013.1, Build901 2013/11/27)

>  <Rbt.Parameter_File>
/export/apps/rDock/src/rDock_2013.1_src/data/scripts/dock_solv.prm

>  <Rbt.Receptor>
prm/blind_docking_80.prm

>  <SCORE>
-11.3179

>  <SCORE.INTER>
-11.5862

>  <SCORE.INTER.CONST>
1

>  <SCORE.INTER.POLAR>
0

>  <SCORE.INTER.ROT>
3

>  <SCORE.INTER.SOLV>
4.53425

>  <SCORE.INTER.VDW>
-14.8355

>  <SCORE.INTER.norm>
-0.724135

>  <SCORE.INTRA>
0.268286

>  <SCORE.INTRA.DIHEDRAL>
0.581602

>  <SCORE.INTRA.DIHEDRAL.0>
3.89056

>  <SCORE.INTRA.POLAR>
0

>  <SCORE.INTRA.POLAR.0>
0

>  <SCORE.INTRA.REPUL>
0

>  <SCORE.INTRA.REPUL.0>
0

>  <SCORE.INTRA.SOLV>
-0.199022

>  <SCORE.INTRA.SOLV.lig_0>
-20.733

>  <SCORE.INTRA.VDW>
0.0769954

>  <SCORE.INTRA.VDW.0>
-0.828515

>  <SCORE.INTRA.norm>
0.0167678

>  <SCORE.RESTR>
0

>  <SCORE.RESTR.CAVITY>
0

>  <SCORE.RESTR.norm>
0

>  <SCORE.SYSTEM>
0

>  <SCORE.SYSTEM.CONST>
0

>  <SCORE.SYSTEM.DIHEDRAL>
0

>  <SCORE.SYSTEM.SOLV>
0

>  <SCORE.SYSTEM.norm>
0

>  <SCORE.heavy>
16

>  <SCORE.norm>
-0.707367

>  <RMSD>
16.533

$$$$
ligand
 OpenBabel02271912153D
libRbt.so/2013.1/901 2013/11/27
 16 17  0  0  0  0  0  0  0  0999 V2000
    0.9290   10.3044   67.5632 N   0  0  0  0  0  0  0  0  0  0  0  0
    2.0413    9.5931   68.0960 C   0  0  2  0  0  0  0  0  0  0  0  0
    1.6274    8.6282   69.1718 C   0  0  0  0  0  0  0  0  0  0  0  0
    1.9547    7.4206   69.0733 O   0  0  0  0  0  0  0  0  0  0  0  0
    6.4500   12.6608   72.5809 O   0  0  0  0  0  0  0  0  0  0  0  0
    3.0679   10.5474   68.6574 C   0  0  0  0  0  0  0  0  0  0  0  0
    4.4063    9.8967   68.9141 C   0  0  0  0  0  0  0  0  0  0  0  0
    4.8916    8.8346   68.2627 C   0  0  0  0  0  0  0  0  0  0  0  0
    5.3026   10.4181   69.9029 C   0  0  0  0  0  0  0  0  0  0  0  0
    6.4394    9.5681   69.8231 C   0  0  0  0  0  0  0  0  0  0  0  0
    5.2895   11.4527   70.7974 C   0  0  0  0  0  0  0  0  0  0  0  0
    6.1087    8.6411   68.8110 N   0  0  0  0  0  0  0  0  0  0  0  0
    7.5243    9.7180   70.5986 C   0  0  0  0  0  0  0  0  0  0  0  0
    6.4297   11.6219   71.6412 C   0  0  0  0  0  0  0  0  0  0  0  0
    7.5656   10.7420   71.5496 C   0  0  0  0  0  0  0  0  0  0  0  0
    0.9508    9.0284   70.1425 O   0  0  0  0  0  0  0  0  0  0  0  0
  2  1  1  1  0  0  0
  2  3  1  0  0  0  0
  2  6  1  0  0  0  0
  3  4  1  0  0  0  0
  3 16  1  0  0  0  0
  5 14  1  0  0  0  0
  6  7  1  0  0  0  0
  7  8  2  0  0  0  0
  7  9  1  0  0  0  0
  8 12  1  0  0  0  0
  9 10  2  0  0  0  0
  9 11  1  0  0  0  0
 10 13  1  0  0  0  0
 10 12  1  0  0  0  0
 11 14  2  0  0  0  0
 13 15  2  0  0  0  0
 14 15  1  0  0  0  0
M  END
>  <CHROM.1>
125.72204295,-165.37492076,27.27133331,4.31965647,9.92395844,69.72667627
2.58450343,0.14423958,-2.46518561

>  <Name>
ligand

>  <RI>
0

>  <Rbt.Current_Directory>
/home/itssahil/PROJECTS/Mol_Feturizer/Test_systems_manuscript/rnas/5kpy

>  <Rbt.Executable>
rbdock ($Id: //depot/dev/client3/rdock/2013.1/src/exe/rbdock.cxx#4 $)

>  <Rbt.Library>
libRbt.so (2013.1, Build901 2013/11/27)

>  <Rbt.Parameter_File>
/export/apps/rDock/src/rDock_2013.1_src/data/scripts/dock_solv.prm

>  <Rbt.Receptor>
prm/blind_docking_80.prm

>  <SCORE>
-12.0343

>  <SCORE.INTER>
-11.6195

>  <SCORE.INTER.CONST>
1

>  <SCORE.INTER.POLAR>
0

>  <SCORE.INTER.ROT>
3

>  <SCORE.INTER.SOLV>
4.00269

>  <SCORE.INTER.VDW>
-14.6806

>  <SCORE.INTER.norm>
-0.72622

>  <SCORE.INTRA>
-0.414779

>  <SCORE.INTRA.DIHEDRAL>
0.578986

>  <SCORE.INTRA.DIHEDRAL.0>
3.89056

>  <SCORE.INTRA.POLAR>
0

>  <SCORE.INTRA.POLAR.0>
0

>  <SCORE.INTRA.REPUL>
0

>  <SCORE.INTRA.REPUL.0>
0

>  <SCORE.INTRA.SOLV>
-1.18487

>  <SCORE.INTRA.SOLV.lig_0>
-20.733

>  <SCORE.INTRA.VDW>
-0.111836

>  <SCORE.INTRA.VDW.0>
-0.828515

>  <SCORE.INTRA.norm>
-0.0259237

>  <SCORE.RESTR>
0

>  <SCORE.RESTR.CAVITY>
0

>  <SCORE.RESTR.norm>
0

>  <SCORE.SYSTEM>
0

>  <SCORE.SYSTEM.CONST>
0

>  <SCORE.SYSTEM.DIHEDRAL>
0

>  <SCORE.SYSTEM.SOLV>
0

>  <SCORE.SYSTEM.norm>
0

>  <SCORE.heavy>
16

>  <SCORE.norm>
-0.752144

>  <RMSD>
16.575

$$$$
ligand
 OpenBabel02271912153D
libRbt.so/2013.1/901 2013/11/27
 16 17  0  0  0  0  0  0  0  0999 V2000
    0.9057   10.2201   67.4567 N   0  0  0  0  0  0  0  0  0  0  0  0
    2.0156    9.5521   68.0473 C   0  0  2  0  0  0  0  0  0  0  0  0
    1.5861    8.5906   69.1200 C   0  0  0  0  0  0  0  0  0  0  0  0
    0.9146    9.0143   70.0920 O   0  0  0  0  0  0  0  0  0  0  0  0
    6.1747   12.8578   72.6108 O   0  0  0  0  0  0  0  0  0  0  0  0
    2.9874   10.5464   68.6361 C   0  0  0  0  0  0  0  0  0  0  0  0
    4.3359    9.9440   68.9514 C   0  0  0  0  0  0  0  0  0  0  0  0
    4.8741    8.8821   68.3426 C   0  0  0  0  0  0  0  0  0  0  0  0
    5.1834   10.5167   69.9548 C   0  0  0  0  0  0  0  0  0  0  0  0
    6.3474    9.7007   69.9324 C   0  0  0  0  0  0  0  0  0  0  0  0
    5.1099   11.5716   70.8222 C   0  0  0  0  0  0  0  0  0  0  0  0
    6.0780    8.7398   68.9339 N   0  0  0  0  0  0  0  0  0  0  0  0
    7.4015    9.9029   70.7380 C   0  0  0  0  0  0  0  0  0  0  0  0
    6.2164   11.7964   71.6973 C   0  0  0  0  0  0  0  0  0  0  0  0
    7.3808   10.9503   71.6639 C   0  0  0  0  0  0  0  0  0  0  0  0
    1.9119    7.3870   69.0463 O   0  0  0  0  0  0  0  0  0  0  0  0
  2  1  1  1  0  0  0
  2  3  1  0  0  0  0
  2  6  1  0  0  0  0
  3  4  1  0  0  0  0
  3 16  1  0  0  0  0
  5 14  1  0  0  0  0
  6  7  1  0  0  0  0
  7  8  2  0  0  0  0
  7  9  1  0  0  0  0
  8 12  1  0  0  0  0
  9 10  2  0  0  0  0
  9 11  1  0  0  0  0
 10 13  1  0  0  0  0
 10 12  1  0  0  0  0
 11 14  2  0  0  0  0
 13 15  2  0  0  0  0
 14 15  1  0  0  0  0
M  END
>  <CHROM.1>
-57.29201922,-165.01505519,26.40979412,4.22309489,9.98906821,69.75164697
2.53672382,0.15513142,-2.48453442

>  <Name>
ligand

>  <RI>
0

>  <Rbt.Current_Directory>
/home/itssahil/PROJECTS/Mol_Feturizer/Test_systems_manuscript/rnas/5kpy

>  <Rbt.Executable>
rbdock ($Id: //depot/dev/client3/rdock/2013.1/src/exe/rbdock.cxx#4 $)

>  <Rbt.Library>
libRbt.so (2013.1, Build901 2013/11/27)

>  <Rbt.Parameter_File>
/export/apps/rDock/src/rDock_2013.1_src/data/scripts/dock_solv.prm

>  <Rbt.Receptor>
prm/blind_docking_80.prm

>  <SCORE>
-12.0544

>  <SCORE.INTER>
-11.7017

>  <SCORE.INTER.CONST>
1

>  <SCORE.INTER.POLAR>
0

>  <SCORE.INTER.ROT>
3

>  <SCORE.INTER.SOLV>
3.85576

>  <SCORE.INTER.VDW>
-14.6864

>  <SCORE.INTER.norm>
-0.731358

>  <SCORE.INTRA>
-0.35271

>  <SCORE.INTRA.DIHEDRAL>
0.60365

>  <SCORE.INTRA.DIHEDRAL.0>
3.89056

>  <SCORE.INTRA.POLAR>
0

>  <SCORE.INTRA.POLAR.0>
0

>  <SCORE.INTRA.REPUL>
0

>  <SCORE.INTRA.REPUL.0>
0

>  <SCORE.INTRA.SOLV>
-1.18889

>  <SCORE.INTRA.SOLV.lig_0>
-20.733

>  <SCORE.INTRA.VDW>
-0.060092

>  <SCORE.INTRA.VDW.0>
-0.828515

>  <SCORE.INTRA.norm>
-0.0220444

>  <SCORE.RESTR>
0

>  <SCORE.RESTR.CAVITY>
0

>  <SCORE.RESTR.norm>
0

>  <SCORE.SYSTEM>
0

>  <SCORE.SYSTEM.CONST>
0

>  <SCORE.SYSTEM.DIHEDRAL>
0

>  <SCORE.SYSTEM.SOLV>
0

>  <SCORE.SYSTEM.norm>
0

>  <SCORE.heavy>
16

>  <SCORE.norm>
-0.753403

>  <RMSD>
16.608

$$$$
ligand
 OpenBabel02271912153D
libRbt.so/2013.1/901 2013/11/27
 16 17  0  0  0  0  0  0  0  0999 V2000
    0.8524   10.1094   67.3351 N   0  0  0  0  0  0  0  0  0  0  0  0
    1.9880    9.4859   67.9255 C   0  0  2  0  0  0  0  0  0  0  0  0
    1.6010    8.5566   69.0419 C   0  0  0  0  0  0  0  0  0  0  0  0
    0.9308    9.0000   70.0061 O   0  0  0  0  0  0  0  0  0  0  0  0
    5.8265   12.8684   72.6418 O   0  0  0  0  0  0  0  0  0  0  0  0
    2.9514   10.5204   68.4561 C   0  0  0  0  0  0  0  0  0  0  0  0
    4.2852    9.9384   68.8600 C   0  0  0  0  0  0  0  0  0  0  0  0
    4.8801    8.8874   68.2861 C   0  0  0  0  0  0  0  0  0  0  0  0
    5.0539   10.5211   69.9195 C   0  0  0  0  0  0  0  0  0  0  0  0
    6.2298    9.7238   69.9735 C   0  0  0  0  0  0  0  0  0  0  0  0
    4.9053   11.5717   70.7825 C   0  0  0  0  0  0  0  0  0  0  0  0
    6.0436    8.7622   68.9568 N   0  0  0  0  0  0  0  0  0  0  0  0
    7.2240    9.9400   70.8486 C   0  0  0  0  0  0  0  0  0  0  0  0
    5.9467   11.8110   71.7306 C   0  0  0  0  0  0  0  0  0  0  0  0
    7.1242   10.9837   71.7735 C   0  0  0  0  0  0  0  0  0  0  0  0
    1.9601    7.3607   69.0114 O   0  0  0  0  0  0  0  0  0  0  0  0
  2  1  1  1  0  0  0
  2  3  1  0  0  0  0
  2  6  1  0  0  0  0
  3  4  1  0  0  0  0
  3 16  1  0  0  0  0
  5 14  1  0  0  0  0
  6  7  1  0  0  0  0
  7  8  2  0  0  0  0
  7  9  1  0  0  0  0
  8 12  1  0  0  0  0
  9 10  2  0  0  0  0
  9 11  1  0  0  0  0
 10 13  1  0  0  0  0
 10 12  1  0  0  0  0
 11 14  2  0  0  0  0
 13 15  2  0  0  0  0
 14 15  1  0  0  0  0
M  END
>  <CHROM.1>
-56.63982815,-169.27516203,32.05667370,4.12425994,9.97960451,69.71846652
2.49135973,0.16690126,-2.46001459

>  <Name>
ligand

>  <RI>
0

>  <Rbt.Current_Directory>
/home/itssahil/PROJECTS/Mol_Feturizer/Test_systems_manuscript/rnas/5kpy

>  <Rbt.Executable>
rbdock ($Id: //depot/dev/client3/rdock/2013.1/src/exe/rbdock.cxx#4 $)

>  <Rbt.Library>
libRbt.so (2013.1, Build901 2013/11/27)

>  <Rbt.Parameter_File>
/export/apps/rDock/src/rDock_2013.1_src/data/scripts/dock_solv.prm

>  <Rbt.Receptor>
prm/blind_docking_80.prm

>  <SCORE>
-12.0933

>  <SCORE.INTER>
-11.4605

>  <SCORE.INTER.CONST>
1

>  <SCORE.INTER.POLAR>
0

>  <SCORE.INTER.ROT>
3

>  <SCORE.INTER.SOLV>
4.01772

>  <SCORE.INTER.VDW>
-14.5795

>  <SCORE.INTER.norm>
-0.716279

>  <SCORE.INTRA>
-0.632829

>  <SCORE.INTRA.DIHEDRAL>
0.203745

>  <SCORE.INTRA.DIHEDRAL.0>
3.89056

>  <SCORE.INTRA.POLAR>
0

>  <SCORE.INTRA.POLAR.0>
0

>  <SCORE.INTRA.REPUL>
0

>  <SCORE.INTRA.REPUL.0>
0

>  <SCORE.INTRA.SOLV>
-1.19365

>  <SCORE.INTRA.SOLV.lig_0>
-20.733

>  <SCORE.INTRA.VDW>
-0.137877

>  <SCORE.INTRA.VDW.0>
-0.828515

>  <SCORE.INTRA.norm>
-0.0395518

>  <SCORE.RESTR>
0

>  <SCORE.RESTR.CAVITY>
0

>  <SCORE.RESTR.norm>
0

>  <SCORE.SYSTEM>
0

>  <SCORE.SYSTEM.CONST>
0

>  <SCORE.SYSTEM.DIHEDRAL>
0

>  <SCORE.SYSTEM.SOLV>
0

>  <SCORE.SYSTEM.norm>
0

>  <SCORE.heavy>
16

>  <SCORE.norm>
-0.755831

>  <RMSD>
16.653

$$$$
ligand
 OpenBabel02271912153D
libRbt.so/2013.1/901 2013/11/27
 16 17  0  0  0  0  0  0  0  0999 V2000
    1.0548    9.5878   66.8160 N   0  0  0  0  0  0  0  0  0  0  0  0
    1.9920    9.2955   67.8471 C   0  0  2  0  0  0  0  0  0  0  0  0
    1.3330    9.2032   69.1950 C   0  0  0  0  0  0  0  0  0  0  0  0
    1.1315    8.0740   69.7045 O   0  0  0  0  0  0  0  0  0  0  0  0
    4.8389   13.1166   72.4276 O   0  0  0  0  0  0  0  0  0  0  0  0
    3.0760   10.3454   67.8987 C   0  0  0  0  0  0  0  0  0  0  0  0
    4.3201    9.8802   68.6173 C   0  0  0  0  0  0  0  0  0  0  0  0
    5.0825    8.8421   68.2581 C   0  0  0  0  0  0  0  0  0  0  0  0
    4.8069   10.5728   69.7732 C   0  0  0  0  0  0  0  0  0  0  0  0
    5.9851    9.8627   70.1322 C   0  0  0  0  0  0  0  0  0  0  0  0
    4.4167   11.6574   70.5094 C   0  0  0  0  0  0  0  0  0  0  0  0
    6.0776    8.8351   69.1687 N   0  0  0  0  0  0  0  0  0  0  0  0
    6.7519   10.1955   71.1821 C   0  0  0  0  0  0  0  0  0  0  0  0
    5.2123   12.0206   71.6389 C   0  0  0  0  0  0  0  0  0  0  0  0
    6.3961   11.2800   71.9895 C   0  0  0  0  0  0  0  0  0  0  0  0
    0.9775   10.2432   69.7884 O   0  0  0  0  0  0  0  0  0  0  0  0
  2  1  1  6  0  0  0
  2  3  1  0  0  0  0
  2  6  1  0  0  0  0
  3  4  1  0  0  0  0
  3 16  1  0  0  0  0
  5 14  1  0  0  0  0
  6  7  1  0  0  0  0
  7  8  2  0  0  0  0
  7  9  1  0  0  0  0
  8 12  1  0  0  0  0
  9 10  2  0  0  0  0
  9 11  1  0  0  0  0
 10 13  1  0  0  0  0
 10 12  1  0  0  0  0
 11 14  2  0  0  0  0
 13 15  2  0  0  0  0
 14 15  1  0  0  0  0
M  END
>  <CHROM.1>
103.59970375,-160.57097898,60.50997829,3.84684658,10.18343550,69.68054219
-2.43357210,-0.11122252,0.83239509

>  <Name>
ligand

>  <RI>
0

>  <Rbt.Current_Directory>
/home/itssahil/PROJECTS/Mol_Feturizer/Test_systems_manuscript/rnas/5kpy

>  <Rbt.Executable>
rbdock ($Id: //depot/dev/client3/rdock/2013.1/src/exe/rbdock.cxx#4 $)

>  <Rbt.Library>
libRbt.so (2013.1, Build901 2013/11/27)

>  <Rbt.Parameter_File>
/export/apps/rDock/src/rDock_2013.1_src/data/scripts/dock_solv.prm

>  <Rbt.Receptor>
prm/blind_docking_80.prm

>  <SCORE>
-10.8258

>  <SCORE.INTER>
-10.7007

>  <SCORE.INTER.CONST>
1

>  <SCORE.INTER.POLAR>
0

>  <SCORE.INTER.ROT>
3

>  <SCORE.INTER.SOLV>
3.65685

>  <SCORE.INTER.VDW>
-13.9527

>  <SCORE.INTER.norm>
-0.668792

>  <SCORE.INTRA>
-0.12516

>  <SCORE.INTRA.DIHEDRAL>
1.18942

>  <SCORE.INTRA.DIHEDRAL.0>
3.89056

>  <SCORE.INTRA.POLAR>
0

>  <SCORE.INTRA.POLAR.0>
0

>  <SCORE.INTRA.REPUL>
0

>  <SCORE.INTRA.REPUL.0>
0

>  <SCORE.INTRA.SOLV>
-1.18398

>  <SCORE.INTRA.SOLV.lig_0>
-20.733

>  <SCORE.INTRA.VDW>
-0.127882

>  <SCORE.INTRA.VDW.0>
-0.828515

>  <SCORE.INTRA.norm>
-0.00782251

>  <SCORE.RESTR>
0

>  <SCORE.RESTR.CAVITY>
0

>  <SCORE.RESTR.norm>
0

>  <SCORE.SYSTEM>
0

>  <SCORE.SYSTEM.CONST>
0

>  <SCORE.SYSTEM.DIHEDRAL>
0

>  <SCORE.SYSTEM.SOLV>
0

>  <SCORE.SYSTEM.norm>
0

>  <SCORE.heavy>
16

>  <SCORE.norm>
-0.676614

>  <RMSD>
16.784

$$$$
ligand
 OpenBabel02271912153D
libRbt.so/2013.1/901 2013/11/27
 16 17  0  0  0  0  0  0  0  0999 V2000
    1.6348    8.4423   68.7346 N   0  0  0  0  0  0  0  0  0  0  0  0
    1.7244    9.8565   68.8727 C   0  0  2  0  0  0  0  0  0  0  0  0
    0.4906   10.5493   68.3653 C   0  0  0  0  0  0  0  0  0  0  0  0
   -0.0084   10.1921   67.2704 O   0  0  0  0  0  0  0  0  0  0  0  0
    5.0730   13.0062   72.5927 O   0  0  0  0  0  0  0  0  0  0  0  0
    2.9289   10.3912   68.1358 C   0  0  0  0  0  0  0  0  0  0  0  0
    4.2397    9.9167   68.7167 C   0  0  0  0  0  0  0  0  0  0  0  0
    4.9774    8.9056   68.2463 C   0  0  0  0  0  0  0  0  0  0  0  0
    4.8238   10.5701   69.8502 C   0  0  0  0  0  0  0  0  0  0  0  0
    6.0384    9.8643   70.0693 C   0  0  0  0  0  0  0  0  0  0  0  0
    4.4912   11.6183   70.6634 C   0  0  0  0  0  0  0  0  0  0  0  0
    6.0528    8.8775   69.0599 N   0  0  0  0  0  0  0  0  0  0  0  0
    6.8955   10.1666   71.0567 C   0  0  0  0  0  0  0  0  0  0  0  0
    5.3841   11.9483   71.7284 C   0  0  0  0  0  0  0  0  0  0  0  0
    6.6038   11.2125   71.9375 C   0  0  0  0  0  0  0  0  0  0  0  0
   -0.0176   11.4810   69.0240 O   0  0  0  0  0  0  0  0  0  0  0  0
  2  1  1  6  0  0  0
  2  3  1  0  0  0  0
  2  6  1  0  0  0  0
  3  4  1  0  0  0  0
  3 16  1  0  0  0  0
  5 14  1  0  0  0  0
  6  7  1  0  0  0  0
  7  8  2  0  0  0  0
  7  9  1  0  0  0  0
  8 12  1  0  0  0  0
  9 10  2  0  0  0  0
  9 11  1  0  0  0  0
 10 13  1  0  0  0  0
 10 12  1  0  0  0  0
 11 14  2  0  0  0  0
 13 15  2  0  0  0  0
 14 15  1  0  0  0  0
M  END
>  <CHROM.1>
-44.67767747,-65.26904791,98.87176920,3.69286438,10.46419729,69.61208947
-2.68498701,-0.29789959,0.74772941

>  <Name>
ligand

>  <RI>
0

>  <Rbt.Current_Directory>
/home/itssahil/PROJECTS/Mol_Feturizer/Test_systems_manuscript/rnas/5kpy

>  <Rbt.Executable>
rbdock ($Id: //depot/dev/client3/rdock/2013.1/src/exe/rbdock.cxx#4 $)

>  <Rbt.Library>
libRbt.so (2013.1, Build901 2013/11/27)

>  <Rbt.Parameter_File>
/export/apps/rDock/src/rDock_2013.1_src/data/scripts/dock_solv.prm

>  <Rbt.Receptor>
prm/blind_docking_80.prm

>  <SCORE>
-10.3554

>  <SCORE.INTER>
-9.88236

>  <SCORE.INTER.CONST>
1

>  <SCORE.INTER.POLAR>
0

>  <SCORE.INTER.ROT>
3

>  <SCORE.INTER.SOLV>
5.78549

>  <SCORE.INTER.VDW>
-14.1167

>  <SCORE.INTER.norm>
-0.617647

>  <SCORE.INTRA>
-0.473011

>  <SCORE.INTRA.DIHEDRAL>
0.0407418

>  <SCORE.INTRA.DIHEDRAL.0>
3.89056

>  <SCORE.INTRA.POLAR>
0

>  <SCORE.INTRA.POLAR.0>
0

>  <SCORE.INTRA.REPUL>
0

>  <SCORE.INTRA.REPUL.0>
0

>  <SCORE.INTRA.SOLV>
-0.351473

>  <SCORE.INTRA.SOLV.lig_0>
-20.733

>  <SCORE.INTRA.VDW>
-0.317645

>  <SCORE.INTRA.VDW.0>
-0.828515

>  <SCORE.INTRA.norm>
-0.0295632

>  <SCORE.RESTR>
0

>  <SCORE.RESTR.CAVITY>
0

>  <SCORE.RESTR.norm>
0

>  <SCORE.SYSTEM>
0

>  <SCORE.SYSTEM.CONST>
0

>  <SCORE.SYSTEM.DIHEDRAL>
0

>  <SCORE.SYSTEM.SOLV>
0

>  <SCORE.SYSTEM.norm>
0

>  <SCORE.heavy>
16

>  <SCORE.norm>
-0.647211

>  <RMSD>
16.958

$$$$
ligand
 OpenBabel02271912153D
libRbt.so/2013.1/901 2013/11/27
 16 17  0  0  0  0  0  0  0  0999 V2000
    7.2983    0.7478   62.9923 N   0  0  0  0  0  0  0  0  0  0  0  0
    8.3042    0.2676   63.8781 C   0  0  2  0  0  0  0  0  0  0  0  0
    7.8079   -0.8690   64.7277 C   0  0  0  0  0  0  0  0  0  0  0  0
    6.8647   -0.6692   65.5312 O   0  0  0  0  0  0  0  0  0  0  0  0
   14.3611    1.6732   65.3083 O   0  0  0  0  0  0  0  0  0  0  0  0
    8.7998    1.3753   64.7764 C   0  0  0  0  0  0  0  0  0  0  0  0
    9.5613    2.4472   64.0333 C   0  0  0  0  0  0  0  0  0  0  0  0
    9.0189    3.3791   63.2425 C   0  0  0  0  0  0  0  0  0  0  0  0
   10.9844    2.5603   64.1554 C   0  0  0  0  0  0  0  0  0  0  0  0
   11.3136    3.6824   63.3469 C   0  0  0  0  0  0  0  0  0  0  0  0
   11.9729    1.8897   64.8217 C   0  0  0  0  0  0  0  0  0  0  0  0
   10.0721    4.1156   62.8332 N   0  0  0  0  0  0  0  0  0  0  0  0
   12.5689    4.1290   63.1868 C   0  0  0  0  0  0  0  0  0  0  0  0
   13.3177    2.3416   64.6545 C   0  0  0  0  0  0  0  0  0  0  0  0
   13.6284    3.4743   63.8219 C   0  0  0  0  0  0  0  0  0  0  0  0
    8.3446   -1.9935   64.6411 O   0  0  0  0  0  0  0  0  0  0  0  0
  2  1  1  1  0  0  0
  2  3  1  0  0  0  0
  2  6  1  0  0  0  0
  3  4  1  0  0  0  0
  3 16  1  0  0  0  0
  5 14  1  0  0  0  0
  6  7  1  0  0  0  0
  7  8  2  0  0  0  0
  7  9  1  0  0  0  0
  8 12  1  0  0  0  0
  9 10  2  0  0  0  0
  9 11  1  0  0  0  0
 10 13  1  0  0  0  0
 10 12  1  0  0  0  0
 11 14  2  0  0  0  0
 13 15  2  0  0  0  0
 14 15  1  0  0  0  0
M  END
>  <CHROM.1>
-62.84161334,-67.51454353,74.31058251,10.18745022,1.66572580,64.16301350
2.57638088,0.22774140,2.67433487

>  <Name>
ligand

>  <RI>
0

>  <Rbt.Current_Directory>
/home/itssahil/PROJECTS/Mol_Feturizer/Test_systems_manuscript/rnas/5kpy

>  <Rbt.Executable>
rbdock ($Id: //depot/dev/client3/rdock/2013.1/src/exe/rbdock.cxx#4 $)

>  <Rbt.Library>
libRbt.so (2013.1, Build901 2013/11/27)

>  <Rbt.Parameter_File>
/export/apps/rDock/src/rDock_2013.1_src/data/scripts/dock_solv.prm

>  <Rbt.Receptor>
prm/blind_docking_80.prm

>  <SCORE>
-9.00093

>  <SCORE.INTER>
-8.91515

>  <SCORE.INTER.CONST>
1

>  <SCORE.INTER.POLAR>
0

>  <SCORE.INTER.ROT>
3

>  <SCORE.INTER.SOLV>
5.74661

>  <SCORE.INTER.VDW>
-13.459

>  <SCORE.INTER.norm>
-0.557197

>  <SCORE.INTRA>
-0.0857738

>  <SCORE.INTRA.DIHEDRAL>
0.16261

>  <SCORE.INTRA.DIHEDRAL.0>
3.89056

>  <SCORE.INTRA.POLAR>
0

>  <SCORE.INTRA.POLAR.0>
0

>  <SCORE.INTRA.REPUL>
0

>  <SCORE.INTRA.REPUL.0>
0

>  <SCORE.INTRA.SOLV>
-0.239891

>  <SCORE.INTRA.SOLV.lig_0>
-20.733

>  <SCORE.INTRA.VDW>
-0.0471335

>  <SCORE.INTRA.VDW.0>
-0.828515

>  <SCORE.INTRA.norm>
-0.00536086

>  <SCORE.RESTR>
0

>  <SCORE.RESTR.CAVITY>
0

>  <SCORE.RESTR.norm>
0

>  <SCORE.SYSTEM>
0

>  <SCORE.SYSTEM.CONST>
0

>  <SCORE.SYSTEM.DIHEDRAL>
0

>  <SCORE.SYSTEM.SOLV>
0

>  <SCORE.SYSTEM.norm>
0

>  <SCORE.heavy>
16

>  <SCORE.norm>
-0.562558

>  <RMSD>
20.777

$$$$
ligand
 OpenBabel02271912153D
libRbt.so/2013.1/901 2013/11/27
 16 17  0  0  0  0  0  0  0  0999 V2000
    7.6388    3.1276   62.9243 N   0  0  0  0  0  0  0  0  0  0  0  0
    8.9960    2.7597   63.1473 C   0  0  2  0  0  0  0  0  0  0  0  0
    9.1319    1.7696   64.2702 C   0  0  0  0  0  0  0  0  0  0  0  0
    9.0792    0.5416   64.0165 O   0  0  0  0  0  0  0  0  0  0  0  0
   13.4655    0.5401   65.9723 O   0  0  0  0  0  0  0  0  0  0  0  0
    9.8363    3.9753   63.4568 C   0  0  0  0  0  0  0  0  0  0  0  0
   11.2482    3.8712   62.9309 C   0  0  0  0  0  0  0  0  0  0  0  0
   11.7437    4.5553   61.8943 C   0  0  0  0  0  0  0  0  0  0  0  0
   12.2073    3.0107   63.5575 C   0  0  0  0  0  0  0  0  0  0  0  0
   13.3969    3.2117   62.8054 C   0  0  0  0  0  0  0  0  0  0  0  0
   12.2104    2.1428   64.6146 C   0  0  0  0  0  0  0  0  0  0  0  0
   13.0302    4.1564   61.8226 N   0  0  0  0  0  0  0  0  0  0  0  0
   14.5497    2.5783   63.0715 C   0  0  0  0  0  0  0  0  0  0  0  0
   13.4243    1.4487   64.9066 C   0  0  0  0  0  0  0  0  0  0  0  0
   14.6143    1.6607   64.1244 C   0  0  0  0  0  0  0  0  0  0  0  0
    9.2792    2.1727   65.4432 O   0  0  0  0  0  0  0  0  0  0  0  0
  2  1  1  1  0  0  0
  2  3  1  0  0  0  0
  2  6  1  0  0  0  0
  3  4  1  0  0  0  0
  3 16  1  0  0  0  0
  5 14  1  0  0  0  0
  6  7  1  0  0  0  0
  7  8  2  0  0  0  0
  7  9  1  0  0  0  0
  8 12  1  0  0  0  0
  9 10  2  0  0  0  0
  9 11  1  0  0  0  0
 10 13  1  0  0  0  0
 10 12  1  0  0  0  0
 11 14  2  0  0  0  0
 13 15  2  0  0  0  0
 14 15  1  0  0  0  0
M  END
>  <CHROM.1>
89.88323106,-146.27635664,107.94709981,11.39115911,2.54329789,63.73804429
-3.08052218,-0.01136320,2.37837652

>  <Name>
ligand

>  <RI>
0

>  <Rbt.Current_Directory>
/home/itssahil/PROJECTS/Mol_Feturizer/Test_systems_manuscript/rnas/5kpy

>  <Rbt.Executable>
rbdock ($Id: //depot/dev/client3/rdock/2013.1/src/exe/rbdock.cxx#4 $)

>  <Rbt.Library>
libRbt.so (2013.1, Build901 2013/11/27)

>  <Rbt.Parameter_File>
/export/apps/rDock/src/rDock_2013.1_src/data/scripts/dock_solv.prm

>  <Rbt.Receptor>
prm/blind_docking_80.prm

>  <SCORE>
-9.62396

>  <SCORE.INTER>
-10.58

>  <SCORE.INTER.CONST>
1

>  <SCORE.INTER.POLAR>
0

>  <SCORE.INTER.ROT>
3

>  <SCORE.INTER.SOLV>
8.82258

>  <SCORE.INTER.VDW>
-15.5942

>  <SCORE.INTER.norm>
-0.661251

>  <SCORE.INTRA>
0.925529

>  <SCORE.INTRA.DIHEDRAL>
3.3192

>  <SCORE.INTRA.DIHEDRAL.0>
3.89056

>  <SCORE.INTRA.POLAR>
0

>  <SCORE.INTRA.POLAR.0>
0

>  <SCORE.INTRA.REPUL>
0

>  <SCORE.INTRA.REPUL.0>
0

>  <SCORE.INTRA.SOLV>
-1.13431

>  <SCORE.INTRA.SOLV.lig_0>
-20.733

>  <SCORE.INTRA.VDW>
-0.166915

>  <SCORE.INTRA.VDW.0>
-0.828515

>  <SCORE.INTRA.norm>
0.0578456

>  <SCORE.RESTR>
0.0305296

>  <SCORE.RESTR.CAVITY>
0.0305296

>  <SCORE.RESTR.norm>
0.0019081

>  <SCORE.SYSTEM>
0

>  <SCORE.SYSTEM.CONST>
0

>  <SCORE.SYSTEM.DIHEDRAL>
0

>  <SCORE.SYSTEM.SOLV>
0

>  <SCORE.SYSTEM.norm>
0

>  <SCORE.heavy>
16

>  <SCORE.norm>
-0.601498

>  <RMSD>
21.212

$$$$
