@<TRIPOS>MOLECULE
5kpy_rdock.pdb
 1513 1691 0 0 0
SMALL
GASTEIGER

@<TRIPOS>ATOM
      1  P        -17.5650   -1.7460   74.6100 P.3    13  G13         0.1280
      2  C5'      -17.8000   -2.9700   72.2980 C.3    13  G13         0.1795
      3  O5'      -18.1180   -1.8560   73.1190 O.3    13  G13        -0.3259
      4  C4'      -18.4230   -2.8520   70.9270 C.3    13  G13         0.1772
      5  O4'      -19.7430   -2.2500   71.0330 O.3    13  G13        -0.3307
      6  C3'      -17.7000   -1.9610   69.9260 C.3    13  G13         0.1860
      7  O3'      -16.5960   -2.5930   69.3030 O.3    13  G13        -0.3112
      8  C2'      -18.8100   -1.6030   68.9580 C.3    13  G13         0.2309
      9  O2'      -19.1000   -2.7140   68.1260 O.3    13  G13        -0.2156
     10  C1'      -19.9760   -1.4090   69.9230 C.3    13  G13         0.2408
     11  N1       -20.7300    3.5210   68.7760 N.ar   13  G13        -0.1709
     12  C2       -20.7920    2.4120   67.9670 C.ar   13  G13         0.2606
     13  N2       -21.0930    2.6450   66.6850 N.pl3  13  G13        -0.0859
     14  N3       -20.5810    1.1700   68.3700 N.ar   13  G13        -0.1918
     15  C4       -20.2930    1.1150   69.6830 C.ar   13  G13         0.1723
     16  C5       -20.2020    2.1580   70.5850 C.ar   13  G13         0.1748
     17  C6       -20.4340    3.4820   70.1350 C.ar   13  G13         0.3023
     18  O6       -20.4030    4.5310   70.7930 O.2    13  G13        -0.2633
     19  N7       -19.8830    1.6950   71.8520 N.ar   13  G13        -0.2173
     20  C8       -19.7820    0.3970   71.7000 C.ar   13  G13         0.1817
     21  N9       -20.0270   -0.0210   70.4140 N.ar   13  G13        -0.2693
     22  OP1      -16.4950   -2.7690   74.7910 O.3    13  G13        -0.1955
     23  OP2      -17.2480   -0.3210   74.8980 O.co2  13  G13        -0.7863
     24  P        -15.3160   -1.7260   68.8520 P.3    14  G14         0.2141
     25  C5'      -16.1810   -1.5310   66.3860 C.3    14  G14         0.1812
     26  O5'      -15.8310   -0.8850   67.6000 O.3    14  G14        -0.3114
     27  C4'      -16.6380   -0.5380   65.3480 C.3    14  G14         0.1773
     28  O4'      -17.8140    0.1630   65.8330 O.3    14  G14        -0.3307
     29  C3'      -15.6610    0.5810   65.0220 C.3    14  G14         0.1860
     30  O3'      -14.6260    0.2010   64.1310 O.3    14  G14        -0.3112
     31  C2'      -16.5750    1.6650   64.4780 C.3    14  G14         0.2309
     32  O2'      -16.9750    1.3610   63.1490 O.3    14  G14        -0.2156
     33  C1'      -17.7790    1.5130   65.4050 C.3    14  G14         0.2408
     34  N1       -17.9370    6.2460   67.2680 N.ar   14  G14        -0.1709
     35  C2       -18.1500    5.8050   65.9940 C.ar   14  G14         0.2606
     36  N2       -18.4330    6.7540   65.0930 N.pl3  14  G14        -0.0859
     37  N3       -18.0820    4.5390   65.6180 N.ar   14  G14        -0.1918
     38  C4       -17.7790    3.7310   66.6500 C.ar   14  G14         0.1723
     39  C5       -17.5520    4.0660   67.9650 C.ar   14  G14         0.1748
     40  C6       -17.6260    5.4260   68.3430 C.ar   14  G14         0.3023
     41  O6       -17.4560    5.9220   69.4630 O.2    14  G14        -0.2633
     42  N7       -17.2720    2.9460   68.7270 N.ar   14  G14        -0.2173
     43  C8       -17.3320    1.9620   67.8700 C.ar   14  G14         0.1817
     44  N9       -17.6420    2.3710   66.5970 N.ar   14  G14        -0.2693
     45  OP1      -14.2830   -2.6870   68.3680 O.2    14  G14        -0.5172
     46  OP2      -14.9800   -0.7680   69.9380 O.co2  14  G14        -0.4373
     47  P        -13.1950    0.9360   64.2060 P.3    15  A15         0.2141
     48  C5'      -13.6990    2.5790   62.2280 C.3    15  A15         0.1812
     49  O5'      -13.4750    2.3880   63.6170 O.3    15  A15        -0.3114
     50  C4'      -13.7660    4.0450   61.8810 C.3    15  A15         0.1773
     51  O4'      -14.9000    4.6590   62.5570 O.3    15  A15        -0.3307
     52  C3'      -12.5790    4.8910   62.3210 C.3    15  A15         0.1860
     53  O3'      -11.4650    4.7770   61.4520 O.3    15  A15        -0.3112
     54  C2'      -13.1790    6.2900   62.3760 C.3    15  A15         0.2309
     55  O2'      -13.3130    6.8270   61.0650 O.3    15  A15        -0.2156
     56  C1'      -14.5780    5.9890   62.9240 C.3    15  A15         0.2408
     57  N1       -15.0760    9.1660   66.9850 N.ar   15  A15        -0.2040
     58  C2       -15.0730    9.3730   65.6630 C.ar   15  A15         0.2016
     59  N3       -14.9430    8.5070   64.6560 N.ar   15  A15        -0.2048
     60  C4       -14.7960    7.2580   65.1200 C.ar   15  A15         0.1692
     61  C5       -14.7810    6.8820   66.4420 C.ar   15  A15         0.1518
     62  C6       -14.9250    7.8940   67.4060 C.ar   15  A15         0.1919
     63  N6       -14.9280    7.6660   68.7190 N.pl3  15  A15        -0.1054
     64  N7       -14.6050    5.5140   66.5590 N.ar   15  A15        -0.2193
     65  C8       -14.5220    5.1040   65.3170 C.ar   15  A15         0.1816
     66  N9       -14.6330    6.1070   64.3960 N.ar   15  A15        -0.2693
     67  OP1      -12.2780    0.2440   63.2590 O.2    15  A15        -0.5172
     68  OP2      -12.8080    1.0950   65.6340 O.co2  15  A15        -0.4373
     69  P         -9.9680    4.6720   62.0420 P.3    16  C16         0.2141
     70  C5'       -9.7120    7.1890   61.4170 C.3    16  C16         0.1812
     71  O5'       -9.5980    6.1760   62.4010 O.3    16  C16        -0.3114
     72  C4'       -9.8840    8.5550   62.0400 C.3    16  C16         0.1773
     73  O4'      -11.1500    8.6360   62.7510 O.3    16  C16        -0.3307
     74  C3'       -8.8820    8.9530   63.1060 C.3    16  C16         0.1860
     75  O3'       -7.5960    9.2800   62.6260 O.3    16  C16        -0.3112
     76  C2'       -9.6030   10.1030   63.7790 C.3    16  C16         0.2309
     77  O2'       -9.6040   11.2400   62.9290 O.3    16  C16        -0.2156
     78  C1'      -11.0190    9.5350   63.8390 C.3    16  C16         0.2420
     79  N1       -11.2080    8.8010   65.1060 N.ar   16  C16        -0.2535
     80  C2       -11.4820    9.5730   66.2370 C.ar   16  C16         0.3532
     81  O2       -11.5890   10.7990   66.1030 O.2    16  C16        -0.2443
     82  N3       -11.6320    8.9770   67.4370 N.ar   16  C16        -0.1739
     83  C4       -11.5050    7.6580   67.5280 C.ar   16  C16         0.1759
     84  N4       -11.6690    7.1100   68.7300 N.pl3  16  C16        -0.1070
     85  C5       -11.2060    6.8430   66.3960 C.ar   16  C16         0.0566
     86  C6       -11.0580    7.4480   65.2080 C.ar   16  C16         0.0850
     87  OP1       -9.1210    4.2340   60.8970 O.2    16  C16        -0.5172
     88  OP2       -9.9700    3.8790   63.3030 O.co2  16  C16        -0.4373
     89  P         -6.3270    9.0260   63.5820 P.3    17  A17         0.2141
     90  C5'       -6.6460   11.5370   64.2900 C.3    17  A17         0.1812
     91  O5'       -6.4360   10.1880   64.6710 O.3    17  A17        -0.3114
     92  C4'       -6.9190   12.4260   65.4820 C.3    17  A17         0.1773
     93  O4'       -8.2200   12.1280   66.0540 O.3    17  A17        -0.3307
     94  C3'       -5.9700   12.3050   66.6650 C.3    17  A17         0.1860
     95  O3'       -4.7470   12.9920   66.4560 O.3    17  A17        -0.3112
     96  C2'       -6.8040   12.8780   67.8000 C.3    17  A17         0.2309
     97  O2'       -6.8460   14.2880   67.7030 O.3    17  A17        -0.2156
     98  C1'       -8.1900   12.3400   67.4520 C.3    17  A17         0.2408
     99  N1        -9.3580    9.8820   71.8560 N.ar   17  A17        -0.2040
    100  C2        -9.2200   11.1750   71.5480 C.ar   17  A17         0.2016
    101  N3        -8.9200   11.7560   70.3910 N.ar   17  A17        -0.2048
    102  C4        -8.7460   10.8420   69.4360 C.ar   17  A17         0.1692
    103  C5        -8.8450    9.4740   69.5860 C.ar   17  A17         0.1518
    104  C6        -9.1690    8.9840   70.8680 C.ar   17  A17         0.1919
    105  N6        -9.3110    7.6900   71.1670 N.pl3  17  A17        -0.1054
    106  N7        -8.5910    8.8370   68.3790 N.ar   17  A17        -0.2193
    107  C8        -8.3470    9.8150   67.5430 C.ar   17  A17         0.1816
    108  N9        -8.4300   11.0520   68.1170 N.ar   17  A17        -0.2693
    109  OP1       -5.0900    9.1480   62.7590 O.2    17  A17        -0.5172
    110  OP2       -6.5770    7.7650   64.3290 O.co2  17  A17        -0.4373
    111  P         -3.4220   12.6470   67.3120 P.3    18  C18         0.2141
    112  C5'       -4.0550   14.2590   69.2770 C.3    18  C18         0.1812
    113  O5'       -3.8270   12.9370   68.8250 O.3    18  C18        -0.3114
    114  C4'       -4.4780   14.3040   70.7310 C.3    18  C18         0.1773
    115  O4'       -5.7260   13.5830   70.9180 O.3    18  C18        -0.3307
    116  C3'       -3.5490   13.6710   71.7600 C.3    18  C18         0.1860
    117  O3'       -2.4150   14.4620   72.0780 O.3    18  C18        -0.3112
    118  C2'       -4.4870   13.4640   72.9400 C.3    18  C18         0.2309
    119  O2'       -4.7520   14.7080   73.5530 O.3    18  C18        -0.2156
    120  C1'       -5.7610   13.0280   72.2240 C.3    18  C18         0.2420
    121  N1        -5.8610   11.5570   72.1250 N.ar   18  C18        -0.2535
    122  C2        -6.1840   10.8340   73.2770 C.ar   18  C18         0.3532
    123  O2        -6.3670   11.4300   74.3600 O.2    18  C18        -0.2443
    124  N3        -6.2910    9.4910   73.1930 N.ar   18  C18        -0.1739
    125  C4        -6.0950    8.8720   72.0290 C.ar   18  C18         0.1759
    126  N4        -6.2160    7.5380   71.9950 N.pl3  18  C18        -0.1070
    127  C5        -5.7620    9.5930   70.8400 C.ar   18  C18         0.0566
    128  C6        -5.6560   10.9270   70.9380 C.ar   18  C18         0.0850
    129  OP1       -2.4460   13.6890   66.9100 O.2    18  C18        -0.5172
    130  OP2       -3.0850   11.2010   67.1860 O.co2  18  C18        -0.4373
    131  P         -1.0200   13.7690   72.4990 P.3    19  U19         0.2141
    132  C5'       -1.7480   13.8930   75.0350 C.3    19  U19         0.1812
    133  O5'       -1.3130   13.1160   73.9280 O.3    19  U19        -0.3114
    134  C4'       -2.1890   13.0070   76.1870 C.3    19  U19         0.1773
    135  O4'       -3.2670   12.1380   75.7420 O.3    19  U19        -0.3307
    136  C3'       -1.1280   12.0540   76.7270 C.3    19  U19         0.1860
    137  O3'       -0.2900   12.6660   77.7010 O.3    19  U19        -0.3112
    138  C2'       -1.9460   10.8820   77.2790 C.3    19  U19         0.2309
    139  O2'       -2.4050   11.1510   78.5930 O.3    19  U19        -0.2156
    140  C1'       -3.1600   10.8660   76.3500 C.3    19  U19         0.2420
    141  N1        -3.0900    9.8460   75.2820 N.ar   19  U19        -0.2534
    142  C2        -3.4460    8.5520   75.5870 C.ar   19  U19         0.3546
    143  O2        -3.7810    8.2150   76.7050 O.2    19  U19        -0.2443
    144  N3        -3.3940    7.6630   74.5480 N.ar   19  U19        -0.1530
    145  C4        -3.0380    7.9370   73.2530 C.ar   19  U19         0.2846
    146  O4        -3.0460    7.0300   72.4310 O.2    19  U19        -0.2650
    147  C5        -2.6760    9.3100   73.0050 C.ar   19  U19         0.0814
    148  C6        -2.7170   10.1950   74.0070 C.ar   19  U19         0.0870
    149  OP1       -0.0090   14.8540   72.6460 O.3    19  U19        -0.4373
    150  OP2       -0.7190   12.6810   71.5390 O.co2  19  U19        -0.5172
    151  P          1.3170   12.7250   77.5410 P.3    20  G20         0.2141
    152  C5'        1.6260   10.8120   79.3600 C.3    20  G20         0.1812
    153  O5'        1.8190   11.2870   78.0290 O.3    20  G20        -0.3114
    154  C4'        1.5540    9.3010   79.3760 C.3    20  G20         0.1773
    155  O4'        0.4720    8.8730   78.5150 O.3    20  G20        -0.3307
    156  C3'        2.7710    8.5660   78.8360 C.3    20  G20         0.1860
    157  O3'        3.7900    8.4230   79.8120 O.3    20  G20        -0.3112
    158  C2'        2.1900    7.2280   78.3730 C.3    20  G20         0.2309
    159  O2'        2.0420    6.3230   79.4680 O.3    20  G20        -0.2156
    160  C1'        0.7890    7.6400   77.9090 C.3    20  G20         0.2408
    161  N1        -0.5560    5.3140   73.6290 N.ar   20  G20        -0.1709
    162  C2        -0.6090    4.8770   74.9280 C.ar   20  G20         0.2606
    163  N2        -1.0960    3.6460   75.1250 N.pl3  20  G20        -0.0859
    164  N3        -0.2220    5.5910   75.9770 N.ar   20  G20        -0.1918
    165  C4         0.2290    6.7990   75.6100 C.ar   20  G20         0.1723
    166  C5         0.3170    7.3430   74.3560 C.ar   20  G20         0.1748
    167  C6        -0.0960    6.5720   73.2430 C.ar   20  G20         0.3023
    168  O6        -0.0600    6.9210   72.0490 O.2    20  G20        -0.2633
    169  N7         0.8370    8.6260   74.3900 N.ar   20  G20        -0.2173
    170  C8         1.0500    8.8450   75.6680 C.ar   20  G20         0.1817
    171  N9         0.6930    7.7720   76.4470 N.ar   20  G20        -0.2693
    172  OP1        1.7890   13.7830   78.4730 O.3    20  G20        -0.4373
    173  OP2        1.6930   12.7880   76.1050 O.co2  20  G20        -0.5172
    174  P          4.9650    9.5060   79.9740 P.3    21  A21         0.2141
    175  C5'        6.7610   10.2420   78.2030 C.3    21  A21         0.1812
    176  O5'        5.4700    9.7150   78.4800 O.3    21  A21        -0.3114
    177  C4'        6.8160   10.8360   76.8130 C.3    21  A21         0.1773
    178  O4'        6.6570    9.7700   75.8350 O.3    21  A21        -0.3307
    179  C3'        5.7140   11.8490   76.5040 C.3    21  A21         0.1860
    180  O3'        6.1920   12.7830   75.5390 O.3    21  A21        -0.3112
    181  C2'        4.6360   10.9740   75.8680 C.3    21  A21         0.2309
    182  O2'        3.7400   11.6540   75.0170 O.3    21  A21        -0.2156
    183  C1'        5.4760    9.9820   75.0780 C.3    21  A21         0.2408
    184  N1         3.0850    6.9590   71.6230 N.ar   21  A21        -0.2040
    185  C2         3.5440    8.2160   71.5870 C.ar   21  A21         0.2016
    186  N3         4.1530    8.9520   72.5290 N.ar   21  A21        -0.2048
    187  C4         4.2840    8.2500   73.6610 C.ar   21  A21         0.1692
    188  C5         3.8760    6.9530   73.8600 C.ar   21  A21         0.1518
    189  C6         3.2490    6.2910   72.7810 C.ar   21  A21         0.1919
    190  N6         2.8090    5.0320   72.8430 N.pl3  21  A21        -0.1054
    191  N7         4.1810    6.5440   75.1500 N.ar   21  A21        -0.2193
    192  C8         4.7590    7.5970   75.6920 C.ar   21  A21         0.1816
    193  N9         4.8480    8.6690   74.8470 N.ar   21  A21        -0.2693
    194  OP1        6.0880    8.9410   80.7690 O.3    21  A21        -0.4373
    195  OP2        4.3950   10.7880   80.4210 O.co2  21  A21        -0.5172
    196  P          6.8560   14.1650   76.0120 P.3    22  U22         0.2141
    197  C5'        9.3230   13.3990   75.5630 C.3    22  U22         0.1812
    198  O5'        8.3180   13.7430   76.4980 O.3    22  U22        -0.3114
    199  C4'       10.4820   12.7070   76.2380 C.3    22  U22         0.1773
    200  O4'        9.9970   11.7650   77.2300 O.3    22  U22        -0.3307
    201  C3'       11.3710   11.8660   75.3420 C.3    22  U22         0.1860
    202  O3'       12.2850   12.6550   74.5950 O.3    22  U22        -0.3112
    203  C2'       12.0330   10.8900   76.3270 C.3    22  U22         0.2309
    204  O2'       13.2090   11.4400   76.9040 O.3    22  U22        -0.2156
    205  C1'       10.9670   10.7660   77.4350 C.3    22  U22         0.2420
    206  N1        10.3210    9.4340   77.5170 N.ar   22  U22        -0.2534
    207  C2         9.8540    8.8330   76.3640 C.ar   22  U22         0.3546
    208  O2         9.9210    9.3730   75.2470 O.2    22  U22        -0.2443
    209  N3         9.2770    7.5880   76.5660 N.ar   22  U22        -0.1530
    210  C4         9.1620    6.9010   77.7680 C.ar   22  U22         0.2846
    211  O4         8.6440    5.7880   77.7900 O.2    22  U22        -0.2650
    212  C5         9.6820    7.5990   78.9110 C.ar   22  U22         0.0814
    213  C6        10.2400    8.8130   78.7430 C.ar   22  U22         0.0870
    214  OP1        6.1130   14.6230   77.2020 O.3    22  U22        -0.4373
    215  OP2        7.0110   15.0500   74.8290 O.co2  22  U22        -0.5172
    216  P         12.0420   12.9430   73.0130 P.3    23  G23         0.2141
    217  C5'       13.5980   10.9100   72.4900 C.3    23  G23         0.1812
    218  O5'       12.3380   11.5360   72.3200 O.3    23  G23        -0.3114
    219  C4'       13.4770    9.4270   72.7680 C.3    23  G23         0.1773
    220  O4'       12.7010    8.7890   71.7090 O.3    23  G23        -0.3307
    221  C3'       14.8170    8.6880   72.8130 C.3    23  G23         0.1860
    222  O3'       14.7270    7.6070   73.7440 O.3    23  G23        -0.3112
    223  C2'       14.9320    8.1360   71.3950 C.3    23  G23         0.2309
    224  O2'       15.7850    7.0220   71.2820 O.3    23  G23        -0.2156
    225  C1'       13.4760    7.7650   71.1070 C.3    23  G23         0.2408
    226  N1        12.5680    4.5550   67.1510 N.ar   23  G23        -0.1709
    227  C2        12.9140    4.3060   68.4700 C.ar   23  G23         0.2606
    228  N2        13.0450    3.0240   68.8010 N.pl3  23  G23        -0.0859
    229  N3        13.1330    5.2250   69.4050 N.ar   23  G23        -0.1918
    230  C4        12.9630    6.4660   68.9510 C.ar   23  G23         0.1723
    231  C5        12.6100    6.8430   67.6700 C.ar   23  G23         0.1748
    232  C6        12.3910    5.8530   66.6590 C.ar   23  G23         0.3023
    233  O6        12.0660    6.0260   65.4790 O.2    23  G23        -0.2633
    234  N7        12.5290    8.2260   67.5800 N.ar   23  G23        -0.2173
    235  C8        12.8330    8.6530   68.7910 C.ar   23  G23         0.1817
    236  N9        13.1160    7.6360   69.6820 N.ar   23  G23        -0.2693
    237  OP1       13.1290   13.8590   72.6550 O.2    23  G23        -0.5172
    238  OP2       10.6240   13.2550   72.7230 O.co2  23  G23        -0.4373
    239  P         15.9870    7.0990   74.5910 P.3    24  A24         0.2141
    240  C5'       15.0950    8.2300   76.8230 C.3    24  A24         0.1812
    241  O5'       15.4280    7.0450   76.0890 O.3    24  A24        -0.3114
    242  C4'       14.1590    7.9330   77.9890 C.3    24  A24         0.1773
    243  O4'       12.8590    7.5210   77.4840 O.3    24  A24        -0.3307
    244  C3'       14.6160    6.8040   78.9040 C.3    24  A24         0.1860
    245  O3'       14.0160    6.9630   80.1960 O.3    24  A24        -0.3112
    246  C2'       13.9910    5.5890   78.2410 C.3    24  A24         0.2309
    247  O2'       13.8530    4.4660   79.1030 O.3    24  A24        -0.2156
    248  C1'       12.6370    6.1490   77.7910 C.3    24  A24         0.2408
    249  N1         9.9950    2.1780   75.6400 N.ar   24  A24        -0.2040
    250  C2        10.3110    2.4600   76.9130 C.ar   24  A24         0.2016
    251  N3        10.9890    3.4760   77.4320 N.ar   24  A24        -0.2048
    252  C4        11.3910    4.3210   76.4560 C.ar   24  A24         0.1692
    253  C5        11.1510    4.1700   75.1010 C.ar   24  A24         0.1518
    254  C6        10.4330    3.0300   74.6860 C.ar   24  A24         0.1919
    255  N6        10.1330    2.7550   73.4120 N.pl3  24  A24        -0.1054
    256  N7        11.7030    5.2170   74.3750 N.ar   24  A24        -0.2193
    257  C8        12.2630    5.9650   75.2940 C.ar   24  A24         0.1816
    258  N9        12.1130    5.5020   76.5800 N.ar   24  A24        -0.2693
    259  OP1       17.1410    8.0190   74.5720 O.3    24  A24        -0.4373
    260  OP2       16.1980    5.6750   74.1800 O.co2  24  A24        -0.5172
    261  P         14.8670    7.4890   81.4480 P.3    25  U25         0.2141
    262  C5'       12.4710    7.6950   82.4740 C.3    25  U25         0.1812
    263  O5'       13.8280    7.3130   82.6510 O.3    25  U25        -0.3114
    264  C4'       11.7810    7.9690   83.7910 C.3    25  U25         0.1773
    265  O4'       11.4520    6.7080   84.4250 O.3    25  U25        -0.3307
    266  C3'       12.5960    8.7630   84.8110 C.3    25  U25         0.1860
    267  O3'       11.7330    9.5970   85.5800 O.3    25  U25        -0.3112
    268  C2'       13.1340    7.6820   85.7470 C.3    25  U25         0.2309
    269  O2'       13.2970    8.1510   87.0650 O.3    25  U25        -0.2156
    270  C1'       12.0200    6.6470   85.7170 C.3    25  U25         0.2420
    271  N1        12.4630    5.2650   85.9350 N.ar   25  U25        -0.2534
    272  C2        12.1530    4.6750   87.1470 C.ar   25  U25         0.3546
    273  O2        11.5660    5.2630   88.0430 O.2    25  U25        -0.2443
    274  N3        12.5570    3.3740   87.2730 N.ar   25  U25        -0.1530
    275  C4        13.2380    2.6200   86.3370 C.ar   25  U25         0.2846
    276  O4        13.5260    1.4590   86.6270 O.2    25  U25        -0.2650
    277  C5        13.5100    3.2930   85.0950 C.ar   25  U25         0.0814
    278  C6        13.1260    4.5680   84.9450 C.ar   25  U25         0.0870
    279  OP1       15.0770    8.9250   81.2400 O.2    25  U25        -0.5172
    280  OP2       15.9780    6.5750   81.7500 O.co2  25  U25        -0.4373
    281  P         11.4870   11.1310   85.1860 P.3    26  C26         0.2141
    282  C5'       13.7970   11.9650   86.1540 C.3    26  C26         0.1812
    283  O5'       12.3760   11.9420   86.2360 O.3    26  C26        -0.3114
    284  C4'       14.3630   13.1450   86.9220 C.3    26  C26         0.1773
    285  O4'       13.8240   14.3670   86.3500 O.3    26  C26        -0.3307
    286  C3'       14.0280   13.1980   88.4200 C.3    26  C26         0.1860
    287  O3'       15.0680   13.8660   89.1280 O.3    26  C26        -0.3112
    288  C2'       12.8160   14.1140   88.4520 C.3    26  C26         0.2309
    289  O2'       12.6140   14.7730   89.6920 O.3    26  C26        -0.2156
    290  C1'       13.1630   15.1110   87.3460 C.3    26  C26         0.2420
    291  N1        11.9900   15.7640   86.7560 N.ar   26  C26        -0.2535
    292  C2        12.1220   17.1090   86.4480 C.ar   26  C26         0.3532
    293  O2        13.2160   17.6480   86.6390 O.2    26  C26        -0.2443
    294  N3        11.0770   17.7690   85.9380 N.ar   26  C26        -0.1739
    295  C4         9.9270   17.1600   85.7450 C.ar   26  C26         0.1759
    296  N4         8.9470   17.9180   85.2340 N.pl3  26  C26        -0.1070
    297  C5         9.7300   15.7770   86.0570 C.ar   26  C26         0.0566
    298  C6        10.7880   15.1210   86.5730 C.ar   26  C26         0.0850
    299  OP1       10.0700   11.3980   85.4520 O.3    26  C26        -0.4373
    300  OP2       12.0300   11.3900   83.8220 O.co2  26  C26        -0.5172
    301  P         16.2960   13.0520   89.7730 P.3    27  G27         0.2141
    302  C5'       15.0610   13.0590   92.0930 C.3    27  G27         0.1812
    303  O5'       15.6470   12.3280   91.0270 O.3    27  G27        -0.3114
    304  C4'       14.9480   12.1820   93.3140 C.3    27  G27         0.1773
    305  O4'       13.9820   11.1260   93.0910 O.3    27  G27        -0.3307
    306  C3'       16.2170   11.4370   93.6990 C.3    27  G27         0.1860
    307  O3'       17.1130   12.2540   94.4210 O.3    27  G27        -0.3112
    308  C2'       15.6820   10.2710   94.5100 C.3    27  G27         0.2309
    309  O2'       15.3170   10.7320   95.8030 O.3    27  G27        -0.2156
    310  C1'       14.4110    9.9380   93.7380 C.3    27  G27         0.2408
    311  N1        15.4550    5.0040   92.6240 N.ar   27  G27        -0.1709
    312  C2        15.3790    5.6050   93.8460 C.ar   27  G27         0.2606
    313  N2        15.5990    4.8130   94.8940 N.pl3  27  G27        -0.0859
    314  N3        15.1120    6.8840   94.0340 N.ar   27  G27        -0.1918
    315  C4        14.9080    7.5570   92.8760 C.ar   27  G27         0.1723
    316  C5        14.9610    7.0530   91.5950 C.ar   27  G27         0.1748
    317  C6        15.2550    5.6810   91.4180 C.ar   27  G27         0.3023
    318  O6        15.3230    5.0570   90.3480 O.2    27  G27        -0.2633
    319  N7        14.7230    8.0370   90.6430 N.ar   27  G27        -0.2173
    320  C8        14.5110    9.1150   91.3550 C.ar   27  G27         0.1817
    321  N9        14.6230    8.8960   92.7130 N.ar   27  G27        -0.2693
    322  OP1       17.3070   14.0000   90.3030 O.3    27  G27        -0.4373
    323  OP2       16.6690   11.9620   88.8350 O.co2  27  G27        -0.5172
    324  P         18.7020   12.0730   94.2920 P.3    28  C28         0.2141
    325  C5'       18.6180   10.4390   96.3450 C.3    28  C28         0.1812
    326  O5'       19.0060   10.6720   95.0010 O.3    28  C28        -0.3114
    327  C4'       19.0430    9.0770   96.8410 C.3    28  C28         0.1773
    328  O4'       18.1190    8.0610   96.3470 O.3    28  C28        -0.3307
    329  C3'       20.4030    8.5690   96.3830 C.3    28  C28         0.1860
    330  O3'       21.5150    9.1130   97.0780 O.3    28  C28        -0.3112
    331  C2'       20.2480    7.0660   96.5450 C.3    28  C28         0.2309
    332  O2'       20.2500    6.7320   97.9220 O.3    28  C28        -0.2156
    333  C1'       18.8250    6.8790   96.0340 C.3    28  C28         0.2420
    334  N1        18.7780    6.6790   94.5610 N.ar   28  C28        -0.2535
    335  C2        19.0580    5.4120   94.0510 C.ar   28  C28         0.3532
    336  O2        19.3640    4.5080   94.8460 O.2    28  C28        -0.2443
    337  N3        19.0060    5.1950   92.7150 N.ar   28  C28        -0.1739
    338  C4        18.6870    6.1840   91.8910 C.ar   28  C28         0.1759
    339  N4        18.6560    5.9180   90.5790 N.pl3  28  C28        -0.1070
    340  C5        18.3950    7.4940   92.3790 C.ar   28  C28         0.0566
    341  C6        18.4560    7.6960   93.7070 C.ar   28  C28         0.0850
    342  OP1       19.1830   13.2220   95.0930 O.3    28  C28        -0.4373
    343  OP2       19.1300   11.9270   92.8660 O.co2  28  C28        -0.5172
    344  P         22.9150    9.2530   96.2950 P.3    29  G29         0.2141
    345  C5'       23.7600    6.9100   97.1010 C.3    29  G29         0.1812
    346  O5'       23.3550    7.7440   96.0270 O.3    29  G29        -0.3114
    347  C4'       23.9890    5.4800   96.6710 C.3    29  G29         0.1773
    348  O4'       22.8180    4.9700   95.9810 O.3    29  G29        -0.3307
    349  C3'       25.1190    5.2200   95.6910 C.3    29  G29         0.1860
    350  O3'       26.4050    5.2290   96.2900 O.3    29  G29        -0.3112
    351  C2'       24.7270    3.8700   95.1190 C.3    29  G29         0.2309
    352  O2'       24.9560    2.8570   96.0830 O.3    29  G29        -0.2156
    353  C1'       23.2190    4.0470   94.9860 C.3    29  G29         0.2408
    354  N1        22.7460    3.0920   89.9910 N.ar   29  G29        -0.1709
    355  C2        23.1340    2.2620   91.0100 C.ar   29  G29         0.2606
    356  N2        23.4300    1.0000   90.6760 N.pl3  29  G29        -0.0859
    357  N3        23.2140    2.6180   92.2800 N.ar   29  G29        -0.1918
    358  C4        22.8850    3.9120   92.4680 C.ar   29  G29         0.1723
    359  C5        22.4950    4.8340   91.5240 C.ar   29  G29         0.1748
    360  C6        22.4020    4.4330   90.1650 C.ar   29  G29         0.3023
    361  O6        22.0640    5.1300   89.1900 O.2    29  G29        -0.2633
    362  N7        22.2440    6.0630   92.1100 N.ar   29  G29        -0.2173
    363  C8        22.4870    5.8710   93.3820 C.ar   29  G29         0.1817
    364  N9        22.8670    4.5890   93.6610 N.ar   29  G29        -0.2693
    365  OP1       23.8900    9.9190   97.2020 O.3    29  G29        -0.4373
    366  OP2       22.6490    9.8610   94.9640 O.co2  29  G29        -0.5172
    367  P         27.7100    5.5630   95.4040 P.3    30  U30         0.2141
    368  C5'       27.9320    2.9650   95.0950 C.3    30  U30         0.1812
    369  O5'       27.9170    4.2600   94.5070 O.3    30  U30        -0.3114
    370  C4'       28.1800    1.8720   94.0750 C.3    30  U30         0.1773
    371  O4'       26.9660    1.5910   93.3310 O.3    30  U30        -0.3307
    372  C3'       29.2180    2.1640   93.0000 C.3    30  U30         0.1860
    373  O3'       30.5510    1.9600   93.4420 O.3    30  U30        -0.3112
    374  C2'       28.7980    1.2390   91.8630 C.3    30  U30         0.2309
    375  O2'       29.2390   -0.0870   92.1060 O.3    30  U30        -0.2156
    376  C1'       27.2760    1.2850   91.9880 C.3    30  U30         0.2420
    377  N1        26.6960    2.3570   91.1530 N.ar   30  U30        -0.2534
    378  C2        26.5000    2.1330   89.8120 C.ar   30  U30         0.3546
    379  O2        26.7810    1.0780   89.2630 O.2    30  U30        -0.2443
    380  N3        25.9520    3.1930   89.1350 N.ar   30  U30        -0.1530
    381  C4        25.6010    4.4250   89.6460 C.ar   30  U30         0.2846
    382  O4        25.1200    5.2820   88.9010 O.2    30  U30        -0.2650
    383  C5        25.8380    4.5800   91.0460 C.ar   30  U30         0.0814
    384  C6        26.3700    3.5640   91.7330 C.ar   30  U30         0.0870
    385  OP1       28.8250    5.7200   96.3700 O.3    30  U30        -0.4373
    386  OP2       27.4420    6.7100   94.4920 O.co2  30  U30        -0.5172
    387  P         31.7740    2.5310   92.5760 P.3    31  G31         0.2141
    388  C5'       32.3200    1.9600   90.0830 C.3    31  G31         0.1812
    389  O5'       31.3530    2.1740   91.0890 O.3    31  G31        -0.3114
    390  C4'       31.8240    0.9870   89.0490 C.3    31  G31         0.1773
    391  O4'       30.3760    1.0610   88.9520 O.3    31  G31        -0.3307
    392  C3'       32.2970    1.2460   87.6280 C.3    31  G31         0.1860
    393  O3'       33.6160    0.7910   87.3890 O.3    31  G31        -0.3112
    394  C2'       31.2310    0.5510   86.8020 C.3    31  G31         0.2309
    395  O2'       31.4170   -0.8570   86.8350 O.3    31  G31        -0.2156
    396  C1'       29.9770    0.8980   87.6060 C.3    31  G31         0.2408
    397  N1        27.9750    3.5820   83.7130 N.ar   31  G31        -0.1709
    398  C2        28.4250    2.2830   83.7460 C.ar   31  G31         0.2606
    399  N2        28.3570    1.5830   82.6030 N.pl3  31  G31        -0.0859
    400  N3        28.9230    1.6890   84.8240 N.ar   31  G31        -0.1918
    401  C4        28.9370    2.4980   85.8960 C.ar   31  G31         0.1723
    402  C5        28.5150    3.8020   85.9790 C.ar   31  G31         0.1748
    403  C6        27.9850    4.4290   84.8220 C.ar   31  G31         0.3023
    404  O6        27.5580    5.5830   84.7240 O.2    31  G31        -0.2633
    405  N7        28.6920    4.3030   87.2590 N.ar   31  G31        -0.2173
    406  C8        29.2170    3.3040   87.9200 C.ar   31  G31         0.1817
    407  N9        29.3930    2.1760   87.1560 N.ar   31  G31        -0.2693
    408  OP1       32.9810    1.7450   92.9560 O.3    31  G31        -0.4373
    409  OP2       31.7970    4.0150   92.6870 O.co2  31  G31        -0.5172
    410  P         34.7210    1.7950   86.7880 P.3    32  G32         0.2141
    411  C5'       34.1010    0.5370   84.5980 C.3    32  G32         0.1812
    412  O5'       34.4060    1.7670   85.2310 O.3    32  G32        -0.3114
    413  C4'       33.4430    0.7440   83.2580 C.3    32  G32         0.1773
    414  O4'       32.0810    1.2190   83.4230 O.3    32  G32        -0.3307
    415  C3'       34.0680    1.7870   82.3470 C.3    32  G32         0.1860
    416  O3'       35.2610    1.3560   81.7250 O.3    32  G32        -0.3112
    417  C2'       32.9360    2.0700   81.3750 C.3    32  G32         0.2309
    418  O2'       32.8160    1.0040   80.4510 O.3    32  G32        -0.2156
    419  C1'       31.7310    2.0360   82.3190 C.3    32  G32         0.2408
    420  N1        29.9020    6.5220   80.9250 N.ar   32  G32        -0.1709
    421  C2        30.0540    5.3600   80.2150 C.ar   32  G32         0.2606
    422  N2        29.6620    5.3800   78.9400 N.pl3  32  G32        -0.0859
    423  N3        30.5520    4.2390   80.7070 N.ar   32  G32        -0.1918
    424  C4        30.8910    4.3730   81.9990 C.ar   32  G32         0.1723
    425  C5        30.7850    5.4760   82.8070 C.ar   32  G32         0.1748
    426  C6        30.2510    6.6710   82.2650 C.ar   32  G32         0.3023
    427  O6        30.0830    7.7550   82.8420 O.2    32  G32        -0.2633
    428  N7        31.2500    5.1990   84.0840 N.ar   32  G32        -0.2173
    429  C8        31.6260    3.9460   84.0250 C.ar   32  G32         0.1817
    430  N9        31.4190    3.3910   82.7910 N.ar   32  G32        -0.2693
    431  OP1       36.0460    1.1530   87.0080 O.2    32  G32        -0.5172
    432  OP2       34.4930    3.1800   87.2790 O.co2  32  G32        -0.4373
    433  P         36.2700    2.4380   81.0970 P.3    33  A33         0.2141
    434  C5'       35.3820    2.0480   78.6460 C.3    33  A33         0.1812
    435  O5'       35.5430    2.9110   79.7640 O.3    33  A33        -0.3114
    436  C4'       34.8250    2.8060   77.4580 C.3    33  A33         0.1773
    437  O4'       33.5470    3.3980   77.8180 O.3    33  A33        -0.3307
    438  C3'       35.6590    3.9860   76.9740 C.3    33  A33         0.1860
    439  O3'       36.7230    3.5990   76.1180 O.3    33  A33        -0.3112
    440  C2'       34.6240    4.8870   76.3070 C.3    33  A33         0.2309
    441  O2'       34.3170    4.4270   74.9980 O.3    33  A33        -0.2156
    442  C1'       33.4050    4.6630   77.2050 C.3    33  A33         0.2408
    443  N1        32.3880    9.6100   78.1940 N.ar   33  A33        -0.2040
    444  C2        32.4040    8.8920   77.0670 C.ar   33  A33         0.2016
    445  N3        32.6780    7.6010   76.8850 N.ar   33  A33        -0.2048
    446  C4        32.9730    7.0090   78.0550 C.ar   33  A33         0.1692
    447  C5        32.9990    7.6100   79.2980 C.ar   33  A33         0.1518
    448  C6        32.6870    8.9820   79.3480 C.ar   33  A33         0.1919
    449  N6        32.6620    9.7140   80.4590 N.pl3  33  A33        -0.1054
    450  N7        33.3410    6.6920   80.2780 N.ar   33  A33        -0.2193
    451  C8        33.5130    5.5750   79.6050 C.ar   33  A33         0.1816
    452  N9        33.3010    5.6960   78.2560 N.ar   33  A33        -0.2693
    453  OP1       37.5180    1.7170   80.7420 O.2    33  A33        -0.5172
    454  OP2       36.3190    3.6330   81.9800 O.co2  33  A33        -0.4373
    455  P         38.1360    4.3670   76.1600 P.3    34  U34         0.2141
    456  C5'       37.2880    5.8580   74.1870 C.3    34  U34         0.1812
    457  O5'       37.8250    5.7780   75.5000 O.3    34  U34        -0.3114
    458  C4'       36.8560    7.2630   73.8570 C.3    34  U34         0.1773
    459  O4'       35.9570    7.7320   74.8990 O.3    34  U34        -0.3307
    460  C3'       37.9930    8.2810   73.7700 C.3    34  U34         0.1860
    461  O3'       37.7640    9.1940   72.7040 O.3    34  U34        -0.3112
    462  C2'       37.9170    9.0150   75.1060 C.3    34  U34         0.2309
    463  O2'       38.3610   10.3530   75.0770 O.3    34  U34        -0.2156
    464  C1'       36.4320    8.9500   75.4370 C.3    34  U34         0.2420
    465  N1        36.2150    8.9420   76.8880 N.ar   34  U34        -0.2534
    466  C2        35.7200   10.0800   77.5030 C.ar   34  U34         0.3546
    467  O2        35.3930   11.0900   76.9050 O.2    34  U34        -0.2443
    468  N3        35.5940    9.9880   78.8630 N.ar   34  U34        -0.1530
    469  C4        35.9310    8.9120   79.6540 C.ar   34  U34         0.2846
    470  O4        35.7580    8.9860   80.8740 O.2    34  U34        -0.2650
    471  C5        36.4590    7.7870   78.9400 C.ar   34  U34         0.0814
    472  C6        36.5950    7.8410   77.6140 C.ar   34  U34         0.0870
    473  OP1       39.0450    3.6020   75.2700 O.2    34  U34        -0.5172
    474  OP2       38.5300    4.6540   77.5600 O.co2  34  U34        -0.4373
    475  P         38.7390    9.1730   71.4350 P.3    35  A35         0.2141
    476  C5'       36.7730    9.6050   69.7720 C.3    35  A35         0.1812
    477  O5'       37.9810   10.0570   70.3620 O.3    35  A35        -0.3114
    478  C4'       36.2360   10.6320   68.8120 C.3    35  A35         0.1773
    479  O4'       35.7440   11.7750   69.5620 O.3    35  A35        -0.3307
    480  C3'       37.2590   11.1690   67.8230 C.3    35  A35         0.1860
    481  O3'       36.6630   11.2790   66.5310 O.3    35  A35        -0.3112
    482  C2'       37.6420   12.5390   68.4050 C.3    35  A35         0.2309
    483  O2'       38.0400   13.4980   67.4500 O.3    35  A35        -0.2156
    484  C1'       36.3690   12.9640   69.1240 C.3    35  A35         0.2408
    485  N1        36.6870   17.7390   71.1880 N.ar   35  A35        -0.2040
    486  C2        36.4450   17.3160   69.9460 C.ar   35  A35         0.2016
    487  N3        36.3730   16.0740   69.4660 N.ar   35  A35        -0.2048
    488  C4        36.5830   15.1670   70.4290 C.ar   35  A35         0.1692
    489  C5        36.8530   15.4460   71.7580 C.ar   35  A35         0.1518
    490  C6        36.9000   16.8040   72.1390 C.ar   35  A35         0.1919
    491  N6        37.1430   17.2270   73.3810 N.pl3  35  A35        -0.1054
    492  N7        37.0230   14.2730   72.4770 N.ar   35  A35        -0.2193
    493  C8        36.8610   13.3320   71.5780 C.ar   35  A35         0.1816
    494  N9        36.6020   13.7950   70.3130 N.ar   35  A35        -0.2693
    495  OP1       38.7740    7.7980   70.9030 O.2    35  A35        -0.5172
    496  OP2       39.9820    9.8970   71.7920 O.co2  35  A35        -0.4373
    497  P         36.9450   10.1190   65.4490 P.3    36  U36         0.2141
    498  C5'       34.8760    8.5400   65.0560 C.3    36  U36         0.1812
    499  O5'       35.9830    8.9160   65.8720 O.3    36  U36        -0.3114
    500  C4'       34.4140    7.1150   65.2890 C.3    36  U36         0.1773
    501  O4'       35.1970    6.1860   64.4780 O.3    36  U36        -0.3307
    502  C3'       34.4990    6.5930   66.7260 C.3    36  U36         0.1860
    503  O3'       33.4400    5.6590   66.9390 O.3    36  U36        -0.3112
    504  C2'       35.7980    5.7990   66.6930 C.3    36  U36         0.2309
    505  O2'       35.9290    4.8370   67.7150 O.3    36  U36        -0.2156
    506  C1'       35.7000    5.1610   65.3120 C.3    36  U36         0.2420
    507  N1        36.9740    4.6510   64.7790 N.ar   36  U36        -0.2534
    508  C2        37.7820    5.4630   64.0040 C.ar   36  U36         0.3546
    509  O2        37.4920    6.6130   63.7280 O.2    36  U36        -0.2443
    510  N3        38.9520    4.8790   63.5760 N.ar   36  U36        -0.1530
    511  C4        39.3840    3.5880   63.8370 C.ar   36  U36         0.2846
    512  O4        40.4680    3.1900   63.3860 O.2    36  U36        -0.2650
    513  C5        38.4800    2.8170   64.6420 C.ar   36  U36         0.0814
    514  C6        37.3380    3.3600   65.0720 C.ar   36  U36         0.0870
    515  OP1       38.3310    9.6540   65.6740 O.3    36  U36        -0.4373
    516  OP2       36.5730   10.6240   64.1070 O.co2  36  U36        -0.5172
    517  P         32.1010    6.0510   67.7290 P.3    37  G37         0.2141
    518  C5'       32.9770    5.4120   70.1210 C.3    37  G37         0.1812
    519  O5'       32.6060    6.4230   69.1940 O.3    37  G37        -0.3114
    520  C4'       33.0100    5.9540   71.5280 C.3    37  G37         0.1773
    521  O4'       33.9070    7.0930   71.5830 O.3    37  G37        -0.3307
    522  C3'       31.6880    6.4950   72.0570 C.3    37  G37         0.1860
    523  O3'       30.8520    5.4760   72.5780 O.3    37  G37        -0.3112
    524  C2'       32.1300    7.5050   73.1020 C.3    37  G37         0.2309
    525  O2'       32.5090    6.8310   74.2920 O.3    37  G37        -0.2156
    526  C1'       33.3960    8.0720   72.4600 C.3    37  G37         0.2408
    527  N1        33.3230   13.1650   72.6340 N.ar   37  G37        -0.1709
    528  C2        33.5830   12.2510   73.6260 C.ar   37  G37         0.2606
    529  N2        33.8680   12.7510   74.8380 N.pl3  37  G37        -0.0859
    530  N3        33.5660   10.9360   73.4510 N.ar   37  G37        -0.1918
    531  C4        33.2570   10.5970   72.1810 C.ar   37  G37         0.1723
    532  C5        32.9830   11.4270   71.1120 C.ar   37  G37         0.1748
    533  C6        33.0080   12.8330   71.3190 C.ar   37  G37         0.3023
    534  O6        32.7950   13.7340   70.4990 O.2    37  G37        -0.2633
    535  N7        32.7190   10.6830   69.9690 N.ar   37  G37        -0.2173
    536  C8        32.8350    9.4360   70.3610 C.ar   37  G37         0.1817
    537  N9        33.1620    9.3140   71.6930 N.ar   37  G37        -0.2693
    538  OP1       31.3110    4.7960   67.8210 O.3    37  G37        -0.4373
    539  OP2       31.5060    7.2640   67.0970 O.co2  37  G37        -0.5172
    540  P         29.2520    5.5770   72.4390 P.3    38  G38         0.2141
    541  C5'       29.1120    6.6260   74.8250 C.3    38  G38         0.1812
    542  O5'       28.8620    6.7570   73.4370 O.3    38  G38        -0.3114
    543  C4'       28.9740    7.9390   75.5550 C.3    38  G38         0.1773
    544  O4'       29.9820    8.8810   75.1050 O.3    38  G38        -0.3307
    545  C3'       27.6620    8.6900   75.3640 C.3    38  G38         0.1860
    546  O3'       26.6110    8.1610   76.1560 O.3    38  G38        -0.3112
    547  C2'       28.0440   10.1140   75.7440 C.3    38  G38         0.2309
    548  O2'       28.0690   10.2520   77.1610 O.3    38  G38        -0.2156
    549  C1'       29.4820   10.1990   75.2020 C.3    38  G38         0.2408
    550  N1        30.3010   14.4550   72.5260 N.ar   38  G38        -0.1709
    551  C2        30.3390   14.2560   73.8820 C.ar   38  G38         0.2606
    552  N2        30.6250   15.3230   74.6360 N.pl3  38  G38        -0.0859
    553  N3        30.1100   13.0960   74.4670 N.ar   38  G38        -0.1918
    554  C4        29.8300   12.1250   73.5720 C.ar   38  G38         0.1723
    555  C5        29.7720   12.2130   72.1980 C.ar   38  G38         0.1748
    556  C6        30.0190   13.4710   71.5890 C.ar   38  G38         0.3023
    557  O6        30.0110   13.7620   70.3790 O.2    38  G38        -0.2633
    558  N7        29.4610   10.9880   71.6300 N.ar   38  G38        -0.2173
    559  C8        29.3360   10.1960   72.6580 C.ar   38  G38         0.1817
    560  N9        29.5480   10.8200   73.8640 N.ar   38  G38        -0.2693
    561  OP1       28.7170    4.3110   72.9990 O.3    38  G38        -0.4373
    562  OP2       28.9030    5.9740   71.0490 O.co2  38  G38        -0.5172
    563  P         25.1230    7.9670   75.5730 P.3    39  C39         0.2141
    564  C5'       25.7030    5.4920   74.9440 C.3    39  C39         0.1812
    565  O5'       24.8760    6.3990   75.6590 O.3    39  C39        -0.3114
    566  C4'       26.0250    4.2680   75.7700 C.3    39  C39         0.1773
    567  O4'       27.0270    4.5800   76.7720 O.3    39  C39        -0.3307
    568  C3'       24.8710    3.6720   76.5640 C.3    39  C39         0.1860
    569  O3'       24.0550    2.8540   75.7380 O.3    39  C39        -0.3112
    570  C2'       25.5910    2.9110   77.6790 C.3    39  C39         0.2309
    571  O2'       26.0640    1.6640   77.1870 O.3    39  C39        -0.2156
    572  C1'       26.8090    3.8060   77.9330 C.3    39  C39         0.2420
    573  N1        26.6760    4.7270   79.0920 N.ar   39  C39        -0.2535
    574  C2        26.9300    4.2670   80.3900 C.ar   39  C39         0.3532
    575  O2        27.2220    3.0780   80.5570 O.2    39  C39        -0.2443
    576  N3        26.8460    5.1130   81.4410 N.ar   39  C39        -0.1739
    577  C4        26.5320    6.3920   81.2390 C.ar   39  C39         0.1759
    578  N4        26.4550    7.2020   82.2990 N.pl3  39  C39        -0.1070
    579  C5        26.2740    6.8970   79.9290 C.ar   39  C39         0.0566
    580  C6        26.3630    6.0410   78.8990 C.ar   39  C39         0.0850
    581  OP1       25.0520    8.3100   74.1260 O.2    39  C39        -0.5172
    582  OP2       24.2260    8.6190   76.5540 O.co2  39  C39        -0.4373
    583  P         22.6730    2.2310   76.2660 P.3    40  A40         0.2141
    584  C5'       22.5650    1.1160   78.6300 C.3    40  A40         0.1812
    585  O5'       23.1500    1.1640   77.3430 O.3    40  A40        -0.3114
    586  C4'       23.4170    0.3060   79.5680 C.3    40  A40         0.1773
    587  O4'       24.4960    1.1410   80.0630 O.3    40  A40        -0.3307
    588  C3'       22.7200   -0.1860   80.8290 C.3    40  A40         0.1860
    589  O3'       21.9400   -1.3590   80.6170 O.3    40  A40        -0.3112
    590  C2'       23.8810   -0.3600   81.7980 C.3    40  A40         0.2309
    591  O2'       24.5920   -1.5490   81.4970 O.3    40  A40        -0.2156
    592  C1'       24.7630    0.8300   81.4160 C.3    40  A40         0.2408
    593  N1        25.3690    2.9720   86.0370 N.ar   40  A40        -0.2040
    594  C2        25.7100    1.7910   85.5170 C.ar   40  A40         0.2016
    595  N3        25.5210    1.2990   84.3010 N.ar   40  A40        -0.2048
    596  C4        24.8710    2.1920   83.5430 C.ar   40  A40         0.1692
    597  C5        24.4370    3.4510   83.9220 C.ar   40  A40         0.1518
    598  C6        24.7110    3.8480   85.2530 C.ar   40  A40         0.1919
    599  N6        24.3770    5.0230   85.8040 N.pl3  40  A40        -0.1054
    600  N7        23.8000    4.0810   82.8540 N.ar   40  A40        -0.2193
    601  C8        23.8600    3.1960   81.8820 C.ar   40  A40         0.1816
    602  N9        24.4940    2.0280   82.2390 N.ar   40  A40        -0.2693
    603  OP1       22.0810    1.4310   75.1630 O.2    40  A40        -0.5172
    604  OP2       21.8900    3.2870   76.9570 O.co2  40  A40        -0.4373
    605  P         20.5350   -1.5510   81.3960 P.3    41  C41         0.2141
    606  C5'       21.8820   -3.0950   83.0220 C.3    41  C41         0.1812
    607  O5'       21.0010   -1.9910   82.8560 O.3    41  C41        -0.3114
    608  C4'       22.4280   -3.1870   84.4290 C.3    41  C41         0.1773
    609  O4'       23.3280   -2.0800   84.6930 O.3    41  C41        -0.3307
    610  C3'       21.4150   -3.0900   85.5540 C.3    41  C41         0.1860
    611  O3'       20.6780   -4.2790   85.7730 O.3    41  C41        -0.3112
    612  C2'       22.2810   -2.6870   86.7310 C.3    41  C41         0.2309
    613  O2'       23.0070   -3.8130   87.1960 O.3    41  C41        -0.2156
    614  C1'       23.2490   -1.7160   86.0570 C.3    41  C41         0.2420
    615  N1        22.7670   -0.3150   86.1500 N.ar   41  C41        -0.2535
    616  C2        22.9610    0.3790   87.3440 C.ar   41  C41         0.3532
    617  O2        23.5380   -0.1810   88.2960 O.2    41  C41        -0.2443
    618  N3        22.5260    1.6520   87.4430 N.ar   41  C41        -0.1739
    619  C4        21.9110    2.2450   86.4190 C.ar   41  C41         0.1759
    620  N4        21.5030    3.5060   86.5910 N.pl3  41  C41        -0.1070
    621  C5        21.6920    1.5620   85.1880 C.ar   41  C41         0.0566
    622  C6        22.1290    0.2930   85.0990 C.ar   41  C41         0.0850
    623  OP1       19.7940   -2.6910   80.8200 O.2    41  C41        -0.5172
    624  OP2       19.8470   -0.2280   81.4800 O.co2  41  C41        -0.4373
    625  P         19.2410   -4.1830   86.4800 P.3    42  G42         0.2141
    626  C5'       20.3650   -4.7450   88.7830 C.3    42  G42         0.1812
    627  O5'       19.5920   -3.8440   87.9980 O.3    42  G42        -0.3114
    628  C4'       20.5950   -4.2450   90.1950 C.3    42  G42         0.1773
    629  O4'       21.4700   -3.0880   90.1700 O.3    42  G42        -0.3307
    630  C3'       19.3730   -3.7650   90.9810 C.3    42  G42         0.1860
    631  O3'       18.6200   -4.8150   91.5610 O.3    42  G42        -0.3112
    632  C2'       20.0000   -2.8480   92.0130 C.3    42  G42         0.2309
    633  O2'       20.6260   -3.6170   93.0300 O.3    42  G42        -0.2156
    634  C1'       21.0800   -2.1720   91.1760 C.3    42  G42         0.2408
    635  N1        19.5740    2.6000   91.8840 N.ar   42  G42        -0.1709
    636  C2        20.0720    1.6850   92.7850 C.ar   42  G42         0.2606
    637  N2        20.1880    2.1030   94.0540 N.pl3  42  G42        -0.0859
    638  N3        20.4390    0.4470   92.4720 N.ar   42  G42        -0.1918
    639  C4        20.2510    0.1980   91.1610 C.ar   42  G42         0.1723
    640  C5        19.7570    1.0160   90.1790 C.ar   42  G42         0.1748
    641  C6        19.3840    2.3360   90.5320 C.ar   42  G42         0.3023
    642  O6        18.9260    3.2140   89.7870 O.2    42  G42        -0.2633
    643  N7        19.7130    0.3730   88.9530 N.ar   42  G42        -0.2173
    644  C8        20.1900   -0.8150   89.2070 C.ar   42  G42         0.1817
    645  N9        20.5370   -0.9720   90.5230 N.ar   42  G42        -0.2693
    646  OP1       18.6220   -5.5290   86.3890 O.3    42  G42        -0.4373
    647  OP2       18.5220   -3.0260   85.8890 O.co2  42  G42        -0.5172
    648  P         17.0500   -4.6280   91.8460 P.3    43  C43         0.2141
    649  C5'       17.6050   -3.7520   94.2620 C.3    43  C43         0.1812
    650  O5'       16.9930   -3.5340   93.0010 O.3    43  C43        -0.3114
    651  C4'       17.5040   -2.5120   95.1100 C.3    43  C43         0.1773
    652  O4'       18.1450   -1.4090   94.4180 O.3    43  C43        -0.3307
    653  C3'       16.0930   -2.0200   95.3700 C.3    43  C43         0.1860
    654  O3'       15.4690   -2.6730   96.4570 O.3    43  C43        -0.3112
    655  C2'       16.2740   -0.5290   95.5940 C.3    43  C43         0.2309
    656  O2'       16.6880   -0.2720   96.9300 O.3    43  C43        -0.2156
    657  C1'       17.4330   -0.2140   94.6480 C.3    43  C43         0.2420
    658  N1        16.9920    0.3510   93.3490 N.ar   43  C43        -0.2535
    659  C2        16.6250    1.6990   93.3590 C.ar   43  C43         0.3532
    660  O2        16.6640    2.3270   94.4410 O.2    43  C43        -0.2443
    661  N3        16.2300    2.2860   92.2150 N.ar   43  C43        -0.1739
    662  C4        16.2100    1.5940   91.0740 C.ar   43  C43         0.1759
    663  N4        15.8160    2.2700   89.9820 N.pl3  43  C43        -0.1070
    664  C5        16.5780    0.2010   91.0300 C.ar   43  C43         0.0566
    665  C6        16.9590   -0.3770   92.1860 C.ar   43  C43         0.0850
    666  OP1       16.5630   -5.9040   92.4120 O.3    43  C43        -0.4373
    667  OP2       16.3750   -4.0460   90.6400 O.co2  43  C43        -0.5172
    668  P         13.8880   -2.9120   96.4090 P.3    44  A44         0.2141
    669  C5'       13.3020   -0.5460   97.4030 C.3    44  A44         0.1812
    670  O5'       13.2470   -1.4560   96.3150 O.3    44  A44        -0.3114
    671  C4'       12.8870    0.8270   96.9390 C.3    44  A44         0.1773
    672  O4'       13.7890    1.2590   95.8870 O.3    44  A44        -0.3307
    673  C3'       11.5070    0.9400   96.3020 C.3    44  A44         0.1860
    674  O3'       10.4590    1.0190   97.2600 O.3    44  A44        -0.3112
    675  C2'       11.6560    2.1930   95.4450 C.3    44  A44         0.2309
    676  O2'       11.6630    3.3320   96.2960 O.3    44  A44        -0.2156
    677  C1'       13.0810    2.0220   94.9220 C.3    44  A44         0.2408
    678  N1        12.4890    2.2000   89.7090 N.ar   44  A44        -0.2040
    679  C2        12.3150    3.1370   90.6610 C.ar   44  A44         0.2016
    680  N3        12.4770    3.0520   91.9870 N.ar   44  A44        -0.2048
    681  C4        12.8580    1.8160   92.3540 C.ar   44  A44         0.1692
    682  C5        13.0840    0.7680   91.4940 C.ar   44  A44         0.1518
    683  C6        12.8910    0.9780   90.1190 C.ar   44  A44         0.1919
    684  N6        13.0730    0.0020   89.2260 N.pl3  44  A44        -0.1054
    685  N7        13.4910   -0.3640   92.1790 N.ar   44  A44        -0.2193
    686  C8        13.5150    0.0150   93.4320 C.ar   44  A44         0.1816
    687  N9        13.1470    1.3200   93.6220 N.ar   44  A44        -0.2693
    688  OP1       13.4800   -3.5360   97.7040 O.3    44  A44        -0.4373
    689  OP2       13.5760   -3.5670   95.1010 O.co2  44  A44        -0.5172
    690  P          8.9950    0.4100   96.9570 P.3    45  U45         0.2141
    691  C5'        8.0000    2.6980   96.0430 C.3    45  U45         0.1812
    692  O5'        8.3750    1.3440   95.8040 O.3    45  U45        -0.3114
    693  C4'        7.9040    3.4820   94.7490 C.3    45  U45         0.1773
    694  O4'        9.0920    3.2550   93.9410 O.3    45  U45        -0.3307
    695  C3'        6.7510    3.1260   93.8270 C.3    45  U45         0.1860
    696  O3'        5.5400    3.7670   94.2120 O.3    45  U45        -0.3112
    697  C2'        7.2710    3.5600   92.4570 C.3    45  U45         0.2309
    698  O2'        7.1580    4.9710   92.3180 O.3    45  U45        -0.2156
    699  C1'        8.7560    3.2200   92.5720 C.3    45  U45         0.2420
    700  N1         9.1030    1.8850   92.0060 N.ar   45  U45        -0.2534
    701  C2         9.1380    1.7800   90.6250 C.ar   45  U45         0.3546
    702  O2         8.8980    2.7170   89.9030 O.2    45  U45        -0.2443
    703  N3         9.4570    0.5500   90.1100 N.ar   45  U45        -0.1530
    704  C4         9.7530   -0.5850   90.8280 C.ar   45  U45         0.2846
    705  O4        10.0200   -1.6290   90.2140 O.2    45  U45        -0.2650
    706  C5         9.6910   -0.4190   92.2560 C.ar   45  U45         0.0814
    707  C6         9.3860    0.7790   92.7800 C.ar   45  U45         0.0870
    708  OP1        8.1920    0.5760   98.2050 O.3    45  U45        -0.4373
    709  OP2        9.1460   -0.9410   96.3610 O.co2  45  U45        -0.5172
    710  P          4.1070    3.0100   94.1000 P.3    46  U46         0.2141
    711  C5'        3.8480    3.9120   91.6610 C.3    46  U46         0.1812
    712  O5'        3.8970    2.7910   92.5370 O.3    46  U46        -0.3114
    713  C4'        3.8680    3.4740   90.2140 C.3    46  U46         0.1773
    714  O4'        5.1480    2.8680   89.8900 O.3    46  U46        -0.3307
    715  C3'        2.8450    2.4200   89.8220 C.3    46  U46         0.1860
    716  O3'        1.5530    2.9780   89.6050 O.3    46  U46        -0.3112
    717  C2'        3.4690    1.7950   88.5720 C.3    46  U46         0.2309
    718  O2'        3.1990    2.6040   87.4380 O.3    46  U46        -0.2156
    719  C1'        4.9690    1.8800   88.8900 C.3    46  U46         0.2420
    720  N1         5.5260    0.5930   89.3650 N.ar   46  U46        -0.2534
    721  C2         5.9080   -0.2990   88.3750 C.ar   46  U46         0.3546
    722  O2         5.8230   -0.0580   87.1700 O.2    46  U46        -0.2443
    723  N3         6.4310   -1.4810   88.8330 N.ar   46  U46        -0.1530
    724  C4         6.5850   -1.8500   90.1590 C.ar   46  U46         0.2846
    725  O4         7.0500   -2.9570   90.4190 O.2    46  U46        -0.2650
    726  C5         6.1510   -0.8660   91.1310 C.ar   46  U46         0.0814
    727  C6         5.6430    0.3010   90.7040 C.ar   46  U46         0.0870
    728  OP1        3.0590    3.9670   94.5030 O.2    46  U46        -0.5172
    729  OP2        4.1900    1.6540   94.7080 O.co2  46  U46        -0.4373
    730  P          0.2090    2.2640   90.1490 P.3    47  G47         0.2141
    731  C5'       -0.7530   -0.1330   89.7170 C.3    47  G47         0.1812
    732  O5'        0.2220    0.8510   89.4130 O.3    47  G47        -0.3114
    733  C4'       -0.8680   -1.1430   88.5960 C.3    47  G47         0.1773
    734  O4'       -1.6510   -0.5690   87.5240 O.3    47  G47        -0.3307
    735  C3'        0.4430   -1.5490   87.9330 C.3    47  G47         0.1860
    736  O3'        1.1380   -2.5710   88.6310 O.3    47  G47        -0.3112
    737  C2'        0.0140   -1.9510   86.5330 C.3    47  G47         0.2309
    738  O2'       -0.5040   -3.2740   86.5370 O.3    47  G47        -0.2156
    739  C1'       -1.1310   -0.9740   86.2730 C.3    47  G47         0.2408
    740  N1         0.4200    1.0750   81.8310 N.ar   47  G47        -0.1709
    741  C2         0.1410   -0.2360   82.1460 C.ar   47  G47         0.2606
    742  N2         0.2810   -1.1440   81.1660 N.pl3  47  G47        -0.0859
    743  N3        -0.2490   -0.6570   83.3430 N.ar   47  G47        -0.1918
    744  C4        -0.3470    0.3430   84.2340 C.ar   47  G47         0.1723
    745  C5        -0.1030    1.6810   84.0400 C.ar   47  G47         0.1748
    746  C6         0.3240    2.1190   82.7580 C.ar   47  G47         0.3023
    747  O6         0.5730    3.2800   82.4050 O.2    47  G47        -0.2633
    748  N7        -0.3120    2.3990   85.2010 N.ar   47  G47        -0.2173
    749  C8        -0.6760    1.4990   86.0770 C.ar   47  G47         0.1817
    750  N9        -0.7060    0.2300   85.5500 N.ar   47  G47        -0.2693
    751  OP1       -0.9580    2.9900   89.6380 O.2    47  G47        -0.5172
    752  OP2        0.2530    1.9990   91.6080 O.co2  47  G47        -0.4373
    753  P          2.7420   -2.5860   88.6840 P.3    48  A48         0.2141
    754  C5'        3.0700   -3.8330   86.3950 C.3    48  A48         0.1812
    755  O5'        3.2210   -2.6420   87.1550 O.3    48  A48        -0.3114
    756  C4'        3.5440   -3.6470   84.9680 C.3    48  A48         0.1773
    757  O4'        2.7250   -2.6740   84.2830 O.3    48  A48        -0.3307
    758  C3'        4.9680   -3.1520   84.7940 C.3    48  A48         0.1860
    759  O3'        5.8770   -4.2300   84.8370 O.3    48  A48        -0.3112
    760  C2'        4.9340   -2.4520   83.4400 C.3    48  A48         0.2309
    761  O2'        5.0360   -3.4180   82.4080 O.3    48  A48        -0.2156
    762  C1'        3.5200   -1.8840   83.4200 C.3    48  A48         0.2408
    763  N1         3.7180    3.0810   81.9640 N.ar   48  A48        -0.2040
    764  C2         3.9170    1.9270   81.2900 C.ar   48  A48         0.2016
    765  N3         3.8650    0.6590   81.7460 N.ar   48  A48        -0.2048
    766  C4         3.5610    0.6310   83.0500 C.ar   48  A48         0.1692
    767  C5         3.3340    1.7180   83.8670 C.ar   48  A48         0.1518
    768  C6         3.4180    2.9990   83.2810 C.ar   48  A48         0.1919
    769  N6         3.2110    4.1290   83.9730 N.pl3  48  A48        -0.1054
    770  N7         3.0460    1.3220   85.1550 N.ar   48  A48        -0.2193
    771  C8         3.1100    0.0040   85.1010 C.ar   48  A48         0.1816
    772  N9         3.4180   -0.4760   83.8520 N.ar   48  A48        -0.2693
    773  OP1        3.1910   -3.8460   89.3170 O.3    48  A48        -0.4373
    774  OP2        3.2440   -1.3020   89.2540 O.co2  48  A48        -0.5172
    775  P          7.2790   -4.0870   85.5810 P.3    49  A49         0.2141
    776  C5'        8.3180   -3.1620   83.3680 C.3    49  A49         0.1812
    777  O5'        7.9860   -2.9470   84.7390 O.3    49  A49        -0.3114
    778  C4'        9.8060   -3.0470   83.1580 C.3    49  A49         0.1773
    779  O4'       10.2080   -1.6850   83.4590 O.3    49  A49        -0.3307
    780  C3'       10.6560   -3.9450   84.0450 C.3    49  A49         0.1860
    781  O3'       11.8650   -4.2820   83.3650 O.3    49  A49        -0.3112
    782  C2'       10.9740   -3.0350   85.2300 C.3    49  A49         0.2309
    783  O2'       12.1720   -3.3430   85.9130 O.3    49  A49        -0.2156
    784  C1'       11.0900   -1.6610   84.5580 C.3    49  A49         0.2408
    785  N1         9.9500    3.3800   84.8340 N.ar   49  A49        -0.2040
    786  C2        10.3840    2.5960   83.8210 C.ar   49  A49         0.2016
    787  N3        10.6770    1.2790   83.8120 N.ar   49  A49        -0.2048
    788  C4        10.4640    0.7600   85.0310 C.ar   49  A49         0.1692
    789  C5        10.0120    1.4290   86.1560 C.ar   49  A49         0.1518
    790  C6         9.7410    2.8030   86.0370 C.ar   49  A49         0.1919
    791  N6         9.3040    3.5590   87.0570 N.pl3  49  A49        -0.1054
    792  N7         9.9090    0.5670   87.2480 N.ar   49  A49        -0.2193
    793  C8        10.2890   -0.5990   86.7450 C.ar   49  A49         0.1816
    794  N9        10.6420   -0.5520   85.4110 N.ar   49  A49        -0.2693
    795  OP1        8.0210   -5.3730   85.4290 O.2    49  A49        -0.5172
    796  OP2        7.0590   -3.5550   86.9750 O.co2  49  A49        -0.4373
    797  P         11.9820   -5.6330   82.4880 P.3    50  U50         0.2141
    798  C5'       12.3740   -4.1000   80.4650 C.3    50  U50         0.1812
    799  O5'       11.6140   -5.1410   81.0340 O.3    50  U50        -0.3114
    800  C4'       12.1090   -3.9920   78.9950 C.3    50  U50         0.1773
    801  O4'       12.3470   -5.2840   78.3710 O.3    50  U50        -0.3307
    802  C3'       10.6850   -3.6430   78.5830 C.3    50  U50         0.1860
    803  O3'       10.4300   -2.2480   78.6590 O.3    50  U50        -0.3112
    804  C2'       10.6320   -4.1820   77.1650 C.3    50  U50         0.2309
    805  O2'       11.3690   -3.3090   76.3150 O.3    50  U50        -0.2156
    806  C1'       11.4390   -5.4760   77.3120 C.3    50  U50         0.2420
    807  N1        10.6090   -6.6570   77.6330 N.ar   50  U50        -0.2534
    808  C2        10.0100   -7.3510   76.5890 C.ar   50  U50         0.3546
    809  O2        10.1190   -7.0250   75.4060 O.2    50  U50        -0.2443
    810  N3         9.2750   -8.4440   76.9730 N.ar   50  U50        -0.1530
    811  C4         9.0980   -8.9040   78.2720 C.ar   50  U50         0.2846
    812  O4         8.4140   -9.9100   78.4820 O.2    50  U50        -0.2650
    813  C5         9.7600   -8.1330   79.2900 C.ar   50  U50         0.0814
    814  C6        10.4870   -7.0660   78.9450 C.ar   50  U50         0.0870
    815  OP1       10.9690   -6.6310   82.9210 O.3    50  U50        -0.4373
    816  OP2       13.4200   -5.9540   82.4420 O.co2  50  U50        -0.5172
    817  P          8.9740   -1.6510   79.0180 P.3    51  U51         0.2141
    818  C5'        8.4640   -1.2260   76.4890 C.3    51  U51         0.1812
    819  O5'        8.1010   -1.8380   77.7160 O.3    51  U51        -0.3114
    820  C4'        7.2810   -1.1380   75.5550 C.3    51  U51         0.1773
    821  O4'        6.2660   -0.2630   76.1390 O.3    51  U51        -0.3307
    822  C3'        7.6130   -0.5480   74.1940 C.3    51  U51         0.1860
    823  O3'        6.7760   -1.1350   73.1990 O.3    51  U51        -0.3112
    824  C2'        7.2620    0.9250   74.3810 C.3    51  U51         0.2309
    825  O2'        7.0160    1.6410   73.1910 O.3    51  U51        -0.2156
    826  C1'        6.0240    0.8360   75.2770 C.3    51  U51         0.2420
    827  N1         5.8410    2.0520   76.0930 N.ar   51  U51        -0.2534
    828  C2         4.9690    3.0470   75.6510 C.ar   51  U51         0.3546
    829  O2         4.2870    2.9550   74.6460 O.2    51  U51        -0.2443
    830  N3         4.9030    4.1740   76.4350 N.ar   51  U51        -0.1530
    831  C4         5.6070    4.4420   77.5860 C.ar   51  U51         0.2846
    832  O4         5.4080    5.5330   78.1710 O.2    51  U51        -0.2650
    833  C5         6.5000    3.3780   77.9670 C.ar   51  U51         0.0814
    834  C6         6.5940    2.2690   77.2260 C.ar   51  U51         0.0870
    835  OP1        9.2040   -0.1960   79.2580 O.2    51  U51        -0.5172
    836  OP2        8.3210   -2.4960   80.0550 O.co2  51  U51        -0.4373
    837  P          7.3340   -2.3760   72.3410 P.3    52  G52         0.2141
    838  C5'        8.4380   -0.6870   70.6760 C.3    52  G52         0.1812
    839  O5'        8.5940   -1.7600   71.6040 O.3    52  G52        -0.3114
    840  C4'        9.7670   -0.2730   70.0870 C.3    52  G52         0.1773
    841  O4'       10.4980    0.5480   71.0370 O.3    52  G52        -0.3307
    842  C3'       10.7000   -1.4310   69.7310 C.3    52  G52         0.1860
    843  O3'       11.4890   -1.0700   68.5950 O.3    52  G52        -0.3112
    844  C2'       11.6240   -1.4850   70.9400 C.3    52  G52         0.2309
    845  O2'       12.8740   -2.0830   70.6820 O.3    52  G52        -0.2156
    846  C1'       11.7820    0.0010   71.2300 C.3    52  G52         0.2408
    847  N1        14.4220    3.4430   73.9870 N.ar   52  G52        -0.1709
    848  C2        14.1470    3.3990   72.6460 C.ar   52  G52         0.2606
    849  N2        14.6340    4.4340   71.9180 N.pl3  52  G52        -0.0859
    850  N3        13.4420    2.4350   72.0640 N.ar   52  G52        -0.1918
    851  C4        13.0190    1.4700   72.9010 C.ar   52  G52         0.1723
    852  C5        13.2350    1.3940   74.2540 C.ar   52  G52         0.1748
    853  C6        13.9980    2.4370   74.8770 C.ar   52  G52         0.3023
    854  O6        14.3100    2.5720   76.0590 O.2    52  G52        -0.2633
    855  N7        12.6280    0.2470   74.7740 N.ar   52  G52        -0.2173
    856  C8        12.0600   -0.3540   73.7480 C.ar   52  G52         0.1817
    857  N9        12.2590    0.3500   72.5710 N.ar   52  G52        -0.2693
    858  OP1        6.2940   -2.7360   71.3650 O.2    52  G52        -0.5172
    859  OP2        7.9230   -3.3960   73.2560 O.co2  52  G52        -0.4373
    860  P         10.8060   -0.7520   67.1820 P.3    53  U53         0.2141
    861  C5'       12.2130   -2.7210   66.1700 C.3    53  U53         0.1812
    862  O5'       11.8210   -1.3610   66.1260 O.3    53  U53        -0.3114
    863  C4'       13.0740   -3.0500   64.9680 C.3    53  U53         0.1773
    864  O4'       12.3070   -2.9660   63.7350 O.3    53  U53        -0.3307
    865  C3'       14.2430   -2.1170   64.7240 C.3    53  U53         0.1860
    866  O3'       15.3240   -2.4190   65.5760 O.3    53  U53        -0.3112
    867  C2'       14.5530   -2.3470   63.2440 C.3    53  U53         0.2309
    868  O2'       15.3020   -3.5450   63.0660 O.3    53  U53        -0.2156
    869  C1'       13.1560   -2.5750   62.6670 C.3    53  U53         0.2420
    870  N1        12.6010   -1.3710   61.9860 N.ar   53  U53        -0.2534
    871  C2        12.9690   -1.1820   60.6670 C.ar   53  U53         0.3546
    872  O2        13.7060   -1.9470   60.0880 O.2    53  U53        -0.2443
    873  N3        12.4460   -0.0860   60.0330 N.ar   53  U53        -0.1530
    874  C4        11.6030    0.8520   60.6050 C.ar   53  U53         0.2846
    875  O4        11.2020    1.7960   59.9170 O.2    53  U53        -0.2650
    876  C5        11.2520    0.5950   61.9850 C.ar   53  U53         0.0814
    877  C6        11.7540   -0.4800   62.6110 C.ar   53  U53         0.0870
    878  OP1       10.9080    0.7190   66.9440 O.2    53  U53        -0.5172
    879  OP2        9.5280   -1.4730   67.0810 O.co2  53  U53        -0.4373
    880  P         16.3810   -1.3100   66.0200 P.3    54  U54         0.2141
    881  C5'       15.0700   -0.2960   68.1490 C.3    54  U54         0.1812
    882  O5'       16.1150   -1.0880   67.5940 O.3    54  U54        -0.3114
    883  C4'       15.6360    0.7860   69.0690 C.3    54  U54         0.1773
    884  O4'       15.2130    0.6240   70.4670 O.3    54  U54        -0.3307
    885  C3'       17.1630    0.9290   69.1080 C.3    54  U54         0.1860
    886  O3'       17.4620    2.3250   69.1850 O.3    54  U54        -0.3112
    887  C2'       17.5120    0.2990   70.4540 C.3    54  U54         0.2309
    888  O2'       18.7790    0.6530   70.9740 O.3    54  U54        -0.2156
    889  C1'       16.3480    0.8020   71.2980 C.3    54  U54         0.2420
    890  N1        16.1560    0.1110   72.5810 N.ar   54  U54        -0.2534
    891  C2        16.6850    0.7050   73.7230 C.ar   54  U54         0.3546
    892  O2        17.2860    1.7620   73.7000 O.2    54  U54        -0.2443
    893  N3        16.5050    0.0200   74.9040 N.ar   54  U54        -0.1530
    894  C4        15.8520   -1.1800   75.0670 C.ar   54  U54         0.2846
    895  O4        15.7770   -1.6790   76.1990 O.2    54  U54        -0.2650
    896  C5        15.3300   -1.7350   73.8330 C.ar   54  U54         0.0814
    897  C6        15.4890   -1.0900   72.6760 C.ar   54  U54         0.0870
    898  OP1       16.4190   -0.1620   65.0900 O.2    54  U54        -0.5172
    899  OP2       17.6500   -2.0250   66.2220 O.co2  54  U54        -0.4373
    900  P         18.7440    2.9520   68.4560 P.3    55  G55         0.2141
    901  C5'       17.3240    2.6610   66.2430 C.3    55  G55         0.1812
    902  O5'       18.1480    3.4730   67.0690 O.3    55  G55        -0.3114
    903  C4'       16.7540    3.5080   65.1330 C.3    55  G55         0.1773
    904  O4'       15.5860    4.2360   65.6100 O.3    55  G55        -0.3307
    905  C3'       17.6920    4.6010   64.6580 C.3    55  G55         0.1860
    906  O3'       18.6860    4.1140   63.7630 O.3    55  G55        -0.3112
    907  C2'       16.7240    5.6310   64.0770 C.3    55  G55         0.2309
    908  O2'       16.1860    5.1680   62.8530 O.3    55  G55        -0.2156
    909  C1'       15.5960    5.5530   65.0940 C.3    55  G55         0.2408
    910  N1        15.2310   10.4350   66.4940 N.ar   55  G55        -0.1709
    911  C2        15.0160    9.8190   65.2740 C.ar   55  G55         0.2606
    912  N2        14.6170   10.6000   64.2580 N.pl3  55  G55        -0.0859
    913  N3        15.1500    8.5190   65.0440 N.ar   55  G55        -0.1918
    914  C4        15.5380    7.8590   66.1420 C.ar   55  G55         0.1723
    915  C5        15.7910    8.3560   67.3980 C.ar   55  G55         0.1748
    916  C6        15.6370    9.7530   67.6310 C.ar   55  G55         0.3023
    917  O6        15.8080   10.3740   68.6930 O.2    55  G55        -0.2633
    918  N7        16.1690    7.3320   68.2550 N.ar   55  G55        -0.2173
    919  C8        16.1350    6.2430   67.4990 C.ar   55  G55         0.1817
    920  N9        15.7660    6.5020   66.2060 N.ar   55  G55        -0.2693
    921  OP1       19.7960    1.9560   68.2040 O.2    55  G55        -0.5172
    922  OP2       19.1210    4.1360   69.2590 O.co2  55  G55        -0.4373
    923  P         20.1330    4.7990   63.6870 P.3    56  G56         0.2141
    924  C5'       20.3800    7.3910   63.2270 C.3    56  G56         0.1812
    925  O5'       19.7810    6.1490   62.9420 O.3    56  G56        -0.3114
    926  C4'       19.6230    8.4480   62.4540 C.3    56  G56         0.1773
    927  O4'       18.3510    8.7050   63.0990 O.3    56  G56        -0.3307
    928  C3'       20.2800    9.8080   62.3390 C.3    56  G56         0.1860
    929  O3'       21.1940    9.8630   61.2610 O.3    56  G56        -0.3112
    930  C2'       19.0870   10.7440   62.1920 C.3    56  G56         0.2309
    931  O2'       18.5270   10.6240   60.8980 O.3    56  G56        -0.2156
    932  C1'       18.1100   10.0930   63.1520 C.3    56  G56         0.2408
    933  N1        17.9990   14.0500   66.4140 N.ar   56  G56        -0.1709
    934  C2        17.7820   14.0130   65.0510 C.ar   56  G56         0.2606
    935  N2        17.4680   15.1660   64.4370 N.pl3  56  G56        -0.0859
    936  N3        17.8480   12.9080   64.3100 N.ar   56  G56        -0.1918
    937  C4        18.1610   11.8240   65.0310 C.ar   56  G56         0.1723
    938  C5        18.4100   11.7420   66.3870 C.ar   56  G56         0.1748
    939  C6        18.3220   12.9220   67.1690 C.ar   56  G56         0.3023
    940  O6        18.5180   13.0140   68.3800 O.2    56  G56        -0.2633
    941  N7        18.6980   10.4300   66.7590 N.ar   56  G56        -0.2173
    942  C8        18.6280    9.7520   65.6350 C.ar   56  G56         0.1817
    943  N9        18.3050   10.5440   64.5480 N.ar   56  G56        -0.2693
    944  OP1       20.9120    3.9970   62.7090 O.2    56  G56        -0.5172
    945  OP2       20.7160    5.1030   65.0070 O.co2  56  G56        -0.4373
    946  P         22.6690   10.4520   61.4820 P.3    57  A57         0.2141
    947  C5'       21.8240   12.7960   60.7100 C.3    57  A57         0.1812
    948  O5'       22.4050   12.0030   61.7320 O.3    57  A57        -0.3114
    949  C4'       21.5380   14.2030   61.1760 C.3    57  A57         0.1773
    950  O4'       20.5550   14.1720   62.2360 O.3    57  A57        -0.3307
    951  C3'       22.6900   14.9810   61.7890 C.3    57  A57         0.1860
    952  O3'       23.5910   15.5180   60.8330 O.3    57  A57        -0.3112
    953  C2'       21.9660   16.0460   62.5960 C.3    57  A57         0.2309
    954  O2'       21.5120   17.0680   61.7340 O.3    57  A57        -0.2156
    955  C1'       20.7450   15.2720   63.0950 C.3    57  A57         0.2408
    956  N1        20.7250   16.6150   68.0360 N.ar   57  A57        -0.2040
    957  C2        20.4950   17.3070   66.9130 C.ar   57  A57         0.2016
    958  N3        20.5240   16.8760   65.6470 N.ar   57  A57        -0.2048
    959  C4        20.8300   15.5720   65.5800 C.ar   57  A57         0.1692
    960  C5        21.1000   14.7320   66.6350 C.ar   57  A57         0.1518
    961  C6        21.0410   15.3010   67.9240 C.ar   57  A57         0.1919
    962  N6        21.2900   14.6190   69.0470 N.pl3  57  A57        -0.1054
    963  N7        21.3860   13.4470   66.1780 N.ar   57  A57        -0.2193
    964  C8        21.2860   13.5330   64.8690 C.ar   57  A57         0.1816
    965  N9        20.9420   14.7870   64.4600 N.ar   57  A57        -0.2693
    966  OP1       23.3860   10.3370   60.1940 O.2    57  A57        -0.5172
    967  OP2       23.2550    9.8980   62.7280 O.co2  57  A57        -0.4373
    968  P         25.1240   15.7560   61.2590 P.3    58  C58         0.2141
    969  C5'       24.6200   18.2930   61.6220 C.3    58  C58         0.1812
    970  O5'       25.1040   17.0720   62.1550 O.3    58  C58        -0.3114
    971  C4'       24.2840   19.2970   62.7010 C.3    58  C58         0.1773
    972  O4'       23.3300   18.7320   63.6310 O.3    58  C58        -0.3307
    973  C3'       25.4250   19.7650   63.5980 C.3    58  C58         0.1860
    974  O3'       26.2380   20.7550   63.0040 O.3    58  C58        -0.3112
    975  C2'       24.6940   20.2770   64.8240 C.3    58  C58         0.2309
    976  O2'       24.1750   21.5680   64.5620 O.3    58  C58        -0.2156
    977  C1'       23.5320   19.2880   64.9180 C.3    58  C58         0.2420
    978  N1        23.8040   18.1950   65.8740 N.ar   58  C58        -0.2535
    979  C2        23.5610   18.4670   67.2180 C.ar   58  C58         0.3532
    980  O2        23.1500   19.6000   67.5210 O.2    58  C58        -0.2443
    981  N3        23.7630   17.4990   68.1390 N.ar   58  C58        -0.1739
    982  C4        24.2020   16.3020   67.7490 C.ar   58  C58         0.1759
    983  N4        24.3960   15.3790   68.7020 N.pl3  58  C58        -0.1070
    984  C5        24.4660   16.0000   66.3820 C.ar   58  C58         0.0566
    985  C6        24.2540   16.9690   65.4760 C.ar   58  C58         0.0850
    986  OP1       25.9520   15.9840   60.0370 O.2    58  C58        -0.5172
    987  OP2       25.4230   14.5830   62.1260 O.co2  58  C58        -0.4373
    988  P         27.7850   20.8690   63.4210 P.3    59  A59         0.2141
    989  C5'       28.0020   22.2840   65.6120 C.3    59  A59         0.1812
    990  O5'       27.7610   21.0210   65.0130 O.3    59  A59        -0.3114
    991  C4'       27.4110   22.4250   66.9990 C.3    59  A59         0.1773
    992  O4'       26.4890   21.3520   67.3230 O.3    59  A59        -0.3307
    993  C3'       28.3860   22.4090   68.1610 C.3    59  A59         0.1860
    994  O3'       29.1070   23.6200   68.2830 O.3    59  A59        -0.3112
    995  C2'       27.4740   22.1450   69.3450 C.3    59  A59         0.2309
    996  O2'       26.8430   23.3580   69.7170 O.3    59  A59        -0.2156
    997  C1'       26.4300   21.1990   68.7300 C.3    59  A59         0.2408
    998  N1        26.6120   17.6000   72.4830 N.ar   59  A59        -0.2040
    999  C2        26.3320   18.9080   72.5010 C.ar   59  A59         0.2016
   1000  N3        26.3010   19.7930   71.4970 N.ar   59  A59        -0.2048
   1001  C4        26.6010   19.2110   70.3280 C.ar   59  A59         0.1692
   1002  C5        26.9180   17.8800   70.1510 C.ar   59  A59         0.1518
   1003  C6        26.9130   17.0550   71.2950 C.ar   59  A59         0.1919
   1004  N6        27.1910   15.7570   71.2500 N.pl3  59  A59        -0.1054
   1005  N7        27.1810   17.6020   68.8160 N.ar   59  A59        -0.2193
   1006  C8        27.0230   18.7680   68.2260 C.ar   59  A59         0.1816
   1007  N9        26.6760   19.7850   69.0760 N.ar   59  A59        -0.2693
   1008  OP1       28.2810   22.1360   62.8360 O.2    59  A59        -0.5172
   1009  OP2       28.4550   19.6040   63.0360 O.co2  59  A59        -0.4373
   1010  P         30.6100   23.5910   68.8330 P.3    60  C60         0.2141
   1011  C5'       29.8450   23.6190   71.3530 C.3    60  C60         0.1812
   1012  O5'       30.4930   22.9440   70.2850 O.3    60  C60        -0.3114
   1013  C4'       29.8270   22.7620   72.5960 C.3    60  C60         0.1773
   1014  O4'       28.9660   21.6130   72.3720 O.3    60  C60        -0.3307
   1015  C3'       31.1530   22.1300   73.0140 C.3    60  C60         0.1860
   1016  O3'       32.0400   23.0180   73.6780 O.3    60  C60        -0.3112
   1017  C2'       30.6900   20.9580   73.8640 C.3    60  C60         0.2309
   1018  O2'       30.2270   21.4210   75.1280 O.3    60  C60        -0.2156
   1019  C1'       29.4690   20.4940   73.0720 C.3    60  C60         0.2420
   1020  N1        29.7740   19.4180   72.1050 N.ar   60  C60        -0.2535
   1021  C2        29.9850   18.1350   72.6060 C.ar   60  C60         0.3532
   1022  O2        29.9320   17.9880   73.8410 O.2    60  C60        -0.2443
   1023  N3        30.2340   17.1160   71.7470 N.ar   60  C60        -0.1739
   1024  C4        30.2720   17.3630   70.4350 C.ar   60  C60         0.1759
   1025  N4        30.5190   16.3550   69.5930 N.pl3  60  C60        -0.1070
   1026  C5        30.0540   18.6640   69.9050 C.ar   60  C60         0.0566
   1027  C6        29.8060   19.6580   70.7630 C.ar   60  C60         0.0850
   1028  OP1       30.9940   25.0190   68.9200 O.3    60  C60        -0.4373
   1029  OP2       31.4020   22.6040   68.0470 O.co2  60  C60        -0.5172
   1030  P         33.6350   22.8740   73.4670 P.3    61  C61         0.2141
   1031  C5'       33.7220   22.0620   75.9430 C.3    61  C61         0.1812
   1032  O5'       34.0740   21.8480   74.5880 O.3    61  C61        -0.3114
   1033  C4'       33.7720   20.7610   76.6960 C.3    61  C61         0.1773
   1034  O4'       32.7910   19.8570   76.1280 O.3    61  C61        -0.3307
   1035  C3'       35.0870   20.0050   76.5750 C.3    61  C61         0.1860
   1036  O3'       36.0600   20.4500   77.5030 O.3    61  C61        -0.3112
   1037  C2'       34.6700   18.5540   76.7680 C.3    61  C61         0.2309
   1038  O2'       34.4760   18.2690   78.1470 O.3    61  C61        -0.2156
   1039  C1'       33.3070   18.5430   76.0810 C.3    61  C61         0.2420
   1040  N1        33.3700   18.1100   74.6650 N.ar   61  C61        -0.2535
   1041  C2        33.6080   16.7730   74.3710 C.ar   61  C61         0.3532
   1042  O2        33.7890   15.9950   75.3170 O.2    61  C61        -0.2443
   1043  N3        33.6490   16.3520   73.0830 N.ar   61  C61        -0.1739
   1044  C4        33.4440   17.2270   72.0980 C.ar   61  C61         0.1759
   1045  N4        33.4850   16.7880   70.8350 N.pl3  61  C61        -0.1070
   1046  C5        33.1890   18.6020   72.3690 C.ar   61  C61         0.0566
   1047  C6        33.1600   18.9960   73.6510 C.ar   61  C61         0.0850
   1048  OP1       34.2650   24.1810   73.7720 O.3    61  C61        -0.4373
   1049  OP2       33.9030   22.2400   72.1550 O.co2  61  C61        -0.5172
   1050  P         37.3910   21.2090   77.0030 P.3    62  G62         0.2141
   1051  C5'       39.5930   20.1350   76.0570 C.3    62  G62         0.1812
   1052  O5'       38.1770   20.0930   76.1910 O.3    62  G62        -0.3114
   1053  C4'       40.1150   18.8220   75.5380 C.3    62  G62         0.1773
   1054  O4'       39.4650   18.5400   74.2710 O.3    62  G62        -0.3307
   1055  C3'       41.6200   18.7640   75.2830 C.3    62  G62         0.1860
   1056  O3'       42.1560   17.5180   75.7180 O.3    62  G62        -0.3112
   1057  C2'       41.7350   18.8820   73.7650 C.3    62  G62         0.2309
   1058  O2'       42.8480   18.2210   73.1990 O.3    62  G62        -0.2156
   1059  C1'       40.4290   18.2640   73.2800 C.3    62  G62         0.2408
   1060  N1        39.4270   17.6320   68.3220 N.ar   62  G62        -0.1709
   1061  C2        39.8270   16.7030   69.2520 C.ar   62  G62         0.2606
   1062  N2        39.9880   15.4520   68.8040 N.pl3  62  G62        -0.0859
   1063  N3        40.0560   16.9760   70.5260 N.ar   62  G62        -0.1918
   1064  C4        39.8470   18.2780   70.8020 C.ar   62  G62         0.1723
   1065  C5        39.4530   19.2920   69.9590 C.ar   62  G62         0.1748
   1066  C6        39.2100   18.9780   68.5990 C.ar   62  G62         0.3023
   1067  O6        38.8500   19.7370   67.6970 O.2    62  G62        -0.2633
   1068  N7        39.3500   20.5020   70.6290 N.ar   62  G62        -0.2173
   1069  C8        39.6820   20.2060   71.8540 C.ar   62  G62         0.1817
   1070  N9        39.9840   18.8740   72.0270 N.ar   62  G62        -0.2693
   1071  OP1       38.1580   21.5660   78.2190 O.3    62  G62        -0.4373
   1072  OP2       37.0180   22.2850   76.0530 O.co2  62  G62        -0.5172
   1073  P         43.3730   17.5200   76.7660 P.3    63  U63         0.2141
   1074  C5'       42.0680   15.8370   78.2680 C.3    63  U63         0.1812
   1075  O5'       43.2300   16.1250   77.5070 O.3    63  U63        -0.3114
   1076  C4'       41.6930   14.3790   78.1890 C.3    63  U63         0.1773
   1077  O4'       40.9130   14.1190   76.9840 O.3    63  U63        -0.3307
   1078  C3'       42.8570   13.3870   78.1710 C.3    63  U63         0.1860
   1079  O3'       42.5270   12.2760   79.0030 O.3    63  U63        -0.3112
   1080  C2'       42.9060   12.9450   76.7060 C.3    63  U63         0.2309
   1081  O2'       43.4600   11.6660   76.4920 O.3    63  U63        -0.2156
   1082  C1'       41.4330   12.9850   76.3280 C.3    63  U63         0.2420
   1083  N1        41.1640   13.0810   74.8820 N.ar   63  U63        -0.2534
   1084  C2        40.9360   11.8850   74.2370 C.ar   63  U63         0.3546
   1085  O2        40.9580   10.8140   74.8190 O.2    63  U63        -0.2443
   1086  N3        40.6870   11.9760   72.8940 N.ar   63  U63        -0.1530
   1087  C4        40.6400   13.1220   72.1370 C.ar   63  U63         0.2846
   1088  O4        40.4030   13.0440   70.9250 O.2    63  U63        -0.2650
   1089  C5        40.8830   14.3220   72.8790 C.ar   63  U63         0.0814
   1090  C6        41.1320   14.2700   74.1930 C.ar   63  U63         0.0870
   1091  OP1       43.0640   18.5870   77.7500 O.3    63  U63        -0.4373
   1092  OP2       44.6570   17.5390   76.0210 O.co2  63  U63        -0.5172
   1093  P         42.9670   12.2680   80.5520 P.3    64  A64         0.2141
   1094  C5'       41.7440   13.8750   82.2540 C.3    64  A64         0.1812
   1095  O5'       41.6700   12.7980   81.3230 O.3    64  A64        -0.3114
   1096  C4'       40.3740   14.4330   82.5900 C.3    64  A64         0.1773
   1097  O4'       39.8280   15.1190   81.4320 O.3    64  A64        -0.3307
   1098  C3'       39.3050   13.4120   82.9840 C.3    64  A64         0.1860
   1099  O3'       39.3400   13.1140   84.3710 O.3    64  A64        -0.3112
   1100  C2'       38.0020   14.0770   82.5470 C.3    64  A64         0.2309
   1101  O2'       37.5680   15.0040   83.5320 O.3    64  A64        -0.2156
   1102  C1'       38.4450   14.8600   81.3090 C.3    64  A64         0.2408
   1103  N1        37.8120   15.4450   76.2620 N.ar   64  A64        -0.2040
   1104  C2        37.9740   16.2970   77.2780 C.ar   64  A64         0.2016
   1105  N3        38.1270   16.0520   78.5790 N.ar   64  A64        -0.2048
   1106  C4        38.1090   14.7340   78.8220 C.ar   64  A64         0.1692
   1107  C5        37.9560   13.7270   77.8960 C.ar   64  A64         0.1518
   1108  C6        37.8000   14.1290   76.5510 C.ar   64  A64         0.1919
   1109  N6        37.6460   13.2880   75.5310 N.pl3  64  A64        -0.1054
   1110  N7        37.9950   12.4830   78.5130 N.ar   64  A64        -0.2193
   1111  C8        38.1660   12.7740   79.7900 C.ar   64  A64         0.1816
   1112  N9        38.2350   14.1250   80.0420 N.ar   64  A64        -0.2693
   1113  OP1       44.0630   13.2620   80.7120 O.2    64  A64        -0.5172
   1114  OP2       43.2070   10.8580   80.9410 O.co2  64  A64        -0.4373
   1115  P         38.4490   11.9300   85.0030 P.3    65  A65         0.2141
   1116  C5'       36.5550   13.5070   85.9310 C.3    65  A65         0.1812
   1117  O5'       36.9580   12.5040   85.0010 O.3    65  A65        -0.3114
   1118  C4'       35.1510   14.0000   85.6620 C.3    65  A65         0.1773
   1119  O4'       35.0300   14.4050   84.2660 O.3    65  A65        -0.3307
   1120  C3'       34.0250   12.9890   85.9030 C.3    65  A65         0.1860
   1121  O3'       32.8620   13.6980   86.3410 O.3    65  A65        -0.3112
   1122  C2'       33.7830   12.4460   84.4990 C.3    65  A65         0.2309
   1123  O2'       32.5320   11.8260   84.2970 O.3    65  A65        -0.2156
   1124  C1'       33.9440   13.7160   83.6720 C.3    65  A65         0.2408
   1125  N1        34.2520   15.8080   78.9450 N.ar   65  A65        -0.2040
   1126  C2        33.9540   16.3120   80.1480 C.ar   65  A65         0.2016
   1127  N3        33.8870   15.7260   81.3400 N.ar   65  A65        -0.2048
   1128  C4        34.1810   14.4240   81.2410 C.ar   65  A65         0.1692
   1129  C5        34.5110   13.7530   80.0760 C.ar   65  A65         0.1518
   1130  C6        34.5410   14.4940   78.8770 C.ar   65  A65         0.1919
   1131  N6        34.8400   13.9730   77.6860 N.pl3  65  A65        -0.1054
   1132  N7        34.7520   12.4130   80.3360 N.ar   65  A65        -0.2193
   1133  C8        34.5680   12.3100   81.6350 C.ar   65  A65         0.1816
   1134  N9        34.2280   13.4920   82.2490 N.ar   65  A65        -0.2693
   1135  OP1       38.8850   11.8090   86.4180 O.3    65  A65        -0.4373
   1136  OP2       38.5100   10.7230   84.1360 O.co2  65  A65        -0.5172
   1137  P         31.7200   12.9780   87.2140 P.3    66  A66         0.2141
   1138  C5'       29.7660   13.3830   85.4750 C.3    66  A66         0.1812
   1139  O5'       30.3700   13.6890   86.7320 O.3    66  A66        -0.3114
   1140  C4'       29.5070   14.6300   84.6570 C.3    66  A66         0.1773
   1141  O4'       30.6690   14.9260   83.8330 O.3    66  A66        -0.3307
   1142  C3'       28.3670   14.5710   83.6450 C.3    66  A66         0.1860
   1143  O3'       27.0710   14.7190   84.2030 O.3    66  A66        -0.3112
   1144  C2'       28.7390   15.6860   82.6800 C.3    66  A66         0.2309
   1145  O2'       28.4460   16.9560   83.2450 O.3    66  A66        -0.2156
   1146  C1'       30.2530   15.5150   82.6120 C.3    66  A66         0.2408
   1147  N1        30.8890   15.1720   77.5280 N.ar   66  A66        -0.2040
   1148  C2        30.5540   16.1790   78.3360 C.ar   66  A66         0.2016
   1149  N3        30.4050   16.2030   79.6600 N.ar   66  A66        -0.2048
   1150  C4        30.6530   14.9920   80.1750 C.ar   66  A66         0.1692
   1151  C5        31.0100   13.8570   79.4760 C.ar   66  A66         0.1518
   1152  C6        31.1280   13.9690   78.0810 C.ar   66  A66         0.1919
   1153  N6        31.4590   12.9540   77.2880 N.pl3  66  A66        -0.1054
   1154  N7        31.1800   12.7830   80.3320 N.ar   66  A66        -0.2193
   1155  C8        30.9280   13.2930   81.5210 C.ar   66  A66         0.1816
   1156  N9        30.6150   14.6260   81.4940 N.ar   66  A66        -0.2693
   1157  OP1       31.9520   13.3480   88.6320 O.3    66  A66        -0.4373
   1158  OP2       31.6490   11.5420   86.8330 O.co2  66  A66        -0.5172
   1159  P         25.7850   14.2280   83.3680 P.3    67  U67         0.2141
   1160  C5'       25.7420   15.2800   80.9710 C.3    67  U67         0.1812
   1161  O5'       25.5010   15.4250   82.3620 O.3    67  U67        -0.3114
   1162  C4'       25.8030   16.6260   80.2990 C.3    67  U67         0.1773
   1163  O4'       26.9920   16.7190   79.4690 O.3    67  U67        -0.3307
   1164  C3'       24.6660   16.9520   79.3440 C.3    67  U67         0.1860
   1165  O3'       23.4830   17.3590   80.0120 O.3    67  U67        -0.3112
   1166  C2'       25.2840   18.0350   78.4740 C.3    67  U67         0.2309
   1167  O2'       25.3150   19.2660   79.1800 O.3    67  U67        -0.2156
   1168  C1'       26.7170   17.5190   78.3360 C.3    67  U67         0.2420
   1169  N1        26.8840   16.6850   77.1280 N.ar   67  U67        -0.2534
   1170  C2        26.8510   17.3220   75.9090 C.ar   67  U67         0.3546
   1171  O2        26.6780   18.5150   75.8130 O.2    67  U67        -0.2443
   1172  N3        27.0160   16.5270   74.8160 N.ar   67  U67        -0.1530
   1173  C4        27.2050   15.1720   74.8270 C.ar   67  U67         0.2846
   1174  O4        27.3340   14.5810   73.7620 O.2    67  U67        -0.2650
   1175  C5        27.2320   14.5790   76.1330 C.ar   67  U67         0.0814
   1176  C6        27.0730   15.3340   77.2240 C.ar   67  U67         0.0870
   1177  OP1       24.6320   14.1480   84.2910 O.3    67  U67        -0.4373
   1178  OP2       26.1410   13.0300   82.5670 O.co2  67  U67        -0.5172
   1179  P         22.0410   17.1180   79.3400 P.3    68  G68         0.2141
   1180  C5'       21.9710   19.6480   78.6490 C.3    68  G68         0.1812
   1181  O5'       21.9140   18.2830   78.2660 O.3    68  G68        -0.3114
   1182  C4'       22.0230   20.5500   77.4380 C.3    68  G68         0.1773
   1183  O4'       23.1970   20.2320   76.6370 O.3    68  G68        -0.3307
   1184  C3'       20.8700   20.4190   76.4510 C.3    68  G68         0.1860
   1185  O3'       19.6900   21.0940   76.8640 O.3    68  G68        -0.3112
   1186  C2'       21.4750   20.9690   75.1710 C.3    68  G68         0.2309
   1187  O2'       21.5320   22.3860   75.2360 O.3    68  G68        -0.2156
   1188  C1'       22.9060   20.4300   75.2660 C.3    68  G68         0.2408
   1189  N1        23.3760   18.3660   70.6830 N.ar   68  G68        -0.1709
   1190  C2        23.2070   19.6630   71.0710 C.ar   68  G68         0.2606
   1191  N2        23.1550   20.5540   70.0850 N.pl3  68  G68        -0.0859
   1192  N3        23.0950   20.0750   72.3100 N.ar   68  G68        -0.1918
   1193  C4        23.1610   19.0480   73.1730 C.ar   68  G68         0.1723
   1194  C5        23.3250   17.7130   72.9120 C.ar   68  G68         0.1748
   1195  C6        23.4600   17.2960   71.5640 C.ar   68  G68         0.3023
   1196  O6        23.6010   16.1540   71.1130 O.2    68  G68        -0.2633
   1197  N7        23.3450   16.9830   74.0850 N.ar   68  G68        -0.2173
   1198  C8        23.1920   17.8840   75.0230 C.ar   68  G68         0.1817
   1199  N9        23.0770   19.1570   74.5320 N.ar   68  G68        -0.2693
   1200  OP1       21.0120   17.4030   80.3740 O.3    68  G68        -0.4373
   1201  OP2       22.0540   15.8380   78.5940 O.co2  68  G68        -0.5172
   1202  P         18.2520   20.4630   76.5240 P.3    69  U69         0.2141
   1203  C5'       17.9380   22.2080   74.5950 C.3    69  U69         0.1812
   1204  O5'       18.0470   20.8510   74.9860 O.3    69  U69        -0.3114
   1205  C4'       18.1420   22.3690   73.1130 C.3    69  U69         0.1773
   1206  O4'       19.4510   21.8610   72.7290 O.3    69  U69        -0.3307
   1207  C3'       17.1910   21.5960   72.2270 C.3    69  U69         0.1860
   1208  O3'       15.8960   22.1880   72.1440 O.3    69  U69        -0.3112
   1209  C2'       17.9710   21.5400   70.9220 C.3    69  U69         0.2309
   1210  O2'       17.9990   22.8250   70.3310 O.3    69  U69        -0.2156
   1211  C1'       19.3730   21.2740   71.4490 C.3    69  U69         0.2420
   1212  N1        19.6660   19.8250   71.5450 N.ar   69  U69        -0.2534
   1213  C2        19.8970   19.2180   70.3340 C.ar   69  U69         0.3546
   1214  O2        19.8370   19.8660   69.2970 O.2    69  U69        -0.2443
   1215  N3        20.1830   17.8740   70.3760 N.ar   69  U69        -0.1530
   1216  C4        20.2610   17.1160   71.5270 C.ar   69  U69         0.2846
   1217  O4        20.5350   15.9210   71.4520 O.2    69  U69        -0.2650
   1218  C5        20.0040   17.8300   72.7470 C.ar   69  U69         0.0814
   1219  C6        19.7130   19.1320   72.7290 C.ar   69  U69         0.0870
   1220  OP1       17.2040   21.1800   77.2870 O.3    69  U69        -0.4373
   1221  OP2       18.3650   18.9860   76.6220 O.co2  69  U69        -0.5172
   1222  P         14.5950   21.3180   71.7730 P.3    70  C70         0.2141
   1223  C5'       14.8310   21.9670   69.2360 C.3    70  C70         0.1812
   1224  O5'       14.8160   20.9560   70.2290 O.3    70  C70        -0.3114
   1225  C4'       15.1840   21.3830   67.8820 C.3    70  C70         0.1773
   1226  O4'       16.5150   20.7960   67.8910 O.3    70  C70        -0.3307
   1227  C3'       14.3020   20.2510   67.4130 C.3    70  C70         0.1860
   1228  O3'       13.0570   20.7190   66.9480 O.3    70  C70        -0.3112
   1229  C2'       15.1810   19.5740   66.3660 C.3    70  C70         0.2309
   1230  O2'       15.2270   20.3500   65.1750 O.3    70  C70        -0.2156
   1231  C1'       16.5450   19.6630   67.0470 C.3    70  C70         0.2420
   1232  N1        16.8290   18.4710   67.8830 N.ar   70  C70        -0.2535
   1233  C2        17.2130   17.2840   67.2540 C.ar   70  C70         0.3532
   1234  O2        17.2840   17.2790   66.0270 O.2    70  C70        -0.2443
   1235  N3        17.5130   16.1870   67.9980 N.ar   70  C70        -0.1739
   1236  C4        17.4070   16.2300   69.3270 C.ar   70  C70         0.1759
   1237  N4        17.7050   15.1170   70.0110 N.pl3  70  C70        -0.1070
   1238  C5        17.0130   17.4340   69.9980 C.ar   70  C70         0.0566
   1239  C6        16.7310   18.5170   69.2470 C.ar   70  C70         0.0850
   1240  OP1       13.4720   22.2490   71.8840 O.2    70  C70        -0.5172
   1241  OP2       14.4520   20.0150   72.5150 O.co2  70  C70        -0.4373
   1242  P         11.7400   19.8300   67.1340 P.3    71  C71         0.2141
   1243  C5'       12.0110   18.8210   64.7290 C.3    71  C71         0.1812
   1244  O5'       11.9790   18.6050   66.1370 O.3    71  C71        -0.3114
   1245  C4'       12.4170   17.5720   63.9520 C.3    71  C71         0.1773
   1246  O4'       13.7450   17.1390   64.3410 O.3    71  C71        -0.3307
   1247  C3'       11.5630   16.3270   64.1310 C.3    71  C71         0.1860
   1248  O3'       10.3430   16.3580   63.4010 O.3    71  C71        -0.3112
   1249  C2'       12.5110   15.2050   63.7040 C.3    71  C71         0.2309
   1250  O2'       12.5770   15.1270   62.2930 O.3    71  C71        -0.2156
   1251  C1'       13.8510   15.7320   64.2140 C.3    71  C71         0.2420
   1252  N1        14.1940   15.1320   65.5210 N.ar   71  C71        -0.2535
   1253  C2        14.6270   13.8010   65.4700 C.ar   71  C71         0.3532
   1254  O2        14.7300   13.2600   64.3580 O.2    71  C71        -0.2443
   1255  N3        14.9520   13.1600   66.6160 N.ar   71  C71        -0.1739
   1256  C4        14.8290   13.8060   67.7840 C.ar   71  C71         0.1759
   1257  N4        15.1480   13.1330   68.9000 N.pl3  71  C71        -0.1070
   1258  C5        14.3690   15.1550   67.8510 C.ar   71  C71         0.0566
   1259  C6        14.0600   15.7870   66.7050 C.ar   71  C71         0.0850
   1260  OP1       10.6570   20.6920   66.5840 O.2    71  C71        -0.5172
   1261  OP2       11.6240   19.3410   68.5690 O.co2  71  C71        -0.4373
   1262  P          8.9740   15.9780   64.1530 P.3    72  U72         0.2141
   1263  C5'        9.5230   13.4060   63.8080 C.3    72  U72         0.1812
   1264  O5'        9.1870   14.4780   64.6790 O.3    72  U72        -0.3114
   1265  C4'       10.1400   12.2590   64.5920 C.3    72  U72         0.1773
   1266  O4'       11.3660   12.6980   65.2480 O.3    72  U72        -0.3307
   1267  C3'        9.2960   11.7230   65.7450 C.3    72  U72         0.1860
   1268  O3'        8.2800   10.8500   65.3100 O.3    72  U72        -0.3112
   1269  C2'       10.3390   11.0890   66.6600 C.3    72  U72         0.2309
   1270  O2'       10.8090    9.8620   66.1230 O.3    72  U72        -0.2156
   1271  C1'       11.4650   12.1040   66.5420 C.3    72  U72         0.2420
   1272  N1        11.3470   13.1630   67.5720 N.ar   72  U72        -0.2534
   1273  C2        11.7530   12.8610   68.8580 C.ar   72  U72         0.3546
   1274  O2        12.2120   11.7620   69.1730 O.2    72  U72        -0.2443
   1275  N3        11.6290   13.8900   69.7550 N.ar   72  U72        -0.1530
   1276  C4        11.1280   15.1720   69.5160 C.ar   72  U72         0.2846
   1277  O4        11.0680   16.0100   70.4440 O.2    72  U72        -0.2650
   1278  C5        10.7190   15.3990   68.1470 C.ar   72  U72         0.0814
   1279  C6        10.8470   14.4060   67.2540 C.ar   72  U72         0.0870
   1280  OP1        7.8400   16.0000   63.2070 O.2    72  U72        -0.5172
   1281  OP2        8.9650   16.7710   65.4080 O.co2  72  U72        -0.4373
   1282  P          6.9560   10.5670   66.1840 P.3    73  A73         0.2141
   1283  C5'        6.7860    8.2610   64.9020 C.3    73  A73         0.1812
   1284  O5'        6.8480    8.9700   66.1430 O.3    73  A73        -0.3114
   1285  C4'        7.1630    6.7970   65.0540 C.3    73  A73         0.1773
   1286  O4'        8.5500    6.6580   65.4700 O.3    73  A73        -0.3307
   1287  C3'        6.3730    6.0040   66.0850 C.3    73  A73         0.1860
   1288  O3'        5.1360    5.5270   65.5630 O.3    73  A73        -0.3112
   1289  C2'        7.3300    4.8770   66.4560 C.3    73  A73         0.2309
   1290  O2'        7.2950    3.8660   65.4540 O.3    73  A73        -0.2156
   1291  C1'        8.6770    5.5870   66.3900 C.3    73  A73         0.2408
   1292  N1        10.1930    4.4520   71.1950 N.ar   73  A73        -0.2040
   1293  C2         9.8710    3.6930   70.1340 C.ar   73  A73         0.2016
   1294  N3         9.4800    4.0480   68.9120 N.ar   73  A73        -0.2048
   1295  C4         9.4470    5.3880   68.8150 C.ar   73  A73         0.1692
   1296  C5         9.7540    6.3070   69.8210 C.ar   73  A73         0.1518
   1297  C6        10.1520    5.7860   71.0760 C.ar   73  A73         0.1919
   1298  N6        10.4970    6.5070   72.1650 N.pl3  73  A73        -0.1054
   1299  N7         9.5920    7.6030   69.3520 N.ar   73  A73        -0.2193
   1300  C8         9.2000    7.4400   68.0900 C.ar   73  A73         0.1816
   1301  N9         9.0850    6.1240   67.7130 N.ar   73  A73        -0.2693
   1302  OP1        5.7930   11.0930   65.4100 O.2    73  A73        -0.5172
   1303  OP2        7.1630   10.9840   67.5990 O.co2  73  A73        -0.4373
   1304  P          3.8170    5.5030   66.4740 P.3    74  A74         0.2141
   1305  C5'        4.4430    3.1540   67.4610 C.3    74  A74         0.1812
   1306  O5'        4.1970    4.5300   67.6740 O.3    74  A74        -0.3114
   1307  C4'        4.9140    2.5300   68.7490 C.3    74  A74         0.1773
   1308  O4'        6.1320    3.1760   69.1810 O.3    74  A74        -0.3307
   1309  C3'        3.9790    2.7020   69.9320 C.3    74  A74         0.1860
   1310  O3'        2.9610    1.7330   69.9200 O.3    74  A74        -0.3112
   1311  C2'        4.9080    2.5590   71.1190 C.3    74  A74         0.2309
   1312  O2'        5.2050    1.1840   71.3000 O.3    74  A74        -0.2156
   1313  C1'        6.1780    3.2170   70.5890 C.3    74  A74         0.2408
   1314  N1         7.9090    6.4230   74.2470 N.ar   74  A74        -0.2040
   1315  C2         7.7400    5.0850   74.2350 C.ar   74  A74         0.2016
   1316  N3         7.2630    4.2940   73.2670 N.ar   74  A74        -0.2048
   1317  C4         6.9350    5.0400   72.1950 C.ar   74  A74         0.1692
   1318  C5         7.0480    6.4170   72.0730 C.ar   74  A74         0.1518
   1319  C6         7.5660    7.1410   73.1620 C.ar   74  A74         0.1919
   1320  N6         7.7170    8.4820   73.1690 N.pl3  74  A74        -0.1054
   1321  N7         6.6110    6.8460   70.8320 N.ar   74  A74        -0.2193
   1322  C8         6.2630    5.7210   70.2280 C.ar   74  A74         0.1816
   1323  N9         6.4070    4.6090   71.0090 N.ar   74  A74        -0.2693
   1324  OP1        2.7040    4.8470   65.7270 O.2    74  A74        -0.5172
   1325  OP2        3.6280    6.8420   67.0440 O.co2  74  A74        -0.4373
   1326  P          1.5040    2.0770   70.4440 P.3    75  C75         0.2141
   1327  C5'        1.9300    1.1730   72.8950 C.3    75  C75         0.1812
   1328  O5'        1.2820    1.0480   71.6490 O.3    75  C75        -0.3114
   1329  C4'        1.7050   -0.0620   73.7580 C.3    75  C75         0.1773
   1330  O4'        2.6070   -0.0000   74.8920 O.3    75  C75        -0.3307
   1331  C3'        0.3230   -0.2360   74.3920 C.3    75  C75         0.1860
   1332  O3'       -0.6410   -0.8480   73.5500 O.3    75  C75        -0.3112
   1333  C2'        0.6230   -1.0620   75.6310 C.3    75  C75         0.2309
   1334  O2'        0.8080   -2.4240   75.2800 O.3    75  C75        -0.2156
   1335  C1'        1.9630   -0.4780   76.0550 C.3    75  C75         0.2420
   1336  N1         1.7820    0.6580   76.9790 N.ar   75  C75        -0.2535
   1337  C2         1.3430    0.4140   78.2870 C.ar   75  C75         0.3532
   1338  O2         1.1340   -0.7610   78.6210 O.2    75  C75        -0.2443
   1339  N3         1.1720    1.4530   79.1310 N.ar   75  C75        -0.1739
   1340  C4         1.4170    2.7000   78.6970 C.ar   75  C75         0.1759
   1341  N4         1.2470    3.7140   79.5460 N.pl3  75  C75        -0.1070
   1342  C5         1.8640    2.9670   77.3660 C.ar   75  C75         0.0566
   1343  C6         2.0290    1.9240   76.5420 C.ar   75  C75         0.0850
   1344  OP1        0.5520    1.5790   69.4330 O.2    75  C75        -0.5172
   1345  OP2        1.4510    3.4900   70.9030 O.co2  75  C75        -0.4373
   1346  P         -2.1210   -0.2330   73.4530 P.3    76  A76         0.2141
   1347  C5'       -2.8340   -2.0780   75.1960 C.3    76  A76         0.1812
   1348  O5'       -2.8610   -0.7170   74.7870 O.3    76  A76        -0.3114
   1349  C4'       -3.2010   -2.2510   76.6570 C.3    76  A76         0.1773
   1350  O4'       -2.0790   -1.8430   77.4990 O.3    76  A76        -0.3307
   1351  C3'       -4.3720   -1.4250   77.1930 C.3    76  A76         0.1860
   1352  O3'       -5.6610   -1.9380   76.8840 O.3    76  A76        -0.3112
   1353  C2'       -4.0770   -1.3910   78.6800 C.3    76  A76         0.2309
   1354  O2'       -4.3590   -2.6530   79.2650 O.3    76  A76        -0.2156
   1355  C1'       -2.5660   -1.1840   78.6540 C.3    76  A76         0.2408
   1356  N1        -2.5200    3.1970   81.2370 N.ar   76  A76        -0.2040
   1357  C2        -2.7900    1.9420   81.5840 C.ar   76  A76         0.2016
   1358  N3        -2.7690    0.8550   80.8200 N.ar   76  A76        -0.2048
   1359  C4        -2.4170    1.1500   79.5590 C.ar   76  A76         0.1692
   1360  C5        -2.0950    2.3910   79.0520 C.ar   76  A76         0.1518
   1361  C6        -2.1550    3.4730   79.9640 C.ar   76  A76         0.1919
   1362  N6        -1.8850    4.7580   79.6630 N.pl3  76  A76        -0.1054
   1363  N7        -1.7800    2.3010   77.7050 N.ar   76  A76        -0.2193
   1364  C8        -1.9150    1.0070   77.4410 C.ar   76  A76         0.1816
   1365  N9        -2.2790    0.2570   78.5350 N.ar   76  A76        -0.2693
   1366  OP1       -2.7880   -0.7900   72.2320 O.2    76  A76        -0.5172
   1367  OP2       -1.9370    1.2410   73.5320 O.co2  76  A76        -0.4373
   1368  P         -6.8530   -0.9460   76.4270 P.3    77  C77         0.2141
   1369  C5'       -7.7740   -1.0580   78.8840 C.3    77  C77         0.1812
   1370  O5'       -7.3550   -0.2820   77.7780 O.3    77  C77        -0.3114
   1371  C4'       -7.7700   -0.2250   80.1430 C.3    77  C77         0.1773
   1372  O4'       -6.4270    0.2990   80.3840 O.3    77  C77        -0.3307
   1373  C3'       -8.6330    1.0290   80.1260 C.3    77  C77         0.1860
   1374  O3'      -10.0240    0.7830   80.3050 O.3    77  C77        -0.3112
   1375  C2'       -8.0050    1.8460   81.2420 C.3    77  C77         0.2309
   1376  O2'       -8.3830    1.3080   82.4920 O.3    77  C77        -0.2156
   1377  C1'       -6.5160    1.5630   81.0130 C.3    77  C77         0.2420
   1378  N1        -5.9410    2.5940   80.1180 N.ar   77  C77        -0.2535
   1379  C2        -5.6610    3.8640   80.6280 C.ar   77  C77         0.3532
   1380  O2        -5.8230    4.1240   81.8270 O.2    77  C77        -0.2443
   1381  N3        -5.1870    4.8190   79.8040 N.ar   77  C77        -0.1739
   1382  C4        -4.9990    4.5650   78.5290 C.ar   77  C77         0.1759
   1383  N4        -4.5330    5.5700   77.7810 N.pl3  77  C77        -0.1070
   1384  C5        -5.2920    3.2910   77.9680 C.ar   77  C77         0.0566
   1385  C6        -5.7710    2.3510   78.7880 C.ar   77  C77         0.0850
   1386  OP1       -7.9300   -1.8000   75.8510 O.3    77  C77        -0.4373
   1387  OP2       -6.3290    0.1990   75.6390 O.co2  77  C77        -0.5172
   1388  P        -11.1300    1.7660   79.6540 P.3    78  G78         0.2141
   1389  C5'      -10.7620    3.7920   81.2990 C.3    78  G78         0.1812
   1390  O5'      -10.6410    3.2400   79.9970 O.3    78  G78        -0.3114
   1391  C4'      -10.2080    5.1990   81.3400 C.3    78  G78         0.1773
   1392  O4'       -8.8500    5.2080   80.8220 O.3    78  G78        -0.3307
   1393  C3'      -10.9330    6.2470   80.4970 C.3    78  G78         0.1860
   1394  O3'      -12.0870    6.7670   81.1400 O.3    78  G78        -0.3112
   1395  C2'       -9.8510    7.2990   80.2600 C.3    78  G78         0.2309
   1396  O2'       -9.7300    8.1620   81.3780 O.3    78  G78        -0.2156
   1397  C1'       -8.5940    6.4330   80.1520 C.3    78  G78         0.2408
   1398  N1        -7.0620    8.2200   75.6020 N.ar   78  G78        -0.1709
   1399  C2        -7.2220    8.8920   76.7760 C.ar   78  G78         0.2606
   1400  N2        -6.9410   10.1950   76.7080 N.pl3  78  G78        -0.0859
   1401  N3        -7.6210    8.3340   77.9090 N.ar   78  G78        -0.1918
   1402  C4        -7.8650    7.0160   77.7710 C.ar   78  G78         0.1723
   1403  C5        -7.7450    6.2550   76.6390 C.ar   78  G78         0.1748
   1404  C6        -7.3090    6.8700   75.4390 C.ar   78  G78         0.3023
   1405  O6        -7.1320    6.3500   74.3270 O.2    78  G78        -0.2633
   1406  N7        -8.0890    4.9330   76.8760 N.ar   78  G78        -0.2173
   1407  C8        -8.4020    4.9120   78.1440 C.ar   78  G78         0.1817
   1408  N9        -8.2820    6.1370   78.7440 N.ar   78  G78        -0.2693
   1409  OP1      -12.4140    1.5250   80.3530 O.3    78  G78        -0.4373
   1410  OP2      -11.0940    1.6170   78.1760 O.co2  78  G78        -0.5172
   1411  P        -13.3380    7.3410   80.2910 P.3    79  U79         0.2141
   1412  C5'      -12.2960    9.7300   80.3880 C.3    79  U79         0.1812
   1413  O5'      -12.7650    8.6480   79.5920 O.3    79  U79        -0.3114
   1414  C4'      -11.8490   10.8860   79.5300 C.3    79  U79         0.1773
   1415  O4'      -10.6070   10.5440   78.8580 O.3    79  U79        -0.3307
   1416  C3'      -12.7870   11.2690   78.3940 C.3    79  U79         0.1860
   1417  O3'      -13.8570   12.1000   78.8140 O.3    79  U79        -0.3112
   1418  C2'      -11.8530   11.9440   77.4020 C.3    79  U79         0.2309
   1419  O2'      -11.5820   13.2720   77.8140 O.3    79  U79        -0.2156
   1420  C1'      -10.5810   11.1150   77.5690 C.3    79  U79         0.2420
   1421  N1       -10.5010   10.0250   76.5720 N.ar   79  U79        -0.2534
   1422  C2       -10.0830   10.3700   75.3050 C.ar   79  U79         0.3546
   1423  O2        -9.7970   11.5270   75.0300 O.2    79  U79        -0.2443
   1424  N3       -10.0250    9.3310   74.3960 N.ar   79  U79        -0.1530
   1425  C4       -10.3400    8.0100   74.6580 C.ar   79  U79         0.2846
   1426  O4       -10.2420    7.1620   73.7780 O.2    79  U79        -0.2650
   1427  C5       -10.7620    7.7450   76.0020 C.ar   79  U79         0.0814
   1428  C6       -10.8320    8.7370   76.8990 C.ar   79  U79         0.0870
   1429  OP1      -14.3190    7.8340   81.2910 O.3    79  U79        -0.4373
   1430  OP2      -13.7610    6.3370   79.2840 O.co2  79  U79        -0.5172
   1431  P        -15.1520   12.3000   77.8760 P.3    80  G80         0.2141
   1432  C5'      -14.3110   14.4500   76.6570 C.3    80  G80         0.1812
   1433  O5'      -14.5890   13.0620   76.6020 O.3    80  G80        -0.3114
   1434  C4'      -13.9320   14.9720   75.2970 C.3    80  G80         0.1773
   1435  O4'      -12.7730   14.2440   74.8160 O.3    80  G80        -0.3307
   1436  C3'      -14.9710   14.7800   74.2020 C.3    80  G80         0.1860
   1437  O3'      -15.9740   15.7820   74.2110 O.3    80  G80        -0.3112
   1438  C2'      -14.1310   14.7690   72.9320 C.3    80  G80         0.2309
   1439  O2'      -13.8150   16.0960   72.5440 O.3    80  G80        -0.2156
   1440  C1'      -12.8560   14.0720   73.4140 C.3    80  G80         0.2408
   1441  N1       -12.2850   10.5790   69.7960 N.ar   80  G80        -0.1709
   1442  C2       -12.1940   11.9460   69.7350 C.ar   80  G80         0.2606
   1443  N2       -11.9150   12.4810   68.5400 N.pl3  80  G80        -0.0859
   1444  N3       -12.3670   12.7470   70.7620 N.ar   80  G80        -0.1918
   1445  C4       -12.6420   12.0690   71.8890 C.ar   80  G80         0.1723
   1446  C5       -12.7560   10.7150   72.0720 C.ar   80  G80         0.1748
   1447  C6       -12.5640    9.8660   70.9590 C.ar   80  G80         0.3023
   1448  O6       -12.6230    8.6350   70.9260 O.2    80  G80        -0.2633
   1449  N7       -13.0510   10.4200   73.3930 N.ar   80  G80        -0.2173
   1450  C8       -13.1090   11.5910   73.9720 C.ar   80  G80         0.1817
   1451  N9       -12.8640   12.6270   73.1130 N.ar   80  G80        -0.2693
   1452  OP1      -16.0490   13.2160   78.6290 O.3    80  G80        -0.4373
   1453  OP2      -15.6620   10.9840   77.4230 O.co2  80  G80        -0.5172
   1454  P        -17.4450   15.4650   73.6440 P.3    81  U81         0.2141
   1455  C5'      -16.6750   16.6910   71.4530 C.3    81  U81         0.1812
   1456  O5'      -17.2680   15.5580   72.0660 O.3    81  U81        -0.3114
   1457  C4'      -16.5450   16.4830   69.9650 C.3    81  U81         0.1773
   1458  O4'      -15.3840   15.6530   69.6910 O.3    81  U81        -0.3307
   1459  C3'      -17.6920   15.7310   69.3090 C.3    81  U81         0.1860
   1460  O3'      -18.8350   16.5300   69.0520 O.3    81  U81        -0.3112
   1461  C2'      -17.0350   15.1490   68.0670 C.3    81  U81         0.2309
   1462  O2'      -16.8530   16.1640   67.0880 O.3    81  U81        -0.2156
   1463  C1'      -15.6670   14.7620   68.6280 C.3    81  U81         0.2420
   1464  N1       -15.6650   13.3880   69.1850 N.ar   81  U81        -0.2534
   1465  C2       -15.5490   12.3010   68.3400 C.ar   81  U81         0.3546
   1466  O2       -15.4410   12.4010   67.1320 O.2    81  U81        -0.2443
   1467  N3       -15.5580   11.0770   68.9630 N.ar   81  U81        -0.1530
   1468  C4       -15.6700   10.8300   70.3160 C.ar   81  U81         0.2846
   1469  O4       -15.6630    9.6700   70.7300 O.2    81  U81        -0.2650
   1470  C5       -15.7920   12.0060   71.1220 C.ar   81  U81         0.0814
   1471  C6       -15.7890   13.2100   70.5430 C.ar   81  U81         0.0870
   1472  OP1      -18.3520   16.5320   74.1390 O.3    81  U81        -0.4373
   1473  OP2      -17.7950   14.0470   73.9280 O.co2  81  U81        -0.5172
   1474  P        -20.3020   15.8830   69.2110 P.3    82  C82         0.2141
   1475  C5'      -20.2600   15.3590   66.6430 C.3    82  C82         0.1812
   1476  O5'      -20.4100   14.8820   67.9730 O.3    82  C82        -0.3114
   1477  C4'      -19.9430   14.2590   65.6470 C.3    82  C82         0.1773
   1478  O4'      -18.7280   13.5540   66.0110 O.3    82  C82        -0.3307
   1479  C3'      -20.9680   13.1490   65.4820 C.3    82  C82         0.1860
   1480  O3'      -22.0720   13.5350   64.6860 O.3    82  C82        -0.3112
   1481  C2'      -20.1410   12.0260   64.8670 C.3    82  C82         0.2309
   1482  O2'      -19.9300   12.2600   63.4810 O.3    82  C82        -0.2156
   1483  C1'      -18.8100   12.2050   65.5930 C.3    82  C82         0.2420
   1484  N1       -18.7200   11.3430   66.7890 N.ar   82  C82        -0.2535
   1485  C2       -18.3030   10.0170   66.6360 C.ar   82  C82         0.3532
   1486  O2       -18.0170    9.6040   65.4980 O.2    82  C82        -0.2443
   1487  N3       -18.2130    9.2210   67.7240 N.ar   82  C82        -0.1739
   1488  C4       -18.5320    9.7110   68.9210 C.ar   82  C82         0.1759
   1489  N4       -18.4340    8.9020   69.9800 N.pl3  82  C82        -0.1070
   1490  C5       -18.9690   11.0580   69.1000 C.ar   82  C82         0.0566
   1491  C6       -19.0530   11.8390   68.0160 C.ar   82  C82         0.0850
   1492  OP1      -21.2990   16.9710   69.0600 O.2    82  C82        -0.5172
   1493  OP2      -20.3250   15.1030   70.4810 O.co2  82  C82        -0.4373
   1494  P        -23.5490   13.0270   65.0540 P.3    83  C83         0.2141
   1495  C5'      -23.2500   10.9830   63.4570 C.3    83  C83         0.1813
   1496  O5'      -23.5000   11.4590   64.7700 O.3    83  C83        -0.3114
   1497  C4'      -23.2820    9.4740   63.3680 C.3    83  C83         0.1801
   1498  O4'      -22.0960    8.9030   63.9820 O.3    83  C83        -0.3306
   1499  C3'      -24.4230    8.7430   64.0610 C.3    83  C83         0.2161
   1500  O3'      -25.6620    8.8220   63.3630 O.3    83  C83        -0.2175
   1501  C2'      -23.8670    7.3240   64.1690 C.3    83  C83         0.2338
   1502  O2'      -23.9390    6.6620   62.9130 O.3    83  C83        -0.2155
   1503  C1'      -22.3880    7.6010   64.4580 C.3    83  C83         0.2421
   1504  N1       -22.0630    7.5150   65.9020 N.ar   83  C83        -0.2535
   1505  C2       -21.6660    6.2770   66.4310 C.ar   83  C83         0.3532
   1506  O2       -21.5900    5.2910   65.6830 O.2    83  C83        -0.2443
   1507  N3       -21.3710    6.1690   67.7490 N.ar   83  C83        -0.1739
   1508  C4       -21.4540    7.2420   68.5290 C.ar   83  C83         0.1759
   1509  N4       -21.1530    7.1130   69.8200 N.pl3  83  C83        -0.1070
   1510  C5       -21.8580    8.5090   68.0200 C.ar   83  C83         0.0566
   1511  C6       -22.1480    8.6070   66.7170 C.ar   83  C83         0.0850
   1512  OP1      -24.4360   13.6670   64.0430 O.2    83  C83        -0.5172
   1513  OP2      -23.8110   13.2340   66.5020 O.co2  83  C83        -0.4373
@<TRIPOS>BOND
     1   875   874    2
     2   873   874   ar
     3   873   871   ar
     4   986   968    2
     5   872   871    2
     6   966   946    2
     7   874   876   ar
     8   871   870   ar
     9   947   949    1
    10   947   948    1
    11   952   968    1
    12   952   951    1
    13    87    69    2
    14   931   930    1
    15    55    54    1
    16   949   951    1
    17   949   950    1
    18   968   987    1
    19   968   970    1
    20   929   946    1
    21   929   928    1
    22    70    72    1
    23    70    71    1
    24    53    69    1
    25    53    52    1
    26   946   948    1
    27   946   967    1
    28   969   970    1
    29   969   971    1
    30   954   953    1
    31   951   953    1
    32    50    48    1
    33    50    52    1
    34    50    51    1
    35   876   877   ar
    36   870   877   ar
    37   870   869    1
    38    72    73    1
    39    72    74    1
    40    69    71    1
    41    69    88    1
    42   930   928    1
    43   930   932    1
    44    48    49    1
    45   950   955    1
    46  1250  1249    1
    47    52    54    1
    48   928   926    1
    49    54    56    1
    50   926   927    1
    51   926   924    1
    52    51    56    1
    53   953   955    1
    54    75    74    1
    55    75    89    1
    56   869   867    1
    57   869   864    1
    58   971   973    1
    59   971   972    1
    60   944   923    2
    61    73    78    1
    62   109    89    2
    63  1008   988    2
    64   908   907    1
    65  1502  1501    1
    66    56    66    1
    67    77    76    1
    68   925   924    1
    69   925   923    1
    70   974   988    1
    71   974   973    1
    72  1009   988    1
    73   868   867    1
    74   955   965    1
    75   927   932    1
    76    74    76    1
    77    32    31    1
    78   932   943    1
    79  1280  1262    2
    80   867   865    1
    81    67    47    2
    82  1500  1499    1
    83  1497  1495    1
    84  1497  1498    1
    85  1497  1499    1
    86   512   511    2
    87  1248  1247    1
    88  1248  1262    1
    89   988   990    1
    90  1495  1496    1
    91  1482  1481    1
    92   510   511   ar
    93   510   508   ar
    94    89   110    1
    95    89    91    1
    96   973   975    1
    97    49    47    1
    98   972   977    1
    99   923   906    1
   100   923   945    1
   101  1249  1247    1
   102  1249  1251    1
   103   509   508    2
   104   864   863    1
   105   906   905    1
   106    76    78    1
   107  1263  1265    1
   108  1263  1264    1
   109   511   513   ar
   110    78    79    1
   111  1245  1247    1
   112  1245  1246    1
   113  1245  1243    1
   114  1498  1503    1
   115   508   507   ar
   116  1512  1494    2
   117  1499  1501    1
   118   907   905    1
   119   907   909    1
   120   516   497    2
   121    30    47    1
   122    30    29    1
   123  1262  1264    1
   124  1262  1281    1
   125  1501  1503    1
   126    47    68    1
   127  1251  1246    1
   128  1251  1252    1
   129   912   911    1
   130    90    91    1
   131    90    92    1
   132   936   937   ar
   133   936   934   ar
   134  1254  1253    2
   135    66    60   ar
   136    66    65   ar
   137   935   934    1
   138  1503  1504    1
   139   965   964   ar
   140   965   959   ar
   141    31    29    1
   142    31    33    1
   143   501   500    1
   144   501   506    1
   145   943   937   ar
   146   943   942   ar
   147   976   975    1
   148  1265  1266    1
   149  1265  1267    1
   150   513   514   ar
   151    59    60   ar
   152    59    58   ar
   153   905   903    1
   154  1480  1494    1
   155  1480  1479    1
   156   865   863    1
   157   865   866    1
   158  1243  1244    1
   159  1496  1494    1
   160   507   514   ar
   161   507   506    1
   162   975   977    1
   163  1481  1479    1
   164  1481  1483    1
   165   964   963   ar
   166  1283  1285    1
   167  1283  1284    1
   168   977   978    1
   169   863   861    1
   170   990   989    1
   171    29    27    1
   172   937   938   ar
   173   913   911   ar
   174   913   914   ar
   175   934   933   ar
   176  1494  1513    1
   177  1285  1286    1
   178  1285  1287    1
   179   498   500    1
   180   498   499    1
   181   898   880    2
   182    36    35    1
   183   909   904    1
   184   909   920    1
   185    79    86   ar
   186    79    80   ar
   187    60    61   ar
   188   903   904    1
   189   903   901    1
   190  1230  1229    1
   191    86    85   ar
   192  1266  1271    1
   193   911   910   ar
   194   500   502    1
   195  1268  1267    1
   196  1268  1282    1
   197   506   504    1
   198    65    64   ar
   199    27    28    1
   200    27    25    1
   201    33    28    1
   202    33    44    1
   203  1302  1282    2
   204   497   515    1
   205   497   499    1
   206   497   481    1
   207  1290  1289    1
   208  1253  1252   ar
   209  1253  1255   ar
   210  1286  1291    1
   211   985   978   ar
   212   985   984   ar
   213   233   232    2
   214    92    93    1
   215    92    94    1
   216  1479  1477    1
   217  1486  1485    2
   218  1252  1259   ar
   219  1288  1287    1
   220  1288  1304    1
   221   866   880    1
   222   959   958   ar
   223   959   960   ar
   224  1483  1478    1
   225  1483  1484    1
   226   989   991    1
   227    37    35   ar
   228    37    38   ar
   229   942   941   ar
   230  1477  1478    1
   231  1477  1475    1
   232   958   957   ar
   233    58    57   ar
   234  1506  1505    2
   235  1324  1304    2
   236  1267  1269    1
   237   978   979   ar
   238  1504  1505   ar
   239  1504  1511   ar
   240    35    34   ar
   241   880   899    1
   242   880   882    1
   243  1234  1233    2
   244    93    98    1
   245  1287  1289    1
   246    81    80    2
   247  1270  1269    1
   248   862   861    1
   249   862   860    1
   250  1244  1242    1
   251   914   920   ar
   252   914   915   ar
   253  1284  1282    1
   254   963   960   ar
   255  1282  1303    1
   256   920   919   ar
   257    80    82   ar
   258   901   902    1
   259  1229  1231    1
   260  1229  1227    1
   261   984   982   ar
   262    25    26    1
   263   938   941   ar
   264   938   939   ar
   265  1291  1289    1
   266  1291  1301    1
   267    85    83   ar
   268   933   939   ar
   269  1505  1507   ar
   270    61    64   ar
   271    61    62   ar
   272    95    94    1
   273    95   111    1
   274  1304  1325    1
   275  1304  1306    1
   276   910   916   ar
   277   481   480    1
   278  1271  1269    1
   279  1271  1272    1
   280  1260  1242    2
   281    44    38   ar
   282    44    43   ar
   283  1255  1256   ar
   284   960   961   ar
   285  1485  1484   ar
   286  1485  1487   ar
   287  1475  1476    1
   288    38    39   ar
   289   232   226   ar
   290   232   231   ar
   291    94    96    1
   292    13    12    1
   293   504   502    1
   294   504   505    1
   295  1259  1258   ar
   296  1511  1510   ar
   297   502   503    1
   298  1484  1491   ar
   299   129   111    2
   300   957   956   ar
   301   503   517    1
   302   878   860    2
   303  1228  1242    1
   304  1228  1227    1
   305    57    62   ar
   306   991   992    1
   307   991   993    1
   308  1231  1232    1
   309  1231  1226    1
   310   902   900    1
   311   879   860    1
   312  1462  1461    1
   313   539   517    2
   314  1466  1465    2
   315  1242  1261    1
   316   226   227   ar
   317   939   940    2
   318   860   843    1
   319   130   111    1
   320   979   980    2
   321   979   981   ar
   322  1233  1232   ar
   323  1233  1235   ar
   324  1279  1272   ar
   325  1279  1278   ar
   326    34    40   ar
   327   111   113    1
   328   992   997    1
   329   915   916   ar
   330   915   918   ar
   331    62    63    1
   332  1227  1225    1
   333    82    83   ar
   334   483   482    1
   335    98    96    1
   336    98   108    1
   337  1305  1306    1
   338  1305  1307    1
   339   919   918   ar
   340    83    84    1
   341   107   108   ar
   342   107   106   ar
   343  1272  1273   ar
   344   234   231   ar
   345   234   235   ar
   346   882   881    1
   347    26    24    1
   348   916   917    2
   349   231   230   ar
   350  1067  1066    2
   351    97    96    1
   352  1301  1300   ar
   353  1301  1295   ar
   354  1487  1488   ar
   355   517   538    1
   356   517   519    1
   357  1507  1508   ar
   358   982   981   ar
   359   982   983    1
   360  1256  1258   ar
   361  1256  1257    1
   362   480   482    1
   363   480   478    1
   364    43    42   ar
   365  1225  1226    1
   366  1225  1223    1
   367  1232  1239   ar
   368   961   956   ar
   369   961   962    1
   370    39    40   ar
   371    39    42   ar
   372    12    14   ar
   373    12    11   ar
   374  1476  1474    1
   375  1235  1236   ar
   376  1491  1490   ar
   377  1510  1508   ar
   378  1029  1010    2
   379  1461  1463    1
   380  1461  1459    1
   381  1300  1299   ar
   382   108   102   ar
   383     9     8    1
   384  1278  1276   ar
   385   881   883    1
   386   993   994    1
   387   993   995    1
   388   921   900    2
   389  1006  1005   ar
   390  1006  1007   ar
   391   994  1010    1
   392  1060  1066   ar
   393  1060  1061   ar
   394  1465  1467   ar
   395  1465  1464   ar
   396    40    41    2
   397    45    24    2
   398    14    15   ar
   399   106   103   ar
   400   482   484    1
   401   900   886    1
   402   900   922    1
   403   227   228    1
   404   227   229   ar
   405  1508  1509    1
   406  1443  1442    1
   407   843   842    1
   408  1066  1065   ar
   409  1463  1464    1
   410  1463  1458    1
   411   997  1007    1
   412   997   995    1
   413  1307  1308    1
   414  1307  1309    1
   415    11    17   ar
   416   235   236   ar
   417  1062  1061    1
   418   478   479    1
   419   478   476    1
   420  1295  1294   ar
   421  1295  1296   ar
   422  1005  1002   ar
   423   113   112    1
   424  1010  1028    1
   425  1010  1012    1
   426    24     7    1
   427    24    46    1
   428  1273  1274    2
   429  1273  1275   ar
   430  1294  1293   ar
   431  1488  1490   ar
   432  1488  1489    1
   433   230   229   ar
   434   230   236   ar
   435     8    10    1
   436     8     6    1
   437  1467  1468   ar
   438  1460  1474    1
   439  1460  1459    1
   440  1492  1474    2
   441   883   885    1
   442   883   884    1
   443  1007  1001   ar
   444   885   886    1
   445   885   887    1
   446   484   479    1
   447   484   494    1
   448  1308  1313    1
   449  1464  1471   ar
   450   519   518    1
   451  1474  1493    1
   452  1223  1224    1
   453  1239  1238   ar
   454  1061  1063   ar
   455   112   114    1
   456  1214  1213    2
   457     7     6    1
   458  1459  1457    1
   459  1236  1238   ar
   460  1236  1237    1
   461   995   996    1
   462  1299  1296   ar
   463  1344  1326    2
   464   102   103   ar
   465   102   101   ar
   466   487   486   ar
   467   487   488   ar
   468  1276  1275   ar
   469  1276  1277    2
   470   103   104   ar
   471  1025  1024    1
   472   236   225    1
   473    15    21   ar
   474    15    16   ar
   475  1458  1457    1
   476   842   840    1
   477   842   844    1
   478  1442  1441   ar
   479  1442  1444   ar
   480   476   477    1
   481  1441  1447   ar
   482  1296  1297   ar
   483  1026  1024   ar
   484  1026  1027   ar
   485  1310  1309    1
   486  1310  1326    1
   487    10    21    1
   488    10     5    1
   489     6     4    1
   490  1309  1311    1
   491   486   485   ar
   492  1065  1068   ar
   493  1065  1064   ar
   494  1457  1455    1
   495   535   536   ar
   496   535   532   ar
   497  1191  1190    1
   498   840   838    1
   499   840   841    1
   500   518   520    1
   501  1293  1292   ar
   502    17    16   ar
   503    17    18    2
   504  1002  1001   ar
   505  1002  1003   ar
   506  1322  1321   ar
   507  1322  1323   ar
   508  1224  1222    1
   509  1012  1011    1
   510   494   488   ar
   511   494   493   ar
   512  1468  1469    2
   513  1468  1470   ar
   514  1001  1000   ar
   515  1210  1209    1
   516  1213  1215   ar
   517  1213  1212   ar
   518   536   537   ar
   519   477   475    1
   520  1215  1216   ar
   521   557   556    2
   522   101   100   ar
   523    21    20   ar
   524   488   489   ar
   525  1024  1023   ar
   526  1326  1345    1
   527  1326  1328    1
   528   887   888    1
   529   887   889    1
   530   884   889    1
   531   534   533    2
   532  1063  1064   ar
   533  1471  1470   ar
   534    16    19   ar
   535  1313  1323    1
   536  1313  1311    1
   537  1068  1069   ar
   538   838   839    1
   539   845   844    1
   540  1189  1190   ar
   541  1189  1195   ar
   542   114   115    1
   543   114   116    1
   544  1444  1445   ar
   545  1027  1020   ar
   546  1064  1070   ar
   547  1321  1318   ar
   548  1045  1044    1
   549   127   128   ar
   550   127   125   ar
   551   104   105    1
   552   104    99   ar
   553   495   475    2
   554   115   120    1
   555  1209  1211    1
   556  1209  1207    1
   557  1088  1087    2
   558  1448  1447    2
   559     4     5    1
   560     4     2    1
   561   128   121   ar
   562   844   846    1
   563  1447  1446   ar
   564  1323  1317   ar
   565   841   846    1
   566   562   540    2
   567  1190  1192   ar
   568  1297  1292   ar
   569  1297  1298    1
   570   225   223    1
   571   225   220    1
   572   532   533   ar
   573   532   531   ar
   574  1196  1195    2
   575  1311  1312    1
   576   485   490   ar
   577   846   857    1
   578  1004  1003    1
   579   224   223    1
   580  1003   998   ar
   581   889   890    1
   582   533   527   ar
   583  1011  1013    1
   584   858   837    2
   585   223   221    1
   586   475   496    1
   587   475   461    1
   588  1211  1212    1
   589  1211  1206    1
   590  1217  1216    2
   591  1455  1456    1
   592  1000   999   ar
   593  1216  1218   ar
   594   520   521    1
   595   520   522    1
   596   150   131    2
   597  1212  1219   ar
   598   100    99   ar
   599  1195  1194   ar
   600   493   492   ar
   601   521   526    1
   602   185   184   ar
   603   185   186   ar
   604   556   555   ar
   605   556   550   ar
   606   839   837    1
   607   184   189   ar
   608   558   555   ar
   609   558   559   ar
   610  1328  1327    1
   611   537   531   ar
   612   537   526    1
   613    20    19   ar
   614   220   219    1
   615  1023  1021   ar
   616   489   490   ar
   617   489   492   ar
   618   116   117    1
   619   116   118    1
   620  1222  1240    2
   621  1222  1208    1
   622  1222  1241    1
   623  1069  1070   ar
   624  1445  1446   ar
   625  1445  1451   ar
   626   849   848    1
   627   126   125    1
   628  1070  1059    1
   629   125   124   ar
   630   168   167    2
   631   522   523    1
   632   522   524    1
   633   850   848   ar
   634   850   851   ar
   635  1456  1454    1
   636  1446  1449   ar
   637  1318  1317   ar
   638  1318  1319   ar
   639   117   131    1
   640  1044  1046   ar
   641  1044  1043   ar
   642  1020  1021   ar
   643  1020  1019    1
   644   121   120    1
   645   121   122   ar
   646  1087  1089   ar
   647  1087  1086   ar
   648   490   491    1
   649  1208  1207    1
   650  1049  1030    2
   651   531   530   ar
   652  1317  1316   ar
   653   555   554   ar
   654   120   118    1
   655  1207  1205    1
   656  1366  1346    2
   657     2     3    1
   658  1192  1193   ar
   659   218   217    1
   660   218   216    1
   661   837   823    1
   662   837   859    1
   663  1046  1047   ar
   664  1014  1013    1
   665  1014  1019    1
   666   146   145    2
   667   540   523    1
   668   540   561    1
   669   540   542    1
   670   526   524    1
   671   998   999   ar
   672   217   219    1
   673   131   149    1
   674   131   133    1
   675   550   551   ar
   676   186   187   ar
   677  1439  1438    1
   678   857   851   ar
   679   857   856   ar
   680   890   897   ar
   681   890   891   ar
   682  1013  1015    1
   683  1021  1022    2
   684   527   528   ar
   685   848   847   ar
   686   237   216    2
   687   559   560   ar
   688   897   896   ar
   689   461   460    1
   690   238   216    1
   691  1206  1205    1
   692  1219  1218   ar
   693   219   221    1
   694   189   190    1
   695   189   188   ar
   696   221   222    1
   697  1089  1090   ar
   698  1086  1084   ar
   699  1327  1329    1
   700   851   852   ar
   701  1194  1193   ar
   702  1194  1197   ar
   703  1438  1440    1
   704  1438  1436    1
   705   118   119    1
   706   147   145   ar
   707   147   148   ar
   708   216   202    1
   709  1015  1016    1
   710  1015  1017    1
   711  1019  1017    1
   712  1043  1041   ar
   713   524   525    1
   714  1451  1440    1
   715  1451  1450   ar
   716  1205  1203    1
   717     3     1    1
   718  1319  1320    1
   719  1319  1314   ar
   720  1193  1199   ar
   721   825   824    1
   722   124   122   ar
   723  1058  1057    1
   724   823   822    1
   725   167   161   ar
   726   167   166   ar
   727   145   144   ar
   728  1316  1315   ar
   729   122   123    2
   730  1059  1057    1
   731  1059  1054    1
   732  1449  1450   ar
   733   255   254    1
   734  1440  1435    1
   735   542   541    1
   736   530   528   ar
   737  1346  1367    1
   738  1346  1332    1
   739  1346  1348    1
   740  1030  1016    1
   741  1030  1048    1
   742  1030  1032    1
   743  1332  1331    1
   744   554   560   ar
   745   554   553   ar
   746   528   529    1
   747   161   162   ar
   748  1454  1473    2
   749  1454  1472    1
   750  1454  1437    1
   751  1047  1040   ar
   752   187   188   ar
   753   187   193   ar
   754   892   891    2
   755   891   893   ar
   756   222   239    1
   757   856   855   ar
   758  1329  1331    1
   759  1329  1330    1
   760  1174  1173    2
   761  1057  1055    1
   762   460   458    1
   763   460   462    1
   764  1426  1425    2
   765   896   894   ar
   766   458   456    1
   767   458   459    1
   768   188   191   ar
   769   560   549    1
   770  1017  1018    1
   771   551   553   ar
   772   551   552    1
   773   133   132    1
   774   847   853   ar
   775   148   141   ar
   776  1197  1198   ar
   777   581   563    2
   778   260   239    2
   779   456   457    1
   780  1090  1083   ar
   781   822   824    1
   782   822   820    1
   783  1436  1437    1
   784  1436  1434    1
   785  1315  1314   ar
   786  1084  1085    2
   787  1084  1083   ar
   788   852   855   ar
   789   852   853   ar
   790  1054  1053    1
   791  1405  1404    2
   792   166   169   ar
   793   166   165   ar
   794  1041  1040   ar
   795  1041  1042    2
   796   256   253   ar
   797   256   257   ar
   798   824   826    1
   799   169   170   ar
   800  1331  1333    1
   801  1424  1425   ar
   802  1424  1422   ar
   803  1199  1198   ar
   804  1199  1188    1
   805   144   142   ar
   806   259   239    1
   807  1032  1031    1
   808   239   241    1
   809  1203  1204    1
   810   202   201    1
   811     1    22    1
   812     1    23    1
   813   829   828    2
   814  1425  1427   ar
   815  1040  1039    1
   816   254   253   ar
   817   254   249   ar
   818  1348  1347    1
   819  1172  1173   ar
   820  1172  1170   ar
   821  1435  1434    1
   822   541   543    1
   823  1173  1175   ar
   824   215   196    2
   825   193   183    1
   826   193   192   ar
   827   853   854    2
   828  1083  1082    1
   829  1330  1335    1
   830   459   464    1
   831   893   894   ar
   832   162   163    1
   833   162   164   ar
   834   564   565    1
   835   564   566    1
   836  1204  1202    1
   837   441   440    1
   838   182   181    1
   839  1423  1422    2
   840   132   134    1
   841   894   895    2
   842   463   462    1
   843   183   178    1
   844   183   181    1
   845   253   252   ar
   846   544   549    1
   847   544   543    1
   848   462   464    1
   849   191   192   ar
   850   603   583    2
   851  1186  1187    1
   852  1186  1188    1
   853  1186  1184    1
   854  1347  1349    1
   855   549   547    1
   856   208   207    2
   857  1188  1183    1
   858   473   455    2
   859   826   827    1
   860   826   821    1
   861  1334  1333    1
   862   141   142   ar
   863   141   140    1
   864  1055  1053    1
   865  1055  1056    1
   866   257   258   ar
   867  1434  1432    1
   868  1422  1421   ar
   869   201   199    1
   870   201   203    1
   871   545   543    1
   872   545   547    1
   873   545   546    1
   874   809   808    2
   875   464   465    1
   876  1404  1398   ar
   877  1404  1403   ar
   878   457   455    1
   879  1109  1108    1
   880  1053  1051    1
   881   180   196    1
   882   180   179    1
   883   820   821    1
   884   820   818    1
   885   197   199    1
   886   197   198    1
   887   563   565    1
   888   563   546    1
   889   563   582    1
   890   142   143    2
   891  1398  1399   ar
   892   165   164   ar
   893   165   171   ar
   894  1333  1335    1
   895  1387  1368    2
   896   249   250   ar
   897   828   827   ar
   898   828   830   ar
   899   170   171   ar
   900  1056  1073    1
   901   569   583    1
   902   569   568    1
   903   135   134    1
   904   135   140    1
   905   547   548    1
   906   566   568    1
   907   566   567    1
   908  1171  1170    2
   909   178   177    1
   910  1386  1368    1
   911   181   179    1
   912  1170  1169   ar
   913  1031  1033    1
   914  1427  1428   ar
   915   196   198    1
   916   196   214    1
   917  1092  1073    2
   918  1072  1050    2
   919  1335  1336    1
   920  1051  1052    1
   921  1039  1034    1
   922  1039  1037    1
   923   241   240    1
   924   827   834   ar
   925   173   151    2
   926   439   455    1
   927   439   438    1
   928  1034  1033    1
   929  1175  1176   ar
   930   455   474    1
   931   134   136    1
   932  1052  1050    1
   933   199   200    1
   934  1103  1108   ar
   935  1103  1104   ar
   936   583   604    1
   937   583   585    1
   938   440   438    1
   939   440   442    1
   940   805   804    1
   941   203   204    1
   942   203   205    1
   943  1082  1080    1
   944  1082  1077    1
   945   140   138    1
   946   207   209   ar
   947   207   206   ar
   948  1368  1352    1
   949  1368  1370    1
   950   830   831   ar
   951   171   160    1
   952  1184  1185    1
   953  1184  1182    1
   954   252   258   ar
   955   252   251   ar
   956   818   819    1
   957  1081  1080    1
   958   179   177    1
   959  1202  1221    2
   960  1202  1185    1
   961  1202  1220    1
   962  1343  1336   ar
   963  1343  1342   ar
   964  1108  1107   ar
   965   568   570    1
   966   209   210   ar
   967  1421  1428   ar
   968  1421  1420    1
   969  1035  1033    1
   970  1035  1037    1
   971  1035  1036    1
   972   258   248    1
   973   808   810   ar
   974   808   807   ar
   975  1433  1432    1
   976  1433  1431    1
   977  1183  1182    1
   978  1403  1406   ar
   979  1403  1402   ar
   980  1349  1351    1
   981  1349  1350    1
   982  1080  1078    1
   983  1400  1399    1
   984   136   138    1
   985   136   137    1
   986  1073  1075    1
   987  1073  1091    1
   988  1037  1038    1
   989   567   572    1
   990  1399  1401   ar
   991   177   175    1
   992   240   242    1
   993  1406  1407   ar
   994  1352  1351    1
   995   445   444   ar
   996   445   446   ar
   997   465   466   ar
   998   465   472   ar
   999   467   466    2
  1000   250   251   ar
  1001   810   811   ar
  1002   438   436    1
  1003  1336  1337   ar
  1004  1077  1076    1
  1005  1050  1036    1
  1006  1050  1071    1
  1007   444   443   ar
  1008  1169  1176   ar
  1009  1169  1168    1
  1010   804   806    1
  1011   804   802    1
  1012   571   570    1
  1013  1351  1353    1
  1014   442   437    1
  1015   442   452    1
  1016   834   833   ar
  1017   200   205    1
  1018  1104  1105   ar
  1019   138   139    1
  1020  1153  1152    1
  1021   806   807    1
  1022   806   801    1
  1023   585   584    1
  1024  1342  1340   ar
  1025  1418  1420    1
  1026  1418  1419    1
  1027  1418  1416    1
  1028  1453  1431    2
  1029   205   206    1
  1030  1182  1180    1
  1031  1364  1363   ar
  1032  1364  1365   ar
  1033   436   437    1
  1034   436   434    1
  1035   243   248    1
  1036   243   242    1
  1037  1350  1355    1
  1038   466   468   ar
  1039  1075  1074    1
  1040   206   213   ar
  1041  1147  1152   ar
  1042  1147  1148   ar
  1043   151   137    1
  1044   151   153    1
  1045   151   172    1
  1046  1420  1415    1
  1047   831   833   ar
  1048   831   832    2
  1049   472   471   ar
  1050   807   814   ar
  1051   570   572    1
  1052  1131  1130    1
  1053  1363  1360   ar
  1054   819   817    1
  1055   210   211    2
  1056   210   212   ar
  1057  1402  1401   ar
  1058  1402  1408   ar
  1059  1370  1369    1
  1060  1383  1382    1
  1061   248   246    1
  1062  1431  1452    1
  1063  1431  1417    1
  1064  1107  1110   ar
  1065  1107  1106   ar
  1066   160   158    1
  1067   160   155    1
  1068   572   573    1
  1069  1384  1382   ar
  1070  1384  1385   ar
  1071   242   244    1
  1072   153   152    1
  1073   446   452   ar
  1074   446   447   ar
  1075  1152  1151   ar
  1076  1407  1408   ar
  1077  1078  1076    1
  1078  1078  1079    1
  1079  1410  1388    2
  1080  1076  1074    1
  1081   443   448   ar
  1082   175   176    1
  1083   246   244    1
  1084   246   247    1
  1085   452   451   ar
  1086  1181  1180    1
  1087  1181  1179    1
  1088   811   812    2
  1089   811   813   ar
  1090  1337  1338    2
  1091  1337  1339   ar
  1092  1168  1166    1
  1093  1168  1163    1
  1094  1148  1149   ar
  1095   801   800    1
  1096   158   156    1
  1097   158   159    1
  1098  1416  1417    1
  1099  1416  1414    1
  1100  1166  1167    1
  1101  1166  1164    1
  1102   176   174    1
  1103  1110  1111   ar
  1104   155   154    1
  1105  1382  1381   ar
  1106  1365  1355    1
  1107  1365  1359   ar
  1108  1105  1106   ar
  1109   802   803    1
  1110   802   800    1
  1111  1201  1179    2
  1112   584   586    1
  1113   434   435    1
  1114  1355  1353    1
  1115   803   817    1
  1116  1353  1354    1
  1117  1340  1339   ar
  1118  1340  1341    1
  1119   213   212   ar
  1120  1408  1397    1
  1121  1385  1378   ar
  1122  1106  1112   ar
  1123   156   154    1
  1124   156   157    1
  1125  1415  1414    1
  1126   468   469   ar
  1127  1130  1125   ar
  1128  1130  1129   ar
  1129  1369  1371    1
  1130   580   573   ar
  1131   580   579   ar
  1132   244   245    1
  1133   422   421    1
  1134   471   469   ar
  1135  1125  1126   ar
  1136   814   813   ar
  1137   800   798    1
  1138  1079  1093    1
  1139   817   835    2
  1140   817   836    1
  1141  1360  1359   ar
  1142  1360  1361   ar
  1143   573   574   ar
  1144  1430  1411    2
  1145   447   448   ar
  1146   447   450   ar
  1147  1179  1165    1
  1148  1179  1200    1
  1149  1164  1165    1
  1150  1164  1162    1
  1151   448   449    1
  1152   152   154    1
  1153  1163  1162    1
  1154  1151  1150   ar
  1155  1151  1154   ar
  1156  1414  1412    1
  1157  1359  1358   ar
  1158   586   587    1
  1159   586   588    1
  1160  1413  1411    1
  1161  1413  1412    1
  1162   451   450   ar
  1163  1388  1390    1
  1164  1388  1374    1
  1165  1388  1409    1
  1166   469   470    2
  1167  1149  1150   ar
  1168  1362  1361    1
  1169   435   433    1
  1170  1111  1112   ar
  1171  1381  1379   ar
  1172   157   174    1
  1173   579   577   ar
  1174  1361  1356   ar
  1175   174   195    2
  1176   174   194    1
  1177  1390  1389    1
  1178  1112  1102    1
  1179   587   592    1
  1180  1129  1132   ar
  1181  1129  1128   ar
  1182  1378  1379   ar
  1183  1378  1377    1
  1184  1373  1371    1
  1185  1373  1374    1
  1186  1373  1375    1
  1187  1371  1372    1
  1188  1126  1127   ar
  1189  1397  1395    1
  1190  1397  1392    1
  1191  1150  1156   ar
  1192   245   261    1
  1193   421   423   ar
  1194   421   420   ar
  1195  1395  1393    1
  1196  1395  1396    1
  1197  1411  1394    1
  1198  1411  1429    1
  1199  1162  1160    1
  1200  1154  1155   ar
  1201  1132  1133   ar
  1202  1372  1377    1
  1203   574   575    2
  1204   574   576   ar
  1205   418   417    1
  1206   798   799    1
  1207  1393  1394    1
  1208  1393  1391    1
  1209  1093  1113    2
  1210  1093  1114    1
  1211  1093  1095    1
  1212   589   588    1
  1213   589   605    1
  1214  1379  1380    2
  1215   423   424   ar
  1216   453   433    2
  1217   623   605    2
  1218  1358  1357   ar
  1219  1392  1391    1
  1220   588   590    1
  1221   420   426   ar
  1222  1160  1161    1
  1223  1377  1375    1
  1224   799   797    1
  1225   433   416    1
  1226   433   454    1
  1227   742   741    1
  1228  1356  1357   ar
  1229   577   576   ar
  1230   577   578    1
  1231   279   261    2
  1232  1128  1127   ar
  1233  1128  1134   ar
  1234  1375  1376    1
  1235   764   765   ar
  1236   764   763   ar
  1237  1389  1391    1
  1238  1102  1097    1
  1239  1102  1100    1
  1240  1095  1094    1
  1241   417   419    1
  1242   417   415    1
  1243   605   624    1
  1244   605   607    1
  1245   592   590    1
  1246   592   602    1
  1247  1097  1096    1
  1248   261   280    1
  1249   261   263    1
  1250  1156  1155   ar
  1251  1156  1146    1
  1252   591   590    1
  1253  1133  1134   ar
  1254   416   415    1
  1255   765   766   ar
  1256   740   741   ar
  1257   740   746   ar
  1258   601   602   ar
  1259   601   600   ar
  1260   763   768   ar
  1261   424   430   ar
  1262   424   425   ar
  1263   741   743   ar
  1264   602   596   ar
  1265  1134  1124    1
  1266  1094  1096    1
  1267   426   425   ar
  1268   426   427    2
  1269   419   430    1
  1270   419   414    1
  1271   415   413    1
  1272  1161  1159    1
  1273   747   746    2
  1274   761   760    1
  1275   816   797    2
  1276   262   263    1
  1277   262   264    1
  1278   797   815    1
  1279   797   781    1
  1280  1100  1098    1
  1281  1100  1101    1
  1282  1178  1159    2
  1283  1096  1098    1
  1284   399   398    1
  1285  1146  1144    1
  1286  1146  1141    1
  1287  1144  1145    1
  1288  1144  1142    1
  1289   746   745   ar
  1290   430   429   ar
  1291   425   428   ar
  1292   600   597   ar
  1293   607   606    1
  1294  1098  1099    1
  1295   606   608    1
  1296   766   772   ar
  1297   766   767   ar
  1298   778   776    1
  1299   778   779    1
  1300   778   780    1
  1301   413   414    1
  1302   413   411    1
  1303   768   767   ar
  1304   768   769    1
  1305   743   744   ar
  1306   781   780    1
  1307   776   777    1
  1308  1159  1143    1
  1309  1159  1177    1
  1310   762   760    1
  1311   762   772    1
  1312   762   757    1
  1313   760   758    1
  1314   779   784    1
  1315   596   597   ar
  1316   596   595   ar
  1317  1142  1143    1
  1318  1142  1140    1
  1319  1124  1119    1
  1320  1124  1122    1
  1321   397   398   ar
  1322   397   403   ar
  1323   398   400   ar
  1324   264   265    1
  1325   264   266    1
  1326   787   786   ar
  1327   787   788   ar
  1328   786   785   ar
  1329   300   281    2
  1330  1141  1140    1
  1331   772   771   ar
  1332   767   770   ar
  1333   597   598   ar
  1334   429   428   ar
  1335   745   744   ar
  1336   745   748   ar
  1337   780   782    1
  1338  1136  1115    2
  1339   744   750   ar
  1340  1119  1118    1
  1341   757   756    1
  1342  1123  1122    1
  1343   595   594   ar
  1344  1099  1115    1
  1345   265   270    1
  1346   608   609    1
  1347   608   610    1
  1348  1122  1120    1
  1349   784   782    1
  1350   784   794    1
  1351   411   412    1
  1352  1140  1138    1
  1353   609   614    1
  1354   404   403    2
  1355   777   775    1
  1356   758   759    1
  1357   758   756    1
  1358   266   267    1
  1359   266   268    1
  1360   403   402   ar
  1361   400   401   ar
  1362   785   790   ar
  1363   759   775    1
  1364   278   277   ar
  1365   278   271   ar
  1366   756   754    1
  1367  1117  1115    1
  1368  1117  1116    1
  1369  1115  1135    1
  1370   788   794   ar
  1371   788   789   ar
  1372   277   275   ar
  1373   622   621   ar
  1374   622   615   ar
  1375   771   770   ar
  1376   281   299    1
  1377   281   267    1
  1378   281   283    1
  1379   621   619   ar
  1380   748   749   ar
  1381   782   783    1
  1382   412   410    1
  1383   296   295    1
  1384   598   599    1
  1385   598   593   ar
  1386   794   793   ar
  1387   795   775    2
  1388  1138  1139    1
  1389   594   593   ar
  1390   750   749   ar
  1391   750   739    1
  1392   610   611    1
  1393   610   612    1
  1394   775   796    1
  1395  1118  1120    1
  1396  1118  1116    1
  1397   270   268    1
  1398   270   271    1
  1399   295   294   ar
  1400   295   297   ar
  1401   268   269    1
  1402   611   625    1
  1403   647   625    2
  1404   401   402   ar
  1405   401   407   ar
  1406  1120  1121    1
  1407   271   272   ar
  1408   294   292   ar
  1409   402   405   ar
  1410   790   789   ar
  1411   790   791    1
  1412   297   298   ar
  1413   614   615    1
  1414   614   612    1
  1415   615   616   ar
  1416   282   283    1
  1417   282   284    1
  1418   789   792   ar
  1419   739   737    1
  1420   739   734    1
  1421   275   276    2
  1422   275   274   ar
  1423  1121  1137    1
  1424   285   284    1
  1425   285   290    1
  1426   646   625    1
  1427   754   755    1
  1428   619   620    1
  1429   619   618   ar
  1430   292   293    2
  1431   292   291   ar
  1432   625   627    1
  1433   737   738    1
  1434   737   735    1
  1435   298   291   ar
  1436   612   613    1
  1437  1139  1137    1
  1438   793   792   ar
  1439   291   290    1
  1440   410   431    2
  1441   410   432    1
  1442   410   393    1
  1443   394   395    1
  1444   394   396    1
  1445   394   392    1
  1446  1158  1137    2
  1447   284   286    1
  1448   272   274   ar
  1449   272   273    2
  1450   755   753    1
  1451   407   396    1
  1452   407   406   ar
  1453   722   721    2
  1454  1137  1157    1
  1455   405   406   ar
  1456   616   618   ar
  1457   616   617    2
  1458   290   288    1
  1459   393   392    1
  1460   718   717    1
  1461   734   733    1
  1462   396   391    1
  1463   392   390    1
  1464   735   733    1
  1465   735   736    1
  1466   627   626    1
  1467   721   723   ar
  1468   721   720   ar
  1469   286   288    1
  1470   286   287    1
  1471   288   289    1
  1472   717   719    1
  1473   717   715    1
  1474   733   731    1
  1475   736   753    1
  1476   753   774    2
  1477   753   773    1
  1478   626   628    1
  1479   723   724   ar
  1480   323   301    2
  1481   719   720    1
  1482   719   714    1
  1483   382   381    2
  1484   391   390    1
  1485   643   644   ar
  1486   643   640   ar
  1487   390   388    1
  1488   287   301    1
  1489   380   381   ar
  1490   380   378   ar
  1491   361   360    2
  1492   644   645   ar
  1493   684   683    1
  1494   379   378    2
  1495   720   727   ar
  1496   732   731    1
  1497   732   730    1
  1498   716   715    1
  1499   716   730    1
  1500   751   730    2
  1501   381   383   ar
  1502   678   683   ar
  1503   678   679   ar
  1504   301   322    1
  1505   301   303    1
  1506   642   641    2
  1507   378   377   ar
  1508   715   713    1
  1509   714   713    1
  1510   702   701    2
  1511   663   662    1
  1512   354   360   ar
  1513   354   355   ar
  1514   388   389    1
  1515   703   701   ar
  1516   703   704   ar
  1517   683   682   ar
  1518   730   752    1
  1519   724   725    2
  1520   724   726   ar
  1521   360   359   ar
  1522   629   628    1
  1523   629   634    1
  1524   640   641   ar
  1525   640   639   ar
  1526   628   630    1
  1527   705   704    2
  1528   713   711    1
  1529   318   317    2
  1530   645   639   ar
  1531   645   634    1
  1532   641   635   ar
  1533   339   338    1
  1534   701   700   ar
  1535   667   648    2
  1536   319   320   ar
  1537   319   316   ar
  1538   679   680   ar
  1539   356   355    1
  1540   727   726   ar
  1541   704   706   ar
  1542   630   631    1
  1543   630   632    1
  1544   355   357   ar
  1545   303   302    1
  1546   664   662   ar
  1547   664   665   ar
  1548   383   384   ar
  1549   662   661   ar
  1550   389   387    1
  1551   377   384   ar
  1552   377   376    1
  1553   639   638   ar
  1554   634   632    1
  1555   320   321   ar
  1556   317   316   ar
  1557   317   311   ar
  1558   682   685   ar
  1559   682   681   ar
  1560   359   362   ar
  1561   359   358   ar
  1562   631   648    1
  1563   316   315   ar
  1564   711   712    1
  1565   648   666    1
  1566   648   650    1
  1567   374   376    1
  1568   374   375    1
  1569   374   372    1
  1570   635   636   ar
  1571   338   340   ar
  1572   338   337   ar
  1573   680   681   ar
  1574   376   371    1
  1575   700   699    1
  1576   700   707   ar
  1577   632   633    1
  1578   302   304    1
  1579   362   363   ar
  1580   685   686   ar
  1581   665   658   ar
  1582   661   659   ar
  1583   706   707   ar
  1584   357   358   ar
  1585   698   697    1
  1586   681   687   ar
  1587   340   341   ar
  1588   697   699    1
  1589   697   695    1
  1590   358   364   ar
  1591   638   636   ar
  1592   712   710    1
  1593   699   694    1
  1594   387   409    2
  1595   387   408    1
  1596   387   373    1
  1597   311   312   ar
  1598   321   315   ar
  1599   321   310    1
  1600   337   335   ar
  1601   636   637    1
  1602   343   324    2
  1603   315   314   ar
  1604   372   373    1
  1605   372   370    1
  1606   650   649    1
  1607   305   304    1
  1608   305   310    1
  1609   304   306    1
  1610   371   370    1
  1611   658   659   ar
  1612   658   657    1
  1613   659   660    2
  1614   363   364   ar
  1615   686   687   ar
  1616   687   677    1
  1617   364   353    1
  1618   306   307    1
  1619   306   308    1
  1620   341   334   ar
  1621   310   308    1
  1622   695   696    1
  1623   695   693    1
  1624   312   314   ar
  1625   312   313    1
  1626   694   693    1
  1627   335   334   ar
  1628   335   336    2
  1629   370   368    1
  1630   710   696    1
  1631   710   728    2
  1632   710   729    1
  1633   649   651    1
  1634   324   307    1
  1635   324   326    1
  1636   324   342    1
  1637   652   657    1
  1638   652   651    1
  1639   386   367    2
  1640   369   368    1
  1641   369   367    1
  1642   308   309    1
  1643   334   333    1
  1644   657   655    1
  1645   693   691    1
  1646   677   675    1
  1647   677   672    1
  1648   366   344    2
  1649   353   351    1
  1650   353   348    1
  1651   326   325    1
  1652   689   668    2
  1653   651   653    1
  1654   351   349    1
  1655   351   352    1
  1656   653   655    1
  1657   653   654    1
  1658   367   350    1
  1659   367   385    1
  1660   675   676    1
  1661   675   673    1
  1662   655   656    1
  1663   349   350    1
  1664   349   347    1
  1665   692   691    1
  1666   692   690    1
  1667   672   671    1
  1668   348   347    1
  1669   346   344    1
  1670   346   345    1
  1671   333   328    1
  1672   333   331    1
  1673   344   330    1
  1674   344   365    1
  1675   673   671    1
  1676   673   674    1
  1677   670   668    1
  1678   670   669    1
  1679   325   327    1
  1680   328   327    1
  1681   709   690    2
  1682   329   331    1
  1683   329   327    1
  1684   329   330    1
  1685   668   654    1
  1686   668   688    1
  1687   331   332    1
  1688   347   345    1
  1689   671   669    1
  1690   690   674    1
  1691   690   708    1
