ligand
  PyMOL2.2          3D                             0

 12 13  0  0  0  0  0  0  0  0999 V2000
   31.5860   18.1570   13.7050 C   0  0  0  0  0  0  0  0  0  0  0  0
   30.1430   16.8500   15.1310 C   0  0  0  0  0  0  0  0  0  0  0  0
   32.1480   18.3870   12.5240 N   0  0  0  0  0  0  0  0  0  0  0  0
   31.8420   18.9910   14.7180 N   0  0  0  0  0  0  0  0  0  0  0  0
   30.7230   17.0600   13.8850 N   0  0  0  0  0  0  0  0  0  0  0  0
   29.3910   15.8840   15.2870 O   0  0  0  0  0  0  0  0  0  0  0  0
   30.2060   18.4820   18.4540 N   0  0  0  0  0  0  0  0  0  0  0  0
   31.0750   19.5530   18.1930 C   0  0  0  0  0  0  0  0  0  0  0  0
   31.6150   19.7040   16.9020 N   0  0  0  0  0  0  0  0  0  0  0  0
   31.3120   18.8150   15.9350 C   0  0  0  0  0  0  0  0  0  0  0  0
   30.4440   17.7390   16.1660 C   0  0  0  0  0  0  0  0  0  0  0  0
   29.8920   17.5610   17.4260 C   0  0  0  0  0  0  0  0  0  0  0  0
  1  3  1  0  0  0  0
  2  6  2  0  0  0  0
  2 11  4  0  0  0  0
  1  4  4  0  0  0  0
  1  5  4  0  0  0  0
  2  5  4  0  0  0  0
  7  8  4  0  0  0  0
  8  9  4  0  0  0  0
  9 10  4  0  0  0  0
  4 10  4  0  0  0  0
 10 11  4  0  0  0  0
 11 12  4  0  0  0  0
  7 12  4  0  0  0  0
M  END
$$$$
