ligand
 OpenBabel11021811503D
libRbt.so/2013.1/901 2013/11/27
 12 13  0  0  0  0  0  0  0  0999 V2000
   31.1827   18.1642   14.0945 C   0  0  0  0  0  0  0  0  0  0  0  0
   30.0894   16.9392   15.8631 C   0  0  0  0  0  0  0  0  0  0  0  0
   31.5537   18.2823   12.8249 N   0  0  0  0  0  0  0  0  0  0  0  0
   31.4836   19.1452   14.9515 N   0  0  0  0  0  0  0  0  0  0  0  0
   30.4715   17.0303   14.5294 N   0  0  0  0  0  0  0  0  0  0  0  0
   29.4707   15.9410   16.2425 O   0  0  0  0  0  0  0  0  0  0  0  0
   30.4268   18.9998   18.9208 N   0  0  0  0  0  0  0  0  0  0  0  0
   31.1357   20.0977   18.4086 C   0  0  0  0  0  0  0  0  0  0  0  0
   31.4785   20.1212   17.0437 N   0  0  0  0  0  0  0  0  0  0  0  0
   31.1433   19.0880   16.2453 C   0  0  0  0  0  0  0  0  0  0  0  0
   30.4319   17.9812   16.7285 C   0  0  0  0  0  0  0  0  0  0  0  0
   30.0759   17.9259   18.0680 C   0  0  0  0  0  0  0  0  0  0  0  0
  1  3  1  0  0  0  0
  1  4  2  0  0  0  0
  1  5  1  0  0  0  0
  2  6  2  0  0  0  0
  2 11  1  0  0  0  0
  2  5  1  0  0  0  0
  4 10  1  0  0  0  0
  7  8  2  0  0  0  0
  7 12  1  0  0  0  0
  8  9  1  0  0  0  0
  9 10  2  0  0  0  0
 10 11  1  0  0  0  0
 11 12  2  0  0  0  0
M  END
>  <CHROM.1>
30.73445924,18.27554221,16.13020156,-1.46146436,1.04252636,1.13372079

>  <Name>
ligand

>  <RI>
0

>  <Rbt.Current_Directory>
/home/itssahil/PROJECTS/Mol_Feturizer/New_Systems/rnas/4LX6

>  <Rbt.Executable>
rbdock ($Id: //depot/dev/client3/rdock/2013.1/src/exe/rbdock.cxx#4 $)

>  <Rbt.Library>
libRbt.so (2013.1, Build901 2013/11/27)

>  <Rbt.Parameter_File>
/export/apps/rDock/src/rDock_2013.1_src/data/scripts/dock_solv.prm

>  <Rbt.Receptor>
prm/blind_docking_60.prm

>  <SCORE>
-16.6006

>  <SCORE.INTER>
-16.6006

>  <SCORE.INTER.CONST>
1

>  <SCORE.INTER.POLAR>
0

>  <SCORE.INTER.ROT>
0

>  <SCORE.INTER.SOLV>
14.2929

>  <SCORE.INTER.VDW>
-19.4313

>  <SCORE.INTER.norm>
-1.38338

>  <SCORE.INTRA>
0

>  <SCORE.INTRA.DIHEDRAL>
0

>  <SCORE.INTRA.DIHEDRAL.0>
0

>  <SCORE.INTRA.POLAR>
0

>  <SCORE.INTRA.POLAR.0>
0

>  <SCORE.INTRA.REPUL>
0

>  <SCORE.INTRA.REPUL.0>
0

>  <SCORE.INTRA.SOLV>
0

>  <SCORE.INTRA.SOLV.lig_0>
-28.9128

>  <SCORE.INTRA.VDW>
0

>  <SCORE.INTRA.VDW.0>
0

>  <SCORE.INTRA.norm>
0

>  <SCORE.RESTR>
0

>  <SCORE.RESTR.CAVITY>
0

>  <SCORE.RESTR.norm>
0

>  <SCORE.SYSTEM>
0

>  <SCORE.SYSTEM.CONST>
0

>  <SCORE.SYSTEM.DIHEDRAL>
0

>  <SCORE.SYSTEM.SOLV>
0

>  <SCORE.SYSTEM.norm>
0

>  <SCORE.heavy>
12

>  <SCORE.norm>
-1.38338

>  <RMSD>
0.657

$$$$
ligand
 OpenBabel11021811503D
libRbt.so/2013.1/901 2013/11/27
 12 13  0  0  0  0  0  0  0  0999 V2000
   31.1546   18.1608   14.0842 C   0  0  0  0  0  0  0  0  0  0  0  0
   30.0956   16.9286   15.8685 C   0  0  0  0  0  0  0  0  0  0  0  0
   31.5093   18.2797   12.8100 N   0  0  0  0  0  0  0  0  0  0  0  0
   31.4552   19.1470   14.9353 N   0  0  0  0  0  0  0  0  0  0  0  0
   30.4608   17.0205   14.5302 N   0  0  0  0  0  0  0  0  0  0  0  0
   29.4921   15.9248   16.2576 O   0  0  0  0  0  0  0  0  0  0  0  0
   30.4472   19.0002   18.9172 N   0  0  0  0  0  0  0  0  0  0  0  0
   31.1382   20.1043   18.3940 C   0  0  0  0  0  0  0  0  0  0  0  0
   31.4645   20.1281   17.0250 N   0  0  0  0  0  0  0  0  0  0  0  0
   31.1309   19.0894   16.2331 C   0  0  0  0  0  0  0  0  0  0  0  0
   30.4371   17.9764   16.7274 C   0  0  0  0  0  0  0  0  0  0  0  0
   30.0977   17.9206   18.0711 C   0  0  0  0  0  0  0  0  0  0  0  0
  1  3  1  0  0  0  0
  1  4  2  0  0  0  0
  1  5  1  0  0  0  0
  2  6  2  0  0  0  0
  2 11  1  0  0  0  0
  2  5  1  0  0  0  0
  4 10  1  0  0  0  0
  7  8  2  0  0  0  0
  7 12  1  0  0  0  0
  8  9  1  0  0  0  0
  9 10  2  0  0  0  0
 10 11  1  0  0  0  0
 11 12  2  0  0  0  0
M  END
>  <CHROM.1>
30.72942633,18.27238958,16.12481553,-1.47415335,1.05719014,1.14232267

>  <Name>
ligand

>  <RI>
0

>  <Rbt.Current_Directory>
/home/itssahil/PROJECTS/Mol_Feturizer/New_Systems/rnas/4LX6

>  <Rbt.Executable>
rbdock ($Id: //depot/dev/client3/rdock/2013.1/src/exe/rbdock.cxx#4 $)

>  <Rbt.Library>
libRbt.so (2013.1, Build901 2013/11/27)

>  <Rbt.Parameter_File>
/export/apps/rDock/src/rDock_2013.1_src/data/scripts/dock_solv.prm

>  <Rbt.Receptor>
prm/blind_docking_60.prm

>  <SCORE>
-16.6209

>  <SCORE.INTER>
-16.6209

>  <SCORE.INTER.CONST>
1

>  <SCORE.INTER.POLAR>
0

>  <SCORE.INTER.ROT>
0

>  <SCORE.INTER.SOLV>
14.258

>  <SCORE.INTER.VDW>
-19.4333

>  <SCORE.INTER.norm>
-1.38508

>  <SCORE.INTRA>
0

>  <SCORE.INTRA.DIHEDRAL>
0

>  <SCORE.INTRA.DIHEDRAL.0>
0

>  <SCORE.INTRA.POLAR>
0

>  <SCORE.INTRA.POLAR.0>
0

>  <SCORE.INTRA.REPUL>
0

>  <SCORE.INTRA.REPUL.0>
0

>  <SCORE.INTRA.SOLV>
0

>  <SCORE.INTRA.SOLV.lig_0>
-28.9128

>  <SCORE.INTRA.VDW>
0

>  <SCORE.INTRA.VDW.0>
0

>  <SCORE.INTRA.norm>
0

>  <SCORE.RESTR>
0

>  <SCORE.RESTR.CAVITY>
0

>  <SCORE.RESTR.norm>
0

>  <SCORE.SYSTEM>
0

>  <SCORE.SYSTEM.CONST>
0

>  <SCORE.SYSTEM.DIHEDRAL>
0

>  <SCORE.SYSTEM.SOLV>
0

>  <SCORE.SYSTEM.norm>
0

>  <SCORE.heavy>
12

>  <SCORE.norm>
-1.38508

>  <RMSD>
0.665

$$$$
ligand
 OpenBabel11021811503D
libRbt.so/2013.1/901 2013/11/27
 12 13  0  0  0  0  0  0  0  0999 V2000
   31.1455   18.1644   14.0899 C   0  0  0  0  0  0  0  0  0  0  0  0
   30.0639   16.9441   15.8690 C   0  0  0  0  0  0  0  0  0  0  0  0
   31.5046   18.2810   12.8167 N   0  0  0  0  0  0  0  0  0  0  0  0
   31.4594   19.1437   14.9441 N   0  0  0  0  0  0  0  0  0  0  0  0
   30.4333   17.0338   14.5316 N   0  0  0  0  0  0  0  0  0  0  0  0
   29.4443   15.9488   16.2542 O   0  0  0  0  0  0  0  0  0  0  0  0
   30.4409   19.0025   18.9235 N   0  0  0  0  0  0  0  0  0  0  0  0
   31.1499   20.0972   18.4046 C   0  0  0  0  0  0  0  0  0  0  0  0
   31.4794   20.1193   17.0364 N   0  0  0  0  0  0  0  0  0  0  0  0
   31.1315   19.0879   16.2412 C   0  0  0  0  0  0  0  0  0  0  0  0
   30.4197   17.9844   16.7312 C   0  0  0  0  0  0  0  0  0  0  0  0
   30.0766   17.9305   18.0741 C   0  0  0  0  0  0  0  0  0  0  0  0
  1  3  1  0  0  0  0
  1  4  2  0  0  0  0
  1  5  1  0  0  0  0
  2  6  2  0  0  0  0
  2 11  1  0  0  0  0
  2  5  1  0  0  0  0
  4 10  1  0  0  0  0
  7  8  2  0  0  0  0
  7 12  1  0  0  0  0
  8  9  1  0  0  0  0
  9 10  2  0  0  0  0
 10 11  1  0  0  0  0
 11 12  2  0  0  0  0
M  END
>  <CHROM.1>
30.71776757,18.27738359,16.12993769,-1.48301860,1.04232874,1.15251941

>  <Name>
ligand

>  <RI>
0

>  <Rbt.Current_Directory>
/home/itssahil/PROJECTS/Mol_Feturizer/New_Systems/rnas/4LX6

>  <Rbt.Executable>
rbdock ($Id: //depot/dev/client3/rdock/2013.1/src/exe/rbdock.cxx#4 $)

>  <Rbt.Library>
libRbt.so (2013.1, Build901 2013/11/27)

>  <Rbt.Parameter_File>
/export/apps/rDock/src/rDock_2013.1_src/data/scripts/dock_solv.prm

>  <Rbt.Receptor>
prm/pocket_docking_8.prm

>  <SCORE>
-16.5978

>  <SCORE.INTER>
-16.5978

>  <SCORE.INTER.CONST>
1

>  <SCORE.INTER.POLAR>
0

>  <SCORE.INTER.ROT>
0

>  <SCORE.INTER.SOLV>
14.1881

>  <SCORE.INTER.VDW>
-19.3945

>  <SCORE.INTER.norm>
-1.38315

>  <SCORE.INTRA>
0

>  <SCORE.INTRA.DIHEDRAL>
0

>  <SCORE.INTRA.DIHEDRAL.0>
0

>  <SCORE.INTRA.POLAR>
0

>  <SCORE.INTRA.POLAR.0>
0

>  <SCORE.INTRA.REPUL>
0

>  <SCORE.INTRA.REPUL.0>
0

>  <SCORE.INTRA.SOLV>
0

>  <SCORE.INTRA.SOLV.lig_0>
-28.9128

>  <SCORE.INTRA.VDW>
0

>  <SCORE.INTRA.VDW.0>
0

>  <SCORE.INTRA.norm>
0

>  <SCORE.RESTR>
0

>  <SCORE.RESTR.CAVITY>
0

>  <SCORE.RESTR.norm>
0

>  <SCORE.SYSTEM>
0

>  <SCORE.SYSTEM.CONST>
0

>  <SCORE.SYSTEM.DIHEDRAL>
0

>  <SCORE.SYSTEM.SOLV>
0

>  <SCORE.SYSTEM.norm>
0

>  <SCORE.heavy>
12

>  <SCORE.norm>
-1.38315

>  <RMSD>
0.668

$$$$
ligand
 OpenBabel11021811503D
libRbt.so/2013.1/901 2013/11/27
 12 13  0  0  0  0  0  0  0  0999 V2000
   31.1394   18.1640   14.0873 C   0  0  0  0  0  0  0  0  0  0  0  0
   30.0625   16.9427   15.8686 C   0  0  0  0  0  0  0  0  0  0  0  0
   31.4958   18.2808   12.8135 N   0  0  0  0  0  0  0  0  0  0  0  0
   31.4540   19.1437   14.9408 N   0  0  0  0  0  0  0  0  0  0  0  0
   30.4292   17.0327   14.5305 N   0  0  0  0  0  0  0  0  0  0  0  0
   29.4446   15.9469   16.2552 O   0  0  0  0  0  0  0  0  0  0  0  0
   30.4435   19.0018   18.9223 N   0  0  0  0  0  0  0  0  0  0  0  0
   31.1504   20.0971   18.4019 C   0  0  0  0  0  0  0  0  0  0  0  0
   31.4772   20.1195   17.0330 N   0  0  0  0  0  0  0  0  0  0  0  0
   31.1287   19.0876   16.2386 C   0  0  0  0  0  0  0  0  0  0  0  0
   30.4190   17.9834   16.7300 C   0  0  0  0  0  0  0  0  0  0  0  0
   30.0786   17.9293   18.0736 C   0  0  0  0  0  0  0  0  0  0  0  0
  1  3  1  0  0  0  0
  1  4  2  0  0  0  0
  1  5  1  0  0  0  0
  2  6  2  0  0  0  0
  2 11  1  0  0  0  0
  2  5  1  0  0  0  0
  4 10  1  0  0  0  0
  7  8  2  0  0  0  0
  7 12  1  0  0  0  0
  8  9  1  0  0  0  0
  9 10  2  0  0  0  0
 10 11  1  0  0  0  0
 11 12  2  0  0  0  0
M  END
>  <CHROM.1>
30.71556817,18.27670226,16.12821224,-1.48580908,1.04403407,1.15486024

>  <Name>
ligand

>  <RI>
0

>  <Rbt.Current_Directory>
/home/itssahil/PROJECTS/Mol_Feturizer/New_Systems/rnas/4LX6

>  <Rbt.Executable>
rbdock ($Id: //depot/dev/client3/rdock/2013.1/src/exe/rbdock.cxx#4 $)

>  <Rbt.Library>
libRbt.so (2013.1, Build901 2013/11/27)

>  <Rbt.Parameter_File>
/export/apps/rDock/src/rDock_2013.1_src/data/scripts/dock_solv.prm

>  <Rbt.Receptor>
prm/blind_docking_100.prm

>  <SCORE>
-16.5972

>  <SCORE.INTER>
-16.5972

>  <SCORE.INTER.CONST>
1

>  <SCORE.INTER.POLAR>
0

>  <SCORE.INTER.ROT>
0

>  <SCORE.INTER.SOLV>
14.1759

>  <SCORE.INTER.VDW>
-19.3901

>  <SCORE.INTER.norm>
-1.3831

>  <SCORE.INTRA>
0

>  <SCORE.INTRA.DIHEDRAL>
0

>  <SCORE.INTRA.DIHEDRAL.0>
0

>  <SCORE.INTRA.POLAR>
0

>  <SCORE.INTRA.POLAR.0>
0

>  <SCORE.INTRA.REPUL>
0

>  <SCORE.INTRA.REPUL.0>
0

>  <SCORE.INTRA.SOLV>
0

>  <SCORE.INTRA.SOLV.lig_0>
-28.9128

>  <SCORE.INTRA.VDW>
0

>  <SCORE.INTRA.VDW.0>
0

>  <SCORE.INTRA.norm>
0

>  <SCORE.RESTR>
0

>  <SCORE.RESTR.CAVITY>
0

>  <SCORE.RESTR.norm>
0

>  <SCORE.SYSTEM>
0

>  <SCORE.SYSTEM.CONST>
0

>  <SCORE.SYSTEM.DIHEDRAL>
0

>  <SCORE.SYSTEM.SOLV>
0

>  <SCORE.SYSTEM.norm>
0

>  <SCORE.heavy>
12

>  <SCORE.norm>
-1.3831

>  <RMSD>
0.669

$$$$
ligand
 OpenBabel11021811503D
libRbt.so/2013.1/901 2013/11/27
 12 13  0  0  0  0  0  0  0  0999 V2000
   31.1351   18.1638   14.0853 C   0  0  0  0  0  0  0  0  0  0  0  0
   30.0626   16.9415   15.8685 C   0  0  0  0  0  0  0  0  0  0  0  0
   31.4893   18.2809   12.8108 N   0  0  0  0  0  0  0  0  0  0  0  0
   31.4497   19.1441   14.9381 N   0  0  0  0  0  0  0  0  0  0  0  0
   30.4271   17.0317   14.5298 N   0  0  0  0  0  0  0  0  0  0  0  0
   29.4466   15.9448   16.2562 O   0  0  0  0  0  0  0  0  0  0  0  0
   30.4458   19.0014   18.9212 N   0  0  0  0  0  0  0  0  0  0  0  0
   31.1504   20.0976   18.3995 C   0  0  0  0  0  0  0  0  0  0  0  0
   31.4750   20.1202   17.0301 N   0  0  0  0  0  0  0  0  0  0  0  0
   31.1266   19.0878   16.2364 C   0  0  0  0  0  0  0  0  0  0  0  0
   30.4191   17.9828   16.7292 C   0  0  0  0  0  0  0  0  0  0  0  0
   30.0809   17.9284   18.0733 C   0  0  0  0  0  0  0  0  0  0  0  0
  1  3  1  0  0  0  0
  1  4  2  0  0  0  0
  1  5  1  0  0  0  0
  2  6  2  0  0  0  0
  2 11  1  0  0  0  0
  2  5  1  0  0  0  0
  4 10  1  0  0  0  0
  7  8  2  0  0  0  0
  7 12  1  0  0  0  0
  8  9  1  0  0  0  0
  9 10  2  0  0  0  0
 10 11  1  0  0  0  0
 11 12  2  0  0  0  0
M  END
>  <CHROM.1>
30.71435143,18.27630402,16.12681022,-1.48766506,1.04585744,1.15630597

>  <Name>
ligand

>  <RI>
0

>  <Rbt.Current_Directory>
/home/itssahil/PROJECTS/Mol_Feturizer/New_Systems/rnas/4LX6

>  <Rbt.Executable>
rbdock ($Id: //depot/dev/client3/rdock/2013.1/src/exe/rbdock.cxx#4 $)

>  <Rbt.Library>
libRbt.so (2013.1, Build901 2013/11/27)

>  <Rbt.Parameter_File>
/export/apps/rDock/src/rDock_2013.1_src/data/scripts/dock_solv.prm

>  <Rbt.Receptor>
prm/blind_docking_60.prm

>  <SCORE>
-16.5961

>  <SCORE.INTER>
-16.5961

>  <SCORE.INTER.CONST>
1

>  <SCORE.INTER.POLAR>
0

>  <SCORE.INTER.ROT>
0

>  <SCORE.INTER.SOLV>
14.1696

>  <SCORE.INTER.VDW>
-19.3873

>  <SCORE.INTER.norm>
-1.38301

>  <SCORE.INTRA>
0

>  <SCORE.INTRA.DIHEDRAL>
0

>  <SCORE.INTRA.DIHEDRAL.0>
0

>  <SCORE.INTRA.POLAR>
0

>  <SCORE.INTRA.POLAR.0>
0

>  <SCORE.INTRA.REPUL>
0

>  <SCORE.INTRA.REPUL.0>
0

>  <SCORE.INTRA.SOLV>
0

>  <SCORE.INTRA.SOLV.lig_0>
-28.9128

>  <SCORE.INTRA.VDW>
0

>  <SCORE.INTRA.VDW.0>
0

>  <SCORE.INTRA.norm>
0

>  <SCORE.RESTR>
0

>  <SCORE.RESTR.CAVITY>
0

>  <SCORE.RESTR.norm>
0

>  <SCORE.SYSTEM>
0

>  <SCORE.SYSTEM.CONST>
0

>  <SCORE.SYSTEM.DIHEDRAL>
0

>  <SCORE.SYSTEM.SOLV>
0

>  <SCORE.SYSTEM.norm>
0

>  <SCORE.heavy>
12

>  <SCORE.norm>
-1.38301

>  <RMSD>
0.669

$$$$
ligand
 OpenBabel11021811503D
libRbt.so/2013.1/901 2013/11/27
 12 13  0  0  0  0  0  0  0  0999 V2000
   31.1526   18.1673   14.0988 C   0  0  0  0  0  0  0  0  0  0  0  0
   30.0620   16.9481   15.8732 C   0  0  0  0  0  0  0  0  0  0  0  0
   31.5144   18.2851   12.8265 N   0  0  0  0  0  0  0  0  0  0  0  0
   31.4698   19.1430   14.9559 N   0  0  0  0  0  0  0  0  0  0  0  0
   30.4342   17.0391   14.5367 N   0  0  0  0  0  0  0  0  0  0  0  0
   29.4369   15.9549   16.2550 O   0  0  0  0  0  0  0  0  0  0  0  0
   30.4438   18.9975   18.9332 N   0  0  0  0  0  0  0  0  0  0  0  0
   31.1590   20.0899   18.4180 C   0  0  0  0  0  0  0  0  0  0  0  0
   31.4910   20.1136   17.0504 N   0  0  0  0  0  0  0  0  0  0  0  0
   31.1394   19.0858   16.2522 C   0  0  0  0  0  0  0  0  0  0  0  0
   30.4214   17.9846   16.7384 C   0  0  0  0  0  0  0  0  0  0  0  0
   30.0758   17.9292   18.0806 C   0  0  0  0  0  0  0  0  0  0  0  0
  1  3  1  0  0  0  0
  1  4  2  0  0  0  0
  1  5  1  0  0  0  0
  2  6  2  0  0  0  0
  2 11  1  0  0  0  0
  2  5  1  0  0  0  0
  4 10  1  0  0  0  0
  7  8  2  0  0  0  0
  7 12  1  0  0  0  0
  8  9  1  0  0  0  0
  9 10  2  0  0  0  0
 10 11  1  0  0  0  0
 11 12  2  0  0  0  0
M  END
>  <CHROM.1>
30.72193535,18.27755398,16.13839699,-1.48385270,1.03717782,1.15558955

>  <Name>
ligand

>  <RI>
0

>  <Rbt.Current_Directory>
/home/itssahil/PROJECTS/Mol_Feturizer/New_Systems/rnas/4LX6

>  <Rbt.Executable>
rbdock ($Id: //depot/dev/client3/rdock/2013.1/src/exe/rbdock.cxx#4 $)

>  <Rbt.Library>
libRbt.so (2013.1, Build901 2013/11/27)

>  <Rbt.Parameter_File>
/export/apps/rDock/src/rDock_2013.1_src/data/scripts/dock_solv.prm

>  <Rbt.Receptor>
prm/blind_docking_80.prm

>  <SCORE>
-16.5725

>  <SCORE.INTER>
-16.5725

>  <SCORE.INTER.CONST>
1

>  <SCORE.INTER.POLAR>
0

>  <SCORE.INTER.ROT>
0

>  <SCORE.INTER.SOLV>
14.1891

>  <SCORE.INTER.VDW>
-19.378

>  <SCORE.INTER.norm>
-1.38104

>  <SCORE.INTRA>
0

>  <SCORE.INTRA.DIHEDRAL>
0

>  <SCORE.INTRA.DIHEDRAL.0>
0

>  <SCORE.INTRA.POLAR>
0

>  <SCORE.INTRA.POLAR.0>
0

>  <SCORE.INTRA.REPUL>
0

>  <SCORE.INTRA.REPUL.0>
0

>  <SCORE.INTRA.SOLV>
0

>  <SCORE.INTRA.SOLV.lig_0>
-28.9128

>  <SCORE.INTRA.VDW>
0

>  <SCORE.INTRA.VDW.0>
0

>  <SCORE.INTRA.norm>
0

>  <SCORE.RESTR>
0

>  <SCORE.RESTR.CAVITY>
0

>  <SCORE.RESTR.norm>
0

>  <SCORE.SYSTEM>
0

>  <SCORE.SYSTEM.CONST>
0

>  <SCORE.SYSTEM.DIHEDRAL>
0

>  <SCORE.SYSTEM.SOLV>
0

>  <SCORE.SYSTEM.norm>
0

>  <SCORE.heavy>
12

>  <SCORE.norm>
-1.38104

>  <RMSD>
0.669

$$$$
ligand
 OpenBabel11021811503D
libRbt.so/2013.1/901 2013/11/27
 12 13  0  0  0  0  0  0  0  0999 V2000
   31.1411   18.1643   14.0900 C   0  0  0  0  0  0  0  0  0  0  0  0
   30.0581   16.9461   15.8696 C   0  0  0  0  0  0  0  0  0  0  0  0
   31.4995   18.2803   12.8166 N   0  0  0  0  0  0  0  0  0  0  0  0
   31.4577   19.1428   14.9442 N   0  0  0  0  0  0  0  0  0  0  0  0
   30.4268   17.0352   14.5320 N   0  0  0  0  0  0  0  0  0  0  0  0
   29.4365   15.9521   16.2552 O   0  0  0  0  0  0  0  0  0  0  0  0
   30.4417   19.0031   18.9243 N   0  0  0  0  0  0  0  0  0  0  0  0
   31.1527   20.0963   18.4050 C   0  0  0  0  0  0  0  0  0  0  0  0
   31.4813   20.1180   17.0366 N   0  0  0  0  0  0  0  0  0  0  0  0
   31.1306   19.0875   16.2415 C   0  0  0  0  0  0  0  0  0  0  0  0
   30.4167   17.9854   16.7318 C   0  0  0  0  0  0  0  0  0  0  0  0
   30.0745   17.9320   18.0749 C   0  0  0  0  0  0  0  0  0  0  0  0
  1  3  1  0  0  0  0
  1  4  2  0  0  0  0
  1  5  1  0  0  0  0
  2  6  2  0  0  0  0
  2 11  1  0  0  0  0
  2  5  1  0  0  0  0
  4 10  1  0  0  0  0
  7  8  2  0  0  0  0
  7 12  1  0  0  0  0
  8  9  1  0  0  0  0
  9 10  2  0  0  0  0
 10 11  1  0  0  0  0
 11 12  2  0  0  0  0
M  END
>  <CHROM.1>
30.71504073,18.27787330,16.13039427,-1.48606833,1.04062346,1.15533583

>  <Name>
ligand

>  <RI>
0

>  <Rbt.Current_Directory>
/home/itssahil/PROJECTS/Mol_Feturizer/New_Systems/rnas/4LX6

>  <Rbt.Executable>
rbdock ($Id: //depot/dev/client3/rdock/2013.1/src/exe/rbdock.cxx#4 $)

>  <Rbt.Library>
libRbt.so (2013.1, Build901 2013/11/27)

>  <Rbt.Parameter_File>
/export/apps/rDock/src/rDock_2013.1_src/data/scripts/dock_solv.prm

>  <Rbt.Receptor>
prm/blind_docking_80.prm

>  <SCORE>
-16.5976

>  <SCORE.INTER>
-16.5976

>  <SCORE.INTER.CONST>
1

>  <SCORE.INTER.POLAR>
0

>  <SCORE.INTER.ROT>
0

>  <SCORE.INTER.SOLV>
14.1691

>  <SCORE.INTER.VDW>
-19.3881

>  <SCORE.INTER.norm>
-1.38313

>  <SCORE.INTRA>
0

>  <SCORE.INTRA.DIHEDRAL>
0

>  <SCORE.INTRA.DIHEDRAL.0>
0

>  <SCORE.INTRA.POLAR>
0

>  <SCORE.INTRA.POLAR.0>
0

>  <SCORE.INTRA.REPUL>
0

>  <SCORE.INTRA.REPUL.0>
0

>  <SCORE.INTRA.SOLV>
0

>  <SCORE.INTRA.SOLV.lig_0>
-28.9128

>  <SCORE.INTRA.VDW>
0

>  <SCORE.INTRA.VDW.0>
0

>  <SCORE.INTRA.norm>
0

>  <SCORE.RESTR>
0

>  <SCORE.RESTR.CAVITY>
0

>  <SCORE.RESTR.norm>
0

>  <SCORE.SYSTEM>
0

>  <SCORE.SYSTEM.CONST>
0

>  <SCORE.SYSTEM.DIHEDRAL>
0

>  <SCORE.SYSTEM.SOLV>
0

>  <SCORE.SYSTEM.norm>
0

>  <SCORE.heavy>
12

>  <SCORE.norm>
-1.38313

>  <RMSD>
0.669

$$$$
ligand
 OpenBabel11021811503D
libRbt.so/2013.1/901 2013/11/27
 12 13  0  0  0  0  0  0  0  0999 V2000
   31.1362   18.1659   14.0880 C   0  0  0  0  0  0  0  0  0  0  0  0
   30.0523   16.9485   15.8677 C   0  0  0  0  0  0  0  0  0  0  0  0
   31.4944   18.2818   12.8145 N   0  0  0  0  0  0  0  0  0  0  0  0
   31.4544   19.1437   14.9424 N   0  0  0  0  0  0  0  0  0  0  0  0
   30.4206   17.0375   14.5300 N   0  0  0  0  0  0  0  0  0  0  0  0
   29.4296   15.9552   16.2531 O   0  0  0  0  0  0  0  0  0  0  0  0
   30.4397   19.0041   18.9229 N   0  0  0  0  0  0  0  0  0  0  0  0
   31.1520   20.0965   18.4037 C   0  0  0  0  0  0  0  0  0  0  0  0
   31.4801   20.1182   17.0351 N   0  0  0  0  0  0  0  0  0  0  0  0
   31.1278   19.0884   16.2398 C   0  0  0  0  0  0  0  0  0  0  0  0
   30.4126   17.9871   16.7300 C   0  0  0  0  0  0  0  0  0  0  0  0
   30.0708   17.9337   18.0732 C   0  0  0  0  0  0  0  0  0  0  0  0
  1  3  1  0  0  0  0
  1  4  2  0  0  0  0
  1  5  1  0  0  0  0
  2  6  2  0  0  0  0
  2 11  1  0  0  0  0
  2  5  1  0  0  0  0
  4 10  1  0  0  0  0
  7  8  2  0  0  0  0
  7 12  1  0  0  0  0
  8  9  1  0  0  0  0
  9 10  2  0  0  0  0
 10 11  1  0  0  0  0
 11 12  2  0  0  0  0
M  END
>  <CHROM.1>
30.71110136,18.27937308,16.12859371,-1.48774214,1.03957826,1.15708604

>  <Name>
ligand

>  <RI>
0

>  <Rbt.Current_Directory>
/home/itssahil/PROJECTS/Mol_Feturizer/New_Systems/rnas/4LX6

>  <Rbt.Executable>
rbdock ($Id: //depot/dev/client3/rdock/2013.1/src/exe/rbdock.cxx#4 $)

>  <Rbt.Library>
libRbt.so (2013.1, Build901 2013/11/27)

>  <Rbt.Parameter_File>
/export/apps/rDock/src/rDock_2013.1_src/data/scripts/dock_solv.prm

>  <Rbt.Receptor>
prm/pocket_docking_4.prm

>  <SCORE>
-16.5951

>  <SCORE.INTER>
-16.5951

>  <SCORE.INTER.CONST>
1

>  <SCORE.INTER.POLAR>
0

>  <SCORE.INTER.ROT>
0

>  <SCORE.INTER.SOLV>
14.1566

>  <SCORE.INTER.VDW>
-19.3823

>  <SCORE.INTER.norm>
-1.38293

>  <SCORE.INTRA>
0

>  <SCORE.INTRA.DIHEDRAL>
0

>  <SCORE.INTRA.DIHEDRAL.0>
0

>  <SCORE.INTRA.POLAR>
0

>  <SCORE.INTRA.POLAR.0>
0

>  <SCORE.INTRA.REPUL>
0

>  <SCORE.INTRA.REPUL.0>
0

>  <SCORE.INTRA.SOLV>
0

>  <SCORE.INTRA.SOLV.lig_0>
-28.9128

>  <SCORE.INTRA.VDW>
0

>  <SCORE.INTRA.VDW.0>
0

>  <SCORE.INTRA.norm>
0

>  <SCORE.RESTR>
0

>  <SCORE.RESTR.CAVITY>
0

>  <SCORE.RESTR.norm>
0

>  <SCORE.SYSTEM>
0

>  <SCORE.SYSTEM.CONST>
0

>  <SCORE.SYSTEM.DIHEDRAL>
0

>  <SCORE.SYSTEM.SOLV>
0

>  <SCORE.SYSTEM.norm>
0

>  <SCORE.heavy>
12

>  <SCORE.norm>
-1.38293

>  <RMSD>
0.669

$$$$
ligand
 OpenBabel11021811503D
libRbt.so/2013.1/901 2013/11/27
 12 13  0  0  0  0  0  0  0  0999 V2000
   31.1462   18.1634   14.0875 C   0  0  0  0  0  0  0  0  0  0  0  0
   30.0863   16.9325   15.8724 C   0  0  0  0  0  0  0  0  0  0  0  0
   31.4994   18.2823   12.8129 N   0  0  0  0  0  0  0  0  0  0  0  0
   31.4504   19.1481   14.9390 N   0  0  0  0  0  0  0  0  0  0  0  0
   30.4500   17.0245   14.5336 N   0  0  0  0  0  0  0  0  0  0  0  0
   29.4807   15.9301   16.2615 O   0  0  0  0  0  0  0  0  0  0  0  0
   30.4474   19.0009   18.9221 N   0  0  0  0  0  0  0  0  0  0  0  0
   31.1406   20.1037   18.3988 C   0  0  0  0  0  0  0  0  0  0  0  0
   31.4652   20.1276   17.0295 N   0  0  0  0  0  0  0  0  0  0  0  0
   31.1277   19.0904   16.2372 C   0  0  0  0  0  0  0  0  0  0  0  0
   30.4317   17.9788   16.7316 C   0  0  0  0  0  0  0  0  0  0  0  0
   30.0939   17.9229   18.0757 C   0  0  0  0  0  0  0  0  0  0  0  0
  1  3  1  0  0  0  0
  1  4  2  0  0  0  0
  1  5  1  0  0  0  0
  2  6  2  0  0  0  0
  2 11  1  0  0  0  0
  2  5  1  0  0  0  0
  4 10  1  0  0  0  0
  7  8  2  0  0  0  0
  7 12  1  0  0  0  0
  8  9  1  0  0  0  0
  9 10  2  0  0  0  0
 10 11  1  0  0  0  0
 11 12  2  0  0  0  0
M  END
>  <CHROM.1>
30.72398402,18.27449430,16.12883017,-1.47883869,1.05535977,1.14715885

>  <Name>
ligand

>  <RI>
0

>  <Rbt.Current_Directory>
/home/itssahil/PROJECTS/Mol_Feturizer/New_Systems/rnas/4LX6

>  <Rbt.Executable>
rbdock ($Id: //depot/dev/client3/rdock/2013.1/src/exe/rbdock.cxx#4 $)

>  <Rbt.Library>
libRbt.so (2013.1, Build901 2013/11/27)

>  <Rbt.Parameter_File>
/export/apps/rDock/src/rDock_2013.1_src/data/scripts/dock_solv.prm

>  <Rbt.Receptor>
prm/blind_docking_80.prm

>  <SCORE>
-16.6214

>  <SCORE.INTER>
-16.6214

>  <SCORE.INTER.CONST>
1

>  <SCORE.INTER.POLAR>
0

>  <SCORE.INTER.ROT>
0

>  <SCORE.INTER.SOLV>
14.2327

>  <SCORE.INTER.VDW>
-19.4252

>  <SCORE.INTER.norm>
-1.38512

>  <SCORE.INTRA>
0

>  <SCORE.INTRA.DIHEDRAL>
0

>  <SCORE.INTRA.DIHEDRAL.0>
0

>  <SCORE.INTRA.POLAR>
0

>  <SCORE.INTRA.POLAR.0>
0

>  <SCORE.INTRA.REPUL>
0

>  <SCORE.INTRA.REPUL.0>
0

>  <SCORE.INTRA.SOLV>
0

>  <SCORE.INTRA.SOLV.lig_0>
-28.9128

>  <SCORE.INTRA.VDW>
0

>  <SCORE.INTRA.VDW.0>
0

>  <SCORE.INTRA.norm>
0

>  <SCORE.RESTR>
0

>  <SCORE.RESTR.CAVITY>
0

>  <SCORE.RESTR.norm>
0

>  <SCORE.SYSTEM>
0

>  <SCORE.SYSTEM.CONST>
0

>  <SCORE.SYSTEM.DIHEDRAL>
0

>  <SCORE.SYSTEM.SOLV>
0

>  <SCORE.SYSTEM.norm>
0

>  <SCORE.heavy>
12

>  <SCORE.norm>
-1.38512

>  <RMSD>
0.670

$$$$
ligand
 OpenBabel11021811503D
libRbt.so/2013.1/901 2013/11/27
 12 13  0  0  0  0  0  0  0  0999 V2000
   31.1406   18.1623   14.0847 C   0  0  0  0  0  0  0  0  0  0  0  0
   30.0844   16.9308   15.8712 C   0  0  0  0  0  0  0  0  0  0  0  0
   31.4912   18.2817   12.8094 N   0  0  0  0  0  0  0  0  0  0  0  0
   31.4467   19.1467   14.9359 N   0  0  0  0  0  0  0  0  0  0  0  0
   30.4453   17.0233   14.5318 N   0  0  0  0  0  0  0  0  0  0  0  0
   29.4796   15.9282   16.2612 O   0  0  0  0  0  0  0  0  0  0  0  0
   30.4519   18.9980   18.9210 N   0  0  0  0  0  0  0  0  0  0  0  0
   31.1440   20.1009   18.3968 C   0  0  0  0  0  0  0  0  0  0  0  0
   31.4658   20.1253   17.0267 N   0  0  0  0  0  0  0  0  0  0  0  0
   31.1267   19.0885   16.2348 C   0  0  0  0  0  0  0  0  0  0  0  0
   30.4316   17.9767   16.7301 C   0  0  0  0  0  0  0  0  0  0  0  0
   30.0966   17.9202   18.0749 C   0  0  0  0  0  0  0  0  0  0  0  0
  1  3  1  0  0  0  0
  1  4  2  0  0  0  0
  1  5  1  0  0  0  0
  2  6  2  0  0  0  0
  2 11  1  0  0  0  0
  2  5  1  0  0  0  0
  4 10  1  0  0  0  0
  7  8  2  0  0  0  0
  7 12  1  0  0  0  0
  8  9  1  0  0  0  0
  9 10  2  0  0  0  0
 10 11  1  0  0  0  0
 11 12  2  0  0  0  0
M  END
>  <CHROM.1>
30.72266419,18.27262728,16.12688910,-1.48266899,1.05617623,1.15088407

>  <Name>
ligand

>  <RI>
0

>  <Rbt.Current_Directory>
/home/itssahil/PROJECTS/Mol_Feturizer/New_Systems/rnas/4LX6

>  <Rbt.Executable>
rbdock ($Id: //depot/dev/client3/rdock/2013.1/src/exe/rbdock.cxx#4 $)

>  <Rbt.Library>
libRbt.so (2013.1, Build901 2013/11/27)

>  <Rbt.Parameter_File>
/export/apps/rDock/src/rDock_2013.1_src/data/scripts/dock_solv.prm

>  <Rbt.Receptor>
prm/pocket_docking_3.prm

>  <SCORE>
-16.6215

>  <SCORE.INTER>
-16.6215

>  <SCORE.INTER.CONST>
1

>  <SCORE.INTER.POLAR>
0

>  <SCORE.INTER.ROT>
0

>  <SCORE.INTER.SOLV>
14.216

>  <SCORE.INTER.VDW>
-19.4197

>  <SCORE.INTER.norm>
-1.38513

>  <SCORE.INTRA>
0

>  <SCORE.INTRA.DIHEDRAL>
0

>  <SCORE.INTRA.DIHEDRAL.0>
0

>  <SCORE.INTRA.POLAR>
0

>  <SCORE.INTRA.POLAR.0>
0

>  <SCORE.INTRA.REPUL>
0

>  <SCORE.INTRA.REPUL.0>
0

>  <SCORE.INTRA.SOLV>
0

>  <SCORE.INTRA.SOLV.lig_0>
-28.9128

>  <SCORE.INTRA.VDW>
0

>  <SCORE.INTRA.VDW.0>
0

>  <SCORE.INTRA.norm>
0

>  <SCORE.RESTR>
0

>  <SCORE.RESTR.CAVITY>
0

>  <SCORE.RESTR.norm>
0

>  <SCORE.SYSTEM>
0

>  <SCORE.SYSTEM.CONST>
0

>  <SCORE.SYSTEM.DIHEDRAL>
0

>  <SCORE.SYSTEM.SOLV>
0

>  <SCORE.SYSTEM.norm>
0

>  <SCORE.heavy>
12

>  <SCORE.norm>
-1.38513

>  <RMSD>
0.670

$$$$
ligand
 OpenBabel11021811503D
libRbt.so/2013.1/901 2013/11/27
 12 13  0  0  0  0  0  0  0  0999 V2000
   31.1342   18.1647   14.0877 C   0  0  0  0  0  0  0  0  0  0  0  0
   30.0608   16.9428   15.8707 C   0  0  0  0  0  0  0  0  0  0  0  0
   31.4884   18.2818   12.8132 N   0  0  0  0  0  0  0  0  0  0  0  0
   31.4498   19.1444   14.9407 N   0  0  0  0  0  0  0  0  0  0  0  0
   30.4252   17.0330   14.5320 N   0  0  0  0  0  0  0  0  0  0  0  0
   29.4440   15.9467   16.2582 O   0  0  0  0  0  0  0  0  0  0  0  0
   30.4461   19.0017   18.9239 N   0  0  0  0  0  0  0  0  0  0  0  0
   31.1516   20.0974   18.4023 C   0  0  0  0  0  0  0  0  0  0  0  0
   31.4761   20.1200   17.0329 N   0  0  0  0  0  0  0  0  0  0  0  0
   31.1268   19.0881   16.2390 C   0  0  0  0  0  0  0  0  0  0  0  0
   30.4183   17.9836   16.7316 C   0  0  0  0  0  0  0  0  0  0  0  0
   30.0802   17.9292   18.0757 C   0  0  0  0  0  0  0  0  0  0  0  0
  1  3  1  0  0  0  0
  1  4  2  0  0  0  0
  1  5  1  0  0  0  0
  2  6  2  0  0  0  0
  2 11  1  0  0  0  0
  2  5  1  0  0  0  0
  4 10  1  0  0  0  0
  7  8  2  0  0  0  0
  7 12  1  0  0  0  0
  8  9  1  0  0  0  0
  9 10  2  0  0  0  0
 10 11  1  0  0  0  0
 11 12  2  0  0  0  0
M  END
>  <CHROM.1>
30.71375707,18.27704935,16.12926400,-1.48854006,1.04509525,1.15730634

>  <Name>
ligand

>  <RI>
0

>  <Rbt.Current_Directory>
/home/itssahil/PROJECTS/Mol_Feturizer/New_Systems/rnas/4LX6

>  <Rbt.Executable>
rbdock ($Id: //depot/dev/client3/rdock/2013.1/src/exe/rbdock.cxx#4 $)

>  <Rbt.Library>
libRbt.so (2013.1, Build901 2013/11/27)

>  <Rbt.Parameter_File>
/export/apps/rDock/src/rDock_2013.1_src/data/scripts/dock_solv.prm

>  <Rbt.Receptor>
prm/blind_docking_100.prm

>  <SCORE>
-16.596

>  <SCORE.INTER>
-16.596

>  <SCORE.INTER.CONST>
1

>  <SCORE.INTER.POLAR>
0

>  <SCORE.INTER.ROT>
0

>  <SCORE.INTER.SOLV>
14.1655

>  <SCORE.INTER.VDW>
-19.3858

>  <SCORE.INTER.norm>
-1.383

>  <SCORE.INTRA>
0

>  <SCORE.INTRA.DIHEDRAL>
0

>  <SCORE.INTRA.DIHEDRAL.0>
0

>  <SCORE.INTRA.POLAR>
0

>  <SCORE.INTRA.POLAR.0>
0

>  <SCORE.INTRA.REPUL>
0

>  <SCORE.INTRA.REPUL.0>
0

>  <SCORE.INTRA.SOLV>
0

>  <SCORE.INTRA.SOLV.lig_0>
-28.9128

>  <SCORE.INTRA.VDW>
0

>  <SCORE.INTRA.VDW.0>
0

>  <SCORE.INTRA.norm>
0

>  <SCORE.RESTR>
0

>  <SCORE.RESTR.CAVITY>
0

>  <SCORE.RESTR.norm>
0

>  <SCORE.SYSTEM>
0

>  <SCORE.SYSTEM.CONST>
0

>  <SCORE.SYSTEM.DIHEDRAL>
0

>  <SCORE.SYSTEM.SOLV>
0

>  <SCORE.SYSTEM.norm>
0

>  <SCORE.heavy>
12

>  <SCORE.norm>
-1.383

>  <RMSD>
0.671

$$$$
ligand
 OpenBabel11021811503D
libRbt.so/2013.1/901 2013/11/27
 12 13  0  0  0  0  0  0  0  0999 V2000
   31.1475   18.1639   14.0906 C   0  0  0  0  0  0  0  0  0  0  0  0
   30.0858   16.9340   15.8751 C   0  0  0  0  0  0  0  0  0  0  0  0
   31.5004   18.2830   12.8159 N   0  0  0  0  0  0  0  0  0  0  0  0
   31.4541   19.1475   14.9426 N   0  0  0  0  0  0  0  0  0  0  0  0
   30.4492   17.0262   14.5362 N   0  0  0  0  0  0  0  0  0  0  0  0
   29.4784   15.9326   16.2637 O   0  0  0  0  0  0  0  0  0  0  0  0
   30.4524   18.9997   18.9260 N   0  0  0  0  0  0  0  0  0  0  0  0
   31.1476   20.1013   18.4032 C   0  0  0  0  0  0  0  0  0  0  0  0
   31.4717   20.1255   17.0337 N   0  0  0  0  0  0  0  0  0  0  0  0
   31.1318   19.0895   16.2409 C   0  0  0  0  0  0  0  0  0  0  0  0
   30.4337   17.9790   16.7348 C   0  0  0  0  0  0  0  0  0  0  0  0
   30.0964   17.9229   18.0791 C   0  0  0  0  0  0  0  0  0  0  0  0
  1  3  1  0  0  0  0
  1  4  2  0  0  0  0
  1  5  1  0  0  0  0
  2  6  2  0  0  0  0
  2 11  1  0  0  0  0
  2  5  1  0  0  0  0
  4 10  1  0  0  0  0
  7  8  2  0  0  0  0
  7 12  1  0  0  0  0
  8  9  1  0  0  0  0
  9 10  2  0  0  0  0
 10 11  1  0  0  0  0
 11 12  2  0  0  0  0
M  END
>  <CHROM.1>
30.72636671,18.27453071,16.13213478,-1.48128224,1.05367877,1.14995448

>  <Name>
ligand

>  <RI>
0

>  <Rbt.Current_Directory>
/home/itssahil/PROJECTS/Mol_Feturizer/New_Systems/rnas/4LX6

>  <Rbt.Executable>
rbdock ($Id: //depot/dev/client3/rdock/2013.1/src/exe/rbdock.cxx#4 $)

>  <Rbt.Library>
libRbt.so (2013.1, Build901 2013/11/27)

>  <Rbt.Parameter_File>
/export/apps/rDock/src/rDock_2013.1_src/data/scripts/dock_solv.prm

>  <Rbt.Receptor>
prm/blind_docking_60.prm

>  <SCORE>
-16.622

>  <SCORE.INTER>
-16.622

>  <SCORE.INTER.CONST>
1

>  <SCORE.INTER.POLAR>
0

>  <SCORE.INTER.ROT>
0

>  <SCORE.INTER.SOLV>
14.2281

>  <SCORE.INTER.VDW>
-19.424

>  <SCORE.INTER.norm>
-1.38517

>  <SCORE.INTRA>
0

>  <SCORE.INTRA.DIHEDRAL>
0

>  <SCORE.INTRA.DIHEDRAL.0>
0

>  <SCORE.INTRA.POLAR>
0

>  <SCORE.INTRA.POLAR.0>
0

>  <SCORE.INTRA.REPUL>
0

>  <SCORE.INTRA.REPUL.0>
0

>  <SCORE.INTRA.SOLV>
0

>  <SCORE.INTRA.SOLV.lig_0>
-28.9128

>  <SCORE.INTRA.VDW>
0

>  <SCORE.INTRA.VDW.0>
0

>  <SCORE.INTRA.norm>
0

>  <SCORE.RESTR>
0

>  <SCORE.RESTR.CAVITY>
0

>  <SCORE.RESTR.norm>
0

>  <SCORE.SYSTEM>
0

>  <SCORE.SYSTEM.CONST>
0

>  <SCORE.SYSTEM.DIHEDRAL>
0

>  <SCORE.SYSTEM.SOLV>
0

>  <SCORE.SYSTEM.norm>
0

>  <SCORE.heavy>
12

>  <SCORE.norm>
-1.38517

>  <RMSD>
0.671

$$$$
ligand
 OpenBabel11021811503D
libRbt.so/2013.1/901 2013/11/27
 12 13  0  0  0  0  0  0  0  0999 V2000
   31.1389   18.1620   14.0841 C   0  0  0  0  0  0  0  0  0  0  0  0
   30.0842   16.9314   15.8722 C   0  0  0  0  0  0  0  0  0  0  0  0
   31.4889   18.2806   12.8086 N   0  0  0  0  0  0  0  0  0  0  0  0
   31.4448   19.1474   14.9344 N   0  0  0  0  0  0  0  0  0  0  0  0
   30.4445   17.0230   14.5325 N   0  0  0  0  0  0  0  0  0  0  0  0
   29.4801   15.9289   16.2633 O   0  0  0  0  0  0  0  0  0  0  0  0
   30.4518   19.0014   18.9201 N   0  0  0  0  0  0  0  0  0  0  0  0
   31.1431   20.1043   18.3946 C   0  0  0  0  0  0  0  0  0  0  0  0
   31.4642   20.1278   17.0244 N   0  0  0  0  0  0  0  0  0  0  0  0
   31.1254   19.0900   16.2335 C   0  0  0  0  0  0  0  0  0  0  0  0
   30.4312   17.9783   16.7300 C   0  0  0  0  0  0  0  0  0  0  0  0
   30.0968   17.9228   18.0751 C   0  0  0  0  0  0  0  0  0  0  0  0
  1  3  1  0  0  0  0
  1  4  2  0  0  0  0
  1  5  1  0  0  0  0
  2  6  2  0  0  0  0
  2 11  1  0  0  0  0
  2  5  1  0  0  0  0
  4 10  1  0  0  0  0
  7  8  2  0  0  0  0
  7 12  1  0  0  0  0
  8  9  1  0  0  0  0
  9 10  2  0  0  0  0
 10 11  1  0  0  0  0
 11 12  2  0  0  0  0
M  END
>  <CHROM.1>
30.72179087,18.27386810,16.12643820,-1.48303382,1.05688494,1.15036026

>  <Name>
ligand

>  <RI>
0

>  <Rbt.Current_Directory>
/home/itssahil/PROJECTS/Mol_Feturizer/New_Systems/rnas/4LX6

>  <Rbt.Executable>
rbdock ($Id: //depot/dev/client3/rdock/2013.1/src/exe/rbdock.cxx#4 $)

>  <Rbt.Library>
libRbt.so (2013.1, Build901 2013/11/27)

>  <Rbt.Parameter_File>
/export/apps/rDock/src/rDock_2013.1_src/data/scripts/dock_solv.prm

>  <Rbt.Receptor>
prm/pocket_docking_3.prm

>  <SCORE>
-16.6196

>  <SCORE.INTER>
-16.6196

>  <SCORE.INTER.CONST>
1

>  <SCORE.INTER.POLAR>
0

>  <SCORE.INTER.ROT>
0

>  <SCORE.INTER.SOLV>
14.2143

>  <SCORE.INTER.VDW>
-19.4178

>  <SCORE.INTER.norm>
-1.38497

>  <SCORE.INTRA>
0

>  <SCORE.INTRA.DIHEDRAL>
0

>  <SCORE.INTRA.DIHEDRAL.0>
0

>  <SCORE.INTRA.POLAR>
0

>  <SCORE.INTRA.POLAR.0>
0

>  <SCORE.INTRA.REPUL>
0

>  <SCORE.INTRA.REPUL.0>
0

>  <SCORE.INTRA.SOLV>
0

>  <SCORE.INTRA.SOLV.lig_0>
-28.9128

>  <SCORE.INTRA.VDW>
0

>  <SCORE.INTRA.VDW.0>
0

>  <SCORE.INTRA.norm>
0

>  <SCORE.RESTR>
0

>  <SCORE.RESTR.CAVITY>
0

>  <SCORE.RESTR.norm>
0

>  <SCORE.SYSTEM>
0

>  <SCORE.SYSTEM.CONST>
0

>  <SCORE.SYSTEM.DIHEDRAL>
0

>  <SCORE.SYSTEM.SOLV>
0

>  <SCORE.SYSTEM.norm>
0

>  <SCORE.heavy>
12

>  <SCORE.norm>
-1.38497

>  <RMSD>
0.671

$$$$
ligand
 OpenBabel11021811503D
libRbt.so/2013.1/901 2013/11/27
 12 13  0  0  0  0  0  0  0  0999 V2000
   31.1353   18.1659   14.0901 C   0  0  0  0  0  0  0  0  0  0  0  0
   30.0516   16.9481   15.8696 C   0  0  0  0  0  0  0  0  0  0  0  0
   31.4933   18.2821   12.8166 N   0  0  0  0  0  0  0  0  0  0  0  0
   31.4536   19.1435   14.9446 N   0  0  0  0  0  0  0  0  0  0  0  0
   30.4197   17.0374   14.5318 N   0  0  0  0  0  0  0  0  0  0  0  0
   29.4289   15.9547   16.2548 O   0  0  0  0  0  0  0  0  0  0  0  0
   30.4393   19.0030   18.9252 N   0  0  0  0  0  0  0  0  0  0  0  0
   31.1515   20.0955   18.4062 C   0  0  0  0  0  0  0  0  0  0  0  0
   31.4795   20.1175   17.0376 N   0  0  0  0  0  0  0  0  0  0  0  0
   31.1271   19.0879   16.2420 C   0  0  0  0  0  0  0  0  0  0  0  0
   30.4120   17.9865   16.7321 C   0  0  0  0  0  0  0  0  0  0  0  0
   30.0702   17.9328   18.0753 C   0  0  0  0  0  0  0  0  0  0  0  0
  1  3  1  0  0  0  0
  1  4  2  0  0  0  0
  1  5  1  0  0  0  0
  2  6  2  0  0  0  0
  2 11  1  0  0  0  0
  2  5  1  0  0  0  0
  4 10  1  0  0  0  0
  7  8  2  0  0  0  0
  7 12  1  0  0  0  0
  8  9  1  0  0  0  0
  9 10  2  0  0  0  0
 10 11  1  0  0  0  0
 11 12  2  0  0  0  0
M  END
>  <CHROM.1>
30.71038019,18.27888128,16.13072649,-1.48791747,1.03960012,1.15746467

>  <Name>
ligand

>  <RI>
0

>  <Rbt.Current_Directory>
/home/itssahil/PROJECTS/Mol_Feturizer/New_Systems/rnas/4LX6

>  <Rbt.Executable>
rbdock ($Id: //depot/dev/client3/rdock/2013.1/src/exe/rbdock.cxx#4 $)

>  <Rbt.Library>
libRbt.so (2013.1, Build901 2013/11/27)

>  <Rbt.Parameter_File>
/export/apps/rDock/src/rDock_2013.1_src/data/scripts/dock_solv.prm

>  <Rbt.Receptor>
prm/pocket_docking_7.prm

>  <SCORE>
-16.5962

>  <SCORE.INTER>
-16.5962

>  <SCORE.INTER.CONST>
1

>  <SCORE.INTER.POLAR>
0

>  <SCORE.INTER.ROT>
0

>  <SCORE.INTER.SOLV>
14.1537

>  <SCORE.INTER.VDW>
-19.382

>  <SCORE.INTER.norm>
-1.38302

>  <SCORE.INTRA>
0

>  <SCORE.INTRA.DIHEDRAL>
0

>  <SCORE.INTRA.DIHEDRAL.0>
0

>  <SCORE.INTRA.POLAR>
0

>  <SCORE.INTRA.POLAR.0>
0

>  <SCORE.INTRA.REPUL>
0

>  <SCORE.INTRA.REPUL.0>
0

>  <SCORE.INTRA.SOLV>
0

>  <SCORE.INTRA.SOLV.lig_0>
-28.9128

>  <SCORE.INTRA.VDW>
0

>  <SCORE.INTRA.VDW.0>
0

>  <SCORE.INTRA.norm>
0

>  <SCORE.RESTR>
0

>  <SCORE.RESTR.CAVITY>
0

>  <SCORE.RESTR.norm>
0

>  <SCORE.SYSTEM>
0

>  <SCORE.SYSTEM.CONST>
0

>  <SCORE.SYSTEM.DIHEDRAL>
0

>  <SCORE.SYSTEM.SOLV>
0

>  <SCORE.SYSTEM.norm>
0

>  <SCORE.heavy>
12

>  <SCORE.norm>
-1.38302

>  <RMSD>
0.671

$$$$
ligand
 OpenBabel11021811503D
libRbt.so/2013.1/901 2013/11/27
 12 13  0  0  0  0  0  0  0  0999 V2000
   31.1320   18.1660   14.0914 C   0  0  0  0  0  0  0  0  0  0  0  0
   30.0566   16.9444   15.8733 C   0  0  0  0  0  0  0  0  0  0  0  0
   31.4861   18.2838   12.8170 N   0  0  0  0  0  0  0  0  0  0  0  0
   31.4499   19.1441   14.9455 N   0  0  0  0  0  0  0  0  0  0  0  0
   30.4208   17.0354   14.5346 N   0  0  0  0  0  0  0  0  0  0  0  0
   29.4378   15.9491   16.2599 O   0  0  0  0  0  0  0  0  0  0  0  0
   30.4471   18.9990   18.9288 N   0  0  0  0  0  0  0  0  0  0  0  0
   31.1548   20.0938   18.4083 C   0  0  0  0  0  0  0  0  0  0  0  0
   31.4789   20.1173   17.0388 N   0  0  0  0  0  0  0  0  0  0  0  0
   31.1272   19.0870   16.2438 C   0  0  0  0  0  0  0  0  0  0  0  0
   30.4165   17.9834   16.7353 C   0  0  0  0  0  0  0  0  0  0  0  0
   30.0787   17.9282   18.0795 C   0  0  0  0  0  0  0  0  0  0  0  0
  1  3  1  0  0  0  0
  1  4  2  0  0  0  0
  1  5  1  0  0  0  0
  2  6  2  0  0  0  0
  2 11  1  0  0  0  0
  2  5  1  0  0  0  0
  4 10  1  0  0  0  0
  7  8  2  0  0  0  0
  7 12  1  0  0  0  0
  8  9  1  0  0  0  0
  9 10  2  0  0  0  0
 10 11  1  0  0  0  0
 11 12  2  0  0  0  0
M  END
>  <CHROM.1>
30.71241594,18.27692254,16.13328325,-1.49077032,1.04327409,1.16038281

>  <Name>
ligand

>  <RI>
0

>  <Rbt.Current_Directory>
/home/itssahil/PROJECTS/Mol_Feturizer/New_Systems/rnas/4LX6

>  <Rbt.Executable>
rbdock ($Id: //depot/dev/client3/rdock/2013.1/src/exe/rbdock.cxx#4 $)

>  <Rbt.Library>
libRbt.so (2013.1, Build901 2013/11/27)

>  <Rbt.Parameter_File>
/export/apps/rDock/src/rDock_2013.1_src/data/scripts/dock_solv.prm

>  <Rbt.Receptor>
prm/blind_docking_80.prm

>  <SCORE>
-16.5971

>  <SCORE.INTER>
-16.5971

>  <SCORE.INTER.CONST>
1

>  <SCORE.INTER.POLAR>
0

>  <SCORE.INTER.ROT>
0

>  <SCORE.INTER.SOLV>
14.1534

>  <SCORE.INTER.VDW>
-19.3825

>  <SCORE.INTER.norm>
-1.38309

>  <SCORE.INTRA>
0

>  <SCORE.INTRA.DIHEDRAL>
0

>  <SCORE.INTRA.DIHEDRAL.0>
0

>  <SCORE.INTRA.POLAR>
0

>  <SCORE.INTRA.POLAR.0>
0

>  <SCORE.INTRA.REPUL>
0

>  <SCORE.INTRA.REPUL.0>
0

>  <SCORE.INTRA.SOLV>
0

>  <SCORE.INTRA.SOLV.lig_0>
-28.9128

>  <SCORE.INTRA.VDW>
0

>  <SCORE.INTRA.VDW.0>
0

>  <SCORE.INTRA.norm>
0

>  <SCORE.RESTR>
0

>  <SCORE.RESTR.CAVITY>
0

>  <SCORE.RESTR.norm>
0

>  <SCORE.SYSTEM>
0

>  <SCORE.SYSTEM.CONST>
0

>  <SCORE.SYSTEM.DIHEDRAL>
0

>  <SCORE.SYSTEM.SOLV>
0

>  <SCORE.SYSTEM.norm>
0

>  <SCORE.heavy>
12

>  <SCORE.norm>
-1.38309

>  <RMSD>
0.673

$$$$
ligand
 OpenBabel11021811503D
libRbt.so/2013.1/901 2013/11/27
 12 13  0  0  0  0  0  0  0  0999 V2000
   31.1439   18.1656   14.0908 C   0  0  0  0  0  0  0  0  0  0  0  0
   30.0867   16.9349   15.8774 C   0  0  0  0  0  0  0  0  0  0  0  0
   31.4927   18.2858   12.8151 N   0  0  0  0  0  0  0  0  0  0  0  0
   31.4547   19.1478   14.9430 N   0  0  0  0  0  0  0  0  0  0  0  0
   30.4456   17.0283   14.5374 N   0  0  0  0  0  0  0  0  0  0  0  0
   29.4793   15.9338   16.2668 O   0  0  0  0  0  0  0  0  0  0  0  0
   30.4664   18.9963   18.9296 N   0  0  0  0  0  0  0  0  0  0  0  0
   31.1613   20.0977   18.4058 C   0  0  0  0  0  0  0  0  0  0  0  0
   31.4807   20.1231   17.0352 N   0  0  0  0  0  0  0  0  0  0  0  0
   31.1368   19.0886   16.2423 C   0  0  0  0  0  0  0  0  0  0  0  0
   30.4389   17.9784   16.7372 C   0  0  0  0  0  0  0  0  0  0  0  0
   30.1061   17.9210   18.0825 C   0  0  0  0  0  0  0  0  0  0  0  0
  1  3  1  0  0  0  0
  1  4  2  0  0  0  0
  1  5  1  0  0  0  0
  2  6  2  0  0  0  0
  2 11  1  0  0  0  0
  2  5  1  0  0  0  0
  4 10  1  0  0  0  0
  7  8  2  0  0  0  0
  7 12  1  0  0  0  0
  8  9  1  0  0  0  0
  9 10  2  0  0  0  0
 10 11  1  0  0  0  0
 11 12  2  0  0  0  0
M  END
>  <CHROM.1>
30.72990027,18.27428258,16.13391373,-1.48863932,1.05384481,1.15758787

>  <Name>
ligand

>  <RI>
0

>  <Rbt.Current_Directory>
/home/itssahil/PROJECTS/Mol_Feturizer/New_Systems/rnas/4LX6

>  <Rbt.Executable>
rbdock ($Id: //depot/dev/client3/rdock/2013.1/src/exe/rbdock.cxx#4 $)

>  <Rbt.Library>
libRbt.so (2013.1, Build901 2013/11/27)

>  <Rbt.Parameter_File>
/export/apps/rDock/src/rDock_2013.1_src/data/scripts/dock_solv.prm

>  <Rbt.Receptor>
prm/blind_docking_100.prm

>  <SCORE>
-16.6148

>  <SCORE.INTER>
-16.6148

>  <SCORE.INTER.CONST>
1

>  <SCORE.INTER.POLAR>
0

>  <SCORE.INTER.ROT>
0

>  <SCORE.INTER.SOLV>
14.2149

>  <SCORE.INTER.VDW>
-19.4148

>  <SCORE.INTER.norm>
-1.38457

>  <SCORE.INTRA>
0

>  <SCORE.INTRA.DIHEDRAL>
0

>  <SCORE.INTRA.DIHEDRAL.0>
0

>  <SCORE.INTRA.POLAR>
0

>  <SCORE.INTRA.POLAR.0>
0

>  <SCORE.INTRA.REPUL>
0

>  <SCORE.INTRA.REPUL.0>
0

>  <SCORE.INTRA.SOLV>
0

>  <SCORE.INTRA.SOLV.lig_0>
-28.9128

>  <SCORE.INTRA.VDW>
0

>  <SCORE.INTRA.VDW.0>
0

>  <SCORE.INTRA.norm>
0

>  <SCORE.RESTR>
0

>  <SCORE.RESTR.CAVITY>
0

>  <SCORE.RESTR.norm>
0

>  <SCORE.SYSTEM>
0

>  <SCORE.SYSTEM.CONST>
0

>  <SCORE.SYSTEM.DIHEDRAL>
0

>  <SCORE.SYSTEM.SOLV>
0

>  <SCORE.SYSTEM.norm>
0

>  <SCORE.heavy>
12

>  <SCORE.norm>
-1.38457

>  <RMSD>
0.674

$$$$
ligand
 OpenBabel11021811503D
libRbt.so/2013.1/901 2013/11/27
 12 13  0  0  0  0  0  0  0  0999 V2000
   31.1388   18.1527   14.1011 C   0  0  0  0  0  0  0  0  0  0  0  0
   30.0611   16.9392   15.8872 C   0  0  0  0  0  0  0  0  0  0  0  0
   31.4949   18.2645   12.8267 N   0  0  0  0  0  0  0  0  0  0  0  0
   31.4549   19.1350   14.9510 N   0  0  0  0  0  0  0  0  0  0  0  0
   30.4274   17.0239   14.5486 N   0  0  0  0  0  0  0  0  0  0  0  0
   29.4421   15.9455   16.2775 O   0  0  0  0  0  0  0  0  0  0  0  0
   30.4458   19.0087   18.9333 N   0  0  0  0  0  0  0  0  0  0  0  0
   31.1538   20.1013   18.4086 C   0  0  0  0  0  0  0  0  0  0  0  0
   31.4801   20.1183   17.0396 N   0  0  0  0  0  0  0  0  0  0  0  0
   31.1301   19.0841   16.2490 C   0  0  0  0  0  0  0  0  0  0  0  0
   30.4191   17.9825   16.7447 C   0  0  0  0  0  0  0  0  0  0  0  0
   30.0792   17.9337   18.0886 C   0  0  0  0  0  0  0  0  0  0  0  0
  1  3  1  0  0  0  0
  1  4  2  0  0  0  0
  1  5  1  0  0  0  0
  2  6  2  0  0  0  0
  2 11  1  0  0  0  0
  2  5  1  0  0  0  0
  4 10  1  0  0  0  0
  7  8  2  0  0  0  0
  7 12  1  0  0  0  0
  8  9  1  0  0  0  0
  9 10  2  0  0  0  0
 10 11  1  0  0  0  0
 11 12  2  0  0  0  0
M  END
>  <CHROM.1>
30.71589005,18.27326404,16.14171941,-1.48749297,1.04303368,1.15271330

>  <Name>
ligand

>  <RI>
0

>  <Rbt.Current_Directory>
/home/itssahil/PROJECTS/Mol_Feturizer/New_Systems/rnas/4LX6

>  <Rbt.Executable>
rbdock ($Id: //depot/dev/client3/rdock/2013.1/src/exe/rbdock.cxx#4 $)

>  <Rbt.Library>
libRbt.so (2013.1, Build901 2013/11/27)

>  <Rbt.Parameter_File>
/export/apps/rDock/src/rDock_2013.1_src/data/scripts/dock_solv.prm

>  <Rbt.Receptor>
prm/pocket_docking_7.prm

>  <SCORE>
-16.5926

>  <SCORE.INTER>
-16.5926

>  <SCORE.INTER.CONST>
1

>  <SCORE.INTER.POLAR>
0

>  <SCORE.INTER.ROT>
0

>  <SCORE.INTER.SOLV>
14.1478

>  <SCORE.INTER.VDW>
-19.3777

>  <SCORE.INTER.norm>
-1.38272

>  <SCORE.INTRA>
0

>  <SCORE.INTRA.DIHEDRAL>
0

>  <SCORE.INTRA.DIHEDRAL.0>
0

>  <SCORE.INTRA.POLAR>
0

>  <SCORE.INTRA.POLAR.0>
0

>  <SCORE.INTRA.REPUL>
0

>  <SCORE.INTRA.REPUL.0>
0

>  <SCORE.INTRA.SOLV>
0

>  <SCORE.INTRA.SOLV.lig_0>
-28.9128

>  <SCORE.INTRA.VDW>
0

>  <SCORE.INTRA.VDW.0>
0

>  <SCORE.INTRA.norm>
0

>  <SCORE.RESTR>
0

>  <SCORE.RESTR.CAVITY>
0

>  <SCORE.RESTR.norm>
0

>  <SCORE.SYSTEM>
0

>  <SCORE.SYSTEM.CONST>
0

>  <SCORE.SYSTEM.DIHEDRAL>
0

>  <SCORE.SYSTEM.SOLV>
0

>  <SCORE.SYSTEM.norm>
0

>  <SCORE.heavy>
12

>  <SCORE.norm>
-1.38272

>  <RMSD>
0.680

$$$$
ligand
 OpenBabel11021811503D
libRbt.so/2013.1/901 2013/11/27
 12 13  0  0  0  0  0  0  0  0999 V2000
   31.1237   18.1662   14.0884 C   0  0  0  0  0  0  0  0  0  0  0  0
   30.0631   16.9460   15.8801 C   0  0  0  0  0  0  0  0  0  0  0  0
   31.4708   18.2810   12.8117 N   0  0  0  0  0  0  0  0  0  0  0  0
   31.4414   19.1489   14.9373 N   0  0  0  0  0  0  0  0  0  0  0  0
   30.4201   17.0338   14.5393 N   0  0  0  0  0  0  0  0  0  0  0  0
   29.4510   15.9493   16.2735 O   0  0  0  0  0  0  0  0  0  0  0  0
   30.4595   19.0136   18.9261 N   0  0  0  0  0  0  0  0  0  0  0  0
   31.1594   20.1098   18.3980 C   0  0  0  0  0  0  0  0  0  0  0  0
   31.4765   20.1298   17.0268 N   0  0  0  0  0  0  0  0  0  0  0  0
   31.1255   19.0950   16.2374 C   0  0  0  0  0  0  0  0  0  0  0  0
   30.4225   17.9899   16.7365 C   0  0  0  0  0  0  0  0  0  0  0  0
   30.0918   17.9380   18.0826 C   0  0  0  0  0  0  0  0  0  0  0  0
  1  3  1  0  0  0  0
  1  4  2  0  0  0  0
  1  5  1  0  0  0  0
  2  6  2  0  0  0  0
  2 11  1  0  0  0  0
  2  5  1  0  0  0  0
  4 10  1  0  0  0  0
  7  8  2  0  0  0  0
  7 12  1  0  0  0  0
  8  9  1  0  0  0  0
  9 10  2  0  0  0  0
 10 11  1  0  0  0  0
 11 12  2  0  0  0  0
M  END
>  <CHROM.1>
30.71400091,18.28256460,16.13189912,-1.49638144,1.04961932,1.16159949

>  <Name>
ligand

>  <RI>
0

>  <Rbt.Current_Directory>
/home/itssahil/PROJECTS/Mol_Feturizer/New_Systems/rnas/4LX6

>  <Rbt.Executable>
rbdock ($Id: //depot/dev/client3/rdock/2013.1/src/exe/rbdock.cxx#4 $)

>  <Rbt.Library>
libRbt.so (2013.1, Build901 2013/11/27)

>  <Rbt.Parameter_File>
/export/apps/rDock/src/rDock_2013.1_src/data/scripts/dock_solv.prm

>  <Rbt.Receptor>
prm/pocket_docking_8.prm

>  <SCORE>
-16.6125

>  <SCORE.INTER>
-16.6125

>  <SCORE.INTER.CONST>
1

>  <SCORE.INTER.POLAR>
0

>  <SCORE.INTER.ROT>
0

>  <SCORE.INTER.SOLV>
14.1521

>  <SCORE.INTER.VDW>
-19.3924

>  <SCORE.INTER.norm>
-1.38438

>  <SCORE.INTRA>
0

>  <SCORE.INTRA.DIHEDRAL>
0

>  <SCORE.INTRA.DIHEDRAL.0>
0

>  <SCORE.INTRA.POLAR>
0

>  <SCORE.INTRA.POLAR.0>
0

>  <SCORE.INTRA.REPUL>
0

>  <SCORE.INTRA.REPUL.0>
0

>  <SCORE.INTRA.SOLV>
0

>  <SCORE.INTRA.SOLV.lig_0>
-28.9128

>  <SCORE.INTRA.VDW>
0

>  <SCORE.INTRA.VDW.0>
0

>  <SCORE.INTRA.norm>
0

>  <SCORE.RESTR>
0

>  <SCORE.RESTR.CAVITY>
0

>  <SCORE.RESTR.norm>
0

>  <SCORE.SYSTEM>
0

>  <SCORE.SYSTEM.CONST>
0

>  <SCORE.SYSTEM.DIHEDRAL>
0

>  <SCORE.SYSTEM.SOLV>
0

>  <SCORE.SYSTEM.norm>
0

>  <SCORE.heavy>
12

>  <SCORE.norm>
-1.38438

>  <RMSD>
0.682

$$$$
ligand
 OpenBabel11021811503D
libRbt.so/2013.1/901 2013/11/27
 12 13  0  0  0  0  0  0  0  0999 V2000
   31.1233   18.1503   14.0987 C   0  0  0  0  0  0  0  0  0  0  0  0
   30.0507   16.9376   15.8883 C   0  0  0  0  0  0  0  0  0  0  0  0
   31.4740   18.2626   12.8228 N   0  0  0  0  0  0  0  0  0  0  0  0
   31.4456   19.1311   14.9482 N   0  0  0  0  0  0  0  0  0  0  0  0
   30.4112   17.0228   14.5482 N   0  0  0  0  0  0  0  0  0  0  0  0
   29.4311   15.9449   16.2804 O   0  0  0  0  0  0  0  0  0  0  0  0
   30.4540   19.0029   18.9348 N   0  0  0  0  0  0  0  0  0  0  0  0
   31.1623   20.0944   18.4081 C   0  0  0  0  0  0  0  0  0  0  0  0
   31.4825   20.1121   17.0377 N   0  0  0  0  0  0  0  0  0  0  0  0
   31.1265   19.0795   16.2476 C   0  0  0  0  0  0  0  0  0  0  0  0
   30.4151   17.9791   16.7453 C   0  0  0  0  0  0  0  0  0  0  0  0
   30.0811   17.9297   18.0907 C   0  0  0  0  0  0  0  0  0  0  0  0
  1  3  1  0  0  0  0
  1  4  2  0  0  0  0
  1  5  1  0  0  0  0
  2  6  2  0  0  0  0
  2 11  1  0  0  0  0
  2  5  1  0  0  0  0
  4 10  1  0  0  0  0
  7  8  2  0  0  0  0
  7 12  1  0  0  0  0
  8  9  1  0  0  0  0
  9 10  2  0  0  0  0
 10 11  1  0  0  0  0
 11 12  2  0  0  0  0
M  END
>  <CHROM.1>
30.70985737,18.26979077,16.14130935,-1.49754482,1.04264756,1.16244553

>  <Name>
ligand

>  <RI>
0

>  <Rbt.Current_Directory>
/home/itssahil/PROJECTS/Mol_Feturizer/New_Systems/rnas/4LX6

>  <Rbt.Executable>
rbdock ($Id: //depot/dev/client3/rdock/2013.1/src/exe/rbdock.cxx#4 $)

>  <Rbt.Library>
libRbt.so (2013.1, Build901 2013/11/27)

>  <Rbt.Parameter_File>
/export/apps/rDock/src/rDock_2013.1_src/data/scripts/dock_solv.prm

>  <Rbt.Receptor>
prm/pocket_docking_6.prm

>  <SCORE>
-16.5922

>  <SCORE.INTER>
-16.5922

>  <SCORE.INTER.CONST>
1

>  <SCORE.INTER.POLAR>
0

>  <SCORE.INTER.ROT>
0

>  <SCORE.INTER.SOLV>
14.0989

>  <SCORE.INTER.VDW>
-19.3611

>  <SCORE.INTER.norm>
-1.38269

>  <SCORE.INTRA>
0

>  <SCORE.INTRA.DIHEDRAL>
0

>  <SCORE.INTRA.DIHEDRAL.0>
0

>  <SCORE.INTRA.POLAR>
0

>  <SCORE.INTRA.POLAR.0>
0

>  <SCORE.INTRA.REPUL>
0

>  <SCORE.INTRA.REPUL.0>
0

>  <SCORE.INTRA.SOLV>
0

>  <SCORE.INTRA.SOLV.lig_0>
-28.9128

>  <SCORE.INTRA.VDW>
0

>  <SCORE.INTRA.VDW.0>
0

>  <SCORE.INTRA.norm>
0

>  <SCORE.RESTR>
0

>  <SCORE.RESTR.CAVITY>
0

>  <SCORE.RESTR.norm>
0

>  <SCORE.SYSTEM>
0

>  <SCORE.SYSTEM.CONST>
0

>  <SCORE.SYSTEM.DIHEDRAL>
0

>  <SCORE.SYSTEM.SOLV>
0

>  <SCORE.SYSTEM.norm>
0

>  <SCORE.heavy>
12

>  <SCORE.norm>
-1.38269

>  <RMSD>
0.683

$$$$
ligand
 OpenBabel11021811503D
libRbt.so/2013.1/901 2013/11/27
 12 13  0  0  0  0  0  0  0  0999 V2000
   31.1246   18.1691   14.0973 C   0  0  0  0  0  0  0  0  0  0  0  0
   30.0608   16.9485   15.8868 C   0  0  0  0  0  0  0  0  0  0  0  0
   31.4724   18.2852   12.8209 N   0  0  0  0  0  0  0  0  0  0  0  0
   31.4441   19.1498   14.9478 N   0  0  0  0  0  0  0  0  0  0  0  0
   30.4184   17.0376   14.5462 N   0  0  0  0  0  0  0  0  0  0  0  0
   29.4463   15.9525   16.2783 O   0  0  0  0  0  0  0  0  0  0  0  0
   30.4605   19.0104   18.9361 N   0  0  0  0  0  0  0  0  0  0  0  0
   31.1630   20.1059   18.4100 C   0  0  0  0  0  0  0  0  0  0  0  0
   31.4805   20.1274   17.0390 N   0  0  0  0  0  0  0  0  0  0  0  0
   31.1276   19.0946   16.2477 C   0  0  0  0  0  0  0  0  0  0  0  0
   30.4221   17.9903   16.7449 C   0  0  0  0  0  0  0  0  0  0  0  0
   30.0908   17.9370   18.0908 C   0  0  0  0  0  0  0  0  0  0  0  0
  1  3  1  0  0  0  0
  1  4  2  0  0  0  0
  1  5  1  0  0  0  0
  2  6  2  0  0  0  0
  2 11  1  0  0  0  0
  2  5  1  0  0  0  0
  4 10  1  0  0  0  0
  7  8  2  0  0  0  0
  7 12  1  0  0  0  0
  8  9  1  0  0  0  0
  9 10  2  0  0  0  0
 10 11  1  0  0  0  0
 11 12  2  0  0  0  0
M  END
>  <CHROM.1>
30.71442068,18.28324878,16.14086584,-1.49744715,1.04749344,1.16408371

>  <Name>
ligand

>  <RI>
0

>  <Rbt.Current_Directory>
/home/itssahil/PROJECTS/Mol_Feturizer/New_Systems/rnas/4LX6

>  <Rbt.Executable>
rbdock ($Id: //depot/dev/client3/rdock/2013.1/src/exe/rbdock.cxx#4 $)

>  <Rbt.Library>
libRbt.so (2013.1, Build901 2013/11/27)

>  <Rbt.Parameter_File>
/export/apps/rDock/src/rDock_2013.1_src/data/scripts/dock_solv.prm

>  <Rbt.Receptor>
prm/pocket_docking_7.prm

>  <SCORE>
-16.6132

>  <SCORE.INTER>
-16.6132

>  <SCORE.INTER.CONST>
1

>  <SCORE.INTER.POLAR>
0

>  <SCORE.INTER.ROT>
0

>  <SCORE.INTER.SOLV>
14.1498

>  <SCORE.INTER.VDW>
-19.392

>  <SCORE.INTER.norm>
-1.38443

>  <SCORE.INTRA>
0

>  <SCORE.INTRA.DIHEDRAL>
0

>  <SCORE.INTRA.DIHEDRAL.0>
0

>  <SCORE.INTRA.POLAR>
0

>  <SCORE.INTRA.POLAR.0>
0

>  <SCORE.INTRA.REPUL>
0

>  <SCORE.INTRA.REPUL.0>
0

>  <SCORE.INTRA.SOLV>
0

>  <SCORE.INTRA.SOLV.lig_0>
-28.9128

>  <SCORE.INTRA.VDW>
0

>  <SCORE.INTRA.VDW.0>
0

>  <SCORE.INTRA.norm>
0

>  <SCORE.RESTR>
0

>  <SCORE.RESTR.CAVITY>
0

>  <SCORE.RESTR.norm>
0

>  <SCORE.SYSTEM>
0

>  <SCORE.SYSTEM.CONST>
0

>  <SCORE.SYSTEM.DIHEDRAL>
0

>  <SCORE.SYSTEM.SOLV>
0

>  <SCORE.SYSTEM.norm>
0

>  <SCORE.heavy>
12

>  <SCORE.norm>
-1.38443

>  <RMSD>
0.686

$$$$
ligand
 OpenBabel11021811503D
libRbt.so/2013.1/901 2013/11/27
 12 13  0  0  0  0  0  0  0  0999 V2000
   31.1572   18.1541   14.1220 C   0  0  0  0  0  0  0  0  0  0  0  0
   30.0779   16.9377   15.9051 C   0  0  0  0  0  0  0  0  0  0  0  0
   31.5128   18.2689   12.8477 N   0  0  0  0  0  0  0  0  0  0  0  0
   31.4759   19.1333   14.9745 N   0  0  0  0  0  0  0  0  0  0  0  0
   30.4436   17.0255   14.5666 N   0  0  0  0  0  0  0  0  0  0  0  0
   29.4570   15.9442   16.2930 O   0  0  0  0  0  0  0  0  0  0  0  0
   30.4687   18.9975   18.9570 N   0  0  0  0  0  0  0  0  0  0  0  0
   31.1788   20.0901   18.4352 C   0  0  0  0  0  0  0  0  0  0  0  0
   31.5044   20.1105   17.0660 N   0  0  0  0  0  0  0  0  0  0  0  0
   31.1517   19.0793   16.2726 C   0  0  0  0  0  0  0  0  0  0  0  0
   30.4387   17.9778   16.7655 C   0  0  0  0  0  0  0  0  0  0  0  0
   30.0994   17.9257   18.1094 C   0  0  0  0  0  0  0  0  0  0  0  0
  1  3  1  0  0  0  0
  1  4  2  0  0  0  0
  1  5  1  0  0  0  0
  2  6  2  0  0  0  0
  2 11  1  0  0  0  0
  2  5  1  0  0  0  0
  4 10  1  0  0  0  0
  7  8  2  0  0  0  0
  7 12  1  0  0  0  0
  8  9  1  0  0  0  0
  9 10  2  0  0  0  0
 10 11  1  0  0  0  0
 11 12  2  0  0  0  0
M  END
>  <CHROM.1>
30.73569985,18.26966383,16.16318650,-1.49023822,1.04132843,1.15800271

>  <Name>
ligand

>  <RI>
0

>  <Rbt.Current_Directory>
/home/itssahil/PROJECTS/Mol_Feturizer/New_Systems/rnas/4LX6

>  <Rbt.Executable>
rbdock ($Id: //depot/dev/client3/rdock/2013.1/src/exe/rbdock.cxx#4 $)

>  <Rbt.Library>
libRbt.so (2013.1, Build901 2013/11/27)

>  <Rbt.Parameter_File>
/export/apps/rDock/src/rDock_2013.1_src/data/scripts/dock_solv.prm

>  <Rbt.Receptor>
prm/pocket_docking_3.prm

>  <SCORE>
-16.5887

>  <SCORE.INTER>
-16.5887

>  <SCORE.INTER.CONST>
1

>  <SCORE.INTER.POLAR>
0

>  <SCORE.INTER.ROT>
0

>  <SCORE.INTER.SOLV>
14.1741

>  <SCORE.INTER.VDW>
-19.3838

>  <SCORE.INTER.norm>
-1.38239

>  <SCORE.INTRA>
0

>  <SCORE.INTRA.DIHEDRAL>
0

>  <SCORE.INTRA.DIHEDRAL.0>
0

>  <SCORE.INTRA.POLAR>
0

>  <SCORE.INTRA.POLAR.0>
0

>  <SCORE.INTRA.REPUL>
0

>  <SCORE.INTRA.REPUL.0>
0

>  <SCORE.INTRA.SOLV>
0

>  <SCORE.INTRA.SOLV.lig_0>
-28.9128

>  <SCORE.INTRA.VDW>
0

>  <SCORE.INTRA.VDW.0>
0

>  <SCORE.INTRA.norm>
0

>  <SCORE.RESTR>
0

>  <SCORE.RESTR.CAVITY>
0

>  <SCORE.RESTR.norm>
0

>  <SCORE.SYSTEM>
0

>  <SCORE.SYSTEM.CONST>
0

>  <SCORE.SYSTEM.DIHEDRAL>
0

>  <SCORE.SYSTEM.SOLV>
0

>  <SCORE.SYSTEM.norm>
0

>  <SCORE.heavy>
12

>  <SCORE.norm>
-1.38239

>  <RMSD>
0.689

$$$$
ligand
 OpenBabel11021811503D
libRbt.so/2013.1/901 2013/11/27
 12 13  0  0  0  0  0  0  0  0999 V2000
   31.1530   18.1477   14.1328 C   0  0  0  0  0  0  0  0  0  0  0  0
   30.0502   16.9492   15.9137 C   0  0  0  0  0  0  0  0  0  0  0  0
   31.5171   18.2544   12.8602 N   0  0  0  0  0  0  0  0  0  0  0  0
   31.4776   19.1262   14.9840 N   0  0  0  0  0  0  0  0  0  0  0  0
   30.4245   17.0285   14.5770 N   0  0  0  0  0  0  0  0  0  0  0  0
   29.4162   15.9639   16.3011 O   0  0  0  0  0  0  0  0  0  0  0  0
   30.4463   19.0146   18.9611 N   0  0  0  0  0  0  0  0  0  0  0  0
   31.1714   20.0976   18.4398 C   0  0  0  0  0  0  0  0  0  0  0  0
   31.5050   20.1098   17.0724 N   0  0  0  0  0  0  0  0  0  0  0  0
   31.1454   19.0800   16.2803 C   0  0  0  0  0  0  0  0  0  0  0  0
   30.4175   17.9881   16.7727 C   0  0  0  0  0  0  0  0  0  0  0  0
   30.0700   17.9442   18.1148 C   0  0  0  0  0  0  0  0  0  0  0  0
  1  3  1  0  0  0  0
  1  4  2  0  0  0  0
  1  5  1  0  0  0  0
  2  6  2  0  0  0  0
  2 11  1  0  0  0  0
  2  5  1  0  0  0  0
  4 10  1  0  0  0  0
  7  8  2  0  0  0  0
  7 12  1  0  0  0  0
  8  9  1  0  0  0  0
  9 10  2  0  0  0  0
 10 11  1  0  0  0  0
 11 12  2  0  0  0  0
M  END
>  <CHROM.1>
30.72115788,18.27463773,16.17118246,-1.48869698,1.02892985,1.15341420

>  <Name>
ligand

>  <RI>
0

>  <Rbt.Current_Directory>
/home/itssahil/PROJECTS/Mol_Feturizer/New_Systems/rnas/4LX6

>  <Rbt.Executable>
rbdock ($Id: //depot/dev/client3/rdock/2013.1/src/exe/rbdock.cxx#4 $)

>  <Rbt.Library>
libRbt.so (2013.1, Build901 2013/11/27)

>  <Rbt.Parameter_File>
/export/apps/rDock/src/rDock_2013.1_src/data/scripts/dock_solv.prm

>  <Rbt.Receptor>
prm/pocket_docking_3.prm

>  <SCORE>
-16.5993

>  <SCORE.INTER>
-16.5993

>  <SCORE.INTER.CONST>
1

>  <SCORE.INTER.POLAR>
0

>  <SCORE.INTER.ROT>
0

>  <SCORE.INTER.SOLV>
14.1212

>  <SCORE.INTER.VDW>
-19.3733

>  <SCORE.INTER.norm>
-1.38328

>  <SCORE.INTRA>
0

>  <SCORE.INTRA.DIHEDRAL>
0

>  <SCORE.INTRA.DIHEDRAL.0>
0

>  <SCORE.INTRA.POLAR>
0

>  <SCORE.INTRA.POLAR.0>
0

>  <SCORE.INTRA.REPUL>
0

>  <SCORE.INTRA.REPUL.0>
0

>  <SCORE.INTRA.SOLV>
0

>  <SCORE.INTRA.SOLV.lig_0>
-28.9128

>  <SCORE.INTRA.VDW>
0

>  <SCORE.INTRA.VDW.0>
0

>  <SCORE.INTRA.norm>
0

>  <SCORE.RESTR>
0

>  <SCORE.RESTR.CAVITY>
0

>  <SCORE.RESTR.norm>
0

>  <SCORE.SYSTEM>
0

>  <SCORE.SYSTEM.CONST>
0

>  <SCORE.SYSTEM.DIHEDRAL>
0

>  <SCORE.SYSTEM.SOLV>
0

>  <SCORE.SYSTEM.norm>
0

>  <SCORE.heavy>
12

>  <SCORE.norm>
-1.38328

>  <RMSD>
0.697

$$$$
ligand
 OpenBabel11021811503D
libRbt.so/2013.1/901 2013/11/27
 12 13  0  0  0  0  0  0  0  0999 V2000
   31.1299   18.1495   14.1277 C   0  0  0  0  0  0  0  0  0  0  0  0
   30.0446   16.9459   15.9158 C   0  0  0  0  0  0  0  0  0  0  0  0
   31.4828   18.2591   12.8521 N   0  0  0  0  0  0  0  0  0  0  0  0
   31.4604   19.1269   14.9778 N   0  0  0  0  0  0  0  0  0  0  0  0
   30.4071   17.0284   14.5761 N   0  0  0  0  0  0  0  0  0  0  0  0
   29.4155   15.9589   16.3069 O   0  0  0  0  0  0  0  0  0  0  0  0
   30.4640   19.0062   18.9635 N   0  0  0  0  0  0  0  0  0  0  0  0
   31.1828   20.0913   18.4380 C   0  0  0  0  0  0  0  0  0  0  0  0
   31.5045   20.1067   17.0678 N   0  0  0  0  0  0  0  0  0  0  0  0
   31.1397   19.0777   16.2769 C   0  0  0  0  0  0  0  0  0  0  0  0
   30.4177   17.9838   16.7735 C   0  0  0  0  0  0  0  0  0  0  0  0
   30.0820   17.9368   18.1186 C   0  0  0  0  0  0  0  0  0  0  0  0
  1  3  1  0  0  0  0
  1  4  2  0  0  0  0
  1  5  1  0  0  0  0
  2  6  2  0  0  0  0
  2 11  1  0  0  0  0
  2  5  1  0  0  0  0
  4 10  1  0  0  0  0
  7  8  2  0  0  0  0
  7 12  1  0  0  0  0
  8  9  1  0  0  0  0
  9 10  2  0  0  0  0
 10 11  1  0  0  0  0
 11 12  2  0  0  0  0
M  END
>  <CHROM.1>
30.71569564,18.27194798,16.16992905,-1.50303821,1.03384204,1.16760055

>  <Name>
ligand

>  <RI>
0

>  <Rbt.Current_Directory>
/home/itssahil/PROJECTS/Mol_Feturizer/New_Systems/rnas/4LX6

>  <Rbt.Executable>
rbdock ($Id: //depot/dev/client3/rdock/2013.1/src/exe/rbdock.cxx#4 $)

>  <Rbt.Library>
libRbt.so (2013.1, Build901 2013/11/27)

>  <Rbt.Parameter_File>
/export/apps/rDock/src/rDock_2013.1_src/data/scripts/dock_solv.prm

>  <Rbt.Receptor>
prm/pocket_docking_7.prm

>  <SCORE>
-16.5951

>  <SCORE.INTER>
-16.5951

>  <SCORE.INTER.CONST>
1

>  <SCORE.INTER.POLAR>
0

>  <SCORE.INTER.ROT>
0

>  <SCORE.INTER.SOLV>
14.0724

>  <SCORE.INTER.VDW>
-19.3542

>  <SCORE.INTER.norm>
-1.38292

>  <SCORE.INTRA>
0

>  <SCORE.INTRA.DIHEDRAL>
0

>  <SCORE.INTRA.DIHEDRAL.0>
0

>  <SCORE.INTRA.POLAR>
0

>  <SCORE.INTRA.POLAR.0>
0

>  <SCORE.INTRA.REPUL>
0

>  <SCORE.INTRA.REPUL.0>
0

>  <SCORE.INTRA.SOLV>
0

>  <SCORE.INTRA.SOLV.lig_0>
-28.9128

>  <SCORE.INTRA.VDW>
0

>  <SCORE.INTRA.VDW.0>
0

>  <SCORE.INTRA.norm>
0

>  <SCORE.RESTR>
0

>  <SCORE.RESTR.CAVITY>
0

>  <SCORE.RESTR.norm>
0

>  <SCORE.SYSTEM>
0

>  <SCORE.SYSTEM.CONST>
0

>  <SCORE.SYSTEM.DIHEDRAL>
0

>  <SCORE.SYSTEM.SOLV>
0

>  <SCORE.SYSTEM.norm>
0

>  <SCORE.heavy>
12

>  <SCORE.norm>
-1.38292

>  <RMSD>
0.702

$$$$
ligand
 OpenBabel11021811503D
libRbt.so/2013.1/901 2013/11/27
 12 13  0  0  0  0  0  0  0  0999 V2000
   31.1323   18.1418   14.1355 C   0  0  0  0  0  0  0  0  0  0  0  0
   30.0209   16.9564   15.9197 C   0  0  0  0  0  0  0  0  0  0  0  0
   31.4941   18.2440   12.8618 N   0  0  0  0  0  0  0  0  0  0  0  0
   31.4704   19.1167   14.9854 N   0  0  0  0  0  0  0  0  0  0  0  0
   30.3923   17.0311   14.5820 N   0  0  0  0  0  0  0  0  0  0  0  0
   29.3767   15.9785   16.3092 O   0  0  0  0  0  0  0  0  0  0  0  0
   30.4490   19.0180   18.9654 N   0  0  0  0  0  0  0  0  0  0  0  0
   31.1849   20.0925   18.4418 C   0  0  0  0  0  0  0  0  0  0  0  0
   31.5148   20.1005   17.0735 N   0  0  0  0  0  0  0  0  0  0  0  0
   31.1414   19.0747   16.2827 C   0  0  0  0  0  0  0  0  0  0  0  0
   30.4024   17.9913   16.7774 C   0  0  0  0  0  0  0  0  0  0  0  0
   30.0582   17.9517   18.1205 C   0  0  0  0  0  0  0  0  0  0  0  0
  1  3  1  0  0  0  0
  1  4  2  0  0  0  0
  1  5  1  0  0  0  0
  2  6  2  0  0  0  0
  2 11  1  0  0  0  0
  2  5  1  0  0  0  0
  4 10  1  0  0  0  0
  7  8  2  0  0  0  0
  7 12  1  0  0  0  0
  8  9  1  0  0  0  0
  9 10  2  0  0  0  0
 10 11  1  0  0  0  0
 11 12  2  0  0  0  0
M  END
>  <CHROM.1>
30.70763719,18.27418613,16.17496216,-1.50236455,1.01959092,1.16480612

>  <Name>
ligand

>  <RI>
0

>  <Rbt.Current_Directory>
/home/itssahil/PROJECTS/Mol_Feturizer/New_Systems/rnas/4LX6

>  <Rbt.Executable>
rbdock ($Id: //depot/dev/client3/rdock/2013.1/src/exe/rbdock.cxx#4 $)

>  <Rbt.Library>
libRbt.so (2013.1, Build901 2013/11/27)

>  <Rbt.Parameter_File>
/export/apps/rDock/src/rDock_2013.1_src/data/scripts/dock_solv.prm

>  <Rbt.Receptor>
prm/blind_docking_100.prm

>  <SCORE>
-16.6247

>  <SCORE.INTER>
-16.6247

>  <SCORE.INTER.CONST>
1

>  <SCORE.INTER.POLAR>
0

>  <SCORE.INTER.ROT>
0

>  <SCORE.INTER.SOLV>
14.0355

>  <SCORE.INTER.VDW>
-19.3616

>  <SCORE.INTER.norm>
-1.38539

>  <SCORE.INTRA>
0

>  <SCORE.INTRA.DIHEDRAL>
0

>  <SCORE.INTRA.DIHEDRAL.0>
0

>  <SCORE.INTRA.POLAR>
0

>  <SCORE.INTRA.POLAR.0>
0

>  <SCORE.INTRA.REPUL>
0

>  <SCORE.INTRA.REPUL.0>
0

>  <SCORE.INTRA.SOLV>
0

>  <SCORE.INTRA.SOLV.lig_0>
-28.9128

>  <SCORE.INTRA.VDW>
0

>  <SCORE.INTRA.VDW.0>
0

>  <SCORE.INTRA.norm>
0

>  <SCORE.RESTR>
0

>  <SCORE.RESTR.CAVITY>
0

>  <SCORE.RESTR.norm>
0

>  <SCORE.SYSTEM>
0

>  <SCORE.SYSTEM.CONST>
0

>  <SCORE.SYSTEM.DIHEDRAL>
0

>  <SCORE.SYSTEM.SOLV>
0

>  <SCORE.SYSTEM.norm>
0

>  <SCORE.heavy>
12

>  <SCORE.norm>
-1.38539

>  <RMSD>
0.705

$$$$
ligand
 OpenBabel11021811503D
libRbt.so/2013.1/901 2013/11/27
 12 13  0  0  0  0  0  0  0  0999 V2000
   31.1213   18.1267   14.1203 C   0  0  0  0  0  0  0  0  0  0  0  0
   30.0651   16.9232   15.9258 C   0  0  0  0  0  0  0  0  0  0  0  0
   31.4662   18.2292   12.8420 N   0  0  0  0  0  0  0  0  0  0  0  0
   31.4394   19.1180   14.9590 N   0  0  0  0  0  0  0  0  0  0  0  0
   30.4197   16.9981   14.5836 N   0  0  0  0  0  0  0  0  0  0  0  0
   29.4546   15.9297   16.3300 O   0  0  0  0  0  0  0  0  0  0  0  0
   30.4644   19.0211   18.9506 N   0  0  0  0  0  0  0  0  0  0  0  0
   31.1622   20.1127   18.4106 C   0  0  0  0  0  0  0  0  0  0  0  0
   31.4770   20.1195   17.0387 N   0  0  0  0  0  0  0  0  0  0  0  0
   31.1258   19.0766   16.2601 C   0  0  0  0  0  0  0  0  0  0  0  0
   30.4248   17.9758   16.7713 C   0  0  0  0  0  0  0  0  0  0  0  0
   30.0964   17.9368   18.1183 C   0  0  0  0  0  0  0  0  0  0  0  0
  1  3  1  0  0  0  0
  1  4  2  0  0  0  0
  1  5  1  0  0  0  0
  2  6  2  0  0  0  0
  2 11  1  0  0  0  0
  2  5  1  0  0  0  0
  4 10  1  0  0  0  0
  7  8  2  0  0  0  0
  7 12  1  0  0  0  0
  8  9  1  0  0  0  0
  9 10  2  0  0  0  0
 10 11  1  0  0  0  0
 11 12  2  0  0  0  0
M  END
>  <CHROM.1>
30.71493762,18.26278900,16.16330931,-1.49861473,1.05123456,1.15367473

>  <Name>
ligand

>  <RI>
0

>  <Rbt.Current_Directory>
/home/itssahil/PROJECTS/Mol_Feturizer/New_Systems/rnas/4LX6

>  <Rbt.Executable>
rbdock ($Id: //depot/dev/client3/rdock/2013.1/src/exe/rbdock.cxx#4 $)

>  <Rbt.Library>
libRbt.so (2013.1, Build901 2013/11/27)

>  <Rbt.Parameter_File>
/export/apps/rDock/src/rDock_2013.1_src/data/scripts/dock_solv.prm

>  <Rbt.Receptor>
prm/blind_docking_100.prm

>  <SCORE>
-16.5839

>  <SCORE.INTER>
-16.5839

>  <SCORE.INTER.CONST>
1

>  <SCORE.INTER.POLAR>
0

>  <SCORE.INTER.ROT>
0

>  <SCORE.INTER.SOLV>
14.1085

>  <SCORE.INTER.VDW>
-19.3587

>  <SCORE.INTER.norm>
-1.38199

>  <SCORE.INTRA>
0

>  <SCORE.INTRA.DIHEDRAL>
0

>  <SCORE.INTRA.DIHEDRAL.0>
0

>  <SCORE.INTRA.POLAR>
0

>  <SCORE.INTRA.POLAR.0>
0

>  <SCORE.INTRA.REPUL>
0

>  <SCORE.INTRA.REPUL.0>
0

>  <SCORE.INTRA.SOLV>
0

>  <SCORE.INTRA.SOLV.lig_0>
-28.9128

>  <SCORE.INTRA.VDW>
0

>  <SCORE.INTRA.VDW.0>
0

>  <SCORE.INTRA.norm>
0

>  <SCORE.RESTR>
0

>  <SCORE.RESTR.CAVITY>
0

>  <SCORE.RESTR.norm>
0

>  <SCORE.SYSTEM>
0

>  <SCORE.SYSTEM.CONST>
0

>  <SCORE.SYSTEM.DIHEDRAL>
0

>  <SCORE.SYSTEM.SOLV>
0

>  <SCORE.SYSTEM.norm>
0

>  <SCORE.heavy>
12

>  <SCORE.norm>
-1.38199

>  <RMSD>
0.708

$$$$
ligand
 OpenBabel11021811503D
libRbt.so/2013.1/901 2013/11/27
 12 13  0  0  0  0  0  0  0  0999 V2000
   31.1054   18.1272   14.1331 C   0  0  0  0  0  0  0  0  0  0  0  0
   30.0191   16.9289   15.9241 C   0  0  0  0  0  0  0  0  0  0  0  0
   31.4587   18.2332   12.8574 N   0  0  0  0  0  0  0  0  0  0  0  0
   31.4361   19.1067   14.9807 N   0  0  0  0  0  0  0  0  0  0  0  0
   30.3820   17.0075   14.5843 N   0  0  0  0  0  0  0  0  0  0  0  0
   29.3895   15.9431   16.3177 O   0  0  0  0  0  0  0  0  0  0  0  0
   30.4386   18.9972   18.9665 N   0  0  0  0  0  0  0  0  0  0  0  0
   31.1579   20.0806   18.4382 C   0  0  0  0  0  0  0  0  0  0  0  0
   31.4800   20.0921   17.0680 N   0  0  0  0  0  0  0  0  0  0  0  0
   31.1150   19.0612   16.2798 C   0  0  0  0  0  0  0  0  0  0  0  0
   30.3924   17.9689   16.7792 C   0  0  0  0  0  0  0  0  0  0  0  0
   30.0563   17.9257   18.1243 C   0  0  0  0  0  0  0  0  0  0  0  0
  1  3  1  0  0  0  0
  1  4  2  0  0  0  0
  1  5  1  0  0  0  0
  2  6  2  0  0  0  0
  2 11  1  0  0  0  0
  2  5  1  0  0  0  0
  4 10  1  0  0  0  0
  7  8  2  0  0  0  0
  7 12  1  0  0  0  0
  8  9  1  0  0  0  0
  9 10  2  0  0  0  0
 10 11  1  0  0  0  0
 11 12  2  0  0  0  0
M  END
>  <CHROM.1>
30.69069432,18.25528344,16.17491522,-1.50285592,1.03335667,1.16474504

>  <Name>
ligand

>  <RI>
0

>  <Rbt.Current_Directory>
/home/itssahil/PROJECTS/Mol_Feturizer/New_Systems/rnas/4LX6

>  <Rbt.Executable>
rbdock ($Id: //depot/dev/client3/rdock/2013.1/src/exe/rbdock.cxx#4 $)

>  <Rbt.Library>
libRbt.so (2013.1, Build901 2013/11/27)

>  <Rbt.Parameter_File>
/export/apps/rDock/src/rDock_2013.1_src/data/scripts/dock_solv.prm

>  <Rbt.Receptor>
prm/pocket_docking_3.prm

>  <SCORE>
-16.6007

>  <SCORE.INTER>
-16.6007

>  <SCORE.INTER.CONST>
1

>  <SCORE.INTER.POLAR>
0

>  <SCORE.INTER.ROT>
0

>  <SCORE.INTER.SOLV>
14.0018

>  <SCORE.INTER.VDW>
-19.3344

>  <SCORE.INTER.norm>
-1.38339

>  <SCORE.INTRA>
0

>  <SCORE.INTRA.DIHEDRAL>
0

>  <SCORE.INTRA.DIHEDRAL.0>
0

>  <SCORE.INTRA.POLAR>
0

>  <SCORE.INTRA.POLAR.0>
0

>  <SCORE.INTRA.REPUL>
0

>  <SCORE.INTRA.REPUL.0>
0

>  <SCORE.INTRA.SOLV>
0

>  <SCORE.INTRA.SOLV.lig_0>
-28.9128

>  <SCORE.INTRA.VDW>
0

>  <SCORE.INTRA.VDW.0>
0

>  <SCORE.INTRA.norm>
0

>  <SCORE.RESTR>
0

>  <SCORE.RESTR.CAVITY>
0

>  <SCORE.RESTR.norm>
0

>  <SCORE.SYSTEM>
0

>  <SCORE.SYSTEM.CONST>
0

>  <SCORE.SYSTEM.DIHEDRAL>
0

>  <SCORE.SYSTEM.SOLV>
0

>  <SCORE.SYSTEM.norm>
0

>  <SCORE.heavy>
12

>  <SCORE.norm>
-1.38339

>  <RMSD>
0.708

$$$$
ligand
 OpenBabel11021811503D
libRbt.so/2013.1/901 2013/11/27
 12 13  0  0  0  0  0  0  0  0999 V2000
   31.1197   18.1403   14.1205 C   0  0  0  0  0  0  0  0  0  0  0  0
   30.0600   16.9338   15.9220 C   0  0  0  0  0  0  0  0  0  0  0  0
   31.4656   18.2458   12.8427 N   0  0  0  0  0  0  0  0  0  0  0  0
   31.4390   19.1288   14.9621 N   0  0  0  0  0  0  0  0  0  0  0  0
   30.4157   17.0118   14.5802 N   0  0  0  0  0  0  0  0  0  0  0  0
   29.4475   15.9403   16.3230 O   0  0  0  0  0  0  0  0  0  0  0  0
   30.4611   19.0226   18.9528 N   0  0  0  0  0  0  0  0  0  0  0  0
   31.1613   20.1145   18.4162 C   0  0  0  0  0  0  0  0  0  0  0  0
   31.4770   20.1245   17.0446 N   0  0  0  0  0  0  0  0  0  0  0  0
   31.1244   19.0844   16.2629 C   0  0  0  0  0  0  0  0  0  0  0  0
   30.4211   17.9834   16.7706 C   0  0  0  0  0  0  0  0  0  0  0  0
   30.0917   17.9414   18.1173 C   0  0  0  0  0  0  0  0  0  0  0  0
  1  3  1  0  0  0  0
  1  4  2  0  0  0  0
  1  5  1  0  0  0  0
  2  6  2  0  0  0  0
  2 11  1  0  0  0  0
  2  5  1  0  0  0  0
  4 10  1  0  0  0  0
  7  8  2  0  0  0  0
  7 12  1  0  0  0  0
  8  9  1  0  0  0  0
  9 10  2  0  0  0  0
 10 11  1  0  0  0  0
 11 12  2  0  0  0  0
M  END
>  <CHROM.1>
30.71216873,18.27156931,16.16360761,-1.49887058,1.04930389,1.15664498

>  <Name>
ligand

>  <RI>
0

>  <Rbt.Current_Directory>
/home/itssahil/PROJECTS/Mol_Feturizer/New_Systems/rnas/4LX6

>  <Rbt.Executable>
rbdock ($Id: //depot/dev/client3/rdock/2013.1/src/exe/rbdock.cxx#4 $)

>  <Rbt.Library>
libRbt.so (2013.1, Build901 2013/11/27)

>  <Rbt.Parameter_File>
/export/apps/rDock/src/rDock_2013.1_src/data/scripts/dock_solv.prm

>  <Rbt.Receptor>
prm/pocket_docking_4.prm

>  <SCORE>
-16.5848

>  <SCORE.INTER>
-16.5848

>  <SCORE.INTER.CONST>
1

>  <SCORE.INTER.POLAR>
0

>  <SCORE.INTER.ROT>
0

>  <SCORE.INTER.SOLV>
14.1057

>  <SCORE.INTER.VDW>
-19.3584

>  <SCORE.INTER.norm>
-1.38206

>  <SCORE.INTRA>
0

>  <SCORE.INTRA.DIHEDRAL>
0

>  <SCORE.INTRA.DIHEDRAL.0>
0

>  <SCORE.INTRA.POLAR>
0

>  <SCORE.INTRA.POLAR.0>
0

>  <SCORE.INTRA.REPUL>
0

>  <SCORE.INTRA.REPUL.0>
0

>  <SCORE.INTRA.SOLV>
0

>  <SCORE.INTRA.SOLV.lig_0>
-28.9128

>  <SCORE.INTRA.VDW>
0

>  <SCORE.INTRA.VDW.0>
0

>  <SCORE.INTRA.norm>
0

>  <SCORE.RESTR>
0

>  <SCORE.RESTR.CAVITY>
0

>  <SCORE.RESTR.norm>
0

>  <SCORE.SYSTEM>
0

>  <SCORE.SYSTEM.CONST>
0

>  <SCORE.SYSTEM.DIHEDRAL>
0

>  <SCORE.SYSTEM.SOLV>
0

>  <SCORE.SYSTEM.norm>
0

>  <SCORE.heavy>
12

>  <SCORE.norm>
-1.38206

>  <RMSD>
0.708

$$$$
ligand
 OpenBabel11021811503D
libRbt.so/2013.1/901 2013/11/27
 12 13  0  0  0  0  0  0  0  0999 V2000
   31.0978   18.1419   14.1238 C   0  0  0  0  0  0  0  0  0  0  0  0
   30.0175   16.9470   15.9208 C   0  0  0  0  0  0  0  0  0  0  0  0
   31.4423   18.2480   12.8457 N   0  0  0  0  0  0  0  0  0  0  0  0
   31.4405   19.1180   14.9706 N   0  0  0  0  0  0  0  0  0  0  0  0
   30.3711   17.0258   14.5785 N   0  0  0  0  0  0  0  0  0  0  0  0
   29.3850   15.9644   16.3174 O   0  0  0  0  0  0  0  0  0  0  0  0
   30.4715   19.0077   18.9634 N   0  0  0  0  0  0  0  0  0  0  0  0
   31.1934   20.0877   18.4316 C   0  0  0  0  0  0  0  0  0  0  0  0
   31.5054   20.0996   17.0592 N   0  0  0  0  0  0  0  0  0  0  0  0
   31.1286   19.0722   16.2720 C   0  0  0  0  0  0  0  0  0  0  0  0
   30.4033   17.9833   16.7748 C   0  0  0  0  0  0  0  0  0  0  0  0
   30.0768   17.9398   18.1222 C   0  0  0  0  0  0  0  0  0  0  0  0
  1  3  1  0  0  0  0
  1  4  2  0  0  0  0
  1  5  1  0  0  0  0
  2  6  2  0  0  0  0
  2 11  1  0  0  0  0
  2  5  1  0  0  0  0
  4 10  1  0  0  0  0
  7  8  2  0  0  0  0
  7 12  1  0  0  0  0
  8  9  1  0  0  0  0
  9 10  2  0  0  0  0
 10 11  1  0  0  0  0
 11 12  2  0  0  0  0
M  END
>  <CHROM.1>
30.69878756,18.26901233,16.16883465,-1.52048479,1.03072718,1.18155045

>  <Name>
ligand

>  <RI>
0

>  <Rbt.Current_Directory>
/home/itssahil/PROJECTS/Mol_Feturizer/New_Systems/rnas/4LX6

>  <Rbt.Executable>
rbdock ($Id: //depot/dev/client3/rdock/2013.1/src/exe/rbdock.cxx#4 $)

>  <Rbt.Library>
libRbt.so (2013.1, Build901 2013/11/27)

>  <Rbt.Parameter_File>
/export/apps/rDock/src/rDock_2013.1_src/data/scripts/dock_solv.prm

>  <Rbt.Receptor>
prm/pocket_docking_4.prm

>  <SCORE>
-16.624

>  <SCORE.INTER>
-16.624

>  <SCORE.INTER.CONST>
1

>  <SCORE.INTER.POLAR>
0

>  <SCORE.INTER.ROT>
0

>  <SCORE.INTER.SOLV>
13.9764

>  <SCORE.INTER.VDW>
-19.3415

>  <SCORE.INTER.norm>
-1.38533

>  <SCORE.INTRA>
0

>  <SCORE.INTRA.DIHEDRAL>
0

>  <SCORE.INTRA.DIHEDRAL.0>
0

>  <SCORE.INTRA.POLAR>
0

>  <SCORE.INTRA.POLAR.0>
0

>  <SCORE.INTRA.REPUL>
0

>  <SCORE.INTRA.REPUL.0>
0

>  <SCORE.INTRA.SOLV>
0

>  <SCORE.INTRA.SOLV.lig_0>
-28.9128

>  <SCORE.INTRA.VDW>
0

>  <SCORE.INTRA.VDW.0>
0

>  <SCORE.INTRA.norm>
0

>  <SCORE.RESTR>
0

>  <SCORE.RESTR.CAVITY>
0

>  <SCORE.RESTR.norm>
0

>  <SCORE.SYSTEM>
0

>  <SCORE.SYSTEM.CONST>
0

>  <SCORE.SYSTEM.DIHEDRAL>
0

>  <SCORE.SYSTEM.SOLV>
0

>  <SCORE.SYSTEM.norm>
0

>  <SCORE.heavy>
12

>  <SCORE.norm>
-1.38533

>  <RMSD>
0.711

$$$$
ligand
 OpenBabel11021811503D
libRbt.so/2013.1/901 2013/11/27
 12 13  0  0  0  0  0  0  0  0999 V2000
   31.1204   18.1576   14.1355 C   0  0  0  0  0  0  0  0  0  0  0  0
   30.0267   16.9614   15.9235 C   0  0  0  0  0  0  0  0  0  0  0  0
   31.4691   18.2677   12.8588 N   0  0  0  0  0  0  0  0  0  0  0  0
   31.4679   19.1269   14.9881 N   0  0  0  0  0  0  0  0  0  0  0  0
   30.3844   17.0445   14.5825 N   0  0  0  0  0  0  0  0  0  0  0  0
   29.3860   15.9814   16.3133 O   0  0  0  0  0  0  0  0  0  0  0  0
   30.4874   19.0033   18.9777 N   0  0  0  0  0  0  0  0  0  0  0  0
   31.2186   20.0807   18.4533 C   0  0  0  0  0  0  0  0  0  0  0  0
   31.5344   20.0973   17.0818 N   0  0  0  0  0  0  0  0  0  0  0  0
   31.1522   19.0767   16.2884 C   0  0  0  0  0  0  0  0  0  0  0  0
   30.4177   17.9906   16.7838 C   0  0  0  0  0  0  0  0  0  0  0  0
   30.0873   17.9426   18.1301 C   0  0  0  0  0  0  0  0  0  0  0  0
  1  3  1  0  0  0  0
  1  4  2  0  0  0  0
  1  5  1  0  0  0  0
  2  6  2  0  0  0  0
  2 11  1  0  0  0  0
  2  5  1  0  0  0  0
  4 10  1  0  0  0  0
  7  8  2  0  0  0  0
  7 12  1  0  0  0  0
  8  9  1  0  0  0  0
  9 10  2  0  0  0  0
 10 11  1  0  0  0  0
 11 12  2  0  0  0  0
M  END
>  <CHROM.1>
30.71686443,18.27716491,16.18003195,-1.52100652,1.02300711,1.18709120

>  <Name>
ligand

>  <RI>
0

>  <Rbt.Current_Directory>
/home/itssahil/PROJECTS/Mol_Feturizer/New_Systems/rnas/4LX6

>  <Rbt.Executable>
rbdock ($Id: //depot/dev/client3/rdock/2013.1/src/exe/rbdock.cxx#4 $)

>  <Rbt.Library>
libRbt.so (2013.1, Build901 2013/11/27)

>  <Rbt.Parameter_File>
/export/apps/rDock/src/rDock_2013.1_src/data/scripts/dock_solv.prm

>  <Rbt.Receptor>
prm/pocket_docking_7.prm

>  <SCORE>
-16.5877

>  <SCORE.INTER>
-16.5877

>  <SCORE.INTER.CONST>
1

>  <SCORE.INTER.POLAR>
0

>  <SCORE.INTER.ROT>
0

>  <SCORE.INTER.SOLV>
14.0152

>  <SCORE.INTER.VDW>
-19.3302

>  <SCORE.INTER.norm>
-1.38231

>  <SCORE.INTRA>
0

>  <SCORE.INTRA.DIHEDRAL>
0

>  <SCORE.INTRA.DIHEDRAL.0>
0

>  <SCORE.INTRA.POLAR>
0

>  <SCORE.INTRA.POLAR.0>
0

>  <SCORE.INTRA.REPUL>
0

>  <SCORE.INTRA.REPUL.0>
0

>  <SCORE.INTRA.SOLV>
0

>  <SCORE.INTRA.SOLV.lig_0>
-28.9128

>  <SCORE.INTRA.VDW>
0

>  <SCORE.INTRA.VDW.0>
0

>  <SCORE.INTRA.norm>
0

>  <SCORE.RESTR>
0

>  <SCORE.RESTR.CAVITY>
0

>  <SCORE.RESTR.norm>
0

>  <SCORE.SYSTEM>
0

>  <SCORE.SYSTEM.CONST>
0

>  <SCORE.SYSTEM.DIHEDRAL>
0

>  <SCORE.SYSTEM.SOLV>
0

>  <SCORE.SYSTEM.norm>
0

>  <SCORE.heavy>
12

>  <SCORE.norm>
-1.38231

>  <RMSD>
0.711

$$$$
ligand
 OpenBabel11021811503D
libRbt.so/2013.1/901 2013/11/27
 12 13  0  0  0  0  0  0  0  0999 V2000
   31.0969   18.1137   14.1237 C   0  0  0  0  0  0  0  0  0  0  0  0
   30.0290   16.9296   15.9353 C   0  0  0  0  0  0  0  0  0  0  0  0
   31.4413   18.2072   12.8446 N   0  0  0  0  0  0  0  0  0  0  0  0
   31.4273   19.1047   14.9580 N   0  0  0  0  0  0  0  0  0  0  0  0
   30.3828   16.9952   14.5923 N   0  0  0  0  0  0  0  0  0  0  0  0
   29.4076   15.9449   16.3441 O   0  0  0  0  0  0  0  0  0  0  0  0
   30.4561   19.0348   18.9512 N   0  0  0  0  0  0  0  0  0  0  0  0
   31.1658   20.1162   18.4060 C   0  0  0  0  0  0  0  0  0  0  0  0
   31.4789   20.1139   17.0337 N   0  0  0  0  0  0  0  0  0  0  0  0
   31.1148   19.0721   16.2597 C   0  0  0  0  0  0  0  0  0  0  0  0
   30.4018   17.9814   16.7761 C   0  0  0  0  0  0  0  0  0  0  0  0
   30.0747   17.9516   18.1237 C   0  0  0  0  0  0  0  0  0  0  0  0
  1  3  1  0  0  0  0
  1  4  2  0  0  0  0
  1  5  1  0  0  0  0
  2  6  2  0  0  0  0
  2 11  1  0  0  0  0
  2  5  1  0  0  0  0
  4 10  1  0  0  0  0
  7  8  2  0  0  0  0
  7 12  1  0  0  0  0
  8  9  1  0  0  0  0
  9 10  2  0  0  0  0
 10 11  1  0  0  0  0
 11 12  2  0  0  0  0
M  END
>  <CHROM.1>
30.69454059,18.26262244,16.16662551,-1.51004938,1.04117753,1.15959907

>  <Name>
ligand

>  <RI>
0

>  <Rbt.Current_Directory>
/home/itssahil/PROJECTS/Mol_Feturizer/New_Systems/rnas/4LX6

>  <Rbt.Executable>
rbdock ($Id: //depot/dev/client3/rdock/2013.1/src/exe/rbdock.cxx#4 $)

>  <Rbt.Library>
libRbt.so (2013.1, Build901 2013/11/27)

>  <Rbt.Parameter_File>
/export/apps/rDock/src/rDock_2013.1_src/data/scripts/dock_solv.prm

>  <Rbt.Receptor>
prm/pocket_docking_4.prm

>  <SCORE>
-16.5906

>  <SCORE.INTER>
-16.5906

>  <SCORE.INTER.CONST>
1

>  <SCORE.INTER.POLAR>
0

>  <SCORE.INTER.ROT>
0

>  <SCORE.INTER.SOLV>
14.018

>  <SCORE.INTER.VDW>
-19.3331

>  <SCORE.INTER.norm>
-1.38255

>  <SCORE.INTRA>
0

>  <SCORE.INTRA.DIHEDRAL>
0

>  <SCORE.INTRA.DIHEDRAL.0>
0

>  <SCORE.INTRA.POLAR>
0

>  <SCORE.INTRA.POLAR.0>
0

>  <SCORE.INTRA.REPUL>
0

>  <SCORE.INTRA.REPUL.0>
0

>  <SCORE.INTRA.SOLV>
0

>  <SCORE.INTRA.SOLV.lig_0>
-28.9128

>  <SCORE.INTRA.VDW>
0

>  <SCORE.INTRA.VDW.0>
0

>  <SCORE.INTRA.norm>
0

>  <SCORE.RESTR>
0

>  <SCORE.RESTR.CAVITY>
0

>  <SCORE.RESTR.norm>
0

>  <SCORE.SYSTEM>
0

>  <SCORE.SYSTEM.CONST>
0

>  <SCORE.SYSTEM.DIHEDRAL>
0

>  <SCORE.SYSTEM.SOLV>
0

>  <SCORE.SYSTEM.norm>
0

>  <SCORE.heavy>
12

>  <SCORE.norm>
-1.38255

>  <RMSD>
0.719

$$$$
ligand
 OpenBabel11021811503D
libRbt.so/2013.1/901 2013/11/27
 12 13  0  0  0  0  0  0  0  0999 V2000
   31.0967   18.1138   14.1256 C   0  0  0  0  0  0  0  0  0  0  0  0
   30.0273   16.9298   15.9362 C   0  0  0  0  0  0  0  0  0  0  0  0
   31.4404   18.2083   12.8463 N   0  0  0  0  0  0  0  0  0  0  0  0
   31.4303   19.1027   14.9611 N   0  0  0  0  0  0  0  0  0  0  0  0
   30.3802   16.9963   14.5931 N   0  0  0  0  0  0  0  0  0  0  0  0
   29.4037   15.9460   16.3441 O   0  0  0  0  0  0  0  0  0  0  0  0
   30.4620   19.0294   18.9548 N   0  0  0  0  0  0  0  0  0  0  0  0
   31.1740   20.1098   18.4107 C   0  0  0  0  0  0  0  0  0  0  0  0
   31.4860   20.1088   17.0382 N   0  0  0  0  0  0  0  0  0  0  0  0
   31.1187   19.0690   16.2629 C   0  0  0  0  0  0  0  0  0  0  0  0
   30.4034   17.9793   16.7783 C   0  0  0  0  0  0  0  0  0  0  0  0
   30.0772   17.9484   18.1261 C   0  0  0  0  0  0  0  0  0  0  0  0
  1  3  1  0  0  0  0
  1  4  2  0  0  0  0
  1  5  1  0  0  0  0
  2  6  2  0  0  0  0
  2 11  1  0  0  0  0
  2  5  1  0  0  0  0
  4 10  1  0  0  0  0
  7  8  2  0  0  0  0
  7 12  1  0  0  0  0
  8  9  1  0  0  0  0
  9 10  2  0  0  0  0
 10 11  1  0  0  0  0
 11 12  2  0  0  0  0
M  END
>  <CHROM.1>
30.69632410,18.26072825,16.16899944,-1.51341655,1.03918454,1.16395678

>  <Name>
ligand

>  <RI>
0

>  <Rbt.Current_Directory>
/home/itssahil/PROJECTS/Mol_Feturizer/New_Systems/rnas/4LX6

>  <Rbt.Executable>
rbdock ($Id: //depot/dev/client3/rdock/2013.1/src/exe/rbdock.cxx#4 $)

>  <Rbt.Library>
libRbt.so (2013.1, Build901 2013/11/27)

>  <Rbt.Parameter_File>
/export/apps/rDock/src/rDock_2013.1_src/data/scripts/dock_solv.prm

>  <Rbt.Receptor>
prm/pocket_docking_6.prm

>  <SCORE>
-16.5916

>  <SCORE.INTER>
-16.5916

>  <SCORE.INTER.CONST>
1

>  <SCORE.INTER.POLAR>
0

>  <SCORE.INTER.ROT>
0

>  <SCORE.INTER.SOLV>
14.0052

>  <SCORE.INTER.VDW>
-19.3295

>  <SCORE.INTER.norm>
-1.38263

>  <SCORE.INTRA>
0

>  <SCORE.INTRA.DIHEDRAL>
0

>  <SCORE.INTRA.DIHEDRAL.0>
0

>  <SCORE.INTRA.POLAR>
0

>  <SCORE.INTRA.POLAR.0>
0

>  <SCORE.INTRA.REPUL>
0

>  <SCORE.INTRA.REPUL.0>
0

>  <SCORE.INTRA.SOLV>
0

>  <SCORE.INTRA.SOLV.lig_0>
-28.9128

>  <SCORE.INTRA.VDW>
0

>  <SCORE.INTRA.VDW.0>
0

>  <SCORE.INTRA.norm>
0

>  <SCORE.RESTR>
0

>  <SCORE.RESTR.CAVITY>
0

>  <SCORE.RESTR.norm>
0

>  <SCORE.SYSTEM>
0

>  <SCORE.SYSTEM.CONST>
0

>  <SCORE.SYSTEM.DIHEDRAL>
0

>  <SCORE.SYSTEM.SOLV>
0

>  <SCORE.SYSTEM.norm>
0

>  <SCORE.heavy>
12

>  <SCORE.norm>
-1.38263

>  <RMSD>
0.719

$$$$
ligand
 OpenBabel11021811503D
libRbt.so/2013.1/901 2013/11/27
 12 13  0  0  0  0  0  0  0  0999 V2000
   31.1005   18.1070   14.1326 C   0  0  0  0  0  0  0  0  0  0  0  0
   30.0332   16.9196   15.9423 C   0  0  0  0  0  0  0  0  0  0  0  0
   31.4468   18.2017   12.8541 N   0  0  0  0  0  0  0  0  0  0  0  0
   31.4264   19.0990   14.9675 N   0  0  0  0  0  0  0  0  0  0  0  0
   30.3891   16.9862   14.6000 N   0  0  0  0  0  0  0  0  0  0  0  0
   29.4142   15.9329   16.3501 O   0  0  0  0  0  0  0  0  0  0  0  0
   30.4486   19.0260   18.9590 N   0  0  0  0  0  0  0  0  0  0  0  0
   31.1559   20.1096   18.4150 C   0  0  0  0  0  0  0  0  0  0  0  0
   31.4714   20.1083   17.0433 N   0  0  0  0  0  0  0  0  0  0  0  0
   31.1118   19.0654   16.2686 C   0  0  0  0  0  0  0  0  0  0  0  0
   30.4014   17.9725   16.7838 C   0  0  0  0  0  0  0  0  0  0  0  0
   30.0720   17.9416   18.1308 C   0  0  0  0  0  0  0  0  0  0  0  0
  1  3  1  0  0  0  0
  1  4  2  0  0  0  0
  1  5  1  0  0  0  0
  2  6  2  0  0  0  0
  2 11  1  0  0  0  0
  2  5  1  0  0  0  0
  4 10  1  0  0  0  0
  7  8  2  0  0  0  0
  7 12  1  0  0  0  0
  8  9  1  0  0  0  0
  9 10  2  0  0  0  0
 10 11  1  0  0  0  0
 11 12  2  0  0  0  0
M  END
>  <CHROM.1>
30.69421544,18.25463729,16.17484877,-1.50448174,1.04335540,1.15481377

>  <Name>
ligand

>  <RI>
0

>  <Rbt.Current_Directory>
/home/itssahil/PROJECTS/Mol_Feturizer/New_Systems/rnas/4LX6

>  <Rbt.Executable>
rbdock ($Id: //depot/dev/client3/rdock/2013.1/src/exe/rbdock.cxx#4 $)

>  <Rbt.Library>
libRbt.so (2013.1, Build901 2013/11/27)

>  <Rbt.Parameter_File>
/export/apps/rDock/src/rDock_2013.1_src/data/scripts/dock_solv.prm

>  <Rbt.Receptor>
prm/pocket_docking_3.prm

>  <SCORE>
-16.5618

>  <SCORE.INTER>
-16.5618

>  <SCORE.INTER.CONST>
1

>  <SCORE.INTER.POLAR>
0

>  <SCORE.INTER.ROT>
0

>  <SCORE.INTER.SOLV>
14.0278

>  <SCORE.INTER.VDW>
-19.3171

>  <SCORE.INTER.norm>
-1.38015

>  <SCORE.INTRA>
0

>  <SCORE.INTRA.DIHEDRAL>
0

>  <SCORE.INTRA.DIHEDRAL.0>
0

>  <SCORE.INTRA.POLAR>
0

>  <SCORE.INTRA.POLAR.0>
0

>  <SCORE.INTRA.REPUL>
0

>  <SCORE.INTRA.REPUL.0>
0

>  <SCORE.INTRA.SOLV>
0

>  <SCORE.INTRA.SOLV.lig_0>
-28.9128

>  <SCORE.INTRA.VDW>
0

>  <SCORE.INTRA.VDW.0>
0

>  <SCORE.INTRA.norm>
0

>  <SCORE.RESTR>
0

>  <SCORE.RESTR.CAVITY>
0

>  <SCORE.RESTR.norm>
0

>  <SCORE.SYSTEM>
0

>  <SCORE.SYSTEM.CONST>
0

>  <SCORE.SYSTEM.DIHEDRAL>
0

>  <SCORE.SYSTEM.SOLV>
0

>  <SCORE.SYSTEM.norm>
0

>  <SCORE.heavy>
12

>  <SCORE.norm>
-1.38015

>  <RMSD>
0.721

$$$$
ligand
 OpenBabel11021811503D
libRbt.so/2013.1/901 2013/11/27
 12 13  0  0  0  0  0  0  0  0999 V2000
   31.0889   18.1194   14.1237 C   0  0  0  0  0  0  0  0  0  0  0  0
   30.0282   16.9313   15.9367 C   0  0  0  0  0  0  0  0  0  0  0  0
   31.4284   18.2157   12.8435 N   0  0  0  0  0  0  0  0  0  0  0  0
   31.4222   19.1087   14.9588 N   0  0  0  0  0  0  0  0  0  0  0  0
   30.3769   16.9997   14.5926 N   0  0  0  0  0  0  0  0  0  0  0  0
   29.4086   15.9455   16.3459 O   0  0  0  0  0  0  0  0  0  0  0  0
   30.4661   19.0302   18.9554 N   0  0  0  0  0  0  0  0  0  0  0  0
   31.1734   20.1129   18.4098 C   0  0  0  0  0  0  0  0  0  0  0  0
   31.4814   20.1136   17.0364 N   0  0  0  0  0  0  0  0  0  0  0  0
   31.1146   19.0733   16.2615 C   0  0  0  0  0  0  0  0  0  0  0  0
   30.4039   17.9814   16.7783 C   0  0  0  0  0  0  0  0  0  0  0  0
   30.0818   17.9486   18.1271 C   0  0  0  0  0  0  0  0  0  0  0  0
  1  3  1  0  0  0  0
  1  4  2  0  0  0  0
  1  5  1  0  0  0  0
  2  6  2  0  0  0  0
  2 11  1  0  0  0  0
  2  5  1  0  0  0  0
  4 10  1  0  0  0  0
  7  8  2  0  0  0  0
  7 12  1  0  0  0  0
  8  9  1  0  0  0  0
  9 10  2  0  0  0  0
 10 11  1  0  0  0  0
 11 12  2  0  0  0  0
M  END
>  <CHROM.1>
30.69421887,18.26394094,16.16838550,-1.51671117,1.04293530,1.16743941

>  <Name>
ligand

>  <RI>
0

>  <Rbt.Current_Directory>
/home/itssahil/PROJECTS/Mol_Feturizer/New_Systems/rnas/4LX6

>  <Rbt.Executable>
rbdock ($Id: //depot/dev/client3/rdock/2013.1/src/exe/rbdock.cxx#4 $)

>  <Rbt.Library>
libRbt.so (2013.1, Build901 2013/11/27)

>  <Rbt.Parameter_File>
/export/apps/rDock/src/rDock_2013.1_src/data/scripts/dock_solv.prm

>  <Rbt.Receptor>
prm/blind_docking_60.prm

>  <SCORE>
-16.5889

>  <SCORE.INTER>
-16.5889

>  <SCORE.INTER.CONST>
1

>  <SCORE.INTER.POLAR>
0

>  <SCORE.INTER.ROT>
0

>  <SCORE.INTER.SOLV>
13.999

>  <SCORE.INTER.VDW>
-19.3256

>  <SCORE.INTER.norm>
-1.3824

>  <SCORE.INTRA>
0

>  <SCORE.INTRA.DIHEDRAL>
0

>  <SCORE.INTRA.DIHEDRAL.0>
0

>  <SCORE.INTRA.POLAR>
0

>  <SCORE.INTRA.POLAR.0>
0

>  <SCORE.INTRA.REPUL>
0

>  <SCORE.INTRA.REPUL.0>
0

>  <SCORE.INTRA.SOLV>
0

>  <SCORE.INTRA.SOLV.lig_0>
-28.9128

>  <SCORE.INTRA.VDW>
0

>  <SCORE.INTRA.VDW.0>
0

>  <SCORE.INTRA.norm>
0

>  <SCORE.RESTR>
0

>  <SCORE.RESTR.CAVITY>
0

>  <SCORE.RESTR.norm>
0

>  <SCORE.SYSTEM>
0

>  <SCORE.SYSTEM.CONST>
0

>  <SCORE.SYSTEM.DIHEDRAL>
0

>  <SCORE.SYSTEM.SOLV>
0

>  <SCORE.SYSTEM.norm>
0

>  <SCORE.heavy>
12

>  <SCORE.norm>
-1.3824

>  <RMSD>
0.722

$$$$
ligand
 OpenBabel11021811503D
libRbt.so/2013.1/901 2013/11/27
 12 13  0  0  0  0  0  0  0  0999 V2000
   31.0898   18.1093   14.1245 C   0  0  0  0  0  0  0  0  0  0  0  0
   30.0310   16.9238   15.9404 C   0  0  0  0  0  0  0  0  0  0  0  0
   31.4286   18.2034   12.8439 N   0  0  0  0  0  0  0  0  0  0  0  0
   31.4226   19.1006   14.9575 N   0  0  0  0  0  0  0  0  0  0  0  0
   30.3790   16.9899   14.5960 N   0  0  0  0  0  0  0  0  0  0  0  0
   29.4126   15.9382   16.3518 O   0  0  0  0  0  0  0  0  0  0  0  0
   30.4685   19.0291   18.9547 N   0  0  0  0  0  0  0  0  0  0  0  0
   31.1746   20.1114   18.4066 C   0  0  0  0  0  0  0  0  0  0  0  0
   31.4819   20.1097   17.0331 N   0  0  0  0  0  0  0  0  0  0  0  0
   31.1157   19.0675   16.2604 C   0  0  0  0  0  0  0  0  0  0  0  0
   30.4062   17.9759   16.7798 C   0  0  0  0  0  0  0  0  0  0  0  0
   30.0848   17.9455   18.1288 C   0  0  0  0  0  0  0  0  0  0  0  0
  1  3  1  0  0  0  0
  1  4  2  0  0  0  0
  1  5  1  0  0  0  0
  2  6  2  0  0  0  0
  2 11  1  0  0  0  0
  2  5  1  0  0  0  0
  4 10  1  0  0  0  0
  7  8  2  0  0  0  0
  7 12  1  0  0  0  0
  8  9  1  0  0  0  0
  9 10  2  0  0  0  0
 10 11  1  0  0  0  0
 11 12  2  0  0  0  0
M  END
>  <CHROM.1>
30.69597167,18.25753152,16.16911287,-1.51688274,1.04396337,1.16560449

>  <Name>
ligand

>  <RI>
0

>  <Rbt.Current_Directory>
/home/itssahil/PROJECTS/Mol_Feturizer/New_Systems/rnas/4LX6

>  <Rbt.Executable>
rbdock ($Id: //depot/dev/client3/rdock/2013.1/src/exe/rbdock.cxx#4 $)

>  <Rbt.Library>
libRbt.so (2013.1, Build901 2013/11/27)

>  <Rbt.Parameter_File>
/export/apps/rDock/src/rDock_2013.1_src/data/scripts/dock_solv.prm

>  <Rbt.Receptor>
prm/pocket_docking_3.prm

>  <SCORE>
-16.5897

>  <SCORE.INTER>
-16.5897

>  <SCORE.INTER.CONST>
1

>  <SCORE.INTER.POLAR>
0

>  <SCORE.INTER.ROT>
0

>  <SCORE.INTER.SOLV>
13.9981

>  <SCORE.INTER.VDW>
-19.3258

>  <SCORE.INTER.norm>
-1.38248

>  <SCORE.INTRA>
0

>  <SCORE.INTRA.DIHEDRAL>
0

>  <SCORE.INTRA.DIHEDRAL.0>
0

>  <SCORE.INTRA.POLAR>
0

>  <SCORE.INTRA.POLAR.0>
0

>  <SCORE.INTRA.REPUL>
0

>  <SCORE.INTRA.REPUL.0>
0

>  <SCORE.INTRA.SOLV>
0

>  <SCORE.INTRA.SOLV.lig_0>
-28.9128

>  <SCORE.INTRA.VDW>
0

>  <SCORE.INTRA.VDW.0>
0

>  <SCORE.INTRA.norm>
0

>  <SCORE.RESTR>
0

>  <SCORE.RESTR.CAVITY>
0

>  <SCORE.RESTR.norm>
0

>  <SCORE.SYSTEM>
0

>  <SCORE.SYSTEM.CONST>
0

>  <SCORE.SYSTEM.DIHEDRAL>
0

>  <SCORE.SYSTEM.SOLV>
0

>  <SCORE.SYSTEM.norm>
0

>  <SCORE.heavy>
12

>  <SCORE.norm>
-1.38248

>  <RMSD>
0.723

$$$$
ligand
 OpenBabel11021811503D
libRbt.so/2013.1/901 2013/11/27
 12 13  0  0  0  0  0  0  0  0999 V2000
   31.0577   18.0322   14.1290 C   0  0  0  0  0  0  0  0  0  0  0  0
   30.0243   16.8717   15.9754 C   0  0  0  0  0  0  0  0  0  0  0  0
   31.3871   18.1042   12.8445 N   0  0  0  0  0  0  0  0  0  0  0  0
   31.3848   19.0436   14.9396 N   0  0  0  0  0  0  0  0  0  0  0  0
   30.3628   16.9146   14.6276 N   0  0  0  0  0  0  0  0  0  0  0  0
   29.4197   15.8878   16.4106 O   0  0  0  0  0  0  0  0  0  0  0  0
   30.4577   19.0421   18.9438 N   0  0  0  0  0  0  0  0  0  0  0  0
   31.1480   20.1209   18.3694 C   0  0  0  0  0  0  0  0  0  0  0  0
   31.4463   20.0949   16.9941 N   0  0  0  0  0  0  0  0  0  0  0  0
   31.0868   19.0333   16.2450 C   0  0  0  0  0  0  0  0  0  0  0  0
   30.3931   17.9446   16.7909 C   0  0  0  0  0  0  0  0  0  0  0  0
   30.0809   17.9378   18.1424 C   0  0  0  0  0  0  0  0  0  0  0  0
  1  3  1  0  0  0  0
  1  4  2  0  0  0  0
  1  5  1  0  0  0  0
  2  6  2  0  0  0  0
  2 11  1  0  0  0  0
  2  5  1  0  0  0  0
  4 10  1  0  0  0  0
  7  8  2  0  0  0  0
  7 12  1  0  0  0  0
  8  9  1  0  0  0  0
  9 10  2  0  0  0  0
 10 11  1  0  0  0  0
 11 12  2  0  0  0  0
M  END
>  <CHROM.1>
30.67568187,18.21712174,16.17278986,-1.52006750,1.05689530,1.14827145

>  <Name>
ligand

>  <RI>
0

>  <Rbt.Current_Directory>
/home/itssahil/PROJECTS/Mol_Feturizer/New_Systems/rnas/4LX6

>  <Rbt.Executable>
rbdock ($Id: //depot/dev/client3/rdock/2013.1/src/exe/rbdock.cxx#4 $)

>  <Rbt.Library>
libRbt.so (2013.1, Build901 2013/11/27)

>  <Rbt.Parameter_File>
/export/apps/rDock/src/rDock_2013.1_src/data/scripts/dock_solv.prm

>  <Rbt.Receptor>
prm/pocket_docking_5.prm

>  <SCORE>
-16.5539

>  <SCORE.INTER>
-16.5539

>  <SCORE.INTER.CONST>
1

>  <SCORE.INTER.POLAR>
0

>  <SCORE.INTER.ROT>
0

>  <SCORE.INTER.SOLV>
13.9691

>  <SCORE.INTER.VDW>
-19.2923

>  <SCORE.INTER.norm>
-1.37949

>  <SCORE.INTRA>
0

>  <SCORE.INTRA.DIHEDRAL>
0

>  <SCORE.INTRA.DIHEDRAL.0>
0

>  <SCORE.INTRA.POLAR>
0

>  <SCORE.INTRA.POLAR.0>
0

>  <SCORE.INTRA.REPUL>
0

>  <SCORE.INTRA.REPUL.0>
0

>  <SCORE.INTRA.SOLV>
0

>  <SCORE.INTRA.SOLV.lig_0>
-28.9128

>  <SCORE.INTRA.VDW>
0

>  <SCORE.INTRA.VDW.0>
0

>  <SCORE.INTRA.norm>
0

>  <SCORE.RESTR>
0

>  <SCORE.RESTR.CAVITY>
0

>  <SCORE.RESTR.norm>
0

>  <SCORE.SYSTEM>
0

>  <SCORE.SYSTEM.CONST>
0

>  <SCORE.SYSTEM.DIHEDRAL>
0

>  <SCORE.SYSTEM.SOLV>
0

>  <SCORE.SYSTEM.norm>
0

>  <SCORE.heavy>
12

>  <SCORE.norm>
-1.37949

>  <RMSD>
0.746

$$$$
ligand
 OpenBabel11021811503D
libRbt.so/2013.1/901 2013/11/27
 12 13  0  0  0  0  0  0  0  0999 V2000
   31.0110   18.0558   14.1135 C   0  0  0  0  0  0  0  0  0  0  0  0
   29.9847   16.9042   15.9694 C   0  0  0  0  0  0  0  0  0  0  0  0
   31.3227   18.1286   12.8247 N   0  0  0  0  0  0  0  0  0  0  0  0
   31.3674   19.0574   14.9241 N   0  0  0  0  0  0  0  0  0  0  0  0
   30.3041   16.9479   14.6170 N   0  0  0  0  0  0  0  0  0  0  0  0
   29.3695   15.9287   16.4088 O   0  0  0  0  0  0  0  0  0  0  0  0
   30.4991   19.0517   18.9415 N   0  0  0  0  0  0  0  0  0  0  0  0
   31.1996   20.1212   18.3621 C   0  0  0  0  0  0  0  0  0  0  0  0
   31.4772   20.0971   16.9825 N   0  0  0  0  0  0  0  0  0  0  0  0
   31.0884   19.0457   16.2337 C   0  0  0  0  0  0  0  0  0  0  0  0
   30.3839   17.9664   16.7845 C   0  0  0  0  0  0  0  0  0  0  0  0
   30.0915   17.9582   18.1404 C   0  0  0  0  0  0  0  0  0  0  0  0
  1  3  1  0  0  0  0
  1  4  2  0  0  0  0
  1  5  1  0  0  0  0
  2  6  2  0  0  0  0
  2 11  1  0  0  0  0
  2  5  1  0  0  0  0
  4 10  1  0  0  0  0
  7  8  2  0  0  0  0
  7 12  1  0  0  0  0
  8  9  1  0  0  0  0
  9 10  2  0  0  0  0
 10 11  1  0  0  0  0
 11 12  2  0  0  0  0
M  END
>  <CHROM.1>
30.66213564,18.23706077,16.16362196,-1.56098434,1.04667325,1.18871792

>  <Name>
ligand

>  <RI>
0

>  <Rbt.Current_Directory>
/home/itssahil/PROJECTS/Mol_Feturizer/New_Systems/rnas/4LX6

>  <Rbt.Executable>
rbdock ($Id: //depot/dev/client3/rdock/2013.1/src/exe/rbdock.cxx#4 $)

>  <Rbt.Library>
libRbt.so (2013.1, Build901 2013/11/27)

>  <Rbt.Parameter_File>
/export/apps/rDock/src/rDock_2013.1_src/data/scripts/dock_solv.prm

>  <Rbt.Receptor>
prm/blind_docking_100.prm

>  <SCORE>
-16.5939

>  <SCORE.INTER>
-16.5939

>  <SCORE.INTER.CONST>
1

>  <SCORE.INTER.POLAR>
0

>  <SCORE.INTER.ROT>
0

>  <SCORE.INTER.SOLV>
13.7681

>  <SCORE.INTER.VDW>
-19.2519

>  <SCORE.INTER.norm>
-1.38282

>  <SCORE.INTRA>
0

>  <SCORE.INTRA.DIHEDRAL>
0

>  <SCORE.INTRA.DIHEDRAL.0>
0

>  <SCORE.INTRA.POLAR>
0

>  <SCORE.INTRA.POLAR.0>
0

>  <SCORE.INTRA.REPUL>
0

>  <SCORE.INTRA.REPUL.0>
0

>  <SCORE.INTRA.SOLV>
0

>  <SCORE.INTRA.SOLV.lig_0>
-28.9128

>  <SCORE.INTRA.VDW>
0

>  <SCORE.INTRA.VDW.0>
0

>  <SCORE.INTRA.norm>
0

>  <SCORE.RESTR>
0

>  <SCORE.RESTR.CAVITY>
0

>  <SCORE.RESTR.norm>
0

>  <SCORE.SYSTEM>
0

>  <SCORE.SYSTEM.CONST>
0

>  <SCORE.SYSTEM.DIHEDRAL>
0

>  <SCORE.SYSTEM.SOLV>
0

>  <SCORE.SYSTEM.norm>
0

>  <SCORE.heavy>
12

>  <SCORE.norm>
-1.38282

>  <RMSD>
0.756

$$$$
ligand
 OpenBabel11021811503D
libRbt.so/2013.1/901 2013/11/27
 12 13  0  0  0  0  0  0  0  0999 V2000
   31.0497   18.0358   14.1294 C   0  0  0  0  0  0  0  0  0  0  0  0
   30.0170   16.8891   15.9848 C   0  0  0  0  0  0  0  0  0  0  0  0
   31.3690   18.1035   12.8421 N   0  0  0  0  0  0  0  0  0  0  0  0
   31.3969   19.0430   14.9370 N   0  0  0  0  0  0  0  0  0  0  0  0
   30.3444   16.9275   14.6341 N   0  0  0  0  0  0  0  0  0  0  0  0
   29.4032   15.9133   16.4253 O   0  0  0  0  0  0  0  0  0  0  0  0
   30.5042   19.0538   18.9490 N   0  0  0  0  0  0  0  0  0  0  0  0
   31.2036   20.1234   18.3685 C   0  0  0  0  0  0  0  0  0  0  0  0
   31.4898   20.0934   16.9907 N   0  0  0  0  0  0  0  0  0  0  0  0
   31.1100   19.0366   16.2449 C   0  0  0  0  0  0  0  0  0  0  0  0
   30.4068   17.9572   16.7969 C   0  0  0  0  0  0  0  0  0  0  0  0
   30.1061   17.9545   18.1510 C   0  0  0  0  0  0  0  0  0  0  0  0
  1  3  1  0  0  0  0
  1  4  2  0  0  0  0
  1  5  1  0  0  0  0
  2  6  2  0  0  0  0
  2 11  1  0  0  0  0
  2  5  1  0  0  0  0
  4 10  1  0  0  0  0
  7  8  2  0  0  0  0
  7 12  1  0  0  0  0
  8  9  1  0  0  0  0
  9 10  2  0  0  0  0
 10 11  1  0  0  0  0
 11 12  2  0  0  0  0
M  END
>  <CHROM.1>
30.68758345,18.22588623,16.17635899,-1.54649946,1.04827446,1.17112502

>  <Name>
ligand

>  <RI>
0

>  <Rbt.Current_Directory>
/home/itssahil/PROJECTS/Mol_Feturizer/New_Systems/rnas/4LX6

>  <Rbt.Executable>
rbdock ($Id: //depot/dev/client3/rdock/2013.1/src/exe/rbdock.cxx#4 $)

>  <Rbt.Library>
libRbt.so (2013.1, Build901 2013/11/27)

>  <Rbt.Parameter_File>
/export/apps/rDock/src/rDock_2013.1_src/data/scripts/dock_solv.prm

>  <Rbt.Receptor>
prm/pocket_docking_6.prm

>  <SCORE>
-16.5763

>  <SCORE.INTER>
-16.5763

>  <SCORE.INTER.CONST>
1

>  <SCORE.INTER.POLAR>
0

>  <SCORE.INTER.ROT>
0

>  <SCORE.INTER.SOLV>
13.9009

>  <SCORE.INTER.VDW>
-19.2845

>  <SCORE.INTER.norm>
-1.38136

>  <SCORE.INTRA>
0

>  <SCORE.INTRA.DIHEDRAL>
0

>  <SCORE.INTRA.DIHEDRAL.0>
0

>  <SCORE.INTRA.POLAR>
0

>  <SCORE.INTRA.POLAR.0>
0

>  <SCORE.INTRA.REPUL>
0

>  <SCORE.INTRA.REPUL.0>
0

>  <SCORE.INTRA.SOLV>
0

>  <SCORE.INTRA.SOLV.lig_0>
-28.9128

>  <SCORE.INTRA.VDW>
0

>  <SCORE.INTRA.VDW.0>
0

>  <SCORE.INTRA.norm>
0

>  <SCORE.RESTR>
0

>  <SCORE.RESTR.CAVITY>
0

>  <SCORE.RESTR.norm>
0

>  <SCORE.SYSTEM>
0

>  <SCORE.SYSTEM.CONST>
0

>  <SCORE.SYSTEM.DIHEDRAL>
0

>  <SCORE.SYSTEM.SOLV>
0

>  <SCORE.SYSTEM.norm>
0

>  <SCORE.heavy>
12

>  <SCORE.norm>
-1.38136

>  <RMSD>
0.756

$$$$
ligand
 OpenBabel11021811503D
libRbt.so/2013.1/901 2013/11/27
 12 13  0  0  0  0  0  0  0  0999 V2000
   31.0050   18.0577   14.1185 C   0  0  0  0  0  0  0  0  0  0  0  0
   29.9726   16.9107   15.9740 C   0  0  0  0  0  0  0  0  0  0  0  0
   31.3173   18.1293   12.8298 N   0  0  0  0  0  0  0  0  0  0  0  0
   31.3665   19.0572   14.9295 N   0  0  0  0  0  0  0  0  0  0  0  0
   30.2924   16.9533   14.6216 N   0  0  0  0  0  0  0  0  0  0  0  0
   29.3524   15.9383   16.4129 O   0  0  0  0  0  0  0  0  0  0  0  0
   30.4977   19.0546   18.9468 N   0  0  0  0  0  0  0  0  0  0  0  0
   31.2037   20.1208   18.3678 C   0  0  0  0  0  0  0  0  0  0  0  0
   31.4813   20.0956   16.9882 N   0  0  0  0  0  0  0  0  0  0  0  0
   31.0873   19.0465   16.2390 C   0  0  0  0  0  0  0  0  0  0  0  0
   30.3772   17.9706   16.7894 C   0  0  0  0  0  0  0  0  0  0  0  0
   30.0845   17.9635   18.1453 C   0  0  0  0  0  0  0  0  0  0  0  0
  1  3  1  0  0  0  0
  1  4  2  0  0  0  0
  1  5  1  0  0  0  0
  2  6  2  0  0  0  0
  2 11  1  0  0  0  0
  2  5  1  0  0  0  0
  4 10  1  0  0  0  0
  7  8  2  0  0  0  0
  7 12  1  0  0  0  0
  8  9  1  0  0  0  0
  9 10  2  0  0  0  0
 10 11  1  0  0  0  0
 11 12  2  0  0  0  0
M  END
>  <CHROM.1>
30.65686080,18.24006090,16.16866622,-1.56455673,1.04187124,1.19212542

>  <Name>
ligand

>  <RI>
0

>  <Rbt.Current_Directory>
/home/itssahil/PROJECTS/Mol_Feturizer/New_Systems/rnas/4LX6

>  <Rbt.Executable>
rbdock ($Id: //depot/dev/client3/rdock/2013.1/src/exe/rbdock.cxx#4 $)

>  <Rbt.Library>
libRbt.so (2013.1, Build901 2013/11/27)

>  <Rbt.Parameter_File>
/export/apps/rDock/src/rDock_2013.1_src/data/scripts/dock_solv.prm

>  <Rbt.Receptor>
prm/pocket_docking_7.prm

>  <SCORE>
-16.5941

>  <SCORE.INTER>
-16.5941

>  <SCORE.INTER.CONST>
1

>  <SCORE.INTER.POLAR>
0

>  <SCORE.INTER.ROT>
0

>  <SCORE.INTER.SOLV>
13.7367

>  <SCORE.INTER.VDW>
-19.2417

>  <SCORE.INTER.norm>
-1.38284

>  <SCORE.INTRA>
0

>  <SCORE.INTRA.DIHEDRAL>
0

>  <SCORE.INTRA.DIHEDRAL.0>
0

>  <SCORE.INTRA.POLAR>
0

>  <SCORE.INTRA.POLAR.0>
0

>  <SCORE.INTRA.REPUL>
0

>  <SCORE.INTRA.REPUL.0>
0

>  <SCORE.INTRA.SOLV>
0

>  <SCORE.INTRA.SOLV.lig_0>
-28.9128

>  <SCORE.INTRA.VDW>
0

>  <SCORE.INTRA.VDW.0>
0

>  <SCORE.INTRA.norm>
0

>  <SCORE.RESTR>
0

>  <SCORE.RESTR.CAVITY>
0

>  <SCORE.RESTR.norm>
0

>  <SCORE.SYSTEM>
0

>  <SCORE.SYSTEM.CONST>
0

>  <SCORE.SYSTEM.DIHEDRAL>
0

>  <SCORE.SYSTEM.SOLV>
0

>  <SCORE.SYSTEM.norm>
0

>  <SCORE.heavy>
12

>  <SCORE.norm>
-1.38284

>  <RMSD>
0.762

$$$$
ligand
 OpenBabel11021811503D
libRbt.so/2013.1/901 2013/11/27
 12 13  0  0  0  0  0  0  0  0999 V2000
   31.0013   18.0476   14.1267 C   0  0  0  0  0  0  0  0  0  0  0  0
   29.9655   16.9047   15.9828 C   0  0  0  0  0  0  0  0  0  0  0  0
   31.3140   18.1174   12.8380 N   0  0  0  0  0  0  0  0  0  0  0  0
   31.3652   19.0468   14.9370 N   0  0  0  0  0  0  0  0  0  0  0  0
   30.2857   16.9454   14.6305 N   0  0  0  0  0  0  0  0  0  0  0  0
   29.3427   15.9342   16.4224 O   0  0  0  0  0  0  0  0  0  0  0  0
   30.4955   19.0496   18.9541 N   0  0  0  0  0  0  0  0  0  0  0  0
   31.2043   20.1135   18.3744 C   0  0  0  0  0  0  0  0  0  0  0  0
   31.4822   20.0865   16.9949 N   0  0  0  0  0  0  0  0  0  0  0  0
   31.0856   19.0378   16.2465 C   0  0  0  0  0  0  0  0  0  0  0  0
   30.3727   17.9642   16.7975 C   0  0  0  0  0  0  0  0  0  0  0  0
   30.0797   17.9589   18.1533 C   0  0  0  0  0  0  0  0  0  0  0  0
  1  3  1  0  0  0  0
  1  4  2  0  0  0  0
  1  5  1  0  0  0  0
  2  6  2  0  0  0  0
  2 11  1  0  0  0  0
  2  5  1  0  0  0  0
  4 10  1  0  0  0  0
  7  8  2  0  0  0  0
  7 12  1  0  0  0  0
  8  9  1  0  0  0  0
  9 10  2  0  0  0  0
 10 11  1  0  0  0  0
 11 12  2  0  0  0  0
M  END
>  <CHROM.1>
30.65314247,18.23247796,16.17661970,-1.56601815,1.03939653,1.19259778

>  <Name>
ligand

>  <RI>
0

>  <Rbt.Current_Directory>
/home/itssahil/PROJECTS/Mol_Feturizer/New_Systems/rnas/4LX6

>  <Rbt.Executable>
rbdock ($Id: //depot/dev/client3/rdock/2013.1/src/exe/rbdock.cxx#4 $)

>  <Rbt.Library>
libRbt.so (2013.1, Build901 2013/11/27)

>  <Rbt.Parameter_File>
/export/apps/rDock/src/rDock_2013.1_src/data/scripts/dock_solv.prm

>  <Rbt.Receptor>
prm/pocket_docking_7.prm

>  <SCORE>
-16.599

>  <SCORE.INTER>
-16.599

>  <SCORE.INTER.CONST>
1

>  <SCORE.INTER.POLAR>
0

>  <SCORE.INTER.ROT>
0

>  <SCORE.INTER.SOLV>
13.7108

>  <SCORE.INTER.VDW>
-19.2363

>  <SCORE.INTER.norm>
-1.38325

>  <SCORE.INTRA>
0

>  <SCORE.INTRA.DIHEDRAL>
0

>  <SCORE.INTRA.DIHEDRAL.0>
0

>  <SCORE.INTRA.POLAR>
0

>  <SCORE.INTRA.POLAR.0>
0

>  <SCORE.INTRA.REPUL>
0

>  <SCORE.INTRA.REPUL.0>
0

>  <SCORE.INTRA.SOLV>
0

>  <SCORE.INTRA.SOLV.lig_0>
-28.9128

>  <SCORE.INTRA.VDW>
0

>  <SCORE.INTRA.VDW.0>
0

>  <SCORE.INTRA.norm>
0

>  <SCORE.RESTR>
0

>  <SCORE.RESTR.CAVITY>
0

>  <SCORE.RESTR.norm>
0

>  <SCORE.SYSTEM>
0

>  <SCORE.SYSTEM.CONST>
0

>  <SCORE.SYSTEM.DIHEDRAL>
0

>  <SCORE.SYSTEM.SOLV>
0

>  <SCORE.SYSTEM.norm>
0

>  <SCORE.heavy>
12

>  <SCORE.norm>
-1.38325

>  <RMSD>
0.767

$$$$
ligand
 OpenBabel11021811503D
libRbt.so/2013.1/901 2013/11/27
 12 13  0  0  0  0  0  0  0  0999 V2000
   31.0255   18.0263   14.1039 C   0  0  0  0  0  0  0  0  0  0  0  0
   30.0342   16.8859   15.9856 C   0  0  0  0  0  0  0  0  0  0  0  0
   31.3319   18.0813   12.8129 N   0  0  0  0  0  0  0  0  0  0  0  0
   31.3580   19.0528   14.8933 N   0  0  0  0  0  0  0  0  0  0  0  0
   30.3488   16.9109   14.6315 N   0  0  0  0  0  0  0  0  0  0  0  0
   29.4456   15.9039   16.4462 O   0  0  0  0  0  0  0  0  0  0  0  0
   30.5006   19.1050   18.9126 N   0  0  0  0  0  0  0  0  0  0  0  0
   31.1716   20.1805   18.3099 C   0  0  0  0  0  0  0  0  0  0  0  0
   31.4462   20.1359   16.9301 N   0  0  0  0  0  0  0  0  0  0  0  0
   31.0828   19.0601   16.2037 C   0  0  0  0  0  0  0  0  0  0  0  0
   30.4079   17.9742   16.7781 C   0  0  0  0  0  0  0  0  0  0  0  0
   30.1193   17.9856   18.1347 C   0  0  0  0  0  0  0  0  0  0  0  0
  1  3  1  0  0  0  0
  1  4  2  0  0  0  0
  1  5  1  0  0  0  0
  2  6  2  0  0  0  0
  2 11  1  0  0  0  0
  2  5  1  0  0  0  0
  4 10  1  0  0  0  0
  7  8  2  0  0  0  0
  7 12  1  0  0  0  0
  8  9  1  0  0  0  0
  9 10  2  0  0  0  0
 10 11  1  0  0  0  0
 11 12  2  0  0  0  0
M  END
>  <CHROM.1>
30.67741184,18.23948776,16.15105001,-1.54585688,1.07160389,1.15554475

>  <Name>
ligand

>  <RI>
0

>  <Rbt.Current_Directory>
/home/itssahil/PROJECTS/Mol_Feturizer/New_Systems/rnas/4LX6

>  <Rbt.Executable>
rbdock ($Id: //depot/dev/client3/rdock/2013.1/src/exe/rbdock.cxx#4 $)

>  <Rbt.Library>
libRbt.so (2013.1, Build901 2013/11/27)

>  <Rbt.Parameter_File>
/export/apps/rDock/src/rDock_2013.1_src/data/scripts/dock_solv.prm

>  <Rbt.Receptor>
prm/pocket_docking_3.prm

>  <SCORE>
-16.6178

>  <SCORE.INTER>
-16.6178

>  <SCORE.INTER.CONST>
1

>  <SCORE.INTER.POLAR>
0

>  <SCORE.INTER.ROT>
0

>  <SCORE.INTER.SOLV>
13.9503

>  <SCORE.INTER.VDW>
-19.3286

>  <SCORE.INTER.norm>
-1.38481

>  <SCORE.INTRA>
0

>  <SCORE.INTRA.DIHEDRAL>
0

>  <SCORE.INTRA.DIHEDRAL.0>
0

>  <SCORE.INTRA.POLAR>
0

>  <SCORE.INTRA.POLAR.0>
0

>  <SCORE.INTRA.REPUL>
0

>  <SCORE.INTRA.REPUL.0>
0

>  <SCORE.INTRA.SOLV>
0

>  <SCORE.INTRA.SOLV.lig_0>
-28.9128

>  <SCORE.INTRA.VDW>
0

>  <SCORE.INTRA.VDW.0>
0

>  <SCORE.INTRA.norm>
0

>  <SCORE.RESTR>
0

>  <SCORE.RESTR.CAVITY>
0

>  <SCORE.RESTR.norm>
0

>  <SCORE.SYSTEM>
0

>  <SCORE.SYSTEM.CONST>
0

>  <SCORE.SYSTEM.DIHEDRAL>
0

>  <SCORE.SYSTEM.SOLV>
0

>  <SCORE.SYSTEM.norm>
0

>  <SCORE.heavy>
12

>  <SCORE.norm>
-1.38481

>  <RMSD>
0.768

$$$$
ligand
 OpenBabel11021811503D
libRbt.so/2013.1/901 2013/11/27
 12 13  0  0  0  0  0  0  0  0999 V2000
   31.0141   18.0193   14.1267 C   0  0  0  0  0  0  0  0  0  0  0  0
   30.0066   16.8720   15.9956 C   0  0  0  0  0  0  0  0  0  0  0  0
   31.3201   18.0850   12.8362 N   0  0  0  0  0  0  0  0  0  0  0  0
   31.3635   19.0307   14.9280 N   0  0  0  0  0  0  0  0  0  0  0  0
   30.3203   16.9083   14.6417 N   0  0  0  0  0  0  0  0  0  0  0  0
   29.4030   15.8939   16.4451 O   0  0  0  0  0  0  0  0  0  0  0  0
   30.5108   19.0480   18.9487 N   0  0  0  0  0  0  0  0  0  0  0  0
   31.1981   20.1200   18.3582 C   0  0  0  0  0  0  0  0  0  0  0  0
   31.4707   20.0877   16.9777 N   0  0  0  0  0  0  0  0  0  0  0  0
   31.0897   19.0266   16.2387 C   0  0  0  0  0  0  0  0  0  0  0  0
   30.3983   17.9446   16.8008 C   0  0  0  0  0  0  0  0  0  0  0  0
   30.1111   17.9442   18.1578 C   0  0  0  0  0  0  0  0  0  0  0  0
  1  3  1  0  0  0  0
  1  4  2  0  0  0  0
  1  5  1  0  0  0  0
  2  6  2  0  0  0  0
  2 11  1  0  0  0  0
  2  5  1  0  0  0  0
  4 10  1  0  0  0  0
  7  8  2  0  0  0  0
  7 12  1  0  0  0  0
  8  9  1  0  0  0  0
  9 10  2  0  0  0  0
 10 11  1  0  0  0  0
 11 12  2  0  0  0  0
M  END
>  <CHROM.1>
30.67130620,18.21316777,16.17668751,-1.56059367,1.05749690,1.18049155

>  <Name>
ligand

>  <RI>
0

>  <Rbt.Current_Directory>
/home/itssahil/PROJECTS/Mol_Feturizer/New_Systems/rnas/4LX6

>  <Rbt.Executable>
rbdock ($Id: //depot/dev/client3/rdock/2013.1/src/exe/rbdock.cxx#4 $)

>  <Rbt.Library>
libRbt.so (2013.1, Build901 2013/11/27)

>  <Rbt.Parameter_File>
/export/apps/rDock/src/rDock_2013.1_src/data/scripts/dock_solv.prm

>  <Rbt.Receptor>
prm/pocket_docking_7.prm

>  <SCORE>
-16.6137

>  <SCORE.INTER>
-16.6137

>  <SCORE.INTER.CONST>
1

>  <SCORE.INTER.POLAR>
0

>  <SCORE.INTER.ROT>
0

>  <SCORE.INTER.SOLV>
13.8206

>  <SCORE.INTER.VDW>
-19.2827

>  <SCORE.INTER.norm>
-1.38448

>  <SCORE.INTRA>
0

>  <SCORE.INTRA.DIHEDRAL>
0

>  <SCORE.INTRA.DIHEDRAL.0>
0

>  <SCORE.INTRA.POLAR>
0

>  <SCORE.INTRA.POLAR.0>
0

>  <SCORE.INTRA.REPUL>
0

>  <SCORE.INTRA.REPUL.0>
0

>  <SCORE.INTRA.SOLV>
0

>  <SCORE.INTRA.SOLV.lig_0>
-28.9128

>  <SCORE.INTRA.VDW>
0

>  <SCORE.INTRA.VDW.0>
0

>  <SCORE.INTRA.norm>
0

>  <SCORE.RESTR>
0

>  <SCORE.RESTR.CAVITY>
0

>  <SCORE.RESTR.norm>
0

>  <SCORE.SYSTEM>
0

>  <SCORE.SYSTEM.CONST>
0

>  <SCORE.SYSTEM.DIHEDRAL>
0

>  <SCORE.SYSTEM.SOLV>
0

>  <SCORE.SYSTEM.norm>
0

>  <SCORE.heavy>
12

>  <SCORE.norm>
-1.38448

>  <RMSD>
0.769

$$$$
ligand
 OpenBabel11021811503D
libRbt.so/2013.1/901 2013/11/27
 12 13  0  0  0  0  0  0  0  0999 V2000
   30.9895   18.0327   14.1135 C   0  0  0  0  0  0  0  0  0  0  0  0
   29.9709   16.8949   15.9821 C   0  0  0  0  0  0  0  0  0  0  0  0
   31.2956   18.0961   12.8229 N   0  0  0  0  0  0  0  0  0  0  0  0
   31.3499   19.0399   14.9153 N   0  0  0  0  0  0  0  0  0  0  0  0
   30.2843   16.9288   14.6280 N   0  0  0  0  0  0  0  0  0  0  0  0
   29.3572   15.9229   16.4312 O   0  0  0  0  0  0  0  0  0  0  0  0
   30.4993   19.0635   18.9364 N   0  0  0  0  0  0  0  0  0  0  0  0
   31.1977   20.1285   18.3463 C   0  0  0  0  0  0  0  0  0  0  0  0
   31.4692   20.0943   16.9656 N   0  0  0  0  0  0  0  0  0  0  0  0
   31.0767   19.0378   16.2262 C   0  0  0  0  0  0  0  0  0  0  0  0
   30.3742   17.9628   16.7878 C   0  0  0  0  0  0  0  0  0  0  0  0
   30.0877   17.9645   18.1450 C   0  0  0  0  0  0  0  0  0  0  0  0
  1  3  1  0  0  0  0
  1  4  2  0  0  0  0
  1  5  1  0  0  0  0
  2  6  2  0  0  0  0
  2 11  1  0  0  0  0
  2  5  1  0  0  0  0
  4 10  1  0  0  0  0
  7  8  2  0  0  0  0
  7 12  1  0  0  0  0
  8  9  1  0  0  0  0
  9 10  2  0  0  0  0
 10 11  1  0  0  0  0
 11 12  2  0  0  0  0
M  END
>  <CHROM.1>
30.64975462,18.22885926,16.16376259,-1.56948320,1.04790282,1.18889624

>  <Name>
ligand

>  <RI>
0

>  <Rbt.Current_Directory>
/home/itssahil/PROJECTS/Mol_Feturizer/New_Systems/rnas/4LX6

>  <Rbt.Executable>
rbdock ($Id: //depot/dev/client3/rdock/2013.1/src/exe/rbdock.cxx#4 $)

>  <Rbt.Library>
libRbt.so (2013.1, Build901 2013/11/27)

>  <Rbt.Parameter_File>
/export/apps/rDock/src/rDock_2013.1_src/data/scripts/dock_solv.prm

>  <Rbt.Receptor>
prm/pocket_docking_8.prm

>  <SCORE>
-16.6054

>  <SCORE.INTER>
-16.6054

>  <SCORE.INTER.CONST>
1

>  <SCORE.INTER.POLAR>
0

>  <SCORE.INTER.ROT>
0

>  <SCORE.INTER.SOLV>
13.7338

>  <SCORE.INTER.VDW>
-19.2482

>  <SCORE.INTER.norm>
-1.38379

>  <SCORE.INTRA>
0

>  <SCORE.INTRA.DIHEDRAL>
0

>  <SCORE.INTRA.DIHEDRAL.0>
0

>  <SCORE.INTRA.POLAR>
0

>  <SCORE.INTRA.POLAR.0>
0

>  <SCORE.INTRA.REPUL>
0

>  <SCORE.INTRA.REPUL.0>
0

>  <SCORE.INTRA.SOLV>
0

>  <SCORE.INTRA.SOLV.lig_0>
-28.9128

>  <SCORE.INTRA.VDW>
0

>  <SCORE.INTRA.VDW.0>
0

>  <SCORE.INTRA.norm>
0

>  <SCORE.RESTR>
0

>  <SCORE.RESTR.CAVITY>
0

>  <SCORE.RESTR.norm>
0

>  <SCORE.SYSTEM>
0

>  <SCORE.SYSTEM.CONST>
0

>  <SCORE.SYSTEM.DIHEDRAL>
0

>  <SCORE.SYSTEM.SOLV>
0

>  <SCORE.SYSTEM.norm>
0

>  <SCORE.heavy>
12

>  <SCORE.norm>
-1.38379

>  <RMSD>
0.769

$$$$
ligand
 OpenBabel11021811503D
libRbt.so/2013.1/901 2013/11/27
 12 13  0  0  0  0  0  0  0  0999 V2000
   30.9922   18.0296   14.1219 C   0  0  0  0  0  0  0  0  0  0  0  0
   29.9944   16.8799   15.9944 C   0  0  0  0  0  0  0  0  0  0  0  0
   31.2918   18.0970   12.8299 N   0  0  0  0  0  0  0  0  0  0  0  0
   31.3453   19.0403   14.9226 N   0  0  0  0  0  0  0  0  0  0  0  0
   30.3013   16.9179   14.6389 N   0  0  0  0  0  0  0  0  0  0  0  0
   29.3933   15.9010   16.4457 O   0  0  0  0  0  0  0  0  0  0  0  0
   30.5125   19.0525   18.9475 N   0  0  0  0  0  0  0  0  0  0  0  0
   31.1966   20.1254   18.3548 C   0  0  0  0  0  0  0  0  0  0  0  0
   31.4623   20.0949   16.9729 N   0  0  0  0  0  0  0  0  0  0  0  0
   31.0779   19.0345   16.2347 C   0  0  0  0  0  0  0  0  0  0  0  0
   30.3897   17.9516   16.7989 C   0  0  0  0  0  0  0  0  0  0  0  0
   30.1093   17.9495   18.1573 C   0  0  0  0  0  0  0  0  0  0  0  0
  1  3  1  0  0  0  0
  1  4  2  0  0  0  0
  1  5  1  0  0  0  0
  2  6  2  0  0  0  0
  2 11  1  0  0  0  0
  2  5  1  0  0  0  0
  4 10  1  0  0  0  0
  7  8  2  0  0  0  0
  7 12  1  0  0  0  0
  8  9  1  0  0  0  0
  9 10  2  0  0  0  0
 10 11  1  0  0  0  0
 11 12  2  0  0  0  0
M  END
>  <CHROM.1>
30.65954452,18.22102561,16.17373782,-1.56975114,1.05964886,1.18965533

>  <Name>
ligand

>  <RI>
0

>  <Rbt.Current_Directory>
/home/itssahil/PROJECTS/Mol_Feturizer/New_Systems/rnas/4LX6

>  <Rbt.Executable>
rbdock ($Id: //depot/dev/client3/rdock/2013.1/src/exe/rbdock.cxx#4 $)

>  <Rbt.Library>
libRbt.so (2013.1, Build901 2013/11/27)

>  <Rbt.Parameter_File>
/export/apps/rDock/src/rDock_2013.1_src/data/scripts/dock_solv.prm

>  <Rbt.Receptor>
prm/pocket_docking_8.prm

>  <SCORE>
-16.601

>  <SCORE.INTER>
-16.601

>  <SCORE.INTER.CONST>
1

>  <SCORE.INTER.POLAR>
0

>  <SCORE.INTER.ROT>
0

>  <SCORE.INTER.SOLV>
13.767

>  <SCORE.INTER.VDW>
-19.2563

>  <SCORE.INTER.norm>
-1.38341

>  <SCORE.INTRA>
0

>  <SCORE.INTRA.DIHEDRAL>
0

>  <SCORE.INTRA.DIHEDRAL.0>
0

>  <SCORE.INTRA.POLAR>
0

>  <SCORE.INTRA.POLAR.0>
0

>  <SCORE.INTRA.REPUL>
0

>  <SCORE.INTRA.REPUL.0>
0

>  <SCORE.INTRA.SOLV>
0

>  <SCORE.INTRA.SOLV.lig_0>
-28.9128

>  <SCORE.INTRA.VDW>
0

>  <SCORE.INTRA.VDW.0>
0

>  <SCORE.INTRA.norm>
0

>  <SCORE.RESTR>
0

>  <SCORE.RESTR.CAVITY>
0

>  <SCORE.RESTR.norm>
0

>  <SCORE.SYSTEM>
0

>  <SCORE.SYSTEM.CONST>
0

>  <SCORE.SYSTEM.DIHEDRAL>
0

>  <SCORE.SYSTEM.SOLV>
0

>  <SCORE.SYSTEM.norm>
0

>  <SCORE.heavy>
12

>  <SCORE.norm>
-1.38341

>  <RMSD>
0.775

$$$$
ligand
 OpenBabel11021811503D
libRbt.so/2013.1/901 2013/11/27
 12 13  0  0  0  0  0  0  0  0999 V2000
   30.9937   18.0240   14.1445 C   0  0  0  0  0  0  0  0  0  0  0  0
   29.9759   16.8693   16.0032 C   0  0  0  0  0  0  0  0  0  0  0  0
   31.3061   18.0954   12.8558 N   0  0  0  0  0  0  0  0  0  0  0  0
   31.3403   19.0314   14.9521 N   0  0  0  0  0  0  0  0  0  0  0  0
   30.2962   16.9115   14.6510 N   0  0  0  0  0  0  0  0  0  0  0  0
   29.3691   15.8898   16.4452 O   0  0  0  0  0  0  0  0  0  0  0  0
   30.4680   19.0312   18.9687 N   0  0  0  0  0  0  0  0  0  0  0  0
   31.1594   20.1051   18.3864 C   0  0  0  0  0  0  0  0  0  0  0  0
   31.4386   20.0789   17.0071 N   0  0  0  0  0  0  0  0  0  0  0  0
   31.0601   19.0216   16.2615 C   0  0  0  0  0  0  0  0  0  0  0  0
   30.3648   17.9378   16.8152 C   0  0  0  0  0  0  0  0  0  0  0  0
   30.0710   17.9315   18.1708 C   0  0  0  0  0  0  0  0  0  0  0  0
  1  3  1  0  0  0  0
  1  4  2  0  0  0  0
  1  5  1  0  0  0  0
  2  6  2  0  0  0  0
  2 11  1  0  0  0  0
  2  5  1  0  0  0  0
  4 10  1  0  0  0  0
  7  8  2  0  0  0  0
  7 12  1  0  0  0  0
  8  9  1  0  0  0  0
  9 10  2  0  0  0  0
 10 11  1  0  0  0  0
 11 12  2  0  0  0  0
M  END
>  <CHROM.1>
30.64116130,18.20892223,16.19366971,-1.55230377,1.05462569,1.17786416

>  <Name>
ligand

>  <RI>
0

>  <Rbt.Current_Directory>
/home/itssahil/PROJECTS/Mol_Feturizer/New_Systems/rnas/4LX6

>  <Rbt.Executable>
rbdock ($Id: //depot/dev/client3/rdock/2013.1/src/exe/rbdock.cxx#4 $)

>  <Rbt.Library>
libRbt.so (2013.1, Build901 2013/11/27)

>  <Rbt.Parameter_File>
/export/apps/rDock/src/rDock_2013.1_src/data/scripts/dock_solv.prm

>  <Rbt.Receptor>
prm/blind_docking_60.prm

>  <SCORE>
-16.5745

>  <SCORE.INTER>
-16.5745

>  <SCORE.INTER.CONST>
1

>  <SCORE.INTER.POLAR>
0

>  <SCORE.INTER.ROT>
0

>  <SCORE.INTER.SOLV>
13.7441

>  <SCORE.INTER.VDW>
-19.231

>  <SCORE.INTER.norm>
-1.38121

>  <SCORE.INTRA>
0

>  <SCORE.INTRA.DIHEDRAL>
0

>  <SCORE.INTRA.DIHEDRAL.0>
0

>  <SCORE.INTRA.POLAR>
0

>  <SCORE.INTRA.POLAR.0>
0

>  <SCORE.INTRA.REPUL>
0

>  <SCORE.INTRA.REPUL.0>
0

>  <SCORE.INTRA.SOLV>
0

>  <SCORE.INTRA.SOLV.lig_0>
-28.9128

>  <SCORE.INTRA.VDW>
0

>  <SCORE.INTRA.VDW.0>
0

>  <SCORE.INTRA.norm>
0

>  <SCORE.RESTR>
0

>  <SCORE.RESTR.CAVITY>
0

>  <SCORE.RESTR.norm>
0

>  <SCORE.SYSTEM>
0

>  <SCORE.SYSTEM.CONST>
0

>  <SCORE.SYSTEM.DIHEDRAL>
0

>  <SCORE.SYSTEM.SOLV>
0

>  <SCORE.SYSTEM.norm>
0

>  <SCORE.heavy>
12

>  <SCORE.norm>
-1.38121

>  <RMSD>
0.778

$$$$
ligand
 OpenBabel11021811503D
libRbt.so/2013.1/901 2013/11/27
 12 13  0  0  0  0  0  0  0  0999 V2000
   30.9931   18.0246   14.1378 C   0  0  0  0  0  0  0  0  0  0  0  0
   29.9801   16.8753   16.0024 C   0  0  0  0  0  0  0  0  0  0  0  0
   31.3011   18.0928   12.8478 N   0  0  0  0  0  0  0  0  0  0  0  0
   31.3441   19.0332   14.9421 N   0  0  0  0  0  0  0  0  0  0  0  0
   30.2958   16.9142   14.6489 N   0  0  0  0  0  0  0  0  0  0  0  0
   29.3734   15.8976   16.4485 O   0  0  0  0  0  0  0  0  0  0  0  0
   30.4859   19.0425   18.9616 N   0  0  0  0  0  0  0  0  0  0  0  0
   31.1769   20.1142   18.3747 C   0  0  0  0  0  0  0  0  0  0  0  0
   31.4512   20.0847   16.9945 N   0  0  0  0  0  0  0  0  0  0  0  0
   31.0684   19.0264   16.2524 C   0  0  0  0  0  0  0  0  0  0  0  0
   30.3735   17.9449   16.8108 C   0  0  0  0  0  0  0  0  0  0  0  0
   30.0845   17.9418   18.1674 C   0  0  0  0  0  0  0  0  0  0  0  0
  1  3  1  0  0  0  0
  1  4  2  0  0  0  0
  1  5  1  0  0  0  0
  2  6  2  0  0  0  0
  2 11  1  0  0  0  0
  2  5  1  0  0  0  0
  4 10  1  0  0  0  0
  7  8  2  0  0  0  0
  7 12  1  0  0  0  0
  8  9  1  0  0  0  0
  9 10  2  0  0  0  0
 10 11  1  0  0  0  0
 11 12  2  0  0  0  0
M  END
>  <CHROM.1>
30.64806727,18.21427444,16.18773975,-1.56004632,1.05457426,1.18253803

>  <Name>
ligand

>  <RI>
0

>  <Rbt.Current_Directory>
/home/itssahil/PROJECTS/Mol_Feturizer/New_Systems/rnas/4LX6

>  <Rbt.Executable>
rbdock ($Id: //depot/dev/client3/rdock/2013.1/src/exe/rbdock.cxx#4 $)

>  <Rbt.Library>
libRbt.so (2013.1, Build901 2013/11/27)

>  <Rbt.Parameter_File>
/export/apps/rDock/src/rDock_2013.1_src/data/scripts/dock_solv.prm

>  <Rbt.Receptor>
prm/pocket_docking_7.prm

>  <SCORE>
-16.5654

>  <SCORE.INTER>
-16.5654

>  <SCORE.INTER.CONST>
1

>  <SCORE.INTER.POLAR>
0

>  <SCORE.INTER.ROT>
0

>  <SCORE.INTER.SOLV>
13.7481

>  <SCORE.INTER.VDW>
-19.2263

>  <SCORE.INTER.norm>
-1.38045

>  <SCORE.INTRA>
0

>  <SCORE.INTRA.DIHEDRAL>
0

>  <SCORE.INTRA.DIHEDRAL.0>
0

>  <SCORE.INTRA.POLAR>
0

>  <SCORE.INTRA.POLAR.0>
0

>  <SCORE.INTRA.REPUL>
0

>  <SCORE.INTRA.REPUL.0>
0

>  <SCORE.INTRA.SOLV>
0

>  <SCORE.INTRA.SOLV.lig_0>
-28.9128

>  <SCORE.INTRA.VDW>
0

>  <SCORE.INTRA.VDW.0>
0

>  <SCORE.INTRA.norm>
0

>  <SCORE.RESTR>
0

>  <SCORE.RESTR.CAVITY>
0

>  <SCORE.RESTR.norm>
0

>  <SCORE.SYSTEM>
0

>  <SCORE.SYSTEM.CONST>
0

>  <SCORE.SYSTEM.DIHEDRAL>
0

>  <SCORE.SYSTEM.SOLV>
0

>  <SCORE.SYSTEM.norm>
0

>  <SCORE.heavy>
12

>  <SCORE.norm>
-1.38045

>  <RMSD>
0.779

$$$$
ligand
 OpenBabel11021811503D
libRbt.so/2013.1/901 2013/11/27
 12 13  0  0  0  0  0  0  0  0999 V2000
   31.0067   18.0172   14.1114 C   0  0  0  0  0  0  0  0  0  0  0  0
   30.0122   16.8929   16.0010 C   0  0  0  0  0  0  0  0  0  0  0  0
   31.3083   18.0648   12.8190 N   0  0  0  0  0  0  0  0  0  0  0  0
   31.3524   19.0430   14.8958 N   0  0  0  0  0  0  0  0  0  0  0  0
   30.3214   16.9101   14.6457 N   0  0  0  0  0  0  0  0  0  0  0  0
   29.4160   15.9182   16.4675 O   0  0  0  0  0  0  0  0  0  0  0  0
   30.5122   19.1174   18.9184 N   0  0  0  0  0  0  0  0  0  0  0  0
   31.1911   20.1843   18.3092 C   0  0  0  0  0  0  0  0  0  0  0  0
   31.4595   20.1323   16.9285 N   0  0  0  0  0  0  0  0  0  0  0  0
   31.0827   19.0575   16.2073 C   0  0  0  0  0  0  0  0  0  0  0  0
   30.3997   17.9802   16.7882 C   0  0  0  0  0  0  0  0  0  0  0  0
   30.1168   17.9991   18.1460 C   0  0  0  0  0  0  0  0  0  0  0  0
  1  3  1  0  0  0  0
  1  4  2  0  0  0  0
  1  5  1  0  0  0  0
  2  6  2  0  0  0  0
  2 11  1  0  0  0  0
  2  5  1  0  0  0  0
  4 10  1  0  0  0  0
  7  8  2  0  0  0  0
  7 12  1  0  0  0  0
  8  9  1  0  0  0  0
  9 10  2  0  0  0  0
 10 11  1  0  0  0  0
 11 12  2  0  0  0  0
M  END
>  <CHROM.1>
30.66918582,18.24071980,16.15918264,-1.56173080,1.06436229,1.16600001

>  <Name>
ligand

>  <RI>
0

>  <Rbt.Current_Directory>
/home/itssahil/PROJECTS/Mol_Feturizer/New_Systems/rnas/4LX6

>  <Rbt.Executable>
rbdock ($Id: //depot/dev/client3/rdock/2013.1/src/exe/rbdock.cxx#4 $)

>  <Rbt.Library>
libRbt.so (2013.1, Build901 2013/11/27)

>  <Rbt.Parameter_File>
/export/apps/rDock/src/rDock_2013.1_src/data/scripts/dock_solv.prm

>  <Rbt.Receptor>
prm/pocket_docking_3.prm

>  <SCORE>
-16.625

>  <SCORE.INTER>
-16.625

>  <SCORE.INTER.CONST>
1

>  <SCORE.INTER.POLAR>
0

>  <SCORE.INTER.ROT>
0

>  <SCORE.INTER.SOLV>
13.8863

>  <SCORE.INTER.VDW>
-19.3121

>  <SCORE.INTER.norm>
-1.38542

>  <SCORE.INTRA>
0

>  <SCORE.INTRA.DIHEDRAL>
0

>  <SCORE.INTRA.DIHEDRAL.0>
0

>  <SCORE.INTRA.POLAR>
0

>  <SCORE.INTRA.POLAR.0>
0

>  <SCORE.INTRA.REPUL>
0

>  <SCORE.INTRA.REPUL.0>
0

>  <SCORE.INTRA.SOLV>
0

>  <SCORE.INTRA.SOLV.lig_0>
-28.9128

>  <SCORE.INTRA.VDW>
0

>  <SCORE.INTRA.VDW.0>
0

>  <SCORE.INTRA.norm>
0

>  <SCORE.RESTR>
0

>  <SCORE.RESTR.CAVITY>
0

>  <SCORE.RESTR.norm>
0

>  <SCORE.SYSTEM>
0

>  <SCORE.SYSTEM.CONST>
0

>  <SCORE.SYSTEM.DIHEDRAL>
0

>  <SCORE.SYSTEM.SOLV>
0

>  <SCORE.SYSTEM.norm>
0

>  <SCORE.heavy>
12

>  <SCORE.norm>
-1.38542

>  <RMSD>
0.783

$$$$
ligand
 OpenBabel11021811503D
libRbt.so/2013.1/901 2013/11/27
 12 13  0  0  0  0  0  0  0  0999 V2000
   30.9910   18.0376   14.1336 C   0  0  0  0  0  0  0  0  0  0  0  0
   29.9667   16.9064   16.0031 C   0  0  0  0  0  0  0  0  0  0  0  0
   31.2978   18.0982   12.8430 N   0  0  0  0  0  0  0  0  0  0  0  0
   31.3560   19.0439   14.9345 N   0  0  0  0  0  0  0  0  0  0  0  0
   30.2806   16.9375   14.6490 N   0  0  0  0  0  0  0  0  0  0  0  0
   29.3484   15.9377   16.4530 O   0  0  0  0  0  0  0  0  0  0  0  0
   30.5045   19.0754   18.9553 N   0  0  0  0  0  0  0  0  0  0  0  0
   31.2079   20.1367   18.3643 C   0  0  0  0  0  0  0  0  0  0  0  0
   31.4797   20.0998   16.9838 N   0  0  0  0  0  0  0  0  0  0  0  0
   31.0824   19.0443   16.2452 C   0  0  0  0  0  0  0  0  0  0  0  0
   30.3748   17.9732   16.8078 C   0  0  0  0  0  0  0  0  0  0  0  0
   30.0879   17.9776   18.1649 C   0  0  0  0  0  0  0  0  0  0  0  0
  1  3  1  0  0  0  0
  1  4  2  0  0  0  0
  1  5  1  0  0  0  0
  2  6  2  0  0  0  0
  2 11  1  0  0  0  0
  2  5  1  0  0  0  0
  4 10  1  0  0  0  0
  7  8  2  0  0  0  0
  7 12  1  0  0  0  0
  8  9  1  0  0  0  0
  9 10  2  0  0  0  0
 10 11  1  0  0  0  0
 11 12  2  0  0  0  0
M  END
>  <CHROM.1>
30.65171947,18.23734041,16.18357019,-1.57247970,1.04348675,1.19047250

>  <Name>
ligand

>  <RI>
0

>  <Rbt.Current_Directory>
/home/itssahil/PROJECTS/Mol_Feturizer/New_Systems/rnas/4LX6

>  <Rbt.Executable>
rbdock ($Id: //depot/dev/client3/rdock/2013.1/src/exe/rbdock.cxx#4 $)

>  <Rbt.Library>
libRbt.so (2013.1, Build901 2013/11/27)

>  <Rbt.Parameter_File>
/export/apps/rDock/src/rDock_2013.1_src/data/scripts/dock_solv.prm

>  <Rbt.Receptor>
prm/blind_docking_60.prm

>  <SCORE>
-16.6197

>  <SCORE.INTER>
-16.6197

>  <SCORE.INTER.CONST>
1

>  <SCORE.INTER.POLAR>
0

>  <SCORE.INTER.ROT>
0

>  <SCORE.INTER.SOLV>
13.721

>  <SCORE.INTER.VDW>
-19.2535

>  <SCORE.INTER.norm>
-1.38498

>  <SCORE.INTRA>
0

>  <SCORE.INTRA.DIHEDRAL>
0

>  <SCORE.INTRA.DIHEDRAL.0>
0

>  <SCORE.INTRA.POLAR>
0

>  <SCORE.INTRA.POLAR.0>
0

>  <SCORE.INTRA.REPUL>
0

>  <SCORE.INTRA.REPUL.0>
0

>  <SCORE.INTRA.SOLV>
0

>  <SCORE.INTRA.SOLV.lig_0>
-28.9128

>  <SCORE.INTRA.VDW>
0

>  <SCORE.INTRA.VDW.0>
0

>  <SCORE.INTRA.norm>
0

>  <SCORE.RESTR>
0

>  <SCORE.RESTR.CAVITY>
0

>  <SCORE.RESTR.norm>
0

>  <SCORE.SYSTEM>
0

>  <SCORE.SYSTEM.CONST>
0

>  <SCORE.SYSTEM.DIHEDRAL>
0

>  <SCORE.SYSTEM.SOLV>
0

>  <SCORE.SYSTEM.norm>
0

>  <SCORE.heavy>
12

>  <SCORE.norm>
-1.38498

>  <RMSD>
0.785

$$$$
ligand
 OpenBabel11021811503D
libRbt.so/2013.1/901 2013/11/27
 12 13  0  0  0  0  0  0  0  0999 V2000
   30.9920   18.0362   14.1396 C   0  0  0  0  0  0  0  0  0  0  0  0
   29.9650   16.9048   16.0075 C   0  0  0  0  0  0  0  0  0  0  0  0
   31.2998   18.0974   12.8492 N   0  0  0  0  0  0  0  0  0  0  0  0
   31.3576   19.0415   14.9414 N   0  0  0  0  0  0  0  0  0  0  0  0
   30.2800   16.9365   14.6537 N   0  0  0  0  0  0  0  0  0  0  0  0
   29.3453   15.9365   16.4562 O   0  0  0  0  0  0  0  0  0  0  0  0
   30.5032   19.0710   18.9617 N   0  0  0  0  0  0  0  0  0  0  0  0
   31.2083   20.1319   18.3720 C   0  0  0  0  0  0  0  0  0  0  0  0
   31.4810   20.0957   16.9916 N   0  0  0  0  0  0  0  0  0  0  0  0
   31.0830   19.0412   16.2520 C   0  0  0  0  0  0  0  0  0  0  0  0
   30.3737   17.9705   16.8133 C   0  0  0  0  0  0  0  0  0  0  0  0
   30.0859   17.9742   18.1702 C   0  0  0  0  0  0  0  0  0  0  0  0
  1  3  1  0  0  0  0
  1  4  2  0  0  0  0
  1  5  1  0  0  0  0
  2  6  2  0  0  0  0
  2 11  1  0  0  0  0
  2  5  1  0  0  0  0
  4 10  1  0  0  0  0
  7  8  2  0  0  0  0
  7 12  1  0  0  0  0
  8  9  1  0  0  0  0
  9 10  2  0  0  0  0
 10 11  1  0  0  0  0
 11 12  2  0  0  0  0
M  END
>  <CHROM.1>
30.65146145,18.23481825,16.18943154,-1.57200449,1.04213694,1.19080349

>  <Name>
ligand

>  <RI>
0

>  <Rbt.Current_Directory>
/home/itssahil/PROJECTS/Mol_Feturizer/New_Systems/rnas/4LX6

>  <Rbt.Executable>
rbdock ($Id: //depot/dev/client3/rdock/2013.1/src/exe/rbdock.cxx#4 $)

>  <Rbt.Library>
libRbt.so (2013.1, Build901 2013/11/27)

>  <Rbt.Parameter_File>
/export/apps/rDock/src/rDock_2013.1_src/data/scripts/dock_solv.prm

>  <Rbt.Receptor>
prm/pocket_docking_8.prm

>  <SCORE>
-16.6248

>  <SCORE.INTER>
-16.6248

>  <SCORE.INTER.CONST>
1

>  <SCORE.INTER.POLAR>
0

>  <SCORE.INTER.ROT>
0

>  <SCORE.INTER.SOLV>
13.7141

>  <SCORE.INTER.VDW>
-19.2546

>  <SCORE.INTER.norm>
-1.3854

>  <SCORE.INTRA>
0

>  <SCORE.INTRA.DIHEDRAL>
0

>  <SCORE.INTRA.DIHEDRAL.0>
0

>  <SCORE.INTRA.POLAR>
0

>  <SCORE.INTRA.POLAR.0>
0

>  <SCORE.INTRA.REPUL>
0

>  <SCORE.INTRA.REPUL.0>
0

>  <SCORE.INTRA.SOLV>
0

>  <SCORE.INTRA.SOLV.lig_0>
-28.9128

>  <SCORE.INTRA.VDW>
0

>  <SCORE.INTRA.VDW.0>
0

>  <SCORE.INTRA.norm>
0

>  <SCORE.RESTR>
0

>  <SCORE.RESTR.CAVITY>
0

>  <SCORE.RESTR.norm>
0

>  <SCORE.SYSTEM>
0

>  <SCORE.SYSTEM.CONST>
0

>  <SCORE.SYSTEM.DIHEDRAL>
0

>  <SCORE.SYSTEM.SOLV>
0

>  <SCORE.SYSTEM.norm>
0

>  <SCORE.heavy>
12

>  <SCORE.norm>
-1.3854

>  <RMSD>
0.787

$$$$
ligand
 OpenBabel11021811503D
libRbt.so/2013.1/901 2013/11/27
 12 13  0  0  0  0  0  0  0  0999 V2000
   31.0017   18.0069   14.1449 C   0  0  0  0  0  0  0  0  0  0  0  0
   29.9538   16.8988   16.0153 C   0  0  0  0  0  0  0  0  0  0  0  0
   31.3185   18.0551   12.8562 N   0  0  0  0  0  0  0  0  0  0  0  0
   31.3692   19.0163   14.9408 N   0  0  0  0  0  0  0  0  0  0  0  0
   30.2781   16.9169   14.6634 N   0  0  0  0  0  0  0  0  0  0  0  0
   29.3240   15.9389   16.4678 O   0  0  0  0  0  0  0  0  0  0  0  0
   30.4881   19.0859   18.9548 N   0  0  0  0  0  0  0  0  0  0  0  0
   31.2049   20.1366   18.3610 C   0  0  0  0  0  0  0  0  0  0  0  0
   31.4865   20.0868   16.9829 N   0  0  0  0  0  0  0  0  0  0  0  0
   31.0858   19.0291   16.2495 C   0  0  0  0  0  0  0  0  0  0  0  0
   30.3650   17.9683   16.8148 C   0  0  0  0  0  0  0  0  0  0  0  0
   30.0681   17.9855   18.1697 C   0  0  0  0  0  0  0  0  0  0  0  0
  1  3  1  0  0  0  0
  1  4  2  0  0  0  0
  1  5  1  0  0  0  0
  2  6  2  0  0  0  0
  2 11  1  0  0  0  0
  2  5  1  0  0  0  0
  4 10  1  0  0  0  0
  7  8  2  0  0  0  0
  7 12  1  0  0  0  0
  8  9  1  0  0  0  0
  9 10  2  0  0  0  0
 10 11  1  0  0  0  0
 11 12  2  0  0  0  0
M  END
>  <CHROM.1>
30.64879235,18.22530779,16.19070513,-1.56513710,1.03282537,1.17649123

>  <Name>
ligand

>  <RI>
0

>  <Rbt.Current_Directory>
/home/itssahil/PROJECTS/Mol_Feturizer/New_Systems/rnas/4LX6

>  <Rbt.Executable>
rbdock ($Id: //depot/dev/client3/rdock/2013.1/src/exe/rbdock.cxx#4 $)

>  <Rbt.Library>
libRbt.so (2013.1, Build901 2013/11/27)

>  <Rbt.Parameter_File>
/export/apps/rDock/src/rDock_2013.1_src/data/scripts/dock_solv.prm

>  <Rbt.Receptor>
prm/pocket_docking_3.prm

>  <SCORE>
-16.5761

>  <SCORE.INTER>
-16.5761

>  <SCORE.INTER.CONST>
1

>  <SCORE.INTER.POLAR>
0

>  <SCORE.INTER.ROT>
0

>  <SCORE.INTER.SOLV>
13.7387

>  <SCORE.INTER.VDW>
-19.2303

>  <SCORE.INTER.norm>
-1.38134

>  <SCORE.INTRA>
0

>  <SCORE.INTRA.DIHEDRAL>
0

>  <SCORE.INTRA.DIHEDRAL.0>
0

>  <SCORE.INTRA.POLAR>
0

>  <SCORE.INTRA.POLAR.0>
0

>  <SCORE.INTRA.REPUL>
0

>  <SCORE.INTRA.REPUL.0>
0

>  <SCORE.INTRA.SOLV>
0

>  <SCORE.INTRA.SOLV.lig_0>
-28.9128

>  <SCORE.INTRA.VDW>
0

>  <SCORE.INTRA.VDW.0>
0

>  <SCORE.INTRA.norm>
0

>  <SCORE.RESTR>
0

>  <SCORE.RESTR.CAVITY>
0

>  <SCORE.RESTR.norm>
0

>  <SCORE.SYSTEM>
0

>  <SCORE.SYSTEM.CONST>
0

>  <SCORE.SYSTEM.DIHEDRAL>
0

>  <SCORE.SYSTEM.SOLV>
0

>  <SCORE.SYSTEM.norm>
0

>  <SCORE.heavy>
12

>  <SCORE.norm>
-1.38134

>  <RMSD>
0.789

$$$$
ligand
 OpenBabel11021811503D
libRbt.so/2013.1/901 2013/11/27
 12 13  0  0  0  0  0  0  0  0999 V2000
   30.9851   18.0374   14.1422 C   0  0  0  0  0  0  0  0  0  0  0  0
   29.9676   16.9006   16.0120 C   0  0  0  0  0  0  0  0  0  0  0  0
   31.2885   18.1012   12.8509 N   0  0  0  0  0  0  0  0  0  0  0  0
   31.3503   19.0428   14.9441 N   0  0  0  0  0  0  0  0  0  0  0  0
   30.2781   16.9350   14.6572 N   0  0  0  0  0  0  0  0  0  0  0  0
   29.3523   15.9299   16.4616 O   0  0  0  0  0  0  0  0  0  0  0  0
   30.5089   19.0649   18.9672 N   0  0  0  0  0  0  0  0  0  0  0  0
   31.2089   20.1286   18.3764 C   0  0  0  0  0  0  0  0  0  0  0  0
   31.4772   20.0949   16.9951 N   0  0  0  0  0  0  0  0  0  0  0  0
   31.0800   19.0401   16.2556 C   0  0  0  0  0  0  0  0  0  0  0  0
   30.3758   17.9666   16.8178 C   0  0  0  0  0  0  0  0  0  0  0  0
   30.0924   17.9678   18.1756 C   0  0  0  0  0  0  0  0  0  0  0  0
  1  3  1  0  0  0  0
  1  4  2  0  0  0  0
  1  5  1  0  0  0  0
  2  6  2  0  0  0  0
  2 11  1  0  0  0  0
  2  5  1  0  0  0  0
  4 10  1  0  0  0  0
  7  8  2  0  0  0  0
  7 12  1  0  0  0  0
  8  9  1  0  0  0  0
  9 10  2  0  0  0  0
 10 11  1  0  0  0  0
 11 12  2  0  0  0  0
M  END
>  <CHROM.1>
30.65066502,18.23250416,16.19338215,-1.57581980,1.04613785,1.19533101

>  <Name>
ligand

>  <RI>
0

>  <Rbt.Current_Directory>
/home/itssahil/PROJECTS/Mol_Feturizer/New_Systems/rnas/4LX6

>  <Rbt.Executable>
rbdock ($Id: //depot/dev/client3/rdock/2013.1/src/exe/rbdock.cxx#4 $)

>  <Rbt.Library>
libRbt.so (2013.1, Build901 2013/11/27)

>  <Rbt.Parameter_File>
/export/apps/rDock/src/rDock_2013.1_src/data/scripts/dock_solv.prm

>  <Rbt.Receptor>
prm/pocket_docking_3.prm

>  <SCORE>
-16.6257

>  <SCORE.INTER>
-16.6257

>  <SCORE.INTER.CONST>
1

>  <SCORE.INTER.POLAR>
0

>  <SCORE.INTER.ROT>
0

>  <SCORE.INTER.SOLV>
13.7002

>  <SCORE.INTER.VDW>
-19.2505

>  <SCORE.INTER.norm>
-1.38547

>  <SCORE.INTRA>
0

>  <SCORE.INTRA.DIHEDRAL>
0

>  <SCORE.INTRA.DIHEDRAL.0>
0

>  <SCORE.INTRA.POLAR>
0

>  <SCORE.INTRA.POLAR.0>
0

>  <SCORE.INTRA.REPUL>
0

>  <SCORE.INTRA.REPUL.0>
0

>  <SCORE.INTRA.SOLV>
0

>  <SCORE.INTRA.SOLV.lig_0>
-28.9128

>  <SCORE.INTRA.VDW>
0

>  <SCORE.INTRA.VDW.0>
0

>  <SCORE.INTRA.norm>
0

>  <SCORE.RESTR>
0

>  <SCORE.RESTR.CAVITY>
0

>  <SCORE.RESTR.norm>
0

>  <SCORE.SYSTEM>
0

>  <SCORE.SYSTEM.CONST>
0

>  <SCORE.SYSTEM.DIHEDRAL>
0

>  <SCORE.SYSTEM.SOLV>
0

>  <SCORE.SYSTEM.norm>
0

>  <SCORE.heavy>
12

>  <SCORE.norm>
-1.38547

>  <RMSD>
0.791

$$$$
ligand
 OpenBabel11021811503D
libRbt.so/2013.1/901 2013/11/27
 12 13  0  0  0  0  0  0  0  0999 V2000
   30.9786   18.0414   14.1391 C   0  0  0  0  0  0  0  0  0  0  0  0
   29.9487   16.9120   16.0067 C   0  0  0  0  0  0  0  0  0  0  0  0
   31.2852   18.1031   12.8485 N   0  0  0  0  0  0  0  0  0  0  0  0
   31.3492   19.0441   14.9419 N   0  0  0  0  0  0  0  0  0  0  0  0
   30.2624   16.9442   14.6526 N   0  0  0  0  0  0  0  0  0  0  0  0
   29.3253   15.9458   16.4548 O   0  0  0  0  0  0  0  0  0  0  0  0
   30.4992   19.0721   18.9631 N   0  0  0  0  0  0  0  0  0  0  0  0
   31.2081   20.1307   18.3740 C   0  0  0  0  0  0  0  0  0  0  0  0
   31.4792   20.0952   16.9933 N   0  0  0  0  0  0  0  0  0  0  0  0
   31.0760   19.0434   16.2528 C   0  0  0  0  0  0  0  0  0  0  0  0
   30.3628   17.9749   16.8134 C   0  0  0  0  0  0  0  0  0  0  0  0
   30.0764   17.9781   18.1706 C   0  0  0  0  0  0  0  0  0  0  0  0
  1  3  1  0  0  0  0
  1  4  2  0  0  0  0
  1  5  1  0  0  0  0
  2  6  2  0  0  0  0
  2 11  1  0  0  0  0
  2  5  1  0  0  0  0
  4 10  1  0  0  0  0
  7  8  2  0  0  0  0
  7 12  1  0  0  0  0
  8  9  1  0  0  0  0
  9 10  2  0  0  0  0
 10 11  1  0  0  0  0
 11 12  2  0  0  0  0
M  END
>  <CHROM.1>
30.64098236,18.23888178,16.18959163,-1.57702180,1.03858798,1.19642096

>  <Name>
ligand

>  <RI>
0

>  <Rbt.Current_Directory>
/home/itssahil/PROJECTS/Mol_Feturizer/New_Systems/rnas/4LX6

>  <Rbt.Executable>
rbdock ($Id: //depot/dev/client3/rdock/2013.1/src/exe/rbdock.cxx#4 $)

>  <Rbt.Library>
libRbt.so (2013.1, Build901 2013/11/27)

>  <Rbt.Parameter_File>
/export/apps/rDock/src/rDock_2013.1_src/data/scripts/dock_solv.prm

>  <Rbt.Receptor>
prm/pocket_docking_3.prm

>  <SCORE>
-16.6229

>  <SCORE.INTER>
-16.6229

>  <SCORE.INTER.CONST>
1

>  <SCORE.INTER.POLAR>
0

>  <SCORE.INTER.ROT>
0

>  <SCORE.INTER.SOLV>
13.6662

>  <SCORE.INTER.VDW>
-19.2373

>  <SCORE.INTER.norm>
-1.38524

>  <SCORE.INTRA>
0

>  <SCORE.INTRA.DIHEDRAL>
0

>  <SCORE.INTRA.DIHEDRAL.0>
0

>  <SCORE.INTRA.POLAR>
0

>  <SCORE.INTRA.POLAR.0>
0

>  <SCORE.INTRA.REPUL>
0

>  <SCORE.INTRA.REPUL.0>
0

>  <SCORE.INTRA.SOLV>
0

>  <SCORE.INTRA.SOLV.lig_0>
-28.9128

>  <SCORE.INTRA.VDW>
0

>  <SCORE.INTRA.VDW.0>
0

>  <SCORE.INTRA.norm>
0

>  <SCORE.RESTR>
0

>  <SCORE.RESTR.CAVITY>
0

>  <SCORE.RESTR.norm>
0

>  <SCORE.SYSTEM>
0

>  <SCORE.SYSTEM.CONST>
0

>  <SCORE.SYSTEM.DIHEDRAL>
0

>  <SCORE.SYSTEM.SOLV>
0

>  <SCORE.SYSTEM.norm>
0

>  <SCORE.heavy>
12

>  <SCORE.norm>
-1.38524

>  <RMSD>
0.791

$$$$
ligand
 OpenBabel11021811503D
libRbt.so/2013.1/901 2013/11/27
 12 13  0  0  0  0  0  0  0  0999 V2000
   30.9843   18.0379   14.1455 C   0  0  0  0  0  0  0  0  0  0  0  0
   29.9574   16.9058   16.0130 C   0  0  0  0  0  0  0  0  0  0  0  0
   31.2904   18.1006   12.8548 N   0  0  0  0  0  0  0  0  0  0  0  0
   31.3533   19.0410   14.9485 N   0  0  0  0  0  0  0  0  0  0  0  0
   30.2705   16.9390   14.6588 N   0  0  0  0  0  0  0  0  0  0  0  0
   29.3361   15.9382   16.4610 O   0  0  0  0  0  0  0  0  0  0  0  0
   30.5048   19.0659   18.9701 N   0  0  0  0  0  0  0  0  0  0  0  0
   31.2114   20.1261   18.3811 C   0  0  0  0  0  0  0  0  0  0  0  0
   31.4820   20.0916   17.0002 N   0  0  0  0  0  0  0  0  0  0  0  0
   31.0806   19.0393   16.2595 C   0  0  0  0  0  0  0  0  0  0  0  0
   30.3697   17.9692   16.8200 C   0  0  0  0  0  0  0  0  0  0  0  0
   30.0838   17.9714   18.1773 C   0  0  0  0  0  0  0  0  0  0  0  0
  1  3  1  0  0  0  0
  1  4  2  0  0  0  0
  1  5  1  0  0  0  0
  2  6  2  0  0  0  0
  2 11  1  0  0  0  0
  2  5  1  0  0  0  0
  4 10  1  0  0  0  0
  7  8  2  0  0  0  0
  7 12  1  0  0  0  0
  8  9  1  0  0  0  0
  9 10  2  0  0  0  0
 10 11  1  0  0  0  0
 11 12  2  0  0  0  0
M  END
>  <CHROM.1>
30.64713433,18.23392956,16.19619747,-1.57630335,1.04054284,1.19616739

>  <Name>
ligand

>  <RI>
0

>  <Rbt.Current_Directory>
/home/itssahil/PROJECTS/Mol_Feturizer/New_Systems/rnas/4LX6

>  <Rbt.Executable>
rbdock ($Id: //depot/dev/client3/rdock/2013.1/src/exe/rbdock.cxx#4 $)

>  <Rbt.Library>
libRbt.so (2013.1, Build901 2013/11/27)

>  <Rbt.Parameter_File>
/export/apps/rDock/src/rDock_2013.1_src/data/scripts/dock_solv.prm

>  <Rbt.Receptor>
prm/blind_docking_100.prm

>  <SCORE>
-16.6272

>  <SCORE.INTER>
-16.6272

>  <SCORE.INTER.CONST>
1

>  <SCORE.INTER.POLAR>
0

>  <SCORE.INTER.ROT>
0

>  <SCORE.INTER.SOLV>
13.6797

>  <SCORE.INTER.VDW>
-19.2447

>  <SCORE.INTER.norm>
-1.3856

>  <SCORE.INTRA>
0

>  <SCORE.INTRA.DIHEDRAL>
0

>  <SCORE.INTRA.DIHEDRAL.0>
0

>  <SCORE.INTRA.POLAR>
0

>  <SCORE.INTRA.POLAR.0>
0

>  <SCORE.INTRA.REPUL>
0

>  <SCORE.INTRA.REPUL.0>
0

>  <SCORE.INTRA.SOLV>
0

>  <SCORE.INTRA.SOLV.lig_0>
-28.9128

>  <SCORE.INTRA.VDW>
0

>  <SCORE.INTRA.VDW.0>
0

>  <SCORE.INTRA.norm>
0

>  <SCORE.RESTR>
0

>  <SCORE.RESTR.CAVITY>
0

>  <SCORE.RESTR.norm>
0

>  <SCORE.SYSTEM>
0

>  <SCORE.SYSTEM.CONST>
0

>  <SCORE.SYSTEM.DIHEDRAL>
0

>  <SCORE.SYSTEM.SOLV>
0

>  <SCORE.SYSTEM.norm>
0

>  <SCORE.heavy>
12

>  <SCORE.norm>
-1.3856

>  <RMSD>
0.792

$$$$
ligand
 OpenBabel11021811503D
libRbt.so/2013.1/901 2013/11/27
 12 13  0  0  0  0  0  0  0  0999 V2000
   30.9972   17.9943   14.1435 C   0  0  0  0  0  0  0  0  0  0  0  0
   29.9723   16.8784   16.0219 C   0  0  0  0  0  0  0  0  0  0  0  0
   31.3056   18.0437   12.8528 N   0  0  0  0  0  0  0  0  0  0  0  0
   31.3591   19.0086   14.9356 N   0  0  0  0  0  0  0  0  0  0  0  0
   30.2881   16.8977   14.6681 N   0  0  0  0  0  0  0  0  0  0  0  0
   29.3552   15.9128   16.4799 O   0  0  0  0  0  0  0  0  0  0  0  0
   30.5021   19.0756   18.9548 N   0  0  0  0  0  0  0  0  0  0  0  0
   31.2043   20.1326   18.3550 C   0  0  0  0  0  0  0  0  0  0  0  0
   31.4780   20.0835   16.9752 N   0  0  0  0  0  0  0  0  0  0  0  0
   31.0837   19.0206   16.2459 C   0  0  0  0  0  0  0  0  0  0  0  0
   30.3773   17.9534   16.8173 C   0  0  0  0  0  0  0  0  0  0  0  0
   30.0886   17.9697   18.1740 C   0  0  0  0  0  0  0  0  0  0  0  0
  1  3  1  0  0  0  0
  1  4  2  0  0  0  0
  1  5  1  0  0  0  0
  2  6  2  0  0  0  0
  2 11  1  0  0  0  0
  2  5  1  0  0  0  0
  4 10  1  0  0  0  0
  7  8  2  0  0  0  0
  7 12  1  0  0  0  0
  8  9  1  0  0  0  0
  9 10  2  0  0  0  0
 10 11  1  0  0  0  0
 11 12  2  0  0  0  0
M  END
>  <CHROM.1>
30.65465385,18.21229370,16.19107660,-1.56856759,1.04469510,1.17789692

>  <Name>
ligand

>  <RI>
0

>  <Rbt.Current_Directory>
/home/itssahil/PROJECTS/Mol_Feturizer/New_Systems/rnas/4LX6

>  <Rbt.Executable>
rbdock ($Id: //depot/dev/client3/rdock/2013.1/src/exe/rbdock.cxx#4 $)

>  <Rbt.Library>
libRbt.so (2013.1, Build901 2013/11/27)

>  <Rbt.Parameter_File>
/export/apps/rDock/src/rDock_2013.1_src/data/scripts/dock_solv.prm

>  <Rbt.Receptor>
prm/pocket_docking_3.prm

>  <SCORE>
-16.6113

>  <SCORE.INTER>
-16.6113

>  <SCORE.INTER.CONST>
1

>  <SCORE.INTER.POLAR>
0

>  <SCORE.INTER.ROT>
0

>  <SCORE.INTER.SOLV>
13.7623

>  <SCORE.INTER.VDW>
-19.2616

>  <SCORE.INTER.norm>
-1.38427

>  <SCORE.INTRA>
0

>  <SCORE.INTRA.DIHEDRAL>
0

>  <SCORE.INTRA.DIHEDRAL.0>
0

>  <SCORE.INTRA.POLAR>
0

>  <SCORE.INTRA.POLAR.0>
0

>  <SCORE.INTRA.REPUL>
0

>  <SCORE.INTRA.REPUL.0>
0

>  <SCORE.INTRA.SOLV>
0

>  <SCORE.INTRA.SOLV.lig_0>
-28.9128

>  <SCORE.INTRA.VDW>
0

>  <SCORE.INTRA.VDW.0>
0

>  <SCORE.INTRA.norm>
0

>  <SCORE.RESTR>
0

>  <SCORE.RESTR.CAVITY>
0

>  <SCORE.RESTR.norm>
0

>  <SCORE.SYSTEM>
0

>  <SCORE.SYSTEM.CONST>
0

>  <SCORE.SYSTEM.DIHEDRAL>
0

>  <SCORE.SYSTEM.SOLV>
0

>  <SCORE.SYSTEM.norm>
0

>  <SCORE.heavy>
12

>  <SCORE.norm>
-1.38427

>  <RMSD>
0.792

$$$$
ligand
 OpenBabel11021811503D
libRbt.so/2013.1/901 2013/11/27
 12 13  0  0  0  0  0  0  0  0999 V2000
   30.9895   18.0253   14.1370 C   0  0  0  0  0  0  0  0  0  0  0  0
   29.9791   16.8932   16.0136 C   0  0  0  0  0  0  0  0  0  0  0  0
   31.2959   18.0814   12.8461 N   0  0  0  0  0  0  0  0  0  0  0  0
   31.3409   19.0416   14.9313 N   0  0  0  0  0  0  0  0  0  0  0  0
   30.2932   16.9195   14.6595 N   0  0  0  0  0  0  0  0  0  0  0  0
   29.3733   15.9196   16.4697 O   0  0  0  0  0  0  0  0  0  0  0  0
   30.4872   19.0887   18.9515 N   0  0  0  0  0  0  0  0  0  0  0  0
   31.1770   20.1551   18.3537 C   0  0  0  0  0  0  0  0  0  0  0  0
   31.4498   20.1126   16.9735 N   0  0  0  0  0  0  0  0  0  0  0  0
   31.0667   19.0471   16.2419 C   0  0  0  0  0  0  0  0  0  0  0  0
   30.3729   17.9706   16.8114 C   0  0  0  0  0  0  0  0  0  0  0  0
   30.0854   17.9803   18.1683 C   0  0  0  0  0  0  0  0  0  0  0  0
  1  3  1  0  0  0  0
  1  4  2  0  0  0  0
  1  5  1  0  0  0  0
  2  6  2  0  0  0  0
  2 11  1  0  0  0  0
  2  5  1  0  0  0  0
  4 10  1  0  0  0  0
  7  8  2  0  0  0  0
  7 12  1  0  0  0  0
  8  9  1  0  0  0  0
  9 10  2  0  0  0  0
 10 11  1  0  0  0  0
 11 12  2  0  0  0  0
M  END
>  <CHROM.1>
30.64663854,18.23422337,16.18546155,-1.56180067,1.05542906,1.17456800

>  <Name>
ligand

>  <RI>
0

>  <Rbt.Current_Directory>
/home/itssahil/PROJECTS/Mol_Feturizer/New_Systems/rnas/4LX6

>  <Rbt.Executable>
rbdock ($Id: //depot/dev/client3/rdock/2013.1/src/exe/rbdock.cxx#4 $)

>  <Rbt.Library>
libRbt.so (2013.1, Build901 2013/11/27)

>  <Rbt.Parameter_File>
/export/apps/rDock/src/rDock_2013.1_src/data/scripts/dock_solv.prm

>  <Rbt.Receptor>
prm/pocket_docking_6.prm

>  <SCORE>
-16.5724

>  <SCORE.INTER>
-16.5724

>  <SCORE.INTER.CONST>
1

>  <SCORE.INTER.POLAR>
0

>  <SCORE.INTER.ROT>
0

>  <SCORE.INTER.SOLV>
13.7777

>  <SCORE.INTER.VDW>
-19.2409

>  <SCORE.INTER.norm>
-1.38104

>  <SCORE.INTRA>
0

>  <SCORE.INTRA.DIHEDRAL>
0

>  <SCORE.INTRA.DIHEDRAL.0>
0

>  <SCORE.INTRA.POLAR>
0

>  <SCORE.INTRA.POLAR.0>
0

>  <SCORE.INTRA.REPUL>
0

>  <SCORE.INTRA.REPUL.0>
0

>  <SCORE.INTRA.SOLV>
0

>  <SCORE.INTRA.SOLV.lig_0>
-28.9128

>  <SCORE.INTRA.VDW>
0

>  <SCORE.INTRA.VDW.0>
0

>  <SCORE.INTRA.norm>
0

>  <SCORE.RESTR>
0

>  <SCORE.RESTR.CAVITY>
0

>  <SCORE.RESTR.norm>
0

>  <SCORE.SYSTEM>
0

>  <SCORE.SYSTEM.CONST>
0

>  <SCORE.SYSTEM.DIHEDRAL>
0

>  <SCORE.SYSTEM.SOLV>
0

>  <SCORE.SYSTEM.norm>
0

>  <SCORE.heavy>
12

>  <SCORE.norm>
-1.38104

>  <RMSD>
0.792

$$$$
ligand
 OpenBabel11021811503D
libRbt.so/2013.1/901 2013/11/27
 12 13  0  0  0  0  0  0  0  0999 V2000
   30.9965   18.0076   14.1495 C   0  0  0  0  0  0  0  0  0  0  0  0
   29.9648   16.8880   16.0220 C   0  0  0  0  0  0  0  0  0  0  0  0
   31.3069   18.0611   12.8595 N   0  0  0  0  0  0  0  0  0  0  0  0
   31.3612   19.0174   14.9462 N   0  0  0  0  0  0  0  0  0  0  0  0
   30.2826   16.9115   14.6686 N   0  0  0  0  0  0  0  0  0  0  0  0
   29.3435   15.9228   16.4751 O   0  0  0  0  0  0  0  0  0  0  0  0
   30.4986   19.0712   18.9645 N   0  0  0  0  0  0  0  0  0  0  0  0
   31.2057   20.1280   18.3700 C   0  0  0  0  0  0  0  0  0  0  0  0
   31.4812   20.0835   16.9904 N   0  0  0  0  0  0  0  0  0  0  0  0
   31.0840   19.0250   16.2562 C   0  0  0  0  0  0  0  0  0  0  0  0
   30.3727   17.9581   16.8223 C   0  0  0  0  0  0  0  0  0  0  0  0
   30.0822   17.9700   18.1786 C   0  0  0  0  0  0  0  0  0  0  0  0
  1  3  1  0  0  0  0
  1  4  2  0  0  0  0
  1  5  1  0  0  0  0
  2  6  2  0  0  0  0
  2 11  1  0  0  0  0
  2  5  1  0  0  0  0
  4 10  1  0  0  0  0
  7  8  2  0  0  0  0
  7 12  1  0  0  0  0
  8  9  1  0  0  0  0
  9 10  2  0  0  0  0
 10 11  1  0  0  0  0
 11 12  2  0  0  0  0
M  END
>  <CHROM.1>
30.65191606,18.21856759,16.19750453,-1.56879915,1.04068958,1.18216596

>  <Name>
ligand

>  <RI>
0

>  <Rbt.Current_Directory>
/home/itssahil/PROJECTS/Mol_Feturizer/New_Systems/rnas/4LX6

>  <Rbt.Executable>
rbdock ($Id: //depot/dev/client3/rdock/2013.1/src/exe/rbdock.cxx#4 $)

>  <Rbt.Library>
libRbt.so (2013.1, Build901 2013/11/27)

>  <Rbt.Parameter_File>
/export/apps/rDock/src/rDock_2013.1_src/data/scripts/dock_solv.prm

>  <Rbt.Receptor>
prm/blind_docking_100.prm

>  <SCORE>
-16.6243

>  <SCORE.INTER>
-16.6243

>  <SCORE.INTER.CONST>
1

>  <SCORE.INTER.POLAR>
0

>  <SCORE.INTER.ROT>
0

>  <SCORE.INTER.SOLV>
13.7343

>  <SCORE.INTER.VDW>
-19.2609

>  <SCORE.INTER.norm>
-1.38536

>  <SCORE.INTRA>
0

>  <SCORE.INTRA.DIHEDRAL>
0

>  <SCORE.INTRA.DIHEDRAL.0>
0

>  <SCORE.INTRA.POLAR>
0

>  <SCORE.INTRA.POLAR.0>
0

>  <SCORE.INTRA.REPUL>
0

>  <SCORE.INTRA.REPUL.0>
0

>  <SCORE.INTRA.SOLV>
0

>  <SCORE.INTRA.SOLV.lig_0>
-28.9128

>  <SCORE.INTRA.VDW>
0

>  <SCORE.INTRA.VDW.0>
0

>  <SCORE.INTRA.norm>
0

>  <SCORE.RESTR>
0

>  <SCORE.RESTR.CAVITY>
0

>  <SCORE.RESTR.norm>
0

>  <SCORE.SYSTEM>
0

>  <SCORE.SYSTEM.CONST>
0

>  <SCORE.SYSTEM.DIHEDRAL>
0

>  <SCORE.SYSTEM.SOLV>
0

>  <SCORE.SYSTEM.norm>
0

>  <SCORE.heavy>
12

>  <SCORE.norm>
-1.38536

>  <RMSD>
0.793

$$$$
ligand
 OpenBabel11021811503D
libRbt.so/2013.1/901 2013/11/27
 12 13  0  0  0  0  0  0  0  0999 V2000
   30.9964   18.0075   14.1493 C   0  0  0  0  0  0  0  0  0  0  0  0
   29.9679   16.8864   16.0227 C   0  0  0  0  0  0  0  0  0  0  0  0
   31.3056   18.0614   12.8590 N   0  0  0  0  0  0  0  0  0  0  0  0
   31.3602   19.0178   14.9457 N   0  0  0  0  0  0  0  0  0  0  0  0
   30.2844   16.9104   14.6691 N   0  0  0  0  0  0  0  0  0  0  0  0
   29.3483   15.9204   16.4764 O   0  0  0  0  0  0  0  0  0  0  0  0
   30.5012   19.0704   18.9647 N   0  0  0  0  0  0  0  0  0  0  0  0
   31.2062   20.1283   18.3695 C   0  0  0  0  0  0  0  0  0  0  0  0
   31.4805   20.0841   16.9897 N   0  0  0  0  0  0  0  0  0  0  0  0
   31.0842   19.0251   16.2559 C   0  0  0  0  0  0  0  0  0  0  0  0
   30.3750   17.9572   16.8227 C   0  0  0  0  0  0  0  0  0  0  0  0
   30.0856   17.9687   18.1792 C   0  0  0  0  0  0  0  0  0  0  0  0
  1  3  1  0  0  0  0
  1  4  2  0  0  0  0
  1  5  1  0  0  0  0
  2  6  2  0  0  0  0
  2 11  1  0  0  0  0
  2  5  1  0  0  0  0
  4 10  1  0  0  0  0
  7  8  2  0  0  0  0
  7 12  1  0  0  0  0
  8  9  1  0  0  0  0
  9 10  2  0  0  0  0
 10 11  1  0  0  0  0
 11 12  2  0  0  0  0
M  END
>  <CHROM.1>
30.65324958,18.21798552,16.19758914,-1.56933841,1.04235045,1.18260729

>  <Name>
ligand

>  <RI>
0

>  <Rbt.Current_Directory>
/home/itssahil/PROJECTS/Mol_Feturizer/New_Systems/rnas/4LX6

>  <Rbt.Executable>
rbdock ($Id: //depot/dev/client3/rdock/2013.1/src/exe/rbdock.cxx#4 $)

>  <Rbt.Library>
libRbt.so (2013.1, Build901 2013/11/27)

>  <Rbt.Parameter_File>
/export/apps/rDock/src/rDock_2013.1_src/data/scripts/dock_solv.prm

>  <Rbt.Receptor>
prm/blind_docking_80.prm

>  <SCORE>
-16.6233

>  <SCORE.INTER>
-16.6233

>  <SCORE.INTER.CONST>
1

>  <SCORE.INTER.POLAR>
0

>  <SCORE.INTER.ROT>
0

>  <SCORE.INTER.SOLV>
13.7386

>  <SCORE.INTER.VDW>
-19.2617

>  <SCORE.INTER.norm>
-1.38527

>  <SCORE.INTRA>
0

>  <SCORE.INTRA.DIHEDRAL>
0

>  <SCORE.INTRA.DIHEDRAL.0>
0

>  <SCORE.INTRA.POLAR>
0

>  <SCORE.INTRA.POLAR.0>
0

>  <SCORE.INTRA.REPUL>
0

>  <SCORE.INTRA.REPUL.0>
0

>  <SCORE.INTRA.SOLV>
0

>  <SCORE.INTRA.SOLV.lig_0>
-28.9128

>  <SCORE.INTRA.VDW>
0

>  <SCORE.INTRA.VDW.0>
0

>  <SCORE.INTRA.norm>
0

>  <SCORE.RESTR>
0

>  <SCORE.RESTR.CAVITY>
0

>  <SCORE.RESTR.norm>
0

>  <SCORE.SYSTEM>
0

>  <SCORE.SYSTEM.CONST>
0

>  <SCORE.SYSTEM.DIHEDRAL>
0

>  <SCORE.SYSTEM.SOLV>
0

>  <SCORE.SYSTEM.norm>
0

>  <SCORE.heavy>
12

>  <SCORE.norm>
-1.38527

>  <RMSD>
0.793

$$$$
ligand
 OpenBabel11021811503D
libRbt.so/2013.1/901 2013/11/27
 12 13  0  0  0  0  0  0  0  0999 V2000
   30.9857   18.0323   14.1475 C   0  0  0  0  0  0  0  0  0  0  0  0
   29.9581   16.9017   16.0156 C   0  0  0  0  0  0  0  0  0  0  0  0
   31.2919   18.0941   12.8568 N   0  0  0  0  0  0  0  0  0  0  0  0
   31.3547   19.0359   14.9499 N   0  0  0  0  0  0  0  0  0  0  0  0
   30.2715   16.9340   14.6615 N   0  0  0  0  0  0  0  0  0  0  0  0
   29.3365   15.9345   16.4642 O   0  0  0  0  0  0  0  0  0  0  0  0
   30.5055   19.0637   18.9713 N   0  0  0  0  0  0  0  0  0  0  0  0
   31.2125   20.1233   18.3817 C   0  0  0  0  0  0  0  0  0  0  0  0
   31.4834   20.0878   17.0010 N   0  0  0  0  0  0  0  0  0  0  0  0
   31.0818   19.0351   16.2608 C   0  0  0  0  0  0  0  0  0  0  0  0
   30.3706   17.9656   16.8220 C   0  0  0  0  0  0  0  0  0  0  0  0
   30.0845   17.9687   18.1792 C   0  0  0  0  0  0  0  0  0  0  0  0
  1  3  1  0  0  0  0
  1  4  2  0  0  0  0
  1  5  1  0  0  0  0
  2  6  2  0  0  0  0
  2 11  1  0  0  0  0
  2  5  1  0  0  0  0
  4 10  1  0  0  0  0
  7  8  2  0  0  0  0
  7 12  1  0  0  0  0
  8  9  1  0  0  0  0
  9 10  2  0  0  0  0
 10 11  1  0  0  0  0
 11 12  2  0  0  0  0
M  END
>  <CHROM.1>
30.64815732,18.22983249,16.19801256,-1.57615028,1.04026864,1.19536166

>  <Name>
ligand

>  <RI>
0

>  <Rbt.Current_Directory>
/home/itssahil/PROJECTS/Mol_Feturizer/New_Systems/rnas/4LX6

>  <Rbt.Executable>
rbdock ($Id: //depot/dev/client3/rdock/2013.1/src/exe/rbdock.cxx#4 $)

>  <Rbt.Library>
libRbt.so (2013.1, Build901 2013/11/27)

>  <Rbt.Parameter_File>
/export/apps/rDock/src/rDock_2013.1_src/data/scripts/dock_solv.prm

>  <Rbt.Receptor>
prm/pocket_docking_8.prm

>  <SCORE>
-16.626

>  <SCORE.INTER>
-16.626

>  <SCORE.INTER.CONST>
1

>  <SCORE.INTER.POLAR>
0

>  <SCORE.INTER.ROT>
0

>  <SCORE.INTER.SOLV>
13.6828

>  <SCORE.INTER.VDW>
-19.2449

>  <SCORE.INTER.norm>
-1.3855

>  <SCORE.INTRA>
0

>  <SCORE.INTRA.DIHEDRAL>
0

>  <SCORE.INTRA.DIHEDRAL.0>
0

>  <SCORE.INTRA.POLAR>
0

>  <SCORE.INTRA.POLAR.0>
0

>  <SCORE.INTRA.REPUL>
0

>  <SCORE.INTRA.REPUL.0>
0

>  <SCORE.INTRA.SOLV>
0

>  <SCORE.INTRA.SOLV.lig_0>
-28.9128

>  <SCORE.INTRA.VDW>
0

>  <SCORE.INTRA.VDW.0>
0

>  <SCORE.INTRA.norm>
0

>  <SCORE.RESTR>
0

>  <SCORE.RESTR.CAVITY>
0

>  <SCORE.RESTR.norm>
0

>  <SCORE.SYSTEM>
0

>  <SCORE.SYSTEM.CONST>
0

>  <SCORE.SYSTEM.DIHEDRAL>
0

>  <SCORE.SYSTEM.SOLV>
0

>  <SCORE.SYSTEM.norm>
0

>  <SCORE.heavy>
12

>  <SCORE.norm>
-1.3855

>  <RMSD>
0.793

$$$$
ligand
 OpenBabel11021811503D
libRbt.so/2013.1/901 2013/11/27
 12 13  0  0  0  0  0  0  0  0999 V2000
   30.9897   18.0227   14.1147 C   0  0  0  0  0  0  0  0  0  0  0  0
   29.9998   16.9007   16.0082 C   0  0  0  0  0  0  0  0  0  0  0  0
   31.2867   18.0695   12.8212 N   0  0  0  0  0  0  0  0  0  0  0  0
   31.3404   19.0480   14.8977 N   0  0  0  0  0  0  0  0  0  0  0  0
   30.3041   16.9172   14.6516 N   0  0  0  0  0  0  0  0  0  0  0  0
   29.4033   15.9273   16.4769 O   0  0  0  0  0  0  0  0  0  0  0  0
   30.5151   19.1245   18.9234 N   0  0  0  0  0  0  0  0  0  0  0  0
   31.1940   20.1899   18.3116 C   0  0  0  0  0  0  0  0  0  0  0  0
   31.4572   20.1372   16.9299 N   0  0  0  0  0  0  0  0  0  0  0  0
   31.0755   19.0631   16.2102 C   0  0  0  0  0  0  0  0  0  0  0  0
   30.3925   17.9873   16.7938 C   0  0  0  0  0  0  0  0  0  0  0  0
   30.1146   18.0069   18.1526 C   0  0  0  0  0  0  0  0  0  0  0  0
  1  3  1  0  0  0  0
  1  4  2  0  0  0  0
  1  5  1  0  0  0  0
  2  6  2  0  0  0  0
  2 11  1  0  0  0  0
  2  5  1  0  0  0  0
  4 10  1  0  0  0  0
  7  8  2  0  0  0  0
  7 12  1  0  0  0  0
  8  9  1  0  0  0  0
  9 10  2  0  0  0  0
 10 11  1  0  0  0  0
 11 12  2  0  0  0  0
M  END
>  <CHROM.1>
30.66014541,18.24719339,16.16373044,-1.57035773,1.06388574,1.17342898

>  <Name>
ligand

>  <RI>
0

>  <Rbt.Current_Directory>
/home/itssahil/PROJECTS/Mol_Feturizer/New_Systems/rnas/4LX6

>  <Rbt.Executable>
rbdock ($Id: //depot/dev/client3/rdock/2013.1/src/exe/rbdock.cxx#4 $)

>  <Rbt.Library>
libRbt.so (2013.1, Build901 2013/11/27)

>  <Rbt.Parameter_File>
/export/apps/rDock/src/rDock_2013.1_src/data/scripts/dock_solv.prm

>  <Rbt.Receptor>
prm/pocket_docking_3.prm

>  <SCORE>
-16.5836

>  <SCORE.INTER>
-16.5836

>  <SCORE.INTER.CONST>
1

>  <SCORE.INTER.POLAR>
0

>  <SCORE.INTER.ROT>
0

>  <SCORE.INTER.SOLV>
13.8385

>  <SCORE.INTER.VDW>
-19.2686

>  <SCORE.INTER.norm>
-1.38197

>  <SCORE.INTRA>
0

>  <SCORE.INTRA.DIHEDRAL>
0

>  <SCORE.INTRA.DIHEDRAL.0>
0

>  <SCORE.INTRA.POLAR>
0

>  <SCORE.INTRA.POLAR.0>
0

>  <SCORE.INTRA.REPUL>
0

>  <SCORE.INTRA.REPUL.0>
0

>  <SCORE.INTRA.SOLV>
0

>  <SCORE.INTRA.SOLV.lig_0>
-28.9128

>  <SCORE.INTRA.VDW>
0

>  <SCORE.INTRA.VDW.0>
0

>  <SCORE.INTRA.norm>
0

>  <SCORE.RESTR>
0

>  <SCORE.RESTR.CAVITY>
0

>  <SCORE.RESTR.norm>
0

>  <SCORE.SYSTEM>
0

>  <SCORE.SYSTEM.CONST>
0

>  <SCORE.SYSTEM.DIHEDRAL>
0

>  <SCORE.SYSTEM.SOLV>
0

>  <SCORE.SYSTEM.norm>
0

>  <SCORE.heavy>
12

>  <SCORE.norm>
-1.38197

>  <RMSD>
0.794

$$$$
ligand
 OpenBabel11021811503D
libRbt.so/2013.1/901 2013/11/27
 12 13  0  0  0  0  0  0  0  0999 V2000
   30.9934   18.0061   14.1511 C   0  0  0  0  0  0  0  0  0  0  0  0
   29.9508   16.8936   16.0218 C   0  0  0  0  0  0  0  0  0  0  0  0
   31.3071   18.0570   12.8617 N   0  0  0  0  0  0  0  0  0  0  0  0
   31.3623   19.0140   14.9481 N   0  0  0  0  0  0  0  0  0  0  0  0
   30.2717   16.9146   14.6692 N   0  0  0  0  0  0  0  0  0  0  0  0
   29.3226   15.9325   16.4740 O   0  0  0  0  0  0  0  0  0  0  0  0
   30.4911   19.0751   18.9644 N   0  0  0  0  0  0  0  0  0  0  0  0
   31.2059   20.1274   18.3709 C   0  0  0  0  0  0  0  0  0  0  0  0
   31.4842   20.0805   16.9920 N   0  0  0  0  0  0  0  0  0  0  0  0
   31.0822   19.0240   16.2575 C   0  0  0  0  0  0  0  0  0  0  0  0
   30.3633   17.9617   16.8225 C   0  0  0  0  0  0  0  0  0  0  0  0
   30.0698   17.9761   18.1781 C   0  0  0  0  0  0  0  0  0  0  0  0
  1  3  1  0  0  0  0
  1  4  2  0  0  0  0
  1  5  1  0  0  0  0
  2  6  2  0  0  0  0
  2 11  1  0  0  0  0
  2  5  1  0  0  0  0
  4 10  1  0  0  0  0
  7  8  2  0  0  0  0
  7 12  1  0  0  0  0
  8  9  1  0  0  0  0
  9 10  2  0  0  0  0
 10 11  1  0  0  0  0
 11 12  2  0  0  0  0
M  END
>  <CHROM.1>
30.64548424,18.22015075,16.19818044,-1.56918348,1.03425861,1.18197533

>  <Name>
ligand

>  <RI>
0

>  <Rbt.Current_Directory>
/home/itssahil/PROJECTS/Mol_Feturizer/New_Systems/rnas/4LX6

>  <Rbt.Executable>
rbdock ($Id: //depot/dev/client3/rdock/2013.1/src/exe/rbdock.cxx#4 $)

>  <Rbt.Library>
libRbt.so (2013.1, Build901 2013/11/27)

>  <Rbt.Parameter_File>
/export/apps/rDock/src/rDock_2013.1_src/data/scripts/dock_solv.prm

>  <Rbt.Receptor>
prm/pocket_docking_8.prm

>  <SCORE>
-16.6216

>  <SCORE.INTER>
-16.6216

>  <SCORE.INTER.CONST>
1

>  <SCORE.INTER.POLAR>
0

>  <SCORE.INTER.ROT>
0

>  <SCORE.INTER.SOLV>
13.7095

>  <SCORE.INTER.VDW>
-19.2509

>  <SCORE.INTER.norm>
-1.38514

>  <SCORE.INTRA>
0

>  <SCORE.INTRA.DIHEDRAL>
0

>  <SCORE.INTRA.DIHEDRAL.0>
0

>  <SCORE.INTRA.POLAR>
0

>  <SCORE.INTRA.POLAR.0>
0

>  <SCORE.INTRA.REPUL>
0

>  <SCORE.INTRA.REPUL.0>
0

>  <SCORE.INTRA.SOLV>
0

>  <SCORE.INTRA.SOLV.lig_0>
-28.9128

>  <SCORE.INTRA.VDW>
0

>  <SCORE.INTRA.VDW.0>
0

>  <SCORE.INTRA.norm>
0

>  <SCORE.RESTR>
0

>  <SCORE.RESTR.CAVITY>
0

>  <SCORE.RESTR.norm>
0

>  <SCORE.SYSTEM>
0

>  <SCORE.SYSTEM.CONST>
0

>  <SCORE.SYSTEM.DIHEDRAL>
0

>  <SCORE.SYSTEM.SOLV>
0

>  <SCORE.SYSTEM.norm>
0

>  <SCORE.heavy>
12

>  <SCORE.norm>
-1.38514

>  <RMSD>
0.794

$$$$
ligand
 OpenBabel11021811503D
libRbt.so/2013.1/901 2013/11/27
 12 13  0  0  0  0  0  0  0  0999 V2000
   30.9620   18.0453   14.1318 C   0  0  0  0  0  0  0  0  0  0  0  0
   29.9629   16.9025   16.0080 C   0  0  0  0  0  0  0  0  0  0  0  0
   31.2548   18.1120   12.8383 N   0  0  0  0  0  0  0  0  0  0  0  0
   31.3304   19.0506   14.9324 N   0  0  0  0  0  0  0  0  0  0  0  0
   30.2624   16.9399   14.6508 N   0  0  0  0  0  0  0  0  0  0  0  0
   29.3541   15.9293   16.4609 O   0  0  0  0  0  0  0  0  0  0  0  0
   30.5211   19.0639   18.9621 N   0  0  0  0  0  0  0  0  0  0  0  0
   31.2131   20.1306   18.3674 C   0  0  0  0  0  0  0  0  0  0  0  0
   31.4705   20.0999   16.9840 N   0  0  0  0  0  0  0  0  0  0  0  0
   31.0706   19.0451   16.2460 C   0  0  0  0  0  0  0  0  0  0  0  0
   30.3742   17.9685   16.8121 C   0  0  0  0  0  0  0  0  0  0  0  0
   30.1016   17.9667   18.1722 C   0  0  0  0  0  0  0  0  0  0  0  0
  1  3  1  0  0  0  0
  1  4  2  0  0  0  0
  1  5  1  0  0  0  0
  2  6  2  0  0  0  0
  2 11  1  0  0  0  0
  2  5  1  0  0  0  0
  4 10  1  0  0  0  0
  7  8  2  0  0  0  0
  7 12  1  0  0  0  0
  8  9  1  0  0  0  0
  9 10  2  0  0  0  0
 10 11  1  0  0  0  0
 11 12  2  0  0  0  0
M  END
>  <CHROM.1>
30.64325915,18.23620021,16.18594692,-1.58853155,1.05186768,1.20790779

>  <Name>
ligand

>  <RI>
0

>  <Rbt.Current_Directory>
/home/itssahil/PROJECTS/Mol_Feturizer/New_Systems/rnas/4LX6

>  <Rbt.Executable>
rbdock ($Id: //depot/dev/client3/rdock/2013.1/src/exe/rbdock.cxx#4 $)

>  <Rbt.Library>
libRbt.so (2013.1, Build901 2013/11/27)

>  <Rbt.Parameter_File>
/export/apps/rDock/src/rDock_2013.1_src/data/scripts/dock_solv.prm

>  <Rbt.Receptor>
prm/blind_docking_100.prm

>  <SCORE>
-16.6269

>  <SCORE.INTER>
-16.6269

>  <SCORE.INTER.CONST>
1

>  <SCORE.INTER.POLAR>
0

>  <SCORE.INTER.ROT>
0

>  <SCORE.INTER.SOLV>
13.6725

>  <SCORE.INTER.VDW>
-19.2421

>  <SCORE.INTER.norm>
-1.38558

>  <SCORE.INTRA>
0

>  <SCORE.INTRA.DIHEDRAL>
0

>  <SCORE.INTRA.DIHEDRAL.0>
0

>  <SCORE.INTRA.POLAR>
0

>  <SCORE.INTRA.POLAR.0>
0

>  <SCORE.INTRA.REPUL>
0

>  <SCORE.INTRA.REPUL.0>
0

>  <SCORE.INTRA.SOLV>
0

>  <SCORE.INTRA.SOLV.lig_0>
-28.9128

>  <SCORE.INTRA.VDW>
0

>  <SCORE.INTRA.VDW.0>
0

>  <SCORE.INTRA.norm>
0

>  <SCORE.RESTR>
0

>  <SCORE.RESTR.CAVITY>
0

>  <SCORE.RESTR.norm>
0

>  <SCORE.SYSTEM>
0

>  <SCORE.SYSTEM.CONST>
0

>  <SCORE.SYSTEM.DIHEDRAL>
0

>  <SCORE.SYSTEM.SOLV>
0

>  <SCORE.SYSTEM.norm>
0

>  <SCORE.heavy>
12

>  <SCORE.norm>
-1.38558

>  <RMSD>
0.795

$$$$
ligand
 OpenBabel11021811503D
libRbt.so/2013.1/901 2013/11/27
 12 13  0  0  0  0  0  0  0  0999 V2000
   30.9862   18.0266   14.1414 C   0  0  0  0  0  0  0  0  0  0  0  0
   29.9824   16.8910   16.0194 C   0  0  0  0  0  0  0  0  0  0  0  0
   31.2853   18.0866   12.8490 N   0  0  0  0  0  0  0  0  0  0  0  0
   31.3463   19.0383   14.9377 N   0  0  0  0  0  0  0  0  0  0  0  0
   30.2886   16.9214   14.6636 N   0  0  0  0  0  0  0  0  0  0  0  0
   29.3754   15.9180   16.4752 O   0  0  0  0  0  0  0  0  0  0  0  0
   30.5165   19.0727   18.9631 N   0  0  0  0  0  0  0  0  0  0  0  0
   31.2070   20.1387   18.3654 C   0  0  0  0  0  0  0  0  0  0  0  0
   31.4715   20.1006   16.9835 N   0  0  0  0  0  0  0  0  0  0  0  0
   31.0799   19.0397   16.2499 C   0  0  0  0  0  0  0  0  0  0  0  0
   30.3851   17.9636   16.8191 C   0  0  0  0  0  0  0  0  0  0  0  0
   30.1056   17.9690   18.1778 C   0  0  0  0  0  0  0  0  0  0  0  0
  1  3  1  0  0  0  0
  1  4  2  0  0  0  0
  1  5  1  0  0  0  0
  2  6  2  0  0  0  0
  2 11  1  0  0  0  0
  2  5  1  0  0  0  0
  4 10  1  0  0  0  0
  7  8  2  0  0  0  0
  7 12  1  0  0  0  0
  8  9  1  0  0  0  0
  9 10  2  0  0  0  0
 10 11  1  0  0  0  0
 11 12  2  0  0  0  0
M  END
>  <CHROM.1>
30.65621322,18.22864602,16.19271147,-1.57587495,1.05396323,1.19080365

>  <Name>
ligand

>  <RI>
0

>  <Rbt.Current_Directory>
/home/itssahil/PROJECTS/Mol_Feturizer/New_Systems/rnas/4LX6

>  <Rbt.Executable>
rbdock ($Id: //depot/dev/client3/rdock/2013.1/src/exe/rbdock.cxx#4 $)

>  <Rbt.Library>
libRbt.so (2013.1, Build901 2013/11/27)

>  <Rbt.Parameter_File>
/export/apps/rDock/src/rDock_2013.1_src/data/scripts/dock_solv.prm

>  <Rbt.Receptor>
prm/pocket_docking_6.prm

>  <SCORE>
-16.6434

>  <SCORE.INTER>
-16.6434

>  <SCORE.INTER.CONST>
1

>  <SCORE.INTER.POLAR>
0

>  <SCORE.INTER.ROT>
0

>  <SCORE.INTER.SOLV>
13.7418

>  <SCORE.INTER.VDW>
-19.2762

>  <SCORE.INTER.norm>
-1.38695

>  <SCORE.INTRA>
0

>  <SCORE.INTRA.DIHEDRAL>
0

>  <SCORE.INTRA.DIHEDRAL.0>
0

>  <SCORE.INTRA.POLAR>
0

>  <SCORE.INTRA.POLAR.0>
0

>  <SCORE.INTRA.REPUL>
0

>  <SCORE.INTRA.REPUL.0>
0

>  <SCORE.INTRA.SOLV>
0

>  <SCORE.INTRA.SOLV.lig_0>
-28.9128

>  <SCORE.INTRA.VDW>
0

>  <SCORE.INTRA.VDW.0>
0

>  <SCORE.INTRA.norm>
0

>  <SCORE.RESTR>
0

>  <SCORE.RESTR.CAVITY>
0

>  <SCORE.RESTR.norm>
0

>  <SCORE.SYSTEM>
0

>  <SCORE.SYSTEM.CONST>
0

>  <SCORE.SYSTEM.DIHEDRAL>
0

>  <SCORE.SYSTEM.SOLV>
0

>  <SCORE.SYSTEM.norm>
0

>  <SCORE.heavy>
12

>  <SCORE.norm>
-1.38695

>  <RMSD>
0.795

$$$$
ligand
 OpenBabel11021811503D
libRbt.so/2013.1/901 2013/11/27
 12 13  0  0  0  0  0  0  0  0999 V2000
   31.0042   17.9874   14.1520 C   0  0  0  0  0  0  0  0  0  0  0  0
   29.9769   16.8729   16.0299 C   0  0  0  0  0  0  0  0  0  0  0  0
   31.3141   18.0360   12.8616 N   0  0  0  0  0  0  0  0  0  0  0  0
   31.3656   19.0021   14.9440 N   0  0  0  0  0  0  0  0  0  0  0  0
   30.2942   16.8913   14.6763 N   0  0  0  0  0  0  0  0  0  0  0  0
   29.3589   15.9077   16.4876 O   0  0  0  0  0  0  0  0  0  0  0  0
   30.5039   19.0714   18.9622 N   0  0  0  0  0  0  0  0  0  0  0  0
   31.2072   20.1279   18.3626 C   0  0  0  0  0  0  0  0  0  0  0  0
   31.4825   20.0780   16.9832 N   0  0  0  0  0  0  0  0  0  0  0  0
   31.0887   19.0148   16.2540 C   0  0  0  0  0  0  0  0  0  0  0  0
   30.3813   17.9481   16.8252 C   0  0  0  0  0  0  0  0  0  0  0  0
   30.0910   17.9652   18.1814 C   0  0  0  0  0  0  0  0  0  0  0  0
  1  3  1  0  0  0  0
  1  4  2  0  0  0  0
  1  5  1  0  0  0  0
  2  6  2  0  0  0  0
  2 11  1  0  0  0  0
  2  5  1  0  0  0  0
  4 10  1  0  0  0  0
  7  8  2  0  0  0  0
  7 12  1  0  0  0  0
  8  9  1  0  0  0  0
  9 10  2  0  0  0  0
 10 11  1  0  0  0  0
 11 12  2  0  0  0  0
M  END
>  <CHROM.1>
30.65941822,18.20659439,16.19909099,-1.56670484,1.04396049,1.17576736

>  <Name>
ligand

>  <RI>
0

>  <Rbt.Current_Directory>
/home/itssahil/PROJECTS/Mol_Feturizer/New_Systems/rnas/4LX6

>  <Rbt.Executable>
rbdock ($Id: //depot/dev/client3/rdock/2013.1/src/exe/rbdock.cxx#4 $)

>  <Rbt.Library>
libRbt.so (2013.1, Build901 2013/11/27)

>  <Rbt.Parameter_File>
/export/apps/rDock/src/rDock_2013.1_src/data/scripts/dock_solv.prm

>  <Rbt.Receptor>
prm/pocket_docking_8.prm

>  <SCORE>
-16.6108

>  <SCORE.INTER>
-16.6108

>  <SCORE.INTER.CONST>
1

>  <SCORE.INTER.POLAR>
0

>  <SCORE.INTER.ROT>
0

>  <SCORE.INTER.SOLV>
13.7753

>  <SCORE.INTER.VDW>
-19.2656

>  <SCORE.INTER.norm>
-1.38423

>  <SCORE.INTRA>
0

>  <SCORE.INTRA.DIHEDRAL>
0

>  <SCORE.INTRA.DIHEDRAL.0>
0

>  <SCORE.INTRA.POLAR>
0

>  <SCORE.INTRA.POLAR.0>
0

>  <SCORE.INTRA.REPUL>
0

>  <SCORE.INTRA.REPUL.0>
0

>  <SCORE.INTRA.SOLV>
0

>  <SCORE.INTRA.SOLV.lig_0>
-28.9128

>  <SCORE.INTRA.VDW>
0

>  <SCORE.INTRA.VDW.0>
0

>  <SCORE.INTRA.norm>
0

>  <SCORE.RESTR>
0

>  <SCORE.RESTR.CAVITY>
0

>  <SCORE.RESTR.norm>
0

>  <SCORE.SYSTEM>
0

>  <SCORE.SYSTEM.CONST>
0

>  <SCORE.SYSTEM.DIHEDRAL>
0

>  <SCORE.SYSTEM.SOLV>
0

>  <SCORE.SYSTEM.norm>
0

>  <SCORE.heavy>
12

>  <SCORE.norm>
-1.38423

>  <RMSD>
0.795

$$$$
ligand
 OpenBabel11021811503D
libRbt.so/2013.1/901 2013/11/27
 12 13  0  0  0  0  0  0  0  0999 V2000
   30.9942   18.0080   14.1504 C   0  0  0  0  0  0  0  0  0  0  0  0
   29.9689   16.8869   16.0255 C   0  0  0  0  0  0  0  0  0  0  0  0
   31.3017   18.0616   12.8596 N   0  0  0  0  0  0  0  0  0  0  0  0
   31.3583   19.0188   14.9459 N   0  0  0  0  0  0  0  0  0  0  0  0
   30.2837   16.9106   14.6715 N   0  0  0  0  0  0  0  0  0  0  0  0
   29.3505   15.9206   16.4803 O   0  0  0  0  0  0  0  0  0  0  0  0
   30.5042   19.0725   18.9660 N   0  0  0  0  0  0  0  0  0  0  0  0
   31.2078   20.1306   18.3695 C   0  0  0  0  0  0  0  0  0  0  0  0
   31.4804   20.0861   16.9894 N   0  0  0  0  0  0  0  0  0  0  0  0
   31.0839   19.0265   16.2565 C   0  0  0  0  0  0  0  0  0  0  0  0
   30.3762   17.9583   16.8245 C   0  0  0  0  0  0  0  0  0  0  0  0
   30.0885   17.9701   18.1814 C   0  0  0  0  0  0  0  0  0  0  0  0
  1  3  1  0  0  0  0
  1  4  2  0  0  0  0
  1  5  1  0  0  0  0
  2  6  2  0  0  0  0
  2 11  1  0  0  0  0
  2  5  1  0  0  0  0
  4 10  1  0  0  0  0
  7  8  2  0  0  0  0
  7 12  1  0  0  0  0
  8  9  1  0  0  0  0
  9 10  2  0  0  0  0
 10 11  1  0  0  0  0
 11 12  2  0  0  0  0
M  END
>  <CHROM.1>
30.65346081,18.21906614,16.19899035,-1.57110798,1.04347744,1.18374128

>  <Name>
ligand

>  <RI>
0

>  <Rbt.Current_Directory>
/home/itssahil/PROJECTS/Mol_Feturizer/New_Systems/rnas/4LX6

>  <Rbt.Executable>
rbdock ($Id: //depot/dev/client3/rdock/2013.1/src/exe/rbdock.cxx#4 $)

>  <Rbt.Library>
libRbt.so (2013.1, Build901 2013/11/27)

>  <Rbt.Parameter_File>
/export/apps/rDock/src/rDock_2013.1_src/data/scripts/dock_solv.prm

>  <Rbt.Receptor>
prm/blind_docking_60.prm

>  <SCORE>
-16.621

>  <SCORE.INTER>
-16.621

>  <SCORE.INTER.CONST>
1

>  <SCORE.INTER.POLAR>
0

>  <SCORE.INTER.ROT>
0

>  <SCORE.INTER.SOLV>
13.737

>  <SCORE.INTER.VDW>
-19.2596

>  <SCORE.INTER.norm>
-1.38508

>  <SCORE.INTRA>
0

>  <SCORE.INTRA.DIHEDRAL>
0

>  <SCORE.INTRA.DIHEDRAL.0>
0

>  <SCORE.INTRA.POLAR>
0

>  <SCORE.INTRA.POLAR.0>
0

>  <SCORE.INTRA.REPUL>
0

>  <SCORE.INTRA.REPUL.0>
0

>  <SCORE.INTRA.SOLV>
0

>  <SCORE.INTRA.SOLV.lig_0>
-28.9128

>  <SCORE.INTRA.VDW>
0

>  <SCORE.INTRA.VDW.0>
0

>  <SCORE.INTRA.norm>
0

>  <SCORE.RESTR>
0

>  <SCORE.RESTR.CAVITY>
0

>  <SCORE.RESTR.norm>
0

>  <SCORE.SYSTEM>
0

>  <SCORE.SYSTEM.CONST>
0

>  <SCORE.SYSTEM.DIHEDRAL>
0

>  <SCORE.SYSTEM.SOLV>
0

>  <SCORE.SYSTEM.norm>
0

>  <SCORE.heavy>
12

>  <SCORE.norm>
-1.38508

>  <RMSD>
0.796

$$$$
ligand
 OpenBabel11021811503D
libRbt.so/2013.1/901 2013/11/27
 12 13  0  0  0  0  0  0  0  0999 V2000
   30.9930   18.0056   14.1528 C   0  0  0  0  0  0  0  0  0  0  0  0
   29.9582   16.8890   16.0254 C   0  0  0  0  0  0  0  0  0  0  0  0
   31.3033   18.0582   12.8627 N   0  0  0  0  0  0  0  0  0  0  0  0
   31.3609   19.0142   14.9495 N   0  0  0  0  0  0  0  0  0  0  0  0
   30.2758   16.9117   14.6720 N   0  0  0  0  0  0  0  0  0  0  0  0
   29.3340   15.9258   16.4786 O   0  0  0  0  0  0  0  0  0  0  0  0
   30.4993   19.0704   18.9680 N   0  0  0  0  0  0  0  0  0  0  0  0
   31.2095   20.1251   18.3734 C   0  0  0  0  0  0  0  0  0  0  0  0
   31.4845   20.0798   16.9937 N   0  0  0  0  0  0  0  0  0  0  0  0
   31.0839   19.0226   16.2596 C   0  0  0  0  0  0  0  0  0  0  0  0
   30.3695   17.9579   16.8257 C   0  0  0  0  0  0  0  0  0  0  0  0
   30.0793   17.9706   18.1821 C   0  0  0  0  0  0  0  0  0  0  0  0
  1  3  1  0  0  0  0
  1  4  2  0  0  0  0
  1  5  1  0  0  0  0
  2  6  2  0  0  0  0
  2 11  1  0  0  0  0
  2  5  1  0  0  0  0
  4 10  1  0  0  0  0
  7  8  2  0  0  0  0
  7 12  1  0  0  0  0
  8  9  1  0  0  0  0
  9 10  2  0  0  0  0
 10 11  1  0  0  0  0
 11 12  2  0  0  0  0
M  END
>  <CHROM.1>
30.64940759,18.21749606,16.20088573,-1.57143891,1.03791398,1.18449405

>  <Name>
ligand

>  <RI>
0

>  <Rbt.Current_Directory>
/home/itssahil/PROJECTS/Mol_Feturizer/New_Systems/rnas/4LX6

>  <Rbt.Executable>
rbdock ($Id: //depot/dev/client3/rdock/2013.1/src/exe/rbdock.cxx#4 $)

>  <Rbt.Library>
libRbt.so (2013.1, Build901 2013/11/27)

>  <Rbt.Parameter_File>
/export/apps/rDock/src/rDock_2013.1_src/data/scripts/dock_solv.prm

>  <Rbt.Receptor>
prm/pocket_docking_3.prm

>  <SCORE>
-16.623

>  <SCORE.INTER>
-16.623

>  <SCORE.INTER.CONST>
1

>  <SCORE.INTER.POLAR>
0

>  <SCORE.INTER.ROT>
0

>  <SCORE.INTER.SOLV>
13.714

>  <SCORE.INTER.VDW>
-19.2533

>  <SCORE.INTER.norm>
-1.38525

>  <SCORE.INTRA>
0

>  <SCORE.INTRA.DIHEDRAL>
0

>  <SCORE.INTRA.DIHEDRAL.0>
0

>  <SCORE.INTRA.POLAR>
0

>  <SCORE.INTRA.POLAR.0>
0

>  <SCORE.INTRA.REPUL>
0

>  <SCORE.INTRA.REPUL.0>
0

>  <SCORE.INTRA.SOLV>
0

>  <SCORE.INTRA.SOLV.lig_0>
-28.9128

>  <SCORE.INTRA.VDW>
0

>  <SCORE.INTRA.VDW.0>
0

>  <SCORE.INTRA.norm>
0

>  <SCORE.RESTR>
0

>  <SCORE.RESTR.CAVITY>
0

>  <SCORE.RESTR.norm>
0

>  <SCORE.SYSTEM>
0

>  <SCORE.SYSTEM.CONST>
0

>  <SCORE.SYSTEM.DIHEDRAL>
0

>  <SCORE.SYSTEM.SOLV>
0

>  <SCORE.SYSTEM.norm>
0

>  <SCORE.heavy>
12

>  <SCORE.norm>
-1.38525

>  <RMSD>
0.796

$$$$
ligand
 OpenBabel11021811503D
libRbt.so/2013.1/901 2013/11/27
 12 13  0  0  0  0  0  0  0  0999 V2000
   30.9828   18.0248   14.1480 C   0  0  0  0  0  0  0  0  0  0  0  0
   29.9725   16.8924   16.0244 C   0  0  0  0  0  0  0  0  0  0  0  0
   31.2833   18.0845   12.8559 N   0  0  0  0  0  0  0  0  0  0  0  0
   31.3468   19.0344   14.9453 N   0  0  0  0  0  0  0  0  0  0  0  0
   30.2800   16.9224   14.6688 N   0  0  0  0  0  0  0  0  0  0  0  0
   29.3608   15.9217   16.4789 O   0  0  0  0  0  0  0  0  0  0  0  0
   30.5138   19.0695   18.9700 N   0  0  0  0  0  0  0  0  0  0  0  0
   31.2095   20.1329   18.3738 C   0  0  0  0  0  0  0  0  0  0  0  0
   31.4750   20.0947   16.9920 N   0  0  0  0  0  0  0  0  0  0  0  0
   31.0793   19.0360   16.2574 C   0  0  0  0  0  0  0  0  0  0  0  0
   30.3793   17.9626   16.8252 C   0  0  0  0  0  0  0  0  0  0  0  0
   30.0987   17.9682   18.1836 C   0  0  0  0  0  0  0  0  0  0  0  0
  1  3  1  0  0  0  0
  1  4  2  0  0  0  0
  1  5  1  0  0  0  0
  2  6  2  0  0  0  0
  2 11  1  0  0  0  0
  2  5  1  0  0  0  0
  4 10  1  0  0  0  0
  7  8  2  0  0  0  0
  7 12  1  0  0  0  0
  8  9  1  0  0  0  0
  9 10  2  0  0  0  0
 10 11  1  0  0  0  0
 11 12  2  0  0  0  0
M  END
>  <CHROM.1>
30.65210175,18.22688080,16.19918487,-1.57764300,1.04955833,1.19307513

>  <Name>
ligand

>  <RI>
0

>  <Rbt.Current_Directory>
/home/itssahil/PROJECTS/Mol_Feturizer/New_Systems/rnas/4LX6

>  <Rbt.Executable>
rbdock ($Id: //depot/dev/client3/rdock/2013.1/src/exe/rbdock.cxx#4 $)

>  <Rbt.Library>
libRbt.so (2013.1, Build901 2013/11/27)

>  <Rbt.Parameter_File>
/export/apps/rDock/src/rDock_2013.1_src/data/scripts/dock_solv.prm

>  <Rbt.Receptor>
prm/pocket_docking_8.prm

>  <SCORE>
-16.6491

>  <SCORE.INTER>
-16.6491

>  <SCORE.INTER.CONST>
1

>  <SCORE.INTER.POLAR>
0

>  <SCORE.INTER.ROT>
0

>  <SCORE.INTER.SOLV>
13.7134

>  <SCORE.INTER.VDW>
-19.2705

>  <SCORE.INTER.norm>
-1.38743

>  <SCORE.INTRA>
0

>  <SCORE.INTRA.DIHEDRAL>
0

>  <SCORE.INTRA.DIHEDRAL.0>
0

>  <SCORE.INTRA.POLAR>
0

>  <SCORE.INTRA.POLAR.0>
0

>  <SCORE.INTRA.REPUL>
0

>  <SCORE.INTRA.REPUL.0>
0

>  <SCORE.INTRA.SOLV>
0

>  <SCORE.INTRA.SOLV.lig_0>
-28.9128

>  <SCORE.INTRA.VDW>
0

>  <SCORE.INTRA.VDW.0>
0

>  <SCORE.INTRA.norm>
0

>  <SCORE.RESTR>
0

>  <SCORE.RESTR.CAVITY>
0

>  <SCORE.RESTR.norm>
0

>  <SCORE.SYSTEM>
0

>  <SCORE.SYSTEM.CONST>
0

>  <SCORE.SYSTEM.DIHEDRAL>
0

>  <SCORE.SYSTEM.SOLV>
0

>  <SCORE.SYSTEM.norm>
0

>  <SCORE.heavy>
12

>  <SCORE.norm>
-1.38743

>  <RMSD>
0.799

$$$$
ligand
 OpenBabel11021811503D
libRbt.so/2013.1/901 2013/11/27
 12 13  0  0  0  0  0  0  0  0999 V2000
   30.9665   18.0189   14.1396 C   0  0  0  0  0  0  0  0  0  0  0  0
   29.9638   16.8871   16.0204 C   0  0  0  0  0  0  0  0  0  0  0  0
   31.2622   18.0778   12.8463 N   0  0  0  0  0  0  0  0  0  0  0  0
   31.3327   19.0292   14.9348 N   0  0  0  0  0  0  0  0  0  0  0  0
   30.2663   16.9164   14.6637 N   0  0  0  0  0  0  0  0  0  0  0  0
   29.3544   15.9164   16.4779 O   0  0  0  0  0  0  0  0  0  0  0  0
   30.5145   19.0667   18.9625 N   0  0  0  0  0  0  0  0  0  0  0  0
   31.2073   20.1302   18.3629 C   0  0  0  0  0  0  0  0  0  0  0  0
   31.4677   20.0911   16.9802 N   0  0  0  0  0  0  0  0  0  0  0  0
   31.0700   19.0316   16.2478 C   0  0  0  0  0  0  0  0  0  0  0  0
   30.3728   17.9582   16.8190 C   0  0  0  0  0  0  0  0  0  0  0  0
   30.0972   17.9646   18.1784 C   0  0  0  0  0  0  0  0  0  0  0  0
  1  3  1  0  0  0  0
  1  4  2  0  0  0  0
  1  5  1  0  0  0  0
  2  6  2  0  0  0  0
  2 11  1  0  0  0  0
  2  5  1  0  0  0  0
  4 10  1  0  0  0  0
  7  8  2  0  0  0  0
  7 12  1  0  0  0  0
  8  9  1  0  0  0  0
  9 10  2  0  0  0  0
 10 11  1  0  0  0  0
 11 12  2  0  0  0  0
M  END
>  <CHROM.1>
30.64316303,18.22219084,16.19176131,-1.58399843,1.05150156,1.19785625

>  <Name>
ligand

>  <RI>
0

>  <Rbt.Current_Directory>
/home/itssahil/PROJECTS/Mol_Feturizer/New_Systems/rnas/4LX6

>  <Rbt.Executable>
rbdock ($Id: //depot/dev/client3/rdock/2013.1/src/exe/rbdock.cxx#4 $)

>  <Rbt.Library>
libRbt.so (2013.1, Build901 2013/11/27)

>  <Rbt.Parameter_File>
/export/apps/rDock/src/rDock_2013.1_src/data/scripts/dock_solv.prm

>  <Rbt.Receptor>
prm/blind_docking_100.prm

>  <SCORE>
-16.6432

>  <SCORE.INTER>
-16.6432

>  <SCORE.INTER.CONST>
1

>  <SCORE.INTER.POLAR>
0

>  <SCORE.INTER.ROT>
0

>  <SCORE.INTER.SOLV>
13.6792

>  <SCORE.INTER.VDW>
-19.2552

>  <SCORE.INTER.norm>
-1.38694

>  <SCORE.INTRA>
0

>  <SCORE.INTRA.DIHEDRAL>
0

>  <SCORE.INTRA.DIHEDRAL.0>
0

>  <SCORE.INTRA.POLAR>
0

>  <SCORE.INTRA.POLAR.0>
0

>  <SCORE.INTRA.REPUL>
0

>  <SCORE.INTRA.REPUL.0>
0

>  <SCORE.INTRA.SOLV>
0

>  <SCORE.INTRA.SOLV.lig_0>
-28.9128

>  <SCORE.INTRA.VDW>
0

>  <SCORE.INTRA.VDW.0>
0

>  <SCORE.INTRA.norm>
0

>  <SCORE.RESTR>
0

>  <SCORE.RESTR.CAVITY>
0

>  <SCORE.RESTR.norm>
0

>  <SCORE.SYSTEM>
0

>  <SCORE.SYSTEM.CONST>
0

>  <SCORE.SYSTEM.DIHEDRAL>
0

>  <SCORE.SYSTEM.SOLV>
0

>  <SCORE.SYSTEM.norm>
0

>  <SCORE.heavy>
12

>  <SCORE.norm>
-1.38694

>  <RMSD>
0.800

$$$$
ligand
 OpenBabel11021811503D
libRbt.so/2013.1/901 2013/11/27
 12 13  0  0  0  0  0  0  0  0999 V2000
   30.9848   18.0021   14.1587 C   0  0  0  0  0  0  0  0  0  0  0  0
   29.9552   16.8831   16.0326 C   0  0  0  0  0  0  0  0  0  0  0  0
   31.2921   18.0561   12.8679 N   0  0  0  0  0  0  0  0  0  0  0  0
   31.3537   19.0102   14.9554 N   0  0  0  0  0  0  0  0  0  0  0  0
   30.2696   16.9072   14.6785 N   0  0  0  0  0  0  0  0  0  0  0  0
   29.3327   15.9189   16.4863 O   0  0  0  0  0  0  0  0  0  0  0  0
   30.5013   19.0622   18.9759 N   0  0  0  0  0  0  0  0  0  0  0  0
   31.2093   20.1180   18.3806 C   0  0  0  0  0  0  0  0  0  0  0  0
   31.4812   20.0742   17.0003 N   0  0  0  0  0  0  0  0  0  0  0  0
   31.0798   19.0173   16.2661 C   0  0  0  0  0  0  0  0  0  0  0  0
   30.3675   17.9515   16.8329 C   0  0  0  0  0  0  0  0  0  0  0  0
   30.0803   17.9628   18.1899 C   0  0  0  0  0  0  0  0  0  0  0  0
  1  3  1  0  0  0  0
  1  4  2  0  0  0  0
  1  5  1  0  0  0  0
  2  6  2  0  0  0  0
  2 11  1  0  0  0  0
  2  5  1  0  0  0  0
  4 10  1  0  0  0  0
  7  8  2  0  0  0  0
  7 12  1  0  0  0  0
  8  9  1  0  0  0  0
  9 10  2  0  0  0  0
 10 11  1  0  0  0  0
 11 12  2  0  0  0  0
M  END
>  <CHROM.1>
30.64574149,18.21190428,16.20767763,-1.57504052,1.03949447,1.18849113

>  <Name>
ligand

>  <RI>
0

>  <Rbt.Current_Directory>
/home/itssahil/PROJECTS/Mol_Feturizer/New_Systems/rnas/4LX6

>  <Rbt.Executable>
rbdock ($Id: //depot/dev/client3/rdock/2013.1/src/exe/rbdock.cxx#4 $)

>  <Rbt.Library>
libRbt.so (2013.1, Build901 2013/11/27)

>  <Rbt.Parameter_File>
/export/apps/rDock/src/rDock_2013.1_src/data/scripts/dock_solv.prm

>  <Rbt.Receptor>
prm/pocket_docking_5.prm

>  <SCORE>
-16.5888

>  <SCORE.INTER>
-16.5888

>  <SCORE.INTER.CONST>
1

>  <SCORE.INTER.POLAR>
0

>  <SCORE.INTER.ROT>
0

>  <SCORE.INTER.SOLV>
13.6889

>  <SCORE.INTER.VDW>
-19.2222

>  <SCORE.INTER.norm>
-1.3824

>  <SCORE.INTRA>
0

>  <SCORE.INTRA.DIHEDRAL>
0

>  <SCORE.INTRA.DIHEDRAL.0>
0

>  <SCORE.INTRA.POLAR>
0

>  <SCORE.INTRA.POLAR.0>
0

>  <SCORE.INTRA.REPUL>
0

>  <SCORE.INTRA.REPUL.0>
0

>  <SCORE.INTRA.SOLV>
0

>  <SCORE.INTRA.SOLV.lig_0>
-28.9128

>  <SCORE.INTRA.VDW>
0

>  <SCORE.INTRA.VDW.0>
0

>  <SCORE.INTRA.norm>
0

>  <SCORE.RESTR>
0

>  <SCORE.RESTR.CAVITY>
0

>  <SCORE.RESTR.norm>
0

>  <SCORE.SYSTEM>
0

>  <SCORE.SYSTEM.CONST>
0

>  <SCORE.SYSTEM.DIHEDRAL>
0

>  <SCORE.SYSTEM.SOLV>
0

>  <SCORE.SYSTEM.norm>
0

>  <SCORE.heavy>
12

>  <SCORE.norm>
-1.3824

>  <RMSD>
0.802

$$$$
ligand
 OpenBabel11021811503D
libRbt.so/2013.1/901 2013/11/27
 12 13  0  0  0  0  0  0  0  0999 V2000
   30.9697   18.0208   14.1469 C   0  0  0  0  0  0  0  0  0  0  0  0
   29.9637   16.8905   16.0269 C   0  0  0  0  0  0  0  0  0  0  0  0
   31.2666   18.0792   12.8539 N   0  0  0  0  0  0  0  0  0  0  0  0
   31.3364   19.0307   14.9424 N   0  0  0  0  0  0  0  0  0  0  0  0
   30.2675   16.9192   14.6705 N   0  0  0  0  0  0  0  0  0  0  0  0
   29.3527   15.9206   16.4840 O   0  0  0  0  0  0  0  0  0  0  0  0
   30.5144   19.0697   18.9693 N   0  0  0  0  0  0  0  0  0  0  0  0
   31.2092   20.1321   18.3703 C   0  0  0  0  0  0  0  0  0  0  0  0
   31.4709   20.0926   16.9879 N   0  0  0  0  0  0  0  0  0  0  0  0
   31.0725   19.0336   16.2551 C   0  0  0  0  0  0  0  0  0  0  0  0
   30.3733   17.9611   16.8258 C   0  0  0  0  0  0  0  0  0  0  0  0
   30.0965   17.9680   18.1849 C   0  0  0  0  0  0  0  0  0  0  0  0
  1  3  1  0  0  0  0
  1  4  2  0  0  0  0
  1  5  1  0  0  0  0
  2  6  2  0  0  0  0
  2 11  1  0  0  0  0
  2  5  1  0  0  0  0
  4 10  1  0  0  0  0
  7  8  2  0  0  0  0
  7 12  1  0  0  0  0
  8  9  1  0  0  0  0
  9 10  2  0  0  0  0
 10 11  1  0  0  0  0
 11 12  2  0  0  0  0
M  END
>  <CHROM.1>
30.64462988,18.22470846,16.19879977,-1.58319691,1.04996078,1.19706716

>  <Name>
ligand

>  <RI>
0

>  <Rbt.Current_Directory>
/home/itssahil/PROJECTS/Mol_Feturizer/New_Systems/rnas/4LX6

>  <Rbt.Executable>
rbdock ($Id: //depot/dev/client3/rdock/2013.1/src/exe/rbdock.cxx#4 $)

>  <Rbt.Library>
libRbt.so (2013.1, Build901 2013/11/27)

>  <Rbt.Parameter_File>
/export/apps/rDock/src/rDock_2013.1_src/data/scripts/dock_solv.prm

>  <Rbt.Receptor>
prm/pocket_docking_5.prm

>  <SCORE>
-16.6461

>  <SCORE.INTER>
-16.6461

>  <SCORE.INTER.CONST>
1

>  <SCORE.INTER.POLAR>
0

>  <SCORE.INTER.ROT>
0

>  <SCORE.INTER.SOLV>
13.6808

>  <SCORE.INTER.VDW>
-19.2577

>  <SCORE.INTER.norm>
-1.38718

>  <SCORE.INTRA>
0

>  <SCORE.INTRA.DIHEDRAL>
0

>  <SCORE.INTRA.DIHEDRAL.0>
0

>  <SCORE.INTRA.POLAR>
0

>  <SCORE.INTRA.POLAR.0>
0

>  <SCORE.INTRA.REPUL>
0

>  <SCORE.INTRA.REPUL.0>
0

>  <SCORE.INTRA.SOLV>
0

>  <SCORE.INTRA.SOLV.lig_0>
-28.9128

>  <SCORE.INTRA.VDW>
0

>  <SCORE.INTRA.VDW.0>
0

>  <SCORE.INTRA.norm>
0

>  <SCORE.RESTR>
0

>  <SCORE.RESTR.CAVITY>
0

>  <SCORE.RESTR.norm>
0

>  <SCORE.SYSTEM>
0

>  <SCORE.SYSTEM.CONST>
0

>  <SCORE.SYSTEM.DIHEDRAL>
0

>  <SCORE.SYSTEM.SOLV>
0

>  <SCORE.SYSTEM.norm>
0

>  <SCORE.heavy>
12

>  <SCORE.norm>
-1.38718

>  <RMSD>
0.804

$$$$
ligand
 OpenBabel11021811503D
libRbt.so/2013.1/901 2013/11/27
 12 13  0  0  0  0  0  0  0  0999 V2000
   30.9668   18.0196   14.1491 C   0  0  0  0  0  0  0  0  0  0  0  0
   29.9590   16.8944   16.0313 C   0  0  0  0  0  0  0  0  0  0  0  0
   31.2615   18.0764   12.8555 N   0  0  0  0  0  0  0  0  0  0  0  0
   31.3403   19.0277   14.9438 N   0  0  0  0  0  0  0  0  0  0  0  0
   30.2602   16.9216   14.6742 N   0  0  0  0  0  0  0  0  0  0  0  0
   29.3441   15.9276   16.4896 O   0  0  0  0  0  0  0  0  0  0  0  0
   30.5268   19.0709   18.9724 N   0  0  0  0  0  0  0  0  0  0  0  0
   31.2256   20.1298   18.3719 C   0  0  0  0  0  0  0  0  0  0  0  0
   31.4843   20.0890   16.9890 N   0  0  0  0  0  0  0  0  0  0  0  0
   31.0791   19.0319   16.2571 C   0  0  0  0  0  0  0  0  0  0  0  0
   30.3757   17.9630   16.8292 C   0  0  0  0  0  0  0  0  0  0  0  0
   30.1017   17.9713   18.1889 C   0  0  0  0  0  0  0  0  0  0  0  0
  1  3  1  0  0  0  0
  1  4  2  0  0  0  0
  1  5  1  0  0  0  0
  2  6  2  0  0  0  0
  2 11  1  0  0  0  0
  2  5  1  0  0  0  0
  4 10  1  0  0  0  0
  7  8  2  0  0  0  0
  7 12  1  0  0  0  0
  8  9  1  0  0  0  0
  9 10  2  0  0  0  0
 10 11  1  0  0  0  0
 11 12  2  0  0  0  0
M  END
>  <CHROM.1>
30.64705367,18.22520456,16.20167724,-1.59067338,1.04600301,1.20350779

>  <Name>
ligand

>  <RI>
0

>  <Rbt.Current_Directory>
/home/itssahil/PROJECTS/Mol_Feturizer/New_Systems/rnas/4LX6

>  <Rbt.Executable>
rbdock ($Id: //depot/dev/client3/rdock/2013.1/src/exe/rbdock.cxx#4 $)

>  <Rbt.Library>
libRbt.so (2013.1, Build901 2013/11/27)

>  <Rbt.Parameter_File>
/export/apps/rDock/src/rDock_2013.1_src/data/scripts/dock_solv.prm

>  <Rbt.Receptor>
prm/blind_docking_80.prm

>  <SCORE>
-16.6337

>  <SCORE.INTER>
-16.6337

>  <SCORE.INTER.CONST>
1

>  <SCORE.INTER.POLAR>
0

>  <SCORE.INTER.ROT>
0

>  <SCORE.INTER.SOLV>
13.6583

>  <SCORE.INTER.VDW>
-19.2419

>  <SCORE.INTER.norm>
-1.38614

>  <SCORE.INTRA>
0

>  <SCORE.INTRA.DIHEDRAL>
0

>  <SCORE.INTRA.DIHEDRAL.0>
0

>  <SCORE.INTRA.POLAR>
0

>  <SCORE.INTRA.POLAR.0>
0

>  <SCORE.INTRA.REPUL>
0

>  <SCORE.INTRA.REPUL.0>
0

>  <SCORE.INTRA.SOLV>
0

>  <SCORE.INTRA.SOLV.lig_0>
-28.9128

>  <SCORE.INTRA.VDW>
0

>  <SCORE.INTRA.VDW.0>
0

>  <SCORE.INTRA.norm>
0

>  <SCORE.RESTR>
0

>  <SCORE.RESTR.CAVITY>
0

>  <SCORE.RESTR.norm>
0

>  <SCORE.SYSTEM>
0

>  <SCORE.SYSTEM.CONST>
0

>  <SCORE.SYSTEM.DIHEDRAL>
0

>  <SCORE.SYSTEM.SOLV>
0

>  <SCORE.SYSTEM.norm>
0

>  <SCORE.heavy>
12

>  <SCORE.norm>
-1.38614

>  <RMSD>
0.807

$$$$
ligand
 OpenBabel11021811503D
libRbt.so/2013.1/901 2013/11/27
 12 13  0  0  0  0  0  0  0  0999 V2000
   30.9369   18.0247   14.1278 C   0  0  0  0  0  0  0  0  0  0  0  0
   29.9447   16.8972   16.0168 C   0  0  0  0  0  0  0  0  0  0  0  0
   31.2232   18.0819   12.8323 N   0  0  0  0  0  0  0  0  0  0  0  0
   31.3120   19.0345   14.9196 N   0  0  0  0  0  0  0  0  0  0  0  0
   30.2372   16.9247   14.6578 N   0  0  0  0  0  0  0  0  0  0  0  0
   29.3358   15.9285   16.4794 O   0  0  0  0  0  0  0  0  0  0  0  0
   30.5236   19.0770   18.9533 N   0  0  0  0  0  0  0  0  0  0  0  0
   31.2152   20.1379   18.3479 C   0  0  0  0  0  0  0  0  0  0  0  0
   31.4653   20.0972   16.9634 N   0  0  0  0  0  0  0  0  0  0  0  0
   31.0590   19.0385   16.2345 C   0  0  0  0  0  0  0  0  0  0  0  0
   30.3628   17.9675   16.8116 C   0  0  0  0  0  0  0  0  0  0  0  0
   30.0973   17.9756   18.1730 C   0  0  0  0  0  0  0  0  0  0  0  0
  1  3  1  0  0  0  0
  1  4  2  0  0  0  0
  1  5  1  0  0  0  0
  2  6  2  0  0  0  0
  2 11  1  0  0  0  0
  2  5  1  0  0  0  0
  4 10  1  0  0  0  0
  7  8  2  0  0  0  0
  7 12  1  0  0  0  0
  8  9  1  0  0  0  0
  9 10  2  0  0  0  0
 10 11  1  0  0  0  0
 11 12  2  0  0  0  0
M  END
>  <CHROM.1>
30.62931373,18.23031845,16.18220975,-1.60007713,1.05134639,1.21117444

>  <Name>
ligand

>  <RI>
0

>  <Rbt.Current_Directory>
/home/itssahil/PROJECTS/Mol_Feturizer/New_Systems/rnas/4LX6

>  <Rbt.Executable>
rbdock ($Id: //depot/dev/client3/rdock/2013.1/src/exe/rbdock.cxx#4 $)

>  <Rbt.Library>
libRbt.so (2013.1, Build901 2013/11/27)

>  <Rbt.Parameter_File>
/export/apps/rDock/src/rDock_2013.1_src/data/scripts/dock_solv.prm

>  <Rbt.Receptor>
prm/pocket_docking_5.prm

>  <SCORE>
-16.6158

>  <SCORE.INTER>
-16.6158

>  <SCORE.INTER.CONST>
1

>  <SCORE.INTER.POLAR>
0

>  <SCORE.INTER.ROT>
0

>  <SCORE.INTER.SOLV>
13.6242

>  <SCORE.INTER.VDW>
-19.2186

>  <SCORE.INTER.norm>
-1.38465

>  <SCORE.INTRA>
0

>  <SCORE.INTRA.DIHEDRAL>
0

>  <SCORE.INTRA.DIHEDRAL.0>
0

>  <SCORE.INTRA.POLAR>
0

>  <SCORE.INTRA.POLAR.0>
0

>  <SCORE.INTRA.REPUL>
0

>  <SCORE.INTRA.REPUL.0>
0

>  <SCORE.INTRA.SOLV>
0

>  <SCORE.INTRA.SOLV.lig_0>
-28.9128

>  <SCORE.INTRA.VDW>
0

>  <SCORE.INTRA.VDW.0>
0

>  <SCORE.INTRA.norm>
0

>  <SCORE.RESTR>
0

>  <SCORE.RESTR.CAVITY>
0

>  <SCORE.RESTR.norm>
0

>  <SCORE.SYSTEM>
0

>  <SCORE.SYSTEM.CONST>
0

>  <SCORE.SYSTEM.DIHEDRAL>
0

>  <SCORE.SYSTEM.SOLV>
0

>  <SCORE.SYSTEM.norm>
0

>  <SCORE.heavy>
12

>  <SCORE.norm>
-1.38465

>  <RMSD>
0.807

$$$$
ligand
 OpenBabel11021811503D
libRbt.so/2013.1/901 2013/11/27
 12 13  0  0  0  0  0  0  0  0999 V2000
   30.9582   17.9872   14.1411 C   0  0  0  0  0  0  0  0  0  0  0  0
   29.9572   16.8727   16.0331 C   0  0  0  0  0  0  0  0  0  0  0  0
   31.2506   18.0355   12.8466 N   0  0  0  0  0  0  0  0  0  0  0  0
   31.3294   19.0025   14.9277 N   0  0  0  0  0  0  0  0  0  0  0  0
   30.2562   16.8908   14.6754 N   0  0  0  0  0  0  0  0  0  0  0  0
   29.3462   15.9072   16.4995 O   0  0  0  0  0  0  0  0  0  0  0  0
   30.5220   19.0729   18.9571 N   0  0  0  0  0  0  0  0  0  0  0  0
   31.2163   20.1297   18.3476 C   0  0  0  0  0  0  0  0  0  0  0  0
   31.4729   20.0794   16.9646 N   0  0  0  0  0  0  0  0  0  0  0  0
   31.0702   19.0156   16.2413 C   0  0  0  0  0  0  0  0  0  0  0  0
   30.3714   17.9486   16.8224 C   0  0  0  0  0  0  0  0  0  0  0  0
   30.0995   17.9661   18.1825 C   0  0  0  0  0  0  0  0  0  0  0  0
  1  3  1  0  0  0  0
  1  4  2  0  0  0  0
  1  5  1  0  0  0  0
  2  6  2  0  0  0  0
  2 11  1  0  0  0  0
  2  5  1  0  0  0  0
  4 10  1  0  0  0  0
  7  8  2  0  0  0  0
  7 12  1  0  0  0  0
  8  9  1  0  0  0  0
  9 10  2  0  0  0  0
 10 11  1  0  0  0  0
 11 12  2  0  0  0  0
M  END
>  <CHROM.1>
30.64087712,18.20702723,16.19252225,-1.59109039,1.04976131,1.19643455

>  <Name>
ligand

>  <RI>
0

>  <Rbt.Current_Directory>
/home/itssahil/PROJECTS/Mol_Feturizer/New_Systems/rnas/4LX6

>  <Rbt.Executable>
rbdock ($Id: //depot/dev/client3/rdock/2013.1/src/exe/rbdock.cxx#4 $)

>  <Rbt.Library>
libRbt.so (2013.1, Build901 2013/11/27)

>  <Rbt.Parameter_File>
/export/apps/rDock/src/rDock_2013.1_src/data/scripts/dock_solv.prm

>  <Rbt.Receptor>
prm/blind_docking_60.prm

>  <SCORE>
-16.6273

>  <SCORE.INTER>
-16.6273

>  <SCORE.INTER.CONST>
1

>  <SCORE.INTER.POLAR>
0

>  <SCORE.INTER.ROT>
0

>  <SCORE.INTER.SOLV>
13.6705

>  <SCORE.INTER.VDW>
-19.2417

>  <SCORE.INTER.norm>
-1.38561

>  <SCORE.INTRA>
0

>  <SCORE.INTRA.DIHEDRAL>
0

>  <SCORE.INTRA.DIHEDRAL.0>
0

>  <SCORE.INTRA.POLAR>
0

>  <SCORE.INTRA.POLAR.0>
0

>  <SCORE.INTRA.REPUL>
0

>  <SCORE.INTRA.REPUL.0>
0

>  <SCORE.INTRA.SOLV>
0

>  <SCORE.INTRA.SOLV.lig_0>
-28.9128

>  <SCORE.INTRA.VDW>
0

>  <SCORE.INTRA.VDW.0>
0

>  <SCORE.INTRA.norm>
0

>  <SCORE.RESTR>
0

>  <SCORE.RESTR.CAVITY>
0

>  <SCORE.RESTR.norm>
0

>  <SCORE.SYSTEM>
0

>  <SCORE.SYSTEM.CONST>
0

>  <SCORE.SYSTEM.DIHEDRAL>
0

>  <SCORE.SYSTEM.SOLV>
0

>  <SCORE.SYSTEM.norm>
0

>  <SCORE.heavy>
12

>  <SCORE.norm>
-1.38561

>  <RMSD>
0.808

$$$$
ligand
 OpenBabel11021811503D
libRbt.so/2013.1/901 2013/11/27
 12 13  0  0  0  0  0  0  0  0999 V2000
   30.9775   17.9350   14.1466 C   0  0  0  0  0  0  0  0  0  0  0  0
   29.9609   16.8484   16.0466 C   0  0  0  0  0  0  0  0  0  0  0  0
   31.2819   17.9634   12.8543 N   0  0  0  0  0  0  0  0  0  0  0  0
   31.3396   18.9632   14.9205 N   0  0  0  0  0  0  0  0  0  0  0  0
   30.2725   16.8457   14.6916 N   0  0  0  0  0  0  0  0  0  0  0  0
   29.3474   15.8892   16.5225 O   0  0  0  0  0  0  0  0  0  0  0  0
   30.4946   19.0955   18.9406 N   0  0  0  0  0  0  0  0  0  0  0  0
   31.1926   20.1439   18.3211 C   0  0  0  0  0  0  0  0  0  0  0  0
   31.4622   20.0724   16.9415 N   0  0  0  0  0  0  0  0  0  0  0  0
   31.0681   18.9965   16.2313 C   0  0  0  0  0  0  0  0  0  0  0  0
   30.3659   17.9374   16.8226 C   0  0  0  0  0  0  0  0  0  0  0  0
   30.0813   17.9758   18.1797 C   0  0  0  0  0  0  0  0  0  0  0  0
  1  3  1  0  0  0  0
  1  4  2  0  0  0  0
  1  5  1  0  0  0  0
  2  6  2  0  0  0  0
  2 11  1  0  0  0  0
  2  5  1  0  0  0  0
  4 10  1  0  0  0  0
  7  8  2  0  0  0  0
  7 12  1  0  0  0  0
  8  9  1  0  0  0  0
  9 10  2  0  0  0  0
 10 11  1  0  0  0  0
 11 12  2  0  0  0  0
M  END
>  <CHROM.1>
30.64072412,18.18642211,16.19127775,-1.57245528,1.04795146,1.16453072

>  <Name>
ligand

>  <RI>
0

>  <Rbt.Current_Directory>
/home/itssahil/PROJECTS/Mol_Feturizer/New_Systems/rnas/4LX6

>  <Rbt.Executable>
rbdock ($Id: //depot/dev/client3/rdock/2013.1/src/exe/rbdock.cxx#4 $)

>  <Rbt.Library>
libRbt.so (2013.1, Build901 2013/11/27)

>  <Rbt.Parameter_File>
/export/apps/rDock/src/rDock_2013.1_src/data/scripts/dock_solv.prm

>  <Rbt.Receptor>
prm/blind_docking_80.prm

>  <SCORE>
-16.5615

>  <SCORE.INTER>
-16.5615

>  <SCORE.INTER.CONST>
1

>  <SCORE.INTER.POLAR>
0

>  <SCORE.INTER.ROT>
0

>  <SCORE.INTER.SOLV>
13.7604

>  <SCORE.INTER.VDW>
-19.2278

>  <SCORE.INTER.norm>
-1.38012

>  <SCORE.INTRA>
0

>  <SCORE.INTRA.DIHEDRAL>
0

>  <SCORE.INTRA.DIHEDRAL.0>
0

>  <SCORE.INTRA.POLAR>
0

>  <SCORE.INTRA.POLAR.0>
0

>  <SCORE.INTRA.REPUL>
0

>  <SCORE.INTRA.REPUL.0>
0

>  <SCORE.INTRA.SOLV>
0

>  <SCORE.INTRA.SOLV.lig_0>
-28.9128

>  <SCORE.INTRA.VDW>
0

>  <SCORE.INTRA.VDW.0>
0

>  <SCORE.INTRA.norm>
0

>  <SCORE.RESTR>
0

>  <SCORE.RESTR.CAVITY>
0

>  <SCORE.RESTR.norm>
0

>  <SCORE.SYSTEM>
0

>  <SCORE.SYSTEM.CONST>
0

>  <SCORE.SYSTEM.DIHEDRAL>
0

>  <SCORE.SYSTEM.SOLV>
0

>  <SCORE.SYSTEM.norm>
0

>  <SCORE.heavy>
12

>  <SCORE.norm>
-1.38012

>  <RMSD>
0.812

$$$$
ligand
 OpenBabel11021811503D
libRbt.so/2013.1/901 2013/11/27
 12 13  0  0  0  0  0  0  0  0999 V2000
   30.9447   18.0036   14.1452 C   0  0  0  0  0  0  0  0  0  0  0  0
   29.9432   16.8853   16.0347 C   0  0  0  0  0  0  0  0  0  0  0  0
   31.2347   18.0559   12.8503 N   0  0  0  0  0  0  0  0  0  0  0  0
   31.3213   19.0142   14.9350 N   0  0  0  0  0  0  0  0  0  0  0  0
   30.2395   16.9077   14.6765 N   0  0  0  0  0  0  0  0  0  0  0  0
   29.3295   15.9203   16.4986 O   0  0  0  0  0  0  0  0  0  0  0  0
   30.5223   19.0717   18.9663 N   0  0  0  0  0  0  0  0  0  0  0  0
   31.2194   20.1283   18.3597 C   0  0  0  0  0  0  0  0  0  0  0  0
   31.4731   20.0825   16.9760 N   0  0  0  0  0  0  0  0  0  0  0  0
   31.0648   19.0231   16.2492 C   0  0  0  0  0  0  0  0  0  0  0  0
   30.3631   17.9564   16.8275 C   0  0  0  0  0  0  0  0  0  0  0  0
   30.0940   17.9696   18.1882 C   0  0  0  0  0  0  0  0  0  0  0  0
  1  3  1  0  0  0  0
  1  4  2  0  0  0  0
  1  5  1  0  0  0  0
  2  6  2  0  0  0  0
  2 11  1  0  0  0  0
  2  5  1  0  0  0  0
  4 10  1  0  0  0  0
  7  8  2  0  0  0  0
  7 12  1  0  0  0  0
  8  9  1  0  0  0  0
  9 10  2  0  0  0  0
 10 11  1  0  0  0  0
 11 12  2  0  0  0  0
M  END
>  <CHROM.1>
30.63229776,18.21638697,16.19809591,-1.59761593,1.04692970,1.20607337

>  <Name>
ligand

>  <RI>
0

>  <Rbt.Current_Directory>
/home/itssahil/PROJECTS/Mol_Feturizer/New_Systems/rnas/4LX6

>  <Rbt.Executable>
rbdock ($Id: //depot/dev/client3/rdock/2013.1/src/exe/rbdock.cxx#4 $)

>  <Rbt.Library>
libRbt.so (2013.1, Build901 2013/11/27)

>  <Rbt.Parameter_File>
/export/apps/rDock/src/rDock_2013.1_src/data/scripts/dock_solv.prm

>  <Rbt.Receptor>
prm/pocket_docking_4.prm

>  <SCORE>
-16.6308

>  <SCORE.INTER>
-16.6308

>  <SCORE.INTER.CONST>
1

>  <SCORE.INTER.POLAR>
0

>  <SCORE.INTER.ROT>
0

>  <SCORE.INTER.SOLV>
13.6128

>  <SCORE.INTER.VDW>
-19.2248

>  <SCORE.INTER.norm>
-1.3859

>  <SCORE.INTRA>
0

>  <SCORE.INTRA.DIHEDRAL>
0

>  <SCORE.INTRA.DIHEDRAL.0>
0

>  <SCORE.INTRA.POLAR>
0

>  <SCORE.INTRA.POLAR.0>
0

>  <SCORE.INTRA.REPUL>
0

>  <SCORE.INTRA.REPUL.0>
0

>  <SCORE.INTRA.SOLV>
0

>  <SCORE.INTRA.SOLV.lig_0>
-28.9128

>  <SCORE.INTRA.VDW>
0

>  <SCORE.INTRA.VDW.0>
0

>  <SCORE.INTRA.norm>
0

>  <SCORE.RESTR>
0

>  <SCORE.RESTR.CAVITY>
0

>  <SCORE.RESTR.norm>
0

>  <SCORE.SYSTEM>
0

>  <SCORE.SYSTEM.CONST>
0

>  <SCORE.SYSTEM.DIHEDRAL>
0

>  <SCORE.SYSTEM.SOLV>
0

>  <SCORE.SYSTEM.norm>
0

>  <SCORE.heavy>
12

>  <SCORE.norm>
-1.3859

>  <RMSD>
0.814

$$$$
ligand
 OpenBabel11021811503D
libRbt.so/2013.1/901 2013/11/27
 12 13  0  0  0  0  0  0  0  0999 V2000
   30.9636   17.9507   14.1313 C   0  0  0  0  0  0  0  0  0  0  0  0
   29.9487   16.8731   16.0373 C   0  0  0  0  0  0  0  0  0  0  0  0
   31.2638   17.9746   12.8379 N   0  0  0  0  0  0  0  0  0  0  0  0
   31.3325   18.9793   14.9014 N   0  0  0  0  0  0  0  0  0  0  0  0
   30.2558   16.8657   14.6814 N   0  0  0  0  0  0  0  0  0  0  0  0
   29.3327   15.9177   16.5176 O   0  0  0  0  0  0  0  0  0  0  0  0
   30.5012   19.1251   18.9240 N   0  0  0  0  0  0  0  0  0  0  0  0
   31.2016   20.1691   18.2995 C   0  0  0  0  0  0  0  0  0  0  0  0
   31.4664   20.0929   16.9192 N   0  0  0  0  0  0  0  0  0  0  0  0
   31.0655   19.0170   16.2130 C   0  0  0  0  0  0  0  0  0  0  0  0
   30.3607   17.9623   16.8093 C   0  0  0  0  0  0  0  0  0  0  0  0
   30.0807   18.0053   18.1672 C   0  0  0  0  0  0  0  0  0  0  0  0
  1  3  1  0  0  0  0
  1  4  2  0  0  0  0
  1  5  1  0  0  0  0
  2  6  2  0  0  0  0
  2 11  1  0  0  0  0
  2  5  1  0  0  0  0
  4 10  1  0  0  0  0
  7  8  2  0  0  0  0
  7 12  1  0  0  0  0
  8  9  1  0  0  0  0
  9 10  2  0  0  0  0
 10 11  1  0  0  0  0
 11 12  2  0  0  0  0
M  END
>  <CHROM.1>
30.63454732,18.20862495,16.17646086,-1.58176404,1.04536716,1.17009017

>  <Name>
ligand

>  <RI>
0

>  <Rbt.Current_Directory>
/home/itssahil/PROJECTS/Mol_Feturizer/New_Systems/rnas/4LX6

>  <Rbt.Executable>
rbdock ($Id: //depot/dev/client3/rdock/2013.1/src/exe/rbdock.cxx#4 $)

>  <Rbt.Library>
libRbt.so (2013.1, Build901 2013/11/27)

>  <Rbt.Parameter_File>
/export/apps/rDock/src/rDock_2013.1_src/data/scripts/dock_solv.prm

>  <Rbt.Receptor>
prm/pocket_docking_7.prm

>  <SCORE>
-16.5692

>  <SCORE.INTER>
-16.5692

>  <SCORE.INTER.CONST>
1

>  <SCORE.INTER.POLAR>
0

>  <SCORE.INTER.ROT>
0

>  <SCORE.INTER.SOLV>
13.736

>  <SCORE.INTER.VDW>
-19.2248

>  <SCORE.INTER.norm>
-1.38077

>  <SCORE.INTRA>
0

>  <SCORE.INTRA.DIHEDRAL>
0

>  <SCORE.INTRA.DIHEDRAL.0>
0

>  <SCORE.INTRA.POLAR>
0

>  <SCORE.INTRA.POLAR.0>
0

>  <SCORE.INTRA.REPUL>
0

>  <SCORE.INTRA.REPUL.0>
0

>  <SCORE.INTRA.SOLV>
0

>  <SCORE.INTRA.SOLV.lig_0>
-28.9128

>  <SCORE.INTRA.VDW>
0

>  <SCORE.INTRA.VDW.0>
0

>  <SCORE.INTRA.norm>
0

>  <SCORE.RESTR>
0

>  <SCORE.RESTR.CAVITY>
0

>  <SCORE.RESTR.norm>
0

>  <SCORE.SYSTEM>
0

>  <SCORE.SYSTEM.CONST>
0

>  <SCORE.SYSTEM.DIHEDRAL>
0

>  <SCORE.SYSTEM.SOLV>
0

>  <SCORE.SYSTEM.norm>
0

>  <SCORE.heavy>
12

>  <SCORE.norm>
-1.38077

>  <RMSD>
0.814

$$$$
ligand
 OpenBabel11021811503D
libRbt.so/2013.1/901 2013/11/27
 12 13  0  0  0  0  0  0  0  0999 V2000
   30.9827   17.9436   14.1404 C   0  0  0  0  0  0  0  0  0  0  0  0
   29.9756   16.8591   16.0465 C   0  0  0  0  0  0  0  0  0  0  0  0
   31.2856   17.9681   12.8476 N   0  0  0  0  0  0  0  0  0  0  0  0
   31.3385   18.9780   14.9090 N   0  0  0  0  0  0  0  0  0  0  0  0
   30.2858   16.8521   14.6913 N   0  0  0  0  0  0  0  0  0  0  0  0
   29.3691   15.8980   16.5276 O   0  0  0  0  0  0  0  0  0  0  0  0
   30.4966   19.1235   18.9294 N   0  0  0  0  0  0  0  0  0  0  0  0
   31.1867   20.1738   18.3041 C   0  0  0  0  0  0  0  0  0  0  0  0
   31.4555   20.0975   16.9246 N   0  0  0  0  0  0  0  0  0  0  0  0
   31.0681   19.0156   16.2199 C   0  0  0  0  0  0  0  0  0  0  0  0
   30.3738   17.9545   16.8170 C   0  0  0  0  0  0  0  0  0  0  0  0
   30.0902   17.9974   18.1741 C   0  0  0  0  0  0  0  0  0  0  0  0
  1  3  1  0  0  0  0
  1  4  2  0  0  0  0
  1  5  1  0  0  0  0
  2  6  2  0  0  0  0
  2 11  1  0  0  0  0
  2  5  1  0  0  0  0
  4 10  1  0  0  0  0
  7  8  2  0  0  0  0
  7 12  1  0  0  0  0
  8  9  1  0  0  0  0
  9 10  2  0  0  0  0
 10 11  1  0  0  0  0
 11 12  2  0  0  0  0
M  END
>  <CHROM.1>
30.64625948,18.20244655,16.18419391,-1.56875744,1.05467871,1.15658547

>  <Name>
ligand

>  <RI>
0

>  <Rbt.Current_Directory>
/home/itssahil/PROJECTS/Mol_Feturizer/New_Systems/rnas/4LX6

>  <Rbt.Executable>
rbdock ($Id: //depot/dev/client3/rdock/2013.1/src/exe/rbdock.cxx#4 $)

>  <Rbt.Library>
libRbt.so (2013.1, Build901 2013/11/27)

>  <Rbt.Parameter_File>
/export/apps/rDock/src/rDock_2013.1_src/data/scripts/dock_solv.prm

>  <Rbt.Receptor>
prm/pocket_docking_6.prm

>  <SCORE>
-16.5788

>  <SCORE.INTER>
-16.5788

>  <SCORE.INTER.CONST>
1

>  <SCORE.INTER.POLAR>
0

>  <SCORE.INTER.ROT>
0

>  <SCORE.INTER.SOLV>
13.8176

>  <SCORE.INTER.VDW>
-19.2584

>  <SCORE.INTER.norm>
-1.38156

>  <SCORE.INTRA>
0

>  <SCORE.INTRA.DIHEDRAL>
0

>  <SCORE.INTRA.DIHEDRAL.0>
0

>  <SCORE.INTRA.POLAR>
0

>  <SCORE.INTRA.POLAR.0>
0

>  <SCORE.INTRA.REPUL>
0

>  <SCORE.INTRA.REPUL.0>
0

>  <SCORE.INTRA.SOLV>
0

>  <SCORE.INTRA.SOLV.lig_0>
-28.9128

>  <SCORE.INTRA.VDW>
0

>  <SCORE.INTRA.VDW.0>
0

>  <SCORE.INTRA.norm>
0

>  <SCORE.RESTR>
0

>  <SCORE.RESTR.CAVITY>
0

>  <SCORE.RESTR.norm>
0

>  <SCORE.SYSTEM>
0

>  <SCORE.SYSTEM.CONST>
0

>  <SCORE.SYSTEM.DIHEDRAL>
0

>  <SCORE.SYSTEM.SOLV>
0

>  <SCORE.SYSTEM.norm>
0

>  <SCORE.heavy>
12

>  <SCORE.norm>
-1.38156

>  <RMSD>
0.815

$$$$
ligand
 OpenBabel11021811503D
libRbt.so/2013.1/901 2013/11/27
 12 13  0  0  0  0  0  0  0  0999 V2000
   30.9425   18.0131   14.1446 C   0  0  0  0  0  0  0  0  0  0  0  0
   29.9631   16.8826   16.0385 C   0  0  0  0  0  0  0  0  0  0  0  0
   31.2254   18.0694   12.8484 N   0  0  0  0  0  0  0  0  0  0  0  0
   31.3118   19.0275   14.9332 N   0  0  0  0  0  0  0  0  0  0  0  0
   30.2523   16.9091   14.6789 N   0  0  0  0  0  0  0  0  0  0  0  0
   29.3625   15.9106   16.5048 O   0  0  0  0  0  0  0  0  0  0  0  0
   30.5324   19.0737   18.9685 N   0  0  0  0  0  0  0  0  0  0  0  0
   31.2146   20.1383   18.3591 C   0  0  0  0  0  0  0  0  0  0  0  0
   31.4618   20.0962   16.9741 N   0  0  0  0  0  0  0  0  0  0  0  0
   31.0618   19.0327   16.2487 C   0  0  0  0  0  0  0  0  0  0  0  0
   30.3750   17.9580   16.8298 C   0  0  0  0  0  0  0  0  0  0  0  0
   30.1125   17.9673   18.1918 C   0  0  0  0  0  0  0  0  0  0  0  0
  1  3  1  0  0  0  0
  1  4  2  0  0  0  0
  1  5  1  0  0  0  0
  2  6  2  0  0  0  0
  2 11  1  0  0  0  0
  2  5  1  0  0  0  0
  4 10  1  0  0  0  0
  7  8  2  0  0  0  0
  7 12  1  0  0  0  0
  8  9  1  0  0  0  0
  9 10  2  0  0  0  0
 10 11  1  0  0  0  0
 11 12  2  0  0  0  0
M  END
>  <CHROM.1>
30.63808490,18.22124119,16.19925544,-1.59903398,1.05914930,1.20790550

>  <Name>
ligand

>  <RI>
0

>  <Rbt.Current_Directory>
/home/itssahil/PROJECTS/Mol_Feturizer/New_Systems/rnas/4LX6

>  <Rbt.Executable>
rbdock ($Id: //depot/dev/client3/rdock/2013.1/src/exe/rbdock.cxx#4 $)

>  <Rbt.Library>
libRbt.so (2013.1, Build901 2013/11/27)

>  <Rbt.Parameter_File>
/export/apps/rDock/src/rDock_2013.1_src/data/scripts/dock_solv.prm

>  <Rbt.Receptor>
prm/pocket_docking_6.prm

>  <SCORE>
-16.6544

>  <SCORE.INTER>
-16.6544

>  <SCORE.INTER.CONST>
1

>  <SCORE.INTER.POLAR>
0

>  <SCORE.INTER.ROT>
0

>  <SCORE.INTER.SOLV>
13.6433

>  <SCORE.INTER.VDW>
-19.2507

>  <SCORE.INTER.norm>
-1.38787

>  <SCORE.INTRA>
0

>  <SCORE.INTRA.DIHEDRAL>
0

>  <SCORE.INTRA.DIHEDRAL.0>
0

>  <SCORE.INTRA.POLAR>
0

>  <SCORE.INTRA.POLAR.0>
0

>  <SCORE.INTRA.REPUL>
0

>  <SCORE.INTRA.REPUL.0>
0

>  <SCORE.INTRA.SOLV>
0

>  <SCORE.INTRA.SOLV.lig_0>
-28.9128

>  <SCORE.INTRA.VDW>
0

>  <SCORE.INTRA.VDW.0>
0

>  <SCORE.INTRA.norm>
0

>  <SCORE.RESTR>
0

>  <SCORE.RESTR.CAVITY>
0

>  <SCORE.RESTR.norm>
0

>  <SCORE.SYSTEM>
0

>  <SCORE.SYSTEM.CONST>
0

>  <SCORE.SYSTEM.DIHEDRAL>
0

>  <SCORE.SYSTEM.SOLV>
0

>  <SCORE.SYSTEM.norm>
0

>  <SCORE.heavy>
12

>  <SCORE.norm>
-1.38787

>  <RMSD>
0.818

$$$$
ligand
 OpenBabel11021811503D
libRbt.so/2013.1/901 2013/11/27
 12 13  0  0  0  0  0  0  0  0999 V2000
   30.9527   17.9554   14.1335 C   0  0  0  0  0  0  0  0  0  0  0  0
   29.9221   16.8912   16.0385 C   0  0  0  0  0  0  0  0  0  0  0  0
   31.2553   17.9750   12.8406 N   0  0  0  0  0  0  0  0  0  0  0  0
   31.3324   18.9802   14.9035 N   0  0  0  0  0  0  0  0  0  0  0  0
   30.2313   16.8793   14.6831 N   0  0  0  0  0  0  0  0  0  0  0  0
   29.2941   15.9434   16.5184 O   0  0  0  0  0  0  0  0  0  0  0  0
   30.4963   19.1385   18.9246 N   0  0  0  0  0  0  0  0  0  0  0  0
   31.2099   20.1737   18.3006 C   0  0  0  0  0  0  0  0  0  0  0  0
   31.4760   20.0936   16.9208 N   0  0  0  0  0  0  0  0  0  0  0  0
   31.0637   19.0219   16.2146 C   0  0  0  0  0  0  0  0  0  0  0  0
   30.3456   17.9760   16.8105 C   0  0  0  0  0  0  0  0  0  0  0  0
   30.0639   18.0232   18.1678 C   0  0  0  0  0  0  0  0  0  0  0  0
  1  3  1  0  0  0  0
  1  4  2  0  0  0  0
  1  5  1  0  0  0  0
  2  6  2  0  0  0  0
  2 11  1  0  0  0  0
  2  5  1  0  0  0  0
  4 10  1  0  0  0  0
  7  8  2  0  0  0  0
  7 12  1  0  0  0  0
  8  9  1  0  0  0  0
  9 10  2  0  0  0  0
 10 11  1  0  0  0  0
 11 12  2  0  0  0  0
M  END
>  <CHROM.1>
30.62334758,18.21863307,16.17789947,-1.58773228,1.03391418,1.17457213

>  <Name>
ligand

>  <RI>
0

>  <Rbt.Current_Directory>
/home/itssahil/PROJECTS/Mol_Feturizer/New_Systems/rnas/4LX6

>  <Rbt.Executable>
rbdock ($Id: //depot/dev/client3/rdock/2013.1/src/exe/rbdock.cxx#4 $)

>  <Rbt.Library>
libRbt.so (2013.1, Build901 2013/11/27)

>  <Rbt.Parameter_File>
/export/apps/rDock/src/rDock_2013.1_src/data/scripts/dock_solv.prm

>  <Rbt.Receptor>
prm/pocket_docking_4.prm

>  <SCORE>
-16.5459

>  <SCORE.INTER>
-16.5459

>  <SCORE.INTER.CONST>
1

>  <SCORE.INTER.POLAR>
0

>  <SCORE.INTER.ROT>
0

>  <SCORE.INTER.SOLV>
13.6779

>  <SCORE.INTER.VDW>
-19.1899

>  <SCORE.INTER.norm>
-1.37882

>  <SCORE.INTRA>
0

>  <SCORE.INTRA.DIHEDRAL>
0

>  <SCORE.INTRA.DIHEDRAL.0>
0

>  <SCORE.INTRA.POLAR>
0

>  <SCORE.INTRA.POLAR.0>
0

>  <SCORE.INTRA.REPUL>
0

>  <SCORE.INTRA.REPUL.0>
0

>  <SCORE.INTRA.SOLV>
0

>  <SCORE.INTRA.SOLV.lig_0>
-28.9128

>  <SCORE.INTRA.VDW>
0

>  <SCORE.INTRA.VDW.0>
0

>  <SCORE.INTRA.norm>
0

>  <SCORE.RESTR>
0

>  <SCORE.RESTR.CAVITY>
0

>  <SCORE.RESTR.norm>
0

>  <SCORE.SYSTEM>
0

>  <SCORE.SYSTEM.CONST>
0

>  <SCORE.SYSTEM.DIHEDRAL>
0

>  <SCORE.SYSTEM.SOLV>
0

>  <SCORE.SYSTEM.norm>
0

>  <SCORE.heavy>
12

>  <SCORE.norm>
-1.37882

>  <RMSD>
0.821

$$$$
ligand
 OpenBabel11021811503D
libRbt.so/2013.1/901 2013/11/27
 12 13  0  0  0  0  0  0  0  0999 V2000
   30.9460   17.9488   14.1351 C   0  0  0  0  0  0  0  0  0  0  0  0
   29.9563   16.8611   16.0487 C   0  0  0  0  0  0  0  0  0  0  0  0
   31.2364   17.9756   12.8396 N   0  0  0  0  0  0  0  0  0  0  0  0
   31.3100   18.9812   14.9025 N   0  0  0  0  0  0  0  0  0  0  0  0
   30.2534   16.8567   14.6905 N   0  0  0  0  0  0  0  0  0  0  0  0
   29.3537   15.8995   16.5335 O   0  0  0  0  0  0  0  0  0  0  0  0
   30.5070   19.1190   18.9311 N   0  0  0  0  0  0  0  0  0  0  0  0
   31.1921   20.1700   18.3014 C   0  0  0  0  0  0  0  0  0  0  0  0
   31.4474   20.0964   16.9192 N   0  0  0  0  0  0  0  0  0  0  0  0
   31.0523   19.0163   16.2160 C   0  0  0  0  0  0  0  0  0  0  0  0
   30.3629   17.9546   16.8176 C   0  0  0  0  0  0  0  0  0  0  0  0
   30.0925   17.9948   18.1774 C   0  0  0  0  0  0  0  0  0  0  0  0
  1  3  1  0  0  0  0
  1  4  2  0  0  0  0
  1  5  1  0  0  0  0
  2  6  2  0  0  0  0
  2 11  1  0  0  0  0
  2  5  1  0  0  0  0
  4 10  1  0  0  0  0
  7  8  2  0  0  0  0
  7 12  1  0  0  0  0
  8  9  1  0  0  0  0
  9 10  2  0  0  0  0
 10 11  1  0  0  0  0
 11 12  2  0  0  0  0
M  END
>  <CHROM.1>
30.62943251,18.20358905,16.18266343,-1.58748029,1.05768511,1.17497740

>  <Name>
ligand

>  <RI>
0

>  <Rbt.Current_Directory>
/home/itssahil/PROJECTS/Mol_Feturizer/New_Systems/rnas/4LX6

>  <Rbt.Executable>
rbdock ($Id: //depot/dev/client3/rdock/2013.1/src/exe/rbdock.cxx#4 $)

>  <Rbt.Library>
libRbt.so (2013.1, Build901 2013/11/27)

>  <Rbt.Parameter_File>
/export/apps/rDock/src/rDock_2013.1_src/data/scripts/dock_solv.prm

>  <Rbt.Receptor>
prm/pocket_docking_3.prm

>  <SCORE>
-16.5776

>  <SCORE.INTER>
-16.5776

>  <SCORE.INTER.CONST>
1

>  <SCORE.INTER.POLAR>
0

>  <SCORE.INTER.ROT>
0

>  <SCORE.INTER.SOLV>
13.7184

>  <SCORE.INTER.VDW>
-19.2245

>  <SCORE.INTER.norm>
-1.38147

>  <SCORE.INTRA>
0

>  <SCORE.INTRA.DIHEDRAL>
0

>  <SCORE.INTRA.DIHEDRAL.0>
0

>  <SCORE.INTRA.POLAR>
0

>  <SCORE.INTRA.POLAR.0>
0

>  <SCORE.INTRA.REPUL>
0

>  <SCORE.INTRA.REPUL.0>
0

>  <SCORE.INTRA.SOLV>
0

>  <SCORE.INTRA.SOLV.lig_0>
-28.9128

>  <SCORE.INTRA.VDW>
0

>  <SCORE.INTRA.VDW.0>
0

>  <SCORE.INTRA.norm>
0

>  <SCORE.RESTR>
0

>  <SCORE.RESTR.CAVITY>
0

>  <SCORE.RESTR.norm>
0

>  <SCORE.SYSTEM>
0

>  <SCORE.SYSTEM.CONST>
0

>  <SCORE.SYSTEM.DIHEDRAL>
0

>  <SCORE.SYSTEM.SOLV>
0

>  <SCORE.SYSTEM.norm>
0

>  <SCORE.heavy>
12

>  <SCORE.norm>
-1.38147

>  <RMSD>
0.825

$$$$
ligand
 OpenBabel11021811503D
libRbt.so/2013.1/901 2013/11/27
 12 13  0  0  0  0  0  0  0  0999 V2000
   30.8920   17.9558   14.1130 C   0  0  0  0  0  0  0  0  0  0  0  0
   29.9289   16.8624   16.0368 C   0  0  0  0  0  0  0  0  0  0  0  0
   31.1622   17.9878   12.8132 N   0  0  0  0  0  0  0  0  0  0  0  0
   31.2714   18.9835   14.8793 N   0  0  0  0  0  0  0  0  0  0  0  0
   30.2047   16.8634   14.6741 N   0  0  0  0  0  0  0  0  0  0  0  0
   29.3309   15.9004   16.5266 O   0  0  0  0  0  0  0  0  0  0  0  0
   30.5322   19.1050   18.9206 N   0  0  0  0  0  0  0  0  0  0  0  0
   31.2107   20.1567   18.2852 C   0  0  0  0  0  0  0  0  0  0  0  0
   31.4441   20.0888   16.8988 N   0  0  0  0  0  0  0  0  0  0  0  0
   31.0345   19.0132   16.1969 C   0  0  0  0  0  0  0  0  0  0  0  0
   30.3511   17.9509   16.8043 C   0  0  0  0  0  0  0  0  0  0  0  0
   30.1022   17.9856   18.1684 C   0  0  0  0  0  0  0  0  0  0  0  0
  1  3  1  0  0  0  0
  1  4  2  0  0  0  0
  1  5  1  0  0  0  0
  2  6  2  0  0  0  0
  2 11  1  0  0  0  0
  2  5  1  0  0  0  0
  4 10  1  0  0  0  0
  7  8  2  0  0  0  0
  7 12  1  0  0  0  0
  8  9  1  0  0  0  0
  9 10  2  0  0  0  0
 10 11  1  0  0  0  0
 11 12  2  0  0  0  0
M  END
>  <CHROM.1>
30.60849788,18.20203800,16.16643566,-1.61967752,1.06050715,1.20770915

>  <Name>
ligand

>  <RI>
0

>  <Rbt.Current_Directory>
/home/itssahil/PROJECTS/Mol_Feturizer/New_Systems/rnas/4LX6

>  <Rbt.Executable>
rbdock ($Id: //depot/dev/client3/rdock/2013.1/src/exe/rbdock.cxx#4 $)

>  <Rbt.Library>
libRbt.so (2013.1, Build901 2013/11/27)

>  <Rbt.Parameter_File>
/export/apps/rDock/src/rDock_2013.1_src/data/scripts/dock_solv.prm

>  <Rbt.Receptor>
prm/pocket_docking_8.prm

>  <SCORE>
-16.6222

>  <SCORE.INTER>
-16.6222

>  <SCORE.INTER.CONST>
1

>  <SCORE.INTER.POLAR>
0

>  <SCORE.INTER.ROT>
0

>  <SCORE.INTER.SOLV>
13.5603

>  <SCORE.INTER.VDW>
-19.2016

>  <SCORE.INTER.norm>
-1.38518

>  <SCORE.INTRA>
0

>  <SCORE.INTRA.DIHEDRAL>
0

>  <SCORE.INTRA.DIHEDRAL.0>
0

>  <SCORE.INTRA.POLAR>
0

>  <SCORE.INTRA.POLAR.0>
0

>  <SCORE.INTRA.REPUL>
0

>  <SCORE.INTRA.REPUL.0>
0

>  <SCORE.INTRA.SOLV>
0

>  <SCORE.INTRA.SOLV.lig_0>
-28.9128

>  <SCORE.INTRA.VDW>
0

>  <SCORE.INTRA.VDW.0>
0

>  <SCORE.INTRA.norm>
0

>  <SCORE.RESTR>
0

>  <SCORE.RESTR.CAVITY>
0

>  <SCORE.RESTR.norm>
0

>  <SCORE.SYSTEM>
0

>  <SCORE.SYSTEM.CONST>
0

>  <SCORE.SYSTEM.DIHEDRAL>
0

>  <SCORE.SYSTEM.SOLV>
0

>  <SCORE.SYSTEM.norm>
0

>  <SCORE.heavy>
12

>  <SCORE.norm>
-1.38518

>  <RMSD>
0.831

$$$$
ligand
 OpenBabel11021811503D
libRbt.so/2013.1/901 2013/11/27
 12 13  0  0  0  0  0  0  0  0999 V2000
   30.9482   17.9166   14.1506 C   0  0  0  0  0  0  0  0  0  0  0  0
   29.9356   16.8530   16.0656 C   0  0  0  0  0  0  0  0  0  0  0  0
   31.2476   17.9307   12.8569 N   0  0  0  0  0  0  0  0  0  0  0  0
   31.3164   18.9517   14.9124 N   0  0  0  0  0  0  0  0  0  0  0  0
   30.2419   16.8353   14.7096 N   0  0  0  0  0  0  0  0  0  0  0  0
   29.3209   15.9007   16.5538 O   0  0  0  0  0  0  0  0  0  0  0  0
   30.4875   19.1282   18.9342 N   0  0  0  0  0  0  0  0  0  0  0  0
   31.1864   20.1680   18.3011 C   0  0  0  0  0  0  0  0  0  0  0  0
   31.4504   20.0813   16.9213 N   0  0  0  0  0  0  0  0  0  0  0  0
   31.0502   18.9994   16.2238 C   0  0  0  0  0  0  0  0  0  0  0  0
   30.3469   17.9487   16.8288 C   0  0  0  0  0  0  0  0  0  0  0  0
   30.0677   18.0020   18.1865 C   0  0  0  0  0  0  0  0  0  0  0  0
  1  3  1  0  0  0  0
  1  4  2  0  0  0  0
  1  5  1  0  0  0  0
  2  6  2  0  0  0  0
  2 11  1  0  0  0  0
  2  5  1  0  0  0  0
  4 10  1  0  0  0  0
  7  8  2  0  0  0  0
  7 12  1  0  0  0  0
  8  9  1  0  0  0  0
  9 10  2  0  0  0  0
 10 11  1  0  0  0  0
 11 12  2  0  0  0  0
M  END
>  <CHROM.1>
30.62010235,18.19030991,16.19386445,-1.58202956,1.04660860,1.16246461

>  <Name>
ligand

>  <RI>
0

>  <Rbt.Current_Directory>
/home/itssahil/PROJECTS/Mol_Feturizer/New_Systems/rnas/4LX6

>  <Rbt.Executable>
rbdock ($Id: //depot/dev/client3/rdock/2013.1/src/exe/rbdock.cxx#4 $)

>  <Rbt.Library>
libRbt.so (2013.1, Build901 2013/11/27)

>  <Rbt.Parameter_File>
/export/apps/rDock/src/rDock_2013.1_src/data/scripts/dock_solv.prm

>  <Rbt.Receptor>
prm/pocket_docking_8.prm

>  <SCORE>
-16.5596

>  <SCORE.INTER>
-16.5596

>  <SCORE.INTER.CONST>
1

>  <SCORE.INTER.POLAR>
0

>  <SCORE.INTER.ROT>
0

>  <SCORE.INTER.SOLV>
13.7024

>  <SCORE.INTER.VDW>
-19.2072

>  <SCORE.INTER.norm>
-1.37997

>  <SCORE.INTRA>
0

>  <SCORE.INTRA.DIHEDRAL>
0

>  <SCORE.INTRA.DIHEDRAL.0>
0

>  <SCORE.INTRA.POLAR>
0

>  <SCORE.INTRA.POLAR.0>
0

>  <SCORE.INTRA.REPUL>
0

>  <SCORE.INTRA.REPUL.0>
0

>  <SCORE.INTRA.SOLV>
0

>  <SCORE.INTRA.SOLV.lig_0>
-28.9128

>  <SCORE.INTRA.VDW>
0

>  <SCORE.INTRA.VDW.0>
0

>  <SCORE.INTRA.norm>
0

>  <SCORE.RESTR>
0

>  <SCORE.RESTR.CAVITY>
0

>  <SCORE.RESTR.norm>
0

>  <SCORE.SYSTEM>
0

>  <SCORE.SYSTEM.CONST>
0

>  <SCORE.SYSTEM.DIHEDRAL>
0

>  <SCORE.SYSTEM.SOLV>
0

>  <SCORE.SYSTEM.norm>
0

>  <SCORE.heavy>
12

>  <SCORE.norm>
-1.37997

>  <RMSD>
0.836

$$$$
ligand
 OpenBabel11021811503D
libRbt.so/2013.1/901 2013/11/27
 12 13  0  0  0  0  0  0  0  0999 V2000
   30.9142   17.9393   14.1498 C   0  0  0  0  0  0  0  0  0  0  0  0
   29.9639   16.8482   16.0813 C   0  0  0  0  0  0  0  0  0  0  0  0
   31.1865   17.9641   12.8503 N   0  0  0  0  0  0  0  0  0  0  0  0
   31.2765   18.9793   14.9078 N   0  0  0  0  0  0  0  0  0  0  0  0
   30.2424   16.8415   14.7191 N   0  0  0  0  0  0  0  0  0  0  0  0
   29.3795   15.8816   16.5784 O   0  0  0  0  0  0  0  0  0  0  0  0
   30.5273   19.1248   18.9465 N   0  0  0  0  0  0  0  0  0  0  0  0
   31.1911   20.1811   18.3031 C   0  0  0  0  0  0  0  0  0  0  0  0
   31.4283   20.1047   16.9179 N   0  0  0  0  0  0  0  0  0  0  0  0
   31.0365   19.0169   16.2246 C   0  0  0  0  0  0  0  0  0  0  0  0
   30.3680   17.9497   16.8400 C   0  0  0  0  0  0  0  0  0  0  0  0
   30.1158   17.9926   18.2033 C   0  0  0  0  0  0  0  0  0  0  0  0
  1  3  1  0  0  0  0
  1  4  2  0  0  0  0
  1  5  1  0  0  0  0
  2  6  2  0  0  0  0
  2 11  1  0  0  0  0
  2  5  1  0  0  0  0
  4 10  1  0  0  0  0
  7  8  2  0  0  0  0
  7 12  1  0  0  0  0
  8  9  1  0  0  0  0
  9 10  2  0  0  0  0
 10 11  1  0  0  0  0
 11 12  2  0  0  0  0
M  END
>  <CHROM.1>
30.62283859,18.19914163,16.20046718,-1.60442635,1.07388972,1.18560712

>  <Name>
ligand

>  <RI>
0

>  <Rbt.Current_Directory>
/home/itssahil/PROJECTS/Mol_Feturizer/New_Systems/rnas/4LX6

>  <Rbt.Executable>
rbdock ($Id: //depot/dev/client3/rdock/2013.1/src/exe/rbdock.cxx#4 $)

>  <Rbt.Library>
libRbt.so (2013.1, Build901 2013/11/27)

>  <Rbt.Parameter_File>
/export/apps/rDock/src/rDock_2013.1_src/data/scripts/dock_solv.prm

>  <Rbt.Receptor>
prm/blind_docking_60.prm

>  <SCORE>
-16.5623

>  <SCORE.INTER>
-16.5623

>  <SCORE.INTER.CONST>
1

>  <SCORE.INTER.POLAR>
0

>  <SCORE.INTER.ROT>
0

>  <SCORE.INTER.SOLV>
13.6694

>  <SCORE.INTER.VDW>
-19.198

>  <SCORE.INTER.norm>
-1.38019

>  <SCORE.INTRA>
0

>  <SCORE.INTRA.DIHEDRAL>
0

>  <SCORE.INTRA.DIHEDRAL.0>
0

>  <SCORE.INTRA.POLAR>
0

>  <SCORE.INTRA.POLAR.0>
0

>  <SCORE.INTRA.REPUL>
0

>  <SCORE.INTRA.REPUL.0>
0

>  <SCORE.INTRA.SOLV>
0

>  <SCORE.INTRA.SOLV.lig_0>
-28.9128

>  <SCORE.INTRA.VDW>
0

>  <SCORE.INTRA.VDW.0>
0

>  <SCORE.INTRA.norm>
0

>  <SCORE.RESTR>
0

>  <SCORE.RESTR.CAVITY>
0

>  <SCORE.RESTR.norm>
0

>  <SCORE.SYSTEM>
0

>  <SCORE.SYSTEM.CONST>
0

>  <SCORE.SYSTEM.DIHEDRAL>
0

>  <SCORE.SYSTEM.SOLV>
0

>  <SCORE.SYSTEM.norm>
0

>  <SCORE.heavy>
12

>  <SCORE.norm>
-1.38019

>  <RMSD>
0.854

$$$$
ligand
 OpenBabel11021811503D
libRbt.so/2013.1/901 2013/11/27
 12 13  0  0  0  0  0  0  0  0999 V2000
   30.8699   17.9082   14.1676 C   0  0  0  0  0  0  0  0  0  0  0  0
   29.9189   16.8504   16.1172 C   0  0  0  0  0  0  0  0  0  0  0  0
   31.1294   17.9175   12.8653 N   0  0  0  0  0  0  0  0  0  0  0  0
   31.2591   18.9471   14.9135 N   0  0  0  0  0  0  0  0  0  0  0  0
   30.1835   16.8277   14.7524 N   0  0  0  0  0  0  0  0  0  0  0  0
   29.3216   15.8989   16.6279 O   0  0  0  0  0  0  0  0  0  0  0  0
   30.5536   19.1387   18.9581 N   0  0  0  0  0  0  0  0  0  0  0  0
   31.2304   20.1773   18.2996 C   0  0  0  0  0  0  0  0  0  0  0  0
   31.4521   20.0854   16.9127 N   0  0  0  0  0  0  0  0  0  0  0  0
   31.0331   18.9997   16.2322 C   0  0  0  0  0  0  0  0  0  0  0  0
   30.3511   17.9501   16.8629 C   0  0  0  0  0  0  0  0  0  0  0  0
   30.1135   18.0086   18.2282 C   0  0  0  0  0  0  0  0  0  0  0  0
  1  3  1  0  0  0  0
  1  4  2  0  0  0  0
  1  5  1  0  0  0  0
  2  6  2  0  0  0  0
  2 11  1  0  0  0  0
  2  5  1  0  0  0  0
  4 10  1  0  0  0  0
  7  8  2  0  0  0  0
  7 12  1  0  0  0  0
  8  9  1  0  0  0  0
  9 10  2  0  0  0  0
 10 11  1  0  0  0  0
 11 12  2  0  0  0  0
M  END
>  <CHROM.1>
30.60408961,18.18966450,16.21882156,-1.63791793,1.06015380,1.20690395

>  <Name>
ligand

>  <RI>
0

>  <Rbt.Current_Directory>
/home/itssahil/PROJECTS/Mol_Feturizer/New_Systems/rnas/4LX6

>  <Rbt.Executable>
rbdock ($Id: //depot/dev/client3/rdock/2013.1/src/exe/rbdock.cxx#4 $)

>  <Rbt.Library>
libRbt.so (2013.1, Build901 2013/11/27)

>  <Rbt.Parameter_File>
/export/apps/rDock/src/rDock_2013.1_src/data/scripts/dock_solv.prm

>  <Rbt.Receptor>
prm/blind_docking_80.prm

>  <SCORE>
-16.6019

>  <SCORE.INTER>
-16.6019

>  <SCORE.INTER.CONST>
1

>  <SCORE.INTER.POLAR>
0

>  <SCORE.INTER.ROT>
0

>  <SCORE.INTER.SOLV>
13.5285

>  <SCORE.INTER.VDW>
-19.1774

>  <SCORE.INTER.norm>
-1.38349

>  <SCORE.INTRA>
0

>  <SCORE.INTRA.DIHEDRAL>
0

>  <SCORE.INTRA.DIHEDRAL.0>
0

>  <SCORE.INTRA.POLAR>
0

>  <SCORE.INTRA.POLAR.0>
0

>  <SCORE.INTRA.REPUL>
0

>  <SCORE.INTRA.REPUL.0>
0

>  <SCORE.INTRA.SOLV>
0

>  <SCORE.INTRA.SOLV.lig_0>
-28.9128

>  <SCORE.INTRA.VDW>
0

>  <SCORE.INTRA.VDW.0>
0

>  <SCORE.INTRA.norm>
0

>  <SCORE.RESTR>
0

>  <SCORE.RESTR.CAVITY>
0

>  <SCORE.RESTR.norm>
0

>  <SCORE.SYSTEM>
0

>  <SCORE.SYSTEM.CONST>
0

>  <SCORE.SYSTEM.DIHEDRAL>
0

>  <SCORE.SYSTEM.SOLV>
0

>  <SCORE.SYSTEM.norm>
0

>  <SCORE.heavy>
12

>  <SCORE.norm>
-1.38349

>  <RMSD>
0.890

$$$$
ligand
 OpenBabel11021811503D
libRbt.so/2013.1/901 2013/11/27
 12 13  0  0  0  0  0  0  0  0999 V2000
   30.8707   17.9023   14.1717 C   0  0  0  0  0  0  0  0  0  0  0  0
   29.9115   16.8504   16.1204 C   0  0  0  0  0  0  0  0  0  0  0  0
   31.1339   17.9088   12.8701 N   0  0  0  0  0  0  0  0  0  0  0  0
   31.2605   18.9416   14.9168 N   0  0  0  0  0  0  0  0  0  0  0  0
   30.1799   16.8246   14.7564 N   0  0  0  0  0  0  0  0  0  0  0  0
   29.3104   15.9013   16.6311 O   0  0  0  0  0  0  0  0  0  0  0  0
   30.5441   19.1420   18.9591 N   0  0  0  0  0  0  0  0  0  0  0  0
   31.2254   20.1776   18.3007 C   0  0  0  0  0  0  0  0  0  0  0  0
   31.4508   20.0828   16.9146 N   0  0  0  0  0  0  0  0  0  0  0  0
   31.0309   18.9970   16.2349 C   0  0  0  0  0  0  0  0  0  0  0  0
   30.3444   17.9503   16.8654 C   0  0  0  0  0  0  0  0  0  0  0  0
   30.1032   18.0117   18.2300 C   0  0  0  0  0  0  0  0  0  0  0  0
  1  3  1  0  0  0  0
  1  4  2  0  0  0  0
  1  5  1  0  0  0  0
  2  6  2  0  0  0  0
  2 11  1  0  0  0  0
  2  5  1  0  0  0  0
  4 10  1  0  0  0  0
  7  8  2  0  0  0  0
  7 12  1  0  0  0  0
  8  9  1  0  0  0  0
  9 10  2  0  0  0  0
 10 11  1  0  0  0  0
 11 12  2  0  0  0  0
M  END
>  <CHROM.1>
30.59986439,18.18804693,16.22165348,-1.63444162,1.05675152,1.20215660

>  <Name>
ligand

>  <RI>
0

>  <Rbt.Current_Directory>
/home/itssahil/PROJECTS/Mol_Feturizer/New_Systems/rnas/4LX6

>  <Rbt.Executable>
rbdock ($Id: //depot/dev/client3/rdock/2013.1/src/exe/rbdock.cxx#4 $)

>  <Rbt.Library>
libRbt.so (2013.1, Build901 2013/11/27)

>  <Rbt.Parameter_File>
/export/apps/rDock/src/rDock_2013.1_src/data/scripts/dock_solv.prm

>  <Rbt.Receptor>
prm/blind_docking_80.prm

>  <SCORE>
-16.6039

>  <SCORE.INTER>
-16.6039

>  <SCORE.INTER.CONST>
1

>  <SCORE.INTER.POLAR>
0

>  <SCORE.INTER.ROT>
0

>  <SCORE.INTER.SOLV>
13.5257

>  <SCORE.INTER.VDW>
-19.1779

>  <SCORE.INTER.norm>
-1.38366

>  <SCORE.INTRA>
0

>  <SCORE.INTRA.DIHEDRAL>
0

>  <SCORE.INTRA.DIHEDRAL.0>
0

>  <SCORE.INTRA.POLAR>
0

>  <SCORE.INTRA.POLAR.0>
0

>  <SCORE.INTRA.REPUL>
0

>  <SCORE.INTRA.REPUL.0>
0

>  <SCORE.INTRA.SOLV>
0

>  <SCORE.INTRA.SOLV.lig_0>
-28.9128

>  <SCORE.INTRA.VDW>
0

>  <SCORE.INTRA.VDW.0>
0

>  <SCORE.INTRA.norm>
0

>  <SCORE.RESTR>
0

>  <SCORE.RESTR.CAVITY>
0

>  <SCORE.RESTR.norm>
0

>  <SCORE.SYSTEM>
0

>  <SCORE.SYSTEM.CONST>
0

>  <SCORE.SYSTEM.DIHEDRAL>
0

>  <SCORE.SYSTEM.SOLV>
0

>  <SCORE.SYSTEM.norm>
0

>  <SCORE.heavy>
12

>  <SCORE.norm>
-1.38366

>  <RMSD>
0.892

$$$$
ligand
 OpenBabel11021811503D
libRbt.so/2013.1/901 2013/11/27
 12 13  0  0  0  0  0  0  0  0999 V2000
   30.8700   17.8952   14.1826 C   0  0  0  0  0  0  0  0  0  0  0  0
   29.8957   16.8554   16.1303 C   0  0  0  0  0  0  0  0  0  0  0  0
   31.1397   17.8956   12.8823 N   0  0  0  0  0  0  0  0  0  0  0  0
   31.2616   18.9351   14.9260 N   0  0  0  0  0  0  0  0  0  0  0  0
   30.1707   16.8233   14.7678 N   0  0  0  0  0  0  0  0  0  0  0  0
   29.2870   15.9114   16.6414 O   0  0  0  0  0  0  0  0  0  0  0  0
   30.5263   19.1539   18.9639 N   0  0  0  0  0  0  0  0  0  0  0  0
   31.2164   20.1836   18.3052 C   0  0  0  0  0  0  0  0  0  0  0  0
   31.4481   20.0825   16.9206 N   0  0  0  0  0  0  0  0  0  0  0  0
   31.0258   18.9966   16.2426 C   0  0  0  0  0  0  0  0  0  0  0  0
   30.3307   17.9557   16.8735 C   0  0  0  0  0  0  0  0  0  0  0  0
   30.0831   18.0233   18.2366 C   0  0  0  0  0  0  0  0  0  0  0  0
  1  3  1  0  0  0  0
  1  4  2  0  0  0  0
  1  5  1  0  0  0  0
  2  6  2  0  0  0  0
  2 11  1  0  0  0  0
  2  5  1  0  0  0  0
  4 10  1  0  0  0  0
  7  8  2  0  0  0  0
  7 12  1  0  0  0  0
  8  9  1  0  0  0  0
  9 10  2  0  0  0  0
 10 11  1  0  0  0  0
 11 12  2  0  0  0  0
M  END
>  <CHROM.1>
30.59058408,18.18979098,16.23019051,-1.62897956,1.05003774,1.19380582

>  <Name>
ligand

>  <RI>
0

>  <Rbt.Current_Directory>
/home/itssahil/PROJECTS/Mol_Feturizer/New_Systems/rnas/4LX6

>  <Rbt.Executable>
rbdock ($Id: //depot/dev/client3/rdock/2013.1/src/exe/rbdock.cxx#4 $)

>  <Rbt.Library>
libRbt.so (2013.1, Build901 2013/11/27)

>  <Rbt.Parameter_File>
/export/apps/rDock/src/rDock_2013.1_src/data/scripts/dock_solv.prm

>  <Rbt.Receptor>
prm/blind_docking_100.prm

>  <SCORE>
-16.6034

>  <SCORE.INTER>
-16.6034

>  <SCORE.INTER.CONST>
1

>  <SCORE.INTER.POLAR>
0

>  <SCORE.INTER.ROT>
0

>  <SCORE.INTER.SOLV>
13.5118

>  <SCORE.INTER.VDW>
-19.1728

>  <SCORE.INTER.norm>
-1.38361

>  <SCORE.INTRA>
0

>  <SCORE.INTRA.DIHEDRAL>
0

>  <SCORE.INTRA.DIHEDRAL.0>
0

>  <SCORE.INTRA.POLAR>
0

>  <SCORE.INTRA.POLAR.0>
0

>  <SCORE.INTRA.REPUL>
0

>  <SCORE.INTRA.REPUL.0>
0

>  <SCORE.INTRA.SOLV>
0

>  <SCORE.INTRA.SOLV.lig_0>
-28.9128

>  <SCORE.INTRA.VDW>
0

>  <SCORE.INTRA.VDW.0>
0

>  <SCORE.INTRA.norm>
0

>  <SCORE.RESTR>
0

>  <SCORE.RESTR.CAVITY>
0

>  <SCORE.RESTR.norm>
0

>  <SCORE.SYSTEM>
0

>  <SCORE.SYSTEM.CONST>
0

>  <SCORE.SYSTEM.DIHEDRAL>
0

>  <SCORE.SYSTEM.SOLV>
0

>  <SCORE.SYSTEM.norm>
0

>  <SCORE.heavy>
12

>  <SCORE.norm>
-1.38361

>  <RMSD>
0.900

$$$$
ligand
 OpenBabel11021811503D
libRbt.so/2013.1/901 2013/11/27
 12 13  0  0  0  0  0  0  0  0999 V2000
   30.8590   17.9188   14.1763 C   0  0  0  0  0  0  0  0  0  0  0  0
   29.9023   16.8687   16.1272 C   0  0  0  0  0  0  0  0  0  0  0  0
   31.1187   17.9251   12.8740 N   0  0  0  0  0  0  0  0  0  0  0  0
   31.2535   18.9567   14.9208 N   0  0  0  0  0  0  0  0  0  0  0  0
   30.1669   16.8427   14.7625 N   0  0  0  0  0  0  0  0  0  0  0  0
   29.3001   15.9210   16.6391 O   0  0  0  0  0  0  0  0  0  0  0  0
   30.5486   19.1574   18.9651 N   0  0  0  0  0  0  0  0  0  0  0  0
   31.2309   20.1916   18.3053 C   0  0  0  0  0  0  0  0  0  0  0  0
   31.4523   20.0967   16.9185 N   0  0  0  0  0  0  0  0  0  0  0  0
   31.0277   19.0123   16.2395 C   0  0  0  0  0  0  0  0  0  0  0  0
   30.3402   17.9671   16.8715 C   0  0  0  0  0  0  0  0  0  0  0  0
   30.1028   18.0286   18.2367 C   0  0  0  0  0  0  0  0  0  0  0  0
  1  3  1  0  0  0  0
  1  4  2  0  0  0  0
  1  5  1  0  0  0  0
  2  6  2  0  0  0  0
  2 11  1  0  0  0  0
  2  5  1  0  0  0  0
  4 10  1  0  0  0  0
  7  8  2  0  0  0  0
  7 12  1  0  0  0  0
  8  9  1  0  0  0  0
  9 10  2  0  0  0  0
 10 11  1  0  0  0  0
 11 12  2  0  0  0  0
M  END
>  <CHROM.1>
30.59448742,18.20445132,16.22711857,-1.64149646,1.05525724,1.20868229

>  <Name>
ligand

>  <RI>
0

>  <Rbt.Current_Directory>
/home/itssahil/PROJECTS/Mol_Feturizer/New_Systems/rnas/4LX6

>  <Rbt.Executable>
rbdock ($Id: //depot/dev/client3/rdock/2013.1/src/exe/rbdock.cxx#4 $)

>  <Rbt.Library>
libRbt.so (2013.1, Build901 2013/11/27)

>  <Rbt.Parameter_File>
/export/apps/rDock/src/rDock_2013.1_src/data/scripts/dock_solv.prm

>  <Rbt.Receptor>
prm/blind_docking_80.prm

>  <SCORE>
-16.6437

>  <SCORE.INTER>
-16.6437

>  <SCORE.INTER.CONST>
1

>  <SCORE.INTER.POLAR>
0

>  <SCORE.INTER.ROT>
0

>  <SCORE.INTER.SOLV>
13.4859

>  <SCORE.INTER.VDW>
-19.1911

>  <SCORE.INTER.norm>
-1.38697

>  <SCORE.INTRA>
0

>  <SCORE.INTRA.DIHEDRAL>
0

>  <SCORE.INTRA.DIHEDRAL.0>
0

>  <SCORE.INTRA.POLAR>
0

>  <SCORE.INTRA.POLAR.0>
0

>  <SCORE.INTRA.REPUL>
0

>  <SCORE.INTRA.REPUL.0>
0

>  <SCORE.INTRA.SOLV>
0

>  <SCORE.INTRA.SOLV.lig_0>
-28.9128

>  <SCORE.INTRA.VDW>
0

>  <SCORE.INTRA.VDW.0>
0

>  <SCORE.INTRA.norm>
0

>  <SCORE.RESTR>
0

>  <SCORE.RESTR.CAVITY>
0

>  <SCORE.RESTR.norm>
0

>  <SCORE.SYSTEM>
0

>  <SCORE.SYSTEM.CONST>
0

>  <SCORE.SYSTEM.DIHEDRAL>
0

>  <SCORE.SYSTEM.SOLV>
0

>  <SCORE.SYSTEM.norm>
0

>  <SCORE.heavy>
12

>  <SCORE.norm>
-1.38697

>  <RMSD>
0.902

$$$$
ligand
 OpenBabel11021811503D
libRbt.so/2013.1/901 2013/11/27
 12 13  0  0  0  0  0  0  0  0999 V2000
   30.8635   17.9065   14.1955 C   0  0  0  0  0  0  0  0  0  0  0  0
   29.8931   16.8584   16.1407 C   0  0  0  0  0  0  0  0  0  0  0  0
   31.1268   17.9144   12.8939 N   0  0  0  0  0  0  0  0  0  0  0  0
   31.2642   18.9391   14.9441 N   0  0  0  0  0  0  0  0  0  0  0  0
   30.1613   16.8343   14.7767 N   0  0  0  0  0  0  0  0  0  0  0  0
   29.2819   15.9140   16.6482 O   0  0  0  0  0  0  0  0  0  0  0  0
   30.5497   19.1338   18.9870 N   0  0  0  0  0  0  0  0  0  0  0  0
   31.2421   20.1643   18.3320 C   0  0  0  0  0  0  0  0  0  0  0  0
   31.4665   20.0717   16.9456 N   0  0  0  0  0  0  0  0  0  0  0  0
   31.0352   18.9927   16.2623 C   0  0  0  0  0  0  0  0  0  0  0  0
   30.3376   17.9512   16.8893 C   0  0  0  0  0  0  0  0  0  0  0  0
   30.0970   18.0106   18.2541 C   0  0  0  0  0  0  0  0  0  0  0  0
  1  3  1  0  0  0  0
  1  4  2  0  0  0  0
  1  5  1  0  0  0  0
  2  6  2  0  0  0  0
  2 11  1  0  0  0  0
  2  5  1  0  0  0  0
  4 10  1  0  0  0  0
  7  8  2  0  0  0  0
  7 12  1  0  0  0  0
  8  9  1  0  0  0  0
  9 10  2  0  0  0  0
 10 11  1  0  0  0  0
 11 12  2  0  0  0  0
M  END
>  <CHROM.1>
30.59558971,18.18833482,16.24637938,-1.64194570,1.04684605,1.21195503

>  <Name>
ligand

>  <RI>
0

>  <Rbt.Current_Directory>
/home/itssahil/PROJECTS/Mol_Feturizer/New_Systems/rnas/4LX6

>  <Rbt.Executable>
rbdock ($Id: //depot/dev/client3/rdock/2013.1/src/exe/rbdock.cxx#4 $)

>  <Rbt.Library>
libRbt.so (2013.1, Build901 2013/11/27)

>  <Rbt.Parameter_File>
/export/apps/rDock/src/rDock_2013.1_src/data/scripts/dock_solv.prm

>  <Rbt.Receptor>
prm/pocket_docking_6.prm

>  <SCORE>
-16.5863

>  <SCORE.INTER>
-16.5863

>  <SCORE.INTER.CONST>
1

>  <SCORE.INTER.POLAR>
0

>  <SCORE.INTER.ROT>
0

>  <SCORE.INTER.SOLV>
13.4431

>  <SCORE.INTER.VDW>
-19.1386

>  <SCORE.INTER.norm>
-1.38219

>  <SCORE.INTRA>
0

>  <SCORE.INTRA.DIHEDRAL>
0

>  <SCORE.INTRA.DIHEDRAL.0>
0

>  <SCORE.INTRA.POLAR>
0

>  <SCORE.INTRA.POLAR.0>
0

>  <SCORE.INTRA.REPUL>
0

>  <SCORE.INTRA.REPUL.0>
0

>  <SCORE.INTRA.SOLV>
0

>  <SCORE.INTRA.SOLV.lig_0>
-28.9128

>  <SCORE.INTRA.VDW>
0

>  <SCORE.INTRA.VDW.0>
0

>  <SCORE.INTRA.norm>
0

>  <SCORE.RESTR>
0

>  <SCORE.RESTR.CAVITY>
0

>  <SCORE.RESTR.norm>
0

>  <SCORE.SYSTEM>
0

>  <SCORE.SYSTEM.CONST>
0

>  <SCORE.SYSTEM.DIHEDRAL>
0

>  <SCORE.SYSTEM.SOLV>
0

>  <SCORE.SYSTEM.norm>
0

>  <SCORE.heavy>
12

>  <SCORE.norm>
-1.38219

>  <RMSD>
0.906

$$$$
ligand
 OpenBabel11021811503D
libRbt.so/2013.1/901 2013/11/27
 12 13  0  0  0  0  0  0  0  0999 V2000
   30.8674   17.8828   14.2082 C   0  0  0  0  0  0  0  0  0  0  0  0
   29.8998   16.8322   16.1535 C   0  0  0  0  0  0  0  0  0  0  0  0
   31.1329   17.8901   12.9071 N   0  0  0  0  0  0  0  0  0  0  0  0
   31.2606   18.9190   14.9558 N   0  0  0  0  0  0  0  0  0  0  0  0
   30.1705   16.8074   14.7900 N   0  0  0  0  0  0  0  0  0  0  0  0
   29.2933   15.8851   16.6616 O   0  0  0  0  0  0  0  0  0  0  0  0
   30.5379   19.1162   18.9971 N   0  0  0  0  0  0  0  0  0  0  0  0
   31.2253   20.1498   18.3416 C   0  0  0  0  0  0  0  0  0  0  0  0
   31.4527   20.0561   16.9557 N   0  0  0  0  0  0  0  0  0  0  0  0
   31.0290   18.9734   16.2735 C   0  0  0  0  0  0  0  0  0  0  0  0
   30.3365   17.9288   16.9011 C   0  0  0  0  0  0  0  0  0  0  0  0
   30.0931   17.9891   18.2653 C   0  0  0  0  0  0  0  0  0  0  0  0
  1  3  1  0  0  0  0
  1  4  2  0  0  0  0
  1  5  1  0  0  0  0
  2  6  2  0  0  0  0
  2 11  1  0  0  0  0
  2  5  1  0  0  0  0
  4 10  1  0  0  0  0
  7  8  2  0  0  0  0
  7 12  1  0  0  0  0
  8  9  1  0  0  0  0
  9 10  2  0  0  0  0
 10 11  1  0  0  0  0
 11 12  2  0  0  0  0
M  END
>  <CHROM.1>
30.59419015,18.16646917,16.25817445,-1.63443585,1.05176537,1.20377016

>  <Name>
ligand

>  <RI>
0

>  <Rbt.Current_Directory>
/home/itssahil/PROJECTS/Mol_Feturizer/New_Systems/rnas/4LX6

>  <Rbt.Executable>
rbdock ($Id: //depot/dev/client3/rdock/2013.1/src/exe/rbdock.cxx#4 $)

>  <Rbt.Library>
libRbt.so (2013.1, Build901 2013/11/27)

>  <Rbt.Parameter_File>
/export/apps/rDock/src/rDock_2013.1_src/data/scripts/dock_solv.prm

>  <Rbt.Receptor>
prm/pocket_docking_8.prm

>  <SCORE>
-16.5884

>  <SCORE.INTER>
-16.5884

>  <SCORE.INTER.CONST>
1

>  <SCORE.INTER.POLAR>
0

>  <SCORE.INTER.ROT>
0

>  <SCORE.INTER.SOLV>
13.4615

>  <SCORE.INTER.VDW>
-19.1461

>  <SCORE.INTER.norm>
-1.38237

>  <SCORE.INTRA>
0

>  <SCORE.INTRA.DIHEDRAL>
0

>  <SCORE.INTRA.DIHEDRAL.0>
0

>  <SCORE.INTRA.POLAR>
0

>  <SCORE.INTRA.POLAR.0>
0

>  <SCORE.INTRA.REPUL>
0

>  <SCORE.INTRA.REPUL.0>
0

>  <SCORE.INTRA.SOLV>
0

>  <SCORE.INTRA.SOLV.lig_0>
-28.9128

>  <SCORE.INTRA.VDW>
0

>  <SCORE.INTRA.VDW.0>
0

>  <SCORE.INTRA.norm>
0

>  <SCORE.RESTR>
0

>  <SCORE.RESTR.CAVITY>
0

>  <SCORE.RESTR.norm>
0

>  <SCORE.SYSTEM>
0

>  <SCORE.SYSTEM.CONST>
0

>  <SCORE.SYSTEM.DIHEDRAL>
0

>  <SCORE.SYSTEM.SOLV>
0

>  <SCORE.SYSTEM.norm>
0

>  <SCORE.heavy>
12

>  <SCORE.norm>
-1.38237

>  <RMSD>
0.911

$$$$
ligand
 OpenBabel11021811503D
libRbt.so/2013.1/901 2013/11/27
 12 13  0  0  0  0  0  0  0  0999 V2000
   30.8335   17.8836   14.2043 C   0  0  0  0  0  0  0  0  0  0  0  0
   29.8731   16.8189   16.1455 C   0  0  0  0  0  0  0  0  0  0  0  0
   31.0918   17.9018   12.9019 N   0  0  0  0  0  0  0  0  0  0  0  0
   31.2347   18.9116   14.9590 N   0  0  0  0  0  0  0  0  0  0  0  0
   30.1360   16.8055   14.7803 N   0  0  0  0  0  0  0  0  0  0  0  0
   29.2661   15.8694   16.6484 O   0  0  0  0  0  0  0  0  0  0  0  0
   30.5356   19.0746   19.0060 N   0  0  0  0  0  0  0  0  0  0  0  0
   31.2230   20.1116   18.3560 C   0  0  0  0  0  0  0  0  0  0  0  0
   31.4423   20.0298   16.9681 N   0  0  0  0  0  0  0  0  0  0  0  0
   31.0108   18.9548   16.2785 C   0  0  0  0  0  0  0  0  0  0  0  0
   30.3180   17.9071   16.9005 C   0  0  0  0  0  0  0  0  0  0  0  0
   30.0826   17.9559   18.2666 C   0  0  0  0  0  0  0  0  0  0  0  0
  1  3  1  0  0  0  0
  1  4  2  0  0  0  0
  1  5  1  0  0  0  0
  2  6  2  0  0  0  0
  2 11  1  0  0  0  0
  2  5  1  0  0  0  0
  4 10  1  0  0  0  0
  7  8  2  0  0  0  0
  7 12  1  0  0  0  0
  8  9  1  0  0  0  0
  9 10  2  0  0  0  0
 10 11  1  0  0  0  0
 11 12  2  0  0  0  0
M  END
>  <CHROM.1>
30.57293624,18.14961958,16.25831587,-1.64764864,1.05035472,1.22430750

>  <Name>
ligand

>  <RI>
0

>  <Rbt.Current_Directory>
/home/itssahil/PROJECTS/Mol_Feturizer/New_Systems/rnas/4LX6

>  <Rbt.Executable>
rbdock ($Id: //depot/dev/client3/rdock/2013.1/src/exe/rbdock.cxx#4 $)

>  <Rbt.Library>
libRbt.so (2013.1, Build901 2013/11/27)

>  <Rbt.Parameter_File>
/export/apps/rDock/src/rDock_2013.1_src/data/scripts/dock_solv.prm

>  <Rbt.Receptor>
prm/blind_docking_100.prm

>  <SCORE>
-16.6059

>  <SCORE.INTER>
-16.6059

>  <SCORE.INTER.CONST>
1

>  <SCORE.INTER.POLAR>
0

>  <SCORE.INTER.ROT>
0

>  <SCORE.INTER.SOLV>
13.3519

>  <SCORE.INTER.VDW>
-19.1213

>  <SCORE.INTER.norm>
-1.38383

>  <SCORE.INTRA>
0

>  <SCORE.INTRA.DIHEDRAL>
0

>  <SCORE.INTRA.DIHEDRAL.0>
0

>  <SCORE.INTRA.POLAR>
0

>  <SCORE.INTRA.POLAR.0>
0

>  <SCORE.INTRA.REPUL>
0

>  <SCORE.INTRA.REPUL.0>
0

>  <SCORE.INTRA.SOLV>
0

>  <SCORE.INTRA.SOLV.lig_0>
-28.9128

>  <SCORE.INTRA.VDW>
0

>  <SCORE.INTRA.VDW.0>
0

>  <SCORE.INTRA.norm>
0

>  <SCORE.RESTR>
0

>  <SCORE.RESTR.CAVITY>
0

>  <SCORE.RESTR.norm>
0

>  <SCORE.SYSTEM>
0

>  <SCORE.SYSTEM.CONST>
0

>  <SCORE.SYSTEM.DIHEDRAL>
0

>  <SCORE.SYSTEM.SOLV>
0

>  <SCORE.SYSTEM.norm>
0

>  <SCORE.heavy>
12

>  <SCORE.norm>
-1.38383

>  <RMSD>
0.912

$$$$
ligand
 OpenBabel11021811503D
libRbt.so/2013.1/901 2013/11/27
 12 13  0  0  0  0  0  0  0  0999 V2000
   29.5461   16.1537   15.9724 C   0  0  0  0  0  0  0  0  0  0  0  0
   31.0337   17.8343   15.0855 C   0  0  0  0  0  0  0  0  0  0  0  0
   28.8313   15.0444   15.8238 N   0  0  0  0  0  0  0  0  0  0  0  0
   29.5607   16.7606   17.1635 N   0  0  0  0  0  0  0  0  0  0  0  0
   30.2883   16.6759   14.8968 N   0  0  0  0  0  0  0  0  0  0  0  0
   31.6791   18.2927   14.1387 O   0  0  0  0  0  0  0  0  0  0  0  0
   31.7092   20.1952   17.8567 N   0  0  0  0  0  0  0  0  0  0  0  0
   30.9448   19.6106   18.8786 C   0  0  0  0  0  0  0  0  0  0  0  0
   30.2241   18.4313   18.6121 N   0  0  0  0  0  0  0  0  0  0  0  0
   30.2564   17.8838   17.3806 C   0  0  0  0  0  0  0  0  0  0  0  0
   31.0144   18.4433   16.3428 C   0  0  0  0  0  0  0  0  0  0  0  0
   31.7385   19.6042   16.5708 C   0  0  0  0  0  0  0  0  0  0  0  0
  1  3  1  0  0  0  0
  1  4  2  0  0  0  0
  1  5  1  0  0  0  0
  2  6  2  0  0  0  0
  2 11  1  0  0  0  0
  2  5  1  0  0  0  0
  4 10  1  0  0  0  0
  7  8  2  0  0  0  0
  7 12  1  0  0  0  0
  8  9  1  0  0  0  0
  9 10  2  0  0  0  0
 10 11  1  0  0  0  0
 11 12  2  0  0  0  0
M  END
>  <CHROM.1>
30.56872429,17.88959267,16.51868667,2.16324429,-0.90957928,-2.03434794

>  <Name>
ligand

>  <RI>
0

>  <Rbt.Current_Directory>
/home/itssahil/PROJECTS/Mol_Feturizer/New_Systems/rnas/4LX6

>  <Rbt.Executable>
rbdock ($Id: //depot/dev/client3/rdock/2013.1/src/exe/rbdock.cxx#4 $)

>  <Rbt.Library>
libRbt.so (2013.1, Build901 2013/11/27)

>  <Rbt.Parameter_File>
/export/apps/rDock/src/rDock_2013.1_src/data/scripts/dock_solv.prm

>  <Rbt.Receptor>
prm/pocket_docking_3.prm

>  <SCORE>
-17.2702

>  <SCORE.INTER>
-17.2702

>  <SCORE.INTER.CONST>
1

>  <SCORE.INTER.POLAR>
0

>  <SCORE.INTER.ROT>
0

>  <SCORE.INTER.SOLV>
10.7708

>  <SCORE.INTER.VDW>
-18.7037

>  <SCORE.INTER.norm>
-1.43918

>  <SCORE.INTRA>
0

>  <SCORE.INTRA.DIHEDRAL>
0

>  <SCORE.INTRA.DIHEDRAL.0>
0

>  <SCORE.INTRA.POLAR>
0

>  <SCORE.INTRA.POLAR.0>
0

>  <SCORE.INTRA.REPUL>
0

>  <SCORE.INTRA.REPUL.0>
0

>  <SCORE.INTRA.SOLV>
0

>  <SCORE.INTRA.SOLV.lig_0>
-28.9128

>  <SCORE.INTRA.VDW>
0

>  <SCORE.INTRA.VDW.0>
0

>  <SCORE.INTRA.norm>
0

>  <SCORE.RESTR>
0

>  <SCORE.RESTR.CAVITY>
0

>  <SCORE.RESTR.norm>
0

>  <SCORE.SYSTEM>
0

>  <SCORE.SYSTEM.CONST>
0

>  <SCORE.SYSTEM.DIHEDRAL>
0

>  <SCORE.SYSTEM.SOLV>
0

>  <SCORE.SYSTEM.norm>
0

>  <SCORE.heavy>
12

>  <SCORE.norm>
-1.43918

>  <RMSD>
2.941

$$$$
ligand
 OpenBabel11021811503D
libRbt.so/2013.1/901 2013/11/27
 12 13  0  0  0  0  0  0  0  0999 V2000
   29.5503   16.1264   15.9772 C   0  0  0  0  0  0  0  0  0  0  0  0
   31.0147   17.8179   15.0728 C   0  0  0  0  0  0  0  0  0  0  0  0
   28.8510   15.0058   15.8402 N   0  0  0  0  0  0  0  0  0  0  0  0
   29.5561   16.7459   17.1619 N   0  0  0  0  0  0  0  0  0  0  0  0
   30.2855   16.6474   14.8962 N   0  0  0  0  0  0  0  0  0  0  0  0
   31.6540   18.2752   14.1213 O   0  0  0  0  0  0  0  0  0  0  0  0
   31.6567   20.2171   17.8190 N   0  0  0  0  0  0  0  0  0  0  0  0
   30.9001   19.6328   18.8469 C   0  0  0  0  0  0  0  0  0  0  0  0
   30.1960   18.4409   18.5927 N   0  0  0  0  0  0  0  0  0  0  0  0
   30.2362   17.8809   17.3672 C   0  0  0  0  0  0  0  0  0  0  0  0
   30.9866   18.4399   16.3236 C   0  0  0  0  0  0  0  0  0  0  0  0
   31.6945   19.6130   16.5394 C   0  0  0  0  0  0  0  0  0  0  0  0
  1  3  1  0  0  0  0
  1  4  2  0  0  0  0
  1  5  1  0  0  0  0
  2  6  2  0  0  0  0
  2 11  1  0  0  0  0
  2  5  1  0  0  0  0
  4 10  1  0  0  0  0
  7  8  2  0  0  0  0
  7 12  1  0  0  0  0
  8  9  1  0  0  0  0
  9 10  2  0  0  0  0
 10 11  1  0  0  0  0
 11 12  2  0  0  0  0
M  END
>  <CHROM.1>
30.54863748,17.88190885,16.50525402,2.15256933,-0.92180474,-2.05338418

>  <Name>
ligand

>  <RI>
0

>  <Rbt.Current_Directory>
/home/itssahil/PROJECTS/Mol_Feturizer/New_Systems/rnas/4LX6

>  <Rbt.Executable>
rbdock ($Id: //depot/dev/client3/rdock/2013.1/src/exe/rbdock.cxx#4 $)

>  <Rbt.Library>
libRbt.so (2013.1, Build901 2013/11/27)

>  <Rbt.Parameter_File>
/export/apps/rDock/src/rDock_2013.1_src/data/scripts/dock_solv.prm

>  <Rbt.Receptor>
prm/pocket_docking_6.prm

>  <SCORE>
-17.3053

>  <SCORE.INTER>
-17.3053

>  <SCORE.INTER.CONST>
1

>  <SCORE.INTER.POLAR>
0

>  <SCORE.INTER.ROT>
0

>  <SCORE.INTER.SOLV>
10.9054

>  <SCORE.INTER.VDW>
-18.772

>  <SCORE.INTER.norm>
-1.44211

>  <SCORE.INTRA>
0

>  <SCORE.INTRA.DIHEDRAL>
0

>  <SCORE.INTRA.DIHEDRAL.0>
0

>  <SCORE.INTRA.POLAR>
0

>  <SCORE.INTRA.POLAR.0>
0

>  <SCORE.INTRA.REPUL>
0

>  <SCORE.INTRA.REPUL.0>
0

>  <SCORE.INTRA.SOLV>
0

>  <SCORE.INTRA.SOLV.lig_0>
-28.9128

>  <SCORE.INTRA.VDW>
0

>  <SCORE.INTRA.VDW.0>
0

>  <SCORE.INTRA.norm>
0

>  <SCORE.RESTR>
0

>  <SCORE.RESTR.CAVITY>
0

>  <SCORE.RESTR.norm>
0

>  <SCORE.SYSTEM>
0

>  <SCORE.SYSTEM.CONST>
0

>  <SCORE.SYSTEM.DIHEDRAL>
0

>  <SCORE.SYSTEM.SOLV>
0

>  <SCORE.SYSTEM.norm>
0

>  <SCORE.heavy>
12

>  <SCORE.norm>
-1.44211

>  <RMSD>
2.942

$$$$
ligand
 OpenBabel11021811503D
libRbt.so/2013.1/901 2013/11/27
 12 13  0  0  0  0  0  0  0  0999 V2000
   29.5465   16.1237   15.9778 C   0  0  0  0  0  0  0  0  0  0  0  0
   31.0300   17.7952   15.0671 C   0  0  0  0  0  0  0  0  0  0  0  0
   28.8342   15.0109   15.8448 N   0  0  0  0  0  0  0  0  0  0  0  0
   29.5600   16.7471   17.1604 N   0  0  0  0  0  0  0  0  0  0  0  0
   30.2872   16.6326   14.8948 N   0  0  0  0  0  0  0  0  0  0  0  0
   31.6741   18.2419   14.1139 O   0  0  0  0  0  0  0  0  0  0  0  0
   31.7008   20.1960   17.8050 N   0  0  0  0  0  0  0  0  0  0  0  0
   30.9380   19.6239   18.8351 C   0  0  0  0  0  0  0  0  0  0  0  0
   30.2200   18.4394   18.5853 N   0  0  0  0  0  0  0  0  0  0  0  0
   30.2533   17.8749   17.3616 C   0  0  0  0  0  0  0  0  0  0  0  0
   31.0096   18.4216   16.3158 C   0  0  0  0  0  0  0  0  0  0  0  0
   31.7311   19.5873   16.5274 C   0  0  0  0  0  0  0  0  0  0  0  0
  1  3  1  0  0  0  0
  1  4  2  0  0  0  0
  1  5  1  0  0  0  0
  2  6  2  0  0  0  0
  2 11  1  0  0  0  0
  2  5  1  0  0  0  0
  4 10  1  0  0  0  0
  7  8  2  0  0  0  0
  7 12  1  0  0  0  0
  8  9  1  0  0  0  0
  9 10  2  0  0  0  0
 10 11  1  0  0  0  0
 11 12  2  0  0  0  0
M  END
>  <CHROM.1>
30.56530048,17.86938430,16.49954349,2.16196182,-0.91175154,-2.04928176

>  <Name>
ligand

>  <RI>
0

>  <Rbt.Current_Directory>
/home/itssahil/PROJECTS/Mol_Feturizer/New_Systems/rnas/4LX6

>  <Rbt.Executable>
rbdock ($Id: //depot/dev/client3/rdock/2013.1/src/exe/rbdock.cxx#4 $)

>  <Rbt.Library>
libRbt.so (2013.1, Build901 2013/11/27)

>  <Rbt.Parameter_File>
/export/apps/rDock/src/rDock_2013.1_src/data/scripts/dock_solv.prm

>  <Rbt.Receptor>
prm/pocket_docking_8.prm

>  <SCORE>
-17.2985

>  <SCORE.INTER>
-17.2985

>  <SCORE.INTER.CONST>
1

>  <SCORE.INTER.POLAR>
0

>  <SCORE.INTER.ROT>
0

>  <SCORE.INTER.SOLV>
10.8362

>  <SCORE.INTER.VDW>
-18.7444

>  <SCORE.INTER.norm>
-1.44154

>  <SCORE.INTRA>
0

>  <SCORE.INTRA.DIHEDRAL>
0

>  <SCORE.INTRA.DIHEDRAL.0>
0

>  <SCORE.INTRA.POLAR>
0

>  <SCORE.INTRA.POLAR.0>
0

>  <SCORE.INTRA.REPUL>
0

>  <SCORE.INTRA.REPUL.0>
0

>  <SCORE.INTRA.SOLV>
0

>  <SCORE.INTRA.SOLV.lig_0>
-28.9128

>  <SCORE.INTRA.VDW>
0

>  <SCORE.INTRA.VDW.0>
0

>  <SCORE.INTRA.norm>
0

>  <SCORE.RESTR>
0

>  <SCORE.RESTR.CAVITY>
0

>  <SCORE.RESTR.norm>
0

>  <SCORE.SYSTEM>
0

>  <SCORE.SYSTEM.CONST>
0

>  <SCORE.SYSTEM.DIHEDRAL>
0

>  <SCORE.SYSTEM.SOLV>
0

>  <SCORE.SYSTEM.norm>
0

>  <SCORE.heavy>
12

>  <SCORE.norm>
-1.44154

>  <RMSD>
2.942

$$$$
ligand
 OpenBabel11021811503D
libRbt.so/2013.1/901 2013/11/27
 12 13  0  0  0  0  0  0  0  0999 V2000
   29.5360   16.1125   15.9774 C   0  0  0  0  0  0  0  0  0  0  0  0
   31.0248   17.7783   15.0648 C   0  0  0  0  0  0  0  0  0  0  0  0
   28.8241   14.9991   15.8471 N   0  0  0  0  0  0  0  0  0  0  0  0
   29.5436   16.7427   17.1564 N   0  0  0  0  0  0  0  0  0  0  0  0
   30.2825   16.6149   14.8953 N   0  0  0  0  0  0  0  0  0  0  0  0
   31.6739   18.2192   14.1123 O   0  0  0  0  0  0  0  0  0  0  0  0
   31.6822   20.1946   17.7922 N   0  0  0  0  0  0  0  0  0  0  0  0
   30.9139   19.6287   18.8217 C   0  0  0  0  0  0  0  0  0  0  0  0
   30.1968   18.4429   18.5750 N   0  0  0  0  0  0  0  0  0  0  0  0
   30.2362   17.8714   17.3547 C   0  0  0  0  0  0  0  0  0  0  0  0
   30.9982   18.4119   16.3098 C   0  0  0  0  0  0  0  0  0  0  0  0
   31.7189   19.5785   16.5184 C   0  0  0  0  0  0  0  0  0  0  0  0
  1  3  1  0  0  0  0
  1  4  2  0  0  0  0
  1  5  1  0  0  0  0
  2  6  2  0  0  0  0
  2 11  1  0  0  0  0
  2  5  1  0  0  0  0
  4 10  1  0  0  0  0
  7  8  2  0  0  0  0
  7 12  1  0  0  0  0
  8  9  1  0  0  0  0
  9 10  2  0  0  0  0
 10 11  1  0  0  0  0
 11 12  2  0  0  0  0
M  END
>  <CHROM.1>
30.55269719,17.86080992,16.49435610,2.15473003,-0.90907481,-2.06075070

>  <Name>
ligand

>  <RI>
0

>  <Rbt.Current_Directory>
/home/itssahil/PROJECTS/Mol_Feturizer/New_Systems/rnas/4LX6

>  <Rbt.Executable>
rbdock ($Id: //depot/dev/client3/rdock/2013.1/src/exe/rbdock.cxx#4 $)

>  <Rbt.Library>
libRbt.so (2013.1, Build901 2013/11/27)

>  <Rbt.Parameter_File>
/export/apps/rDock/src/rDock_2013.1_src/data/scripts/dock_solv.prm

>  <Rbt.Receptor>
prm/blind_docking_100.prm

>  <SCORE>
-17.2865

>  <SCORE.INTER>
-17.2865

>  <SCORE.INTER.CONST>
1

>  <SCORE.INTER.POLAR>
0

>  <SCORE.INTER.ROT>
0

>  <SCORE.INTER.SOLV>
10.8156

>  <SCORE.INTER.VDW>
-18.7295

>  <SCORE.INTER.norm>
-1.44054

>  <SCORE.INTRA>
0

>  <SCORE.INTRA.DIHEDRAL>
0

>  <SCORE.INTRA.DIHEDRAL.0>
0

>  <SCORE.INTRA.POLAR>
0

>  <SCORE.INTRA.POLAR.0>
0

>  <SCORE.INTRA.REPUL>
0

>  <SCORE.INTRA.REPUL.0>
0

>  <SCORE.INTRA.SOLV>
0

>  <SCORE.INTRA.SOLV.lig_0>
-28.9128

>  <SCORE.INTRA.VDW>
0

>  <SCORE.INTRA.VDW.0>
0

>  <SCORE.INTRA.norm>
0

>  <SCORE.RESTR>
0

>  <SCORE.RESTR.CAVITY>
0

>  <SCORE.RESTR.norm>
0

>  <SCORE.SYSTEM>
0

>  <SCORE.SYSTEM.CONST>
0

>  <SCORE.SYSTEM.DIHEDRAL>
0

>  <SCORE.SYSTEM.SOLV>
0

>  <SCORE.SYSTEM.norm>
0

>  <SCORE.heavy>
12

>  <SCORE.norm>
-1.44054

>  <RMSD>
2.943

$$$$
ligand
 OpenBabel11021811503D
libRbt.so/2013.1/901 2013/11/27
 12 13  0  0  0  0  0  0  0  0999 V2000
   29.5475   16.1069   15.9811 C   0  0  0  0  0  0  0  0  0  0  0  0
   31.0174   17.7863   15.0631 C   0  0  0  0  0  0  0  0  0  0  0  0
   28.8429   14.9886   15.8524 N   0  0  0  0  0  0  0  0  0  0  0  0
   29.5586   16.7337   17.1619 N   0  0  0  0  0  0  0  0  0  0  0  0
   30.2827   16.6180   14.8953 N   0  0  0  0  0  0  0  0  0  0  0  0
   31.6567   18.2349   14.1075 O   0  0  0  0  0  0  0  0  0  0  0  0
   31.6760   20.1995   17.7930 N   0  0  0  0  0  0  0  0  0  0  0  0
   30.9191   19.6249   18.8261 C   0  0  0  0  0  0  0  0  0  0  0  0
   30.2091   18.4346   18.5809 N   0  0  0  0  0  0  0  0  0  0  0  0
   30.2442   17.8669   17.3587 C   0  0  0  0  0  0  0  0  0  0  0  0
   30.9948   18.4161   16.3101 C   0  0  0  0  0  0  0  0  0  0  0  0
   31.7083   19.5874   16.5171 C   0  0  0  0  0  0  0  0  0  0  0  0
  1  3  1  0  0  0  0
  1  4  2  0  0  0  0
  1  5  1  0  0  0  0
  2  6  2  0  0  0  0
  2 11  1  0  0  0  0
  2  5  1  0  0  0  0
  4 10  1  0  0  0  0
  7  8  2  0  0  0  0
  7 12  1  0  0  0  0
  8  9  1  0  0  0  0
  9 10  2  0  0  0  0
 10 11  1  0  0  0  0
 11 12  2  0  0  0  0
M  END
>  <CHROM.1>
30.55474095,17.86118220,16.49612395,2.15912179,-0.91887727,-2.05433123

>  <Name>
ligand

>  <RI>
0

>  <Rbt.Current_Directory>
/home/itssahil/PROJECTS/Mol_Feturizer/New_Systems/rnas/4LX6

>  <Rbt.Executable>
rbdock ($Id: //depot/dev/client3/rdock/2013.1/src/exe/rbdock.cxx#4 $)

>  <Rbt.Library>
libRbt.so (2013.1, Build901 2013/11/27)

>  <Rbt.Parameter_File>
/export/apps/rDock/src/rDock_2013.1_src/data/scripts/dock_solv.prm

>  <Rbt.Receptor>
prm/pocket_docking_3.prm

>  <SCORE>
-17.3345

>  <SCORE.INTER>
-17.3345

>  <SCORE.INTER.CONST>
1

>  <SCORE.INTER.POLAR>
0

>  <SCORE.INTER.ROT>
0

>  <SCORE.INTER.SOLV>
10.8969

>  <SCORE.INTER.VDW>
-18.7886

>  <SCORE.INTER.norm>
-1.44454

>  <SCORE.INTRA>
0

>  <SCORE.INTRA.DIHEDRAL>
0

>  <SCORE.INTRA.DIHEDRAL.0>
0

>  <SCORE.INTRA.POLAR>
0

>  <SCORE.INTRA.POLAR.0>
0

>  <SCORE.INTRA.REPUL>
0

>  <SCORE.INTRA.REPUL.0>
0

>  <SCORE.INTRA.SOLV>
0

>  <SCORE.INTRA.SOLV.lig_0>
-28.9128

>  <SCORE.INTRA.VDW>
0

>  <SCORE.INTRA.VDW.0>
0

>  <SCORE.INTRA.norm>
0

>  <SCORE.RESTR>
0

>  <SCORE.RESTR.CAVITY>
0

>  <SCORE.RESTR.norm>
0

>  <SCORE.SYSTEM>
0

>  <SCORE.SYSTEM.CONST>
0

>  <SCORE.SYSTEM.DIHEDRAL>
0

>  <SCORE.SYSTEM.SOLV>
0

>  <SCORE.SYSTEM.norm>
0

>  <SCORE.heavy>
12

>  <SCORE.norm>
-1.44454

>  <RMSD>
2.943

$$$$
ligand
 OpenBabel11021811503D
libRbt.so/2013.1/901 2013/11/27
 12 13  0  0  0  0  0  0  0  0999 V2000
   29.5635   16.1114   16.0201 C   0  0  0  0  0  0  0  0  0  0  0  0
   30.9856   17.8235   15.0872 C   0  0  0  0  0  0  0  0  0  0  0  0
   28.8761   14.9819   15.8963 N   0  0  0  0  0  0  0  0  0  0  0  0
   29.5869   16.7291   17.2055 N   0  0  0  0  0  0  0  0  0  0  0  0
   30.2682   16.6438   14.9244 N   0  0  0  0  0  0  0  0  0  0  0  0
   31.5980   18.2906   14.1230 O   0  0  0  0  0  0  0  0  0  0  0  0
   31.6555   20.2267   17.8233 N   0  0  0  0  0  0  0  0  0  0  0  0
   30.9292   19.6309   18.8662 C   0  0  0  0  0  0  0  0  0  0  0  0
   30.2354   18.4302   18.6253 N   0  0  0  0  0  0  0  0  0  0  0  0
   30.2563   17.8727   17.3981 C   0  0  0  0  0  0  0  0  0  0  0  0
   30.9765   18.4431   16.3395 C   0  0  0  0  0  0  0  0  0  0  0  0
   31.6735   19.6251   16.5421 C   0  0  0  0  0  0  0  0  0  0  0  0
  1  3  1  0  0  0  0
  1  4  2  0  0  0  0
  1  5  1  0  0  0  0
  2  6  2  0  0  0  0
  2 11  1  0  0  0  0
  2  5  1  0  0  0  0
  4 10  1  0  0  0  0
  7  8  2  0  0  0  0
  7 12  1  0  0  0  0
  8  9  1  0  0  0  0
  9 10  2  0  0  0  0
 10 11  1  0  0  0  0
 11 12  2  0  0  0  0
M  END
>  <CHROM.1>
30.54993099,17.87912049,16.52960112,2.17496405,-0.94339214,-2.03370622

>  <Name>
ligand

>  <RI>
0

>  <Rbt.Current_Directory>
/home/itssahil/PROJECTS/Mol_Feturizer/New_Systems/rnas/4LX6

>  <Rbt.Executable>
rbdock ($Id: //depot/dev/client3/rdock/2013.1/src/exe/rbdock.cxx#4 $)

>  <Rbt.Library>
libRbt.so (2013.1, Build901 2013/11/27)

>  <Rbt.Parameter_File>
/export/apps/rDock/src/rDock_2013.1_src/data/scripts/dock_solv.prm

>  <Rbt.Receptor>
prm/blind_docking_100.prm

>  <SCORE>
-17.3194

>  <SCORE.INTER>
-17.3194

>  <SCORE.INTER.CONST>
1

>  <SCORE.INTER.POLAR>
0

>  <SCORE.INTER.ROT>
0

>  <SCORE.INTER.SOLV>
10.9926

>  <SCORE.INTER.VDW>
-18.8105

>  <SCORE.INTER.norm>
-1.44329

>  <SCORE.INTRA>
0

>  <SCORE.INTRA.DIHEDRAL>
0

>  <SCORE.INTRA.DIHEDRAL.0>
0

>  <SCORE.INTRA.POLAR>
0

>  <SCORE.INTRA.POLAR.0>
0

>  <SCORE.INTRA.REPUL>
0

>  <SCORE.INTRA.REPUL.0>
0

>  <SCORE.INTRA.SOLV>
0

>  <SCORE.INTRA.SOLV.lig_0>
-28.9128

>  <SCORE.INTRA.VDW>
0

>  <SCORE.INTRA.VDW.0>
0

>  <SCORE.INTRA.norm>
0

>  <SCORE.RESTR>
0

>  <SCORE.RESTR.CAVITY>
0

>  <SCORE.RESTR.norm>
0

>  <SCORE.SYSTEM>
0

>  <SCORE.SYSTEM.CONST>
0

>  <SCORE.SYSTEM.DIHEDRAL>
0

>  <SCORE.SYSTEM.SOLV>
0

>  <SCORE.SYSTEM.norm>
0

>  <SCORE.heavy>
12

>  <SCORE.norm>
-1.44329

>  <RMSD>
2.951

$$$$
ligand
 OpenBabel11021811503D
libRbt.so/2013.1/901 2013/11/27
 12 13  0  0  0  0  0  0  0  0999 V2000
   29.5609   16.0985   16.0149 C   0  0  0  0  0  0  0  0  0  0  0  0
   31.0221   17.7774   15.0823 C   0  0  0  0  0  0  0  0  0  0  0  0
   28.8595   14.9772   15.8951 N   0  0  0  0  0  0  0  0  0  0  0  0
   29.5743   16.7318   17.1922 N   0  0  0  0  0  0  0  0  0  0  0  0
   30.2905   16.6059   14.9237 N   0  0  0  0  0  0  0  0  0  0  0  0
   31.6565   18.2227   14.1219 O   0  0  0  0  0  0  0  0  0  0  0  0
   31.6827   20.2078   17.7965 N   0  0  0  0  0  0  0  0  0  0  0  0
   30.9314   19.6366   18.8355 C   0  0  0  0  0  0  0  0  0  0  0  0
   30.2244   18.4427   18.5994 N   0  0  0  0  0  0  0  0  0  0  0  0
   30.2569   17.8683   17.3802 C   0  0  0  0  0  0  0  0  0  0  0  0
   31.0020   18.4140   16.3259 C   0  0  0  0  0  0  0  0  0  0  0  0
   31.7125   19.5888   16.5239 C   0  0  0  0  0  0  0  0  0  0  0  0
  1  3  1  0  0  0  0
  1  4  2  0  0  0  0
  1  5  1  0  0  0  0
  2  6  2  0  0  0  0
  2 11  1  0  0  0  0
  2  5  1  0  0  0  0
  4 10  1  0  0  0  0
  7  8  2  0  0  0  0
  7 12  1  0  0  0  0
  8  9  1  0  0  0  0
  9 10  2  0  0  0  0
 10 11  1  0  0  0  0
 11 12  2  0  0  0  0
M  END
>  <CHROM.1>
30.56436479,17.85880863,16.51661172,2.16192604,-0.92338699,-2.05765730

>  <Name>
ligand

>  <RI>
0

>  <Rbt.Current_Directory>
/home/itssahil/PROJECTS/Mol_Feturizer/New_Systems/rnas/4LX6

>  <Rbt.Executable>
rbdock ($Id: //depot/dev/client3/rdock/2013.1/src/exe/rbdock.cxx#4 $)

>  <Rbt.Library>
libRbt.so (2013.1, Build901 2013/11/27)

>  <Rbt.Parameter_File>
/export/apps/rDock/src/rDock_2013.1_src/data/scripts/dock_solv.prm

>  <Rbt.Receptor>
prm/blind_docking_100.prm

>  <SCORE>
-17.3125

>  <SCORE.INTER>
-17.3125

>  <SCORE.INTER.CONST>
1

>  <SCORE.INTER.POLAR>
0

>  <SCORE.INTER.ROT>
0

>  <SCORE.INTER.SOLV>
10.9598

>  <SCORE.INTER.VDW>
-18.795

>  <SCORE.INTER.norm>
-1.44271

>  <SCORE.INTRA>
0

>  <SCORE.INTRA.DIHEDRAL>
0

>  <SCORE.INTRA.DIHEDRAL.0>
0

>  <SCORE.INTRA.POLAR>
0

>  <SCORE.INTRA.POLAR.0>
0

>  <SCORE.INTRA.REPUL>
0

>  <SCORE.INTRA.REPUL.0>
0

>  <SCORE.INTRA.SOLV>
0

>  <SCORE.INTRA.SOLV.lig_0>
-28.9128

>  <SCORE.INTRA.VDW>
0

>  <SCORE.INTRA.VDW.0>
0

>  <SCORE.INTRA.norm>
0

>  <SCORE.RESTR>
0

>  <SCORE.RESTR.CAVITY>
0

>  <SCORE.RESTR.norm>
0

>  <SCORE.SYSTEM>
0

>  <SCORE.SYSTEM.CONST>
0

>  <SCORE.SYSTEM.DIHEDRAL>
0

>  <SCORE.SYSTEM.SOLV>
0

>  <SCORE.SYSTEM.norm>
0

>  <SCORE.heavy>
12

>  <SCORE.norm>
-1.44271

>  <RMSD>
2.951

$$$$
ligand
 OpenBabel11021811503D
libRbt.so/2013.1/901 2013/11/27
 12 13  0  0  0  0  0  0  0  0999 V2000
   29.5677   16.1029   16.0300 C   0  0  0  0  0  0  0  0  0  0  0  0
   30.9631   17.8201   15.0667 C   0  0  0  0  0  0  0  0  0  0  0  0
   28.8875   14.9675   15.9227 N   0  0  0  0  0  0  0  0  0  0  0  0
   29.6030   16.7281   17.2111 N   0  0  0  0  0  0  0  0  0  0  0  0
   30.2527   16.6339   14.9212 N   0  0  0  0  0  0  0  0  0  0  0  0
   31.5582   18.2860   14.0910 O   0  0  0  0  0  0  0  0  0  0  0  0
   31.6529   20.2452   17.7783 N   0  0  0  0  0  0  0  0  0  0  0  0
   30.9460   19.6502   18.8351 C   0  0  0  0  0  0  0  0  0  0  0  0
   30.2583   18.4428   18.6112 N   0  0  0  0  0  0  0  0  0  0  0  0
   30.2662   17.8780   17.3873 C   0  0  0  0  0  0  0  0  0  0  0  0
   30.9669   18.4473   16.3152 C   0  0  0  0  0  0  0  0  0  0  0  0
   31.6574   19.6359   16.5007 C   0  0  0  0  0  0  0  0  0  0  0  0
  1  3  1  0  0  0  0
  1  4  2  0  0  0  0
  1  5  1  0  0  0  0
  2  6  2  0  0  0  0
  2 11  1  0  0  0  0
  2  5  1  0  0  0  0
  4 10  1  0  0  0  0
  7  8  2  0  0  0  0
  7 12  1  0  0  0  0
  8  9  1  0  0  0  0
  9 10  2  0  0  0  0
 10 11  1  0  0  0  0
 11 12  2  0  0  0  0
M  END
>  <CHROM.1>
30.54745830,17.88127395,16.51469901,2.19085799,-0.95659470,-2.02688241

>  <Name>
ligand

>  <RI>
0

>  <Rbt.Current_Directory>
/home/itssahil/PROJECTS/Mol_Feturizer/New_Systems/rnas/4LX6

>  <Rbt.Executable>
rbdock ($Id: //depot/dev/client3/rdock/2013.1/src/exe/rbdock.cxx#4 $)

>  <Rbt.Library>
libRbt.so (2013.1, Build901 2013/11/27)

>  <Rbt.Parameter_File>
/export/apps/rDock/src/rDock_2013.1_src/data/scripts/dock_solv.prm

>  <Rbt.Receptor>
prm/pocket_docking_3.prm

>  <SCORE>
-17.2835

>  <SCORE.INTER>
-17.2835

>  <SCORE.INTER.CONST>
1

>  <SCORE.INTER.POLAR>
0

>  <SCORE.INTER.ROT>
0

>  <SCORE.INTER.SOLV>
11.0459

>  <SCORE.INTER.VDW>
-18.8043

>  <SCORE.INTER.norm>
-1.44029

>  <SCORE.INTRA>
0

>  <SCORE.INTRA.DIHEDRAL>
0

>  <SCORE.INTRA.DIHEDRAL.0>
0

>  <SCORE.INTRA.POLAR>
0

>  <SCORE.INTRA.POLAR.0>
0

>  <SCORE.INTRA.REPUL>
0

>  <SCORE.INTRA.REPUL.0>
0

>  <SCORE.INTRA.SOLV>
0

>  <SCORE.INTRA.SOLV.lig_0>
-28.9128

>  <SCORE.INTRA.VDW>
0

>  <SCORE.INTRA.VDW.0>
0

>  <SCORE.INTRA.norm>
0

>  <SCORE.RESTR>
0

>  <SCORE.RESTR.CAVITY>
0

>  <SCORE.RESTR.norm>
0

>  <SCORE.SYSTEM>
0

>  <SCORE.SYSTEM.CONST>
0

>  <SCORE.SYSTEM.DIHEDRAL>
0

>  <SCORE.SYSTEM.SOLV>
0

>  <SCORE.SYSTEM.norm>
0

>  <SCORE.heavy>
12

>  <SCORE.norm>
-1.44029

>  <RMSD>
2.951

$$$$
ligand
 OpenBabel11021811503D
libRbt.so/2013.1/901 2013/11/27
 12 13  0  0  0  0  0  0  0  0999 V2000
   29.5632   16.1104   16.0196 C   0  0  0  0  0  0  0  0  0  0  0  0
   30.9868   17.8216   15.0874 C   0  0  0  0  0  0  0  0  0  0  0  0
   28.8764   14.9806   15.8957 N   0  0  0  0  0  0  0  0  0  0  0  0
   29.5839   16.7297   17.2042 N   0  0  0  0  0  0  0  0  0  0  0  0
   30.2700   16.6415   14.9246 N   0  0  0  0  0  0  0  0  0  0  0  0
   31.6011   18.2876   14.1238 O   0  0  0  0  0  0  0  0  0  0  0  0
   31.6504   20.2285   17.8217 N   0  0  0  0  0  0  0  0  0  0  0  0
   30.9220   19.6339   18.8639 C   0  0  0  0  0  0  0  0  0  0  0  0
   30.2290   18.4327   18.6231 N   0  0  0  0  0  0  0  0  0  0  0  0
   30.2527   17.8737   17.3966 C   0  0  0  0  0  0  0  0  0  0  0  0
   30.9750   18.4428   16.3388 C   0  0  0  0  0  0  0  0  0  0  0  0
   31.6712   19.6253   16.5413 C   0  0  0  0  0  0  0  0  0  0  0  0
  1  3  1  0  0  0  0
  1  4  2  0  0  0  0
  1  5  1  0  0  0  0
  2  6  2  0  0  0  0
  2 11  1  0  0  0  0
  2  5  1  0  0  0  0
  4 10  1  0  0  0  0
  7  8  2  0  0  0  0
  7 12  1  0  0  0  0
  8  9  1  0  0  0  0
  9 10  2  0  0  0  0
 10 11  1  0  0  0  0
 11 12  2  0  0  0  0
M  END
>  <CHROM.1>
30.54811525,17.87899843,16.52878242,2.17157772,-0.94266562,-2.03775944

>  <Name>
ligand

>  <RI>
0

>  <Rbt.Current_Directory>
/home/itssahil/PROJECTS/Mol_Feturizer/New_Systems/rnas/4LX6

>  <Rbt.Executable>
rbdock ($Id: //depot/dev/client3/rdock/2013.1/src/exe/rbdock.cxx#4 $)

>  <Rbt.Library>
libRbt.so (2013.1, Build901 2013/11/27)

>  <Rbt.Parameter_File>
/export/apps/rDock/src/rDock_2013.1_src/data/scripts/dock_solv.prm

>  <Rbt.Receptor>
prm/pocket_docking_4.prm

>  <SCORE>
-17.318

>  <SCORE.INTER>
-17.318

>  <SCORE.INTER.CONST>
1

>  <SCORE.INTER.POLAR>
0

>  <SCORE.INTER.ROT>
0

>  <SCORE.INTER.SOLV>
10.9975

>  <SCORE.INTER.VDW>
-18.8111

>  <SCORE.INTER.norm>
-1.44316

>  <SCORE.INTRA>
0

>  <SCORE.INTRA.DIHEDRAL>
0

>  <SCORE.INTRA.DIHEDRAL.0>
0

>  <SCORE.INTRA.POLAR>
0

>  <SCORE.INTRA.POLAR.0>
0

>  <SCORE.INTRA.REPUL>
0

>  <SCORE.INTRA.REPUL.0>
0

>  <SCORE.INTRA.SOLV>
0

>  <SCORE.INTRA.SOLV.lig_0>
-28.9128

>  <SCORE.INTRA.VDW>
0

>  <SCORE.INTRA.VDW.0>
0

>  <SCORE.INTRA.norm>
0

>  <SCORE.RESTR>
0

>  <SCORE.RESTR.CAVITY>
0

>  <SCORE.RESTR.norm>
0

>  <SCORE.SYSTEM>
0

>  <SCORE.SYSTEM.CONST>
0

>  <SCORE.SYSTEM.DIHEDRAL>
0

>  <SCORE.SYSTEM.SOLV>
0

>  <SCORE.SYSTEM.norm>
0

>  <SCORE.heavy>
12

>  <SCORE.norm>
-1.44316

>  <RMSD>
2.951

$$$$
ligand
 OpenBabel11021811503D
libRbt.so/2013.1/901 2013/11/27
 12 13  0  0  0  0  0  0  0  0999 V2000
   29.5599   16.0996   16.0143 C   0  0  0  0  0  0  0  0  0  0  0  0
   30.9767   17.8161   15.0816 C   0  0  0  0  0  0  0  0  0  0  0  0
   28.8766   14.9676   15.8905 N   0  0  0  0  0  0  0  0  0  0  0  0
   29.5802   16.7180   17.1994 N   0  0  0  0  0  0  0  0  0  0  0  0
   30.2636   16.6338   14.9189 N   0  0  0  0  0  0  0  0  0  0  0  0
   31.5882   18.2848   14.1175 O   0  0  0  0  0  0  0  0  0  0  0  0
   31.6359   20.2232   17.8167 N   0  0  0  0  0  0  0  0  0  0  0  0
   30.9109   19.6254   18.8595 C   0  0  0  0  0  0  0  0  0  0  0  0
   30.2215   18.4222   18.6186 N   0  0  0  0  0  0  0  0  0  0  0  0
   30.2454   17.8641   17.3918 C   0  0  0  0  0  0  0  0  0  0  0  0
   30.9645   18.4364   16.3335 C   0  0  0  0  0  0  0  0  0  0  0  0
   31.6571   19.6210   16.5359 C   0  0  0  0  0  0  0  0  0  0  0  0
  1  3  1  0  0  0  0
  1  4  2  0  0  0  0
  1  5  1  0  0  0  0
  2  6  2  0  0  0  0
  2 11  1  0  0  0  0
  2  5  1  0  0  0  0
  4 10  1  0  0  0  0
  7  8  2  0  0  0  0
  7 12  1  0  0  0  0
  8  9  1  0  0  0  0
  9 10  2  0  0  0  0
 10 11  1  0  0  0  0
 11 12  2  0  0  0  0
M  END
>  <CHROM.1>
30.53969728,17.87102051,16.52355447,2.17104187,-0.94618275,-2.03746217

>  <Name>
ligand

>  <RI>
0

>  <Rbt.Current_Directory>
/home/itssahil/PROJECTS/Mol_Feturizer/New_Systems/rnas/4LX6

>  <Rbt.Executable>
rbdock ($Id: //depot/dev/client3/rdock/2013.1/src/exe/rbdock.cxx#4 $)

>  <Rbt.Library>
libRbt.so (2013.1, Build901 2013/11/27)

>  <Rbt.Parameter_File>
/export/apps/rDock/src/rDock_2013.1_src/data/scripts/dock_solv.prm

>  <Rbt.Receptor>
prm/pocket_docking_4.prm

>  <SCORE>
-17.3173

>  <SCORE.INTER>
-17.3173

>  <SCORE.INTER.CONST>
1

>  <SCORE.INTER.POLAR>
0

>  <SCORE.INTER.ROT>
0

>  <SCORE.INTER.SOLV>
11.0133

>  <SCORE.INTER.VDW>
-18.816

>  <SCORE.INTER.norm>
-1.44311

>  <SCORE.INTRA>
0

>  <SCORE.INTRA.DIHEDRAL>
0

>  <SCORE.INTRA.DIHEDRAL.0>
0

>  <SCORE.INTRA.POLAR>
0

>  <SCORE.INTRA.POLAR.0>
0

>  <SCORE.INTRA.REPUL>
0

>  <SCORE.INTRA.REPUL.0>
0

>  <SCORE.INTRA.SOLV>
0

>  <SCORE.INTRA.SOLV.lig_0>
-28.9128

>  <SCORE.INTRA.VDW>
0

>  <SCORE.INTRA.VDW.0>
0

>  <SCORE.INTRA.norm>
0

>  <SCORE.RESTR>
0

>  <SCORE.RESTR.CAVITY>
0

>  <SCORE.RESTR.norm>
0

>  <SCORE.SYSTEM>
0

>  <SCORE.SYSTEM.CONST>
0

>  <SCORE.SYSTEM.DIHEDRAL>
0

>  <SCORE.SYSTEM.SOLV>
0

>  <SCORE.SYSTEM.norm>
0

>  <SCORE.heavy>
12

>  <SCORE.norm>
-1.44311

>  <RMSD>
2.951

$$$$
ligand
 OpenBabel11021811503D
libRbt.so/2013.1/901 2013/11/27
 12 13  0  0  0  0  0  0  0  0999 V2000
   29.5632   16.1124   16.0189 C   0  0  0  0  0  0  0  0  0  0  0  0
   30.9888   17.8238   15.0900 C   0  0  0  0  0  0  0  0  0  0  0  0
   28.8767   14.9826   15.8935 N   0  0  0  0  0  0  0  0  0  0  0  0
   29.5816   16.7314   17.2037 N   0  0  0  0  0  0  0  0  0  0  0  0
   30.2724   16.6436   14.9256 N   0  0  0  0  0  0  0  0  0  0  0  0
   31.6051   18.2899   14.1278 O   0  0  0  0  0  0  0  0  0  0  0  0
   31.6467   20.2302   17.8261 N   0  0  0  0  0  0  0  0  0  0  0  0
   30.9162   19.6354   18.8667 C   0  0  0  0  0  0  0  0  0  0  0  0
   30.2237   18.4342   18.6242 N   0  0  0  0  0  0  0  0  0  0  0  0
   30.2499   17.8754   17.3978 C   0  0  0  0  0  0  0  0  0  0  0  0
   30.9744   18.4447   16.3416 C   0  0  0  0  0  0  0  0  0  0  0  0
   31.6702   19.6272   16.5457 C   0  0  0  0  0  0  0  0  0  0  0  0
  1  3  1  0  0  0  0
  1  4  2  0  0  0  0
  1  5  1  0  0  0  0
  2  6  2  0  0  0  0
  2 11  1  0  0  0  0
  2  5  1  0  0  0  0
  4 10  1  0  0  0  0
  7  8  2  0  0  0  0
  7 12  1  0  0  0  0
  8  9  1  0  0  0  0
  9 10  2  0  0  0  0
 10 11  1  0  0  0  0
 11 12  2  0  0  0  0
M  END
>  <CHROM.1>
30.54712398,17.88088942,16.53051187,2.16843116,-0.94174940,-2.04012098

>  <Name>
ligand

>  <RI>
0

>  <Rbt.Current_Directory>
/home/itssahil/PROJECTS/Mol_Feturizer/New_Systems/rnas/4LX6

>  <Rbt.Executable>
rbdock ($Id: //depot/dev/client3/rdock/2013.1/src/exe/rbdock.cxx#4 $)

>  <Rbt.Library>
libRbt.so (2013.1, Build901 2013/11/27)

>  <Rbt.Parameter_File>
/export/apps/rDock/src/rDock_2013.1_src/data/scripts/dock_solv.prm

>  <Rbt.Receptor>
prm/pocket_docking_4.prm

>  <SCORE>
-17.3165

>  <SCORE.INTER>
-17.3165

>  <SCORE.INTER.CONST>
1

>  <SCORE.INTER.POLAR>
0

>  <SCORE.INTER.ROT>
0

>  <SCORE.INTER.SOLV>
10.9985

>  <SCORE.INTER.VDW>
-18.8105

>  <SCORE.INTER.norm>
-1.44304

>  <SCORE.INTRA>
0

>  <SCORE.INTRA.DIHEDRAL>
0

>  <SCORE.INTRA.DIHEDRAL.0>
0

>  <SCORE.INTRA.POLAR>
0

>  <SCORE.INTRA.POLAR.0>
0

>  <SCORE.INTRA.REPUL>
0

>  <SCORE.INTRA.REPUL.0>
0

>  <SCORE.INTRA.SOLV>
0

>  <SCORE.INTRA.SOLV.lig_0>
-28.9128

>  <SCORE.INTRA.VDW>
0

>  <SCORE.INTRA.VDW.0>
0

>  <SCORE.INTRA.norm>
0

>  <SCORE.RESTR>
0

>  <SCORE.RESTR.CAVITY>
0

>  <SCORE.RESTR.norm>
0

>  <SCORE.SYSTEM>
0

>  <SCORE.SYSTEM.CONST>
0

>  <SCORE.SYSTEM.DIHEDRAL>
0

>  <SCORE.SYSTEM.SOLV>
0

>  <SCORE.SYSTEM.norm>
0

>  <SCORE.heavy>
12

>  <SCORE.norm>
-1.44304

>  <RMSD>
2.951

$$$$
ligand
 OpenBabel11021811503D
libRbt.so/2013.1/901 2013/11/27
 12 13  0  0  0  0  0  0  0  0999 V2000
   29.5629   16.1070   16.0194 C   0  0  0  0  0  0  0  0  0  0  0  0
   30.9814   17.8222   15.0867 C   0  0  0  0  0  0  0  0  0  0  0  0
   28.8773   14.9766   15.8952 N   0  0  0  0  0  0  0  0  0  0  0  0
   29.5865   16.7238   17.2053 N   0  0  0  0  0  0  0  0  0  0  0  0
   30.2657   16.6415   14.9235 N   0  0  0  0  0  0  0  0  0  0  0  0
   31.5922   18.2912   14.1223 O   0  0  0  0  0  0  0  0  0  0  0  0
   31.6500   20.2241   17.8242 N   0  0  0  0  0  0  0  0  0  0  0  0
   30.9256   19.6262   18.8673 C   0  0  0  0  0  0  0  0  0  0  0  0
   30.2335   18.4246   18.6259 N   0  0  0  0  0  0  0  0  0  0  0  0
   30.2543   17.8682   17.3982 C   0  0  0  0  0  0  0  0  0  0  0  0
   30.9725   18.4407   16.3395 C   0  0  0  0  0  0  0  0  0  0  0  0
   31.6678   19.6237   16.5425 C   0  0  0  0  0  0  0  0  0  0  0  0
  1  3  1  0  0  0  0
  1  4  2  0  0  0  0
  1  5  1  0  0  0  0
  2  6  2  0  0  0  0
  2 11  1  0  0  0  0
  2  5  1  0  0  0  0
  4 10  1  0  0  0  0
  7  8  2  0  0  0  0
  7 12  1  0  0  0  0
  8  9  1  0  0  0  0
  9 10  2  0  0  0  0
 10 11  1  0  0  0  0
 11 12  2  0  0  0  0
M  END
>  <CHROM.1>
30.54702223,17.87589417,16.52950516,2.17515494,-0.94524642,-2.03267411

>  <Name>
ligand

>  <RI>
0

>  <Rbt.Current_Directory>
/home/itssahil/PROJECTS/Mol_Feturizer/New_Systems/rnas/4LX6

>  <Rbt.Executable>
rbdock ($Id: //depot/dev/client3/rdock/2013.1/src/exe/rbdock.cxx#4 $)

>  <Rbt.Library>
libRbt.so (2013.1, Build901 2013/11/27)

>  <Rbt.Parameter_File>
/export/apps/rDock/src/rDock_2013.1_src/data/scripts/dock_solv.prm

>  <Rbt.Receptor>
prm/pocket_docking_4.prm

>  <SCORE>
-17.32

>  <SCORE.INTER>
-17.32

>  <SCORE.INTER.CONST>
1

>  <SCORE.INTER.POLAR>
0

>  <SCORE.INTER.ROT>
0

>  <SCORE.INTER.SOLV>
11.0017

>  <SCORE.INTER.VDW>
-18.8139

>  <SCORE.INTER.norm>
-1.44333

>  <SCORE.INTRA>
0

>  <SCORE.INTRA.DIHEDRAL>
0

>  <SCORE.INTRA.DIHEDRAL.0>
0

>  <SCORE.INTRA.POLAR>
0

>  <SCORE.INTRA.POLAR.0>
0

>  <SCORE.INTRA.REPUL>
0

>  <SCORE.INTRA.REPUL.0>
0

>  <SCORE.INTRA.SOLV>
0

>  <SCORE.INTRA.SOLV.lig_0>
-28.9128

>  <SCORE.INTRA.VDW>
0

>  <SCORE.INTRA.VDW.0>
0

>  <SCORE.INTRA.norm>
0

>  <SCORE.RESTR>
0

>  <SCORE.RESTR.CAVITY>
0

>  <SCORE.RESTR.norm>
0

>  <SCORE.SYSTEM>
0

>  <SCORE.SYSTEM.CONST>
0

>  <SCORE.SYSTEM.DIHEDRAL>
0

>  <SCORE.SYSTEM.SOLV>
0

>  <SCORE.SYSTEM.norm>
0

>  <SCORE.heavy>
12

>  <SCORE.norm>
-1.44333

>  <RMSD>
2.951

$$$$
ligand
 OpenBabel11021811503D
libRbt.so/2013.1/901 2013/11/27
 12 13  0  0  0  0  0  0  0  0999 V2000
   29.5618   16.1041   16.0161 C   0  0  0  0  0  0  0  0  0  0  0  0
   30.9808   17.8212   15.0876 C   0  0  0  0  0  0  0  0  0  0  0  0
   28.8791   14.9721   15.8902 N   0  0  0  0  0  0  0  0  0  0  0  0
   29.5790   16.7222   17.2014 N   0  0  0  0  0  0  0  0  0  0  0  0
   30.2682   16.6388   14.9226 N   0  0  0  0  0  0  0  0  0  0  0  0
   31.5947   18.2904   14.1253 O   0  0  0  0  0  0  0  0  0  0  0  0
   31.6326   20.2274   17.8254 N   0  0  0  0  0  0  0  0  0  0  0  0
   30.9050   19.6291   18.8660 C   0  0  0  0  0  0  0  0  0  0  0  0
   30.2164   18.4259   18.6230 N   0  0  0  0  0  0  0  0  0  0  0  0
   30.2436   17.8682   17.3960 C   0  0  0  0  0  0  0  0  0  0  0  0
   30.9652   18.4410   16.3397 C   0  0  0  0  0  0  0  0  0  0  0  0
   31.6571   19.6257   16.5444 C   0  0  0  0  0  0  0  0  0  0  0  0
  1  3  1  0  0  0  0
  1  4  2  0  0  0  0
  1  5  1  0  0  0  0
  2  6  2  0  0  0  0
  2 11  1  0  0  0  0
  2  5  1  0  0  0  0
  4 10  1  0  0  0  0
  7  8  2  0  0  0  0
  7 12  1  0  0  0  0
  8  9  1  0  0  0  0
  9 10  2  0  0  0  0
 10 11  1  0  0  0  0
 11 12  2  0  0  0  0
M  END
>  <CHROM.1>
30.54004916,17.87553305,16.52850807,2.16700174,-0.94516807,-2.04037065

>  <Name>
ligand

>  <RI>
0

>  <Rbt.Current_Directory>
/home/itssahil/PROJECTS/Mol_Feturizer/New_Systems/rnas/4LX6

>  <Rbt.Executable>
rbdock ($Id: //depot/dev/client3/rdock/2013.1/src/exe/rbdock.cxx#4 $)

>  <Rbt.Library>
libRbt.so (2013.1, Build901 2013/11/27)

>  <Rbt.Parameter_File>
/export/apps/rDock/src/rDock_2013.1_src/data/scripts/dock_solv.prm

>  <Rbt.Receptor>
prm/pocket_docking_4.prm

>  <SCORE>
-17.3156

>  <SCORE.INTER>
-17.3156

>  <SCORE.INTER.CONST>
1

>  <SCORE.INTER.POLAR>
0

>  <SCORE.INTER.ROT>
0

>  <SCORE.INTER.SOLV>
11.0187

>  <SCORE.INTER.VDW>
-18.8167

>  <SCORE.INTER.norm>
-1.44297

>  <SCORE.INTRA>
0

>  <SCORE.INTRA.DIHEDRAL>
0

>  <SCORE.INTRA.DIHEDRAL.0>
0

>  <SCORE.INTRA.POLAR>
0

>  <SCORE.INTRA.POLAR.0>
0

>  <SCORE.INTRA.REPUL>
0

>  <SCORE.INTRA.REPUL.0>
0

>  <SCORE.INTRA.SOLV>
0

>  <SCORE.INTRA.SOLV.lig_0>
-28.9128

>  <SCORE.INTRA.VDW>
0

>  <SCORE.INTRA.VDW.0>
0

>  <SCORE.INTRA.norm>
0

>  <SCORE.RESTR>
0

>  <SCORE.RESTR.CAVITY>
0

>  <SCORE.RESTR.norm>
0

>  <SCORE.SYSTEM>
0

>  <SCORE.SYSTEM.CONST>
0

>  <SCORE.SYSTEM.DIHEDRAL>
0

>  <SCORE.SYSTEM.SOLV>
0

>  <SCORE.SYSTEM.norm>
0

>  <SCORE.heavy>
12

>  <SCORE.norm>
-1.44297

>  <RMSD>
2.951

$$$$
ligand
 OpenBabel11021811503D
libRbt.so/2013.1/901 2013/11/27
 12 13  0  0  0  0  0  0  0  0999 V2000
   29.5623   16.1086   16.0164 C   0  0  0  0  0  0  0  0  0  0  0  0
   30.9850   17.8236   15.0895 C   0  0  0  0  0  0  0  0  0  0  0  0
   28.8772   14.9782   15.8894 N   0  0  0  0  0  0  0  0  0  0  0  0
   29.5807   16.7256   17.2023 N   0  0  0  0  0  0  0  0  0  0  0  0
   30.2699   16.6428   14.9235 N   0  0  0  0  0  0  0  0  0  0  0  0
   31.5999   18.2923   14.1277 O   0  0  0  0  0  0  0  0  0  0  0  0
   31.6418   20.2259   17.8295 N   0  0  0  0  0  0  0  0  0  0  0  0
   30.9129   19.6282   18.8696 C   0  0  0  0  0  0  0  0  0  0  0  0
   30.2218   18.4266   18.6254 N   0  0  0  0  0  0  0  0  0  0  0  0
   30.2478   17.8700   17.3979 C   0  0  0  0  0  0  0  0  0  0  0  0
   30.9707   18.4423   16.3422 C   0  0  0  0  0  0  0  0  0  0  0  0
   31.6651   19.6252   16.5479 C   0  0  0  0  0  0  0  0  0  0  0  0
  1  3  1  0  0  0  0
  1  4  2  0  0  0  0
  1  5  1  0  0  0  0
  2  6  2  0  0  0  0
  2 11  1  0  0  0  0
  2  5  1  0  0  0  0
  4 10  1  0  0  0  0
  7  8  2  0  0  0  0
  7 12  1  0  0  0  0
  8  9  1  0  0  0  0
  9 10  2  0  0  0  0
 10 11  1  0  0  0  0
 11 12  2  0  0  0  0
M  END
>  <CHROM.1>
30.54430341,17.87751433,16.53044785,2.16858445,-0.94323825,-2.03817876

>  <Name>
ligand

>  <RI>
0

>  <Rbt.Current_Directory>
/home/itssahil/PROJECTS/Mol_Feturizer/New_Systems/rnas/4LX6

>  <Rbt.Executable>
rbdock ($Id: //depot/dev/client3/rdock/2013.1/src/exe/rbdock.cxx#4 $)

>  <Rbt.Library>
libRbt.so (2013.1, Build901 2013/11/27)

>  <Rbt.Parameter_File>
/export/apps/rDock/src/rDock_2013.1_src/data/scripts/dock_solv.prm

>  <Rbt.Receptor>
prm/pocket_docking_5.prm

>  <SCORE>
-17.3167

>  <SCORE.INTER>
-17.3167

>  <SCORE.INTER.CONST>
1

>  <SCORE.INTER.POLAR>
0

>  <SCORE.INTER.ROT>
0

>  <SCORE.INTER.SOLV>
11.004

>  <SCORE.INTER.VDW>
-18.8125

>  <SCORE.INTER.norm>
-1.44306

>  <SCORE.INTRA>
0

>  <SCORE.INTRA.DIHEDRAL>
0

>  <SCORE.INTRA.DIHEDRAL.0>
0

>  <SCORE.INTRA.POLAR>
0

>  <SCORE.INTRA.POLAR.0>
0

>  <SCORE.INTRA.REPUL>
0

>  <SCORE.INTRA.REPUL.0>
0

>  <SCORE.INTRA.SOLV>
0

>  <SCORE.INTRA.SOLV.lig_0>
-28.9128

>  <SCORE.INTRA.VDW>
0

>  <SCORE.INTRA.VDW.0>
0

>  <SCORE.INTRA.norm>
0

>  <SCORE.RESTR>
0

>  <SCORE.RESTR.CAVITY>
0

>  <SCORE.RESTR.norm>
0

>  <SCORE.SYSTEM>
0

>  <SCORE.SYSTEM.CONST>
0

>  <SCORE.SYSTEM.DIHEDRAL>
0

>  <SCORE.SYSTEM.SOLV>
0

>  <SCORE.SYSTEM.norm>
0

>  <SCORE.heavy>
12

>  <SCORE.norm>
-1.44306

>  <RMSD>
2.951

$$$$
ligand
 OpenBabel11021811503D
libRbt.so/2013.1/901 2013/11/27
 12 13  0  0  0  0  0  0  0  0999 V2000
   29.5643   16.1027   16.0207 C   0  0  0  0  0  0  0  0  0  0  0  0
   30.9764   17.8169   15.0765 C   0  0  0  0  0  0  0  0  0  0  0  0
   28.8755   14.9736   15.9015 N   0  0  0  0  0  0  0  0  0  0  0  0
   29.6009   16.7174   17.2073 N   0  0  0  0  0  0  0  0  0  0  0  0
   30.2570   16.6377   14.9186 N   0  0  0  0  0  0  0  0  0  0  0  0
   31.5782   18.2864   14.1067 O   0  0  0  0  0  0  0  0  0  0  0  0
   31.6768   20.2130   17.8110 N   0  0  0  0  0  0  0  0  0  0  0  0
   30.9619   19.6147   18.8604 C   0  0  0  0  0  0  0  0  0  0  0  0
   30.2653   18.4147   18.6241 N   0  0  0  0  0  0  0  0  0  0  0  0
   30.2726   17.8604   17.3953 C   0  0  0  0  0  0  0  0  0  0  0  0
   30.9812   18.4333   16.3303 C   0  0  0  0  0  0  0  0  0  0  0  0
   31.6805   19.6148   16.5282 C   0  0  0  0  0  0  0  0  0  0  0  0
  1  3  1  0  0  0  0
  1  4  2  0  0  0  0
  1  5  1  0  0  0  0
  2  6  2  0  0  0  0
  2 11  1  0  0  0  0
  2  5  1  0  0  0  0
  4 10  1  0  0  0  0
  7  8  2  0  0  0  0
  7 12  1  0  0  0  0
  8  9  1  0  0  0  0
  9 10  2  0  0  0  0
 10 11  1  0  0  0  0
 11 12  2  0  0  0  0
M  END
>  <CHROM.1>
30.55664234,17.86894281,16.52368687,2.19200822,-0.94809660,-2.01735271

>  <Name>
ligand

>  <RI>
0

>  <Rbt.Current_Directory>
/home/itssahil/PROJECTS/Mol_Feturizer/New_Systems/rnas/4LX6

>  <Rbt.Executable>
rbdock ($Id: //depot/dev/client3/rdock/2013.1/src/exe/rbdock.cxx#4 $)

>  <Rbt.Library>
libRbt.so (2013.1, Build901 2013/11/27)

>  <Rbt.Parameter_File>
/export/apps/rDock/src/rDock_2013.1_src/data/scripts/dock_solv.prm

>  <Rbt.Receptor>
prm/pocket_docking_5.prm

>  <SCORE>
-17.3056

>  <SCORE.INTER>
-17.3056

>  <SCORE.INTER.CONST>
1

>  <SCORE.INTER.POLAR>
0

>  <SCORE.INTER.ROT>
0

>  <SCORE.INTER.SOLV>
10.9902

>  <SCORE.INTER.VDW>
-18.8005

>  <SCORE.INTER.norm>
-1.44213

>  <SCORE.INTRA>
0

>  <SCORE.INTRA.DIHEDRAL>
0

>  <SCORE.INTRA.DIHEDRAL.0>
0

>  <SCORE.INTRA.POLAR>
0

>  <SCORE.INTRA.POLAR.0>
0

>  <SCORE.INTRA.REPUL>
0

>  <SCORE.INTRA.REPUL.0>
0

>  <SCORE.INTRA.SOLV>
0

>  <SCORE.INTRA.SOLV.lig_0>
-28.9128

>  <SCORE.INTRA.VDW>
0

>  <SCORE.INTRA.VDW.0>
0

>  <SCORE.INTRA.norm>
0

>  <SCORE.RESTR>
0

>  <SCORE.RESTR.CAVITY>
0

>  <SCORE.RESTR.norm>
0

>  <SCORE.SYSTEM>
0

>  <SCORE.SYSTEM.CONST>
0

>  <SCORE.SYSTEM.DIHEDRAL>
0

>  <SCORE.SYSTEM.SOLV>
0

>  <SCORE.SYSTEM.norm>
0

>  <SCORE.heavy>
12

>  <SCORE.norm>
-1.44213

>  <RMSD>
2.951

$$$$
ligand
 OpenBabel11021811503D
libRbt.so/2013.1/901 2013/11/27
 12 13  0  0  0  0  0  0  0  0999 V2000
   29.5618   16.0985   16.0177 C   0  0  0  0  0  0  0  0  0  0  0  0
   31.0632   17.7367   15.0764 C   0  0  0  0  0  0  0  0  0  0  0  0
   28.8383   14.9906   15.9055 N   0  0  0  0  0  0  0  0  0  0  0  0
   29.5805   16.7446   17.1879 N   0  0  0  0  0  0  0  0  0  0  0  0
   30.3088   16.5786   14.9259 N   0  0  0  0  0  0  0  0  0  0  0  0
   31.7128   18.1581   14.1155 O   0  0  0  0  0  0  0  0  0  0  0  0
   31.7558   20.1833   17.7680 N   0  0  0  0  0  0  0  0  0  0  0  0
   30.9862   19.6392   18.8081 C   0  0  0  0  0  0  0  0  0  0  0  0
   30.2563   18.4574   18.5805 N   0  0  0  0  0  0  0  0  0  0  0  0
   30.2850   17.8689   17.3680 C   0  0  0  0  0  0  0  0  0  0  0  0
   31.0480   18.3874   16.3127 C   0  0  0  0  0  0  0  0  0  0  0  0
   31.7812   19.5495   16.5025 C   0  0  0  0  0  0  0  0  0  0  0  0
  1  3  1  0  0  0  0
  1  4  2  0  0  0  0
  1  5  1  0  0  0  0
  2  6  2  0  0  0  0
  2 11  1  0  0  0  0
  2  5  1  0  0  0  0
  4 10  1  0  0  0  0
  7  8  2  0  0  0  0
  7 12  1  0  0  0  0
  8  9  1  0  0  0  0
  9 10  2  0  0  0  0
 10 11  1  0  0  0  0
 11 12  2  0  0  0  0
M  END
>  <CHROM.1>
30.59785385,17.84344169,16.50661326,2.16811722,-0.90218651,-2.06388100

>  <Name>
ligand

>  <RI>
0

>  <Rbt.Current_Directory>
/home/itssahil/PROJECTS/Mol_Feturizer/New_Systems/rnas/4LX6

>  <Rbt.Executable>
rbdock ($Id: //depot/dev/client3/rdock/2013.1/src/exe/rbdock.cxx#4 $)

>  <Rbt.Library>
libRbt.so (2013.1, Build901 2013/11/27)

>  <Rbt.Parameter_File>
/export/apps/rDock/src/rDock_2013.1_src/data/scripts/dock_solv.prm

>  <Rbt.Receptor>
prm/pocket_docking_5.prm

>  <SCORE>
-17.2723

>  <SCORE.INTER>
-17.2723

>  <SCORE.INTER.CONST>
1

>  <SCORE.INTER.POLAR>
0

>  <SCORE.INTER.ROT>
0

>  <SCORE.INTER.SOLV>
10.8865

>  <SCORE.INTER.VDW>
-18.7437

>  <SCORE.INTER.norm>
-1.43936

>  <SCORE.INTRA>
0

>  <SCORE.INTRA.DIHEDRAL>
0

>  <SCORE.INTRA.DIHEDRAL.0>
0

>  <SCORE.INTRA.POLAR>
0

>  <SCORE.INTRA.POLAR.0>
0

>  <SCORE.INTRA.REPUL>
0

>  <SCORE.INTRA.REPUL.0>
0

>  <SCORE.INTRA.SOLV>
0

>  <SCORE.INTRA.SOLV.lig_0>
-28.9128

>  <SCORE.INTRA.VDW>
0

>  <SCORE.INTRA.VDW.0>
0

>  <SCORE.INTRA.norm>
0

>  <SCORE.RESTR>
0

>  <SCORE.RESTR.CAVITY>
0

>  <SCORE.RESTR.norm>
0

>  <SCORE.SYSTEM>
0

>  <SCORE.SYSTEM.CONST>
0

>  <SCORE.SYSTEM.DIHEDRAL>
0

>  <SCORE.SYSTEM.SOLV>
0

>  <SCORE.SYSTEM.norm>
0

>  <SCORE.heavy>
12

>  <SCORE.norm>
-1.43936

>  <RMSD>
2.951

$$$$
ligand
 OpenBabel11021811503D
libRbt.so/2013.1/901 2013/11/27
 12 13  0  0  0  0  0  0  0  0999 V2000
   29.5604   16.0982   16.0151 C   0  0  0  0  0  0  0  0  0  0  0  0
   31.0270   17.7736   15.0845 C   0  0  0  0  0  0  0  0  0  0  0  0
   28.8588   14.9771   15.8952 N   0  0  0  0  0  0  0  0  0  0  0  0
   29.5689   16.7348   17.1907 N   0  0  0  0  0  0  0  0  0  0  0  0
   30.2953   16.6020   14.9258 N   0  0  0  0  0  0  0  0  0  0  0  0
   31.6660   18.2157   14.1258 O   0  0  0  0  0  0  0  0  0  0  0  0
   31.6770   20.2110   17.7949 N   0  0  0  0  0  0  0  0  0  0  0  0
   30.9206   19.6431   18.8321 C   0  0  0  0  0  0  0  0  0  0  0  0
   30.2138   18.4490   18.5961 N   0  0  0  0  0  0  0  0  0  0  0  0
   30.2514   17.8713   17.3787 C   0  0  0  0  0  0  0  0  0  0  0  0
   31.0017   18.4136   16.3263 C   0  0  0  0  0  0  0  0  0  0  0  0
   31.7121   19.5884   16.5242 C   0  0  0  0  0  0  0  0  0  0  0  0
  1  3  1  0  0  0  0
  1  4  2  0  0  0  0
  1  5  1  0  0  0  0
  2  6  2  0  0  0  0
  2 11  1  0  0  0  0
  2  5  1  0  0  0  0
  4 10  1  0  0  0  0
  7  8  2  0  0  0  0
  7 12  1  0  0  0  0
  8  9  1  0  0  0  0
  9 10  2  0  0  0  0
 10 11  1  0  0  0  0
 11 12  2  0  0  0  0
M  END
>  <CHROM.1>
30.56279974,17.85919247,16.51649734,2.15585026,-0.92064919,-2.06525733

>  <Name>
ligand

>  <RI>
0

>  <Rbt.Current_Directory>
/home/itssahil/PROJECTS/Mol_Feturizer/New_Systems/rnas/4LX6

>  <Rbt.Executable>
rbdock ($Id: //depot/dev/client3/rdock/2013.1/src/exe/rbdock.cxx#4 $)

>  <Rbt.Library>
libRbt.so (2013.1, Build901 2013/11/27)

>  <Rbt.Parameter_File>
/export/apps/rDock/src/rDock_2013.1_src/data/scripts/dock_solv.prm

>  <Rbt.Receptor>
prm/pocket_docking_5.prm

>  <SCORE>
-17.3048

>  <SCORE.INTER>
-17.3048

>  <SCORE.INTER.CONST>
1

>  <SCORE.INTER.POLAR>
0

>  <SCORE.INTER.ROT>
0

>  <SCORE.INTER.SOLV>
10.962

>  <SCORE.INTER.VDW>
-18.7906

>  <SCORE.INTER.norm>
-1.44207

>  <SCORE.INTRA>
0

>  <SCORE.INTRA.DIHEDRAL>
0

>  <SCORE.INTRA.DIHEDRAL.0>
0

>  <SCORE.INTRA.POLAR>
0

>  <SCORE.INTRA.POLAR.0>
0

>  <SCORE.INTRA.REPUL>
0

>  <SCORE.INTRA.REPUL.0>
0

>  <SCORE.INTRA.SOLV>
0

>  <SCORE.INTRA.SOLV.lig_0>
-28.9128

>  <SCORE.INTRA.VDW>
0

>  <SCORE.INTRA.VDW.0>
0

>  <SCORE.INTRA.norm>
0

>  <SCORE.RESTR>
0

>  <SCORE.RESTR.CAVITY>
0

>  <SCORE.RESTR.norm>
0

>  <SCORE.SYSTEM>
0

>  <SCORE.SYSTEM.CONST>
0

>  <SCORE.SYSTEM.DIHEDRAL>
0

>  <SCORE.SYSTEM.SOLV>
0

>  <SCORE.SYSTEM.norm>
0

>  <SCORE.heavy>
12

>  <SCORE.norm>
-1.44207

>  <RMSD>
2.951

$$$$
ligand
 OpenBabel11021811503D
libRbt.so/2013.1/901 2013/11/27
 12 13  0  0  0  0  0  0  0  0999 V2000
   29.5575   16.0801   16.0113 C   0  0  0  0  0  0  0  0  0  0  0  0
   31.0045   17.7697   15.0756 C   0  0  0  0  0  0  0  0  0  0  0  0
   28.8632   14.9543   15.8926 N   0  0  0  0  0  0  0  0  0  0  0  0
   29.5704   16.7125   17.1891 N   0  0  0  0  0  0  0  0  0  0  0  0
   30.2802   16.5934   14.9182 N   0  0  0  0  0  0  0  0  0  0  0  0
   31.6327   18.2201   14.1136 O   0  0  0  0  0  0  0  0  0  0  0  0
   31.6575   20.2019   17.7899 N   0  0  0  0  0  0  0  0  0  0  0  0
   30.9134   19.6247   18.8308 C   0  0  0  0  0  0  0  0  0  0  0  0
   30.2136   18.4263   18.5958 N   0  0  0  0  0  0  0  0  0  0  0  0
   30.2460   17.8533   17.3760 C   0  0  0  0  0  0  0  0  0  0  0  0
   30.9841   18.4050   16.3199 C   0  0  0  0  0  0  0  0  0  0  0  0
   31.6873   19.5842   16.5167 C   0  0  0  0  0  0  0  0  0  0  0  0
  1  3  1  0  0  0  0
  1  4  2  0  0  0  0
  1  5  1  0  0  0  0
  2  6  2  0  0  0  0
  2 11  1  0  0  0  0
  2  5  1  0  0  0  0
  4 10  1  0  0  0  0
  7  8  2  0  0  0  0
  7 12  1  0  0  0  0
  8  9  1  0  0  0  0
  9 10  2  0  0  0  0
 10 11  1  0  0  0  0
 11 12  2  0  0  0  0
M  END
>  <CHROM.1>
30.55076730,17.84665818,16.51141950,2.16144955,-0.93078859,-2.05708840

>  <Name>
ligand

>  <RI>
0

>  <Rbt.Current_Directory>
/home/itssahil/PROJECTS/Mol_Feturizer/New_Systems/rnas/4LX6

>  <Rbt.Executable>
rbdock ($Id: //depot/dev/client3/rdock/2013.1/src/exe/rbdock.cxx#4 $)

>  <Rbt.Library>
libRbt.so (2013.1, Build901 2013/11/27)

>  <Rbt.Parameter_File>
/export/apps/rDock/src/rDock_2013.1_src/data/scripts/dock_solv.prm

>  <Rbt.Receptor>
prm/pocket_docking_5.prm

>  <SCORE>
-17.3144

>  <SCORE.INTER>
-17.3144

>  <SCORE.INTER.CONST>
1

>  <SCORE.INTER.POLAR>
0

>  <SCORE.INTER.ROT>
0

>  <SCORE.INTER.SOLV>
10.9971

>  <SCORE.INTER.VDW>
-18.8086

>  <SCORE.INTER.norm>
-1.44287

>  <SCORE.INTRA>
0

>  <SCORE.INTRA.DIHEDRAL>
0

>  <SCORE.INTRA.DIHEDRAL.0>
0

>  <SCORE.INTRA.POLAR>
0

>  <SCORE.INTRA.POLAR.0>
0

>  <SCORE.INTRA.REPUL>
0

>  <SCORE.INTRA.REPUL.0>
0

>  <SCORE.INTRA.SOLV>
0

>  <SCORE.INTRA.SOLV.lig_0>
-28.9128

>  <SCORE.INTRA.VDW>
0

>  <SCORE.INTRA.VDW.0>
0

>  <SCORE.INTRA.norm>
0

>  <SCORE.RESTR>
0

>  <SCORE.RESTR.CAVITY>
0

>  <SCORE.RESTR.norm>
0

>  <SCORE.SYSTEM>
0

>  <SCORE.SYSTEM.CONST>
0

>  <SCORE.SYSTEM.DIHEDRAL>
0

>  <SCORE.SYSTEM.SOLV>
0

>  <SCORE.SYSTEM.norm>
0

>  <SCORE.heavy>
12

>  <SCORE.norm>
-1.44287

>  <RMSD>
2.951

$$$$
ligand
 OpenBabel11021811503D
libRbt.so/2013.1/901 2013/11/27
 12 13  0  0  0  0  0  0  0  0999 V2000
   29.5623   16.1071   16.0176 C   0  0  0  0  0  0  0  0  0  0  0  0
   30.9801   17.8231   15.0854 C   0  0  0  0  0  0  0  0  0  0  0  0
   28.8774   14.9761   15.8931 N   0  0  0  0  0  0  0  0  0  0  0  0
   29.5848   16.7239   17.2034 N   0  0  0  0  0  0  0  0  0  0  0  0
   30.2653   16.6419   14.9220 N   0  0  0  0  0  0  0  0  0  0  0  0
   31.5911   18.2923   14.1213 O   0  0  0  0  0  0  0  0  0  0  0  0
   31.6457   20.2256   17.8231 N   0  0  0  0  0  0  0  0  0  0  0  0
   30.9212   19.6273   18.8659 C   0  0  0  0  0  0  0  0  0  0  0  0
   30.2300   18.4253   18.6243 N   0  0  0  0  0  0  0  0  0  0  0  0
   30.2517   17.8688   17.3966 C   0  0  0  0  0  0  0  0  0  0  0  0
   30.9702   18.4417   16.3382 C   0  0  0  0  0  0  0  0  0  0  0  0
   31.6645   19.6251   16.5414 C   0  0  0  0  0  0  0  0  0  0  0  0
  1  3  1  0  0  0  0
  1  4  2  0  0  0  0
  1  5  1  0  0  0  0
  2  6  2  0  0  0  0
  2 11  1  0  0  0  0
  2  5  1  0  0  0  0
  4 10  1  0  0  0  0
  7  8  2  0  0  0  0
  7 12  1  0  0  0  0
  8  9  1  0  0  0  0
  9 10  2  0  0  0  0
 10 11  1  0  0  0  0
 11 12  2  0  0  0  0
M  END
>  <CHROM.1>
30.54493135,17.87659091,16.52802729,2.17385963,-0.94558819,-2.03381276

>  <Name>
ligand

>  <RI>
0

>  <Rbt.Current_Directory>
/home/itssahil/PROJECTS/Mol_Feturizer/New_Systems/rnas/4LX6

>  <Rbt.Executable>
rbdock ($Id: //depot/dev/client3/rdock/2013.1/src/exe/rbdock.cxx#4 $)

>  <Rbt.Library>
libRbt.so (2013.1, Build901 2013/11/27)

>  <Rbt.Parameter_File>
/export/apps/rDock/src/rDock_2013.1_src/data/scripts/dock_solv.prm

>  <Rbt.Receptor>
prm/pocket_docking_5.prm

>  <SCORE>
-17.3208

>  <SCORE.INTER>
-17.3208

>  <SCORE.INTER.CONST>
1

>  <SCORE.INTER.POLAR>
0

>  <SCORE.INTER.ROT>
0

>  <SCORE.INTER.SOLV>
11.0041

>  <SCORE.INTER.VDW>
-18.8153

>  <SCORE.INTER.norm>
-1.4434

>  <SCORE.INTRA>
0

>  <SCORE.INTRA.DIHEDRAL>
0

>  <SCORE.INTRA.DIHEDRAL.0>
0

>  <SCORE.INTRA.POLAR>
0

>  <SCORE.INTRA.POLAR.0>
0

>  <SCORE.INTRA.REPUL>
0

>  <SCORE.INTRA.REPUL.0>
0

>  <SCORE.INTRA.SOLV>
0

>  <SCORE.INTRA.SOLV.lig_0>
-28.9128

>  <SCORE.INTRA.VDW>
0

>  <SCORE.INTRA.VDW.0>
0

>  <SCORE.INTRA.norm>
0

>  <SCORE.RESTR>
0

>  <SCORE.RESTR.CAVITY>
0

>  <SCORE.RESTR.norm>
0

>  <SCORE.SYSTEM>
0

>  <SCORE.SYSTEM.CONST>
0

>  <SCORE.SYSTEM.DIHEDRAL>
0

>  <SCORE.SYSTEM.SOLV>
0

>  <SCORE.SYSTEM.norm>
0

>  <SCORE.heavy>
12

>  <SCORE.norm>
-1.4434

>  <RMSD>
2.951

$$$$
ligand
 OpenBabel11021811503D
libRbt.so/2013.1/901 2013/11/27
 12 13  0  0  0  0  0  0  0  0999 V2000
   29.5597   16.0981   16.0142 C   0  0  0  0  0  0  0  0  0  0  0  0
   30.9737   17.8197   15.0864 C   0  0  0  0  0  0  0  0  0  0  0  0
   28.8791   14.9649   15.8874 N   0  0  0  0  0  0  0  0  0  0  0  0
   29.5775   16.7142   17.2005 N   0  0  0  0  0  0  0  0  0  0  0  0
   30.2633   16.6361   14.9205 N   0  0  0  0  0  0  0  0  0  0  0  0
   31.5852   18.2917   14.1239 O   0  0  0  0  0  0  0  0  0  0  0  0
   31.6250   20.2225   17.8272 N   0  0  0  0  0  0  0  0  0  0  0  0
   30.9003   19.6210   18.8680 C   0  0  0  0  0  0  0  0  0  0  0  0
   30.2138   18.4168   18.6240 N   0  0  0  0  0  0  0  0  0  0  0  0
   30.2401   17.8613   17.3960 C   0  0  0  0  0  0  0  0  0  0  0  0
   30.9589   18.4373   16.3396 C   0  0  0  0  0  0  0  0  0  0  0  0
   31.6487   19.6230   16.5451 C   0  0  0  0  0  0  0  0  0  0  0  0
  1  3  1  0  0  0  0
  1  4  2  0  0  0  0
  1  5  1  0  0  0  0
  2  6  2  0  0  0  0
  2 11  1  0  0  0  0
  2  5  1  0  0  0  0
  4 10  1  0  0  0  0
  7  8  2  0  0  0  0
  7 12  1  0  0  0  0
  8  9  1  0  0  0  0
  9 10  2  0  0  0  0
 10 11  1  0  0  0  0
 11 12  2  0  0  0  0
M  END
>  <CHROM.1>
30.53519094,17.87065390,16.52806880,2.16786178,-0.94768269,-2.03797776

>  <Name>
ligand

>  <RI>
0

>  <Rbt.Current_Directory>
/home/itssahil/PROJECTS/Mol_Feturizer/New_Systems/rnas/4LX6

>  <Rbt.Executable>
rbdock ($Id: //depot/dev/client3/rdock/2013.1/src/exe/rbdock.cxx#4 $)

>  <Rbt.Library>
libRbt.so (2013.1, Build901 2013/11/27)

>  <Rbt.Parameter_File>
/export/apps/rDock/src/rDock_2013.1_src/data/scripts/dock_solv.prm

>  <Rbt.Receptor>
prm/pocket_docking_5.prm

>  <SCORE>
-17.3158

>  <SCORE.INTER>
-17.3158

>  <SCORE.INTER.CONST>
1

>  <SCORE.INTER.POLAR>
0

>  <SCORE.INTER.ROT>
0

>  <SCORE.INTER.SOLV>
11.0241

>  <SCORE.INTER.VDW>
-18.8186

>  <SCORE.INTER.norm>
-1.44298

>  <SCORE.INTRA>
0

>  <SCORE.INTRA.DIHEDRAL>
0

>  <SCORE.INTRA.DIHEDRAL.0>
0

>  <SCORE.INTRA.POLAR>
0

>  <SCORE.INTRA.POLAR.0>
0

>  <SCORE.INTRA.REPUL>
0

>  <SCORE.INTRA.REPUL.0>
0

>  <SCORE.INTRA.SOLV>
0

>  <SCORE.INTRA.SOLV.lig_0>
-28.9128

>  <SCORE.INTRA.VDW>
0

>  <SCORE.INTRA.VDW.0>
0

>  <SCORE.INTRA.norm>
0

>  <SCORE.RESTR>
0

>  <SCORE.RESTR.CAVITY>
0

>  <SCORE.RESTR.norm>
0

>  <SCORE.SYSTEM>
0

>  <SCORE.SYSTEM.CONST>
0

>  <SCORE.SYSTEM.DIHEDRAL>
0

>  <SCORE.SYSTEM.SOLV>
0

>  <SCORE.SYSTEM.norm>
0

>  <SCORE.heavy>
12

>  <SCORE.norm>
-1.44298

>  <RMSD>
2.951

$$$$
ligand
 OpenBabel11021811503D
libRbt.so/2013.1/901 2013/11/27
 12 13  0  0  0  0  0  0  0  0999 V2000
   29.5596   16.0822   16.0121 C   0  0  0  0  0  0  0  0  0  0  0  0
   31.0099   17.7671   15.0731 C   0  0  0  0  0  0  0  0  0  0  0  0
   28.8639   14.9570   15.8960 N   0  0  0  0  0  0  0  0  0  0  0  0
   29.5721   16.7180   17.1881 N   0  0  0  0  0  0  0  0  0  0  0  0
   30.2842   16.5914   14.9184 N   0  0  0  0  0  0  0  0  0  0  0  0
   31.6398   18.2138   14.1105 O   0  0  0  0  0  0  0  0  0  0  0  0
   31.6633   20.2064   17.7811 N   0  0  0  0  0  0  0  0  0  0  0  0
   30.9172   19.6332   18.8228 C   0  0  0  0  0  0  0  0  0  0  0  0
   30.2160   18.4350   18.5905 N   0  0  0  0  0  0  0  0  0  0  0  0
   30.2490   17.8585   17.3725 C   0  0  0  0  0  0  0  0  0  0  0  0
   30.9890   18.4061   16.3155 C   0  0  0  0  0  0  0  0  0  0  0  0
   31.6936   19.5849   16.5096 C   0  0  0  0  0  0  0  0  0  0  0  0
  1  3  1  0  0  0  0
  1  4  2  0  0  0  0
  1  5  1  0  0  0  0
  2  6  2  0  0  0  0
  2 11  1  0  0  0  0
  2  5  1  0  0  0  0
  4 10  1  0  0  0  0
  7  8  2  0  0  0  0
  7 12  1  0  0  0  0
  8  9  1  0  0  0  0
  9 10  2  0  0  0  0
 10 11  1  0  0  0  0
 11 12  2  0  0  0  0
M  END
>  <CHROM.1>
30.55471428,17.84888097,16.50820452,2.16089435,-0.92908490,-2.06045277

>  <Name>
ligand

>  <RI>
0

>  <Rbt.Current_Directory>
/home/itssahil/PROJECTS/Mol_Feturizer/New_Systems/rnas/4LX6

>  <Rbt.Executable>
rbdock ($Id: //depot/dev/client3/rdock/2013.1/src/exe/rbdock.cxx#4 $)

>  <Rbt.Library>
libRbt.so (2013.1, Build901 2013/11/27)

>  <Rbt.Parameter_File>
/export/apps/rDock/src/rDock_2013.1_src/data/scripts/dock_solv.prm

>  <Rbt.Receptor>
prm/pocket_docking_5.prm

>  <SCORE>
-17.3084

>  <SCORE.INTER>
-17.3084

>  <SCORE.INTER.CONST>
1

>  <SCORE.INTER.POLAR>
0

>  <SCORE.INTER.ROT>
0

>  <SCORE.INTER.SOLV>
11.0013

>  <SCORE.INTER.VDW>
-18.8061

>  <SCORE.INTER.norm>
-1.44237

>  <SCORE.INTRA>
0

>  <SCORE.INTRA.DIHEDRAL>
0

>  <SCORE.INTRA.DIHEDRAL.0>
0

>  <SCORE.INTRA.POLAR>
0

>  <SCORE.INTRA.POLAR.0>
0

>  <SCORE.INTRA.REPUL>
0

>  <SCORE.INTRA.REPUL.0>
0

>  <SCORE.INTRA.SOLV>
0

>  <SCORE.INTRA.SOLV.lig_0>
-28.9128

>  <SCORE.INTRA.VDW>
0

>  <SCORE.INTRA.VDW.0>
0

>  <SCORE.INTRA.norm>
0

>  <SCORE.RESTR>
0

>  <SCORE.RESTR.CAVITY>
0

>  <SCORE.RESTR.norm>
0

>  <SCORE.SYSTEM>
0

>  <SCORE.SYSTEM.CONST>
0

>  <SCORE.SYSTEM.DIHEDRAL>
0

>  <SCORE.SYSTEM.SOLV>
0

>  <SCORE.SYSTEM.norm>
0

>  <SCORE.heavy>
12

>  <SCORE.norm>
-1.44237

>  <RMSD>
2.951

$$$$
ligand
 OpenBabel11021811503D
libRbt.so/2013.1/901 2013/11/27
 12 13  0  0  0  0  0  0  0  0999 V2000
   29.5618   16.1084   16.0170 C   0  0  0  0  0  0  0  0  0  0  0  0
   30.9812   17.8235   15.0855 C   0  0  0  0  0  0  0  0  0  0  0  0
   28.8764   14.9778   15.8923 N   0  0  0  0  0  0  0  0  0  0  0  0
   29.5838   16.7255   17.2027 N   0  0  0  0  0  0  0  0  0  0  0  0
   30.2658   16.6426   14.9218 N   0  0  0  0  0  0  0  0  0  0  0  0
   31.5931   18.2921   14.1217 O   0  0  0  0  0  0  0  0  0  0  0  0
   31.6463   20.2261   17.8231 N   0  0  0  0  0  0  0  0  0  0  0  0
   30.9208   19.6285   18.8655 C   0  0  0  0  0  0  0  0  0  0  0  0
   30.2291   18.4268   18.6237 N   0  0  0  0  0  0  0  0  0  0  0  0
   30.2513   17.8701   17.3962 C   0  0  0  0  0  0  0  0  0  0  0  0
   30.9708   18.4423   16.3381 C   0  0  0  0  0  0  0  0  0  0  0  0
   31.6657   19.6254   16.5415 C   0  0  0  0  0  0  0  0  0  0  0  0
  1  3  1  0  0  0  0
  1  4  2  0  0  0  0
  1  5  1  0  0  0  0
  2  6  2  0  0  0  0
  2 11  1  0  0  0  0
  2  5  1  0  0  0  0
  4 10  1  0  0  0  0
  7  8  2  0  0  0  0
  7 12  1  0  0  0  0
  8  9  1  0  0  0  0
  9 10  2  0  0  0  0
 10 11  1  0  0  0  0
 11 12  2  0  0  0  0
M  END
>  <CHROM.1>
30.54509190,17.87748459,16.52777121,2.17326930,-0.94479396,-2.03449172

>  <Name>
ligand

>  <RI>
0

>  <Rbt.Current_Directory>
/home/itssahil/PROJECTS/Mol_Feturizer/New_Systems/rnas/4LX6

>  <Rbt.Executable>
rbdock ($Id: //depot/dev/client3/rdock/2013.1/src/exe/rbdock.cxx#4 $)

>  <Rbt.Library>
libRbt.so (2013.1, Build901 2013/11/27)

>  <Rbt.Parameter_File>
/export/apps/rDock/src/rDock_2013.1_src/data/scripts/dock_solv.prm

>  <Rbt.Receptor>
prm/pocket_docking_6.prm

>  <SCORE>
-17.3208

>  <SCORE.INTER>
-17.3208

>  <SCORE.INTER.CONST>
1

>  <SCORE.INTER.POLAR>
0

>  <SCORE.INTER.ROT>
0

>  <SCORE.INTER.SOLV>
10.9991

>  <SCORE.INTER.VDW>
-18.8136

>  <SCORE.INTER.norm>
-1.4434

>  <SCORE.INTRA>
0

>  <SCORE.INTRA.DIHEDRAL>
0

>  <SCORE.INTRA.DIHEDRAL.0>
0

>  <SCORE.INTRA.POLAR>
0

>  <SCORE.INTRA.POLAR.0>
0

>  <SCORE.INTRA.REPUL>
0

>  <SCORE.INTRA.REPUL.0>
0

>  <SCORE.INTRA.SOLV>
0

>  <SCORE.INTRA.SOLV.lig_0>
-28.9128

>  <SCORE.INTRA.VDW>
0

>  <SCORE.INTRA.VDW.0>
0

>  <SCORE.INTRA.norm>
0

>  <SCORE.RESTR>
0

>  <SCORE.RESTR.CAVITY>
0

>  <SCORE.RESTR.norm>
0

>  <SCORE.SYSTEM>
0

>  <SCORE.SYSTEM.CONST>
0

>  <SCORE.SYSTEM.DIHEDRAL>
0

>  <SCORE.SYSTEM.SOLV>
0

>  <SCORE.SYSTEM.norm>
0

>  <SCORE.heavy>
12

>  <SCORE.norm>
-1.4434

>  <RMSD>
2.951

$$$$
ligand
 OpenBabel11021811503D
libRbt.so/2013.1/901 2013/11/27
 12 13  0  0  0  0  0  0  0  0999 V2000
   29.5651   16.1006   16.0164 C   0  0  0  0  0  0  0  0  0  0  0  0
   31.0302   17.7794   15.0895 C   0  0  0  0  0  0  0  0  0  0  0  0
   28.8627   14.9803   15.8933 N   0  0  0  0  0  0  0  0  0  0  0  0
   29.5768   16.7321   17.1947 N   0  0  0  0  0  0  0  0  0  0  0  0
   30.2976   16.6089   14.9275 N   0  0  0  0  0  0  0  0  0  0  0  0
   31.6670   18.2254   14.1311 O   0  0  0  0  0  0  0  0  0  0  0  0
   31.6879   20.2047   17.8088 N   0  0  0  0  0  0  0  0  0  0  0  0
   30.9338   19.6327   18.8453 C   0  0  0  0  0  0  0  0  0  0  0  0
   30.2259   18.4399   18.6059 N   0  0  0  0  0  0  0  0  0  0  0  0
   30.2603   17.8675   17.3859 C   0  0  0  0  0  0  0  0  0  0  0  0
   31.0082   18.4140   16.3340 C   0  0  0  0  0  0  0  0  0  0  0  0
   31.7196   19.5876   16.5353 C   0  0  0  0  0  0  0  0  0  0  0  0
  1  3  1  0  0  0  0
  1  4  2  0  0  0  0
  1  5  1  0  0  0  0
  2  6  2  0  0  0  0
  2 11  1  0  0  0  0
  2  5  1  0  0  0  0
  4 10  1  0  0  0  0
  7  8  2  0  0  0  0
  7 12  1  0  0  0  0
  8  9  1  0  0  0  0
  9 10  2  0  0  0  0
 10 11  1  0  0  0  0
 11 12  2  0  0  0  0
M  END
>  <CHROM.1>
30.56954255,17.85897535,16.52292935,2.15977846,-0.92142666,-2.05779037

>  <Name>
ligand

>  <RI>
0

>  <Rbt.Current_Directory>
/home/itssahil/PROJECTS/Mol_Feturizer/New_Systems/rnas/4LX6

>  <Rbt.Executable>
rbdock ($Id: //depot/dev/client3/rdock/2013.1/src/exe/rbdock.cxx#4 $)

>  <Rbt.Library>
libRbt.so (2013.1, Build901 2013/11/27)

>  <Rbt.Parameter_File>
/export/apps/rDock/src/rDock_2013.1_src/data/scripts/dock_solv.prm

>  <Rbt.Receptor>
prm/pocket_docking_6.prm

>  <SCORE>
-17.3089

>  <SCORE.INTER>
-17.3089

>  <SCORE.INTER.CONST>
1

>  <SCORE.INTER.POLAR>
0

>  <SCORE.INTER.ROT>
0

>  <SCORE.INTER.SOLV>
10.9681

>  <SCORE.INTER.VDW>
-18.7953

>  <SCORE.INTER.norm>
-1.44241

>  <SCORE.INTRA>
0

>  <SCORE.INTRA.DIHEDRAL>
0

>  <SCORE.INTRA.DIHEDRAL.0>
0

>  <SCORE.INTRA.POLAR>
0

>  <SCORE.INTRA.POLAR.0>
0

>  <SCORE.INTRA.REPUL>
0

>  <SCORE.INTRA.REPUL.0>
0

>  <SCORE.INTRA.SOLV>
0

>  <SCORE.INTRA.SOLV.lig_0>
-28.9128

>  <SCORE.INTRA.VDW>
0

>  <SCORE.INTRA.VDW.0>
0

>  <SCORE.INTRA.norm>
0

>  <SCORE.RESTR>
0

>  <SCORE.RESTR.CAVITY>
0

>  <SCORE.RESTR.norm>
0

>  <SCORE.SYSTEM>
0

>  <SCORE.SYSTEM.CONST>
0

>  <SCORE.SYSTEM.DIHEDRAL>
0

>  <SCORE.SYSTEM.SOLV>
0

>  <SCORE.SYSTEM.norm>
0

>  <SCORE.heavy>
12

>  <SCORE.norm>
-1.44241

>  <RMSD>
2.951

$$$$
ligand
 OpenBabel11021811503D
libRbt.so/2013.1/901 2013/11/27
 12 13  0  0  0  0  0  0  0  0999 V2000
   29.5620   16.1060   16.0178 C   0  0  0  0  0  0  0  0  0  0  0  0
   30.9853   17.8139   15.0790 C   0  0  0  0  0  0  0  0  0  0  0  0
   28.8723   14.9776   15.8973 N   0  0  0  0  0  0  0  0  0  0  0  0
   29.5890   16.7257   17.2021 N   0  0  0  0  0  0  0  0  0  0  0  0
   30.2654   16.6352   14.9197 N   0  0  0  0  0  0  0  0  0  0  0  0
   31.5966   18.2782   14.1127 O   0  0  0  0  0  0  0  0  0  0  0  0
   31.6653   20.2204   17.8095 N   0  0  0  0  0  0  0  0  0  0  0  0
   30.9401   19.6278   18.8551 C   0  0  0  0  0  0  0  0  0  0  0  0
   30.2436   18.4280   18.6176 N   0  0  0  0  0  0  0  0  0  0  0  0
   30.2610   17.8684   17.3913 C   0  0  0  0  0  0  0  0  0  0  0  0
   30.9800   18.4356   16.3303 C   0  0  0  0  0  0  0  0  0  0  0  0
   31.6795   19.6167   16.5293 C   0  0  0  0  0  0  0  0  0  0  0  0
  1  3  1  0  0  0  0
  1  4  2  0  0  0  0
  1  5  1  0  0  0  0
  2  6  2  0  0  0  0
  2 11  1  0  0  0  0
  2  5  1  0  0  0  0
  4 10  1  0  0  0  0
  7  8  2  0  0  0  0
  7 12  1  0  0  0  0
  8  9  1  0  0  0  0
  9 10  2  0  0  0  0
 10 11  1  0  0  0  0
 11 12  2  0  0  0  0
M  END
>  <CHROM.1>
30.55276234,17.87274098,16.52220685,2.17954507,-0.94267477,-2.03171122

>  <Name>
ligand

>  <RI>
0

>  <Rbt.Current_Directory>
/home/itssahil/PROJECTS/Mol_Feturizer/New_Systems/rnas/4LX6

>  <Rbt.Executable>
rbdock ($Id: //depot/dev/client3/rdock/2013.1/src/exe/rbdock.cxx#4 $)

>  <Rbt.Library>
libRbt.so (2013.1, Build901 2013/11/27)

>  <Rbt.Parameter_File>
/export/apps/rDock/src/rDock_2013.1_src/data/scripts/dock_solv.prm

>  <Rbt.Receptor>
prm/pocket_docking_6.prm

>  <SCORE>
-17.3137

>  <SCORE.INTER>
-17.3137

>  <SCORE.INTER.CONST>
1

>  <SCORE.INTER.POLAR>
0

>  <SCORE.INTER.ROT>
0

>  <SCORE.INTER.SOLV>
10.9843

>  <SCORE.INTER.VDW>
-18.8039

>  <SCORE.INTER.norm>
-1.4428

>  <SCORE.INTRA>
0

>  <SCORE.INTRA.DIHEDRAL>
0

>  <SCORE.INTRA.DIHEDRAL.0>
0

>  <SCORE.INTRA.POLAR>
0

>  <SCORE.INTRA.POLAR.0>
0

>  <SCORE.INTRA.REPUL>
0

>  <SCORE.INTRA.REPUL.0>
0

>  <SCORE.INTRA.SOLV>
0

>  <SCORE.INTRA.SOLV.lig_0>
-28.9128

>  <SCORE.INTRA.VDW>
0

>  <SCORE.INTRA.VDW.0>
0

>  <SCORE.INTRA.norm>
0

>  <SCORE.RESTR>
0

>  <SCORE.RESTR.CAVITY>
0

>  <SCORE.RESTR.norm>
0

>  <SCORE.SYSTEM>
0

>  <SCORE.SYSTEM.CONST>
0

>  <SCORE.SYSTEM.DIHEDRAL>
0

>  <SCORE.SYSTEM.SOLV>
0

>  <SCORE.SYSTEM.norm>
0

>  <SCORE.heavy>
12

>  <SCORE.norm>
-1.4428

>  <RMSD>
2.951

$$$$
ligand
 OpenBabel11021811503D
libRbt.so/2013.1/901 2013/11/27
 12 13  0  0  0  0  0  0  0  0999 V2000
   29.5616   16.1078   16.0162 C   0  0  0  0  0  0  0  0  0  0  0  0
   30.9817   17.8215   15.0831 C   0  0  0  0  0  0  0  0  0  0  0  0
   28.8752   14.9778   15.8923 N   0  0  0  0  0  0  0  0  0  0  0  0
   29.5853   16.7251   17.2018 N   0  0  0  0  0  0  0  0  0  0  0  0
   30.2651   16.6413   14.9203 N   0  0  0  0  0  0  0  0  0  0  0  0
   31.5931   18.2896   14.1187 O   0  0  0  0  0  0  0  0  0  0  0  0
   31.6513   20.2241   17.8198 N   0  0  0  0  0  0  0  0  0  0  0  0
   30.9262   19.6272   18.8630 C   0  0  0  0  0  0  0  0  0  0  0  0
   30.2332   18.4260   18.6219 N   0  0  0  0  0  0  0  0  0  0  0  0
   30.2539   17.8691   17.3945 C   0  0  0  0  0  0  0  0  0  0  0  0
   30.9729   18.4406   16.3357 C   0  0  0  0  0  0  0  0  0  0  0  0
   31.6690   19.6231   16.5383 C   0  0  0  0  0  0  0  0  0  0  0  0
  1  3  1  0  0  0  0
  1  4  2  0  0  0  0
  1  5  1  0  0  0  0
  2  6  2  0  0  0  0
  2 11  1  0  0  0  0
  2  5  1  0  0  0  0
  4 10  1  0  0  0  0
  7  8  2  0  0  0  0
  7 12  1  0  0  0  0
  8  9  1  0  0  0  0
  9 10  2  0  0  0  0
 10 11  1  0  0  0  0
 11 12  2  0  0  0  0
M  END
>  <CHROM.1>
30.54690656,17.87615915,16.52581041,2.17530268,-0.94443482,-2.03299833

>  <Name>
ligand

>  <RI>
0

>  <Rbt.Current_Directory>
/home/itssahil/PROJECTS/Mol_Feturizer/New_Systems/rnas/4LX6

>  <Rbt.Executable>
rbdock ($Id: //depot/dev/client3/rdock/2013.1/src/exe/rbdock.cxx#4 $)

>  <Rbt.Library>
libRbt.so (2013.1, Build901 2013/11/27)

>  <Rbt.Parameter_File>
/export/apps/rDock/src/rDock_2013.1_src/data/scripts/dock_solv.prm

>  <Rbt.Receptor>
prm/pocket_docking_7.prm

>  <SCORE>
-17.3198

>  <SCORE.INTER>
-17.3198

>  <SCORE.INTER.CONST>
1

>  <SCORE.INTER.POLAR>
0

>  <SCORE.INTER.ROT>
0

>  <SCORE.INTER.SOLV>
10.9945

>  <SCORE.INTER.VDW>
-18.8114

>  <SCORE.INTER.norm>
-1.44332

>  <SCORE.INTRA>
0

>  <SCORE.INTRA.DIHEDRAL>
0

>  <SCORE.INTRA.DIHEDRAL.0>
0

>  <SCORE.INTRA.POLAR>
0

>  <SCORE.INTRA.POLAR.0>
0

>  <SCORE.INTRA.REPUL>
0

>  <SCORE.INTRA.REPUL.0>
0

>  <SCORE.INTRA.SOLV>
0

>  <SCORE.INTRA.SOLV.lig_0>
-28.9128

>  <SCORE.INTRA.VDW>
0

>  <SCORE.INTRA.VDW.0>
0

>  <SCORE.INTRA.norm>
0

>  <SCORE.RESTR>
0

>  <SCORE.RESTR.CAVITY>
0

>  <SCORE.RESTR.norm>
0

>  <SCORE.SYSTEM>
0

>  <SCORE.SYSTEM.CONST>
0

>  <SCORE.SYSTEM.DIHEDRAL>
0

>  <SCORE.SYSTEM.SOLV>
0

>  <SCORE.SYSTEM.norm>
0

>  <SCORE.heavy>
12

>  <SCORE.norm>
-1.44332

>  <RMSD>
2.951

$$$$
ligand
 OpenBabel11021811503D
libRbt.so/2013.1/901 2013/11/27
 12 13  0  0  0  0  0  0  0  0999 V2000
   29.5650   16.0966   16.0177 C   0  0  0  0  0  0  0  0  0  0  0  0
   31.0221   17.7794   15.0855 C   0  0  0  0  0  0  0  0  0  0  0  0
   28.8646   14.9748   15.8969 N   0  0  0  0  0  0  0  0  0  0  0  0
   29.5805   16.7272   17.1964 N   0  0  0  0  0  0  0  0  0  0  0  0
   30.2914   16.6074   14.9259 N   0  0  0  0  0  0  0  0  0  0  0  0
   31.6536   18.2276   14.1246 O   0  0  0  0  0  0  0  0  0  0  0  0
   31.6864   20.2043   17.8037 N   0  0  0  0  0  0  0  0  0  0  0  0
   30.9382   19.6297   18.8432 C   0  0  0  0  0  0  0  0  0  0  0  0
   30.2320   18.4355   18.6060 N   0  0  0  0  0  0  0  0  0  0  0  0
   30.2623   17.8641   17.3855 C   0  0  0  0  0  0  0  0  0  0  0  0
   31.0042   18.4131   16.3306 C   0  0  0  0  0  0  0  0  0  0  0  0
   31.7138   19.5882   16.5296 C   0  0  0  0  0  0  0  0  0  0  0  0
  1  3  1  0  0  0  0
  1  4  2  0  0  0  0
  1  5  1  0  0  0  0
  2  6  2  0  0  0  0
  2 11  1  0  0  0  0
  2  5  1  0  0  0  0
  4 10  1  0  0  0  0
  7  8  2  0  0  0  0
  7 12  1  0  0  0  0
  8  9  1  0  0  0  0
  9 10  2  0  0  0  0
 10 11  1  0  0  0  0
 11 12  2  0  0  0  0
M  END
>  <CHROM.1>
30.56766053,17.85690275,16.52106596,2.16457074,-0.92554388,-2.05321741

>  <Name>
ligand

>  <RI>
0

>  <Rbt.Current_Directory>
/home/itssahil/PROJECTS/Mol_Feturizer/New_Systems/rnas/4LX6

>  <Rbt.Executable>
rbdock ($Id: //depot/dev/client3/rdock/2013.1/src/exe/rbdock.cxx#4 $)

>  <Rbt.Library>
libRbt.so (2013.1, Build901 2013/11/27)

>  <Rbt.Parameter_File>
/export/apps/rDock/src/rDock_2013.1_src/data/scripts/dock_solv.prm

>  <Rbt.Receptor>
prm/pocket_docking_8.prm

>  <SCORE>
-17.3131

>  <SCORE.INTER>
-17.3131

>  <SCORE.INTER.CONST>
1

>  <SCORE.INTER.POLAR>
0

>  <SCORE.INTER.ROT>
0

>  <SCORE.INTER.SOLV>
10.978

>  <SCORE.INTER.VDW>
-18.8014

>  <SCORE.INTER.norm>
-1.44275

>  <SCORE.INTRA>
0

>  <SCORE.INTRA.DIHEDRAL>
0

>  <SCORE.INTRA.DIHEDRAL.0>
0

>  <SCORE.INTRA.POLAR>
0

>  <SCORE.INTRA.POLAR.0>
0

>  <SCORE.INTRA.REPUL>
0

>  <SCORE.INTRA.REPUL.0>
0

>  <SCORE.INTRA.SOLV>
0

>  <SCORE.INTRA.SOLV.lig_0>
-28.9128

>  <SCORE.INTRA.VDW>
0

>  <SCORE.INTRA.VDW.0>
0

>  <SCORE.INTRA.norm>
0

>  <SCORE.RESTR>
0

>  <SCORE.RESTR.CAVITY>
0

>  <SCORE.RESTR.norm>
0

>  <SCORE.SYSTEM>
0

>  <SCORE.SYSTEM.CONST>
0

>  <SCORE.SYSTEM.DIHEDRAL>
0

>  <SCORE.SYSTEM.SOLV>
0

>  <SCORE.SYSTEM.norm>
0

>  <SCORE.heavy>
12

>  <SCORE.norm>
-1.44275

>  <RMSD>
2.951

$$$$
ligand
 OpenBabel11021811503D
libRbt.so/2013.1/901 2013/11/27
 12 13  0  0  0  0  0  0  0  0999 V2000
   29.5634   16.0958   16.0222 C   0  0  0  0  0  0  0  0  0  0  0  0
   30.9862   17.8032   15.0818 C   0  0  0  0  0  0  0  0  0  0  0  0
   28.8772   14.9650   15.9038 N   0  0  0  0  0  0  0  0  0  0  0  0
   29.5837   16.7209   17.2037 N   0  0  0  0  0  0  0  0  0  0  0  0
   30.2700   16.6219   14.9247 N   0  0  0  0  0  0  0  0  0  0  0  0
   31.6003   18.2648   14.1160 O   0  0  0  0  0  0  0  0  0  0  0  0
   31.6481   20.2238   17.8043 N   0  0  0  0  0  0  0  0  0  0  0  0
   30.9200   19.6339   18.8494 C   0  0  0  0  0  0  0  0  0  0  0  0
   30.2277   18.4312   18.6143 N   0  0  0  0  0  0  0  0  0  0  0  0
   30.2518   17.8661   17.3907 C   0  0  0  0  0  0  0  0  0  0  0  0
   30.9739   18.4305   16.3302 C   0  0  0  0  0  0  0  0  0  0  0  0
   31.6694   19.6144   16.5269 C   0  0  0  0  0  0  0  0  0  0  0  0
  1  3  1  0  0  0  0
  1  4  2  0  0  0  0
  1  5  1  0  0  0  0
  2  6  2  0  0  0  0
  2 11  1  0  0  0  0
  2  5  1  0  0  0  0
  4 10  1  0  0  0  0
  7  8  2  0  0  0  0
  7 12  1  0  0  0  0
  8  9  1  0  0  0  0
  9 10  2  0  0  0  0
 10 11  1  0  0  0  0
 11 12  2  0  0  0  0
M  END
>  <CHROM.1>
30.54730112,17.86739996,16.52282143,2.17101570,-0.94312523,-2.04311127

>  <Name>
ligand

>  <RI>
0

>  <Rbt.Current_Directory>
/home/itssahil/PROJECTS/Mol_Feturizer/New_Systems/rnas/4LX6

>  <Rbt.Executable>
rbdock ($Id: //depot/dev/client3/rdock/2013.1/src/exe/rbdock.cxx#4 $)

>  <Rbt.Library>
libRbt.so (2013.1, Build901 2013/11/27)

>  <Rbt.Parameter_File>
/export/apps/rDock/src/rDock_2013.1_src/data/scripts/dock_solv.prm

>  <Rbt.Receptor>
prm/blind_docking_60.prm

>  <SCORE>
-17.3083

>  <SCORE.INTER>
-17.3083

>  <SCORE.INTER.CONST>
1

>  <SCORE.INTER.POLAR>
0

>  <SCORE.INTER.ROT>
0

>  <SCORE.INTER.SOLV>
11.0215

>  <SCORE.INTER.VDW>
-18.8127

>  <SCORE.INTER.norm>
-1.44236

>  <SCORE.INTRA>
0

>  <SCORE.INTRA.DIHEDRAL>
0

>  <SCORE.INTRA.DIHEDRAL.0>
0

>  <SCORE.INTRA.POLAR>
0

>  <SCORE.INTRA.POLAR.0>
0

>  <SCORE.INTRA.REPUL>
0

>  <SCORE.INTRA.REPUL.0>
0

>  <SCORE.INTRA.SOLV>
0

>  <SCORE.INTRA.SOLV.lig_0>
-28.9128

>  <SCORE.INTRA.VDW>
0

>  <SCORE.INTRA.VDW.0>
0

>  <SCORE.INTRA.norm>
0

>  <SCORE.RESTR>
0

>  <SCORE.RESTR.CAVITY>
0

>  <SCORE.RESTR.norm>
0

>  <SCORE.SYSTEM>
0

>  <SCORE.SYSTEM.CONST>
0

>  <SCORE.SYSTEM.DIHEDRAL>
0

>  <SCORE.SYSTEM.SOLV>
0

>  <SCORE.SYSTEM.norm>
0

>  <SCORE.heavy>
12

>  <SCORE.norm>
-1.44236

>  <RMSD>
2.952

$$$$
ligand
 OpenBabel11021811503D
libRbt.so/2013.1/901 2013/11/27
 12 13  0  0  0  0  0  0  0  0999 V2000
   29.5651   16.1162   16.0223 C   0  0  0  0  0  0  0  0  0  0  0  0
   30.9907   17.8263   15.0910 C   0  0  0  0  0  0  0  0  0  0  0  0
   28.8765   14.9876   15.8977 N   0  0  0  0  0  0  0  0  0  0  0  0
   29.5877   16.7341   17.2076 N   0  0  0  0  0  0  0  0  0  0  0  0
   30.2720   16.6474   14.9274 N   0  0  0  0  0  0  0  0  0  0  0  0
   31.6051   18.2924   14.1276 O   0  0  0  0  0  0  0  0  0  0  0  0
   31.6600   20.2291   17.8275 N   0  0  0  0  0  0  0  0  0  0  0  0
   30.9314   19.6344   18.8696 C   0  0  0  0  0  0  0  0  0  0  0  0
   30.2364   18.4346   18.6279 N   0  0  0  0  0  0  0  0  0  0  0  0
   30.2583   17.8769   17.4009 C   0  0  0  0  0  0  0  0  0  0  0  0
   30.9807   18.4461   16.3432 C   0  0  0  0  0  0  0  0  0  0  0  0
   31.6789   19.6273   16.5465 C   0  0  0  0  0  0  0  0  0  0  0  0
  1  3  1  0  0  0  0
  1  4  2  0  0  0  0
  1  5  1  0  0  0  0
  2  6  2  0  0  0  0
  2 11  1  0  0  0  0
  2  5  1  0  0  0  0
  4 10  1  0  0  0  0
  7  8  2  0  0  0  0
  7 12  1  0  0  0  0
  8  9  1  0  0  0  0
  9 10  2  0  0  0  0
 10 11  1  0  0  0  0
 11 12  2  0  0  0  0
M  END
>  <CHROM.1>
30.55315102,17.88274097,16.53279348,2.17383454,-0.94161130,-2.03481040

>  <Name>
ligand

>  <RI>
0

>  <Rbt.Current_Directory>
/home/itssahil/PROJECTS/Mol_Feturizer/New_Systems/rnas/4LX6

>  <Rbt.Executable>
rbdock ($Id: //depot/dev/client3/rdock/2013.1/src/exe/rbdock.cxx#4 $)

>  <Rbt.Library>
libRbt.so (2013.1, Build901 2013/11/27)

>  <Rbt.Parameter_File>
/export/apps/rDock/src/rDock_2013.1_src/data/scripts/dock_solv.prm

>  <Rbt.Receptor>
prm/blind_docking_60.prm

>  <SCORE>
-17.3179

>  <SCORE.INTER>
-17.3179

>  <SCORE.INTER.CONST>
1

>  <SCORE.INTER.POLAR>
0

>  <SCORE.INTER.ROT>
0

>  <SCORE.INTER.SOLV>
10.9881

>  <SCORE.INTER.VDW>
-18.808

>  <SCORE.INTER.norm>
-1.44316

>  <SCORE.INTRA>
0

>  <SCORE.INTRA.DIHEDRAL>
0

>  <SCORE.INTRA.DIHEDRAL.0>
0

>  <SCORE.INTRA.POLAR>
0

>  <SCORE.INTRA.POLAR.0>
0

>  <SCORE.INTRA.REPUL>
0

>  <SCORE.INTRA.REPUL.0>
0

>  <SCORE.INTRA.SOLV>
0

>  <SCORE.INTRA.SOLV.lig_0>
-28.9128

>  <SCORE.INTRA.VDW>
0

>  <SCORE.INTRA.VDW.0>
0

>  <SCORE.INTRA.norm>
0

>  <SCORE.RESTR>
0

>  <SCORE.RESTR.CAVITY>
0

>  <SCORE.RESTR.norm>
0

>  <SCORE.SYSTEM>
0

>  <SCORE.SYSTEM.CONST>
0

>  <SCORE.SYSTEM.DIHEDRAL>
0

>  <SCORE.SYSTEM.SOLV>
0

>  <SCORE.SYSTEM.norm>
0

>  <SCORE.heavy>
12

>  <SCORE.norm>
-1.44316

>  <RMSD>
2.952

$$$$
ligand
 OpenBabel11021811503D
libRbt.so/2013.1/901 2013/11/27
 12 13  0  0  0  0  0  0  0  0999 V2000
   29.5680   16.1186   16.0235 C   0  0  0  0  0  0  0  0  0  0  0  0
   31.0001   17.8261   15.0976 C   0  0  0  0  0  0  0  0  0  0  0  0
   28.8805   14.9895   15.8972 N   0  0  0  0  0  0  0  0  0  0  0  0
   29.5819   16.7400   17.2071 N   0  0  0  0  0  0  0  0  0  0  0  0
   30.2828   16.6467   14.9323 N   0  0  0  0  0  0  0  0  0  0  0  0
   31.6214   18.2895   14.1373 O   0  0  0  0  0  0  0  0  0  0  0  0
   31.6491   20.2371   17.8318 N   0  0  0  0  0  0  0  0  0  0  0  0
   30.9131   19.6455   18.8703 C   0  0  0  0  0  0  0  0  0  0  0  0
   30.2200   18.4448   18.6271 N   0  0  0  0  0  0  0  0  0  0  0  0
   30.2509   17.8834   17.4019 C   0  0  0  0  0  0  0  0  0  0  0  0
   30.9809   18.4497   16.3478 C   0  0  0  0  0  0  0  0  0  0  0  0
   31.6775   19.6316   16.5527 C   0  0  0  0  0  0  0  0  0  0  0  0
  1  3  1  0  0  0  0
  1  4  2  0  0  0  0
  1  5  1  0  0  0  0
  2  6  2  0  0  0  0
  2 11  1  0  0  0  0
  2  5  1  0  0  0  0
  4 10  1  0  0  0  0
  7  8  2  0  0  0  0
  7 12  1  0  0  0  0
  8  9  1  0  0  0  0
  9 10  2  0  0  0  0
 10 11  1  0  0  0  0
 11 12  2  0  0  0  0
M  END
>  <CHROM.1>
30.55204781,17.88679509,16.53598509,2.16271501,-0.93844717,-2.04674782

>  <Name>
ligand

>  <RI>
0

>  <Rbt.Current_Directory>
/home/itssahil/PROJECTS/Mol_Feturizer/New_Systems/rnas/4LX6

>  <Rbt.Executable>
rbdock ($Id: //depot/dev/client3/rdock/2013.1/src/exe/rbdock.cxx#4 $)

>  <Rbt.Library>
libRbt.so (2013.1, Build901 2013/11/27)

>  <Rbt.Parameter_File>
/export/apps/rDock/src/rDock_2013.1_src/data/scripts/dock_solv.prm

>  <Rbt.Receptor>
prm/blind_docking_80.prm

>  <SCORE>
-17.3089

>  <SCORE.INTER>
-17.3089

>  <SCORE.INTER.CONST>
1

>  <SCORE.INTER.POLAR>
0

>  <SCORE.INTER.ROT>
0

>  <SCORE.INTER.SOLV>
11.0084

>  <SCORE.INTER.VDW>
-18.8087

>  <SCORE.INTER.norm>
-1.4424

>  <SCORE.INTRA>
0

>  <SCORE.INTRA.DIHEDRAL>
0

>  <SCORE.INTRA.DIHEDRAL.0>
0

>  <SCORE.INTRA.POLAR>
0

>  <SCORE.INTRA.POLAR.0>
0

>  <SCORE.INTRA.REPUL>
0

>  <SCORE.INTRA.REPUL.0>
0

>  <SCORE.INTRA.SOLV>
0

>  <SCORE.INTRA.SOLV.lig_0>
-28.9128

>  <SCORE.INTRA.VDW>
0

>  <SCORE.INTRA.VDW.0>
0

>  <SCORE.INTRA.norm>
0

>  <SCORE.RESTR>
0

>  <SCORE.RESTR.CAVITY>
0

>  <SCORE.RESTR.norm>
0

>  <SCORE.SYSTEM>
0

>  <SCORE.SYSTEM.CONST>
0

>  <SCORE.SYSTEM.DIHEDRAL>
0

>  <SCORE.SYSTEM.SOLV>
0

>  <SCORE.SYSTEM.norm>
0

>  <SCORE.heavy>
12

>  <SCORE.norm>
-1.4424

>  <RMSD>
2.952

$$$$
ligand
 OpenBabel11021811503D
libRbt.so/2013.1/901 2013/11/27
 12 13  0  0  0  0  0  0  0  0999 V2000
   29.5622   16.0803   16.0188 C   0  0  0  0  0  0  0  0  0  0  0  0
   31.0030   17.7708   15.0754 C   0  0  0  0  0  0  0  0  0  0  0  0
   28.8687   14.9535   15.9041 N   0  0  0  0  0  0  0  0  0  0  0  0
   29.5794   16.7136   17.1960 N   0  0  0  0  0  0  0  0  0  0  0  0
   30.2795   16.5935   14.9222 N   0  0  0  0  0  0  0  0  0  0  0  0
   31.6265   18.2212   14.1103 O   0  0  0  0  0  0  0  0  0  0  0  0
   31.6649   20.2061   17.7848 N   0  0  0  0  0  0  0  0  0  0  0  0
   30.9260   19.6289   18.8294 C   0  0  0  0  0  0  0  0  0  0  0  0
   30.2266   18.4294   18.5985 N   0  0  0  0  0  0  0  0  0  0  0  0
   30.2545   17.8555   17.3790 C   0  0  0  0  0  0  0  0  0  0  0  0
   30.9872   18.4071   16.3192 C   0  0  0  0  0  0  0  0  0  0  0  0
   31.6899   19.5874   16.5120 C   0  0  0  0  0  0  0  0  0  0  0  0
  1  3  1  0  0  0  0
  1  4  2  0  0  0  0
  1  5  1  0  0  0  0
  2  6  2  0  0  0  0
  2 11  1  0  0  0  0
  2  5  1  0  0  0  0
  4 10  1  0  0  0  0
  7  8  2  0  0  0  0
  7 12  1  0  0  0  0
  8  9  1  0  0  0  0
  9 10  2  0  0  0  0
 10 11  1  0  0  0  0
 11 12  2  0  0  0  0
M  END
>  <CHROM.1>
30.55545687,17.84845059,16.51311571,2.16695843,-0.93390239,-2.05350884

>  <Name>
ligand

>  <RI>
0

>  <Rbt.Current_Directory>
/home/itssahil/PROJECTS/Mol_Feturizer/New_Systems/rnas/4LX6

>  <Rbt.Executable>
rbdock ($Id: //depot/dev/client3/rdock/2013.1/src/exe/rbdock.cxx#4 $)

>  <Rbt.Library>
libRbt.so (2013.1, Build901 2013/11/27)

>  <Rbt.Parameter_File>
/export/apps/rDock/src/rDock_2013.1_src/data/scripts/dock_solv.prm

>  <Rbt.Receptor>
prm/pocket_docking_3.prm

>  <SCORE>
-17.3174

>  <SCORE.INTER>
-17.3174

>  <SCORE.INTER.CONST>
1

>  <SCORE.INTER.POLAR>
0

>  <SCORE.INTER.ROT>
0

>  <SCORE.INTER.SOLV>
11.0147

>  <SCORE.INTER.VDW>
-18.8165

>  <SCORE.INTER.norm>
-1.44312

>  <SCORE.INTRA>
0

>  <SCORE.INTRA.DIHEDRAL>
0

>  <SCORE.INTRA.DIHEDRAL.0>
0

>  <SCORE.INTRA.POLAR>
0

>  <SCORE.INTRA.POLAR.0>
0

>  <SCORE.INTRA.REPUL>
0

>  <SCORE.INTRA.REPUL.0>
0

>  <SCORE.INTRA.SOLV>
0

>  <SCORE.INTRA.SOLV.lig_0>
-28.9128

>  <SCORE.INTRA.VDW>
0

>  <SCORE.INTRA.VDW.0>
0

>  <SCORE.INTRA.norm>
0

>  <SCORE.RESTR>
0

>  <SCORE.RESTR.CAVITY>
0

>  <SCORE.RESTR.norm>
0

>  <SCORE.SYSTEM>
0

>  <SCORE.SYSTEM.CONST>
0

>  <SCORE.SYSTEM.DIHEDRAL>
0

>  <SCORE.SYSTEM.SOLV>
0

>  <SCORE.SYSTEM.norm>
0

>  <SCORE.heavy>
12

>  <SCORE.norm>
-1.44312

>  <RMSD>
2.952

$$$$
ligand
 OpenBabel11021811503D
libRbt.so/2013.1/901 2013/11/27
 12 13  0  0  0  0  0  0  0  0999 V2000
   29.5597   16.0881   16.0155 C   0  0  0  0  0  0  0  0  0  0  0  0
   31.0159   17.7704   15.0809 C   0  0  0  0  0  0  0  0  0  0  0  0
   28.8613   14.9649   15.8968 N   0  0  0  0  0  0  0  0  0  0  0  0
   29.5718   16.7225   17.1922 N   0  0  0  0  0  0  0  0  0  0  0  0
   30.2875   16.5967   14.9235 N   0  0  0  0  0  0  0  0  0  0  0  0
   31.6486   18.2166   14.1199 O   0  0  0  0  0  0  0  0  0  0  0  0
   31.6710   20.2047   17.7929 N   0  0  0  0  0  0  0  0  0  0  0  0
   30.9216   19.6322   18.8327 C   0  0  0  0  0  0  0  0  0  0  0  0
   30.2178   18.4362   18.5978 N   0  0  0  0  0  0  0  0  0  0  0  0
   30.2514   17.8610   17.3791 C   0  0  0  0  0  0  0  0  0  0  0  0
   30.9945   18.4079   16.3240 C   0  0  0  0  0  0  0  0  0  0  0  0
   31.7019   19.5847   16.5208 C   0  0  0  0  0  0  0  0  0  0  0  0
  1  3  1  0  0  0  0
  1  4  2  0  0  0  0
  1  5  1  0  0  0  0
  2  6  2  0  0  0  0
  2 11  1  0  0  0  0
  2  5  1  0  0  0  0
  4 10  1  0  0  0  0
  7  8  2  0  0  0  0
  7 12  1  0  0  0  0
  8  9  1  0  0  0  0
  9 10  2  0  0  0  0
 10 11  1  0  0  0  0
 11 12  2  0  0  0  0
M  END
>  <CHROM.1>
30.55851107,17.85160602,16.51534919,2.16039833,-0.92600223,-2.05965268

>  <Name>
ligand

>  <RI>
0

>  <Rbt.Current_Directory>
/home/itssahil/PROJECTS/Mol_Feturizer/New_Systems/rnas/4LX6

>  <Rbt.Executable>
rbdock ($Id: //depot/dev/client3/rdock/2013.1/src/exe/rbdock.cxx#4 $)

>  <Rbt.Library>
libRbt.so (2013.1, Build901 2013/11/27)

>  <Rbt.Parameter_File>
/export/apps/rDock/src/rDock_2013.1_src/data/scripts/dock_solv.prm

>  <Rbt.Receptor>
prm/pocket_docking_3.prm

>  <SCORE>
-17.3116

>  <SCORE.INTER>
-17.3116

>  <SCORE.INTER.CONST>
1

>  <SCORE.INTER.POLAR>
0

>  <SCORE.INTER.ROT>
0

>  <SCORE.INTER.SOLV>
10.9799

>  <SCORE.INTER.VDW>
-18.801

>  <SCORE.INTER.norm>
-1.44263

>  <SCORE.INTRA>
0

>  <SCORE.INTRA.DIHEDRAL>
0

>  <SCORE.INTRA.DIHEDRAL.0>
0

>  <SCORE.INTRA.POLAR>
0

>  <SCORE.INTRA.POLAR.0>
0

>  <SCORE.INTRA.REPUL>
0

>  <SCORE.INTRA.REPUL.0>
0

>  <SCORE.INTRA.SOLV>
0

>  <SCORE.INTRA.SOLV.lig_0>
-28.9128

>  <SCORE.INTRA.VDW>
0

>  <SCORE.INTRA.VDW.0>
0

>  <SCORE.INTRA.norm>
0

>  <SCORE.RESTR>
0

>  <SCORE.RESTR.CAVITY>
0

>  <SCORE.RESTR.norm>
0

>  <SCORE.SYSTEM>
0

>  <SCORE.SYSTEM.CONST>
0

>  <SCORE.SYSTEM.DIHEDRAL>
0

>  <SCORE.SYSTEM.SOLV>
0

>  <SCORE.SYSTEM.norm>
0

>  <SCORE.heavy>
12

>  <SCORE.norm>
-1.44263

>  <RMSD>
2.952

$$$$
ligand
 OpenBabel11021811503D
libRbt.so/2013.1/901 2013/11/27
 12 13  0  0  0  0  0  0  0  0999 V2000
   29.5659   16.1124   16.0246 C   0  0  0  0  0  0  0  0  0  0  0  0
   30.9932   17.8211   15.0934 C   0  0  0  0  0  0  0  0  0  0  0  0
   28.8785   14.9830   15.9008 N   0  0  0  0  0  0  0  0  0  0  0  0
   29.5844   16.7335   17.2084 N   0  0  0  0  0  0  0  0  0  0  0  0
   30.2758   16.6413   14.9306 N   0  0  0  0  0  0  0  0  0  0  0  0
   31.6102   18.2852   14.1306 O   0  0  0  0  0  0  0  0  0  0  0  0
   31.6522   20.2315   17.8257 N   0  0  0  0  0  0  0  0  0  0  0  0
   30.9208   19.6390   18.8670 C   0  0  0  0  0  0  0  0  0  0  0  0
   30.2274   18.4381   18.6263 N   0  0  0  0  0  0  0  0  0  0  0  0
   30.2536   17.8772   17.4007 C   0  0  0  0  0  0  0  0  0  0  0  0
   30.9789   18.4442   16.3438 C   0  0  0  0  0  0  0  0  0  0  0  0
   31.6756   19.6264   16.5462 C   0  0  0  0  0  0  0  0  0  0  0  0
  1  3  1  0  0  0  0
  1  4  2  0  0  0  0
  1  5  1  0  0  0  0
  2  6  2  0  0  0  0
  2 11  1  0  0  0  0
  2  5  1  0  0  0  0
  4 10  1  0  0  0  0
  7  8  2  0  0  0  0
  7 12  1  0  0  0  0
  8  9  1  0  0  0  0
  9 10  2  0  0  0  0
 10 11  1  0  0  0  0
 11 12  2  0  0  0  0
M  END
>  <CHROM.1>
30.55109744,17.88100767,16.53358533,2.16855871,-0.94086321,-2.04167508

>  <Name>
ligand

>  <RI>
0

>  <Rbt.Current_Directory>
/home/itssahil/PROJECTS/Mol_Feturizer/New_Systems/rnas/4LX6

>  <Rbt.Executable>
rbdock ($Id: //depot/dev/client3/rdock/2013.1/src/exe/rbdock.cxx#4 $)

>  <Rbt.Library>
libRbt.so (2013.1, Build901 2013/11/27)

>  <Rbt.Parameter_File>
/export/apps/rDock/src/rDock_2013.1_src/data/scripts/dock_solv.prm

>  <Rbt.Receptor>
prm/pocket_docking_3.prm

>  <SCORE>
-17.3142

>  <SCORE.INTER>
-17.3142

>  <SCORE.INTER.CONST>
1

>  <SCORE.INTER.POLAR>
0

>  <SCORE.INTER.ROT>
0

>  <SCORE.INTER.SOLV>
11.0034

>  <SCORE.INTER.VDW>
-18.8106

>  <SCORE.INTER.norm>
-1.44285

>  <SCORE.INTRA>
0

>  <SCORE.INTRA.DIHEDRAL>
0

>  <SCORE.INTRA.DIHEDRAL.0>
0

>  <SCORE.INTRA.POLAR>
0

>  <SCORE.INTRA.POLAR.0>
0

>  <SCORE.INTRA.REPUL>
0

>  <SCORE.INTRA.REPUL.0>
0

>  <SCORE.INTRA.SOLV>
0

>  <SCORE.INTRA.SOLV.lig_0>
-28.9128

>  <SCORE.INTRA.VDW>
0

>  <SCORE.INTRA.VDW.0>
0

>  <SCORE.INTRA.norm>
0

>  <SCORE.RESTR>
0

>  <SCORE.RESTR.CAVITY>
0

>  <SCORE.RESTR.norm>
0

>  <SCORE.SYSTEM>
0

>  <SCORE.SYSTEM.CONST>
0

>  <SCORE.SYSTEM.DIHEDRAL>
0

>  <SCORE.SYSTEM.SOLV>
0

>  <SCORE.SYSTEM.norm>
0

>  <SCORE.heavy>
12

>  <SCORE.norm>
-1.44285

>  <RMSD>
2.952

$$$$
ligand
 OpenBabel11021811503D
libRbt.so/2013.1/901 2013/11/27
 12 13  0  0  0  0  0  0  0  0999 V2000
   29.5595   16.0827   16.0159 C   0  0  0  0  0  0  0  0  0  0  0  0
   31.0056   17.7714   15.0773 C   0  0  0  0  0  0  0  0  0  0  0  0
   28.8642   14.9574   15.8986 N   0  0  0  0  0  0  0  0  0  0  0  0
   29.5754   16.7149   17.1938 N   0  0  0  0  0  0  0  0  0  0  0  0
   30.2802   16.5956   14.9214 N   0  0  0  0  0  0  0  0  0  0  0  0
   31.6321   18.2214   14.1140 O   0  0  0  0  0  0  0  0  0  0  0  0
   31.6663   20.2028   17.7904 N   0  0  0  0  0  0  0  0  0  0  0  0
   30.9240   19.6260   18.8328 C   0  0  0  0  0  0  0  0  0  0  0  0
   30.2228   18.4281   18.5993 N   0  0  0  0  0  0  0  0  0  0  0  0
   30.2522   17.8553   17.3794 C   0  0  0  0  0  0  0  0  0  0  0  0
   30.9884   18.4065   16.3216 C   0  0  0  0  0  0  0  0  0  0  0  0
   31.6929   19.5853   16.5170 C   0  0  0  0  0  0  0  0  0  0  0  0
  1  3  1  0  0  0  0
  1  4  2  0  0  0  0
  1  5  1  0  0  0  0
  2  6  2  0  0  0  0
  2 11  1  0  0  0  0
  2  5  1  0  0  0  0
  4 10  1  0  0  0  0
  7  8  2  0  0  0  0
  7 12  1  0  0  0  0
  8  9  1  0  0  0  0
  9 10  2  0  0  0  0
 10 11  1  0  0  0  0
 11 12  2  0  0  0  0
M  END
>  <CHROM.1>
30.55510987,17.84848232,16.51408865,2.16520207,-0.93118754,-2.05398024

>  <Name>
ligand

>  <RI>
0

>  <Rbt.Current_Directory>
/home/itssahil/PROJECTS/Mol_Feturizer/New_Systems/rnas/4LX6

>  <Rbt.Executable>
rbdock ($Id: //depot/dev/client3/rdock/2013.1/src/exe/rbdock.cxx#4 $)

>  <Rbt.Library>
libRbt.so (2013.1, Build901 2013/11/27)

>  <Rbt.Parameter_File>
/export/apps/rDock/src/rDock_2013.1_src/data/scripts/dock_solv.prm

>  <Rbt.Receptor>
prm/pocket_docking_3.prm

>  <SCORE>
-17.3176

>  <SCORE.INTER>
-17.3176

>  <SCORE.INTER.CONST>
1

>  <SCORE.INTER.POLAR>
0

>  <SCORE.INTER.ROT>
0

>  <SCORE.INTER.SOLV>
10.9941

>  <SCORE.INTER.VDW>
-18.8098

>  <SCORE.INTER.norm>
-1.44314

>  <SCORE.INTRA>
0

>  <SCORE.INTRA.DIHEDRAL>
0

>  <SCORE.INTRA.DIHEDRAL.0>
0

>  <SCORE.INTRA.POLAR>
0

>  <SCORE.INTRA.POLAR.0>
0

>  <SCORE.INTRA.REPUL>
0

>  <SCORE.INTRA.REPUL.0>
0

>  <SCORE.INTRA.SOLV>
0

>  <SCORE.INTRA.SOLV.lig_0>
-28.9128

>  <SCORE.INTRA.VDW>
0

>  <SCORE.INTRA.VDW.0>
0

>  <SCORE.INTRA.norm>
0

>  <SCORE.RESTR>
0

>  <SCORE.RESTR.CAVITY>
0

>  <SCORE.RESTR.norm>
0

>  <SCORE.SYSTEM>
0

>  <SCORE.SYSTEM.CONST>
0

>  <SCORE.SYSTEM.DIHEDRAL>
0

>  <SCORE.SYSTEM.SOLV>
0

>  <SCORE.SYSTEM.norm>
0

>  <SCORE.heavy>
12

>  <SCORE.norm>
-1.44314

>  <RMSD>
2.952

$$$$
ligand
 OpenBabel11021811503D
libRbt.so/2013.1/901 2013/11/27
 12 13  0  0  0  0  0  0  0  0999 V2000
   29.5658   16.1029   16.0219 C   0  0  0  0  0  0  0  0  0  0  0  0
   30.9798   17.8206   15.0870 C   0  0  0  0  0  0  0  0  0  0  0  0
   28.8824   14.9710   15.8989 N   0  0  0  0  0  0  0  0  0  0  0  0
   29.5891   16.7203   17.2074 N   0  0  0  0  0  0  0  0  0  0  0  0
   30.2664   16.6383   14.9251 N   0  0  0  0  0  0  0  0  0  0  0  0
   31.5887   18.2903   14.1218 O   0  0  0  0  0  0  0  0  0  0  0  0
   31.6459   20.2253   17.8227 N   0  0  0  0  0  0  0  0  0  0  0  0
   30.9237   19.6264   18.8668 C   0  0  0  0  0  0  0  0  0  0  0  0
   30.2339   18.4232   18.6266 N   0  0  0  0  0  0  0  0  0  0  0  0
   30.2547   17.8663   17.3992 C   0  0  0  0  0  0  0  0  0  0  0  0
   30.9708   18.4397   16.3395 C   0  0  0  0  0  0  0  0  0  0  0  0
   31.6637   19.6243   16.5412 C   0  0  0  0  0  0  0  0  0  0  0  0
  1  3  1  0  0  0  0
  1  4  2  0  0  0  0
  1  5  1  0  0  0  0
  2  6  2  0  0  0  0
  2 11  1  0  0  0  0
  2  5  1  0  0  0  0
  4 10  1  0  0  0  0
  7  8  2  0  0  0  0
  7 12  1  0  0  0  0
  8  9  1  0  0  0  0
  9 10  2  0  0  0  0
 10 11  1  0  0  0  0
 11 12  2  0  0  0  0
M  END
>  <CHROM.1>
30.54661210,17.87410725,16.53018120,2.17496732,-0.94752989,-2.03334015

>  <Name>
ligand

>  <RI>
0

>  <Rbt.Current_Directory>
/home/itssahil/PROJECTS/Mol_Feturizer/New_Systems/rnas/4LX6

>  <Rbt.Executable>
rbdock ($Id: //depot/dev/client3/rdock/2013.1/src/exe/rbdock.cxx#4 $)

>  <Rbt.Library>
libRbt.so (2013.1, Build901 2013/11/27)

>  <Rbt.Parameter_File>
/export/apps/rDock/src/rDock_2013.1_src/data/scripts/dock_solv.prm

>  <Rbt.Receptor>
prm/pocket_docking_3.prm

>  <SCORE>
-17.3187

>  <SCORE.INTER>
-17.3187

>  <SCORE.INTER.CONST>
1

>  <SCORE.INTER.POLAR>
0

>  <SCORE.INTER.ROT>
0

>  <SCORE.INTER.SOLV>
11.0265

>  <SCORE.INTER.VDW>
-18.8213

>  <SCORE.INTER.norm>
-1.44322

>  <SCORE.INTRA>
0

>  <SCORE.INTRA.DIHEDRAL>
0

>  <SCORE.INTRA.DIHEDRAL.0>
0

>  <SCORE.INTRA.POLAR>
0

>  <SCORE.INTRA.POLAR.0>
0

>  <SCORE.INTRA.REPUL>
0

>  <SCORE.INTRA.REPUL.0>
0

>  <SCORE.INTRA.SOLV>
0

>  <SCORE.INTRA.SOLV.lig_0>
-28.9128

>  <SCORE.INTRA.VDW>
0

>  <SCORE.INTRA.VDW.0>
0

>  <SCORE.INTRA.norm>
0

>  <SCORE.RESTR>
0

>  <SCORE.RESTR.CAVITY>
0

>  <SCORE.RESTR.norm>
0

>  <SCORE.SYSTEM>
0

>  <SCORE.SYSTEM.CONST>
0

>  <SCORE.SYSTEM.DIHEDRAL>
0

>  <SCORE.SYSTEM.SOLV>
0

>  <SCORE.SYSTEM.norm>
0

>  <SCORE.heavy>
12

>  <SCORE.norm>
-1.44322

>  <RMSD>
2.952

$$$$
ligand
 OpenBabel11021811503D
libRbt.so/2013.1/901 2013/11/27
 12 13  0  0  0  0  0  0  0  0999 V2000
   29.5676   16.0930   16.0313 C   0  0  0  0  0  0  0  0  0  0  0  0
   30.9553   17.8149   15.0650 C   0  0  0  0  0  0  0  0  0  0  0  0
   28.8897   14.9561   15.9251 N   0  0  0  0  0  0  0  0  0  0  0  0
   29.6060   16.7167   17.2132 N   0  0  0  0  0  0  0  0  0  0  0  0
   30.2471   16.6272   14.9206 N   0  0  0  0  0  0  0  0  0  0  0  0
   31.5455   18.2834   14.0877 O   0  0  0  0  0  0  0  0  0  0  0  0
   31.6497   20.2379   17.7773 N   0  0  0  0  0  0  0  0  0  0  0  0
   30.9483   19.6398   18.8359 C   0  0  0  0  0  0  0  0  0  0  0  0
   30.2625   18.4311   18.6131 N   0  0  0  0  0  0  0  0  0  0  0  0
   30.2671   17.8679   17.3883 C   0  0  0  0  0  0  0  0  0  0  0  0
   30.9624   18.4404   16.3143 C   0  0  0  0  0  0  0  0  0  0  0  0
   31.6508   19.6304   16.4988 C   0  0  0  0  0  0  0  0  0  0  0  0
  1  3  1  0  0  0  0
  1  4  2  0  0  0  0
  1  5  1  0  0  0  0
  2  6  2  0  0  0  0
  2 11  1  0  0  0  0
  2  5  1  0  0  0  0
  4 10  1  0  0  0  0
  7  8  2  0  0  0  0
  7 12  1  0  0  0  0
  8  9  1  0  0  0  0
  9 10  2  0  0  0  0
 10 11  1  0  0  0  0
 11 12  2  0  0  0  0
M  END
>  <CHROM.1>
30.54501838,17.87306548,16.51468494,2.19505000,-0.96041759,-2.02209738

>  <Name>
ligand

>  <RI>
0

>  <Rbt.Current_Directory>
/home/itssahil/PROJECTS/Mol_Feturizer/New_Systems/rnas/4LX6

>  <Rbt.Executable>
rbdock ($Id: //depot/dev/client3/rdock/2013.1/src/exe/rbdock.cxx#4 $)

>  <Rbt.Library>
libRbt.so (2013.1, Build901 2013/11/27)

>  <Rbt.Parameter_File>
/export/apps/rDock/src/rDock_2013.1_src/data/scripts/dock_solv.prm

>  <Rbt.Receptor>
prm/pocket_docking_3.prm

>  <SCORE>
-17.283

>  <SCORE.INTER>
-17.283

>  <SCORE.INTER.CONST>
1

>  <SCORE.INTER.POLAR>
0

>  <SCORE.INTER.ROT>
0

>  <SCORE.INTER.SOLV>
11.061

>  <SCORE.INTER.VDW>
-18.809

>  <SCORE.INTER.norm>
-1.44025

>  <SCORE.INTRA>
0

>  <SCORE.INTRA.DIHEDRAL>
0

>  <SCORE.INTRA.DIHEDRAL.0>
0

>  <SCORE.INTRA.POLAR>
0

>  <SCORE.INTRA.POLAR.0>
0

>  <SCORE.INTRA.REPUL>
0

>  <SCORE.INTRA.REPUL.0>
0

>  <SCORE.INTRA.SOLV>
0

>  <SCORE.INTRA.SOLV.lig_0>
-28.9128

>  <SCORE.INTRA.VDW>
0

>  <SCORE.INTRA.VDW.0>
0

>  <SCORE.INTRA.norm>
0

>  <SCORE.RESTR>
0

>  <SCORE.RESTR.CAVITY>
0

>  <SCORE.RESTR.norm>
0

>  <SCORE.SYSTEM>
0

>  <SCORE.SYSTEM.CONST>
0

>  <SCORE.SYSTEM.DIHEDRAL>
0

>  <SCORE.SYSTEM.SOLV>
0

>  <SCORE.SYSTEM.norm>
0

>  <SCORE.heavy>
12

>  <SCORE.norm>
-1.44025

>  <RMSD>
2.952

$$$$
ligand
 OpenBabel11021811503D
libRbt.so/2013.1/901 2013/11/27
 12 13  0  0  0  0  0  0  0  0999 V2000
   29.5607   16.0972   16.0162 C   0  0  0  0  0  0  0  0  0  0  0  0
   31.0262   17.7765   15.0908 C   0  0  0  0  0  0  0  0  0  0  0  0
   28.8580   14.9773   15.8921 N   0  0  0  0  0  0  0  0  0  0  0  0
   29.5727   16.7276   17.1951 N   0  0  0  0  0  0  0  0  0  0  0  0
   30.2933   16.6064   14.9278 N   0  0  0  0  0  0  0  0  0  0  0  0
   31.6631   18.2233   14.1328 O   0  0  0  0  0  0  0  0  0  0  0  0
   31.6848   20.1991   17.8124 N   0  0  0  0  0  0  0  0  0  0  0  0
   30.9306   19.6263   18.8484 C   0  0  0  0  0  0  0  0  0  0  0  0
   30.2224   18.4340   18.6079 N   0  0  0  0  0  0  0  0  0  0  0  0
   30.2565   17.8627   17.3874 C   0  0  0  0  0  0  0  0  0  0  0  0
   31.0045   18.4100   16.3359 C   0  0  0  0  0  0  0  0  0  0  0  0
   31.7163   19.5832   16.5383 C   0  0  0  0  0  0  0  0  0  0  0  0
  1  3  1  0  0  0  0
  1  4  2  0  0  0  0
  1  5  1  0  0  0  0
  2  6  2  0  0  0  0
  2 11  1  0  0  0  0
  2  5  1  0  0  0  0
  4 10  1  0  0  0  0
  7  8  2  0  0  0  0
  7 12  1  0  0  0  0
  8  9  1  0  0  0  0
  9 10  2  0  0  0  0
 10 11  1  0  0  0  0
 11 12  2  0  0  0  0
M  END
>  <CHROM.1>
30.56570831,17.85487515,16.52434539,2.16011372,-0.92120330,-2.05657270

>  <Name>
ligand

>  <RI>
0

>  <Rbt.Current_Directory>
/home/itssahil/PROJECTS/Mol_Feturizer/New_Systems/rnas/4LX6

>  <Rbt.Executable>
rbdock ($Id: //depot/dev/client3/rdock/2013.1/src/exe/rbdock.cxx#4 $)

>  <Rbt.Library>
libRbt.so (2013.1, Build901 2013/11/27)

>  <Rbt.Parameter_File>
/export/apps/rDock/src/rDock_2013.1_src/data/scripts/dock_solv.prm

>  <Rbt.Receptor>
prm/pocket_docking_4.prm

>  <SCORE>
-17.312

>  <SCORE.INTER>
-17.312

>  <SCORE.INTER.CONST>
1

>  <SCORE.INTER.POLAR>
0

>  <SCORE.INTER.ROT>
0

>  <SCORE.INTER.SOLV>
10.9503

>  <SCORE.INTER.VDW>
-18.7914

>  <SCORE.INTER.norm>
-1.44266

>  <SCORE.INTRA>
0

>  <SCORE.INTRA.DIHEDRAL>
0

>  <SCORE.INTRA.DIHEDRAL.0>
0

>  <SCORE.INTRA.POLAR>
0

>  <SCORE.INTRA.POLAR.0>
0

>  <SCORE.INTRA.REPUL>
0

>  <SCORE.INTRA.REPUL.0>
0

>  <SCORE.INTRA.SOLV>
0

>  <SCORE.INTRA.SOLV.lig_0>
-28.9128

>  <SCORE.INTRA.VDW>
0

>  <SCORE.INTRA.VDW.0>
0

>  <SCORE.INTRA.norm>
0

>  <SCORE.RESTR>
0

>  <SCORE.RESTR.CAVITY>
0

>  <SCORE.RESTR.norm>
0

>  <SCORE.SYSTEM>
0

>  <SCORE.SYSTEM.CONST>
0

>  <SCORE.SYSTEM.DIHEDRAL>
0

>  <SCORE.SYSTEM.SOLV>
0

>  <SCORE.SYSTEM.norm>
0

>  <SCORE.heavy>
12

>  <SCORE.norm>
-1.44266

>  <RMSD>
2.952

$$$$
ligand
 OpenBabel11021811503D
libRbt.so/2013.1/901 2013/11/27
 12 13  0  0  0  0  0  0  0  0999 V2000
   29.5629   16.1020   16.0204 C   0  0  0  0  0  0  0  0  0  0  0  0
   30.9775   17.8206   15.0879 C   0  0  0  0  0  0  0  0  0  0  0  0
   28.8805   14.9695   15.8962 N   0  0  0  0  0  0  0  0  0  0  0  0
   29.5837   16.7194   17.2060 N   0  0  0  0  0  0  0  0  0  0  0  0
   30.2652   16.6378   14.9248 N   0  0  0  0  0  0  0  0  0  0  0  0
   31.5877   18.2906   14.1237 O   0  0  0  0  0  0  0  0  0  0  0  0
   31.6371   20.2258   17.8246 N   0  0  0  0  0  0  0  0  0  0  0  0
   30.9135   19.6265   18.8675 C   0  0  0  0  0  0  0  0  0  0  0  0
   30.2249   18.4229   18.6262 N   0  0  0  0  0  0  0  0  0  0  0  0
   30.2482   17.8659   17.3988 C   0  0  0  0  0  0  0  0  0  0  0  0
   30.9658   18.4397   16.3404 C   0  0  0  0  0  0  0  0  0  0  0  0
   31.6576   19.6247   16.5432 C   0  0  0  0  0  0  0  0  0  0  0  0
  1  3  1  0  0  0  0
  1  4  2  0  0  0  0
  1  5  1  0  0  0  0
  2  6  2  0  0  0  0
  2 11  1  0  0  0  0
  2  5  1  0  0  0  0
  4 10  1  0  0  0  0
  7  8  2  0  0  0  0
  7 12  1  0  0  0  0
  8  9  1  0  0  0  0
  9 10  2  0  0  0  0
 10 11  1  0  0  0  0
 11 12  2  0  0  0  0
M  END
>  <CHROM.1>
30.54167875,17.87383654,16.53032886,2.17175462,-0.94734771,-2.03600117

>  <Name>
ligand

>  <RI>
0

>  <Rbt.Current_Directory>
/home/itssahil/PROJECTS/Mol_Feturizer/New_Systems/rnas/4LX6

>  <Rbt.Executable>
rbdock ($Id: //depot/dev/client3/rdock/2013.1/src/exe/rbdock.cxx#4 $)

>  <Rbt.Library>
libRbt.so (2013.1, Build901 2013/11/27)

>  <Rbt.Parameter_File>
/export/apps/rDock/src/rDock_2013.1_src/data/scripts/dock_solv.prm

>  <Rbt.Receptor>
prm/pocket_docking_4.prm

>  <SCORE>
-17.3197

>  <SCORE.INTER>
-17.3197

>  <SCORE.INTER.CONST>
1

>  <SCORE.INTER.POLAR>
0

>  <SCORE.INTER.ROT>
0

>  <SCORE.INTER.SOLV>
11.0217

>  <SCORE.INTER.VDW>
-18.8203

>  <SCORE.INTER.norm>
-1.44331

>  <SCORE.INTRA>
0

>  <SCORE.INTRA.DIHEDRAL>
0

>  <SCORE.INTRA.DIHEDRAL.0>
0

>  <SCORE.INTRA.POLAR>
0

>  <SCORE.INTRA.POLAR.0>
0

>  <SCORE.INTRA.REPUL>
0

>  <SCORE.INTRA.REPUL.0>
0

>  <SCORE.INTRA.SOLV>
0

>  <SCORE.INTRA.SOLV.lig_0>
-28.9128

>  <SCORE.INTRA.VDW>
0

>  <SCORE.INTRA.VDW.0>
0

>  <SCORE.INTRA.norm>
0

>  <SCORE.RESTR>
0

>  <SCORE.RESTR.CAVITY>
0

>  <SCORE.RESTR.norm>
0

>  <SCORE.SYSTEM>
0

>  <SCORE.SYSTEM.CONST>
0

>  <SCORE.SYSTEM.DIHEDRAL>
0

>  <SCORE.SYSTEM.SOLV>
0

>  <SCORE.SYSTEM.norm>
0

>  <SCORE.heavy>
12

>  <SCORE.norm>
-1.44331

>  <RMSD>
2.952

$$$$
ligand
 OpenBabel11021811503D
libRbt.so/2013.1/901 2013/11/27
 12 13  0  0  0  0  0  0  0  0999 V2000
   29.5611   16.0880   16.0181 C   0  0  0  0  0  0  0  0  0  0  0  0
   31.0118   17.7731   15.0799 C   0  0  0  0  0  0  0  0  0  0  0  0
   28.8639   14.9639   15.9008 N   0  0  0  0  0  0  0  0  0  0  0  0
   29.5764   16.7214   17.1953 N   0  0  0  0  0  0  0  0  0  0  0  0
   30.2844   16.5985   14.9241 N   0  0  0  0  0  0  0  0  0  0  0  0
   31.6405   18.2210   14.1171 O   0  0  0  0  0  0  0  0  0  0  0  0
   31.6727   20.2061   17.7916 N   0  0  0  0  0  0  0  0  0  0  0  0
   30.9278   19.6317   18.8335 C   0  0  0  0  0  0  0  0  0  0  0  0
   30.2248   18.4348   18.6001 N   0  0  0  0  0  0  0  0  0  0  0  0
   30.2550   17.8607   17.3808 C   0  0  0  0  0  0  0  0  0  0  0  0
   30.9938   18.4095   16.3236 C   0  0  0  0  0  0  0  0  0  0  0  0
   31.7001   19.5872   16.5189 C   0  0  0  0  0  0  0  0  0  0  0  0
  1  3  1  0  0  0  0
  1  4  2  0  0  0  0
  1  5  1  0  0  0  0
  2  6  2  0  0  0  0
  2 11  1  0  0  0  0
  2  5  1  0  0  0  0
  4 10  1  0  0  0  0
  7  8  2  0  0  0  0
  7 12  1  0  0  0  0
  8  9  1  0  0  0  0
  9 10  2  0  0  0  0
 10 11  1  0  0  0  0
 11 12  2  0  0  0  0
M  END
>  <CHROM.1>
30.55919169,17.85247711,16.51597034,2.16437789,-0.92887209,-2.05564243

>  <Name>
ligand

>  <RI>
0

>  <Rbt.Current_Directory>
/home/itssahil/PROJECTS/Mol_Feturizer/New_Systems/rnas/4LX6

>  <Rbt.Executable>
rbdock ($Id: //depot/dev/client3/rdock/2013.1/src/exe/rbdock.cxx#4 $)

>  <Rbt.Library>
libRbt.so (2013.1, Build901 2013/11/27)

>  <Rbt.Parameter_File>
/export/apps/rDock/src/rDock_2013.1_src/data/scripts/dock_solv.prm

>  <Rbt.Receptor>
prm/pocket_docking_4.prm

>  <SCORE>
-17.3161

>  <SCORE.INTER>
-17.3161

>  <SCORE.INTER.CONST>
1

>  <SCORE.INTER.POLAR>
0

>  <SCORE.INTER.ROT>
0

>  <SCORE.INTER.SOLV>
10.9874

>  <SCORE.INTER.VDW>
-18.8065

>  <SCORE.INTER.norm>
-1.443

>  <SCORE.INTRA>
0

>  <SCORE.INTRA.DIHEDRAL>
0

>  <SCORE.INTRA.DIHEDRAL.0>
0

>  <SCORE.INTRA.POLAR>
0

>  <SCORE.INTRA.POLAR.0>
0

>  <SCORE.INTRA.REPUL>
0

>  <SCORE.INTRA.REPUL.0>
0

>  <SCORE.INTRA.SOLV>
0

>  <SCORE.INTRA.SOLV.lig_0>
-28.9128

>  <SCORE.INTRA.VDW>
0

>  <SCORE.INTRA.VDW.0>
0

>  <SCORE.INTRA.norm>
0

>  <SCORE.RESTR>
0

>  <SCORE.RESTR.CAVITY>
0

>  <SCORE.RESTR.norm>
0

>  <SCORE.SYSTEM>
0

>  <SCORE.SYSTEM.CONST>
0

>  <SCORE.SYSTEM.DIHEDRAL>
0

>  <SCORE.SYSTEM.SOLV>
0

>  <SCORE.SYSTEM.norm>
0

>  <SCORE.heavy>
12

>  <SCORE.norm>
-1.443

>  <RMSD>
2.952

$$$$
ligand
 OpenBabel11021811503D
libRbt.so/2013.1/901 2013/11/27
 12 13  0  0  0  0  0  0  0  0999 V2000
   29.5605   16.1016   16.0148 C   0  0  0  0  0  0  0  0  0  0  0  0
   31.0346   17.7783   15.0985 C   0  0  0  0  0  0  0  0  0  0  0  0
   28.8549   14.9840   15.8857 N   0  0  0  0  0  0  0  0  0  0  0  0
   29.5696   16.7296   17.1949 N   0  0  0  0  0  0  0  0  0  0  0  0
   30.2988   16.6107   14.9302 N   0  0  0  0  0  0  0  0  0  0  0  0
   31.6765   18.2251   14.1439 O   0  0  0  0  0  0  0  0  0  0  0  0
   31.6896   20.1935   17.8275 N   0  0  0  0  0  0  0  0  0  0  0  0
   30.9296   19.6209   18.8594 C   0  0  0  0  0  0  0  0  0  0  0  0
   30.2188   18.4311   18.6137 N   0  0  0  0  0  0  0  0  0  0  0  0
   30.2561   17.8622   17.3922 C   0  0  0  0  0  0  0  0  0  0  0  0
   31.0098   18.4094   16.3448 C   0  0  0  0  0  0  0  0  0  0  0  0
   31.7242   19.5801   16.5523 C   0  0  0  0  0  0  0  0  0  0  0  0
  1  3  1  0  0  0  0
  1  4  2  0  0  0  0
  1  5  1  0  0  0  0
  2  6  2  0  0  0  0
  2 11  1  0  0  0  0
  2  5  1  0  0  0  0
  4 10  1  0  0  0  0
  7  8  2  0  0  0  0
  7 12  1  0  0  0  0
  8  9  1  0  0  0  0
  9 10  2  0  0  0  0
 10 11  1  0  0  0  0
 11 12  2  0  0  0  0
M  END
>  <CHROM.1>
30.56863202,17.85520040,16.53037506,2.15665378,-0.91674827,-2.05731556

>  <Name>
ligand

>  <RI>
0

>  <Rbt.Current_Directory>
/home/itssahil/PROJECTS/Mol_Feturizer/New_Systems/rnas/4LX6

>  <Rbt.Executable>
rbdock ($Id: //depot/dev/client3/rdock/2013.1/src/exe/rbdock.cxx#4 $)

>  <Rbt.Library>
libRbt.so (2013.1, Build901 2013/11/27)

>  <Rbt.Parameter_File>
/export/apps/rDock/src/rDock_2013.1_src/data/scripts/dock_solv.prm

>  <Rbt.Receptor>
prm/pocket_docking_5.prm

>  <SCORE>
-17.3076

>  <SCORE.INTER>
-17.3076

>  <SCORE.INTER.CONST>
1

>  <SCORE.INTER.POLAR>
0

>  <SCORE.INTER.ROT>
0

>  <SCORE.INTER.SOLV>
10.9307

>  <SCORE.INTER.VDW>
-18.782

>  <SCORE.INTER.norm>
-1.4423

>  <SCORE.INTRA>
0

>  <SCORE.INTRA.DIHEDRAL>
0

>  <SCORE.INTRA.DIHEDRAL.0>
0

>  <SCORE.INTRA.POLAR>
0

>  <SCORE.INTRA.POLAR.0>
0

>  <SCORE.INTRA.REPUL>
0

>  <SCORE.INTRA.REPUL.0>
0

>  <SCORE.INTRA.SOLV>
0

>  <SCORE.INTRA.SOLV.lig_0>
-28.9128

>  <SCORE.INTRA.VDW>
0

>  <SCORE.INTRA.VDW.0>
0

>  <SCORE.INTRA.norm>
0

>  <SCORE.RESTR>
0

>  <SCORE.RESTR.CAVITY>
0

>  <SCORE.RESTR.norm>
0

>  <SCORE.SYSTEM>
0

>  <SCORE.SYSTEM.CONST>
0

>  <SCORE.SYSTEM.DIHEDRAL>
0

>  <SCORE.SYSTEM.SOLV>
0

>  <SCORE.SYSTEM.norm>
0

>  <SCORE.heavy>
12

>  <SCORE.norm>
-1.4423

>  <RMSD>
2.952

$$$$
ligand
 OpenBabel11021811503D
libRbt.so/2013.1/901 2013/11/27
 12 13  0  0  0  0  0  0  0  0999 V2000
   29.5642   16.1042   16.0208 C   0  0  0  0  0  0  0  0  0  0  0  0
   30.9776   17.8220   15.0853 C   0  0  0  0  0  0  0  0  0  0  0  0
   28.8793   14.9731   15.8975 N   0  0  0  0  0  0  0  0  0  0  0  0
   29.5912   16.7195   17.2073 N   0  0  0  0  0  0  0  0  0  0  0  0
   30.2626   16.6407   14.9231 N   0  0  0  0  0  0  0  0  0  0  0  0
   31.5845   18.2928   14.1193 O   0  0  0  0  0  0  0  0  0  0  0  0
   31.6531   20.2212   17.8234 N   0  0  0  0  0  0  0  0  0  0  0  0
   30.9330   19.6213   18.8683 C   0  0  0  0  0  0  0  0  0  0  0  0
   30.2413   18.4192   18.6278 N   0  0  0  0  0  0  0  0  0  0  0  0
   30.2584   17.8644   17.3994 C   0  0  0  0  0  0  0  0  0  0  0  0
   30.9724   18.4389   16.3389 C   0  0  0  0  0  0  0  0  0  0  0  0
   31.6670   19.6224   16.5409 C   0  0  0  0  0  0  0  0  0  0  0  0
  1  3  1  0  0  0  0
  1  4  2  0  0  0  0
  1  5  1  0  0  0  0
  2  6  2  0  0  0  0
  2 11  1  0  0  0  0
  2  5  1  0  0  0  0
  4 10  1  0  0  0  0
  7  8  2  0  0  0  0
  7 12  1  0  0  0  0
  8  9  1  0  0  0  0
  9 10  2  0  0  0  0
 10 11  1  0  0  0  0
 11 12  2  0  0  0  0
M  END
>  <CHROM.1>
30.54813200,17.87342496,16.52963341,2.17966686,-0.94773896,-2.02778205

>  <Name>
ligand

>  <RI>
0

>  <Rbt.Current_Directory>
/home/itssahil/PROJECTS/Mol_Feturizer/New_Systems/rnas/4LX6

>  <Rbt.Executable>
rbdock ($Id: //depot/dev/client3/rdock/2013.1/src/exe/rbdock.cxx#4 $)

>  <Rbt.Library>
libRbt.so (2013.1, Build901 2013/11/27)

>  <Rbt.Parameter_File>
/export/apps/rDock/src/rDock_2013.1_src/data/scripts/dock_solv.prm

>  <Rbt.Receptor>
prm/pocket_docking_5.prm

>  <SCORE>
-17.3195

>  <SCORE.INTER>
-17.3195

>  <SCORE.INTER.CONST>
1

>  <SCORE.INTER.POLAR>
0

>  <SCORE.INTER.ROT>
0

>  <SCORE.INTER.SOLV>
11.0095

>  <SCORE.INTER.VDW>
-18.8162

>  <SCORE.INTER.norm>
-1.44329

>  <SCORE.INTRA>
0

>  <SCORE.INTRA.DIHEDRAL>
0

>  <SCORE.INTRA.DIHEDRAL.0>
0

>  <SCORE.INTRA.POLAR>
0

>  <SCORE.INTRA.POLAR.0>
0

>  <SCORE.INTRA.REPUL>
0

>  <SCORE.INTRA.REPUL.0>
0

>  <SCORE.INTRA.SOLV>
0

>  <SCORE.INTRA.SOLV.lig_0>
-28.9128

>  <SCORE.INTRA.VDW>
0

>  <SCORE.INTRA.VDW.0>
0

>  <SCORE.INTRA.norm>
0

>  <SCORE.RESTR>
0

>  <SCORE.RESTR.CAVITY>
0

>  <SCORE.RESTR.norm>
0

>  <SCORE.SYSTEM>
0

>  <SCORE.SYSTEM.CONST>
0

>  <SCORE.SYSTEM.DIHEDRAL>
0

>  <SCORE.SYSTEM.SOLV>
0

>  <SCORE.SYSTEM.norm>
0

>  <SCORE.heavy>
12

>  <SCORE.norm>
-1.44329

>  <RMSD>
2.952

$$$$
ligand
 OpenBabel11021811503D
libRbt.so/2013.1/901 2013/11/27
 12 13  0  0  0  0  0  0  0  0999 V2000
   29.5661   16.1169   16.0232 C   0  0  0  0  0  0  0  0  0  0  0  0
   30.9925   17.8271   15.0933 C   0  0  0  0  0  0  0  0  0  0  0  0
   28.8779   14.9881   15.8980 N   0  0  0  0  0  0  0  0  0  0  0  0
   29.5871   16.7351   17.2084 N   0  0  0  0  0  0  0  0  0  0  0  0
   30.2742   16.6480   14.9291 N   0  0  0  0  0  0  0  0  0  0  0  0
   31.6079   18.2931   14.1305 O   0  0  0  0  0  0  0  0  0  0  0  0
   31.6578   20.2306   17.8301 N   0  0  0  0  0  0  0  0  0  0  0  0
   30.9281   19.6360   18.8714 C   0  0  0  0  0  0  0  0  0  0  0  0
   30.2337   18.4360   18.6291 N   0  0  0  0  0  0  0  0  0  0  0  0
   30.2572   17.8780   17.4022 C   0  0  0  0  0  0  0  0  0  0  0  0
   30.9808   18.4472   16.3453 C   0  0  0  0  0  0  0  0  0  0  0  0
   31.6785   19.6286   16.5492 C   0  0  0  0  0  0  0  0  0  0  0  0
  1  3  1  0  0  0  0
  1  4  2  0  0  0  0
  1  5  1  0  0  0  0
  2  6  2  0  0  0  0
  2 11  1  0  0  0  0
  2  5  1  0  0  0  0
  4 10  1  0  0  0  0
  7  8  2  0  0  0  0
  7 12  1  0  0  0  0
  8  9  1  0  0  0  0
  9 10  2  0  0  0  0
 10 11  1  0  0  0  0
 11 12  2  0  0  0  0
M  END
>  <CHROM.1>
30.55309345,17.88375299,16.53452392,2.17180516,-0.94127129,-2.03666873

>  <Name>
ligand

>  <RI>
0

>  <Rbt.Current_Directory>
/home/itssahil/PROJECTS/Mol_Feturizer/New_Systems/rnas/4LX6

>  <Rbt.Executable>
rbdock ($Id: //depot/dev/client3/rdock/2013.1/src/exe/rbdock.cxx#4 $)

>  <Rbt.Library>
libRbt.so (2013.1, Build901 2013/11/27)

>  <Rbt.Parameter_File>
/export/apps/rDock/src/rDock_2013.1_src/data/scripts/dock_solv.prm

>  <Rbt.Receptor>
prm/pocket_docking_5.prm

>  <SCORE>
-17.317

>  <SCORE.INTER>
-17.317

>  <SCORE.INTER.CONST>
1

>  <SCORE.INTER.POLAR>
0

>  <SCORE.INTER.ROT>
0

>  <SCORE.INTER.SOLV>
10.9937

>  <SCORE.INTER.VDW>
-18.8092

>  <SCORE.INTER.norm>
-1.44308

>  <SCORE.INTRA>
0

>  <SCORE.INTRA.DIHEDRAL>
0

>  <SCORE.INTRA.DIHEDRAL.0>
0

>  <SCORE.INTRA.POLAR>
0

>  <SCORE.INTRA.POLAR.0>
0

>  <SCORE.INTRA.REPUL>
0

>  <SCORE.INTRA.REPUL.0>
0

>  <SCORE.INTRA.SOLV>
0

>  <SCORE.INTRA.SOLV.lig_0>
-28.9128

>  <SCORE.INTRA.VDW>
0

>  <SCORE.INTRA.VDW.0>
0

>  <SCORE.INTRA.norm>
0

>  <SCORE.RESTR>
0

>  <SCORE.RESTR.CAVITY>
0

>  <SCORE.RESTR.norm>
0

>  <SCORE.SYSTEM>
0

>  <SCORE.SYSTEM.CONST>
0

>  <SCORE.SYSTEM.DIHEDRAL>
0

>  <SCORE.SYSTEM.SOLV>
0

>  <SCORE.SYSTEM.norm>
0

>  <SCORE.heavy>
12

>  <SCORE.norm>
-1.44308

>  <RMSD>
2.952

$$$$
ligand
 OpenBabel11021811503D
libRbt.so/2013.1/901 2013/11/27
 12 13  0  0  0  0  0  0  0  0999 V2000
   29.5624   16.0949   16.0197 C   0  0  0  0  0  0  0  0  0  0  0  0
   30.9684   17.8181   15.0829 C   0  0  0  0  0  0  0  0  0  0  0  0
   28.8817   14.9613   15.8971 N   0  0  0  0  0  0  0  0  0  0  0  0
   29.5881   16.7103   17.2063 N   0  0  0  0  0  0  0  0  0  0  0  0
   30.2578   16.6341   14.9214 N   0  0  0  0  0  0  0  0  0  0  0  0
   31.5727   18.2912   14.1164 O   0  0  0  0  0  0  0  0  0  0  0  0
   31.6374   20.2197   17.8205 N   0  0  0  0  0  0  0  0  0  0  0  0
   30.9205   19.6171   18.8661 C   0  0  0  0  0  0  0  0  0  0  0  0
   30.2332   18.4124   18.6262 N   0  0  0  0  0  0  0  0  0  0  0  0
   30.2512   17.8577   17.3977 C   0  0  0  0  0  0  0  0  0  0  0  0
   30.9621   18.4350   16.3366 C   0  0  0  0  0  0  0  0  0  0  0  0
   31.6524   19.6210   16.5379 C   0  0  0  0  0  0  0  0  0  0  0  0
  1  3  1  0  0  0  0
  1  4  2  0  0  0  0
  1  5  1  0  0  0  0
  2  6  2  0  0  0  0
  2 11  1  0  0  0  0
  2  5  1  0  0  0  0
  4 10  1  0  0  0  0
  7  8  2  0  0  0  0
  7 12  1  0  0  0  0
  8  9  1  0  0  0  0
  9 10  2  0  0  0  0
 10 11  1  0  0  0  0
 11 12  2  0  0  0  0
M  END
>  <CHROM.1>
30.54012821,17.86784877,16.52771084,2.17822816,-0.95153093,-2.02892572

>  <Name>
ligand

>  <RI>
0

>  <Rbt.Current_Directory>
/home/itssahil/PROJECTS/Mol_Feturizer/New_Systems/rnas/4LX6

>  <Rbt.Executable>
rbdock ($Id: //depot/dev/client3/rdock/2013.1/src/exe/rbdock.cxx#4 $)

>  <Rbt.Library>
libRbt.so (2013.1, Build901 2013/11/27)

>  <Rbt.Parameter_File>
/export/apps/rDock/src/rDock_2013.1_src/data/scripts/dock_solv.prm

>  <Rbt.Receptor>
prm/pocket_docking_5.prm

>  <SCORE>
-17.3211

>  <SCORE.INTER>
-17.3211

>  <SCORE.INTER.CONST>
1

>  <SCORE.INTER.POLAR>
0

>  <SCORE.INTER.ROT>
0

>  <SCORE.INTER.SOLV>
11.0304

>  <SCORE.INTER.VDW>
-18.8242

>  <SCORE.INTER.norm>
-1.44343

>  <SCORE.INTRA>
0

>  <SCORE.INTRA.DIHEDRAL>
0

>  <SCORE.INTRA.DIHEDRAL.0>
0

>  <SCORE.INTRA.POLAR>
0

>  <SCORE.INTRA.POLAR.0>
0

>  <SCORE.INTRA.REPUL>
0

>  <SCORE.INTRA.REPUL.0>
0

>  <SCORE.INTRA.SOLV>
0

>  <SCORE.INTRA.SOLV.lig_0>
-28.9128

>  <SCORE.INTRA.VDW>
0

>  <SCORE.INTRA.VDW.0>
0

>  <SCORE.INTRA.norm>
0

>  <SCORE.RESTR>
0

>  <SCORE.RESTR.CAVITY>
0

>  <SCORE.RESTR.norm>
0

>  <SCORE.SYSTEM>
0

>  <SCORE.SYSTEM.CONST>
0

>  <SCORE.SYSTEM.DIHEDRAL>
0

>  <SCORE.SYSTEM.SOLV>
0

>  <SCORE.SYSTEM.norm>
0

>  <SCORE.heavy>
12

>  <SCORE.norm>
-1.44343

>  <RMSD>
2.952

$$$$
ligand
 OpenBabel11021811503D
libRbt.so/2013.1/901 2013/11/27
 12 13  0  0  0  0  0  0  0  0999 V2000
   29.5656   16.1067   16.0245 C   0  0  0  0  0  0  0  0  0  0  0  0
   30.9823   17.8222   15.0898 C   0  0  0  0  0  0  0  0  0  0  0  0
   28.8813   14.9752   15.9016 N   0  0  0  0  0  0  0  0  0  0  0  0
   29.5881   16.7250   17.2095 N   0  0  0  0  0  0  0  0  0  0  0  0
   30.2680   16.6405   14.9280 N   0  0  0  0  0  0  0  0  0  0  0  0
   31.5928   18.2906   14.1249 O   0  0  0  0  0  0  0  0  0  0  0  0
   31.6475   20.2285   17.8242 N   0  0  0  0  0  0  0  0  0  0  0  0
   30.9236   19.6312   18.8680 C   0  0  0  0  0  0  0  0  0  0  0  0
   30.2329   18.4285   18.6281 N   0  0  0  0  0  0  0  0  0  0  0  0
   30.2545   17.8705   17.4011 C   0  0  0  0  0  0  0  0  0  0  0  0
   30.9724   18.4424   16.3418 C   0  0  0  0  0  0  0  0  0  0  0  0
   31.6662   19.6264   16.5433 C   0  0  0  0  0  0  0  0  0  0  0  0
  1  3  1  0  0  0  0
  1  4  2  0  0  0  0
  1  5  1  0  0  0  0
  2  6  2  0  0  0  0
  2 11  1  0  0  0  0
  2  5  1  0  0  0  0
  4 10  1  0  0  0  0
  7  8  2  0  0  0  0
  7 12  1  0  0  0  0
  8  9  1  0  0  0  0
  9 10  2  0  0  0  0
 10 11  1  0  0  0  0
 11 12  2  0  0  0  0
M  END
>  <CHROM.1>
30.54751109,17.87731975,16.53243030,2.17392254,-0.94616692,-2.03500744

>  <Name>
ligand

>  <RI>
0

>  <Rbt.Current_Directory>
/home/itssahil/PROJECTS/Mol_Feturizer/New_Systems/rnas/4LX6

>  <Rbt.Executable>
rbdock ($Id: //depot/dev/client3/rdock/2013.1/src/exe/rbdock.cxx#4 $)

>  <Rbt.Library>
libRbt.so (2013.1, Build901 2013/11/27)

>  <Rbt.Parameter_File>
/export/apps/rDock/src/rDock_2013.1_src/data/scripts/dock_solv.prm

>  <Rbt.Receptor>
prm/pocket_docking_5.prm

>  <SCORE>
-17.3198

>  <SCORE.INTER>
-17.3198

>  <SCORE.INTER.CONST>
1

>  <SCORE.INTER.POLAR>
0

>  <SCORE.INTER.ROT>
0

>  <SCORE.INTER.SOLV>
11.0173

>  <SCORE.INTER.VDW>
-18.819

>  <SCORE.INTER.norm>
-1.44332

>  <SCORE.INTRA>
0

>  <SCORE.INTRA.DIHEDRAL>
0

>  <SCORE.INTRA.DIHEDRAL.0>
0

>  <SCORE.INTRA.POLAR>
0

>  <SCORE.INTRA.POLAR.0>
0

>  <SCORE.INTRA.REPUL>
0

>  <SCORE.INTRA.REPUL.0>
0

>  <SCORE.INTRA.SOLV>
0

>  <SCORE.INTRA.SOLV.lig_0>
-28.9128

>  <SCORE.INTRA.VDW>
0

>  <SCORE.INTRA.VDW.0>
0

>  <SCORE.INTRA.norm>
0

>  <SCORE.RESTR>
0

>  <SCORE.RESTR.CAVITY>
0

>  <SCORE.RESTR.norm>
0

>  <SCORE.SYSTEM>
0

>  <SCORE.SYSTEM.CONST>
0

>  <SCORE.SYSTEM.DIHEDRAL>
0

>  <SCORE.SYSTEM.SOLV>
0

>  <SCORE.SYSTEM.norm>
0

>  <SCORE.heavy>
12

>  <SCORE.norm>
-1.44332

>  <RMSD>
2.952

$$$$
ligand
 OpenBabel11021811503D
libRbt.so/2013.1/901 2013/11/27
 12 13  0  0  0  0  0  0  0  0999 V2000
   29.5597   16.0800   16.0155 C   0  0  0  0  0  0  0  0  0  0  0  0
   31.0015   17.7706   15.0736 C   0  0  0  0  0  0  0  0  0  0  0  0
   28.8658   14.9537   15.8998 N   0  0  0  0  0  0  0  0  0  0  0  0
   29.5770   16.7125   17.1932 N   0  0  0  0  0  0  0  0  0  0  0  0
   30.2774   16.5937   14.9194 N   0  0  0  0  0  0  0  0  0  0  0  0
   31.6254   18.2213   14.1090 O   0  0  0  0  0  0  0  0  0  0  0  0
   31.6640   20.2036   17.7850 N   0  0  0  0  0  0  0  0  0  0  0  0
   30.9246   19.6259   18.8290 C   0  0  0  0  0  0  0  0  0  0  0  0
   30.2248   18.4270   18.5971 N   0  0  0  0  0  0  0  0  0  0  0  0
   30.2526   17.8539   17.3772 C   0  0  0  0  0  0  0  0  0  0  0  0
   30.9858   18.4060   16.3179 C   0  0  0  0  0  0  0  0  0  0  0  0
   31.6890   19.5858   16.5117 C   0  0  0  0  0  0  0  0  0  0  0  0
  1  3  1  0  0  0  0
  1  4  2  0  0  0  0
  1  5  1  0  0  0  0
  2  6  2  0  0  0  0
  2 11  1  0  0  0  0
  2  5  1  0  0  0  0
  4 10  1  0  0  0  0
  7  8  2  0  0  0  0
  7 12  1  0  0  0  0
  8  9  1  0  0  0  0
  9 10  2  0  0  0  0
 10 11  1  0  0  0  0
 11 12  2  0  0  0  0
M  END
>  <CHROM.1>
30.55370979,17.84736410,16.51133023,2.16704099,-0.93340055,-2.05270528

>  <Name>
ligand

>  <RI>
0

>  <Rbt.Current_Directory>
/home/itssahil/PROJECTS/Mol_Feturizer/New_Systems/rnas/4LX6

>  <Rbt.Executable>
rbdock ($Id: //depot/dev/client3/rdock/2013.1/src/exe/rbdock.cxx#4 $)

>  <Rbt.Library>
libRbt.so (2013.1, Build901 2013/11/27)

>  <Rbt.Parameter_File>
/export/apps/rDock/src/rDock_2013.1_src/data/scripts/dock_solv.prm

>  <Rbt.Receptor>
prm/pocket_docking_5.prm

>  <SCORE>
-17.3182

>  <SCORE.INTER>
-17.3182

>  <SCORE.INTER.CONST>
1

>  <SCORE.INTER.POLAR>
0

>  <SCORE.INTER.ROT>
0

>  <SCORE.INTER.SOLV>
11.0037

>  <SCORE.INTER.VDW>
-18.8133

>  <SCORE.INTER.norm>
-1.44318

>  <SCORE.INTRA>
0

>  <SCORE.INTRA.DIHEDRAL>
0

>  <SCORE.INTRA.DIHEDRAL.0>
0

>  <SCORE.INTRA.POLAR>
0

>  <SCORE.INTRA.POLAR.0>
0

>  <SCORE.INTRA.REPUL>
0

>  <SCORE.INTRA.REPUL.0>
0

>  <SCORE.INTRA.SOLV>
0

>  <SCORE.INTRA.SOLV.lig_0>
-28.9128

>  <SCORE.INTRA.VDW>
0

>  <SCORE.INTRA.VDW.0>
0

>  <SCORE.INTRA.norm>
0

>  <SCORE.RESTR>
0

>  <SCORE.RESTR.CAVITY>
0

>  <SCORE.RESTR.norm>
0

>  <SCORE.SYSTEM>
0

>  <SCORE.SYSTEM.CONST>
0

>  <SCORE.SYSTEM.DIHEDRAL>
0

>  <SCORE.SYSTEM.SOLV>
0

>  <SCORE.SYSTEM.norm>
0

>  <SCORE.heavy>
12

>  <SCORE.norm>
-1.44318

>  <RMSD>
2.952

$$$$
ligand
 OpenBabel11021811503D
libRbt.so/2013.1/901 2013/11/27
 12 13  0  0  0  0  0  0  0  0999 V2000
   29.5631   16.1037   16.0203 C   0  0  0  0  0  0  0  0  0  0  0  0
   30.9790   17.8208   15.0872 C   0  0  0  0  0  0  0  0  0  0  0  0
   28.8791   14.9721   15.8963 N   0  0  0  0  0  0  0  0  0  0  0  0
   29.5858   16.7206   17.2061 N   0  0  0  0  0  0  0  0  0  0  0  0
   30.2650   16.6390   14.9242 N   0  0  0  0  0  0  0  0  0  0  0  0
   31.5889   18.2904   14.1226 O   0  0  0  0  0  0  0  0  0  0  0  0
   31.6443   20.2240   17.8242 N   0  0  0  0  0  0  0  0  0  0  0  0
   30.9209   19.6252   18.8676 C   0  0  0  0  0  0  0  0  0  0  0  0
   30.2306   18.4226   18.6264 N   0  0  0  0  0  0  0  0  0  0  0  0
   30.2520   17.8661   17.3988 C   0  0  0  0  0  0  0  0  0  0  0  0
   30.9693   18.4394   16.3399 C   0  0  0  0  0  0  0  0  0  0  0  0
   31.6628   19.6235   16.5426 C   0  0  0  0  0  0  0  0  0  0  0  0
  1  3  1  0  0  0  0
  1  4  2  0  0  0  0
  1  5  1  0  0  0  0
  2  6  2  0  0  0  0
  2 11  1  0  0  0  0
  2  5  1  0  0  0  0
  4 10  1  0  0  0  0
  7  8  2  0  0  0  0
  7 12  1  0  0  0  0
  8  9  1  0  0  0  0
  9 10  2  0  0  0  0
 10 11  1  0  0  0  0
 11 12  2  0  0  0  0
M  END
>  <CHROM.1>
30.54462868,17.87402071,16.53003756,2.17420656,-0.94661220,-2.03359934

>  <Name>
ligand

>  <RI>
0

>  <Rbt.Current_Directory>
/home/itssahil/PROJECTS/Mol_Feturizer/New_Systems/rnas/4LX6

>  <Rbt.Executable>
rbdock ($Id: //depot/dev/client3/rdock/2013.1/src/exe/rbdock.cxx#4 $)

>  <Rbt.Library>
libRbt.so (2013.1, Build901 2013/11/27)

>  <Rbt.Parameter_File>
/export/apps/rDock/src/rDock_2013.1_src/data/scripts/dock_solv.prm

>  <Rbt.Receptor>
prm/pocket_docking_5.prm

>  <SCORE>
-17.32

>  <SCORE.INTER>
-17.32

>  <SCORE.INTER.CONST>
1

>  <SCORE.INTER.POLAR>
0

>  <SCORE.INTER.ROT>
0

>  <SCORE.INTER.SOLV>
11.0127

>  <SCORE.INTER.VDW>
-18.8176

>  <SCORE.INTER.norm>
-1.44333

>  <SCORE.INTRA>
0

>  <SCORE.INTRA.DIHEDRAL>
0

>  <SCORE.INTRA.DIHEDRAL.0>
0

>  <SCORE.INTRA.POLAR>
0

>  <SCORE.INTRA.POLAR.0>
0

>  <SCORE.INTRA.REPUL>
0

>  <SCORE.INTRA.REPUL.0>
0

>  <SCORE.INTRA.SOLV>
0

>  <SCORE.INTRA.SOLV.lig_0>
-28.9128

>  <SCORE.INTRA.VDW>
0

>  <SCORE.INTRA.VDW.0>
0

>  <SCORE.INTRA.norm>
0

>  <SCORE.RESTR>
0

>  <SCORE.RESTR.CAVITY>
0

>  <SCORE.RESTR.norm>
0

>  <SCORE.SYSTEM>
0

>  <SCORE.SYSTEM.CONST>
0

>  <SCORE.SYSTEM.DIHEDRAL>
0

>  <SCORE.SYSTEM.SOLV>
0

>  <SCORE.SYSTEM.norm>
0

>  <SCORE.heavy>
12

>  <SCORE.norm>
-1.44333

>  <RMSD>
2.952

$$$$
ligand
 OpenBabel11021811503D
libRbt.so/2013.1/901 2013/11/27
 12 13  0  0  0  0  0  0  0  0999 V2000
   29.5652   16.1138   16.0229 C   0  0  0  0  0  0  0  0  0  0  0  0
   30.9934   17.8225   15.0931 C   0  0  0  0  0  0  0  0  0  0  0  0
   28.8774   14.9847   15.8983 N   0  0  0  0  0  0  0  0  0  0  0  0
   29.5835   16.7342   17.2070 N   0  0  0  0  0  0  0  0  0  0  0  0
   30.2756   16.6431   14.9294 N   0  0  0  0  0  0  0  0  0  0  0  0
   31.6108   18.2869   14.1307 O   0  0  0  0  0  0  0  0  0  0  0  0
   31.6524   20.2311   17.8269 N   0  0  0  0  0  0  0  0  0  0  0  0
   30.9205   19.6384   18.8677 C   0  0  0  0  0  0  0  0  0  0  0  0
   30.2267   18.4378   18.6261 N   0  0  0  0  0  0  0  0  0  0  0  0
   30.2531   17.8776   17.4003 C   0  0  0  0  0  0  0  0  0  0  0  0
   30.9789   18.4449   16.3439 C   0  0  0  0  0  0  0  0  0  0  0  0
   31.6759   19.6267   16.5472 C   0  0  0  0  0  0  0  0  0  0  0  0
  1  3  1  0  0  0  0
  1  4  2  0  0  0  0
  1  5  1  0  0  0  0
  2  6  2  0  0  0  0
  2 11  1  0  0  0  0
  2  5  1  0  0  0  0
  4 10  1  0  0  0  0
  7  8  2  0  0  0  0
  7 12  1  0  0  0  0
  8  9  1  0  0  0  0
  9 10  2  0  0  0  0
 10 11  1  0  0  0  0
 11 12  2  0  0  0  0
M  END
>  <CHROM.1>
30.55082432,17.88176252,16.53319840,2.16838051,-0.94038706,-2.04126301

>  <Name>
ligand

>  <RI>
0

>  <Rbt.Current_Directory>
/home/itssahil/PROJECTS/Mol_Feturizer/New_Systems/rnas/4LX6

>  <Rbt.Executable>
rbdock ($Id: //depot/dev/client3/rdock/2013.1/src/exe/rbdock.cxx#4 $)

>  <Rbt.Library>
libRbt.so (2013.1, Build901 2013/11/27)

>  <Rbt.Parameter_File>
/export/apps/rDock/src/rDock_2013.1_src/data/scripts/dock_solv.prm

>  <Rbt.Receptor>
prm/pocket_docking_6.prm

>  <SCORE>
-17.3146

>  <SCORE.INTER>
-17.3146

>  <SCORE.INTER.CONST>
1

>  <SCORE.INTER.POLAR>
0

>  <SCORE.INTER.ROT>
0

>  <SCORE.INTER.SOLV>
10.9976

>  <SCORE.INTER.VDW>
-18.809

>  <SCORE.INTER.norm>
-1.44289

>  <SCORE.INTRA>
0

>  <SCORE.INTRA.DIHEDRAL>
0

>  <SCORE.INTRA.DIHEDRAL.0>
0

>  <SCORE.INTRA.POLAR>
0

>  <SCORE.INTRA.POLAR.0>
0

>  <SCORE.INTRA.REPUL>
0

>  <SCORE.INTRA.REPUL.0>
0

>  <SCORE.INTRA.SOLV>
0

>  <SCORE.INTRA.SOLV.lig_0>
-28.9128

>  <SCORE.INTRA.VDW>
0

>  <SCORE.INTRA.VDW.0>
0

>  <SCORE.INTRA.norm>
0

>  <SCORE.RESTR>
0

>  <SCORE.RESTR.CAVITY>
0

>  <SCORE.RESTR.norm>
0

>  <SCORE.SYSTEM>
0

>  <SCORE.SYSTEM.CONST>
0

>  <SCORE.SYSTEM.DIHEDRAL>
0

>  <SCORE.SYSTEM.SOLV>
0

>  <SCORE.SYSTEM.norm>
0

>  <SCORE.heavy>
12

>  <SCORE.norm>
-1.44289

>  <RMSD>
2.952

$$$$
ligand
 OpenBabel11021811503D
libRbt.so/2013.1/901 2013/11/27
 12 13  0  0  0  0  0  0  0  0999 V2000
   29.5648   16.1134   16.0226 C   0  0  0  0  0  0  0  0  0  0  0  0
   30.9890   17.8254   15.0926 C   0  0  0  0  0  0  0  0  0  0  0  0
   28.8785   14.9834   15.8976 N   0  0  0  0  0  0  0  0  0  0  0  0
   29.5840   16.7324   17.2074 N   0  0  0  0  0  0  0  0  0  0  0  0
   30.2727   16.6450   14.9286 N   0  0  0  0  0  0  0  0  0  0  0  0
   31.6042   18.2918   14.1299 O   0  0  0  0  0  0  0  0  0  0  0  0
   31.6485   20.2317   17.8283 N   0  0  0  0  0  0  0  0  0  0  0  0
   30.9192   19.6365   18.8695 C   0  0  0  0  0  0  0  0  0  0  0  0
   30.2269   18.4352   18.6275 N   0  0  0  0  0  0  0  0  0  0  0  0
   30.2521   17.8765   17.4010 C   0  0  0  0  0  0  0  0  0  0  0  0
   30.9754   18.4462   16.3442 C   0  0  0  0  0  0  0  0  0  0  0  0
   31.6710   19.6289   16.5478 C   0  0  0  0  0  0  0  0  0  0  0  0
  1  3  1  0  0  0  0
  1  4  2  0  0  0  0
  1  5  1  0  0  0  0
  2  6  2  0  0  0  0
  2 11  1  0  0  0  0
  2  5  1  0  0  0  0
  4 10  1  0  0  0  0
  7  8  2  0  0  0  0
  7 12  1  0  0  0  0
  8  9  1  0  0  0  0
  9 10  2  0  0  0  0
 10 11  1  0  0  0  0
 11 12  2  0  0  0  0
M  END
>  <CHROM.1>
30.54855432,17.88219570,16.53346184,2.16956090,-0.94244628,-2.03909882

>  <Name>
ligand

>  <RI>
0

>  <Rbt.Current_Directory>
/home/itssahil/PROJECTS/Mol_Feturizer/New_Systems/rnas/4LX6

>  <Rbt.Executable>
rbdock ($Id: //depot/dev/client3/rdock/2013.1/src/exe/rbdock.cxx#4 $)

>  <Rbt.Library>
libRbt.so (2013.1, Build901 2013/11/27)

>  <Rbt.Parameter_File>
/export/apps/rDock/src/rDock_2013.1_src/data/scripts/dock_solv.prm

>  <Rbt.Receptor>
prm/pocket_docking_6.prm

>  <SCORE>
-17.3178

>  <SCORE.INTER>
-17.3178

>  <SCORE.INTER.CONST>
1

>  <SCORE.INTER.POLAR>
0

>  <SCORE.INTER.ROT>
0

>  <SCORE.INTER.SOLV>
11.0021

>  <SCORE.INTER.VDW>
-18.8125

>  <SCORE.INTER.norm>
-1.44315

>  <SCORE.INTRA>
0

>  <SCORE.INTRA.DIHEDRAL>
0

>  <SCORE.INTRA.DIHEDRAL.0>
0

>  <SCORE.INTRA.POLAR>
0

>  <SCORE.INTRA.POLAR.0>
0

>  <SCORE.INTRA.REPUL>
0

>  <SCORE.INTRA.REPUL.0>
0

>  <SCORE.INTRA.SOLV>
0

>  <SCORE.INTRA.SOLV.lig_0>
-28.9128

>  <SCORE.INTRA.VDW>
0

>  <SCORE.INTRA.VDW.0>
0

>  <SCORE.INTRA.norm>
0

>  <SCORE.RESTR>
0

>  <SCORE.RESTR.CAVITY>
0

>  <SCORE.RESTR.norm>
0

>  <SCORE.SYSTEM>
0

>  <SCORE.SYSTEM.CONST>
0

>  <SCORE.SYSTEM.DIHEDRAL>
0

>  <SCORE.SYSTEM.SOLV>
0

>  <SCORE.SYSTEM.norm>
0

>  <SCORE.heavy>
12

>  <SCORE.norm>
-1.44315

>  <RMSD>
2.952

$$$$
ligand
 OpenBabel11021811503D
libRbt.so/2013.1/901 2013/11/27
 12 13  0  0  0  0  0  0  0  0999 V2000
   29.5598   16.0831   16.0158 C   0  0  0  0  0  0  0  0  0  0  0  0
   31.0123   17.7682   15.0805 C   0  0  0  0  0  0  0  0  0  0  0  0
   28.8633   14.9586   15.8974 N   0  0  0  0  0  0  0  0  0  0  0  0
   29.5717   16.7172   17.1927 N   0  0  0  0  0  0  0  0  0  0  0  0
   30.2858   16.5932   14.9234 N   0  0  0  0  0  0  0  0  0  0  0  0
   31.6434   18.2158   14.1191 O   0  0  0  0  0  0  0  0  0  0  0  0
   31.6652   20.2030   17.7925 N   0  0  0  0  0  0  0  0  0  0  0  0
   30.9177   19.6289   18.8328 C   0  0  0  0  0  0  0  0  0  0  0  0
   30.2158   18.4317   18.5982 N   0  0  0  0  0  0  0  0  0  0  0  0
   30.2494   17.8568   17.3793 C   0  0  0  0  0  0  0  0  0  0  0  0
   30.9908   18.4053   16.3238 C   0  0  0  0  0  0  0  0  0  0  0  0
   31.6962   19.5834   16.5202 C   0  0  0  0  0  0  0  0  0  0  0  0
  1  3  1  0  0  0  0
  1  4  2  0  0  0  0
  1  5  1  0  0  0  0
  2  6  2  0  0  0  0
  2 11  1  0  0  0  0
  2  5  1  0  0  0  0
  4 10  1  0  0  0  0
  7  8  2  0  0  0  0
  7 12  1  0  0  0  0
  8  9  1  0  0  0  0
  9 10  2  0  0  0  0
 10 11  1  0  0  0  0
 11 12  2  0  0  0  0
M  END
>  <CHROM.1>
30.55589173,17.84823646,16.51529339,2.16019863,-0.92795641,-2.05956775

>  <Name>
ligand

>  <RI>
0

>  <Rbt.Current_Directory>
/home/itssahil/PROJECTS/Mol_Feturizer/New_Systems/rnas/4LX6

>  <Rbt.Executable>
rbdock ($Id: //depot/dev/client3/rdock/2013.1/src/exe/rbdock.cxx#4 $)

>  <Rbt.Library>
libRbt.so (2013.1, Build901 2013/11/27)

>  <Rbt.Parameter_File>
/export/apps/rDock/src/rDock_2013.1_src/data/scripts/dock_solv.prm

>  <Rbt.Receptor>
prm/pocket_docking_6.prm

>  <SCORE>
-17.3115

>  <SCORE.INTER>
-17.3115

>  <SCORE.INTER.CONST>
1

>  <SCORE.INTER.POLAR>
0

>  <SCORE.INTER.ROT>
0

>  <SCORE.INTER.SOLV>
10.9933

>  <SCORE.INTER.VDW>
-18.8054

>  <SCORE.INTER.norm>
-1.44262

>  <SCORE.INTRA>
0

>  <SCORE.INTRA.DIHEDRAL>
0

>  <SCORE.INTRA.DIHEDRAL.0>
0

>  <SCORE.INTRA.POLAR>
0

>  <SCORE.INTRA.POLAR.0>
0

>  <SCORE.INTRA.REPUL>
0

>  <SCORE.INTRA.REPUL.0>
0

>  <SCORE.INTRA.SOLV>
0

>  <SCORE.INTRA.SOLV.lig_0>
-28.9128

>  <SCORE.INTRA.VDW>
0

>  <SCORE.INTRA.VDW.0>
0

>  <SCORE.INTRA.norm>
0

>  <SCORE.RESTR>
0

>  <SCORE.RESTR.CAVITY>
0

>  <SCORE.RESTR.norm>
0

>  <SCORE.SYSTEM>
0

>  <SCORE.SYSTEM.CONST>
0

>  <SCORE.SYSTEM.DIHEDRAL>
0

>  <SCORE.SYSTEM.SOLV>
0

>  <SCORE.SYSTEM.norm>
0

>  <SCORE.heavy>
12

>  <SCORE.norm>
-1.44262

>  <RMSD>
2.952

$$$$
ligand
 OpenBabel11021811503D
libRbt.so/2013.1/901 2013/11/27
 12 13  0  0  0  0  0  0  0  0999 V2000
   29.5610   16.0902   16.0157 C   0  0  0  0  0  0  0  0  0  0  0  0
   31.0161   17.7750   15.0840 C   0  0  0  0  0  0  0  0  0  0  0  0
   28.8622   14.9675   15.8947 N   0  0  0  0  0  0  0  0  0  0  0  0
   29.5752   16.7209   17.1944 N   0  0  0  0  0  0  0  0  0  0  0  0
   30.2872   16.6019   14.9242 N   0  0  0  0  0  0  0  0  0  0  0  0
   31.6474   18.2241   14.1234 O   0  0  0  0  0  0  0  0  0  0  0  0
   31.6762   20.2007   17.8025 N   0  0  0  0  0  0  0  0  0  0  0  0
   30.9284   19.6252   18.8417 C   0  0  0  0  0  0  0  0  0  0  0  0
   30.2239   18.4300   18.6042 N   0  0  0  0  0  0  0  0  0  0  0  0
   30.2554   17.8586   17.3837 C   0  0  0  0  0  0  0  0  0  0  0  0
   30.9969   18.4087   16.3291 C   0  0  0  0  0  0  0  0  0  0  0  0
   31.7049   19.5847   16.5284 C   0  0  0  0  0  0  0  0  0  0  0  0
  1  3  1  0  0  0  0
  1  4  2  0  0  0  0
  1  5  1  0  0  0  0
  2  6  2  0  0  0  0
  2 11  1  0  0  0  0
  2  5  1  0  0  0  0
  4 10  1  0  0  0  0
  7  8  2  0  0  0  0
  7 12  1  0  0  0  0
  8  9  1  0  0  0  0
  9 10  2  0  0  0  0
 10 11  1  0  0  0  0
 11 12  2  0  0  0  0
M  END
>  <CHROM.1>
30.56109765,17.85187093,16.51942427,2.16297604,-0.92655703,-2.05449511

>  <Name>
ligand

>  <RI>
0

>  <Rbt.Current_Directory>
/home/itssahil/PROJECTS/Mol_Feturizer/New_Systems/rnas/4LX6

>  <Rbt.Executable>
rbdock ($Id: //depot/dev/client3/rdock/2013.1/src/exe/rbdock.cxx#4 $)

>  <Rbt.Library>
libRbt.so (2013.1, Build901 2013/11/27)

>  <Rbt.Parameter_File>
/export/apps/rDock/src/rDock_2013.1_src/data/scripts/dock_solv.prm

>  <Rbt.Receptor>
prm/pocket_docking_6.prm

>  <SCORE>
-17.3152

>  <SCORE.INTER>
-17.3152

>  <SCORE.INTER.CONST>
1

>  <SCORE.INTER.POLAR>
0

>  <SCORE.INTER.ROT>
0

>  <SCORE.INTER.SOLV>
10.9764

>  <SCORE.INTER.VDW>
-18.8023

>  <SCORE.INTER.norm>
-1.44293

>  <SCORE.INTRA>
0

>  <SCORE.INTRA.DIHEDRAL>
0

>  <SCORE.INTRA.DIHEDRAL.0>
0

>  <SCORE.INTRA.POLAR>
0

>  <SCORE.INTRA.POLAR.0>
0

>  <SCORE.INTRA.REPUL>
0

>  <SCORE.INTRA.REPUL.0>
0

>  <SCORE.INTRA.SOLV>
0

>  <SCORE.INTRA.SOLV.lig_0>
-28.9128

>  <SCORE.INTRA.VDW>
0

>  <SCORE.INTRA.VDW.0>
0

>  <SCORE.INTRA.norm>
0

>  <SCORE.RESTR>
0

>  <SCORE.RESTR.CAVITY>
0

>  <SCORE.RESTR.norm>
0

>  <SCORE.SYSTEM>
0

>  <SCORE.SYSTEM.CONST>
0

>  <SCORE.SYSTEM.DIHEDRAL>
0

>  <SCORE.SYSTEM.SOLV>
0

>  <SCORE.SYSTEM.norm>
0

>  <SCORE.heavy>
12

>  <SCORE.norm>
-1.44293

>  <RMSD>
2.952

$$$$
ligand
 OpenBabel11021811503D
libRbt.so/2013.1/901 2013/11/27
 12 13  0  0  0  0  0  0  0  0999 V2000
   29.5620   16.0937   16.0183 C   0  0  0  0  0  0  0  0  0  0  0  0
   31.0137   17.7798   15.0836 C   0  0  0  0  0  0  0  0  0  0  0  0
   28.8620   14.9716   15.8981 N   0  0  0  0  0  0  0  0  0  0  0  0
   29.5818   16.7219   17.1982 N   0  0  0  0  0  0  0  0  0  0  0  0
   30.2834   16.6074   14.9246 N   0  0  0  0  0  0  0  0  0  0  0  0
   31.6408   18.2306   14.1210 O   0  0  0  0  0  0  0  0  0  0  0  0
   31.6872   20.1995   17.8041 N   0  0  0  0  0  0  0  0  0  0  0  0
   30.9439   19.6221   18.8455 C   0  0  0  0  0  0  0  0  0  0  0  0
   30.2377   18.4278   18.6087 N   0  0  0  0  0  0  0  0  0  0  0  0
   30.2634   17.8589   17.3869 C   0  0  0  0  0  0  0  0  0  0  0  0
   31.0004   18.4108   16.3301 C   0  0  0  0  0  0  0  0  0  0  0  0
   31.7099   19.5861   16.5286 C   0  0  0  0  0  0  0  0  0  0  0  0
  1  3  1  0  0  0  0
  1  4  2  0  0  0  0
  1  5  1  0  0  0  0
  2  6  2  0  0  0  0
  2 11  1  0  0  0  0
  2  5  1  0  0  0  0
  4 10  1  0  0  0  0
  7  8  2  0  0  0  0
  7 12  1  0  0  0  0
  8  9  1  0  0  0  0
  9 10  2  0  0  0  0
 10 11  1  0  0  0  0
 11 12  2  0  0  0  0
M  END
>  <CHROM.1>
30.56518274,17.85386133,16.52119542,2.17006861,-0.92821694,-2.04671662

>  <Name>
ligand

>  <RI>
0

>  <Rbt.Current_Directory>
/home/itssahil/PROJECTS/Mol_Feturizer/New_Systems/rnas/4LX6

>  <Rbt.Executable>
rbdock ($Id: //depot/dev/client3/rdock/2013.1/src/exe/rbdock.cxx#4 $)

>  <Rbt.Library>
libRbt.so (2013.1, Build901 2013/11/27)

>  <Rbt.Parameter_File>
/export/apps/rDock/src/rDock_2013.1_src/data/scripts/dock_solv.prm

>  <Rbt.Receptor>
prm/pocket_docking_6.prm

>  <SCORE>
-17.3179

>  <SCORE.INTER>
-17.3179

>  <SCORE.INTER.CONST>
1

>  <SCORE.INTER.POLAR>
0

>  <SCORE.INTER.ROT>
0

>  <SCORE.INTER.SOLV>
10.9653

>  <SCORE.INTER.VDW>
-18.8004

>  <SCORE.INTER.norm>
-1.44316

>  <SCORE.INTRA>
0

>  <SCORE.INTRA.DIHEDRAL>
0

>  <SCORE.INTRA.DIHEDRAL.0>
0

>  <SCORE.INTRA.POLAR>
0

>  <SCORE.INTRA.POLAR.0>
0

>  <SCORE.INTRA.REPUL>
0

>  <SCORE.INTRA.REPUL.0>
0

>  <SCORE.INTRA.SOLV>
0

>  <SCORE.INTRA.SOLV.lig_0>
-28.9128

>  <SCORE.INTRA.VDW>
0

>  <SCORE.INTRA.VDW.0>
0

>  <SCORE.INTRA.norm>
0

>  <SCORE.RESTR>
0

>  <SCORE.RESTR.CAVITY>
0

>  <SCORE.RESTR.norm>
0

>  <SCORE.SYSTEM>
0

>  <SCORE.SYSTEM.CONST>
0

>  <SCORE.SYSTEM.DIHEDRAL>
0

>  <SCORE.SYSTEM.SOLV>
0

>  <SCORE.SYSTEM.norm>
0

>  <SCORE.heavy>
12

>  <SCORE.norm>
-1.44316

>  <RMSD>
2.952

$$$$
ligand
 OpenBabel11021811503D
libRbt.so/2013.1/901 2013/11/27
 12 13  0  0  0  0  0  0  0  0999 V2000
   29.5667   16.1131   16.0260 C   0  0  0  0  0  0  0  0  0  0  0  0
   30.9893   17.8233   15.0905 C   0  0  0  0  0  0  0  0  0  0  0  0
   28.8786   14.9839   15.9038 N   0  0  0  0  0  0  0  0  0  0  0  0
   29.5911   16.7321   17.2107 N   0  0  0  0  0  0  0  0  0  0  0  0
   30.2710   16.6438   14.9293 N   0  0  0  0  0  0  0  0  0  0  0  0
   31.6014   18.2890   14.1254 O   0  0  0  0  0  0  0  0  0  0  0  0
   31.6621   20.2291   17.8235 N   0  0  0  0  0  0  0  0  0  0  0  0
   30.9361   19.6348   18.8675 C   0  0  0  0  0  0  0  0  0  0  0  0
   30.2414   18.4343   18.6283 N   0  0  0  0  0  0  0  0  0  0  0  0
   30.2613   17.8755   17.4017 C   0  0  0  0  0  0  0  0  0  0  0  0
   30.9813   18.4443   16.3421 C   0  0  0  0  0  0  0  0  0  0  0  0
   31.6790   19.6261   16.5429 C   0  0  0  0  0  0  0  0  0  0  0  0
  1  3  1  0  0  0  0
  1  4  2  0  0  0  0
  1  5  1  0  0  0  0
  2  6  2  0  0  0  0
  2 11  1  0  0  0  0
  2  5  1  0  0  0  0
  4 10  1  0  0  0  0
  7  8  2  0  0  0  0
  7 12  1  0  0  0  0
  8  9  1  0  0  0  0
  9 10  2  0  0  0  0
 10 11  1  0  0  0  0
 11 12  2  0  0  0  0
M  END
>  <CHROM.1>
30.55443979,17.88075397,16.53301867,2.17627727,-0.94312044,-2.03373825

>  <Name>
ligand

>  <RI>
0

>  <Rbt.Current_Directory>
/home/itssahil/PROJECTS/Mol_Feturizer/New_Systems/rnas/4LX6

>  <Rbt.Executable>
rbdock ($Id: //depot/dev/client3/rdock/2013.1/src/exe/rbdock.cxx#4 $)

>  <Rbt.Library>
libRbt.so (2013.1, Build901 2013/11/27)

>  <Rbt.Parameter_File>
/export/apps/rDock/src/rDock_2013.1_src/data/scripts/dock_solv.prm

>  <Rbt.Receptor>
prm/pocket_docking_6.prm

>  <SCORE>
-17.3173

>  <SCORE.INTER>
-17.3173

>  <SCORE.INTER.CONST>
1

>  <SCORE.INTER.POLAR>
0

>  <SCORE.INTER.ROT>
0

>  <SCORE.INTER.SOLV>
10.9977

>  <SCORE.INTER.VDW>
-18.8107

>  <SCORE.INTER.norm>
-1.44311

>  <SCORE.INTRA>
0

>  <SCORE.INTRA.DIHEDRAL>
0

>  <SCORE.INTRA.DIHEDRAL.0>
0

>  <SCORE.INTRA.POLAR>
0

>  <SCORE.INTRA.POLAR.0>
0

>  <SCORE.INTRA.REPUL>
0

>  <SCORE.INTRA.REPUL.0>
0

>  <SCORE.INTRA.SOLV>
0

>  <SCORE.INTRA.SOLV.lig_0>
-28.9128

>  <SCORE.INTRA.VDW>
0

>  <SCORE.INTRA.VDW.0>
0

>  <SCORE.INTRA.norm>
0

>  <SCORE.RESTR>
0

>  <SCORE.RESTR.CAVITY>
0

>  <SCORE.RESTR.norm>
0

>  <SCORE.SYSTEM>
0

>  <SCORE.SYSTEM.CONST>
0

>  <SCORE.SYSTEM.DIHEDRAL>
0

>  <SCORE.SYSTEM.SOLV>
0

>  <SCORE.SYSTEM.norm>
0

>  <SCORE.heavy>
12

>  <SCORE.norm>
-1.44311

>  <RMSD>
2.952

$$$$
ligand
 OpenBabel11021811503D
libRbt.so/2013.1/901 2013/11/27
 12 13  0  0  0  0  0  0  0  0999 V2000
   29.5632   16.1018   16.0209 C   0  0  0  0  0  0  0  0  0  0  0  0
   30.9796   17.8195   15.0898 C   0  0  0  0  0  0  0  0  0  0  0  0
   28.8812   14.9691   15.8965 N   0  0  0  0  0  0  0  0  0  0  0  0
   29.5812   16.7206   17.2059 N   0  0  0  0  0  0  0  0  0  0  0  0
   30.2679   16.6364   14.9263 N   0  0  0  0  0  0  0  0  0  0  0  0
   31.5921   18.2885   14.1265 O   0  0  0  0  0  0  0  0  0  0  0  0
   31.6326   20.2279   17.8252 N   0  0  0  0  0  0  0  0  0  0  0  0
   30.9067   19.6297   18.8671 C   0  0  0  0  0  0  0  0  0  0  0  0
   30.2189   18.4257   18.6256 N   0  0  0  0  0  0  0  0  0  0  0  0
   30.2450   17.8673   17.3989 C   0  0  0  0  0  0  0  0  0  0  0  0
   30.9650   18.4401   16.3415 C   0  0  0  0  0  0  0  0  0  0  0  0
   31.6562   19.6254   16.5446 C   0  0  0  0  0  0  0  0  0  0  0  0
  1  3  1  0  0  0  0
  1  4  2  0  0  0  0
  1  5  1  0  0  0  0
  2  6  2  0  0  0  0
  2 11  1  0  0  0  0
  2  5  1  0  0  0  0
  4 10  1  0  0  0  0
  7  8  2  0  0  0  0
  7 12  1  0  0  0  0
  8  9  1  0  0  0  0
  9 10  2  0  0  0  0
 10 11  1  0  0  0  0
 11 12  2  0  0  0  0
M  END
>  <CHROM.1>
30.54052767,17.87433788,16.53111401,2.16813768,-0.94641745,-2.04007211

>  <Name>
ligand

>  <RI>
0

>  <Rbt.Current_Directory>
/home/itssahil/PROJECTS/Mol_Feturizer/New_Systems/rnas/4LX6

>  <Rbt.Executable>
rbdock ($Id: //depot/dev/client3/rdock/2013.1/src/exe/rbdock.cxx#4 $)

>  <Rbt.Library>
libRbt.so (2013.1, Build901 2013/11/27)

>  <Rbt.Parameter_File>
/export/apps/rDock/src/rDock_2013.1_src/data/scripts/dock_solv.prm

>  <Rbt.Receptor>
prm/pocket_docking_6.prm

>  <SCORE>
-17.3165

>  <SCORE.INTER>
-17.3165

>  <SCORE.INTER.CONST>
1

>  <SCORE.INTER.POLAR>
0

>  <SCORE.INTER.ROT>
0

>  <SCORE.INTER.SOLV>
11.0268

>  <SCORE.INTER.VDW>
-18.8199

>  <SCORE.INTER.norm>
-1.44304

>  <SCORE.INTRA>
0

>  <SCORE.INTRA.DIHEDRAL>
0

>  <SCORE.INTRA.DIHEDRAL.0>
0

>  <SCORE.INTRA.POLAR>
0

>  <SCORE.INTRA.POLAR.0>
0

>  <SCORE.INTRA.REPUL>
0

>  <SCORE.INTRA.REPUL.0>
0

>  <SCORE.INTRA.SOLV>
0

>  <SCORE.INTRA.SOLV.lig_0>
-28.9128

>  <SCORE.INTRA.VDW>
0

>  <SCORE.INTRA.VDW.0>
0

>  <SCORE.INTRA.norm>
0

>  <SCORE.RESTR>
0

>  <SCORE.RESTR.CAVITY>
0

>  <SCORE.RESTR.norm>
0

>  <SCORE.SYSTEM>
0

>  <SCORE.SYSTEM.CONST>
0

>  <SCORE.SYSTEM.DIHEDRAL>
0

>  <SCORE.SYSTEM.SOLV>
0

>  <SCORE.SYSTEM.norm>
0

>  <SCORE.heavy>
12

>  <SCORE.norm>
-1.44304

>  <RMSD>
2.952

$$$$
ligand
 OpenBabel11021811503D
libRbt.so/2013.1/901 2013/11/27
 12 13  0  0  0  0  0  0  0  0999 V2000
   29.5627   16.1020   16.0186 C   0  0  0  0  0  0  0  0  0  0  0  0
   30.9777   17.8201   15.0858 C   0  0  0  0  0  0  0  0  0  0  0  0
   28.8785   14.9707   15.8940 N   0  0  0  0  0  0  0  0  0  0  0  0
   29.5870   16.7175   17.2051 N   0  0  0  0  0  0  0  0  0  0  0  0
   30.2634   16.6386   14.9223 N   0  0  0  0  0  0  0  0  0  0  0  0
   31.5865   18.2909   14.1211 O   0  0  0  0  0  0  0  0  0  0  0  0
   31.6466   20.2199   17.8250 N   0  0  0  0  0  0  0  0  0  0  0  0
   30.9244   19.6200   18.8685 C   0  0  0  0  0  0  0  0  0  0  0  0
   30.2336   18.4177   18.6267 N   0  0  0  0  0  0  0  0  0  0  0  0
   30.2535   17.8627   17.3984 C   0  0  0  0  0  0  0  0  0  0  0  0
   30.9696   18.4372   16.3393 C   0  0  0  0  0  0  0  0  0  0  0  0
   31.6634   19.6210   16.5426 C   0  0  0  0  0  0  0  0  0  0  0  0
  1  3  1  0  0  0  0
  1  4  2  0  0  0  0
  1  5  1  0  0  0  0
  2  6  2  0  0  0  0
  2 11  1  0  0  0  0
  2  5  1  0  0  0  0
  4 10  1  0  0  0  0
  7  8  2  0  0  0  0
  7 12  1  0  0  0  0
  8  9  1  0  0  0  0
  9 10  2  0  0  0  0
 10 11  1  0  0  0  0
 11 12  2  0  0  0  0
M  END
>  <CHROM.1>
30.54508057,17.87164334,16.52927016,2.17613816,-0.94705693,-2.03081222

>  <Name>
ligand

>  <RI>
0

>  <Rbt.Current_Directory>
/home/itssahil/PROJECTS/Mol_Feturizer/New_Systems/rnas/4LX6

>  <Rbt.Executable>
rbdock ($Id: //depot/dev/client3/rdock/2013.1/src/exe/rbdock.cxx#4 $)

>  <Rbt.Library>
libRbt.so (2013.1, Build901 2013/11/27)

>  <Rbt.Parameter_File>
/export/apps/rDock/src/rDock_2013.1_src/data/scripts/dock_solv.prm

>  <Rbt.Receptor>
prm/pocket_docking_7.prm

>  <SCORE>
-17.319

>  <SCORE.INTER>
-17.319

>  <SCORE.INTER.CONST>
1

>  <SCORE.INTER.POLAR>
0

>  <SCORE.INTER.ROT>
0

>  <SCORE.INTER.SOLV>
11.0109

>  <SCORE.INTER.VDW>
-18.8163

>  <SCORE.INTER.norm>
-1.44325

>  <SCORE.INTRA>
0

>  <SCORE.INTRA.DIHEDRAL>
0

>  <SCORE.INTRA.DIHEDRAL.0>
0

>  <SCORE.INTRA.POLAR>
0

>  <SCORE.INTRA.POLAR.0>
0

>  <SCORE.INTRA.REPUL>
0

>  <SCORE.INTRA.REPUL.0>
0

>  <SCORE.INTRA.SOLV>
0

>  <SCORE.INTRA.SOLV.lig_0>
-28.9128

>  <SCORE.INTRA.VDW>
0

>  <SCORE.INTRA.VDW.0>
0

>  <SCORE.INTRA.norm>
0

>  <SCORE.RESTR>
0

>  <SCORE.RESTR.CAVITY>
0

>  <SCORE.RESTR.norm>
0

>  <SCORE.SYSTEM>
0

>  <SCORE.SYSTEM.CONST>
0

>  <SCORE.SYSTEM.DIHEDRAL>
0

>  <SCORE.SYSTEM.SOLV>
0

>  <SCORE.SYSTEM.norm>
0

>  <SCORE.heavy>
12

>  <SCORE.norm>
-1.44325

>  <RMSD>
2.952

$$$$
ligand
 OpenBabel11021811503D
libRbt.so/2013.1/901 2013/11/27
 12 13  0  0  0  0  0  0  0  0999 V2000
   29.5682   16.1131   16.0295 C   0  0  0  0  0  0  0  0  0  0  0  0
   30.9479   17.8499   15.0787 C   0  0  0  0  0  0  0  0  0  0  0  0
   28.8930   14.9756   15.9122 N   0  0  0  0  0  0  0  0  0  0  0  0
   29.6090   16.7230   17.2185 N   0  0  0  0  0  0  0  0  0  0  0  0
   30.2424   16.6621   14.9228 N   0  0  0  0  0  0  0  0  0  0  0  0
   31.5334   18.3316   14.1050 O   0  0  0  0  0  0  0  0  0  0  0  0
   31.6451   20.2428   17.8169 N   0  0  0  0  0  0  0  0  0  0  0  0
   30.9490   19.6305   18.8709 C   0  0  0  0  0  0  0  0  0  0  0  0
   30.2657   18.4225   18.6362 N   0  0  0  0  0  0  0  0  0  0  0  0
   30.2676   17.8738   17.4049 C   0  0  0  0  0  0  0  0  0  0  0  0
   30.9576   18.4608   16.3353 C   0  0  0  0  0  0  0  0  0  0  0  0
   31.6434   19.6504   16.5314 C   0  0  0  0  0  0  0  0  0  0  0  0
  1  3  1  0  0  0  0
  1  4  2  0  0  0  0
  1  5  1  0  0  0  0
  2  6  2  0  0  0  0
  2 11  1  0  0  0  0
  2  5  1  0  0  0  0
  4 10  1  0  0  0  0
  7  8  2  0  0  0  0
  7 12  1  0  0  0  0
  8  9  1  0  0  0  0
  9 10  2  0  0  0  0
 10 11  1  0  0  0  0
 11 12  2  0  0  0  0
M  END
>  <CHROM.1>
30.54246365,17.88999672,16.53040424,2.19844943,-0.96436186,-2.00755839

>  <Name>
ligand

>  <RI>
0

>  <Rbt.Current_Directory>
/home/itssahil/PROJECTS/Mol_Feturizer/New_Systems/rnas/4LX6

>  <Rbt.Executable>
rbdock ($Id: //depot/dev/client3/rdock/2013.1/src/exe/rbdock.cxx#4 $)

>  <Rbt.Library>
libRbt.so (2013.1, Build901 2013/11/27)

>  <Rbt.Parameter_File>
/export/apps/rDock/src/rDock_2013.1_src/data/scripts/dock_solv.prm

>  <Rbt.Receptor>
prm/pocket_docking_8.prm

>  <SCORE>
-17.2591

>  <SCORE.INTER>
-17.2591

>  <SCORE.INTER.CONST>
1

>  <SCORE.INTER.POLAR>
0

>  <SCORE.INTER.ROT>
0

>  <SCORE.INTER.SOLV>
11.0516

>  <SCORE.INTER.VDW>
-18.7899

>  <SCORE.INTER.norm>
-1.43826

>  <SCORE.INTRA>
0

>  <SCORE.INTRA.DIHEDRAL>
0

>  <SCORE.INTRA.DIHEDRAL.0>
0

>  <SCORE.INTRA.POLAR>
0

>  <SCORE.INTRA.POLAR.0>
0

>  <SCORE.INTRA.REPUL>
0

>  <SCORE.INTRA.REPUL.0>
0

>  <SCORE.INTRA.SOLV>
0

>  <SCORE.INTRA.SOLV.lig_0>
-28.9128

>  <SCORE.INTRA.VDW>
0

>  <SCORE.INTRA.VDW.0>
0

>  <SCORE.INTRA.norm>
0

>  <SCORE.RESTR>
0

>  <SCORE.RESTR.CAVITY>
0

>  <SCORE.RESTR.norm>
0

>  <SCORE.SYSTEM>
0

>  <SCORE.SYSTEM.CONST>
0

>  <SCORE.SYSTEM.DIHEDRAL>
0

>  <SCORE.SYSTEM.SOLV>
0

>  <SCORE.SYSTEM.norm>
0

>  <SCORE.heavy>
12

>  <SCORE.norm>
-1.43826

>  <RMSD>
2.952

$$$$
ligand
 OpenBabel11021811503D
libRbt.so/2013.1/901 2013/11/27
 12 13  0  0  0  0  0  0  0  0999 V2000
   29.5605   16.0861   16.0176 C   0  0  0  0  0  0  0  0  0  0  0  0
   30.9763   17.7995   15.0774 C   0  0  0  0  0  0  0  0  0  0  0  0
   28.8782   14.9530   15.8988 N   0  0  0  0  0  0  0  0  0  0  0  0
   29.5799   16.7101   17.1997 N   0  0  0  0  0  0  0  0  0  0  0  0
   30.2641   16.6158   14.9199 N   0  0  0  0  0  0  0  0  0  0  0  0
   31.5877   18.2642   14.1114 O   0  0  0  0  0  0  0  0  0  0  0  0
   31.6326   20.2197   17.8017 N   0  0  0  0  0  0  0  0  0  0  0  0
   30.9077   19.6261   18.8469 C   0  0  0  0  0  0  0  0  0  0  0  0
   30.2194   18.4212   18.6114 N   0  0  0  0  0  0  0  0  0  0  0  0
   30.2442   17.8575   17.3871 C   0  0  0  0  0  0  0  0  0  0  0  0
   30.9631   18.4255   16.3264 C   0  0  0  0  0  0  0  0  0  0  0  0
   31.6547   19.6116   16.5236 C   0  0  0  0  0  0  0  0  0  0  0  0
  1  3  1  0  0  0  0
  1  4  2  0  0  0  0
  1  5  1  0  0  0  0
  2  6  2  0  0  0  0
  2 11  1  0  0  0  0
  2  5  1  0  0  0  0
  4 10  1  0  0  0  0
  7  8  2  0  0  0  0
  7 12  1  0  0  0  0
  8  9  1  0  0  0  0
  9 10  2  0  0  0  0
 10 11  1  0  0  0  0
 11 12  2  0  0  0  0
M  END
>  <CHROM.1>
30.53872036,17.86069622,16.51895688,2.16991390,-0.94675692,-2.04297955

>  <Name>
ligand

>  <RI>
0

>  <Rbt.Current_Directory>
/home/itssahil/PROJECTS/Mol_Feturizer/New_Systems/rnas/4LX6

>  <Rbt.Executable>
rbdock ($Id: //depot/dev/client3/rdock/2013.1/src/exe/rbdock.cxx#4 $)

>  <Rbt.Library>
libRbt.so (2013.1, Build901 2013/11/27)

>  <Rbt.Parameter_File>
/export/apps/rDock/src/rDock_2013.1_src/data/scripts/dock_solv.prm

>  <Rbt.Receptor>
prm/pocket_docking_8.prm

>  <SCORE>
-17.3074

>  <SCORE.INTER>
-17.3074

>  <SCORE.INTER.CONST>
1

>  <SCORE.INTER.POLAR>
0

>  <SCORE.INTER.ROT>
0

>  <SCORE.INTER.SOLV>
11.0379

>  <SCORE.INTER.VDW>
-18.8176

>  <SCORE.INTER.norm>
-1.44228

>  <SCORE.INTRA>
0

>  <SCORE.INTRA.DIHEDRAL>
0

>  <SCORE.INTRA.DIHEDRAL.0>
0

>  <SCORE.INTRA.POLAR>
0

>  <SCORE.INTRA.POLAR.0>
0

>  <SCORE.INTRA.REPUL>
0

>  <SCORE.INTRA.REPUL.0>
0

>  <SCORE.INTRA.SOLV>
0

>  <SCORE.INTRA.SOLV.lig_0>
-28.9128

>  <SCORE.INTRA.VDW>
0

>  <SCORE.INTRA.VDW.0>
0

>  <SCORE.INTRA.norm>
0

>  <SCORE.RESTR>
0

>  <SCORE.RESTR.CAVITY>
0

>  <SCORE.RESTR.norm>
0

>  <SCORE.SYSTEM>
0

>  <SCORE.SYSTEM.CONST>
0

>  <SCORE.SYSTEM.DIHEDRAL>
0

>  <SCORE.SYSTEM.SOLV>
0

>  <SCORE.SYSTEM.norm>
0

>  <SCORE.heavy>
12

>  <SCORE.norm>
-1.44228

>  <RMSD>
2.952

$$$$
ligand
 OpenBabel11021811503D
libRbt.so/2013.1/901 2013/11/27
 12 13  0  0  0  0  0  0  0  0999 V2000
   29.5635   16.0994   16.0207 C   0  0  0  0  0  0  0  0  0  0  0  0
   31.0273   17.7816   15.0979 C   0  0  0  0  0  0  0  0  0  0  0  0
   28.8591   14.9808   15.8938 N   0  0  0  0  0  0  0  0  0  0  0  0
   29.5806   16.7240   17.2025 N   0  0  0  0  0  0  0  0  0  0  0  0
   30.2925   16.6131   14.9319 N   0  0  0  0  0  0  0  0  0  0  0  0
   31.6610   18.2324   14.1396 O   0  0  0  0  0  0  0  0  0  0  0  0
   31.6988   20.1902   17.8287 N   0  0  0  0  0  0  0  0  0  0  0  0
   30.9479   19.6132   18.8648 C   0  0  0  0  0  0  0  0  0  0  0  0
   30.2375   18.4228   18.6212 N   0  0  0  0  0  0  0  0  0  0  0  0
   30.2664   17.8574   17.3978 C   0  0  0  0  0  0  0  0  0  0  0  0
   31.0109   18.4091   16.3462 C   0  0  0  0  0  0  0  0  0  0  0  0
   31.7247   19.5805   16.5515 C   0  0  0  0  0  0  0  0  0  0  0  0
  1  3  1  0  0  0  0
  1  4  2  0  0  0  0
  1  5  1  0  0  0  0
  2  6  2  0  0  0  0
  2 11  1  0  0  0  0
  2  5  1  0  0  0  0
  4 10  1  0  0  0  0
  7  8  2  0  0  0  0
  7 12  1  0  0  0  0
  8  9  1  0  0  0  0
  9 10  2  0  0  0  0
 10 11  1  0  0  0  0
 11 12  2  0  0  0  0
M  END
>  <CHROM.1>
30.57227801,17.85350662,16.53354085,2.16648030,-0.92202621,-2.04661924

>  <Name>
ligand

>  <RI>
0

>  <Rbt.Current_Directory>
/home/itssahil/PROJECTS/Mol_Feturizer/New_Systems/rnas/4LX6

>  <Rbt.Executable>
rbdock ($Id: //depot/dev/client3/rdock/2013.1/src/exe/rbdock.cxx#4 $)

>  <Rbt.Library>
libRbt.so (2013.1, Build901 2013/11/27)

>  <Rbt.Parameter_File>
/export/apps/rDock/src/rDock_2013.1_src/data/scripts/dock_solv.prm

>  <Rbt.Receptor>
prm/blind_docking_100.prm

>  <SCORE>
-17.3085

>  <SCORE.INTER>
-17.3085

>  <SCORE.INTER.CONST>
1

>  <SCORE.INTER.POLAR>
0

>  <SCORE.INTER.ROT>
0

>  <SCORE.INTER.SOLV>
10.9406

>  <SCORE.INTER.VDW>
-18.7859

>  <SCORE.INTER.norm>
-1.44237

>  <SCORE.INTRA>
0

>  <SCORE.INTRA.DIHEDRAL>
0

>  <SCORE.INTRA.DIHEDRAL.0>
0

>  <SCORE.INTRA.POLAR>
0

>  <SCORE.INTRA.POLAR.0>
0

>  <SCORE.INTRA.REPUL>
0

>  <SCORE.INTRA.REPUL.0>
0

>  <SCORE.INTRA.SOLV>
0

>  <SCORE.INTRA.SOLV.lig_0>
-28.9128

>  <SCORE.INTRA.VDW>
0

>  <SCORE.INTRA.VDW.0>
0

>  <SCORE.INTRA.norm>
0

>  <SCORE.RESTR>
0

>  <SCORE.RESTR.CAVITY>
0

>  <SCORE.RESTR.norm>
0

>  <SCORE.SYSTEM>
0

>  <SCORE.SYSTEM.CONST>
0

>  <SCORE.SYSTEM.DIHEDRAL>
0

>  <SCORE.SYSTEM.SOLV>
0

>  <SCORE.SYSTEM.norm>
0

>  <SCORE.heavy>
12

>  <SCORE.norm>
-1.44237

>  <RMSD>
2.953

$$$$
ligand
 OpenBabel11021811503D
libRbt.so/2013.1/901 2013/11/27
 12 13  0  0  0  0  0  0  0  0999 V2000
   29.5628   16.0733   16.0242 C   0  0  0  0  0  0  0  0  0  0  0  0
   30.9976   17.7613   15.0671 C   0  0  0  0  0  0  0  0  0  0  0  0
   28.8714   14.9445   15.9178 N   0  0  0  0  0  0  0  0  0  0  0  0
   29.5819   16.7135   17.1976 N   0  0  0  0  0  0  0  0  0  0  0  0
   30.2761   16.5817   14.9226 N   0  0  0  0  0  0  0  0  0  0  0  0
   31.6176   18.2073   14.0977 O   0  0  0  0  0  0  0  0  0  0  0  0
   31.6617   20.2137   17.7606 N   0  0  0  0  0  0  0  0  0  0  0  0
   30.9268   19.6410   18.8105 C   0  0  0  0  0  0  0  0  0  0  0  0
   30.2293   18.4388   18.5884 N   0  0  0  0  0  0  0  0  0  0  0  0
   30.2551   17.8578   17.3722 C   0  0  0  0  0  0  0  0  0  0  0  0
   30.9838   18.4048   16.3072 C   0  0  0  0  0  0  0  0  0  0  0  0
   31.6846   19.5876   16.4913 C   0  0  0  0  0  0  0  0  0  0  0  0
  1  3  1  0  0  0  0
  1  4  2  0  0  0  0
  1  5  1  0  0  0  0
  2  6  2  0  0  0  0
  2 11  1  0  0  0  0
  2  5  1  0  0  0  0
  4 10  1  0  0  0  0
  7  8  2  0  0  0  0
  7 12  1  0  0  0  0
  8  9  1  0  0  0  0
  9 10  2  0  0  0  0
 10 11  1  0  0  0  0
 11 12  2  0  0  0  0
M  END
>  <CHROM.1>
30.55374783,17.84637050,16.50555218,2.16934003,-0.93697937,-2.05739449

>  <Name>
ligand

>  <RI>
0

>  <Rbt.Current_Directory>
/home/itssahil/PROJECTS/Mol_Feturizer/New_Systems/rnas/4LX6

>  <Rbt.Executable>
rbdock ($Id: //depot/dev/client3/rdock/2013.1/src/exe/rbdock.cxx#4 $)

>  <Rbt.Library>
libRbt.so (2013.1, Build901 2013/11/27)

>  <Rbt.Parameter_File>
/export/apps/rDock/src/rDock_2013.1_src/data/scripts/dock_solv.prm

>  <Rbt.Receptor>
prm/blind_docking_100.prm

>  <SCORE>
-17.3391

>  <SCORE.INTER>
-17.3391

>  <SCORE.INTER.CONST>
1

>  <SCORE.INTER.POLAR>
0

>  <SCORE.INTER.ROT>
0

>  <SCORE.INTER.SOLV>
11.0359

>  <SCORE.INTER.VDW>
-18.838

>  <SCORE.INTER.norm>
-1.44492

>  <SCORE.INTRA>
0

>  <SCORE.INTRA.DIHEDRAL>
0

>  <SCORE.INTRA.DIHEDRAL.0>
0

>  <SCORE.INTRA.POLAR>
0

>  <SCORE.INTRA.POLAR.0>
0

>  <SCORE.INTRA.REPUL>
0

>  <SCORE.INTRA.REPUL.0>
0

>  <SCORE.INTRA.SOLV>
0

>  <SCORE.INTRA.SOLV.lig_0>
-28.9128

>  <SCORE.INTRA.VDW>
0

>  <SCORE.INTRA.VDW.0>
0

>  <SCORE.INTRA.norm>
0

>  <SCORE.RESTR>
0

>  <SCORE.RESTR.CAVITY>
0

>  <SCORE.RESTR.norm>
0

>  <SCORE.SYSTEM>
0

>  <SCORE.SYSTEM.CONST>
0

>  <SCORE.SYSTEM.DIHEDRAL>
0

>  <SCORE.SYSTEM.SOLV>
0

>  <SCORE.SYSTEM.norm>
0

>  <SCORE.heavy>
12

>  <SCORE.norm>
-1.44492

>  <RMSD>
2.953

$$$$
ligand
 OpenBabel11021811503D
libRbt.so/2013.1/901 2013/11/27
 12 13  0  0  0  0  0  0  0  0999 V2000
   29.5673   16.1135   16.0271 C   0  0  0  0  0  0  0  0  0  0  0  0
   30.9909   17.8239   15.0933 C   0  0  0  0  0  0  0  0  0  0  0  0
   28.8801   14.9838   15.9041 N   0  0  0  0  0  0  0  0  0  0  0  0
   29.5892   16.7332   17.2115 N   0  0  0  0  0  0  0  0  0  0  0  0
   30.2736   16.6439   14.9315 N   0  0  0  0  0  0  0  0  0  0  0  0
   31.6047   18.2893   14.1291 O   0  0  0  0  0  0  0  0  0  0  0  0
   31.6572   20.2315   17.8263 N   0  0  0  0  0  0  0  0  0  0  0  0
   30.9294   19.6375   18.8692 C   0  0  0  0  0  0  0  0  0  0  0  0
   30.2359   18.4365   18.6293 N   0  0  0  0  0  0  0  0  0  0  0  0
   30.2585   17.8770   17.4031 C   0  0  0  0  0  0  0  0  0  0  0  0
   30.9802   18.4455   16.3445 C   0  0  0  0  0  0  0  0  0  0  0  0
   31.6769   19.6279   16.5461 C   0  0  0  0  0  0  0  0  0  0  0  0
  1  3  1  0  0  0  0
  1  4  2  0  0  0  0
  1  5  1  0  0  0  0
  2  6  2  0  0  0  0
  2 11  1  0  0  0  0
  2  5  1  0  0  0  0
  4 10  1  0  0  0  0
  7  8  2  0  0  0  0
  7 12  1  0  0  0  0
  8  9  1  0  0  0  0
  9 10  2  0  0  0  0
 10 11  1  0  0  0  0
 11 12  2  0  0  0  0
M  END
>  <CHROM.1>
30.55324386,17.88192719,16.53498436,2.17293512,-0.94268903,-2.03701246

>  <Name>
ligand

>  <RI>
0

>  <Rbt.Current_Directory>
/home/itssahil/PROJECTS/Mol_Feturizer/New_Systems/rnas/4LX6

>  <Rbt.Executable>
rbdock ($Id: //depot/dev/client3/rdock/2013.1/src/exe/rbdock.cxx#4 $)

>  <Rbt.Library>
libRbt.so (2013.1, Build901 2013/11/27)

>  <Rbt.Parameter_File>
/export/apps/rDock/src/rDock_2013.1_src/data/scripts/dock_solv.prm

>  <Rbt.Receptor>
prm/blind_docking_100.prm

>  <SCORE>
-17.317

>  <SCORE.INTER>
-17.317

>  <SCORE.INTER.CONST>
1

>  <SCORE.INTER.POLAR>
0

>  <SCORE.INTER.ROT>
0

>  <SCORE.INTER.SOLV>
11.0046

>  <SCORE.INTER.VDW>
-18.8129

>  <SCORE.INTER.norm>
-1.44308

>  <SCORE.INTRA>
0

>  <SCORE.INTRA.DIHEDRAL>
0

>  <SCORE.INTRA.DIHEDRAL.0>
0

>  <SCORE.INTRA.POLAR>
0

>  <SCORE.INTRA.POLAR.0>
0

>  <SCORE.INTRA.REPUL>
0

>  <SCORE.INTRA.REPUL.0>
0

>  <SCORE.INTRA.SOLV>
0

>  <SCORE.INTRA.SOLV.lig_0>
-28.9128

>  <SCORE.INTRA.VDW>
0

>  <SCORE.INTRA.VDW.0>
0

>  <SCORE.INTRA.norm>
0

>  <SCORE.RESTR>
0

>  <SCORE.RESTR.CAVITY>
0

>  <SCORE.RESTR.norm>
0

>  <SCORE.SYSTEM>
0

>  <SCORE.SYSTEM.CONST>
0

>  <SCORE.SYSTEM.DIHEDRAL>
0

>  <SCORE.SYSTEM.SOLV>
0

>  <SCORE.SYSTEM.norm>
0

>  <SCORE.heavy>
12

>  <SCORE.norm>
-1.44308

>  <RMSD>
2.953

$$$$
ligand
 OpenBabel11021811503D
libRbt.so/2013.1/901 2013/11/27
 12 13  0  0  0  0  0  0  0  0999 V2000
   29.5632   16.0756   16.0229 C   0  0  0  0  0  0  0  0  0  0  0  0
   31.0015   17.7668   15.0767 C   0  0  0  0  0  0  0  0  0  0  0  0
   28.8712   14.9479   15.9100 N   0  0  0  0  0  0  0  0  0  0  0  0
   29.5804   16.7104   17.1993 N   0  0  0  0  0  0  0  0  0  0  0  0
   30.2793   16.5884   14.9253 N   0  0  0  0  0  0  0  0  0  0  0  0
   31.6239   18.2167   14.1107 O   0  0  0  0  0  0  0  0  0  0  0  0
   31.6618   20.2062   17.7827 N   0  0  0  0  0  0  0  0  0  0  0  0
   30.9242   19.6293   18.8284 C   0  0  0  0  0  0  0  0  0  0  0  0
   30.2262   18.4287   18.5994 N   0  0  0  0  0  0  0  0  0  0  0  0
   30.2541   17.8533   17.3806 C   0  0  0  0  0  0  0  0  0  0  0  0
   30.9856   18.4046   16.3197 C   0  0  0  0  0  0  0  0  0  0  0  0
   31.6869   19.5860   16.5106 C   0  0  0  0  0  0  0  0  0  0  0  0
  1  3  1  0  0  0  0
  1  4  2  0  0  0  0
  1  5  1  0  0  0  0
  2  6  2  0  0  0  0
  2 11  1  0  0  0  0
  2  5  1  0  0  0  0
  4 10  1  0  0  0  0
  7  8  2  0  0  0  0
  7 12  1  0  0  0  0
  8  9  1  0  0  0  0
  9 10  2  0  0  0  0
 10 11  1  0  0  0  0
 11 12  2  0  0  0  0
M  END
>  <CHROM.1>
30.55462093,17.84560125,16.51452926,2.16679158,-0.93524933,-2.05487540

>  <Name>
ligand

>  <RI>
0

>  <Rbt.Current_Directory>
/home/itssahil/PROJECTS/Mol_Feturizer/New_Systems/rnas/4LX6

>  <Rbt.Executable>
rbdock ($Id: //depot/dev/client3/rdock/2013.1/src/exe/rbdock.cxx#4 $)

>  <Rbt.Library>
libRbt.so (2013.1, Build901 2013/11/27)

>  <Rbt.Parameter_File>
/export/apps/rDock/src/rDock_2013.1_src/data/scripts/dock_solv.prm

>  <Rbt.Receptor>
prm/blind_docking_100.prm

>  <SCORE>
-17.3158

>  <SCORE.INTER>
-17.3158

>  <SCORE.INTER.CONST>
1

>  <SCORE.INTER.POLAR>
0

>  <SCORE.INTER.ROT>
0

>  <SCORE.INTER.SOLV>
11.0283

>  <SCORE.INTER.VDW>
-18.82

>  <SCORE.INTER.norm>
-1.44299

>  <SCORE.INTRA>
0

>  <SCORE.INTRA.DIHEDRAL>
0

>  <SCORE.INTRA.DIHEDRAL.0>
0

>  <SCORE.INTRA.POLAR>
0

>  <SCORE.INTRA.POLAR.0>
0

>  <SCORE.INTRA.REPUL>
0

>  <SCORE.INTRA.REPUL.0>
0

>  <SCORE.INTRA.SOLV>
0

>  <SCORE.INTRA.SOLV.lig_0>
-28.9128

>  <SCORE.INTRA.VDW>
0

>  <SCORE.INTRA.VDW.0>
0

>  <SCORE.INTRA.norm>
0

>  <SCORE.RESTR>
0

>  <SCORE.RESTR.CAVITY>
0

>  <SCORE.RESTR.norm>
0

>  <SCORE.SYSTEM>
0

>  <SCORE.SYSTEM.CONST>
0

>  <SCORE.SYSTEM.DIHEDRAL>
0

>  <SCORE.SYSTEM.SOLV>
0

>  <SCORE.SYSTEM.norm>
0

>  <SCORE.heavy>
12

>  <SCORE.norm>
-1.44299

>  <RMSD>
2.953

$$$$
ligand
 OpenBabel11021811503D
libRbt.so/2013.1/901 2013/11/27
 12 13  0  0  0  0  0  0  0  0999 V2000
   29.5656   16.0993   16.0263 C   0  0  0  0  0  0  0  0  0  0  0  0
   30.9737   17.8189   15.0861 C   0  0  0  0  0  0  0  0  0  0  0  0
   28.8829   14.9666   15.9058 N   0  0  0  0  0  0  0  0  0  0  0  0
   29.5936   16.7160   17.2121 N   0  0  0  0  0  0  0  0  0  0  0  0
   30.2609   16.6359   14.9267 N   0  0  0  0  0  0  0  0  0  0  0  0
   31.5778   18.2897   14.1184 O   0  0  0  0  0  0  0  0  0  0  0  0
   31.6496   20.2227   17.8200 N   0  0  0  0  0  0  0  0  0  0  0  0
   30.9327   19.6226   18.8670 C   0  0  0  0  0  0  0  0  0  0  0  0
   30.2431   18.4188   18.6293 N   0  0  0  0  0  0  0  0  0  0  0  0
   30.2589   17.8626   17.4015 C   0  0  0  0  0  0  0  0  0  0  0  0
   30.9697   18.4373   16.3389 C   0  0  0  0  0  0  0  0  0  0  0  0
   31.6623   19.6224   16.5382 C   0  0  0  0  0  0  0  0  0  0  0  0
  1  3  1  0  0  0  0
  1  4  2  0  0  0  0
  1  5  1  0  0  0  0
  2  6  2  0  0  0  0
  2 11  1  0  0  0  0
  2  5  1  0  0  0  0
  4 10  1  0  0  0  0
  7  8  2  0  0  0  0
  7 12  1  0  0  0  0
  8  9  1  0  0  0  0
  9 10  2  0  0  0  0
 10 11  1  0  0  0  0
 11 12  2  0  0  0  0
M  END
>  <CHROM.1>
30.54694689,17.87114472,16.53121022,2.18106649,-0.95042792,-2.02784431

>  <Name>
ligand

>  <RI>
0

>  <Rbt.Current_Directory>
/home/itssahil/PROJECTS/Mol_Feturizer/New_Systems/rnas/4LX6

>  <Rbt.Executable>
rbdock ($Id: //depot/dev/client3/rdock/2013.1/src/exe/rbdock.cxx#4 $)

>  <Rbt.Library>
libRbt.so (2013.1, Build901 2013/11/27)

>  <Rbt.Parameter_File>
/export/apps/rDock/src/rDock_2013.1_src/data/scripts/dock_solv.prm

>  <Rbt.Receptor>
prm/blind_docking_60.prm

>  <SCORE>
-17.32

>  <SCORE.INTER>
-17.32

>  <SCORE.INTER.CONST>
1

>  <SCORE.INTER.POLAR>
0

>  <SCORE.INTER.ROT>
0

>  <SCORE.INTER.SOLV>
11.0267

>  <SCORE.INTER.VDW>
-18.8223

>  <SCORE.INTER.norm>
-1.44334

>  <SCORE.INTRA>
0

>  <SCORE.INTRA.DIHEDRAL>
0

>  <SCORE.INTRA.DIHEDRAL.0>
0

>  <SCORE.INTRA.POLAR>
0

>  <SCORE.INTRA.POLAR.0>
0

>  <SCORE.INTRA.REPUL>
0

>  <SCORE.INTRA.REPUL.0>
0

>  <SCORE.INTRA.SOLV>
0

>  <SCORE.INTRA.SOLV.lig_0>
-28.9128

>  <SCORE.INTRA.VDW>
0

>  <SCORE.INTRA.VDW.0>
0

>  <SCORE.INTRA.norm>
0

>  <SCORE.RESTR>
0

>  <SCORE.RESTR.CAVITY>
0

>  <SCORE.RESTR.norm>
0

>  <SCORE.SYSTEM>
0

>  <SCORE.SYSTEM.CONST>
0

>  <SCORE.SYSTEM.DIHEDRAL>
0

>  <SCORE.SYSTEM.SOLV>
0

>  <SCORE.SYSTEM.norm>
0

>  <SCORE.heavy>
12

>  <SCORE.norm>
-1.44334

>  <RMSD>
2.953

$$$$
ligand
 OpenBabel11021811503D
libRbt.so/2013.1/901 2013/11/27
 12 13  0  0  0  0  0  0  0  0999 V2000
   29.5681   16.1096   16.0294 C   0  0  0  0  0  0  0  0  0  0  0  0
   30.9827   17.8238   15.0891 C   0  0  0  0  0  0  0  0  0  0  0  0
   28.8811   14.9795   15.9088 N   0  0  0  0  0  0  0  0  0  0  0  0
   29.5982   16.7263   17.2151 N   0  0  0  0  0  0  0  0  0  0  0  0
   30.2654   16.6435   14.9298 N   0  0  0  0  0  0  0  0  0  0  0  0
   31.5887   18.2923   14.1215 O   0  0  0  0  0  0  0  0  0  0  0  0
   31.6672   20.2253   17.8229 N   0  0  0  0  0  0  0  0  0  0  0  0
   30.9480   19.6280   18.8699 C   0  0  0  0  0  0  0  0  0  0  0  0
   30.2539   18.4268   18.6323 N   0  0  0  0  0  0  0  0  0  0  0  0
   30.2678   17.8704   17.4045 C   0  0  0  0  0  0  0  0  0  0  0  0
   30.9808   18.4423   16.3419 C   0  0  0  0  0  0  0  0  0  0  0  0
   31.6778   19.6249   16.5412 C   0  0  0  0  0  0  0  0  0  0  0  0
  1  3  1  0  0  0  0
  1  4  2  0  0  0  0
  1  5  1  0  0  0  0
  2  6  2  0  0  0  0
  2 11  1  0  0  0  0
  2  5  1  0  0  0  0
  4 10  1  0  0  0  0
  7  8  2  0  0  0  0
  7 12  1  0  0  0  0
  8  9  1  0  0  0  0
  9 10  2  0  0  0  0
 10 11  1  0  0  0  0
 11 12  2  0  0  0  0
M  END
>  <CHROM.1>
30.55594988,17.87779874,16.53421188,2.18373102,-0.94701332,-2.02576549

>  <Name>
ligand

>  <RI>
0

>  <Rbt.Current_Directory>
/home/itssahil/PROJECTS/Mol_Feturizer/New_Systems/rnas/4LX6

>  <Rbt.Executable>
rbdock ($Id: //depot/dev/client3/rdock/2013.1/src/exe/rbdock.cxx#4 $)

>  <Rbt.Library>
libRbt.so (2013.1, Build901 2013/11/27)

>  <Rbt.Parameter_File>
/export/apps/rDock/src/rDock_2013.1_src/data/scripts/dock_solv.prm

>  <Rbt.Receptor>
prm/blind_docking_60.prm

>  <SCORE>
-17.3161

>  <SCORE.INTER>
-17.3161

>  <SCORE.INTER.CONST>
1

>  <SCORE.INTER.POLAR>
0

>  <SCORE.INTER.ROT>
0

>  <SCORE.INTER.SOLV>
11.005

>  <SCORE.INTER.VDW>
-18.8124

>  <SCORE.INTER.norm>
-1.44301

>  <SCORE.INTRA>
0

>  <SCORE.INTRA.DIHEDRAL>
0

>  <SCORE.INTRA.DIHEDRAL.0>
0

>  <SCORE.INTRA.POLAR>
0

>  <SCORE.INTRA.POLAR.0>
0

>  <SCORE.INTRA.REPUL>
0

>  <SCORE.INTRA.REPUL.0>
0

>  <SCORE.INTRA.SOLV>
0

>  <SCORE.INTRA.SOLV.lig_0>
-28.9128

>  <SCORE.INTRA.VDW>
0

>  <SCORE.INTRA.VDW.0>
0

>  <SCORE.INTRA.norm>
0

>  <SCORE.RESTR>
0

>  <SCORE.RESTR.CAVITY>
0

>  <SCORE.RESTR.norm>
0

>  <SCORE.SYSTEM>
0

>  <SCORE.SYSTEM.CONST>
0

>  <SCORE.SYSTEM.DIHEDRAL>
0

>  <SCORE.SYSTEM.SOLV>
0

>  <SCORE.SYSTEM.norm>
0

>  <SCORE.heavy>
12

>  <SCORE.norm>
-1.44301

>  <RMSD>
2.953

$$$$
ligand
 OpenBabel11021811503D
libRbt.so/2013.1/901 2013/11/27
 12 13  0  0  0  0  0  0  0  0999 V2000
   29.5643   16.0895   16.0237 C   0  0  0  0  0  0  0  0  0  0  0  0
   31.0165   17.7731   15.0854 C   0  0  0  0  0  0  0  0  0  0  0  0
   28.8661   14.9659   15.9065 N   0  0  0  0  0  0  0  0  0  0  0  0
   29.5800   16.7230   17.2008 N   0  0  0  0  0  0  0  0  0  0  0  0
   30.2882   16.5991   14.9297 N   0  0  0  0  0  0  0  0  0  0  0  0
   31.6458   18.2204   14.1226 O   0  0  0  0  0  0  0  0  0  0  0  0
   31.6793   20.2060   17.7969 N   0  0  0  0  0  0  0  0  0  0  0  0
   30.9338   19.6324   18.8387 C   0  0  0  0  0  0  0  0  0  0  0  0
   30.2298   18.4361   18.6054 N   0  0  0  0  0  0  0  0  0  0  0  0
   30.2596   17.8618   17.3862 C   0  0  0  0  0  0  0  0  0  0  0  0
   30.9990   18.4098   16.3290 C   0  0  0  0  0  0  0  0  0  0  0  0
   31.7063   19.5869   16.5242 C   0  0  0  0  0  0  0  0  0  0  0  0
  1  3  1  0  0  0  0
  1  4  2  0  0  0  0
  1  5  1  0  0  0  0
  2  6  2  0  0  0  0
  2 11  1  0  0  0  0
  2  5  1  0  0  0  0
  4 10  1  0  0  0  0
  7  8  2  0  0  0  0
  7 12  1  0  0  0  0
  8  9  1  0  0  0  0
  9 10  2  0  0  0  0
 10 11  1  0  0  0  0
 11 12  2  0  0  0  0
M  END
>  <CHROM.1>
30.56386945,17.85314128,16.52140179,2.16490304,-0.92804157,-2.05537114

>  <Name>
ligand

>  <RI>
0

>  <Rbt.Current_Directory>
/home/itssahil/PROJECTS/Mol_Feturizer/New_Systems/rnas/4LX6

>  <Rbt.Executable>
rbdock ($Id: //depot/dev/client3/rdock/2013.1/src/exe/rbdock.cxx#4 $)

>  <Rbt.Library>
libRbt.so (2013.1, Build901 2013/11/27)

>  <Rbt.Parameter_File>
/export/apps/rDock/src/rDock_2013.1_src/data/scripts/dock_solv.prm

>  <Rbt.Receptor>
prm/blind_docking_60.prm

>  <SCORE>
-17.3145

>  <SCORE.INTER>
-17.3145

>  <SCORE.INTER.CONST>
1

>  <SCORE.INTER.POLAR>
0

>  <SCORE.INTER.ROT>
0

>  <SCORE.INTER.SOLV>
10.9908

>  <SCORE.INTER.VDW>
-18.8066

>  <SCORE.INTER.norm>
-1.44287

>  <SCORE.INTRA>
0

>  <SCORE.INTRA.DIHEDRAL>
0

>  <SCORE.INTRA.DIHEDRAL.0>
0

>  <SCORE.INTRA.POLAR>
0

>  <SCORE.INTRA.POLAR.0>
0

>  <SCORE.INTRA.REPUL>
0

>  <SCORE.INTRA.REPUL.0>
0

>  <SCORE.INTRA.SOLV>
0

>  <SCORE.INTRA.SOLV.lig_0>
-28.9128

>  <SCORE.INTRA.VDW>
0

>  <SCORE.INTRA.VDW.0>
0

>  <SCORE.INTRA.norm>
0

>  <SCORE.RESTR>
0

>  <SCORE.RESTR.CAVITY>
0

>  <SCORE.RESTR.norm>
0

>  <SCORE.SYSTEM>
0

>  <SCORE.SYSTEM.CONST>
0

>  <SCORE.SYSTEM.DIHEDRAL>
0

>  <SCORE.SYSTEM.SOLV>
0

>  <SCORE.SYSTEM.norm>
0

>  <SCORE.heavy>
12

>  <SCORE.norm>
-1.44287

>  <RMSD>
2.953

$$$$
ligand
 OpenBabel11021811503D
libRbt.so/2013.1/901 2013/11/27
 12 13  0  0  0  0  0  0  0  0999 V2000
   29.5619   16.0799   16.0210 C   0  0  0  0  0  0  0  0  0  0  0  0
   31.0068   17.7691   15.0814 C   0  0  0  0  0  0  0  0  0  0  0  0
   28.8670   14.9543   15.9043 N   0  0  0  0  0  0  0  0  0  0  0  0
   29.5781   16.7123   17.1988 N   0  0  0  0  0  0  0  0  0  0  0  0
   30.2818   16.5930   14.9260 N   0  0  0  0  0  0  0  0  0  0  0  0
   31.6326   18.2193   14.1177 O   0  0  0  0  0  0  0  0  0  0  0  0
   31.6677   20.2013   17.7939 N   0  0  0  0  0  0  0  0  0  0  0  0
   30.9262   19.6243   18.8367 C   0  0  0  0  0  0  0  0  0  0  0  0
   30.2255   18.4261   18.6037 N   0  0  0  0  0  0  0  0  0  0  0  0
   30.2545   17.8530   17.3838 C   0  0  0  0  0  0  0  0  0  0  0  0
   30.9899   18.4045   16.3257 C   0  0  0  0  0  0  0  0  0  0  0  0
   31.6940   19.5836   16.5205 C   0  0  0  0  0  0  0  0  0  0  0  0
  1  3  1  0  0  0  0
  1  4  2  0  0  0  0
  1  5  1  0  0  0  0
  2  6  2  0  0  0  0
  2 11  1  0  0  0  0
  2  5  1  0  0  0  0
  4 10  1  0  0  0  0
  7  8  2  0  0  0  0
  7 12  1  0  0  0  0
  8  9  1  0  0  0  0
  9 10  2  0  0  0  0
 10 11  1  0  0  0  0
 11 12  2  0  0  0  0
M  END
>  <CHROM.1>
30.55694615,17.84625432,16.51841595,2.16560811,-0.93182190,-2.05380370

>  <Name>
ligand

>  <RI>
0

>  <Rbt.Current_Directory>
/home/itssahil/PROJECTS/Mol_Feturizer/New_Systems/rnas/4LX6

>  <Rbt.Executable>
rbdock ($Id: //depot/dev/client3/rdock/2013.1/src/exe/rbdock.cxx#4 $)

>  <Rbt.Library>
libRbt.so (2013.1, Build901 2013/11/27)

>  <Rbt.Parameter_File>
/export/apps/rDock/src/rDock_2013.1_src/data/scripts/dock_solv.prm

>  <Rbt.Receptor>
prm/blind_docking_80.prm

>  <SCORE>
-17.3164

>  <SCORE.INTER>
-17.3164

>  <SCORE.INTER.CONST>
1

>  <SCORE.INTER.POLAR>
0

>  <SCORE.INTER.ROT>
0

>  <SCORE.INTER.SOLV>
11.0051

>  <SCORE.INTER.VDW>
-18.8126

>  <SCORE.INTER.norm>
-1.44303

>  <SCORE.INTRA>
0

>  <SCORE.INTRA.DIHEDRAL>
0

>  <SCORE.INTRA.DIHEDRAL.0>
0

>  <SCORE.INTRA.POLAR>
0

>  <SCORE.INTRA.POLAR.0>
0

>  <SCORE.INTRA.REPUL>
0

>  <SCORE.INTRA.REPUL.0>
0

>  <SCORE.INTRA.SOLV>
0

>  <SCORE.INTRA.SOLV.lig_0>
-28.9128

>  <SCORE.INTRA.VDW>
0

>  <SCORE.INTRA.VDW.0>
0

>  <SCORE.INTRA.norm>
0

>  <SCORE.RESTR>
0

>  <SCORE.RESTR.CAVITY>
0

>  <SCORE.RESTR.norm>
0

>  <SCORE.SYSTEM>
0

>  <SCORE.SYSTEM.CONST>
0

>  <SCORE.SYSTEM.DIHEDRAL>
0

>  <SCORE.SYSTEM.SOLV>
0

>  <SCORE.SYSTEM.norm>
0

>  <SCORE.heavy>
12

>  <SCORE.norm>
-1.44303

>  <RMSD>
2.953

$$$$
ligand
 OpenBabel11021811503D
libRbt.so/2013.1/901 2013/11/27
 12 13  0  0  0  0  0  0  0  0999 V2000
   29.5667   16.1034   16.0266 C   0  0  0  0  0  0  0  0  0  0  0  0
   30.9785   17.8215   15.0892 C   0  0  0  0  0  0  0  0  0  0  0  0
   28.8828   14.9717   15.9046 N   0  0  0  0  0  0  0  0  0  0  0  0
   29.5934   16.7199   17.2126 N   0  0  0  0  0  0  0  0  0  0  0  0
   30.2645   16.6395   14.9283 N   0  0  0  0  0  0  0  0  0  0  0  0
   31.5848   18.2919   14.1226 O   0  0  0  0  0  0  0  0  0  0  0  0
   31.6524   20.2240   17.8248 N   0  0  0  0  0  0  0  0  0  0  0  0
   30.9330   19.6245   18.8704 C   0  0  0  0  0  0  0  0  0  0  0  0
   30.2424   18.4217   18.6313 N   0  0  0  0  0  0  0  0  0  0  0  0
   30.2597   17.8656   17.4034 C   0  0  0  0  0  0  0  0  0  0  0  0
   30.9730   18.4397   16.3421 C   0  0  0  0  0  0  0  0  0  0  0  0
   31.6667   19.6240   16.5428 C   0  0  0  0  0  0  0  0  0  0  0  0
  1  3  1  0  0  0  0
  1  4  2  0  0  0  0
  1  5  1  0  0  0  0
  2  6  2  0  0  0  0
  2 11  1  0  0  0  0
  2  5  1  0  0  0  0
  4 10  1  0  0  0  0
  7  8  2  0  0  0  0
  7 12  1  0  0  0  0
  8  9  1  0  0  0  0
  9 10  2  0  0  0  0
 10 11  1  0  0  0  0
 11 12  2  0  0  0  0
M  END
>  <CHROM.1>
30.54923183,17.87404068,16.53355717,2.17930387,-0.94858150,-2.02907360

>  <Name>
ligand

>  <RI>
0

>  <Rbt.Current_Directory>
/home/itssahil/PROJECTS/Mol_Feturizer/New_Systems/rnas/4LX6

>  <Rbt.Executable>
rbdock ($Id: //depot/dev/client3/rdock/2013.1/src/exe/rbdock.cxx#4 $)

>  <Rbt.Library>
libRbt.so (2013.1, Build901 2013/11/27)

>  <Rbt.Parameter_File>
/export/apps/rDock/src/rDock_2013.1_src/data/scripts/dock_solv.prm

>  <Rbt.Receptor>
prm/blind_docking_80.prm

>  <SCORE>
-17.3192

>  <SCORE.INTER>
-17.3192

>  <SCORE.INTER.CONST>
1

>  <SCORE.INTER.POLAR>
0

>  <SCORE.INTER.ROT>
0

>  <SCORE.INTER.SOLV>
11.0218

>  <SCORE.INTER.VDW>
-18.82

>  <SCORE.INTER.norm>
-1.44326

>  <SCORE.INTRA>
0

>  <SCORE.INTRA.DIHEDRAL>
0

>  <SCORE.INTRA.DIHEDRAL.0>
0

>  <SCORE.INTRA.POLAR>
0

>  <SCORE.INTRA.POLAR.0>
0

>  <SCORE.INTRA.REPUL>
0

>  <SCORE.INTRA.REPUL.0>
0

>  <SCORE.INTRA.SOLV>
0

>  <SCORE.INTRA.SOLV.lig_0>
-28.9128

>  <SCORE.INTRA.VDW>
0

>  <SCORE.INTRA.VDW.0>
0

>  <SCORE.INTRA.norm>
0

>  <SCORE.RESTR>
0

>  <SCORE.RESTR.CAVITY>
0

>  <SCORE.RESTR.norm>
0

>  <SCORE.SYSTEM>
0

>  <SCORE.SYSTEM.CONST>
0

>  <SCORE.SYSTEM.DIHEDRAL>
0

>  <SCORE.SYSTEM.SOLV>
0

>  <SCORE.SYSTEM.norm>
0

>  <SCORE.heavy>
12

>  <SCORE.norm>
-1.44326

>  <RMSD>
2.953

$$$$
ligand
 OpenBabel11021811503D
libRbt.so/2013.1/901 2013/11/27
 12 13  0  0  0  0  0  0  0  0999 V2000
   29.5636   16.1006   16.0220 C   0  0  0  0  0  0  0  0  0  0  0  0
   30.9862   17.8156   15.0953 C   0  0  0  0  0  0  0  0  0  0  0  0
   28.8839   14.9666   15.8968 N   0  0  0  0  0  0  0  0  0  0  0  0
   29.5709   16.7246   17.2043 N   0  0  0  0  0  0  0  0  0  0  0  0
   30.2771   16.6310   14.9311 N   0  0  0  0  0  0  0  0  0  0  0  0
   31.6064   18.2810   14.1352 O   0  0  0  0  0  0  0  0  0  0  0  0
   31.6134   20.2368   17.8256 N   0  0  0  0  0  0  0  0  0  0  0  0
   30.8792   19.6425   18.8638 C   0  0  0  0  0  0  0  0  0  0  0  0
   30.1946   18.4367   18.6218 N   0  0  0  0  0  0  0  0  0  0  0  0
   30.2319   17.8729   17.3979 C   0  0  0  0  0  0  0  0  0  0  0  0
   30.9603   18.4417   16.3441 C   0  0  0  0  0  0  0  0  0  0  0  0
   31.6485   19.6287   16.5478 C   0  0  0  0  0  0  0  0  0  0  0  0
  1  3  1  0  0  0  0
  1  4  2  0  0  0  0
  1  5  1  0  0  0  0
  2  6  2  0  0  0  0
  2 11  1  0  0  0  0
  2  5  1  0  0  0  0
  4 10  1  0  0  0  0
  7  8  2  0  0  0  0
  7 12  1  0  0  0  0
  8  9  1  0  0  0  0
  9 10  2  0  0  0  0
 10 11  1  0  0  0  0
 11 12  2  0  0  0  0
M  END
>  <CHROM.1>
30.53476469,17.87638288,16.53261911,2.15436004,-0.94340784,-2.05568239

>  <Name>
ligand

>  <RI>
0

>  <Rbt.Current_Directory>
/home/itssahil/PROJECTS/Mol_Feturizer/New_Systems/rnas/4LX6

>  <Rbt.Executable>
rbdock ($Id: //depot/dev/client3/rdock/2013.1/src/exe/rbdock.cxx#4 $)

>  <Rbt.Library>
libRbt.so (2013.1, Build901 2013/11/27)

>  <Rbt.Parameter_File>
/export/apps/rDock/src/rDock_2013.1_src/data/scripts/dock_solv.prm

>  <Rbt.Receptor>
prm/pocket_docking_3.prm

>  <SCORE>
-17.2925

>  <SCORE.INTER>
-17.2925

>  <SCORE.INTER.CONST>
1

>  <SCORE.INTER.POLAR>
0

>  <SCORE.INTER.ROT>
0

>  <SCORE.INTER.SOLV>
11.049

>  <SCORE.INTER.VDW>
-18.8114

>  <SCORE.INTER.norm>
-1.44104

>  <SCORE.INTRA>
0

>  <SCORE.INTRA.DIHEDRAL>
0

>  <SCORE.INTRA.DIHEDRAL.0>
0

>  <SCORE.INTRA.POLAR>
0

>  <SCORE.INTRA.POLAR.0>
0

>  <SCORE.INTRA.REPUL>
0

>  <SCORE.INTRA.REPUL.0>
0

>  <SCORE.INTRA.SOLV>
0

>  <SCORE.INTRA.SOLV.lig_0>
-28.9128

>  <SCORE.INTRA.VDW>
0

>  <SCORE.INTRA.VDW.0>
0

>  <SCORE.INTRA.norm>
0

>  <SCORE.RESTR>
0

>  <SCORE.RESTR.CAVITY>
0

>  <SCORE.RESTR.norm>
0

>  <SCORE.SYSTEM>
0

>  <SCORE.SYSTEM.CONST>
0

>  <SCORE.SYSTEM.DIHEDRAL>
0

>  <SCORE.SYSTEM.SOLV>
0

>  <SCORE.SYSTEM.norm>
0

>  <SCORE.heavy>
12

>  <SCORE.norm>
-1.44104

>  <RMSD>
2.953

$$$$
ligand
 OpenBabel11021811503D
libRbt.so/2013.1/901 2013/11/27
 12 13  0  0  0  0  0  0  0  0999 V2000
   29.5628   16.0786   16.0202 C   0  0  0  0  0  0  0  0  0  0  0  0
   31.0096   17.7672   15.0824 C   0  0  0  0  0  0  0  0  0  0  0  0
   28.8692   14.9523   15.9032 N   0  0  0  0  0  0  0  0  0  0  0  0
   29.5748   16.7131   17.1969 N   0  0  0  0  0  0  0  0  0  0  0  0
   30.2859   16.5903   14.9267 N   0  0  0  0  0  0  0  0  0  0  0  0
   31.6381   18.2162   14.1199 O   0  0  0  0  0  0  0  0  0  0  0  0
   31.6600   20.2046   17.7928 N   0  0  0  0  0  0  0  0  0  0  0  0
   30.9155   19.6288   18.8342 C   0  0  0  0  0  0  0  0  0  0  0  0
   30.2164   18.4297   18.6010 N   0  0  0  0  0  0  0  0  0  0  0  0
   30.2498   17.8546   17.3822 C   0  0  0  0  0  0  0  0  0  0  0  0
   30.9882   18.4047   16.3255 C   0  0  0  0  0  0  0  0  0  0  0  0
   31.6908   19.5847   16.5206 C   0  0  0  0  0  0  0  0  0  0  0  0
  1  3  1  0  0  0  0
  1  4  2  0  0  0  0
  1  5  1  0  0  0  0
  2  6  2  0  0  0  0
  2 11  1  0  0  0  0
  2  5  1  0  0  0  0
  4 10  1  0  0  0  0
  7  8  2  0  0  0  0
  7 12  1  0  0  0  0
  8  9  1  0  0  0  0
  9 10  2  0  0  0  0
 10 11  1  0  0  0  0
 11 12  2  0  0  0  0
M  END
>  <CHROM.1>
30.55502489,17.84652944,16.51781061,2.16026094,-0.93095185,-2.05981337

>  <Name>
ligand

>  <RI>
0

>  <Rbt.Current_Directory>
/home/itssahil/PROJECTS/Mol_Feturizer/New_Systems/rnas/4LX6

>  <Rbt.Executable>
rbdock ($Id: //depot/dev/client3/rdock/2013.1/src/exe/rbdock.cxx#4 $)

>  <Rbt.Library>
libRbt.so (2013.1, Build901 2013/11/27)

>  <Rbt.Parameter_File>
/export/apps/rDock/src/rDock_2013.1_src/data/scripts/dock_solv.prm

>  <Rbt.Receptor>
prm/pocket_docking_3.prm

>  <SCORE>
-17.3114

>  <SCORE.INTER>
-17.3114

>  <SCORE.INTER.CONST>
1

>  <SCORE.INTER.POLAR>
0

>  <SCORE.INTER.ROT>
0

>  <SCORE.INTER.SOLV>
11.02

>  <SCORE.INTER.VDW>
-18.8143

>  <SCORE.INTER.norm>
-1.44262

>  <SCORE.INTRA>
0

>  <SCORE.INTRA.DIHEDRAL>
0

>  <SCORE.INTRA.DIHEDRAL.0>
0

>  <SCORE.INTRA.POLAR>
0

>  <SCORE.INTRA.POLAR.0>
0

>  <SCORE.INTRA.REPUL>
0

>  <SCORE.INTRA.REPUL.0>
0

>  <SCORE.INTRA.SOLV>
0

>  <SCORE.INTRA.SOLV.lig_0>
-28.9128

>  <SCORE.INTRA.VDW>
0

>  <SCORE.INTRA.VDW.0>
0

>  <SCORE.INTRA.norm>
0

>  <SCORE.RESTR>
0

>  <SCORE.RESTR.CAVITY>
0

>  <SCORE.RESTR.norm>
0

>  <SCORE.SYSTEM>
0

>  <SCORE.SYSTEM.CONST>
0

>  <SCORE.SYSTEM.DIHEDRAL>
0

>  <SCORE.SYSTEM.SOLV>
0

>  <SCORE.SYSTEM.norm>
0

>  <SCORE.heavy>
12

>  <SCORE.norm>
-1.44262

>  <RMSD>
2.953

$$$$
ligand
 OpenBabel11021811503D
libRbt.so/2013.1/901 2013/11/27
 12 13  0  0  0  0  0  0  0  0999 V2000
   29.5626   16.0903   16.0197 C   0  0  0  0  0  0  0  0  0  0  0  0
   31.0212   17.7736   15.0905 C   0  0  0  0  0  0  0  0  0  0  0  0
   28.8626   14.9685   15.8973 N   0  0  0  0  0  0  0  0  0  0  0  0
   29.5759   16.7207   17.1985 N   0  0  0  0  0  0  0  0  0  0  0  0
   30.2910   16.6015   14.9293 N   0  0  0  0  0  0  0  0  0  0  0  0
   31.6543   18.2221   14.1309 O   0  0  0  0  0  0  0  0  0  0  0  0
   31.6803   20.1978   17.8105 N   0  0  0  0  0  0  0  0  0  0  0  0
   30.9304   19.6229   18.8485 C   0  0  0  0  0  0  0  0  0  0  0  0
   30.2247   18.4287   18.6097 N   0  0  0  0  0  0  0  0  0  0  0  0
   30.2572   17.8575   17.3891 C   0  0  0  0  0  0  0  0  0  0  0  0
   31.0010   18.4069   16.3357 C   0  0  0  0  0  0  0  0  0  0  0  0
   31.7101   19.5821   16.5363 C   0  0  0  0  0  0  0  0  0  0  0  0
  1  3  1  0  0  0  0
  1  4  2  0  0  0  0
  1  5  1  0  0  0  0
  2  6  2  0  0  0  0
  2 11  1  0  0  0  0
  2  5  1  0  0  0  0
  4 10  1  0  0  0  0
  7  8  2  0  0  0  0
  7 12  1  0  0  0  0
  8  9  1  0  0  0  0
  9 10  2  0  0  0  0
 10 11  1  0  0  0  0
 11 12  2  0  0  0  0
M  END
>  <CHROM.1>
30.56416492,17.85064138,16.52527006,2.16183858,-0.92481213,-2.05514478

>  <Name>
ligand

>  <RI>
0

>  <Rbt.Current_Directory>
/home/itssahil/PROJECTS/Mol_Feturizer/New_Systems/rnas/4LX6

>  <Rbt.Executable>
rbdock ($Id: //depot/dev/client3/rdock/2013.1/src/exe/rbdock.cxx#4 $)

>  <Rbt.Library>
libRbt.so (2013.1, Build901 2013/11/27)

>  <Rbt.Parameter_File>
/export/apps/rDock/src/rDock_2013.1_src/data/scripts/dock_solv.prm

>  <Rbt.Receptor>
prm/pocket_docking_4.prm

>  <SCORE>
-17.3124

>  <SCORE.INTER>
-17.3124

>  <SCORE.INTER.CONST>
1

>  <SCORE.INTER.POLAR>
0

>  <SCORE.INTER.ROT>
0

>  <SCORE.INTER.SOLV>
10.9747

>  <SCORE.INTER.VDW>
-18.7998

>  <SCORE.INTER.norm>
-1.4427

>  <SCORE.INTRA>
0

>  <SCORE.INTRA.DIHEDRAL>
0

>  <SCORE.INTRA.DIHEDRAL.0>
0

>  <SCORE.INTRA.POLAR>
0

>  <SCORE.INTRA.POLAR.0>
0

>  <SCORE.INTRA.REPUL>
0

>  <SCORE.INTRA.REPUL.0>
0

>  <SCORE.INTRA.SOLV>
0

>  <SCORE.INTRA.SOLV.lig_0>
-28.9128

>  <SCORE.INTRA.VDW>
0

>  <SCORE.INTRA.VDW.0>
0

>  <SCORE.INTRA.norm>
0

>  <SCORE.RESTR>
0

>  <SCORE.RESTR.CAVITY>
0

>  <SCORE.RESTR.norm>
0

>  <SCORE.SYSTEM>
0

>  <SCORE.SYSTEM.CONST>
0

>  <SCORE.SYSTEM.DIHEDRAL>
0

>  <SCORE.SYSTEM.SOLV>
0

>  <SCORE.SYSTEM.norm>
0

>  <SCORE.heavy>
12

>  <SCORE.norm>
-1.4427

>  <RMSD>
2.953

$$$$
ligand
 OpenBabel11021811503D
libRbt.so/2013.1/901 2013/11/27
 12 13  0  0  0  0  0  0  0  0999 V2000
   29.5646   16.1006   16.0238 C   0  0  0  0  0  0  0  0  0  0  0  0
   30.9797   17.8178   15.0896 C   0  0  0  0  0  0  0  0  0  0  0  0
   28.8828   14.9676   15.9010 N   0  0  0  0  0  0  0  0  0  0  0  0
   29.5836   16.7205   17.2081 N   0  0  0  0  0  0  0  0  0  0  0  0
   30.2681   16.6344   14.9280 N   0  0  0  0  0  0  0  0  0  0  0  0
   31.5910   18.2861   14.1253 O   0  0  0  0  0  0  0  0  0  0  0  0
   31.6347   20.2289   17.8223 N   0  0  0  0  0  0  0  0  0  0  0  0
   30.9100   19.6315   18.8654 C   0  0  0  0  0  0  0  0  0  0  0  0
   30.2222   18.4271   18.6257 N   0  0  0  0  0  0  0  0  0  0  0  0
   30.2473   17.8676   17.3995 C   0  0  0  0  0  0  0  0  0  0  0  0
   30.9661   18.4395   16.3408 C   0  0  0  0  0  0  0  0  0  0  0  0
   31.6571   19.6252   16.5422 C   0  0  0  0  0  0  0  0  0  0  0  0
  1  3  1  0  0  0  0
  1  4  2  0  0  0  0
  1  5  1  0  0  0  0
  2  6  2  0  0  0  0
  2 11  1  0  0  0  0
  2  5  1  0  0  0  0
  4 10  1  0  0  0  0
  7  8  2  0  0  0  0
  7 12  1  0  0  0  0
  8  9  1  0  0  0  0
  9 10  2  0  0  0  0
 10 11  1  0  0  0  0
 11 12  2  0  0  0  0
M  END
>  <CHROM.1>
30.54196222,17.87386522,16.53137256,2.16941201,-0.94709798,-2.03995493

>  <Name>
ligand

>  <RI>
0

>  <Rbt.Current_Directory>
/home/itssahil/PROJECTS/Mol_Feturizer/New_Systems/rnas/4LX6

>  <Rbt.Executable>
rbdock ($Id: //depot/dev/client3/rdock/2013.1/src/exe/rbdock.cxx#4 $)

>  <Rbt.Library>
libRbt.so (2013.1, Build901 2013/11/27)

>  <Rbt.Parameter_File>
/export/apps/rDock/src/rDock_2013.1_src/data/scripts/dock_solv.prm

>  <Rbt.Receptor>
prm/pocket_docking_5.prm

>  <SCORE>
-17.3169

>  <SCORE.INTER>
-17.3169

>  <SCORE.INTER.CONST>
1

>  <SCORE.INTER.POLAR>
0

>  <SCORE.INTER.ROT>
0

>  <SCORE.INTER.SOLV>
11.0333

>  <SCORE.INTER.VDW>
-18.8224

>  <SCORE.INTER.norm>
-1.44308

>  <SCORE.INTRA>
0

>  <SCORE.INTRA.DIHEDRAL>
0

>  <SCORE.INTRA.DIHEDRAL.0>
0

>  <SCORE.INTRA.POLAR>
0

>  <SCORE.INTRA.POLAR.0>
0

>  <SCORE.INTRA.REPUL>
0

>  <SCORE.INTRA.REPUL.0>
0

>  <SCORE.INTRA.SOLV>
0

>  <SCORE.INTRA.SOLV.lig_0>
-28.9128

>  <SCORE.INTRA.VDW>
0

>  <SCORE.INTRA.VDW.0>
0

>  <SCORE.INTRA.norm>
0

>  <SCORE.RESTR>
0

>  <SCORE.RESTR.CAVITY>
0

>  <SCORE.RESTR.norm>
0

>  <SCORE.SYSTEM>
0

>  <SCORE.SYSTEM.CONST>
0

>  <SCORE.SYSTEM.DIHEDRAL>
0

>  <SCORE.SYSTEM.SOLV>
0

>  <SCORE.SYSTEM.norm>
0

>  <SCORE.heavy>
12

>  <SCORE.norm>
-1.44308

>  <RMSD>
2.953

$$$$
ligand
 OpenBabel11021811503D
libRbt.so/2013.1/901 2013/11/27
 12 13  0  0  0  0  0  0  0  0999 V2000
   29.5634   16.1091   16.0198 C   0  0  0  0  0  0  0  0  0  0  0  0
   30.9901   17.8246   15.1002 C   0  0  0  0  0  0  0  0  0  0  0  0
   28.8804   14.9777   15.8897 N   0  0  0  0  0  0  0  0  0  0  0  0
   29.5735   16.7274   17.2051 N   0  0  0  0  0  0  0  0  0  0  0  0
   30.2775   16.6428   14.9309 N   0  0  0  0  0  0  0  0  0  0  0  0
   31.6107   18.2929   14.1418 O   0  0  0  0  0  0  0  0  0  0  0  0
   31.6265   20.2307   17.8416 N   0  0  0  0  0  0  0  0  0  0  0  0
   30.8916   19.6334   18.8777 C   0  0  0  0  0  0  0  0  0  0  0  0
   30.2034   18.4307   18.6304 N   0  0  0  0  0  0  0  0  0  0  0  0
   30.2380   17.8728   17.4037 C   0  0  0  0  0  0  0  0  0  0  0  0
   30.9670   18.4447   16.3521 C   0  0  0  0  0  0  0  0  0  0  0  0
   31.6587   19.6287   16.5609 C   0  0  0  0  0  0  0  0  0  0  0  0
  1  3  1  0  0  0  0
  1  4  2  0  0  0  0
  1  5  1  0  0  0  0
  2  6  2  0  0  0  0
  2 11  1  0  0  0  0
  2  5  1  0  0  0  0
  4 10  1  0  0  0  0
  7  8  2  0  0  0  0
  7 12  1  0  0  0  0
  8  9  1  0  0  0  0
  9 10  2  0  0  0  0
 10 11  1  0  0  0  0
 11 12  2  0  0  0  0
M  END
>  <CHROM.1>
30.54007892,17.87964266,16.53818584,2.15793146,-0.94132043,-2.04792653

>  <Name>
ligand

>  <RI>
0

>  <Rbt.Current_Directory>
/home/itssahil/PROJECTS/Mol_Feturizer/New_Systems/rnas/4LX6

>  <Rbt.Executable>
rbdock ($Id: //depot/dev/client3/rdock/2013.1/src/exe/rbdock.cxx#4 $)

>  <Rbt.Library>
libRbt.so (2013.1, Build901 2013/11/27)

>  <Rbt.Parameter_File>
/export/apps/rDock/src/rDock_2013.1_src/data/scripts/dock_solv.prm

>  <Rbt.Receptor>
prm/pocket_docking_5.prm

>  <SCORE>
-17.3041

>  <SCORE.INTER>
-17.3041

>  <SCORE.INTER.CONST>
1

>  <SCORE.INTER.POLAR>
0

>  <SCORE.INTER.ROT>
0

>  <SCORE.INTER.SOLV>
11.0204

>  <SCORE.INTER.VDW>
-18.8095

>  <SCORE.INTER.norm>
-1.44201

>  <SCORE.INTRA>
0

>  <SCORE.INTRA.DIHEDRAL>
0

>  <SCORE.INTRA.DIHEDRAL.0>
0

>  <SCORE.INTRA.POLAR>
0

>  <SCORE.INTRA.POLAR.0>
0

>  <SCORE.INTRA.REPUL>
0

>  <SCORE.INTRA.REPUL.0>
0

>  <SCORE.INTRA.SOLV>
0

>  <SCORE.INTRA.SOLV.lig_0>
-28.9128

>  <SCORE.INTRA.VDW>
0

>  <SCORE.INTRA.VDW.0>
0

>  <SCORE.INTRA.norm>
0

>  <SCORE.RESTR>
0

>  <SCORE.RESTR.CAVITY>
0

>  <SCORE.RESTR.norm>
0

>  <SCORE.SYSTEM>
0

>  <SCORE.SYSTEM.CONST>
0

>  <SCORE.SYSTEM.DIHEDRAL>
0

>  <SCORE.SYSTEM.SOLV>
0

>  <SCORE.SYSTEM.norm>
0

>  <SCORE.heavy>
12

>  <SCORE.norm>
-1.44201

>  <RMSD>
2.953

$$$$
ligand
 OpenBabel11021811503D
libRbt.so/2013.1/901 2013/11/27
 12 13  0  0  0  0  0  0  0  0999 V2000
   29.5642   16.0871   16.0219 C   0  0  0  0  0  0  0  0  0  0  0  0
   31.0209   17.7701   15.0893 C   0  0  0  0  0  0  0  0  0  0  0  0
   28.8665   14.9635   15.9022 N   0  0  0  0  0  0  0  0  0  0  0  0
   29.5744   16.7215   17.1986 N   0  0  0  0  0  0  0  0  0  0  0  0
   30.2932   16.5960   14.9310 N   0  0  0  0  0  0  0  0  0  0  0  0
   31.6547   18.2166   14.1292 O   0  0  0  0  0  0  0  0  0  0  0  0
   31.6709   20.2048   17.8021 N   0  0  0  0  0  0  0  0  0  0  0  0
   30.9205   19.6320   18.8409 C   0  0  0  0  0  0  0  0  0  0  0  0
   30.2175   18.4356   18.6051 N   0  0  0  0  0  0  0  0  0  0  0  0
   30.2531   17.8604   17.3864 C   0  0  0  0  0  0  0  0  0  0  0  0
   30.9975   18.4077   16.3324 C   0  0  0  0  0  0  0  0  0  0  0  0
   31.7040   19.5848   16.5301 C   0  0  0  0  0  0  0  0  0  0  0  0
  1  3  1  0  0  0  0
  1  4  2  0  0  0  0
  1  5  1  0  0  0  0
  2  6  2  0  0  0  0
  2 11  1  0  0  0  0
  2  5  1  0  0  0  0
  4 10  1  0  0  0  0
  7  8  2  0  0  0  0
  7 12  1  0  0  0  0
  8  9  1  0  0  0  0
  9 10  2  0  0  0  0
 10 11  1  0  0  0  0
 11 12  2  0  0  0  0
M  END
>  <CHROM.1>
30.56145259,17.85114520,16.52309500,2.15797473,-0.92580053,-2.06161828

>  <Name>
ligand

>  <RI>
0

>  <Rbt.Current_Directory>
/home/itssahil/PROJECTS/Mol_Feturizer/New_Systems/rnas/4LX6

>  <Rbt.Executable>
rbdock ($Id: //depot/dev/client3/rdock/2013.1/src/exe/rbdock.cxx#4 $)

>  <Rbt.Library>
libRbt.so (2013.1, Build901 2013/11/27)

>  <Rbt.Parameter_File>
/export/apps/rDock/src/rDock_2013.1_src/data/scripts/dock_solv.prm

>  <Rbt.Receptor>
prm/pocket_docking_5.prm

>  <SCORE>
-17.3092

>  <SCORE.INTER>
-17.3092

>  <SCORE.INTER.CONST>
1

>  <SCORE.INTER.POLAR>
0

>  <SCORE.INTER.ROT>
0

>  <SCORE.INTER.SOLV>
10.999

>  <SCORE.INTER.VDW>
-18.8058

>  <SCORE.INTER.norm>
-1.44243

>  <SCORE.INTRA>
0

>  <SCORE.INTRA.DIHEDRAL>
0

>  <SCORE.INTRA.DIHEDRAL.0>
0

>  <SCORE.INTRA.POLAR>
0

>  <SCORE.INTRA.POLAR.0>
0

>  <SCORE.INTRA.REPUL>
0

>  <SCORE.INTRA.REPUL.0>
0

>  <SCORE.INTRA.SOLV>
0

>  <SCORE.INTRA.SOLV.lig_0>
-28.9128

>  <SCORE.INTRA.VDW>
0

>  <SCORE.INTRA.VDW.0>
0

>  <SCORE.INTRA.norm>
0

>  <SCORE.RESTR>
0

>  <SCORE.RESTR.CAVITY>
0

>  <SCORE.RESTR.norm>
0

>  <SCORE.SYSTEM>
0

>  <SCORE.SYSTEM.CONST>
0

>  <SCORE.SYSTEM.DIHEDRAL>
0

>  <SCORE.SYSTEM.SOLV>
0

>  <SCORE.SYSTEM.norm>
0

>  <SCORE.heavy>
12

>  <SCORE.norm>
-1.44243

>  <RMSD>
2.953

$$$$
ligand
 OpenBabel11021811503D
libRbt.so/2013.1/901 2013/11/27
 12 13  0  0  0  0  0  0  0  0999 V2000
   29.5677   16.1060   16.0292 C   0  0  0  0  0  0  0  0  0  0  0  0
   30.9840   17.8210   15.0928 C   0  0  0  0  0  0  0  0  0  0  0  0
   28.8835   14.9744   15.9074 N   0  0  0  0  0  0  0  0  0  0  0  0
   29.5905   16.7253   17.2137 N   0  0  0  0  0  0  0  0  0  0  0  0
   30.2698   16.6390   14.9321 N   0  0  0  0  0  0  0  0  0  0  0  0
   31.5941   18.2886   14.1273 O   0  0  0  0  0  0  0  0  0  0  0  0
   31.6496   20.2295   17.8251 N   0  0  0  0  0  0  0  0  0  0  0  0
   30.9260   19.6329   18.8696 C   0  0  0  0  0  0  0  0  0  0  0  0
   30.2354   18.4299   18.6308 N   0  0  0  0  0  0  0  0  0  0  0  0
   30.2568   17.8710   17.4042 C   0  0  0  0  0  0  0  0  0  0  0  0
   30.9743   18.4421   16.3443 C   0  0  0  0  0  0  0  0  0  0  0  0
   31.6681   19.6264   16.5447 C   0  0  0  0  0  0  0  0  0  0  0  0
  1  3  1  0  0  0  0
  1  4  2  0  0  0  0
  1  5  1  0  0  0  0
  2  6  2  0  0  0  0
  2 11  1  0  0  0  0
  2  5  1  0  0  0  0
  4 10  1  0  0  0  0
  7  8  2  0  0  0  0
  7 12  1  0  0  0  0
  8  9  1  0  0  0  0
  9 10  2  0  0  0  0
 10 11  1  0  0  0  0
 11 12  2  0  0  0  0
M  END
>  <CHROM.1>
30.54955876,17.87716278,16.53548136,2.17421588,-0.94640454,-2.03556449

>  <Name>
ligand

>  <RI>
0

>  <Rbt.Current_Directory>
/home/itssahil/PROJECTS/Mol_Feturizer/New_Systems/rnas/4LX6

>  <Rbt.Executable>
rbdock ($Id: //depot/dev/client3/rdock/2013.1/src/exe/rbdock.cxx#4 $)

>  <Rbt.Library>
libRbt.so (2013.1, Build901 2013/11/27)

>  <Rbt.Parameter_File>
/export/apps/rDock/src/rDock_2013.1_src/data/scripts/dock_solv.prm

>  <Rbt.Receptor>
prm/pocket_docking_6.prm

>  <SCORE>
-17.3184

>  <SCORE.INTER>
-17.3184

>  <SCORE.INTER.CONST>
1

>  <SCORE.INTER.POLAR>
0

>  <SCORE.INTER.ROT>
0

>  <SCORE.INTER.SOLV>
11.025

>  <SCORE.INTER.VDW>
-18.8206

>  <SCORE.INTER.norm>
-1.4432

>  <SCORE.INTRA>
0

>  <SCORE.INTRA.DIHEDRAL>
0

>  <SCORE.INTRA.DIHEDRAL.0>
0

>  <SCORE.INTRA.POLAR>
0

>  <SCORE.INTRA.POLAR.0>
0

>  <SCORE.INTRA.REPUL>
0

>  <SCORE.INTRA.REPUL.0>
0

>  <SCORE.INTRA.SOLV>
0

>  <SCORE.INTRA.SOLV.lig_0>
-28.9128

>  <SCORE.INTRA.VDW>
0

>  <SCORE.INTRA.VDW.0>
0

>  <SCORE.INTRA.norm>
0

>  <SCORE.RESTR>
0

>  <SCORE.RESTR.CAVITY>
0

>  <SCORE.RESTR.norm>
0

>  <SCORE.SYSTEM>
0

>  <SCORE.SYSTEM.CONST>
0

>  <SCORE.SYSTEM.DIHEDRAL>
0

>  <SCORE.SYSTEM.SOLV>
0

>  <SCORE.SYSTEM.norm>
0

>  <SCORE.heavy>
12

>  <SCORE.norm>
-1.4432

>  <RMSD>
2.953

$$$$
ligand
 OpenBabel11021811503D
libRbt.so/2013.1/901 2013/11/27
 12 13  0  0  0  0  0  0  0  0999 V2000
   29.5650   16.0796   16.0257 C   0  0  0  0  0  0  0  0  0  0  0  0
   30.9986   17.7701   15.0713 C   0  0  0  0  0  0  0  0  0  0  0  0
   28.8731   14.9513   15.9173 N   0  0  0  0  0  0  0  0  0  0  0  0
   29.5861   16.7164   17.2010 N   0  0  0  0  0  0  0  0  0  0  0  0
   30.2766   16.5910   14.9246 N   0  0  0  0  0  0  0  0  0  0  0  0
   31.6172   18.2187   14.1023 O   0  0  0  0  0  0  0  0  0  0  0  0
   31.6676   20.2144   17.7708 N   0  0  0  0  0  0  0  0  0  0  0  0
   30.9342   19.6389   18.8202 C   0  0  0  0  0  0  0  0  0  0  0  0
   30.2361   18.4375   18.5958 N   0  0  0  0  0  0  0  0  0  0  0  0
   30.2598   17.8600   17.3779 C   0  0  0  0  0  0  0  0  0  0  0  0
   30.9870   18.4100   16.3133 C   0  0  0  0  0  0  0  0  0  0  0  0
   31.6883   19.5921   16.4997 C   0  0  0  0  0  0  0  0  0  0  0  0
  1  3  1  0  0  0  0
  1  4  2  0  0  0  0
  1  5  1  0  0  0  0
  2  6  2  0  0  0  0
  2 11  1  0  0  0  0
  2  5  1  0  0  0  0
  4 10  1  0  0  0  0
  7  8  2  0  0  0  0
  7 12  1  0  0  0  0
  8  9  1  0  0  0  0
  9 10  2  0  0  0  0
 10 11  1  0  0  0  0
 11 12  2  0  0  0  0
M  END
>  <CHROM.1>
30.55709509,17.85104989,16.51069704,2.17190301,-0.93751402,-2.05242798

>  <Name>
ligand

>  <RI>
0

>  <Rbt.Current_Directory>
/home/itssahil/PROJECTS/Mol_Feturizer/New_Systems/rnas/4LX6

>  <Rbt.Executable>
rbdock ($Id: //depot/dev/client3/rdock/2013.1/src/exe/rbdock.cxx#4 $)

>  <Rbt.Library>
libRbt.so (2013.1, Build901 2013/11/27)

>  <Rbt.Parameter_File>
/export/apps/rDock/src/rDock_2013.1_src/data/scripts/dock_solv.prm

>  <Rbt.Receptor>
prm/pocket_docking_6.prm

>  <SCORE>
-17.3172

>  <SCORE.INTER>
-17.3172

>  <SCORE.INTER.CONST>
1

>  <SCORE.INTER.POLAR>
0

>  <SCORE.INTER.ROT>
0

>  <SCORE.INTER.SOLV>
11.0313

>  <SCORE.INTER.VDW>
-18.8219

>  <SCORE.INTER.norm>
-1.4431

>  <SCORE.INTRA>
0

>  <SCORE.INTRA.DIHEDRAL>
0

>  <SCORE.INTRA.DIHEDRAL.0>
0

>  <SCORE.INTRA.POLAR>
0

>  <SCORE.INTRA.POLAR.0>
0

>  <SCORE.INTRA.REPUL>
0

>  <SCORE.INTRA.REPUL.0>
0

>  <SCORE.INTRA.SOLV>
0

>  <SCORE.INTRA.SOLV.lig_0>
-28.9128

>  <SCORE.INTRA.VDW>
0

>  <SCORE.INTRA.VDW.0>
0

>  <SCORE.INTRA.norm>
0

>  <SCORE.RESTR>
0

>  <SCORE.RESTR.CAVITY>
0

>  <SCORE.RESTR.norm>
0

>  <SCORE.SYSTEM>
0

>  <SCORE.SYSTEM.CONST>
0

>  <SCORE.SYSTEM.DIHEDRAL>
0

>  <SCORE.SYSTEM.SOLV>
0

>  <SCORE.SYSTEM.norm>
0

>  <SCORE.heavy>
12

>  <SCORE.norm>
-1.4431

>  <RMSD>
2.953

$$$$
ligand
 OpenBabel11021811503D
libRbt.so/2013.1/901 2013/11/27
 12 13  0  0  0  0  0  0  0  0999 V2000
   29.5626   16.0797   16.0180 C   0  0  0  0  0  0  0  0  0  0  0  0
   31.0091   17.7708   15.0842 C   0  0  0  0  0  0  0  0  0  0  0  0
   28.8677   14.9545   15.8978 N   0  0  0  0  0  0  0  0  0  0  0  0
   29.5774   16.7094   17.1972 N   0  0  0  0  0  0  0  0  0  0  0  0
   30.2842   16.5951   14.9252 N   0  0  0  0  0  0  0  0  0  0  0  0
   31.6363   18.2230   14.1224 O   0  0  0  0  0  0  0  0  0  0  0  0
   31.6668   20.1967   17.8031 N   0  0  0  0  0  0  0  0  0  0  0  0
   30.9237   19.6174   18.8436 C   0  0  0  0  0  0  0  0  0  0  0  0
   30.2231   18.4198   18.6069 N   0  0  0  0  0  0  0  0  0  0  0  0
   30.2537   17.8496   17.3858 C   0  0  0  0  0  0  0  0  0  0  0  0
   30.9906   18.4033   16.3299 C   0  0  0  0  0  0  0  0  0  0  0  0
   31.6946   19.5818   16.5284 C   0  0  0  0  0  0  0  0  0  0  0  0
  1  3  1  0  0  0  0
  1  4  2  0  0  0  0
  1  5  1  0  0  0  0
  2  6  2  0  0  0  0
  2 11  1  0  0  0  0
  2  5  1  0  0  0  0
  4 10  1  0  0  0  0
  7  8  2  0  0  0  0
  7 12  1  0  0  0  0
  8  9  1  0  0  0  0
  9 10  2  0  0  0  0
 10 11  1  0  0  0  0
 11 12  2  0  0  0  0
M  END
>  <CHROM.1>
30.55734108,17.84470621,16.52079839,2.16371552,-0.93103080,-2.05305158

>  <Name>
ligand

>  <RI>
0

>  <Rbt.Current_Directory>
/home/itssahil/PROJECTS/Mol_Feturizer/New_Systems/rnas/4LX6

>  <Rbt.Executable>
rbdock ($Id: //depot/dev/client3/rdock/2013.1/src/exe/rbdock.cxx#4 $)

>  <Rbt.Library>
libRbt.so (2013.1, Build901 2013/11/27)

>  <Rbt.Parameter_File>
/export/apps/rDock/src/rDock_2013.1_src/data/scripts/dock_solv.prm

>  <Rbt.Receptor>
prm/pocket_docking_6.prm

>  <SCORE>
-17.3144

>  <SCORE.INTER>
-17.3144

>  <SCORE.INTER.CONST>
1

>  <SCORE.INTER.POLAR>
0

>  <SCORE.INTER.ROT>
0

>  <SCORE.INTER.SOLV>
11.0081

>  <SCORE.INTER.VDW>
-18.8123

>  <SCORE.INTER.norm>
-1.44286

>  <SCORE.INTRA>
0

>  <SCORE.INTRA.DIHEDRAL>
0

>  <SCORE.INTRA.DIHEDRAL.0>
0

>  <SCORE.INTRA.POLAR>
0

>  <SCORE.INTRA.POLAR.0>
0

>  <SCORE.INTRA.REPUL>
0

>  <SCORE.INTRA.REPUL.0>
0

>  <SCORE.INTRA.SOLV>
0

>  <SCORE.INTRA.SOLV.lig_0>
-28.9128

>  <SCORE.INTRA.VDW>
0

>  <SCORE.INTRA.VDW.0>
0

>  <SCORE.INTRA.norm>
0

>  <SCORE.RESTR>
0

>  <SCORE.RESTR.CAVITY>
0

>  <SCORE.RESTR.norm>
0

>  <SCORE.SYSTEM>
0

>  <SCORE.SYSTEM.CONST>
0

>  <SCORE.SYSTEM.DIHEDRAL>
0

>  <SCORE.SYSTEM.SOLV>
0

>  <SCORE.SYSTEM.norm>
0

>  <SCORE.heavy>
12

>  <SCORE.norm>
-1.44286

>  <RMSD>
2.953

$$$$
ligand
 OpenBabel11021811503D
libRbt.so/2013.1/901 2013/11/27
 12 13  0  0  0  0  0  0  0  0999 V2000
   29.5647   16.1066   16.0235 C   0  0  0  0  0  0  0  0  0  0  0  0
   30.9836   17.8221   15.0920 C   0  0  0  0  0  0  0  0  0  0  0  0
   28.8815   14.9746   15.8993 N   0  0  0  0  0  0  0  0  0  0  0  0
   29.5830   16.7260   17.2081 N   0  0  0  0  0  0  0  0  0  0  0  0
   30.2705   16.6398   14.9289 N   0  0  0  0  0  0  0  0  0  0  0  0
   31.5969   18.2899   14.1287 O   0  0  0  0  0  0  0  0  0  0  0  0
   31.6383   20.2312   17.8265 N   0  0  0  0  0  0  0  0  0  0  0  0
   30.9112   19.6344   18.8684 C   0  0  0  0  0  0  0  0  0  0  0  0
   30.2221   18.4310   18.6272 N   0  0  0  0  0  0  0  0  0  0  0  0
   30.2481   17.8720   17.4008 C   0  0  0  0  0  0  0  0  0  0  0  0
   30.9692   18.4433   16.3434 C   0  0  0  0  0  0  0  0  0  0  0  0
   31.6616   19.6280   16.5462 C   0  0  0  0  0  0  0  0  0  0  0  0
  1  3  1  0  0  0  0
  1  4  2  0  0  0  0
  1  5  1  0  0  0  0
  2  6  2  0  0  0  0
  2 11  1  0  0  0  0
  2  5  1  0  0  0  0
  4 10  1  0  0  0  0
  7  8  2  0  0  0  0
  7 12  1  0  0  0  0
  8  9  1  0  0  0  0
  9 10  2  0  0  0  0
 10 11  1  0  0  0  0
 11 12  2  0  0  0  0
M  END
>  <CHROM.1>
30.54393627,17.87821742,16.53312742,2.16841661,-0.94518712,-2.04036191

>  <Name>
ligand

>  <RI>
0

>  <Rbt.Current_Directory>
/home/itssahil/PROJECTS/Mol_Feturizer/New_Systems/rnas/4LX6

>  <Rbt.Executable>
rbdock ($Id: //depot/dev/client3/rdock/2013.1/src/exe/rbdock.cxx#4 $)

>  <Rbt.Library>
libRbt.so (2013.1, Build901 2013/11/27)

>  <Rbt.Parameter_File>
/export/apps/rDock/src/rDock_2013.1_src/data/scripts/dock_solv.prm

>  <Rbt.Receptor>
prm/pocket_docking_6.prm

>  <SCORE>
-17.3173

>  <SCORE.INTER>
-17.3173

>  <SCORE.INTER.CONST>
1

>  <SCORE.INTER.POLAR>
0

>  <SCORE.INTER.ROT>
0

>  <SCORE.INTER.SOLV>
11.0219

>  <SCORE.INTER.VDW>
-18.8188

>  <SCORE.INTER.norm>
-1.44311

>  <SCORE.INTRA>
0

>  <SCORE.INTRA.DIHEDRAL>
0

>  <SCORE.INTRA.DIHEDRAL.0>
0

>  <SCORE.INTRA.POLAR>
0

>  <SCORE.INTRA.POLAR.0>
0

>  <SCORE.INTRA.REPUL>
0

>  <SCORE.INTRA.REPUL.0>
0

>  <SCORE.INTRA.SOLV>
0

>  <SCORE.INTRA.SOLV.lig_0>
-28.9128

>  <SCORE.INTRA.VDW>
0

>  <SCORE.INTRA.VDW.0>
0

>  <SCORE.INTRA.norm>
0

>  <SCORE.RESTR>
0

>  <SCORE.RESTR.CAVITY>
0

>  <SCORE.RESTR.norm>
0

>  <SCORE.SYSTEM>
0

>  <SCORE.SYSTEM.CONST>
0

>  <SCORE.SYSTEM.DIHEDRAL>
0

>  <SCORE.SYSTEM.SOLV>
0

>  <SCORE.SYSTEM.norm>
0

>  <SCORE.heavy>
12

>  <SCORE.norm>
-1.44311

>  <RMSD>
2.953

$$$$
ligand
 OpenBabel11021811503D
libRbt.so/2013.1/901 2013/11/27
 12 13  0  0  0  0  0  0  0  0999 V2000
   29.5663   16.1137   16.0254 C   0  0  0  0  0  0  0  0  0  0  0  0
   30.9946   17.8246   15.0997 C   0  0  0  0  0  0  0  0  0  0  0  0
   28.8811   14.9833   15.8989 N   0  0  0  0  0  0  0  0  0  0  0  0
   29.5793   16.7347   17.2092 N   0  0  0  0  0  0  0  0  0  0  0  0
   30.2796   16.6437   14.9341 N   0  0  0  0  0  0  0  0  0  0  0  0
   31.6146   18.2896   14.1393 O   0  0  0  0  0  0  0  0  0  0  0  0
   31.6394   20.2359   17.8346 N   0  0  0  0  0  0  0  0  0  0  0  0
   30.9050   19.6423   18.8731 C   0  0  0  0  0  0  0  0  0  0  0  0
   30.2143   18.4403   18.6297 N   0  0  0  0  0  0  0  0  0  0  0  0
   30.2460   17.8795   17.4042 C   0  0  0  0  0  0  0  0  0  0  0  0
   30.9745   18.4476   16.3501 C   0  0  0  0  0  0  0  0  0  0  0  0
   31.6686   19.6309   16.5553 C   0  0  0  0  0  0  0  0  0  0  0  0
  1  3  1  0  0  0  0
  1  4  2  0  0  0  0
  1  5  1  0  0  0  0
  2  6  2  0  0  0  0
  2 11  1  0  0  0  0
  2  5  1  0  0  0  0
  4 10  1  0  0  0  0
  7  8  2  0  0  0  0
  7 12  1  0  0  0  0
  8  9  1  0  0  0  0
  9 10  2  0  0  0  0
 10 11  1  0  0  0  0
 11 12  2  0  0  0  0
M  END
>  <CHROM.1>
30.54686918,17.88377068,16.53822057,2.16159076,-0.94045569,-2.04726668

>  <Name>
ligand

>  <RI>
0

>  <Rbt.Current_Directory>
/home/itssahil/PROJECTS/Mol_Feturizer/New_Systems/rnas/4LX6

>  <Rbt.Executable>
rbdock ($Id: //depot/dev/client3/rdock/2013.1/src/exe/rbdock.cxx#4 $)

>  <Rbt.Library>
libRbt.so (2013.1, Build901 2013/11/27)

>  <Rbt.Parameter_File>
/export/apps/rDock/src/rDock_2013.1_src/data/scripts/dock_solv.prm

>  <Rbt.Receptor>
prm/pocket_docking_7.prm

>  <SCORE>
-17.3094

>  <SCORE.INTER>
-17.3094

>  <SCORE.INTER.CONST>
1

>  <SCORE.INTER.POLAR>
0

>  <SCORE.INTER.ROT>
0

>  <SCORE.INTER.SOLV>
11.0153

>  <SCORE.INTER.VDW>
-18.8113

>  <SCORE.INTER.norm>
-1.44245

>  <SCORE.INTRA>
0

>  <SCORE.INTRA.DIHEDRAL>
0

>  <SCORE.INTRA.DIHEDRAL.0>
0

>  <SCORE.INTRA.POLAR>
0

>  <SCORE.INTRA.POLAR.0>
0

>  <SCORE.INTRA.REPUL>
0

>  <SCORE.INTRA.REPUL.0>
0

>  <SCORE.INTRA.SOLV>
0

>  <SCORE.INTRA.SOLV.lig_0>
-28.9128

>  <SCORE.INTRA.VDW>
0

>  <SCORE.INTRA.VDW.0>
0

>  <SCORE.INTRA.norm>
0

>  <SCORE.RESTR>
0

>  <SCORE.RESTR.CAVITY>
0

>  <SCORE.RESTR.norm>
0

>  <SCORE.SYSTEM>
0

>  <SCORE.SYSTEM.CONST>
0

>  <SCORE.SYSTEM.DIHEDRAL>
0

>  <SCORE.SYSTEM.SOLV>
0

>  <SCORE.SYSTEM.norm>
0

>  <SCORE.heavy>
12

>  <SCORE.norm>
-1.44245

>  <RMSD>
2.953

$$$$
ligand
 OpenBabel11021811503D
libRbt.so/2013.1/901 2013/11/27
 12 13  0  0  0  0  0  0  0  0999 V2000
   29.5674   16.1114   16.0284 C   0  0  0  0  0  0  0  0  0  0  0  0
   30.9871   17.8243   15.0934 C   0  0  0  0  0  0  0  0  0  0  0  0
   28.8812   14.9811   15.9057 N   0  0  0  0  0  0  0  0  0  0  0  0
   29.5907   16.7301   17.2132 N   0  0  0  0  0  0  0  0  0  0  0  0
   30.2709   16.6437   14.9319 N   0  0  0  0  0  0  0  0  0  0  0  0
   31.5985   18.2913   14.1285 O   0  0  0  0  0  0  0  0  0  0  0  0
   31.6557   20.2304   17.8272 N   0  0  0  0  0  0  0  0  0  0  0  0
   30.9306   19.6346   18.8710 C   0  0  0  0  0  0  0  0  0  0  0  0
   30.2380   18.4330   18.6313 N   0  0  0  0  0  0  0  0  0  0  0  0
   30.2590   17.8745   17.4046 C   0  0  0  0  0  0  0  0  0  0  0  0
   30.9780   18.4449   16.3452 C   0  0  0  0  0  0  0  0  0  0  0  0
   31.6737   19.6278   16.5464 C   0  0  0  0  0  0  0  0  0  0  0  0
  1  3  1  0  0  0  0
  1  4  2  0  0  0  0
  1  5  1  0  0  0  0
  2  6  2  0  0  0  0
  2 11  1  0  0  0  0
  2  5  1  0  0  0  0
  4 10  1  0  0  0  0
  7  8  2  0  0  0  0
  7 12  1  0  0  0  0
  8  9  1  0  0  0  0
  9 10  2  0  0  0  0
 10 11  1  0  0  0  0
 11 12  2  0  0  0  0
M  END
>  <CHROM.1>
30.55212109,17.88059461,16.53593046,2.17489151,-0.94459939,-2.03455771

>  <Name>
ligand

>  <RI>
0

>  <Rbt.Current_Directory>
/home/itssahil/PROJECTS/Mol_Feturizer/New_Systems/rnas/4LX6

>  <Rbt.Executable>
rbdock ($Id: //depot/dev/client3/rdock/2013.1/src/exe/rbdock.cxx#4 $)

>  <Rbt.Library>
libRbt.so (2013.1, Build901 2013/11/27)

>  <Rbt.Parameter_File>
/export/apps/rDock/src/rDock_2013.1_src/data/scripts/dock_solv.prm

>  <Rbt.Receptor>
prm/pocket_docking_7.prm

>  <SCORE>
-17.3187

>  <SCORE.INTER>
-17.3187

>  <SCORE.INTER.CONST>
1

>  <SCORE.INTER.POLAR>
0

>  <SCORE.INTER.ROT>
0

>  <SCORE.INTER.SOLV>
11.0094

>  <SCORE.INTER.VDW>
-18.8156

>  <SCORE.INTER.norm>
-1.44323

>  <SCORE.INTRA>
0

>  <SCORE.INTRA.DIHEDRAL>
0

>  <SCORE.INTRA.DIHEDRAL.0>
0

>  <SCORE.INTRA.POLAR>
0

>  <SCORE.INTRA.POLAR.0>
0

>  <SCORE.INTRA.REPUL>
0

>  <SCORE.INTRA.REPUL.0>
0

>  <SCORE.INTRA.SOLV>
0

>  <SCORE.INTRA.SOLV.lig_0>
-28.9128

>  <SCORE.INTRA.VDW>
0

>  <SCORE.INTRA.VDW.0>
0

>  <SCORE.INTRA.norm>
0

>  <SCORE.RESTR>
0

>  <SCORE.RESTR.CAVITY>
0

>  <SCORE.RESTR.norm>
0

>  <SCORE.SYSTEM>
0

>  <SCORE.SYSTEM.CONST>
0

>  <SCORE.SYSTEM.DIHEDRAL>
0

>  <SCORE.SYSTEM.SOLV>
0

>  <SCORE.SYSTEM.norm>
0

>  <SCORE.heavy>
12

>  <SCORE.norm>
-1.44323

>  <RMSD>
2.953

$$$$
ligand
 OpenBabel11021811503D
libRbt.so/2013.1/901 2013/11/27
 12 13  0  0  0  0  0  0  0  0999 V2000
   29.5657   16.1000   16.0252 C   0  0  0  0  0  0  0  0  0  0  0  0
   30.9819   17.8149   15.0886 C   0  0  0  0  0  0  0  0  0  0  0  0
   28.8818   14.9682   15.9036 N   0  0  0  0  0  0  0  0  0  0  0  0
   29.5880   16.7197   17.2095 N   0  0  0  0  0  0  0  0  0  0  0  0
   30.2681   16.6327   14.9281 N   0  0  0  0  0  0  0  0  0  0  0  0
   31.5923   18.2824   14.1232 O   0  0  0  0  0  0  0  0  0  0  0  0
   31.6462   20.2246   17.8203 N   0  0  0  0  0  0  0  0  0  0  0  0
   30.9224   19.6282   18.8647 C   0  0  0  0  0  0  0  0  0  0  0  0
   30.2322   18.4250   18.6261 N   0  0  0  0  0  0  0  0  0  0  0  0
   30.2540   17.8656   17.3998 C   0  0  0  0  0  0  0  0  0  0  0  0
   30.9718   18.4365   16.3399 C   0  0  0  0  0  0  0  0  0  0  0  0
   31.6652   19.6210   16.5400 C   0  0  0  0  0  0  0  0  0  0  0  0
  1  3  1  0  0  0  0
  1  4  2  0  0  0  0
  1  5  1  0  0  0  0
  2  6  2  0  0  0  0
  2 11  1  0  0  0  0
  2  5  1  0  0  0  0
  4 10  1  0  0  0  0
  7  8  2  0  0  0  0
  7 12  1  0  0  0  0
  8  9  1  0  0  0  0
  9 10  2  0  0  0  0
 10 11  1  0  0  0  0
 11 12  2  0  0  0  0
M  END
>  <CHROM.1>
30.54704660,17.87153995,16.53113586,2.17359072,-0.94645268,-2.03643514

>  <Name>
ligand

>  <RI>
0

>  <Rbt.Current_Directory>
/home/itssahil/PROJECTS/Mol_Feturizer/New_Systems/rnas/4LX6

>  <Rbt.Executable>
rbdock ($Id: //depot/dev/client3/rdock/2013.1/src/exe/rbdock.cxx#4 $)

>  <Rbt.Library>
libRbt.so (2013.1, Build901 2013/11/27)

>  <Rbt.Parameter_File>
/export/apps/rDock/src/rDock_2013.1_src/data/scripts/dock_solv.prm

>  <Rbt.Receptor>
prm/pocket_docking_8.prm

>  <SCORE>
-17.3161

>  <SCORE.INTER>
-17.3161

>  <SCORE.INTER.CONST>
1

>  <SCORE.INTER.POLAR>
0

>  <SCORE.INTER.ROT>
0

>  <SCORE.INTER.SOLV>
11.0272

>  <SCORE.INTER.VDW>
-18.8198

>  <SCORE.INTER.norm>
-1.44301

>  <SCORE.INTRA>
0

>  <SCORE.INTRA.DIHEDRAL>
0

>  <SCORE.INTRA.DIHEDRAL.0>
0

>  <SCORE.INTRA.POLAR>
0

>  <SCORE.INTRA.POLAR.0>
0

>  <SCORE.INTRA.REPUL>
0

>  <SCORE.INTRA.REPUL.0>
0

>  <SCORE.INTRA.SOLV>
0

>  <SCORE.INTRA.SOLV.lig_0>
-28.9128

>  <SCORE.INTRA.VDW>
0

>  <SCORE.INTRA.VDW.0>
0

>  <SCORE.INTRA.norm>
0

>  <SCORE.RESTR>
0

>  <SCORE.RESTR.CAVITY>
0

>  <SCORE.RESTR.norm>
0

>  <SCORE.SYSTEM>
0

>  <SCORE.SYSTEM.CONST>
0

>  <SCORE.SYSTEM.DIHEDRAL>
0

>  <SCORE.SYSTEM.SOLV>
0

>  <SCORE.SYSTEM.norm>
0

>  <SCORE.heavy>
12

>  <SCORE.norm>
-1.44301

>  <RMSD>
2.953

$$$$
ligand
 OpenBabel11021811503D
libRbt.so/2013.1/901 2013/11/27
 12 13  0  0  0  0  0  0  0  0999 V2000
   29.5658   16.0960   16.0261 C   0  0  0  0  0  0  0  0  0  0  0  0
   30.9734   17.8184   15.0901 C   0  0  0  0  0  0  0  0  0  0  0  0
   28.8861   14.9618   15.9035 N   0  0  0  0  0  0  0  0  0  0  0  0
   29.5883   16.7133   17.2117 N   0  0  0  0  0  0  0  0  0  0  0  0
   30.2637   16.6338   14.9286 N   0  0  0  0  0  0  0  0  0  0  0  0
   31.5798   18.2902   14.1243 O   0  0  0  0  0  0  0  0  0  0  0  0
   31.6342   20.2249   17.8254 N   0  0  0  0  0  0  0  0  0  0  0  0
   30.9150   19.6235   18.8701 C   0  0  0  0  0  0  0  0  0  0  0  0
   30.2289   18.4181   18.6305 N   0  0  0  0  0  0  0  0  0  0  0  0
   30.2503   17.8614   17.4030 C   0  0  0  0  0  0  0  0  0  0  0  0
   30.9635   18.4373   16.3427 C   0  0  0  0  0  0  0  0  0  0  0  0
   31.6528   19.6241   16.5439 C   0  0  0  0  0  0  0  0  0  0  0  0
  1  3  1  0  0  0  0
  1  4  2  0  0  0  0
  1  5  1  0  0  0  0
  2  6  2  0  0  0  0
  2 11  1  0  0  0  0
  2  5  1  0  0  0  0
  4 10  1  0  0  0  0
  7  8  2  0  0  0  0
  7 12  1  0  0  0  0
  8  9  1  0  0  0  0
  9 10  2  0  0  0  0
 10 11  1  0  0  0  0
 11 12  2  0  0  0  0
M  END
>  <CHROM.1>
30.54139469,17.87030171,16.53366601,2.17392662,-0.95087566,-2.03405078

>  <Name>
ligand

>  <RI>
0

>  <Rbt.Current_Directory>
/home/itssahil/PROJECTS/Mol_Feturizer/New_Systems/rnas/4LX6

>  <Rbt.Executable>
rbdock ($Id: //depot/dev/client3/rdock/2013.1/src/exe/rbdock.cxx#4 $)

>  <Rbt.Library>
libRbt.so (2013.1, Build901 2013/11/27)

>  <Rbt.Parameter_File>
/export/apps/rDock/src/rDock_2013.1_src/data/scripts/dock_solv.prm

>  <Rbt.Receptor>
prm/pocket_docking_8.prm

>  <SCORE>
-17.3191

>  <SCORE.INTER>
-17.3191

>  <SCORE.INTER.CONST>
1

>  <SCORE.INTER.POLAR>
0

>  <SCORE.INTER.ROT>
0

>  <SCORE.INTER.SOLV>
11.0461

>  <SCORE.INTER.VDW>
-18.8281

>  <SCORE.INTER.norm>
-1.44326

>  <SCORE.INTRA>
0

>  <SCORE.INTRA.DIHEDRAL>
0

>  <SCORE.INTRA.DIHEDRAL.0>
0

>  <SCORE.INTRA.POLAR>
0

>  <SCORE.INTRA.POLAR.0>
0

>  <SCORE.INTRA.REPUL>
0

>  <SCORE.INTRA.REPUL.0>
0

>  <SCORE.INTRA.SOLV>
0

>  <SCORE.INTRA.SOLV.lig_0>
-28.9128

>  <SCORE.INTRA.VDW>
0

>  <SCORE.INTRA.VDW.0>
0

>  <SCORE.INTRA.norm>
0

>  <SCORE.RESTR>
0

>  <SCORE.RESTR.CAVITY>
0

>  <SCORE.RESTR.norm>
0

>  <SCORE.SYSTEM>
0

>  <SCORE.SYSTEM.CONST>
0

>  <SCORE.SYSTEM.DIHEDRAL>
0

>  <SCORE.SYSTEM.SOLV>
0

>  <SCORE.SYSTEM.norm>
0

>  <SCORE.heavy>
12

>  <SCORE.norm>
-1.44326

>  <RMSD>
2.953

$$$$
ligand
 OpenBabel11021811503D
libRbt.so/2013.1/901 2013/11/27
 12 13  0  0  0  0  0  0  0  0999 V2000
   29.5612   16.0721   16.0210 C   0  0  0  0  0  0  0  0  0  0  0  0
   31.0094   17.7533   15.0720 C   0  0  0  0  0  0  0  0  0  0  0  0
   28.8656   14.9463   15.9110 N   0  0  0  0  0  0  0  0  0  0  0  0
   29.5756   16.7131   17.1941 N   0  0  0  0  0  0  0  0  0  0  0  0
   30.2837   16.5766   14.9237 N   0  0  0  0  0  0  0  0  0  0  0  0
   31.6375   18.1959   14.1063 O   0  0  0  0  0  0  0  0  0  0  0  0
   31.6668   20.2046   17.7680 N   0  0  0  0  0  0  0  0  0  0  0  0
   30.9227   19.6358   18.8136 C   0  0  0  0  0  0  0  0  0  0  0  0
   30.2215   18.4365   18.5878 N   0  0  0  0  0  0  0  0  0  0  0  0
   30.2525   17.8546   17.3723 C   0  0  0  0  0  0  0  0  0  0  0  0
   30.9905   18.3977   16.3116 C   0  0  0  0  0  0  0  0  0  0  0  0
   31.6951   19.5776   16.4993 C   0  0  0  0  0  0  0  0  0  0  0  0
  1  3  1  0  0  0  0
  1  4  2  0  0  0  0
  1  5  1  0  0  0  0
  2  6  2  0  0  0  0
  2 11  1  0  0  0  0
  2  5  1  0  0  0  0
  4 10  1  0  0  0  0
  7  8  2  0  0  0  0
  7 12  1  0  0  0  0
  8  9  1  0  0  0  0
  9 10  2  0  0  0  0
 10 11  1  0  0  0  0
 11 12  2  0  0  0  0
M  END
>  <CHROM.1>
30.55670179,17.84122495,16.50752609,2.16324637,-0.93015304,-2.06298022

>  <Name>
ligand

>  <RI>
0

>  <Rbt.Current_Directory>
/home/itssahil/PROJECTS/Mol_Feturizer/New_Systems/rnas/4LX6

>  <Rbt.Executable>
rbdock ($Id: //depot/dev/client3/rdock/2013.1/src/exe/rbdock.cxx#4 $)

>  <Rbt.Library>
libRbt.so (2013.1, Build901 2013/11/27)

>  <Rbt.Parameter_File>
/export/apps/rDock/src/rDock_2013.1_src/data/scripts/dock_solv.prm

>  <Rbt.Receptor>
prm/pocket_docking_8.prm

>  <SCORE>
-17.3304

>  <SCORE.INTER>
-17.3304

>  <SCORE.INTER.CONST>
1

>  <SCORE.INTER.POLAR>
0

>  <SCORE.INTER.ROT>
0

>  <SCORE.INTER.SOLV>
11.0172

>  <SCORE.INTER.VDW>
-18.826

>  <SCORE.INTER.norm>
-1.4442

>  <SCORE.INTRA>
0

>  <SCORE.INTRA.DIHEDRAL>
0

>  <SCORE.INTRA.DIHEDRAL.0>
0

>  <SCORE.INTRA.POLAR>
0

>  <SCORE.INTRA.POLAR.0>
0

>  <SCORE.INTRA.REPUL>
0

>  <SCORE.INTRA.REPUL.0>
0

>  <SCORE.INTRA.SOLV>
0

>  <SCORE.INTRA.SOLV.lig_0>
-28.9128

>  <SCORE.INTRA.VDW>
0

>  <SCORE.INTRA.VDW.0>
0

>  <SCORE.INTRA.norm>
0

>  <SCORE.RESTR>
0

>  <SCORE.RESTR.CAVITY>
0

>  <SCORE.RESTR.norm>
0

>  <SCORE.SYSTEM>
0

>  <SCORE.SYSTEM.CONST>
0

>  <SCORE.SYSTEM.DIHEDRAL>
0

>  <SCORE.SYSTEM.SOLV>
0

>  <SCORE.SYSTEM.norm>
0

>  <SCORE.heavy>
12

>  <SCORE.norm>
-1.4442

>  <RMSD>
2.953

$$$$
ligand
 OpenBabel11021811503D
libRbt.so/2013.1/901 2013/11/27
 12 13  0  0  0  0  0  0  0  0999 V2000
   29.5376   16.0766   16.0158 C   0  0  0  0  0  0  0  0  0  0  0  0
   30.9870   17.7586   15.0704 C   0  0  0  0  0  0  0  0  0  0  0  0
   28.8386   14.9532   15.9025 N   0  0  0  0  0  0  0  0  0  0  0  0
   29.5579   16.7114   17.1922 N   0  0  0  0  0  0  0  0  0  0  0  0
   30.2576   16.5848   14.9186 N   0  0  0  0  0  0  0  0  0  0  0  0
   31.6129   18.2045   14.1047 O   0  0  0  0  0  0  0  0  0  0  0  0
   31.6608   20.1942   17.7766 N   0  0  0  0  0  0  0  0  0  0  0  0
   30.9189   19.6220   18.8219 C   0  0  0  0  0  0  0  0  0  0  0  0
   30.2135   18.4258   18.5925 N   0  0  0  0  0  0  0  0  0  0  0  0
   30.2386   17.8501   17.3738 C   0  0  0  0  0  0  0  0  0  0  0  0
   30.9743   18.3967   16.3133 C   0  0  0  0  0  0  0  0  0  0  0  0
   31.6829   19.5737   16.5046 C   0  0  0  0  0  0  0  0  0  0  0  0
  1  3  1  0  0  0  0
  1  4  2  0  0  0  0
  1  5  1  0  0  0  0
  2  6  2  0  0  0  0
  2 11  1  0  0  0  0
  2  5  1  0  0  0  0
  4 10  1  0  0  0  0
  7  8  2  0  0  0  0
  7 12  1  0  0  0  0
  8  9  1  0  0  0  0
  9 10  2  0  0  0  0
 10 11  1  0  0  0  0
 11 12  2  0  0  0  0
M  END
>  <CHROM.1>
30.53970639,17.84040150,16.50790937,2.17066113,-0.92939382,-2.05187094

>  <Name>
ligand

>  <RI>
0

>  <Rbt.Current_Directory>
/home/itssahil/PROJECTS/Mol_Feturizer/New_Systems/rnas/4LX6

>  <Rbt.Executable>
rbdock ($Id: //depot/dev/client3/rdock/2013.1/src/exe/rbdock.cxx#4 $)

>  <Rbt.Library>
libRbt.so (2013.1, Build901 2013/11/27)

>  <Rbt.Parameter_File>
/export/apps/rDock/src/rDock_2013.1_src/data/scripts/dock_solv.prm

>  <Rbt.Receptor>
prm/blind_docking_100.prm

>  <SCORE>
-17.3159

>  <SCORE.INTER>
-17.3159

>  <SCORE.INTER.CONST>
1

>  <SCORE.INTER.POLAR>
0

>  <SCORE.INTER.ROT>
0

>  <SCORE.INTER.SOLV>
10.8912

>  <SCORE.INTER.VDW>
-18.7744

>  <SCORE.INTER.norm>
-1.44299

>  <SCORE.INTRA>
0

>  <SCORE.INTRA.DIHEDRAL>
0

>  <SCORE.INTRA.DIHEDRAL.0>
0

>  <SCORE.INTRA.POLAR>
0

>  <SCORE.INTRA.POLAR.0>
0

>  <SCORE.INTRA.REPUL>
0

>  <SCORE.INTRA.REPUL.0>
0

>  <SCORE.INTRA.SOLV>
0

>  <SCORE.INTRA.SOLV.lig_0>
-28.9128

>  <SCORE.INTRA.VDW>
0

>  <SCORE.INTRA.VDW.0>
0

>  <SCORE.INTRA.norm>
0

>  <SCORE.RESTR>
0

>  <SCORE.RESTR.CAVITY>
0

>  <SCORE.RESTR.norm>
0

>  <SCORE.SYSTEM>
0

>  <SCORE.SYSTEM.CONST>
0

>  <SCORE.SYSTEM.DIHEDRAL>
0

>  <SCORE.SYSTEM.SOLV>
0

>  <SCORE.SYSTEM.norm>
0

>  <SCORE.heavy>
12

>  <SCORE.norm>
-1.44299

>  <RMSD>
2.954

$$$$
ligand
 OpenBabel11021811503D
libRbt.so/2013.1/901 2013/11/27
 12 13  0  0  0  0  0  0  0  0999 V2000
   29.5672   16.0939   16.0301 C   0  0  0  0  0  0  0  0  0  0  0  0
   30.9719   17.8163   15.0898 C   0  0  0  0  0  0  0  0  0  0  0  0
   28.8877   14.9593   15.9099 N   0  0  0  0  0  0  0  0  0  0  0  0
   29.5919   16.7121   17.2152 N   0  0  0  0  0  0  0  0  0  0  0  0
   30.2625   16.6312   14.9308 N   0  0  0  0  0  0  0  0  0  0  0  0
   31.5760   18.2877   14.1224 O   0  0  0  0  0  0  0  0  0  0  0  0
   31.6373   20.2251   17.8219 N   0  0  0  0  0  0  0  0  0  0  0  0
   30.9207   19.6242   18.8686 C   0  0  0  0  0  0  0  0  0  0  0  0
   30.2347   18.4183   18.6314 N   0  0  0  0  0  0  0  0  0  0  0  0
   30.2537   17.8607   17.4042 C   0  0  0  0  0  0  0  0  0  0  0  0
   30.9644   18.4362   16.3420 C   0  0  0  0  0  0  0  0  0  0  0  0
   31.6535   19.6234   16.5408 C   0  0  0  0  0  0  0  0  0  0  0  0
  1  3  1  0  0  0  0
  1  4  2  0  0  0  0
  1  5  1  0  0  0  0
  2  6  2  0  0  0  0
  2 11  1  0  0  0  0
  2  5  1  0  0  0  0
  4 10  1  0  0  0  0
  7  8  2  0  0  0  0
  7 12  1  0  0  0  0
  8  9  1  0  0  0  0
  9 10  2  0  0  0  0
 10 11  1  0  0  0  0
 11 12  2  0  0  0  0
M  END
>  <CHROM.1>
30.54294036,17.86907671,16.53429985,2.17684397,-0.95226918,-2.03243336

>  <Name>
ligand

>  <RI>
0

>  <Rbt.Current_Directory>
/home/itssahil/PROJECTS/Mol_Feturizer/New_Systems/rnas/4LX6

>  <Rbt.Executable>
rbdock ($Id: //depot/dev/client3/rdock/2013.1/src/exe/rbdock.cxx#4 $)

>  <Rbt.Library>
libRbt.so (2013.1, Build901 2013/11/27)

>  <Rbt.Parameter_File>
/export/apps/rDock/src/rDock_2013.1_src/data/scripts/dock_solv.prm

>  <Rbt.Receptor>
prm/blind_docking_100.prm

>  <SCORE>
-17.3194

>  <SCORE.INTER>
-17.3194

>  <SCORE.INTER.CONST>
1

>  <SCORE.INTER.POLAR>
0

>  <SCORE.INTER.ROT>
0

>  <SCORE.INTER.SOLV>
11.0522

>  <SCORE.INTER.VDW>
-18.8303

>  <SCORE.INTER.norm>
-1.44328

>  <SCORE.INTRA>
0

>  <SCORE.INTRA.DIHEDRAL>
0

>  <SCORE.INTRA.DIHEDRAL.0>
0

>  <SCORE.INTRA.POLAR>
0

>  <SCORE.INTRA.POLAR.0>
0

>  <SCORE.INTRA.REPUL>
0

>  <SCORE.INTRA.REPUL.0>
0

>  <SCORE.INTRA.SOLV>
0

>  <SCORE.INTRA.SOLV.lig_0>
-28.9128

>  <SCORE.INTRA.VDW>
0

>  <SCORE.INTRA.VDW.0>
0

>  <SCORE.INTRA.norm>
0

>  <SCORE.RESTR>
0

>  <SCORE.RESTR.CAVITY>
0

>  <SCORE.RESTR.norm>
0

>  <SCORE.SYSTEM>
0

>  <SCORE.SYSTEM.CONST>
0

>  <SCORE.SYSTEM.DIHEDRAL>
0

>  <SCORE.SYSTEM.SOLV>
0

>  <SCORE.SYSTEM.norm>
0

>  <SCORE.heavy>
12

>  <SCORE.norm>
-1.44328

>  <RMSD>
2.954

$$$$
ligand
 OpenBabel11021811503D
libRbt.so/2013.1/901 2013/11/27
 12 13  0  0  0  0  0  0  0  0999 V2000
   29.5641   16.0808   16.0248 C   0  0  0  0  0  0  0  0  0  0  0  0
   31.0166   17.7650   15.0879 C   0  0  0  0  0  0  0  0  0  0  0  0
   28.8692   14.9552   15.9080 N   0  0  0  0  0  0  0  0  0  0  0  0
   29.5731   16.7179   17.2001 N   0  0  0  0  0  0  0  0  0  0  0  0
   30.2917   16.5888   14.9325 N   0  0  0  0  0  0  0  0  0  0  0  0
   31.6491   18.2108   14.1266 O   0  0  0  0  0  0  0  0  0  0  0  0
   31.6615   20.2077   17.7948 N   0  0  0  0  0  0  0  0  0  0  0  0
   30.9126   19.6355   18.8351 C   0  0  0  0  0  0  0  0  0  0  0  0
   30.2125   18.4368   18.6023 N   0  0  0  0  0  0  0  0  0  0  0  0
   30.2492   17.8588   17.3850 C   0  0  0  0  0  0  0  0  0  0  0  0
   30.9919   18.4054   16.3295 C   0  0  0  0  0  0  0  0  0  0  0  0
   31.6956   19.5847   16.5242 C   0  0  0  0  0  0  0  0  0  0  0  0
  1  3  1  0  0  0  0
  1  4  2  0  0  0  0
  1  5  1  0  0  0  0
  2  6  2  0  0  0  0
  2 11  1  0  0  0  0
  2  5  1  0  0  0  0
  4 10  1  0  0  0  0
  7  8  2  0  0  0  0
  7 12  1  0  0  0  0
  8  9  1  0  0  0  0
  9 10  2  0  0  0  0
 10 11  1  0  0  0  0
 11 12  2  0  0  0  0
M  END
>  <CHROM.1>
30.55730352,17.84831402,16.52163612,2.15646631,-0.92803441,-2.06518069

>  <Name>
ligand

>  <RI>
0

>  <Rbt.Current_Directory>
/home/itssahil/PROJECTS/Mol_Feturizer/New_Systems/rnas/4LX6

>  <Rbt.Executable>
rbdock ($Id: //depot/dev/client3/rdock/2013.1/src/exe/rbdock.cxx#4 $)

>  <Rbt.Library>
libRbt.so (2013.1, Build901 2013/11/27)

>  <Rbt.Parameter_File>
/export/apps/rDock/src/rDock_2013.1_src/data/scripts/dock_solv.prm

>  <Rbt.Receptor>
prm/blind_docking_80.prm

>  <SCORE>
-17.3062

>  <SCORE.INTER>
-17.3062

>  <SCORE.INTER.CONST>
1

>  <SCORE.INTER.POLAR>
0

>  <SCORE.INTER.ROT>
0

>  <SCORE.INTER.SOLV>
11.0183

>  <SCORE.INTER.VDW>
-18.8102

>  <SCORE.INTER.norm>
-1.44218

>  <SCORE.INTRA>
0

>  <SCORE.INTRA.DIHEDRAL>
0

>  <SCORE.INTRA.DIHEDRAL.0>
0

>  <SCORE.INTRA.POLAR>
0

>  <SCORE.INTRA.POLAR.0>
0

>  <SCORE.INTRA.REPUL>
0

>  <SCORE.INTRA.REPUL.0>
0

>  <SCORE.INTRA.SOLV>
0

>  <SCORE.INTRA.SOLV.lig_0>
-28.9128

>  <SCORE.INTRA.VDW>
0

>  <SCORE.INTRA.VDW.0>
0

>  <SCORE.INTRA.norm>
0

>  <SCORE.RESTR>
0

>  <SCORE.RESTR.CAVITY>
0

>  <SCORE.RESTR.norm>
0

>  <SCORE.SYSTEM>
0

>  <SCORE.SYSTEM.CONST>
0

>  <SCORE.SYSTEM.DIHEDRAL>
0

>  <SCORE.SYSTEM.SOLV>
0

>  <SCORE.SYSTEM.norm>
0

>  <SCORE.heavy>
12

>  <SCORE.norm>
-1.44218

>  <RMSD>
2.954

$$$$
ligand
 OpenBabel11021811503D
libRbt.so/2013.1/901 2013/11/27
 12 13  0  0  0  0  0  0  0  0999 V2000
   29.5686   16.1040   16.0318 C   0  0  0  0  0  0  0  0  0  0  0  0
   30.9832   17.8214   15.0972 C   0  0  0  0  0  0  0  0  0  0  0  0
   28.8864   14.9713   15.9092 N   0  0  0  0  0  0  0  0  0  0  0  0
   29.5888   16.7234   17.2164 N   0  0  0  0  0  0  0  0  0  0  0  0
   30.2712   16.6382   14.9357 N   0  0  0  0  0  0  0  0  0  0  0  0
   31.5938   18.2900   14.1326 O   0  0  0  0  0  0  0  0  0  0  0  0
   31.6412   20.2310   17.8304 N   0  0  0  0  0  0  0  0  0  0  0  0
   30.9173   19.6333   18.8739 C   0  0  0  0  0  0  0  0  0  0  0  0
   30.2291   18.4291   18.6342 N   0  0  0  0  0  0  0  0  0  0  0  0
   30.2530   17.8702   17.4078 C   0  0  0  0  0  0  0  0  0  0  0  0
   30.9709   18.4425   16.3487 C   0  0  0  0  0  0  0  0  0  0  0  0
   31.6624   19.6280   16.5500 C   0  0  0  0  0  0  0  0  0  0  0  0
  1  3  1  0  0  0  0
  1  4  2  0  0  0  0
  1  5  1  0  0  0  0
  2  6  2  0  0  0  0
  2 11  1  0  0  0  0
  2  5  1  0  0  0  0
  4 10  1  0  0  0  0
  7  8  2  0  0  0  0
  7 12  1  0  0  0  0
  8  9  1  0  0  0  0
  9 10  2  0  0  0  0
 10 11  1  0  0  0  0
 11 12  2  0  0  0  0
M  END
>  <CHROM.1>
30.54679763,17.87683530,16.53937764,2.17097615,-0.94731068,-2.03821752

>  <Name>
ligand

>  <RI>
0

>  <Rbt.Current_Directory>
/home/itssahil/PROJECTS/Mol_Feturizer/New_Systems/rnas/4LX6

>  <Rbt.Executable>
rbdock ($Id: //depot/dev/client3/rdock/2013.1/src/exe/rbdock.cxx#4 $)

>  <Rbt.Library>
libRbt.so (2013.1, Build901 2013/11/27)

>  <Rbt.Parameter_File>
/export/apps/rDock/src/rDock_2013.1_src/data/scripts/dock_solv.prm

>  <Rbt.Receptor>
prm/blind_docking_80.prm

>  <SCORE>
-17.3173

>  <SCORE.INTER>
-17.3173

>  <SCORE.INTER.CONST>
1

>  <SCORE.INTER.POLAR>
0

>  <SCORE.INTER.ROT>
0

>  <SCORE.INTER.SOLV>
11.0386

>  <SCORE.INTER.VDW>
-18.8244

>  <SCORE.INTER.norm>
-1.4431

>  <SCORE.INTRA>
0

>  <SCORE.INTRA.DIHEDRAL>
0

>  <SCORE.INTRA.DIHEDRAL.0>
0

>  <SCORE.INTRA.POLAR>
0

>  <SCORE.INTRA.POLAR.0>
0

>  <SCORE.INTRA.REPUL>
0

>  <SCORE.INTRA.REPUL.0>
0

>  <SCORE.INTRA.SOLV>
0

>  <SCORE.INTRA.SOLV.lig_0>
-28.9128

>  <SCORE.INTRA.VDW>
0

>  <SCORE.INTRA.VDW.0>
0

>  <SCORE.INTRA.norm>
0

>  <SCORE.RESTR>
0

>  <SCORE.RESTR.CAVITY>
0

>  <SCORE.RESTR.norm>
0

>  <SCORE.SYSTEM>
0

>  <SCORE.SYSTEM.CONST>
0

>  <SCORE.SYSTEM.DIHEDRAL>
0

>  <SCORE.SYSTEM.SOLV>
0

>  <SCORE.SYSTEM.norm>
0

>  <SCORE.heavy>
12

>  <SCORE.norm>
-1.4431

>  <RMSD>
2.954

$$$$
ligand
 OpenBabel11021811503D
libRbt.so/2013.1/901 2013/11/27
 12 13  0  0  0  0  0  0  0  0999 V2000
   29.5727   16.1042   16.0380 C   0  0  0  0  0  0  0  0  0  0  0  0
   30.9855   17.8136   15.0863 C   0  0  0  0  0  0  0  0  0  0  0  0
   28.8831   14.9751   15.9237 N   0  0  0  0  0  0  0  0  0  0  0  0
   29.6102   16.7236   17.2221 N   0  0  0  0  0  0  0  0  0  0  0  0
   30.2653   16.6342   14.9335 N   0  0  0  0  0  0  0  0  0  0  0  0
   31.5873   18.2787   14.1144 O   0  0  0  0  0  0  0  0  0  0  0  0
   31.6887   20.2203   17.8109 N   0  0  0  0  0  0  0  0  0  0  0  0
   30.9739   19.6267   18.8630 C   0  0  0  0  0  0  0  0  0  0  0  0
   30.2763   18.4262   18.6318 N   0  0  0  0  0  0  0  0  0  0  0  0
   30.2828   17.8669   17.4053 C   0  0  0  0  0  0  0  0  0  0  0  0
   30.9913   18.4351   16.3377 C   0  0  0  0  0  0  0  0  0  0  0  0
   31.6915   19.6168   16.5305 C   0  0  0  0  0  0  0  0  0  0  0  0
  1  3  1  0  0  0  0
  1  4  2  0  0  0  0
  1  5  1  0  0  0  0
  2  6  2  0  0  0  0
  2 11  1  0  0  0  0
  2  5  1  0  0  0  0
  4 10  1  0  0  0  0
  7  8  2  0  0  0  0
  7 12  1  0  0  0  0
  8  9  1  0  0  0  0
  9 10  2  0  0  0  0
 10 11  1  0  0  0  0
 11 12  2  0  0  0  0
M  END
>  <CHROM.1>
30.56643672,17.87176891,16.53350893,2.19313560,-0.94765916,-2.02048263

>  <Name>
ligand

>  <RI>
0

>  <Rbt.Current_Directory>
/home/itssahil/PROJECTS/Mol_Feturizer/New_Systems/rnas/4LX6

>  <Rbt.Executable>
rbdock ($Id: //depot/dev/client3/rdock/2013.1/src/exe/rbdock.cxx#4 $)

>  <Rbt.Library>
libRbt.so (2013.1, Build901 2013/11/27)

>  <Rbt.Parameter_File>
/export/apps/rDock/src/rDock_2013.1_src/data/scripts/dock_solv.prm

>  <Rbt.Receptor>
prm/blind_docking_80.prm

>  <SCORE>
-17.2946

>  <SCORE.INTER>
-17.2946

>  <SCORE.INTER.CONST>
1

>  <SCORE.INTER.POLAR>
0

>  <SCORE.INTER.ROT>
0

>  <SCORE.INTER.SOLV>
11.0116

>  <SCORE.INTER.VDW>
-18.8002

>  <SCORE.INTER.norm>
-1.44121

>  <SCORE.INTRA>
0

>  <SCORE.INTRA.DIHEDRAL>
0

>  <SCORE.INTRA.DIHEDRAL.0>
0

>  <SCORE.INTRA.POLAR>
0

>  <SCORE.INTRA.POLAR.0>
0

>  <SCORE.INTRA.REPUL>
0

>  <SCORE.INTRA.REPUL.0>
0

>  <SCORE.INTRA.SOLV>
0

>  <SCORE.INTRA.SOLV.lig_0>
-28.9128

>  <SCORE.INTRA.VDW>
0

>  <SCORE.INTRA.VDW.0>
0

>  <SCORE.INTRA.norm>
0

>  <SCORE.RESTR>
0

>  <SCORE.RESTR.CAVITY>
0

>  <SCORE.RESTR.norm>
0

>  <SCORE.SYSTEM>
0

>  <SCORE.SYSTEM.CONST>
0

>  <SCORE.SYSTEM.DIHEDRAL>
0

>  <SCORE.SYSTEM.SOLV>
0

>  <SCORE.SYSTEM.norm>
0

>  <SCORE.heavy>
12

>  <SCORE.norm>
-1.44121

>  <RMSD>
2.954

$$$$
ligand
 OpenBabel11021811503D
libRbt.so/2013.1/901 2013/11/27
 12 13  0  0  0  0  0  0  0  0999 V2000
   29.5353   16.0762   16.0173 C   0  0  0  0  0  0  0  0  0  0  0  0
   30.9736   17.7607   15.0594 C   0  0  0  0  0  0  0  0  0  0  0  0
   28.8387   14.9507   15.9106 N   0  0  0  0  0  0  0  0  0  0  0  0
   29.5618   16.7131   17.1925 N   0  0  0  0  0  0  0  0  0  0  0  0
   30.2465   16.5846   14.9145 N   0  0  0  0  0  0  0  0  0  0  0  0
   31.5918   18.2068   14.0888 O   0  0  0  0  0  0  0  0  0  0  0  0
   31.6588   20.2026   17.7570 N   0  0  0  0  0  0  0  0  0  0  0  0
   30.9255   19.6302   18.8082 C   0  0  0  0  0  0  0  0  0  0  0  0
   30.2220   18.4316   18.5855 N   0  0  0  0  0  0  0  0  0  0  0  0
   30.2405   17.8539   17.3676 C   0  0  0  0  0  0  0  0  0  0  0  0
   30.9675   18.4008   16.3013 C   0  0  0  0  0  0  0  0  0  0  0  0
   31.6741   19.5801   16.4859 C   0  0  0  0  0  0  0  0  0  0  0  0
  1  3  1  0  0  0  0
  1  4  2  0  0  0  0
  1  5  1  0  0  0  0
  2  6  2  0  0  0  0
  2 11  1  0  0  0  0
  2  5  1  0  0  0  0
  4 10  1  0  0  0  0
  7  8  2  0  0  0  0
  7 12  1  0  0  0  0
  8  9  1  0  0  0  0
  9 10  2  0  0  0  0
 10 11  1  0  0  0  0
 11 12  2  0  0  0  0
M  END
>  <CHROM.1>
30.53577685,17.84364814,16.49977085,2.17854198,-0.93497059,-2.04719913

>  <Name>
ligand

>  <RI>
0

>  <Rbt.Current_Directory>
/home/itssahil/PROJECTS/Mol_Feturizer/New_Systems/rnas/4LX6

>  <Rbt.Executable>
rbdock ($Id: //depot/dev/client3/rdock/2013.1/src/exe/rbdock.cxx#4 $)

>  <Rbt.Library>
libRbt.so (2013.1, Build901 2013/11/27)

>  <Rbt.Parameter_File>
/export/apps/rDock/src/rDock_2013.1_src/data/scripts/dock_solv.prm

>  <Rbt.Receptor>
prm/pocket_docking_3.prm

>  <SCORE>
-17.3223

>  <SCORE.INTER>
-17.3223

>  <SCORE.INTER.CONST>
1

>  <SCORE.INTER.POLAR>
0

>  <SCORE.INTER.ROT>
0

>  <SCORE.INTER.SOLV>
10.8904

>  <SCORE.INTER.VDW>
-18.7784

>  <SCORE.INTER.norm>
-1.44353

>  <SCORE.INTRA>
0

>  <SCORE.INTRA.DIHEDRAL>
0

>  <SCORE.INTRA.DIHEDRAL.0>
0

>  <SCORE.INTRA.POLAR>
0

>  <SCORE.INTRA.POLAR.0>
0

>  <SCORE.INTRA.REPUL>
0

>  <SCORE.INTRA.REPUL.0>
0

>  <SCORE.INTRA.SOLV>
0

>  <SCORE.INTRA.SOLV.lig_0>
-28.9128

>  <SCORE.INTRA.VDW>
0

>  <SCORE.INTRA.VDW.0>
0

>  <SCORE.INTRA.norm>
0

>  <SCORE.RESTR>
0

>  <SCORE.RESTR.CAVITY>
0

>  <SCORE.RESTR.norm>
0

>  <SCORE.SYSTEM>
0

>  <SCORE.SYSTEM.CONST>
0

>  <SCORE.SYSTEM.DIHEDRAL>
0

>  <SCORE.SYSTEM.SOLV>
0

>  <SCORE.SYSTEM.norm>
0

>  <SCORE.heavy>
12

>  <SCORE.norm>
-1.44353

>  <RMSD>
2.954

$$$$
ligand
 OpenBabel11021811503D
libRbt.so/2013.1/901 2013/11/27
 12 13  0  0  0  0  0  0  0  0999 V2000
   29.5684   16.1081   16.0309 C   0  0  0  0  0  0  0  0  0  0  0  0
   30.9835   17.8222   15.0911 C   0  0  0  0  0  0  0  0  0  0  0  0
   28.8813   14.9781   15.9102 N   0  0  0  0  0  0  0  0  0  0  0  0
   29.5985   16.7247   17.2167 N   0  0  0  0  0  0  0  0  0  0  0  0
   30.2660   16.6420   14.9315 N   0  0  0  0  0  0  0  0  0  0  0  0
   31.5897   18.2907   14.1236 O   0  0  0  0  0  0  0  0  0  0  0  0
   31.6679   20.2234   17.8252 N   0  0  0  0  0  0  0  0  0  0  0  0
   30.9484   19.6260   18.8720 C   0  0  0  0  0  0  0  0  0  0  0  0
   30.2541   18.4250   18.6341 N   0  0  0  0  0  0  0  0  0  0  0  0
   30.2681   17.8687   17.4063 C   0  0  0  0  0  0  0  0  0  0  0  0
   30.9815   18.4406   16.3439 C   0  0  0  0  0  0  0  0  0  0  0  0
   31.6786   19.6230   16.5434 C   0  0  0  0  0  0  0  0  0  0  0  0
  1  3  1  0  0  0  0
  1  4  2  0  0  0  0
  1  5  1  0  0  0  0
  2  6  2  0  0  0  0
  2 11  1  0  0  0  0
  2  5  1  0  0  0  0
  4 10  1  0  0  0  0
  7  8  2  0  0  0  0
  7 12  1  0  0  0  0
  8  9  1  0  0  0  0
  9 10  2  0  0  0  0
 10 11  1  0  0  0  0
 11 12  2  0  0  0  0
M  END
>  <CHROM.1>
30.55648209,17.87612226,16.53607448,2.18356930,-0.94680027,-2.02581578

>  <Name>
ligand

>  <RI>
0

>  <Rbt.Current_Directory>
/home/itssahil/PROJECTS/Mol_Feturizer/New_Systems/rnas/4LX6

>  <Rbt.Executable>
rbdock ($Id: //depot/dev/client3/rdock/2013.1/src/exe/rbdock.cxx#4 $)

>  <Rbt.Library>
libRbt.so (2013.1, Build901 2013/11/27)

>  <Rbt.Parameter_File>
/export/apps/rDock/src/rDock_2013.1_src/data/scripts/dock_solv.prm

>  <Rbt.Receptor>
prm/pocket_docking_4.prm

>  <SCORE>
-17.3141

>  <SCORE.INTER>
-17.3141

>  <SCORE.INTER.CONST>
1

>  <SCORE.INTER.POLAR>
0

>  <SCORE.INTER.ROT>
0

>  <SCORE.INTER.SOLV>
11.0061

>  <SCORE.INTER.VDW>
-18.8114

>  <SCORE.INTER.norm>
-1.44284

>  <SCORE.INTRA>
0

>  <SCORE.INTRA.DIHEDRAL>
0

>  <SCORE.INTRA.DIHEDRAL.0>
0

>  <SCORE.INTRA.POLAR>
0

>  <SCORE.INTRA.POLAR.0>
0

>  <SCORE.INTRA.REPUL>
0

>  <SCORE.INTRA.REPUL.0>
0

>  <SCORE.INTRA.SOLV>
0

>  <SCORE.INTRA.SOLV.lig_0>
-28.9128

>  <SCORE.INTRA.VDW>
0

>  <SCORE.INTRA.VDW.0>
0

>  <SCORE.INTRA.norm>
0

>  <SCORE.RESTR>
0

>  <SCORE.RESTR.CAVITY>
0

>  <SCORE.RESTR.norm>
0

>  <SCORE.SYSTEM>
0

>  <SCORE.SYSTEM.CONST>
0

>  <SCORE.SYSTEM.DIHEDRAL>
0

>  <SCORE.SYSTEM.SOLV>
0

>  <SCORE.SYSTEM.norm>
0

>  <SCORE.heavy>
12

>  <SCORE.norm>
-1.44284

>  <RMSD>
2.954

$$$$
ligand
 OpenBabel11021811503D
libRbt.so/2013.1/901 2013/11/27
 12 13  0  0  0  0  0  0  0  0999 V2000
   29.5665   16.0951   16.0275 C   0  0  0  0  0  0  0  0  0  0  0  0
   30.9733   17.8176   15.0908 C   0  0  0  0  0  0  0  0  0  0  0  0
   28.8873   14.9605   15.9056 N   0  0  0  0  0  0  0  0  0  0  0  0
   29.5884   16.7131   17.2128 N   0  0  0  0  0  0  0  0  0  0  0  0
   30.2643   16.6325   14.9299 N   0  0  0  0  0  0  0  0  0  0  0  0
   31.5797   18.2891   14.1249 O   0  0  0  0  0  0  0  0  0  0  0  0
   31.6324   20.2260   17.8248 N   0  0  0  0  0  0  0  0  0  0  0  0
   30.9133   19.6250   18.8697 C   0  0  0  0  0  0  0  0  0  0  0  0
   30.2278   18.4191   18.6307 N   0  0  0  0  0  0  0  0  0  0  0  0
   30.2498   17.8616   17.4035 C   0  0  0  0  0  0  0  0  0  0  0  0
   30.9629   18.4373   16.3430 C   0  0  0  0  0  0  0  0  0  0  0  0
   31.6515   19.6245   16.5436 C   0  0  0  0  0  0  0  0  0  0  0  0
  1  3  1  0  0  0  0
  1  4  2  0  0  0  0
  1  5  1  0  0  0  0
  2  6  2  0  0  0  0
  2 11  1  0  0  0  0
  2  5  1  0  0  0  0
  4 10  1  0  0  0  0
  7  8  2  0  0  0  0
  7 12  1  0  0  0  0
  8  9  1  0  0  0  0
  9 10  2  0  0  0  0
 10 11  1  0  0  0  0
 11 12  2  0  0  0  0
M  END
>  <CHROM.1>
30.54103294,17.87014494,16.53424821,2.17323190,-0.95123912,-2.03522680

>  <Name>
ligand

>  <RI>
0

>  <Rbt.Current_Directory>
/home/itssahil/PROJECTS/Mol_Feturizer/New_Systems/rnas/4LX6

>  <Rbt.Executable>
rbdock ($Id: //depot/dev/client3/rdock/2013.1/src/exe/rbdock.cxx#4 $)

>  <Rbt.Library>
libRbt.so (2013.1, Build901 2013/11/27)

>  <Rbt.Parameter_File>
/export/apps/rDock/src/rDock_2013.1_src/data/scripts/dock_solv.prm

>  <Rbt.Receptor>
prm/pocket_docking_4.prm

>  <SCORE>
-17.3186

>  <SCORE.INTER>
-17.3186

>  <SCORE.INTER.CONST>
1

>  <SCORE.INTER.POLAR>
0

>  <SCORE.INTER.ROT>
0

>  <SCORE.INTER.SOLV>
11.0522

>  <SCORE.INTER.VDW>
-18.8298

>  <SCORE.INTER.norm>
-1.44321

>  <SCORE.INTRA>
0

>  <SCORE.INTRA.DIHEDRAL>
0

>  <SCORE.INTRA.DIHEDRAL.0>
0

>  <SCORE.INTRA.POLAR>
0

>  <SCORE.INTRA.POLAR.0>
0

>  <SCORE.INTRA.REPUL>
0

>  <SCORE.INTRA.REPUL.0>
0

>  <SCORE.INTRA.SOLV>
0

>  <SCORE.INTRA.SOLV.lig_0>
-28.9128

>  <SCORE.INTRA.VDW>
0

>  <SCORE.INTRA.VDW.0>
0

>  <SCORE.INTRA.norm>
0

>  <SCORE.RESTR>
0

>  <SCORE.RESTR.CAVITY>
0

>  <SCORE.RESTR.norm>
0

>  <SCORE.SYSTEM>
0

>  <SCORE.SYSTEM.CONST>
0

>  <SCORE.SYSTEM.DIHEDRAL>
0

>  <SCORE.SYSTEM.SOLV>
0

>  <SCORE.SYSTEM.norm>
0

>  <SCORE.heavy>
12

>  <SCORE.norm>
-1.44321

>  <RMSD>
2.954

$$$$
ligand
 OpenBabel11021811503D
libRbt.so/2013.1/901 2013/11/27
 12 13  0  0  0  0  0  0  0  0999 V2000
   29.5668   16.0956   16.0296 C   0  0  0  0  0  0  0  0  0  0  0  0
   30.9756   17.8162   15.0924 C   0  0  0  0  0  0  0  0  0  0  0  0
   28.8876   14.9609   15.9084 N   0  0  0  0  0  0  0  0  0  0  0  0
   29.5866   16.7157   17.2138 N   0  0  0  0  0  0  0  0  0  0  0  0
   30.2667   16.6310   14.9324 N   0  0  0  0  0  0  0  0  0  0  0  0
   31.5838   18.2860   14.1268 O   0  0  0  0  0  0  0  0  0  0  0  0
   31.6302   20.2293   17.8234 N   0  0  0  0  0  0  0  0  0  0  0  0
   30.9091   19.6302   18.8681 C   0  0  0  0  0  0  0  0  0  0  0  0
   30.2239   18.4240   18.6299 N   0  0  0  0  0  0  0  0  0  0  0  0
   30.2479   17.8644   17.4037 C   0  0  0  0  0  0  0  0  0  0  0  0
   30.9631   18.4381   16.3435 C   0  0  0  0  0  0  0  0  0  0  0  0
   31.6515   19.6255   16.5433 C   0  0  0  0  0  0  0  0  0  0  0  0
  1  3  1  0  0  0  0
  1  4  2  0  0  0  0
  1  5  1  0  0  0  0
  2  6  2  0  0  0  0
  2 11  1  0  0  0  0
  2  5  1  0  0  0  0
  4 10  1  0  0  0  0
  7  8  2  0  0  0  0
  7 12  1  0  0  0  0
  8  9  1  0  0  0  0
  9 10  2  0  0  0  0
 10 11  1  0  0  0  0
 11 12  2  0  0  0  0
M  END
>  <CHROM.1>
30.54072980,17.87137175,16.53501366,2.17059869,-0.95026547,-2.03911184

>  <Name>
ligand

>  <RI>
0

>  <Rbt.Current_Directory>
/home/itssahil/PROJECTS/Mol_Feturizer/New_Systems/rnas/4LX6

>  <Rbt.Executable>
rbdock ($Id: //depot/dev/client3/rdock/2013.1/src/exe/rbdock.cxx#4 $)

>  <Rbt.Library>
libRbt.so (2013.1, Build901 2013/11/27)

>  <Rbt.Parameter_File>
/export/apps/rDock/src/rDock_2013.1_src/data/scripts/dock_solv.prm

>  <Rbt.Receptor>
prm/pocket_docking_4.prm

>  <SCORE>
-17.3171

>  <SCORE.INTER>
-17.3171

>  <SCORE.INTER.CONST>
1

>  <SCORE.INTER.POLAR>
0

>  <SCORE.INTER.ROT>
0

>  <SCORE.INTER.SOLV>
11.0541

>  <SCORE.INTER.VDW>
-18.8294

>  <SCORE.INTER.norm>
-1.44309

>  <SCORE.INTRA>
0

>  <SCORE.INTRA.DIHEDRAL>
0

>  <SCORE.INTRA.DIHEDRAL.0>
0

>  <SCORE.INTRA.POLAR>
0

>  <SCORE.INTRA.POLAR.0>
0

>  <SCORE.INTRA.REPUL>
0

>  <SCORE.INTRA.REPUL.0>
0

>  <SCORE.INTRA.SOLV>
0

>  <SCORE.INTRA.SOLV.lig_0>
-28.9128

>  <SCORE.INTRA.VDW>
0

>  <SCORE.INTRA.VDW.0>
0

>  <SCORE.INTRA.norm>
0

>  <SCORE.RESTR>
0

>  <SCORE.RESTR.CAVITY>
0

>  <SCORE.RESTR.norm>
0

>  <SCORE.SYSTEM>
0

>  <SCORE.SYSTEM.CONST>
0

>  <SCORE.SYSTEM.DIHEDRAL>
0

>  <SCORE.SYSTEM.SOLV>
0

>  <SCORE.SYSTEM.norm>
0

>  <SCORE.heavy>
12

>  <SCORE.norm>
-1.44309

>  <RMSD>
2.954

$$$$
ligand
 OpenBabel11021811503D
libRbt.so/2013.1/901 2013/11/27
 12 13  0  0  0  0  0  0  0  0999 V2000
   29.5660   16.0987   16.0274 C   0  0  0  0  0  0  0  0  0  0  0  0
   30.9763   17.8192   15.0921 C   0  0  0  0  0  0  0  0  0  0  0  0
   28.8863   14.9644   15.9051 N   0  0  0  0  0  0  0  0  0  0  0  0
   29.5853   16.7181   17.2120 N   0  0  0  0  0  0  0  0  0  0  0  0
   30.2669   16.6344   14.9309 N   0  0  0  0  0  0  0  0  0  0  0  0
   31.5854   18.2892   14.1272 O   0  0  0  0  0  0  0  0  0  0  0  0
   31.6301   20.2304   17.8250 N   0  0  0  0  0  0  0  0  0  0  0  0
   30.9080   19.6310   18.8688 C   0  0  0  0  0  0  0  0  0  0  0  0
   30.2224   18.4253   18.6295 N   0  0  0  0  0  0  0  0  0  0  0  0
   30.2470   17.8664   17.4030 C   0  0  0  0  0  0  0  0  0  0  0  0
   30.9631   18.4403   16.3436 C   0  0  0  0  0  0  0  0  0  0  0  0
   31.6520   19.6273   16.5446 C   0  0  0  0  0  0  0  0  0  0  0  0
  1  3  1  0  0  0  0
  1  4  2  0  0  0  0
  1  5  1  0  0  0  0
  2  6  2  0  0  0  0
  2 11  1  0  0  0  0
  2  5  1  0  0  0  0
  4 10  1  0  0  0  0
  7  8  2  0  0  0  0
  7 12  1  0  0  0  0
  8  9  1  0  0  0  0
  9 10  2  0  0  0  0
 10 11  1  0  0  0  0
 11 12  2  0  0  0  0
M  END
>  <CHROM.1>
30.54040974,17.87369809,16.53448026,2.16992123,-0.94953691,-2.03907709

>  <Name>
ligand

>  <RI>
0

>  <Rbt.Current_Directory>
/home/itssahil/PROJECTS/Mol_Feturizer/New_Systems/rnas/4LX6

>  <Rbt.Executable>
rbdock ($Id: //depot/dev/client3/rdock/2013.1/src/exe/rbdock.cxx#4 $)

>  <Rbt.Library>
libRbt.so (2013.1, Build901 2013/11/27)

>  <Rbt.Parameter_File>
/export/apps/rDock/src/rDock_2013.1_src/data/scripts/dock_solv.prm

>  <Rbt.Receptor>
prm/pocket_docking_4.prm

>  <SCORE>
-17.3181

>  <SCORE.INTER>
-17.3181

>  <SCORE.INTER.CONST>
1

>  <SCORE.INTER.POLAR>
0

>  <SCORE.INTER.ROT>
0

>  <SCORE.INTER.SOLV>
11.0471

>  <SCORE.INTER.VDW>
-18.8277

>  <SCORE.INTER.norm>
-1.44317

>  <SCORE.INTRA>
0

>  <SCORE.INTRA.DIHEDRAL>
0

>  <SCORE.INTRA.DIHEDRAL.0>
0

>  <SCORE.INTRA.POLAR>
0

>  <SCORE.INTRA.POLAR.0>
0

>  <SCORE.INTRA.REPUL>
0

>  <SCORE.INTRA.REPUL.0>
0

>  <SCORE.INTRA.SOLV>
0

>  <SCORE.INTRA.SOLV.lig_0>
-28.9128

>  <SCORE.INTRA.VDW>
0

>  <SCORE.INTRA.VDW.0>
0

>  <SCORE.INTRA.norm>
0

>  <SCORE.RESTR>
0

>  <SCORE.RESTR.CAVITY>
0

>  <SCORE.RESTR.norm>
0

>  <SCORE.SYSTEM>
0

>  <SCORE.SYSTEM.CONST>
0

>  <SCORE.SYSTEM.DIHEDRAL>
0

>  <SCORE.SYSTEM.SOLV>
0

>  <SCORE.SYSTEM.norm>
0

>  <SCORE.heavy>
12

>  <SCORE.norm>
-1.44317

>  <RMSD>
2.954

$$$$
ligand
 OpenBabel11021811503D
libRbt.so/2013.1/901 2013/11/27
 12 13  0  0  0  0  0  0  0  0999 V2000
   29.5655   16.0696   16.0293 C   0  0  0  0  0  0  0  0  0  0  0  0
   30.9952   17.7606   15.0700 C   0  0  0  0  0  0  0  0  0  0  0  0
   28.8759   14.9396   15.9238 N   0  0  0  0  0  0  0  0  0  0  0  0
   29.5861   16.7091   17.2030 N   0  0  0  0  0  0  0  0  0  0  0  0
   30.2755   16.5798   14.9265 N   0  0  0  0  0  0  0  0  0  0  0  0
   31.6123   18.2083   14.0996 O   0  0  0  0  0  0  0  0  0  0  0  0
   31.6609   20.2126   17.7634 N   0  0  0  0  0  0  0  0  0  0  0  0
   30.9293   19.6380   18.8146 C   0  0  0  0  0  0  0  0  0  0  0  0
   30.2335   18.4347   18.5934 N   0  0  0  0  0  0  0  0  0  0  0  0
   30.2576   17.8545   17.3768 C   0  0  0  0  0  0  0  0  0  0  0  0
   30.9830   18.4034   16.3105 C   0  0  0  0  0  0  0  0  0  0  0  0
   31.6821   19.5873   16.4937 C   0  0  0  0  0  0  0  0  0  0  0  0
  1  3  1  0  0  0  0
  1  4  2  0  0  0  0
  1  5  1  0  0  0  0
  2  6  2  0  0  0  0
  2 11  1  0  0  0  0
  2  5  1  0  0  0  0
  4 10  1  0  0  0  0
  7  8  2  0  0  0  0
  7 12  1  0  0  0  0
  8  9  1  0  0  0  0
  9 10  2  0  0  0  0
 10 11  1  0  0  0  0
 11 12  2  0  0  0  0
M  END
>  <CHROM.1>
30.55437374,17.84407703,16.50949116,2.17123138,-0.93956023,-2.05530113

>  <Name>
ligand

>  <RI>
0

>  <Rbt.Current_Directory>
/home/itssahil/PROJECTS/Mol_Feturizer/New_Systems/rnas/4LX6

>  <Rbt.Executable>
rbdock ($Id: //depot/dev/client3/rdock/2013.1/src/exe/rbdock.cxx#4 $)

>  <Rbt.Library>
libRbt.so (2013.1, Build901 2013/11/27)

>  <Rbt.Parameter_File>
/export/apps/rDock/src/rDock_2013.1_src/data/scripts/dock_solv.prm

>  <Rbt.Receptor>
prm/pocket_docking_4.prm

>  <SCORE>
-17.3407

>  <SCORE.INTER>
-17.3407

>  <SCORE.INTER.CONST>
1

>  <SCORE.INTER.POLAR>
0

>  <SCORE.INTER.ROT>
0

>  <SCORE.INTER.SOLV>
11.0535

>  <SCORE.INTER.VDW>
-18.845

>  <SCORE.INTER.norm>
-1.44506

>  <SCORE.INTRA>
0

>  <SCORE.INTRA.DIHEDRAL>
0

>  <SCORE.INTRA.DIHEDRAL.0>
0

>  <SCORE.INTRA.POLAR>
0

>  <SCORE.INTRA.POLAR.0>
0

>  <SCORE.INTRA.REPUL>
0

>  <SCORE.INTRA.REPUL.0>
0

>  <SCORE.INTRA.SOLV>
0

>  <SCORE.INTRA.SOLV.lig_0>
-28.9128

>  <SCORE.INTRA.VDW>
0

>  <SCORE.INTRA.VDW.0>
0

>  <SCORE.INTRA.norm>
0

>  <SCORE.RESTR>
0

>  <SCORE.RESTR.CAVITY>
0

>  <SCORE.RESTR.norm>
0

>  <SCORE.SYSTEM>
0

>  <SCORE.SYSTEM.CONST>
0

>  <SCORE.SYSTEM.DIHEDRAL>
0

>  <SCORE.SYSTEM.SOLV>
0

>  <SCORE.SYSTEM.norm>
0

>  <SCORE.heavy>
12

>  <SCORE.norm>
-1.44506

>  <RMSD>
2.954

$$$$
ligand
 OpenBabel11021811503D
libRbt.so/2013.1/901 2013/11/27
 12 13  0  0  0  0  0  0  0  0999 V2000
   29.5860   16.1324   16.0381 C   0  0  0  0  0  0  0  0  0  0  0  0
   31.0411   17.8217   15.1144 C   0  0  0  0  0  0  0  0  0  0  0  0
   28.8863   15.0109   15.9114 N   0  0  0  0  0  0  0  0  0  0  0  0
   29.6021   16.7562   17.2204 N   0  0  0  0  0  0  0  0  0  0  0  0
   30.3112   16.6501   14.9487 N   0  0  0  0  0  0  0  0  0  0  0  0
   31.6715   18.2759   14.1556 O   0  0  0  0  0  0  0  0  0  0  0  0
   31.7061   20.2312   17.8461 N   0  0  0  0  0  0  0  0  0  0  0  0
   30.9592   19.6501   18.8829 C   0  0  0  0  0  0  0  0  0  0  0  0
   30.2536   18.4568   18.6394 N   0  0  0  0  0  0  0  0  0  0  0  0
   30.2832   17.8925   17.4155 C   0  0  0  0  0  0  0  0  0  0  0  0
   31.0239   18.4481   16.3632 C   0  0  0  0  0  0  0  0  0  0  0  0
   31.7328   19.6225   16.5684 C   0  0  0  0  0  0  0  0  0  0  0  0
  1  3  1  0  0  0  0
  1  4  2  0  0  0  0
  1  5  1  0  0  0  0
  2  6  2  0  0  0  0
  2 11  1  0  0  0  0
  2  5  1  0  0  0  0
  4 10  1  0  0  0  0
  7  8  2  0  0  0  0
  7 12  1  0  0  0  0
  8  9  1  0  0  0  0
  9 10  2  0  0  0  0
 10 11  1  0  0  0  0
 11 12  2  0  0  0  0
M  END
>  <CHROM.1>
30.58788104,17.89051767,16.55081655,2.16529774,-0.92655018,-2.04682895

>  <Name>
ligand

>  <RI>
0

>  <Rbt.Current_Directory>
/home/itssahil/PROJECTS/Mol_Feturizer/New_Systems/rnas/4LX6

>  <Rbt.Executable>
rbdock ($Id: //depot/dev/client3/rdock/2013.1/src/exe/rbdock.cxx#4 $)

>  <Rbt.Library>
libRbt.so (2013.1, Build901 2013/11/27)

>  <Rbt.Parameter_File>
/export/apps/rDock/src/rDock_2013.1_src/data/scripts/dock_solv.prm

>  <Rbt.Receptor>
prm/pocket_docking_5.prm

>  <SCORE>
-17.2439

>  <SCORE.INTER>
-17.2439

>  <SCORE.INTER.CONST>
1

>  <SCORE.INTER.POLAR>
0

>  <SCORE.INTER.ROT>
0

>  <SCORE.INTER.SOLV>
11.0066

>  <SCORE.INTER.VDW>
-18.7648

>  <SCORE.INTER.norm>
-1.43699

>  <SCORE.INTRA>
0

>  <SCORE.INTRA.DIHEDRAL>
0

>  <SCORE.INTRA.DIHEDRAL.0>
0

>  <SCORE.INTRA.POLAR>
0

>  <SCORE.INTRA.POLAR.0>
0

>  <SCORE.INTRA.REPUL>
0

>  <SCORE.INTRA.REPUL.0>
0

>  <SCORE.INTRA.SOLV>
0

>  <SCORE.INTRA.SOLV.lig_0>
-28.9128

>  <SCORE.INTRA.VDW>
0

>  <SCORE.INTRA.VDW.0>
0

>  <SCORE.INTRA.norm>
0

>  <SCORE.RESTR>
0

>  <SCORE.RESTR.CAVITY>
0

>  <SCORE.RESTR.norm>
0

>  <SCORE.SYSTEM>
0

>  <SCORE.SYSTEM.CONST>
0

>  <SCORE.SYSTEM.DIHEDRAL>
0

>  <SCORE.SYSTEM.SOLV>
0

>  <SCORE.SYSTEM.norm>
0

>  <SCORE.heavy>
12

>  <SCORE.norm>
-1.43699

>  <RMSD>
2.954

$$$$
ligand
 OpenBabel11021811503D
libRbt.so/2013.1/901 2013/11/27
 12 13  0  0  0  0  0  0  0  0999 V2000
   29.5757   16.1131   16.0383 C   0  0  0  0  0  0  0  0  0  0  0  0
   31.0236   17.7965   15.0930 C   0  0  0  0  0  0  0  0  0  0  0  0
   28.8695   14.9944   15.9221 N   0  0  0  0  0  0  0  0  0  0  0  0
   29.6119   16.7368   17.2202 N   0  0  0  0  0  0  0  0  0  0  0  0
   30.2865   16.6278   14.9382 N   0  0  0  0  0  0  0  0  0  0  0  0
   31.6415   18.2482   14.1249 O   0  0  0  0  0  0  0  0  0  0  0  0
   31.7392   20.2030   17.8144 N   0  0  0  0  0  0  0  0  0  0  0  0
   31.0055   19.6249   18.8622 C   0  0  0  0  0  0  0  0  0  0  0  0
   30.2915   18.4345   18.6293 N   0  0  0  0  0  0  0  0  0  0  0  0
   30.3005   17.8702   17.4051 C   0  0  0  0  0  0  0  0  0  0  0  0
   31.0276   18.4229   16.3419 C   0  0  0  0  0  0  0  0  0  0  0  0
   31.7444   19.5944   16.5365 C   0  0  0  0  0  0  0  0  0  0  0  0
  1  3  1  0  0  0  0
  1  4  2  0  0  0  0
  1  5  1  0  0  0  0
  2  6  2  0  0  0  0
  2 11  1  0  0  0  0
  2  5  1  0  0  0  0
  4 10  1  0  0  0  0
  7  8  2  0  0  0  0
  7 12  1  0  0  0  0
  8  9  1  0  0  0  0
  9 10  2  0  0  0  0
 10 11  1  0  0  0  0
 11 12  2  0  0  0  0
M  END
>  <CHROM.1>
30.59221850,17.86705637,16.53599377,2.19063736,-0.92961921,-2.02651100

>  <Name>
ligand

>  <RI>
0

>  <Rbt.Current_Directory>
/home/itssahil/PROJECTS/Mol_Feturizer/New_Systems/rnas/4LX6

>  <Rbt.Executable>
rbdock ($Id: //depot/dev/client3/rdock/2013.1/src/exe/rbdock.cxx#4 $)

>  <Rbt.Library>
libRbt.so (2013.1, Build901 2013/11/27)

>  <Rbt.Parameter_File>
/export/apps/rDock/src/rDock_2013.1_src/data/scripts/dock_solv.prm

>  <Rbt.Receptor>
prm/pocket_docking_5.prm

>  <SCORE>
-17.2421

>  <SCORE.INTER>
-17.2421

>  <SCORE.INTER.CONST>
1

>  <SCORE.INTER.POLAR>
0

>  <SCORE.INTER.ROT>
0

>  <SCORE.INTER.SOLV>
10.9481

>  <SCORE.INTER.VDW>
-18.7441

>  <SCORE.INTER.norm>
-1.43684

>  <SCORE.INTRA>
0

>  <SCORE.INTRA.DIHEDRAL>
0

>  <SCORE.INTRA.DIHEDRAL.0>
0

>  <SCORE.INTRA.POLAR>
0

>  <SCORE.INTRA.POLAR.0>
0

>  <SCORE.INTRA.REPUL>
0

>  <SCORE.INTRA.REPUL.0>
0

>  <SCORE.INTRA.SOLV>
0

>  <SCORE.INTRA.SOLV.lig_0>
-28.9128

>  <SCORE.INTRA.VDW>
0

>  <SCORE.INTRA.VDW.0>
0

>  <SCORE.INTRA.norm>
0

>  <SCORE.RESTR>
0

>  <SCORE.RESTR.CAVITY>
0

>  <SCORE.RESTR.norm>
0

>  <SCORE.SYSTEM>
0

>  <SCORE.SYSTEM.CONST>
0

>  <SCORE.SYSTEM.DIHEDRAL>
0

>  <SCORE.SYSTEM.SOLV>
0

>  <SCORE.SYSTEM.norm>
0

>  <SCORE.heavy>
12

>  <SCORE.norm>
-1.43684

>  <RMSD>
2.954

$$$$
ligand
 OpenBabel11021811503D
libRbt.so/2013.1/901 2013/11/27
 12 13  0  0  0  0  0  0  0  0999 V2000
   29.5690   16.0994   16.0334 C   0  0  0  0  0  0  0  0  0  0  0  0
   30.9773   17.8144   15.0849 C   0  0  0  0  0  0  0  0  0  0  0  0
   28.8824   14.9687   15.9170 N   0  0  0  0  0  0  0  0  0  0  0  0
   29.6047   16.7169   17.2186 N   0  0  0  0  0  0  0  0  0  0  0  0
   30.2602   16.6333   14.9299 N   0  0  0  0  0  0  0  0  0  0  0  0
   31.5778   18.2828   14.1139 O   0  0  0  0  0  0  0  0  0  0  0  0
   31.6737   20.2181   17.8138 N   0  0  0  0  0  0  0  0  0  0  0  0
   30.9603   19.6207   18.8648 C   0  0  0  0  0  0  0  0  0  0  0  0
   30.2661   18.4188   18.6314 N   0  0  0  0  0  0  0  0  0  0  0  0
   30.2742   17.8616   17.4038 C   0  0  0  0  0  0  0  0  0  0  0  0
   30.9813   18.4336   16.3373 C   0  0  0  0  0  0  0  0  0  0  0  0
   31.6783   19.6169   16.5323 C   0  0  0  0  0  0  0  0  0  0  0  0
  1  3  1  0  0  0  0
  1  4  2  0  0  0  0
  1  5  1  0  0  0  0
  2  6  2  0  0  0  0
  2 11  1  0  0  0  0
  2  5  1  0  0  0  0
  4 10  1  0  0  0  0
  7  8  2  0  0  0  0
  7 12  1  0  0  0  0
  8  9  1  0  0  0  0
  9 10  2  0  0  0  0
 10 11  1  0  0  0  0
 11 12  2  0  0  0  0
M  END
>  <CHROM.1>
30.55787433,17.86881291,16.53210389,2.19097655,-0.95004191,-2.02044728

>  <Name>
ligand

>  <RI>
0

>  <Rbt.Current_Directory>
/home/itssahil/PROJECTS/Mol_Feturizer/New_Systems/rnas/4LX6

>  <Rbt.Executable>
rbdock ($Id: //depot/dev/client3/rdock/2013.1/src/exe/rbdock.cxx#4 $)

>  <Rbt.Library>
libRbt.so (2013.1, Build901 2013/11/27)

>  <Rbt.Parameter_File>
/export/apps/rDock/src/rDock_2013.1_src/data/scripts/dock_solv.prm

>  <Rbt.Receptor>
prm/pocket_docking_5.prm

>  <SCORE>
-17.3059

>  <SCORE.INTER>
-17.3059

>  <SCORE.INTER.CONST>
1

>  <SCORE.INTER.POLAR>
0

>  <SCORE.INTER.ROT>
0

>  <SCORE.INTER.SOLV>
11.0162

>  <SCORE.INTER.VDW>
-18.8093

>  <SCORE.INTER.norm>
-1.44216

>  <SCORE.INTRA>
0

>  <SCORE.INTRA.DIHEDRAL>
0

>  <SCORE.INTRA.DIHEDRAL.0>
0

>  <SCORE.INTRA.POLAR>
0

>  <SCORE.INTRA.POLAR.0>
0

>  <SCORE.INTRA.REPUL>
0

>  <SCORE.INTRA.REPUL.0>
0

>  <SCORE.INTRA.SOLV>
0

>  <SCORE.INTRA.SOLV.lig_0>
-28.9128

>  <SCORE.INTRA.VDW>
0

>  <SCORE.INTRA.VDW.0>
0

>  <SCORE.INTRA.norm>
0

>  <SCORE.RESTR>
0

>  <SCORE.RESTR.CAVITY>
0

>  <SCORE.RESTR.norm>
0

>  <SCORE.SYSTEM>
0

>  <SCORE.SYSTEM.CONST>
0

>  <SCORE.SYSTEM.DIHEDRAL>
0

>  <SCORE.SYSTEM.SOLV>
0

>  <SCORE.SYSTEM.norm>
0

>  <SCORE.heavy>
12

>  <SCORE.norm>
-1.44216

>  <RMSD>
2.954

$$$$
ligand
 OpenBabel11021811503D
libRbt.so/2013.1/901 2013/11/27
 12 13  0  0  0  0  0  0  0  0999 V2000
   29.5345   16.0755   16.0187 C   0  0  0  0  0  0  0  0  0  0  0  0
   30.9710   17.7631   15.0635 C   0  0  0  0  0  0  0  0  0  0  0  0
   28.8378   14.9502   15.9096 N   0  0  0  0  0  0  0  0  0  0  0  0
   29.5629   16.7087   17.1958 N   0  0  0  0  0  0  0  0  0  0  0  0
   30.2437   16.5874   14.9162 N   0  0  0  0  0  0  0  0  0  0  0  0
   31.5874   18.2123   14.0933 O   0  0  0  0  0  0  0  0  0  0  0  0
   31.6605   20.1967   17.7676 N   0  0  0  0  0  0  0  0  0  0  0  0
   30.9291   19.6209   18.8182 C   0  0  0  0  0  0  0  0  0  0  0  0
   30.2254   18.4229   18.5930 N   0  0  0  0  0  0  0  0  0  0  0  0
   30.2418   17.8491   17.3733 C   0  0  0  0  0  0  0  0  0  0  0  0
   30.9669   18.3993   16.3075 C   0  0  0  0  0  0  0  0  0  0  0  0
   31.6736   19.5781   16.4945 C   0  0  0  0  0  0  0  0  0  0  0  0
  1  3  1  0  0  0  0
  1  4  2  0  0  0  0
  1  5  1  0  0  0  0
  2  6  2  0  0  0  0
  2 11  1  0  0  0  0
  2  5  1  0  0  0  0
  4 10  1  0  0  0  0
  7  8  2  0  0  0  0
  7 12  1  0  0  0  0
  8  9  1  0  0  0  0
  9 10  2  0  0  0  0
 10 11  1  0  0  0  0
 11 12  2  0  0  0  0
M  END
>  <CHROM.1>
30.53559194,17.84152077,16.50490694,2.18103617,-0.93586234,-2.04206556

>  <Name>
ligand

>  <RI>
0

>  <Rbt.Current_Directory>
/home/itssahil/PROJECTS/Mol_Feturizer/New_Systems/rnas/4LX6

>  <Rbt.Executable>
rbdock ($Id: //depot/dev/client3/rdock/2013.1/src/exe/rbdock.cxx#4 $)

>  <Rbt.Library>
libRbt.so (2013.1, Build901 2013/11/27)

>  <Rbt.Parameter_File>
/export/apps/rDock/src/rDock_2013.1_src/data/scripts/dock_solv.prm

>  <Rbt.Receptor>
prm/pocket_docking_7.prm

>  <SCORE>
-17.3284

>  <SCORE.INTER>
-17.3284

>  <SCORE.INTER.CONST>
1

>  <SCORE.INTER.POLAR>
0

>  <SCORE.INTER.ROT>
0

>  <SCORE.INTER.SOLV>
10.8815

>  <SCORE.INTER.VDW>
-18.7794

>  <SCORE.INTER.norm>
-1.44403

>  <SCORE.INTRA>
0

>  <SCORE.INTRA.DIHEDRAL>
0

>  <SCORE.INTRA.DIHEDRAL.0>
0

>  <SCORE.INTRA.POLAR>
0

>  <SCORE.INTRA.POLAR.0>
0

>  <SCORE.INTRA.REPUL>
0

>  <SCORE.INTRA.REPUL.0>
0

>  <SCORE.INTRA.SOLV>
0

>  <SCORE.INTRA.SOLV.lig_0>
-28.9128

>  <SCORE.INTRA.VDW>
0

>  <SCORE.INTRA.VDW.0>
0

>  <SCORE.INTRA.norm>
0

>  <SCORE.RESTR>
0

>  <SCORE.RESTR.CAVITY>
0

>  <SCORE.RESTR.norm>
0

>  <SCORE.SYSTEM>
0

>  <SCORE.SYSTEM.CONST>
0

>  <SCORE.SYSTEM.DIHEDRAL>
0

>  <SCORE.SYSTEM.SOLV>
0

>  <SCORE.SYSTEM.norm>
0

>  <SCORE.heavy>
12

>  <SCORE.norm>
-1.44403

>  <RMSD>
2.954

$$$$
ligand
 OpenBabel11021811503D
libRbt.so/2013.1/901 2013/11/27
 12 13  0  0  0  0  0  0  0  0999 V2000
   29.5346   16.0754   16.0182 C   0  0  0  0  0  0  0  0  0  0  0  0
   30.9724   17.7626   15.0642 C   0  0  0  0  0  0  0  0  0  0  0  0
   28.8379   14.9502   15.9087 N   0  0  0  0  0  0  0  0  0  0  0  0
   29.5618   16.7090   17.1951 N   0  0  0  0  0  0  0  0  0  0  0  0
   30.2452   16.5868   14.9164 N   0  0  0  0  0  0  0  0  0  0  0  0
   31.5900   18.2113   14.0945 O   0  0  0  0  0  0  0  0  0  0  0  0
   31.6591   20.1969   17.7682 N   0  0  0  0  0  0  0  0  0  0  0  0
   30.9265   19.6215   18.8182 C   0  0  0  0  0  0  0  0  0  0  0  0
   30.2228   18.4236   18.5926 N   0  0  0  0  0  0  0  0  0  0  0  0
   30.2406   17.8493   17.3731 C   0  0  0  0  0  0  0  0  0  0  0  0
   30.9670   18.3992   16.3079 C   0  0  0  0  0  0  0  0  0  0  0  0
   31.6737   19.5779   16.4954 C   0  0  0  0  0  0  0  0  0  0  0  0
  1  3  1  0  0  0  0
  1  4  2  0  0  0  0
  1  5  1  0  0  0  0
  2  6  2  0  0  0  0
  2 11  1  0  0  0  0
  2  5  1  0  0  0  0
  4 10  1  0  0  0  0
  7  8  2  0  0  0  0
  7 12  1  0  0  0  0
  8  9  1  0  0  0  0
  9 10  2  0  0  0  0
 10 11  1  0  0  0  0
 11 12  2  0  0  0  0
M  END
>  <CHROM.1>
30.53537417,17.84147203,16.50503286,2.17941329,-0.93522620,-2.04369883

>  <Name>
ligand

>  <RI>
0

>  <Rbt.Current_Directory>
/home/itssahil/PROJECTS/Mol_Feturizer/New_Systems/rnas/4LX6

>  <Rbt.Executable>
rbdock ($Id: //depot/dev/client3/rdock/2013.1/src/exe/rbdock.cxx#4 $)

>  <Rbt.Library>
libRbt.so (2013.1, Build901 2013/11/27)

>  <Rbt.Parameter_File>
/export/apps/rDock/src/rDock_2013.1_src/data/scripts/dock_solv.prm

>  <Rbt.Receptor>
prm/pocket_docking_7.prm

>  <SCORE>
-17.3271

>  <SCORE.INTER>
-17.3271

>  <SCORE.INTER.CONST>
1

>  <SCORE.INTER.POLAR>
0

>  <SCORE.INTER.ROT>
0

>  <SCORE.INTER.SOLV>
10.8833

>  <SCORE.INTER.VDW>
-18.7792

>  <SCORE.INTER.norm>
-1.44392

>  <SCORE.INTRA>
0

>  <SCORE.INTRA.DIHEDRAL>
0

>  <SCORE.INTRA.DIHEDRAL.0>
0

>  <SCORE.INTRA.POLAR>
0

>  <SCORE.INTRA.POLAR.0>
0

>  <SCORE.INTRA.REPUL>
0

>  <SCORE.INTRA.REPUL.0>
0

>  <SCORE.INTRA.SOLV>
0

>  <SCORE.INTRA.SOLV.lig_0>
-28.9128

>  <SCORE.INTRA.VDW>
0

>  <SCORE.INTRA.VDW.0>
0

>  <SCORE.INTRA.norm>
0

>  <SCORE.RESTR>
0

>  <SCORE.RESTR.CAVITY>
0

>  <SCORE.RESTR.norm>
0

>  <SCORE.SYSTEM>
0

>  <SCORE.SYSTEM.CONST>
0

>  <SCORE.SYSTEM.DIHEDRAL>
0

>  <SCORE.SYSTEM.SOLV>
0

>  <SCORE.SYSTEM.norm>
0

>  <SCORE.heavy>
12

>  <SCORE.norm>
-1.44392

>  <RMSD>
2.954

$$$$
ligand
 OpenBabel11021811503D
libRbt.so/2013.1/901 2013/11/27
 12 13  0  0  0  0  0  0  0  0999 V2000
   29.5637   16.0865   16.0241 C   0  0  0  0  0  0  0  0  0  0  0  0
   31.0214   17.7698   15.0936 C   0  0  0  0  0  0  0  0  0  0  0  0
   28.8652   14.9636   15.9030 N   0  0  0  0  0  0  0  0  0  0  0  0
   29.5746   16.7192   17.2018 N   0  0  0  0  0  0  0  0  0  0  0  0
   30.2929   16.5964   14.9337 N   0  0  0  0  0  0  0  0  0  0  0  0
   31.6553   18.2172   14.1340 O   0  0  0  0  0  0  0  0  0  0  0  0
   31.6739   20.2001   17.8098 N   0  0  0  0  0  0  0  0  0  0  0  0
   30.9232   19.6263   18.8479 C   0  0  0  0  0  0  0  0  0  0  0  0
   30.2194   18.4307   18.6105 N   0  0  0  0  0  0  0  0  0  0  0  0
   30.2542   17.8573   17.3910 C   0  0  0  0  0  0  0  0  0  0  0  0
   30.9987   18.4055   16.3376 C   0  0  0  0  0  0  0  0  0  0  0  0
   31.7061   19.5819   16.5368 C   0  0  0  0  0  0  0  0  0  0  0  0
  1  3  1  0  0  0  0
  1  4  2  0  0  0  0
  1  5  1  0  0  0  0
  2  6  2  0  0  0  0
  2 11  1  0  0  0  0
  2  5  1  0  0  0  0
  4 10  1  0  0  0  0
  7  8  2  0  0  0  0
  7 12  1  0  0  0  0
  8  9  1  0  0  0  0
  9 10  2  0  0  0  0
 10 11  1  0  0  0  0
 11 12  2  0  0  0  0
M  END
>  <CHROM.1>
30.56237064,17.84906052,16.52762728,2.15888498,-0.92526047,-2.05945255

>  <Name>
ligand

>  <RI>
0

>  <Rbt.Current_Directory>
/home/itssahil/PROJECTS/Mol_Feturizer/New_Systems/rnas/4LX6

>  <Rbt.Executable>
rbdock ($Id: //depot/dev/client3/rdock/2013.1/src/exe/rbdock.cxx#4 $)

>  <Rbt.Library>
libRbt.so (2013.1, Build901 2013/11/27)

>  <Rbt.Parameter_File>
/export/apps/rDock/src/rDock_2013.1_src/data/scripts/dock_solv.prm

>  <Rbt.Receptor>
prm/pocket_docking_7.prm

>  <SCORE>
-17.3102

>  <SCORE.INTER>
-17.3102

>  <SCORE.INTER.CONST>
1

>  <SCORE.INTER.POLAR>
0

>  <SCORE.INTER.ROT>
0

>  <SCORE.INTER.SOLV>
10.9899

>  <SCORE.INTER.VDW>
-18.8034

>  <SCORE.INTER.norm>
-1.44251

>  <SCORE.INTRA>
0

>  <SCORE.INTRA.DIHEDRAL>
0

>  <SCORE.INTRA.DIHEDRAL.0>
0

>  <SCORE.INTRA.POLAR>
0

>  <SCORE.INTRA.POLAR.0>
0

>  <SCORE.INTRA.REPUL>
0

>  <SCORE.INTRA.REPUL.0>
0

>  <SCORE.INTRA.SOLV>
0

>  <SCORE.INTRA.SOLV.lig_0>
-28.9128

>  <SCORE.INTRA.VDW>
0

>  <SCORE.INTRA.VDW.0>
0

>  <SCORE.INTRA.norm>
0

>  <SCORE.RESTR>
0

>  <SCORE.RESTR.CAVITY>
0

>  <SCORE.RESTR.norm>
0

>  <SCORE.SYSTEM>
0

>  <SCORE.SYSTEM.CONST>
0

>  <SCORE.SYSTEM.DIHEDRAL>
0

>  <SCORE.SYSTEM.SOLV>
0

>  <SCORE.SYSTEM.norm>
0

>  <SCORE.heavy>
12

>  <SCORE.norm>
-1.44251

>  <RMSD>
2.954

$$$$
ligand
 OpenBabel11021811503D
libRbt.so/2013.1/901 2013/11/27
 12 13  0  0  0  0  0  0  0  0999 V2000
   29.5354   16.0764   16.0188 C   0  0  0  0  0  0  0  0  0  0  0  0
   30.9735   17.7629   15.0642 C   0  0  0  0  0  0  0  0  0  0  0  0
   28.8383   14.9513   15.9097 N   0  0  0  0  0  0  0  0  0  0  0  0
   29.5628   16.7102   17.1956 N   0  0  0  0  0  0  0  0  0  0  0  0
   30.2459   16.5874   14.9168 N   0  0  0  0  0  0  0  0  0  0  0  0
   31.5911   18.2113   14.0944 O   0  0  0  0  0  0  0  0  0  0  0  0
   31.6612   20.1977   17.7677 N   0  0  0  0  0  0  0  0  0  0  0  0
   30.9285   19.6227   18.8179 C   0  0  0  0  0  0  0  0  0  0  0  0
   30.2245   18.4249   18.5926 N   0  0  0  0  0  0  0  0  0  0  0  0
   30.2420   17.8504   17.3732 C   0  0  0  0  0  0  0  0  0  0  0  0
   30.9684   18.3998   16.3078 C   0  0  0  0  0  0  0  0  0  0  0  0
   31.6754   19.5784   16.4950 C   0  0  0  0  0  0  0  0  0  0  0  0
  1  3  1  0  0  0  0
  1  4  2  0  0  0  0
  1  5  1  0  0  0  0
  2  6  2  0  0  0  0
  2 11  1  0  0  0  0
  2  5  1  0  0  0  0
  4 10  1  0  0  0  0
  7  8  2  0  0  0  0
  7 12  1  0  0  0  0
  8  9  1  0  0  0  0
  9 10  2  0  0  0  0
 10 11  1  0  0  0  0
 11 12  2  0  0  0  0
M  END
>  <CHROM.1>
30.53665499,17.84225857,16.50514438,2.17980046,-0.93505170,-2.04359701

>  <Name>
ligand

>  <RI>
0

>  <Rbt.Current_Directory>
/home/itssahil/PROJECTS/Mol_Feturizer/New_Systems/rnas/4LX6

>  <Rbt.Executable>
rbdock ($Id: //depot/dev/client3/rdock/2013.1/src/exe/rbdock.cxx#4 $)

>  <Rbt.Library>
libRbt.so (2013.1, Build901 2013/11/27)

>  <Rbt.Parameter_File>
/export/apps/rDock/src/rDock_2013.1_src/data/scripts/dock_solv.prm

>  <Rbt.Receptor>
prm/pocket_docking_7.prm

>  <SCORE>
-17.3269

>  <SCORE.INTER>
-17.3269

>  <SCORE.INTER.CONST>
1

>  <SCORE.INTER.POLAR>
0

>  <SCORE.INTER.ROT>
0

>  <SCORE.INTER.SOLV>
10.8841

>  <SCORE.INTER.VDW>
-18.7793

>  <SCORE.INTER.norm>
-1.44391

>  <SCORE.INTRA>
0

>  <SCORE.INTRA.DIHEDRAL>
0

>  <SCORE.INTRA.DIHEDRAL.0>
0

>  <SCORE.INTRA.POLAR>
0

>  <SCORE.INTRA.POLAR.0>
0

>  <SCORE.INTRA.REPUL>
0

>  <SCORE.INTRA.REPUL.0>
0

>  <SCORE.INTRA.SOLV>
0

>  <SCORE.INTRA.SOLV.lig_0>
-28.9128

>  <SCORE.INTRA.VDW>
0

>  <SCORE.INTRA.VDW.0>
0

>  <SCORE.INTRA.norm>
0

>  <SCORE.RESTR>
0

>  <SCORE.RESTR.CAVITY>
0

>  <SCORE.RESTR.norm>
0

>  <SCORE.SYSTEM>
0

>  <SCORE.SYSTEM.CONST>
0

>  <SCORE.SYSTEM.DIHEDRAL>
0

>  <SCORE.SYSTEM.SOLV>
0

>  <SCORE.SYSTEM.norm>
0

>  <SCORE.heavy>
12

>  <SCORE.norm>
-1.44391

>  <RMSD>
2.954

$$$$
ligand
 OpenBabel11021811503D
libRbt.so/2013.1/901 2013/11/27
 12 13  0  0  0  0  0  0  0  0999 V2000
   29.5644   16.0954   16.0208 C   0  0  0  0  0  0  0  0  0  0  0  0
   31.0328   17.7762   15.1028 C   0  0  0  0  0  0  0  0  0  0  0  0
   28.8611   14.9764   15.8922 N   0  0  0  0  0  0  0  0  0  0  0  0
   29.5747   16.7224   17.2015 N   0  0  0  0  0  0  0  0  0  0  0  0
   30.2993   16.6071   14.9351 N   0  0  0  0  0  0  0  0  0  0  0  0
   31.6718   18.2253   14.1473 O   0  0  0  0  0  0  0  0  0  0  0  0
   31.6883   20.1905   17.8326 N   0  0  0  0  0  0  0  0  0  0  0  0
   30.9319   19.6152   18.8656 C   0  0  0  0  0  0  0  0  0  0  0  0
   30.2232   18.4241   18.6204 N   0  0  0  0  0  0  0  0  0  0  0  0
   30.2591   17.8564   17.3983 C   0  0  0  0  0  0  0  0  0  0  0  0
   31.0093   18.4061   16.3497 C   0  0  0  0  0  0  0  0  0  0  0  0
   31.7216   19.5782   16.5568 C   0  0  0  0  0  0  0  0  0  0  0  0
  1  3  1  0  0  0  0
  1  4  2  0  0  0  0
  1  5  1  0  0  0  0
  2  6  2  0  0  0  0
  2 11  1  0  0  0  0
  2  5  1  0  0  0  0
  4 10  1  0  0  0  0
  7  8  2  0  0  0  0
  7 12  1  0  0  0  0
  8  9  1  0  0  0  0
  9 10  2  0  0  0  0
 10 11  1  0  0  0  0
 11 12  2  0  0  0  0
M  END
>  <CHROM.1>
30.56979325,17.85082921,16.53576746,2.15805154,-0.91970134,-2.05532452

>  <Name>
ligand

>  <RI>
0

>  <Rbt.Current_Directory>
/home/itssahil/PROJECTS/Mol_Feturizer/New_Systems/rnas/4LX6

>  <Rbt.Executable>
rbdock ($Id: //depot/dev/client3/rdock/2013.1/src/exe/rbdock.cxx#4 $)

>  <Rbt.Library>
libRbt.so (2013.1, Build901 2013/11/27)

>  <Rbt.Parameter_File>
/export/apps/rDock/src/rDock_2013.1_src/data/scripts/dock_solv.prm

>  <Rbt.Receptor>
prm/pocket_docking_7.prm

>  <SCORE>
-17.3048

>  <SCORE.INTER>
-17.3048

>  <SCORE.INTER.CONST>
1

>  <SCORE.INTER.POLAR>
0

>  <SCORE.INTER.ROT>
0

>  <SCORE.INTER.SOLV>
10.9578

>  <SCORE.INTER.VDW>
-18.7891

>  <SCORE.INTER.norm>
-1.44206

>  <SCORE.INTRA>
0

>  <SCORE.INTRA.DIHEDRAL>
0

>  <SCORE.INTRA.DIHEDRAL.0>
0

>  <SCORE.INTRA.POLAR>
0

>  <SCORE.INTRA.POLAR.0>
0

>  <SCORE.INTRA.REPUL>
0

>  <SCORE.INTRA.REPUL.0>
0

>  <SCORE.INTRA.SOLV>
0

>  <SCORE.INTRA.SOLV.lig_0>
-28.9128

>  <SCORE.INTRA.VDW>
0

>  <SCORE.INTRA.VDW.0>
0

>  <SCORE.INTRA.norm>
0

>  <SCORE.RESTR>
0

>  <SCORE.RESTR.CAVITY>
0

>  <SCORE.RESTR.norm>
0

>  <SCORE.SYSTEM>
0

>  <SCORE.SYSTEM.CONST>
0

>  <SCORE.SYSTEM.DIHEDRAL>
0

>  <SCORE.SYSTEM.SOLV>
0

>  <SCORE.SYSTEM.norm>
0

>  <SCORE.heavy>
12

>  <SCORE.norm>
-1.44206

>  <RMSD>
2.954

$$$$
ligand
 OpenBabel11021811503D
libRbt.so/2013.1/901 2013/11/27
 12 13  0  0  0  0  0  0  0  0999 V2000
   29.5642   16.0984   16.0235 C   0  0  0  0  0  0  0  0  0  0  0  0
   31.0233   17.7828   15.0972 C   0  0  0  0  0  0  0  0  0  0  0  0
   28.8605   14.9793   15.8980 N   0  0  0  0  0  0  0  0  0  0  0  0
   29.5845   16.7221   17.2058 N   0  0  0  0  0  0  0  0  0  0  0  0
   30.2891   16.6137   14.9327 N   0  0  0  0  0  0  0  0  0  0  0  0
   31.6534   18.2350   14.1373 O   0  0  0  0  0  0  0  0  0  0  0  0
   31.7014   20.1899   17.8278 N   0  0  0  0  0  0  0  0  0  0  0  0
   30.9544   19.6113   18.8659 C   0  0  0  0  0  0  0  0  0  0  0  0
   30.2444   18.4204   18.6236 N   0  0  0  0  0  0  0  0  0  0  0  0
   30.2699   17.8560   17.3996 C   0  0  0  0  0  0  0  0  0  0  0  0
   31.0104   18.4092   16.3460 C   0  0  0  0  0  0  0  0  0  0  0  0
   31.7237   19.5812   16.5500 C   0  0  0  0  0  0  0  0  0  0  0  0
  1  3  1  0  0  0  0
  1  4  2  0  0  0  0
  1  5  1  0  0  0  0
  2  6  2  0  0  0  0
  2 11  1  0  0  0  0
  2  5  1  0  0  0  0
  4 10  1  0  0  0  0
  7  8  2  0  0  0  0
  7 12  1  0  0  0  0
  8  9  1  0  0  0  0
  9 10  2  0  0  0  0
 10 11  1  0  0  0  0
 11 12  2  0  0  0  0
M  END
>  <CHROM.1>
30.57292245,17.85311156,16.53441355,2.17056500,-0.92438913,-2.04257433

>  <Name>
ligand

>  <RI>
0

>  <Rbt.Current_Directory>
/home/itssahil/PROJECTS/Mol_Feturizer/New_Systems/rnas/4LX6

>  <Rbt.Executable>
rbdock ($Id: //depot/dev/client3/rdock/2013.1/src/exe/rbdock.cxx#4 $)

>  <Rbt.Library>
libRbt.so (2013.1, Build901 2013/11/27)

>  <Rbt.Parameter_File>
/export/apps/rDock/src/rDock_2013.1_src/data/scripts/dock_solv.prm

>  <Rbt.Receptor>
prm/pocket_docking_8.prm

>  <SCORE>
-17.3081

>  <SCORE.INTER>
-17.3081

>  <SCORE.INTER.CONST>
1

>  <SCORE.INTER.POLAR>
0

>  <SCORE.INTER.ROT>
0

>  <SCORE.INTER.SOLV>
10.9434

>  <SCORE.INTER.VDW>
-18.7866

>  <SCORE.INTER.norm>
-1.44234

>  <SCORE.INTRA>
0

>  <SCORE.INTRA.DIHEDRAL>
0

>  <SCORE.INTRA.DIHEDRAL.0>
0

>  <SCORE.INTRA.POLAR>
0

>  <SCORE.INTRA.POLAR.0>
0

>  <SCORE.INTRA.REPUL>
0

>  <SCORE.INTRA.REPUL.0>
0

>  <SCORE.INTRA.SOLV>
0

>  <SCORE.INTRA.SOLV.lig_0>
-28.9128

>  <SCORE.INTRA.VDW>
0

>  <SCORE.INTRA.VDW.0>
0

>  <SCORE.INTRA.norm>
0

>  <SCORE.RESTR>
0

>  <SCORE.RESTR.CAVITY>
0

>  <SCORE.RESTR.norm>
0

>  <SCORE.SYSTEM>
0

>  <SCORE.SYSTEM.CONST>
0

>  <SCORE.SYSTEM.DIHEDRAL>
0

>  <SCORE.SYSTEM.SOLV>
0

>  <SCORE.SYSTEM.norm>
0

>  <SCORE.heavy>
12

>  <SCORE.norm>
-1.44234

>  <RMSD>
2.954

$$$$
ligand
 OpenBabel11021811503D
libRbt.so/2013.1/901 2013/11/27
 12 13  0  0  0  0  0  0  0  0999 V2000
   29.5367   16.0785   16.0177 C   0  0  0  0  0  0  0  0  0  0  0  0
   30.9774   17.7641   15.0652 C   0  0  0  0  0  0  0  0  0  0  0  0
   28.8390   14.9539   15.9074 N   0  0  0  0  0  0  0  0  0  0  0  0
   29.5629   16.7122   17.1945 N   0  0  0  0  0  0  0  0  0  0  0  0
   30.2492   16.5891   14.9166 N   0  0  0  0  0  0  0  0  0  0  0  0
   31.5966   18.2121   14.0963 O   0  0  0  0  0  0  0  0  0  0  0  0
   31.6629   20.1982   17.7698 N   0  0  0  0  0  0  0  0  0  0  0  0
   30.9283   19.6236   18.8189 C   0  0  0  0  0  0  0  0  0  0  0  0
   30.2238   18.4264   18.5926 N   0  0  0  0  0  0  0  0  0  0  0  0
   30.2427   17.8519   17.3732 C   0  0  0  0  0  0  0  0  0  0  0  0
   30.9709   18.4009   16.3089 C   0  0  0  0  0  0  0  0  0  0  0  0
   31.6785   19.5790   16.4971 C   0  0  0  0  0  0  0  0  0  0  0  0
  1  3  1  0  0  0  0
  1  4  2  0  0  0  0
  1  5  1  0  0  0  0
  2  6  2  0  0  0  0
  2 11  1  0  0  0  0
  2  5  1  0  0  0  0
  4 10  1  0  0  0  0
  7  8  2  0  0  0  0
  7 12  1  0  0  0  0
  8  9  1  0  0  0  0
  9 10  2  0  0  0  0
 10 11  1  0  0  0  0
 11 12  2  0  0  0  0
M  END
>  <CHROM.1>
30.53853395,17.84363385,16.50550783,2.17820012,-0.93377424,-2.04481493

>  <Name>
ligand

>  <RI>
0

>  <Rbt.Current_Directory>
/home/itssahil/PROJECTS/Mol_Feturizer/New_Systems/rnas/4LX6

>  <Rbt.Executable>
rbdock ($Id: //depot/dev/client3/rdock/2013.1/src/exe/rbdock.cxx#4 $)

>  <Rbt.Library>
libRbt.so (2013.1, Build901 2013/11/27)

>  <Rbt.Parameter_File>
/export/apps/rDock/src/rDock_2013.1_src/data/scripts/dock_solv.prm

>  <Rbt.Receptor>
prm/pocket_docking_8.prm

>  <SCORE>
-17.3252

>  <SCORE.INTER>
-17.3252

>  <SCORE.INTER.CONST>
1

>  <SCORE.INTER.POLAR>
0

>  <SCORE.INTER.ROT>
0

>  <SCORE.INTER.SOLV>
10.8864

>  <SCORE.INTER.VDW>
-18.779

>  <SCORE.INTER.norm>
-1.44377

>  <SCORE.INTRA>
0

>  <SCORE.INTRA.DIHEDRAL>
0

>  <SCORE.INTRA.DIHEDRAL.0>
0

>  <SCORE.INTRA.POLAR>
0

>  <SCORE.INTRA.POLAR.0>
0

>  <SCORE.INTRA.REPUL>
0

>  <SCORE.INTRA.REPUL.0>
0

>  <SCORE.INTRA.SOLV>
0

>  <SCORE.INTRA.SOLV.lig_0>
-28.9128

>  <SCORE.INTRA.VDW>
0

>  <SCORE.INTRA.VDW.0>
0

>  <SCORE.INTRA.norm>
0

>  <SCORE.RESTR>
0

>  <SCORE.RESTR.CAVITY>
0

>  <SCORE.RESTR.norm>
0

>  <SCORE.SYSTEM>
0

>  <SCORE.SYSTEM.CONST>
0

>  <SCORE.SYSTEM.DIHEDRAL>
0

>  <SCORE.SYSTEM.SOLV>
0

>  <SCORE.SYSTEM.norm>
0

>  <SCORE.heavy>
12

>  <SCORE.norm>
-1.44377

>  <RMSD>
2.954

$$$$
ligand
 OpenBabel11021811503D
libRbt.so/2013.1/901 2013/11/27
 12 13  0  0  0  0  0  0  0  0999 V2000
   29.5699   16.1067   16.0339 C   0  0  0  0  0  0  0  0  0  0  0  0
   30.9886   17.8185   15.0953 C   0  0  0  0  0  0  0  0  0  0  0  0
   28.8849   14.9753   15.9138 N   0  0  0  0  0  0  0  0  0  0  0  0
   29.5919   16.7285   17.2171 N   0  0  0  0  0  0  0  0  0  0  0  0
   30.2736   16.6367   14.9364 N   0  0  0  0  0  0  0  0  0  0  0  0
   31.6001   18.2836   14.1295 O   0  0  0  0  0  0  0  0  0  0  0  0
   31.6532   20.2323   17.8232 N   0  0  0  0  0  0  0  0  0  0  0  0
   30.9280   19.6386   18.8681 C   0  0  0  0  0  0  0  0  0  0  0  0
   30.2367   18.4356   18.6312 N   0  0  0  0  0  0  0  0  0  0  0  0
   30.2589   17.8741   17.4059 C   0  0  0  0  0  0  0  0  0  0  0  0
   30.9781   18.4423   16.3455 C   0  0  0  0  0  0  0  0  0  0  0  0
   31.6725   19.6265   16.5441 C   0  0  0  0  0  0  0  0  0  0  0  0
  1  3  1  0  0  0  0
  1  4  2  0  0  0  0
  1  5  1  0  0  0  0
  2  6  2  0  0  0  0
  2 11  1  0  0  0  0
  2  5  1  0  0  0  0
  4 10  1  0  0  0  0
  7  8  2  0  0  0  0
  7 12  1  0  0  0  0
  8  9  1  0  0  0  0
  9 10  2  0  0  0  0
 10 11  1  0  0  0  0
 11 12  2  0  0  0  0
M  END
>  <CHROM.1>
30.55261564,17.87811942,16.53743276,2.17320162,-0.94518969,-2.03853702

>  <Name>
ligand

>  <RI>
0

>  <Rbt.Current_Directory>
/home/itssahil/PROJECTS/Mol_Feturizer/New_Systems/rnas/4LX6

>  <Rbt.Executable>
rbdock ($Id: //depot/dev/client3/rdock/2013.1/src/exe/rbdock.cxx#4 $)

>  <Rbt.Library>
libRbt.so (2013.1, Build901 2013/11/27)

>  <Rbt.Parameter_File>
/export/apps/rDock/src/rDock_2013.1_src/data/scripts/dock_solv.prm

>  <Rbt.Receptor>
prm/pocket_docking_8.prm

>  <SCORE>
-17.3156

>  <SCORE.INTER>
-17.3156

>  <SCORE.INTER.CONST>
1

>  <SCORE.INTER.POLAR>
0

>  <SCORE.INTER.ROT>
0

>  <SCORE.INTER.SOLV>
11.029

>  <SCORE.INTER.VDW>
-18.82

>  <SCORE.INTER.norm>
-1.44297

>  <SCORE.INTRA>
0

>  <SCORE.INTRA.DIHEDRAL>
0

>  <SCORE.INTRA.DIHEDRAL.0>
0

>  <SCORE.INTRA.POLAR>
0

>  <SCORE.INTRA.POLAR.0>
0

>  <SCORE.INTRA.REPUL>
0

>  <SCORE.INTRA.REPUL.0>
0

>  <SCORE.INTRA.SOLV>
0

>  <SCORE.INTRA.SOLV.lig_0>
-28.9128

>  <SCORE.INTRA.VDW>
0

>  <SCORE.INTRA.VDW.0>
0

>  <SCORE.INTRA.norm>
0

>  <SCORE.RESTR>
0

>  <SCORE.RESTR.CAVITY>
0

>  <SCORE.RESTR.norm>
0

>  <SCORE.SYSTEM>
0

>  <SCORE.SYSTEM.CONST>
0

>  <SCORE.SYSTEM.DIHEDRAL>
0

>  <SCORE.SYSTEM.SOLV>
0

>  <SCORE.SYSTEM.norm>
0

>  <SCORE.heavy>
12

>  <SCORE.norm>
-1.44297

>  <RMSD>
2.954

$$$$
ligand
 OpenBabel11021811503D
libRbt.so/2013.1/901 2013/11/27
 12 13  0  0  0  0  0  0  0  0999 V2000
   29.5340   16.0700   16.0225 C   0  0  0  0  0  0  0  0  0  0  0  0
   30.9654   17.7586   15.0614 C   0  0  0  0  0  0  0  0  0  0  0  0
   28.8388   14.9435   15.9168 N   0  0  0  0  0  0  0  0  0  0  0  0
   29.5643   16.7049   17.1987 N   0  0  0  0  0  0  0  0  0  0  0  0
   30.2397   16.5815   14.9175 N   0  0  0  0  0  0  0  0  0  0  0  0
   31.5787   18.2073   14.0890 O   0  0  0  0  0  0  0  0  0  0  0  0
   31.6578   20.1971   17.7603 N   0  0  0  0  0  0  0  0  0  0  0  0
   30.9299   19.6216   18.8136 C   0  0  0  0  0  0  0  0  0  0  0  0
   30.2275   18.4222   18.5918 N   0  0  0  0  0  0  0  0  0  0  0  0
   30.2419   17.8466   17.3729 C   0  0  0  0  0  0  0  0  0  0  0  0
   30.9634   18.3965   16.3045 C   0  0  0  0  0  0  0  0  0  0  0  0
   31.6687   19.5767   16.4881 C   0  0  0  0  0  0  0  0  0  0  0  0
  1  3  1  0  0  0  0
  1  4  2  0  0  0  0
  1  5  1  0  0  0  0
  2  6  2  0  0  0  0
  2 11  1  0  0  0  0
  2  5  1  0  0  0  0
  4 10  1  0  0  0  0
  7  8  2  0  0  0  0
  7 12  1  0  0  0  0
  8  9  1  0  0  0  0
  9 10  2  0  0  0  0
 10 11  1  0  0  0  0
 11 12  2  0  0  0  0
M  END
>  <CHROM.1>
30.53346847,17.83830596,16.50378109,2.18355753,-0.93840006,-2.04144924

>  <Name>
ligand

>  <RI>
0

>  <Rbt.Current_Directory>
/home/itssahil/PROJECTS/Mol_Feturizer/New_Systems/rnas/4LX6

>  <Rbt.Executable>
rbdock ($Id: //depot/dev/client3/rdock/2013.1/src/exe/rbdock.cxx#4 $)

>  <Rbt.Library>
libRbt.so (2013.1, Build901 2013/11/27)

>  <Rbt.Parameter_File>
/export/apps/rDock/src/rDock_2013.1_src/data/scripts/dock_solv.prm

>  <Rbt.Receptor>
prm/blind_docking_100.prm

>  <SCORE>
-17.3259

>  <SCORE.INTER>
-17.3259

>  <SCORE.INTER.CONST>
1

>  <SCORE.INTER.POLAR>
0

>  <SCORE.INTER.ROT>
0

>  <SCORE.INTER.SOLV>
10.8935

>  <SCORE.INTER.VDW>
-18.7818

>  <SCORE.INTER.norm>
-1.44383

>  <SCORE.INTRA>
0

>  <SCORE.INTRA.DIHEDRAL>
0

>  <SCORE.INTRA.DIHEDRAL.0>
0

>  <SCORE.INTRA.POLAR>
0

>  <SCORE.INTRA.POLAR.0>
0

>  <SCORE.INTRA.REPUL>
0

>  <SCORE.INTRA.REPUL.0>
0

>  <SCORE.INTRA.SOLV>
0

>  <SCORE.INTRA.SOLV.lig_0>
-28.9128

>  <SCORE.INTRA.VDW>
0

>  <SCORE.INTRA.VDW.0>
0

>  <SCORE.INTRA.norm>
0

>  <SCORE.RESTR>
0

>  <SCORE.RESTR.CAVITY>
0

>  <SCORE.RESTR.norm>
0

>  <SCORE.SYSTEM>
0

>  <SCORE.SYSTEM.CONST>
0

>  <SCORE.SYSTEM.DIHEDRAL>
0

>  <SCORE.SYSTEM.SOLV>
0

>  <SCORE.SYSTEM.norm>
0

>  <SCORE.heavy>
12

>  <SCORE.norm>
-1.44383

>  <RMSD>
2.955

$$$$
ligand
 OpenBabel11021811503D
libRbt.so/2013.1/901 2013/11/27
 12 13  0  0  0  0  0  0  0  0999 V2000
   29.4568   16.1739   16.0019 C   0  0  0  0  0  0  0  0  0  0  0  0
   30.9109   17.8637   15.0778 C   0  0  0  0  0  0  0  0  0  0  0  0
   28.7415   15.0628   15.8699 N   0  0  0  0  0  0  0  0  0  0  0  0
   29.5057   16.7753   17.1948 N   0  0  0  0  0  0  0  0  0  0  0  0
   30.1640   16.7036   14.9065 N   0  0  0  0  0  0  0  0  0  0  0  0
   31.5256   18.3286   14.1139 O   0  0  0  0  0  0  0  0  0  0  0  0
   31.6630   20.2142   17.8380 N   0  0  0  0  0  0  0  0  0  0  0  0
   30.9321   19.6223   18.8801 C   0  0  0  0  0  0  0  0  0  0  0  0
   30.2076   18.4417   18.6302 N   0  0  0  0  0  0  0  0  0  0  0  0
   30.2041   17.9000   17.3958 C   0  0  0  0  0  0  0  0  0  0  0  0
   30.9281   18.4669   16.3379 C   0  0  0  0  0  0  0  0  0  0  0  0
   31.6549   19.6292   16.5491 C   0  0  0  0  0  0  0  0  0  0  0  0
  1  3  1  0  0  0  0
  1  4  2  0  0  0  0
  1  5  1  0  0  0  0
  2  6  2  0  0  0  0
  2 11  1  0  0  0  0
  2  5  1  0  0  0  0
  4 10  1  0  0  0  0
  7  8  2  0  0  0  0
  7 12  1  0  0  0  0
  8  9  1  0  0  0  0
  9 10  2  0  0  0  0
 10 11  1  0  0  0  0
 11 12  2  0  0  0  0
M  END
>  <CHROM.1>
30.48984747,17.91078164,16.52475427,2.20626537,-0.92578380,-1.99555653

>  <Name>
ligand

>  <RI>
0

>  <Rbt.Current_Directory>
/home/itssahil/PROJECTS/Mol_Feturizer/New_Systems/rnas/4LX6

>  <Rbt.Executable>
rbdock ($Id: //depot/dev/client3/rdock/2013.1/src/exe/rbdock.cxx#4 $)

>  <Rbt.Library>
libRbt.so (2013.1, Build901 2013/11/27)

>  <Rbt.Parameter_File>
/export/apps/rDock/src/rDock_2013.1_src/data/scripts/dock_solv.prm

>  <Rbt.Receptor>
prm/blind_docking_100.prm

>  <SCORE>
-17.2693

>  <SCORE.INTER>
-17.2693

>  <SCORE.INTER.CONST>
1

>  <SCORE.INTER.POLAR>
0

>  <SCORE.INTER.ROT>
0

>  <SCORE.INTER.SOLV>
10.3292

>  <SCORE.INTER.VDW>
-18.556

>  <SCORE.INTER.norm>
-1.43911

>  <SCORE.INTRA>
0

>  <SCORE.INTRA.DIHEDRAL>
0

>  <SCORE.INTRA.DIHEDRAL.0>
0

>  <SCORE.INTRA.POLAR>
0

>  <SCORE.INTRA.POLAR.0>
0

>  <SCORE.INTRA.REPUL>
0

>  <SCORE.INTRA.REPUL.0>
0

>  <SCORE.INTRA.SOLV>
0

>  <SCORE.INTRA.SOLV.lig_0>
-28.9128

>  <SCORE.INTRA.VDW>
0

>  <SCORE.INTRA.VDW.0>
0

>  <SCORE.INTRA.norm>
0

>  <SCORE.RESTR>
0

>  <SCORE.RESTR.CAVITY>
0

>  <SCORE.RESTR.norm>
0

>  <SCORE.SYSTEM>
0

>  <SCORE.SYSTEM.CONST>
0

>  <SCORE.SYSTEM.DIHEDRAL>
0

>  <SCORE.SYSTEM.SOLV>
0

>  <SCORE.SYSTEM.norm>
0

>  <SCORE.heavy>
12

>  <SCORE.norm>
-1.43911

>  <RMSD>
2.955

$$$$
ligand
 OpenBabel11021811503D
libRbt.so/2013.1/901 2013/11/27
 12 13  0  0  0  0  0  0  0  0999 V2000
   29.5705   16.1135   16.0347 C   0  0  0  0  0  0  0  0  0  0  0  0
   30.9948   17.8239   15.1021 C   0  0  0  0  0  0  0  0  0  0  0  0
   28.8847   14.9830   15.9117 N   0  0  0  0  0  0  0  0  0  0  0  0
   29.5886   16.7350   17.2182 N   0  0  0  0  0  0  0  0  0  0  0  0
   30.2791   16.6430   14.9402 N   0  0  0  0  0  0  0  0  0  0  0  0
   31.6106   18.2885   14.1388 O   0  0  0  0  0  0  0  0  0  0  0  0
   31.6516   20.2363   17.8332 N   0  0  0  0  0  0  0  0  0  0  0  0
   30.9216   19.6432   18.8751 C   0  0  0  0  0  0  0  0  0  0  0  0
   30.2299   18.4411   18.6352 N   0  0  0  0  0  0  0  0  0  0  0  0
   30.2563   17.8798   17.4099 C   0  0  0  0  0  0  0  0  0  0  0  0
   30.9801   18.4475   16.3524 C   0  0  0  0  0  0  0  0  0  0  0  0
   31.6752   19.6308   16.5540 C   0  0  0  0  0  0  0  0  0  0  0  0
  1  3  1  0  0  0  0
  1  4  2  0  0  0  0
  1  5  1  0  0  0  0
  2  6  2  0  0  0  0
  2 11  1  0  0  0  0
  2  5  1  0  0  0  0
  4 10  1  0  0  0  0
  7  8  2  0  0  0  0
  7 12  1  0  0  0  0
  8  9  1  0  0  0  0
  9 10  2  0  0  0  0
 10 11  1  0  0  0  0
 11 12  2  0  0  0  0
M  END
>  <CHROM.1>
30.55330068,17.88370987,16.54254635,2.16820086,-0.94241068,-2.04234109

>  <Name>
ligand

>  <RI>
0

>  <Rbt.Current_Directory>
/home/itssahil/PROJECTS/Mol_Feturizer/New_Systems/rnas/4LX6

>  <Rbt.Executable>
rbdock ($Id: //depot/dev/client3/rdock/2013.1/src/exe/rbdock.cxx#4 $)

>  <Rbt.Library>
libRbt.so (2013.1, Build901 2013/11/27)

>  <Rbt.Parameter_File>
/export/apps/rDock/src/rDock_2013.1_src/data/scripts/dock_solv.prm

>  <Rbt.Receptor>
prm/blind_docking_100.prm

>  <SCORE>
-17.3136

>  <SCORE.INTER>
-17.3136

>  <SCORE.INTER.CONST>
1

>  <SCORE.INTER.POLAR>
0

>  <SCORE.INTER.ROT>
0

>  <SCORE.INTER.SOLV>
11.022

>  <SCORE.INTER.VDW>
-18.8164

>  <SCORE.INTER.norm>
-1.4428

>  <SCORE.INTRA>
0

>  <SCORE.INTRA.DIHEDRAL>
0

>  <SCORE.INTRA.DIHEDRAL.0>
0

>  <SCORE.INTRA.POLAR>
0

>  <SCORE.INTRA.POLAR.0>
0

>  <SCORE.INTRA.REPUL>
0

>  <SCORE.INTRA.REPUL.0>
0

>  <SCORE.INTRA.SOLV>
0

>  <SCORE.INTRA.SOLV.lig_0>
-28.9128

>  <SCORE.INTRA.VDW>
0

>  <SCORE.INTRA.VDW.0>
0

>  <SCORE.INTRA.norm>
0

>  <SCORE.RESTR>
0

>  <SCORE.RESTR.CAVITY>
0

>  <SCORE.RESTR.norm>
0

>  <SCORE.SYSTEM>
0

>  <SCORE.SYSTEM.CONST>
0

>  <SCORE.SYSTEM.DIHEDRAL>
0

>  <SCORE.SYSTEM.SOLV>
0

>  <SCORE.SYSTEM.norm>
0

>  <SCORE.heavy>
12

>  <SCORE.norm>
-1.4428

>  <RMSD>
2.955

$$$$
ligand
 OpenBabel11021811503D
libRbt.so/2013.1/901 2013/11/27
 12 13  0  0  0  0  0  0  0  0999 V2000
   29.5462   16.0703   16.0259 C   0  0  0  0  0  0  0  0  0  0  0  0
   30.9718   17.7639   15.0651 C   0  0  0  0  0  0  0  0  0  0  0  0
   28.8541   14.9419   15.9198 N   0  0  0  0  0  0  0  0  0  0  0  0
   29.5761   16.7040   17.2027 N   0  0  0  0  0  0  0  0  0  0  0  0
   30.2493   16.5849   14.9207 N   0  0  0  0  0  0  0  0  0  0  0  0
   31.5827   18.2154   14.0925 O   0  0  0  0  0  0  0  0  0  0  0  0
   31.6603   20.2015   17.7658 N   0  0  0  0  0  0  0  0  0  0  0  0
   30.9352   19.6228   18.8193 C   0  0  0  0  0  0  0  0  0  0  0  0
   30.2359   18.4217   18.5970 N   0  0  0  0  0  0  0  0  0  0  0  0
   30.2506   17.8474   17.3774 C   0  0  0  0  0  0  0  0  0  0  0  0
   30.9694   18.4005   16.3088 C   0  0  0  0  0  0  0  0  0  0  0  0
   31.6716   19.5825   16.4929 C   0  0  0  0  0  0  0  0  0  0  0  0
  1  3  1  0  0  0  0
  1  4  2  0  0  0  0
  1  5  1  0  0  0  0
  2  6  2  0  0  0  0
  2 11  1  0  0  0  0
  2  5  1  0  0  0  0
  4 10  1  0  0  0  0
  7  8  2  0  0  0  0
  7 12  1  0  0  0  0
  8  9  1  0  0  0  0
  9 10  2  0  0  0  0
 10 11  1  0  0  0  0
 11 12  2  0  0  0  0
M  END
>  <CHROM.1>
30.54125501,17.84088999,16.50798633,2.18305308,-0.94142221,-2.04078246

>  <Name>
ligand

>  <RI>
0

>  <Rbt.Current_Directory>
/home/itssahil/PROJECTS/Mol_Feturizer/New_Systems/rnas/4LX6

>  <Rbt.Executable>
rbdock ($Id: //depot/dev/client3/rdock/2013.1/src/exe/rbdock.cxx#4 $)

>  <Rbt.Library>
libRbt.so (2013.1, Build901 2013/11/27)

>  <Rbt.Parameter_File>
/export/apps/rDock/src/rDock_2013.1_src/data/scripts/dock_solv.prm

>  <Rbt.Receptor>
prm/blind_docking_60.prm

>  <SCORE>
-17.3233

>  <SCORE.INTER>
-17.3233

>  <SCORE.INTER.CONST>
1

>  <SCORE.INTER.POLAR>
0

>  <SCORE.INTER.ROT>
0

>  <SCORE.INTER.SOLV>
10.9528

>  <SCORE.INTER.VDW>
-18.7998

>  <SCORE.INTER.norm>
-1.44361

>  <SCORE.INTRA>
0

>  <SCORE.INTRA.DIHEDRAL>
0

>  <SCORE.INTRA.DIHEDRAL.0>
0

>  <SCORE.INTRA.POLAR>
0

>  <SCORE.INTRA.POLAR.0>
0

>  <SCORE.INTRA.REPUL>
0

>  <SCORE.INTRA.REPUL.0>
0

>  <SCORE.INTRA.SOLV>
0

>  <SCORE.INTRA.SOLV.lig_0>
-28.9128

>  <SCORE.INTRA.VDW>
0

>  <SCORE.INTRA.VDW.0>
0

>  <SCORE.INTRA.norm>
0

>  <SCORE.RESTR>
0

>  <SCORE.RESTR.CAVITY>
0

>  <SCORE.RESTR.norm>
0

>  <SCORE.SYSTEM>
0

>  <SCORE.SYSTEM.CONST>
0

>  <SCORE.SYSTEM.DIHEDRAL>
0

>  <SCORE.SYSTEM.SOLV>
0

>  <SCORE.SYSTEM.norm>
0

>  <SCORE.heavy>
12

>  <SCORE.norm>
-1.44361

>  <RMSD>
2.955

$$$$
ligand
 OpenBabel11021811503D
libRbt.so/2013.1/901 2013/11/27
 12 13  0  0  0  0  0  0  0  0999 V2000
   29.5393   16.0786   16.0227 C   0  0  0  0  0  0  0  0  0  0  0  0
   30.9868   17.7601   15.0735 C   0  0  0  0  0  0  0  0  0  0  0  0
   28.8384   14.9562   15.9107 N   0  0  0  0  0  0  0  0  0  0  0  0
   29.5652   16.7118   17.1998 N   0  0  0  0  0  0  0  0  0  0  0  0
   30.2554   16.5874   14.9231 N   0  0  0  0  0  0  0  0  0  0  0  0
   31.6093   18.2066   14.1059 O   0  0  0  0  0  0  0  0  0  0  0  0
   31.6748   20.1912   17.7802 N   0  0  0  0  0  0  0  0  0  0  0  0
   30.9365   19.6185   18.8277 C   0  0  0  0  0  0  0  0  0  0  0  0
   30.2288   18.4235   18.5996 N   0  0  0  0  0  0  0  0  0  0  0  0
   30.2481   17.8494   17.3801 C   0  0  0  0  0  0  0  0  0  0  0  0
   30.9800   18.3965   16.3173 C   0  0  0  0  0  0  0  0  0  0  0  0
   31.6909   19.5724   16.5072 C   0  0  0  0  0  0  0  0  0  0  0  0
  1  3  1  0  0  0  0
  1  4  2  0  0  0  0
  1  5  1  0  0  0  0
  2  6  2  0  0  0  0
  2 11  1  0  0  0  0
  2  5  1  0  0  0  0
  4 10  1  0  0  0  0
  7  8  2  0  0  0  0
  7 12  1  0  0  0  0
  8  9  1  0  0  0  0
  9 10  2  0  0  0  0
 10 11  1  0  0  0  0
 11 12  2  0  0  0  0
M  END
>  <CHROM.1>
30.54557619,17.84050131,16.51297125,2.17777822,-0.93020877,-2.04481653

>  <Name>
ligand

>  <RI>
0

>  <Rbt.Current_Directory>
/home/itssahil/PROJECTS/Mol_Feturizer/New_Systems/rnas/4LX6

>  <Rbt.Executable>
rbdock ($Id: //depot/dev/client3/rdock/2013.1/src/exe/rbdock.cxx#4 $)

>  <Rbt.Library>
libRbt.so (2013.1, Build901 2013/11/27)

>  <Rbt.Parameter_File>
/export/apps/rDock/src/rDock_2013.1_src/data/scripts/dock_solv.prm

>  <Rbt.Receptor>
prm/blind_docking_60.prm

>  <SCORE>
-17.3204

>  <SCORE.INTER>
-17.3204

>  <SCORE.INTER.CONST>
1

>  <SCORE.INTER.POLAR>
0

>  <SCORE.INTER.ROT>
0

>  <SCORE.INTER.SOLV>
10.8791

>  <SCORE.INTER.VDW>
-18.7733

>  <SCORE.INTER.norm>
-1.44337

>  <SCORE.INTRA>
0

>  <SCORE.INTRA.DIHEDRAL>
0

>  <SCORE.INTRA.DIHEDRAL.0>
0

>  <SCORE.INTRA.POLAR>
0

>  <SCORE.INTRA.POLAR.0>
0

>  <SCORE.INTRA.REPUL>
0

>  <SCORE.INTRA.REPUL.0>
0

>  <SCORE.INTRA.SOLV>
0

>  <SCORE.INTRA.SOLV.lig_0>
-28.9128

>  <SCORE.INTRA.VDW>
0

>  <SCORE.INTRA.VDW.0>
0

>  <SCORE.INTRA.norm>
0

>  <SCORE.RESTR>
0

>  <SCORE.RESTR.CAVITY>
0

>  <SCORE.RESTR.norm>
0

>  <SCORE.SYSTEM>
0

>  <SCORE.SYSTEM.CONST>
0

>  <SCORE.SYSTEM.DIHEDRAL>
0

>  <SCORE.SYSTEM.SOLV>
0

>  <SCORE.SYSTEM.norm>
0

>  <SCORE.heavy>
12

>  <SCORE.norm>
-1.44337

>  <RMSD>
2.955

$$$$
ligand
 OpenBabel11021811503D
libRbt.so/2013.1/901 2013/11/27
 12 13  0  0  0  0  0  0  0  0999 V2000
   29.5694   16.0970   16.0346 C   0  0  0  0  0  0  0  0  0  0  0  0
   30.9769   17.8177   15.0954 C   0  0  0  0  0  0  0  0  0  0  0  0
   28.8896   14.9626   15.9142 N   0  0  0  0  0  0  0  0  0  0  0  0
   29.5918   16.7165   17.2191 N   0  0  0  0  0  0  0  0  0  0  0  0
   30.2672   16.6328   14.9362 N   0  0  0  0  0  0  0  0  0  0  0  0
   31.5833   18.2878   14.1288 O   0  0  0  0  0  0  0  0  0  0  0  0
   31.6377   20.2292   17.8264 N   0  0  0  0  0  0  0  0  0  0  0  0
   30.9185   19.6297   18.8722 C   0  0  0  0  0  0  0  0  0  0  0  0
   30.2324   18.4239   18.6348 N   0  0  0  0  0  0  0  0  0  0  0  0
   30.2538   17.8649   17.4083 C   0  0  0  0  0  0  0  0  0  0  0  0
   30.9670   18.4389   16.3469 C   0  0  0  0  0  0  0  0  0  0  0  0
   31.6563   19.6261   16.5459 C   0  0  0  0  0  0  0  0  0  0  0  0
  1  3  1  0  0  0  0
  1  4  2  0  0  0  0
  1  5  1  0  0  0  0
  2  6  2  0  0  0  0
  2 11  1  0  0  0  0
  2  5  1  0  0  0  0
  4 10  1  0  0  0  0
  7  8  2  0  0  0  0
  7 12  1  0  0  0  0
  8  9  1  0  0  0  0
  9 10  2  0  0  0  0
 10 11  1  0  0  0  0
 11 12  2  0  0  0  0
M  END
>  <CHROM.1>
30.54491011,17.87224116,16.53896448,2.17394783,-0.95089132,-2.03586551

>  <Name>
ligand

>  <RI>
0

>  <Rbt.Current_Directory>
/home/itssahil/PROJECTS/Mol_Feturizer/New_Systems/rnas/4LX6

>  <Rbt.Executable>
rbdock ($Id: //depot/dev/client3/rdock/2013.1/src/exe/rbdock.cxx#4 $)

>  <Rbt.Library>
libRbt.so (2013.1, Build901 2013/11/27)

>  <Rbt.Parameter_File>
/export/apps/rDock/src/rDock_2013.1_src/data/scripts/dock_solv.prm

>  <Rbt.Receptor>
prm/blind_docking_60.prm

>  <SCORE>
-17.3179

>  <SCORE.INTER>
-17.3179

>  <SCORE.INTER.CONST>
1

>  <SCORE.INTER.POLAR>
0

>  <SCORE.INTER.ROT>
0

>  <SCORE.INTER.SOLV>
11.0559

>  <SCORE.INTER.VDW>
-18.8305

>  <SCORE.INTER.norm>
-1.44316

>  <SCORE.INTRA>
0

>  <SCORE.INTRA.DIHEDRAL>
0

>  <SCORE.INTRA.DIHEDRAL.0>
0

>  <SCORE.INTRA.POLAR>
0

>  <SCORE.INTRA.POLAR.0>
0

>  <SCORE.INTRA.REPUL>
0

>  <SCORE.INTRA.REPUL.0>
0

>  <SCORE.INTRA.SOLV>
0

>  <SCORE.INTRA.SOLV.lig_0>
-28.9128

>  <SCORE.INTRA.VDW>
0

>  <SCORE.INTRA.VDW.0>
0

>  <SCORE.INTRA.norm>
0

>  <SCORE.RESTR>
0

>  <SCORE.RESTR.CAVITY>
0

>  <SCORE.RESTR.norm>
0

>  <SCORE.SYSTEM>
0

>  <SCORE.SYSTEM.CONST>
0

>  <SCORE.SYSTEM.DIHEDRAL>
0

>  <SCORE.SYSTEM.SOLV>
0

>  <SCORE.SYSTEM.norm>
0

>  <SCORE.heavy>
12

>  <SCORE.norm>
-1.44316

>  <RMSD>
2.955

$$$$
ligand
 OpenBabel11021811503D
libRbt.so/2013.1/901 2013/11/27
 12 13  0  0  0  0  0  0  0  0999 V2000
   29.5655   16.0679   16.0309 C   0  0  0  0  0  0  0  0  0  0  0  0
   30.9965   17.7614   15.0779 C   0  0  0  0  0  0  0  0  0  0  0  0
   28.8770   14.9376   15.9220 N   0  0  0  0  0  0  0  0  0  0  0  0
   29.5826   16.7058   17.2057 N   0  0  0  0  0  0  0  0  0  0  0  0
   30.2780   16.5803   14.9307 N   0  0  0  0  0  0  0  0  0  0  0  0
   31.6158   18.2110   14.1097 O   0  0  0  0  0  0  0  0  0  0  0  0
   31.6535   20.2099   17.7767 N   0  0  0  0  0  0  0  0  0  0  0  0
   30.9196   19.6332   18.8251 C   0  0  0  0  0  0  0  0  0  0  0  0
   30.2252   18.4297   18.6002 N   0  0  0  0  0  0  0  0  0  0  0  0
   30.2529   17.8513   17.3829 C   0  0  0  0  0  0  0  0  0  0  0  0
   30.9807   18.4023   16.3193 C   0  0  0  0  0  0  0  0  0  0  0  0
   31.6784   19.5865   16.5061 C   0  0  0  0  0  0  0  0  0  0  0  0
  1  3  1  0  0  0  0
  1  4  2  0  0  0  0
  1  5  1  0  0  0  0
  2  6  2  0  0  0  0
  2 11  1  0  0  0  0
  2  5  1  0  0  0  0
  4 10  1  0  0  0  0
  7  8  2  0  0  0  0
  7 12  1  0  0  0  0
  8  9  1  0  0  0  0
  9 10  2  0  0  0  0
 10 11  1  0  0  0  0
 11 12  2  0  0  0  0
M  END
>  <CHROM.1>
30.55191517,17.84240857,16.51632458,2.16678156,-0.93898414,-2.05740027

>  <Name>
ligand

>  <RI>
0

>  <Rbt.Current_Directory>
/home/itssahil/PROJECTS/Mol_Feturizer/New_Systems/rnas/4LX6

>  <Rbt.Executable>
rbdock ($Id: //depot/dev/client3/rdock/2013.1/src/exe/rbdock.cxx#4 $)

>  <Rbt.Library>
libRbt.so (2013.1, Build901 2013/11/27)

>  <Rbt.Parameter_File>
/export/apps/rDock/src/rDock_2013.1_src/data/scripts/dock_solv.prm

>  <Rbt.Receptor>
prm/pocket_docking_3.prm

>  <SCORE>
-17.3136

>  <SCORE.INTER>
-17.3136

>  <SCORE.INTER.CONST>
1

>  <SCORE.INTER.POLAR>
0

>  <SCORE.INTER.ROT>
0

>  <SCORE.INTER.SOLV>
11.0582

>  <SCORE.INTER.VDW>
-18.8285

>  <SCORE.INTER.norm>
-1.4428

>  <SCORE.INTRA>
0

>  <SCORE.INTRA.DIHEDRAL>
0

>  <SCORE.INTRA.DIHEDRAL.0>
0

>  <SCORE.INTRA.POLAR>
0

>  <SCORE.INTRA.POLAR.0>
0

>  <SCORE.INTRA.REPUL>
0

>  <SCORE.INTRA.REPUL.0>
0

>  <SCORE.INTRA.SOLV>
0

>  <SCORE.INTRA.SOLV.lig_0>
-28.9128

>  <SCORE.INTRA.VDW>
0

>  <SCORE.INTRA.VDW.0>
0

>  <SCORE.INTRA.norm>
0

>  <SCORE.RESTR>
0

>  <SCORE.RESTR.CAVITY>
0

>  <SCORE.RESTR.norm>
0

>  <SCORE.SYSTEM>
0

>  <SCORE.SYSTEM.CONST>
0

>  <SCORE.SYSTEM.DIHEDRAL>
0

>  <SCORE.SYSTEM.SOLV>
0

>  <SCORE.SYSTEM.norm>
0

>  <SCORE.heavy>
12

>  <SCORE.norm>
-1.4428

>  <RMSD>
2.955

$$$$
ligand
 OpenBabel11021811503D
libRbt.so/2013.1/901 2013/11/27
 12 13  0  0  0  0  0  0  0  0999 V2000
   29.5677   16.0727   16.0342 C   0  0  0  0  0  0  0  0  0  0  0  0
   30.9965   17.7669   15.0792 C   0  0  0  0  0  0  0  0  0  0  0  0
   28.8777   14.9433   15.9256 N   0  0  0  0  0  0  0  0  0  0  0  0
   29.5898   16.7082   17.2102 N   0  0  0  0  0  0  0  0  0  0  0  0
   30.2764   16.5867   14.9323 N   0  0  0  0  0  0  0  0  0  0  0  0
   31.6125   18.2178   14.1095 O   0  0  0  0  0  0  0  0  0  0  0  0
   31.6660   20.2092   17.7804 N   0  0  0  0  0  0  0  0  0  0  0  0
   30.9356   19.6311   18.8304 C   0  0  0  0  0  0  0  0  0  0  0  0
   30.2392   18.4287   18.6058 N   0  0  0  0  0  0  0  0  0  0  0  0
   30.2617   17.8528   17.3872 C   0  0  0  0  0  0  0  0  0  0  0  0
   30.9860   18.4053   16.3220 C   0  0  0  0  0  0  0  0  0  0  0  0
   31.6855   19.5884   16.5084 C   0  0  0  0  0  0  0  0  0  0  0  0
  1  3  1  0  0  0  0
  1  4  2  0  0  0  0
  1  5  1  0  0  0  0
  2  6  2  0  0  0  0
  2 11  1  0  0  0  0
  2  5  1  0  0  0  0
  4 10  1  0  0  0  0
  7  8  2  0  0  0  0
  7 12  1  0  0  0  0
  8  9  1  0  0  0  0
  9 10  2  0  0  0  0
 10 11  1  0  0  0  0
 11 12  2  0  0  0  0
M  END
>  <CHROM.1>
30.55746719,17.84533801,16.51945377,2.17321249,-0.93995893,-2.05018065

>  <Name>
ligand

>  <RI>
0

>  <Rbt.Current_Directory>
/home/itssahil/PROJECTS/Mol_Feturizer/New_Systems/rnas/4LX6

>  <Rbt.Executable>
rbdock ($Id: //depot/dev/client3/rdock/2013.1/src/exe/rbdock.cxx#4 $)

>  <Rbt.Library>
libRbt.so (2013.1, Build901 2013/11/27)

>  <Rbt.Parameter_File>
/export/apps/rDock/src/rDock_2013.1_src/data/scripts/dock_solv.prm

>  <Rbt.Receptor>
prm/pocket_docking_3.prm

>  <SCORE>
-17.3178

>  <SCORE.INTER>
-17.3178

>  <SCORE.INTER.CONST>
1

>  <SCORE.INTER.POLAR>
0

>  <SCORE.INTER.ROT>
0

>  <SCORE.INTER.SOLV>
11.049

>  <SCORE.INTER.VDW>
-18.8282

>  <SCORE.INTER.norm>
-1.44315

>  <SCORE.INTRA>
0

>  <SCORE.INTRA.DIHEDRAL>
0

>  <SCORE.INTRA.DIHEDRAL.0>
0

>  <SCORE.INTRA.POLAR>
0

>  <SCORE.INTRA.POLAR.0>
0

>  <SCORE.INTRA.REPUL>
0

>  <SCORE.INTRA.REPUL.0>
0

>  <SCORE.INTRA.SOLV>
0

>  <SCORE.INTRA.SOLV.lig_0>
-28.9128

>  <SCORE.INTRA.VDW>
0

>  <SCORE.INTRA.VDW.0>
0

>  <SCORE.INTRA.norm>
0

>  <SCORE.RESTR>
0

>  <SCORE.RESTR.CAVITY>
0

>  <SCORE.RESTR.norm>
0

>  <SCORE.SYSTEM>
0

>  <SCORE.SYSTEM.CONST>
0

>  <SCORE.SYSTEM.DIHEDRAL>
0

>  <SCORE.SYSTEM.SOLV>
0

>  <SCORE.SYSTEM.norm>
0

>  <SCORE.heavy>
12

>  <SCORE.norm>
-1.44315

>  <RMSD>
2.955

$$$$
ligand
 OpenBabel11021811503D
libRbt.so/2013.1/901 2013/11/27
 12 13  0  0  0  0  0  0  0  0999 V2000
   29.5652   16.0631   16.0307 C   0  0  0  0  0  0  0  0  0  0  0  0
   30.9957   17.7531   15.0709 C   0  0  0  0  0  0  0  0  0  0  0  0
   28.8773   14.9320   15.9265 N   0  0  0  0  0  0  0  0  0  0  0  0
   29.5813   16.7062   17.2027 N   0  0  0  0  0  0  0  0  0  0  0  0
   30.2779   16.5709   14.9286 N   0  0  0  0  0  0  0  0  0  0  0  0
   31.6152   18.1986   14.1010 O   0  0  0  0  0  0  0  0  0  0  0  0
   31.6501   20.2139   17.7590 N   0  0  0  0  0  0  0  0  0  0  0  0
   30.9160   19.6415   18.8096 C   0  0  0  0  0  0  0  0  0  0  0  0
   30.2223   18.4367   18.5898 N   0  0  0  0  0  0  0  0  0  0  0  0
   30.2509   17.8529   17.3751 C   0  0  0  0  0  0  0  0  0  0  0  0
   30.9790   18.3995   16.3094 C   0  0  0  0  0  0  0  0  0  0  0  0
   31.6760   19.5849   16.4912 C   0  0  0  0  0  0  0  0  0  0  0  0
  1  3  1  0  0  0  0
  1  4  2  0  0  0  0
  1  5  1  0  0  0  0
  2  6  2  0  0  0  0
  2 11  1  0  0  0  0
  2  5  1  0  0  0  0
  4 10  1  0  0  0  0
  7  8  2  0  0  0  0
  7 12  1  0  0  0  0
  8  9  1  0  0  0  0
  9 10  2  0  0  0  0
 10 11  1  0  0  0  0
 11 12  2  0  0  0  0
M  END
>  <CHROM.1>
30.55037150,17.84026867,16.50870357,2.16563540,-0.93922380,-2.06279179

>  <Name>
ligand

>  <RI>
0

>  <Rbt.Current_Directory>
/home/itssahil/PROJECTS/Mol_Feturizer/New_Systems/rnas/4LX6

>  <Rbt.Executable>
rbdock ($Id: //depot/dev/client3/rdock/2013.1/src/exe/rbdock.cxx#4 $)

>  <Rbt.Library>
libRbt.so (2013.1, Build901 2013/11/27)

>  <Rbt.Parameter_File>
/export/apps/rDock/src/rDock_2013.1_src/data/scripts/dock_solv.prm

>  <Rbt.Receptor>
prm/pocket_docking_4.prm

>  <SCORE>
-17.3328

>  <SCORE.INTER>
-17.3328

>  <SCORE.INTER.CONST>
1

>  <SCORE.INTER.POLAR>
0

>  <SCORE.INTER.ROT>
0

>  <SCORE.INTER.SOLV>
11.0703

>  <SCORE.INTER.VDW>
-18.8453

>  <SCORE.INTER.norm>
-1.4444

>  <SCORE.INTRA>
0

>  <SCORE.INTRA.DIHEDRAL>
0

>  <SCORE.INTRA.DIHEDRAL.0>
0

>  <SCORE.INTRA.POLAR>
0

>  <SCORE.INTRA.POLAR.0>
0

>  <SCORE.INTRA.REPUL>
0

>  <SCORE.INTRA.REPUL.0>
0

>  <SCORE.INTRA.SOLV>
0

>  <SCORE.INTRA.SOLV.lig_0>
-28.9128

>  <SCORE.INTRA.VDW>
0

>  <SCORE.INTRA.VDW.0>
0

>  <SCORE.INTRA.norm>
0

>  <SCORE.RESTR>
0

>  <SCORE.RESTR.CAVITY>
0

>  <SCORE.RESTR.norm>
0

>  <SCORE.SYSTEM>
0

>  <SCORE.SYSTEM.CONST>
0

>  <SCORE.SYSTEM.DIHEDRAL>
0

>  <SCORE.SYSTEM.SOLV>
0

>  <SCORE.SYSTEM.norm>
0

>  <SCORE.heavy>
12

>  <SCORE.norm>
-1.4444

>  <RMSD>
2.955

$$$$
ligand
 OpenBabel11021811503D
libRbt.so/2013.1/901 2013/11/27
 12 13  0  0  0  0  0  0  0  0999 V2000
   29.4611   16.1725   16.0003 C   0  0  0  0  0  0  0  0  0  0  0  0
   30.9280   17.8551   15.0832 C   0  0  0  0  0  0  0  0  0  0  0  0
   28.7433   15.0633   15.8657 N   0  0  0  0  0  0  0  0  0  0  0  0
   29.5026   16.7770   17.1920 N   0  0  0  0  0  0  0  0  0  0  0  0
   30.1787   16.6969   14.9092 N   0  0  0  0  0  0  0  0  0  0  0  0
   31.5517   18.3154   14.1229 O   0  0  0  0  0  0  0  0  0  0  0  0
   31.6657   20.2107   17.8430 N   0  0  0  0  0  0  0  0  0  0  0  0
   30.9247   19.6240   18.8808 C   0  0  0  0  0  0  0  0  0  0  0  0
   30.1984   18.4451   18.6283 N   0  0  0  0  0  0  0  0  0  0  0  0
   30.2029   17.9000   17.3954 C   0  0  0  0  0  0  0  0  0  0  0  0
   30.9371   18.4617   16.3418 C   0  0  0  0  0  0  0  0  0  0  0  0
   31.6660   19.6223   16.5556 C   0  0  0  0  0  0  0  0  0  0  0  0
  1  3  1  0  0  0  0
  1  4  2  0  0  0  0
  1  5  1  0  0  0  0
  2  6  2  0  0  0  0
  2 11  1  0  0  0  0
  2  5  1  0  0  0  0
  4 10  1  0  0  0  0
  7  8  2  0  0  0  0
  7 12  1  0  0  0  0
  8  9  1  0  0  0  0
  9 10  2  0  0  0  0
 10 11  1  0  0  0  0
 11 12  2  0  0  0  0
M  END
>  <CHROM.1>
30.49560335,17.90749302,16.52665004,2.19656007,-0.91957445,-2.00601094

>  <Name>
ligand

>  <RI>
0

>  <Rbt.Current_Directory>
/home/itssahil/PROJECTS/Mol_Feturizer/New_Systems/rnas/4LX6

>  <Rbt.Executable>
rbdock ($Id: //depot/dev/client3/rdock/2013.1/src/exe/rbdock.cxx#4 $)

>  <Rbt.Library>
libRbt.so (2013.1, Build901 2013/11/27)

>  <Rbt.Parameter_File>
/export/apps/rDock/src/rDock_2013.1_src/data/scripts/dock_solv.prm

>  <Rbt.Receptor>
prm/pocket_docking_4.prm

>  <SCORE>
-17.257

>  <SCORE.INTER>
-17.257

>  <SCORE.INTER.CONST>
1

>  <SCORE.INTER.POLAR>
0

>  <SCORE.INTER.ROT>
0

>  <SCORE.INTER.SOLV>
10.3382

>  <SCORE.INTER.VDW>
-18.5507

>  <SCORE.INTER.norm>
-1.43808

>  <SCORE.INTRA>
0

>  <SCORE.INTRA.DIHEDRAL>
0

>  <SCORE.INTRA.DIHEDRAL.0>
0

>  <SCORE.INTRA.POLAR>
0

>  <SCORE.INTRA.POLAR.0>
0

>  <SCORE.INTRA.REPUL>
0

>  <SCORE.INTRA.REPUL.0>
0

>  <SCORE.INTRA.SOLV>
0

>  <SCORE.INTRA.SOLV.lig_0>
-28.9128

>  <SCORE.INTRA.VDW>
0

>  <SCORE.INTRA.VDW.0>
0

>  <SCORE.INTRA.norm>
0

>  <SCORE.RESTR>
0

>  <SCORE.RESTR.CAVITY>
0

>  <SCORE.RESTR.norm>
0

>  <SCORE.SYSTEM>
0

>  <SCORE.SYSTEM.CONST>
0

>  <SCORE.SYSTEM.DIHEDRAL>
0

>  <SCORE.SYSTEM.SOLV>
0

>  <SCORE.SYSTEM.norm>
0

>  <SCORE.heavy>
12

>  <SCORE.norm>
-1.43808

>  <RMSD>
2.955

$$$$
ligand
 OpenBabel11021811503D
libRbt.so/2013.1/901 2013/11/27
 12 13  0  0  0  0  0  0  0  0999 V2000
   29.5661   16.0668   16.0311 C   0  0  0  0  0  0  0  0  0  0  0  0
   31.0001   17.7561   15.0751 C   0  0  0  0  0  0  0  0  0  0  0  0
   28.8755   14.9376   15.9242 N   0  0  0  0  0  0  0  0  0  0  0  0
   29.5842   16.7068   17.2047 N   0  0  0  0  0  0  0  0  0  0  0  0
   30.2796   16.5759   14.9300 N   0  0  0  0  0  0  0  0  0  0  0  0
   31.6203   18.2027   14.1061 O   0  0  0  0  0  0  0  0  0  0  0  0
   31.6613   20.2083   17.7694 N   0  0  0  0  0  0  0  0  0  0  0  0
   30.9263   19.6349   18.8188 C   0  0  0  0  0  0  0  0  0  0  0  0
   30.2298   18.4322   18.5961 N   0  0  0  0  0  0  0  0  0  0  0  0
   30.2565   17.8515   17.3799 C   0  0  0  0  0  0  0  0  0  0  0  0
   30.9854   18.3993   16.3153 C   0  0  0  0  0  0  0  0  0  0  0  0
   31.6852   19.5826   16.4999 C   0  0  0  0  0  0  0  0  0  0  0  0
  1  3  1  0  0  0  0
  1  4  2  0  0  0  0
  1  5  1  0  0  0  0
  2  6  2  0  0  0  0
  2 11  1  0  0  0  0
  2  5  1  0  0  0  0
  4 10  1  0  0  0  0
  7  8  2  0  0  0  0
  7 12  1  0  0  0  0
  8  9  1  0  0  0  0
  9 10  2  0  0  0  0
 10 11  1  0  0  0  0
 11 12  2  0  0  0  0
M  END
>  <CHROM.1>
30.55557762,17.84048896,16.51333161,2.16809509,-0.93737925,-2.05818625

>  <Name>
ligand

>  <RI>
0

>  <Rbt.Current_Directory>
/home/itssahil/PROJECTS/Mol_Feturizer/New_Systems/rnas/4LX6

>  <Rbt.Executable>
rbdock ($Id: //depot/dev/client3/rdock/2013.1/src/exe/rbdock.cxx#4 $)

>  <Rbt.Library>
libRbt.so (2013.1, Build901 2013/11/27)

>  <Rbt.Parameter_File>
/export/apps/rDock/src/rDock_2013.1_src/data/scripts/dock_solv.prm

>  <Rbt.Receptor>
prm/pocket_docking_4.prm

>  <SCORE>
-17.3369

>  <SCORE.INTER>
-17.3369

>  <SCORE.INTER.CONST>
1

>  <SCORE.INTER.POLAR>
0

>  <SCORE.INTER.ROT>
0

>  <SCORE.INTER.SOLV>
11.0548

>  <SCORE.INTER.VDW>
-18.8429

>  <SCORE.INTER.norm>
-1.44474

>  <SCORE.INTRA>
0

>  <SCORE.INTRA.DIHEDRAL>
0

>  <SCORE.INTRA.DIHEDRAL.0>
0

>  <SCORE.INTRA.POLAR>
0

>  <SCORE.INTRA.POLAR.0>
0

>  <SCORE.INTRA.REPUL>
0

>  <SCORE.INTRA.REPUL.0>
0

>  <SCORE.INTRA.SOLV>
0

>  <SCORE.INTRA.SOLV.lig_0>
-28.9128

>  <SCORE.INTRA.VDW>
0

>  <SCORE.INTRA.VDW.0>
0

>  <SCORE.INTRA.norm>
0

>  <SCORE.RESTR>
0

>  <SCORE.RESTR.CAVITY>
0

>  <SCORE.RESTR.norm>
0

>  <SCORE.SYSTEM>
0

>  <SCORE.SYSTEM.CONST>
0

>  <SCORE.SYSTEM.DIHEDRAL>
0

>  <SCORE.SYSTEM.SOLV>
0

>  <SCORE.SYSTEM.norm>
0

>  <SCORE.heavy>
12

>  <SCORE.norm>
-1.44474

>  <RMSD>
2.955

$$$$
ligand
 OpenBabel11021811503D
libRbt.so/2013.1/901 2013/11/27
 12 13  0  0  0  0  0  0  0  0999 V2000
   29.5668   16.0701   16.0308 C   0  0  0  0  0  0  0  0  0  0  0  0
   30.9989   17.7650   15.0822 C   0  0  0  0  0  0  0  0  0  0  0  0
   28.8770   14.9408   15.9189 N   0  0  0  0  0  0  0  0  0  0  0  0
   29.5853   16.7043   17.2076 N   0  0  0  0  0  0  0  0  0  0  0  0
   30.2791   16.5851   14.9318 N   0  0  0  0  0  0  0  0  0  0  0  0
   31.6181   18.2169   14.1150 O   0  0  0  0  0  0  0  0  0  0  0  0
   31.6602   20.2044   17.7881 N   0  0  0  0  0  0  0  0  0  0  0  0
   30.9263   19.6252   18.8352 C   0  0  0  0  0  0  0  0  0  0  0  0
   30.2305   18.4232   18.6071 N   0  0  0  0  0  0  0  0  0  0  0  0
   30.2568   17.8486   17.3880 C   0  0  0  0  0  0  0  0  0  0  0  0
   30.9846   18.4021   16.3256 C   0  0  0  0  0  0  0  0  0  0  0  0
   31.6837   19.5850   16.5156 C   0  0  0  0  0  0  0  0  0  0  0  0
  1  3  1  0  0  0  0
  1  4  2  0  0  0  0
  1  5  1  0  0  0  0
  2  6  2  0  0  0  0
  2 11  1  0  0  0  0
  2  5  1  0  0  0  0
  4 10  1  0  0  0  0
  7  8  2  0  0  0  0
  7 12  1  0  0  0  0
  8  9  1  0  0  0  0
  9 10  2  0  0  0  0
 10 11  1  0  0  0  0
 11 12  2  0  0  0  0
M  END
>  <CHROM.1>
30.55530707,17.84202422,16.52115470,2.16855968,-0.93835066,-2.05285859

>  <Name>
ligand

>  <RI>
0

>  <Rbt.Current_Directory>
/home/itssahil/PROJECTS/Mol_Feturizer/New_Systems/rnas/4LX6

>  <Rbt.Executable>
rbdock ($Id: //depot/dev/client3/rdock/2013.1/src/exe/rbdock.cxx#4 $)

>  <Rbt.Library>
libRbt.so (2013.1, Build901 2013/11/27)

>  <Rbt.Parameter_File>
/export/apps/rDock/src/rDock_2013.1_src/data/scripts/dock_solv.prm

>  <Rbt.Receptor>
prm/pocket_docking_4.prm

>  <SCORE>
-17.3156

>  <SCORE.INTER>
-17.3156

>  <SCORE.INTER.CONST>
1

>  <SCORE.INTER.POLAR>
0

>  <SCORE.INTER.ROT>
0

>  <SCORE.INTER.SOLV>
11.0513

>  <SCORE.INTER.VDW>
-18.8275

>  <SCORE.INTER.norm>
-1.44296

>  <SCORE.INTRA>
0

>  <SCORE.INTRA.DIHEDRAL>
0

>  <SCORE.INTRA.DIHEDRAL.0>
0

>  <SCORE.INTRA.POLAR>
0

>  <SCORE.INTRA.POLAR.0>
0

>  <SCORE.INTRA.REPUL>
0

>  <SCORE.INTRA.REPUL.0>
0

>  <SCORE.INTRA.SOLV>
0

>  <SCORE.INTRA.SOLV.lig_0>
-28.9128

>  <SCORE.INTRA.VDW>
0

>  <SCORE.INTRA.VDW.0>
0

>  <SCORE.INTRA.norm>
0

>  <SCORE.RESTR>
0

>  <SCORE.RESTR.CAVITY>
0

>  <SCORE.RESTR.norm>
0

>  <SCORE.SYSTEM>
0

>  <SCORE.SYSTEM.CONST>
0

>  <SCORE.SYSTEM.DIHEDRAL>
0

>  <SCORE.SYSTEM.SOLV>
0

>  <SCORE.SYSTEM.norm>
0

>  <SCORE.heavy>
12

>  <SCORE.norm>
-1.44296

>  <RMSD>
2.955

$$$$
ligand
 OpenBabel11021811503D
libRbt.so/2013.1/901 2013/11/27
 12 13  0  0  0  0  0  0  0  0999 V2000
   29.4567   16.1806   16.0009 C   0  0  0  0  0  0  0  0  0  0  0  0
   30.9123   17.8721   15.0822 C   0  0  0  0  0  0  0  0  0  0  0  0
   28.7401   15.0708   15.8654 N   0  0  0  0  0  0  0  0  0  0  0  0
   29.5069   16.7777   17.1960 N   0  0  0  0  0  0  0  0  0  0  0  0
   30.1639   16.7135   14.9071 N   0  0  0  0  0  0  0  0  0  0  0  0
   31.5269   18.3398   14.1197 O   0  0  0  0  0  0  0  0  0  0  0  0
   31.6684   20.2118   17.8506 N   0  0  0  0  0  0  0  0  0  0  0  0
   30.9374   19.6169   18.8908 C   0  0  0  0  0  0  0  0  0  0  0  0
   30.2115   18.4381   18.6371 N   0  0  0  0  0  0  0  0  0  0  0  0
   30.2067   17.9008   17.4007 C   0  0  0  0  0  0  0  0  0  0  0  0
   30.9308   18.4707   16.3445 C   0  0  0  0  0  0  0  0  0  0  0  0
   31.6590   19.6315   16.5595 C   0  0  0  0  0  0  0  0  0  0  0  0
  1  3  1  0  0  0  0
  1  4  2  0  0  0  0
  1  5  1  0  0  0  0
  2  6  2  0  0  0  0
  2 11  1  0  0  0  0
  2  5  1  0  0  0  0
  4 10  1  0  0  0  0
  7  8  2  0  0  0  0
  7 12  1  0  0  0  0
  8  9  1  0  0  0  0
  9 10  2  0  0  0  0
 10 11  1  0  0  0  0
 11 12  2  0  0  0  0
M  END
>  <CHROM.1>
30.49198883,17.91444106,16.52956574,2.20783121,-0.92497353,-1.99068247

>  <Name>
ligand

>  <RI>
0

>  <Rbt.Current_Directory>
/home/itssahil/PROJECTS/Mol_Feturizer/New_Systems/rnas/4LX6

>  <Rbt.Executable>
rbdock ($Id: //depot/dev/client3/rdock/2013.1/src/exe/rbdock.cxx#4 $)

>  <Rbt.Library>
libRbt.so (2013.1, Build901 2013/11/27)

>  <Rbt.Parameter_File>
/export/apps/rDock/src/rDock_2013.1_src/data/scripts/dock_solv.prm

>  <Rbt.Receptor>
prm/pocket_docking_5.prm

>  <SCORE>
-17.2697

>  <SCORE.INTER>
-17.2697

>  <SCORE.INTER.CONST>
1

>  <SCORE.INTER.POLAR>
0

>  <SCORE.INTER.ROT>
0

>  <SCORE.INTER.SOLV>
10.3142

>  <SCORE.INTER.VDW>
-18.5512

>  <SCORE.INTER.norm>
-1.43914

>  <SCORE.INTRA>
0

>  <SCORE.INTRA.DIHEDRAL>
0

>  <SCORE.INTRA.DIHEDRAL.0>
0

>  <SCORE.INTRA.POLAR>
0

>  <SCORE.INTRA.POLAR.0>
0

>  <SCORE.INTRA.REPUL>
0

>  <SCORE.INTRA.REPUL.0>
0

>  <SCORE.INTRA.SOLV>
0

>  <SCORE.INTRA.SOLV.lig_0>
-28.9128

>  <SCORE.INTRA.VDW>
0

>  <SCORE.INTRA.VDW.0>
0

>  <SCORE.INTRA.norm>
0

>  <SCORE.RESTR>
0

>  <SCORE.RESTR.CAVITY>
0

>  <SCORE.RESTR.norm>
0

>  <SCORE.SYSTEM>
0

>  <SCORE.SYSTEM.CONST>
0

>  <SCORE.SYSTEM.DIHEDRAL>
0

>  <SCORE.SYSTEM.SOLV>
0

>  <SCORE.SYSTEM.norm>
0

>  <SCORE.heavy>
12

>  <SCORE.norm>
-1.43914

>  <RMSD>
2.955

$$$$
ligand
 OpenBabel11021811503D
libRbt.so/2013.1/901 2013/11/27
 12 13  0  0  0  0  0  0  0  0999 V2000
   29.5676   16.0897   16.0322 C   0  0  0  0  0  0  0  0  0  0  0  0
   31.0201   17.7741   15.0956 C   0  0  0  0  0  0  0  0  0  0  0  0
   28.8683   14.9671   15.9136 N   0  0  0  0  0  0  0  0  0  0  0  0
   29.5855   16.7207   17.2107 N   0  0  0  0  0  0  0  0  0  0  0  0
   30.2905   16.6011   14.9383 N   0  0  0  0  0  0  0  0  0  0  0  0
   31.6485   18.2228   14.1329 O   0  0  0  0  0  0  0  0  0  0  0  0
   31.6887   20.2005   17.8114 N   0  0  0  0  0  0  0  0  0  0  0  0
   30.9440   19.6253   18.8530 C   0  0  0  0  0  0  0  0  0  0  0  0
   30.2387   18.4302   18.6181 N   0  0  0  0  0  0  0  0  0  0  0  0
   30.2664   17.8585   17.3976 C   0  0  0  0  0  0  0  0  0  0  0  0
   31.0048   18.4081   16.3406 C   0  0  0  0  0  0  0  0  0  0  0  0
   31.7135   19.5841   16.5374 C   0  0  0  0  0  0  0  0  0  0  0  0
  1  3  1  0  0  0  0
  1  4  2  0  0  0  0
  1  5  1  0  0  0  0
  2  6  2  0  0  0  0
  2 11  1  0  0  0  0
  2  5  1  0  0  0  0
  4 10  1  0  0  0  0
  7  8  2  0  0  0  0
  7 12  1  0  0  0  0
  8  9  1  0  0  0  0
  9 10  2  0  0  0  0
 10 11  1  0  0  0  0
 11 12  2  0  0  0  0
M  END
>  <CHROM.1>
30.56945157,17.85143818,16.53238713,2.16756766,-0.92787176,-2.05109466

>  <Name>
ligand

>  <RI>
0

>  <Rbt.Current_Directory>
/home/itssahil/PROJECTS/Mol_Feturizer/New_Systems/rnas/4LX6

>  <Rbt.Executable>
rbdock ($Id: //depot/dev/client3/rdock/2013.1/src/exe/rbdock.cxx#4 $)

>  <Rbt.Library>
libRbt.so (2013.1, Build901 2013/11/27)

>  <Rbt.Parameter_File>
/export/apps/rDock/src/rDock_2013.1_src/data/scripts/dock_solv.prm

>  <Rbt.Receptor>
prm/pocket_docking_5.prm

>  <SCORE>
-17.3116

>  <SCORE.INTER>
-17.3116

>  <SCORE.INTER.CONST>
1

>  <SCORE.INTER.POLAR>
0

>  <SCORE.INTER.ROT>
0

>  <SCORE.INTER.SOLV>
10.9893

>  <SCORE.INTER.VDW>
-18.8042

>  <SCORE.INTER.norm>
-1.44263

>  <SCORE.INTRA>
0

>  <SCORE.INTRA.DIHEDRAL>
0

>  <SCORE.INTRA.DIHEDRAL.0>
0

>  <SCORE.INTRA.POLAR>
0

>  <SCORE.INTRA.POLAR.0>
0

>  <SCORE.INTRA.REPUL>
0

>  <SCORE.INTRA.REPUL.0>
0

>  <SCORE.INTRA.SOLV>
0

>  <SCORE.INTRA.SOLV.lig_0>
-28.9128

>  <SCORE.INTRA.VDW>
0

>  <SCORE.INTRA.VDW.0>
0

>  <SCORE.INTRA.norm>
0

>  <SCORE.RESTR>
0

>  <SCORE.RESTR.CAVITY>
0

>  <SCORE.RESTR.norm>
0

>  <SCORE.SYSTEM>
0

>  <SCORE.SYSTEM.CONST>
0

>  <SCORE.SYSTEM.DIHEDRAL>
0

>  <SCORE.SYSTEM.SOLV>
0

>  <SCORE.SYSTEM.norm>
0

>  <SCORE.heavy>
12

>  <SCORE.norm>
-1.44263

>  <RMSD>
2.955

$$$$
ligand
 OpenBabel11021811503D
libRbt.so/2013.1/901 2013/11/27
 12 13  0  0  0  0  0  0  0  0999 V2000
   29.5334   16.0691   16.0181 C   0  0  0  0  0  0  0  0  0  0  0  0
   30.9726   17.7557   15.0652 C   0  0  0  0  0  0  0  0  0  0  0  0
   28.8389   14.9425   15.9089 N   0  0  0  0  0  0  0  0  0  0  0  0
   29.5547   16.7061   17.1932 N   0  0  0  0  0  0  0  0  0  0  0  0
   30.2478   16.5785   14.9177 N   0  0  0  0  0  0  0  0  0  0  0  0
   31.5935   18.2027   14.0968 O   0  0  0  0  0  0  0  0  0  0  0  0
   31.6443   20.1989   17.7651 N   0  0  0  0  0  0  0  0  0  0  0  0
   30.9081   19.6254   18.8136 C   0  0  0  0  0  0  0  0  0  0  0  0
   30.2073   18.4257   18.5885 N   0  0  0  0  0  0  0  0  0  0  0  0
   30.2311   17.8480   17.3708 C   0  0  0  0  0  0  0  0  0  0  0  0
   30.9610   18.3959   16.3070 C   0  0  0  0  0  0  0  0  0  0  0  0
   31.6651   19.5763   16.4941 C   0  0  0  0  0  0  0  0  0  0  0  0
  1  3  1  0  0  0  0
  1  4  2  0  0  0  0
  1  5  1  0  0  0  0
  2  6  2  0  0  0  0
  2 11  1  0  0  0  0
  2  5  1  0  0  0  0
  4 10  1  0  0  0  0
  7  8  2  0  0  0  0
  7 12  1  0  0  0  0
  8  9  1  0  0  0  0
  9 10  2  0  0  0  0
 10 11  1  0  0  0  0
 11 12  2  0  0  0  0
M  END
>  <CHROM.1>
30.52943402,17.83808971,16.50396509,2.17197410,-0.93467345,-2.05254539

>  <Name>
ligand

>  <RI>
0

>  <Rbt.Current_Directory>
/home/itssahil/PROJECTS/Mol_Feturizer/New_Systems/rnas/4LX6

>  <Rbt.Executable>
rbdock ($Id: //depot/dev/client3/rdock/2013.1/src/exe/rbdock.cxx#4 $)

>  <Rbt.Library>
libRbt.so (2013.1, Build901 2013/11/27)

>  <Rbt.Parameter_File>
/export/apps/rDock/src/rDock_2013.1_src/data/scripts/dock_solv.prm

>  <Rbt.Receptor>
prm/pocket_docking_6.prm

>  <SCORE>
-17.3171

>  <SCORE.INTER>
-17.3171

>  <SCORE.INTER.CONST>
1

>  <SCORE.INTER.POLAR>
0

>  <SCORE.INTER.ROT>
0

>  <SCORE.INTER.SOLV>
10.8999

>  <SCORE.INTER.VDW>
-18.778

>  <SCORE.INTER.norm>
-1.44309

>  <SCORE.INTRA>
0

>  <SCORE.INTRA.DIHEDRAL>
0

>  <SCORE.INTRA.DIHEDRAL.0>
0

>  <SCORE.INTRA.POLAR>
0

>  <SCORE.INTRA.POLAR.0>
0

>  <SCORE.INTRA.REPUL>
0

>  <SCORE.INTRA.REPUL.0>
0

>  <SCORE.INTRA.SOLV>
0

>  <SCORE.INTRA.SOLV.lig_0>
-28.9128

>  <SCORE.INTRA.VDW>
0

>  <SCORE.INTRA.VDW.0>
0

>  <SCORE.INTRA.norm>
0

>  <SCORE.RESTR>
0

>  <SCORE.RESTR.CAVITY>
0

>  <SCORE.RESTR.norm>
0

>  <SCORE.SYSTEM>
0

>  <SCORE.SYSTEM.CONST>
0

>  <SCORE.SYSTEM.DIHEDRAL>
0

>  <SCORE.SYSTEM.SOLV>
0

>  <SCORE.SYSTEM.norm>
0

>  <SCORE.heavy>
12

>  <SCORE.norm>
-1.44309

>  <RMSD>
2.955

$$$$
ligand
 OpenBabel11021811503D
libRbt.so/2013.1/901 2013/11/27
 12 13  0  0  0  0  0  0  0  0999 V2000
   29.5335   16.0746   16.0182 C   0  0  0  0  0  0  0  0  0  0  0  0
   30.9781   17.7589   15.0694 C   0  0  0  0  0  0  0  0  0  0  0  0
   28.8357   14.9503   15.9064 N   0  0  0  0  0  0  0  0  0  0  0  0
   29.5561   16.7091   17.1947 N   0  0  0  0  0  0  0  0  0  0  0  0
   30.2499   16.5841   14.9192 N   0  0  0  0  0  0  0  0  0  0  0  0
   31.6009   18.2059   14.1023 O   0  0  0  0  0  0  0  0  0  0  0  0
   31.6557   20.1945   17.7746 N   0  0  0  0  0  0  0  0  0  0  0  0
   30.9174   19.6211   18.8216 C   0  0  0  0  0  0  0  0  0  0  0  0
   30.2131   18.4240   18.5937 N   0  0  0  0  0  0  0  0  0  0  0  0
   30.2357   17.8487   17.3748 C   0  0  0  0  0  0  0  0  0  0  0  0
   30.9678   18.3965   16.3126 C   0  0  0  0  0  0  0  0  0  0  0  0
   31.6753   19.5744   16.5023 C   0  0  0  0  0  0  0  0  0  0  0  0
  1  3  1  0  0  0  0
  1  4  2  0  0  0  0
  1  5  1  0  0  0  0
  2  6  2  0  0  0  0
  2 11  1  0  0  0  0
  2  5  1  0  0  0  0
  4 10  1  0  0  0  0
  7  8  2  0  0  0  0
  7 12  1  0  0  0  0
  8  9  1  0  0  0  0
  9 10  2  0  0  0  0
 10 11  1  0  0  0  0
 11 12  2  0  0  0  0
M  END
>  <CHROM.1>
30.53450682,17.83962930,16.50815640,2.17353852,-0.93181373,-2.04926076

>  <Name>
ligand

>  <RI>
0

>  <Rbt.Current_Directory>
/home/itssahil/PROJECTS/Mol_Feturizer/New_Systems/rnas/4LX6

>  <Rbt.Executable>
rbdock ($Id: //depot/dev/client3/rdock/2013.1/src/exe/rbdock.cxx#4 $)

>  <Rbt.Library>
libRbt.so (2013.1, Build901 2013/11/27)

>  <Rbt.Parameter_File>
/export/apps/rDock/src/rDock_2013.1_src/data/scripts/dock_solv.prm

>  <Rbt.Receptor>
prm/pocket_docking_6.prm

>  <SCORE>
-17.3216

>  <SCORE.INTER>
-17.3216

>  <SCORE.INTER.CONST>
1

>  <SCORE.INTER.POLAR>
0

>  <SCORE.INTER.ROT>
0

>  <SCORE.INTER.SOLV>
10.8775

>  <SCORE.INTER.VDW>
-18.7736

>  <SCORE.INTER.norm>
-1.44347

>  <SCORE.INTRA>
0

>  <SCORE.INTRA.DIHEDRAL>
0

>  <SCORE.INTRA.DIHEDRAL.0>
0

>  <SCORE.INTRA.POLAR>
0

>  <SCORE.INTRA.POLAR.0>
0

>  <SCORE.INTRA.REPUL>
0

>  <SCORE.INTRA.REPUL.0>
0

>  <SCORE.INTRA.SOLV>
0

>  <SCORE.INTRA.SOLV.lig_0>
-28.9128

>  <SCORE.INTRA.VDW>
0

>  <SCORE.INTRA.VDW.0>
0

>  <SCORE.INTRA.norm>
0

>  <SCORE.RESTR>
0

>  <SCORE.RESTR.CAVITY>
0

>  <SCORE.RESTR.norm>
0

>  <SCORE.SYSTEM>
0

>  <SCORE.SYSTEM.CONST>
0

>  <SCORE.SYSTEM.DIHEDRAL>
0

>  <SCORE.SYSTEM.SOLV>
0

>  <SCORE.SYSTEM.norm>
0

>  <SCORE.heavy>
12

>  <SCORE.norm>
-1.44347

>  <RMSD>
2.955

$$$$
ligand
 OpenBabel11021811503D
libRbt.so/2013.1/901 2013/11/27
 12 13  0  0  0  0  0  0  0  0999 V2000
   29.5649   16.0832   16.0264 C   0  0  0  0  0  0  0  0  0  0  0  0
   31.0153   17.7702   15.0913 C   0  0  0  0  0  0  0  0  0  0  0  0
   28.8683   14.9589   15.9073 N   0  0  0  0  0  0  0  0  0  0  0  0
   29.5792   16.7151   17.2044 N   0  0  0  0  0  0  0  0  0  0  0  0
   30.2886   16.5954   14.9335 N   0  0  0  0  0  0  0  0  0  0  0  0
   31.6445   18.2196   14.1294 O   0  0  0  0  0  0  0  0  0  0  0  0
   31.6735   20.2000   17.8065 N   0  0  0  0  0  0  0  0  0  0  0  0
   30.9282   19.6239   18.8472 C   0  0  0  0  0  0  0  0  0  0  0  0
   30.2259   18.4270   18.6118 N   0  0  0  0  0  0  0  0  0  0  0  0
   30.2571   17.8545   17.3918 C   0  0  0  0  0  0  0  0  0  0  0  0
   30.9963   18.4050   16.3358 C   0  0  0  0  0  0  0  0  0  0  0  0
   31.7020   19.5828   16.5330 C   0  0  0  0  0  0  0  0  0  0  0  0
  1  3  1  0  0  0  0
  1  4  2  0  0  0  0
  1  5  1  0  0  0  0
  2  6  2  0  0  0  0
  2 11  1  0  0  0  0
  2  5  1  0  0  0  0
  4 10  1  0  0  0  0
  7  8  2  0  0  0  0
  7 12  1  0  0  0  0
  8  9  1  0  0  0  0
  9 10  2  0  0  0  0
 10 11  1  0  0  0  0
 11 12  2  0  0  0  0
M  END
>  <CHROM.1>
30.56185113,17.84751014,16.52715214,2.16309836,-0.92898561,-2.05538965

>  <Name>
ligand

>  <RI>
0

>  <Rbt.Current_Directory>
/home/itssahil/PROJECTS/Mol_Feturizer/New_Systems/rnas/4LX6

>  <Rbt.Executable>
rbdock ($Id: //depot/dev/client3/rdock/2013.1/src/exe/rbdock.cxx#4 $)

>  <Rbt.Library>
libRbt.so (2013.1, Build901 2013/11/27)

>  <Rbt.Parameter_File>
/export/apps/rDock/src/rDock_2013.1_src/data/scripts/dock_solv.prm

>  <Rbt.Receptor>
prm/pocket_docking_7.prm

>  <SCORE>
-17.3131

>  <SCORE.INTER>
-17.3131

>  <SCORE.INTER.CONST>
1

>  <SCORE.INTER.POLAR>
0

>  <SCORE.INTER.ROT>
0

>  <SCORE.INTER.SOLV>
11.003

>  <SCORE.INTER.VDW>
-18.8098

>  <SCORE.INTER.norm>
-1.44276

>  <SCORE.INTRA>
0

>  <SCORE.INTRA.DIHEDRAL>
0

>  <SCORE.INTRA.DIHEDRAL.0>
0

>  <SCORE.INTRA.POLAR>
0

>  <SCORE.INTRA.POLAR.0>
0

>  <SCORE.INTRA.REPUL>
0

>  <SCORE.INTRA.REPUL.0>
0

>  <SCORE.INTRA.SOLV>
0

>  <SCORE.INTRA.SOLV.lig_0>
-28.9128

>  <SCORE.INTRA.VDW>
0

>  <SCORE.INTRA.VDW.0>
0

>  <SCORE.INTRA.norm>
0

>  <SCORE.RESTR>
0

>  <SCORE.RESTR.CAVITY>
0

>  <SCORE.RESTR.norm>
0

>  <SCORE.SYSTEM>
0

>  <SCORE.SYSTEM.CONST>
0

>  <SCORE.SYSTEM.DIHEDRAL>
0

>  <SCORE.SYSTEM.SOLV>
0

>  <SCORE.SYSTEM.norm>
0

>  <SCORE.heavy>
12

>  <SCORE.norm>
-1.44276

>  <RMSD>
2.955

$$$$
ligand
 OpenBabel11021811503D
libRbt.so/2013.1/901 2013/11/27
 12 13  0  0  0  0  0  0  0  0999 V2000
   29.5328   16.0696   16.0197 C   0  0  0  0  0  0  0  0  0  0  0  0
   30.9681   17.7579   15.0639 C   0  0  0  0  0  0  0  0  0  0  0  0
   28.8380   14.9431   15.9115 N   0  0  0  0  0  0  0  0  0  0  0  0
   29.5585   16.7047   17.1958 N   0  0  0  0  0  0  0  0  0  0  0  0
   30.2430   16.5808   14.9174 N   0  0  0  0  0  0  0  0  0  0  0  0
   31.5853   18.2064   14.0939 O   0  0  0  0  0  0  0  0  0  0  0  0
   31.6498   20.1970   17.7650 N   0  0  0  0  0  0  0  0  0  0  0  0
   30.9177   19.6217   18.8155 C   0  0  0  0  0  0  0  0  0  0  0  0
   30.2162   18.4223   18.5912 N   0  0  0  0  0  0  0  0  0  0  0  0
   30.2354   17.8465   17.3725 C   0  0  0  0  0  0  0  0  0  0  0  0
   30.9612   18.3961   16.3068 C   0  0  0  0  0  0  0  0  0  0  0  0
   31.6658   19.5763   16.4930 C   0  0  0  0  0  0  0  0  0  0  0  0
  1  3  1  0  0  0  0
  1  4  2  0  0  0  0
  1  5  1  0  0  0  0
  2  6  2  0  0  0  0
  2 11  1  0  0  0  0
  2  5  1  0  0  0  0
  4 10  1  0  0  0  0
  7  8  2  0  0  0  0
  7 12  1  0  0  0  0
  8  9  1  0  0  0  0
  9 10  2  0  0  0  0
 10 11  1  0  0  0  0
 11 12  2  0  0  0  0
M  END
>  <CHROM.1>
30.53045938,17.83796043,16.50455314,2.17758235,-0.93655519,-2.04649400

>  <Name>
ligand

>  <RI>
0

>  <Rbt.Current_Directory>
/home/itssahil/PROJECTS/Mol_Feturizer/New_Systems/rnas/4LX6

>  <Rbt.Executable>
rbdock ($Id: //depot/dev/client3/rdock/2013.1/src/exe/rbdock.cxx#4 $)

>  <Rbt.Library>
libRbt.so (2013.1, Build901 2013/11/27)

>  <Rbt.Parameter_File>
/export/apps/rDock/src/rDock_2013.1_src/data/scripts/dock_solv.prm

>  <Rbt.Receptor>
prm/pocket_docking_7.prm

>  <SCORE>
-17.3245

>  <SCORE.INTER>
-17.3245

>  <SCORE.INTER.CONST>
1

>  <SCORE.INTER.POLAR>
0

>  <SCORE.INTER.ROT>
0

>  <SCORE.INTER.SOLV>
10.8912

>  <SCORE.INTER.VDW>
-18.7801

>  <SCORE.INTER.norm>
-1.44371

>  <SCORE.INTRA>
0

>  <SCORE.INTRA.DIHEDRAL>
0

>  <SCORE.INTRA.DIHEDRAL.0>
0

>  <SCORE.INTRA.POLAR>
0

>  <SCORE.INTRA.POLAR.0>
0

>  <SCORE.INTRA.REPUL>
0

>  <SCORE.INTRA.REPUL.0>
0

>  <SCORE.INTRA.SOLV>
0

>  <SCORE.INTRA.SOLV.lig_0>
-28.9128

>  <SCORE.INTRA.VDW>
0

>  <SCORE.INTRA.VDW.0>
0

>  <SCORE.INTRA.norm>
0

>  <SCORE.RESTR>
0

>  <SCORE.RESTR.CAVITY>
0

>  <SCORE.RESTR.norm>
0

>  <SCORE.SYSTEM>
0

>  <SCORE.SYSTEM.CONST>
0

>  <SCORE.SYSTEM.DIHEDRAL>
0

>  <SCORE.SYSTEM.SOLV>
0

>  <SCORE.SYSTEM.norm>
0

>  <SCORE.heavy>
12

>  <SCORE.norm>
-1.44371

>  <RMSD>
2.955

$$$$
ligand
 OpenBabel11021811503D
libRbt.so/2013.1/901 2013/11/27
 12 13  0  0  0  0  0  0  0  0999 V2000
   29.5362   16.0755   16.0202 C   0  0  0  0  0  0  0  0  0  0  0  0
   30.9702   17.7645   15.0637 C   0  0  0  0  0  0  0  0  0  0  0  0
   28.8394   14.9503   15.9115 N   0  0  0  0  0  0  0  0  0  0  0  0
   29.5672   16.7074   17.1980 N   0  0  0  0  0  0  0  0  0  0  0  0
   30.2428   16.5888   14.9167 N   0  0  0  0  0  0  0  0  0  0  0  0
   31.5843   18.2149   14.0926 O   0  0  0  0  0  0  0  0  0  0  0  0
   31.6656   20.1951   17.7690 N   0  0  0  0  0  0  0  0  0  0  0  0
   30.9367   19.6179   18.8206 C   0  0  0  0  0  0  0  0  0  0  0  0
   30.2326   18.4201   18.5957 N   0  0  0  0  0  0  0  0  0  0  0  0
   30.2464   17.8477   17.3753 C   0  0  0  0  0  0  0  0  0  0  0  0
   30.9689   18.3993   16.3084 C   0  0  0  0  0  0  0  0  0  0  0  0
   31.6759   19.5779   16.4952 C   0  0  0  0  0  0  0  0  0  0  0  0
  1  3  1  0  0  0  0
  1  4  2  0  0  0  0
  1  5  1  0  0  0  0
  2  6  2  0  0  0  0
  2 11  1  0  0  0  0
  2  5  1  0  0  0  0
  4 10  1  0  0  0  0
  7  8  2  0  0  0  0
  7 12  1  0  0  0  0
  8  9  1  0  0  0  0
  9 10  2  0  0  0  0
 10 11  1  0  0  0  0
 11 12  2  0  0  0  0
M  END
>  <CHROM.1>
30.53811278,17.84114750,16.50620263,2.18437112,-0.93704027,-2.03822705

>  <Name>
ligand

>  <RI>
0

>  <Rbt.Current_Directory>
/home/itssahil/PROJECTS/Mol_Feturizer/New_Systems/rnas/4LX6

>  <Rbt.Executable>
rbdock ($Id: //depot/dev/client3/rdock/2013.1/src/exe/rbdock.cxx#4 $)

>  <Rbt.Library>
libRbt.so (2013.1, Build901 2013/11/27)

>  <Rbt.Parameter_File>
/export/apps/rDock/src/rDock_2013.1_src/data/scripts/dock_solv.prm

>  <Rbt.Receptor>
prm/pocket_docking_7.prm

>  <SCORE>
-17.3294

>  <SCORE.INTER>
-17.3294

>  <SCORE.INTER.CONST>
1

>  <SCORE.INTER.POLAR>
0

>  <SCORE.INTER.ROT>
0

>  <SCORE.INTER.SOLV>
10.8846

>  <SCORE.INTER.VDW>
-18.7811

>  <SCORE.INTER.norm>
-1.44411

>  <SCORE.INTRA>
0

>  <SCORE.INTRA.DIHEDRAL>
0

>  <SCORE.INTRA.DIHEDRAL.0>
0

>  <SCORE.INTRA.POLAR>
0

>  <SCORE.INTRA.POLAR.0>
0

>  <SCORE.INTRA.REPUL>
0

>  <SCORE.INTRA.REPUL.0>
0

>  <SCORE.INTRA.SOLV>
0

>  <SCORE.INTRA.SOLV.lig_0>
-28.9128

>  <SCORE.INTRA.VDW>
0

>  <SCORE.INTRA.VDW.0>
0

>  <SCORE.INTRA.norm>
0

>  <SCORE.RESTR>
0

>  <SCORE.RESTR.CAVITY>
0

>  <SCORE.RESTR.norm>
0

>  <SCORE.SYSTEM>
0

>  <SCORE.SYSTEM.CONST>
0

>  <SCORE.SYSTEM.DIHEDRAL>
0

>  <SCORE.SYSTEM.SOLV>
0

>  <SCORE.SYSTEM.norm>
0

>  <SCORE.heavy>
12

>  <SCORE.norm>
-1.44411

>  <RMSD>
2.955

$$$$
ligand
 OpenBabel11021811503D
libRbt.so/2013.1/901 2013/11/27
 12 13  0  0  0  0  0  0  0  0999 V2000
   29.5651   16.0643   16.0297 C   0  0  0  0  0  0  0  0  0  0  0  0
   31.0052   17.7516   15.0792 C   0  0  0  0  0  0  0  0  0  0  0  0
   28.8741   14.9356   15.9204 N   0  0  0  0  0  0  0  0  0  0  0  0
   29.5783   16.7052   17.2029 N   0  0  0  0  0  0  0  0  0  0  0  0
   30.2843   16.5720   14.9317 N   0  0  0  0  0  0  0  0  0  0  0  0
   31.6303   18.1969   14.1128 O   0  0  0  0  0  0  0  0  0  0  0  0
   31.6557   20.2053   17.7747 N   0  0  0  0  0  0  0  0  0  0  0  0
   30.9152   19.6333   18.8211 C   0  0  0  0  0  0  0  0  0  0  0  0
   30.2187   18.4311   18.5961 N   0  0  0  0  0  0  0  0  0  0  0  0
   30.2507   17.8495   17.3804 C   0  0  0  0  0  0  0  0  0  0  0  0
   30.9851   18.3958   16.3189 C   0  0  0  0  0  0  0  0  0  0  0  0
   31.6851   19.5786   16.5059 C   0  0  0  0  0  0  0  0  0  0  0  0
  1  3  1  0  0  0  0
  1  4  2  0  0  0  0
  1  5  1  0  0  0  0
  2  6  2  0  0  0  0
  2 11  1  0  0  0  0
  2  5  1  0  0  0  0
  4 10  1  0  0  0  0
  7  8  2  0  0  0  0
  7 12  1  0  0  0  0
  8  9  1  0  0  0  0
  9 10  2  0  0  0  0
 10 11  1  0  0  0  0
 11 12  2  0  0  0  0
M  END
>  <CHROM.1>
30.55387953,17.83749019,16.51528417,2.16175211,-0.93438711,-2.06405221

>  <Name>
ligand

>  <RI>
0

>  <Rbt.Current_Directory>
/home/itssahil/PROJECTS/Mol_Feturizer/New_Systems/rnas/4LX6

>  <Rbt.Executable>
rbdock ($Id: //depot/dev/client3/rdock/2013.1/src/exe/rbdock.cxx#4 $)

>  <Rbt.Library>
libRbt.so (2013.1, Build901 2013/11/27)

>  <Rbt.Parameter_File>
/export/apps/rDock/src/rDock_2013.1_src/data/scripts/dock_solv.prm

>  <Rbt.Receptor>
prm/pocket_docking_7.prm

>  <SCORE>
-17.3309

>  <SCORE.INTER>
-17.3309

>  <SCORE.INTER.CONST>
1

>  <SCORE.INTER.POLAR>
0

>  <SCORE.INTER.ROT>
0

>  <SCORE.INTER.SOLV>
11.0551

>  <SCORE.INTER.VDW>
-18.8389

>  <SCORE.INTER.norm>
-1.44424

>  <SCORE.INTRA>
0

>  <SCORE.INTRA.DIHEDRAL>
0

>  <SCORE.INTRA.DIHEDRAL.0>
0

>  <SCORE.INTRA.POLAR>
0

>  <SCORE.INTRA.POLAR.0>
0

>  <SCORE.INTRA.REPUL>
0

>  <SCORE.INTRA.REPUL.0>
0

>  <SCORE.INTRA.SOLV>
0

>  <SCORE.INTRA.SOLV.lig_0>
-28.9128

>  <SCORE.INTRA.VDW>
0

>  <SCORE.INTRA.VDW.0>
0

>  <SCORE.INTRA.norm>
0

>  <SCORE.RESTR>
0

>  <SCORE.RESTR.CAVITY>
0

>  <SCORE.RESTR.norm>
0

>  <SCORE.SYSTEM>
0

>  <SCORE.SYSTEM.CONST>
0

>  <SCORE.SYSTEM.DIHEDRAL>
0

>  <SCORE.SYSTEM.SOLV>
0

>  <SCORE.SYSTEM.norm>
0

>  <SCORE.heavy>
12

>  <SCORE.norm>
-1.44424

>  <RMSD>
2.955

$$$$
ligand
 OpenBabel11021811503D
libRbt.so/2013.1/901 2013/11/27
 12 13  0  0  0  0  0  0  0  0999 V2000
   29.5683   16.0660   16.0369 C   0  0  0  0  0  0  0  0  0  0  0  0
   30.9901   17.7612   15.0732 C   0  0  0  0  0  0  0  0  0  0  0  0
   28.8818   14.9339   15.9337 N   0  0  0  0  0  0  0  0  0  0  0  0
   29.5902   16.7060   17.2104 N   0  0  0  0  0  0  0  0  0  0  0  0
   30.2736   16.5782   14.9319 N   0  0  0  0  0  0  0  0  0  0  0  0
   31.6030   18.2105   14.1008 O   0  0  0  0  0  0  0  0  0  0  0  0
   31.6559   20.2159   17.7641 N   0  0  0  0  0  0  0  0  0  0  0  0
   30.9291   19.6394   18.8175 C   0  0  0  0  0  0  0  0  0  0  0  0
   30.2363   18.4339   18.5985 N   0  0  0  0  0  0  0  0  0  0  0  0
   30.2587   17.8534   17.3820 C   0  0  0  0  0  0  0  0  0  0  0  0
   30.9795   18.4043   16.3136 C   0  0  0  0  0  0  0  0  0  0  0  0
   31.6754   19.5904   16.4944 C   0  0  0  0  0  0  0  0  0  0  0  0
  1  3  1  0  0  0  0
  1  4  2  0  0  0  0
  1  5  1  0  0  0  0
  2  6  2  0  0  0  0
  2 11  1  0  0  0  0
  2  5  1  0  0  0  0
  4 10  1  0  0  0  0
  7  8  2  0  0  0  0
  7 12  1  0  0  0  0
  8  9  1  0  0  0  0
  9 10  2  0  0  0  0
 10 11  1  0  0  0  0
 11 12  2  0  0  0  0
M  END
>  <CHROM.1>
30.55308995,17.84369577,16.51385406,2.17309118,-0.94360917,-2.05404192

>  <Name>
ligand

>  <RI>
0

>  <Rbt.Current_Directory>
/home/itssahil/PROJECTS/Mol_Feturizer/New_Systems/rnas/4LX6

>  <Rbt.Executable>
rbdock ($Id: //depot/dev/client3/rdock/2013.1/src/exe/rbdock.cxx#4 $)

>  <Rbt.Library>
libRbt.so (2013.1, Build901 2013/11/27)

>  <Rbt.Parameter_File>
/export/apps/rDock/src/rDock_2013.1_src/data/scripts/dock_solv.prm

>  <Rbt.Receptor>
prm/blind_docking_100.prm

>  <SCORE>
-17.3416

>  <SCORE.INTER>
-17.3416

>  <SCORE.INTER.CONST>
1

>  <SCORE.INTER.POLAR>
0

>  <SCORE.INTER.ROT>
0

>  <SCORE.INTER.SOLV>
11.0794

>  <SCORE.INTER.VDW>
-18.8542

>  <SCORE.INTER.norm>
-1.44513

>  <SCORE.INTRA>
0

>  <SCORE.INTRA.DIHEDRAL>
0

>  <SCORE.INTRA.DIHEDRAL.0>
0

>  <SCORE.INTRA.POLAR>
0

>  <SCORE.INTRA.POLAR.0>
0

>  <SCORE.INTRA.REPUL>
0

>  <SCORE.INTRA.REPUL.0>
0

>  <SCORE.INTRA.SOLV>
0

>  <SCORE.INTRA.SOLV.lig_0>
-28.9128

>  <SCORE.INTRA.VDW>
0

>  <SCORE.INTRA.VDW.0>
0

>  <SCORE.INTRA.norm>
0

>  <SCORE.RESTR>
0

>  <SCORE.RESTR.CAVITY>
0

>  <SCORE.RESTR.norm>
0

>  <SCORE.SYSTEM>
0

>  <SCORE.SYSTEM.CONST>
0

>  <SCORE.SYSTEM.DIHEDRAL>
0

>  <SCORE.SYSTEM.SOLV>
0

>  <SCORE.SYSTEM.norm>
0

>  <SCORE.heavy>
12

>  <SCORE.norm>
-1.44513

>  <RMSD>
2.956

$$$$
ligand
 OpenBabel11021811503D
libRbt.so/2013.1/901 2013/11/27
 12 13  0  0  0  0  0  0  0  0999 V2000
   29.5671   16.0688   16.0313 C   0  0  0  0  0  0  0  0  0  0  0  0
   31.0056   17.7608   15.0871 C   0  0  0  0  0  0  0  0  0  0  0  0
   28.8772   14.9398   15.9179 N   0  0  0  0  0  0  0  0  0  0  0  0
   29.5797   16.7053   17.2069 N   0  0  0  0  0  0  0  0  0  0  0  0
   30.2858   16.5811   14.9351 N   0  0  0  0  0  0  0  0  0  0  0  0
   31.6303   18.2104   14.1223 O   0  0  0  0  0  0  0  0  0  0  0  0
   31.6540   20.2051   17.7917 N   0  0  0  0  0  0  0  0  0  0  0  0
   30.9141   19.6285   18.8360 C   0  0  0  0  0  0  0  0  0  0  0  0
   30.2187   18.4265   18.6065 N   0  0  0  0  0  0  0  0  0  0  0  0
   30.2511   17.8494   17.3886 C   0  0  0  0  0  0  0  0  0  0  0  0
   30.9850   18.4004   16.3291 C   0  0  0  0  0  0  0  0  0  0  0  0
   31.6839   19.5831   16.5205 C   0  0  0  0  0  0  0  0  0  0  0  0
  1  3  1  0  0  0  0
  1  4  2  0  0  0  0
  1  5  1  0  0  0  0
  2  6  2  0  0  0  0
  2 11  1  0  0  0  0
  2  5  1  0  0  0  0
  4 10  1  0  0  0  0
  7  8  2  0  0  0  0
  7 12  1  0  0  0  0
  8  9  1  0  0  0  0
  9 10  2  0  0  0  0
 10 11  1  0  0  0  0
 11 12  2  0  0  0  0
M  END
>  <CHROM.1>
30.55430039,17.84098395,16.52346773,2.16107706,-0.93520341,-2.06086415

>  <Name>
ligand

>  <RI>
0

>  <Rbt.Current_Directory>
/home/itssahil/PROJECTS/Mol_Feturizer/New_Systems/rnas/4LX6

>  <Rbt.Executable>
rbdock ($Id: //depot/dev/client3/rdock/2013.1/src/exe/rbdock.cxx#4 $)

>  <Rbt.Library>
libRbt.so (2013.1, Build901 2013/11/27)

>  <Rbt.Parameter_File>
/export/apps/rDock/src/rDock_2013.1_src/data/scripts/dock_solv.prm

>  <Rbt.Receptor>
prm/blind_docking_80.prm

>  <SCORE>
-17.3085

>  <SCORE.INTER>
-17.3085

>  <SCORE.INTER.CONST>
1

>  <SCORE.INTER.POLAR>
0

>  <SCORE.INTER.ROT>
0

>  <SCORE.INTER.SOLV>
11.0577

>  <SCORE.INTER.VDW>
-18.8249

>  <SCORE.INTER.norm>
-1.44238

>  <SCORE.INTRA>
0

>  <SCORE.INTRA.DIHEDRAL>
0

>  <SCORE.INTRA.DIHEDRAL.0>
0

>  <SCORE.INTRA.POLAR>
0

>  <SCORE.INTRA.POLAR.0>
0

>  <SCORE.INTRA.REPUL>
0

>  <SCORE.INTRA.REPUL.0>
0

>  <SCORE.INTRA.SOLV>
0

>  <SCORE.INTRA.SOLV.lig_0>
-28.9128

>  <SCORE.INTRA.VDW>
0

>  <SCORE.INTRA.VDW.0>
0

>  <SCORE.INTRA.norm>
0

>  <SCORE.RESTR>
0

>  <SCORE.RESTR.CAVITY>
0

>  <SCORE.RESTR.norm>
0

>  <SCORE.SYSTEM>
0

>  <SCORE.SYSTEM.CONST>
0

>  <SCORE.SYSTEM.DIHEDRAL>
0

>  <SCORE.SYSTEM.SOLV>
0

>  <SCORE.SYSTEM.norm>
0

>  <SCORE.heavy>
12

>  <SCORE.norm>
-1.44238

>  <RMSD>
2.956

$$$$
ligand
 OpenBabel11021811503D
libRbt.so/2013.1/901 2013/11/27
 12 13  0  0  0  0  0  0  0  0999 V2000
   29.5677   16.0661   16.0354 C   0  0  0  0  0  0  0  0  0  0  0  0
   30.9974   17.7572   15.0761 C   0  0  0  0  0  0  0  0  0  0  0  0
   28.8783   14.9360   15.9301 N   0  0  0  0  0  0  0  0  0  0  0  0
   29.5879   16.7060   17.2090 N   0  0  0  0  0  0  0  0  0  0  0  0
   30.2779   16.5762   14.9327 N   0  0  0  0  0  0  0  0  0  0  0  0
   31.6146   18.2048   14.1057 O   0  0  0  0  0  0  0  0  0  0  0  0
   31.6620   20.2100   17.7691 N   0  0  0  0  0  0  0  0  0  0  0  0
   30.9302   19.6355   18.8202 C   0  0  0  0  0  0  0  0  0  0  0  0
   30.2346   18.4320   18.5991 N   0  0  0  0  0  0  0  0  0  0  0  0
   30.2592   17.8515   17.3827 C   0  0  0  0  0  0  0  0  0  0  0  0
   30.9848   18.4003   16.3165 C   0  0  0  0  0  0  0  0  0  0  0  0
   31.6836   19.5844   16.4995 C   0  0  0  0  0  0  0  0  0  0  0  0
  1  3  1  0  0  0  0
  1  4  2  0  0  0  0
  1  5  1  0  0  0  0
  2  6  2  0  0  0  0
  2 11  1  0  0  0  0
  2  5  1  0  0  0  0
  4 10  1  0  0  0  0
  7  8  2  0  0  0  0
  7 12  1  0  0  0  0
  8  9  1  0  0  0  0
  9 10  2  0  0  0  0
 10 11  1  0  0  0  0
 11 12  2  0  0  0  0
M  END
>  <CHROM.1>
30.55616149,17.84094128,16.51544627,2.17072678,-0.93960593,-2.05594180

>  <Name>
ligand

>  <RI>
0

>  <Rbt.Current_Directory>
/home/itssahil/PROJECTS/Mol_Feturizer/New_Systems/rnas/4LX6

>  <Rbt.Executable>
rbdock ($Id: //depot/dev/client3/rdock/2013.1/src/exe/rbdock.cxx#4 $)

>  <Rbt.Library>
libRbt.so (2013.1, Build901 2013/11/27)

>  <Rbt.Parameter_File>
/export/apps/rDock/src/rDock_2013.1_src/data/scripts/dock_solv.prm

>  <Rbt.Receptor>
prm/pocket_docking_3.prm

>  <SCORE>
-17.3382

>  <SCORE.INTER>
-17.3382

>  <SCORE.INTER.CONST>
1

>  <SCORE.INTER.POLAR>
0

>  <SCORE.INTER.ROT>
0

>  <SCORE.INTER.SOLV>
11.0644

>  <SCORE.INTER.VDW>
-18.8469

>  <SCORE.INTER.norm>
-1.44485

>  <SCORE.INTRA>
0

>  <SCORE.INTRA.DIHEDRAL>
0

>  <SCORE.INTRA.DIHEDRAL.0>
0

>  <SCORE.INTRA.POLAR>
0

>  <SCORE.INTRA.POLAR.0>
0

>  <SCORE.INTRA.REPUL>
0

>  <SCORE.INTRA.REPUL.0>
0

>  <SCORE.INTRA.SOLV>
0

>  <SCORE.INTRA.SOLV.lig_0>
-28.9128

>  <SCORE.INTRA.VDW>
0

>  <SCORE.INTRA.VDW.0>
0

>  <SCORE.INTRA.norm>
0

>  <SCORE.RESTR>
0

>  <SCORE.RESTR.CAVITY>
0

>  <SCORE.RESTR.norm>
0

>  <SCORE.SYSTEM>
0

>  <SCORE.SYSTEM.CONST>
0

>  <SCORE.SYSTEM.DIHEDRAL>
0

>  <SCORE.SYSTEM.SOLV>
0

>  <SCORE.SYSTEM.norm>
0

>  <SCORE.heavy>
12

>  <SCORE.norm>
-1.44485

>  <RMSD>
2.956

$$$$
ligand
 OpenBabel11021811503D
libRbt.so/2013.1/901 2013/11/27
 12 13  0  0  0  0  0  0  0  0999 V2000
   29.5669   16.0649   16.0340 C   0  0  0  0  0  0  0  0  0  0  0  0
   31.0049   17.7503   15.0771 C   0  0  0  0  0  0  0  0  0  0  0  0
   28.8752   14.9362   15.9282 N   0  0  0  0  0  0  0  0  0  0  0  0
   29.5833   16.7075   17.2062 N   0  0  0  0  0  0  0  0  0  0  0  0
   30.2832   16.5707   14.9332 N   0  0  0  0  0  0  0  0  0  0  0  0
   31.6276   18.1940   14.1084 O   0  0  0  0  0  0  0  0  0  0  0  0
   31.6633   20.2078   17.7673 N   0  0  0  0  0  0  0  0  0  0  0  0
   30.9254   19.6376   18.8164 C   0  0  0  0  0  0  0  0  0  0  0  0
   30.2280   18.4353   18.5950 N   0  0  0  0  0  0  0  0  0  0  0  0
   30.2565   17.8518   17.3801 C   0  0  0  0  0  0  0  0  0  0  0  0
   30.9883   18.3963   16.3159 C   0  0  0  0  0  0  0  0  0  0  0  0
   31.6891   19.5792   16.4993 C   0  0  0  0  0  0  0  0  0  0  0  0
  1  3  1  0  0  0  0
  1  4  2  0  0  0  0
  1  5  1  0  0  0  0
  2  6  2  0  0  0  0
  2 11  1  0  0  0  0
  2  5  1  0  0  0  0
  4 10  1  0  0  0  0
  7  8  2  0  0  0  0
  7 12  1  0  0  0  0
  8  9  1  0  0  0  0
  9 10  2  0  0  0  0
 10 11  1  0  0  0  0
 11 12  2  0  0  0  0
M  END
>  <CHROM.1>
30.55742250,17.83845849,16.51424915,2.16591972,-0.93536989,-2.06218925

>  <Name>
ligand

>  <RI>
0

>  <Rbt.Current_Directory>
/home/itssahil/PROJECTS/Mol_Feturizer/New_Systems/rnas/4LX6

>  <Rbt.Executable>
rbdock ($Id: //depot/dev/client3/rdock/2013.1/src/exe/rbdock.cxx#4 $)

>  <Rbt.Library>
libRbt.so (2013.1, Build901 2013/11/27)

>  <Rbt.Parameter_File>
/export/apps/rDock/src/rDock_2013.1_src/data/scripts/dock_solv.prm

>  <Rbt.Receptor>
prm/pocket_docking_4.prm

>  <SCORE>
-17.3306

>  <SCORE.INTER>
-17.3306

>  <SCORE.INTER.CONST>
1

>  <SCORE.INTER.POLAR>
0

>  <SCORE.INTER.ROT>
0

>  <SCORE.INTER.SOLV>
11.0576

>  <SCORE.INTER.VDW>
-18.8396

>  <SCORE.INTER.norm>
-1.44421

>  <SCORE.INTRA>
0

>  <SCORE.INTRA.DIHEDRAL>
0

>  <SCORE.INTRA.DIHEDRAL.0>
0

>  <SCORE.INTRA.POLAR>
0

>  <SCORE.INTRA.POLAR.0>
0

>  <SCORE.INTRA.REPUL>
0

>  <SCORE.INTRA.REPUL.0>
0

>  <SCORE.INTRA.SOLV>
0

>  <SCORE.INTRA.SOLV.lig_0>
-28.9128

>  <SCORE.INTRA.VDW>
0

>  <SCORE.INTRA.VDW.0>
0

>  <SCORE.INTRA.norm>
0

>  <SCORE.RESTR>
0

>  <SCORE.RESTR.CAVITY>
0

>  <SCORE.RESTR.norm>
0

>  <SCORE.SYSTEM>
0

>  <SCORE.SYSTEM.CONST>
0

>  <SCORE.SYSTEM.DIHEDRAL>
0

>  <SCORE.SYSTEM.SOLV>
0

>  <SCORE.SYSTEM.norm>
0

>  <SCORE.heavy>
12

>  <SCORE.norm>
-1.44421

>  <RMSD>
2.956

$$$$
ligand
 OpenBabel11021811503D
libRbt.so/2013.1/901 2013/11/27
 12 13  0  0  0  0  0  0  0  0999 V2000
   29.4595   16.1771   16.0073 C   0  0  0  0  0  0  0  0  0  0  0  0
   30.9098   17.8692   15.0814 C   0  0  0  0  0  0  0  0  0  0  0  0
   28.7440   15.0661   15.8757 N   0  0  0  0  0  0  0  0  0  0  0  0
   29.5129   16.7759   17.2014 N   0  0  0  0  0  0  0  0  0  0  0  0
   30.1625   16.7093   14.9105 N   0  0  0  0  0  0  0  0  0  0  0  0
   31.5206   18.3364   14.1162 O   0  0  0  0  0  0  0  0  0  0  0  0
   31.6718   20.2139   17.8439 N   0  0  0  0  0  0  0  0  0  0  0  0
   30.9450   19.6195   18.8874 C   0  0  0  0  0  0  0  0  0  0  0  0
   30.2198   18.4393   18.6377 N   0  0  0  0  0  0  0  0  0  0  0  0
   30.2117   17.9003   17.4022 C   0  0  0  0  0  0  0  0  0  0  0  0
   30.9316   18.4697   16.3428 C   0  0  0  0  0  0  0  0  0  0  0  0
   31.6589   19.6317   16.5537 C   0  0  0  0  0  0  0  0  0  0  0  0
  1  3  1  0  0  0  0
  1  4  2  0  0  0  0
  1  5  1  0  0  0  0
  2  6  2  0  0  0  0
  2 11  1  0  0  0  0
  2  5  1  0  0  0  0
  4 10  1  0  0  0  0
  7  8  2  0  0  0  0
  7 12  1  0  0  0  0
  8  9  1  0  0  0  0
  9 10  2  0  0  0  0
 10 11  1  0  0  0  0
 11 12  2  0  0  0  0
M  END
>  <CHROM.1>
30.49417543,17.91306082,16.53006572,2.21188063,-0.92756841,-1.98888514

>  <Name>
ligand

>  <RI>
0

>  <Rbt.Current_Directory>
/home/itssahil/PROJECTS/Mol_Feturizer/New_Systems/rnas/4LX6

>  <Rbt.Executable>
rbdock ($Id: //depot/dev/client3/rdock/2013.1/src/exe/rbdock.cxx#4 $)

>  <Rbt.Library>
libRbt.so (2013.1, Build901 2013/11/27)

>  <Rbt.Parameter_File>
/export/apps/rDock/src/rDock_2013.1_src/data/scripts/dock_solv.prm

>  <Rbt.Receptor>
prm/pocket_docking_4.prm

>  <SCORE>
-17.271

>  <SCORE.INTER>
-17.271

>  <SCORE.INTER.CONST>
1

>  <SCORE.INTER.POLAR>
0

>  <SCORE.INTER.ROT>
0

>  <SCORE.INTER.SOLV>
10.3329

>  <SCORE.INTER.VDW>
-18.5583

>  <SCORE.INTER.norm>
-1.43925

>  <SCORE.INTRA>
0

>  <SCORE.INTRA.DIHEDRAL>
0

>  <SCORE.INTRA.DIHEDRAL.0>
0

>  <SCORE.INTRA.POLAR>
0

>  <SCORE.INTRA.POLAR.0>
0

>  <SCORE.INTRA.REPUL>
0

>  <SCORE.INTRA.REPUL.0>
0

>  <SCORE.INTRA.SOLV>
0

>  <SCORE.INTRA.SOLV.lig_0>
-28.9128

>  <SCORE.INTRA.VDW>
0

>  <SCORE.INTRA.VDW.0>
0

>  <SCORE.INTRA.norm>
0

>  <SCORE.RESTR>
0

>  <SCORE.RESTR.CAVITY>
0

>  <SCORE.RESTR.norm>
0

>  <SCORE.SYSTEM>
0

>  <SCORE.SYSTEM.CONST>
0

>  <SCORE.SYSTEM.DIHEDRAL>
0

>  <SCORE.SYSTEM.SOLV>
0

>  <SCORE.SYSTEM.norm>
0

>  <SCORE.heavy>
12

>  <SCORE.norm>
-1.43925

>  <RMSD>
2.956

$$$$
ligand
 OpenBabel11021811503D
libRbt.so/2013.1/901 2013/11/27
 12 13  0  0  0  0  0  0  0  0999 V2000
   29.5582   16.0987   16.0309 C   0  0  0  0  0  0  0  0  0  0  0  0
   30.9758   17.8128   15.0949 C   0  0  0  0  0  0  0  0  0  0  0  0
   28.8769   14.9652   15.9102 N   0  0  0  0  0  0  0  0  0  0  0  0
   29.5735   16.7229   17.2131 N   0  0  0  0  0  0  0  0  0  0  0  0
   30.2648   16.6287   14.9354 N   0  0  0  0  0  0  0  0  0  0  0  0
   31.5900   18.2778   14.1307 O   0  0  0  0  0  0  0  0  0  0  0  0
   31.6223   20.2338   17.8208 N   0  0  0  0  0  0  0  0  0  0  0  0
   30.8945   19.6400   18.8639 C   0  0  0  0  0  0  0  0  0  0  0  0
   30.2077   18.4346   18.6264 N   0  0  0  0  0  0  0  0  0  0  0  0
   30.2365   17.8707   17.4024 C   0  0  0  0  0  0  0  0  0  0  0  0
   30.9584   18.4390   16.3438 C   0  0  0  0  0  0  0  0  0  0  0  0
   31.6486   19.6256   16.5429 C   0  0  0  0  0  0  0  0  0  0  0  0
  1  3  1  0  0  0  0
  1  4  2  0  0  0  0
  1  5  1  0  0  0  0
  2  6  2  0  0  0  0
  2 11  1  0  0  0  0
  2  5  1  0  0  0  0
  4 10  1  0  0  0  0
  7  8  2  0  0  0  0
  7 12  1  0  0  0  0
  8  9  1  0  0  0  0
  9 10  2  0  0  0  0
 10 11  1  0  0  0  0
 11 12  2  0  0  0  0
M  END
>  <CHROM.1>
30.53376119,17.87397802,16.53510065,2.16474822,-0.94587101,-2.04732175

>  <Name>
ligand

>  <RI>
0

>  <Rbt.Current_Directory>
/home/itssahil/PROJECTS/Mol_Feturizer/New_Systems/rnas/4LX6

>  <Rbt.Executable>
rbdock ($Id: //depot/dev/client3/rdock/2013.1/src/exe/rbdock.cxx#4 $)

>  <Rbt.Library>
libRbt.so (2013.1, Build901 2013/11/27)

>  <Rbt.Parameter_File>
/export/apps/rDock/src/rDock_2013.1_src/data/scripts/dock_solv.prm

>  <Rbt.Receptor>
prm/pocket_docking_5.prm

>  <SCORE>
-17.2726

>  <SCORE.INTER>
-17.2726

>  <SCORE.INTER.CONST>
1

>  <SCORE.INTER.POLAR>
0

>  <SCORE.INTER.ROT>
0

>  <SCORE.INTER.SOLV>
11.0107

>  <SCORE.INTER.VDW>
-18.7853

>  <SCORE.INTER.norm>
-1.43938

>  <SCORE.INTRA>
0

>  <SCORE.INTRA.DIHEDRAL>
0

>  <SCORE.INTRA.DIHEDRAL.0>
0

>  <SCORE.INTRA.POLAR>
0

>  <SCORE.INTRA.POLAR.0>
0

>  <SCORE.INTRA.REPUL>
0

>  <SCORE.INTRA.REPUL.0>
0

>  <SCORE.INTRA.SOLV>
0

>  <SCORE.INTRA.SOLV.lig_0>
-28.9128

>  <SCORE.INTRA.VDW>
0

>  <SCORE.INTRA.VDW.0>
0

>  <SCORE.INTRA.norm>
0

>  <SCORE.RESTR>
0

>  <SCORE.RESTR.CAVITY>
0

>  <SCORE.RESTR.norm>
0

>  <SCORE.SYSTEM>
0

>  <SCORE.SYSTEM.CONST>
0

>  <SCORE.SYSTEM.DIHEDRAL>
0

>  <SCORE.SYSTEM.SOLV>
0

>  <SCORE.SYSTEM.norm>
0

>  <SCORE.heavy>
12

>  <SCORE.norm>
-1.43938

>  <RMSD>
2.956

$$$$
ligand
 OpenBabel11021811503D
libRbt.so/2013.1/901 2013/11/27
 12 13  0  0  0  0  0  0  0  0999 V2000
   29.5724   16.0662   16.0377 C   0  0  0  0  0  0  0  0  0  0  0  0
   31.0097   17.7524   15.0813 C   0  0  0  0  0  0  0  0  0  0  0  0
   28.8821   14.9366   15.9320 N   0  0  0  0  0  0  0  0  0  0  0  0
   29.5868   16.7097   17.2094 N   0  0  0  0  0  0  0  0  0  0  0  0
   30.2895   16.5719   14.9374 N   0  0  0  0  0  0  0  0  0  0  0  0
   31.6330   18.1960   14.1129 O   0  0  0  0  0  0  0  0  0  0  0  0
   31.6624   20.2127   17.7703 N   0  0  0  0  0  0  0  0  0  0  0  0
   30.9239   19.6424   18.8190 C   0  0  0  0  0  0  0  0  0  0  0  0
   30.2280   18.4392   18.5977 N   0  0  0  0  0  0  0  0  0  0  0  0
   30.2586   17.8548   17.3833 C   0  0  0  0  0  0  0  0  0  0  0  0
   30.9910   18.3993   16.3195 C   0  0  0  0  0  0  0  0  0  0  0  0
   31.6903   19.5831   16.5028 C   0  0  0  0  0  0  0  0  0  0  0  0
  1  3  1  0  0  0  0
  1  4  2  0  0  0  0
  1  5  1  0  0  0  0
  2  6  2  0  0  0  0
  2 11  1  0  0  0  0
  2  5  1  0  0  0  0
  4 10  1  0  0  0  0
  7  8  2  0  0  0  0
  7 12  1  0  0  0  0
  8  9  1  0  0  0  0
  9 10  2  0  0  0  0
 10 11  1  0  0  0  0
 11 12  2  0  0  0  0
M  END
>  <CHROM.1>
30.56048971,17.84116430,16.51779162,2.16335876,-0.93577332,-2.06501638

>  <Name>
ligand

>  <RI>
0

>  <Rbt.Current_Directory>
/home/itssahil/PROJECTS/Mol_Feturizer/New_Systems/rnas/4LX6

>  <Rbt.Executable>
rbdock ($Id: //depot/dev/client3/rdock/2013.1/src/exe/rbdock.cxx#4 $)

>  <Rbt.Library>
libRbt.so (2013.1, Build901 2013/11/27)

>  <Rbt.Parameter_File>
/export/apps/rDock/src/rDock_2013.1_src/data/scripts/dock_solv.prm

>  <Rbt.Receptor>
prm/pocket_docking_6.prm

>  <SCORE>
-17.3263

>  <SCORE.INTER>
-17.3263

>  <SCORE.INTER.CONST>
1

>  <SCORE.INTER.POLAR>
0

>  <SCORE.INTER.ROT>
0

>  <SCORE.INTER.SOLV>
11.0851

>  <SCORE.INTER.VDW>
-18.8459

>  <SCORE.INTER.norm>
-1.44386

>  <SCORE.INTRA>
0

>  <SCORE.INTRA.DIHEDRAL>
0

>  <SCORE.INTRA.DIHEDRAL.0>
0

>  <SCORE.INTRA.POLAR>
0

>  <SCORE.INTRA.POLAR.0>
0

>  <SCORE.INTRA.REPUL>
0

>  <SCORE.INTRA.REPUL.0>
0

>  <SCORE.INTRA.SOLV>
0

>  <SCORE.INTRA.SOLV.lig_0>
-28.9128

>  <SCORE.INTRA.VDW>
0

>  <SCORE.INTRA.VDW.0>
0

>  <SCORE.INTRA.norm>
0

>  <SCORE.RESTR>
0

>  <SCORE.RESTR.CAVITY>
0

>  <SCORE.RESTR.norm>
0

>  <SCORE.SYSTEM>
0

>  <SCORE.SYSTEM.CONST>
0

>  <SCORE.SYSTEM.DIHEDRAL>
0

>  <SCORE.SYSTEM.SOLV>
0

>  <SCORE.SYSTEM.norm>
0

>  <SCORE.heavy>
12

>  <SCORE.norm>
-1.44386

>  <RMSD>
2.956

$$$$
ligand
 OpenBabel11021811503D
libRbt.so/2013.1/901 2013/11/27
 12 13  0  0  0  0  0  0  0  0999 V2000
   29.4650   16.1528   16.0038 C   0  0  0  0  0  0  0  0  0  0  0  0
   30.9558   17.8117   15.0819 C   0  0  0  0  0  0  0  0  0  0  0  0
   28.7377   15.0493   15.8746 N   0  0  0  0  0  0  0  0  0  0  0  0
   29.5023   16.7693   17.1895 N   0  0  0  0  0  0  0  0  0  0  0  0
   30.1968   16.6590   14.9135 N   0  0  0  0  0  0  0  0  0  0  0  0
   31.5919   18.2560   14.1223 O   0  0  0  0  0  0  0  0  0  0  0  0
   31.6930   20.1886   17.8235 N   0  0  0  0  0  0  0  0  0  0  0  0
   30.9377   19.6199   18.8609 C   0  0  0  0  0  0  0  0  0  0  0  0
   30.2022   18.4454   18.6145 N   0  0  0  0  0  0  0  0  0  0  0  0
   30.2118   17.8875   17.3873 C   0  0  0  0  0  0  0  0  0  0  0  0
   30.9602   18.4311   16.3343 C   0  0  0  0  0  0  0  0  0  0  0  0
   31.6984   19.5869   16.5423 C   0  0  0  0  0  0  0  0  0  0  0  0
  1  3  1  0  0  0  0
  1  4  2  0  0  0  0
  1  5  1  0  0  0  0
  2  6  2  0  0  0  0
  2 11  1  0  0  0  0
  2  5  1  0  0  0  0
  4 10  1  0  0  0  0
  7  8  2  0  0  0  0
  7 12  1  0  0  0  0
  8  9  1  0  0  0  0
  9 10  2  0  0  0  0
 10 11  1  0  0  0  0
 11 12  2  0  0  0  0
M  END
>  <CHROM.1>
30.51179612,17.88319178,16.52104922,2.19081662,-0.90725000,-2.02090072

>  <Name>
ligand

>  <RI>
0

>  <Rbt.Current_Directory>
/home/itssahil/PROJECTS/Mol_Feturizer/New_Systems/rnas/4LX6

>  <Rbt.Executable>
rbdock ($Id: //depot/dev/client3/rdock/2013.1/src/exe/rbdock.cxx#4 $)

>  <Rbt.Library>
libRbt.so (2013.1, Build901 2013/11/27)

>  <Rbt.Parameter_File>
/export/apps/rDock/src/rDock_2013.1_src/data/scripts/dock_solv.prm

>  <Rbt.Receptor>
prm/pocket_docking_6.prm

>  <SCORE>
-17.2666

>  <SCORE.INTER>
-17.2666

>  <SCORE.INTER.CONST>
1

>  <SCORE.INTER.POLAR>
0

>  <SCORE.INTER.ROT>
0

>  <SCORE.INTER.SOLV>
10.3469

>  <SCORE.INTER.VDW>
-18.56

>  <SCORE.INTER.norm>
-1.43888

>  <SCORE.INTRA>
0

>  <SCORE.INTRA.DIHEDRAL>
0

>  <SCORE.INTRA.DIHEDRAL.0>
0

>  <SCORE.INTRA.POLAR>
0

>  <SCORE.INTRA.POLAR.0>
0

>  <SCORE.INTRA.REPUL>
0

>  <SCORE.INTRA.REPUL.0>
0

>  <SCORE.INTRA.SOLV>
0

>  <SCORE.INTRA.SOLV.lig_0>
-28.9128

>  <SCORE.INTRA.VDW>
0

>  <SCORE.INTRA.VDW.0>
0

>  <SCORE.INTRA.norm>
0

>  <SCORE.RESTR>
0

>  <SCORE.RESTR.CAVITY>
0

>  <SCORE.RESTR.norm>
0

>  <SCORE.SYSTEM>
0

>  <SCORE.SYSTEM.CONST>
0

>  <SCORE.SYSTEM.DIHEDRAL>
0

>  <SCORE.SYSTEM.SOLV>
0

>  <SCORE.SYSTEM.norm>
0

>  <SCORE.heavy>
12

>  <SCORE.norm>
-1.43888

>  <RMSD>
2.956

$$$$
ligand
 OpenBabel11021811503D
libRbt.so/2013.1/901 2013/11/27
 12 13  0  0  0  0  0  0  0  0999 V2000
   29.6037   16.2586   16.0772 C   0  0  0  0  0  0  0  0  0  0  0  0
   30.9051   18.0460   15.1099 C   0  0  0  0  0  0  0  0  0  0  0  0
   28.9549   15.1055   15.9638 N   0  0  0  0  0  0  0  0  0  0  0  0
   29.6683   16.8509   17.2740 N   0  0  0  0  0  0  0  0  0  0  0  0
   30.2260   16.8424   14.9580 N   0  0  0  0  0  0  0  0  0  0  0  0
   31.4450   18.5580   14.1253 O   0  0  0  0  0  0  0  0  0  0  0  0
   31.6308   20.4141   17.8622 N   0  0  0  0  0  0  0  0  0  0  0  0
   30.9866   19.7672   18.9285 C   0  0  0  0  0  0  0  0  0  0  0  0
   30.3276   18.5453   18.6968 N   0  0  0  0  0  0  0  0  0  0  0  0
   30.3026   18.0159   17.4573 C   0  0  0  0  0  0  0  0  0  0  0  0
   30.9409   18.6374   16.3752 C   0  0  0  0  0  0  0  0  0  0  0  0
   31.6016   19.8417   16.5679 C   0  0  0  0  0  0  0  0  0  0  0  0
  1  3  1  0  0  0  0
  1  4  2  0  0  0  0
  1  5  1  0  0  0  0
  2  6  2  0  0  0  0
  2 11  1  0  0  0  0
  2  5  1  0  0  0  0
  4 10  1  0  0  0  0
  7  8  2  0  0  0  0
  7 12  1  0  0  0  0
  8  9  1  0  0  0  0
  9 10  2  0  0  0  0
 10 11  1  0  0  0  0
 11 12  2  0  0  0  0
M  END
>  <CHROM.1>
30.54753857,18.05285875,16.57462166,2.23421012,-1.00183768,-1.96191882

>  <Name>
ligand

>  <RI>
0

>  <Rbt.Current_Directory>
/home/itssahil/PROJECTS/Mol_Feturizer/New_Systems/rnas/4LX6

>  <Rbt.Executable>
rbdock ($Id: //depot/dev/client3/rdock/2013.1/src/exe/rbdock.cxx#4 $)

>  <Rbt.Library>
libRbt.so (2013.1, Build901 2013/11/27)

>  <Rbt.Parameter_File>
/export/apps/rDock/src/rDock_2013.1_src/data/scripts/dock_solv.prm

>  <Rbt.Receptor>
prm/pocket_docking_6.prm

>  <SCORE>
-17.2406

>  <SCORE.INTER>
-17.2406

>  <SCORE.INTER.CONST>
1

>  <SCORE.INTER.POLAR>
0

>  <SCORE.INTER.ROT>
0

>  <SCORE.INTER.SOLV>
11.2585

>  <SCORE.INTER.VDW>
-18.8466

>  <SCORE.INTER.norm>
-1.43671

>  <SCORE.INTRA>
0

>  <SCORE.INTRA.DIHEDRAL>
0

>  <SCORE.INTRA.DIHEDRAL.0>
0

>  <SCORE.INTRA.POLAR>
0

>  <SCORE.INTRA.POLAR.0>
0

>  <SCORE.INTRA.REPUL>
0

>  <SCORE.INTRA.REPUL.0>
0

>  <SCORE.INTRA.SOLV>
0

>  <SCORE.INTRA.SOLV.lig_0>
-28.9128

>  <SCORE.INTRA.VDW>
0

>  <SCORE.INTRA.VDW.0>
0

>  <SCORE.INTRA.norm>
0

>  <SCORE.RESTR>
0

>  <SCORE.RESTR.CAVITY>
0

>  <SCORE.RESTR.norm>
0

>  <SCORE.SYSTEM>
0

>  <SCORE.SYSTEM.CONST>
0

>  <SCORE.SYSTEM.DIHEDRAL>
0

>  <SCORE.SYSTEM.SOLV>
0

>  <SCORE.SYSTEM.norm>
0

>  <SCORE.heavy>
12

>  <SCORE.norm>
-1.43671

>  <RMSD>
2.956

$$$$
ligand
 OpenBabel11021811503D
libRbt.so/2013.1/901 2013/11/27
 12 13  0  0  0  0  0  0  0  0999 V2000
   29.4595   16.1789   16.0075 C   0  0  0  0  0  0  0  0  0  0  0  0
   30.9110   17.8702   15.0821 C   0  0  0  0  0  0  0  0  0  0  0  0
   28.7435   15.0682   15.8757 N   0  0  0  0  0  0  0  0  0  0  0  0
   29.5124   16.7779   17.2015 N   0  0  0  0  0  0  0  0  0  0  0  0
   30.1632   16.7106   14.9109 N   0  0  0  0  0  0  0  0  0  0  0  0
   31.5225   18.3370   14.1171 O   0  0  0  0  0  0  0  0  0  0  0  0
   31.6725   20.2151   17.8446 N   0  0  0  0  0  0  0  0  0  0  0  0
   30.9449   19.6212   18.8878 C   0  0  0  0  0  0  0  0  0  0  0  0
   30.2193   18.4413   18.6379 N   0  0  0  0  0  0  0  0  0  0  0  0
   30.2117   17.9020   17.4025 C   0  0  0  0  0  0  0  0  0  0  0  0
   30.9323   18.4709   16.3434 C   0  0  0  0  0  0  0  0  0  0  0  0
   31.6601   19.6327   16.5545 C   0  0  0  0  0  0  0  0  0  0  0  0
  1  3  1  0  0  0  0
  1  4  2  0  0  0  0
  1  5  1  0  0  0  0
  2  6  2  0  0  0  0
  2 11  1  0  0  0  0
  2  5  1  0  0  0  0
  4 10  1  0  0  0  0
  7  8  2  0  0  0  0
  7 12  1  0  0  0  0
  8  9  1  0  0  0  0
  9 10  2  0  0  0  0
 10 11  1  0  0  0  0
 11 12  2  0  0  0  0
M  END
>  <CHROM.1>
30.49458928,17.91451630,16.53051271,2.21134494,-0.92693449,-1.98948906

>  <Name>
ligand

>  <RI>
0

>  <Rbt.Current_Directory>
/home/itssahil/PROJECTS/Mol_Feturizer/New_Systems/rnas/4LX6

>  <Rbt.Executable>
rbdock ($Id: //depot/dev/client3/rdock/2013.1/src/exe/rbdock.cxx#4 $)

>  <Rbt.Library>
libRbt.so (2013.1, Build901 2013/11/27)

>  <Rbt.Parameter_File>
/export/apps/rDock/src/rDock_2013.1_src/data/scripts/dock_solv.prm

>  <Rbt.Receptor>
prm/pocket_docking_7.prm

>  <SCORE>
-17.2708

>  <SCORE.INTER>
-17.2708

>  <SCORE.INTER.CONST>
1

>  <SCORE.INTER.POLAR>
0

>  <SCORE.INTER.ROT>
0

>  <SCORE.INTER.SOLV>
10.3284

>  <SCORE.INTER.VDW>
-18.5567

>  <SCORE.INTER.norm>
-1.43923

>  <SCORE.INTRA>
0

>  <SCORE.INTRA.DIHEDRAL>
0

>  <SCORE.INTRA.DIHEDRAL.0>
0

>  <SCORE.INTRA.POLAR>
0

>  <SCORE.INTRA.POLAR.0>
0

>  <SCORE.INTRA.REPUL>
0

>  <SCORE.INTRA.REPUL.0>
0

>  <SCORE.INTRA.SOLV>
0

>  <SCORE.INTRA.SOLV.lig_0>
-28.9128

>  <SCORE.INTRA.VDW>
0

>  <SCORE.INTRA.VDW.0>
0

>  <SCORE.INTRA.norm>
0

>  <SCORE.RESTR>
0

>  <SCORE.RESTR.CAVITY>
0

>  <SCORE.RESTR.norm>
0

>  <SCORE.SYSTEM>
0

>  <SCORE.SYSTEM.CONST>
0

>  <SCORE.SYSTEM.DIHEDRAL>
0

>  <SCORE.SYSTEM.SOLV>
0

>  <SCORE.SYSTEM.norm>
0

>  <SCORE.heavy>
12

>  <SCORE.norm>
-1.43923

>  <RMSD>
2.956

$$$$
ligand
 OpenBabel11021811503D
libRbt.so/2013.1/901 2013/11/27
 12 13  0  0  0  0  0  0  0  0999 V2000
   29.5360   16.0733   16.0228 C   0  0  0  0  0  0  0  0  0  0  0  0
   30.9739   17.7596   15.0674 C   0  0  0  0  0  0  0  0  0  0  0  0
   28.8395   14.9479   15.9143 N   0  0  0  0  0  0  0  0  0  0  0  0
   29.5627   16.7081   17.1990 N   0  0  0  0  0  0  0  0  0  0  0  0
   30.2469   16.5836   14.9206 N   0  0  0  0  0  0  0  0  0  0  0  0
   31.5917   18.2074   14.0975 O   0  0  0  0  0  0  0  0  0  0  0  0
   31.6594   20.1969   17.7691 N   0  0  0  0  0  0  0  0  0  0  0  0
   30.9265   19.6226   18.8194 C   0  0  0  0  0  0  0  0  0  0  0  0
   30.2231   18.4243   18.5949 N   0  0  0  0  0  0  0  0  0  0  0  0
   30.2414   17.8487   17.3760 C   0  0  0  0  0  0  0  0  0  0  0  0
   30.9680   18.3975   16.3104 C   0  0  0  0  0  0  0  0  0  0  0  0
   31.6745   19.5766   16.4969 C   0  0  0  0  0  0  0  0  0  0  0  0
  1  3  1  0  0  0  0
  1  4  2  0  0  0  0
  1  5  1  0  0  0  0
  2  6  2  0  0  0  0
  2 11  1  0  0  0  0
  2  5  1  0  0  0  0
  4 10  1  0  0  0  0
  7  8  2  0  0  0  0
  7 12  1  0  0  0  0
  8  9  1  0  0  0  0
  9 10  2  0  0  0  0
 10 11  1  0  0  0  0
 11 12  2  0  0  0  0
M  END
>  <CHROM.1>
30.53638947,17.83998573,16.50802646,2.17882136,-0.93519227,-2.04524193

>  <Name>
ligand

>  <RI>
0

>  <Rbt.Current_Directory>
/home/itssahil/PROJECTS/Mol_Feturizer/New_Systems/rnas/4LX6

>  <Rbt.Executable>
rbdock ($Id: //depot/dev/client3/rdock/2013.1/src/exe/rbdock.cxx#4 $)

>  <Rbt.Library>
libRbt.so (2013.1, Build901 2013/11/27)

>  <Rbt.Parameter_File>
/export/apps/rDock/src/rDock_2013.1_src/data/scripts/dock_solv.prm

>  <Rbt.Receptor>
prm/pocket_docking_8.prm

>  <SCORE>
-17.3244

>  <SCORE.INTER>
-17.3244

>  <SCORE.INTER.CONST>
1

>  <SCORE.INTER.POLAR>
0

>  <SCORE.INTER.ROT>
0

>  <SCORE.INTER.SOLV>
10.8924

>  <SCORE.INTER.VDW>
-18.7804

>  <SCORE.INTER.norm>
-1.4437

>  <SCORE.INTRA>
0

>  <SCORE.INTRA.DIHEDRAL>
0

>  <SCORE.INTRA.DIHEDRAL.0>
0

>  <SCORE.INTRA.POLAR>
0

>  <SCORE.INTRA.POLAR.0>
0

>  <SCORE.INTRA.REPUL>
0

>  <SCORE.INTRA.REPUL.0>
0

>  <SCORE.INTRA.SOLV>
0

>  <SCORE.INTRA.SOLV.lig_0>
-28.9128

>  <SCORE.INTRA.VDW>
0

>  <SCORE.INTRA.VDW.0>
0

>  <SCORE.INTRA.norm>
0

>  <SCORE.RESTR>
0

>  <SCORE.RESTR.CAVITY>
0

>  <SCORE.RESTR.norm>
0

>  <SCORE.SYSTEM>
0

>  <SCORE.SYSTEM.CONST>
0

>  <SCORE.SYSTEM.DIHEDRAL>
0

>  <SCORE.SYSTEM.SOLV>
0

>  <SCORE.SYSTEM.norm>
0

>  <SCORE.heavy>
12

>  <SCORE.norm>
-1.4437

>  <RMSD>
2.956

$$$$
ligand
 OpenBabel11021811503D
libRbt.so/2013.1/901 2013/11/27
 12 13  0  0  0  0  0  0  0  0999 V2000
   29.5398   16.0656   16.0312 C   0  0  0  0  0  0  0  0  0  0  0  0
   30.9570   17.7607   15.0606 C   0  0  0  0  0  0  0  0  0  0  0  0
   28.8486   14.9362   15.9299 N   0  0  0  0  0  0  0  0  0  0  0  0
   29.5763   16.6998   17.2075 N   0  0  0  0  0  0  0  0  0  0  0  0
   30.2351   16.5806   14.9213 N   0  0  0  0  0  0  0  0  0  0  0  0
   31.5612   18.2126   14.0840 O   0  0  0  0  0  0  0  0  0  0  0  0
   31.6593   20.2003   17.7559 N   0  0  0  0  0  0  0  0  0  0  0  0
   30.9417   19.6211   18.8142 C   0  0  0  0  0  0  0  0  0  0  0  0
   30.2427   18.4190   18.5968 N   0  0  0  0  0  0  0  0  0  0  0  0
   30.2503   17.8442   17.3774 C   0  0  0  0  0  0  0  0  0  0  0  0
   30.9616   18.3978   16.3040 C   0  0  0  0  0  0  0  0  0  0  0  0
   31.6634   19.5808   16.4832 C   0  0  0  0  0  0  0  0  0  0  0  0
  1  3  1  0  0  0  0
  1  4  2  0  0  0  0
  1  5  1  0  0  0  0
  2  6  2  0  0  0  0
  2 11  1  0  0  0  0
  2  5  1  0  0  0  0
  4 10  1  0  0  0  0
  7  8  2  0  0  0  0
  7 12  1  0  0  0  0
  8  9  1  0  0  0  0
  9 10  2  0  0  0  0
 10 11  1  0  0  0  0
 11 12  2  0  0  0  0
M  END
>  <CHROM.1>
30.53549909,17.83770018,16.50617360,2.19166717,-0.94547695,-2.03424055

>  <Name>
ligand

>  <RI>
0

>  <Rbt.Current_Directory>
/home/itssahil/PROJECTS/Mol_Feturizer/New_Systems/rnas/4LX6

>  <Rbt.Executable>
rbdock ($Id: //depot/dev/client3/rdock/2013.1/src/exe/rbdock.cxx#4 $)

>  <Rbt.Library>
libRbt.so (2013.1, Build901 2013/11/27)

>  <Rbt.Parameter_File>
/export/apps/rDock/src/rDock_2013.1_src/data/scripts/dock_solv.prm

>  <Rbt.Receptor>
prm/blind_docking_80.prm

>  <SCORE>
-17.3243

>  <SCORE.INTER>
-17.3243

>  <SCORE.INTER.CONST>
1

>  <SCORE.INTER.POLAR>
0

>  <SCORE.INTER.ROT>
0

>  <SCORE.INTER.SOLV>
10.9369

>  <SCORE.INTER.VDW>
-18.7951

>  <SCORE.INTER.norm>
-1.44369

>  <SCORE.INTRA>
0

>  <SCORE.INTRA.DIHEDRAL>
0

>  <SCORE.INTRA.DIHEDRAL.0>
0

>  <SCORE.INTRA.POLAR>
0

>  <SCORE.INTRA.POLAR.0>
0

>  <SCORE.INTRA.REPUL>
0

>  <SCORE.INTRA.REPUL.0>
0

>  <SCORE.INTRA.SOLV>
0

>  <SCORE.INTRA.SOLV.lig_0>
-28.9128

>  <SCORE.INTRA.VDW>
0

>  <SCORE.INTRA.VDW.0>
0

>  <SCORE.INTRA.norm>
0

>  <SCORE.RESTR>
0

>  <SCORE.RESTR.CAVITY>
0

>  <SCORE.RESTR.norm>
0

>  <SCORE.SYSTEM>
0

>  <SCORE.SYSTEM.CONST>
0

>  <SCORE.SYSTEM.DIHEDRAL>
0

>  <SCORE.SYSTEM.SOLV>
0

>  <SCORE.SYSTEM.norm>
0

>  <SCORE.heavy>
12

>  <SCORE.norm>
-1.44369

>  <RMSD>
2.957

$$$$
ligand
 OpenBabel11021811503D
libRbt.so/2013.1/901 2013/11/27
 12 13  0  0  0  0  0  0  0  0999 V2000
   29.5333   16.0669   16.0263 C   0  0  0  0  0  0  0  0  0  0  0  0
   30.9715   17.7506   15.0668 C   0  0  0  0  0  0  0  0  0  0  0  0
   28.8390   14.9398   15.9214 N   0  0  0  0  0  0  0  0  0  0  0  0
   29.5550   16.7080   17.1992 N   0  0  0  0  0  0  0  0  0  0  0  0
   30.2469   16.5727   14.9238 N   0  0  0  0  0  0  0  0  0  0  0  0
   31.5918   18.1943   14.0965 O   0  0  0  0  0  0  0  0  0  0  0  0
   31.6440   20.2033   17.7578 N   0  0  0  0  0  0  0  0  0  0  0  0
   30.9086   19.6332   18.8088 C   0  0  0  0  0  0  0  0  0  0  0  0
   30.2079   18.4326   18.5882 N   0  0  0  0  0  0  0  0  0  0  0  0
   30.2312   17.8507   17.3724 C   0  0  0  0  0  0  0  0  0  0  0  0
   30.9604   18.3951   16.3064 C   0  0  0  0  0  0  0  0  0  0  0  0
   31.6643   19.5763   16.4889 C   0  0  0  0  0  0  0  0  0  0  0  0
  1  3  1  0  0  0  0
  1  4  2  0  0  0  0
  1  5  1  0  0  0  0
  2  6  2  0  0  0  0
  2 11  1  0  0  0  0
  2  5  1  0  0  0  0
  4 10  1  0  0  0  0
  7  8  2  0  0  0  0
  7 12  1  0  0  0  0
  8  9  1  0  0  0  0
  9 10  2  0  0  0  0
 10 11  1  0  0  0  0
 11 12  2  0  0  0  0
M  END
>  <CHROM.1>
30.52908076,17.83783719,16.50550118,2.17258399,-0.93516240,-2.05552330

>  <Name>
ligand

>  <RI>
0

>  <Rbt.Current_Directory>
/home/itssahil/PROJECTS/Mol_Feturizer/New_Systems/rnas/4LX6

>  <Rbt.Executable>
rbdock ($Id: //depot/dev/client3/rdock/2013.1/src/exe/rbdock.cxx#4 $)

>  <Rbt.Library>
libRbt.so (2013.1, Build901 2013/11/27)

>  <Rbt.Parameter_File>
/export/apps/rDock/src/rDock_2013.1_src/data/scripts/dock_solv.prm

>  <Rbt.Receptor>
prm/pocket_docking_4.prm

>  <SCORE>
-17.3101

>  <SCORE.INTER>
-17.3101

>  <SCORE.INTER.CONST>
1

>  <SCORE.INTER.POLAR>
0

>  <SCORE.INTER.ROT>
0

>  <SCORE.INTER.SOLV>
10.9086

>  <SCORE.INTER.VDW>
-18.7762

>  <SCORE.INTER.norm>
-1.44251

>  <SCORE.INTRA>
0

>  <SCORE.INTRA.DIHEDRAL>
0

>  <SCORE.INTRA.DIHEDRAL.0>
0

>  <SCORE.INTRA.POLAR>
0

>  <SCORE.INTRA.POLAR.0>
0

>  <SCORE.INTRA.REPUL>
0

>  <SCORE.INTRA.REPUL.0>
0

>  <SCORE.INTRA.SOLV>
0

>  <SCORE.INTRA.SOLV.lig_0>
-28.9128

>  <SCORE.INTRA.VDW>
0

>  <SCORE.INTRA.VDW.0>
0

>  <SCORE.INTRA.norm>
0

>  <SCORE.RESTR>
0

>  <SCORE.RESTR.CAVITY>
0

>  <SCORE.RESTR.norm>
0

>  <SCORE.SYSTEM>
0

>  <SCORE.SYSTEM.CONST>
0

>  <SCORE.SYSTEM.DIHEDRAL>
0

>  <SCORE.SYSTEM.SOLV>
0

>  <SCORE.SYSTEM.norm>
0

>  <SCORE.heavy>
12

>  <SCORE.norm>
-1.44251

>  <RMSD>
2.957

$$$$
ligand
 OpenBabel11021811503D
libRbt.so/2013.1/901 2013/11/27
 12 13  0  0  0  0  0  0  0  0999 V2000
   29.5165   16.0999   16.0310 C   0  0  0  0  0  0  0  0  0  0  0  0
   30.9718   17.7663   15.0671 C   0  0  0  0  0  0  0  0  0  0  0  0
   28.8049   14.9835   15.9270 N   0  0  0  0  0  0  0  0  0  0  0  0
   29.5569   16.7356   17.2064 N   0  0  0  0  0  0  0  0  0  0  0  0
   30.2289   16.5997   14.9250 N   0  0  0  0  0  0  0  0  0  0  0  0
   31.5910   18.2049   14.0938 O   0  0  0  0  0  0  0  0  0  0  0  0
   31.7015   20.1974   17.7628 N   0  0  0  0  0  0  0  0  0  0  0  0
   30.9660   19.6338   18.8171 C   0  0  0  0  0  0  0  0  0  0  0  0
   30.2460   18.4446   18.5972 N   0  0  0  0  0  0  0  0  0  0  0  0
   30.2511   17.8675   17.3789 C   0  0  0  0  0  0  0  0  0  0  0  0
   30.9799   18.4056   16.3094 C   0  0  0  0  0  0  0  0  0  0  0  0
   31.7026   19.5755   16.4912 C   0  0  0  0  0  0  0  0  0  0  0  0
  1  3  1  0  0  0  0
  1  4  2  0  0  0  0
  1  5  1  0  0  0  0
  2  6  2  0  0  0  0
  2 11  1  0  0  0  0
  2  5  1  0  0  0  0
  4 10  1  0  0  0  0
  7  8  2  0  0  0  0
  7 12  1  0  0  0  0
  8  9  1  0  0  0  0
  9 10  2  0  0  0  0
 10 11  1  0  0  0  0
 11 12  2  0  0  0  0
M  END
>  <CHROM.1>
30.54203050,17.85392347,16.50960500,2.19552608,-0.92563334,-2.03298260

>  <Name>
ligand

>  <RI>
0

>  <Rbt.Current_Directory>
/home/itssahil/PROJECTS/Mol_Feturizer/New_Systems/rnas/4LX6

>  <Rbt.Executable>
rbdock ($Id: //depot/dev/client3/rdock/2013.1/src/exe/rbdock.cxx#4 $)

>  <Rbt.Library>
libRbt.so (2013.1, Build901 2013/11/27)

>  <Rbt.Parameter_File>
/export/apps/rDock/src/rDock_2013.1_src/data/scripts/dock_solv.prm

>  <Rbt.Receptor>
prm/pocket_docking_5.prm

>  <SCORE>
-17.2495

>  <SCORE.INTER>
-17.2495

>  <SCORE.INTER.CONST>
1

>  <SCORE.INTER.POLAR>
0

>  <SCORE.INTER.ROT>
0

>  <SCORE.INTER.SOLV>
10.7237

>  <SCORE.INTER.VDW>
-18.6742

>  <SCORE.INTER.norm>
-1.43746

>  <SCORE.INTRA>
0

>  <SCORE.INTRA.DIHEDRAL>
0

>  <SCORE.INTRA.DIHEDRAL.0>
0

>  <SCORE.INTRA.POLAR>
0

>  <SCORE.INTRA.POLAR.0>
0

>  <SCORE.INTRA.REPUL>
0

>  <SCORE.INTRA.REPUL.0>
0

>  <SCORE.INTRA.SOLV>
0

>  <SCORE.INTRA.SOLV.lig_0>
-28.9128

>  <SCORE.INTRA.VDW>
0

>  <SCORE.INTRA.VDW.0>
0

>  <SCORE.INTRA.norm>
0

>  <SCORE.RESTR>
0

>  <SCORE.RESTR.CAVITY>
0

>  <SCORE.RESTR.norm>
0

>  <SCORE.SYSTEM>
0

>  <SCORE.SYSTEM.CONST>
0

>  <SCORE.SYSTEM.DIHEDRAL>
0

>  <SCORE.SYSTEM.SOLV>
0

>  <SCORE.SYSTEM.norm>
0

>  <SCORE.heavy>
12

>  <SCORE.norm>
-1.43746

>  <RMSD>
2.957

$$$$
ligand
 OpenBabel11021811503D
libRbt.so/2013.1/901 2013/11/27
 12 13  0  0  0  0  0  0  0  0999 V2000
   29.5691   16.0583   16.0380 C   0  0  0  0  0  0  0  0  0  0  0  0
   30.9993   17.7515   15.0831 C   0  0  0  0  0  0  0  0  0  0  0  0
   28.8823   14.9268   15.9308 N   0  0  0  0  0  0  0  0  0  0  0  0
   29.5834   16.6991   17.2112 N   0  0  0  0  0  0  0  0  0  0  0  0
   30.2827   16.5690   14.9377 N   0  0  0  0  0  0  0  0  0  0  0  0
   31.6195   18.1995   14.1148 O   0  0  0  0  0  0  0  0  0  0  0  0
   31.6484   20.2076   17.7768 N   0  0  0  0  0  0  0  0  0  0  0  0
   30.9136   19.6325   18.8255 C   0  0  0  0  0  0  0  0  0  0  0  0
   30.2212   18.4275   18.6025 N   0  0  0  0  0  0  0  0  0  0  0  0
   30.2517   17.8461   17.3867 C   0  0  0  0  0  0  0  0  0  0  0  0
   30.9805   18.3955   16.3229 C   0  0  0  0  0  0  0  0  0  0  0  0
   31.6763   19.5811   16.5078 C   0  0  0  0  0  0  0  0  0  0  0  0
  1  3  1  0  0  0  0
  1  4  2  0  0  0  0
  1  5  1  0  0  0  0
  2  6  2  0  0  0  0
  2 11  1  0  0  0  0
  2  5  1  0  0  0  0
  4 10  1  0  0  0  0
  7  8  2  0  0  0  0
  7 12  1  0  0  0  0
  8  9  1  0  0  0  0
  9 10  2  0  0  0  0
 10 11  1  0  0  0  0
 11 12  2  0  0  0  0
M  END
>  <CHROM.1>
30.55218852,17.83542690,16.52060644,2.16323808,-0.93945723,-2.06275121

>  <Name>
ligand

>  <RI>
0

>  <Rbt.Current_Directory>
/home/itssahil/PROJECTS/Mol_Feturizer/New_Systems/rnas/4LX6

>  <Rbt.Executable>
rbdock ($Id: //depot/dev/client3/rdock/2013.1/src/exe/rbdock.cxx#4 $)

>  <Rbt.Library>
libRbt.so (2013.1, Build901 2013/11/27)

>  <Rbt.Parameter_File>
/export/apps/rDock/src/rDock_2013.1_src/data/scripts/dock_solv.prm

>  <Rbt.Receptor>
prm/pocket_docking_5.prm

>  <SCORE>
-17.3312

>  <SCORE.INTER>
-17.3312

>  <SCORE.INTER.CONST>
1

>  <SCORE.INTER.POLAR>
0

>  <SCORE.INTER.ROT>
0

>  <SCORE.INTER.SOLV>
11.09

>  <SCORE.INTER.VDW>
-18.8508

>  <SCORE.INTER.norm>
-1.44426

>  <SCORE.INTRA>
0

>  <SCORE.INTRA.DIHEDRAL>
0

>  <SCORE.INTRA.DIHEDRAL.0>
0

>  <SCORE.INTRA.POLAR>
0

>  <SCORE.INTRA.POLAR.0>
0

>  <SCORE.INTRA.REPUL>
0

>  <SCORE.INTRA.REPUL.0>
0

>  <SCORE.INTRA.SOLV>
0

>  <SCORE.INTRA.SOLV.lig_0>
-28.9128

>  <SCORE.INTRA.VDW>
0

>  <SCORE.INTRA.VDW.0>
0

>  <SCORE.INTRA.norm>
0

>  <SCORE.RESTR>
0

>  <SCORE.RESTR.CAVITY>
0

>  <SCORE.RESTR.norm>
0

>  <SCORE.SYSTEM>
0

>  <SCORE.SYSTEM.CONST>
0

>  <SCORE.SYSTEM.DIHEDRAL>
0

>  <SCORE.SYSTEM.SOLV>
0

>  <SCORE.SYSTEM.norm>
0

>  <SCORE.heavy>
12

>  <SCORE.norm>
-1.44426

>  <RMSD>
2.957

$$$$
ligand
 OpenBabel11021811503D
libRbt.so/2013.1/901 2013/11/27
 12 13  0  0  0  0  0  0  0  0999 V2000
   29.4589   16.1763   16.0093 C   0  0  0  0  0  0  0  0  0  0  0  0
   30.9086   17.8674   15.0806 C   0  0  0  0  0  0  0  0  0  0  0  0
   28.7427   15.0656   15.8791 N   0  0  0  0  0  0  0  0  0  0  0  0
   29.5144   16.7755   17.2031 N   0  0  0  0  0  0  0  0  0  0  0  0
   30.1605   16.7079   14.9112 N   0  0  0  0  0  0  0  0  0  0  0  0
   31.5183   18.3340   14.1144 O   0  0  0  0  0  0  0  0  0  0  0  0
   31.6759   20.2126   17.8413 N   0  0  0  0  0  0  0  0  0  0  0  0
   30.9504   19.6189   18.8861 C   0  0  0  0  0  0  0  0  0  0  0  0
   30.2243   18.4390   18.6378 N   0  0  0  0  0  0  0  0  0  0  0  0
   30.2140   17.8996   17.4024 C   0  0  0  0  0  0  0  0  0  0  0  0
   30.9326   18.4683   16.3418 C   0  0  0  0  0  0  0  0  0  0  0  0
   31.6608   19.6300   16.5513 C   0  0  0  0  0  0  0  0  0  0  0  0
  1  3  1  0  0  0  0
  1  4  2  0  0  0  0
  1  5  1  0  0  0  0
  2  6  2  0  0  0  0
  2 11  1  0  0  0  0
  2  5  1  0  0  0  0
  4 10  1  0  0  0  0
  7  8  2  0  0  0  0
  7 12  1  0  0  0  0
  8  9  1  0  0  0  0
  9 10  2  0  0  0  0
 10 11  1  0  0  0  0
 11 12  2  0  0  0  0
M  END
>  <CHROM.1>
30.49519853,17.91193412,16.52993217,2.21448231,-0.92771499,-1.98711206

>  <Name>
ligand

>  <RI>
0

>  <Rbt.Current_Directory>
/home/itssahil/PROJECTS/Mol_Feturizer/New_Systems/rnas/4LX6

>  <Rbt.Executable>
rbdock ($Id: //depot/dev/client3/rdock/2013.1/src/exe/rbdock.cxx#4 $)

>  <Rbt.Library>
libRbt.so (2013.1, Build901 2013/11/27)

>  <Rbt.Parameter_File>
/export/apps/rDock/src/rDock_2013.1_src/data/scripts/dock_solv.prm

>  <Rbt.Receptor>
prm/pocket_docking_6.prm

>  <SCORE>
-17.2695

>  <SCORE.INTER>
-17.2695

>  <SCORE.INTER.CONST>
1

>  <SCORE.INTER.POLAR>
0

>  <SCORE.INTER.ROT>
0

>  <SCORE.INTER.SOLV>
10.3287

>  <SCORE.INTER.VDW>
-18.5559

>  <SCORE.INTER.norm>
-1.43913

>  <SCORE.INTRA>
0

>  <SCORE.INTRA.DIHEDRAL>
0

>  <SCORE.INTRA.DIHEDRAL.0>
0

>  <SCORE.INTRA.POLAR>
0

>  <SCORE.INTRA.POLAR.0>
0

>  <SCORE.INTRA.REPUL>
0

>  <SCORE.INTRA.REPUL.0>
0

>  <SCORE.INTRA.SOLV>
0

>  <SCORE.INTRA.SOLV.lig_0>
-28.9128

>  <SCORE.INTRA.VDW>
0

>  <SCORE.INTRA.VDW.0>
0

>  <SCORE.INTRA.norm>
0

>  <SCORE.RESTR>
0

>  <SCORE.RESTR.CAVITY>
0

>  <SCORE.RESTR.norm>
0

>  <SCORE.SYSTEM>
0

>  <SCORE.SYSTEM.CONST>
0

>  <SCORE.SYSTEM.DIHEDRAL>
0

>  <SCORE.SYSTEM.SOLV>
0

>  <SCORE.SYSTEM.norm>
0

>  <SCORE.heavy>
12

>  <SCORE.norm>
-1.43913

>  <RMSD>
2.957

$$$$
ligand
 OpenBabel11021811503D
libRbt.so/2013.1/901 2013/11/27
 12 13  0  0  0  0  0  0  0  0999 V2000
   29.5704   16.0685   16.0380 C   0  0  0  0  0  0  0  0  0  0  0  0
   31.0093   17.7593   15.0922 C   0  0  0  0  0  0  0  0  0  0  0  0
   28.8805   14.9394   15.9258 N   0  0  0  0  0  0  0  0  0  0  0  0
   29.5822   16.7068   17.2127 N   0  0  0  0  0  0  0  0  0  0  0  0
   30.2897   16.5793   14.9415 N   0  0  0  0  0  0  0  0  0  0  0  0
   31.6346   18.2074   14.1272 O   0  0  0  0  0  0  0  0  0  0  0  0
   31.6558   20.2076   17.7936 N   0  0  0  0  0  0  0  0  0  0  0  0
   30.9153   19.6325   18.8382 C   0  0  0  0  0  0  0  0  0  0  0  0
   30.2201   18.4302   18.6101 N   0  0  0  0  0  0  0  0  0  0  0  0
   30.2534   17.8513   17.3931 C   0  0  0  0  0  0  0  0  0  0  0  0
   30.9879   18.4007   16.3333 C   0  0  0  0  0  0  0  0  0  0  0  0
   31.6866   19.5838   16.5234 C   0  0  0  0  0  0  0  0  0  0  0  0
  1  3  1  0  0  0  0
  1  4  2  0  0  0  0
  1  5  1  0  0  0  0
  2  6  2  0  0  0  0
  2 11  1  0  0  0  0
  2  5  1  0  0  0  0
  4 10  1  0  0  0  0
  7  8  2  0  0  0  0
  7 12  1  0  0  0  0
  8  9  1  0  0  0  0
  9 10  2  0  0  0  0
 10 11  1  0  0  0  0
 11 12  2  0  0  0  0
M  END
>  <CHROM.1>
30.55708907,17.84155327,16.52816446,2.16007302,-0.93496192,-2.06316057

>  <Name>
ligand

>  <RI>
0

>  <Rbt.Current_Directory>
/home/itssahil/PROJECTS/Mol_Feturizer/New_Systems/rnas/4LX6

>  <Rbt.Executable>
rbdock ($Id: //depot/dev/client3/rdock/2013.1/src/exe/rbdock.cxx#4 $)

>  <Rbt.Library>
libRbt.so (2013.1, Build901 2013/11/27)

>  <Rbt.Parameter_File>
/export/apps/rDock/src/rDock_2013.1_src/data/scripts/dock_solv.prm

>  <Rbt.Receptor>
prm/pocket_docking_7.prm

>  <SCORE>
-17.3054

>  <SCORE.INTER>
-17.3054

>  <SCORE.INTER.CONST>
1

>  <SCORE.INTER.POLAR>
0

>  <SCORE.INTER.ROT>
0

>  <SCORE.INTER.SOLV>
11.0692

>  <SCORE.INTER.VDW>
-18.8267

>  <SCORE.INTER.norm>
-1.44212

>  <SCORE.INTRA>
0

>  <SCORE.INTRA.DIHEDRAL>
0

>  <SCORE.INTRA.DIHEDRAL.0>
0

>  <SCORE.INTRA.POLAR>
0

>  <SCORE.INTRA.POLAR.0>
0

>  <SCORE.INTRA.REPUL>
0

>  <SCORE.INTRA.REPUL.0>
0

>  <SCORE.INTRA.SOLV>
0

>  <SCORE.INTRA.SOLV.lig_0>
-28.9128

>  <SCORE.INTRA.VDW>
0

>  <SCORE.INTRA.VDW.0>
0

>  <SCORE.INTRA.norm>
0

>  <SCORE.RESTR>
0

>  <SCORE.RESTR.CAVITY>
0

>  <SCORE.RESTR.norm>
0

>  <SCORE.SYSTEM>
0

>  <SCORE.SYSTEM.CONST>
0

>  <SCORE.SYSTEM.DIHEDRAL>
0

>  <SCORE.SYSTEM.SOLV>
0

>  <SCORE.SYSTEM.norm>
0

>  <SCORE.heavy>
12

>  <SCORE.norm>
-1.44212

>  <RMSD>
2.957

$$$$
ligand
 OpenBabel11021811503D
libRbt.so/2013.1/901 2013/11/27
 12 13  0  0  0  0  0  0  0  0999 V2000
   29.5676   16.0615   16.0360 C   0  0  0  0  0  0  0  0  0  0  0  0
   31.0022   17.7515   15.0821 C   0  0  0  0  0  0  0  0  0  0  0  0
   28.8780   14.9318   15.9282 N   0  0  0  0  0  0  0  0  0  0  0  0
   29.5835   16.7016   17.2096 N   0  0  0  0  0  0  0  0  0  0  0  0
   30.2826   16.5709   14.9360 N   0  0  0  0  0  0  0  0  0  0  0  0
   31.6236   18.1984   14.1141 O   0  0  0  0  0  0  0  0  0  0  0  0
   31.6575   20.2044   17.7772 N   0  0  0  0  0  0  0  0  0  0  0  0
   30.9212   19.6306   18.8255 C   0  0  0  0  0  0  0  0  0  0  0  0
   30.2258   18.4275   18.6019 N   0  0  0  0  0  0  0  0  0  0  0  0
   30.2548   17.8467   17.3857 C   0  0  0  0  0  0  0  0  0  0  0  0
   30.9850   18.3948   16.3223 C   0  0  0  0  0  0  0  0  0  0  0  0
   31.6839   19.5786   16.5079 C   0  0  0  0  0  0  0  0  0  0  0  0
  1  3  1  0  0  0  0
  1  4  2  0  0  0  0
  1  5  1  0  0  0  0
  2  6  2  0  0  0  0
  2 11  1  0  0  0  0
  2  5  1  0  0  0  0
  4 10  1  0  0  0  0
  7  8  2  0  0  0  0
  7 12  1  0  0  0  0
  8  9  1  0  0  0  0
  9 10  2  0  0  0  0
 10 11  1  0  0  0  0
 11 12  2  0  0  0  0
M  END
>  <CHROM.1>
30.55528170,17.83580537,16.51965134,2.16524180,-0.93717640,-2.06058007

>  <Name>
ligand

>  <RI>
0

>  <Rbt.Current_Directory>
/home/itssahil/PROJECTS/Mol_Feturizer/New_Systems/rnas/4LX6

>  <Rbt.Executable>
rbdock ($Id: //depot/dev/client3/rdock/2013.1/src/exe/rbdock.cxx#4 $)

>  <Rbt.Library>
libRbt.so (2013.1, Build901 2013/11/27)

>  <Rbt.Parameter_File>
/export/apps/rDock/src/rDock_2013.1_src/data/scripts/dock_solv.prm

>  <Rbt.Receptor>
prm/pocket_docking_8.prm

>  <SCORE>
-17.3331

>  <SCORE.INTER>
-17.3331

>  <SCORE.INTER.CONST>
1

>  <SCORE.INTER.POLAR>
0

>  <SCORE.INTER.ROT>
0

>  <SCORE.INTER.SOLV>
11.0677

>  <SCORE.INTER.VDW>
-18.8446

>  <SCORE.INTER.norm>
-1.44443

>  <SCORE.INTRA>
0

>  <SCORE.INTRA.DIHEDRAL>
0

>  <SCORE.INTRA.DIHEDRAL.0>
0

>  <SCORE.INTRA.POLAR>
0

>  <SCORE.INTRA.POLAR.0>
0

>  <SCORE.INTRA.REPUL>
0

>  <SCORE.INTRA.REPUL.0>
0

>  <SCORE.INTRA.SOLV>
0

>  <SCORE.INTRA.SOLV.lig_0>
-28.9128

>  <SCORE.INTRA.VDW>
0

>  <SCORE.INTRA.VDW.0>
0

>  <SCORE.INTRA.norm>
0

>  <SCORE.RESTR>
0

>  <SCORE.RESTR.CAVITY>
0

>  <SCORE.RESTR.norm>
0

>  <SCORE.SYSTEM>
0

>  <SCORE.SYSTEM.CONST>
0

>  <SCORE.SYSTEM.DIHEDRAL>
0

>  <SCORE.SYSTEM.SOLV>
0

>  <SCORE.SYSTEM.norm>
0

>  <SCORE.heavy>
12

>  <SCORE.norm>
-1.44443

>  <RMSD>
2.957

$$$$
ligand
 OpenBabel11021811503D
libRbt.so/2013.1/901 2013/11/27
 12 13  0  0  0  0  0  0  0  0999 V2000
   29.5680   16.0639   16.0365 C   0  0  0  0  0  0  0  0  0  0  0  0
   31.0047   17.7517   15.0821 C   0  0  0  0  0  0  0  0  0  0  0  0
   28.8769   14.9350   15.9290 N   0  0  0  0  0  0  0  0  0  0  0  0
   29.5849   16.7042   17.2099 N   0  0  0  0  0  0  0  0  0  0  0  0
   30.2835   16.5720   14.9364 N   0  0  0  0  0  0  0  0  0  0  0  0
   31.6266   18.1976   14.1139 O   0  0  0  0  0  0  0  0  0  0  0  0
   31.6635   20.2044   17.7765 N   0  0  0  0  0  0  0  0  0  0  0  0
   30.9266   19.6319   18.8250 C   0  0  0  0  0  0  0  0  0  0  0  0
   30.2295   18.4296   18.6018 N   0  0  0  0  0  0  0  0  0  0  0  0
   30.2577   17.8485   17.3857 C   0  0  0  0  0  0  0  0  0  0  0  0
   30.9885   18.3954   16.3221 C   0  0  0  0  0  0  0  0  0  0  0  0
   31.6889   19.5782   16.5073 C   0  0  0  0  0  0  0  0  0  0  0  0
  1  3  1  0  0  0  0
  1  4  2  0  0  0  0
  1  5  1  0  0  0  0
  2  6  2  0  0  0  0
  2 11  1  0  0  0  0
  2  5  1  0  0  0  0
  4 10  1  0  0  0  0
  7  8  2  0  0  0  0
  7 12  1  0  0  0  0
  8  9  1  0  0  0  0
  9 10  2  0  0  0  0
 10 11  1  0  0  0  0
 11 12  2  0  0  0  0
M  END
>  <CHROM.1>
30.55805899,17.83696572,16.51963843,2.16640937,-0.93604838,-2.05989279

>  <Name>
ligand

>  <RI>
0

>  <Rbt.Current_Directory>
/home/itssahil/PROJECTS/Mol_Feturizer/New_Systems/rnas/4LX6

>  <Rbt.Executable>
rbdock ($Id: //depot/dev/client3/rdock/2013.1/src/exe/rbdock.cxx#4 $)

>  <Rbt.Library>
libRbt.so (2013.1, Build901 2013/11/27)

>  <Rbt.Parameter_File>
/export/apps/rDock/src/rDock_2013.1_src/data/scripts/dock_solv.prm

>  <Rbt.Receptor>
prm/pocket_docking_8.prm

>  <SCORE>
-17.3324

>  <SCORE.INTER>
-17.3324

>  <SCORE.INTER.CONST>
1

>  <SCORE.INTER.POLAR>
0

>  <SCORE.INTER.ROT>
0

>  <SCORE.INTER.SOLV>
11.0611

>  <SCORE.INTER.VDW>
-18.842

>  <SCORE.INTER.norm>
-1.44437

>  <SCORE.INTRA>
0

>  <SCORE.INTRA.DIHEDRAL>
0

>  <SCORE.INTRA.DIHEDRAL.0>
0

>  <SCORE.INTRA.POLAR>
0

>  <SCORE.INTRA.POLAR.0>
0

>  <SCORE.INTRA.REPUL>
0

>  <SCORE.INTRA.REPUL.0>
0

>  <SCORE.INTRA.SOLV>
0

>  <SCORE.INTRA.SOLV.lig_0>
-28.9128

>  <SCORE.INTRA.VDW>
0

>  <SCORE.INTRA.VDW.0>
0

>  <SCORE.INTRA.norm>
0

>  <SCORE.RESTR>
0

>  <SCORE.RESTR.CAVITY>
0

>  <SCORE.RESTR.norm>
0

>  <SCORE.SYSTEM>
0

>  <SCORE.SYSTEM.CONST>
0

>  <SCORE.SYSTEM.DIHEDRAL>
0

>  <SCORE.SYSTEM.SOLV>
0

>  <SCORE.SYSTEM.norm>
0

>  <SCORE.heavy>
12

>  <SCORE.norm>
-1.44437

>  <RMSD>
2.957

$$$$
ligand
 OpenBabel11021811503D
libRbt.so/2013.1/901 2013/11/27
 12 13  0  0  0  0  0  0  0  0999 V2000
   29.5125   16.0900   16.0255 C   0  0  0  0  0  0  0  0  0  0  0  0
   30.9750   17.7595   15.0781 C   0  0  0  0  0  0  0  0  0  0  0  0
   28.8022   14.9736   15.9126 N   0  0  0  0  0  0  0  0  0  0  0  0
   29.5428   16.7226   17.2029 N   0  0  0  0  0  0  0  0  0  0  0  0
   30.2338   16.5931   14.9268 N   0  0  0  0  0  0  0  0  0  0  0  0
   31.6020   18.2010   14.1112 O   0  0  0  0  0  0  0  0  0  0  0  0
   31.6812   20.1838   17.7862 N   0  0  0  0  0  0  0  0  0  0  0  0
   30.9372   19.6171   18.8330 C   0  0  0  0  0  0  0  0  0  0  0  0
   30.2196   18.4281   18.6039 N   0  0  0  0  0  0  0  0  0  0  0  0
   30.2351   17.8543   17.3842 C   0  0  0  0  0  0  0  0  0  0  0  0
   30.9725   18.3955   16.3222 C   0  0  0  0  0  0  0  0  0  0  0  0
   31.6931   19.5653   16.5131 C   0  0  0  0  0  0  0  0  0  0  0  0
  1  3  1  0  0  0  0
  1  4  2  0  0  0  0
  1  5  1  0  0  0  0
  2  6  2  0  0  0  0
  2 11  1  0  0  0  0
  2  5  1  0  0  0  0
  4 10  1  0  0  0  0
  7  8  2  0  0  0  0
  7 12  1  0  0  0  0
  8  9  1  0  0  0  0
  9 10  2  0  0  0  0
 10 11  1  0  0  0  0
 11 12  2  0  0  0  0
M  END
>  <CHROM.1>
30.53321200,17.84317318,16.51727088,2.18291112,-0.92229376,-2.04037592

>  <Name>
ligand

>  <RI>
0

>  <Rbt.Current_Directory>
/home/itssahil/PROJECTS/Mol_Feturizer/New_Systems/rnas/4LX6

>  <Rbt.Executable>
rbdock ($Id: //depot/dev/client3/rdock/2013.1/src/exe/rbdock.cxx#4 $)

>  <Rbt.Library>
libRbt.so (2013.1, Build901 2013/11/27)

>  <Rbt.Parameter_File>
/export/apps/rDock/src/rDock_2013.1_src/data/scripts/dock_solv.prm

>  <Rbt.Receptor>
prm/blind_docking_80.prm

>  <SCORE>
-17.2889

>  <SCORE.INTER>
-17.2889

>  <SCORE.INTER.CONST>
1

>  <SCORE.INTER.POLAR>
0

>  <SCORE.INTER.ROT>
0

>  <SCORE.INTER.SOLV>
10.7174

>  <SCORE.INTER.VDW>
-18.6984

>  <SCORE.INTER.norm>
-1.44074

>  <SCORE.INTRA>
0

>  <SCORE.INTRA.DIHEDRAL>
0

>  <SCORE.INTRA.DIHEDRAL.0>
0

>  <SCORE.INTRA.POLAR>
0

>  <SCORE.INTRA.POLAR.0>
0

>  <SCORE.INTRA.REPUL>
0

>  <SCORE.INTRA.REPUL.0>
0

>  <SCORE.INTRA.SOLV>
0

>  <SCORE.INTRA.SOLV.lig_0>
-28.9128

>  <SCORE.INTRA.VDW>
0

>  <SCORE.INTRA.VDW.0>
0

>  <SCORE.INTRA.norm>
0

>  <SCORE.RESTR>
0

>  <SCORE.RESTR.CAVITY>
0

>  <SCORE.RESTR.norm>
0

>  <SCORE.SYSTEM>
0

>  <SCORE.SYSTEM.CONST>
0

>  <SCORE.SYSTEM.DIHEDRAL>
0

>  <SCORE.SYSTEM.SOLV>
0

>  <SCORE.SYSTEM.norm>
0

>  <SCORE.heavy>
12

>  <SCORE.norm>
-1.44074

>  <RMSD>
2.958

$$$$
ligand
 OpenBabel11021811503D
libRbt.so/2013.1/901 2013/11/27
 12 13  0  0  0  0  0  0  0  0999 V2000
   29.5482   16.2732   16.0523 C   0  0  0  0  0  0  0  0  0  0  0  0
   30.9317   18.0231   15.1317 C   0  0  0  0  0  0  0  0  0  0  0  0
   28.8684   15.1407   15.9147 N   0  0  0  0  0  0  0  0  0  0  0  0
   29.5946   16.8595   17.2528 N   0  0  0  0  0  0  0  0  0  0  0  0
   30.2213   16.8412   14.9546 N   0  0  0  0  0  0  0  0  0  0  0  0
   31.5164   18.5215   14.1659 O   0  0  0  0  0  0  0  0  0  0  0  0
   31.6455   20.3595   17.9141 N   0  0  0  0  0  0  0  0  0  0  0  0
   30.9501   19.7292   18.9579 C   0  0  0  0  0  0  0  0  0  0  0  0
   30.2616   18.5286   18.7016 N   0  0  0  0  0  0  0  0  0  0  0  0
   30.2580   18.0041   17.4598 C   0  0  0  0  0  0  0  0  0  0  0  0
   30.9472   18.6092   16.3999 C   0  0  0  0  0  0  0  0  0  0  0  0
   31.6381   19.7923   16.6173 C   0  0  0  0  0  0  0  0  0  0  0  0
  1  3  1  0  0  0  0
  1  4  2  0  0  0  0
  1  5  1  0  0  0  0
  2  6  2  0  0  0  0
  2 11  1  0  0  0  0
  2  5  1  0  0  0  0
  4 10  1  0  0  0  0
  7  8  2  0  0  0  0
  7 12  1  0  0  0  0
  8  9  1  0  0  0  0
  9 10  2  0  0  0  0
 10 11  1  0  0  0  0
 11 12  2  0  0  0  0
M  END
>  <CHROM.1>
30.53050899,18.03631782,16.58505067,2.20562116,-0.96210037,-1.98213172

>  <Name>
ligand

>  <RI>
0

>  <Rbt.Current_Directory>
/home/itssahil/PROJECTS/Mol_Feturizer/New_Systems/rnas/4LX6

>  <Rbt.Executable>
rbdock ($Id: //depot/dev/client3/rdock/2013.1/src/exe/rbdock.cxx#4 $)

>  <Rbt.Library>
libRbt.so (2013.1, Build901 2013/11/27)

>  <Rbt.Parameter_File>
/export/apps/rDock/src/rDock_2013.1_src/data/scripts/dock_solv.prm

>  <Rbt.Receptor>
prm/pocket_docking_7.prm

>  <SCORE>
-17.1691

>  <SCORE.INTER>
-17.1691

>  <SCORE.INTER.CONST>
1

>  <SCORE.INTER.POLAR>
0

>  <SCORE.INTER.ROT>
0

>  <SCORE.INTER.SOLV>
10.824

>  <SCORE.INTER.VDW>
-18.6541

>  <SCORE.INTER.norm>
-1.43076

>  <SCORE.INTRA>
0

>  <SCORE.INTRA.DIHEDRAL>
0

>  <SCORE.INTRA.DIHEDRAL.0>
0

>  <SCORE.INTRA.POLAR>
0

>  <SCORE.INTRA.POLAR.0>
0

>  <SCORE.INTRA.REPUL>
0

>  <SCORE.INTRA.REPUL.0>
0

>  <SCORE.INTRA.SOLV>
0

>  <SCORE.INTRA.SOLV.lig_0>
-28.9128

>  <SCORE.INTRA.VDW>
0

>  <SCORE.INTRA.VDW.0>
0

>  <SCORE.INTRA.norm>
0

>  <SCORE.RESTR>
0

>  <SCORE.RESTR.CAVITY>
0

>  <SCORE.RESTR.norm>
0

>  <SCORE.SYSTEM>
0

>  <SCORE.SYSTEM.CONST>
0

>  <SCORE.SYSTEM.DIHEDRAL>
0

>  <SCORE.SYSTEM.SOLV>
0

>  <SCORE.SYSTEM.norm>
0

>  <SCORE.heavy>
12

>  <SCORE.norm>
-1.43076

>  <RMSD>
2.958

$$$$
ligand
 OpenBabel11021811503D
libRbt.so/2013.1/901 2013/11/27
 12 13  0  0  0  0  0  0  0  0999 V2000
   29.5364   16.0664   16.0318 C   0  0  0  0  0  0  0  0  0  0  0  0
   30.9604   17.7576   15.0642 C   0  0  0  0  0  0  0  0  0  0  0  0
   28.8429   14.9385   15.9292 N   0  0  0  0  0  0  0  0  0  0  0  0
   29.5707   16.7014   17.2077 N   0  0  0  0  0  0  0  0  0  0  0  0
   30.2363   16.5791   14.9237 N   0  0  0  0  0  0  0  0  0  0  0  0
   31.5685   18.2074   14.0891 O   0  0  0  0  0  0  0  0  0  0  0  0
   31.6600   20.1976   17.7599 N   0  0  0  0  0  0  0  0  0  0  0  0
   30.9379   19.6208   18.8164 C   0  0  0  0  0  0  0  0  0  0  0  0
   30.2368   18.4201   18.5978 N   0  0  0  0  0  0  0  0  0  0  0  0
   30.2469   17.8445   17.3789 C   0  0  0  0  0  0  0  0  0  0  0  0
   30.9626   18.3956   16.3072 C   0  0  0  0  0  0  0  0  0  0  0  0
   31.6665   19.5772   16.4876 C   0  0  0  0  0  0  0  0  0  0  0  0
  1  3  1  0  0  0  0
  1  4  2  0  0  0  0
  1  5  1  0  0  0  0
  2  6  2  0  0  0  0
  2 11  1  0  0  0  0
  2  5  1  0  0  0  0
  4 10  1  0  0  0  0
  7  8  2  0  0  0  0
  7 12  1  0  0  0  0
  8  9  1  0  0  0  0
  9 10  2  0  0  0  0
 10 11  1  0  0  0  0
 11 12  2  0  0  0  0
M  END
>  <CHROM.1>
30.53466204,17.83662944,16.50848698,2.18876759,-0.94209530,-2.03732119

>  <Name>
ligand

>  <RI>
0

>  <Rbt.Current_Directory>
/home/itssahil/PROJECTS/Mol_Feturizer/New_Systems/rnas/4LX6

>  <Rbt.Executable>
rbdock ($Id: //depot/dev/client3/rdock/2013.1/src/exe/rbdock.cxx#4 $)

>  <Rbt.Library>
libRbt.so (2013.1, Build901 2013/11/27)

>  <Rbt.Parameter_File>
/export/apps/rDock/src/rDock_2013.1_src/data/scripts/dock_solv.prm

>  <Rbt.Receptor>
prm/pocket_docking_8.prm

>  <SCORE>
-17.3234

>  <SCORE.INTER>
-17.3234

>  <SCORE.INTER.CONST>
1

>  <SCORE.INTER.POLAR>
0

>  <SCORE.INTER.ROT>
0

>  <SCORE.INTER.SOLV>
10.9147

>  <SCORE.INTER.VDW>
-18.7872

>  <SCORE.INTER.norm>
-1.44361

>  <SCORE.INTRA>
0

>  <SCORE.INTRA.DIHEDRAL>
0

>  <SCORE.INTRA.DIHEDRAL.0>
0

>  <SCORE.INTRA.POLAR>
0

>  <SCORE.INTRA.POLAR.0>
0

>  <SCORE.INTRA.REPUL>
0

>  <SCORE.INTRA.REPUL.0>
0

>  <SCORE.INTRA.SOLV>
0

>  <SCORE.INTRA.SOLV.lig_0>
-28.9128

>  <SCORE.INTRA.VDW>
0

>  <SCORE.INTRA.VDW.0>
0

>  <SCORE.INTRA.norm>
0

>  <SCORE.RESTR>
0

>  <SCORE.RESTR.CAVITY>
0

>  <SCORE.RESTR.norm>
0

>  <SCORE.SYSTEM>
0

>  <SCORE.SYSTEM.CONST>
0

>  <SCORE.SYSTEM.DIHEDRAL>
0

>  <SCORE.SYSTEM.SOLV>
0

>  <SCORE.SYSTEM.norm>
0

>  <SCORE.heavy>
12

>  <SCORE.norm>
-1.44361

>  <RMSD>
2.958

$$$$
ligand
 OpenBabel11021811503D
libRbt.so/2013.1/901 2013/11/27
 12 13  0  0  0  0  0  0  0  0999 V2000
   29.5776   16.0915   16.0530 C   0  0  0  0  0  0  0  0  0  0  0  0
   30.9754   17.8142   15.1031 C   0  0  0  0  0  0  0  0  0  0  0  0
   28.9004   14.9549   15.9383 N   0  0  0  0  0  0  0  0  0  0  0  0
   29.6042   16.7135   17.2360 N   0  0  0  0  0  0  0  0  0  0  0  0
   30.2683   16.6270   14.9499 N   0  0  0  0  0  0  0  0  0  0  0  0
   31.5756   18.2840   14.1325 O   0  0  0  0  0  0  0  0  0  0  0  0
   31.6430   20.2333   17.8257 N   0  0  0  0  0  0  0  0  0  0  0  0
   30.9308   19.6340   18.8764 C   0  0  0  0  0  0  0  0  0  0  0  0
   30.2470   18.4257   18.6449 N   0  0  0  0  0  0  0  0  0  0  0  0
   30.2638   17.8642   17.4195 C   0  0  0  0  0  0  0  0  0  0  0  0
   30.9701   18.4380   16.3533 C   0  0  0  0  0  0  0  0  0  0  0  0
   31.6569   19.6275   16.5464 C   0  0  0  0  0  0  0  0  0  0  0  0
  1  3  1  0  0  0  0
  1  4  2  0  0  0  0
  1  5  1  0  0  0  0
  2  6  2  0  0  0  0
  2 11  1  0  0  0  0
  2  5  1  0  0  0  0
  4 10  1  0  0  0  0
  7  8  2  0  0  0  0
  7 12  1  0  0  0  0
  8  9  1  0  0  0  0
  9 10  2  0  0  0  0
 10 11  1  0  0  0  0
 11 12  2  0  0  0  0
M  END
>  <CHROM.1>
30.55053007,17.87054080,16.54869416,2.17951438,-0.95570255,-2.03341285

>  <Name>
ligand

>  <RI>
0

>  <Rbt.Current_Directory>
/home/itssahil/PROJECTS/Mol_Feturizer/New_Systems/rnas/4LX6

>  <Rbt.Executable>
rbdock ($Id: //depot/dev/client3/rdock/2013.1/src/exe/rbdock.cxx#4 $)

>  <Rbt.Library>
libRbt.so (2013.1, Build901 2013/11/27)

>  <Rbt.Parameter_File>
/export/apps/rDock/src/rDock_2013.1_src/data/scripts/dock_solv.prm

>  <Rbt.Receptor>
prm/pocket_docking_6.prm

>  <SCORE>
-17.3121

>  <SCORE.INTER>
-17.3121

>  <SCORE.INTER.CONST>
1

>  <SCORE.INTER.POLAR>
0

>  <SCORE.INTER.ROT>
0

>  <SCORE.INTER.SOLV>
11.0935

>  <SCORE.INTER.VDW>
-18.8392

>  <SCORE.INTER.norm>
-1.44268

>  <SCORE.INTRA>
0

>  <SCORE.INTRA.DIHEDRAL>
0

>  <SCORE.INTRA.DIHEDRAL.0>
0

>  <SCORE.INTRA.POLAR>
0

>  <SCORE.INTRA.POLAR.0>
0

>  <SCORE.INTRA.REPUL>
0

>  <SCORE.INTRA.REPUL.0>
0

>  <SCORE.INTRA.SOLV>
0

>  <SCORE.INTRA.SOLV.lig_0>
-28.9128

>  <SCORE.INTRA.VDW>
0

>  <SCORE.INTRA.VDW.0>
0

>  <SCORE.INTRA.norm>
0

>  <SCORE.RESTR>
0

>  <SCORE.RESTR.CAVITY>
0

>  <SCORE.RESTR.norm>
0

>  <SCORE.SYSTEM>
0

>  <SCORE.SYSTEM.CONST>
0

>  <SCORE.SYSTEM.DIHEDRAL>
0

>  <SCORE.SYSTEM.SOLV>
0

>  <SCORE.SYSTEM.norm>
0

>  <SCORE.heavy>
12

>  <SCORE.norm>
-1.44268

>  <RMSD>
2.959

$$$$
ligand
 OpenBabel11021811503D
libRbt.so/2013.1/901 2013/11/27
 12 13  0  0  0  0  0  0  0  0999 V2000
   29.4979   16.0928   16.0238 C   0  0  0  0  0  0  0  0  0  0  0  0
   30.9772   17.7518   15.0840 C   0  0  0  0  0  0  0  0  0  0  0  0
   28.7822   14.9802   15.9080 N   0  0  0  0  0  0  0  0  0  0  0  0
   29.5226   16.7280   17.1999 N   0  0  0  0  0  0  0  0  0  0  0  0
   30.2306   16.5891   14.9296 N   0  0  0  0  0  0  0  0  0  0  0  0
   31.6142   18.1874   14.1209 O   0  0  0  0  0  0  0  0  0  0  0  0
   31.6759   20.1786   17.7918 N   0  0  0  0  0  0  0  0  0  0  0  0
   30.9205   19.6186   18.8340 C   0  0  0  0  0  0  0  0  0  0  0  0
   30.1980   18.4331   18.6021 N   0  0  0  0  0  0  0  0  0  0  0  0
   30.2198   17.8563   17.3839 C   0  0  0  0  0  0  0  0  0  0  0  0
   30.9686   18.3908   16.3264 C   0  0  0  0  0  0  0  0  0  0  0  0
   31.6942   19.5570   16.5202 C   0  0  0  0  0  0  0  0  0  0  0  0
  1  3  1  0  0  0  0
  1  4  2  0  0  0  0
  1  5  1  0  0  0  0
  2  6  2  0  0  0  0
  2 11  1  0  0  0  0
  2  5  1  0  0  0  0
  4 10  1  0  0  0  0
  7  8  2  0  0  0  0
  7 12  1  0  0  0  0
  8  9  1  0  0  0  0
  9 10  2  0  0  0  0
 10 11  1  0  0  0  0
 11 12  2  0  0  0  0
M  END
>  <CHROM.1>
30.52463124,17.84140055,16.51940086,2.17567572,-0.91371080,-2.04851658

>  <Name>
ligand

>  <RI>
0

>  <Rbt.Current_Directory>
/home/itssahil/PROJECTS/Mol_Feturizer/New_Systems/rnas/4LX6

>  <Rbt.Executable>
rbdock ($Id: //depot/dev/client3/rdock/2013.1/src/exe/rbdock.cxx#4 $)

>  <Rbt.Library>
libRbt.so (2013.1, Build901 2013/11/27)

>  <Rbt.Parameter_File>
/export/apps/rDock/src/rDock_2013.1_src/data/scripts/dock_solv.prm

>  <Rbt.Receptor>
prm/pocket_docking_3.prm

>  <SCORE>
-17.3131

>  <SCORE.INTER>
-17.3131

>  <SCORE.INTER.CONST>
1

>  <SCORE.INTER.POLAR>
0

>  <SCORE.INTER.ROT>
0

>  <SCORE.INTER.SOLV>
10.635

>  <SCORE.INTER.VDW>
-18.6871

>  <SCORE.INTER.norm>
-1.44276

>  <SCORE.INTRA>
0

>  <SCORE.INTRA.DIHEDRAL>
0

>  <SCORE.INTRA.DIHEDRAL.0>
0

>  <SCORE.INTRA.POLAR>
0

>  <SCORE.INTRA.POLAR.0>
0

>  <SCORE.INTRA.REPUL>
0

>  <SCORE.INTRA.REPUL.0>
0

>  <SCORE.INTRA.SOLV>
0

>  <SCORE.INTRA.SOLV.lig_0>
-28.9128

>  <SCORE.INTRA.VDW>
0

>  <SCORE.INTRA.VDW.0>
0

>  <SCORE.INTRA.norm>
0

>  <SCORE.RESTR>
0

>  <SCORE.RESTR.CAVITY>
0

>  <SCORE.RESTR.norm>
0

>  <SCORE.SYSTEM>
0

>  <SCORE.SYSTEM.CONST>
0

>  <SCORE.SYSTEM.DIHEDRAL>
0

>  <SCORE.SYSTEM.SOLV>
0

>  <SCORE.SYSTEM.norm>
0

>  <SCORE.heavy>
12

>  <SCORE.norm>
-1.44276

>  <RMSD>
2.960

$$$$
ligand
 OpenBabel11021811503D
libRbt.so/2013.1/901 2013/11/27
 12 13  0  0  0  0  0  0  0  0999 V2000
   29.4987   16.0964   16.0245 C   0  0  0  0  0  0  0  0  0  0  0  0
   30.9820   17.7530   15.0866 C   0  0  0  0  0  0  0  0  0  0  0  0
   28.7815   14.9849   15.9078 N   0  0  0  0  0  0  0  0  0  0  0  0
   29.5228   16.7317   17.2006 N   0  0  0  0  0  0  0  0  0  0  0  0
   30.2337   16.5915   14.9312 N   0  0  0  0  0  0  0  0  0  0  0  0
   31.6210   18.1875   14.1244 O   0  0  0  0  0  0  0  0  0  0  0  0
   31.6808   20.1789   17.7951 N   0  0  0  0  0  0  0  0  0  0  0  0
   30.9232   19.6201   18.8364 C   0  0  0  0  0  0  0  0  0  0  0  0
   30.1991   18.4358   18.6036 N   0  0  0  0  0  0  0  0  0  0  0  0
   30.2217   17.8589   17.3855 C   0  0  0  0  0  0  0  0  0  0  0  0
   30.9727   18.3921   16.3290 C   0  0  0  0  0  0  0  0  0  0  0  0
   31.6999   19.5571   16.5237 C   0  0  0  0  0  0  0  0  0  0  0  0
  1  3  1  0  0  0  0
  1  4  2  0  0  0  0
  1  5  1  0  0  0  0
  2  6  2  0  0  0  0
  2 11  1  0  0  0  0
  2  5  1  0  0  0  0
  4 10  1  0  0  0  0
  7  8  2  0  0  0  0
  7 12  1  0  0  0  0
  8  9  1  0  0  0  0
  9 10  2  0  0  0  0
 10 11  1  0  0  0  0
 11 12  2  0  0  0  0
M  END
>  <CHROM.1>
30.52761665,17.84341228,16.52137355,2.17489598,-0.91166128,-2.04921076

>  <Name>
ligand

>  <RI>
0

>  <Rbt.Current_Directory>
/home/itssahil/PROJECTS/Mol_Feturizer/New_Systems/rnas/4LX6

>  <Rbt.Executable>
rbdock ($Id: //depot/dev/client3/rdock/2013.1/src/exe/rbdock.cxx#4 $)

>  <Rbt.Library>
libRbt.so (2013.1, Build901 2013/11/27)

>  <Rbt.Parameter_File>
/export/apps/rDock/src/rDock_2013.1_src/data/scripts/dock_solv.prm

>  <Rbt.Receptor>
prm/pocket_docking_3.prm

>  <SCORE>
-17.3124

>  <SCORE.INTER>
-17.3124

>  <SCORE.INTER.CONST>
1

>  <SCORE.INTER.POLAR>
0

>  <SCORE.INTER.ROT>
0

>  <SCORE.INTER.SOLV>
10.6273

>  <SCORE.INTER.VDW>
-18.6841

>  <SCORE.INTER.norm>
-1.4427

>  <SCORE.INTRA>
0

>  <SCORE.INTRA.DIHEDRAL>
0

>  <SCORE.INTRA.DIHEDRAL.0>
0

>  <SCORE.INTRA.POLAR>
0

>  <SCORE.INTRA.POLAR.0>
0

>  <SCORE.INTRA.REPUL>
0

>  <SCORE.INTRA.REPUL.0>
0

>  <SCORE.INTRA.SOLV>
0

>  <SCORE.INTRA.SOLV.lig_0>
-28.9128

>  <SCORE.INTRA.VDW>
0

>  <SCORE.INTRA.VDW.0>
0

>  <SCORE.INTRA.norm>
0

>  <SCORE.RESTR>
0

>  <SCORE.RESTR.CAVITY>
0

>  <SCORE.RESTR.norm>
0

>  <SCORE.SYSTEM>
0

>  <SCORE.SYSTEM.CONST>
0

>  <SCORE.SYSTEM.DIHEDRAL>
0

>  <SCORE.SYSTEM.SOLV>
0

>  <SCORE.SYSTEM.norm>
0

>  <SCORE.heavy>
12

>  <SCORE.norm>
-1.4427

>  <RMSD>
2.960

$$$$
ligand
 OpenBabel11021811503D
libRbt.so/2013.1/901 2013/11/27
 12 13  0  0  0  0  0  0  0  0999 V2000
   29.4947   16.1035   16.0271 C   0  0  0  0  0  0  0  0  0  0  0  0
   30.9797   17.7568   15.0862 C   0  0  0  0  0  0  0  0  0  0  0  0
   28.7739   14.9941   15.9115 N   0  0  0  0  0  0  0  0  0  0  0  0
   29.5242   16.7375   17.2037 N   0  0  0  0  0  0  0  0  0  0  0  0
   30.2277   16.5976   14.9321 N   0  0  0  0  0  0  0  0  0  0  0  0
   31.6170   18.1905   14.1225 O   0  0  0  0  0  0  0  0  0  0  0  0
   31.6938   20.1780   17.7951 N   0  0  0  0  0  0  0  0  0  0  0  0
   30.9378   19.6204   18.8380 C   0  0  0  0  0  0  0  0  0  0  0  0
   30.2096   18.4383   18.6063 N   0  0  0  0  0  0  0  0  0  0  0  0
   30.2268   17.8625   17.3876 C   0  0  0  0  0  0  0  0  0  0  0  0
   30.9761   18.3947   16.3293 C   0  0  0  0  0  0  0  0  0  0  0  0
   31.7072   19.5574   16.5229 C   0  0  0  0  0  0  0  0  0  0  0  0
  1  3  1  0  0  0  0
  1  4  2  0  0  0  0
  1  5  1  0  0  0  0
  2  6  2  0  0  0  0
  2 11  1  0  0  0  0
  2  5  1  0  0  0  0
  4 10  1  0  0  0  0
  7  8  2  0  0  0  0
  7 12  1  0  0  0  0
  8  9  1  0  0  0  0
  9 10  2  0  0  0  0
 10 11  1  0  0  0  0
 11 12  2  0  0  0  0
M  END
>  <CHROM.1>
30.53002269,17.84707944,16.52253849,2.18149254,-0.91056473,-2.04299946

>  <Name>
ligand

>  <RI>
0

>  <Rbt.Current_Directory>
/home/itssahil/PROJECTS/Mol_Feturizer/New_Systems/rnas/4LX6

>  <Rbt.Executable>
rbdock ($Id: //depot/dev/client3/rdock/2013.1/src/exe/rbdock.cxx#4 $)

>  <Rbt.Library>
libRbt.so (2013.1, Build901 2013/11/27)

>  <Rbt.Parameter_File>
/export/apps/rDock/src/rDock_2013.1_src/data/scripts/dock_solv.prm

>  <Rbt.Receptor>
prm/pocket_docking_4.prm

>  <SCORE>
-17.2814

>  <SCORE.INTER>
-17.2814

>  <SCORE.INTER.CONST>
1

>  <SCORE.INTER.POLAR>
0

>  <SCORE.INTER.ROT>
0

>  <SCORE.INTER.SOLV>
10.5858

>  <SCORE.INTER.VDW>
-18.6495

>  <SCORE.INTER.norm>
-1.44011

>  <SCORE.INTRA>
0

>  <SCORE.INTRA.DIHEDRAL>
0

>  <SCORE.INTRA.DIHEDRAL.0>
0

>  <SCORE.INTRA.POLAR>
0

>  <SCORE.INTRA.POLAR.0>
0

>  <SCORE.INTRA.REPUL>
0

>  <SCORE.INTRA.REPUL.0>
0

>  <SCORE.INTRA.SOLV>
0

>  <SCORE.INTRA.SOLV.lig_0>
-28.9128

>  <SCORE.INTRA.VDW>
0

>  <SCORE.INTRA.VDW.0>
0

>  <SCORE.INTRA.norm>
0

>  <SCORE.RESTR>
0

>  <SCORE.RESTR.CAVITY>
0

>  <SCORE.RESTR.norm>
0

>  <SCORE.SYSTEM>
0

>  <SCORE.SYSTEM.CONST>
0

>  <SCORE.SYSTEM.DIHEDRAL>
0

>  <SCORE.SYSTEM.SOLV>
0

>  <SCORE.SYSTEM.norm>
0

>  <SCORE.heavy>
12

>  <SCORE.norm>
-1.44011

>  <RMSD>
2.960

$$$$
ligand
 OpenBabel11021811503D
libRbt.so/2013.1/901 2013/11/27
 12 13  0  0  0  0  0  0  0  0999 V2000
   29.4957   16.0898   16.0256 C   0  0  0  0  0  0  0  0  0  0  0  0
   30.9685   17.7505   15.0787 C   0  0  0  0  0  0  0  0  0  0  0  0
   28.7816   14.9758   15.9134 N   0  0  0  0  0  0  0  0  0  0  0  0
   29.5238   16.7261   17.2010 N   0  0  0  0  0  0  0  0  0  0  0  0
   30.2234   16.5865   14.9282 N   0  0  0  0  0  0  0  0  0  0  0  0
   31.6012   18.1864   14.1129 O   0  0  0  0  0  0  0  0  0  0  0  0
   31.6733   20.1809   17.7818 N   0  0  0  0  0  0  0  0  0  0  0  0
   30.9229   19.6204   18.8273 C   0  0  0  0  0  0  0  0  0  0  0  0
   30.2015   18.4335   18.5992 N   0  0  0  0  0  0  0  0  0  0  0  0
   30.2197   17.8557   17.3814 C   0  0  0  0  0  0  0  0  0  0  0  0
   30.9635   18.3906   16.3207 C   0  0  0  0  0  0  0  0  0  0  0  0
   31.6879   19.5582   16.5107 C   0  0  0  0  0  0  0  0  0  0  0  0
  1  3  1  0  0  0  0
  1  4  2  0  0  0  0
  1  5  1  0  0  0  0
  2  6  2  0  0  0  0
  2 11  1  0  0  0  0
  2  5  1  0  0  0  0
  4 10  1  0  0  0  0
  7  8  2  0  0  0  0
  7 12  1  0  0  0  0
  8  9  1  0  0  0  0
  9 10  2  0  0  0  0
 10 11  1  0  0  0  0
 11 12  2  0  0  0  0
M  END
>  <CHROM.1>
30.52129153,17.84057483,16.51579487,2.17989436,-0.91699796,-2.04602273

>  <Name>
ligand

>  <RI>
0

>  <Rbt.Current_Directory>
/home/itssahil/PROJECTS/Mol_Feturizer/New_Systems/rnas/4LX6

>  <Rbt.Executable>
rbdock ($Id: //depot/dev/client3/rdock/2013.1/src/exe/rbdock.cxx#4 $)

>  <Rbt.Library>
libRbt.so (2013.1, Build901 2013/11/27)

>  <Rbt.Parameter_File>
/export/apps/rDock/src/rDock_2013.1_src/data/scripts/dock_solv.prm

>  <Rbt.Receptor>
prm/pocket_docking_7.prm

>  <SCORE>
-17.3146

>  <SCORE.INTER>
-17.3146

>  <SCORE.INTER.CONST>
1

>  <SCORE.INTER.POLAR>
0

>  <SCORE.INTER.ROT>
0

>  <SCORE.INTER.SOLV>
10.6389

>  <SCORE.INTER.VDW>
-18.6894

>  <SCORE.INTER.norm>
-1.44288

>  <SCORE.INTRA>
0

>  <SCORE.INTRA.DIHEDRAL>
0

>  <SCORE.INTRA.DIHEDRAL.0>
0

>  <SCORE.INTRA.POLAR>
0

>  <SCORE.INTRA.POLAR.0>
0

>  <SCORE.INTRA.REPUL>
0

>  <SCORE.INTRA.REPUL.0>
0

>  <SCORE.INTRA.SOLV>
0

>  <SCORE.INTRA.SOLV.lig_0>
-28.9128

>  <SCORE.INTRA.VDW>
0

>  <SCORE.INTRA.VDW.0>
0

>  <SCORE.INTRA.norm>
0

>  <SCORE.RESTR>
0

>  <SCORE.RESTR.CAVITY>
0

>  <SCORE.RESTR.norm>
0

>  <SCORE.SYSTEM>
0

>  <SCORE.SYSTEM.CONST>
0

>  <SCORE.SYSTEM.DIHEDRAL>
0

>  <SCORE.SYSTEM.SOLV>
0

>  <SCORE.SYSTEM.norm>
0

>  <SCORE.heavy>
12

>  <SCORE.norm>
-1.44288

>  <RMSD>
2.960

$$$$
ligand
 OpenBabel11021811503D
libRbt.so/2013.1/901 2013/11/27
 12 13  0  0  0  0  0  0  0  0999 V2000
   29.5362   16.0660   16.0325 C   0  0  0  0  0  0  0  0  0  0  0  0
   30.9735   17.7557   15.0822 C   0  0  0  0  0  0  0  0  0  0  0  0
   28.8368   14.9428   15.9195 N   0  0  0  0  0  0  0  0  0  0  0  0
   29.5691   16.6930   17.2128 N   0  0  0  0  0  0  0  0  0  0  0  0
   30.2435   16.5822   14.9308 N   0  0  0  0  0  0  0  0  0  0  0  0
   31.5882   18.2086   14.1127 O   0  0  0  0  0  0  0  0  0  0  0  0
   31.6754   20.1737   17.7971 N   0  0  0  0  0  0  0  0  0  0  0  0
   30.9457   19.5939   18.8467 C   0  0  0  0  0  0  0  0  0  0  0  0
   30.2389   18.3986   18.6171 N   0  0  0  0  0  0  0  0  0  0  0  0
   30.2509   17.8311   17.3944 C   0  0  0  0  0  0  0  0  0  0  0  0
   30.9742   18.3854   16.3295 C   0  0  0  0  0  0  0  0  0  0  0  0
   31.6838   19.5617   16.5207 C   0  0  0  0  0  0  0  0  0  0  0  0
  1  3  1  0  0  0  0
  1  4  2  0  0  0  0
  1  5  1  0  0  0  0
  2  6  2  0  0  0  0
  2 11  1  0  0  0  0
  2  5  1  0  0  0  0
  4 10  1  0  0  0  0
  7  8  2  0  0  0  0
  7 12  1  0  0  0  0
  8  9  1  0  0  0  0
  9 10  2  0  0  0  0
 10 11  1  0  0  0  0
 11 12  2  0  0  0  0
M  END
>  <CHROM.1>
30.54222748,17.82744761,16.52519959,2.18669373,-0.93524265,-2.03230277

>  <Name>
ligand

>  <RI>
0

>  <Rbt.Current_Directory>
/home/itssahil/PROJECTS/Mol_Feturizer/New_Systems/rnas/4LX6

>  <Rbt.Executable>
rbdock ($Id: //depot/dev/client3/rdock/2013.1/src/exe/rbdock.cxx#4 $)

>  <Rbt.Library>
libRbt.so (2013.1, Build901 2013/11/27)

>  <Rbt.Parameter_File>
/export/apps/rDock/src/rDock_2013.1_src/data/scripts/dock_solv.prm

>  <Rbt.Receptor>
prm/pocket_docking_7.prm

>  <SCORE>
-17.2717

>  <SCORE.INTER>
-17.2717

>  <SCORE.INTER.CONST>
1

>  <SCORE.INTER.POLAR>
0

>  <SCORE.INTER.ROT>
0

>  <SCORE.INTER.SOLV>
10.8744

>  <SCORE.INTER.VDW>
-18.7393

>  <SCORE.INTER.norm>
-1.43931

>  <SCORE.INTRA>
0

>  <SCORE.INTRA.DIHEDRAL>
0

>  <SCORE.INTRA.DIHEDRAL.0>
0

>  <SCORE.INTRA.POLAR>
0

>  <SCORE.INTRA.POLAR.0>
0

>  <SCORE.INTRA.REPUL>
0

>  <SCORE.INTRA.REPUL.0>
0

>  <SCORE.INTRA.SOLV>
0

>  <SCORE.INTRA.SOLV.lig_0>
-28.9128

>  <SCORE.INTRA.VDW>
0

>  <SCORE.INTRA.VDW.0>
0

>  <SCORE.INTRA.norm>
0

>  <SCORE.RESTR>
0

>  <SCORE.RESTR.CAVITY>
0

>  <SCORE.RESTR.norm>
0

>  <SCORE.SYSTEM>
0

>  <SCORE.SYSTEM.CONST>
0

>  <SCORE.SYSTEM.DIHEDRAL>
0

>  <SCORE.SYSTEM.SOLV>
0

>  <SCORE.SYSTEM.norm>
0

>  <SCORE.heavy>
12

>  <SCORE.norm>
-1.43931

>  <RMSD>
2.960

$$$$
ligand
 OpenBabel11021811503D
libRbt.so/2013.1/901 2013/11/27
 12 13  0  0  0  0  0  0  0  0999 V2000
   29.4947   16.0950   16.0240 C   0  0  0  0  0  0  0  0  0  0  0  0
   30.9754   17.7504   15.0800 C   0  0  0  0  0  0  0  0  0  0  0  0
   28.7783   14.9826   15.9111 N   0  0  0  0  0  0  0  0  0  0  0  0
   29.5194   16.7336   17.1983 N   0  0  0  0  0  0  0  0  0  0  0  0
   30.2281   16.5878   14.9286 N   0  0  0  0  0  0  0  0  0  0  0  0
   31.6130   18.1829   14.1159 O   0  0  0  0  0  0  0  0  0  0  0  0
   31.6749   20.1843   17.7812 N   0  0  0  0  0  0  0  0  0  0  0  0
   30.9188   19.6277   18.8247 C   0  0  0  0  0  0  0  0  0  0  0  0
   30.1956   18.4421   18.5959 N   0  0  0  0  0  0  0  0  0  0  0  0
   30.2174   17.8619   17.3794 C   0  0  0  0  0  0  0  0  0  0  0  0
   30.9668   18.3929   16.3207 C   0  0  0  0  0  0  0  0  0  0  0  0
   31.6932   19.5591   16.5114 C   0  0  0  0  0  0  0  0  0  0  0  0
  1  3  1  0  0  0  0
  1  4  2  0  0  0  0
  1  5  1  0  0  0  0
  2  6  2  0  0  0  0
  2 11  1  0  0  0  0
  2  5  1  0  0  0  0
  4 10  1  0  0  0  0
  7  8  2  0  0  0  0
  7 12  1  0  0  0  0
  8  9  1  0  0  0  0
  9 10  2  0  0  0  0
 10 11  1  0  0  0  0
 11 12  2  0  0  0  0
M  END
>  <CHROM.1>
30.52247368,17.84432895,16.51503290,2.17571771,-0.91296299,-2.05129553

>  <Name>
ligand

>  <RI>
0

>  <Rbt.Current_Directory>
/home/itssahil/PROJECTS/Mol_Feturizer/New_Systems/rnas/4LX6

>  <Rbt.Executable>
rbdock ($Id: //depot/dev/client3/rdock/2013.1/src/exe/rbdock.cxx#4 $)

>  <Rbt.Library>
libRbt.so (2013.1, Build901 2013/11/27)

>  <Rbt.Parameter_File>
/export/apps/rDock/src/rDock_2013.1_src/data/scripts/dock_solv.prm

>  <Rbt.Receptor>
prm/pocket_docking_8.prm

>  <SCORE>
-17.3088

>  <SCORE.INTER>
-17.3088

>  <SCORE.INTER.CONST>
1

>  <SCORE.INTER.POLAR>
0

>  <SCORE.INTER.ROT>
0

>  <SCORE.INTER.SOLV>
10.6226

>  <SCORE.INTER.VDW>
-18.6801

>  <SCORE.INTER.norm>
-1.4424

>  <SCORE.INTRA>
0

>  <SCORE.INTRA.DIHEDRAL>
0

>  <SCORE.INTRA.DIHEDRAL.0>
0

>  <SCORE.INTRA.POLAR>
0

>  <SCORE.INTRA.POLAR.0>
0

>  <SCORE.INTRA.REPUL>
0

>  <SCORE.INTRA.REPUL.0>
0

>  <SCORE.INTRA.SOLV>
0

>  <SCORE.INTRA.SOLV.lig_0>
-28.9128

>  <SCORE.INTRA.VDW>
0

>  <SCORE.INTRA.VDW.0>
0

>  <SCORE.INTRA.norm>
0

>  <SCORE.RESTR>
0

>  <SCORE.RESTR.CAVITY>
0

>  <SCORE.RESTR.norm>
0

>  <SCORE.SYSTEM>
0

>  <SCORE.SYSTEM.CONST>
0

>  <SCORE.SYSTEM.DIHEDRAL>
0

>  <SCORE.SYSTEM.SOLV>
0

>  <SCORE.SYSTEM.norm>
0

>  <SCORE.heavy>
12

>  <SCORE.norm>
-1.4424

>  <RMSD>
2.960

$$$$
ligand
 OpenBabel11021811503D
libRbt.so/2013.1/901 2013/11/27
 12 13  0  0  0  0  0  0  0  0999 V2000
   29.4915   16.1083   16.0313 C   0  0  0  0  0  0  0  0  0  0  0  0
   30.9745   17.7603   15.0850 C   0  0  0  0  0  0  0  0  0  0  0  0
   28.7682   15.0003   15.9179 N   0  0  0  0  0  0  0  0  0  0  0  0
   29.5283   16.7406   17.2086 N   0  0  0  0  0  0  0  0  0  0  0  0
   30.2196   16.6027   14.9331 N   0  0  0  0  0  0  0  0  0  0  0  0
   31.6074   18.1943   14.1185 O   0  0  0  0  0  0  0  0  0  0  0  0
   31.7070   20.1763   17.7935 N   0  0  0  0  0  0  0  0  0  0  0  0
   30.9555   19.6185   18.8396 C   0  0  0  0  0  0  0  0  0  0  0  0
   30.2241   18.4381   18.6101 N   0  0  0  0  0  0  0  0  0  0  0  0
   30.2338   17.8640   17.3904 C   0  0  0  0  0  0  0  0  0  0  0  0
   30.9785   18.3964   16.3290 C   0  0  0  0  0  0  0  0  0  0  0  0
   31.7127   19.5576   16.5204 C   0  0  0  0  0  0  0  0  0  0  0  0
  1  3  1  0  0  0  0
  1  4  2  0  0  0  0
  1  5  1  0  0  0  0
  2  6  2  0  0  0  0
  2 11  1  0  0  0  0
  2  5  1  0  0  0  0
  4 10  1  0  0  0  0
  7  8  2  0  0  0  0
  7 12  1  0  0  0  0
  8  9  1  0  0  0  0
  9 10  2  0  0  0  0
 10 11  1  0  0  0  0
 11 12  2  0  0  0  0
M  END
>  <CHROM.1>
30.53250264,17.84931021,16.52376601,2.19042561,-0.91136603,-2.03450803

>  <Name>
ligand

>  <RI>
0

>  <Rbt.Current_Directory>
/home/itssahil/PROJECTS/Mol_Feturizer/New_Systems/rnas/4LX6

>  <Rbt.Executable>
rbdock ($Id: //depot/dev/client3/rdock/2013.1/src/exe/rbdock.cxx#4 $)

>  <Rbt.Library>
libRbt.so (2013.1, Build901 2013/11/27)

>  <Rbt.Parameter_File>
/export/apps/rDock/src/rDock_2013.1_src/data/scripts/dock_solv.prm

>  <Rbt.Receptor>
prm/blind_docking_100.prm

>  <SCORE>
-17.2839

>  <SCORE.INTER>
-17.2839

>  <SCORE.INTER.CONST>
1

>  <SCORE.INTER.POLAR>
0

>  <SCORE.INTER.ROT>
0

>  <SCORE.INTER.SOLV>
10.5538

>  <SCORE.INTER.VDW>
-18.6405

>  <SCORE.INTER.norm>
-1.44032

>  <SCORE.INTRA>
0

>  <SCORE.INTRA.DIHEDRAL>
0

>  <SCORE.INTRA.DIHEDRAL.0>
0

>  <SCORE.INTRA.POLAR>
0

>  <SCORE.INTRA.POLAR.0>
0

>  <SCORE.INTRA.REPUL>
0

>  <SCORE.INTRA.REPUL.0>
0

>  <SCORE.INTRA.SOLV>
0

>  <SCORE.INTRA.SOLV.lig_0>
-28.9128

>  <SCORE.INTRA.VDW>
0

>  <SCORE.INTRA.VDW.0>
0

>  <SCORE.INTRA.norm>
0

>  <SCORE.RESTR>
0

>  <SCORE.RESTR.CAVITY>
0

>  <SCORE.RESTR.norm>
0

>  <SCORE.SYSTEM>
0

>  <SCORE.SYSTEM.CONST>
0

>  <SCORE.SYSTEM.DIHEDRAL>
0

>  <SCORE.SYSTEM.SOLV>
0

>  <SCORE.SYSTEM.norm>
0

>  <SCORE.heavy>
12

>  <SCORE.norm>
-1.44032

>  <RMSD>
2.961

$$$$
ligand
 OpenBabel11021811503D
libRbt.so/2013.1/901 2013/11/27
 12 13  0  0  0  0  0  0  0  0999 V2000
   29.4993   16.1274   16.0352 C   0  0  0  0  0  0  0  0  0  0  0  0
   30.9550   17.8063   15.0939 C   0  0  0  0  0  0  0  0  0  0  0  0
   28.7894   15.0113   15.9167 N   0  0  0  0  0  0  0  0  0  0  0  0
   29.5355   16.7500   17.2176 N   0  0  0  0  0  0  0  0  0  0  0  0
   30.2140   16.6404   14.9368 N   0  0  0  0  0  0  0  0  0  0  0  0
   31.5763   18.2565   14.1273 O   0  0  0  0  0  0  0  0  0  0  0  0
   31.6741   20.2081   17.8186 N   0  0  0  0  0  0  0  0  0  0  0  0
   30.9364   19.6319   18.8645 C   0  0  0  0  0  0  0  0  0  0  0  0
   30.2186   18.4442   18.6293 N   0  0  0  0  0  0  0  0  0  0  0  0
   30.2279   17.8808   17.4047 C   0  0  0  0  0  0  0  0  0  0  0  0
   30.9589   18.4317   16.3433 C   0  0  0  0  0  0  0  0  0  0  0  0
   31.6795   19.6005   16.5401 C   0  0  0  0  0  0  0  0  0  0  0  0
  1  3  1  0  0  0  0
  1  4  2  0  0  0  0
  1  5  1  0  0  0  0
  2  6  2  0  0  0  0
  2 11  1  0  0  0  0
  2  5  1  0  0  0  0
  4 10  1  0  0  0  0
  7  8  2  0  0  0  0
  7 12  1  0  0  0  0
  8  9  1  0  0  0  0
  9 10  2  0  0  0  0
 10 11  1  0  0  0  0
 11 12  2  0  0  0  0
M  END
>  <CHROM.1>
30.52116543,17.87728532,16.53612566,2.19045349,-0.92557998,-2.02587332

>  <Name>
ligand

>  <RI>
0

>  <Rbt.Current_Directory>
/home/itssahil/PROJECTS/Mol_Feturizer/New_Systems/rnas/4LX6

>  <Rbt.Executable>
rbdock ($Id: //depot/dev/client3/rdock/2013.1/src/exe/rbdock.cxx#4 $)

>  <Rbt.Library>
libRbt.so (2013.1, Build901 2013/11/27)

>  <Rbt.Parameter_File>
/export/apps/rDock/src/rDock_2013.1_src/data/scripts/dock_solv.prm

>  <Rbt.Receptor>
prm/blind_docking_60.prm

>  <SCORE>
-17.2901

>  <SCORE.INTER>
-17.2901

>  <SCORE.INTER.CONST>
1

>  <SCORE.INTER.POLAR>
0

>  <SCORE.INTER.ROT>
0

>  <SCORE.INTER.SOLV>
10.605

>  <SCORE.INTER.VDW>
-18.6617

>  <SCORE.INTER.norm>
-1.44084

>  <SCORE.INTRA>
0

>  <SCORE.INTRA.DIHEDRAL>
0

>  <SCORE.INTRA.DIHEDRAL.0>
0

>  <SCORE.INTRA.POLAR>
0

>  <SCORE.INTRA.POLAR.0>
0

>  <SCORE.INTRA.REPUL>
0

>  <SCORE.INTRA.REPUL.0>
0

>  <SCORE.INTRA.SOLV>
0

>  <SCORE.INTRA.SOLV.lig_0>
-28.9128

>  <SCORE.INTRA.VDW>
0

>  <SCORE.INTRA.VDW.0>
0

>  <SCORE.INTRA.norm>
0

>  <SCORE.RESTR>
0

>  <SCORE.RESTR.CAVITY>
0

>  <SCORE.RESTR.norm>
0

>  <SCORE.SYSTEM>
0

>  <SCORE.SYSTEM.CONST>
0

>  <SCORE.SYSTEM.DIHEDRAL>
0

>  <SCORE.SYSTEM.SOLV>
0

>  <SCORE.SYSTEM.norm>
0

>  <SCORE.heavy>
12

>  <SCORE.norm>
-1.44084

>  <RMSD>
2.961

$$$$
ligand
 OpenBabel11021811503D
libRbt.so/2013.1/901 2013/11/27
 12 13  0  0  0  0  0  0  0  0999 V2000
   29.4974   16.0888   16.0289 C   0  0  0  0  0  0  0  0  0  0  0  0
   30.9687   17.7496   15.0799 C   0  0  0  0  0  0  0  0  0  0  0  0
   28.7835   14.9745   15.9180 N   0  0  0  0  0  0  0  0  0  0  0  0
   29.5263   16.7256   17.2040 N   0  0  0  0  0  0  0  0  0  0  0  0
   30.2239   16.5852   14.9306 N   0  0  0  0  0  0  0  0  0  0  0  0
   31.6003   18.1853   14.1132 O   0  0  0  0  0  0  0  0  0  0  0  0
   31.6752   20.1815   17.7811 N   0  0  0  0  0  0  0  0  0  0  0  0
   30.9260   19.6213   18.8277 C   0  0  0  0  0  0  0  0  0  0  0  0
   30.2049   18.4340   18.6008 N   0  0  0  0  0  0  0  0  0  0  0  0
   30.2221   17.8556   17.3832 C   0  0  0  0  0  0  0  0  0  0  0  0
   30.9647   18.3903   16.3215 C   0  0  0  0  0  0  0  0  0  0  0  0
   31.6888   19.5582   16.5103 C   0  0  0  0  0  0  0  0  0  0  0  0
  1  3  1  0  0  0  0
  1  4  2  0  0  0  0
  1  5  1  0  0  0  0
  2  6  2  0  0  0  0
  2 11  1  0  0  0  0
  2  5  1  0  0  0  0
  4 10  1  0  0  0  0
  7  8  2  0  0  0  0
  7 12  1  0  0  0  0
  8  9  1  0  0  0  0
  9 10  2  0  0  0  0
 10 11  1  0  0  0  0
 11 12  2  0  0  0  0
M  END
>  <CHROM.1>
30.52283282,17.84018621,16.51733004,2.18103862,-0.91774901,-2.04558454

>  <Name>
ligand

>  <RI>
0

>  <Rbt.Current_Directory>
/home/itssahil/PROJECTS/Mol_Feturizer/New_Systems/rnas/4LX6

>  <Rbt.Executable>
rbdock ($Id: //depot/dev/client3/rdock/2013.1/src/exe/rbdock.cxx#4 $)

>  <Rbt.Library>
libRbt.so (2013.1, Build901 2013/11/27)

>  <Rbt.Parameter_File>
/export/apps/rDock/src/rDock_2013.1_src/data/scripts/dock_solv.prm

>  <Rbt.Receptor>
prm/blind_docking_80.prm

>  <SCORE>
-17.3135

>  <SCORE.INTER>
-17.3135

>  <SCORE.INTER.CONST>
1

>  <SCORE.INTER.POLAR>
0

>  <SCORE.INTER.ROT>
0

>  <SCORE.INTER.SOLV>
10.6491

>  <SCORE.INTER.VDW>
-18.692

>  <SCORE.INTER.norm>
-1.44279

>  <SCORE.INTRA>
0

>  <SCORE.INTRA.DIHEDRAL>
0

>  <SCORE.INTRA.DIHEDRAL.0>
0

>  <SCORE.INTRA.POLAR>
0

>  <SCORE.INTRA.POLAR.0>
0

>  <SCORE.INTRA.REPUL>
0

>  <SCORE.INTRA.REPUL.0>
0

>  <SCORE.INTRA.SOLV>
0

>  <SCORE.INTRA.SOLV.lig_0>
-28.9128

>  <SCORE.INTRA.VDW>
0

>  <SCORE.INTRA.VDW.0>
0

>  <SCORE.INTRA.norm>
0

>  <SCORE.RESTR>
0

>  <SCORE.RESTR.CAVITY>
0

>  <SCORE.RESTR.norm>
0

>  <SCORE.SYSTEM>
0

>  <SCORE.SYSTEM.CONST>
0

>  <SCORE.SYSTEM.DIHEDRAL>
0

>  <SCORE.SYSTEM.SOLV>
0

>  <SCORE.SYSTEM.norm>
0

>  <SCORE.heavy>
12

>  <SCORE.norm>
-1.44279

>  <RMSD>
2.961

$$$$
ligand
 OpenBabel11021811503D
libRbt.so/2013.1/901 2013/11/27
 12 13  0  0  0  0  0  0  0  0999 V2000
   29.4975   16.1003   16.0280 C   0  0  0  0  0  0  0  0  0  0  0  0
   30.9828   17.7553   15.0906 C   0  0  0  0  0  0  0  0  0  0  0  0
   28.7779   14.9904   15.9105 N   0  0  0  0  0  0  0  0  0  0  0  0
   29.5245   16.7337   17.2050 N   0  0  0  0  0  0  0  0  0  0  0  0
   30.2320   16.5956   14.9345 N   0  0  0  0  0  0  0  0  0  0  0  0
   31.6214   18.1901   14.1282 O   0  0  0  0  0  0  0  0  0  0  0  0
   31.6903   20.1755   17.8020 N   0  0  0  0  0  0  0  0  0  0  0  0
   30.9329   19.6167   18.8434 C   0  0  0  0  0  0  0  0  0  0  0  0
   30.2062   18.4342   18.6097 N   0  0  0  0  0  0  0  0  0  0  0  0
   30.2259   17.8591   17.3907 C   0  0  0  0  0  0  0  0  0  0  0  0
   30.9765   18.3925   16.3340 C   0  0  0  0  0  0  0  0  0  0  0  0
   31.7064   19.5557   16.5295 C   0  0  0  0  0  0  0  0  0  0  0  0
  1  3  1  0  0  0  0
  1  4  2  0  0  0  0
  1  5  1  0  0  0  0
  2  6  2  0  0  0  0
  2 11  1  0  0  0  0
  2  5  1  0  0  0  0
  4 10  1  0  0  0  0
  7  8  2  0  0  0  0
  7 12  1  0  0  0  0
  8  9  1  0  0  0  0
  9 10  2  0  0  0  0
 10 11  1  0  0  0  0
 11 12  2  0  0  0  0
M  END
>  <CHROM.1>
30.53059355,17.84441039,16.52615093,2.17841537,-0.91050870,-2.04485060

>  <Name>
ligand

>  <RI>
0

>  <Rbt.Current_Directory>
/home/itssahil/PROJECTS/Mol_Feturizer/New_Systems/rnas/4LX6

>  <Rbt.Executable>
rbdock ($Id: //depot/dev/client3/rdock/2013.1/src/exe/rbdock.cxx#4 $)

>  <Rbt.Library>
libRbt.so (2013.1, Build901 2013/11/27)

>  <Rbt.Parameter_File>
/export/apps/rDock/src/rDock_2013.1_src/data/scripts/dock_solv.prm

>  <Rbt.Receptor>
prm/blind_docking_80.prm

>  <SCORE>
-17.3143

>  <SCORE.INTER>
-17.3143

>  <SCORE.INTER.CONST>
1

>  <SCORE.INTER.POLAR>
0

>  <SCORE.INTER.ROT>
0

>  <SCORE.INTER.SOLV>
10.6042

>  <SCORE.INTER.VDW>
-18.6776

>  <SCORE.INTER.norm>
-1.44286

>  <SCORE.INTRA>
0

>  <SCORE.INTRA.DIHEDRAL>
0

>  <SCORE.INTRA.DIHEDRAL.0>
0

>  <SCORE.INTRA.POLAR>
0

>  <SCORE.INTRA.POLAR.0>
0

>  <SCORE.INTRA.REPUL>
0

>  <SCORE.INTRA.REPUL.0>
0

>  <SCORE.INTRA.SOLV>
0

>  <SCORE.INTRA.SOLV.lig_0>
-28.9128

>  <SCORE.INTRA.VDW>
0

>  <SCORE.INTRA.VDW.0>
0

>  <SCORE.INTRA.norm>
0

>  <SCORE.RESTR>
0

>  <SCORE.RESTR.CAVITY>
0

>  <SCORE.RESTR.norm>
0

>  <SCORE.SYSTEM>
0

>  <SCORE.SYSTEM.CONST>
0

>  <SCORE.SYSTEM.DIHEDRAL>
0

>  <SCORE.SYSTEM.SOLV>
0

>  <SCORE.SYSTEM.norm>
0

>  <SCORE.heavy>
12

>  <SCORE.norm>
-1.44286

>  <RMSD>
2.961

$$$$
ligand
 OpenBabel11021811503D
libRbt.so/2013.1/901 2013/11/27
 12 13  0  0  0  0  0  0  0  0999 V2000
   29.5007   16.1336   16.0401 C   0  0  0  0  0  0  0  0  0  0  0  0
   30.9581   17.8089   15.0948 C   0  0  0  0  0  0  0  0  0  0  0  0
   28.7902   15.0177   15.9245 N   0  0  0  0  0  0  0  0  0  0  0  0
   29.5368   16.7596   17.2208 N   0  0  0  0  0  0  0  0  0  0  0  0
   30.2164   16.6430   14.9406 N   0  0  0  0  0  0  0  0  0  0  0  0
   31.5802   18.2559   14.1273 O   0  0  0  0  0  0  0  0  0  0  0  0
   31.6773   20.2181   17.8129 N   0  0  0  0  0  0  0  0  0  0  0  0
   30.9387   19.6453   18.8602 C   0  0  0  0  0  0  0  0  0  0  0  0
   30.2202   18.4574   18.6280 N   0  0  0  0  0  0  0  0  0  0  0  0
   30.2298   17.8905   17.4050 C   0  0  0  0  0  0  0  0  0  0  0  0
   30.9617   18.4379   16.3424 C   0  0  0  0  0  0  0  0  0  0  0  0
   31.6830   19.6067   16.5363 C   0  0  0  0  0  0  0  0  0  0  0  0
  1  3  1  0  0  0  0
  1  4  2  0  0  0  0
  1  5  1  0  0  0  0
  2  6  2  0  0  0  0
  2 11  1  0  0  0  0
  2  5  1  0  0  0  0
  4 10  1  0  0  0  0
  7  8  2  0  0  0  0
  7 12  1  0  0  0  0
  8  9  1  0  0  0  0
  9 10  2  0  0  0  0
 10 11  1  0  0  0  0
 11 12  2  0  0  0  0
M  END
>  <CHROM.1>
30.52353184,17.88429288,16.53660094,2.19013826,-0.92475097,-2.02899650

>  <Name>
ligand

>  <RI>
0

>  <Rbt.Current_Directory>
/home/itssahil/PROJECTS/Mol_Feturizer/New_Systems/rnas/4LX6

>  <Rbt.Executable>
rbdock ($Id: //depot/dev/client3/rdock/2013.1/src/exe/rbdock.cxx#4 $)

>  <Rbt.Library>
libRbt.so (2013.1, Build901 2013/11/27)

>  <Rbt.Parameter_File>
/export/apps/rDock/src/rDock_2013.1_src/data/scripts/dock_solv.prm

>  <Rbt.Receptor>
prm/blind_docking_80.prm

>  <SCORE>
-17.2863

>  <SCORE.INTER>
-17.2863

>  <SCORE.INTER.CONST>
1

>  <SCORE.INTER.POLAR>
0

>  <SCORE.INTER.ROT>
0

>  <SCORE.INTER.SOLV>
10.6071

>  <SCORE.INTER.VDW>
-18.6599

>  <SCORE.INTER.norm>
-1.44053

>  <SCORE.INTRA>
0

>  <SCORE.INTRA.DIHEDRAL>
0

>  <SCORE.INTRA.DIHEDRAL.0>
0

>  <SCORE.INTRA.POLAR>
0

>  <SCORE.INTRA.POLAR.0>
0

>  <SCORE.INTRA.REPUL>
0

>  <SCORE.INTRA.REPUL.0>
0

>  <SCORE.INTRA.SOLV>
0

>  <SCORE.INTRA.SOLV.lig_0>
-28.9128

>  <SCORE.INTRA.VDW>
0

>  <SCORE.INTRA.VDW.0>
0

>  <SCORE.INTRA.norm>
0

>  <SCORE.RESTR>
0

>  <SCORE.RESTR.CAVITY>
0

>  <SCORE.RESTR.norm>
0

>  <SCORE.SYSTEM>
0

>  <SCORE.SYSTEM.CONST>
0

>  <SCORE.SYSTEM.DIHEDRAL>
0

>  <SCORE.SYSTEM.SOLV>
0

>  <SCORE.SYSTEM.norm>
0

>  <SCORE.heavy>
12

>  <SCORE.norm>
-1.44053

>  <RMSD>
2.961

$$$$
ligand
 OpenBabel11021811503D
libRbt.so/2013.1/901 2013/11/27
 12 13  0  0  0  0  0  0  0  0999 V2000
   29.5006   16.1259   16.0371 C   0  0  0  0  0  0  0  0  0  0  0  0
   30.9534   17.8063   15.0939 C   0  0  0  0  0  0  0  0  0  0  0  0
   28.7911   15.0095   15.9194 N   0  0  0  0  0  0  0  0  0  0  0  0
   29.5389   16.7478   17.2199 N   0  0  0  0  0  0  0  0  0  0  0  0
   30.2127   16.6401   14.9375 N   0  0  0  0  0  0  0  0  0  0  0  0
   31.5723   18.2576   14.1263 O   0  0  0  0  0  0  0  0  0  0  0  0
   31.6765   20.2069   17.8186 N   0  0  0  0  0  0  0  0  0  0  0  0
   30.9414   19.6294   18.8657 C   0  0  0  0  0  0  0  0  0  0  0  0
   30.2238   18.4415   18.6313 N   0  0  0  0  0  0  0  0  0  0  0  0
   30.2309   17.8789   17.4063 C   0  0  0  0  0  0  0  0  0  0  0  0
   30.9594   18.4309   16.3437 C   0  0  0  0  0  0  0  0  0  0  0  0
   31.6797   19.6000   16.5398 C   0  0  0  0  0  0  0  0  0  0  0  0
  1  3  1  0  0  0  0
  1  4  2  0  0  0  0
  1  5  1  0  0  0  0
  2  6  2  0  0  0  0
  2 11  1  0  0  0  0
  2  5  1  0  0  0  0
  4 10  1  0  0  0  0
  7  8  2  0  0  0  0
  7 12  1  0  0  0  0
  8  9  1  0  0  0  0
  9 10  2  0  0  0  0
 10 11  1  0  0  0  0
 11 12  2  0  0  0  0
M  END
>  <CHROM.1>
30.52241644,17.87613506,16.53707246,2.19309562,-0.92703984,-2.02310899

>  <Name>
ligand

>  <RI>
0

>  <Rbt.Current_Directory>
/home/itssahil/PROJECTS/Mol_Feturizer/New_Systems/rnas/4LX6

>  <Rbt.Executable>
rbdock ($Id: //depot/dev/client3/rdock/2013.1/src/exe/rbdock.cxx#4 $)

>  <Rbt.Library>
libRbt.so (2013.1, Build901 2013/11/27)

>  <Rbt.Parameter_File>
/export/apps/rDock/src/rDock_2013.1_src/data/scripts/dock_solv.prm

>  <Rbt.Receptor>
prm/pocket_docking_3.prm

>  <SCORE>
-17.2906

>  <SCORE.INTER>
-17.2906

>  <SCORE.INTER.CONST>
1

>  <SCORE.INTER.POLAR>
0

>  <SCORE.INTER.ROT>
0

>  <SCORE.INTER.SOLV>
10.6128

>  <SCORE.INTER.VDW>
-18.6646

>  <SCORE.INTER.norm>
-1.44088

>  <SCORE.INTRA>
0

>  <SCORE.INTRA.DIHEDRAL>
0

>  <SCORE.INTRA.DIHEDRAL.0>
0

>  <SCORE.INTRA.POLAR>
0

>  <SCORE.INTRA.POLAR.0>
0

>  <SCORE.INTRA.REPUL>
0

>  <SCORE.INTRA.REPUL.0>
0

>  <SCORE.INTRA.SOLV>
0

>  <SCORE.INTRA.SOLV.lig_0>
-28.9128

>  <SCORE.INTRA.VDW>
0

>  <SCORE.INTRA.VDW.0>
0

>  <SCORE.INTRA.norm>
0

>  <SCORE.RESTR>
0

>  <SCORE.RESTR.CAVITY>
0

>  <SCORE.RESTR.norm>
0

>  <SCORE.SYSTEM>
0

>  <SCORE.SYSTEM.CONST>
0

>  <SCORE.SYSTEM.DIHEDRAL>
0

>  <SCORE.SYSTEM.SOLV>
0

>  <SCORE.SYSTEM.norm>
0

>  <SCORE.heavy>
12

>  <SCORE.norm>
-1.44088

>  <RMSD>
2.961

$$$$
ligand
 OpenBabel11021811503D
libRbt.so/2013.1/901 2013/11/27
 12 13  0  0  0  0  0  0  0  0999 V2000
   29.5072   16.1241   16.0356 C   0  0  0  0  0  0  0  0  0  0  0  0
   30.9613   17.8082   15.1009 C   0  0  0  0  0  0  0  0  0  0  0  0
   28.8023   15.0052   15.9141 N   0  0  0  0  0  0  0  0  0  0  0  0
   29.5349   16.7475   17.2179 N   0  0  0  0  0  0  0  0  0  0  0  0
   30.2256   16.6393   14.9406 N   0  0  0  0  0  0  0  0  0  0  0  0
   31.5857   18.2603   14.1373 O   0  0  0  0  0  0  0  0  0  0  0  0
   31.6569   20.2142   17.8280 N   0  0  0  0  0  0  0  0  0  0  0  0
   30.9161   19.6356   18.8704 C   0  0  0  0  0  0  0  0  0  0  0  0
   30.2041   18.4451   18.6322 N   0  0  0  0  0  0  0  0  0  0  0  0
   30.2219   17.8810   17.4079 C   0  0  0  0  0  0  0  0  0  0  0  0
   30.9562   18.4342   16.3500 C   0  0  0  0  0  0  0  0  0  0  0  0
   31.6712   19.6059   16.5499 C   0  0  0  0  0  0  0  0  0  0  0  0
  1  3  1  0  0  0  0
  1  4  2  0  0  0  0
  1  5  1  0  0  0  0
  2  6  2  0  0  0  0
  2 11  1  0  0  0  0
  2  5  1  0  0  0  0
  4 10  1  0  0  0  0
  7  8  2  0  0  0  0
  7 12  1  0  0  0  0
  8  9  1  0  0  0  0
  9 10  2  0  0  0  0
 10 11  1  0  0  0  0
 11 12  2  0  0  0  0
M  END
>  <CHROM.1>
30.51967446,17.87823309,16.54086408,2.17989083,-0.92677789,-2.03484901

>  <Name>
ligand

>  <RI>
0

>  <Rbt.Current_Directory>
/home/itssahil/PROJECTS/Mol_Feturizer/New_Systems/rnas/4LX6

>  <Rbt.Executable>
rbdock ($Id: //depot/dev/client3/rdock/2013.1/src/exe/rbdock.cxx#4 $)

>  <Rbt.Library>
libRbt.so (2013.1, Build901 2013/11/27)

>  <Rbt.Parameter_File>
/export/apps/rDock/src/rDock_2013.1_src/data/scripts/dock_solv.prm

>  <Rbt.Receptor>
prm/pocket_docking_3.prm

>  <SCORE>
-17.2833

>  <SCORE.INTER>
-17.2833

>  <SCORE.INTER.CONST>
1

>  <SCORE.INTER.POLAR>
0

>  <SCORE.INTER.ROT>
0

>  <SCORE.INTER.SOLV>
10.663

>  <SCORE.INTER.VDW>
-18.6766

>  <SCORE.INTER.norm>
-1.44028

>  <SCORE.INTRA>
0

>  <SCORE.INTRA.DIHEDRAL>
0

>  <SCORE.INTRA.DIHEDRAL.0>
0

>  <SCORE.INTRA.POLAR>
0

>  <SCORE.INTRA.POLAR.0>
0

>  <SCORE.INTRA.REPUL>
0

>  <SCORE.INTRA.REPUL.0>
0

>  <SCORE.INTRA.SOLV>
0

>  <SCORE.INTRA.SOLV.lig_0>
-28.9128

>  <SCORE.INTRA.VDW>
0

>  <SCORE.INTRA.VDW.0>
0

>  <SCORE.INTRA.norm>
0

>  <SCORE.RESTR>
0

>  <SCORE.RESTR.CAVITY>
0

>  <SCORE.RESTR.norm>
0

>  <SCORE.SYSTEM>
0

>  <SCORE.SYSTEM.CONST>
0

>  <SCORE.SYSTEM.DIHEDRAL>
0

>  <SCORE.SYSTEM.SOLV>
0

>  <SCORE.SYSTEM.norm>
0

>  <SCORE.heavy>
12

>  <SCORE.norm>
-1.44028

>  <RMSD>
2.961

$$$$
ligand
 OpenBabel11021811503D
libRbt.so/2013.1/901 2013/11/27
 12 13  0  0  0  0  0  0  0  0999 V2000
   29.4933   16.1112   16.0295 C   0  0  0  0  0  0  0  0  0  0  0  0
   30.9861   17.7578   15.0890 C   0  0  0  0  0  0  0  0  0  0  0  0
   28.7688   15.0043   15.9141 N   0  0  0  0  0  0  0  0  0  0  0  0
   29.5228   16.7470   17.2051 N   0  0  0  0  0  0  0  0  0  0  0  0
   30.2302   16.6010   14.9351 N   0  0  0  0  0  0  0  0  0  0  0  0
   31.6268   18.1877   14.1258 O   0  0  0  0  0  0  0  0  0  0  0  0
   31.7035   20.1805   17.7955 N   0  0  0  0  0  0  0  0  0  0  0  0
   30.9434   19.6272   18.8378 C   0  0  0  0  0  0  0  0  0  0  0  0
   30.2115   18.4475   18.6065 N   0  0  0  0  0  0  0  0  0  0  0  0
   30.2290   17.8697   17.3886 C   0  0  0  0  0  0  0  0  0  0  0  0
   30.9823   18.3976   16.3310 C   0  0  0  0  0  0  0  0  0  0  0  0
   31.7172   19.5580   16.5243 C   0  0  0  0  0  0  0  0  0  0  0  0
  1  3  1  0  0  0  0
  1  4  2  0  0  0  0
  1  5  1  0  0  0  0
  2  6  2  0  0  0  0
  2 11  1  0  0  0  0
  2  5  1  0  0  0  0
  4 10  1  0  0  0  0
  7  8  2  0  0  0  0
  7 12  1  0  0  0  0
  8  9  1  0  0  0  0
  9 10  2  0  0  0  0
 10 11  1  0  0  0  0
 11 12  2  0  0  0  0
M  END
>  <CHROM.1>
30.53388008,17.85186402,16.52423228,2.18127767,-0.90646879,-2.04471238

>  <Name>
ligand

>  <RI>
0

>  <Rbt.Current_Directory>
/home/itssahil/PROJECTS/Mol_Feturizer/New_Systems/rnas/4LX6

>  <Rbt.Executable>
rbdock ($Id: //depot/dev/client3/rdock/2013.1/src/exe/rbdock.cxx#4 $)

>  <Rbt.Library>
libRbt.so (2013.1, Build901 2013/11/27)

>  <Rbt.Parameter_File>
/export/apps/rDock/src/rDock_2013.1_src/data/scripts/dock_solv.prm

>  <Rbt.Receptor>
prm/pocket_docking_4.prm

>  <SCORE>
-17.2779

>  <SCORE.INTER>
-17.2779

>  <SCORE.INTER.CONST>
1

>  <SCORE.INTER.POLAR>
0

>  <SCORE.INTER.ROT>
0

>  <SCORE.INTER.SOLV>
10.5573

>  <SCORE.INTER.VDW>
-18.6377

>  <SCORE.INTER.norm>
-1.43982

>  <SCORE.INTRA>
0

>  <SCORE.INTRA.DIHEDRAL>
0

>  <SCORE.INTRA.DIHEDRAL.0>
0

>  <SCORE.INTRA.POLAR>
0

>  <SCORE.INTRA.POLAR.0>
0

>  <SCORE.INTRA.REPUL>
0

>  <SCORE.INTRA.REPUL.0>
0

>  <SCORE.INTRA.SOLV>
0

>  <SCORE.INTRA.SOLV.lig_0>
-28.9128

>  <SCORE.INTRA.VDW>
0

>  <SCORE.INTRA.VDW.0>
0

>  <SCORE.INTRA.norm>
0

>  <SCORE.RESTR>
0

>  <SCORE.RESTR.CAVITY>
0

>  <SCORE.RESTR.norm>
0

>  <SCORE.SYSTEM>
0

>  <SCORE.SYSTEM.CONST>
0

>  <SCORE.SYSTEM.DIHEDRAL>
0

>  <SCORE.SYSTEM.SOLV>
0

>  <SCORE.SYSTEM.norm>
0

>  <SCORE.heavy>
12

>  <SCORE.norm>
-1.43982

>  <RMSD>
2.961

$$$$
ligand
 OpenBabel11021811503D
libRbt.so/2013.1/901 2013/11/27
 12 13  0  0  0  0  0  0  0  0999 V2000
   29.4990   16.1295   16.0379 C   0  0  0  0  0  0  0  0  0  0  0  0
   30.9536   17.8070   15.0924 C   0  0  0  0  0  0  0  0  0  0  0  0
   28.7888   15.0134   15.9220 N   0  0  0  0  0  0  0  0  0  0  0  0
   29.5373   16.7535   17.2196 N   0  0  0  0  0  0  0  0  0  0  0  0
   30.2121   16.6411   14.9378 N   0  0  0  0  0  0  0  0  0  0  0  0
   31.5734   18.2560   14.1243 O   0  0  0  0  0  0  0  0  0  0  0  0
   31.6773   20.2120   17.8130 N   0  0  0  0  0  0  0  0  0  0  0  0
   30.9412   19.6371   18.8608 C   0  0  0  0  0  0  0  0  0  0  0  0
   30.2228   18.4493   18.6282 N   0  0  0  0  0  0  0  0  0  0  0  0
   30.2301   17.8844   17.4042 C   0  0  0  0  0  0  0  0  0  0  0  0
   30.9595   18.4339   16.3410 C   0  0  0  0  0  0  0  0  0  0  0  0
   31.6806   19.6028   16.5353 C   0  0  0  0  0  0  0  0  0  0  0  0
  1  3  1  0  0  0  0
  1  4  2  0  0  0  0
  1  5  1  0  0  0  0
  2  6  2  0  0  0  0
  2 11  1  0  0  0  0
  2  5  1  0  0  0  0
  4 10  1  0  0  0  0
  7  8  2  0  0  0  0
  7 12  1  0  0  0  0
  8  9  1  0  0  0  0
  9 10  2  0  0  0  0
 10 11  1  0  0  0  0
 11 12  2  0  0  0  0
M  END
>  <CHROM.1>
30.52201906,17.87983107,16.53520445,2.19294526,-0.92612945,-2.02507503

>  <Name>
ligand

>  <RI>
0

>  <Rbt.Current_Directory>
/home/itssahil/PROJECTS/Mol_Feturizer/New_Systems/rnas/4LX6

>  <Rbt.Executable>
rbdock ($Id: //depot/dev/client3/rdock/2013.1/src/exe/rbdock.cxx#4 $)

>  <Rbt.Library>
libRbt.so (2013.1, Build901 2013/11/27)

>  <Rbt.Parameter_File>
/export/apps/rDock/src/rDock_2013.1_src/data/scripts/dock_solv.prm

>  <Rbt.Receptor>
prm/pocket_docking_4.prm

>  <SCORE>
-17.2898

>  <SCORE.INTER>
-17.2898

>  <SCORE.INTER.CONST>
1

>  <SCORE.INTER.POLAR>
0

>  <SCORE.INTER.ROT>
0

>  <SCORE.INTER.SOLV>
10.603

>  <SCORE.INTER.VDW>
-18.6609

>  <SCORE.INTER.norm>
-1.44082

>  <SCORE.INTRA>
0

>  <SCORE.INTRA.DIHEDRAL>
0

>  <SCORE.INTRA.DIHEDRAL.0>
0

>  <SCORE.INTRA.POLAR>
0

>  <SCORE.INTRA.POLAR.0>
0

>  <SCORE.INTRA.REPUL>
0

>  <SCORE.INTRA.REPUL.0>
0

>  <SCORE.INTRA.SOLV>
0

>  <SCORE.INTRA.SOLV.lig_0>
-28.9128

>  <SCORE.INTRA.VDW>
0

>  <SCORE.INTRA.VDW.0>
0

>  <SCORE.INTRA.norm>
0

>  <SCORE.RESTR>
0

>  <SCORE.RESTR.CAVITY>
0

>  <SCORE.RESTR.norm>
0

>  <SCORE.SYSTEM>
0

>  <SCORE.SYSTEM.CONST>
0

>  <SCORE.SYSTEM.DIHEDRAL>
0

>  <SCORE.SYSTEM.SOLV>
0

>  <SCORE.SYSTEM.norm>
0

>  <SCORE.heavy>
12

>  <SCORE.norm>
-1.44082

>  <RMSD>
2.961

$$$$
ligand
 OpenBabel11021811503D
libRbt.so/2013.1/901 2013/11/27
 12 13  0  0  0  0  0  0  0  0999 V2000
   29.4927   16.1078   16.0303 C   0  0  0  0  0  0  0  0  0  0  0  0
   30.9755   17.7617   15.0868 C   0  0  0  0  0  0  0  0  0  0  0  0
   28.7695   15.0001   15.9150 N   0  0  0  0  0  0  0  0  0  0  0  0
   29.5296   16.7380   17.2087 N   0  0  0  0  0  0  0  0  0  0  0  0
   30.2208   16.6043   14.9329 N   0  0  0  0  0  0  0  0  0  0  0  0
   31.6084   18.1975   14.1211 O   0  0  0  0  0  0  0  0  0  0  0  0
   31.7080   20.1730   17.7996 N   0  0  0  0  0  0  0  0  0  0  0  0
   30.9566   19.6132   18.8448 C   0  0  0  0  0  0  0  0  0  0  0  0
   30.2252   18.4332   18.6131 N   0  0  0  0  0  0  0  0  0  0  0  0
   30.2350   17.8613   17.3925 C   0  0  0  0  0  0  0  0  0  0  0  0
   30.9795   18.3956   16.3319 C   0  0  0  0  0  0  0  0  0  0  0  0
   31.7136   19.5565   16.5254 C   0  0  0  0  0  0  0  0  0  0  0  0
  1  3  1  0  0  0  0
  1  4  2  0  0  0  0
  1  5  1  0  0  0  0
  2  6  2  0  0  0  0
  2 11  1  0  0  0  0
  2  5  1  0  0  0  0
  4 10  1  0  0  0  0
  7  8  2  0  0  0  0
  7 12  1  0  0  0  0
  8  9  1  0  0  0  0
  9 10  2  0  0  0  0
 10 11  1  0  0  0  0
 11 12  2  0  0  0  0
M  END
>  <CHROM.1>
30.53359679,17.84811302,16.52578199,2.19044290,-0.91147529,-2.03270634

>  <Name>
ligand

>  <RI>
0

>  <Rbt.Current_Directory>
/home/itssahil/PROJECTS/Mol_Feturizer/New_Systems/rnas/4LX6

>  <Rbt.Executable>
rbdock ($Id: //depot/dev/client3/rdock/2013.1/src/exe/rbdock.cxx#4 $)

>  <Rbt.Library>
libRbt.so (2013.1, Build901 2013/11/27)

>  <Rbt.Parameter_File>
/export/apps/rDock/src/rDock_2013.1_src/data/scripts/dock_solv.prm

>  <Rbt.Receptor>
prm/pocket_docking_4.prm

>  <SCORE>
-17.2845

>  <SCORE.INTER>
-17.2845

>  <SCORE.INTER.CONST>
1

>  <SCORE.INTER.POLAR>
0

>  <SCORE.INTER.ROT>
0

>  <SCORE.INTER.SOLV>
10.5558

>  <SCORE.INTER.VDW>
-18.6416

>  <SCORE.INTER.norm>
-1.44038

>  <SCORE.INTRA>
0

>  <SCORE.INTRA.DIHEDRAL>
0

>  <SCORE.INTRA.DIHEDRAL.0>
0

>  <SCORE.INTRA.POLAR>
0

>  <SCORE.INTRA.POLAR.0>
0

>  <SCORE.INTRA.REPUL>
0

>  <SCORE.INTRA.REPUL.0>
0

>  <SCORE.INTRA.SOLV>
0

>  <SCORE.INTRA.SOLV.lig_0>
-28.9128

>  <SCORE.INTRA.VDW>
0

>  <SCORE.INTRA.VDW.0>
0

>  <SCORE.INTRA.norm>
0

>  <SCORE.RESTR>
0

>  <SCORE.RESTR.CAVITY>
0

>  <SCORE.RESTR.norm>
0

>  <SCORE.SYSTEM>
0

>  <SCORE.SYSTEM.CONST>
0

>  <SCORE.SYSTEM.DIHEDRAL>
0

>  <SCORE.SYSTEM.SOLV>
0

>  <SCORE.SYSTEM.norm>
0

>  <SCORE.heavy>
12

>  <SCORE.norm>
-1.44038

>  <RMSD>
2.961

$$$$
ligand
 OpenBabel11021811503D
libRbt.so/2013.1/901 2013/11/27
 12 13  0  0  0  0  0  0  0  0999 V2000
   29.5755   16.0593   16.0472 C   0  0  0  0  0  0  0  0  0  0  0  0
   31.0418   17.7296   15.1071 C   0  0  0  0  0  0  0  0  0  0  0  0
   28.8770   14.9354   15.9349 N   0  0  0  0  0  0  0  0  0  0  0  0
   29.5777   16.7067   17.2169 N   0  0  0  0  0  0  0  0  0  0  0  0
   30.3135   16.5549   14.9563 N   0  0  0  0  0  0  0  0  0  0  0  0
   31.6836   18.1644   14.1469 O   0  0  0  0  0  0  0  0  0  0  0  0
   31.6750   20.1935   17.7974 N   0  0  0  0  0  0  0  0  0  0  0  0
   30.9158   19.6334   18.8367 C   0  0  0  0  0  0  0  0  0  0  0  0
   30.2129   18.4354   18.6090 N   0  0  0  0  0  0  0  0  0  0  0  0
   30.2568   17.8466   17.3971 C   0  0  0  0  0  0  0  0  0  0  0  0
   31.0099   18.3810   16.3427 C   0  0  0  0  0  0  0  0  0  0  0  0
   31.7167   19.5593   16.5326 C   0  0  0  0  0  0  0  0  0  0  0  0
  1  3  1  0  0  0  0
  1  4  2  0  0  0  0
  1  5  1  0  0  0  0
  2  6  2  0  0  0  0
  2 11  1  0  0  0  0
  2  5  1  0  0  0  0
  4 10  1  0  0  0  0
  7  8  2  0  0  0  0
  7 12  1  0  0  0  0
  8  9  1  0  0  0  0
  9 10  2  0  0  0  0
 10 11  1  0  0  0  0
 11 12  2  0  0  0  0
M  END
>  <CHROM.1>
30.57164250,17.82727583,16.53631882,2.14813833,-0.92084068,-2.08062404

>  <Name>
ligand

>  <RI>
0

>  <Rbt.Current_Directory>
/home/itssahil/PROJECTS/Mol_Feturizer/New_Systems/rnas/4LX6

>  <Rbt.Executable>
rbdock ($Id: //depot/dev/client3/rdock/2013.1/src/exe/rbdock.cxx#4 $)

>  <Rbt.Library>
libRbt.so (2013.1, Build901 2013/11/27)

>  <Rbt.Parameter_File>
/export/apps/rDock/src/rDock_2013.1_src/data/scripts/dock_solv.prm

>  <Rbt.Receptor>
prm/pocket_docking_5.prm

>  <SCORE>
-17.2917

>  <SCORE.INTER>
-17.2917

>  <SCORE.INTER.CONST>
1

>  <SCORE.INTER.POLAR>
0

>  <SCORE.INTER.ROT>
0

>  <SCORE.INTER.SOLV>
11.0767

>  <SCORE.INTER.VDW>
-18.8201

>  <SCORE.INTER.norm>
-1.44098

>  <SCORE.INTRA>
0

>  <SCORE.INTRA.DIHEDRAL>
0

>  <SCORE.INTRA.DIHEDRAL.0>
0

>  <SCORE.INTRA.POLAR>
0

>  <SCORE.INTRA.POLAR.0>
0

>  <SCORE.INTRA.REPUL>
0

>  <SCORE.INTRA.REPUL.0>
0

>  <SCORE.INTRA.SOLV>
0

>  <SCORE.INTRA.SOLV.lig_0>
-28.9128

>  <SCORE.INTRA.VDW>
0

>  <SCORE.INTRA.VDW.0>
0

>  <SCORE.INTRA.norm>
0

>  <SCORE.RESTR>
0

>  <SCORE.RESTR.CAVITY>
0

>  <SCORE.RESTR.norm>
0

>  <SCORE.SYSTEM>
0

>  <SCORE.SYSTEM.CONST>
0

>  <SCORE.SYSTEM.DIHEDRAL>
0

>  <SCORE.SYSTEM.SOLV>
0

>  <SCORE.SYSTEM.norm>
0

>  <SCORE.heavy>
12

>  <SCORE.norm>
-1.44098

>  <RMSD>
2.961

$$$$
ligand
 OpenBabel11021811503D
libRbt.so/2013.1/901 2013/11/27
 12 13  0  0  0  0  0  0  0  0999 V2000
   29.5047   16.1322   16.0350 C   0  0  0  0  0  0  0  0  0  0  0  0
   30.9774   17.8021   15.1041 C   0  0  0  0  0  0  0  0  0  0  0  0
   28.7903   15.0196   15.9121 N   0  0  0  0  0  0  0  0  0  0  0  0
   29.5335   16.7567   17.2167 N   0  0  0  0  0  0  0  0  0  0  0  0
   30.2320   16.6397   14.9423 N   0  0  0  0  0  0  0  0  0  0  0  0
   31.6096   18.2475   14.1424 O   0  0  0  0  0  0  0  0  0  0  0  0
   31.6840   20.2051   17.8311 N   0  0  0  0  0  0  0  0  0  0  0  0
   30.9340   19.6343   18.8713 C   0  0  0  0  0  0  0  0  0  0  0  0
   30.2123   18.4499   18.6316 N   0  0  0  0  0  0  0  0  0  0  0  0
   30.2298   17.8843   17.4081 C   0  0  0  0  0  0  0  0  0  0  0  0
   30.9732   18.4297   16.3524 C   0  0  0  0  0  0  0  0  0  0  0  0
   31.6978   19.5951   16.5538 C   0  0  0  0  0  0  0  0  0  0  0  0
  1  3  1  0  0  0  0
  1  4  2  0  0  0  0
  1  5  1  0  0  0  0
  2  6  2  0  0  0  0
  2 11  1  0  0  0  0
  2  5  1  0  0  0  0
  4 10  1  0  0  0  0
  7  8  2  0  0  0  0
  7 12  1  0  0  0  0
  8  9  1  0  0  0  0
  9 10  2  0  0  0  0
 10 11  1  0  0  0  0
 11 12  2  0  0  0  0
M  END
>  <CHROM.1>
30.53090928,17.87783377,16.54223223,2.18077992,-0.91703996,-2.03530245

>  <Name>
ligand

>  <RI>
0

>  <Rbt.Current_Directory>
/home/itssahil/PROJECTS/Mol_Feturizer/New_Systems/rnas/4LX6

>  <Rbt.Executable>
rbdock ($Id: //depot/dev/client3/rdock/2013.1/src/exe/rbdock.cxx#4 $)

>  <Rbt.Library>
libRbt.so (2013.1, Build901 2013/11/27)

>  <Rbt.Parameter_File>
/export/apps/rDock/src/rDock_2013.1_src/data/scripts/dock_solv.prm

>  <Rbt.Receptor>
prm/pocket_docking_5.prm

>  <SCORE>
-17.2765

>  <SCORE.INTER>
-17.2765

>  <SCORE.INTER.CONST>
1

>  <SCORE.INTER.POLAR>
0

>  <SCORE.INTER.ROT>
0

>  <SCORE.INTER.SOLV>
10.6036

>  <SCORE.INTER.VDW>
-18.6522

>  <SCORE.INTER.norm>
-1.43971

>  <SCORE.INTRA>
0

>  <SCORE.INTRA.DIHEDRAL>
0

>  <SCORE.INTRA.DIHEDRAL.0>
0

>  <SCORE.INTRA.POLAR>
0

>  <SCORE.INTRA.POLAR.0>
0

>  <SCORE.INTRA.REPUL>
0

>  <SCORE.INTRA.REPUL.0>
0

>  <SCORE.INTRA.SOLV>
0

>  <SCORE.INTRA.SOLV.lig_0>
-28.9128

>  <SCORE.INTRA.VDW>
0

>  <SCORE.INTRA.VDW.0>
0

>  <SCORE.INTRA.norm>
0

>  <SCORE.RESTR>
0

>  <SCORE.RESTR.CAVITY>
0

>  <SCORE.RESTR.norm>
0

>  <SCORE.SYSTEM>
0

>  <SCORE.SYSTEM.CONST>
0

>  <SCORE.SYSTEM.DIHEDRAL>
0

>  <SCORE.SYSTEM.SOLV>
0

>  <SCORE.SYSTEM.norm>
0

>  <SCORE.heavy>
12

>  <SCORE.norm>
-1.43971

>  <RMSD>
2.961

$$$$
ligand
 OpenBabel11021811503D
libRbt.so/2013.1/901 2013/11/27
 12 13  0  0  0  0  0  0  0  0999 V2000
   29.4966   16.0896   16.0280 C   0  0  0  0  0  0  0  0  0  0  0  0
   30.9661   17.7517   15.0784 C   0  0  0  0  0  0  0  0  0  0  0  0
   28.7826   14.9754   15.9170 N   0  0  0  0  0  0  0  0  0  0  0  0
   29.5276   16.7250   17.2038 N   0  0  0  0  0  0  0  0  0  0  0  0
   30.2211   16.5874   14.9290 N   0  0  0  0  0  0  0  0  0  0  0  0
   31.5959   18.1886   14.1112 O   0  0  0  0  0  0  0  0  0  0  0  0
   31.6772   20.1803   17.7814 N   0  0  0  0  0  0  0  0  0  0  0  0
   30.9299   19.6188   18.8285 C   0  0  0  0  0  0  0  0  0  0  0  0
   30.2085   18.4317   18.6015 N   0  0  0  0  0  0  0  0  0  0  0  0
   30.2236   17.8548   17.3832 C   0  0  0  0  0  0  0  0  0  0  0  0
   30.9643   18.3908   16.3208 C   0  0  0  0  0  0  0  0  0  0  0  0
   31.6886   19.5586   16.5098 C   0  0  0  0  0  0  0  0  0  0  0  0
  1  3  1  0  0  0  0
  1  4  2  0  0  0  0
  1  5  1  0  0  0  0
  2  6  2  0  0  0  0
  2 11  1  0  0  0  0
  2  5  1  0  0  0  0
  4 10  1  0  0  0  0
  7  8  2  0  0  0  0
  7 12  1  0  0  0  0
  8  9  1  0  0  0  0
  9 10  2  0  0  0  0
 10 11  1  0  0  0  0
 11 12  2  0  0  0  0
M  END
>  <CHROM.1>
30.52277983,17.84048764,16.51675157,2.18359674,-0.91861741,-2.04232767

>  <Name>
ligand

>  <RI>
0

>  <Rbt.Current_Directory>
/home/itssahil/PROJECTS/Mol_Feturizer/New_Systems/rnas/4LX6

>  <Rbt.Executable>
rbdock ($Id: //depot/dev/client3/rdock/2013.1/src/exe/rbdock.cxx#4 $)

>  <Rbt.Library>
libRbt.so (2013.1, Build901 2013/11/27)

>  <Rbt.Parameter_File>
/export/apps/rDock/src/rDock_2013.1_src/data/scripts/dock_solv.prm

>  <Rbt.Receptor>
prm/pocket_docking_5.prm

>  <SCORE>
-17.3175

>  <SCORE.INTER>
-17.3175

>  <SCORE.INTER.CONST>
1

>  <SCORE.INTER.POLAR>
0

>  <SCORE.INTER.ROT>
0

>  <SCORE.INTER.SOLV>
10.6423

>  <SCORE.INTER.VDW>
-18.6924

>  <SCORE.INTER.norm>
-1.44312

>  <SCORE.INTRA>
0

>  <SCORE.INTRA.DIHEDRAL>
0

>  <SCORE.INTRA.DIHEDRAL.0>
0

>  <SCORE.INTRA.POLAR>
0

>  <SCORE.INTRA.POLAR.0>
0

>  <SCORE.INTRA.REPUL>
0

>  <SCORE.INTRA.REPUL.0>
0

>  <SCORE.INTRA.SOLV>
0

>  <SCORE.INTRA.SOLV.lig_0>
-28.9128

>  <SCORE.INTRA.VDW>
0

>  <SCORE.INTRA.VDW.0>
0

>  <SCORE.INTRA.norm>
0

>  <SCORE.RESTR>
0

>  <SCORE.RESTR.CAVITY>
0

>  <SCORE.RESTR.norm>
0

>  <SCORE.SYSTEM>
0

>  <SCORE.SYSTEM.CONST>
0

>  <SCORE.SYSTEM.DIHEDRAL>
0

>  <SCORE.SYSTEM.SOLV>
0

>  <SCORE.SYSTEM.norm>
0

>  <SCORE.heavy>
12

>  <SCORE.norm>
-1.44312

>  <RMSD>
2.961

$$$$
ligand
 OpenBabel11021811503D
libRbt.so/2013.1/901 2013/11/27
 12 13  0  0  0  0  0  0  0  0999 V2000
   29.4981   16.0843   16.0306 C   0  0  0  0  0  0  0  0  0  0  0  0
   30.9621   17.7488   15.0764 C   0  0  0  0  0  0  0  0  0  0  0  0
   28.7866   14.9683   15.9222 N   0  0  0  0  0  0  0  0  0  0  0  0
   29.5296   16.7213   17.2056 N   0  0  0  0  0  0  0  0  0  0  0  0
   30.2195   16.5825   14.9297 N   0  0  0  0  0  0  0  0  0  0  0  0
   31.5892   18.1860   14.1076 O   0  0  0  0  0  0  0  0  0  0  0  0
   31.6719   20.1824   17.7751 N   0  0  0  0  0  0  0  0  0  0  0  0
   30.9278   19.6204   18.8243 C   0  0  0  0  0  0  0  0  0  0  0  0
   30.2088   18.4314   18.5999 N   0  0  0  0  0  0  0  0  0  0  0  0
   30.2232   17.8530   17.3824 C   0  0  0  0  0  0  0  0  0  0  0  0
   30.9608   18.3894   16.3181 C   0  0  0  0  0  0  0  0  0  0  0  0
   31.6827   19.5591   16.5043 C   0  0  0  0  0  0  0  0  0  0  0  0
  1  3  1  0  0  0  0
  1  4  2  0  0  0  0
  1  5  1  0  0  0  0
  2  6  2  0  0  0  0
  2 11  1  0  0  0  0
  2  5  1  0  0  0  0
  4 10  1  0  0  0  0
  7  8  2  0  0  0  0
  7 12  1  0  0  0  0
  8  9  1  0  0  0  0
  9 10  2  0  0  0  0
 10 11  1  0  0  0  0
 11 12  2  0  0  0  0
M  END
>  <CHROM.1>
30.52094812,17.83826938,16.51541898,2.18429749,-0.92152400,-2.04302382

>  <Name>
ligand

>  <RI>
0

>  <Rbt.Current_Directory>
/home/itssahil/PROJECTS/Mol_Feturizer/New_Systems/rnas/4LX6

>  <Rbt.Executable>
rbdock ($Id: //depot/dev/client3/rdock/2013.1/src/exe/rbdock.cxx#4 $)

>  <Rbt.Library>
libRbt.so (2013.1, Build901 2013/11/27)

>  <Rbt.Parameter_File>
/export/apps/rDock/src/rDock_2013.1_src/data/scripts/dock_solv.prm

>  <Rbt.Receptor>
prm/pocket_docking_6.prm

>  <SCORE>
-17.3147

>  <SCORE.INTER>
-17.3147

>  <SCORE.INTER.CONST>
1

>  <SCORE.INTER.POLAR>
0

>  <SCORE.INTER.ROT>
0

>  <SCORE.INTER.SOLV>
10.6685

>  <SCORE.INTER.VDW>
-18.6993

>  <SCORE.INTER.norm>
-1.44289

>  <SCORE.INTRA>
0

>  <SCORE.INTRA.DIHEDRAL>
0

>  <SCORE.INTRA.DIHEDRAL.0>
0

>  <SCORE.INTRA.POLAR>
0

>  <SCORE.INTRA.POLAR.0>
0

>  <SCORE.INTRA.REPUL>
0

>  <SCORE.INTRA.REPUL.0>
0

>  <SCORE.INTRA.SOLV>
0

>  <SCORE.INTRA.SOLV.lig_0>
-28.9128

>  <SCORE.INTRA.VDW>
0

>  <SCORE.INTRA.VDW.0>
0

>  <SCORE.INTRA.norm>
0

>  <SCORE.RESTR>
0

>  <SCORE.RESTR.CAVITY>
0

>  <SCORE.RESTR.norm>
0

>  <SCORE.SYSTEM>
0

>  <SCORE.SYSTEM.CONST>
0

>  <SCORE.SYSTEM.DIHEDRAL>
0

>  <SCORE.SYSTEM.SOLV>
0

>  <SCORE.SYSTEM.norm>
0

>  <SCORE.heavy>
12

>  <SCORE.norm>
-1.44289

>  <RMSD>
2.961

$$$$
ligand
 OpenBabel11021811503D
libRbt.so/2013.1/901 2013/11/27
 12 13  0  0  0  0  0  0  0  0999 V2000
   29.5013   16.1248   16.0356 C   0  0  0  0  0  0  0  0  0  0  0  0
   30.9536   17.8067   15.0943 C   0  0  0  0  0  0  0  0  0  0  0  0
   28.7934   15.0075   15.9171 N   0  0  0  0  0  0  0  0  0  0  0  0
   29.5369   16.7471   17.2183 N   0  0  0  0  0  0  0  0  0  0  0  0
   30.2147   16.6395   14.9371 N   0  0  0  0  0  0  0  0  0  0  0  0
   31.5736   18.2584   14.1276 O   0  0  0  0  0  0  0  0  0  0  0  0
   31.6694   20.2090   17.8194 N   0  0  0  0  0  0  0  0  0  0  0  0
   30.9332   19.6311   18.8655 C   0  0  0  0  0  0  0  0  0  0  0  0
   30.2174   18.4422   18.6302 N   0  0  0  0  0  0  0  0  0  0  0  0
   30.2272   17.8791   17.4054 C   0  0  0  0  0  0  0  0  0  0  0  0
   30.9568   18.4317   16.3439 C   0  0  0  0  0  0  0  0  0  0  0  0
   31.6753   19.6017   16.5408 C   0  0  0  0  0  0  0  0  0  0  0  0
  1  3  1  0  0  0  0
  1  4  2  0  0  0  0
  1  5  1  0  0  0  0
  2  6  2  0  0  0  0
  2 11  1  0  0  0  0
  2  5  1  0  0  0  0
  4 10  1  0  0  0  0
  7  8  2  0  0  0  0
  7 12  1  0  0  0  0
  8  9  1  0  0  0  0
  9 10  2  0  0  0  0
 10 11  1  0  0  0  0
 11 12  2  0  0  0  0
M  END
>  <CHROM.1>
30.52018092,17.87645030,16.53672493,2.18972642,-0.92740133,-2.02614525

>  <Name>
ligand

>  <RI>
0

>  <Rbt.Current_Directory>
/home/itssahil/PROJECTS/Mol_Feturizer/New_Systems/rnas/4LX6

>  <Rbt.Executable>
rbdock ($Id: //depot/dev/client3/rdock/2013.1/src/exe/rbdock.cxx#4 $)

>  <Rbt.Library>
libRbt.so (2013.1, Build901 2013/11/27)

>  <Rbt.Parameter_File>
/export/apps/rDock/src/rDock_2013.1_src/data/scripts/dock_solv.prm

>  <Rbt.Receptor>
prm/pocket_docking_6.prm

>  <SCORE>
-17.2908

>  <SCORE.INTER>
-17.2908

>  <SCORE.INTER.CONST>
1

>  <SCORE.INTER.POLAR>
0

>  <SCORE.INTER.ROT>
0

>  <SCORE.INTER.SOLV>
10.6243

>  <SCORE.INTER.VDW>
-18.6686

>  <SCORE.INTER.norm>
-1.4409

>  <SCORE.INTRA>
0

>  <SCORE.INTRA.DIHEDRAL>
0

>  <SCORE.INTRA.DIHEDRAL.0>
0

>  <SCORE.INTRA.POLAR>
0

>  <SCORE.INTRA.POLAR.0>
0

>  <SCORE.INTRA.REPUL>
0

>  <SCORE.INTRA.REPUL.0>
0

>  <SCORE.INTRA.SOLV>
0

>  <SCORE.INTRA.SOLV.lig_0>
-28.9128

>  <SCORE.INTRA.VDW>
0

>  <SCORE.INTRA.VDW.0>
0

>  <SCORE.INTRA.norm>
0

>  <SCORE.RESTR>
0

>  <SCORE.RESTR.CAVITY>
0

>  <SCORE.RESTR.norm>
0

>  <SCORE.SYSTEM>
0

>  <SCORE.SYSTEM.CONST>
0

>  <SCORE.SYSTEM.DIHEDRAL>
0

>  <SCORE.SYSTEM.SOLV>
0

>  <SCORE.SYSTEM.norm>
0

>  <SCORE.heavy>
12

>  <SCORE.norm>
-1.4409

>  <RMSD>
2.961

$$$$
ligand
 OpenBabel11021811503D
libRbt.so/2013.1/901 2013/11/27
 12 13  0  0  0  0  0  0  0  0999 V2000
   29.4984   16.0905   16.0310 C   0  0  0  0  0  0  0  0  0  0  0  0
   30.9704   17.7509   15.0822 C   0  0  0  0  0  0  0  0  0  0  0  0
   28.7839   14.9767   15.9199 N   0  0  0  0  0  0  0  0  0  0  0  0
   29.5280   16.7270   17.2063 N   0  0  0  0  0  0  0  0  0  0  0  0
   30.2249   16.5869   14.9327 N   0  0  0  0  0  0  0  0  0  0  0  0
   31.6020   18.1865   14.1156 O   0  0  0  0  0  0  0  0  0  0  0  0
   31.6788   20.1814   17.7841 N   0  0  0  0  0  0  0  0  0  0  0  0
   30.9295   19.6213   18.8306 C   0  0  0  0  0  0  0  0  0  0  0  0
   30.2077   18.4345   18.6035 N   0  0  0  0  0  0  0  0  0  0  0  0
   30.2244   17.8565   17.3858 C   0  0  0  0  0  0  0  0  0  0  0  0
   30.9670   18.3911   16.3241 C   0  0  0  0  0  0  0  0  0  0  0  0
   31.6918   19.5586   16.5131 C   0  0  0  0  0  0  0  0  0  0  0  0
  1  3  1  0  0  0  0
  1  4  2  0  0  0  0
  1  5  1  0  0  0  0
  2  6  2  0  0  0  0
  2 11  1  0  0  0  0
  2  5  1  0  0  0  0
  4 10  1  0  0  0  0
  7  8  2  0  0  0  0
  7 12  1  0  0  0  0
  8  9  1  0  0  0  0
  9 10  2  0  0  0  0
 10 11  1  0  0  0  0
 11 12  2  0  0  0  0
M  END
>  <CHROM.1>
30.52490468,17.84120670,16.51980085,2.18176790,-0.91737308,-2.04467262

>  <Name>
ligand

>  <RI>
0

>  <Rbt.Current_Directory>
/home/itssahil/PROJECTS/Mol_Feturizer/New_Systems/rnas/4LX6

>  <Rbt.Executable>
rbdock ($Id: //depot/dev/client3/rdock/2013.1/src/exe/rbdock.cxx#4 $)

>  <Rbt.Library>
libRbt.so (2013.1, Build901 2013/11/27)

>  <Rbt.Parameter_File>
/export/apps/rDock/src/rDock_2013.1_src/data/scripts/dock_solv.prm

>  <Rbt.Receptor>
prm/pocket_docking_6.prm

>  <SCORE>
-17.3138

>  <SCORE.INTER>
-17.3138

>  <SCORE.INTER.CONST>
1

>  <SCORE.INTER.POLAR>
0

>  <SCORE.INTER.ROT>
0

>  <SCORE.INTER.SOLV>
10.6481

>  <SCORE.INTER.VDW>
-18.6919

>  <SCORE.INTER.norm>
-1.44282

>  <SCORE.INTRA>
0

>  <SCORE.INTRA.DIHEDRAL>
0

>  <SCORE.INTRA.DIHEDRAL.0>
0

>  <SCORE.INTRA.POLAR>
0

>  <SCORE.INTRA.POLAR.0>
0

>  <SCORE.INTRA.REPUL>
0

>  <SCORE.INTRA.REPUL.0>
0

>  <SCORE.INTRA.SOLV>
0

>  <SCORE.INTRA.SOLV.lig_0>
-28.9128

>  <SCORE.INTRA.VDW>
0

>  <SCORE.INTRA.VDW.0>
0

>  <SCORE.INTRA.norm>
0

>  <SCORE.RESTR>
0

>  <SCORE.RESTR.CAVITY>
0

>  <SCORE.RESTR.norm>
0

>  <SCORE.SYSTEM>
0

>  <SCORE.SYSTEM.CONST>
0

>  <SCORE.SYSTEM.DIHEDRAL>
0

>  <SCORE.SYSTEM.SOLV>
0

>  <SCORE.SYSTEM.norm>
0

>  <SCORE.heavy>
12

>  <SCORE.norm>
-1.44282

>  <RMSD>
2.961

$$$$
ligand
 OpenBabel11021811503D
libRbt.so/2013.1/901 2013/11/27
 12 13  0  0  0  0  0  0  0  0999 V2000
   29.5030   16.1216   16.0336 C   0  0  0  0  0  0  0  0  0  0  0  0
   30.9540   17.8065   15.0956 C   0  0  0  0  0  0  0  0  0  0  0  0
   28.7966   15.0036   15.9131 N   0  0  0  0  0  0  0  0  0  0  0  0
   29.5370   16.7424   17.2171 N   0  0  0  0  0  0  0  0  0  0  0  0
   30.2166   16.6386   14.9363 N   0  0  0  0  0  0  0  0  0  0  0  0
   31.5742   18.2602   14.1299 O   0  0  0  0  0  0  0  0  0  0  0  0
   31.6649   20.2060   17.8244 N   0  0  0  0  0  0  0  0  0  0  0  0
   30.9286   19.6258   18.8692 C   0  0  0  0  0  0  0  0  0  0  0  0
   30.2145   18.4363   18.6318 N   0  0  0  0  0  0  0  0  0  0  0  0
   30.2259   17.8749   17.4063 C   0  0  0  0  0  0  0  0  0  0  0  0
   30.9556   18.4298   16.3460 C   0  0  0  0  0  0  0  0  0  0  0  0
   31.6725   19.6005   16.5450 C   0  0  0  0  0  0  0  0  0  0  0  0
  1  3  1  0  0  0  0
  1  4  2  0  0  0  0
  1  5  1  0  0  0  0
  2  6  2  0  0  0  0
  2 11  1  0  0  0  0
  2  5  1  0  0  0  0
  4 10  1  0  0  0  0
  7  8  2  0  0  0  0
  7 12  1  0  0  0  0
  8  9  1  0  0  0  0
  9 10  2  0  0  0  0
 10 11  1  0  0  0  0
 11 12  2  0  0  0  0
M  END
>  <CHROM.1>
30.51944993,17.87377348,16.53779734,2.18773869,-0.92816805,-2.02640527

>  <Name>
ligand

>  <RI>
0

>  <Rbt.Current_Directory>
/home/itssahil/PROJECTS/Mol_Feturizer/New_Systems/rnas/4LX6

>  <Rbt.Executable>
rbdock ($Id: //depot/dev/client3/rdock/2013.1/src/exe/rbdock.cxx#4 $)

>  <Rbt.Library>
libRbt.so (2013.1, Build901 2013/11/27)

>  <Rbt.Parameter_File>
/export/apps/rDock/src/rDock_2013.1_src/data/scripts/dock_solv.prm

>  <Rbt.Receptor>
prm/pocket_docking_6.prm

>  <SCORE>
-17.291

>  <SCORE.INTER>
-17.291

>  <SCORE.INTER.CONST>
1

>  <SCORE.INTER.POLAR>
0

>  <SCORE.INTER.ROT>
0

>  <SCORE.INTER.SOLV>
10.6382

>  <SCORE.INTER.VDW>
-18.6734

>  <SCORE.INTER.norm>
-1.44092

>  <SCORE.INTRA>
0

>  <SCORE.INTRA.DIHEDRAL>
0

>  <SCORE.INTRA.DIHEDRAL.0>
0

>  <SCORE.INTRA.POLAR>
0

>  <SCORE.INTRA.POLAR.0>
0

>  <SCORE.INTRA.REPUL>
0

>  <SCORE.INTRA.REPUL.0>
0

>  <SCORE.INTRA.SOLV>
0

>  <SCORE.INTRA.SOLV.lig_0>
-28.9128

>  <SCORE.INTRA.VDW>
0

>  <SCORE.INTRA.VDW.0>
0

>  <SCORE.INTRA.norm>
0

>  <SCORE.RESTR>
0

>  <SCORE.RESTR.CAVITY>
0

>  <SCORE.RESTR.norm>
0

>  <SCORE.SYSTEM>
0

>  <SCORE.SYSTEM.CONST>
0

>  <SCORE.SYSTEM.DIHEDRAL>
0

>  <SCORE.SYSTEM.SOLV>
0

>  <SCORE.SYSTEM.norm>
0

>  <SCORE.heavy>
12

>  <SCORE.norm>
-1.44092

>  <RMSD>
2.961

$$$$
ligand
 OpenBabel11021811503D
libRbt.so/2013.1/901 2013/11/27
 12 13  0  0  0  0  0  0  0  0999 V2000
   29.4917   16.1055   16.0313 C   0  0  0  0  0  0  0  0  0  0  0  0
   30.9717   17.7586   15.0821 C   0  0  0  0  0  0  0  0  0  0  0  0
   28.7700   14.9964   15.9197 N   0  0  0  0  0  0  0  0  0  0  0  0
   29.5284   16.7392   17.2079 N   0  0  0  0  0  0  0  0  0  0  0  0
   30.2185   16.5997   14.9321 N   0  0  0  0  0  0  0  0  0  0  0  0
   31.6034   18.1923   14.1148 O   0  0  0  0  0  0  0  0  0  0  0  0
   31.7024   20.1788   17.7874 N   0  0  0  0  0  0  0  0  0  0  0  0
   30.9523   19.6212   18.8346 C   0  0  0  0  0  0  0  0  0  0  0  0
   30.2225   18.4394   18.6069 N   0  0  0  0  0  0  0  0  0  0  0  0
   30.2323   17.8639   17.3879 C   0  0  0  0  0  0  0  0  0  0  0  0
   30.9755   18.3962   16.3254 C   0  0  0  0  0  0  0  0  0  0  0  0
   31.7081   19.5586   16.5150 C   0  0  0  0  0  0  0  0  0  0  0  0
  1  3  1  0  0  0  0
  1  4  2  0  0  0  0
  1  5  1  0  0  0  0
  2  6  2  0  0  0  0
  2 11  1  0  0  0  0
  2  5  1  0  0  0  0
  4 10  1  0  0  0  0
  7  8  2  0  0  0  0
  7 12  1  0  0  0  0
  8  9  1  0  0  0  0
  9 10  2  0  0  0  0
 10 11  1  0  0  0  0
 11 12  2  0  0  0  0
M  END
>  <CHROM.1>
30.53048279,17.84861655,16.52108337,2.19026556,-0.91295248,-2.03579640

>  <Name>
ligand

>  <RI>
0

>  <Rbt.Current_Directory>
/home/itssahil/PROJECTS/Mol_Feturizer/New_Systems/rnas/4LX6

>  <Rbt.Executable>
rbdock ($Id: //depot/dev/client3/rdock/2013.1/src/exe/rbdock.cxx#4 $)

>  <Rbt.Library>
libRbt.so (2013.1, Build901 2013/11/27)

>  <Rbt.Parameter_File>
/export/apps/rDock/src/rDock_2013.1_src/data/scripts/dock_solv.prm

>  <Rbt.Receptor>
prm/pocket_docking_6.prm

>  <SCORE>
-17.284

>  <SCORE.INTER>
-17.284

>  <SCORE.INTER.CONST>
1

>  <SCORE.INTER.POLAR>
0

>  <SCORE.INTER.ROT>
0

>  <SCORE.INTER.SOLV>
10.5675

>  <SCORE.INTER.VDW>
-18.6452

>  <SCORE.INTER.norm>
-1.44033

>  <SCORE.INTRA>
0

>  <SCORE.INTRA.DIHEDRAL>
0

>  <SCORE.INTRA.DIHEDRAL.0>
0

>  <SCORE.INTRA.POLAR>
0

>  <SCORE.INTRA.POLAR.0>
0

>  <SCORE.INTRA.REPUL>
0

>  <SCORE.INTRA.REPUL.0>
0

>  <SCORE.INTRA.SOLV>
0

>  <SCORE.INTRA.SOLV.lig_0>
-28.9128

>  <SCORE.INTRA.VDW>
0

>  <SCORE.INTRA.VDW.0>
0

>  <SCORE.INTRA.norm>
0

>  <SCORE.RESTR>
0

>  <SCORE.RESTR.CAVITY>
0

>  <SCORE.RESTR.norm>
0

>  <SCORE.SYSTEM>
0

>  <SCORE.SYSTEM.CONST>
0

>  <SCORE.SYSTEM.DIHEDRAL>
0

>  <SCORE.SYSTEM.SOLV>
0

>  <SCORE.SYSTEM.norm>
0

>  <SCORE.heavy>
12

>  <SCORE.norm>
-1.44033

>  <RMSD>
2.961

$$$$
ligand
 OpenBabel11021811503D
libRbt.so/2013.1/901 2013/11/27
 12 13  0  0  0  0  0  0  0  0999 V2000
   29.5050   16.1166   16.0368 C   0  0  0  0  0  0  0  0  0  0  0  0
   30.9484   17.8045   15.0923 C   0  0  0  0  0  0  0  0  0  0  0  0
   28.8019   14.9962   15.9199 N   0  0  0  0  0  0  0  0  0  0  0  0
   29.5399   16.7396   17.2191 N   0  0  0  0  0  0  0  0  0  0  0  0
   30.2143   16.6340   14.9368 N   0  0  0  0  0  0  0  0  0  0  0  0
   31.5648   18.2585   14.1243 O   0  0  0  0  0  0  0  0  0  0  0  0
   31.6581   20.2111   17.8152 N   0  0  0  0  0  0  0  0  0  0  0  0
   30.9263   19.6303   18.8628 C   0  0  0  0  0  0  0  0  0  0  0  0
   30.2153   18.4382   18.6292 N   0  0  0  0  0  0  0  0  0  0  0  0
   30.2256   17.8747   17.4046 C   0  0  0  0  0  0  0  0  0  0  0  0
   30.9509   18.4300   16.3416 C   0  0  0  0  0  0  0  0  0  0  0  0
   31.6646   19.6033   16.5368 C   0  0  0  0  0  0  0  0  0  0  0  0
  1  3  1  0  0  0  0
  1  4  2  0  0  0  0
  1  5  1  0  0  0  0
  2  6  2  0  0  0  0
  2 11  1  0  0  0  0
  2  5  1  0  0  0  0
  4 10  1  0  0  0  0
  7  8  2  0  0  0  0
  7 12  1  0  0  0  0
  8  9  1  0  0  0  0
  9 10  2  0  0  0  0
 10 11  1  0  0  0  0
 11 12  2  0  0  0  0
M  END
>  <CHROM.1>
30.51706844,17.87292998,16.53541484,2.18902079,-0.93209883,-2.02712542

>  <Name>
ligand

>  <RI>
0

>  <Rbt.Current_Directory>
/home/itssahil/PROJECTS/Mol_Feturizer/New_Systems/rnas/4LX6

>  <Rbt.Executable>
rbdock ($Id: //depot/dev/client3/rdock/2013.1/src/exe/rbdock.cxx#4 $)

>  <Rbt.Library>
libRbt.so (2013.1, Build901 2013/11/27)

>  <Rbt.Parameter_File>
/export/apps/rDock/src/rDock_2013.1_src/data/scripts/dock_solv.prm

>  <Rbt.Receptor>
prm/pocket_docking_6.prm

>  <SCORE>
-17.2908

>  <SCORE.INTER>
-17.2908

>  <SCORE.INTER.CONST>
1

>  <SCORE.INTER.POLAR>
0

>  <SCORE.INTER.ROT>
0

>  <SCORE.INTER.SOLV>
10.6707

>  <SCORE.INTER.VDW>
-18.6841

>  <SCORE.INTER.norm>
-1.4409

>  <SCORE.INTRA>
0

>  <SCORE.INTRA.DIHEDRAL>
0

>  <SCORE.INTRA.DIHEDRAL.0>
0

>  <SCORE.INTRA.POLAR>
0

>  <SCORE.INTRA.POLAR.0>
0

>  <SCORE.INTRA.REPUL>
0

>  <SCORE.INTRA.REPUL.0>
0

>  <SCORE.INTRA.SOLV>
0

>  <SCORE.INTRA.SOLV.lig_0>
-28.9128

>  <SCORE.INTRA.VDW>
0

>  <SCORE.INTRA.VDW.0>
0

>  <SCORE.INTRA.norm>
0

>  <SCORE.RESTR>
0

>  <SCORE.RESTR.CAVITY>
0

>  <SCORE.RESTR.norm>
0

>  <SCORE.SYSTEM>
0

>  <SCORE.SYSTEM.CONST>
0

>  <SCORE.SYSTEM.DIHEDRAL>
0

>  <SCORE.SYSTEM.SOLV>
0

>  <SCORE.SYSTEM.norm>
0

>  <SCORE.heavy>
12

>  <SCORE.norm>
-1.4409

>  <RMSD>
2.961

$$$$
ligand
 OpenBabel11021811503D
libRbt.so/2013.1/901 2013/11/27
 12 13  0  0  0  0  0  0  0  0999 V2000
   29.5039   16.1275   16.0355 C   0  0  0  0  0  0  0  0  0  0  0  0
   30.9619   17.8079   15.1003 C   0  0  0  0  0  0  0  0  0  0  0  0
   28.7941   15.0118   15.9135 N   0  0  0  0  0  0  0  0  0  0  0  0
   29.5380   16.7478   17.2192 N   0  0  0  0  0  0  0  0  0  0  0  0
   30.2210   16.6425   14.9395 N   0  0  0  0  0  0  0  0  0  0  0  0
   31.5852   18.2599   14.1358 O   0  0  0  0  0  0  0  0  0  0  0  0
   31.6760   20.2044   17.8310 N   0  0  0  0  0  0  0  0  0  0  0  0
   30.9362   19.6262   18.8744 C   0  0  0  0  0  0  0  0  0  0  0  0
   30.2186   18.4392   18.6355 N   0  0  0  0  0  0  0  0  0  0  0  0
   30.2302   17.8781   17.4098 C   0  0  0  0  0  0  0  0  0  0  0  0
   30.9634   18.4309   16.3509 C   0  0  0  0  0  0  0  0  0  0  0  0
   31.6838   19.5991   16.5515 C   0  0  0  0  0  0  0  0  0  0  0  0
  1  3  1  0  0  0  0
  1  4  2  0  0  0  0
  1  5  1  0  0  0  0
  2  6  2  0  0  0  0
  2 11  1  0  0  0  0
  2  5  1  0  0  0  0
  4 10  1  0  0  0  0
  7  8  2  0  0  0  0
  7 12  1  0  0  0  0
  8  9  1  0  0  0  0
  9 10  2  0  0  0  0
 10 11  1  0  0  0  0
 11 12  2  0  0  0  0
M  END
>  <CHROM.1>
30.52519435,17.87619718,16.54183834,2.18765266,-0.92453001,-2.02618823

>  <Name>
ligand

>  <RI>
0

>  <Rbt.Current_Directory>
/home/itssahil/PROJECTS/Mol_Feturizer/New_Systems/rnas/4LX6

>  <Rbt.Executable>
rbdock ($Id: //depot/dev/client3/rdock/2013.1/src/exe/rbdock.cxx#4 $)

>  <Rbt.Library>
libRbt.so (2013.1, Build901 2013/11/27)

>  <Rbt.Parameter_File>
/export/apps/rDock/src/rDock_2013.1_src/data/scripts/dock_solv.prm

>  <Rbt.Receptor>
prm/pocket_docking_7.prm

>  <SCORE>
-17.2877

>  <SCORE.INTER>
-17.2877

>  <SCORE.INTER.CONST>
1

>  <SCORE.INTER.POLAR>
0

>  <SCORE.INTER.ROT>
0

>  <SCORE.INTER.SOLV>
10.6191

>  <SCORE.INTER.VDW>
-18.6648

>  <SCORE.INTER.norm>
-1.44064

>  <SCORE.INTRA>
0

>  <SCORE.INTRA.DIHEDRAL>
0

>  <SCORE.INTRA.DIHEDRAL.0>
0

>  <SCORE.INTRA.POLAR>
0

>  <SCORE.INTRA.POLAR.0>
0

>  <SCORE.INTRA.REPUL>
0

>  <SCORE.INTRA.REPUL.0>
0

>  <SCORE.INTRA.SOLV>
0

>  <SCORE.INTRA.SOLV.lig_0>
-28.9128

>  <SCORE.INTRA.VDW>
0

>  <SCORE.INTRA.VDW.0>
0

>  <SCORE.INTRA.norm>
0

>  <SCORE.RESTR>
0

>  <SCORE.RESTR.CAVITY>
0

>  <SCORE.RESTR.norm>
0

>  <SCORE.SYSTEM>
0

>  <SCORE.SYSTEM.CONST>
0

>  <SCORE.SYSTEM.DIHEDRAL>
0

>  <SCORE.SYSTEM.SOLV>
0

>  <SCORE.SYSTEM.norm>
0

>  <SCORE.heavy>
12

>  <SCORE.norm>
-1.44064

>  <RMSD>
2.961

$$$$
ligand
 OpenBabel11021811503D
libRbt.so/2013.1/901 2013/11/27
 12 13  0  0  0  0  0  0  0  0999 V2000
   29.4914   16.1067   16.0301 C   0  0  0  0  0  0  0  0  0  0  0  0
   30.9730   17.7603   15.0841 C   0  0  0  0  0  0  0  0  0  0  0  0
   28.7686   14.9986   15.9163 N   0  0  0  0  0  0  0  0  0  0  0  0
   29.5286   16.7381   17.2079 N   0  0  0  0  0  0  0  0  0  0  0  0
   30.2186   16.6024   14.9318 N   0  0  0  0  0  0  0  0  0  0  0  0
   31.6051   18.1953   14.1176 O   0  0  0  0  0  0  0  0  0  0  0  0
   31.7060   20.1745   17.7941 N   0  0  0  0  0  0  0  0  0  0  0  0
   30.9554   19.6156   18.8402 C   0  0  0  0  0  0  0  0  0  0  0  0
   30.2244   18.4350   18.6102 N   0  0  0  0  0  0  0  0  0  0  0  0
   30.2337   17.8618   17.3901 C   0  0  0  0  0  0  0  0  0  0  0  0
   30.9774   18.3954   16.3286 C   0  0  0  0  0  0  0  0  0  0  0  0
   31.7112   19.5568   16.5205 C   0  0  0  0  0  0  0  0  0  0  0  0
  1  3  1  0  0  0  0
  1  4  2  0  0  0  0
  1  5  1  0  0  0  0
  2  6  2  0  0  0  0
  2 11  1  0  0  0  0
  2  5  1  0  0  0  0
  4 10  1  0  0  0  0
  7  8  2  0  0  0  0
  7 12  1  0  0  0  0
  8  9  1  0  0  0  0
  9 10  2  0  0  0  0
 10 11  1  0  0  0  0
 11 12  2  0  0  0  0
M  END
>  <CHROM.1>
30.53184081,17.84792097,16.52324210,2.19095701,-0.91207907,-2.03330857

>  <Name>
ligand

>  <RI>
0

>  <Rbt.Current_Directory>
/home/itssahil/PROJECTS/Mol_Feturizer/New_Systems/rnas/4LX6

>  <Rbt.Executable>
rbdock ($Id: //depot/dev/client3/rdock/2013.1/src/exe/rbdock.cxx#4 $)

>  <Rbt.Library>
libRbt.so (2013.1, Build901 2013/11/27)

>  <Rbt.Parameter_File>
/export/apps/rDock/src/rDock_2013.1_src/data/scripts/dock_solv.prm

>  <Rbt.Receptor>
prm/pocket_docking_7.prm

>  <SCORE>
-17.285

>  <SCORE.INTER>
-17.285

>  <SCORE.INTER.CONST>
1

>  <SCORE.INTER.POLAR>
0

>  <SCORE.INTER.ROT>
0

>  <SCORE.INTER.SOLV>
10.5556

>  <SCORE.INTER.VDW>
-18.6419

>  <SCORE.INTER.norm>
-1.44042

>  <SCORE.INTRA>
0

>  <SCORE.INTRA.DIHEDRAL>
0

>  <SCORE.INTRA.DIHEDRAL.0>
0

>  <SCORE.INTRA.POLAR>
0

>  <SCORE.INTRA.POLAR.0>
0

>  <SCORE.INTRA.REPUL>
0

>  <SCORE.INTRA.REPUL.0>
0

>  <SCORE.INTRA.SOLV>
0

>  <SCORE.INTRA.SOLV.lig_0>
-28.9128

>  <SCORE.INTRA.VDW>
0

>  <SCORE.INTRA.VDW.0>
0

>  <SCORE.INTRA.norm>
0

>  <SCORE.RESTR>
0

>  <SCORE.RESTR.CAVITY>
0

>  <SCORE.RESTR.norm>
0

>  <SCORE.SYSTEM>
0

>  <SCORE.SYSTEM.CONST>
0

>  <SCORE.SYSTEM.DIHEDRAL>
0

>  <SCORE.SYSTEM.SOLV>
0

>  <SCORE.SYSTEM.norm>
0

>  <SCORE.heavy>
12

>  <SCORE.norm>
-1.44042

>  <RMSD>
2.961

$$$$
ligand
 OpenBabel11021811503D
libRbt.so/2013.1/901 2013/11/27
 12 13  0  0  0  0  0  0  0  0999 V2000
   29.6088   16.2592   16.0874 C   0  0  0  0  0  0  0  0  0  0  0  0
   30.9771   18.0118   15.1493 C   0  0  0  0  0  0  0  0  0  0  0  0
   28.9389   15.1195   15.9612 N   0  0  0  0  0  0  0  0  0  0  0  0
   29.6499   16.8580   17.2819 N   0  0  0  0  0  0  0  0  0  0  0  0
   30.2771   16.8220   14.9841 N   0  0  0  0  0  0  0  0  0  0  0  0
   31.5576   18.5056   14.1786 O   0  0  0  0  0  0  0  0  0  0  0  0
   31.6700   20.3823   17.9081 N   0  0  0  0  0  0  0  0  0  0  0  0
   30.9799   19.7565   18.9581 C   0  0  0  0  0  0  0  0  0  0  0  0
   30.3021   18.5474   18.7139 N   0  0  0  0  0  0  0  0  0  0  0  0
   30.3033   18.0103   17.4774 C   0  0  0  0  0  0  0  0  0  0  0  0
   30.9873   18.6108   16.4116 C   0  0  0  0  0  0  0  0  0  0  0  0
   31.6677   19.8020   16.6170 C   0  0  0  0  0  0  0  0  0  0  0  0
  1  3  1  0  0  0  0
  1  4  2  0  0  0  0
  1  5  1  0  0  0  0
  2  6  2  0  0  0  0
  2 11  1  0  0  0  0
  2  5  1  0  0  0  0
  4 10  1  0  0  0  0
  7  8  2  0  0  0  0
  7 12  1  0  0  0  0
  8  9  1  0  0  0  0
  9 10  2  0  0  0  0
 10 11  1  0  0  0  0
 11 12  2  0  0  0  0
M  END
>  <CHROM.1>
30.57558040,18.03616078,16.60240744,2.19916781,-0.97004349,-1.99752775

>  <Name>
ligand

>  <RI>
0

>  <Rbt.Current_Directory>
/home/itssahil/PROJECTS/Mol_Feturizer/New_Systems/rnas/4LX6

>  <Rbt.Executable>
rbdock ($Id: //depot/dev/client3/rdock/2013.1/src/exe/rbdock.cxx#4 $)

>  <Rbt.Library>
libRbt.so (2013.1, Build901 2013/11/27)

>  <Rbt.Parameter_File>
/export/apps/rDock/src/rDock_2013.1_src/data/scripts/dock_solv.prm

>  <Rbt.Receptor>
prm/pocket_docking_8.prm

>  <SCORE>
-17.2402

>  <SCORE.INTER>
-17.2402

>  <SCORE.INTER.CONST>
1

>  <SCORE.INTER.POLAR>
0

>  <SCORE.INTER.ROT>
0

>  <SCORE.INTER.SOLV>
11.0917

>  <SCORE.INTER.VDW>
-18.7907

>  <SCORE.INTER.norm>
-1.43669

>  <SCORE.INTRA>
0

>  <SCORE.INTRA.DIHEDRAL>
0

>  <SCORE.INTRA.DIHEDRAL.0>
0

>  <SCORE.INTRA.POLAR>
0

>  <SCORE.INTRA.POLAR.0>
0

>  <SCORE.INTRA.REPUL>
0

>  <SCORE.INTRA.REPUL.0>
0

>  <SCORE.INTRA.SOLV>
0

>  <SCORE.INTRA.SOLV.lig_0>
-28.9128

>  <SCORE.INTRA.VDW>
0

>  <SCORE.INTRA.VDW.0>
0

>  <SCORE.INTRA.norm>
0

>  <SCORE.RESTR>
0

>  <SCORE.RESTR.CAVITY>
0

>  <SCORE.RESTR.norm>
0

>  <SCORE.SYSTEM>
0

>  <SCORE.SYSTEM.CONST>
0

>  <SCORE.SYSTEM.DIHEDRAL>
0

>  <SCORE.SYSTEM.SOLV>
0

>  <SCORE.SYSTEM.norm>
0

>  <SCORE.heavy>
12

>  <SCORE.norm>
-1.43669

>  <RMSD>
2.961

$$$$
ligand
 OpenBabel11021811503D
libRbt.so/2013.1/901 2013/11/27
 12 13  0  0  0  0  0  0  0  0999 V2000
   29.4971   16.0887   16.0268 C   0  0  0  0  0  0  0  0  0  0  0  0
   30.9696   17.7500   15.0802 C   0  0  0  0  0  0  0  0  0  0  0  0
   28.7833   14.9746   15.9145 N   0  0  0  0  0  0  0  0  0  0  0  0
   29.5248   16.7250   17.2022 N   0  0  0  0  0  0  0  0  0  0  0  0
   30.2248   16.5857   14.9295 N   0  0  0  0  0  0  0  0  0  0  0  0
   31.6023   18.1861   14.1145 O   0  0  0  0  0  0  0  0  0  0  0  0
   31.6733   20.1803   17.7836 N   0  0  0  0  0  0  0  0  0  0  0  0
   30.9229   19.6196   18.8290 C   0  0  0  0  0  0  0  0  0  0  0  0
   30.2020   18.4325   18.6006 N   0  0  0  0  0  0  0  0  0  0  0  0
   30.2205   17.8547   17.3828 C   0  0  0  0  0  0  0  0  0  0  0  0
   30.9643   18.3899   16.3222 C   0  0  0  0  0  0  0  0  0  0  0  0
   31.6883   19.5577   16.5124 C   0  0  0  0  0  0  0  0  0  0  0  0
  1  3  1  0  0  0  0
  1  4  2  0  0  0  0
  1  5  1  0  0  0  0
  2  6  2  0  0  0  0
  2 11  1  0  0  0  0
  2  5  1  0  0  0  0
  4 10  1  0  0  0  0
  7  8  2  0  0  0  0
  7 12  1  0  0  0  0
  8  9  1  0  0  0  0
  9 10  2  0  0  0  0
 10 11  1  0  0  0  0
 11 12  2  0  0  0  0
M  END
>  <CHROM.1>
30.52216087,17.83977923,16.51724034,2.17949383,-0.91716102,-2.04628259

>  <Name>
ligand

>  <RI>
0

>  <Rbt.Current_Directory>
/home/itssahil/PROJECTS/Mol_Feturizer/New_Systems/rnas/4LX6

>  <Rbt.Executable>
rbdock ($Id: //depot/dev/client3/rdock/2013.1/src/exe/rbdock.cxx#4 $)

>  <Rbt.Library>
libRbt.so (2013.1, Build901 2013/11/27)

>  <Rbt.Parameter_File>
/export/apps/rDock/src/rDock_2013.1_src/data/scripts/dock_solv.prm

>  <Rbt.Receptor>
prm/pocket_docking_8.prm

>  <SCORE>
-17.3137

>  <SCORE.INTER>
-17.3137

>  <SCORE.INTER.CONST>
1

>  <SCORE.INTER.POLAR>
0

>  <SCORE.INTER.ROT>
0

>  <SCORE.INTER.SOLV>
10.6467

>  <SCORE.INTER.VDW>
-18.6914

>  <SCORE.INTER.norm>
-1.44281

>  <SCORE.INTRA>
0

>  <SCORE.INTRA.DIHEDRAL>
0

>  <SCORE.INTRA.DIHEDRAL.0>
0

>  <SCORE.INTRA.POLAR>
0

>  <SCORE.INTRA.POLAR.0>
0

>  <SCORE.INTRA.REPUL>
0

>  <SCORE.INTRA.REPUL.0>
0

>  <SCORE.INTRA.SOLV>
0

>  <SCORE.INTRA.SOLV.lig_0>
-28.9128

>  <SCORE.INTRA.VDW>
0

>  <SCORE.INTRA.VDW.0>
0

>  <SCORE.INTRA.norm>
0

>  <SCORE.RESTR>
0

>  <SCORE.RESTR.CAVITY>
0

>  <SCORE.RESTR.norm>
0

>  <SCORE.SYSTEM>
0

>  <SCORE.SYSTEM.CONST>
0

>  <SCORE.SYSTEM.DIHEDRAL>
0

>  <SCORE.SYSTEM.SOLV>
0

>  <SCORE.SYSTEM.norm>
0

>  <SCORE.heavy>
12

>  <SCORE.norm>
-1.44281

>  <RMSD>
2.961

$$$$
ligand
 OpenBabel11021811503D
libRbt.so/2013.1/901 2013/11/27
 12 13  0  0  0  0  0  0  0  0999 V2000
   29.5055   16.1164   16.0312 C   0  0  0  0  0  0  0  0  0  0  0  0
   30.9546   17.8058   15.0986 C   0  0  0  0  0  0  0  0  0  0  0  0
   28.8006   14.9977   15.9072 N   0  0  0  0  0  0  0  0  0  0  0  0
   29.5381   16.7339   17.2165 N   0  0  0  0  0  0  0  0  0  0  0  0
   30.2189   16.6374   14.9357 N   0  0  0  0  0  0  0  0  0  0  0  0
   31.5747   18.2631   14.1345 O   0  0  0  0  0  0  0  0  0  0  0  0
   31.6609   20.1987   17.8345 N   0  0  0  0  0  0  0  0  0  0  0  0
   30.9249   19.6145   18.8773 C   0  0  0  0  0  0  0  0  0  0  0  0
   30.2125   18.4248   18.6362 N   0  0  0  0  0  0  0  0  0  0  0  0
   30.2252   17.8668   17.4091 C   0  0  0  0  0  0  0  0  0  0  0  0
   30.9547   18.4257   16.3508 C   0  0  0  0  0  0  0  0  0  0  0  0
   31.6700   19.5967   16.5534 C   0  0  0  0  0  0  0  0  0  0  0  0
  1  3  1  0  0  0  0
  1  4  2  0  0  0  0
  1  5  1  0  0  0  0
  2  6  2  0  0  0  0
  2 11  1  0  0  0  0
  2  5  1  0  0  0  0
  4 10  1  0  0  0  0
  7  8  2  0  0  0  0
  7 12  1  0  0  0  0
  8  9  1  0  0  0  0
  9 10  2  0  0  0  0
 10 11  1  0  0  0  0
 11 12  2  0  0  0  0
M  END
>  <CHROM.1>
30.51926203,17.86849790,16.54076372,2.18600242,-0.92916844,-2.02499552

>  <Name>
ligand

>  <RI>
0

>  <Rbt.Current_Directory>
/home/itssahil/PROJECTS/Mol_Feturizer/New_Systems/rnas/4LX6

>  <Rbt.Executable>
rbdock ($Id: //depot/dev/client3/rdock/2013.1/src/exe/rbdock.cxx#4 $)

>  <Rbt.Library>
libRbt.so (2013.1, Build901 2013/11/27)

>  <Rbt.Parameter_File>
/export/apps/rDock/src/rDock_2013.1_src/data/scripts/dock_solv.prm

>  <Rbt.Receptor>
prm/pocket_docking_8.prm

>  <SCORE>
-17.2894

>  <SCORE.INTER>
-17.2894

>  <SCORE.INTER.CONST>
1

>  <SCORE.INTER.POLAR>
0

>  <SCORE.INTER.ROT>
0

>  <SCORE.INTER.SOLV>
10.6543

>  <SCORE.INTER.VDW>
-18.6777

>  <SCORE.INTER.norm>
-1.44079

>  <SCORE.INTRA>
0

>  <SCORE.INTRA.DIHEDRAL>
0

>  <SCORE.INTRA.DIHEDRAL.0>
0

>  <SCORE.INTRA.POLAR>
0

>  <SCORE.INTRA.POLAR.0>
0

>  <SCORE.INTRA.REPUL>
0

>  <SCORE.INTRA.REPUL.0>
0

>  <SCORE.INTRA.SOLV>
0

>  <SCORE.INTRA.SOLV.lig_0>
-28.9128

>  <SCORE.INTRA.VDW>
0

>  <SCORE.INTRA.VDW.0>
0

>  <SCORE.INTRA.norm>
0

>  <SCORE.RESTR>
0

>  <SCORE.RESTR.CAVITY>
0

>  <SCORE.RESTR.norm>
0

>  <SCORE.SYSTEM>
0

>  <SCORE.SYSTEM.CONST>
0

>  <SCORE.SYSTEM.DIHEDRAL>
0

>  <SCORE.SYSTEM.SOLV>
0

>  <SCORE.SYSTEM.norm>
0

>  <SCORE.heavy>
12

>  <SCORE.norm>
-1.44079

>  <RMSD>
2.961

$$$$
ligand
 OpenBabel11021811503D
libRbt.so/2013.1/901 2013/11/27
 12 13  0  0  0  0  0  0  0  0999 V2000
   29.4872   16.1159   16.0388 C   0  0  0  0  0  0  0  0  0  0  0  0
   30.9706   17.7599   15.0793 C   0  0  0  0  0  0  0  0  0  0  0  0
   28.7604   15.0095   15.9331 N   0  0  0  0  0  0  0  0  0  0  0  0
   29.5306   16.7531   17.2133 N   0  0  0  0  0  0  0  0  0  0  0  0
   30.2121   16.6036   14.9355 N   0  0  0  0  0  0  0  0  0  0  0  0
   31.6008   18.1880   14.1084 O   0  0  0  0  0  0  0  0  0  0  0  0
   31.7210   20.1854   17.7745 N   0  0  0  0  0  0  0  0  0  0  0  0
   30.9724   19.6340   18.8261 C   0  0  0  0  0  0  0  0  0  0  0  0
   30.2368   18.4547   18.6045 N   0  0  0  0  0  0  0  0  0  0  0  0
   30.2399   17.8754   17.3873 C   0  0  0  0  0  0  0  0  0  0  0  0
   30.9816   18.4012   16.3206 C   0  0  0  0  0  0  0  0  0  0  0  0
   31.7197   19.5612   16.5040 C   0  0  0  0  0  0  0  0  0  0  0  0
  1  3  1  0  0  0  0
  1  4  2  0  0  0  0
  1  5  1  0  0  0  0
  2  6  2  0  0  0  0
  2 11  1  0  0  0  0
  2  5  1  0  0  0  0
  4 10  1  0  0  0  0
  7  8  2  0  0  0  0
  7 12  1  0  0  0  0
  8  9  1  0  0  0  0
  9 10  2  0  0  0  0
 10 11  1  0  0  0  0
 11 12  2  0  0  0  0
M  END
>  <CHROM.1>
30.53492844,17.85616302,16.51952134,2.19847432,-0.91079924,-2.03239140

>  <Name>
ligand

>  <RI>
0

>  <Rbt.Current_Directory>
/home/itssahil/PROJECTS/Mol_Feturizer/New_Systems/rnas/4LX6

>  <Rbt.Executable>
rbdock ($Id: //depot/dev/client3/rdock/2013.1/src/exe/rbdock.cxx#4 $)

>  <Rbt.Library>
libRbt.so (2013.1, Build901 2013/11/27)

>  <Rbt.Parameter_File>
/export/apps/rDock/src/rDock_2013.1_src/data/scripts/dock_solv.prm

>  <Rbt.Receptor>
prm/blind_docking_100.prm

>  <SCORE>
-17.2761

>  <SCORE.INTER>
-17.2761

>  <SCORE.INTER.CONST>
1

>  <SCORE.INTER.POLAR>
0

>  <SCORE.INTER.ROT>
0

>  <SCORE.INTER.SOLV>
10.5215

>  <SCORE.INTER.VDW>
-18.6246

>  <SCORE.INTER.norm>
-1.43968

>  <SCORE.INTRA>
0

>  <SCORE.INTRA.DIHEDRAL>
0

>  <SCORE.INTRA.DIHEDRAL.0>
0

>  <SCORE.INTRA.POLAR>
0

>  <SCORE.INTRA.POLAR.0>
0

>  <SCORE.INTRA.REPUL>
0

>  <SCORE.INTRA.REPUL.0>
0

>  <SCORE.INTRA.SOLV>
0

>  <SCORE.INTRA.SOLV.lig_0>
-28.9128

>  <SCORE.INTRA.VDW>
0

>  <SCORE.INTRA.VDW.0>
0

>  <SCORE.INTRA.norm>
0

>  <SCORE.RESTR>
0

>  <SCORE.RESTR.CAVITY>
0

>  <SCORE.RESTR.norm>
0

>  <SCORE.SYSTEM>
0

>  <SCORE.SYSTEM.CONST>
0

>  <SCORE.SYSTEM.DIHEDRAL>
0

>  <SCORE.SYSTEM.SOLV>
0

>  <SCORE.SYSTEM.norm>
0

>  <SCORE.heavy>
12

>  <SCORE.norm>
-1.43968

>  <RMSD>
2.962

$$$$
ligand
 OpenBabel11021811503D
libRbt.so/2013.1/901 2013/11/27
 12 13  0  0  0  0  0  0  0  0999 V2000
   29.5010   16.1014   16.0401 C   0  0  0  0  0  0  0  0  0  0  0  0
   30.9530   17.7737   15.0814 C   0  0  0  0  0  0  0  0  0  0  0  0
   28.7920   14.9837   15.9329 N   0  0  0  0  0  0  0  0  0  0  0  0
   29.5391   16.7343   17.2171 N   0  0  0  0  0  0  0  0  0  0  0  0
   30.2129   16.6057   14.9359 N   0  0  0  0  0  0  0  0  0  0  0  0
   31.5718   18.2162   14.1096 O   0  0  0  0  0  0  0  0  0  0  0  0
   31.6751   20.1998   17.7836 N   0  0  0  0  0  0  0  0  0  0  0  0
   30.9402   19.6318   18.8361 C   0  0  0  0  0  0  0  0  0  0  0  0
   30.2232   18.4414   18.6127 N   0  0  0  0  0  0  0  0  0  0  0  0
   30.2305   17.8674   17.3930 C   0  0  0  0  0  0  0  0  0  0  0  0
   30.9588   18.4099   16.3253 C   0  0  0  0  0  0  0  0  0  0  0  0
   31.6785   19.5811   16.5105 C   0  0  0  0  0  0  0  0  0  0  0  0
  1  3  1  0  0  0  0
  1  4  2  0  0  0  0
  1  5  1  0  0  0  0
  2  6  2  0  0  0  0
  2 11  1  0  0  0  0
  2  5  1  0  0  0  0
  4 10  1  0  0  0  0
  7  8  2  0  0  0  0
  7 12  1  0  0  0  0
  8  9  1  0  0  0  0
  9 10  2  0  0  0  0
 10 11  1  0  0  0  0
 11 12  2  0  0  0  0
M  END
>  <CHROM.1>
30.52206202,17.85670050,16.52383461,2.19276457,-0.92743838,-2.03268537

>  <Name>
ligand

>  <RI>
0

>  <Rbt.Current_Directory>
/home/itssahil/PROJECTS/Mol_Feturizer/New_Systems/rnas/4LX6

>  <Rbt.Executable>
rbdock ($Id: //depot/dev/client3/rdock/2013.1/src/exe/rbdock.cxx#4 $)

>  <Rbt.Library>
libRbt.so (2013.1, Build901 2013/11/27)

>  <Rbt.Parameter_File>
/export/apps/rDock/src/rDock_2013.1_src/data/scripts/dock_solv.prm

>  <Rbt.Receptor>
prm/blind_docking_100.prm

>  <SCORE>
-17.2955

>  <SCORE.INTER>
-17.2955

>  <SCORE.INTER.CONST>
1

>  <SCORE.INTER.POLAR>
0

>  <SCORE.INTER.ROT>
0

>  <SCORE.INTER.SOLV>
10.6655

>  <SCORE.INTER.VDW>
-18.6855

>  <SCORE.INTER.norm>
-1.44129

>  <SCORE.INTRA>
0

>  <SCORE.INTRA.DIHEDRAL>
0

>  <SCORE.INTRA.DIHEDRAL.0>
0

>  <SCORE.INTRA.POLAR>
0

>  <SCORE.INTRA.POLAR.0>
0

>  <SCORE.INTRA.REPUL>
0

>  <SCORE.INTRA.REPUL.0>
0

>  <SCORE.INTRA.SOLV>
0

>  <SCORE.INTRA.SOLV.lig_0>
-28.9128

>  <SCORE.INTRA.VDW>
0

>  <SCORE.INTRA.VDW.0>
0

>  <SCORE.INTRA.norm>
0

>  <SCORE.RESTR>
0

>  <SCORE.RESTR.CAVITY>
0

>  <SCORE.RESTR.norm>
0

>  <SCORE.SYSTEM>
0

>  <SCORE.SYSTEM.CONST>
0

>  <SCORE.SYSTEM.DIHEDRAL>
0

>  <SCORE.SYSTEM.SOLV>
0

>  <SCORE.SYSTEM.norm>
0

>  <SCORE.heavy>
12

>  <SCORE.norm>
-1.44129

>  <RMSD>
2.962

$$$$
ligand
 OpenBabel11021811503D
libRbt.so/2013.1/901 2013/11/27
 12 13  0  0  0  0  0  0  0  0999 V2000
   29.4898   16.1105   16.0321 C   0  0  0  0  0  0  0  0  0  0  0  0
   30.9738   17.7621   15.0866 C   0  0  0  0  0  0  0  0  0  0  0  0
   28.7648   15.0038   15.9178 N   0  0  0  0  0  0  0  0  0  0  0  0
   29.5291   16.7408   17.2104 N   0  0  0  0  0  0  0  0  0  0  0  0
   30.2172   16.6058   14.9338 N   0  0  0  0  0  0  0  0  0  0  0  0
   31.6061   18.1969   14.1201 O   0  0  0  0  0  0  0  0  0  0  0  0
   31.7133   20.1725   17.7982 N   0  0  0  0  0  0  0  0  0  0  0  0
   30.9624   19.6140   18.8444 C   0  0  0  0  0  0  0  0  0  0  0  0
   30.2290   18.4350   18.6138 N   0  0  0  0  0  0  0  0  0  0  0  0
   30.2364   17.8630   17.3932 C   0  0  0  0  0  0  0  0  0  0  0  0
   30.9803   18.3961   16.3317 C   0  0  0  0  0  0  0  0  0  0  0  0
   31.7164   19.5559   16.5241 C   0  0  0  0  0  0  0  0  0  0  0  0
  1  3  1  0  0  0  0
  1  4  2  0  0  0  0
  1  5  1  0  0  0  0
  2  6  2  0  0  0  0
  2 11  1  0  0  0  0
  2  5  1  0  0  0  0
  4 10  1  0  0  0  0
  7  8  2  0  0  0  0
  7 12  1  0  0  0  0
  8  9  1  0  0  0  0
  9 10  2  0  0  0  0
 10 11  1  0  0  0  0
 11 12  2  0  0  0  0
M  END
>  <CHROM.1>
30.53386344,17.84929307,16.52611471,2.19335765,-0.91070651,-2.03048945

>  <Name>
ligand

>  <RI>
0

>  <Rbt.Current_Directory>
/home/itssahil/PROJECTS/Mol_Feturizer/New_Systems/rnas/4LX6

>  <Rbt.Executable>
rbdock ($Id: //depot/dev/client3/rdock/2013.1/src/exe/rbdock.cxx#4 $)

>  <Rbt.Library>
libRbt.so (2013.1, Build901 2013/11/27)

>  <Rbt.Parameter_File>
/export/apps/rDock/src/rDock_2013.1_src/data/scripts/dock_solv.prm

>  <Rbt.Receptor>
prm/blind_docking_60.prm

>  <SCORE>
-17.2833

>  <SCORE.INTER>
-17.2833

>  <SCORE.INTER.CONST>
1

>  <SCORE.INTER.POLAR>
0

>  <SCORE.INTER.ROT>
0

>  <SCORE.INTER.SOLV>
10.533

>  <SCORE.INTER.VDW>
-18.6332

>  <SCORE.INTER.norm>
-1.44028

>  <SCORE.INTRA>
0

>  <SCORE.INTRA.DIHEDRAL>
0

>  <SCORE.INTRA.DIHEDRAL.0>
0

>  <SCORE.INTRA.POLAR>
0

>  <SCORE.INTRA.POLAR.0>
0

>  <SCORE.INTRA.REPUL>
0

>  <SCORE.INTRA.REPUL.0>
0

>  <SCORE.INTRA.SOLV>
0

>  <SCORE.INTRA.SOLV.lig_0>
-28.9128

>  <SCORE.INTRA.VDW>
0

>  <SCORE.INTRA.VDW.0>
0

>  <SCORE.INTRA.norm>
0

>  <SCORE.RESTR>
0

>  <SCORE.RESTR.CAVITY>
0

>  <SCORE.RESTR.norm>
0

>  <SCORE.SYSTEM>
0

>  <SCORE.SYSTEM.CONST>
0

>  <SCORE.SYSTEM.DIHEDRAL>
0

>  <SCORE.SYSTEM.SOLV>
0

>  <SCORE.SYSTEM.norm>
0

>  <SCORE.heavy>
12

>  <SCORE.norm>
-1.44028

>  <RMSD>
2.962

$$$$
ligand
 OpenBabel11021811503D
libRbt.so/2013.1/901 2013/11/27
 12 13  0  0  0  0  0  0  0  0999 V2000
   29.5069   16.1140   16.0432 C   0  0  0  0  0  0  0  0  0  0  0  0
   30.9449   17.8027   15.0921 C   0  0  0  0  0  0  0  0  0  0  0  0
   28.8046   14.9927   15.9298 N   0  0  0  0  0  0  0  0  0  0  0  0
   29.5455   16.7380   17.2249 N   0  0  0  0  0  0  0  0  0  0  0  0
   30.2116   16.6313   14.9402 N   0  0  0  0  0  0  0  0  0  0  0  0
   31.5573   18.2566   14.1215 O   0  0  0  0  0  0  0  0  0  0  0  0
   31.6620   20.2123   17.8104 N   0  0  0  0  0  0  0  0  0  0  0  0
   30.9346   19.6316   18.8611 C   0  0  0  0  0  0  0  0  0  0  0  0
   30.2242   18.4385   18.6311 N   0  0  0  0  0  0  0  0  0  0  0  0
   30.2305   17.8740   17.4070 C   0  0  0  0  0  0  0  0  0  0  0  0
   30.9514   18.4293   16.3409 C   0  0  0  0  0  0  0  0  0  0  0  0
   31.6645   19.6035   16.5325 C   0  0  0  0  0  0  0  0  0  0  0  0
  1  3  1  0  0  0  0
  1  4  2  0  0  0  0
  1  5  1  0  0  0  0
  2  6  2  0  0  0  0
  2 11  1  0  0  0  0
  2  5  1  0  0  0  0
  4 10  1  0  0  0  0
  7  8  2  0  0  0  0
  7 12  1  0  0  0  0
  8  9  1  0  0  0  0
  9 10  2  0  0  0  0
 10 11  1  0  0  0  0
 11 12  2  0  0  0  0
M  END
>  <CHROM.1>
30.51884386,17.87184683,16.53670456,2.19372424,-0.93469319,-2.02416222

>  <Name>
ligand

>  <RI>
0

>  <Rbt.Current_Directory>
/home/itssahil/PROJECTS/Mol_Feturizer/New_Systems/rnas/4LX6

>  <Rbt.Executable>
rbdock ($Id: //depot/dev/client3/rdock/2013.1/src/exe/rbdock.cxx#4 $)

>  <Rbt.Library>
libRbt.so (2013.1, Build901 2013/11/27)

>  <Rbt.Parameter_File>
/export/apps/rDock/src/rDock_2013.1_src/data/scripts/dock_solv.prm

>  <Rbt.Receptor>
prm/blind_docking_60.prm

>  <SCORE>
-17.2892

>  <SCORE.INTER>
-17.2892

>  <SCORE.INTER.CONST>
1

>  <SCORE.INTER.POLAR>
0

>  <SCORE.INTER.ROT>
0

>  <SCORE.INTER.SOLV>
10.6872

>  <SCORE.INTER.VDW>
-18.6885

>  <SCORE.INTER.norm>
-1.44077

>  <SCORE.INTRA>
0

>  <SCORE.INTRA.DIHEDRAL>
0

>  <SCORE.INTRA.DIHEDRAL.0>
0

>  <SCORE.INTRA.POLAR>
0

>  <SCORE.INTRA.POLAR.0>
0

>  <SCORE.INTRA.REPUL>
0

>  <SCORE.INTRA.REPUL.0>
0

>  <SCORE.INTRA.SOLV>
0

>  <SCORE.INTRA.SOLV.lig_0>
-28.9128

>  <SCORE.INTRA.VDW>
0

>  <SCORE.INTRA.VDW.0>
0

>  <SCORE.INTRA.norm>
0

>  <SCORE.RESTR>
0

>  <SCORE.RESTR.CAVITY>
0

>  <SCORE.RESTR.norm>
0

>  <SCORE.SYSTEM>
0

>  <SCORE.SYSTEM.CONST>
0

>  <SCORE.SYSTEM.DIHEDRAL>
0

>  <SCORE.SYSTEM.SOLV>
0

>  <SCORE.SYSTEM.norm>
0

>  <SCORE.heavy>
12

>  <SCORE.norm>
-1.44077

>  <RMSD>
2.962

$$$$
ligand
 OpenBabel11021811503D
libRbt.so/2013.1/901 2013/11/27
 12 13  0  0  0  0  0  0  0  0999 V2000
   29.5094   16.1191   16.0424 C   0  0  0  0  0  0  0  0  0  0  0  0
   30.9533   17.8056   15.0966 C   0  0  0  0  0  0  0  0  0  0  0  0
   28.8060   14.9987   15.9266 N   0  0  0  0  0  0  0  0  0  0  0  0
   29.5440   16.7433   17.2241 N   0  0  0  0  0  0  0  0  0  0  0  0
   30.2191   16.6351   14.9422 N   0  0  0  0  0  0  0  0  0  0  0  0
   31.5701   18.2584   14.1284 O   0  0  0  0  0  0  0  0  0  0  0  0
   31.6628   20.2150   17.8171 N   0  0  0  0  0  0  0  0  0  0  0  0
   30.9305   19.6355   18.8651 C   0  0  0  0  0  0  0  0  0  0  0  0
   30.2194   18.4433   18.6326 N   0  0  0  0  0  0  0  0  0  0  0  0
   30.2299   17.8784   17.4086 C   0  0  0  0  0  0  0  0  0  0  0  0
   30.9557   18.4325   16.3453 C   0  0  0  0  0  0  0  0  0  0  0  0
   31.6696   19.6058   16.5394 C   0  0  0  0  0  0  0  0  0  0  0  0
  1  3  1  0  0  0  0
  1  4  2  0  0  0  0
  1  5  1  0  0  0  0
  2  6  2  0  0  0  0
  2 11  1  0  0  0  0
  2  5  1  0  0  0  0
  4 10  1  0  0  0  0
  7  8  2  0  0  0  0
  7 12  1  0  0  0  0
  8  9  1  0  0  0  0
  9 10  2  0  0  0  0
 10 11  1  0  0  0  0
 11 12  2  0  0  0  0
M  END
>  <CHROM.1>
30.52161388,17.87569886,16.53952716,2.18872602,-0.93176386,-2.02843225

>  <Name>
ligand

>  <RI>
0

>  <Rbt.Current_Directory>
/home/itssahil/PROJECTS/Mol_Feturizer/New_Systems/rnas/4LX6

>  <Rbt.Executable>
rbdock ($Id: //depot/dev/client3/rdock/2013.1/src/exe/rbdock.cxx#4 $)

>  <Rbt.Library>
libRbt.so (2013.1, Build901 2013/11/27)

>  <Rbt.Parameter_File>
/export/apps/rDock/src/rDock_2013.1_src/data/scripts/dock_solv.prm

>  <Rbt.Receptor>
prm/blind_docking_60.prm

>  <SCORE>
-17.2873

>  <SCORE.INTER>
-17.2873

>  <SCORE.INTER.CONST>
1

>  <SCORE.INTER.POLAR>
0

>  <SCORE.INTER.ROT>
0

>  <SCORE.INTER.SOLV>
10.6869

>  <SCORE.INTER.VDW>
-18.6871

>  <SCORE.INTER.norm>
-1.4406

>  <SCORE.INTRA>
0

>  <SCORE.INTRA.DIHEDRAL>
0

>  <SCORE.INTRA.DIHEDRAL.0>
0

>  <SCORE.INTRA.POLAR>
0

>  <SCORE.INTRA.POLAR.0>
0

>  <SCORE.INTRA.REPUL>
0

>  <SCORE.INTRA.REPUL.0>
0

>  <SCORE.INTRA.SOLV>
0

>  <SCORE.INTRA.SOLV.lig_0>
-28.9128

>  <SCORE.INTRA.VDW>
0

>  <SCORE.INTRA.VDW.0>
0

>  <SCORE.INTRA.norm>
0

>  <SCORE.RESTR>
0

>  <SCORE.RESTR.CAVITY>
0

>  <SCORE.RESTR.norm>
0

>  <SCORE.SYSTEM>
0

>  <SCORE.SYSTEM.CONST>
0

>  <SCORE.SYSTEM.DIHEDRAL>
0

>  <SCORE.SYSTEM.SOLV>
0

>  <SCORE.SYSTEM.norm>
0

>  <SCORE.heavy>
12

>  <SCORE.norm>
-1.4406

>  <RMSD>
2.962

$$$$
ligand
 OpenBabel11021811503D
libRbt.so/2013.1/901 2013/11/27
 12 13  0  0  0  0  0  0  0  0999 V2000
   29.5009   16.1333   16.0385 C   0  0  0  0  0  0  0  0  0  0  0  0
   30.9635   17.8093   15.1029 C   0  0  0  0  0  0  0  0  0  0  0  0
   28.7884   15.0192   15.9170 N   0  0  0  0  0  0  0  0  0  0  0  0
   29.5357   16.7545   17.2218 N   0  0  0  0  0  0  0  0  0  0  0  0
   30.2199   16.6456   14.9425 N   0  0  0  0  0  0  0  0  0  0  0  0
   31.5885   18.2590   14.1384 O   0  0  0  0  0  0  0  0  0  0  0  0
   31.6817   20.2064   17.8319 N   0  0  0  0  0  0  0  0  0  0  0  0
   30.9398   19.6310   18.8753 C   0  0  0  0  0  0  0  0  0  0  0  0
   30.2195   18.4455   18.6370 N   0  0  0  0  0  0  0  0  0  0  0  0
   30.2305   17.8833   17.4118 C   0  0  0  0  0  0  0  0  0  0  0  0
   30.9658   18.4334   16.3529 C   0  0  0  0  0  0  0  0  0  0  0  0
   31.6889   19.6001   16.5529 C   0  0  0  0  0  0  0  0  0  0  0  0
  1  3  1  0  0  0  0
  1  4  2  0  0  0  0
  1  5  1  0  0  0  0
  2  6  2  0  0  0  0
  2 11  1  0  0  0  0
  2  5  1  0  0  0  0
  4 10  1  0  0  0  0
  7  8  2  0  0  0  0
  7 12  1  0  0  0  0
  8  9  1  0  0  0  0
  9 10  2  0  0  0  0
 10 11  1  0  0  0  0
 11 12  2  0  0  0  0
M  END
>  <CHROM.1>
30.52606861,17.87995915,16.54401199,2.18845275,-0.92207115,-2.02641904

>  <Name>
ligand

>  <RI>
0

>  <Rbt.Current_Directory>
/home/itssahil/PROJECTS/Mol_Feturizer/New_Systems/rnas/4LX6

>  <Rbt.Executable>
rbdock ($Id: //depot/dev/client3/rdock/2013.1/src/exe/rbdock.cxx#4 $)

>  <Rbt.Library>
libRbt.so (2013.1, Build901 2013/11/27)

>  <Rbt.Parameter_File>
/export/apps/rDock/src/rDock_2013.1_src/data/scripts/dock_solv.prm

>  <Rbt.Receptor>
prm/blind_docking_80.prm

>  <SCORE>
-17.2852

>  <SCORE.INTER>
-17.2852

>  <SCORE.INTER.CONST>
1

>  <SCORE.INTER.POLAR>
0

>  <SCORE.INTER.ROT>
0

>  <SCORE.INTER.SOLV>
10.5903

>  <SCORE.INTER.VDW>
-18.6535

>  <SCORE.INTER.norm>
-1.44043

>  <SCORE.INTRA>
0

>  <SCORE.INTRA.DIHEDRAL>
0

>  <SCORE.INTRA.DIHEDRAL.0>
0

>  <SCORE.INTRA.POLAR>
0

>  <SCORE.INTRA.POLAR.0>
0

>  <SCORE.INTRA.REPUL>
0

>  <SCORE.INTRA.REPUL.0>
0

>  <SCORE.INTRA.SOLV>
0

>  <SCORE.INTRA.SOLV.lig_0>
-28.9128

>  <SCORE.INTRA.VDW>
0

>  <SCORE.INTRA.VDW.0>
0

>  <SCORE.INTRA.norm>
0

>  <SCORE.RESTR>
0

>  <SCORE.RESTR.CAVITY>
0

>  <SCORE.RESTR.norm>
0

>  <SCORE.SYSTEM>
0

>  <SCORE.SYSTEM.CONST>
0

>  <SCORE.SYSTEM.DIHEDRAL>
0

>  <SCORE.SYSTEM.SOLV>
0

>  <SCORE.SYSTEM.norm>
0

>  <SCORE.heavy>
12

>  <SCORE.norm>
-1.44043

>  <RMSD>
2.962

$$$$
ligand
 OpenBabel11021811503D
libRbt.so/2013.1/901 2013/11/27
 12 13  0  0  0  0  0  0  0  0999 V2000
   29.5016   16.1211   16.0421 C   0  0  0  0  0  0  0  0  0  0  0  0
   30.9476   17.8032   15.0917 C   0  0  0  0  0  0  0  0  0  0  0  0
   28.7940   15.0031   15.9284 N   0  0  0  0  0  0  0  0  0  0  0  0
   29.5426   16.7447   17.2239 N   0  0  0  0  0  0  0  0  0  0  0  0
   30.2089   16.6352   14.9395 N   0  0  0  0  0  0  0  0  0  0  0  0
   31.5624   18.2544   14.1214 O   0  0  0  0  0  0  0  0  0  0  0  0
   31.6751   20.2091   17.8106 N   0  0  0  0  0  0  0  0  0  0  0  0
   30.9447   19.6316   18.8610 C   0  0  0  0  0  0  0  0  0  0  0  0
   30.2288   18.4418   18.6306 N   0  0  0  0  0  0  0  0  0  0  0  0
   30.2329   17.8775   17.4064 C   0  0  0  0  0  0  0  0  0  0  0  0
   30.9566   18.4296   16.3406 C   0  0  0  0  0  0  0  0  0  0  0  0
   31.6751   19.6004   16.5326 C   0  0  0  0  0  0  0  0  0  0  0  0
  1  3  1  0  0  0  0
  1  4  2  0  0  0  0
  1  5  1  0  0  0  0
  2  6  2  0  0  0  0
  2 11  1  0  0  0  0
  2  5  1  0  0  0  0
  4 10  1  0  0  0  0
  7  8  2  0  0  0  0
  7 12  1  0  0  0  0
  8  9  1  0  0  0  0
  9 10  2  0  0  0  0
 10 11  1  0  0  0  0
 11 12  2  0  0  0  0
M  END
>  <CHROM.1>
30.52146311,17.87414715,16.53620201,2.19668020,-0.93038931,-2.02164087

>  <Name>
ligand

>  <RI>
0

>  <Rbt.Current_Directory>
/home/itssahil/PROJECTS/Mol_Feturizer/New_Systems/rnas/4LX6

>  <Rbt.Executable>
rbdock ($Id: //depot/dev/client3/rdock/2013.1/src/exe/rbdock.cxx#4 $)

>  <Rbt.Library>
libRbt.so (2013.1, Build901 2013/11/27)

>  <Rbt.Parameter_File>
/export/apps/rDock/src/rDock_2013.1_src/data/scripts/dock_solv.prm

>  <Rbt.Receptor>
prm/pocket_docking_3.prm

>  <SCORE>
-17.2886

>  <SCORE.INTER>
-17.2886

>  <SCORE.INTER.CONST>
1

>  <SCORE.INTER.POLAR>
0

>  <SCORE.INTER.ROT>
0

>  <SCORE.INTER.SOLV>
10.6345

>  <SCORE.INTER.VDW>
-18.6706

>  <SCORE.INTER.norm>
-1.44071

>  <SCORE.INTRA>
0

>  <SCORE.INTRA.DIHEDRAL>
0

>  <SCORE.INTRA.DIHEDRAL.0>
0

>  <SCORE.INTRA.POLAR>
0

>  <SCORE.INTRA.POLAR.0>
0

>  <SCORE.INTRA.REPUL>
0

>  <SCORE.INTRA.REPUL.0>
0

>  <SCORE.INTRA.SOLV>
0

>  <SCORE.INTRA.SOLV.lig_0>
-28.9128

>  <SCORE.INTRA.VDW>
0

>  <SCORE.INTRA.VDW.0>
0

>  <SCORE.INTRA.norm>
0

>  <SCORE.RESTR>
0

>  <SCORE.RESTR.CAVITY>
0

>  <SCORE.RESTR.norm>
0

>  <SCORE.SYSTEM>
0

>  <SCORE.SYSTEM.CONST>
0

>  <SCORE.SYSTEM.DIHEDRAL>
0

>  <SCORE.SYSTEM.SOLV>
0

>  <SCORE.SYSTEM.norm>
0

>  <SCORE.heavy>
12

>  <SCORE.norm>
-1.44071

>  <RMSD>
2.962

$$$$
ligand
 OpenBabel11021811503D
libRbt.so/2013.1/901 2013/11/27
 12 13  0  0  0  0  0  0  0  0999 V2000
   29.5048   16.1127   16.0363 C   0  0  0  0  0  0  0  0  0  0  0  0
   30.9475   17.8029   15.0953 C   0  0  0  0  0  0  0  0  0  0  0  0
   28.8006   14.9932   15.9168 N   0  0  0  0  0  0  0  0  0  0  0  0
   29.5422   16.7314   17.2209 N   0  0  0  0  0  0  0  0  0  0  0  0
   30.2124   16.6335   14.9370 N   0  0  0  0  0  0  0  0  0  0  0  0
   31.5625   18.2600   14.1279 O   0  0  0  0  0  0  0  0  0  0  0  0
   31.6638   20.1993   17.8256 N   0  0  0  0  0  0  0  0  0  0  0  0
   30.9334   19.6153   18.8724 C   0  0  0  0  0  0  0  0  0  0  0  0
   30.2213   18.4245   18.6358 N   0  0  0  0  0  0  0  0  0  0  0  0
   30.2289   17.8654   17.4092 C   0  0  0  0  0  0  0  0  0  0  0  0
   30.9528   18.4240   16.3469 C   0  0  0  0  0  0  0  0  0  0  0  0
   31.6676   19.5961   16.5450 C   0  0  0  0  0  0  0  0  0  0  0  0
  1  3  1  0  0  0  0
  1  4  2  0  0  0  0
  1  5  1  0  0  0  0
  2  6  2  0  0  0  0
  2 11  1  0  0  0  0
  2  5  1  0  0  0  0
  4 10  1  0  0  0  0
  7  8  2  0  0  0  0
  7 12  1  0  0  0  0
  8  9  1  0  0  0  0
  9 10  2  0  0  0  0
 10 11  1  0  0  0  0
 11 12  2  0  0  0  0
M  END
>  <CHROM.1>
30.51888480,17.86652480,16.53947906,2.19221547,-0.93226738,-2.02097963

>  <Name>
ligand

>  <RI>
0

>  <Rbt.Current_Directory>
/home/itssahil/PROJECTS/Mol_Feturizer/New_Systems/rnas/4LX6

>  <Rbt.Executable>
rbdock ($Id: //depot/dev/client3/rdock/2013.1/src/exe/rbdock.cxx#4 $)

>  <Rbt.Library>
libRbt.so (2013.1, Build901 2013/11/27)

>  <Rbt.Parameter_File>
/export/apps/rDock/src/rDock_2013.1_src/data/scripts/dock_solv.prm

>  <Rbt.Receptor>
prm/pocket_docking_3.prm

>  <SCORE>
-17.2894

>  <SCORE.INTER>
-17.2894

>  <SCORE.INTER.CONST>
1

>  <SCORE.INTER.POLAR>
0

>  <SCORE.INTER.ROT>
0

>  <SCORE.INTER.SOLV>
10.6618

>  <SCORE.INTER.VDW>
-18.6802

>  <SCORE.INTER.norm>
-1.44078

>  <SCORE.INTRA>
0

>  <SCORE.INTRA.DIHEDRAL>
0

>  <SCORE.INTRA.DIHEDRAL.0>
0

>  <SCORE.INTRA.POLAR>
0

>  <SCORE.INTRA.POLAR.0>
0

>  <SCORE.INTRA.REPUL>
0

>  <SCORE.INTRA.REPUL.0>
0

>  <SCORE.INTRA.SOLV>
0

>  <SCORE.INTRA.SOLV.lig_0>
-28.9128

>  <SCORE.INTRA.VDW>
0

>  <SCORE.INTRA.VDW.0>
0

>  <SCORE.INTRA.norm>
0

>  <SCORE.RESTR>
0

>  <SCORE.RESTR.CAVITY>
0

>  <SCORE.RESTR.norm>
0

>  <SCORE.SYSTEM>
0

>  <SCORE.SYSTEM.CONST>
0

>  <SCORE.SYSTEM.DIHEDRAL>
0

>  <SCORE.SYSTEM.SOLV>
0

>  <SCORE.SYSTEM.norm>
0

>  <SCORE.heavy>
12

>  <SCORE.norm>
-1.44078

>  <RMSD>
2.962

$$$$
ligand
 OpenBabel11021811503D
libRbt.so/2013.1/901 2013/11/27
 12 13  0  0  0  0  0  0  0  0999 V2000
   29.4993   16.1022   16.0364 C   0  0  0  0  0  0  0  0  0  0  0  0
   30.9700   17.7643   15.0886 C   0  0  0  0  0  0  0  0  0  0  0  0
   28.7844   14.9887   15.9241 N   0  0  0  0  0  0  0  0  0  0  0  0
   29.5311   16.7360   17.2130 N   0  0  0  0  0  0  0  0  0  0  0  0
   30.2239   16.6008   14.9379 N   0  0  0  0  0  0  0  0  0  0  0  0
   31.5999   18.2019   14.1218 O   0  0  0  0  0  0  0  0  0  0  0  0
   31.6837   20.1887   17.7946 N   0  0  0  0  0  0  0  0  0  0  0  0
   30.9362   19.6265   18.8412 C   0  0  0  0  0  0  0  0  0  0  0  0
   30.2137   18.4403   18.6127 N   0  0  0  0  0  0  0  0  0  0  0  0
   30.2281   17.8650   17.3937 C   0  0  0  0  0  0  0  0  0  0  0  0
   30.9690   18.4018   16.3319 C   0  0  0  0  0  0  0  0  0  0  0  0
   31.6943   19.5687   16.5222 C   0  0  0  0  0  0  0  0  0  0  0  0
  1  3  1  0  0  0  0
  1  4  2  0  0  0  0
  1  5  1  0  0  0  0
  2  6  2  0  0  0  0
  2 11  1  0  0  0  0
  2  5  1  0  0  0  0
  4 10  1  0  0  0  0
  7  8  2  0  0  0  0
  7 12  1  0  0  0  0
  8  9  1  0  0  0  0
  9 10  2  0  0  0  0
 10 11  1  0  0  0  0
 11 12  2  0  0  0  0
M  END
>  <CHROM.1>
30.52705735,17.85154553,16.52717758,2.18454280,-0.91797516,-2.04027630

>  <Name>
ligand

>  <RI>
0

>  <Rbt.Current_Directory>
/home/itssahil/PROJECTS/Mol_Feturizer/New_Systems/rnas/4LX6

>  <Rbt.Executable>
rbdock ($Id: //depot/dev/client3/rdock/2013.1/src/exe/rbdock.cxx#4 $)

>  <Rbt.Library>
libRbt.so (2013.1, Build901 2013/11/27)

>  <Rbt.Parameter_File>
/export/apps/rDock/src/rDock_2013.1_src/data/scripts/dock_solv.prm

>  <Rbt.Receptor>
prm/pocket_docking_4.prm

>  <SCORE>
-17.2839

>  <SCORE.INTER>
-17.2839

>  <SCORE.INTER.CONST>
1

>  <SCORE.INTER.POLAR>
0

>  <SCORE.INTER.ROT>
0

>  <SCORE.INTER.SOLV>
10.6326

>  <SCORE.INTER.VDW>
-18.6668

>  <SCORE.INTER.norm>
-1.44032

>  <SCORE.INTRA>
0

>  <SCORE.INTRA.DIHEDRAL>
0

>  <SCORE.INTRA.DIHEDRAL.0>
0

>  <SCORE.INTRA.POLAR>
0

>  <SCORE.INTRA.POLAR.0>
0

>  <SCORE.INTRA.REPUL>
0

>  <SCORE.INTRA.REPUL.0>
0

>  <SCORE.INTRA.SOLV>
0

>  <SCORE.INTRA.SOLV.lig_0>
-28.9128

>  <SCORE.INTRA.VDW>
0

>  <SCORE.INTRA.VDW.0>
0

>  <SCORE.INTRA.norm>
0

>  <SCORE.RESTR>
0

>  <SCORE.RESTR.CAVITY>
0

>  <SCORE.RESTR.norm>
0

>  <SCORE.SYSTEM>
0

>  <SCORE.SYSTEM.CONST>
0

>  <SCORE.SYSTEM.DIHEDRAL>
0

>  <SCORE.SYSTEM.SOLV>
0

>  <SCORE.SYSTEM.norm>
0

>  <SCORE.heavy>
12

>  <SCORE.norm>
-1.44032

>  <RMSD>
2.962

$$$$
ligand
 OpenBabel11021811503D
libRbt.so/2013.1/901 2013/11/27
 12 13  0  0  0  0  0  0  0  0999 V2000
   29.5053   16.0913   16.0348 C   0  0  0  0  0  0  0  0  0  0  0  0
   30.9773   17.7531   15.0885 C   0  0  0  0  0  0  0  0  0  0  0  0
   28.7906   14.9777   15.9219 N   0  0  0  0  0  0  0  0  0  0  0  0
   29.5351   16.7258   17.2111 N   0  0  0  0  0  0  0  0  0  0  0  0
   30.2316   16.5895   14.9371 N   0  0  0  0  0  0  0  0  0  0  0  0
   31.6088   18.1903   14.1225 O   0  0  0  0  0  0  0  0  0  0  0  0
   31.6865   20.1790   17.7944 N   0  0  0  0  0  0  0  0  0  0  0  0
   30.9373   19.6171   18.8401 C   0  0  0  0  0  0  0  0  0  0  0  0
   30.2153   18.4308   18.6111 N   0  0  0  0  0  0  0  0  0  0  0  0
   30.2317   17.8549   17.3924 C   0  0  0  0  0  0  0  0  0  0  0  0
   30.9742   18.3912   16.3315 C   0  0  0  0  0  0  0  0  0  0  0  0
   31.6992   19.5582   16.5223 C   0  0  0  0  0  0  0  0  0  0  0  0
  1  3  1  0  0  0  0
  1  4  2  0  0  0  0
  1  5  1  0  0  0  0
  2  6  2  0  0  0  0
  2 11  1  0  0  0  0
  2  5  1  0  0  0  0
  4 10  1  0  0  0  0
  7  8  2  0  0  0  0
  7 12  1  0  0  0  0
  8  9  1  0  0  0  0
  9 10  2  0  0  0  0
 10 11  1  0  0  0  0
 11 12  2  0  0  0  0
M  END
>  <CHROM.1>
30.53205122,17.84101467,16.52631583,2.18210407,-0.91733205,-2.04271606

>  <Name>
ligand

>  <RI>
0

>  <Rbt.Current_Directory>
/home/itssahil/PROJECTS/Mol_Feturizer/New_Systems/rnas/4LX6

>  <Rbt.Executable>
rbdock ($Id: //depot/dev/client3/rdock/2013.1/src/exe/rbdock.cxx#4 $)

>  <Rbt.Library>
libRbt.so (2013.1, Build901 2013/11/27)

>  <Rbt.Parameter_File>
/export/apps/rDock/src/rDock_2013.1_src/data/scripts/dock_solv.prm

>  <Rbt.Receptor>
prm/pocket_docking_4.prm

>  <SCORE>
-17.313

>  <SCORE.INTER>
-17.313

>  <SCORE.INTER.CONST>
1

>  <SCORE.INTER.POLAR>
0

>  <SCORE.INTER.ROT>
0

>  <SCORE.INTER.SOLV>
10.6708

>  <SCORE.INTER.VDW>
-18.699

>  <SCORE.INTER.norm>
-1.44275

>  <SCORE.INTRA>
0

>  <SCORE.INTRA.DIHEDRAL>
0

>  <SCORE.INTRA.DIHEDRAL.0>
0

>  <SCORE.INTRA.POLAR>
0

>  <SCORE.INTRA.POLAR.0>
0

>  <SCORE.INTRA.REPUL>
0

>  <SCORE.INTRA.REPUL.0>
0

>  <SCORE.INTRA.SOLV>
0

>  <SCORE.INTRA.SOLV.lig_0>
-28.9128

>  <SCORE.INTRA.VDW>
0

>  <SCORE.INTRA.VDW.0>
0

>  <SCORE.INTRA.norm>
0

>  <SCORE.RESTR>
0

>  <SCORE.RESTR.CAVITY>
0

>  <SCORE.RESTR.norm>
0

>  <SCORE.SYSTEM>
0

>  <SCORE.SYSTEM.CONST>
0

>  <SCORE.SYSTEM.DIHEDRAL>
0

>  <SCORE.SYSTEM.SOLV>
0

>  <SCORE.SYSTEM.norm>
0

>  <SCORE.heavy>
12

>  <SCORE.norm>
-1.44275

>  <RMSD>
2.962

$$$$
ligand
 OpenBabel11021811503D
libRbt.so/2013.1/901 2013/11/27
 12 13  0  0  0  0  0  0  0  0999 V2000
   29.5068   16.1092   16.0386 C   0  0  0  0  0  0  0  0  0  0  0  0
   30.9442   17.8013   15.0927 C   0  0  0  0  0  0  0  0  0  0  0  0
   28.8051   14.9878   15.9218 N   0  0  0  0  0  0  0  0  0  0  0  0
   29.5443   16.7300   17.2220 N   0  0  0  0  0  0  0  0  0  0  0  0
   30.2116   16.6299   14.9374 N   0  0  0  0  0  0  0  0  0  0  0  0
   31.5567   18.2582   14.1237 O   0  0  0  0  0  0  0  0  0  0  0  0
   31.6585   20.2039   17.8179 N   0  0  0  0  0  0  0  0  0  0  0  0
   30.9310   19.6199   18.8667 C   0  0  0  0  0  0  0  0  0  0  0  0
   30.2213   18.4270   18.6331 N   0  0  0  0  0  0  0  0  0  0  0  0
   30.2286   17.8659   17.4075 C   0  0  0  0  0  0  0  0  0  0  0  0
   30.9497   18.4245   16.3432 C   0  0  0  0  0  0  0  0  0  0  0  0
   31.6620   19.5986   16.5384 C   0  0  0  0  0  0  0  0  0  0  0  0
  1  3  1  0  0  0  0
  1  4  2  0  0  0  0
  1  5  1  0  0  0  0
  2  6  2  0  0  0  0
  2 11  1  0  0  0  0
  2  5  1  0  0  0  0
  4 10  1  0  0  0  0
  7  8  2  0  0  0  0
  7 12  1  0  0  0  0
  8  9  1  0  0  0  0
  9 10  2  0  0  0  0
 10 11  1  0  0  0  0
 11 12  2  0  0  0  0
M  END
>  <CHROM.1>
30.51736397,17.86627796,16.53734603,2.19256928,-0.93502865,-2.02237191

>  <Name>
ligand

>  <RI>
0

>  <Rbt.Current_Directory>
/home/itssahil/PROJECTS/Mol_Feturizer/New_Systems/rnas/4LX6

>  <Rbt.Executable>
rbdock ($Id: //depot/dev/client3/rdock/2013.1/src/exe/rbdock.cxx#4 $)

>  <Rbt.Library>
libRbt.so (2013.1, Build901 2013/11/27)

>  <Rbt.Parameter_File>
/export/apps/rDock/src/rDock_2013.1_src/data/scripts/dock_solv.prm

>  <Rbt.Receptor>
prm/pocket_docking_4.prm

>  <SCORE>
-17.2898

>  <SCORE.INTER>
-17.2898

>  <SCORE.INTER.CONST>
1

>  <SCORE.INTER.POLAR>
0

>  <SCORE.INTER.ROT>
0

>  <SCORE.INTER.SOLV>
10.6887

>  <SCORE.INTER.VDW>
-18.6895

>  <SCORE.INTER.norm>
-1.44082

>  <SCORE.INTRA>
0

>  <SCORE.INTRA.DIHEDRAL>
0

>  <SCORE.INTRA.DIHEDRAL.0>
0

>  <SCORE.INTRA.POLAR>
0

>  <SCORE.INTRA.POLAR.0>
0

>  <SCORE.INTRA.REPUL>
0

>  <SCORE.INTRA.REPUL.0>
0

>  <SCORE.INTRA.SOLV>
0

>  <SCORE.INTRA.SOLV.lig_0>
-28.9128

>  <SCORE.INTRA.VDW>
0

>  <SCORE.INTRA.VDW.0>
0

>  <SCORE.INTRA.norm>
0

>  <SCORE.RESTR>
0

>  <SCORE.RESTR.CAVITY>
0

>  <SCORE.RESTR.norm>
0

>  <SCORE.SYSTEM>
0

>  <SCORE.SYSTEM.CONST>
0

>  <SCORE.SYSTEM.DIHEDRAL>
0

>  <SCORE.SYSTEM.SOLV>
0

>  <SCORE.SYSTEM.norm>
0

>  <SCORE.heavy>
12

>  <SCORE.norm>
-1.44082

>  <RMSD>
2.962

$$$$
ligand
 OpenBabel11021811503D
libRbt.so/2013.1/901 2013/11/27
 12 13  0  0  0  0  0  0  0  0999 V2000
   29.5047   16.0888   16.0351 C   0  0  0  0  0  0  0  0  0  0  0  0
   30.9740   17.7516   15.0863 C   0  0  0  0  0  0  0  0  0  0  0  0
   28.7912   14.9743   15.9237 N   0  0  0  0  0  0  0  0  0  0  0  0
   29.5350   16.7241   17.2110 N   0  0  0  0  0  0  0  0  0  0  0  0
   30.2294   16.5870   14.9364 N   0  0  0  0  0  0  0  0  0  0  0  0
   31.6039   18.1888   14.1193 O   0  0  0  0  0  0  0  0  0  0  0  0
   31.6830   20.1801   17.7898 N   0  0  0  0  0  0  0  0  0  0  0  0
   30.9355   19.6181   18.8366 C   0  0  0  0  0  0  0  0  0  0  0  0
   30.2147   18.4308   18.6091 N   0  0  0  0  0  0  0  0  0  0  0  0
   30.2305   17.8541   17.3908 C   0  0  0  0  0  0  0  0  0  0  0  0
   30.9713   18.3905   16.3288 C   0  0  0  0  0  0  0  0  0  0  0  0
   31.6952   19.5585   16.5181 C   0  0  0  0  0  0  0  0  0  0  0  0
  1  3  1  0  0  0  0
  1  4  2  0  0  0  0
  1  5  1  0  0  0  0
  2  6  2  0  0  0  0
  2 11  1  0  0  0  0
  2  5  1  0  0  0  0
  4 10  1  0  0  0  0
  7  8  2  0  0  0  0
  7 12  1  0  0  0  0
  8  9  1  0  0  0  0
  9 10  2  0  0  0  0
 10 11  1  0  0  0  0
 11 12  2  0  0  0  0
M  END
>  <CHROM.1>
30.53000095,17.83997295,16.52445323,2.18271950,-0.91879242,-2.04290785

>  <Name>
ligand

>  <RI>
0

>  <Rbt.Current_Directory>
/home/itssahil/PROJECTS/Mol_Feturizer/New_Systems/rnas/4LX6

>  <Rbt.Executable>
rbdock ($Id: //depot/dev/client3/rdock/2013.1/src/exe/rbdock.cxx#4 $)

>  <Rbt.Library>
libRbt.so (2013.1, Build901 2013/11/27)

>  <Rbt.Parameter_File>
/export/apps/rDock/src/rDock_2013.1_src/data/scripts/dock_solv.prm

>  <Rbt.Receptor>
prm/pocket_docking_4.prm

>  <SCORE>
-17.3129

>  <SCORE.INTER>
-17.3129

>  <SCORE.INTER.CONST>
1

>  <SCORE.INTER.POLAR>
0

>  <SCORE.INTER.ROT>
0

>  <SCORE.INTER.SOLV>
10.678

>  <SCORE.INTER.VDW>
-18.7013

>  <SCORE.INTER.norm>
-1.44274

>  <SCORE.INTRA>
0

>  <SCORE.INTRA.DIHEDRAL>
0

>  <SCORE.INTRA.DIHEDRAL.0>
0

>  <SCORE.INTRA.POLAR>
0

>  <SCORE.INTRA.POLAR.0>
0

>  <SCORE.INTRA.REPUL>
0

>  <SCORE.INTRA.REPUL.0>
0

>  <SCORE.INTRA.SOLV>
0

>  <SCORE.INTRA.SOLV.lig_0>
-28.9128

>  <SCORE.INTRA.VDW>
0

>  <SCORE.INTRA.VDW.0>
0

>  <SCORE.INTRA.norm>
0

>  <SCORE.RESTR>
0

>  <SCORE.RESTR.CAVITY>
0

>  <SCORE.RESTR.norm>
0

>  <SCORE.SYSTEM>
0

>  <SCORE.SYSTEM.CONST>
0

>  <SCORE.SYSTEM.DIHEDRAL>
0

>  <SCORE.SYSTEM.SOLV>
0

>  <SCORE.SYSTEM.norm>
0

>  <SCORE.heavy>
12

>  <SCORE.norm>
-1.44274

>  <RMSD>
2.962

$$$$
ligand
 OpenBabel11021811503D
libRbt.so/2013.1/901 2013/11/27
 12 13  0  0  0  0  0  0  0  0999 V2000
   29.5000   16.1225   16.0390 C   0  0  0  0  0  0  0  0  0  0  0  0
   30.9506   17.8047   15.0956 C   0  0  0  0  0  0  0  0  0  0  0  0
   28.7904   15.0063   15.9210 N   0  0  0  0  0  0  0  0  0  0  0  0
   29.5407   16.7425   17.2228 N   0  0  0  0  0  0  0  0  0  0  0  0
   30.2098   16.6386   14.9388 N   0  0  0  0  0  0  0  0  0  0  0  0
   31.5675   18.2575   14.1274 O   0  0  0  0  0  0  0  0  0  0  0  0
   31.6791   20.2009   17.8227 N   0  0  0  0  0  0  0  0  0  0  0  0
   30.9462   19.6217   18.8703 C   0  0  0  0  0  0  0  0  0  0  0  0
   30.2282   18.4341   18.6354 N   0  0  0  0  0  0  0  0  0  0  0  0
   30.2329   17.8734   17.4095 C   0  0  0  0  0  0  0  0  0  0  0  0
   30.9592   18.4273   16.3463 C   0  0  0  0  0  0  0  0  0  0  0  0
   31.6797   19.5961   16.5429 C   0  0  0  0  0  0  0  0  0  0  0  0
  1  3  1  0  0  0  0
  1  4  2  0  0  0  0
  1  5  1  0  0  0  0
  2  6  2  0  0  0  0
  2 11  1  0  0  0  0
  2  5  1  0  0  0  0
  4 10  1  0  0  0  0
  7  8  2  0  0  0  0
  7 12  1  0  0  0  0
  8  9  1  0  0  0  0
  9 10  2  0  0  0  0
 10 11  1  0  0  0  0
 11 12  2  0  0  0  0
M  END
>  <CHROM.1>
30.52262241,17.87208640,16.53972333,2.19608864,-0.92804249,-2.01911095

>  <Name>
ligand

>  <RI>
0

>  <Rbt.Current_Directory>
/home/itssahil/PROJECTS/Mol_Feturizer/New_Systems/rnas/4LX6

>  <Rbt.Executable>
rbdock ($Id: //depot/dev/client3/rdock/2013.1/src/exe/rbdock.cxx#4 $)

>  <Rbt.Library>
libRbt.so (2013.1, Build901 2013/11/27)

>  <Rbt.Parameter_File>
/export/apps/rDock/src/rDock_2013.1_src/data/scripts/dock_solv.prm

>  <Rbt.Receptor>
prm/pocket_docking_5.prm

>  <SCORE>
-17.2882

>  <SCORE.INTER>
-17.2882

>  <SCORE.INTER.CONST>
1

>  <SCORE.INTER.POLAR>
0

>  <SCORE.INTER.ROT>
0

>  <SCORE.INTER.SOLV>
10.6104

>  <SCORE.INTER.VDW>
-18.6623

>  <SCORE.INTER.norm>
-1.44069

>  <SCORE.INTRA>
0

>  <SCORE.INTRA.DIHEDRAL>
0

>  <SCORE.INTRA.DIHEDRAL.0>
0

>  <SCORE.INTRA.POLAR>
0

>  <SCORE.INTRA.POLAR.0>
0

>  <SCORE.INTRA.REPUL>
0

>  <SCORE.INTRA.REPUL.0>
0

>  <SCORE.INTRA.SOLV>
0

>  <SCORE.INTRA.SOLV.lig_0>
-28.9128

>  <SCORE.INTRA.VDW>
0

>  <SCORE.INTRA.VDW.0>
0

>  <SCORE.INTRA.norm>
0

>  <SCORE.RESTR>
0

>  <SCORE.RESTR.CAVITY>
0

>  <SCORE.RESTR.norm>
0

>  <SCORE.SYSTEM>
0

>  <SCORE.SYSTEM.CONST>
0

>  <SCORE.SYSTEM.DIHEDRAL>
0

>  <SCORE.SYSTEM.SOLV>
0

>  <SCORE.SYSTEM.norm>
0

>  <SCORE.heavy>
12

>  <SCORE.norm>
-1.44069

>  <RMSD>
2.962

$$$$
ligand
 OpenBabel11021811503D
libRbt.so/2013.1/901 2013/11/27
 12 13  0  0  0  0  0  0  0  0999 V2000
   29.5037   16.1236   16.0404 C   0  0  0  0  0  0  0  0  0  0  0  0
   30.9528   17.8060   15.0951 C   0  0  0  0  0  0  0  0  0  0  0  0
   28.7969   15.0054   15.9243 N   0  0  0  0  0  0  0  0  0  0  0  0
   29.5402   16.7474   17.2223 N   0  0  0  0  0  0  0  0  0  0  0  0
   30.2149   16.6378   14.9403 N   0  0  0  0  0  0  0  0  0  0  0  0
   31.5709   18.2573   14.1270 O   0  0  0  0  0  0  0  0  0  0  0  0
   31.6695   20.2124   17.8163 N   0  0  0  0  0  0  0  0  0  0  0  0
   30.9355   19.6349   18.8641 C   0  0  0  0  0  0  0  0  0  0  0  0
   30.2208   18.4449   18.6313 N   0  0  0  0  0  0  0  0  0  0  0  0
   30.2295   17.8804   17.4071 C   0  0  0  0  0  0  0  0  0  0  0  0
   30.9570   18.4326   16.3439 C   0  0  0  0  0  0  0  0  0  0  0  0
   31.6744   19.6036   16.5384 C   0  0  0  0  0  0  0  0  0  0  0  0
  1  3  1  0  0  0  0
  1  4  2  0  0  0  0
  1  5  1  0  0  0  0
  2  6  2  0  0  0  0
  2 11  1  0  0  0  0
  2  5  1  0  0  0  0
  4 10  1  0  0  0  0
  7  8  2  0  0  0  0
  7 12  1  0  0  0  0
  8  9  1  0  0  0  0
  9 10  2  0  0  0  0
 10 11  1  0  0  0  0
 11 12  2  0  0  0  0
M  END
>  <CHROM.1>
30.52125908,17.87701941,16.53802869,2.19096847,-0.92904131,-2.02634415

>  <Name>
ligand

>  <RI>
0

>  <Rbt.Current_Directory>
/home/itssahil/PROJECTS/Mol_Feturizer/New_Systems/rnas/4LX6

>  <Rbt.Executable>
rbdock ($Id: //depot/dev/client3/rdock/2013.1/src/exe/rbdock.cxx#4 $)

>  <Rbt.Library>
libRbt.so (2013.1, Build901 2013/11/27)

>  <Rbt.Parameter_File>
/export/apps/rDock/src/rDock_2013.1_src/data/scripts/dock_solv.prm

>  <Rbt.Receptor>
prm/pocket_docking_5.prm

>  <SCORE>
-17.2886

>  <SCORE.INTER>
-17.2886

>  <SCORE.INTER.CONST>
1

>  <SCORE.INTER.POLAR>
0

>  <SCORE.INTER.ROT>
0

>  <SCORE.INTER.SOLV>
10.6432

>  <SCORE.INTER.VDW>
-18.6735

>  <SCORE.INTER.norm>
-1.44072

>  <SCORE.INTRA>
0

>  <SCORE.INTRA.DIHEDRAL>
0

>  <SCORE.INTRA.DIHEDRAL.0>
0

>  <SCORE.INTRA.POLAR>
0

>  <SCORE.INTRA.POLAR.0>
0

>  <SCORE.INTRA.REPUL>
0

>  <SCORE.INTRA.REPUL.0>
0

>  <SCORE.INTRA.SOLV>
0

>  <SCORE.INTRA.SOLV.lig_0>
-28.9128

>  <SCORE.INTRA.VDW>
0

>  <SCORE.INTRA.VDW.0>
0

>  <SCORE.INTRA.norm>
0

>  <SCORE.RESTR>
0

>  <SCORE.RESTR.CAVITY>
0

>  <SCORE.RESTR.norm>
0

>  <SCORE.SYSTEM>
0

>  <SCORE.SYSTEM.CONST>
0

>  <SCORE.SYSTEM.DIHEDRAL>
0

>  <SCORE.SYSTEM.SOLV>
0

>  <SCORE.SYSTEM.norm>
0

>  <SCORE.heavy>
12

>  <SCORE.norm>
-1.44072

>  <RMSD>
2.962

$$$$
ligand
 OpenBabel11021811503D
libRbt.so/2013.1/901 2013/11/27
 12 13  0  0  0  0  0  0  0  0999 V2000
   29.5036   16.1166   16.0413 C   0  0  0  0  0  0  0  0  0  0  0  0
   30.9453   17.8027   15.0913 C   0  0  0  0  0  0  0  0  0  0  0  0
   28.7993   14.9965   15.9273 N   0  0  0  0  0  0  0  0  0  0  0  0
   29.5423   16.7404   17.2231 N   0  0  0  0  0  0  0  0  0  0  0  0
   30.2100   16.6327   14.9389 N   0  0  0  0  0  0  0  0  0  0  0  0
   31.5591   18.2556   14.1213 O   0  0  0  0  0  0  0  0  0  0  0  0
   31.6646   20.2109   17.8104 N   0  0  0  0  0  0  0  0  0  0  0  0
   30.9354   19.6314   18.8605 C   0  0  0  0  0  0  0  0  0  0  0  0
   30.2230   18.4396   18.6299 N   0  0  0  0  0  0  0  0  0  0  0  0
   30.2293   17.8752   17.4057 C   0  0  0  0  0  0  0  0  0  0  0  0
   30.9519   18.4292   16.3402 C   0  0  0  0  0  0  0  0  0  0  0  0
   31.6669   19.6022   16.5325 C   0  0  0  0  0  0  0  0  0  0  0  0
  1  3  1  0  0  0  0
  1  4  2  0  0  0  0
  1  5  1  0  0  0  0
  2  6  2  0  0  0  0
  2 11  1  0  0  0  0
  2  5  1  0  0  0  0
  4 10  1  0  0  0  0
  7  8  2  0  0  0  0
  7 12  1  0  0  0  0
  8  9  1  0  0  0  0
  9 10  2  0  0  0  0
 10 11  1  0  0  0  0
 11 12  2  0  0  0  0
M  END
>  <CHROM.1>
30.51822449,17.87256444,16.53566359,2.19390605,-0.93278139,-2.02394323

>  <Name>
ligand

>  <RI>
0

>  <Rbt.Current_Directory>
/home/itssahil/PROJECTS/Mol_Feturizer/New_Systems/rnas/4LX6

>  <Rbt.Executable>
rbdock ($Id: //depot/dev/client3/rdock/2013.1/src/exe/rbdock.cxx#4 $)

>  <Rbt.Library>
libRbt.so (2013.1, Build901 2013/11/27)

>  <Rbt.Parameter_File>
/export/apps/rDock/src/rDock_2013.1_src/data/scripts/dock_solv.prm

>  <Rbt.Receptor>
prm/pocket_docking_5.prm

>  <SCORE>
-17.2897

>  <SCORE.INTER>
-17.2897

>  <SCORE.INTER.CONST>
1

>  <SCORE.INTER.POLAR>
0

>  <SCORE.INTER.ROT>
0

>  <SCORE.INTER.SOLV>
10.6623

>  <SCORE.INTER.VDW>
-18.6806

>  <SCORE.INTER.norm>
-1.44081

>  <SCORE.INTRA>
0

>  <SCORE.INTRA.DIHEDRAL>
0

>  <SCORE.INTRA.DIHEDRAL.0>
0

>  <SCORE.INTRA.POLAR>
0

>  <SCORE.INTRA.POLAR.0>
0

>  <SCORE.INTRA.REPUL>
0

>  <SCORE.INTRA.REPUL.0>
0

>  <SCORE.INTRA.SOLV>
0

>  <SCORE.INTRA.SOLV.lig_0>
-28.9128

>  <SCORE.INTRA.VDW>
0

>  <SCORE.INTRA.VDW.0>
0

>  <SCORE.INTRA.norm>
0

>  <SCORE.RESTR>
0

>  <SCORE.RESTR.CAVITY>
0

>  <SCORE.RESTR.norm>
0

>  <SCORE.SYSTEM>
0

>  <SCORE.SYSTEM.CONST>
0

>  <SCORE.SYSTEM.DIHEDRAL>
0

>  <SCORE.SYSTEM.SOLV>
0

>  <SCORE.SYSTEM.norm>
0

>  <SCORE.heavy>
12

>  <SCORE.norm>
-1.44081

>  <RMSD>
2.962

$$$$
ligand
 OpenBabel11021811503D
libRbt.so/2013.1/901 2013/11/27
 12 13  0  0  0  0  0  0  0  0999 V2000
   29.5015   16.1264   16.0401 C   0  0  0  0  0  0  0  0  0  0  0  0
   30.9539   17.8064   15.0957 C   0  0  0  0  0  0  0  0  0  0  0  0
   28.7916   15.0102   15.9229 N   0  0  0  0  0  0  0  0  0  0  0  0
   29.5413   16.7480   17.2230 N   0  0  0  0  0  0  0  0  0  0  0  0
   30.2128   16.6405   14.9399 N   0  0  0  0  0  0  0  0  0  0  0  0
   31.5721   18.2576   14.1276 O   0  0  0  0  0  0  0  0  0  0  0  0
   31.6807   20.2063   17.8201 N   0  0  0  0  0  0  0  0  0  0  0  0
   30.9464   19.6289   18.8679 C   0  0  0  0  0  0  0  0  0  0  0  0
   30.2282   18.4413   18.6339 N   0  0  0  0  0  0  0  0  0  0  0  0
   30.2339   17.8788   17.4088 C   0  0  0  0  0  0  0  0  0  0  0  0
   30.9615   18.4308   16.3456 C   0  0  0  0  0  0  0  0  0  0  0  0
   31.6823   19.5996   16.5412 C   0  0  0  0  0  0  0  0  0  0  0  0
  1  3  1  0  0  0  0
  1  4  2  0  0  0  0
  1  5  1  0  0  0  0
  2  6  2  0  0  0  0
  2 11  1  0  0  0  0
  2  5  1  0  0  0  0
  4 10  1  0  0  0  0
  7  8  2  0  0  0  0
  7 12  1  0  0  0  0
  8  9  1  0  0  0  0
  9 10  2  0  0  0  0
 10 11  1  0  0  0  0
 11 12  2  0  0  0  0
M  END
>  <CHROM.1>
30.52448499,17.87613735,16.53935684,2.19486348,-0.92716926,-2.02152977

>  <Name>
ligand

>  <RI>
0

>  <Rbt.Current_Directory>
/home/itssahil/PROJECTS/Mol_Feturizer/New_Systems/rnas/4LX6

>  <Rbt.Executable>
rbdock ($Id: //depot/dev/client3/rdock/2013.1/src/exe/rbdock.cxx#4 $)

>  <Rbt.Library>
libRbt.so (2013.1, Build901 2013/11/27)

>  <Rbt.Parameter_File>
/export/apps/rDock/src/rDock_2013.1_src/data/scripts/dock_solv.prm

>  <Rbt.Receptor>
prm/pocket_docking_6.prm

>  <SCORE>
-17.2885

>  <SCORE.INTER>
-17.2885

>  <SCORE.INTER.CONST>
1

>  <SCORE.INTER.POLAR>
0

>  <SCORE.INTER.ROT>
0

>  <SCORE.INTER.SOLV>
10.6137

>  <SCORE.INTER.VDW>
-18.6636

>  <SCORE.INTER.norm>
-1.44071

>  <SCORE.INTRA>
0

>  <SCORE.INTRA.DIHEDRAL>
0

>  <SCORE.INTRA.DIHEDRAL.0>
0

>  <SCORE.INTRA.POLAR>
0

>  <SCORE.INTRA.POLAR.0>
0

>  <SCORE.INTRA.REPUL>
0

>  <SCORE.INTRA.REPUL.0>
0

>  <SCORE.INTRA.SOLV>
0

>  <SCORE.INTRA.SOLV.lig_0>
-28.9128

>  <SCORE.INTRA.VDW>
0

>  <SCORE.INTRA.VDW.0>
0

>  <SCORE.INTRA.norm>
0

>  <SCORE.RESTR>
0

>  <SCORE.RESTR.CAVITY>
0

>  <SCORE.RESTR.norm>
0

>  <SCORE.SYSTEM>
0

>  <SCORE.SYSTEM.CONST>
0

>  <SCORE.SYSTEM.DIHEDRAL>
0

>  <SCORE.SYSTEM.SOLV>
0

>  <SCORE.SYSTEM.norm>
0

>  <SCORE.heavy>
12

>  <SCORE.norm>
-1.44071

>  <RMSD>
2.962

$$$$
ligand
 OpenBabel11021811503D
libRbt.so/2013.1/901 2013/11/27
 12 13  0  0  0  0  0  0  0  0999 V2000
   29.5038   16.1190   16.0414 C   0  0  0  0  0  0  0  0  0  0  0  0
   30.9467   17.8039   15.0911 C   0  0  0  0  0  0  0  0  0  0  0  0
   28.7992   14.9991   15.9279 N   0  0  0  0  0  0  0  0  0  0  0  0
   29.5420   16.7438   17.2228 N   0  0  0  0  0  0  0  0  0  0  0  0
   30.2111   16.6340   14.9391 N   0  0  0  0  0  0  0  0  0  0  0  0
   31.5614   18.2558   14.1211 O   0  0  0  0  0  0  0  0  0  0  0  0
   31.6651   20.2140   17.8087 N   0  0  0  0  0  0  0  0  0  0  0  0
   30.9350   19.6356   18.8588 C   0  0  0  0  0  0  0  0  0  0  0  0
   30.2224   18.4439   18.6287 N   0  0  0  0  0  0  0  0  0  0  0  0
   30.2292   17.8785   17.4050 C   0  0  0  0  0  0  0  0  0  0  0  0
   30.9528   18.4314   16.3395 C   0  0  0  0  0  0  0  0  0  0  0  0
   31.6681   19.6042   16.5313 C   0  0  0  0  0  0  0  0  0  0  0  0
  1  3  1  0  0  0  0
  1  4  2  0  0  0  0
  1  5  1  0  0  0  0
  2  6  2  0  0  0  0
  2 11  1  0  0  0  0
  2  5  1  0  0  0  0
  4 10  1  0  0  0  0
  7  8  2  0  0  0  0
  7 12  1  0  0  0  0
  8  9  1  0  0  0  0
  9 10  2  0  0  0  0
 10 11  1  0  0  0  0
 11 12  2  0  0  0  0
M  END
>  <CHROM.1>
30.51876060,17.87505777,16.53510078,2.19319120,-0.93216531,-2.02531778

>  <Name>
ligand

>  <RI>
0

>  <Rbt.Current_Directory>
/home/itssahil/PROJECTS/Mol_Feturizer/New_Systems/rnas/4LX6

>  <Rbt.Executable>
rbdock ($Id: //depot/dev/client3/rdock/2013.1/src/exe/rbdock.cxx#4 $)

>  <Rbt.Library>
libRbt.so (2013.1, Build901 2013/11/27)

>  <Rbt.Parameter_File>
/export/apps/rDock/src/rDock_2013.1_src/data/scripts/dock_solv.prm

>  <Rbt.Receptor>
prm/pocket_docking_6.prm

>  <SCORE>
-17.2896

>  <SCORE.INTER>
-17.2896

>  <SCORE.INTER.CONST>
1

>  <SCORE.INTER.POLAR>
0

>  <SCORE.INTER.ROT>
0

>  <SCORE.INTER.SOLV>
10.6606

>  <SCORE.INTER.VDW>
-18.68

>  <SCORE.INTER.norm>
-1.4408

>  <SCORE.INTRA>
0

>  <SCORE.INTRA.DIHEDRAL>
0

>  <SCORE.INTRA.DIHEDRAL.0>
0

>  <SCORE.INTRA.POLAR>
0

>  <SCORE.INTRA.POLAR.0>
0

>  <SCORE.INTRA.REPUL>
0

>  <SCORE.INTRA.REPUL.0>
0

>  <SCORE.INTRA.SOLV>
0

>  <SCORE.INTRA.SOLV.lig_0>
-28.9128

>  <SCORE.INTRA.VDW>
0

>  <SCORE.INTRA.VDW.0>
0

>  <SCORE.INTRA.norm>
0

>  <SCORE.RESTR>
0

>  <SCORE.RESTR.CAVITY>
0

>  <SCORE.RESTR.norm>
0

>  <SCORE.SYSTEM>
0

>  <SCORE.SYSTEM.CONST>
0

>  <SCORE.SYSTEM.DIHEDRAL>
0

>  <SCORE.SYSTEM.SOLV>
0

>  <SCORE.SYSTEM.norm>
0

>  <SCORE.heavy>
12

>  <SCORE.norm>
-1.4408

>  <RMSD>
2.962

$$$$
ligand
 OpenBabel11021811503D
libRbt.so/2013.1/901 2013/11/27
 12 13  0  0  0  0  0  0  0  0999 V2000
   29.5037   16.0955   16.0329 C   0  0  0  0  0  0  0  0  0  0  0  0
   30.9810   17.7548   15.0906 C   0  0  0  0  0  0  0  0  0  0  0  0
   28.7872   14.9833   15.9180 N   0  0  0  0  0  0  0  0  0  0  0  0
   29.5323   16.7293   17.2097 N   0  0  0  0  0  0  0  0  0  0  0  0
   30.2334   16.5927   14.9371 N   0  0  0  0  0  0  0  0  0  0  0  0
   31.6154   18.1912   14.1261 O   0  0  0  0  0  0  0  0  0  0  0  0
   31.6890   20.1781   17.7991 N   0  0  0  0  0  0  0  0  0  0  0  0
   30.9366   19.6173   18.8429 C   0  0  0  0  0  0  0  0  0  0  0  0
   30.2128   18.4325   18.6118 N   0  0  0  0  0  0  0  0  0  0  0  0
   30.2306   17.8570   17.3929 C   0  0  0  0  0  0  0  0  0  0  0  0
   30.9765   18.3924   16.3338 C   0  0  0  0  0  0  0  0  0  0  0  0
   31.7033   19.5579   16.5268 C   0  0  0  0  0  0  0  0  0  0  0  0
  1  3  1  0  0  0  0
  1  4  2  0  0  0  0
  1  5  1  0  0  0  0
  2  6  2  0  0  0  0
  2 11  1  0  0  0  0
  2  5  1  0  0  0  0
  4 10  1  0  0  0  0
  7  8  2  0  0  0  0
  7 12  1  0  0  0  0
  8  9  1  0  0  0  0
  9 10  2  0  0  0  0
 10 11  1  0  0  0  0
 11 12  2  0  0  0  0
M  END
>  <CHROM.1>
30.53283581,17.84297021,16.52746305,2.18042517,-0.91464171,-2.04359833

>  <Name>
ligand

>  <RI>
0

>  <Rbt.Current_Directory>
/home/itssahil/PROJECTS/Mol_Feturizer/New_Systems/rnas/4LX6

>  <Rbt.Executable>
rbdock ($Id: //depot/dev/client3/rdock/2013.1/src/exe/rbdock.cxx#4 $)

>  <Rbt.Library>
libRbt.so (2013.1, Build901 2013/11/27)

>  <Rbt.Parameter_File>
/export/apps/rDock/src/rDock_2013.1_src/data/scripts/dock_solv.prm

>  <Rbt.Receptor>
prm/pocket_docking_7.prm

>  <SCORE>
-17.3135

>  <SCORE.INTER>
-17.3135

>  <SCORE.INTER.CONST>
1

>  <SCORE.INTER.POLAR>
0

>  <SCORE.INTER.ROT>
0

>  <SCORE.INTER.SOLV>
10.6502

>  <SCORE.INTER.VDW>
-18.6924

>  <SCORE.INTER.norm>
-1.44279

>  <SCORE.INTRA>
0

>  <SCORE.INTRA.DIHEDRAL>
0

>  <SCORE.INTRA.DIHEDRAL.0>
0

>  <SCORE.INTRA.POLAR>
0

>  <SCORE.INTRA.POLAR.0>
0

>  <SCORE.INTRA.REPUL>
0

>  <SCORE.INTRA.REPUL.0>
0

>  <SCORE.INTRA.SOLV>
0

>  <SCORE.INTRA.SOLV.lig_0>
-28.9128

>  <SCORE.INTRA.VDW>
0

>  <SCORE.INTRA.VDW.0>
0

>  <SCORE.INTRA.norm>
0

>  <SCORE.RESTR>
0

>  <SCORE.RESTR.CAVITY>
0

>  <SCORE.RESTR.norm>
0

>  <SCORE.SYSTEM>
0

>  <SCORE.SYSTEM.CONST>
0

>  <SCORE.SYSTEM.DIHEDRAL>
0

>  <SCORE.SYSTEM.SOLV>
0

>  <SCORE.SYSTEM.norm>
0

>  <SCORE.heavy>
12

>  <SCORE.norm>
-1.44279

>  <RMSD>
2.962

$$$$
ligand
 OpenBabel11021811503D
libRbt.so/2013.1/901 2013/11/27
 12 13  0  0  0  0  0  0  0  0999 V2000
   29.5047   16.1240   16.0389 C   0  0  0  0  0  0  0  0  0  0  0  0
   30.9566   17.8069   15.0988 C   0  0  0  0  0  0  0  0  0  0  0  0
   28.7962   15.0072   15.9193 N   0  0  0  0  0  0  0  0  0  0  0  0
   29.5419   16.7443   17.2226 N   0  0  0  0  0  0  0  0  0  0  0  0
   30.2170   16.6403   14.9405 N   0  0  0  0  0  0  0  0  0  0  0  0
   31.5757   18.2600   14.1321 O   0  0  0  0  0  0  0  0  0  0  0  0
   31.6765   20.2042   17.8272 N   0  0  0  0  0  0  0  0  0  0  0  0
   30.9413   19.6248   18.8731 C   0  0  0  0  0  0  0  0  0  0  0  0
   30.2248   18.4366   18.6366 N   0  0  0  0  0  0  0  0  0  0  0  0
   30.2330   17.8757   17.4109 C   0  0  0  0  0  0  0  0  0  0  0  0
   30.9615   18.4298   16.3494 C   0  0  0  0  0  0  0  0  0  0  0  0
   31.6808   19.5991   16.5475 C   0  0  0  0  0  0  0  0  0  0  0  0
  1  3  1  0  0  0  0
  1  4  2  0  0  0  0
  1  5  1  0  0  0  0
  2  6  2  0  0  0  0
  2 11  1  0  0  0  0
  2  5  1  0  0  0  0
  4 10  1  0  0  0  0
  7  8  2  0  0  0  0
  7 12  1  0  0  0  0
  8  9  1  0  0  0  0
  9 10  2  0  0  0  0
 10 11  1  0  0  0  0
 11 12  2  0  0  0  0
M  END
>  <CHROM.1>
30.52489549,17.87433925,16.54184025,2.19177276,-0.92753701,-2.02279427

>  <Name>
ligand

>  <RI>
0

>  <Rbt.Current_Directory>
/home/itssahil/PROJECTS/Mol_Feturizer/New_Systems/rnas/4LX6

>  <Rbt.Executable>
rbdock ($Id: //depot/dev/client3/rdock/2013.1/src/exe/rbdock.cxx#4 $)

>  <Rbt.Library>
libRbt.so (2013.1, Build901 2013/11/27)

>  <Rbt.Parameter_File>
/export/apps/rDock/src/rDock_2013.1_src/data/scripts/dock_solv.prm

>  <Rbt.Receptor>
prm/pocket_docking_7.prm

>  <SCORE>
-17.2879

>  <SCORE.INTER>
-17.2879

>  <SCORE.INTER.CONST>
1

>  <SCORE.INTER.POLAR>
0

>  <SCORE.INTER.ROT>
0

>  <SCORE.INTER.SOLV>
10.6326

>  <SCORE.INTER.VDW>
-18.6695

>  <SCORE.INTER.norm>
-1.44066

>  <SCORE.INTRA>
0

>  <SCORE.INTRA.DIHEDRAL>
0

>  <SCORE.INTRA.DIHEDRAL.0>
0

>  <SCORE.INTRA.POLAR>
0

>  <SCORE.INTRA.POLAR.0>
0

>  <SCORE.INTRA.REPUL>
0

>  <SCORE.INTRA.REPUL.0>
0

>  <SCORE.INTRA.SOLV>
0

>  <SCORE.INTRA.SOLV.lig_0>
-28.9128

>  <SCORE.INTRA.VDW>
0

>  <SCORE.INTRA.VDW.0>
0

>  <SCORE.INTRA.norm>
0

>  <SCORE.RESTR>
0

>  <SCORE.RESTR.CAVITY>
0

>  <SCORE.RESTR.norm>
0

>  <SCORE.SYSTEM>
0

>  <SCORE.SYSTEM.CONST>
0

>  <SCORE.SYSTEM.DIHEDRAL>
0

>  <SCORE.SYSTEM.SOLV>
0

>  <SCORE.SYSTEM.norm>
0

>  <SCORE.heavy>
12

>  <SCORE.norm>
-1.44066

>  <RMSD>
2.962

$$$$
ligand
 OpenBabel11021811503D
libRbt.so/2013.1/901 2013/11/27
 12 13  0  0  0  0  0  0  0  0999 V2000
   29.5051   16.0859   16.0360 C   0  0  0  0  0  0  0  0  0  0  0  0
   30.9695   17.7513   15.0842 C   0  0  0  0  0  0  0  0  0  0  0  0
   28.7930   14.9704   15.9258 N   0  0  0  0  0  0  0  0  0  0  0  0
   29.5372   16.7208   17.2121 N   0  0  0  0  0  0  0  0  0  0  0  0
   30.2264   16.5856   14.9357 N   0  0  0  0  0  0  0  0  0  0  0  0
   31.5965   18.1899   14.1160 O   0  0  0  0  0  0  0  0  0  0  0  0
   31.6813   20.1799   17.7870 N   0  0  0  0  0  0  0  0  0  0  0  0
   30.9372   19.6164   18.8354 C   0  0  0  0  0  0  0  0  0  0  0  0
   30.2176   18.4281   18.6092 N   0  0  0  0  0  0  0  0  0  0  0  0
   30.2314   17.8518   17.3906 C   0  0  0  0  0  0  0  0  0  0  0  0
   30.9689   18.3898   16.3270 C   0  0  0  0  0  0  0  0  0  0  0  0
   31.6914   19.5588   16.5151 C   0  0  0  0  0  0  0  0  0  0  0  0
  1  3  1  0  0  0  0
  1  4  2  0  0  0  0
  1  5  1  0  0  0  0
  2  6  2  0  0  0  0
  2 11  1  0  0  0  0
  2  5  1  0  0  0  0
  4 10  1  0  0  0  0
  7  8  2  0  0  0  0
  7 12  1  0  0  0  0
  8  9  1  0  0  0  0
  9 10  2  0  0  0  0
 10 11  1  0  0  0  0
 11 12  2  0  0  0  0
M  END
>  <CHROM.1>
30.52886160,17.83848887,16.52351632,2.18510678,-0.92125751,-2.04062895

>  <Name>
ligand

>  <RI>
0

>  <Rbt.Current_Directory>
/home/itssahil/PROJECTS/Mol_Feturizer/New_Systems/rnas/4LX6

>  <Rbt.Executable>
rbdock ($Id: //depot/dev/client3/rdock/2013.1/src/exe/rbdock.cxx#4 $)

>  <Rbt.Library>
libRbt.so (2013.1, Build901 2013/11/27)

>  <Rbt.Parameter_File>
/export/apps/rDock/src/rDock_2013.1_src/data/scripts/dock_solv.prm

>  <Rbt.Receptor>
prm/pocket_docking_7.prm

>  <SCORE>
-17.3141

>  <SCORE.INTER>
-17.3141

>  <SCORE.INTER.CONST>
1

>  <SCORE.INTER.POLAR>
0

>  <SCORE.INTER.ROT>
0

>  <SCORE.INTER.SOLV>
10.6885

>  <SCORE.INTER.VDW>
-18.7056

>  <SCORE.INTER.norm>
-1.44284

>  <SCORE.INTRA>
0

>  <SCORE.INTRA.DIHEDRAL>
0

>  <SCORE.INTRA.DIHEDRAL.0>
0

>  <SCORE.INTRA.POLAR>
0

>  <SCORE.INTRA.POLAR.0>
0

>  <SCORE.INTRA.REPUL>
0

>  <SCORE.INTRA.REPUL.0>
0

>  <SCORE.INTRA.SOLV>
0

>  <SCORE.INTRA.SOLV.lig_0>
-28.9128

>  <SCORE.INTRA.VDW>
0

>  <SCORE.INTRA.VDW.0>
0

>  <SCORE.INTRA.norm>
0

>  <SCORE.RESTR>
0

>  <SCORE.RESTR.CAVITY>
0

>  <SCORE.RESTR.norm>
0

>  <SCORE.SYSTEM>
0

>  <SCORE.SYSTEM.CONST>
0

>  <SCORE.SYSTEM.DIHEDRAL>
0

>  <SCORE.SYSTEM.SOLV>
0

>  <SCORE.SYSTEM.norm>
0

>  <SCORE.heavy>
12

>  <SCORE.norm>
-1.44284

>  <RMSD>
2.962

$$$$
ligand
 OpenBabel11021811503D
libRbt.so/2013.1/901 2013/11/27
 12 13  0  0  0  0  0  0  0  0999 V2000
   29.5050   16.1148   16.0390 C   0  0  0  0  0  0  0  0  0  0  0  0
   30.9478   17.8032   15.0948 C   0  0  0  0  0  0  0  0  0  0  0  0
   28.8003   14.9954   15.9214 N   0  0  0  0  0  0  0  0  0  0  0  0
   29.5435   16.7351   17.2227 N   0  0  0  0  0  0  0  0  0  0  0  0
   30.2121   16.6339   14.9385 N   0  0  0  0  0  0  0  0  0  0  0  0
   31.5623   18.2588   14.1263 O   0  0  0  0  0  0  0  0  0  0  0  0
   31.6670   20.2029   17.8214 N   0  0  0  0  0  0  0  0  0  0  0  0
   30.9371   19.6205   18.8694 C   0  0  0  0  0  0  0  0  0  0  0  0
   30.2243   18.4297   18.6349 N   0  0  0  0  0  0  0  0  0  0  0  0
   30.2308   17.8690   17.4091 C   0  0  0  0  0  0  0  0  0  0  0  0
   30.9542   18.4260   16.3455 C   0  0  0  0  0  0  0  0  0  0  0  0
   31.6696   19.5980   16.5416 C   0  0  0  0  0  0  0  0  0  0  0  0
  1  3  1  0  0  0  0
  1  4  2  0  0  0  0
  1  5  1  0  0  0  0
  2  6  2  0  0  0  0
  2 11  1  0  0  0  0
  2  5  1  0  0  0  0
  4 10  1  0  0  0  0
  7  8  2  0  0  0  0
  7 12  1  0  0  0  0
  8  9  1  0  0  0  0
  9 10  2  0  0  0  0
 10 11  1  0  0  0  0
 11 12  2  0  0  0  0
M  END
>  <CHROM.1>
30.52018797,17.86889370,16.53913376,2.19356471,-0.93219946,-2.02121358

>  <Name>
ligand

>  <RI>
0

>  <Rbt.Current_Directory>
/home/itssahil/PROJECTS/Mol_Feturizer/New_Systems/rnas/4LX6

>  <Rbt.Executable>
rbdock ($Id: //depot/dev/client3/rdock/2013.1/src/exe/rbdock.cxx#4 $)

>  <Rbt.Library>
libRbt.so (2013.1, Build901 2013/11/27)

>  <Rbt.Parameter_File>
/export/apps/rDock/src/rDock_2013.1_src/data/scripts/dock_solv.prm

>  <Rbt.Receptor>
prm/pocket_docking_7.prm

>  <SCORE>
-17.2893

>  <SCORE.INTER>
-17.2893

>  <SCORE.INTER.CONST>
1

>  <SCORE.INTER.POLAR>
0

>  <SCORE.INTER.ROT>
0

>  <SCORE.INTER.SOLV>
10.6612

>  <SCORE.INTER.VDW>
-18.6799

>  <SCORE.INTER.norm>
-1.44078

>  <SCORE.INTRA>
0

>  <SCORE.INTRA.DIHEDRAL>
0

>  <SCORE.INTRA.DIHEDRAL.0>
0

>  <SCORE.INTRA.POLAR>
0

>  <SCORE.INTRA.POLAR.0>
0

>  <SCORE.INTRA.REPUL>
0

>  <SCORE.INTRA.REPUL.0>
0

>  <SCORE.INTRA.SOLV>
0

>  <SCORE.INTRA.SOLV.lig_0>
-28.9128

>  <SCORE.INTRA.VDW>
0

>  <SCORE.INTRA.VDW.0>
0

>  <SCORE.INTRA.norm>
0

>  <SCORE.RESTR>
0

>  <SCORE.RESTR.CAVITY>
0

>  <SCORE.RESTR.norm>
0

>  <SCORE.SYSTEM>
0

>  <SCORE.SYSTEM.CONST>
0

>  <SCORE.SYSTEM.DIHEDRAL>
0

>  <SCORE.SYSTEM.SOLV>
0

>  <SCORE.SYSTEM.norm>
0

>  <SCORE.heavy>
12

>  <SCORE.norm>
-1.44078

>  <RMSD>
2.962

$$$$
ligand
 OpenBabel11021811503D
libRbt.so/2013.1/901 2013/11/27
 12 13  0  0  0  0  0  0  0  0999 V2000
   29.4976   16.1314   16.0375 C   0  0  0  0  0  0  0  0  0  0  0  0
   30.9566   17.8073   15.0959 C   0  0  0  0  0  0  0  0  0  0  0  0
   28.7843   15.0176   15.9189 N   0  0  0  0  0  0  0  0  0  0  0  0
   29.5379   16.7524   17.2208 N   0  0  0  0  0  0  0  0  0  0  0  0
   30.2119   16.6438   14.9385 N   0  0  0  0  0  0  0  0  0  0  0  0
   31.5775   18.2570   14.1287 O   0  0  0  0  0  0  0  0  0  0  0  0
   31.6876   20.2035   17.8224 N   0  0  0  0  0  0  0  0  0  0  0  0
   30.9501   19.6279   18.8689 C   0  0  0  0  0  0  0  0  0  0  0  0
   30.2284   18.4427   18.6334 N   0  0  0  0  0  0  0  0  0  0  0  0
   30.2338   17.8809   17.4081 C   0  0  0  0  0  0  0  0  0  0  0  0
   30.9646   18.4311   16.3461 C   0  0  0  0  0  0  0  0  0  0  0  0
   31.6889   19.5975   16.5432 C   0  0  0  0  0  0  0  0  0  0  0  0
  1  3  1  0  0  0  0
  1  4  2  0  0  0  0
  1  5  1  0  0  0  0
  2  6  2  0  0  0  0
  2 11  1  0  0  0  0
  2  5  1  0  0  0  0
  4 10  1  0  0  0  0
  7  8  2  0  0  0  0
  7 12  1  0  0  0  0
  8  9  1  0  0  0  0
  9 10  2  0  0  0  0
 10 11  1  0  0  0  0
 11 12  2  0  0  0  0
M  END
>  <CHROM.1>
30.52555921,17.87768641,16.53895752,2.19525443,-0.92372747,-2.02071601

>  <Name>
ligand

>  <RI>
0

>  <Rbt.Current_Directory>
/home/itssahil/PROJECTS/Mol_Feturizer/New_Systems/rnas/4LX6

>  <Rbt.Executable>
rbdock ($Id: //depot/dev/client3/rdock/2013.1/src/exe/rbdock.cxx#4 $)

>  <Rbt.Library>
libRbt.so (2013.1, Build901 2013/11/27)

>  <Rbt.Parameter_File>
/export/apps/rDock/src/rDock_2013.1_src/data/scripts/dock_solv.prm

>  <Rbt.Receptor>
prm/pocket_docking_8.prm

>  <SCORE>
-17.2883

>  <SCORE.INTER>
-17.2883

>  <SCORE.INTER.CONST>
1

>  <SCORE.INTER.POLAR>
0

>  <SCORE.INTER.ROT>
0

>  <SCORE.INTER.SOLV>
10.5755

>  <SCORE.INTER.VDW>
-18.6507

>  <SCORE.INTER.norm>
-1.44069

>  <SCORE.INTRA>
0

>  <SCORE.INTRA.DIHEDRAL>
0

>  <SCORE.INTRA.DIHEDRAL.0>
0

>  <SCORE.INTRA.POLAR>
0

>  <SCORE.INTRA.POLAR.0>
0

>  <SCORE.INTRA.REPUL>
0

>  <SCORE.INTRA.REPUL.0>
0

>  <SCORE.INTRA.SOLV>
0

>  <SCORE.INTRA.SOLV.lig_0>
-28.9128

>  <SCORE.INTRA.VDW>
0

>  <SCORE.INTRA.VDW.0>
0

>  <SCORE.INTRA.norm>
0

>  <SCORE.RESTR>
0

>  <SCORE.RESTR.CAVITY>
0

>  <SCORE.RESTR.norm>
0

>  <SCORE.SYSTEM>
0

>  <SCORE.SYSTEM.CONST>
0

>  <SCORE.SYSTEM.DIHEDRAL>
0

>  <SCORE.SYSTEM.SOLV>
0

>  <SCORE.SYSTEM.norm>
0

>  <SCORE.heavy>
12

>  <SCORE.norm>
-1.44069

>  <RMSD>
2.962

$$$$
ligand
 OpenBabel11021811503D
libRbt.so/2013.1/901 2013/11/27
 12 13  0  0  0  0  0  0  0  0999 V2000
   29.4942   16.0928   16.0297 C   0  0  0  0  0  0  0  0  0  0  0  0
   30.9697   17.7511   15.0826 C   0  0  0  0  0  0  0  0  0  0  0  0
   28.7778   14.9803   15.9175 N   0  0  0  0  0  0  0  0  0  0  0  0
   29.5244   16.7284   17.2054 N   0  0  0  0  0  0  0  0  0  0  0  0
   30.2221   16.5886   14.9320 N   0  0  0  0  0  0  0  0  0  0  0  0
   31.6025   18.1862   14.1166 O   0  0  0  0  0  0  0  0  0  0  0  0
   31.6812   20.1787   17.7864 N   0  0  0  0  0  0  0  0  0  0  0  0
   30.9304   19.6192   18.8322 C   0  0  0  0  0  0  0  0  0  0  0  0
   30.2065   18.4338   18.6040 N   0  0  0  0  0  0  0  0  0  0  0  0
   30.2227   17.8566   17.3859 C   0  0  0  0  0  0  0  0  0  0  0  0
   30.9669   18.3905   16.3249 C   0  0  0  0  0  0  0  0  0  0  0  0
   31.6936   19.5566   16.5150 C   0  0  0  0  0  0  0  0  0  0  0  0
  1  3  1  0  0  0  0
  1  4  2  0  0  0  0
  1  5  1  0  0  0  0
  2  6  2  0  0  0  0
  2 11  1  0  0  0  0
  2  5  1  0  0  0  0
  4 10  1  0  0  0  0
  7  8  2  0  0  0  0
  7 12  1  0  0  0  0
  8  9  1  0  0  0  0
  9 10  2  0  0  0  0
 10 11  1  0  0  0  0
 11 12  2  0  0  0  0
M  END
>  <CHROM.1>
30.52364817,17.84131020,16.52006169,2.18241820,-0.91555209,-2.04351970

>  <Name>
ligand

>  <RI>
0

>  <Rbt.Current_Directory>
/home/itssahil/PROJECTS/Mol_Feturizer/New_Systems/rnas/4LX6

>  <Rbt.Executable>
rbdock ($Id: //depot/dev/client3/rdock/2013.1/src/exe/rbdock.cxx#4 $)

>  <Rbt.Library>
libRbt.so (2013.1, Build901 2013/11/27)

>  <Rbt.Parameter_File>
/export/apps/rDock/src/rDock_2013.1_src/data/scripts/dock_solv.prm

>  <Rbt.Receptor>
prm/pocket_docking_8.prm

>  <SCORE>
-17.3145

>  <SCORE.INTER>
-17.3145

>  <SCORE.INTER.CONST>
1

>  <SCORE.INTER.POLAR>
0

>  <SCORE.INTER.ROT>
0

>  <SCORE.INTER.SOLV>
10.6184

>  <SCORE.INTER.VDW>
-18.6825

>  <SCORE.INTER.norm>
-1.44288

>  <SCORE.INTRA>
0

>  <SCORE.INTRA.DIHEDRAL>
0

>  <SCORE.INTRA.DIHEDRAL.0>
0

>  <SCORE.INTRA.POLAR>
0

>  <SCORE.INTRA.POLAR.0>
0

>  <SCORE.INTRA.REPUL>
0

>  <SCORE.INTRA.REPUL.0>
0

>  <SCORE.INTRA.SOLV>
0

>  <SCORE.INTRA.SOLV.lig_0>
-28.9128

>  <SCORE.INTRA.VDW>
0

>  <SCORE.INTRA.VDW.0>
0

>  <SCORE.INTRA.norm>
0

>  <SCORE.RESTR>
0

>  <SCORE.RESTR.CAVITY>
0

>  <SCORE.RESTR.norm>
0

>  <SCORE.SYSTEM>
0

>  <SCORE.SYSTEM.CONST>
0

>  <SCORE.SYSTEM.DIHEDRAL>
0

>  <SCORE.SYSTEM.SOLV>
0

>  <SCORE.SYSTEM.norm>
0

>  <SCORE.heavy>
12

>  <SCORE.norm>
-1.44288

>  <RMSD>
2.962

$$$$
ligand
 OpenBabel11021811503D
libRbt.so/2013.1/901 2013/11/27
 12 13  0  0  0  0  0  0  0  0999 V2000
   29.5081   16.1251   16.0467 C   0  0  0  0  0  0  0  0  0  0  0  0
   30.9535   17.8066   15.0940 C   0  0  0  0  0  0  0  0  0  0  0  0
   28.8040   15.0047   15.9354 N   0  0  0  0  0  0  0  0  0  0  0  0
   29.5428   16.7544   17.2257 N   0  0  0  0  0  0  0  0  0  0  0  0
   30.2185   16.6359   14.9444 N   0  0  0  0  0  0  0  0  0  0  0  0
   31.5709   18.2548   14.1240 O   0  0  0  0  0  0  0  0  0  0  0  0
   31.6638   20.2272   17.8043 N   0  0  0  0  0  0  0  0  0  0  0  0
   30.9308   19.6527   18.8546 C   0  0  0  0  0  0  0  0  0  0  0  0
   30.2189   18.4600   18.6270 N   0  0  0  0  0  0  0  0  0  0  0  0
   30.2294   17.8899   17.4055 C   0  0  0  0  0  0  0  0  0  0  0  0
   30.9559   18.4389   16.3399 C   0  0  0  0  0  0  0  0  0  0  0  0
   31.6705   19.6125   16.5293 C   0  0  0  0  0  0  0  0  0  0  0  0
  1  3  1  0  0  0  0
  1  4  2  0  0  0  0
  1  5  1  0  0  0  0
  2  6  2  0  0  0  0
  2 11  1  0  0  0  0
  2  5  1  0  0  0  0
  4 10  1  0  0  0  0
  7  8  2  0  0  0  0
  7 12  1  0  0  0  0
  8  9  1  0  0  0  0
  9 10  2  0  0  0  0
 10 11  1  0  0  0  0
 11 12  2  0  0  0  0
M  END
>  <CHROM.1>
30.52141275,17.88319091,16.53646733,2.18877524,-0.93102524,-2.03270637

>  <Name>
ligand

>  <RI>
0

>  <Rbt.Current_Directory>
/home/itssahil/PROJECTS/Mol_Feturizer/New_Systems/rnas/4LX6

>  <Rbt.Executable>
rbdock ($Id: //depot/dev/client3/rdock/2013.1/src/exe/rbdock.cxx#4 $)

>  <Rbt.Library>
libRbt.so (2013.1, Build901 2013/11/27)

>  <Rbt.Parameter_File>
/export/apps/rDock/src/rDock_2013.1_src/data/scripts/dock_solv.prm

>  <Rbt.Receptor>
prm/pocket_docking_8.prm

>  <SCORE>
-17.2822

>  <SCORE.INTER>
-17.2822

>  <SCORE.INTER.CONST>
1

>  <SCORE.INTER.POLAR>
0

>  <SCORE.INTER.ROT>
0

>  <SCORE.INTER.SOLV>
10.6814

>  <SCORE.INTER.VDW>
-18.6819

>  <SCORE.INTER.norm>
-1.44018

>  <SCORE.INTRA>
0

>  <SCORE.INTRA.DIHEDRAL>
0

>  <SCORE.INTRA.DIHEDRAL.0>
0

>  <SCORE.INTRA.POLAR>
0

>  <SCORE.INTRA.POLAR.0>
0

>  <SCORE.INTRA.REPUL>
0

>  <SCORE.INTRA.REPUL.0>
0

>  <SCORE.INTRA.SOLV>
0

>  <SCORE.INTRA.SOLV.lig_0>
-28.9128

>  <SCORE.INTRA.VDW>
0

>  <SCORE.INTRA.VDW.0>
0

>  <SCORE.INTRA.norm>
0

>  <SCORE.RESTR>
0

>  <SCORE.RESTR.CAVITY>
0

>  <SCORE.RESTR.norm>
0

>  <SCORE.SYSTEM>
0

>  <SCORE.SYSTEM.CONST>
0

>  <SCORE.SYSTEM.DIHEDRAL>
0

>  <SCORE.SYSTEM.SOLV>
0

>  <SCORE.SYSTEM.norm>
0

>  <SCORE.heavy>
12

>  <SCORE.norm>
-1.44018

>  <RMSD>
2.962

$$$$
ligand
 OpenBabel11021811503D
libRbt.so/2013.1/901 2013/11/27
 12 13  0  0  0  0  0  0  0  0999 V2000
   29.4925   16.1021   16.0329 C   0  0  0  0  0  0  0  0  0  0  0  0
   30.9699   17.7572   15.0832 C   0  0  0  0  0  0  0  0  0  0  0  0
   28.7718   14.9923   15.9214 N   0  0  0  0  0  0  0  0  0  0  0  0
   29.5294   16.7353   17.2097 N   0  0  0  0  0  0  0  0  0  0  0  0
   30.2177   16.5975   14.9333 N   0  0  0  0  0  0  0  0  0  0  0  0
   31.6003   18.1920   14.1155 O   0  0  0  0  0  0  0  0  0  0  0  0
   31.7003   20.1770   17.7889 N   0  0  0  0  0  0  0  0  0  0  0  0
   30.9518   19.6180   18.8365 C   0  0  0  0  0  0  0  0  0  0  0  0
   30.2230   18.4356   18.6089 N   0  0  0  0  0  0  0  0  0  0  0  0
   30.2324   17.8607   17.3896 C   0  0  0  0  0  0  0  0  0  0  0  0
   30.9741   18.3942   16.3267 C   0  0  0  0  0  0  0  0  0  0  0  0
   31.7057   19.5573   16.5162 C   0  0  0  0  0  0  0  0  0  0  0  0
  1  3  1  0  0  0  0
  1  4  2  0  0  0  0
  1  5  1  0  0  0  0
  2  6  2  0  0  0  0
  2 11  1  0  0  0  0
  2  5  1  0  0  0  0
  4 10  1  0  0  0  0
  7  8  2  0  0  0  0
  7 12  1  0  0  0  0
  8  9  1  0  0  0  0
  9 10  2  0  0  0  0
 10 11  1  0  0  0  0
 11 12  2  0  0  0  0
M  END
>  <CHROM.1>
30.52979882,17.84608206,16.52255839,2.19075320,-0.91426883,-2.03496758

>  <Name>
ligand

>  <RI>
0

>  <Rbt.Current_Directory>
/home/itssahil/PROJECTS/Mol_Feturizer/New_Systems/rnas/4LX6

>  <Rbt.Executable>
rbdock ($Id: //depot/dev/client3/rdock/2013.1/src/exe/rbdock.cxx#4 $)

>  <Rbt.Library>
libRbt.so (2013.1, Build901 2013/11/27)

>  <Rbt.Parameter_File>
/export/apps/rDock/src/rDock_2013.1_src/data/scripts/dock_solv.prm

>  <Rbt.Receptor>
prm/pocket_docking_8.prm

>  <SCORE>
-17.2829

>  <SCORE.INTER>
-17.2829

>  <SCORE.INTER.CONST>
1

>  <SCORE.INTER.POLAR>
0

>  <SCORE.INTER.ROT>
0

>  <SCORE.INTER.SOLV>
10.5782

>  <SCORE.INTER.VDW>
-18.648

>  <SCORE.INTER.norm>
-1.44024

>  <SCORE.INTRA>
0

>  <SCORE.INTRA.DIHEDRAL>
0

>  <SCORE.INTRA.DIHEDRAL.0>
0

>  <SCORE.INTRA.POLAR>
0

>  <SCORE.INTRA.POLAR.0>
0

>  <SCORE.INTRA.REPUL>
0

>  <SCORE.INTRA.REPUL.0>
0

>  <SCORE.INTRA.SOLV>
0

>  <SCORE.INTRA.SOLV.lig_0>
-28.9128

>  <SCORE.INTRA.VDW>
0

>  <SCORE.INTRA.VDW.0>
0

>  <SCORE.INTRA.norm>
0

>  <SCORE.RESTR>
0

>  <SCORE.RESTR.CAVITY>
0

>  <SCORE.RESTR.norm>
0

>  <SCORE.SYSTEM>
0

>  <SCORE.SYSTEM.CONST>
0

>  <SCORE.SYSTEM.DIHEDRAL>
0

>  <SCORE.SYSTEM.SOLV>
0

>  <SCORE.SYSTEM.norm>
0

>  <SCORE.heavy>
12

>  <SCORE.norm>
-1.44024

>  <RMSD>
2.962

$$$$
ligand
 OpenBabel11021811503D
libRbt.so/2013.1/901 2013/11/27
 12 13  0  0  0  0  0  0  0  0999 V2000
   29.5940   16.0798   16.0655 C   0  0  0  0  0  0  0  0  0  0  0  0
   31.0509   17.7566   15.1220 C   0  0  0  0  0  0  0  0  0  0  0  0
   28.9003   14.9529   15.9546 N   0  0  0  0  0  0  0  0  0  0  0  0
   29.5960   16.7273   17.2351 N   0  0  0  0  0  0  0  0  0  0  0  0
   30.3274   16.5787   14.9728 N   0  0  0  0  0  0  0  0  0  0  0  0
   31.6885   18.1943   14.1604 O   0  0  0  0  0  0  0  0  0  0  0  0
   31.6793   20.2232   17.8110 N   0  0  0  0  0  0  0  0  0  0  0  0
   30.9249   19.6598   18.8520 C   0  0  0  0  0  0  0  0  0  0  0  0
   30.2267   18.4588   18.6258 N   0  0  0  0  0  0  0  0  0  0  0  0
   30.2705   17.8701   17.4138 C   0  0  0  0  0  0  0  0  0  0  0  0
   31.0189   18.4078   16.3577 C   0  0  0  0  0  0  0  0  0  0  0  0
   31.7210   19.5892   16.5461 C   0  0  0  0  0  0  0  0  0  0  0  0
  1  3  1  0  0  0  0
  1  4  2  0  0  0  0
  1  5  1  0  0  0  0
  2  6  2  0  0  0  0
  2 11  1  0  0  0  0
  2  5  1  0  0  0  0
  4 10  1  0  0  0  0
  7  8  2  0  0  0  0
  7 12  1  0  0  0  0
  8  9  1  0  0  0  0
  9 10  2  0  0  0  0
 10 11  1  0  0  0  0
 11 12  2  0  0  0  0
M  END
>  <CHROM.1>
30.58349903,17.85221283,16.55231081,2.14783783,-0.92577571,-2.08085024

>  <Name>
ligand

>  <RI>
0

>  <Rbt.Current_Directory>
/home/itssahil/PROJECTS/Mol_Feturizer/New_Systems/rnas/4LX6

>  <Rbt.Executable>
rbdock ($Id: //depot/dev/client3/rdock/2013.1/src/exe/rbdock.cxx#4 $)

>  <Rbt.Library>
libRbt.so (2013.1, Build901 2013/11/27)

>  <Rbt.Parameter_File>
/export/apps/rDock/src/rDock_2013.1_src/data/scripts/dock_solv.prm

>  <Rbt.Receptor>
prm/blind_docking_100.prm

>  <SCORE>
-17.3002

>  <SCORE.INTER>
-17.3002

>  <SCORE.INTER.CONST>
1

>  <SCORE.INTER.POLAR>
0

>  <SCORE.INTER.ROT>
0

>  <SCORE.INTER.SOLV>
11.1434

>  <SCORE.INTER.VDW>
-18.8479

>  <SCORE.INTER.norm>
-1.44168

>  <SCORE.INTRA>
0

>  <SCORE.INTRA.DIHEDRAL>
0

>  <SCORE.INTRA.DIHEDRAL.0>
0

>  <SCORE.INTRA.POLAR>
0

>  <SCORE.INTRA.POLAR.0>
0

>  <SCORE.INTRA.REPUL>
0

>  <SCORE.INTRA.REPUL.0>
0

>  <SCORE.INTRA.SOLV>
0

>  <SCORE.INTRA.SOLV.lig_0>
-28.9128

>  <SCORE.INTRA.VDW>
0

>  <SCORE.INTRA.VDW.0>
0

>  <SCORE.INTRA.norm>
0

>  <SCORE.RESTR>
0

>  <SCORE.RESTR.CAVITY>
0

>  <SCORE.RESTR.norm>
0

>  <SCORE.SYSTEM>
0

>  <SCORE.SYSTEM.CONST>
0

>  <SCORE.SYSTEM.DIHEDRAL>
0

>  <SCORE.SYSTEM.SOLV>
0

>  <SCORE.SYSTEM.norm>
0

>  <SCORE.heavy>
12

>  <SCORE.norm>
-1.44168

>  <RMSD>
2.963

$$$$
ligand
 OpenBabel11021811503D
libRbt.so/2013.1/901 2013/11/27
 12 13  0  0  0  0  0  0  0  0999 V2000
   29.4848   16.1252   16.0397 C   0  0  0  0  0  0  0  0  0  0  0  0
   30.9742   17.7688   15.0888 C   0  0  0  0  0  0  0  0  0  0  0  0
   28.7521   15.0233   15.9277 N   0  0  0  0  0  0  0  0  0  0  0  0
   29.5344   16.7534   17.2188 N   0  0  0  0  0  0  0  0  0  0  0  0
   30.2094   16.6175   14.9383 N   0  0  0  0  0  0  0  0  0  0  0  0
   31.6042   18.2009   14.1196 O   0  0  0  0  0  0  0  0  0  0  0  0
   31.7437   20.1702   17.8001 N   0  0  0  0  0  0  0  0  0  0  0  0
   30.9948   19.6149   18.8494 C   0  0  0  0  0  0  0  0  0  0  0  0
   30.2527   18.4409   18.6210 N   0  0  0  0  0  0  0  0  0  0  0  0
   30.2498   17.8707   17.3994 C   0  0  0  0  0  0  0  0  0  0  0  0
   30.9915   18.4008   16.3348 C   0  0  0  0  0  0  0  0  0  0  0  0
   31.7360   19.5556   16.5250 C   0  0  0  0  0  0  0  0  0  0  0  0
  1  3  1  0  0  0  0
  1  4  2  0  0  0  0
  1  5  1  0  0  0  0
  2  6  2  0  0  0  0
  2 11  1  0  0  0  0
  2  5  1  0  0  0  0
  4 10  1  0  0  0  0
  7  8  2  0  0  0  0
  7 12  1  0  0  0  0
  8  9  1  0  0  0  0
  9 10  2  0  0  0  0
 10 11  1  0  0  0  0
 11 12  2  0  0  0  0
M  END
>  <CHROM.1>
30.54258546,17.85651086,16.53079419,2.20576523,-0.90730148,-2.01918104

>  <Name>
ligand

>  <RI>
0

>  <Rbt.Current_Directory>
/home/itssahil/PROJECTS/Mol_Feturizer/New_Systems/rnas/4LX6

>  <Rbt.Executable>
rbdock ($Id: //depot/dev/client3/rdock/2013.1/src/exe/rbdock.cxx#4 $)

>  <Rbt.Library>
libRbt.so (2013.1, Build901 2013/11/27)

>  <Rbt.Parameter_File>
/export/apps/rDock/src/rDock_2013.1_src/data/scripts/dock_solv.prm

>  <Rbt.Receptor>
prm/blind_docking_100.prm

>  <SCORE>
-17.2703

>  <SCORE.INTER>
-17.2703

>  <SCORE.INTER.CONST>
1

>  <SCORE.INTER.POLAR>
0

>  <SCORE.INTER.ROT>
0

>  <SCORE.INTER.SOLV>
10.4573

>  <SCORE.INTER.VDW>
-18.5993

>  <SCORE.INTER.norm>
-1.43919

>  <SCORE.INTRA>
0

>  <SCORE.INTRA.DIHEDRAL>
0

>  <SCORE.INTRA.DIHEDRAL.0>
0

>  <SCORE.INTRA.POLAR>
0

>  <SCORE.INTRA.POLAR.0>
0

>  <SCORE.INTRA.REPUL>
0

>  <SCORE.INTRA.REPUL.0>
0

>  <SCORE.INTRA.SOLV>
0

>  <SCORE.INTRA.SOLV.lig_0>
-28.9128

>  <SCORE.INTRA.VDW>
0

>  <SCORE.INTRA.VDW.0>
0

>  <SCORE.INTRA.norm>
0

>  <SCORE.RESTR>
0

>  <SCORE.RESTR.CAVITY>
0

>  <SCORE.RESTR.norm>
0

>  <SCORE.SYSTEM>
0

>  <SCORE.SYSTEM.CONST>
0

>  <SCORE.SYSTEM.DIHEDRAL>
0

>  <SCORE.SYSTEM.SOLV>
0

>  <SCORE.SYSTEM.norm>
0

>  <SCORE.heavy>
12

>  <SCORE.norm>
-1.43919

>  <RMSD>
2.963

$$$$
ligand
 OpenBabel11021811503D
libRbt.so/2013.1/901 2013/11/27
 12 13  0  0  0  0  0  0  0  0999 V2000
   29.5868   16.0774   16.0628 C   0  0  0  0  0  0  0  0  0  0  0  0
   31.0501   17.7518   15.1253 C   0  0  0  0  0  0  0  0  0  0  0  0
   28.8911   14.9519   15.9489 N   0  0  0  0  0  0  0  0  0  0  0  0
   29.5862   16.7240   17.2329 N   0  0  0  0  0  0  0  0  0  0  0  0
   30.3248   16.5755   14.9730 N   0  0  0  0  0  0  0  0  0  0  0  0
   31.6919   18.1889   14.1661 O   0  0  0  0  0  0  0  0  0  0  0  0
   31.6745   20.2154   17.8180 N   0  0  0  0  0  0  0  0  0  0  0  0
   30.9155   19.6528   18.8561 C   0  0  0  0  0  0  0  0  0  0  0  0
   30.2157   18.4533   18.6268 N   0  0  0  0  0  0  0  0  0  0  0  0
   30.2623   17.8654   17.4146 C   0  0  0  0  0  0  0  0  0  0  0  0
   31.0153   18.4023   16.3614 C   0  0  0  0  0  0  0  0  0  0  0  0
   31.7191   19.5822   16.5529 C   0  0  0  0  0  0  0  0  0  0  0  0
  1  3  1  0  0  0  0
  1  4  2  0  0  0  0
  1  5  1  0  0  0  0
  2  6  2  0  0  0  0
  2 11  1  0  0  0  0
  2  5  1  0  0  0  0
  4 10  1  0  0  0  0
  7  8  2  0  0  0  0
  7 12  1  0  0  0  0
  8  9  1  0  0  0  0
  9 10  2  0  0  0  0
 10 11  1  0  0  0  0
 11 12  2  0  0  0  0
M  END
>  <CHROM.1>
30.57815000,17.84742939,16.55412675,2.14462808,-0.92239850,-2.08274305

>  <Name>
ligand

>  <RI>
0

>  <Rbt.Current_Directory>
/home/itssahil/PROJECTS/Mol_Feturizer/New_Systems/rnas/4LX6

>  <Rbt.Executable>
rbdock ($Id: //depot/dev/client3/rdock/2013.1/src/exe/rbdock.cxx#4 $)

>  <Rbt.Library>
libRbt.so (2013.1, Build901 2013/11/27)

>  <Rbt.Parameter_File>
/export/apps/rDock/src/rDock_2013.1_src/data/scripts/dock_solv.prm

>  <Rbt.Receptor>
prm/blind_docking_60.prm

>  <SCORE>
-17.3004

>  <SCORE.INTER>
-17.3004

>  <SCORE.INTER.CONST>
1

>  <SCORE.INTER.POLAR>
0

>  <SCORE.INTER.ROT>
0

>  <SCORE.INTER.SOLV>
11.1078

>  <SCORE.INTER.VDW>
-18.8362

>  <SCORE.INTER.norm>
-1.4417

>  <SCORE.INTRA>
0

>  <SCORE.INTRA.DIHEDRAL>
0

>  <SCORE.INTRA.DIHEDRAL.0>
0

>  <SCORE.INTRA.POLAR>
0

>  <SCORE.INTRA.POLAR.0>
0

>  <SCORE.INTRA.REPUL>
0

>  <SCORE.INTRA.REPUL.0>
0

>  <SCORE.INTRA.SOLV>
0

>  <SCORE.INTRA.SOLV.lig_0>
-28.9128

>  <SCORE.INTRA.VDW>
0

>  <SCORE.INTRA.VDW.0>
0

>  <SCORE.INTRA.norm>
0

>  <SCORE.RESTR>
0

>  <SCORE.RESTR.CAVITY>
0

>  <SCORE.RESTR.norm>
0

>  <SCORE.SYSTEM>
0

>  <SCORE.SYSTEM.CONST>
0

>  <SCORE.SYSTEM.DIHEDRAL>
0

>  <SCORE.SYSTEM.SOLV>
0

>  <SCORE.SYSTEM.norm>
0

>  <SCORE.heavy>
12

>  <SCORE.norm>
-1.4417

>  <RMSD>
2.963

$$$$
ligand
 OpenBabel11021811503D
libRbt.so/2013.1/901 2013/11/27
 12 13  0  0  0  0  0  0  0  0999 V2000
   29.5061   16.1589   16.0454 C   0  0  0  0  0  0  0  0  0  0  0  0
   30.9377   17.8631   15.1125 C   0  0  0  0  0  0  0  0  0  0  0  0
   28.8040   15.0389   15.9188 N   0  0  0  0  0  0  0  0  0  0  0  0
   29.5504   16.7648   17.2363 N   0  0  0  0  0  0  0  0  0  0  0  0
   30.2045   16.6935   14.9468 N   0  0  0  0  0  0  0  0  0  0  0  0
   31.5445   18.3322   14.1458 O   0  0  0  0  0  0  0  0  0  0  0  0
   31.6674   20.2316   17.8634 N   0  0  0  0  0  0  0  0  0  0  0  0
   30.9460   19.6344   18.9090 C   0  0  0  0  0  0  0  0  0  0  0  0
   30.2353   18.4443   18.6646 N   0  0  0  0  0  0  0  0  0  0  0  0
   30.2356   17.8985   17.4320 C   0  0  0  0  0  0  0  0  0  0  0  0
   30.9503   18.4706   16.3707 C   0  0  0  0  0  0  0  0  0  0  0  0
   31.6635   19.6423   16.5764 C   0  0  0  0  0  0  0  0  0  0  0  0
  1  3  1  0  0  0  0
  1  4  2  0  0  0  0
  1  5  1  0  0  0  0
  2  6  2  0  0  0  0
  2 11  1  0  0  0  0
  2  5  1  0  0  0  0
  4 10  1  0  0  0  0
  7  8  2  0  0  0  0
  7 12  1  0  0  0  0
  8  9  1  0  0  0  0
  9 10  2  0  0  0  0
 10 11  1  0  0  0  0
 11 12  2  0  0  0  0
M  END
>  <CHROM.1>
30.51925635,17.90987042,16.56031509,2.20123455,-0.93769736,-2.00288163

>  <Name>
ligand

>  <RI>
0

>  <Rbt.Current_Directory>
/home/itssahil/PROJECTS/Mol_Feturizer/New_Systems/rnas/4LX6

>  <Rbt.Executable>
rbdock ($Id: //depot/dev/client3/rdock/2013.1/src/exe/rbdock.cxx#4 $)

>  <Rbt.Library>
libRbt.so (2013.1, Build901 2013/11/27)

>  <Rbt.Parameter_File>
/export/apps/rDock/src/rDock_2013.1_src/data/scripts/dock_solv.prm

>  <Rbt.Receptor>
prm/blind_docking_60.prm

>  <SCORE>
-17.2441

>  <SCORE.INTER>
-17.2441

>  <SCORE.INTER.CONST>
1

>  <SCORE.INTER.POLAR>
0

>  <SCORE.INTER.ROT>
0

>  <SCORE.INTER.SOLV>
10.6146

>  <SCORE.INTER.VDW>
-18.6342

>  <SCORE.INTER.norm>
-1.43701

>  <SCORE.INTRA>
0

>  <SCORE.INTRA.DIHEDRAL>
0

>  <SCORE.INTRA.DIHEDRAL.0>
0

>  <SCORE.INTRA.POLAR>
0

>  <SCORE.INTRA.POLAR.0>
0

>  <SCORE.INTRA.REPUL>
0

>  <SCORE.INTRA.REPUL.0>
0

>  <SCORE.INTRA.SOLV>
0

>  <SCORE.INTRA.SOLV.lig_0>
-28.9128

>  <SCORE.INTRA.VDW>
0

>  <SCORE.INTRA.VDW.0>
0

>  <SCORE.INTRA.norm>
0

>  <SCORE.RESTR>
0

>  <SCORE.RESTR.CAVITY>
0

>  <SCORE.RESTR.norm>
0

>  <SCORE.SYSTEM>
0

>  <SCORE.SYSTEM.CONST>
0

>  <SCORE.SYSTEM.DIHEDRAL>
0

>  <SCORE.SYSTEM.SOLV>
0

>  <SCORE.SYSTEM.norm>
0

>  <SCORE.heavy>
12

>  <SCORE.norm>
-1.43701

>  <RMSD>
2.963

$$$$
ligand
 OpenBabel11021811503D
libRbt.so/2013.1/901 2013/11/27
 12 13  0  0  0  0  0  0  0  0999 V2000
   29.4845   16.1119   16.0321 C   0  0  0  0  0  0  0  0  0  0  0  0
   30.9775   17.7583   15.0918 C   0  0  0  0  0  0  0  0  0  0  0  0
   28.7569   15.0071   15.9155 N   0  0  0  0  0  0  0  0  0  0  0  0
   29.5202   16.7431   17.2100 N   0  0  0  0  0  0  0  0  0  0  0  0
   30.2183   16.6040   14.9366 N   0  0  0  0  0  0  0  0  0  0  0  0
   31.6155   18.1903   14.1278 O   0  0  0  0  0  0  0  0  0  0  0  0
   31.7116   20.1692   17.8045 N   0  0  0  0  0  0  0  0  0  0  0  0
   30.9543   19.6138   18.8478 C   0  0  0  0  0  0  0  0  0  0  0  0
   30.2186   18.4366   18.6150 N   0  0  0  0  0  0  0  0  0  0  0  0
   30.2299   17.8634   17.3949 C   0  0  0  0  0  0  0  0  0  0  0  0
   30.9802   18.3935   16.3363 C   0  0  0  0  0  0  0  0  0  0  0  0
   31.7187   19.5514   16.5310 C   0  0  0  0  0  0  0  0  0  0  0  0
  1  3  1  0  0  0  0
  1  4  2  0  0  0  0
  1  5  1  0  0  0  0
  2  6  2  0  0  0  0
  2 11  1  0  0  0  0
  2  5  1  0  0  0  0
  4 10  1  0  0  0  0
  7  8  2  0  0  0  0
  7 12  1  0  0  0  0
  8  9  1  0  0  0  0
  9 10  2  0  0  0  0
 10 11  1  0  0  0  0
 11 12  2  0  0  0  0
M  END
>  <CHROM.1>
30.53129672,17.84811449,16.52922287,2.18881691,-0.90612558,-2.03500899

>  <Name>
ligand

>  <RI>
0

>  <Rbt.Current_Directory>
/home/itssahil/PROJECTS/Mol_Feturizer/New_Systems/rnas/4LX6

>  <Rbt.Executable>
rbdock ($Id: //depot/dev/client3/rdock/2013.1/src/exe/rbdock.cxx#4 $)

>  <Rbt.Library>
libRbt.so (2013.1, Build901 2013/11/27)

>  <Rbt.Parameter_File>
/export/apps/rDock/src/rDock_2013.1_src/data/scripts/dock_solv.prm

>  <Rbt.Receptor>
prm/blind_docking_60.prm

>  <SCORE>
-17.2787

>  <SCORE.INTER>
-17.2787

>  <SCORE.INTER.CONST>
1

>  <SCORE.INTER.POLAR>
0

>  <SCORE.INTER.ROT>
0

>  <SCORE.INTER.SOLV>
10.4989

>  <SCORE.INTER.VDW>
-18.6187

>  <SCORE.INTER.norm>
-1.43989

>  <SCORE.INTRA>
0

>  <SCORE.INTRA.DIHEDRAL>
0

>  <SCORE.INTRA.DIHEDRAL.0>
0

>  <SCORE.INTRA.POLAR>
0

>  <SCORE.INTRA.POLAR.0>
0

>  <SCORE.INTRA.REPUL>
0

>  <SCORE.INTRA.REPUL.0>
0

>  <SCORE.INTRA.SOLV>
0

>  <SCORE.INTRA.SOLV.lig_0>
-28.9128

>  <SCORE.INTRA.VDW>
0

>  <SCORE.INTRA.VDW.0>
0

>  <SCORE.INTRA.norm>
0

>  <SCORE.RESTR>
0

>  <SCORE.RESTR.CAVITY>
0

>  <SCORE.RESTR.norm>
0

>  <SCORE.SYSTEM>
0

>  <SCORE.SYSTEM.CONST>
0

>  <SCORE.SYSTEM.DIHEDRAL>
0

>  <SCORE.SYSTEM.SOLV>
0

>  <SCORE.SYSTEM.norm>
0

>  <SCORE.heavy>
12

>  <SCORE.norm>
-1.43989

>  <RMSD>
2.963

$$$$
ligand
 OpenBabel11021811503D
libRbt.so/2013.1/901 2013/11/27
 12 13  0  0  0  0  0  0  0  0999 V2000
   29.4964   16.1055   16.0390 C   0  0  0  0  0  0  0  0  0  0  0  0
   30.9775   17.7592   15.0926 C   0  0  0  0  0  0  0  0  0  0  0  0
   28.7732   14.9975   15.9253 N   0  0  0  0  0  0  0  0  0  0  0  0
   29.5349   16.7362   17.2171 N   0  0  0  0  0  0  0  0  0  0  0  0
   30.2227   16.6015   14.9404 N   0  0  0  0  0  0  0  0  0  0  0  0
   31.6089   18.1946   14.1258 O   0  0  0  0  0  0  0  0  0  0  0  0
   31.7137   20.1717   17.8032 N   0  0  0  0  0  0  0  0  0  0  0  0
   30.9639   19.6123   18.8498 C   0  0  0  0  0  0  0  0  0  0  0  0
   30.2324   18.4321   18.6197 N   0  0  0  0  0  0  0  0  0  0  0  0
   30.2404   17.8596   17.3993 C   0  0  0  0  0  0  0  0  0  0  0  0
   30.9833   18.3936   16.3374 C   0  0  0  0  0  0  0  0  0  0  0  0
   31.7175   19.5547   16.5293 C   0  0  0  0  0  0  0  0  0  0  0  0
  1  3  1  0  0  0  0
  1  4  2  0  0  0  0
  1  5  1  0  0  0  0
  2  6  2  0  0  0  0
  2 11  1  0  0  0  0
  2  5  1  0  0  0  0
  4 10  1  0  0  0  0
  7  8  2  0  0  0  0
  7 12  1  0  0  0  0
  8  9  1  0  0  0  0
  9 10  2  0  0  0  0
 10 11  1  0  0  0  0
 11 12  2  0  0  0  0
M  END
>  <CHROM.1>
30.53772997,17.84611749,16.53218459,2.19252432,-0.91227224,-2.03150953

>  <Name>
ligand

>  <RI>
0

>  <Rbt.Current_Directory>
/home/itssahil/PROJECTS/Mol_Feturizer/New_Systems/rnas/4LX6

>  <Rbt.Executable>
rbdock ($Id: //depot/dev/client3/rdock/2013.1/src/exe/rbdock.cxx#4 $)

>  <Rbt.Library>
libRbt.so (2013.1, Build901 2013/11/27)

>  <Rbt.Parameter_File>
/export/apps/rDock/src/rDock_2013.1_src/data/scripts/dock_solv.prm

>  <Rbt.Receptor>
prm/blind_docking_80.prm

>  <SCORE>
-17.2751

>  <SCORE.INTER>
-17.2751

>  <SCORE.INTER.CONST>
1

>  <SCORE.INTER.POLAR>
0

>  <SCORE.INTER.ROT>
0

>  <SCORE.INTER.SOLV>
10.5746

>  <SCORE.INTER.VDW>
-18.6416

>  <SCORE.INTER.norm>
-1.43959

>  <SCORE.INTRA>
0

>  <SCORE.INTRA.DIHEDRAL>
0

>  <SCORE.INTRA.DIHEDRAL.0>
0

>  <SCORE.INTRA.POLAR>
0

>  <SCORE.INTRA.POLAR.0>
0

>  <SCORE.INTRA.REPUL>
0

>  <SCORE.INTRA.REPUL.0>
0

>  <SCORE.INTRA.SOLV>
0

>  <SCORE.INTRA.SOLV.lig_0>
-28.9128

>  <SCORE.INTRA.VDW>
0

>  <SCORE.INTRA.VDW.0>
0

>  <SCORE.INTRA.norm>
0

>  <SCORE.RESTR>
0

>  <SCORE.RESTR.CAVITY>
0

>  <SCORE.RESTR.norm>
0

>  <SCORE.SYSTEM>
0

>  <SCORE.SYSTEM.CONST>
0

>  <SCORE.SYSTEM.DIHEDRAL>
0

>  <SCORE.SYSTEM.SOLV>
0

>  <SCORE.SYSTEM.norm>
0

>  <SCORE.heavy>
12

>  <SCORE.norm>
-1.43959

>  <RMSD>
2.963

$$$$
ligand
 OpenBabel11021811503D
libRbt.so/2013.1/901 2013/11/27
 12 13  0  0  0  0  0  0  0  0999 V2000
   29.5055   16.0891   16.0371 C   0  0  0  0  0  0  0  0  0  0  0  0
   30.9770   17.7510   15.0900 C   0  0  0  0  0  0  0  0  0  0  0  0
   28.7919   14.9748   15.9249 N   0  0  0  0  0  0  0  0  0  0  0  0
   29.5339   16.7250   17.2127 N   0  0  0  0  0  0  0  0  0  0  0  0
   30.2324   16.5866   14.9395 N   0  0  0  0  0  0  0  0  0  0  0  0
   31.6088   18.1876   14.1240 O   0  0  0  0  0  0  0  0  0  0  0  0
   31.6820   20.1807   17.7937 N   0  0  0  0  0  0  0  0  0  0  0  0
   30.9324   19.6195   18.8394 C   0  0  0  0  0  0  0  0  0  0  0  0
   30.2116   18.4323   18.6112 N   0  0  0  0  0  0  0  0  0  0  0  0
   30.2294   17.8549   17.3932 C   0  0  0  0  0  0  0  0  0  0  0  0
   30.9723   18.3906   16.3322 C   0  0  0  0  0  0  0  0  0  0  0  0
   31.6962   19.5585   16.5223 C   0  0  0  0  0  0  0  0  0  0  0  0
  1  3  1  0  0  0  0
  1  4  2  0  0  0  0
  1  5  1  0  0  0  0
  2  6  2  0  0  0  0
  2 11  1  0  0  0  0
  2  5  1  0  0  0  0
  4 10  1  0  0  0  0
  7  8  2  0  0  0  0
  7 12  1  0  0  0  0
  8  9  1  0  0  0  0
  9 10  2  0  0  0  0
 10 11  1  0  0  0  0
 11 12  2  0  0  0  0
M  END
>  <CHROM.1>
30.53048992,17.84028840,16.52739919,2.18032680,-0.91770605,-2.04530392

>  <Name>
ligand

>  <RI>
0

>  <Rbt.Current_Directory>
/home/itssahil/PROJECTS/Mol_Feturizer/New_Systems/rnas/4LX6

>  <Rbt.Executable>
rbdock ($Id: //depot/dev/client3/rdock/2013.1/src/exe/rbdock.cxx#4 $)

>  <Rbt.Library>
libRbt.so (2013.1, Build901 2013/11/27)

>  <Rbt.Parameter_File>
/export/apps/rDock/src/rDock_2013.1_src/data/scripts/dock_solv.prm

>  <Rbt.Receptor>
prm/pocket_docking_3.prm

>  <SCORE>
-17.3097

>  <SCORE.INTER>
-17.3097

>  <SCORE.INTER.CONST>
1

>  <SCORE.INTER.POLAR>
0

>  <SCORE.INTER.ROT>
0

>  <SCORE.INTER.SOLV>
10.6812

>  <SCORE.INTER.VDW>
-18.7002

>  <SCORE.INTER.norm>
-1.44247

>  <SCORE.INTRA>
0

>  <SCORE.INTRA.DIHEDRAL>
0

>  <SCORE.INTRA.DIHEDRAL.0>
0

>  <SCORE.INTRA.POLAR>
0

>  <SCORE.INTRA.POLAR.0>
0

>  <SCORE.INTRA.REPUL>
0

>  <SCORE.INTRA.REPUL.0>
0

>  <SCORE.INTRA.SOLV>
0

>  <SCORE.INTRA.SOLV.lig_0>
-28.9128

>  <SCORE.INTRA.VDW>
0

>  <SCORE.INTRA.VDW.0>
0

>  <SCORE.INTRA.norm>
0

>  <SCORE.RESTR>
0

>  <SCORE.RESTR.CAVITY>
0

>  <SCORE.RESTR.norm>
0

>  <SCORE.SYSTEM>
0

>  <SCORE.SYSTEM.CONST>
0

>  <SCORE.SYSTEM.DIHEDRAL>
0

>  <SCORE.SYSTEM.SOLV>
0

>  <SCORE.SYSTEM.norm>
0

>  <SCORE.heavy>
12

>  <SCORE.norm>
-1.44247

>  <RMSD>
2.963

$$$$
ligand
 OpenBabel11021811503D
libRbt.so/2013.1/901 2013/11/27
 12 13  0  0  0  0  0  0  0  0999 V2000
   29.5068   16.0898   16.0432 C   0  0  0  0  0  0  0  0  0  0  0  0
   30.9428   17.7739   15.0810 C   0  0  0  0  0  0  0  0  0  0  0  0
   28.8046   14.9677   15.9368 N   0  0  0  0  0  0  0  0  0  0  0  0
   29.5470   16.7199   17.2215 N   0  0  0  0  0  0  0  0  0  0  0  0
   30.2096   16.6015   14.9364 N   0  0  0  0  0  0  0  0  0  0  0  0
   31.5535   18.2229   14.1071 O   0  0  0  0  0  0  0  0  0  0  0  0
   31.6635   20.1978   17.7856 N   0  0  0  0  0  0  0  0  0  0  0  0
   30.9379   19.6224   18.8404 C   0  0  0  0  0  0  0  0  0  0  0  0
   30.2274   18.4279   18.6178 N   0  0  0  0  0  0  0  0  0  0  0  0
   30.2320   17.8571   17.3966 C   0  0  0  0  0  0  0  0  0  0  0  0
   30.9511   18.4070   16.3265 C   0  0  0  0  0  0  0  0  0  0  0  0
   31.6641   19.5824   16.5109 C   0  0  0  0  0  0  0  0  0  0  0  0
  1  3  1  0  0  0  0
  1  4  2  0  0  0  0
  1  5  1  0  0  0  0
  2  6  2  0  0  0  0
  2 11  1  0  0  0  0
  2  5  1  0  0  0  0
  4 10  1  0  0  0  0
  7  8  2  0  0  0  0
  7 12  1  0  0  0  0
  8  9  1  0  0  0  0
  9 10  2  0  0  0  0
 10 11  1  0  0  0  0
 11 12  2  0  0  0  0
M  END
>  <CHROM.1>
30.51899243,17.85044995,16.52591084,2.19590062,-0.93564462,-2.02762650

>  <Name>
ligand

>  <RI>
0

>  <Rbt.Current_Directory>
/home/itssahil/PROJECTS/Mol_Feturizer/New_Systems/rnas/4LX6

>  <Rbt.Executable>
rbdock ($Id: //depot/dev/client3/rdock/2013.1/src/exe/rbdock.cxx#4 $)

>  <Rbt.Library>
libRbt.so (2013.1, Build901 2013/11/27)

>  <Rbt.Parameter_File>
/export/apps/rDock/src/rDock_2013.1_src/data/scripts/dock_solv.prm

>  <Rbt.Receptor>
prm/pocket_docking_3.prm

>  <SCORE>
-17.2983

>  <SCORE.INTER>
-17.2983

>  <SCORE.INTER.CONST>
1

>  <SCORE.INTER.POLAR>
0

>  <SCORE.INTER.ROT>
0

>  <SCORE.INTER.SOLV>
10.7264

>  <SCORE.INTER.VDW>
-18.7076

>  <SCORE.INTER.norm>
-1.44152

>  <SCORE.INTRA>
0

>  <SCORE.INTRA.DIHEDRAL>
0

>  <SCORE.INTRA.DIHEDRAL.0>
0

>  <SCORE.INTRA.POLAR>
0

>  <SCORE.INTRA.POLAR.0>
0

>  <SCORE.INTRA.REPUL>
0

>  <SCORE.INTRA.REPUL.0>
0

>  <SCORE.INTRA.SOLV>
0

>  <SCORE.INTRA.SOLV.lig_0>
-28.9128

>  <SCORE.INTRA.VDW>
0

>  <SCORE.INTRA.VDW.0>
0

>  <SCORE.INTRA.norm>
0

>  <SCORE.RESTR>
0

>  <SCORE.RESTR.CAVITY>
0

>  <SCORE.RESTR.norm>
0

>  <SCORE.SYSTEM>
0

>  <SCORE.SYSTEM.CONST>
0

>  <SCORE.SYSTEM.DIHEDRAL>
0

>  <SCORE.SYSTEM.SOLV>
0

>  <SCORE.SYSTEM.norm>
0

>  <SCORE.heavy>
12

>  <SCORE.norm>
-1.44152

>  <RMSD>
2.963

$$$$
ligand
 OpenBabel11021811503D
libRbt.so/2013.1/901 2013/11/27
 12 13  0  0  0  0  0  0  0  0999 V2000
   29.5055   16.0780   16.0399 C   0  0  0  0  0  0  0  0  0  0  0  0
   30.9593   17.7480   15.0799 C   0  0  0  0  0  0  0  0  0  0  0  0
   28.7973   14.9597   15.9341 N   0  0  0  0  0  0  0  0  0  0  0  0
   29.5404   16.7143   17.2152 N   0  0  0  0  0  0  0  0  0  0  0  0
   30.2200   16.5794   14.9360 N   0  0  0  0  0  0  0  0  0  0  0  0
   31.5803   18.1880   14.1084 O   0  0  0  0  0  0  0  0  0  0  0  0
   31.6737   20.1823   17.7769 N   0  0  0  0  0  0  0  0  0  0  0  0
   30.9364   19.6171   18.8292 C   0  0  0  0  0  0  0  0  0  0  0  0
   30.2204   18.4257   18.6074 N   0  0  0  0  0  0  0  0  0  0  0  0
   30.2310   17.8482   17.3894 C   0  0  0  0  0  0  0  0  0  0  0  0
   30.9617   18.3879   16.3220 C   0  0  0  0  0  0  0  0  0  0  0  0
   31.6805   19.5599   16.5056 C   0  0  0  0  0  0  0  0  0  0  0  0
  1  3  1  0  0  0  0
  1  4  2  0  0  0  0
  1  5  1  0  0  0  0
  2  6  2  0  0  0  0
  2 11  1  0  0  0  0
  2  5  1  0  0  0  0
  4 10  1  0  0  0  0
  7  8  2  0  0  0  0
  7 12  1  0  0  0  0
  8  9  1  0  0  0  0
  9 10  2  0  0  0  0
 10 11  1  0  0  0  0
 11 12  2  0  0  0  0
M  END
>  <CHROM.1>
30.52468305,17.83509611,16.52103899,2.18877725,-0.92669500,-2.03877558

>  <Name>
ligand

>  <RI>
0

>  <Rbt.Current_Directory>
/home/itssahil/PROJECTS/Mol_Feturizer/New_Systems/rnas/4LX6

>  <Rbt.Executable>
rbdock ($Id: //depot/dev/client3/rdock/2013.1/src/exe/rbdock.cxx#4 $)

>  <Rbt.Library>
libRbt.so (2013.1, Build901 2013/11/27)

>  <Rbt.Parameter_File>
/export/apps/rDock/src/rDock_2013.1_src/data/scripts/dock_solv.prm

>  <Rbt.Receptor>
prm/pocket_docking_4.prm

>  <SCORE>
-17.3127

>  <SCORE.INTER>
-17.3127

>  <SCORE.INTER.CONST>
1

>  <SCORE.INTER.POLAR>
0

>  <SCORE.INTER.ROT>
0

>  <SCORE.INTER.SOLV>
10.7182

>  <SCORE.INTER.VDW>
-18.7145

>  <SCORE.INTER.norm>
-1.44272

>  <SCORE.INTRA>
0

>  <SCORE.INTRA.DIHEDRAL>
0

>  <SCORE.INTRA.DIHEDRAL.0>
0

>  <SCORE.INTRA.POLAR>
0

>  <SCORE.INTRA.POLAR.0>
0

>  <SCORE.INTRA.REPUL>
0

>  <SCORE.INTRA.REPUL.0>
0

>  <SCORE.INTRA.SOLV>
0

>  <SCORE.INTRA.SOLV.lig_0>
-28.9128

>  <SCORE.INTRA.VDW>
0

>  <SCORE.INTRA.VDW.0>
0

>  <SCORE.INTRA.norm>
0

>  <SCORE.RESTR>
0

>  <SCORE.RESTR.CAVITY>
0

>  <SCORE.RESTR.norm>
0

>  <SCORE.SYSTEM>
0

>  <SCORE.SYSTEM.CONST>
0

>  <SCORE.SYSTEM.DIHEDRAL>
0

>  <SCORE.SYSTEM.SOLV>
0

>  <SCORE.SYSTEM.norm>
0

>  <SCORE.heavy>
12

>  <SCORE.norm>
-1.44272

>  <RMSD>
2.963

$$$$
ligand
 OpenBabel11021811503D
libRbt.so/2013.1/901 2013/11/27
 12 13  0  0  0  0  0  0  0  0999 V2000
   29.5054   16.1154   16.0418 C   0  0  0  0  0  0  0  0  0  0  0  0
   30.9476   17.8030   15.0953 C   0  0  0  0  0  0  0  0  0  0  0  0
   28.7998   14.9964   15.9252 N   0  0  0  0  0  0  0  0  0  0  0  0
   29.5463   16.7354   17.2255 N   0  0  0  0  0  0  0  0  0  0  0  0
   30.2109   16.6342   14.9401 N   0  0  0  0  0  0  0  0  0  0  0  0
   31.5607   18.2583   14.1259 O   0  0  0  0  0  0  0  0  0  0  0  0
   31.6729   20.2019   17.8209 N   0  0  0  0  0  0  0  0  0  0  0  0
   30.9445   19.6199   18.8702 C   0  0  0  0  0  0  0  0  0  0  0  0
   30.2305   18.4295   18.6367 N   0  0  0  0  0  0  0  0  0  0  0  0
   30.2346   17.8689   17.4108 C   0  0  0  0  0  0  0  0  0  0  0  0
   30.9565   18.4256   16.3461 C   0  0  0  0  0  0  0  0  0  0  0  0
   31.6730   19.5971   16.5411 C   0  0  0  0  0  0  0  0  0  0  0  0
  1  3  1  0  0  0  0
  1  4  2  0  0  0  0
  1  5  1  0  0  0  0
  2  6  2  0  0  0  0
  2 11  1  0  0  0  0
  2  5  1  0  0  0  0
  4 10  1  0  0  0  0
  7  8  2  0  0  0  0
  7 12  1  0  0  0  0
  8  9  1  0  0  0  0
  9 10  2  0  0  0  0
 10 11  1  0  0  0  0
 11 12  2  0  0  0  0
M  END
>  <CHROM.1>
30.52249122,17.86875041,16.54038157,2.19660764,-0.93238291,-2.01864463

>  <Name>
ligand

>  <RI>
0

>  <Rbt.Current_Directory>
/home/itssahil/PROJECTS/Mol_Feturizer/New_Systems/rnas/4LX6

>  <Rbt.Executable>
rbdock ($Id: //depot/dev/client3/rdock/2013.1/src/exe/rbdock.cxx#4 $)

>  <Rbt.Library>
libRbt.so (2013.1, Build901 2013/11/27)

>  <Rbt.Parameter_File>
/export/apps/rDock/src/rDock_2013.1_src/data/scripts/dock_solv.prm

>  <Rbt.Receptor>
prm/pocket_docking_5.prm

>  <SCORE>
-17.2873

>  <SCORE.INTER>
-17.2873

>  <SCORE.INTER.CONST>
1

>  <SCORE.INTER.POLAR>
0

>  <SCORE.INTER.ROT>
0

>  <SCORE.INTER.SOLV>
10.6581

>  <SCORE.INTER.VDW>
-18.6775

>  <SCORE.INTER.norm>
-1.44061

>  <SCORE.INTRA>
0

>  <SCORE.INTRA.DIHEDRAL>
0

>  <SCORE.INTRA.DIHEDRAL.0>
0

>  <SCORE.INTRA.POLAR>
0

>  <SCORE.INTRA.POLAR.0>
0

>  <SCORE.INTRA.REPUL>
0

>  <SCORE.INTRA.REPUL.0>
0

>  <SCORE.INTRA.SOLV>
0

>  <SCORE.INTRA.SOLV.lig_0>
-28.9128

>  <SCORE.INTRA.VDW>
0

>  <SCORE.INTRA.VDW.0>
0

>  <SCORE.INTRA.norm>
0

>  <SCORE.RESTR>
0

>  <SCORE.RESTR.CAVITY>
0

>  <SCORE.RESTR.norm>
0

>  <SCORE.SYSTEM>
0

>  <SCORE.SYSTEM.CONST>
0

>  <SCORE.SYSTEM.DIHEDRAL>
0

>  <SCORE.SYSTEM.SOLV>
0

>  <SCORE.SYSTEM.norm>
0

>  <SCORE.heavy>
12

>  <SCORE.norm>
-1.44061

>  <RMSD>
2.963

$$$$
ligand
 OpenBabel11021811503D
libRbt.so/2013.1/901 2013/11/27
 12 13  0  0  0  0  0  0  0  0999 V2000
   29.5083   16.0925   16.0362 C   0  0  0  0  0  0  0  0  0  0  0  0
   30.9976   17.7451   15.1009 C   0  0  0  0  0  0  0  0  0  0  0  0
   28.7889   14.9825   15.9184 N   0  0  0  0  0  0  0  0  0  0  0  0
   29.5309   16.7285   17.2119 N   0  0  0  0  0  0  0  0  0  0  0  0
   30.2472   16.5852   14.9445 N   0  0  0  0  0  0  0  0  0  0  0  0
   31.6401   18.1776   14.1400 O   0  0  0  0  0  0  0  0  0  0  0  0
   31.6952   20.1711   17.8097 N   0  0  0  0  0  0  0  0  0  0  0  0
   30.9337   19.6148   18.8494 C   0  0  0  0  0  0  0  0  0  0  0  0
   30.2075   18.4319   18.6155 N   0  0  0  0  0  0  0  0  0  0  0  0
   30.2318   17.8541   17.3978 C   0  0  0  0  0  0  0  0  0  0  0  0
   30.9867   18.3850   16.3429 C   0  0  0  0  0  0  0  0  0  0  0  0
   31.7161   19.5485   16.5387 C   0  0  0  0  0  0  0  0  0  0  0  0
  1  3  1  0  0  0  0
  1  4  2  0  0  0  0
  1  5  1  0  0  0  0
  2  6  2  0  0  0  0
  2 11  1  0  0  0  0
  2  5  1  0  0  0  0
  4 10  1  0  0  0  0
  7  8  2  0  0  0  0
  7 12  1  0  0  0  0
  8  9  1  0  0  0  0
  9 10  2  0  0  0  0
 10 11  1  0  0  0  0
 11 12  2  0  0  0  0
M  END
>  <CHROM.1>
30.53990198,17.83745181,16.53453735,2.17297496,-0.90851137,-2.05136064

>  <Name>
ligand

>  <RI>
0

>  <Rbt.Current_Directory>
/home/itssahil/PROJECTS/Mol_Feturizer/New_Systems/rnas/4LX6

>  <Rbt.Executable>
rbdock ($Id: //depot/dev/client3/rdock/2013.1/src/exe/rbdock.cxx#4 $)

>  <Rbt.Library>
libRbt.so (2013.1, Build901 2013/11/27)

>  <Rbt.Parameter_File>
/export/apps/rDock/src/rDock_2013.1_src/data/scripts/dock_solv.prm

>  <Rbt.Receptor>
prm/pocket_docking_5.prm

>  <SCORE>
-17.2972

>  <SCORE.INTER>
-17.2972

>  <SCORE.INTER.CONST>
1

>  <SCORE.INTER.POLAR>
0

>  <SCORE.INTER.ROT>
0

>  <SCORE.INTER.SOLV>
10.6616

>  <SCORE.INTER.VDW>
-18.6853

>  <SCORE.INTER.norm>
-1.44143

>  <SCORE.INTRA>
0

>  <SCORE.INTRA.DIHEDRAL>
0

>  <SCORE.INTRA.DIHEDRAL.0>
0

>  <SCORE.INTRA.POLAR>
0

>  <SCORE.INTRA.POLAR.0>
0

>  <SCORE.INTRA.REPUL>
0

>  <SCORE.INTRA.REPUL.0>
0

>  <SCORE.INTRA.SOLV>
0

>  <SCORE.INTRA.SOLV.lig_0>
-28.9128

>  <SCORE.INTRA.VDW>
0

>  <SCORE.INTRA.VDW.0>
0

>  <SCORE.INTRA.norm>
0

>  <SCORE.RESTR>
0

>  <SCORE.RESTR.CAVITY>
0

>  <SCORE.RESTR.norm>
0

>  <SCORE.SYSTEM>
0

>  <SCORE.SYSTEM.CONST>
0

>  <SCORE.SYSTEM.DIHEDRAL>
0

>  <SCORE.SYSTEM.SOLV>
0

>  <SCORE.SYSTEM.norm>
0

>  <SCORE.heavy>
12

>  <SCORE.norm>
-1.44143

>  <RMSD>
2.963

$$$$
ligand
 OpenBabel11021811503D
libRbt.so/2013.1/901 2013/11/27
 12 13  0  0  0  0  0  0  0  0999 V2000
   29.5023   16.0937   16.0347 C   0  0  0  0  0  0  0  0  0  0  0  0
   30.9810   17.7524   15.0933 C   0  0  0  0  0  0  0  0  0  0  0  0
   28.7856   14.9817   15.9193 N   0  0  0  0  0  0  0  0  0  0  0  0
   29.5299   16.7279   17.2112 N   0  0  0  0  0  0  0  0  0  0  0  0
   30.2332   16.5904   14.9394 N   0  0  0  0  0  0  0  0  0  0  0  0
   31.6164   18.1883   14.1293 O   0  0  0  0  0  0  0  0  0  0  0  0
   31.6871   20.1762   17.8018 N   0  0  0  0  0  0  0  0  0  0  0  0
   30.9334   19.6159   18.8450 C   0  0  0  0  0  0  0  0  0  0  0  0
   30.2095   18.4312   18.6136 N   0  0  0  0  0  0  0  0  0  0  0  0
   30.2284   17.8554   17.3948 C   0  0  0  0  0  0  0  0  0  0  0  0
   30.9754   18.3903   16.3363 C   0  0  0  0  0  0  0  0  0  0  0  0
   31.7023   19.5557   16.5296 C   0  0  0  0  0  0  0  0  0  0  0  0
  1  3  1  0  0  0  0
  1  4  2  0  0  0  0
  1  5  1  0  0  0  0
  2  6  2  0  0  0  0
  2 11  1  0  0  0  0
  2  5  1  0  0  0  0
  4 10  1  0  0  0  0
  7  8  2  0  0  0  0
  7 12  1  0  0  0  0
  8  9  1  0  0  0  0
  9 10  2  0  0  0  0
 10 11  1  0  0  0  0
 11 12  2  0  0  0  0
M  END
>  <CHROM.1>
30.53143386,17.84105794,16.52969253,2.17922032,-0.91395293,-2.04483267

>  <Name>
ligand

>  <RI>
0

>  <Rbt.Current_Directory>
/home/itssahil/PROJECTS/Mol_Feturizer/New_Systems/rnas/4LX6

>  <Rbt.Executable>
rbdock ($Id: //depot/dev/client3/rdock/2013.1/src/exe/rbdock.cxx#4 $)

>  <Rbt.Library>
libRbt.so (2013.1, Build901 2013/11/27)

>  <Rbt.Parameter_File>
/export/apps/rDock/src/rDock_2013.1_src/data/scripts/dock_solv.prm

>  <Rbt.Receptor>
prm/pocket_docking_5.prm

>  <SCORE>
-17.3098

>  <SCORE.INTER>
-17.3098

>  <SCORE.INTER.CONST>
1

>  <SCORE.INTER.POLAR>
0

>  <SCORE.INTER.ROT>
0

>  <SCORE.INTER.SOLV>
10.6459

>  <SCORE.INTER.VDW>
-18.6885

>  <SCORE.INTER.norm>
-1.44248

>  <SCORE.INTRA>
0

>  <SCORE.INTRA.DIHEDRAL>
0

>  <SCORE.INTRA.DIHEDRAL.0>
0

>  <SCORE.INTRA.POLAR>
0

>  <SCORE.INTRA.POLAR.0>
0

>  <SCORE.INTRA.REPUL>
0

>  <SCORE.INTRA.REPUL.0>
0

>  <SCORE.INTRA.SOLV>
0

>  <SCORE.INTRA.SOLV.lig_0>
-28.9128

>  <SCORE.INTRA.VDW>
0

>  <SCORE.INTRA.VDW.0>
0

>  <SCORE.INTRA.norm>
0

>  <SCORE.RESTR>
0

>  <SCORE.RESTR.CAVITY>
0

>  <SCORE.RESTR.norm>
0

>  <SCORE.SYSTEM>
0

>  <SCORE.SYSTEM.CONST>
0

>  <SCORE.SYSTEM.DIHEDRAL>
0

>  <SCORE.SYSTEM.SOLV>
0

>  <SCORE.SYSTEM.norm>
0

>  <SCORE.heavy>
12

>  <SCORE.norm>
-1.44248

>  <RMSD>
2.963

$$$$
ligand
 OpenBabel11021811503D
libRbt.so/2013.1/901 2013/11/27
 12 13  0  0  0  0  0  0  0  0999 V2000
   29.4934   16.0979   16.0328 C   0  0  0  0  0  0  0  0  0  0  0  0
   30.9810   17.7503   15.0942 C   0  0  0  0  0  0  0  0  0  0  0  0
   28.7729   14.9886   15.9163 N   0  0  0  0  0  0  0  0  0  0  0  0
   29.5200   16.7330   17.2089 N   0  0  0  0  0  0  0  0  0  0  0  0
   30.2293   16.5910   14.9392 N   0  0  0  0  0  0  0  0  0  0  0  0
   31.6208   18.1831   14.1318 O   0  0  0  0  0  0  0  0  0  0  0  0
   31.6884   20.1737   17.8028 N   0  0  0  0  0  0  0  0  0  0  0  0
   30.9297   19.6171   18.8443 C   0  0  0  0  0  0  0  0  0  0  0  0
   30.2020   18.4349   18.6118 N   0  0  0  0  0  0  0  0  0  0  0  0
   30.2222   17.8581   17.3935 C   0  0  0  0  0  0  0  0  0  0  0  0
   30.9743   18.3892   16.3367 C   0  0  0  0  0  0  0  0  0  0  0  0
   31.7050   19.5521   16.5312 C   0  0  0  0  0  0  0  0  0  0  0  0
  1  3  1  0  0  0  0
  1  4  2  0  0  0  0
  1  5  1  0  0  0  0
  2  6  2  0  0  0  0
  2 11  1  0  0  0  0
  2  5  1  0  0  0  0
  4 10  1  0  0  0  0
  7  8  2  0  0  0  0
  7 12  1  0  0  0  0
  8  9  1  0  0  0  0
  9 10  2  0  0  0  0
 10 11  1  0  0  0  0
 11 12  2  0  0  0  0
M  END
>  <CHROM.1>
30.52769242,17.84184275,16.52930412,2.17786906,-0.90930500,-2.04672549

>  <Name>
ligand

>  <RI>
0

>  <Rbt.Current_Directory>
/home/itssahil/PROJECTS/Mol_Feturizer/New_Systems/rnas/4LX6

>  <Rbt.Executable>
rbdock ($Id: //depot/dev/client3/rdock/2013.1/src/exe/rbdock.cxx#4 $)

>  <Rbt.Library>
libRbt.so (2013.1, Build901 2013/11/27)

>  <Rbt.Parameter_File>
/export/apps/rDock/src/rDock_2013.1_src/data/scripts/dock_solv.prm

>  <Rbt.Receptor>
prm/pocket_docking_5.prm

>  <SCORE>
-17.3065

>  <SCORE.INTER>
-17.3065

>  <SCORE.INTER.CONST>
1

>  <SCORE.INTER.POLAR>
0

>  <SCORE.INTER.ROT>
0

>  <SCORE.INTER.SOLV>
10.589

>  <SCORE.INTER.VDW>
-18.6673

>  <SCORE.INTER.norm>
-1.44221

>  <SCORE.INTRA>
0

>  <SCORE.INTRA.DIHEDRAL>
0

>  <SCORE.INTRA.DIHEDRAL.0>
0

>  <SCORE.INTRA.POLAR>
0

>  <SCORE.INTRA.POLAR.0>
0

>  <SCORE.INTRA.REPUL>
0

>  <SCORE.INTRA.REPUL.0>
0

>  <SCORE.INTRA.SOLV>
0

>  <SCORE.INTRA.SOLV.lig_0>
-28.9128

>  <SCORE.INTRA.VDW>
0

>  <SCORE.INTRA.VDW.0>
0

>  <SCORE.INTRA.norm>
0

>  <SCORE.RESTR>
0

>  <SCORE.RESTR.CAVITY>
0

>  <SCORE.RESTR.norm>
0

>  <SCORE.SYSTEM>
0

>  <SCORE.SYSTEM.CONST>
0

>  <SCORE.SYSTEM.DIHEDRAL>
0

>  <SCORE.SYSTEM.SOLV>
0

>  <SCORE.SYSTEM.norm>
0

>  <SCORE.heavy>
12

>  <SCORE.norm>
-1.44221

>  <RMSD>
2.963

$$$$
ligand
 OpenBabel11021811503D
libRbt.so/2013.1/901 2013/11/27
 12 13  0  0  0  0  0  0  0  0999 V2000
   29.5095   16.0803   16.0424 C   0  0  0  0  0  0  0  0  0  0  0  0
   30.9637   17.7509   15.0840 C   0  0  0  0  0  0  0  0  0  0  0  0
   28.8008   14.9624   15.9354 N   0  0  0  0  0  0  0  0  0  0  0  0
   29.5448   16.7153   17.2183 N   0  0  0  0  0  0  0  0  0  0  0  0
   30.2240   16.5827   14.9388 N   0  0  0  0  0  0  0  0  0  0  0  0
   31.5847   18.1917   14.1129 O   0  0  0  0  0  0  0  0  0  0  0  0
   31.6794   20.1819   17.7836 N   0  0  0  0  0  0  0  0  0  0  0  0
   30.9421   19.6158   18.8353 C   0  0  0  0  0  0  0  0  0  0  0  0
   30.2256   18.4249   18.6124 N   0  0  0  0  0  0  0  0  0  0  0  0
   30.2358   17.8487   17.3937 C   0  0  0  0  0  0  0  0  0  0  0  0
   30.9666   18.3893   16.3268 C   0  0  0  0  0  0  0  0  0  0  0  0
   31.6858   19.5609   16.5116 C   0  0  0  0  0  0  0  0  0  0  0  0
  1  3  1  0  0  0  0
  1  4  2  0  0  0  0
  1  5  1  0  0  0  0
  2  6  2  0  0  0  0
  2 11  1  0  0  0  0
  2  5  1  0  0  0  0
  4 10  1  0  0  0  0
  7  8  2  0  0  0  0
  7 12  1  0  0  0  0
  8  9  1  0  0  0  0
  9 10  2  0  0  0  0
 10 11  1  0  0  0  0
 11 12  2  0  0  0  0
M  END
>  <CHROM.1>
30.52936271,17.83650395,16.52527679,2.18927186,-0.92643170,-2.03726709

>  <Name>
ligand

>  <RI>
0

>  <Rbt.Current_Directory>
/home/itssahil/PROJECTS/Mol_Feturizer/New_Systems/rnas/4LX6

>  <Rbt.Executable>
rbdock ($Id: //depot/dev/client3/rdock/2013.1/src/exe/rbdock.cxx#4 $)

>  <Rbt.Library>
libRbt.so (2013.1, Build901 2013/11/27)

>  <Rbt.Parameter_File>
/export/apps/rDock/src/rDock_2013.1_src/data/scripts/dock_solv.prm

>  <Rbt.Receptor>
prm/pocket_docking_6.prm

>  <SCORE>
-17.3122

>  <SCORE.INTER>
-17.3122

>  <SCORE.INTER.CONST>
1

>  <SCORE.INTER.POLAR>
0

>  <SCORE.INTER.ROT>
0

>  <SCORE.INTER.SOLV>
10.7275

>  <SCORE.INTER.VDW>
-18.7173

>  <SCORE.INTER.norm>
-1.44268

>  <SCORE.INTRA>
0

>  <SCORE.INTRA.DIHEDRAL>
0

>  <SCORE.INTRA.DIHEDRAL.0>
0

>  <SCORE.INTRA.POLAR>
0

>  <SCORE.INTRA.POLAR.0>
0

>  <SCORE.INTRA.REPUL>
0

>  <SCORE.INTRA.REPUL.0>
0

>  <SCORE.INTRA.SOLV>
0

>  <SCORE.INTRA.SOLV.lig_0>
-28.9128

>  <SCORE.INTRA.VDW>
0

>  <SCORE.INTRA.VDW.0>
0

>  <SCORE.INTRA.norm>
0

>  <SCORE.RESTR>
0

>  <SCORE.RESTR.CAVITY>
0

>  <SCORE.RESTR.norm>
0

>  <SCORE.SYSTEM>
0

>  <SCORE.SYSTEM.CONST>
0

>  <SCORE.SYSTEM.DIHEDRAL>
0

>  <SCORE.SYSTEM.SOLV>
0

>  <SCORE.SYSTEM.norm>
0

>  <SCORE.heavy>
12

>  <SCORE.norm>
-1.44268

>  <RMSD>
2.963

$$$$
ligand
 OpenBabel11021811503D
libRbt.so/2013.1/901 2013/11/27
 12 13  0  0  0  0  0  0  0  0999 V2000
   29.5066   16.0894   16.0416 C   0  0  0  0  0  0  0  0  0  0  0  0
   30.9438   17.7733   15.0810 C   0  0  0  0  0  0  0  0  0  0  0  0
   28.8051   14.9668   15.9347 N   0  0  0  0  0  0  0  0  0  0  0  0
   29.5439   16.7206   17.2195 N   0  0  0  0  0  0  0  0  0  0  0  0
   30.2115   16.6004   14.9359 N   0  0  0  0  0  0  0  0  0  0  0  0
   31.5564   18.2217   14.1080 O   0  0  0  0  0  0  0  0  0  0  0  0
   31.6575   20.2000   17.7850 N   0  0  0  0  0  0  0  0  0  0  0  0
   30.9299   19.6252   18.8388 C   0  0  0  0  0  0  0  0  0  0  0  0
   30.2205   18.4302   18.6156 N   0  0  0  0  0  0  0  0  0  0  0  0
   30.2280   17.8582   17.3950 C   0  0  0  0  0  0  0  0  0  0  0  0
   30.9491   18.4075   16.3259 C   0  0  0  0  0  0  0  0  0  0  0  0
   31.6612   19.5834   16.5108 C   0  0  0  0  0  0  0  0  0  0  0  0
  1  3  1  0  0  0  0
  1  4  2  0  0  0  0
  1  5  1  0  0  0  0
  2  6  2  0  0  0  0
  2 11  1  0  0  0  0
  2  5  1  0  0  0  0
  4 10  1  0  0  0  0
  7  8  2  0  0  0  0
  7 12  1  0  0  0  0
  8  9  1  0  0  0  0
  9 10  2  0  0  0  0
 10 11  1  0  0  0  0
 11 12  2  0  0  0  0
M  END
>  <CHROM.1>
30.51683786,17.85094295,16.52492079,2.19227694,-0.93511352,-2.03143832

>  <Name>
ligand

>  <RI>
0

>  <Rbt.Current_Directory>
/home/itssahil/PROJECTS/Mol_Feturizer/New_Systems/rnas/4LX6

>  <Rbt.Executable>
rbdock ($Id: //depot/dev/client3/rdock/2013.1/src/exe/rbdock.cxx#4 $)

>  <Rbt.Library>
libRbt.so (2013.1, Build901 2013/11/27)

>  <Rbt.Parameter_File>
/export/apps/rDock/src/rDock_2013.1_src/data/scripts/dock_solv.prm

>  <Rbt.Receptor>
prm/pocket_docking_6.prm

>  <SCORE>
-17.2976

>  <SCORE.INTER>
-17.2976

>  <SCORE.INTER.CONST>
1

>  <SCORE.INTER.POLAR>
0

>  <SCORE.INTER.ROT>
0

>  <SCORE.INTER.SOLV>
10.7307

>  <SCORE.INTER.VDW>
-18.7086

>  <SCORE.INTER.norm>
-1.44147

>  <SCORE.INTRA>
0

>  <SCORE.INTRA.DIHEDRAL>
0

>  <SCORE.INTRA.DIHEDRAL.0>
0

>  <SCORE.INTRA.POLAR>
0

>  <SCORE.INTRA.POLAR.0>
0

>  <SCORE.INTRA.REPUL>
0

>  <SCORE.INTRA.REPUL.0>
0

>  <SCORE.INTRA.SOLV>
0

>  <SCORE.INTRA.SOLV.lig_0>
-28.9128

>  <SCORE.INTRA.VDW>
0

>  <SCORE.INTRA.VDW.0>
0

>  <SCORE.INTRA.norm>
0

>  <SCORE.RESTR>
0

>  <SCORE.RESTR.CAVITY>
0

>  <SCORE.RESTR.norm>
0

>  <SCORE.SYSTEM>
0

>  <SCORE.SYSTEM.CONST>
0

>  <SCORE.SYSTEM.DIHEDRAL>
0

>  <SCORE.SYSTEM.SOLV>
0

>  <SCORE.SYSTEM.norm>
0

>  <SCORE.heavy>
12

>  <SCORE.norm>
-1.44147

>  <RMSD>
2.963

$$$$
ligand
 OpenBabel11021811503D
libRbt.so/2013.1/901 2013/11/27
 12 13  0  0  0  0  0  0  0  0999 V2000
   29.4986   16.0968   16.0391 C   0  0  0  0  0  0  0  0  0  0  0  0
   30.9500   17.7714   15.0835 C   0  0  0  0  0  0  0  0  0  0  0  0
   28.7911   14.9783   15.9300 N   0  0  0  0  0  0  0  0  0  0  0  0
   29.5342   16.7289   17.2166 N   0  0  0  0  0  0  0  0  0  0  0  0
   30.2115   16.6027   14.9362 N   0  0  0  0  0  0  0  0  0  0  0  0
   31.5696   18.2153   14.1130 O   0  0  0  0  0  0  0  0  0  0  0  0
   31.6655   20.1964   17.7885 N   0  0  0  0  0  0  0  0  0  0  0  0
   30.9298   19.6269   18.8395 C   0  0  0  0  0  0  0  0  0  0  0  0
   30.2144   18.4358   18.6143 N   0  0  0  0  0  0  0  0  0  0  0  0
   30.2242   17.8626   17.3942 C   0  0  0  0  0  0  0  0  0  0  0  0
   30.9533   18.4067   16.3279 C   0  0  0  0  0  0  0  0  0  0  0  0
   31.6714   19.5786   16.5150 C   0  0  0  0  0  0  0  0  0  0  0  0
  1  3  1  0  0  0  0
  1  4  2  0  0  0  0
  1  5  1  0  0  0  0
  2  6  2  0  0  0  0
  2 11  1  0  0  0  0
  2  5  1  0  0  0  0
  4 10  1  0  0  0  0
  7  8  2  0  0  0  0
  7 12  1  0  0  0  0
  8  9  1  0  0  0  0
  9 10  2  0  0  0  0
 10 11  1  0  0  0  0
 11 12  2  0  0  0  0
M  END
>  <CHROM.1>
30.51690056,17.85289824,16.52545176,2.18980757,-0.92786801,-2.03434458

>  <Name>
ligand

>  <RI>
0

>  <Rbt.Current_Directory>
/home/itssahil/PROJECTS/Mol_Feturizer/New_Systems/rnas/4LX6

>  <Rbt.Executable>
rbdock ($Id: //depot/dev/client3/rdock/2013.1/src/exe/rbdock.cxx#4 $)

>  <Rbt.Library>
libRbt.so (2013.1, Build901 2013/11/27)

>  <Rbt.Parameter_File>
/export/apps/rDock/src/rDock_2013.1_src/data/scripts/dock_solv.prm

>  <Rbt.Receptor>
prm/pocket_docking_6.prm

>  <SCORE>
-17.2938

>  <SCORE.INTER>
-17.2938

>  <SCORE.INTER.CONST>
1

>  <SCORE.INTER.POLAR>
0

>  <SCORE.INTER.ROT>
0

>  <SCORE.INTER.SOLV>
10.6656

>  <SCORE.INTER.VDW>
-18.6844

>  <SCORE.INTER.norm>
-1.44115

>  <SCORE.INTRA>
0

>  <SCORE.INTRA.DIHEDRAL>
0

>  <SCORE.INTRA.DIHEDRAL.0>
0

>  <SCORE.INTRA.POLAR>
0

>  <SCORE.INTRA.POLAR.0>
0

>  <SCORE.INTRA.REPUL>
0

>  <SCORE.INTRA.REPUL.0>
0

>  <SCORE.INTRA.SOLV>
0

>  <SCORE.INTRA.SOLV.lig_0>
-28.9128

>  <SCORE.INTRA.VDW>
0

>  <SCORE.INTRA.VDW.0>
0

>  <SCORE.INTRA.norm>
0

>  <SCORE.RESTR>
0

>  <SCORE.RESTR.CAVITY>
0

>  <SCORE.RESTR.norm>
0

>  <SCORE.SYSTEM>
0

>  <SCORE.SYSTEM.CONST>
0

>  <SCORE.SYSTEM.DIHEDRAL>
0

>  <SCORE.SYSTEM.SOLV>
0

>  <SCORE.SYSTEM.norm>
0

>  <SCORE.heavy>
12

>  <SCORE.norm>
-1.44115

>  <RMSD>
2.963

$$$$
ligand
 OpenBabel11021811503D
libRbt.so/2013.1/901 2013/11/27
 12 13  0  0  0  0  0  0  0  0999 V2000
   29.5066   16.1509   16.0505 C   0  0  0  0  0  0  0  0  0  0  0  0
   30.9339   17.8525   15.1065 C   0  0  0  0  0  0  0  0  0  0  0  0
   28.8052   15.0297   15.9305 N   0  0  0  0  0  0  0  0  0  0  0  0
   29.5540   16.7617   17.2388 N   0  0  0  0  0  0  0  0  0  0  0  0
   30.2012   16.6816   14.9476 N   0  0  0  0  0  0  0  0  0  0  0  0
   31.5374   18.3183   14.1360 O   0  0  0  0  0  0  0  0  0  0  0  0
   31.6697   20.2328   17.8456 N   0  0  0  0  0  0  0  0  0  0  0  0
   30.9520   19.6391   18.8957 C   0  0  0  0  0  0  0  0  0  0  0  0
   30.2416   18.4475   18.6583 N   0  0  0  0  0  0  0  0  0  0  0  0
   30.2387   17.8967   17.4279 C   0  0  0  0  0  0  0  0  0  0  0  0
   30.9498   18.4651   16.3621 C   0  0  0  0  0  0  0  0  0  0  0  0
   31.6625   19.6383   16.5610 C   0  0  0  0  0  0  0  0  0  0  0  0
  1  3  1  0  0  0  0
  1  4  2  0  0  0  0
  1  5  1  0  0  0  0
  2  6  2  0  0  0  0
  2 11  1  0  0  0  0
  2  5  1  0  0  0  0
  4 10  1  0  0  0  0
  7  8  2  0  0  0  0
  7 12  1  0  0  0  0
  8  9  1  0  0  0  0
  9 10  2  0  0  0  0
 10 11  1  0  0  0  0
 11 12  2  0  0  0  0
M  END
>  <CHROM.1>
30.51976878,17.90479779,16.55529212,2.20522563,-0.93976156,-2.00370145

>  <Name>
ligand

>  <RI>
0

>  <Rbt.Current_Directory>
/home/itssahil/PROJECTS/Mol_Feturizer/New_Systems/rnas/4LX6

>  <Rbt.Executable>
rbdock ($Id: //depot/dev/client3/rdock/2013.1/src/exe/rbdock.cxx#4 $)

>  <Rbt.Library>
libRbt.so (2013.1, Build901 2013/11/27)

>  <Rbt.Parameter_File>
/export/apps/rDock/src/rDock_2013.1_src/data/scripts/dock_solv.prm

>  <Rbt.Receptor>
prm/pocket_docking_6.prm

>  <SCORE>
-17.2431

>  <SCORE.INTER>
-17.2431

>  <SCORE.INTER.CONST>
1

>  <SCORE.INTER.POLAR>
0

>  <SCORE.INTER.ROT>
0

>  <SCORE.INTER.SOLV>
10.6345

>  <SCORE.INTER.VDW>
-18.6402

>  <SCORE.INTER.norm>
-1.43692

>  <SCORE.INTRA>
0

>  <SCORE.INTRA.DIHEDRAL>
0

>  <SCORE.INTRA.DIHEDRAL.0>
0

>  <SCORE.INTRA.POLAR>
0

>  <SCORE.INTRA.POLAR.0>
0

>  <SCORE.INTRA.REPUL>
0

>  <SCORE.INTRA.REPUL.0>
0

>  <SCORE.INTRA.SOLV>
0

>  <SCORE.INTRA.SOLV.lig_0>
-28.9128

>  <SCORE.INTRA.VDW>
0

>  <SCORE.INTRA.VDW.0>
0

>  <SCORE.INTRA.norm>
0

>  <SCORE.RESTR>
0

>  <SCORE.RESTR.CAVITY>
0

>  <SCORE.RESTR.norm>
0

>  <SCORE.SYSTEM>
0

>  <SCORE.SYSTEM.CONST>
0

>  <SCORE.SYSTEM.DIHEDRAL>
0

>  <SCORE.SYSTEM.SOLV>
0

>  <SCORE.SYSTEM.norm>
0

>  <SCORE.heavy>
12

>  <SCORE.norm>
-1.43692

>  <RMSD>
2.963

$$$$
ligand
 OpenBabel11021811503D
libRbt.so/2013.1/901 2013/11/27
 12 13  0  0  0  0  0  0  0  0999 V2000
   29.5008   16.0889   16.0375 C   0  0  0  0  0  0  0  0  0  0  0  0
   30.9703   17.7511   15.0880 C   0  0  0  0  0  0  0  0  0  0  0  0
   28.7863   14.9751   15.9262 N   0  0  0  0  0  0  0  0  0  0  0  0
   29.5328   16.7235   17.2137 N   0  0  0  0  0  0  0  0  0  0  0  0
   30.2247   16.5872   14.9383 N   0  0  0  0  0  0  0  0  0  0  0  0
   31.5995   18.1885   14.1207 O   0  0  0  0  0  0  0  0  0  0  0  0
   31.6842   20.1775   17.7922 N   0  0  0  0  0  0  0  0  0  0  0  0
   30.9374   19.6155   18.8395 C   0  0  0  0  0  0  0  0  0  0  0  0
   30.2154   18.4289   18.6121 N   0  0  0  0  0  0  0  0  0  0  0  0
   30.2294   17.8528   17.3934 C   0  0  0  0  0  0  0  0  0  0  0  0
   30.9695   18.3894   16.3309 C   0  0  0  0  0  0  0  0  0  0  0  0
   31.6944   19.5567   16.5202 C   0  0  0  0  0  0  0  0  0  0  0  0
  1  3  1  0  0  0  0
  1  4  2  0  0  0  0
  1  5  1  0  0  0  0
  2  6  2  0  0  0  0
  2 11  1  0  0  0  0
  2  5  1  0  0  0  0
  4 10  1  0  0  0  0
  7  8  2  0  0  0  0
  7 12  1  0  0  0  0
  8  9  1  0  0  0  0
  9 10  2  0  0  0  0
 10 11  1  0  0  0  0
 11 12  2  0  0  0  0
M  END
>  <CHROM.1>
30.52796358,17.83903152,16.52674706,2.18490259,-0.91860370,-2.04057215

>  <Name>
ligand

>  <RI>
0

>  <Rbt.Current_Directory>
/home/itssahil/PROJECTS/Mol_Feturizer/New_Systems/rnas/4LX6

>  <Rbt.Executable>
rbdock ($Id: //depot/dev/client3/rdock/2013.1/src/exe/rbdock.cxx#4 $)

>  <Rbt.Library>
libRbt.so (2013.1, Build901 2013/11/27)

>  <Rbt.Parameter_File>
/export/apps/rDock/src/rDock_2013.1_src/data/scripts/dock_solv.prm

>  <Rbt.Receptor>
prm/pocket_docking_7.prm

>  <SCORE>
-17.3119

>  <SCORE.INTER>
-17.3119

>  <SCORE.INTER.CONST>
1

>  <SCORE.INTER.POLAR>
0

>  <SCORE.INTER.ROT>
0

>  <SCORE.INTER.SOLV>
10.6564

>  <SCORE.INTER.VDW>
-18.6934

>  <SCORE.INTER.norm>
-1.44266

>  <SCORE.INTRA>
0

>  <SCORE.INTRA.DIHEDRAL>
0

>  <SCORE.INTRA.DIHEDRAL.0>
0

>  <SCORE.INTRA.POLAR>
0

>  <SCORE.INTRA.POLAR.0>
0

>  <SCORE.INTRA.REPUL>
0

>  <SCORE.INTRA.REPUL.0>
0

>  <SCORE.INTRA.SOLV>
0

>  <SCORE.INTRA.SOLV.lig_0>
-28.9128

>  <SCORE.INTRA.VDW>
0

>  <SCORE.INTRA.VDW.0>
0

>  <SCORE.INTRA.norm>
0

>  <SCORE.RESTR>
0

>  <SCORE.RESTR.CAVITY>
0

>  <SCORE.RESTR.norm>
0

>  <SCORE.SYSTEM>
0

>  <SCORE.SYSTEM.CONST>
0

>  <SCORE.SYSTEM.DIHEDRAL>
0

>  <SCORE.SYSTEM.SOLV>
0

>  <SCORE.SYSTEM.norm>
0

>  <SCORE.heavy>
12

>  <SCORE.norm>
-1.44266

>  <RMSD>
2.963

$$$$
ligand
 OpenBabel11021811503D
libRbt.so/2013.1/901 2013/11/27
 12 13  0  0  0  0  0  0  0  0999 V2000
   29.5731   16.0541   16.0472 C   0  0  0  0  0  0  0  0  0  0  0  0
   31.0767   17.7011   15.1249 C   0  0  0  0  0  0  0  0  0  0  0  0
   28.8615   14.9393   15.9275 N   0  0  0  0  0  0  0  0  0  0  0  0
   29.5654   16.7057   17.2145 N   0  0  0  0  0  0  0  0  0  0  0  0
   30.3352   16.5357   14.9665 N   0  0  0  0  0  0  0  0  0  0  0  0
   31.7395   18.1238   14.1737 O   0  0  0  0  0  0  0  0  0  0  0  0
   31.7000   20.1661   17.8166 N   0  0  0  0  0  0  0  0  0  0  0  0
   30.9168   19.6200   18.8456 C   0  0  0  0  0  0  0  0  0  0  0  0
   30.2015   18.4308   18.6106 N   0  0  0  0  0  0  0  0  0  0  0  0
   30.2568   17.8370   17.4017 C   0  0  0  0  0  0  0  0  0  0  0  0
   31.0339   18.3574   16.3577 C   0  0  0  0  0  0  0  0  0  0  0  0
   31.7534   19.5268   16.5549 C   0  0  0  0  0  0  0  0  0  0  0  0
  1  3  1  0  0  0  0
  1  4  2  0  0  0  0
  1  5  1  0  0  0  0
  2  6  2  0  0  0  0
  2 11  1  0  0  0  0
  2  5  1  0  0  0  0
  4 10  1  0  0  0  0
  7  8  2  0  0  0  0
  7 12  1  0  0  0  0
  8  9  1  0  0  0  0
  9 10  2  0  0  0  0
 10 11  1  0  0  0  0
 11 12  2  0  0  0  0
M  END
>  <CHROM.1>
30.58509551,17.81032962,16.54611675,2.13624799,-0.90122125,-2.09355826

>  <Name>
ligand

>  <RI>
0

>  <Rbt.Current_Directory>
/home/itssahil/PROJECTS/Mol_Feturizer/New_Systems/rnas/4LX6

>  <Rbt.Executable>
rbdock ($Id: //depot/dev/client3/rdock/2013.1/src/exe/rbdock.cxx#4 $)

>  <Rbt.Library>
libRbt.so (2013.1, Build901 2013/11/27)

>  <Rbt.Parameter_File>
/export/apps/rDock/src/rDock_2013.1_src/data/scripts/dock_solv.prm

>  <Rbt.Receptor>
prm/pocket_docking_7.prm

>  <SCORE>
-17.3523

>  <SCORE.INTER>
-17.3523

>  <SCORE.INTER.CONST>
1

>  <SCORE.INTER.POLAR>
0

>  <SCORE.INTER.ROT>
0

>  <SCORE.INTER.SOLV>
11.0411

>  <SCORE.INTER.VDW>
-18.8486

>  <SCORE.INTER.norm>
-1.44603

>  <SCORE.INTRA>
0

>  <SCORE.INTRA.DIHEDRAL>
0

>  <SCORE.INTRA.DIHEDRAL.0>
0

>  <SCORE.INTRA.POLAR>
0

>  <SCORE.INTRA.POLAR.0>
0

>  <SCORE.INTRA.REPUL>
0

>  <SCORE.INTRA.REPUL.0>
0

>  <SCORE.INTRA.SOLV>
0

>  <SCORE.INTRA.SOLV.lig_0>
-28.9128

>  <SCORE.INTRA.VDW>
0

>  <SCORE.INTRA.VDW.0>
0

>  <SCORE.INTRA.norm>
0

>  <SCORE.RESTR>
0

>  <SCORE.RESTR.CAVITY>
0

>  <SCORE.RESTR.norm>
0

>  <SCORE.SYSTEM>
0

>  <SCORE.SYSTEM.CONST>
0

>  <SCORE.SYSTEM.DIHEDRAL>
0

>  <SCORE.SYSTEM.SOLV>
0

>  <SCORE.SYSTEM.norm>
0

>  <SCORE.heavy>
12

>  <SCORE.norm>
-1.44603

>  <RMSD>
2.963

$$$$
ligand
 OpenBabel11021811503D
libRbt.so/2013.1/901 2013/11/27
 12 13  0  0  0  0  0  0  0  0999 V2000
   29.5066   16.1115   16.0449 C   0  0  0  0  0  0  0  0  0  0  0  0
   30.9540   17.7921   15.0940 C   0  0  0  0  0  0  0  0  0  0  0  0
   28.7978   14.9943   15.9314 N   0  0  0  0  0  0  0  0  0  0  0  0
   29.5490   16.7348   17.2268 N   0  0  0  0  0  0  0  0  0  0  0  0
   30.2139   16.6250   14.9420 N   0  0  0  0  0  0  0  0  0  0  0  0
   31.5688   18.2428   14.1234 O   0  0  0  0  0  0  0  0  0  0  0  0
   31.6857   20.1967   17.8129 N   0  0  0  0  0  0  0  0  0  0  0  0
   30.9552   19.6199   18.8636 C   0  0  0  0  0  0  0  0  0  0  0  0
   30.2379   18.4310   18.6334 N   0  0  0  0  0  0  0  0  0  0  0  0
   30.2407   17.8668   17.4091 C   0  0  0  0  0  0  0  0  0  0  0  0
   30.9644   18.4183   16.3430 C   0  0  0  0  0  0  0  0  0  0  0  0
   31.6844   19.5883   16.5348 C   0  0  0  0  0  0  0  0  0  0  0  0
  1  3  1  0  0  0  0
  1  4  2  0  0  0  0
  1  5  1  0  0  0  0
  2  6  2  0  0  0  0
  2 11  1  0  0  0  0
  2  5  1  0  0  0  0
  4 10  1  0  0  0  0
  7  8  2  0  0  0  0
  7 12  1  0  0  0  0
  8  9  1  0  0  0  0
  9 10  2  0  0  0  0
 10 11  1  0  0  0  0
 11 12  2  0  0  0  0
M  END
>  <CHROM.1>
30.52874061,17.86327973,16.53875760,2.19833210,-0.92961395,-2.02014839

>  <Name>
ligand

>  <RI>
0

>  <Rbt.Current_Directory>
/home/itssahil/PROJECTS/Mol_Feturizer/New_Systems/rnas/4LX6

>  <Rbt.Executable>
rbdock ($Id: //depot/dev/client3/rdock/2013.1/src/exe/rbdock.cxx#4 $)

>  <Rbt.Library>
libRbt.so (2013.1, Build901 2013/11/27)

>  <Rbt.Parameter_File>
/export/apps/rDock/src/rDock_2013.1_src/data/scripts/dock_solv.prm

>  <Rbt.Receptor>
prm/pocket_docking_7.prm

>  <SCORE>
-17.2749

>  <SCORE.INTER>
-17.2749

>  <SCORE.INTER.CONST>
1

>  <SCORE.INTER.POLAR>
0

>  <SCORE.INTER.ROT>
0

>  <SCORE.INTER.SOLV>
10.66

>  <SCORE.INTER.VDW>
-18.6699

>  <SCORE.INTER.norm>
-1.43958

>  <SCORE.INTRA>
0

>  <SCORE.INTRA.DIHEDRAL>
0

>  <SCORE.INTRA.DIHEDRAL.0>
0

>  <SCORE.INTRA.POLAR>
0

>  <SCORE.INTRA.POLAR.0>
0

>  <SCORE.INTRA.REPUL>
0

>  <SCORE.INTRA.REPUL.0>
0

>  <SCORE.INTRA.SOLV>
0

>  <SCORE.INTRA.SOLV.lig_0>
-28.9128

>  <SCORE.INTRA.VDW>
0

>  <SCORE.INTRA.VDW.0>
0

>  <SCORE.INTRA.norm>
0

>  <SCORE.RESTR>
0

>  <SCORE.RESTR.CAVITY>
0

>  <SCORE.RESTR.norm>
0

>  <SCORE.SYSTEM>
0

>  <SCORE.SYSTEM.CONST>
0

>  <SCORE.SYSTEM.DIHEDRAL>
0

>  <SCORE.SYSTEM.SOLV>
0

>  <SCORE.SYSTEM.norm>
0

>  <SCORE.heavy>
12

>  <SCORE.norm>
-1.43958

>  <RMSD>
2.963

$$$$
ligand
 OpenBabel11021811503D
libRbt.so/2013.1/901 2013/11/27
 12 13  0  0  0  0  0  0  0  0999 V2000
   29.5031   16.1211   16.0426 C   0  0  0  0  0  0  0  0  0  0  0  0
   30.9492   17.8043   15.0941 C   0  0  0  0  0  0  0  0  0  0  0  0
   28.7950   15.0036   15.9274 N   0  0  0  0  0  0  0  0  0  0  0  0
   29.5454   16.7425   17.2255 N   0  0  0  0  0  0  0  0  0  0  0  0
   30.2098   16.6369   14.9403 N   0  0  0  0  0  0  0  0  0  0  0  0
   31.5634   18.2570   14.1241 O   0  0  0  0  0  0  0  0  0  0  0  0
   31.6799   20.2048   17.8169 N   0  0  0  0  0  0  0  0  0  0  0  0
   30.9501   19.6257   18.8668 C   0  0  0  0  0  0  0  0  0  0  0  0
   30.2335   18.4367   18.6348 N   0  0  0  0  0  0  0  0  0  0  0  0
   30.2364   17.8746   17.4095 C   0  0  0  0  0  0  0  0  0  0  0  0
   30.9595   18.4284   16.3441 C   0  0  0  0  0  0  0  0  0  0  0  0
   31.6787   19.5985   16.5378 C   0  0  0  0  0  0  0  0  0  0  0  0
  1  3  1  0  0  0  0
  1  4  2  0  0  0  0
  1  5  1  0  0  0  0
  2  6  2  0  0  0  0
  2 11  1  0  0  0  0
  2  5  1  0  0  0  0
  4 10  1  0  0  0  0
  7  8  2  0  0  0  0
  7 12  1  0  0  0  0
  8  9  1  0  0  0  0
  9 10  2  0  0  0  0
 10 11  1  0  0  0  0
 11 12  2  0  0  0  0
M  END
>  <CHROM.1>
30.52421669,17.87275460,16.53910112,2.19822714,-0.93033328,-2.01855368

>  <Name>
ligand

>  <RI>
0

>  <Rbt.Current_Directory>
/home/itssahil/PROJECTS/Mol_Feturizer/New_Systems/rnas/4LX6

>  <Rbt.Executable>
rbdock ($Id: //depot/dev/client3/rdock/2013.1/src/exe/rbdock.cxx#4 $)

>  <Rbt.Library>
libRbt.so (2013.1, Build901 2013/11/27)

>  <Rbt.Parameter_File>
/export/apps/rDock/src/rDock_2013.1_src/data/scripts/dock_solv.prm

>  <Rbt.Receptor>
prm/pocket_docking_7.prm

>  <SCORE>
-17.2875

>  <SCORE.INTER>
-17.2875

>  <SCORE.INTER.CONST>
1

>  <SCORE.INTER.POLAR>
0

>  <SCORE.INTER.ROT>
0

>  <SCORE.INTER.SOLV>
10.6342

>  <SCORE.INTER.VDW>
-18.6697

>  <SCORE.INTER.norm>
-1.44063

>  <SCORE.INTRA>
0

>  <SCORE.INTRA.DIHEDRAL>
0

>  <SCORE.INTRA.DIHEDRAL.0>
0

>  <SCORE.INTRA.POLAR>
0

>  <SCORE.INTRA.POLAR.0>
0

>  <SCORE.INTRA.REPUL>
0

>  <SCORE.INTRA.REPUL.0>
0

>  <SCORE.INTRA.SOLV>
0

>  <SCORE.INTRA.SOLV.lig_0>
-28.9128

>  <SCORE.INTRA.VDW>
0

>  <SCORE.INTRA.VDW.0>
0

>  <SCORE.INTRA.norm>
0

>  <SCORE.RESTR>
0

>  <SCORE.RESTR.CAVITY>
0

>  <SCORE.RESTR.norm>
0

>  <SCORE.SYSTEM>
0

>  <SCORE.SYSTEM.CONST>
0

>  <SCORE.SYSTEM.DIHEDRAL>
0

>  <SCORE.SYSTEM.SOLV>
0

>  <SCORE.SYSTEM.norm>
0

>  <SCORE.heavy>
12

>  <SCORE.norm>
-1.44063

>  <RMSD>
2.963

$$$$
ligand
 OpenBabel11021811503D
libRbt.so/2013.1/901 2013/11/27
 12 13  0  0  0  0  0  0  0  0999 V2000
   29.5915   16.0718   16.0635 C   0  0  0  0  0  0  0  0  0  0  0  0
   31.0470   17.7532   15.1261 C   0  0  0  0  0  0  0  0  0  0  0  0
   28.8989   14.9446   15.9486 N   0  0  0  0  0  0  0  0  0  0  0  0
   29.5925   16.7154   17.2353 N   0  0  0  0  0  0  0  0  0  0  0  0
   30.3248   16.5750   14.9728 N   0  0  0  0  0  0  0  0  0  0  0  0
   31.6846   18.1947   14.1662 O   0  0  0  0  0  0  0  0  0  0  0  0
   31.6721   20.2114   17.8235 N   0  0  0  0  0  0  0  0  0  0  0  0
   30.9179   19.6437   18.8624 C   0  0  0  0  0  0  0  0  0  0  0  0
   30.2209   18.4428   18.6319 N   0  0  0  0  0  0  0  0  0  0  0  0
   30.2657   17.8583   17.4180 C   0  0  0  0  0  0  0  0  0  0  0  0
   31.0140   18.4002   16.3640 C   0  0  0  0  0  0  0  0  0  0  0  0
   31.7148   19.5817   16.5566 C   0  0  0  0  0  0  0  0  0  0  0  0
  1  3  1  0  0  0  0
  1  4  2  0  0  0  0
  1  5  1  0  0  0  0
  2  6  2  0  0  0  0
  2 11  1  0  0  0  0
  2  5  1  0  0  0  0
  4 10  1  0  0  0  0
  7  8  2  0  0  0  0
  7 12  1  0  0  0  0
  8  9  1  0  0  0  0
  9 10  2  0  0  0  0
 10 11  1  0  0  0  0
 11 12  2  0  0  0  0
M  END
>  <CHROM.1>
30.57903439,17.84353683,16.55659539,2.14652602,-0.92647384,-2.07855796

>  <Name>
ligand

>  <RI>
0

>  <Rbt.Current_Directory>
/home/itssahil/PROJECTS/Mol_Feturizer/New_Systems/rnas/4LX6

>  <Rbt.Executable>
rbdock ($Id: //depot/dev/client3/rdock/2013.1/src/exe/rbdock.cxx#4 $)

>  <Rbt.Library>
libRbt.so (2013.1, Build901 2013/11/27)

>  <Rbt.Parameter_File>
/export/apps/rDock/src/rDock_2013.1_src/data/scripts/dock_solv.prm

>  <Rbt.Receptor>
prm/pocket_docking_8.prm

>  <SCORE>
-17.3008

>  <SCORE.INTER>
-17.3008

>  <SCORE.INTER.CONST>
1

>  <SCORE.INTER.POLAR>
0

>  <SCORE.INTER.ROT>
0

>  <SCORE.INTER.SOLV>
11.1395

>  <SCORE.INTER.VDW>
-18.8471

>  <SCORE.INTER.norm>
-1.44174

>  <SCORE.INTRA>
0

>  <SCORE.INTRA.DIHEDRAL>
0

>  <SCORE.INTRA.DIHEDRAL.0>
0

>  <SCORE.INTRA.POLAR>
0

>  <SCORE.INTRA.POLAR.0>
0

>  <SCORE.INTRA.REPUL>
0

>  <SCORE.INTRA.REPUL.0>
0

>  <SCORE.INTRA.SOLV>
0

>  <SCORE.INTRA.SOLV.lig_0>
-28.9128

>  <SCORE.INTRA.VDW>
0

>  <SCORE.INTRA.VDW.0>
0

>  <SCORE.INTRA.norm>
0

>  <SCORE.RESTR>
0

>  <SCORE.RESTR.CAVITY>
0

>  <SCORE.RESTR.norm>
0

>  <SCORE.SYSTEM>
0

>  <SCORE.SYSTEM.CONST>
0

>  <SCORE.SYSTEM.DIHEDRAL>
0

>  <SCORE.SYSTEM.SOLV>
0

>  <SCORE.SYSTEM.norm>
0

>  <SCORE.heavy>
12

>  <SCORE.norm>
-1.44174

>  <RMSD>
2.963

$$$$
ligand
 OpenBabel11021811503D
libRbt.so/2013.1/901 2013/11/27
 12 13  0  0  0  0  0  0  0  0999 V2000
   29.4777   16.1157   16.0344 C   0  0  0  0  0  0  0  0  0  0  0  0
   30.9760   17.7538   15.0881 C   0  0  0  0  0  0  0  0  0  0  0  0
   28.7474   15.0122   15.9222 N   0  0  0  0  0  0  0  0  0  0  0  0
   29.5135   16.7525   17.2093 N   0  0  0  0  0  0  0  0  0  0  0  0
   30.2141   16.6007   14.9375 N   0  0  0  0  0  0  0  0  0  0  0  0
   31.6163   18.1796   14.1228 O   0  0  0  0  0  0  0  0  0  0  0  0
   31.7126   20.1759   17.7902 N   0  0  0  0  0  0  0  0  0  0  0  0
   30.9527   19.6274   18.8351 C   0  0  0  0  0  0  0  0  0  0  0  0
   30.2143   18.4510   18.6070 N   0  0  0  0  0  0  0  0  0  0  0  0
   30.2257   17.8719   17.3897 C   0  0  0  0  0  0  0  0  0  0  0  0
   30.9787   18.3950   16.3296 C   0  0  0  0  0  0  0  0  0  0  0  0
   31.7199   19.5519   16.5196 C   0  0  0  0  0  0  0  0  0  0  0  0
  1  3  1  0  0  0  0
  1  4  2  0  0  0  0
  1  5  1  0  0  0  0
  2  6  2  0  0  0  0
  2 11  1  0  0  0  0
  2  5  1  0  0  0  0
  4 10  1  0  0  0  0
  7  8  2  0  0  0  0
  7 12  1  0  0  0  0
  8  9  1  0  0  0  0
  9 10  2  0  0  0  0
 10 11  1  0  0  0  0
 11 12  2  0  0  0  0
M  END
>  <CHROM.1>
30.52818594,17.85165576,16.52452284,2.18877957,-0.90330580,-2.03985291

>  <Name>
ligand

>  <RI>
0

>  <Rbt.Current_Directory>
/home/itssahil/PROJECTS/Mol_Feturizer/New_Systems/rnas/4LX6

>  <Rbt.Executable>
rbdock ($Id: //depot/dev/client3/rdock/2013.1/src/exe/rbdock.cxx#4 $)

>  <Rbt.Library>
libRbt.so (2013.1, Build901 2013/11/27)

>  <Rbt.Parameter_File>
/export/apps/rDock/src/rDock_2013.1_src/data/scripts/dock_solv.prm

>  <Rbt.Receptor>
prm/pocket_docking_8.prm

>  <SCORE>
-17.273

>  <SCORE.INTER>
-17.273

>  <SCORE.INTER.CONST>
1

>  <SCORE.INTER.POLAR>
0

>  <SCORE.INTER.ROT>
0

>  <SCORE.INTER.SOLV>
10.4645

>  <SCORE.INTER.VDW>
-18.6035

>  <SCORE.INTER.norm>
-1.43942

>  <SCORE.INTRA>
0

>  <SCORE.INTRA.DIHEDRAL>
0

>  <SCORE.INTRA.DIHEDRAL.0>
0

>  <SCORE.INTRA.POLAR>
0

>  <SCORE.INTRA.POLAR.0>
0

>  <SCORE.INTRA.REPUL>
0

>  <SCORE.INTRA.REPUL.0>
0

>  <SCORE.INTRA.SOLV>
0

>  <SCORE.INTRA.SOLV.lig_0>
-28.9128

>  <SCORE.INTRA.VDW>
0

>  <SCORE.INTRA.VDW.0>
0

>  <SCORE.INTRA.norm>
0

>  <SCORE.RESTR>
0

>  <SCORE.RESTR.CAVITY>
0

>  <SCORE.RESTR.norm>
0

>  <SCORE.SYSTEM>
0

>  <SCORE.SYSTEM.CONST>
0

>  <SCORE.SYSTEM.DIHEDRAL>
0

>  <SCORE.SYSTEM.SOLV>
0

>  <SCORE.SYSTEM.norm>
0

>  <SCORE.heavy>
12

>  <SCORE.norm>
-1.43942

>  <RMSD>
2.963

$$$$
ligand
 OpenBabel11021811503D
libRbt.so/2013.1/901 2013/11/27
 12 13  0  0  0  0  0  0  0  0999 V2000
   29.5088   16.0790   16.0435 C   0  0  0  0  0  0  0  0  0  0  0  0
   30.9662   17.7479   15.0871 C   0  0  0  0  0  0  0  0  0  0  0  0
   28.7998   14.9613   15.9359 N   0  0  0  0  0  0  0  0  0  0  0  0
   29.5415   16.7150   17.2189 N   0  0  0  0  0  0  0  0  0  0  0  0
   30.2262   16.5799   14.9413 N   0  0  0  0  0  0  0  0  0  0  0  0
   31.5898   18.1875   14.1171 O   0  0  0  0  0  0  0  0  0  0  0  0
   31.6766   20.1810   17.7862 N   0  0  0  0  0  0  0  0  0  0  0  0
   30.9364   19.6162   18.8367 C   0  0  0  0  0  0  0  0  0  0  0  0
   30.2198   18.4256   18.6131 N   0  0  0  0  0  0  0  0  0  0  0  0
   30.2327   17.8483   17.3950 C   0  0  0  0  0  0  0  0  0  0  0  0
   30.9663   18.3875   16.3293 C   0  0  0  0  0  0  0  0  0  0  0  0
   31.6857   19.5589   16.5148 C   0  0  0  0  0  0  0  0  0  0  0  0
  1  3  1  0  0  0  0
  1  4  2  0  0  0  0
  1  5  1  0  0  0  0
  2  6  2  0  0  0  0
  2 11  1  0  0  0  0
  2  5  1  0  0  0  0
  4 10  1  0  0  0  0
  7  8  2  0  0  0  0
  7 12  1  0  0  0  0
  8  9  1  0  0  0  0
  9 10  2  0  0  0  0
 10 11  1  0  0  0  0
 11 12  2  0  0  0  0
M  END
>  <CHROM.1>
30.52837620,17.83506718,16.52729074,2.18603197,-0.92488517,-2.04077944

>  <Name>
ligand

>  <RI>
0

>  <Rbt.Current_Directory>
/home/itssahil/PROJECTS/Mol_Feturizer/New_Systems/rnas/4LX6

>  <Rbt.Executable>
rbdock ($Id: //depot/dev/client3/rdock/2013.1/src/exe/rbdock.cxx#4 $)

>  <Rbt.Library>
libRbt.so (2013.1, Build901 2013/11/27)

>  <Rbt.Parameter_File>
/export/apps/rDock/src/rDock_2013.1_src/data/scripts/dock_solv.prm

>  <Rbt.Receptor>
prm/blind_docking_100.prm

>  <SCORE>
-17.3081

>  <SCORE.INTER>
-17.3081

>  <SCORE.INTER.CONST>
1

>  <SCORE.INTER.POLAR>
0

>  <SCORE.INTER.ROT>
0

>  <SCORE.INTER.SOLV>
10.7266

>  <SCORE.INTER.VDW>
-18.7143

>  <SCORE.INTER.norm>
-1.44234

>  <SCORE.INTRA>
0

>  <SCORE.INTRA.DIHEDRAL>
0

>  <SCORE.INTRA.DIHEDRAL.0>
0

>  <SCORE.INTRA.POLAR>
0

>  <SCORE.INTRA.POLAR.0>
0

>  <SCORE.INTRA.REPUL>
0

>  <SCORE.INTRA.REPUL.0>
0

>  <SCORE.INTRA.SOLV>
0

>  <SCORE.INTRA.SOLV.lig_0>
-28.9128

>  <SCORE.INTRA.VDW>
0

>  <SCORE.INTRA.VDW.0>
0

>  <SCORE.INTRA.norm>
0

>  <SCORE.RESTR>
0

>  <SCORE.RESTR.CAVITY>
0

>  <SCORE.RESTR.norm>
0

>  <SCORE.SYSTEM>
0

>  <SCORE.SYSTEM.CONST>
0

>  <SCORE.SYSTEM.DIHEDRAL>
0

>  <SCORE.SYSTEM.SOLV>
0

>  <SCORE.SYSTEM.norm>
0

>  <SCORE.heavy>
12

>  <SCORE.norm>
-1.44234

>  <RMSD>
2.964

$$$$
ligand
 OpenBabel11021811503D
libRbt.so/2013.1/901 2013/11/27
 12 13  0  0  0  0  0  0  0  0999 V2000
   29.4956   16.0912   16.0421 C   0  0  0  0  0  0  0  0  0  0  0  0
   30.9584   17.7517   15.0792 C   0  0  0  0  0  0  0  0  0  0  0  0
   28.7802   14.9773   15.9378 N   0  0  0  0  0  0  0  0  0  0  0  0
   29.5362   16.7278   17.2170 N   0  0  0  0  0  0  0  0  0  0  0  0
   30.2116   16.5876   14.9368 N   0  0  0  0  0  0  0  0  0  0  0  0
   31.5807   18.1873   14.1066 O   0  0  0  0  0  0  0  0  0  0  0  0
   31.6921   20.1825   17.7741 N   0  0  0  0  0  0  0  0  0  0  0  0
   30.9528   19.6224   18.8277 C   0  0  0  0  0  0  0  0  0  0  0  0
   30.2290   18.4355   18.6075 N   0  0  0  0  0  0  0  0  0  0  0  0
   30.2342   17.8574   17.3897 C   0  0  0  0  0  0  0  0  0  0  0  0
   30.9667   18.3920   16.3210 C   0  0  0  0  0  0  0  0  0  0  0  0
   31.6931   19.5596   16.5031 C   0  0  0  0  0  0  0  0  0  0  0  0
  1  3  1  0  0  0  0
  1  4  2  0  0  0  0
  1  5  1  0  0  0  0
  2  6  2  0  0  0  0
  2 11  1  0  0  0  0
  2  5  1  0  0  0  0
  4 10  1  0  0  0  0
  7  8  2  0  0  0  0
  7 12  1  0  0  0  0
  8  9  1  0  0  0  0
  9 10  2  0  0  0  0
 10 11  1  0  0  0  0
 11 12  2  0  0  0  0
M  END
>  <CHROM.1>
30.52649557,17.84208204,16.52094575,2.19562819,-0.92174214,-2.03372889

>  <Name>
ligand

>  <RI>
0

>  <Rbt.Current_Directory>
/home/itssahil/PROJECTS/Mol_Feturizer/New_Systems/rnas/4LX6

>  <Rbt.Executable>
rbdock ($Id: //depot/dev/client3/rdock/2013.1/src/exe/rbdock.cxx#4 $)

>  <Rbt.Library>
libRbt.so (2013.1, Build901 2013/11/27)

>  <Rbt.Parameter_File>
/export/apps/rDock/src/rDock_2013.1_src/data/scripts/dock_solv.prm

>  <Rbt.Receptor>
prm/blind_docking_60.prm

>  <SCORE>
-17.2775

>  <SCORE.INTER>
-17.2775

>  <SCORE.INTER.CONST>
1

>  <SCORE.INTER.POLAR>
0

>  <SCORE.INTER.ROT>
0

>  <SCORE.INTER.SOLV>
10.6338

>  <SCORE.INTER.VDW>
-18.663

>  <SCORE.INTER.norm>
-1.43979

>  <SCORE.INTRA>
0

>  <SCORE.INTRA.DIHEDRAL>
0

>  <SCORE.INTRA.DIHEDRAL.0>
0

>  <SCORE.INTRA.POLAR>
0

>  <SCORE.INTRA.POLAR.0>
0

>  <SCORE.INTRA.REPUL>
0

>  <SCORE.INTRA.REPUL.0>
0

>  <SCORE.INTRA.SOLV>
0

>  <SCORE.INTRA.SOLV.lig_0>
-28.9128

>  <SCORE.INTRA.VDW>
0

>  <SCORE.INTRA.VDW.0>
0

>  <SCORE.INTRA.norm>
0

>  <SCORE.RESTR>
0

>  <SCORE.RESTR.CAVITY>
0

>  <SCORE.RESTR.norm>
0

>  <SCORE.SYSTEM>
0

>  <SCORE.SYSTEM.CONST>
0

>  <SCORE.SYSTEM.DIHEDRAL>
0

>  <SCORE.SYSTEM.SOLV>
0

>  <SCORE.SYSTEM.norm>
0

>  <SCORE.heavy>
12

>  <SCORE.norm>
-1.43979

>  <RMSD>
2.964

$$$$
ligand
 OpenBabel11021811503D
libRbt.so/2013.1/901 2013/11/27
 12 13  0  0  0  0  0  0  0  0999 V2000
   29.4977   16.0971   16.0458 C   0  0  0  0  0  0  0  0  0  0  0  0
   30.9421   17.7747   15.0849 C   0  0  0  0  0  0  0  0  0  0  0  0
   28.7927   14.9768   15.9395 N   0  0  0  0  0  0  0  0  0  0  0  0
   29.5354   16.7300   17.2228 N   0  0  0  0  0  0  0  0  0  0  0  0
   30.2060   16.6041   14.9404 N   0  0  0  0  0  0  0  0  0  0  0  0
   31.5576   18.2196   14.1122 O   0  0  0  0  0  0  0  0  0  0  0  0
   31.6597   20.2032   17.7863 N   0  0  0  0  0  0  0  0  0  0  0  0
   30.9286   19.6324   18.8398 C   0  0  0  0  0  0  0  0  0  0  0  0
   30.2155   18.4394   18.6174 N   0  0  0  0  0  0  0  0  0  0  0  0
   30.2230   17.8656   17.3976 C   0  0  0  0  0  0  0  0  0  0  0  0
   30.9475   18.4108   16.3289 C   0  0  0  0  0  0  0  0  0  0  0  0
   31.6633   19.5846   16.5131 C   0  0  0  0  0  0  0  0  0  0  0  0
  1  3  1  0  0  0  0
  1  4  2  0  0  0  0
  1  5  1  0  0  0  0
  2  6  2  0  0  0  0
  2 11  1  0  0  0  0
  2  5  1  0  0  0  0
  4 10  1  0  0  0  0
  7  8  2  0  0  0  0
  7 12  1  0  0  0  0
  8  9  1  0  0  0  0
  9 10  2  0  0  0  0
 10 11  1  0  0  0  0
 11 12  2  0  0  0  0
M  END
>  <CHROM.1>
30.51313896,17.85602980,16.52804370,2.19247352,-0.93144418,-2.03279812

>  <Name>
ligand

>  <RI>
0

>  <Rbt.Current_Directory>
/home/itssahil/PROJECTS/Mol_Feturizer/New_Systems/rnas/4LX6

>  <Rbt.Executable>
rbdock ($Id: //depot/dev/client3/rdock/2013.1/src/exe/rbdock.cxx#4 $)

>  <Rbt.Library>
libRbt.so (2013.1, Build901 2013/11/27)

>  <Rbt.Parameter_File>
/export/apps/rDock/src/rDock_2013.1_src/data/scripts/dock_solv.prm

>  <Rbt.Receptor>
prm/blind_docking_60.prm

>  <SCORE>
-17.2936

>  <SCORE.INTER>
-17.2936

>  <SCORE.INTER.CONST>
1

>  <SCORE.INTER.POLAR>
0

>  <SCORE.INTER.ROT>
0

>  <SCORE.INTER.SOLV>
10.6741

>  <SCORE.INTER.VDW>
-18.6871

>  <SCORE.INTER.norm>
-1.44114

>  <SCORE.INTRA>
0

>  <SCORE.INTRA.DIHEDRAL>
0

>  <SCORE.INTRA.DIHEDRAL.0>
0

>  <SCORE.INTRA.POLAR>
0

>  <SCORE.INTRA.POLAR.0>
0

>  <SCORE.INTRA.REPUL>
0

>  <SCORE.INTRA.REPUL.0>
0

>  <SCORE.INTRA.SOLV>
0

>  <SCORE.INTRA.SOLV.lig_0>
-28.9128

>  <SCORE.INTRA.VDW>
0

>  <SCORE.INTRA.VDW.0>
0

>  <SCORE.INTRA.norm>
0

>  <SCORE.RESTR>
0

>  <SCORE.RESTR.CAVITY>
0

>  <SCORE.RESTR.norm>
0

>  <SCORE.SYSTEM>
0

>  <SCORE.SYSTEM.CONST>
0

>  <SCORE.SYSTEM.DIHEDRAL>
0

>  <SCORE.SYSTEM.SOLV>
0

>  <SCORE.SYSTEM.norm>
0

>  <SCORE.heavy>
12

>  <SCORE.norm>
-1.44114

>  <RMSD>
2.964

$$$$
ligand
 OpenBabel11021811503D
libRbt.so/2013.1/901 2013/11/27
 12 13  0  0  0  0  0  0  0  0999 V2000
   29.4965   16.0878   16.0370 C   0  0  0  0  0  0  0  0  0  0  0  0
   30.9684   17.7478   15.0874 C   0  0  0  0  0  0  0  0  0  0  0  0
   28.7815   14.9743   15.9262 N   0  0  0  0  0  0  0  0  0  0  0  0
   29.5270   16.7241   17.2124 N   0  0  0  0  0  0  0  0  0  0  0  0
   30.2224   16.5841   14.9382 N   0  0  0  0  0  0  0  0  0  0  0  0
   31.5995   18.1834   14.1204 O   0  0  0  0  0  0  0  0  0  0  0  0
   31.6795   20.1777   17.7892 N   0  0  0  0  0  0  0  0  0  0  0  0
   30.9308   19.6177   18.8361 C   0  0  0  0  0  0  0  0  0  0  0  0
   30.2084   18.4312   18.6093 N   0  0  0  0  0  0  0  0  0  0  0  0
   30.2240   17.8533   17.3915 C   0  0  0  0  0  0  0  0  0  0  0  0
   30.9661   18.3878   16.3294 C   0  0  0  0  0  0  0  0  0  0  0  0
   31.6914   19.5550   16.5181 C   0  0  0  0  0  0  0  0  0  0  0  0
  1  3  1  0  0  0  0
  1  4  2  0  0  0  0
  1  5  1  0  0  0  0
  2  6  2  0  0  0  0
  2 11  1  0  0  0  0
  2  5  1  0  0  0  0
  4 10  1  0  0  0  0
  7  8  2  0  0  0  0
  7 12  1  0  0  0  0
  8  9  1  0  0  0  0
  9 10  2  0  0  0  0
 10 11  1  0  0  0  0
 11 12  2  0  0  0  0
M  END
>  <CHROM.1>
30.52392213,17.83807178,16.52530232,2.18303931,-0.91735355,-2.04352361

>  <Name>
ligand

>  <RI>
0

>  <Rbt.Current_Directory>
/home/itssahil/PROJECTS/Mol_Feturizer/New_Systems/rnas/4LX6

>  <Rbt.Executable>
rbdock ($Id: //depot/dev/client3/rdock/2013.1/src/exe/rbdock.cxx#4 $)

>  <Rbt.Library>
libRbt.so (2013.1, Build901 2013/11/27)

>  <Rbt.Parameter_File>
/export/apps/rDock/src/rDock_2013.1_src/data/scripts/dock_solv.prm

>  <Rbt.Receptor>
prm/blind_docking_60.prm

>  <SCORE>
-17.3087

>  <SCORE.INTER>
-17.3087

>  <SCORE.INTER.CONST>
1

>  <SCORE.INTER.POLAR>
0

>  <SCORE.INTER.ROT>
0

>  <SCORE.INTER.SOLV>
10.6405

>  <SCORE.INTER.VDW>
-18.686

>  <SCORE.INTER.norm>
-1.44239

>  <SCORE.INTRA>
0

>  <SCORE.INTRA.DIHEDRAL>
0

>  <SCORE.INTRA.DIHEDRAL.0>
0

>  <SCORE.INTRA.POLAR>
0

>  <SCORE.INTRA.POLAR.0>
0

>  <SCORE.INTRA.REPUL>
0

>  <SCORE.INTRA.REPUL.0>
0

>  <SCORE.INTRA.SOLV>
0

>  <SCORE.INTRA.SOLV.lig_0>
-28.9128

>  <SCORE.INTRA.VDW>
0

>  <SCORE.INTRA.VDW.0>
0

>  <SCORE.INTRA.norm>
0

>  <SCORE.RESTR>
0

>  <SCORE.RESTR.CAVITY>
0

>  <SCORE.RESTR.norm>
0

>  <SCORE.SYSTEM>
0

>  <SCORE.SYSTEM.CONST>
0

>  <SCORE.SYSTEM.DIHEDRAL>
0

>  <SCORE.SYSTEM.SOLV>
0

>  <SCORE.SYSTEM.norm>
0

>  <SCORE.heavy>
12

>  <SCORE.norm>
-1.44239

>  <RMSD>
2.964

$$$$
ligand
 OpenBabel11021811503D
libRbt.so/2013.1/901 2013/11/27
 12 13  0  0  0  0  0  0  0  0999 V2000
   29.5024   16.1011   16.0500 C   0  0  0  0  0  0  0  0  0  0  0  0
   30.9391   17.7803   15.0804 C   0  0  0  0  0  0  0  0  0  0  0  0
   28.7984   14.9797   15.9481 N   0  0  0  0  0  0  0  0  0  0  0  0
   29.5458   16.7344   17.2266 N   0  0  0  0  0  0  0  0  0  0  0  0
   30.2038   16.6086   14.9405 N   0  0  0  0  0  0  0  0  0  0  0  0
   31.5486   18.2257   14.1042 O   0  0  0  0  0  0  0  0  0  0  0  0
   31.6685   20.2107   17.7769 N   0  0  0  0  0  0  0  0  0  0  0  0
   30.9441   19.6393   18.8348 C   0  0  0  0  0  0  0  0  0  0  0  0
   30.2315   18.4452   18.6168 N   0  0  0  0  0  0  0  0  0  0  0  0
   30.2329   17.8710   17.3972 C   0  0  0  0  0  0  0  0  0  0  0  0
   30.9507   18.4168   16.3242 C   0  0  0  0  0  0  0  0  0  0  0  0
   31.6658   19.5917   16.5040 C   0  0  0  0  0  0  0  0  0  0  0  0
  1  3  1  0  0  0  0
  1  4  2  0  0  0  0
  1  5  1  0  0  0  0
  2  6  2  0  0  0  0
  2 11  1  0  0  0  0
  2  5  1  0  0  0  0
  4 10  1  0  0  0  0
  7  8  2  0  0  0  0
  7 12  1  0  0  0  0
  8  9  1  0  0  0  0
  9 10  2  0  0  0  0
 10 11  1  0  0  0  0
 11 12  2  0  0  0  0
M  END
>  <CHROM.1>
30.51815165,17.86153190,16.52596427,2.19990127,-0.93514246,-2.02718091

>  <Name>
ligand

>  <RI>
0

>  <Rbt.Current_Directory>
/home/itssahil/PROJECTS/Mol_Feturizer/New_Systems/rnas/4LX6

>  <Rbt.Executable>
rbdock ($Id: //depot/dev/client3/rdock/2013.1/src/exe/rbdock.cxx#4 $)

>  <Rbt.Library>
libRbt.so (2013.1, Build901 2013/11/27)

>  <Rbt.Parameter_File>
/export/apps/rDock/src/rDock_2013.1_src/data/scripts/dock_solv.prm

>  <Rbt.Receptor>
prm/blind_docking_80.prm

>  <SCORE>
-17.2989

>  <SCORE.INTER>
-17.2989

>  <SCORE.INTER.CONST>
1

>  <SCORE.INTER.POLAR>
0

>  <SCORE.INTER.ROT>
0

>  <SCORE.INTER.SOLV>
10.6942

>  <SCORE.INTER.VDW>
-18.6973

>  <SCORE.INTER.norm>
-1.44157

>  <SCORE.INTRA>
0

>  <SCORE.INTRA.DIHEDRAL>
0

>  <SCORE.INTRA.DIHEDRAL.0>
0

>  <SCORE.INTRA.POLAR>
0

>  <SCORE.INTRA.POLAR.0>
0

>  <SCORE.INTRA.REPUL>
0

>  <SCORE.INTRA.REPUL.0>
0

>  <SCORE.INTRA.SOLV>
0

>  <SCORE.INTRA.SOLV.lig_0>
-28.9128

>  <SCORE.INTRA.VDW>
0

>  <SCORE.INTRA.VDW.0>
0

>  <SCORE.INTRA.norm>
0

>  <SCORE.RESTR>
0

>  <SCORE.RESTR.CAVITY>
0

>  <SCORE.RESTR.norm>
0

>  <SCORE.SYSTEM>
0

>  <SCORE.SYSTEM.CONST>
0

>  <SCORE.SYSTEM.DIHEDRAL>
0

>  <SCORE.SYSTEM.SOLV>
0

>  <SCORE.SYSTEM.norm>
0

>  <SCORE.heavy>
12

>  <SCORE.norm>
-1.44157

>  <RMSD>
2.964

$$$$
ligand
 OpenBabel11021811503D
libRbt.so/2013.1/901 2013/11/27
 12 13  0  0  0  0  0  0  0  0999 V2000
   29.4844   16.1178   16.0386 C   0  0  0  0  0  0  0  0  0  0  0  0
   30.9700   17.7661   15.0898 C   0  0  0  0  0  0  0  0  0  0  0  0
   28.7547   15.0141   15.9252 N   0  0  0  0  0  0  0  0  0  0  0  0
   29.5317   16.7451   17.2182 N   0  0  0  0  0  0  0  0  0  0  0  0
   30.2082   16.6129   14.9379 N   0  0  0  0  0  0  0  0  0  0  0  0
   31.5992   18.2007   14.1212 O   0  0  0  0  0  0  0  0  0  0  0  0
   31.7317   20.1672   17.8034 N   0  0  0  0  0  0  0  0  0  0  0  0
   30.9838   19.6090   18.8519 C   0  0  0  0  0  0  0  0  0  0  0  0
   30.2449   18.4333   18.6221 N   0  0  0  0  0  0  0  0  0  0  0  0
   30.2441   17.8642   17.4001 C   0  0  0  0  0  0  0  0  0  0  0  0
   30.9850   18.3971   16.3363 C   0  0  0  0  0  0  0  0  0  0  0  0
   31.7263   19.5537   16.5278 C   0  0  0  0  0  0  0  0  0  0  0  0
  1  3  1  0  0  0  0
  1  4  2  0  0  0  0
  1  5  1  0  0  0  0
  2  6  2  0  0  0  0
  2 11  1  0  0  0  0
  2  5  1  0  0  0  0
  4 10  1  0  0  0  0
  7  8  2  0  0  0  0
  7 12  1  0  0  0  0
  8  9  1  0  0  0  0
  9 10  2  0  0  0  0
 10 11  1  0  0  0  0
 11 12  2  0  0  0  0
M  END
>  <CHROM.1>
30.53737132,17.85146517,16.53159946,2.20318935,-0.90947572,-2.02036351

>  <Name>
ligand

>  <RI>
0

>  <Rbt.Current_Directory>
/home/itssahil/PROJECTS/Mol_Feturizer/New_Systems/rnas/4LX6

>  <Rbt.Executable>
rbdock ($Id: //depot/dev/client3/rdock/2013.1/src/exe/rbdock.cxx#4 $)

>  <Rbt.Library>
libRbt.so (2013.1, Build901 2013/11/27)

>  <Rbt.Parameter_File>
/export/apps/rDock/src/rDock_2013.1_src/data/scripts/dock_solv.prm

>  <Rbt.Receptor>
prm/pocket_docking_3.prm

>  <SCORE>
-17.2744

>  <SCORE.INTER>
-17.2744

>  <SCORE.INTER.CONST>
1

>  <SCORE.INTER.POLAR>
0

>  <SCORE.INTER.ROT>
0

>  <SCORE.INTER.SOLV>
10.4763

>  <SCORE.INTER.VDW>
-18.6084

>  <SCORE.INTER.norm>
-1.43954

>  <SCORE.INTRA>
0

>  <SCORE.INTRA.DIHEDRAL>
0

>  <SCORE.INTRA.DIHEDRAL.0>
0

>  <SCORE.INTRA.POLAR>
0

>  <SCORE.INTRA.POLAR.0>
0

>  <SCORE.INTRA.REPUL>
0

>  <SCORE.INTRA.REPUL.0>
0

>  <SCORE.INTRA.SOLV>
0

>  <SCORE.INTRA.SOLV.lig_0>
-28.9128

>  <SCORE.INTRA.VDW>
0

>  <SCORE.INTRA.VDW.0>
0

>  <SCORE.INTRA.norm>
0

>  <SCORE.RESTR>
0

>  <SCORE.RESTR.CAVITY>
0

>  <SCORE.RESTR.norm>
0

>  <SCORE.SYSTEM>
0

>  <SCORE.SYSTEM.CONST>
0

>  <SCORE.SYSTEM.DIHEDRAL>
0

>  <SCORE.SYSTEM.SOLV>
0

>  <SCORE.SYSTEM.norm>
0

>  <SCORE.heavy>
12

>  <SCORE.norm>
-1.43954

>  <RMSD>
2.964

$$$$
ligand
 OpenBabel11021811503D
libRbt.so/2013.1/901 2013/11/27
 12 13  0  0  0  0  0  0  0  0999 V2000
   29.5042   16.0863   16.0413 C   0  0  0  0  0  0  0  0  0  0  0  0
   30.9712   17.7491   15.0889 C   0  0  0  0  0  0  0  0  0  0  0  0
   28.7914   14.9712   15.9319 N   0  0  0  0  0  0  0  0  0  0  0  0
   29.5354   16.7229   17.2165 N   0  0  0  0  0  0  0  0  0  0  0  0
   30.2273   16.5839   14.9412 N   0  0  0  0  0  0  0  0  0  0  0  0
   31.5998   18.1858   14.1208 O   0  0  0  0  0  0  0  0  0  0  0  0
   31.6817   20.1810   17.7891 N   0  0  0  0  0  0  0  0  0  0  0  0
   30.9359   19.6197   18.8373 C   0  0  0  0  0  0  0  0  0  0  0  0
   30.2156   18.4316   18.6120 N   0  0  0  0  0  0  0  0  0  0  0  0
   30.2303   17.8536   17.3943 C   0  0  0  0  0  0  0  0  0  0  0  0
   30.9696   18.3894   16.3308 C   0  0  0  0  0  0  0  0  0  0  0  0
   31.6928   19.5581   16.5181 C   0  0  0  0  0  0  0  0  0  0  0  0
  1  3  1  0  0  0  0
  1  4  2  0  0  0  0
  1  5  1  0  0  0  0
  2  6  2  0  0  0  0
  2 11  1  0  0  0  0
  2  5  1  0  0  0  0
  4 10  1  0  0  0  0
  7  8  2  0  0  0  0
  7 12  1  0  0  0  0
  8  9  1  0  0  0  0
  9 10  2  0  0  0  0
 10 11  1  0  0  0  0
 11 12  2  0  0  0  0
M  END
>  <CHROM.1>
30.52887261,17.83876081,16.52756662,2.18391648,-0.91994628,-2.04302148

>  <Name>
ligand

>  <RI>
0

>  <Rbt.Current_Directory>
/home/itssahil/PROJECTS/Mol_Feturizer/New_Systems/rnas/4LX6

>  <Rbt.Executable>
rbdock ($Id: //depot/dev/client3/rdock/2013.1/src/exe/rbdock.cxx#4 $)

>  <Rbt.Library>
libRbt.so (2013.1, Build901 2013/11/27)

>  <Rbt.Parameter_File>
/export/apps/rDock/src/rDock_2013.1_src/data/scripts/dock_solv.prm

>  <Rbt.Receptor>
prm/pocket_docking_3.prm

>  <SCORE>
-17.3082

>  <SCORE.INTER>
-17.3082

>  <SCORE.INTER.CONST>
1

>  <SCORE.INTER.POLAR>
0

>  <SCORE.INTER.ROT>
0

>  <SCORE.INTER.SOLV>
10.684

>  <SCORE.INTER.VDW>
-18.7001

>  <SCORE.INTER.norm>
-1.44235

>  <SCORE.INTRA>
0

>  <SCORE.INTRA.DIHEDRAL>
0

>  <SCORE.INTRA.DIHEDRAL.0>
0

>  <SCORE.INTRA.POLAR>
0

>  <SCORE.INTRA.POLAR.0>
0

>  <SCORE.INTRA.REPUL>
0

>  <SCORE.INTRA.REPUL.0>
0

>  <SCORE.INTRA.SOLV>
0

>  <SCORE.INTRA.SOLV.lig_0>
-28.9128

>  <SCORE.INTRA.VDW>
0

>  <SCORE.INTRA.VDW.0>
0

>  <SCORE.INTRA.norm>
0

>  <SCORE.RESTR>
0

>  <SCORE.RESTR.CAVITY>
0

>  <SCORE.RESTR.norm>
0

>  <SCORE.SYSTEM>
0

>  <SCORE.SYSTEM.CONST>
0

>  <SCORE.SYSTEM.DIHEDRAL>
0

>  <SCORE.SYSTEM.SOLV>
0

>  <SCORE.SYSTEM.norm>
0

>  <SCORE.heavy>
12

>  <SCORE.norm>
-1.44235

>  <RMSD>
2.964

$$$$
ligand
 OpenBabel11021811503D
libRbt.so/2013.1/901 2013/11/27
 12 13  0  0  0  0  0  0  0  0999 V2000
   29.4975   16.1023   16.0451 C   0  0  0  0  0  0  0  0  0  0  0  0
   30.9443   17.7769   15.0825 C   0  0  0  0  0  0  0  0  0  0  0  0
   28.7906   14.9831   15.9398 N   0  0  0  0  0  0  0  0  0  0  0  0
   29.5364   16.7360   17.2216 N   0  0  0  0  0  0  0  0  0  0  0  0
   30.2063   16.6073   14.9391 N   0  0  0  0  0  0  0  0  0  0  0  0
   31.5604   18.2200   14.1093 O   0  0  0  0  0  0  0  0  0  0  0  0
   31.6666   20.2062   17.7818 N   0  0  0  0  0  0  0  0  0  0  0  0
   30.9348   19.6374   18.8360 C   0  0  0  0  0  0  0  0  0  0  0  0
   30.2198   18.4454   18.6147 N   0  0  0  0  0  0  0  0  0  0  0  0
   30.2260   17.8706   17.3954 C   0  0  0  0  0  0  0  0  0  0  0  0
   30.9511   18.4139   16.3260 C   0  0  0  0  0  0  0  0  0  0  0  0
   31.6688   19.5867   16.5091 C   0  0  0  0  0  0  0  0  0  0  0  0
  1  3  1  0  0  0  0
  1  4  2  0  0  0  0
  1  5  1  0  0  0  0
  2  6  2  0  0  0  0
  2 11  1  0  0  0  0
  2  5  1  0  0  0  0
  4 10  1  0  0  0  0
  7  8  2  0  0  0  0
  7 12  1  0  0  0  0
  8  9  1  0  0  0  0
  9 10  2  0  0  0  0
 10 11  1  0  0  0  0
 11 12  2  0  0  0  0
M  END
>  <CHROM.1>
30.51587980,17.85996833,16.52570132,2.19406906,-0.93008912,-2.03228638

>  <Name>
ligand

>  <RI>
0

>  <Rbt.Current_Directory>
/home/itssahil/PROJECTS/Mol_Feturizer/New_Systems/rnas/4LX6

>  <Rbt.Executable>
rbdock ($Id: //depot/dev/client3/rdock/2013.1/src/exe/rbdock.cxx#4 $)

>  <Rbt.Library>
libRbt.so (2013.1, Build901 2013/11/27)

>  <Rbt.Parameter_File>
/export/apps/rDock/src/rDock_2013.1_src/data/scripts/dock_solv.prm

>  <Rbt.Receptor>
prm/pocket_docking_3.prm

>  <SCORE>
-17.2955

>  <SCORE.INTER>
-17.2955

>  <SCORE.INTER.CONST>
1

>  <SCORE.INTER.POLAR>
0

>  <SCORE.INTER.ROT>
0

>  <SCORE.INTER.SOLV>
10.661

>  <SCORE.INTER.VDW>
-18.684

>  <SCORE.INTER.norm>
-1.44129

>  <SCORE.INTRA>
0

>  <SCORE.INTRA.DIHEDRAL>
0

>  <SCORE.INTRA.DIHEDRAL.0>
0

>  <SCORE.INTRA.POLAR>
0

>  <SCORE.INTRA.POLAR.0>
0

>  <SCORE.INTRA.REPUL>
0

>  <SCORE.INTRA.REPUL.0>
0

>  <SCORE.INTRA.SOLV>
0

>  <SCORE.INTRA.SOLV.lig_0>
-28.9128

>  <SCORE.INTRA.VDW>
0

>  <SCORE.INTRA.VDW.0>
0

>  <SCORE.INTRA.norm>
0

>  <SCORE.RESTR>
0

>  <SCORE.RESTR.CAVITY>
0

>  <SCORE.RESTR.norm>
0

>  <SCORE.SYSTEM>
0

>  <SCORE.SYSTEM.CONST>
0

>  <SCORE.SYSTEM.DIHEDRAL>
0

>  <SCORE.SYSTEM.SOLV>
0

>  <SCORE.SYSTEM.norm>
0

>  <SCORE.heavy>
12

>  <SCORE.norm>
-1.44129

>  <RMSD>
2.964

$$$$
ligand
 OpenBabel11021811503D
libRbt.so/2013.1/901 2013/11/27
 12 13  0  0  0  0  0  0  0  0999 V2000
   29.4997   16.1152   16.0442 C   0  0  0  0  0  0  0  0  0  0  0  0
   30.9447   17.8006   15.0980 C   0  0  0  0  0  0  0  0  0  0  0  0
   28.7938   14.9963   15.9279 N   0  0  0  0  0  0  0  0  0  0  0  0
   29.5383   16.7371   17.2269 N   0  0  0  0  0  0  0  0  0  0  0  0
   30.2078   16.6319   14.9432 N   0  0  0  0  0  0  0  0  0  0  0  0
   31.5600   18.2540   14.1291 O   0  0  0  0  0  0  0  0  0  0  0  0
   31.6653   20.2036   17.8213 N   0  0  0  0  0  0  0  0  0  0  0  0
   30.9343   19.6236   18.8699 C   0  0  0  0  0  0  0  0  0  0  0  0
   30.2203   18.4332   18.6369 N   0  0  0  0  0  0  0  0  0  0  0  0
   30.2268   17.8706   17.4119 C   0  0  0  0  0  0  0  0  0  0  0  0
   30.9512   18.4252   16.3478 C   0  0  0  0  0  0  0  0  0  0  0  0
   31.6678   19.5968   16.5425 C   0  0  0  0  0  0  0  0  0  0  0  0
  1  3  1  0  0  0  0
  1  4  2  0  0  0  0
  1  5  1  0  0  0  0
  2  6  2  0  0  0  0
  2 11  1  0  0  0  0
  2  5  1  0  0  0  0
  4 10  1  0  0  0  0
  7  8  2  0  0  0  0
  7 12  1  0  0  0  0
  8  9  1  0  0  0  0
  9 10  2  0  0  0  0
 10 11  1  0  0  0  0
 11 12  2  0  0  0  0
M  END
>  <CHROM.1>
30.51650950,17.86889976,16.54208798,2.19372226,-0.93106299,-2.02258229

>  <Name>
ligand

>  <RI>
0

>  <Rbt.Current_Directory>
/home/itssahil/PROJECTS/Mol_Feturizer/New_Systems/rnas/4LX6

>  <Rbt.Executable>
rbdock ($Id: //depot/dev/client3/rdock/2013.1/src/exe/rbdock.cxx#4 $)

>  <Rbt.Library>
libRbt.so (2013.1, Build901 2013/11/27)

>  <Rbt.Parameter_File>
/export/apps/rDock/src/rDock_2013.1_src/data/scripts/dock_solv.prm

>  <Rbt.Receptor>
prm/pocket_docking_4.prm

>  <SCORE>
-17.2835

>  <SCORE.INTER>
-17.2835

>  <SCORE.INTER.CONST>
1

>  <SCORE.INTER.POLAR>
0

>  <SCORE.INTER.ROT>
0

>  <SCORE.INTER.SOLV>
10.6374

>  <SCORE.INTER.VDW>
-18.6681

>  <SCORE.INTER.norm>
-1.44029

>  <SCORE.INTRA>
0

>  <SCORE.INTRA.DIHEDRAL>
0

>  <SCORE.INTRA.DIHEDRAL.0>
0

>  <SCORE.INTRA.POLAR>
0

>  <SCORE.INTRA.POLAR.0>
0

>  <SCORE.INTRA.REPUL>
0

>  <SCORE.INTRA.REPUL.0>
0

>  <SCORE.INTRA.SOLV>
0

>  <SCORE.INTRA.SOLV.lig_0>
-28.9128

>  <SCORE.INTRA.VDW>
0

>  <SCORE.INTRA.VDW.0>
0

>  <SCORE.INTRA.norm>
0

>  <SCORE.RESTR>
0

>  <SCORE.RESTR.CAVITY>
0

>  <SCORE.RESTR.norm>
0

>  <SCORE.SYSTEM>
0

>  <SCORE.SYSTEM.CONST>
0

>  <SCORE.SYSTEM.DIHEDRAL>
0

>  <SCORE.SYSTEM.SOLV>
0

>  <SCORE.SYSTEM.norm>
0

>  <SCORE.heavy>
12

>  <SCORE.norm>
-1.44029

>  <RMSD>
2.964

$$$$
ligand
 OpenBabel11021811503D
libRbt.so/2013.1/901 2013/11/27
 12 13  0  0  0  0  0  0  0  0999 V2000
   29.5086   16.0843   16.0437 C   0  0  0  0  0  0  0  0  0  0  0  0
   30.9709   17.7495   15.0884 C   0  0  0  0  0  0  0  0  0  0  0  0
   28.7977   14.9679   15.9359 N   0  0  0  0  0  0  0  0  0  0  0  0
   29.5405   16.7214   17.2186 N   0  0  0  0  0  0  0  0  0  0  0  0
   30.2289   16.5828   14.9423 N   0  0  0  0  0  0  0  0  0  0  0  0
   31.5970   18.1870   14.1191 O   0  0  0  0  0  0  0  0  0  0  0  0
   31.6813   20.1838   17.7864 N   0  0  0  0  0  0  0  0  0  0  0  0
   30.9382   19.6214   18.8361 C   0  0  0  0  0  0  0  0  0  0  0  0
   30.2197   18.4320   18.6124 N   0  0  0  0  0  0  0  0  0  0  0  0
   30.2336   17.8535   17.3948 C   0  0  0  0  0  0  0  0  0  0  0  0
   30.9701   18.3903   16.3300 C   0  0  0  0  0  0  0  0  0  0  0  0
   31.6914   19.5604   16.5156 C   0  0  0  0  0  0  0  0  0  0  0  0
  1  3  1  0  0  0  0
  1  4  2  0  0  0  0
  1  5  1  0  0  0  0
  2  6  2  0  0  0  0
  2 11  1  0  0  0  0
  2  5  1  0  0  0  0
  4 10  1  0  0  0  0
  7  8  2  0  0  0  0
  7 12  1  0  0  0  0
  8  9  1  0  0  0  0
  9 10  2  0  0  0  0
 10 11  1  0  0  0  0
 11 12  2  0  0  0  0
M  END
>  <CHROM.1>
30.53074530,17.83889560,16.52766427,2.18490097,-0.92236677,-2.04261882

>  <Name>
ligand

>  <RI>
0

>  <Rbt.Current_Directory>
/home/itssahil/PROJECTS/Mol_Feturizer/New_Systems/rnas/4LX6

>  <Rbt.Executable>
rbdock ($Id: //depot/dev/client3/rdock/2013.1/src/exe/rbdock.cxx#4 $)

>  <Rbt.Library>
libRbt.so (2013.1, Build901 2013/11/27)

>  <Rbt.Parameter_File>
/export/apps/rDock/src/rDock_2013.1_src/data/scripts/dock_solv.prm

>  <Rbt.Receptor>
prm/pocket_docking_4.prm

>  <SCORE>
-17.308

>  <SCORE.INTER>
-17.308

>  <SCORE.INTER.CONST>
1

>  <SCORE.INTER.POLAR>
0

>  <SCORE.INTER.ROT>
0

>  <SCORE.INTER.SOLV>
10.7135

>  <SCORE.INTER.VDW>
-18.7098

>  <SCORE.INTER.norm>
-1.44233

>  <SCORE.INTRA>
0

>  <SCORE.INTRA.DIHEDRAL>
0

>  <SCORE.INTRA.DIHEDRAL.0>
0

>  <SCORE.INTRA.POLAR>
0

>  <SCORE.INTRA.POLAR.0>
0

>  <SCORE.INTRA.REPUL>
0

>  <SCORE.INTRA.REPUL.0>
0

>  <SCORE.INTRA.SOLV>
0

>  <SCORE.INTRA.SOLV.lig_0>
-28.9128

>  <SCORE.INTRA.VDW>
0

>  <SCORE.INTRA.VDW.0>
0

>  <SCORE.INTRA.norm>
0

>  <SCORE.RESTR>
0

>  <SCORE.RESTR.CAVITY>
0

>  <SCORE.RESTR.norm>
0

>  <SCORE.SYSTEM>
0

>  <SCORE.SYSTEM.CONST>
0

>  <SCORE.SYSTEM.DIHEDRAL>
0

>  <SCORE.SYSTEM.SOLV>
0

>  <SCORE.SYSTEM.norm>
0

>  <SCORE.heavy>
12

>  <SCORE.norm>
-1.44233

>  <RMSD>
2.964

$$$$
ligand
 OpenBabel11021811503D
libRbt.so/2013.1/901 2013/11/27
 12 13  0  0  0  0  0  0  0  0999 V2000
   29.4970   16.1023   16.0456 C   0  0  0  0  0  0  0  0  0  0  0  0
   30.9468   17.7750   15.0844 C   0  0  0  0  0  0  0  0  0  0  0  0
   28.7876   14.9847   15.9392 N   0  0  0  0  0  0  0  0  0  0  0  0
   29.5383   16.7341   17.2230 N   0  0  0  0  0  0  0  0  0  0  0  0
   30.2061   16.6073   14.9399 N   0  0  0  0  0  0  0  0  0  0  0  0
   31.5630   18.2183   14.1114 O   0  0  0  0  0  0  0  0  0  0  0  0
   31.6764   20.1988   17.7868 N   0  0  0  0  0  0  0  0  0  0  0  0
   30.9442   19.6300   18.8407 C   0  0  0  0  0  0  0  0  0  0  0  0
   30.2264   18.4399   18.6182 N   0  0  0  0  0  0  0  0  0  0  0  0
   30.2304   17.8669   17.3980 C   0  0  0  0  0  0  0  0  0  0  0  0
   30.9560   18.4102   16.3289 C   0  0  0  0  0  0  0  0  0  0  0  0
   31.6764   19.5811   16.5132 C   0  0  0  0  0  0  0  0  0  0  0  0
  1  3  1  0  0  0  0
  1  4  2  0  0  0  0
  1  5  1  0  0  0  0
  2  6  2  0  0  0  0
  2 11  1  0  0  0  0
  2  5  1  0  0  0  0
  4 10  1  0  0  0  0
  7  8  2  0  0  0  0
  7 12  1  0  0  0  0
  8  9  1  0  0  0  0
  9 10  2  0  0  0  0
 10 11  1  0  0  0  0
 11 12  2  0  0  0  0
M  END
>  <CHROM.1>
30.51963889,17.85693020,16.52808277,2.19684301,-0.92847045,-2.02857051

>  <Name>
ligand

>  <RI>
0

>  <Rbt.Current_Directory>
/home/itssahil/PROJECTS/Mol_Feturizer/New_Systems/rnas/4LX6

>  <Rbt.Executable>
rbdock ($Id: //depot/dev/client3/rdock/2013.1/src/exe/rbdock.cxx#4 $)

>  <Rbt.Library>
libRbt.so (2013.1, Build901 2013/11/27)

>  <Rbt.Parameter_File>
/export/apps/rDock/src/rDock_2013.1_src/data/scripts/dock_solv.prm

>  <Rbt.Receptor>
prm/pocket_docking_4.prm

>  <SCORE>
-17.2948

>  <SCORE.INTER>
-17.2948

>  <SCORE.INTER.CONST>
1

>  <SCORE.INTER.POLAR>
0

>  <SCORE.INTER.ROT>
0

>  <SCORE.INTER.SOLV>
10.6449

>  <SCORE.INTER.VDW>
-18.6782

>  <SCORE.INTER.norm>
-1.44123

>  <SCORE.INTRA>
0

>  <SCORE.INTRA.DIHEDRAL>
0

>  <SCORE.INTRA.DIHEDRAL.0>
0

>  <SCORE.INTRA.POLAR>
0

>  <SCORE.INTRA.POLAR.0>
0

>  <SCORE.INTRA.REPUL>
0

>  <SCORE.INTRA.REPUL.0>
0

>  <SCORE.INTRA.SOLV>
0

>  <SCORE.INTRA.SOLV.lig_0>
-28.9128

>  <SCORE.INTRA.VDW>
0

>  <SCORE.INTRA.VDW.0>
0

>  <SCORE.INTRA.norm>
0

>  <SCORE.RESTR>
0

>  <SCORE.RESTR.CAVITY>
0

>  <SCORE.RESTR.norm>
0

>  <SCORE.SYSTEM>
0

>  <SCORE.SYSTEM.CONST>
0

>  <SCORE.SYSTEM.DIHEDRAL>
0

>  <SCORE.SYSTEM.SOLV>
0

>  <SCORE.SYSTEM.norm>
0

>  <SCORE.heavy>
12

>  <SCORE.norm>
-1.44123

>  <RMSD>
2.964

$$$$
ligand
 OpenBabel11021811503D
libRbt.so/2013.1/901 2013/11/27
 12 13  0  0  0  0  0  0  0  0999 V2000
   29.5785   16.0518   16.0536 C   0  0  0  0  0  0  0  0  0  0  0  0
   31.0759   17.7007   15.1246 C   0  0  0  0  0  0  0  0  0  0  0  0
   28.8706   14.9342   15.9382 N   0  0  0  0  0  0  0  0  0  0  0  0
   29.5692   16.7076   17.2185 N   0  0  0  0  0  0  0  0  0  0  0  0
   30.3383   16.5322   14.9708 N   0  0  0  0  0  0  0  0  0  0  0  0
   31.7368   18.1223   14.1714 O   0  0  0  0  0  0  0  0  0  0  0  0
   31.6922   20.1774   17.8071 N   0  0  0  0  0  0  0  0  0  0  0  0
   30.9114   19.6323   18.8384 C   0  0  0  0  0  0  0  0  0  0  0  0
   30.2001   18.4399   18.6081 N   0  0  0  0  0  0  0  0  0  0  0  0
   30.2568   17.8419   17.4013 C   0  0  0  0  0  0  0  0  0  0  0  0
   31.0315   18.3612   16.3550 C   0  0  0  0  0  0  0  0  0  0  0  0
   31.7471   19.5338   16.5476 C   0  0  0  0  0  0  0  0  0  0  0  0
  1  3  1  0  0  0  0
  1  4  2  0  0  0  0
  1  5  1  0  0  0  0
  2  6  2  0  0  0  0
  2 11  1  0  0  0  0
  2  5  1  0  0  0  0
  4 10  1  0  0  0  0
  7  8  2  0  0  0  0
  7 12  1  0  0  0  0
  8  9  1  0  0  0  0
  9 10  2  0  0  0  0
 10 11  1  0  0  0  0
 11 12  2  0  0  0  0
M  END
>  <CHROM.1>
30.58472486,17.81332820,16.54563473,2.13423920,-0.90447973,-2.09871379

>  <Name>
ligand

>  <RI>
0

>  <Rbt.Current_Directory>
/home/itssahil/PROJECTS/Mol_Feturizer/New_Systems/rnas/4LX6

>  <Rbt.Executable>
rbdock ($Id: //depot/dev/client3/rdock/2013.1/src/exe/rbdock.cxx#4 $)

>  <Rbt.Library>
libRbt.so (2013.1, Build901 2013/11/27)

>  <Rbt.Parameter_File>
/export/apps/rDock/src/rDock_2013.1_src/data/scripts/dock_solv.prm

>  <Rbt.Receptor>
prm/pocket_docking_4.prm

>  <SCORE>
-17.3467

>  <SCORE.INTER>
-17.3467

>  <SCORE.INTER.CONST>
1

>  <SCORE.INTER.POLAR>
0

>  <SCORE.INTER.ROT>
0

>  <SCORE.INTER.SOLV>
11.0878

>  <SCORE.INTER.VDW>
-18.8604

>  <SCORE.INTER.norm>
-1.44556

>  <SCORE.INTRA>
0

>  <SCORE.INTRA.DIHEDRAL>
0

>  <SCORE.INTRA.DIHEDRAL.0>
0

>  <SCORE.INTRA.POLAR>
0

>  <SCORE.INTRA.POLAR.0>
0

>  <SCORE.INTRA.REPUL>
0

>  <SCORE.INTRA.REPUL.0>
0

>  <SCORE.INTRA.SOLV>
0

>  <SCORE.INTRA.SOLV.lig_0>
-28.9128

>  <SCORE.INTRA.VDW>
0

>  <SCORE.INTRA.VDW.0>
0

>  <SCORE.INTRA.norm>
0

>  <SCORE.RESTR>
0

>  <SCORE.RESTR.CAVITY>
0

>  <SCORE.RESTR.norm>
0

>  <SCORE.SYSTEM>
0

>  <SCORE.SYSTEM.CONST>
0

>  <SCORE.SYSTEM.DIHEDRAL>
0

>  <SCORE.SYSTEM.SOLV>
0

>  <SCORE.SYSTEM.norm>
0

>  <SCORE.heavy>
12

>  <SCORE.norm>
-1.44556

>  <RMSD>
2.964

$$$$
ligand
 OpenBabel11021811503D
libRbt.so/2013.1/901 2013/11/27
 12 13  0  0  0  0  0  0  0  0999 V2000
   29.5057   16.1123   16.0472 C   0  0  0  0  0  0  0  0  0  0  0  0
   30.9422   17.8007   15.0933 C   0  0  0  0  0  0  0  0  0  0  0  0
   28.8016   14.9920   15.9347 N   0  0  0  0  0  0  0  0  0  0  0  0
   29.5495   16.7343   17.2298 N   0  0  0  0  0  0  0  0  0  0  0  0
   30.2068   16.6305   14.9424 N   0  0  0  0  0  0  0  0  0  0  0  0
   31.5514   18.2554   14.1212 O   0  0  0  0  0  0  0  0  0  0  0  0
   31.6725   20.2051   17.8128 N   0  0  0  0  0  0  0  0  0  0  0  0
   30.9484   19.6236   18.8653 C   0  0  0  0  0  0  0  0  0  0  0  0
   30.2356   18.4318   18.6361 N   0  0  0  0  0  0  0  0  0  0  0  0
   30.2366   17.8692   17.4110 C   0  0  0  0  0  0  0  0  0  0  0  0
   30.9541   18.4253   16.3431 C   0  0  0  0  0  0  0  0  0  0  0  0
   31.6694   19.5983   16.5339 C   0  0  0  0  0  0  0  0  0  0  0  0
  1  3  1  0  0  0  0
  1  4  2  0  0  0  0
  1  5  1  0  0  0  0
  2  6  2  0  0  0  0
  2 11  1  0  0  0  0
  2  5  1  0  0  0  0
  4 10  1  0  0  0  0
  7  8  2  0  0  0  0
  7 12  1  0  0  0  0
  8  9  1  0  0  0  0
  9 10  2  0  0  0  0
 10 11  1  0  0  0  0
 11 12  2  0  0  0  0
M  END
>  <CHROM.1>
30.52166297,17.86809671,16.53967900,2.20038249,-0.93523893,-2.01720687

>  <Name>
ligand

>  <RI>
0

>  <Rbt.Current_Directory>
/home/itssahil/PROJECTS/Mol_Feturizer/New_Systems/rnas/4LX6

>  <Rbt.Executable>
rbdock ($Id: //depot/dev/client3/rdock/2013.1/src/exe/rbdock.cxx#4 $)

>  <Rbt.Library>
libRbt.so (2013.1, Build901 2013/11/27)

>  <Rbt.Parameter_File>
/export/apps/rDock/src/rDock_2013.1_src/data/scripts/dock_solv.prm

>  <Rbt.Receptor>
prm/pocket_docking_4.prm

>  <SCORE>
-17.2852

>  <SCORE.INTER>
-17.2852

>  <SCORE.INTER.CONST>
1

>  <SCORE.INTER.POLAR>
0

>  <SCORE.INTER.ROT>
0

>  <SCORE.INTER.SOLV>
10.6731

>  <SCORE.INTER.VDW>
-18.6812

>  <SCORE.INTER.norm>
-1.44043

>  <SCORE.INTRA>
0

>  <SCORE.INTRA.DIHEDRAL>
0

>  <SCORE.INTRA.DIHEDRAL.0>
0

>  <SCORE.INTRA.POLAR>
0

>  <SCORE.INTRA.POLAR.0>
0

>  <SCORE.INTRA.REPUL>
0

>  <SCORE.INTRA.REPUL.0>
0

>  <SCORE.INTRA.SOLV>
0

>  <SCORE.INTRA.SOLV.lig_0>
-28.9128

>  <SCORE.INTRA.VDW>
0

>  <SCORE.INTRA.VDW.0>
0

>  <SCORE.INTRA.norm>
0

>  <SCORE.RESTR>
0

>  <SCORE.RESTR.CAVITY>
0

>  <SCORE.RESTR.norm>
0

>  <SCORE.SYSTEM>
0

>  <SCORE.SYSTEM.CONST>
0

>  <SCORE.SYSTEM.DIHEDRAL>
0

>  <SCORE.SYSTEM.SOLV>
0

>  <SCORE.SYSTEM.norm>
0

>  <SCORE.heavy>
12

>  <SCORE.norm>
-1.44043

>  <RMSD>
2.964

$$$$
ligand
 OpenBabel11021811503D
libRbt.so/2013.1/901 2013/11/27
 12 13  0  0  0  0  0  0  0  0999 V2000
   29.5106   16.0677   16.0466 C   0  0  0  0  0  0  0  0  0  0  0  0
   30.9480   17.7448   15.0744 C   0  0  0  0  0  0  0  0  0  0  0  0
   28.8086   14.9448   15.9472 N   0  0  0  0  0  0  0  0  0  0  0  0
   29.5489   16.7064   17.2204 N   0  0  0  0  0  0  0  0  0  0  0  0
   30.2150   16.5714   14.9372 N   0  0  0  0  0  0  0  0  0  0  0  0
   31.5601   18.1868   14.0982 O   0  0  0  0  0  0  0  0  0  0  0  0
   31.6642   20.1885   17.7624 N   0  0  0  0  0  0  0  0  0  0  0  0
   30.9370   19.6207   18.8203 C   0  0  0  0  0  0  0  0  0  0  0  0
   30.2270   18.4246   18.6052 N   0  0  0  0  0  0  0  0  0  0  0  0
   30.2335   17.8448   17.3882 C   0  0  0  0  0  0  0  0  0  0  0  0
   30.9542   18.3870   16.3152 C   0  0  0  0  0  0  0  0  0  0  0  0
   31.6669   19.5638   16.4922 C   0  0  0  0  0  0  0  0  0  0  0  0
  1  3  1  0  0  0  0
  1  4  2  0  0  0  0
  1  5  1  0  0  0  0
  2  6  2  0  0  0  0
  2 11  1  0  0  0  0
  2  5  1  0  0  0  0
  4 10  1  0  0  0  0
  7  8  2  0  0  0  0
  7 12  1  0  0  0  0
  8  9  1  0  0  0  0
  9 10  2  0  0  0  0
 10 11  1  0  0  0  0
 11 12  2  0  0  0  0
M  END
>  <CHROM.1>
30.52186129,17.83191043,16.51805247,2.19347870,-0.93501714,-2.03685725

>  <Name>
ligand

>  <RI>
0

>  <Rbt.Current_Directory>
/home/itssahil/PROJECTS/Mol_Feturizer/New_Systems/rnas/4LX6

>  <Rbt.Executable>
rbdock ($Id: //depot/dev/client3/rdock/2013.1/src/exe/rbdock.cxx#4 $)

>  <Rbt.Library>
libRbt.so (2013.1, Build901 2013/11/27)

>  <Rbt.Parameter_File>
/export/apps/rDock/src/rDock_2013.1_src/data/scripts/dock_solv.prm

>  <Rbt.Receptor>
prm/pocket_docking_5.prm

>  <SCORE>
-17.3092

>  <SCORE.INTER>
-17.3092

>  <SCORE.INTER.CONST>
1

>  <SCORE.INTER.POLAR>
0

>  <SCORE.INTER.ROT>
0

>  <SCORE.INTER.SOLV>
10.7814

>  <SCORE.INTER.VDW>
-18.7333

>  <SCORE.INTER.norm>
-1.44243

>  <SCORE.INTRA>
0

>  <SCORE.INTRA.DIHEDRAL>
0

>  <SCORE.INTRA.DIHEDRAL.0>
0

>  <SCORE.INTRA.POLAR>
0

>  <SCORE.INTRA.POLAR.0>
0

>  <SCORE.INTRA.REPUL>
0

>  <SCORE.INTRA.REPUL.0>
0

>  <SCORE.INTRA.SOLV>
0

>  <SCORE.INTRA.SOLV.lig_0>
-28.9128

>  <SCORE.INTRA.VDW>
0

>  <SCORE.INTRA.VDW.0>
0

>  <SCORE.INTRA.norm>
0

>  <SCORE.RESTR>
0

>  <SCORE.RESTR.CAVITY>
0

>  <SCORE.RESTR.norm>
0

>  <SCORE.SYSTEM>
0

>  <SCORE.SYSTEM.CONST>
0

>  <SCORE.SYSTEM.DIHEDRAL>
0

>  <SCORE.SYSTEM.SOLV>
0

>  <SCORE.SYSTEM.norm>
0

>  <SCORE.heavy>
12

>  <SCORE.norm>
-1.44243

>  <RMSD>
2.964

$$$$
ligand
 OpenBabel11021811503D
libRbt.so/2013.1/901 2013/11/27
 12 13  0  0  0  0  0  0  0  0999 V2000
   29.5063   16.0889   16.0484 C   0  0  0  0  0  0  0  0  0  0  0  0
   30.9361   17.7756   15.0815 C   0  0  0  0  0  0  0  0  0  0  0  0
   28.8058   14.9655   15.9443 N   0  0  0  0  0  0  0  0  0  0  0  0
   29.5491   16.7192   17.2266 N   0  0  0  0  0  0  0  0  0  0  0  0
   30.2045   16.6018   14.9393 N   0  0  0  0  0  0  0  0  0  0  0  0
   31.5428   18.2256   14.1056 O   0  0  0  0  0  0  0  0  0  0  0  0
   31.6610   20.2010   17.7836 N   0  0  0  0  0  0  0  0  0  0  0  0
   30.9398   19.6243   18.8408 C   0  0  0  0  0  0  0  0  0  0  0  0
   30.2309   18.4286   18.6205 N   0  0  0  0  0  0  0  0  0  0  0  0
   30.2326   17.8576   17.3994 C   0  0  0  0  0  0  0  0  0  0  0  0
   30.9472   18.4088   16.3269 C   0  0  0  0  0  0  0  0  0  0  0  0
   31.6586   19.5855   16.5090 C   0  0  0  0  0  0  0  0  0  0  0  0
  1  3  1  0  0  0  0
  1  4  2  0  0  0  0
  1  5  1  0  0  0  0
  2  6  2  0  0  0  0
  2 11  1  0  0  0  0
  2  5  1  0  0  0  0
  4 10  1  0  0  0  0
  7  8  2  0  0  0  0
  7 12  1  0  0  0  0
  8  9  1  0  0  0  0
  9 10  2  0  0  0  0
 10 11  1  0  0  0  0
 11 12  2  0  0  0  0
M  END
>  <CHROM.1>
30.51674692,17.85147590,16.52776731,2.19940659,-0.93870429,-2.02486134

>  <Name>
ligand

>  <RI>
0

>  <Rbt.Current_Directory>
/home/itssahil/PROJECTS/Mol_Feturizer/New_Systems/rnas/4LX6

>  <Rbt.Executable>
rbdock ($Id: //depot/dev/client3/rdock/2013.1/src/exe/rbdock.cxx#4 $)

>  <Rbt.Library>
libRbt.so (2013.1, Build901 2013/11/27)

>  <Rbt.Parameter_File>
/export/apps/rDock/src/rDock_2013.1_src/data/scripts/dock_solv.prm

>  <Rbt.Receptor>
prm/pocket_docking_5.prm

>  <SCORE>
-17.2983

>  <SCORE.INTER>
-17.2983

>  <SCORE.INTER.CONST>
1

>  <SCORE.INTER.POLAR>
0

>  <SCORE.INTER.ROT>
0

>  <SCORE.INTER.SOLV>
10.7328

>  <SCORE.INTER.VDW>
-18.7098

>  <SCORE.INTER.norm>
-1.44153

>  <SCORE.INTRA>
0

>  <SCORE.INTRA.DIHEDRAL>
0

>  <SCORE.INTRA.DIHEDRAL.0>
0

>  <SCORE.INTRA.POLAR>
0

>  <SCORE.INTRA.POLAR.0>
0

>  <SCORE.INTRA.REPUL>
0

>  <SCORE.INTRA.REPUL.0>
0

>  <SCORE.INTRA.SOLV>
0

>  <SCORE.INTRA.SOLV.lig_0>
-28.9128

>  <SCORE.INTRA.VDW>
0

>  <SCORE.INTRA.VDW.0>
0

>  <SCORE.INTRA.norm>
0

>  <SCORE.RESTR>
0

>  <SCORE.RESTR.CAVITY>
0

>  <SCORE.RESTR.norm>
0

>  <SCORE.SYSTEM>
0

>  <SCORE.SYSTEM.CONST>
0

>  <SCORE.SYSTEM.DIHEDRAL>
0

>  <SCORE.SYSTEM.SOLV>
0

>  <SCORE.SYSTEM.norm>
0

>  <SCORE.heavy>
12

>  <SCORE.norm>
-1.44153

>  <RMSD>
2.964

$$$$
ligand
 OpenBabel11021811503D
libRbt.so/2013.1/901 2013/11/27
 12 13  0  0  0  0  0  0  0  0999 V2000
   29.5073   16.0759   16.0430 C   0  0  0  0  0  0  0  0  0  0  0  0
   30.9572   17.7469   15.0788 C   0  0  0  0  0  0  0  0  0  0  0  0
   28.8008   14.9563   15.9397 N   0  0  0  0  0  0  0  0  0  0  0  0
   29.5426   16.7140   17.2172 N   0  0  0  0  0  0  0  0  0  0  0  0
   30.2197   16.5768   14.9374 N   0  0  0  0  0  0  0  0  0  0  0  0
   31.5763   18.1864   14.1059 O   0  0  0  0  0  0  0  0  0  0  0  0
   31.6710   20.1862   17.7713 N   0  0  0  0  0  0  0  0  0  0  0  0
   30.9359   19.6213   18.8253 C   0  0  0  0  0  0  0  0  0  0  0  0
   30.2215   18.4285   18.6062 N   0  0  0  0  0  0  0  0  0  0  0  0
   30.2316   17.8492   17.3890 C   0  0  0  0  0  0  0  0  0  0  0  0
   30.9601   18.3885   16.3199 C   0  0  0  0  0  0  0  0  0  0  0  0
   31.6772   19.5620   16.5009 C   0  0  0  0  0  0  0  0  0  0  0  0
  1  3  1  0  0  0  0
  1  4  2  0  0  0  0
  1  5  1  0  0  0  0
  2  6  2  0  0  0  0
  2 11  1  0  0  0  0
  2  5  1  0  0  0  0
  4 10  1  0  0  0  0
  7  8  2  0  0  0  0
  7 12  1  0  0  0  0
  8  9  1  0  0  0  0
  9 10  2  0  0  0  0
 10 11  1  0  0  0  0
 11 12  2  0  0  0  0
M  END
>  <CHROM.1>
30.52423569,17.83533963,16.52029503,2.18935950,-0.92868627,-2.03977092

>  <Name>
ligand

>  <RI>
0

>  <Rbt.Current_Directory>
/home/itssahil/PROJECTS/Mol_Feturizer/New_Systems/rnas/4LX6

>  <Rbt.Executable>
rbdock ($Id: //depot/dev/client3/rdock/2013.1/src/exe/rbdock.cxx#4 $)

>  <Rbt.Library>
libRbt.so (2013.1, Build901 2013/11/27)

>  <Rbt.Parameter_File>
/export/apps/rDock/src/rDock_2013.1_src/data/scripts/dock_solv.prm

>  <Rbt.Receptor>
prm/pocket_docking_6.prm

>  <SCORE>
-17.3107

>  <SCORE.INTER>
-17.3107

>  <SCORE.INTER.CONST>
1

>  <SCORE.INTER.POLAR>
0

>  <SCORE.INTER.ROT>
0

>  <SCORE.INTER.SOLV>
10.7383

>  <SCORE.INTER.VDW>
-18.7199

>  <SCORE.INTER.norm>
-1.44256

>  <SCORE.INTRA>
0

>  <SCORE.INTRA.DIHEDRAL>
0

>  <SCORE.INTRA.DIHEDRAL.0>
0

>  <SCORE.INTRA.POLAR>
0

>  <SCORE.INTRA.POLAR.0>
0

>  <SCORE.INTRA.REPUL>
0

>  <SCORE.INTRA.REPUL.0>
0

>  <SCORE.INTRA.SOLV>
0

>  <SCORE.INTRA.SOLV.lig_0>
-28.9128

>  <SCORE.INTRA.VDW>
0

>  <SCORE.INTRA.VDW.0>
0

>  <SCORE.INTRA.norm>
0

>  <SCORE.RESTR>
0

>  <SCORE.RESTR.CAVITY>
0

>  <SCORE.RESTR.norm>
0

>  <SCORE.SYSTEM>
0

>  <SCORE.SYSTEM.CONST>
0

>  <SCORE.SYSTEM.DIHEDRAL>
0

>  <SCORE.SYSTEM.SOLV>
0

>  <SCORE.SYSTEM.norm>
0

>  <SCORE.heavy>
12

>  <SCORE.norm>
-1.44256

>  <RMSD>
2.964

$$$$
ligand
 OpenBabel11021811503D
libRbt.so/2013.1/901 2013/11/27
 12 13  0  0  0  0  0  0  0  0999 V2000
   29.5063   16.0950   16.0487 C   0  0  0  0  0  0  0  0  0  0  0  0
   30.9389   17.7784   15.0804 C   0  0  0  0  0  0  0  0  0  0  0  0
   28.8054   14.9717   15.9461 N   0  0  0  0  0  0  0  0  0  0  0  0
   29.5471   16.7282   17.2254 N   0  0  0  0  0  0  0  0  0  0  0  0
   30.2070   16.6047   14.9398 N   0  0  0  0  0  0  0  0  0  0  0  0
   31.5478   18.2257   14.1046 O   0  0  0  0  0  0  0  0  0  0  0  0
   31.6597   20.2103   17.7777 N   0  0  0  0  0  0  0  0  0  0  0  0
   30.9362   19.6367   18.8350 C   0  0  0  0  0  0  0  0  0  0  0  0
   30.2270   18.4407   18.6163 N   0  0  0  0  0  0  0  0  0  0  0  0
   30.2309   17.8667   17.3966 C   0  0  0  0  0  0  0  0  0  0  0  0
   30.9478   18.4148   16.3242 C   0  0  0  0  0  0  0  0  0  0  0  0
   31.6596   19.5916   16.5047 C   0  0  0  0  0  0  0  0  0  0  0  0
  1  3  1  0  0  0  0
  1  4  2  0  0  0  0
  1  5  1  0  0  0  0
  2  6  2  0  0  0  0
  2 11  1  0  0  0  0
  2  5  1  0  0  0  0
  4 10  1  0  0  0  0
  7  8  2  0  0  0  0
  7 12  1  0  0  0  0
  8  9  1  0  0  0  0
  9 10  2  0  0  0  0
 10 11  1  0  0  0  0
 11 12  2  0  0  0  0
M  END
>  <CHROM.1>
30.51673504,17.85820715,16.52561323,2.19681464,-0.93736611,-2.02948878

>  <Name>
ligand

>  <RI>
0

>  <Rbt.Current_Directory>
/home/itssahil/PROJECTS/Mol_Feturizer/New_Systems/rnas/4LX6

>  <Rbt.Executable>
rbdock ($Id: //depot/dev/client3/rdock/2013.1/src/exe/rbdock.cxx#4 $)

>  <Rbt.Library>
libRbt.so (2013.1, Build901 2013/11/27)

>  <Rbt.Parameter_File>
/export/apps/rDock/src/rDock_2013.1_src/data/scripts/dock_solv.prm

>  <Rbt.Receptor>
prm/pocket_docking_7.prm

>  <SCORE>
-17.2989

>  <SCORE.INTER>
-17.2989

>  <SCORE.INTER.CONST>
1

>  <SCORE.INTER.POLAR>
0

>  <SCORE.INTER.ROT>
0

>  <SCORE.INTER.SOLV>
10.7298

>  <SCORE.INTER.VDW>
-18.7092

>  <SCORE.INTER.norm>
-1.44158

>  <SCORE.INTRA>
0

>  <SCORE.INTRA.DIHEDRAL>
0

>  <SCORE.INTRA.DIHEDRAL.0>
0

>  <SCORE.INTRA.POLAR>
0

>  <SCORE.INTRA.POLAR.0>
0

>  <SCORE.INTRA.REPUL>
0

>  <SCORE.INTRA.REPUL.0>
0

>  <SCORE.INTRA.SOLV>
0

>  <SCORE.INTRA.SOLV.lig_0>
-28.9128

>  <SCORE.INTRA.VDW>
0

>  <SCORE.INTRA.VDW.0>
0

>  <SCORE.INTRA.norm>
0

>  <SCORE.RESTR>
0

>  <SCORE.RESTR.CAVITY>
0

>  <SCORE.RESTR.norm>
0

>  <SCORE.SYSTEM>
0

>  <SCORE.SYSTEM.CONST>
0

>  <SCORE.SYSTEM.DIHEDRAL>
0

>  <SCORE.SYSTEM.SOLV>
0

>  <SCORE.SYSTEM.norm>
0

>  <SCORE.heavy>
12

>  <SCORE.norm>
-1.44158

>  <RMSD>
2.964

$$$$
ligand
 OpenBabel11021811503D
libRbt.so/2013.1/901 2013/11/27
 12 13  0  0  0  0  0  0  0  0999 V2000
   29.5177   16.0771   16.0511 C   0  0  0  0  0  0  0  0  0  0  0  0
   30.9748   17.7403   15.0844 C   0  0  0  0  0  0  0  0  0  0  0  0
   28.8126   14.9561   15.9517 N   0  0  0  0  0  0  0  0  0  0  0  0
   29.5427   16.7255   17.2199 N   0  0  0  0  0  0  0  0  0  0  0  0
   30.2391   16.5686   14.9472 N   0  0  0  0  0  0  0  0  0  0  0  0
   31.6019   18.1716   14.1130 O   0  0  0  0  0  0  0  0  0  0  0  0
   31.6645   20.2037   17.7613 N   0  0  0  0  0  0  0  0  0  0  0  0
   30.9208   19.6477   18.8139 C   0  0  0  0  0  0  0  0  0  0  0  0
   30.2089   18.4526   18.5993 N   0  0  0  0  0  0  0  0  0  0  0  0
   30.2296   17.8626   17.3874 C   0  0  0  0  0  0  0  0  0  0  0  0
   30.9669   18.3929   16.3198 C   0  0  0  0  0  0  0  0  0  0  0  0
   31.6818   19.5683   16.4965 C   0  0  0  0  0  0  0  0  0  0  0  0
  1  3  1  0  0  0  0
  1  4  2  0  0  0  0
  1  5  1  0  0  0  0
  2  6  2  0  0  0  0
  2 11  1  0  0  0  0
  2  5  1  0  0  0  0
  4 10  1  0  0  0  0
  7  8  2  0  0  0  0
  7 12  1  0  0  0  0
  8  9  1  0  0  0  0
  9 10  2  0  0  0  0
 10 11  1  0  0  0  0
 11 12  2  0  0  0  0
M  END
>  <CHROM.1>
30.52957448,17.84120933,16.52139473,2.17641774,-0.92527486,-2.05895238

>  <Name>
ligand

>  <RI>
0

>  <Rbt.Current_Directory>
/home/itssahil/PROJECTS/Mol_Feturizer/New_Systems/rnas/4LX6

>  <Rbt.Executable>
rbdock ($Id: //depot/dev/client3/rdock/2013.1/src/exe/rbdock.cxx#4 $)

>  <Rbt.Library>
libRbt.so (2013.1, Build901 2013/11/27)

>  <Rbt.Parameter_File>
/export/apps/rDock/src/rDock_2013.1_src/data/scripts/dock_solv.prm

>  <Rbt.Receptor>
prm/pocket_docking_7.prm

>  <SCORE>
-17.2867

>  <SCORE.INTER>
-17.2867

>  <SCORE.INTER.CONST>
1

>  <SCORE.INTER.POLAR>
0

>  <SCORE.INTER.ROT>
0

>  <SCORE.INTER.SOLV>
10.8033

>  <SCORE.INTER.VDW>
-18.7255

>  <SCORE.INTER.norm>
-1.44055

>  <SCORE.INTRA>
0

>  <SCORE.INTRA.DIHEDRAL>
0

>  <SCORE.INTRA.DIHEDRAL.0>
0

>  <SCORE.INTRA.POLAR>
0

>  <SCORE.INTRA.POLAR.0>
0

>  <SCORE.INTRA.REPUL>
0

>  <SCORE.INTRA.REPUL.0>
0

>  <SCORE.INTRA.SOLV>
0

>  <SCORE.INTRA.SOLV.lig_0>
-28.9128

>  <SCORE.INTRA.VDW>
0

>  <SCORE.INTRA.VDW.0>
0

>  <SCORE.INTRA.norm>
0

>  <SCORE.RESTR>
0

>  <SCORE.RESTR.CAVITY>
0

>  <SCORE.RESTR.norm>
0

>  <SCORE.SYSTEM>
0

>  <SCORE.SYSTEM.CONST>
0

>  <SCORE.SYSTEM.DIHEDRAL>
0

>  <SCORE.SYSTEM.SOLV>
0

>  <SCORE.SYSTEM.norm>
0

>  <SCORE.heavy>
12

>  <SCORE.norm>
-1.44055

>  <RMSD>
2.964

$$$$
ligand
 OpenBabel11021811503D
libRbt.so/2013.1/901 2013/11/27
 12 13  0  0  0  0  0  0  0  0999 V2000
   29.5037   16.1019   16.0530 C   0  0  0  0  0  0  0  0  0  0  0  0
   30.9393   17.7809   15.0815 C   0  0  0  0  0  0  0  0  0  0  0  0
   28.8003   14.9799   15.9524 N   0  0  0  0  0  0  0  0  0  0  0  0
   29.5466   16.7366   17.2288 N   0  0  0  0  0  0  0  0  0  0  0  0
   30.2048   16.6085   14.9430 N   0  0  0  0  0  0  0  0  0  0  0  0
   31.5486   18.2255   14.1048 O   0  0  0  0  0  0  0  0  0  0  0  0
   31.6670   20.2149   17.7752 N   0  0  0  0  0  0  0  0  0  0  0  0
   30.9429   19.6443   18.8336 C   0  0  0  0  0  0  0  0  0  0  0  0
   30.2310   18.4496   18.6170 N   0  0  0  0  0  0  0  0  0  0  0  0
   30.2329   17.8739   17.3981 C   0  0  0  0  0  0  0  0  0  0  0  0
   30.9504   18.4189   16.3245 C   0  0  0  0  0  0  0  0  0  0  0  0
   31.6648   19.5944   16.5029 C   0  0  0  0  0  0  0  0  0  0  0  0
  1  3  1  0  0  0  0
  1  4  2  0  0  0  0
  1  5  1  0  0  0  0
  2  6  2  0  0  0  0
  2 11  1  0  0  0  0
  2  5  1  0  0  0  0
  4 10  1  0  0  0  0
  7  8  2  0  0  0  0
  7 12  1  0  0  0  0
  8  9  1  0  0  0  0
  9 10  2  0  0  0  0
 10 11  1  0  0  0  0
 11 12  2  0  0  0  0
M  END
>  <CHROM.1>
30.51822167,17.86354892,16.52692754,2.19930205,-0.93568769,-2.02886113

>  <Name>
ligand

>  <RI>
0

>  <Rbt.Current_Directory>
/home/itssahil/PROJECTS/Mol_Feturizer/New_Systems/rnas/4LX6

>  <Rbt.Executable>
rbdock ($Id: //depot/dev/client3/rdock/2013.1/src/exe/rbdock.cxx#4 $)

>  <Rbt.Library>
libRbt.so (2013.1, Build901 2013/11/27)

>  <Rbt.Parameter_File>
/export/apps/rDock/src/rDock_2013.1_src/data/scripts/dock_solv.prm

>  <Rbt.Receptor>
prm/pocket_docking_7.prm

>  <SCORE>
-17.2968

>  <SCORE.INTER>
-17.2968

>  <SCORE.INTER.CONST>
1

>  <SCORE.INTER.POLAR>
0

>  <SCORE.INTER.ROT>
0

>  <SCORE.INTER.SOLV>
10.7038

>  <SCORE.INTER.VDW>
-18.6992

>  <SCORE.INTER.norm>
-1.4414

>  <SCORE.INTRA>
0

>  <SCORE.INTRA.DIHEDRAL>
0

>  <SCORE.INTRA.DIHEDRAL.0>
0

>  <SCORE.INTRA.POLAR>
0

>  <SCORE.INTRA.POLAR.0>
0

>  <SCORE.INTRA.REPUL>
0

>  <SCORE.INTRA.REPUL.0>
0

>  <SCORE.INTRA.SOLV>
0

>  <SCORE.INTRA.SOLV.lig_0>
-28.9128

>  <SCORE.INTRA.VDW>
0

>  <SCORE.INTRA.VDW.0>
0

>  <SCORE.INTRA.norm>
0

>  <SCORE.RESTR>
0

>  <SCORE.RESTR.CAVITY>
0

>  <SCORE.RESTR.norm>
0

>  <SCORE.SYSTEM>
0

>  <SCORE.SYSTEM.CONST>
0

>  <SCORE.SYSTEM.DIHEDRAL>
0

>  <SCORE.SYSTEM.SOLV>
0

>  <SCORE.SYSTEM.norm>
0

>  <SCORE.heavy>
12

>  <SCORE.norm>
-1.4414

>  <RMSD>
2.964

$$$$
ligand
 OpenBabel11021811503D
libRbt.so/2013.1/901 2013/11/27
 12 13  0  0  0  0  0  0  0  0999 V2000
   29.4909   16.1048   16.0353 C   0  0  0  0  0  0  0  0  0  0  0  0
   30.9901   17.7502   15.1030 C   0  0  0  0  0  0  0  0  0  0  0  0
   28.7652   14.9991   15.9156 N   0  0  0  0  0  0  0  0  0  0  0  0
   29.5164   16.7391   17.2118 N   0  0  0  0  0  0  0  0  0  0  0  0
   30.2332   16.5948   14.9446 N   0  0  0  0  0  0  0  0  0  0  0  0
   31.6355   18.1803   14.1431 O   0  0  0  0  0  0  0  0  0  0  0  0
   31.6998   20.1687   17.8154 N   0  0  0  0  0  0  0  0  0  0  0  0
   30.9345   19.6153   18.8539 C   0  0  0  0  0  0  0  0  0  0  0  0
   30.2018   18.4369   18.6181 N   0  0  0  0  0  0  0  0  0  0  0  0
   30.2235   17.8606   17.3996 C   0  0  0  0  0  0  0  0  0  0  0  0
   30.9820   18.3886   16.3458 C   0  0  0  0  0  0  0  0  0  0  0  0
   31.7179   19.5476   16.5436 C   0  0  0  0  0  0  0  0  0  0  0  0
  1  3  1  0  0  0  0
  1  4  2  0  0  0  0
  1  5  1  0  0  0  0
  2  6  2  0  0  0  0
  2 11  1  0  0  0  0
  2  5  1  0  0  0  0
  4 10  1  0  0  0  0
  7  8  2  0  0  0  0
  7 12  1  0  0  0  0
  8  9  1  0  0  0  0
  9 10  2  0  0  0  0
 10 11  1  0  0  0  0
 11 12  2  0  0  0  0
M  END
>  <CHROM.1>
30.53203753,17.84328799,16.53649443,2.17635489,-0.90321125,-2.04737722

>  <Name>
ligand

>  <RI>
0

>  <Rbt.Current_Directory>
/home/itssahil/PROJECTS/Mol_Feturizer/New_Systems/rnas/4LX6

>  <Rbt.Executable>
rbdock ($Id: //depot/dev/client3/rdock/2013.1/src/exe/rbdock.cxx#4 $)

>  <Rbt.Library>
libRbt.so (2013.1, Build901 2013/11/27)

>  <Rbt.Parameter_File>
/export/apps/rDock/src/rDock_2013.1_src/data/scripts/dock_solv.prm

>  <Rbt.Receptor>
prm/pocket_docking_7.prm

>  <SCORE>
-17.2998

>  <SCORE.INTER>
-17.2998

>  <SCORE.INTER.CONST>
1

>  <SCORE.INTER.POLAR>
0

>  <SCORE.INTER.ROT>
0

>  <SCORE.INTER.SOLV>
10.5456

>  <SCORE.INTER.VDW>
-18.6484

>  <SCORE.INTER.norm>
-1.44165

>  <SCORE.INTRA>
0

>  <SCORE.INTRA.DIHEDRAL>
0

>  <SCORE.INTRA.DIHEDRAL.0>
0

>  <SCORE.INTRA.POLAR>
0

>  <SCORE.INTRA.POLAR.0>
0

>  <SCORE.INTRA.REPUL>
0

>  <SCORE.INTRA.REPUL.0>
0

>  <SCORE.INTRA.SOLV>
0

>  <SCORE.INTRA.SOLV.lig_0>
-28.9128

>  <SCORE.INTRA.VDW>
0

>  <SCORE.INTRA.VDW.0>
0

>  <SCORE.INTRA.norm>
0

>  <SCORE.RESTR>
0

>  <SCORE.RESTR.CAVITY>
0

>  <SCORE.RESTR.norm>
0

>  <SCORE.SYSTEM>
0

>  <SCORE.SYSTEM.CONST>
0

>  <SCORE.SYSTEM.DIHEDRAL>
0

>  <SCORE.SYSTEM.SOLV>
0

>  <SCORE.SYSTEM.norm>
0

>  <SCORE.heavy>
12

>  <SCORE.norm>
-1.44165

>  <RMSD>
2.964

$$$$
ligand
 OpenBabel11021811503D
libRbt.so/2013.1/901 2013/11/27
 12 13  0  0  0  0  0  0  0  0999 V2000
   29.5984   16.0462   16.0672 C   0  0  0  0  0  0  0  0  0  0  0  0
   31.0795   17.7038   15.1275 C   0  0  0  0  0  0  0  0  0  0  0  0
   28.9005   14.9217   15.9587 N   0  0  0  0  0  0  0  0  0  0  0  0
   29.5851   16.7077   17.2289 N   0  0  0  0  0  0  0  0  0  0  0  0
   30.3522   16.5279   14.9807 N   0  0  0  0  0  0  0  0  0  0  0  0
   31.7350   18.1264   14.1711 O   0  0  0  0  0  0  0  0  0  0  0  0
   31.6777   20.1994   17.7965 N   0  0  0  0  0  0  0  0  0  0  0  0
   30.9035   19.6526   18.8318 C   0  0  0  0  0  0  0  0  0  0  0  0
   30.2026   18.4526   18.6087 N   0  0  0  0  0  0  0  0  0  0  0  0
   30.2628   17.8491   17.4048 C   0  0  0  0  0  0  0  0  0  0  0  0
   31.0311   18.3701   16.3546 C   0  0  0  0  0  0  0  0  0  0  0  0
   31.7364   19.5499   16.5401 C   0  0  0  0  0  0  0  0  0  0  0  0
  1  3  1  0  0  0  0
  1  4  2  0  0  0  0
  1  5  1  0  0  0  0
  2  6  2  0  0  0  0
  2 11  1  0  0  0  0
  2  5  1  0  0  0  0
  4 10  1  0  0  0  0
  7  8  2  0  0  0  0
  7 12  1  0  0  0  0
  8  9  1  0  0  0  0
  9 10  2  0  0  0  0
 10 11  1  0  0  0  0
 11 12  2  0  0  0  0
M  END
>  <CHROM.1>
30.58954711,17.81913113,16.54874826,2.12907230,-0.91303847,-2.10783672

>  <Name>
ligand

>  <RI>
0

>  <Rbt.Current_Directory>
/home/itssahil/PROJECTS/Mol_Feturizer/New_Systems/rnas/4LX6

>  <Rbt.Executable>
rbdock ($Id: //depot/dev/client3/rdock/2013.1/src/exe/rbdock.cxx#4 $)

>  <Rbt.Library>
libRbt.so (2013.1, Build901 2013/11/27)

>  <Rbt.Parameter_File>
/export/apps/rDock/src/rDock_2013.1_src/data/scripts/dock_solv.prm

>  <Rbt.Receptor>
prm/pocket_docking_4.prm

>  <SCORE>
-17.319

>  <SCORE.INTER>
-17.319

>  <SCORE.INTER.CONST>
1

>  <SCORE.INTER.POLAR>
0

>  <SCORE.INTER.ROT>
0

>  <SCORE.INTER.SOLV>
11.2333

>  <SCORE.INTER.VDW>
-18.8905

>  <SCORE.INTER.norm>
-1.44325

>  <SCORE.INTRA>
0

>  <SCORE.INTRA.DIHEDRAL>
0

>  <SCORE.INTRA.DIHEDRAL.0>
0

>  <SCORE.INTRA.POLAR>
0

>  <SCORE.INTRA.POLAR.0>
0

>  <SCORE.INTRA.REPUL>
0

>  <SCORE.INTRA.REPUL.0>
0

>  <SCORE.INTRA.SOLV>
0

>  <SCORE.INTRA.SOLV.lig_0>
-28.9128

>  <SCORE.INTRA.VDW>
0

>  <SCORE.INTRA.VDW.0>
0

>  <SCORE.INTRA.norm>
0

>  <SCORE.RESTR>
0

>  <SCORE.RESTR.CAVITY>
0

>  <SCORE.RESTR.norm>
0

>  <SCORE.SYSTEM>
0

>  <SCORE.SYSTEM.CONST>
0

>  <SCORE.SYSTEM.DIHEDRAL>
0

>  <SCORE.SYSTEM.SOLV>
0

>  <SCORE.SYSTEM.norm>
0

>  <SCORE.heavy>
12

>  <SCORE.norm>
-1.44325

>  <RMSD>
2.965

$$$$
ligand
 OpenBabel11021811503D
libRbt.so/2013.1/901 2013/11/27
 12 13  0  0  0  0  0  0  0  0999 V2000
   29.5051   16.1789   16.0556 C   0  0  0  0  0  0  0  0  0  0  0  0
   30.9348   17.8824   15.1185 C   0  0  0  0  0  0  0  0  0  0  0  0
   28.7992   15.0611   15.9300 N   0  0  0  0  0  0  0  0  0  0  0  0
   29.5594   16.7806   17.2482 N   0  0  0  0  0  0  0  0  0  0  0  0
   30.1973   16.7154   14.9539 N   0  0  0  0  0  0  0  0  0  0  0  0
   31.5361   18.3532   14.1491 O   0  0  0  0  0  0  0  0  0  0  0  0
   31.6901   20.2395   17.8723 N   0  0  0  0  0  0  0  0  0  0  0  0
   30.9745   19.6406   18.9209 C   0  0  0  0  0  0  0  0  0  0  0  0
   30.2588   18.4533   18.6774 N   0  0  0  0  0  0  0  0  0  0  0  0
   30.2490   17.9117   17.4429 C   0  0  0  0  0  0  0  0  0  0  0  0
   30.9579   18.4855   16.3786 C   0  0  0  0  0  0  0  0  0  0  0  0
   31.6757   19.6546   16.5833 C   0  0  0  0  0  0  0  0  0  0  0  0
  1  3  1  0  0  0  0
  1  4  2  0  0  0  0
  1  5  1  0  0  0  0
  2  6  2  0  0  0  0
  2 11  1  0  0  0  0
  2  5  1  0  0  0  0
  4 10  1  0  0  0  0
  7  8  2  0  0  0  0
  7 12  1  0  0  0  0
  8  9  1  0  0  0  0
  9 10  2  0  0  0  0
 10 11  1  0  0  0  0
 11 12  2  0  0  0  0
M  END
>  <CHROM.1>
30.52662131,17.92532859,16.56931200,2.21389649,-0.93813380,-1.98924145

>  <Name>
ligand

>  <RI>
0

>  <Rbt.Current_Directory>
/home/itssahil/PROJECTS/Mol_Feturizer/New_Systems/rnas/4LX6

>  <Rbt.Executable>
rbdock ($Id: //depot/dev/client3/rdock/2013.1/src/exe/rbdock.cxx#4 $)

>  <Rbt.Library>
libRbt.so (2013.1, Build901 2013/11/27)

>  <Rbt.Parameter_File>
/export/apps/rDock/src/rDock_2013.1_src/data/scripts/dock_solv.prm

>  <Rbt.Receptor>
prm/pocket_docking_4.prm

>  <SCORE>
-17.2336

>  <SCORE.INTER>
-17.2336

>  <SCORE.INTER.CONST>
1

>  <SCORE.INTER.POLAR>
0

>  <SCORE.INTER.ROT>
0

>  <SCORE.INTER.SOLV>
10.5694

>  <SCORE.INTER.VDW>
-18.6122

>  <SCORE.INTER.norm>
-1.43613

>  <SCORE.INTRA>
0

>  <SCORE.INTRA.DIHEDRAL>
0

>  <SCORE.INTRA.DIHEDRAL.0>
0

>  <SCORE.INTRA.POLAR>
0

>  <SCORE.INTRA.POLAR.0>
0

>  <SCORE.INTRA.REPUL>
0

>  <SCORE.INTRA.REPUL.0>
0

>  <SCORE.INTRA.SOLV>
0

>  <SCORE.INTRA.SOLV.lig_0>
-28.9128

>  <SCORE.INTRA.VDW>
0

>  <SCORE.INTRA.VDW.0>
0

>  <SCORE.INTRA.norm>
0

>  <SCORE.RESTR>
0

>  <SCORE.RESTR.CAVITY>
0

>  <SCORE.RESTR.norm>
0

>  <SCORE.SYSTEM>
0

>  <SCORE.SYSTEM.CONST>
0

>  <SCORE.SYSTEM.DIHEDRAL>
0

>  <SCORE.SYSTEM.SOLV>
0

>  <SCORE.SYSTEM.norm>
0

>  <SCORE.heavy>
12

>  <SCORE.norm>
-1.43613

>  <RMSD>
2.965

$$$$
ligand
 OpenBabel11021811503D
libRbt.so/2013.1/901 2013/11/27
 12 13  0  0  0  0  0  0  0  0999 V2000
   29.5009   16.0988   16.0538 C   0  0  0  0  0  0  0  0  0  0  0  0
   30.9344   17.7797   15.0824 C   0  0  0  0  0  0  0  0  0  0  0  0
   28.7982   14.9765   15.9528 N   0  0  0  0  0  0  0  0  0  0  0  0
   29.5447   16.7324   17.2302 N   0  0  0  0  0  0  0  0  0  0  0  0
   30.2006   16.6071   14.9435 N   0  0  0  0  0  0  0  0  0  0  0  0
   31.5423   18.2257   14.1054 O   0  0  0  0  0  0  0  0  0  0  0  0
   31.6634   20.2116   17.7777 N   0  0  0  0  0  0  0  0  0  0  0  0
   30.9409   19.6394   18.8364 C   0  0  0  0  0  0  0  0  0  0  0  0
   30.2295   18.4444   18.6194 N   0  0  0  0  0  0  0  0  0  0  0  0
   30.2305   17.8699   17.3999 C   0  0  0  0  0  0  0  0  0  0  0  0
   30.9464   18.4165   16.3260 C   0  0  0  0  0  0  0  0  0  0  0  0
   31.6602   19.5923   16.5048 C   0  0  0  0  0  0  0  0  0  0  0  0
  1  3  1  0  0  0  0
  1  4  2  0  0  0  0
  1  5  1  0  0  0  0
  2  6  2  0  0  0  0
  2 11  1  0  0  0  0
  2  5  1  0  0  0  0
  4 10  1  0  0  0  0
  7  8  2  0  0  0  0
  7 12  1  0  0  0  0
  8  9  1  0  0  0  0
  9 10  2  0  0  0  0
 10 11  1  0  0  0  0
 11 12  2  0  0  0  0
M  END
>  <CHROM.1>
30.51484864,17.86069376,16.52837396,2.20048431,-0.93677198,-2.02690632

>  <Name>
ligand

>  <RI>
0

>  <Rbt.Current_Directory>
/home/itssahil/PROJECTS/Mol_Feturizer/New_Systems/rnas/4LX6

>  <Rbt.Executable>
rbdock ($Id: //depot/dev/client3/rdock/2013.1/src/exe/rbdock.cxx#4 $)

>  <Rbt.Library>
libRbt.so (2013.1, Build901 2013/11/27)

>  <Rbt.Parameter_File>
/export/apps/rDock/src/rDock_2013.1_src/data/scripts/dock_solv.prm

>  <Rbt.Receptor>
prm/pocket_docking_5.prm

>  <SCORE>
-17.2971

>  <SCORE.INTER>
-17.2971

>  <SCORE.INTER.CONST>
1

>  <SCORE.INTER.POLAR>
0

>  <SCORE.INTER.ROT>
0

>  <SCORE.INTER.SOLV>
10.697

>  <SCORE.INTER.VDW>
-18.697

>  <SCORE.INTER.norm>
-1.44142

>  <SCORE.INTRA>
0

>  <SCORE.INTRA.DIHEDRAL>
0

>  <SCORE.INTRA.DIHEDRAL.0>
0

>  <SCORE.INTRA.POLAR>
0

>  <SCORE.INTRA.POLAR.0>
0

>  <SCORE.INTRA.REPUL>
0

>  <SCORE.INTRA.REPUL.0>
0

>  <SCORE.INTRA.SOLV>
0

>  <SCORE.INTRA.SOLV.lig_0>
-28.9128

>  <SCORE.INTRA.VDW>
0

>  <SCORE.INTRA.VDW.0>
0

>  <SCORE.INTRA.norm>
0

>  <SCORE.RESTR>
0

>  <SCORE.RESTR.CAVITY>
0

>  <SCORE.RESTR.norm>
0

>  <SCORE.SYSTEM>
0

>  <SCORE.SYSTEM.CONST>
0

>  <SCORE.SYSTEM.DIHEDRAL>
0

>  <SCORE.SYSTEM.SOLV>
0

>  <SCORE.SYSTEM.norm>
0

>  <SCORE.heavy>
12

>  <SCORE.norm>
-1.44142

>  <RMSD>
2.965

$$$$
ligand
 OpenBabel11021811503D
libRbt.so/2013.1/901 2013/11/27
 12 13  0  0  0  0  0  0  0  0999 V2000
   29.5885   16.0687   16.0679 C   0  0  0  0  0  0  0  0  0  0  0  0
   31.0411   17.7500   15.1260 C   0  0  0  0  0  0  0  0  0  0  0  0
   28.8945   14.9422   15.9549 N   0  0  0  0  0  0  0  0  0  0  0  0
   29.5954   16.7108   17.2405 N   0  0  0  0  0  0  0  0  0  0  0  0
   30.3173   16.5726   14.9745 N   0  0  0  0  0  0  0  0  0  0  0  0
   31.6747   18.1921   14.1637 O   0  0  0  0  0  0  0  0  0  0  0  0
   31.6805   20.2045   17.8235 N   0  0  0  0  0  0  0  0  0  0  0  0
   30.9306   19.6362   18.8651 C   0  0  0  0  0  0  0  0  0  0  0  0
   30.2316   18.4361   18.6363 N   0  0  0  0  0  0  0  0  0  0  0  0
   30.2704   17.8530   17.4216 C   0  0  0  0  0  0  0  0  0  0  0  0
   31.0143   18.3956   16.3648 C   0  0  0  0  0  0  0  0  0  0  0  0
   31.7169   19.5762   16.5555 C   0  0  0  0  0  0  0  0  0  0  0  0
  1  3  1  0  0  0  0
  1  4  2  0  0  0  0
  1  5  1  0  0  0  0
  2  6  2  0  0  0  0
  2 11  1  0  0  0  0
  2  5  1  0  0  0  0
  4 10  1  0  0  0  0
  7  8  2  0  0  0  0
  7 12  1  0  0  0  0
  8  9  1  0  0  0  0
  9 10  2  0  0  0  0
 10 11  1  0  0  0  0
 11 12  2  0  0  0  0
M  END
>  <CHROM.1>
30.57977304,17.83900445,16.55866972,2.15383652,-0.92795216,-2.07151398

>  <Name>
ligand

>  <RI>
0

>  <Rbt.Current_Directory>
/home/itssahil/PROJECTS/Mol_Feturizer/New_Systems/rnas/4LX6

>  <Rbt.Executable>
rbdock ($Id: //depot/dev/client3/rdock/2013.1/src/exe/rbdock.cxx#4 $)

>  <Rbt.Library>
libRbt.so (2013.1, Build901 2013/11/27)

>  <Rbt.Parameter_File>
/export/apps/rDock/src/rDock_2013.1_src/data/scripts/dock_solv.prm

>  <Rbt.Receptor>
prm/pocket_docking_6.prm

>  <SCORE>
-17.2994

>  <SCORE.INTER>
-17.2994

>  <SCORE.INTER.CONST>
1

>  <SCORE.INTER.POLAR>
0

>  <SCORE.INTER.ROT>
0

>  <SCORE.INTER.SOLV>
11.1236

>  <SCORE.INTER.VDW>
-18.8408

>  <SCORE.INTER.norm>
-1.44162

>  <SCORE.INTRA>
0

>  <SCORE.INTRA.DIHEDRAL>
0

>  <SCORE.INTRA.DIHEDRAL.0>
0

>  <SCORE.INTRA.POLAR>
0

>  <SCORE.INTRA.POLAR.0>
0

>  <SCORE.INTRA.REPUL>
0

>  <SCORE.INTRA.REPUL.0>
0

>  <SCORE.INTRA.SOLV>
0

>  <SCORE.INTRA.SOLV.lig_0>
-28.9128

>  <SCORE.INTRA.VDW>
0

>  <SCORE.INTRA.VDW.0>
0

>  <SCORE.INTRA.norm>
0

>  <SCORE.RESTR>
0

>  <SCORE.RESTR.CAVITY>
0

>  <SCORE.RESTR.norm>
0

>  <SCORE.SYSTEM>
0

>  <SCORE.SYSTEM.CONST>
0

>  <SCORE.SYSTEM.DIHEDRAL>
0

>  <SCORE.SYSTEM.SOLV>
0

>  <SCORE.SYSTEM.norm>
0

>  <SCORE.heavy>
12

>  <SCORE.norm>
-1.44162

>  <RMSD>
2.965

$$$$
ligand
 OpenBabel11021811503D
libRbt.so/2013.1/901 2013/11/27
 12 13  0  0  0  0  0  0  0  0999 V2000
   29.5994   16.1121   16.0772 C   0  0  0  0  0  0  0  0  0  0  0  0
   31.0377   17.8107   15.1444 C   0  0  0  0  0  0  0  0  0  0  0  0
   28.9145   14.9806   15.9579 N   0  0  0  0  0  0  0  0  0  0  0  0
   29.6017   16.7474   17.2535 N   0  0  0  0  0  0  0  0  0  0  0  0
   30.3234   16.6284   14.9864 N   0  0  0  0  0  0  0  0  0  0  0  0
   31.6671   18.2636   14.1843 O   0  0  0  0  0  0  0  0  0  0  0  0
   31.6586   20.2545   17.8558 N   0  0  0  0  0  0  0  0  0  0  0  0
   30.9139   19.6740   18.8945 C   0  0  0  0  0  0  0  0  0  0  0  0
   30.2246   18.4696   18.6591 N   0  0  0  0  0  0  0  0  0  0  0  0
   30.2675   17.8939   17.4409 C   0  0  0  0  0  0  0  0  0  0  0  0
   31.0063   18.4488   16.3869 C   0  0  0  0  0  0  0  0  0  0  0  0
   31.6994   19.6340   16.5843 C   0  0  0  0  0  0  0  0  0  0  0  0
  1  3  1  0  0  0  0
  1  4  2  0  0  0  0
  1  5  1  0  0  0  0
  2  6  2  0  0  0  0
  2 11  1  0  0  0  0
  2  5  1  0  0  0  0
  4 10  1  0  0  0  0
  7  8  2  0  0  0  0
  7 12  1  0  0  0  0
  8  9  1  0  0  0  0
  9 10  2  0  0  0  0
 10 11  1  0  0  0  0
 11 12  2  0  0  0  0
M  END
>  <CHROM.1>
30.57646141,17.88755444,16.57778466,2.14804409,-0.93537185,-2.07031172

>  <Name>
ligand

>  <RI>
0

>  <Rbt.Current_Directory>
/home/itssahil/PROJECTS/Mol_Feturizer/New_Systems/rnas/4LX6

>  <Rbt.Executable>
rbdock ($Id: //depot/dev/client3/rdock/2013.1/src/exe/rbdock.cxx#4 $)

>  <Rbt.Library>
libRbt.so (2013.1, Build901 2013/11/27)

>  <Rbt.Parameter_File>
/export/apps/rDock/src/rDock_2013.1_src/data/scripts/dock_solv.prm

>  <Rbt.Receptor>
prm/pocket_docking_7.prm

>  <SCORE>
-17.2617

>  <SCORE.INTER>
-17.2617

>  <SCORE.INTER.CONST>
1

>  <SCORE.INTER.POLAR>
0

>  <SCORE.INTER.ROT>
0

>  <SCORE.INTER.SOLV>
11.1451

>  <SCORE.INTER.VDW>
-18.8228

>  <SCORE.INTER.norm>
-1.43847

>  <SCORE.INTRA>
0

>  <SCORE.INTRA.DIHEDRAL>
0

>  <SCORE.INTRA.DIHEDRAL.0>
0

>  <SCORE.INTRA.POLAR>
0

>  <SCORE.INTRA.POLAR.0>
0

>  <SCORE.INTRA.REPUL>
0

>  <SCORE.INTRA.REPUL.0>
0

>  <SCORE.INTRA.SOLV>
0

>  <SCORE.INTRA.SOLV.lig_0>
-28.9128

>  <SCORE.INTRA.VDW>
0

>  <SCORE.INTRA.VDW.0>
0

>  <SCORE.INTRA.norm>
0

>  <SCORE.RESTR>
0

>  <SCORE.RESTR.CAVITY>
0

>  <SCORE.RESTR.norm>
0

>  <SCORE.SYSTEM>
0

>  <SCORE.SYSTEM.CONST>
0

>  <SCORE.SYSTEM.DIHEDRAL>
0

>  <SCORE.SYSTEM.SOLV>
0

>  <SCORE.SYSTEM.norm>
0

>  <SCORE.heavy>
12

>  <SCORE.norm>
-1.43847

>  <RMSD>
2.965

$$$$
ligand
 OpenBabel11021811503D
libRbt.so/2013.1/901 2013/11/27
 12 13  0  0  0  0  0  0  0  0999 V2000
   29.5851   16.0572   16.0633 C   0  0  0  0  0  0  0  0  0  0  0  0
   31.0809   17.7036   15.1274 C   0  0  0  0  0  0  0  0  0  0  0  0
   28.8730   14.9420   15.9505 N   0  0  0  0  0  0  0  0  0  0  0  0
   29.5859   16.7104   17.2297 N   0  0  0  0  0  0  0  0  0  0  0  0
   30.3387   16.5377   14.9762 N   0  0  0  0  0  0  0  0  0  0  0  0
   31.7363   18.1253   14.1706 O   0  0  0  0  0  0  0  0  0  0  0  0
   31.7236   20.1725   17.8109 N   0  0  0  0  0  0  0  0  0  0  0  0
   30.9484   19.6275   18.8465 C   0  0  0  0  0  0  0  0  0  0  0  0
   30.2318   18.4377   18.6187 N   0  0  0  0  0  0  0  0  0  0  0  0
   30.2782   17.8423   17.4101 C   0  0  0  0  0  0  0  0  0  0  0  0
   31.0471   18.3615   16.3596 C   0  0  0  0  0  0  0  0  0  0  0  0
   31.7676   19.5315   16.5497 C   0  0  0  0  0  0  0  0  0  0  0  0
  1  3  1  0  0  0  0
  1  4  2  0  0  0  0
  1  5  1  0  0  0  0
  2  6  2  0  0  0  0
  2 11  1  0  0  0  0
  2  5  1  0  0  0  0
  4 10  1  0  0  0  0
  7  8  2  0  0  0  0
  7 12  1  0  0  0  0
  8  9  1  0  0  0  0
  9 10  2  0  0  0  0
 10 11  1  0  0  0  0
 11 12  2  0  0  0  0
M  END
>  <CHROM.1>
30.60004527,17.81455937,16.55214789,2.14654692,-0.90535064,-2.08683902

>  <Name>
ligand

>  <RI>
0

>  <Rbt.Current_Directory>
/home/itssahil/PROJECTS/Mol_Feturizer/New_Systems/rnas/4LX6

>  <Rbt.Executable>
rbdock ($Id: //depot/dev/client3/rdock/2013.1/src/exe/rbdock.cxx#4 $)

>  <Rbt.Library>
libRbt.so (2013.1, Build901 2013/11/27)

>  <Rbt.Parameter_File>
/export/apps/rDock/src/rDock_2013.1_src/data/scripts/dock_solv.prm

>  <Rbt.Receptor>
prm/pocket_docking_3.prm

>  <SCORE>
-17.3044

>  <SCORE.INTER>
-17.3044

>  <SCORE.INTER.CONST>
1

>  <SCORE.INTER.POLAR>
0

>  <SCORE.INTER.ROT>
0

>  <SCORE.INTER.SOLV>
11.086

>  <SCORE.INTER.VDW>
-18.8316

>  <SCORE.INTER.norm>
-1.44204

>  <SCORE.INTRA>
0

>  <SCORE.INTRA.DIHEDRAL>
0

>  <SCORE.INTRA.DIHEDRAL.0>
0

>  <SCORE.INTRA.POLAR>
0

>  <SCORE.INTRA.POLAR.0>
0

>  <SCORE.INTRA.REPUL>
0

>  <SCORE.INTRA.REPUL.0>
0

>  <SCORE.INTRA.SOLV>
0

>  <SCORE.INTRA.SOLV.lig_0>
-28.9128

>  <SCORE.INTRA.VDW>
0

>  <SCORE.INTRA.VDW.0>
0

>  <SCORE.INTRA.norm>
0

>  <SCORE.RESTR>
0

>  <SCORE.RESTR.CAVITY>
0

>  <SCORE.RESTR.norm>
0

>  <SCORE.SYSTEM>
0

>  <SCORE.SYSTEM.CONST>
0

>  <SCORE.SYSTEM.DIHEDRAL>
0

>  <SCORE.SYSTEM.SOLV>
0

>  <SCORE.SYSTEM.norm>
0

>  <SCORE.heavy>
12

>  <SCORE.norm>
-1.44204

>  <RMSD>
2.966

$$$$
ligand
 OpenBabel11021811503D
libRbt.so/2013.1/901 2013/11/27
 12 13  0  0  0  0  0  0  0  0999 V2000
   29.5204   16.0582   16.0561 C   0  0  0  0  0  0  0  0  0  0  0  0
   30.9489   17.7399   15.0787 C   0  0  0  0  0  0  0  0  0  0  0  0
   28.8221   14.9329   15.9595 N   0  0  0  0  0  0  0  0  0  0  0  0
   29.5603   16.6975   17.2296 N   0  0  0  0  0  0  0  0  0  0  0  0
   30.2196   16.5639   14.9443 N   0  0  0  0  0  0  0  0  0  0  0  0
   31.5565   18.1836   14.1004 O   0  0  0  0  0  0  0  0  0  0  0  0
   31.6653   20.1871   17.7634 N   0  0  0  0  0  0  0  0  0  0  0  0
   30.9434   19.6173   18.8239 C   0  0  0  0  0  0  0  0  0  0  0  0
   30.2369   18.4186   18.6115 N   0  0  0  0  0  0  0  0  0  0  0  0
   30.2415   17.8384   17.3948 C   0  0  0  0  0  0  0  0  0  0  0  0
   30.9569   18.3826   16.3193 C   0  0  0  0  0  0  0  0  0  0  0  0
   31.6661   19.5619   16.4935 C   0  0  0  0  0  0  0  0  0  0  0  0
  1  3  1  0  0  0  0
  1  4  2  0  0  0  0
  1  5  1  0  0  0  0
  2  6  2  0  0  0  0
  2 11  1  0  0  0  0
  2  5  1  0  0  0  0
  4 10  1  0  0  0  0
  7  8  2  0  0  0  0
  7 12  1  0  0  0  0
  8  9  1  0  0  0  0
  9 10  2  0  0  0  0
 10 11  1  0  0  0  0
 11 12  2  0  0  0  0
M  END
>  <CHROM.1>
30.52712990,17.82611645,16.52369133,2.19566973,-0.93952864,-2.03549483

>  <Name>
ligand

>  <RI>
0

>  <Rbt.Current_Directory>
/home/itssahil/PROJECTS/Mol_Feturizer/New_Systems/rnas/4LX6

>  <Rbt.Executable>
rbdock ($Id: //depot/dev/client3/rdock/2013.1/src/exe/rbdock.cxx#4 $)

>  <Rbt.Library>
libRbt.so (2013.1, Build901 2013/11/27)

>  <Rbt.Parameter_File>
/export/apps/rDock/src/rDock_2013.1_src/data/scripts/dock_solv.prm

>  <Rbt.Receptor>
prm/pocket_docking_3.prm

>  <SCORE>
-17.2981

>  <SCORE.INTER>
-17.2981

>  <SCORE.INTER.CONST>
1

>  <SCORE.INTER.POLAR>
0

>  <SCORE.INTER.ROT>
0

>  <SCORE.INTER.SOLV>
10.8457

>  <SCORE.INTER.VDW>
-18.7473

>  <SCORE.INTER.norm>
-1.44151

>  <SCORE.INTRA>
0

>  <SCORE.INTRA.DIHEDRAL>
0

>  <SCORE.INTRA.DIHEDRAL.0>
0

>  <SCORE.INTRA.POLAR>
0

>  <SCORE.INTRA.POLAR.0>
0

>  <SCORE.INTRA.REPUL>
0

>  <SCORE.INTRA.REPUL.0>
0

>  <SCORE.INTRA.SOLV>
0

>  <SCORE.INTRA.SOLV.lig_0>
-28.9128

>  <SCORE.INTRA.VDW>
0

>  <SCORE.INTRA.VDW.0>
0

>  <SCORE.INTRA.norm>
0

>  <SCORE.RESTR>
0

>  <SCORE.RESTR.CAVITY>
0

>  <SCORE.RESTR.norm>
0

>  <SCORE.SYSTEM>
0

>  <SCORE.SYSTEM.CONST>
0

>  <SCORE.SYSTEM.DIHEDRAL>
0

>  <SCORE.SYSTEM.SOLV>
0

>  <SCORE.SYSTEM.norm>
0

>  <SCORE.heavy>
12

>  <SCORE.norm>
-1.44151

>  <RMSD>
2.966

$$$$
ligand
 OpenBabel11021811503D
libRbt.so/2013.1/901 2013/11/27
 12 13  0  0  0  0  0  0  0  0999 V2000
   29.5083   16.0900   16.0567 C   0  0  0  0  0  0  0  0  0  0  0  0
   30.9316   17.7785   15.0836 C   0  0  0  0  0  0  0  0  0  0  0  0
   28.8074   14.9666   15.9552 N   0  0  0  0  0  0  0  0  0  0  0  0
   29.5583   16.7184   17.2356 N   0  0  0  0  0  0  0  0  0  0  0  0
   30.1995   16.6048   14.9441 N   0  0  0  0  0  0  0  0  0  0  0  0
   31.5322   18.2303   14.1047 O   0  0  0  0  0  0  0  0  0  0  0  0
   31.6727   20.1999   17.7850 N   0  0  0  0  0  0  0  0  0  0  0  0
   30.9583   19.6214   18.8458 C   0  0  0  0  0  0  0  0  0  0  0  0
   30.2483   18.4258   18.6280 N   0  0  0  0  0  0  0  0  0  0  0  0
   30.2425   17.8567   17.4059 C   0  0  0  0  0  0  0  0  0  0  0  0
   30.9503   18.4098   16.3299 C   0  0  0  0  0  0  0  0  0  0  0  0
   31.6626   19.5864   16.5094 C   0  0  0  0  0  0  0  0  0  0  0  0
  1  3  1  0  0  0  0
  1  4  2  0  0  0  0
  1  5  1  0  0  0  0
  2  6  2  0  0  0  0
  2 11  1  0  0  0  0
  2  5  1  0  0  0  0
  4 10  1  0  0  0  0
  7  8  2  0  0  0  0
  7 12  1  0  0  0  0
  8  9  1  0  0  0  0
  9 10  2  0  0  0  0
 10 11  1  0  0  0  0
 11 12  2  0  0  0  0
M  END
>  <CHROM.1>
30.52127163,17.85205499,16.53256661,2.20872225,-0.94162547,-2.01575936

>  <Name>
ligand

>  <RI>
0

>  <Rbt.Current_Directory>
/home/itssahil/PROJECTS/Mol_Feturizer/New_Systems/rnas/4LX6

>  <Rbt.Executable>
rbdock ($Id: //depot/dev/client3/rdock/2013.1/src/exe/rbdock.cxx#4 $)

>  <Rbt.Library>
libRbt.so (2013.1, Build901 2013/11/27)

>  <Rbt.Parameter_File>
/export/apps/rDock/src/rDock_2013.1_src/data/scripts/dock_solv.prm

>  <Rbt.Receptor>
prm/pocket_docking_4.prm

>  <SCORE>
-17.2936

>  <SCORE.INTER>
-17.2936

>  <SCORE.INTER.CONST>
1

>  <SCORE.INTER.POLAR>
0

>  <SCORE.INTER.ROT>
0

>  <SCORE.INTER.SOLV>
10.7347

>  <SCORE.INTER.VDW>
-18.7073

>  <SCORE.INTER.norm>
-1.44113

>  <SCORE.INTRA>
0

>  <SCORE.INTRA.DIHEDRAL>
0

>  <SCORE.INTRA.DIHEDRAL.0>
0

>  <SCORE.INTRA.POLAR>
0

>  <SCORE.INTRA.POLAR.0>
0

>  <SCORE.INTRA.REPUL>
0

>  <SCORE.INTRA.REPUL.0>
0

>  <SCORE.INTRA.SOLV>
0

>  <SCORE.INTRA.SOLV.lig_0>
-28.9128

>  <SCORE.INTRA.VDW>
0

>  <SCORE.INTRA.VDW.0>
0

>  <SCORE.INTRA.norm>
0

>  <SCORE.RESTR>
0

>  <SCORE.RESTR.CAVITY>
0

>  <SCORE.RESTR.norm>
0

>  <SCORE.SYSTEM>
0

>  <SCORE.SYSTEM.CONST>
0

>  <SCORE.SYSTEM.DIHEDRAL>
0

>  <SCORE.SYSTEM.SOLV>
0

>  <SCORE.SYSTEM.norm>
0

>  <SCORE.heavy>
12

>  <SCORE.norm>
-1.44113

>  <RMSD>
2.966

$$$$
ligand
 OpenBabel11021811503D
libRbt.so/2013.1/901 2013/11/27
 12 13  0  0  0  0  0  0  0  0999 V2000
   29.5158   16.0773   16.0527 C   0  0  0  0  0  0  0  0  0  0  0  0
   30.9708   17.7475   15.0949 C   0  0  0  0  0  0  0  0  0  0  0  0
   28.8078   14.9588   15.9458 N   0  0  0  0  0  0  0  0  0  0  0  0
   29.5488   16.7135   17.2280 N   0  0  0  0  0  0  0  0  0  0  0  0
   30.2319   16.5787   14.9499 N   0  0  0  0  0  0  0  0  0  0  0  0
   31.5932   18.1875   14.1244 O   0  0  0  0  0  0  0  0  0  0  0  0
   31.6808   20.1818   17.7931 N   0  0  0  0  0  0  0  0  0  0  0  0
   30.9420   19.6164   18.8442 C   0  0  0  0  0  0  0  0  0  0  0  0
   30.2265   18.4250   18.6213 N   0  0  0  0  0  0  0  0  0  0  0  0
   30.2390   17.8475   17.4033 C   0  0  0  0  0  0  0  0  0  0  0  0
   30.9712   18.3873   16.3370 C   0  0  0  0  0  0  0  0  0  0  0  0
   31.6896   19.5594   16.5218 C   0  0  0  0  0  0  0  0  0  0  0  0
  1  3  1  0  0  0  0
  1  4  2  0  0  0  0
  1  5  1  0  0  0  0
  2  6  2  0  0  0  0
  2 11  1  0  0  0  0
  2  5  1  0  0  0  0
  4 10  1  0  0  0  0
  7  8  2  0  0  0  0
  7 12  1  0  0  0  0
  8  9  1  0  0  0  0
  9 10  2  0  0  0  0
 10 11  1  0  0  0  0
 11 12  2  0  0  0  0
M  END
>  <CHROM.1>
30.53397789,17.83445592,16.53542072,2.18643029,-0.92611680,-2.04063252

>  <Name>
ligand

>  <RI>
0

>  <Rbt.Current_Directory>
/home/itssahil/PROJECTS/Mol_Feturizer/New_Systems/rnas/4LX6

>  <Rbt.Executable>
rbdock ($Id: //depot/dev/client3/rdock/2013.1/src/exe/rbdock.cxx#4 $)

>  <Rbt.Library>
libRbt.so (2013.1, Build901 2013/11/27)

>  <Rbt.Parameter_File>
/export/apps/rDock/src/rDock_2013.1_src/data/scripts/dock_solv.prm

>  <Rbt.Receptor>
prm/pocket_docking_5.prm

>  <SCORE>
-17.2996

>  <SCORE.INTER>
-17.2996

>  <SCORE.INTER.CONST>
1

>  <SCORE.INTER.POLAR>
0

>  <SCORE.INTER.ROT>
0

>  <SCORE.INTER.SOLV>
10.7614

>  <SCORE.INTER.VDW>
-18.7202

>  <SCORE.INTER.norm>
-1.44163

>  <SCORE.INTRA>
0

>  <SCORE.INTRA.DIHEDRAL>
0

>  <SCORE.INTRA.DIHEDRAL.0>
0

>  <SCORE.INTRA.POLAR>
0

>  <SCORE.INTRA.POLAR.0>
0

>  <SCORE.INTRA.REPUL>
0

>  <SCORE.INTRA.REPUL.0>
0

>  <SCORE.INTRA.SOLV>
0

>  <SCORE.INTRA.SOLV.lig_0>
-28.9128

>  <SCORE.INTRA.VDW>
0

>  <SCORE.INTRA.VDW.0>
0

>  <SCORE.INTRA.norm>
0

>  <SCORE.RESTR>
0

>  <SCORE.RESTR.CAVITY>
0

>  <SCORE.RESTR.norm>
0

>  <SCORE.SYSTEM>
0

>  <SCORE.SYSTEM.CONST>
0

>  <SCORE.SYSTEM.DIHEDRAL>
0

>  <SCORE.SYSTEM.SOLV>
0

>  <SCORE.SYSTEM.norm>
0

>  <SCORE.heavy>
12

>  <SCORE.norm>
-1.44163

>  <RMSD>
2.966

$$$$
ligand
 OpenBabel11021811503D
libRbt.so/2013.1/901 2013/11/27
 12 13  0  0  0  0  0  0  0  0999 V2000
   29.5063   16.0906   16.0542 C   0  0  0  0  0  0  0  0  0  0  0  0
   30.9467   17.7704   15.0911 C   0  0  0  0  0  0  0  0  0  0  0  0
   28.8013   14.9702   15.9485 N   0  0  0  0  0  0  0  0  0  0  0  0
   29.5477   16.7216   17.2321 N   0  0  0  0  0  0  0  0  0  0  0  0
   30.2106   16.5997   14.9473 N   0  0  0  0  0  0  0  0  0  0  0  0
   31.5587   18.2171   14.1170 O   0  0  0  0  0  0  0  0  0  0  0  0
   31.6726   20.1946   17.7940 N   0  0  0  0  0  0  0  0  0  0  0  0
   30.9454   19.6218   18.8491 C   0  0  0  0  0  0  0  0  0  0  0  0
   30.2320   18.4289   18.6272 N   0  0  0  0  0  0  0  0  0  0  0  0
   30.2355   17.8571   17.4065 C   0  0  0  0  0  0  0  0  0  0  0  0
   30.9562   18.4044   16.3361 C   0  0  0  0  0  0  0  0  0  0  0  0
   31.6721   19.5782   16.5198 C   0  0  0  0  0  0  0  0  0  0  0  0
  1  3  1  0  0  0  0
  1  4  2  0  0  0  0
  1  5  1  0  0  0  0
  2  6  2  0  0  0  0
  2 11  1  0  0  0  0
  2  5  1  0  0  0  0
  4 10  1  0  0  0  0
  7  8  2  0  0  0  0
  7 12  1  0  0  0  0
  8  9  1  0  0  0  0
  9 10  2  0  0  0  0
 10 11  1  0  0  0  0
 11 12  2  0  0  0  0
M  END
>  <CHROM.1>
30.52267673,17.84913759,16.53586876,2.19734306,-0.93330520,-2.02723562

>  <Name>
ligand

>  <RI>
0

>  <Rbt.Current_Directory>
/home/itssahil/PROJECTS/Mol_Feturizer/New_Systems/rnas/4LX6

>  <Rbt.Executable>
rbdock ($Id: //depot/dev/client3/rdock/2013.1/src/exe/rbdock.cxx#4 $)

>  <Rbt.Library>
libRbt.so (2013.1, Build901 2013/11/27)

>  <Rbt.Parameter_File>
/export/apps/rDock/src/rDock_2013.1_src/data/scripts/dock_solv.prm

>  <Rbt.Receptor>
prm/pocket_docking_6.prm

>  <SCORE>
-17.2861

>  <SCORE.INTER>
-17.2861

>  <SCORE.INTER.CONST>
1

>  <SCORE.INTER.POLAR>
0

>  <SCORE.INTER.ROT>
0

>  <SCORE.INTER.SOLV>
10.7124

>  <SCORE.INTER.VDW>
-18.6949

>  <SCORE.INTER.norm>
-1.44051

>  <SCORE.INTRA>
0

>  <SCORE.INTRA.DIHEDRAL>
0

>  <SCORE.INTRA.DIHEDRAL.0>
0

>  <SCORE.INTRA.POLAR>
0

>  <SCORE.INTRA.POLAR.0>
0

>  <SCORE.INTRA.REPUL>
0

>  <SCORE.INTRA.REPUL.0>
0

>  <SCORE.INTRA.SOLV>
0

>  <SCORE.INTRA.SOLV.lig_0>
-28.9128

>  <SCORE.INTRA.VDW>
0

>  <SCORE.INTRA.VDW.0>
0

>  <SCORE.INTRA.norm>
0

>  <SCORE.RESTR>
0

>  <SCORE.RESTR.CAVITY>
0

>  <SCORE.RESTR.norm>
0

>  <SCORE.SYSTEM>
0

>  <SCORE.SYSTEM.CONST>
0

>  <SCORE.SYSTEM.DIHEDRAL>
0

>  <SCORE.SYSTEM.SOLV>
0

>  <SCORE.SYSTEM.norm>
0

>  <SCORE.heavy>
12

>  <SCORE.norm>
-1.44051

>  <RMSD>
2.966

$$$$
ligand
 OpenBabel11021811503D
libRbt.so/2013.1/901 2013/11/27
 12 13  0  0  0  0  0  0  0  0999 V2000
   29.5016   16.0960   16.0552 C   0  0  0  0  0  0  0  0  0  0  0  0
   30.9338   17.7783   15.0844 C   0  0  0  0  0  0  0  0  0  0  0  0
   28.7975   14.9747   15.9531 N   0  0  0  0  0  0  0  0  0  0  0  0
   29.5496   16.7260   17.2333 N   0  0  0  0  0  0  0  0  0  0  0  0
   30.1983   16.6068   14.9443 N   0  0  0  0  0  0  0  0  0  0  0  0
   31.5391   18.2266   14.1069 O   0  0  0  0  0  0  0  0  0  0  0  0
   31.6735   20.2015   17.7846 N   0  0  0  0  0  0  0  0  0  0  0  0
   30.9536   19.6269   18.8438 C   0  0  0  0  0  0  0  0  0  0  0  0
   30.2404   18.4333   18.6254 N   0  0  0  0  0  0  0  0  0  0  0  0
   30.2370   17.8624   17.4043 C   0  0  0  0  0  0  0  0  0  0  0  0
   30.9503   18.4114   16.3298 C   0  0  0  0  0  0  0  0  0  0  0  0
   31.6658   19.5860   16.5099 C   0  0  0  0  0  0  0  0  0  0  0  0
  1  3  1  0  0  0  0
  1  4  2  0  0  0  0
  1  5  1  0  0  0  0
  2  6  2  0  0  0  0
  2 11  1  0  0  0  0
  2  5  1  0  0  0  0
  4 10  1  0  0  0  0
  7  8  2  0  0  0  0
  7 12  1  0  0  0  0
  8  9  1  0  0  0  0
  9 10  2  0  0  0  0
 10 11  1  0  0  0  0
 11 12  2  0  0  0  0
M  END
>  <CHROM.1>
30.51873471,17.85542145,16.53187161,2.20588259,-0.93721311,-2.01960041

>  <Name>
ligand

>  <RI>
0

>  <Rbt.Current_Directory>
/home/itssahil/PROJECTS/Mol_Feturizer/New_Systems/rnas/4LX6

>  <Rbt.Executable>
rbdock ($Id: //depot/dev/client3/rdock/2013.1/src/exe/rbdock.cxx#4 $)

>  <Rbt.Library>
libRbt.so (2013.1, Build901 2013/11/27)

>  <Rbt.Parameter_File>
/export/apps/rDock/src/rDock_2013.1_src/data/scripts/dock_solv.prm

>  <Rbt.Receptor>
prm/pocket_docking_7.prm

>  <SCORE>
-17.295

>  <SCORE.INTER>
-17.295

>  <SCORE.INTER.CONST>
1

>  <SCORE.INTER.POLAR>
0

>  <SCORE.INTER.ROT>
0

>  <SCORE.INTER.SOLV>
10.6904

>  <SCORE.INTER.VDW>
-18.6935

>  <SCORE.INTER.norm>
-1.44125

>  <SCORE.INTRA>
0

>  <SCORE.INTRA.DIHEDRAL>
0

>  <SCORE.INTRA.DIHEDRAL.0>
0

>  <SCORE.INTRA.POLAR>
0

>  <SCORE.INTRA.POLAR.0>
0

>  <SCORE.INTRA.REPUL>
0

>  <SCORE.INTRA.REPUL.0>
0

>  <SCORE.INTRA.SOLV>
0

>  <SCORE.INTRA.SOLV.lig_0>
-28.9128

>  <SCORE.INTRA.VDW>
0

>  <SCORE.INTRA.VDW.0>
0

>  <SCORE.INTRA.norm>
0

>  <SCORE.RESTR>
0

>  <SCORE.RESTR.CAVITY>
0

>  <SCORE.RESTR.norm>
0

>  <SCORE.SYSTEM>
0

>  <SCORE.SYSTEM.CONST>
0

>  <SCORE.SYSTEM.DIHEDRAL>
0

>  <SCORE.SYSTEM.SOLV>
0

>  <SCORE.SYSTEM.norm>
0

>  <SCORE.heavy>
12

>  <SCORE.norm>
-1.44125

>  <RMSD>
2.966

$$$$
ligand
 OpenBabel11021811503D
libRbt.so/2013.1/901 2013/11/27
 12 13  0  0  0  0  0  0  0  0999 V2000
   29.5848   16.0567   16.0720 C   0  0  0  0  0  0  0  0  0  0  0  0
   31.0300   17.7352   15.1139 C   0  0  0  0  0  0  0  0  0  0  0  0
   28.8936   14.9275   15.9690 N   0  0  0  0  0  0  0  0  0  0  0  0
   29.5932   16.7073   17.2399 N   0  0  0  0  0  0  0  0  0  0  0  0
   30.3090   16.5548   14.9729 N   0  0  0  0  0  0  0  0  0  0  0  0
   31.6597   18.1722   14.1466 O   0  0  0  0  0  0  0  0  0  0  0  0
   31.6702   20.2108   17.7918 N   0  0  0  0  0  0  0  0  0  0  0  0
   30.9248   19.6479   18.8396 C   0  0  0  0  0  0  0  0  0  0  0  0
   30.2286   18.4443   18.6215 N   0  0  0  0  0  0  0  0  0  0  0  0
   30.2655   17.8526   17.4108 C   0  0  0  0  0  0  0  0  0  0  0  0
   31.0049   18.3896   16.3481 C   0  0  0  0  0  0  0  0  0  0  0  0
   31.7048   19.5735   16.5283 C   0  0  0  0  0  0  0  0  0  0  0  0
  1  3  1  0  0  0  0
  1  4  2  0  0  0  0
  1  5  1  0  0  0  0
  2  6  2  0  0  0  0
  2 11  1  0  0  0  0
  2  5  1  0  0  0  0
  4 10  1  0  0  0  0
  7  8  2  0  0  0  0
  7 12  1  0  0  0  0
  8  9  1  0  0  0  0
  9 10  2  0  0  0  0
 10 11  1  0  0  0  0
 11 12  2  0  0  0  0
M  END
>  <CHROM.1>
30.57249506,17.83326956,16.54717196,2.15574844,-0.93174676,-2.07716541

>  <Name>
ligand

>  <RI>
0

>  <Rbt.Current_Directory>
/home/itssahil/PROJECTS/Mol_Feturizer/New_Systems/rnas/4LX6

>  <Rbt.Executable>
rbdock ($Id: //depot/dev/client3/rdock/2013.1/src/exe/rbdock.cxx#4 $)

>  <Rbt.Library>
libRbt.so (2013.1, Build901 2013/11/27)

>  <Rbt.Parameter_File>
/export/apps/rDock/src/rDock_2013.1_src/data/scripts/dock_solv.prm

>  <Rbt.Receptor>
prm/pocket_docking_8.prm

>  <SCORE>
-17.314

>  <SCORE.INTER>
-17.314

>  <SCORE.INTER.CONST>
1

>  <SCORE.INTER.POLAR>
0

>  <SCORE.INTER.ROT>
0

>  <SCORE.INTER.SOLV>
11.165

>  <SCORE.INTER.VDW>
-18.8643

>  <SCORE.INTER.norm>
-1.44283

>  <SCORE.INTRA>
0

>  <SCORE.INTRA.DIHEDRAL>
0

>  <SCORE.INTRA.DIHEDRAL.0>
0

>  <SCORE.INTRA.POLAR>
0

>  <SCORE.INTRA.POLAR.0>
0

>  <SCORE.INTRA.REPUL>
0

>  <SCORE.INTRA.REPUL.0>
0

>  <SCORE.INTRA.SOLV>
0

>  <SCORE.INTRA.SOLV.lig_0>
-28.9128

>  <SCORE.INTRA.VDW>
0

>  <SCORE.INTRA.VDW.0>
0

>  <SCORE.INTRA.norm>
0

>  <SCORE.RESTR>
0

>  <SCORE.RESTR.CAVITY>
0

>  <SCORE.RESTR.norm>
0

>  <SCORE.SYSTEM>
0

>  <SCORE.SYSTEM.CONST>
0

>  <SCORE.SYSTEM.DIHEDRAL>
0

>  <SCORE.SYSTEM.SOLV>
0

>  <SCORE.SYSTEM.norm>
0

>  <SCORE.heavy>
12

>  <SCORE.norm>
-1.44283

>  <RMSD>
2.966

$$$$
ligand
 OpenBabel11021811503D
libRbt.so/2013.1/901 2013/11/27
 12 13  0  0  0  0  0  0  0  0999 V2000
   29.5033   16.0954   16.0556 C   0  0  0  0  0  0  0  0  0  0  0  0
   30.9313   17.7803   15.0831 C   0  0  0  0  0  0  0  0  0  0  0  0
   28.8012   14.9728   15.9543 N   0  0  0  0  0  0  0  0  0  0  0  0
   29.5512   16.7259   17.2335 N   0  0  0  0  0  0  0  0  0  0  0  0
   30.1980   16.6074   14.9439 N   0  0  0  0  0  0  0  0  0  0  0  0
   31.5349   18.2295   14.1049 O   0  0  0  0  0  0  0  0  0  0  0  0
   31.6690   20.2055   17.7820 N   0  0  0  0  0  0  0  0  0  0  0  0
   30.9512   19.6298   18.8420 C   0  0  0  0  0  0  0  0  0  0  0  0
   30.2401   18.4347   18.6246 N   0  0  0  0  0  0  0  0  0  0  0  0
   30.2366   17.8635   17.4035 C   0  0  0  0  0  0  0  0  0  0  0  0
   30.9478   18.4137   16.3283 C   0  0  0  0  0  0  0  0  0  0  0  0
   31.6612   19.5897   16.5075 C   0  0  0  0  0  0  0  0  0  0  0  0
  1  3  1  0  0  0  0
  1  4  2  0  0  0  0
  1  5  1  0  0  0  0
  2  6  2  0  0  0  0
  2 11  1  0  0  0  0
  2  5  1  0  0  0  0
  4 10  1  0  0  0  0
  7  8  2  0  0  0  0
  7 12  1  0  0  0  0
  8  9  1  0  0  0  0
  9 10  2  0  0  0  0
 10 11  1  0  0  0  0
 11 12  2  0  0  0  0
M  END
>  <CHROM.1>
30.51749436,17.85693962,16.53089024,2.20590888,-0.93934938,-2.01979515

>  <Name>
ligand

>  <RI>
0

>  <Rbt.Current_Directory>
/home/itssahil/PROJECTS/Mol_Feturizer/New_Systems/rnas/4LX6

>  <Rbt.Executable>
rbdock ($Id: //depot/dev/client3/rdock/2013.1/src/exe/rbdock.cxx#4 $)

>  <Rbt.Library>
libRbt.so (2013.1, Build901 2013/11/27)

>  <Rbt.Parameter_File>
/export/apps/rDock/src/rDock_2013.1_src/data/scripts/dock_solv.prm

>  <Rbt.Receptor>
prm/pocket_docking_8.prm

>  <SCORE>
-17.2979

>  <SCORE.INTER>
-17.2979

>  <SCORE.INTER.CONST>
1

>  <SCORE.INTER.POLAR>
0

>  <SCORE.INTER.ROT>
0

>  <SCORE.INTER.SOLV>
10.7073

>  <SCORE.INTER.VDW>
-18.701

>  <SCORE.INTER.norm>
-1.44149

>  <SCORE.INTRA>
0

>  <SCORE.INTRA.DIHEDRAL>
0

>  <SCORE.INTRA.DIHEDRAL.0>
0

>  <SCORE.INTRA.POLAR>
0

>  <SCORE.INTRA.POLAR.0>
0

>  <SCORE.INTRA.REPUL>
0

>  <SCORE.INTRA.REPUL.0>
0

>  <SCORE.INTRA.SOLV>
0

>  <SCORE.INTRA.SOLV.lig_0>
-28.9128

>  <SCORE.INTRA.VDW>
0

>  <SCORE.INTRA.VDW.0>
0

>  <SCORE.INTRA.norm>
0

>  <SCORE.RESTR>
0

>  <SCORE.RESTR.CAVITY>
0

>  <SCORE.RESTR.norm>
0

>  <SCORE.SYSTEM>
0

>  <SCORE.SYSTEM.CONST>
0

>  <SCORE.SYSTEM.DIHEDRAL>
0

>  <SCORE.SYSTEM.SOLV>
0

>  <SCORE.SYSTEM.norm>
0

>  <SCORE.heavy>
12

>  <SCORE.norm>
-1.44149

>  <RMSD>
2.966

$$$$
ligand
 OpenBabel11021811503D
libRbt.so/2013.1/901 2013/11/27
 12 13  0  0  0  0  0  0  0  0999 V2000
   29.5028   16.0967   16.0616 C   0  0  0  0  0  0  0  0  0  0  0  0
   30.9263   17.7827   15.0843 C   0  0  0  0  0  0  0  0  0  0  0  0
   28.8019   14.9731   15.9629 N   0  0  0  0  0  0  0  0  0  0  0  0
   29.5528   16.7281   17.2389 N   0  0  0  0  0  0  0  0  0  0  0  0
   30.1941   16.6087   14.9478 N   0  0  0  0  0  0  0  0  0  0  0  0
   31.5269   18.2319   14.1043 O   0  0  0  0  0  0  0  0  0  0  0  0
   31.6675   20.2107   17.7797 N   0  0  0  0  0  0  0  0  0  0  0  0
   30.9530   19.6349   18.8419 C   0  0  0  0  0  0  0  0  0  0  0  0
   30.2429   18.4388   18.6270 N   0  0  0  0  0  0  0  0  0  0  0  0
   30.2371   17.8667   17.4064 C   0  0  0  0  0  0  0  0  0  0  0  0
   30.9450   18.4170   16.3291 C   0  0  0  0  0  0  0  0  0  0  0  0
   31.6574   19.5940   16.5056 C   0  0  0  0  0  0  0  0  0  0  0  0
  1  3  1  0  0  0  0
  1  4  2  0  0  0  0
  1  5  1  0  0  0  0
  2  6  2  0  0  0  0
  2 11  1  0  0  0  0
  2  5  1  0  0  0  0
  4 10  1  0  0  0  0
  7  8  2  0  0  0  0
  7 12  1  0  0  0  0
  8  9  1  0  0  0  0
  9 10  2  0  0  0  0
 10 11  1  0  0  0  0
 11 12  2  0  0  0  0
M  END
>  <CHROM.1>
30.51591040,17.85983340,16.53308588,2.20873210,-0.94154712,-2.01825035

>  <Name>
ligand

>  <RI>
0

>  <Rbt.Current_Directory>
/home/itssahil/PROJECTS/Mol_Feturizer/New_Systems/rnas/4LX6

>  <Rbt.Executable>
rbdock ($Id: //depot/dev/client3/rdock/2013.1/src/exe/rbdock.cxx#4 $)

>  <Rbt.Library>
libRbt.so (2013.1, Build901 2013/11/27)

>  <Rbt.Parameter_File>
/export/apps/rDock/src/rDock_2013.1_src/data/scripts/dock_solv.prm

>  <Rbt.Receptor>
prm/blind_docking_80.prm

>  <SCORE>
-17.2969

>  <SCORE.INTER>
-17.2969

>  <SCORE.INTER.CONST>
1

>  <SCORE.INTER.POLAR>
0

>  <SCORE.INTER.ROT>
0

>  <SCORE.INTER.SOLV>
10.7101

>  <SCORE.INTER.VDW>
-18.7013

>  <SCORE.INTER.norm>
-1.44141

>  <SCORE.INTRA>
0

>  <SCORE.INTRA.DIHEDRAL>
0

>  <SCORE.INTRA.DIHEDRAL.0>
0

>  <SCORE.INTRA.POLAR>
0

>  <SCORE.INTRA.POLAR.0>
0

>  <SCORE.INTRA.REPUL>
0

>  <SCORE.INTRA.REPUL.0>
0

>  <SCORE.INTRA.SOLV>
0

>  <SCORE.INTRA.SOLV.lig_0>
-28.9128

>  <SCORE.INTRA.VDW>
0

>  <SCORE.INTRA.VDW.0>
0

>  <SCORE.INTRA.norm>
0

>  <SCORE.RESTR>
0

>  <SCORE.RESTR.CAVITY>
0

>  <SCORE.RESTR.norm>
0

>  <SCORE.SYSTEM>
0

>  <SCORE.SYSTEM.CONST>
0

>  <SCORE.SYSTEM.DIHEDRAL>
0

>  <SCORE.SYSTEM.SOLV>
0

>  <SCORE.SYSTEM.norm>
0

>  <SCORE.heavy>
12

>  <SCORE.norm>
-1.44141

>  <RMSD>
2.967

$$$$
ligand
 OpenBabel11021811503D
libRbt.so/2013.1/901 2013/11/27
 12 13  0  0  0  0  0  0  0  0999 V2000
   29.4891   16.1042   16.0524 C   0  0  0  0  0  0  0  0  0  0  0  0
   30.9371   17.7771   15.0886 C   0  0  0  0  0  0  0  0  0  0  0  0
   28.7807   14.9858   15.9476 N   0  0  0  0  0  0  0  0  0  0  0  0
   29.5300   16.7377   17.2289 N   0  0  0  0  0  0  0  0  0  0  0  0
   30.1975   16.6085   14.9458 N   0  0  0  0  0  0  0  0  0  0  0  0
   31.5527   18.2196   14.1149 O   0  0  0  0  0  0  0  0  0  0  0  0
   31.6650   20.2051   17.7877 N   0  0  0  0  0  0  0  0  0  0  0  0
   30.9336   19.6370   18.8425 C   0  0  0  0  0  0  0  0  0  0  0  0
   30.2169   18.4460   18.6217 N   0  0  0  0  0  0  0  0  0  0  0  0
   30.2212   17.8714   17.4022 C   0  0  0  0  0  0  0  0  0  0  0  0
   30.9459   18.4139   16.3322 C   0  0  0  0  0  0  0  0  0  0  0  0
   31.6653   19.5857   16.5148 C   0  0  0  0  0  0  0  0  0  0  0  0
  1  3  1  0  0  0  0
  1  4  2  0  0  0  0
  1  5  1  0  0  0  0
  2  6  2  0  0  0  0
  2 11  1  0  0  0  0
  2  5  1  0  0  0  0
  4 10  1  0  0  0  0
  7  8  2  0  0  0  0
  7 12  1  0  0  0  0
  8  9  1  0  0  0  0
  9 10  2  0  0  0  0
 10 11  1  0  0  0  0
 11 12  2  0  0  0  0
M  END
>  <CHROM.1>
30.51017630,17.86048467,16.53227643,2.19648301,-0.92942237,-2.03017921

>  <Name>
ligand

>  <RI>
0

>  <Rbt.Current_Directory>
/home/itssahil/PROJECTS/Mol_Feturizer/New_Systems/rnas/4LX6

>  <Rbt.Executable>
rbdock ($Id: //depot/dev/client3/rdock/2013.1/src/exe/rbdock.cxx#4 $)

>  <Rbt.Library>
libRbt.so (2013.1, Build901 2013/11/27)

>  <Rbt.Parameter_File>
/export/apps/rDock/src/rDock_2013.1_src/data/scripts/dock_solv.prm

>  <Rbt.Receptor>
prm/pocket_docking_3.prm

>  <SCORE>
-17.2896

>  <SCORE.INTER>
-17.2896

>  <SCORE.INTER.CONST>
1

>  <SCORE.INTER.POLAR>
0

>  <SCORE.INTER.ROT>
0

>  <SCORE.INTER.SOLV>
10.6179

>  <SCORE.INTER.VDW>
-18.6657

>  <SCORE.INTER.norm>
-1.4408

>  <SCORE.INTRA>
0

>  <SCORE.INTRA.DIHEDRAL>
0

>  <SCORE.INTRA.DIHEDRAL.0>
0

>  <SCORE.INTRA.POLAR>
0

>  <SCORE.INTRA.POLAR.0>
0

>  <SCORE.INTRA.REPUL>
0

>  <SCORE.INTRA.REPUL.0>
0

>  <SCORE.INTRA.SOLV>
0

>  <SCORE.INTRA.SOLV.lig_0>
-28.9128

>  <SCORE.INTRA.VDW>
0

>  <SCORE.INTRA.VDW.0>
0

>  <SCORE.INTRA.norm>
0

>  <SCORE.RESTR>
0

>  <SCORE.RESTR.CAVITY>
0

>  <SCORE.RESTR.norm>
0

>  <SCORE.SYSTEM>
0

>  <SCORE.SYSTEM.CONST>
0

>  <SCORE.SYSTEM.DIHEDRAL>
0

>  <SCORE.SYSTEM.SOLV>
0

>  <SCORE.SYSTEM.norm>
0

>  <SCORE.heavy>
12

>  <SCORE.norm>
-1.4408

>  <RMSD>
2.967

$$$$
ligand
 OpenBabel11021811503D
libRbt.so/2013.1/901 2013/11/27
 12 13  0  0  0  0  0  0  0  0999 V2000
   29.4992   16.0985   16.0585 C   0  0  0  0  0  0  0  0  0  0  0  0
   30.9320   17.7796   15.0863 C   0  0  0  0  0  0  0  0  0  0  0  0
   28.7934   14.9782   15.9568 N   0  0  0  0  0  0  0  0  0  0  0  0
   29.5501   16.7278   17.2369 N   0  0  0  0  0  0  0  0  0  0  0  0
   30.1948   16.6091   14.9467 N   0  0  0  0  0  0  0  0  0  0  0  0
   31.5363   18.2277   14.1080 O   0  0  0  0  0  0  0  0  0  0  0  0
   31.6795   20.2000   17.7868 N   0  0  0  0  0  0  0  0  0  0  0  0
   30.9606   19.6257   18.8468 C   0  0  0  0  0  0  0  0  0  0  0  0
   30.2455   18.4332   18.6289 N   0  0  0  0  0  0  0  0  0  0  0  0
   30.2393   17.8631   17.4074 C   0  0  0  0  0  0  0  0  0  0  0  0
   30.9514   18.4119   16.3321 C   0  0  0  0  0  0  0  0  0  0  0  0
   31.6688   19.5854   16.5117 C   0  0  0  0  0  0  0  0  0  0  0  0
  1  3  1  0  0  0  0
  1  4  2  0  0  0  0
  1  5  1  0  0  0  0
  2  6  2  0  0  0  0
  2 11  1  0  0  0  0
  2  5  1  0  0  0  0
  4 10  1  0  0  0  0
  7  8  2  0  0  0  0
  7 12  1  0  0  0  0
  8  9  1  0  0  0  0
  9 10  2  0  0  0  0
 10 11  1  0  0  0  0
 11 12  2  0  0  0  0
M  END
>  <CHROM.1>
30.51951344,17.85632360,16.53450298,2.20941514,-0.93674023,-2.01611554

>  <Name>
ligand

>  <RI>
0

>  <Rbt.Current_Directory>
/home/itssahil/PROJECTS/Mol_Feturizer/New_Systems/rnas/4LX6

>  <Rbt.Executable>
rbdock ($Id: //depot/dev/client3/rdock/2013.1/src/exe/rbdock.cxx#4 $)

>  <Rbt.Library>
libRbt.so (2013.1, Build901 2013/11/27)

>  <Rbt.Parameter_File>
/export/apps/rDock/src/rDock_2013.1_src/data/scripts/dock_solv.prm

>  <Rbt.Receptor>
prm/pocket_docking_3.prm

>  <SCORE>
-17.2921

>  <SCORE.INTER>
-17.2921

>  <SCORE.INTER.CONST>
1

>  <SCORE.INTER.POLAR>
0

>  <SCORE.INTER.ROT>
0

>  <SCORE.INTER.SOLV>
10.6694

>  <SCORE.INTER.VDW>
-18.6845

>  <SCORE.INTER.norm>
-1.44101

>  <SCORE.INTRA>
0

>  <SCORE.INTRA.DIHEDRAL>
0

>  <SCORE.INTRA.DIHEDRAL.0>
0

>  <SCORE.INTRA.POLAR>
0

>  <SCORE.INTRA.POLAR.0>
0

>  <SCORE.INTRA.REPUL>
0

>  <SCORE.INTRA.REPUL.0>
0

>  <SCORE.INTRA.SOLV>
0

>  <SCORE.INTRA.SOLV.lig_0>
-28.9128

>  <SCORE.INTRA.VDW>
0

>  <SCORE.INTRA.VDW.0>
0

>  <SCORE.INTRA.norm>
0

>  <SCORE.RESTR>
0

>  <SCORE.RESTR.CAVITY>
0

>  <SCORE.RESTR.norm>
0

>  <SCORE.SYSTEM>
0

>  <SCORE.SYSTEM.CONST>
0

>  <SCORE.SYSTEM.DIHEDRAL>
0

>  <SCORE.SYSTEM.SOLV>
0

>  <SCORE.SYSTEM.norm>
0

>  <SCORE.heavy>
12

>  <SCORE.norm>
-1.44101

>  <RMSD>
2.967

$$$$
ligand
 OpenBabel11021811503D
libRbt.so/2013.1/901 2013/11/27
 12 13  0  0  0  0  0  0  0  0999 V2000
   29.5011   16.0967   16.0490 C   0  0  0  0  0  0  0  0  0  0  0  0
   30.9898   17.7478   15.1100 C   0  0  0  0  0  0  0  0  0  0  0  0
   28.7800   14.9876   15.9330 N   0  0  0  0  0  0  0  0  0  0  0  0
   29.5277   16.7324   17.2248 N   0  0  0  0  0  0  0  0  0  0  0  0
   30.2375   16.5888   14.9554 N   0  0  0  0  0  0  0  0  0  0  0  0
   31.6300   18.1797   14.1475 O   0  0  0  0  0  0  0  0  0  0  0  0
   31.6977   20.1724   17.8174 N   0  0  0  0  0  0  0  0  0  0  0  0
   30.9384   19.6167   18.8590 C   0  0  0  0  0  0  0  0  0  0  0  0
   30.2102   18.4348   18.6269 N   0  0  0  0  0  0  0  0  0  0  0  0
   30.2304   17.8572   17.4091 C   0  0  0  0  0  0  0  0  0  0  0  0
   30.9830   18.3874   16.3522 C   0  0  0  0  0  0  0  0  0  0  0  0
   31.7143   19.5500   16.5462 C   0  0  0  0  0  0  0  0  0  0  0  0
  1  3  1  0  0  0  0
  1  4  2  0  0  0  0
  1  5  1  0  0  0  0
  2  6  2  0  0  0  0
  2 11  1  0  0  0  0
  2  5  1  0  0  0  0
  4 10  1  0  0  0  0
  7  8  2  0  0  0  0
  7 12  1  0  0  0  0
  8  9  1  0  0  0  0
  9 10  2  0  0  0  0
 10 11  1  0  0  0  0
 11 12  2  0  0  0  0
M  END
>  <CHROM.1>
30.53610495,17.84034612,16.54489897,2.17784805,-0.90873905,-2.04729590

>  <Name>
ligand

>  <RI>
0

>  <Rbt.Current_Directory>
/home/itssahil/PROJECTS/Mol_Feturizer/New_Systems/rnas/4LX6

>  <Rbt.Executable>
rbdock ($Id: //depot/dev/client3/rdock/2013.1/src/exe/rbdock.cxx#4 $)

>  <Rbt.Library>
libRbt.so (2013.1, Build901 2013/11/27)

>  <Rbt.Parameter_File>
/export/apps/rDock/src/rDock_2013.1_src/data/scripts/dock_solv.prm

>  <Rbt.Receptor>
prm/pocket_docking_3.prm

>  <SCORE>
-17.29

>  <SCORE.INTER>
-17.29

>  <SCORE.INTER.CONST>
1

>  <SCORE.INTER.POLAR>
0

>  <SCORE.INTER.ROT>
0

>  <SCORE.INTER.SOLV>
10.6202

>  <SCORE.INTER.VDW>
-18.6668

>  <SCORE.INTER.norm>
-1.44084

>  <SCORE.INTRA>
0

>  <SCORE.INTRA.DIHEDRAL>
0

>  <SCORE.INTRA.DIHEDRAL.0>
0

>  <SCORE.INTRA.POLAR>
0

>  <SCORE.INTRA.POLAR.0>
0

>  <SCORE.INTRA.REPUL>
0

>  <SCORE.INTRA.REPUL.0>
0

>  <SCORE.INTRA.SOLV>
0

>  <SCORE.INTRA.SOLV.lig_0>
-28.9128

>  <SCORE.INTRA.VDW>
0

>  <SCORE.INTRA.VDW.0>
0

>  <SCORE.INTRA.norm>
0

>  <SCORE.RESTR>
0

>  <SCORE.RESTR.CAVITY>
0

>  <SCORE.RESTR.norm>
0

>  <SCORE.SYSTEM>
0

>  <SCORE.SYSTEM.CONST>
0

>  <SCORE.SYSTEM.DIHEDRAL>
0

>  <SCORE.SYSTEM.SOLV>
0

>  <SCORE.SYSTEM.norm>
0

>  <SCORE.heavy>
12

>  <SCORE.norm>
-1.44084

>  <RMSD>
2.967

$$$$
ligand
 OpenBabel11021811503D
libRbt.so/2013.1/901 2013/11/27
 12 13  0  0  0  0  0  0  0  0999 V2000
   29.5050   16.0819   16.0527 C   0  0  0  0  0  0  0  0  0  0  0  0
   30.9723   17.7404   15.0935 C   0  0  0  0  0  0  0  0  0  0  0  0
   28.7932   14.9656   15.9484 N   0  0  0  0  0  0  0  0  0  0  0  0
   29.5335   16.7252   17.2243 N   0  0  0  0  0  0  0  0  0  0  0  0
   30.2296   16.5737   14.9511 N   0  0  0  0  0  0  0  0  0  0  0  0
   31.6023   18.1720   14.1240 O   0  0  0  0  0  0  0  0  0  0  0  0
   31.6761   20.1883   17.7809 N   0  0  0  0  0  0  0  0  0  0  0  0
   30.9287   19.6323   18.8310 C   0  0  0  0  0  0  0  0  0  0  0  0
   30.2098   18.4425   18.6112 N   0  0  0  0  0  0  0  0  0  0  0  0
   30.2272   17.8574   17.3968 C   0  0  0  0  0  0  0  0  0  0  0  0
   30.9680   18.3878   16.3316 C   0  0  0  0  0  0  0  0  0  0  0  0
   31.6900   19.5581   16.5135 C   0  0  0  0  0  0  0  0  0  0  0  0
  1  3  1  0  0  0  0
  1  4  2  0  0  0  0
  1  5  1  0  0  0  0
  2  6  2  0  0  0  0
  2 11  1  0  0  0  0
  2  5  1  0  0  0  0
  4 10  1  0  0  0  0
  7  8  2  0  0  0  0
  7 12  1  0  0  0  0
  8  9  1  0  0  0  0
  9 10  2  0  0  0  0
 10 11  1  0  0  0  0
 11 12  2  0  0  0  0
M  END
>  <CHROM.1>
30.52733796,17.83789744,16.53076518,2.18065910,-0.91981742,-2.05134558

>  <Name>
ligand

>  <RI>
0

>  <Rbt.Current_Directory>
/home/itssahil/PROJECTS/Mol_Feturizer/New_Systems/rnas/4LX6

>  <Rbt.Executable>
rbdock ($Id: //depot/dev/client3/rdock/2013.1/src/exe/rbdock.cxx#4 $)

>  <Rbt.Library>
libRbt.so (2013.1, Build901 2013/11/27)

>  <Rbt.Parameter_File>
/export/apps/rDock/src/rDock_2013.1_src/data/scripts/dock_solv.prm

>  <Rbt.Receptor>
prm/pocket_docking_3.prm

>  <SCORE>
-17.2912

>  <SCORE.INTER>
-17.2912

>  <SCORE.INTER.CONST>
1

>  <SCORE.INTER.POLAR>
0

>  <SCORE.INTER.ROT>
0

>  <SCORE.INTER.SOLV>
10.7082

>  <SCORE.INTER.VDW>
-18.6969

>  <SCORE.INTER.norm>
-1.44094

>  <SCORE.INTRA>
0

>  <SCORE.INTRA.DIHEDRAL>
0

>  <SCORE.INTRA.DIHEDRAL.0>
0

>  <SCORE.INTRA.POLAR>
0

>  <SCORE.INTRA.POLAR.0>
0

>  <SCORE.INTRA.REPUL>
0

>  <SCORE.INTRA.REPUL.0>
0

>  <SCORE.INTRA.SOLV>
0

>  <SCORE.INTRA.SOLV.lig_0>
-28.9128

>  <SCORE.INTRA.VDW>
0

>  <SCORE.INTRA.VDW.0>
0

>  <SCORE.INTRA.norm>
0

>  <SCORE.RESTR>
0

>  <SCORE.RESTR.CAVITY>
0

>  <SCORE.RESTR.norm>
0

>  <SCORE.SYSTEM>
0

>  <SCORE.SYSTEM.CONST>
0

>  <SCORE.SYSTEM.DIHEDRAL>
0

>  <SCORE.SYSTEM.SOLV>
0

>  <SCORE.SYSTEM.norm>
0

>  <SCORE.heavy>
12

>  <SCORE.norm>
-1.44094

>  <RMSD>
2.967

$$$$
ligand
 OpenBabel11021811503D
libRbt.so/2013.1/901 2013/11/27
 12 13  0  0  0  0  0  0  0  0999 V2000
   29.4909   16.1049   16.0592 C   0  0  0  0  0  0  0  0  0  0  0  0
   30.9271   17.7825   15.0863 C   0  0  0  0  0  0  0  0  0  0  0  0
   28.7857   14.9840   15.9591 N   0  0  0  0  0  0  0  0  0  0  0  0
   29.5368   16.7387   17.2354 N   0  0  0  0  0  0  0  0  0  0  0  0
   30.1907   16.6113   14.9483 N   0  0  0  0  0  0  0  0  0  0  0  0
   31.5353   18.2269   14.1087 O   0  0  0  0  0  0  0  0  0  0  0  0
   31.6633   20.2136   17.7803 N   0  0  0  0  0  0  0  0  0  0  0  0
   30.9403   19.6433   18.8397 C   0  0  0  0  0  0  0  0  0  0  0  0
   30.2263   18.4497   18.6235 N   0  0  0  0  0  0  0  0  0  0  0  0
   30.2251   17.8749   17.4042 C   0  0  0  0  0  0  0  0  0  0  0  0
   30.9414   18.4196   16.3297 C   0  0  0  0  0  0  0  0  0  0  0  0
   31.6579   19.5940   16.5076 C   0  0  0  0  0  0  0  0  0  0  0  0
  1  3  1  0  0  0  0
  1  4  2  0  0  0  0
  1  5  1  0  0  0  0
  2  6  2  0  0  0  0
  2 11  1  0  0  0  0
  2  5  1  0  0  0  0
  4 10  1  0  0  0  0
  7  8  2  0  0  0  0
  7 12  1  0  0  0  0
  8  9  1  0  0  0  0
  9 10  2  0  0  0  0
 10 11  1  0  0  0  0
 11 12  2  0  0  0  0
M  END
>  <CHROM.1>
30.50882446,17.86475203,16.53251045,2.20318156,-0.93520526,-2.02503048

>  <Name>
ligand

>  <RI>
0

>  <Rbt.Current_Directory>
/home/itssahil/PROJECTS/Mol_Feturizer/New_Systems/rnas/4LX6

>  <Rbt.Executable>
rbdock ($Id: //depot/dev/client3/rdock/2013.1/src/exe/rbdock.cxx#4 $)

>  <Rbt.Library>
libRbt.so (2013.1, Build901 2013/11/27)

>  <Rbt.Parameter_File>
/export/apps/rDock/src/rDock_2013.1_src/data/scripts/dock_solv.prm

>  <Rbt.Receptor>
prm/pocket_docking_7.prm

>  <SCORE>
-17.2933

>  <SCORE.INTER>
-17.2933

>  <SCORE.INTER.CONST>
1

>  <SCORE.INTER.POLAR>
0

>  <SCORE.INTER.ROT>
0

>  <SCORE.INTER.SOLV>
10.6393

>  <SCORE.INTER.VDW>
-18.6753

>  <SCORE.INTER.norm>
-1.44111

>  <SCORE.INTRA>
0

>  <SCORE.INTRA.DIHEDRAL>
0

>  <SCORE.INTRA.DIHEDRAL.0>
0

>  <SCORE.INTRA.POLAR>
0

>  <SCORE.INTRA.POLAR.0>
0

>  <SCORE.INTRA.REPUL>
0

>  <SCORE.INTRA.REPUL.0>
0

>  <SCORE.INTRA.SOLV>
0

>  <SCORE.INTRA.SOLV.lig_0>
-28.9128

>  <SCORE.INTRA.VDW>
0

>  <SCORE.INTRA.VDW.0>
0

>  <SCORE.INTRA.norm>
0

>  <SCORE.RESTR>
0

>  <SCORE.RESTR.CAVITY>
0

>  <SCORE.RESTR.norm>
0

>  <SCORE.SYSTEM>
0

>  <SCORE.SYSTEM.CONST>
0

>  <SCORE.SYSTEM.DIHEDRAL>
0

>  <SCORE.SYSTEM.SOLV>
0

>  <SCORE.SYSTEM.norm>
0

>  <SCORE.heavy>
12

>  <SCORE.norm>
-1.44111

>  <RMSD>
2.967

$$$$
ligand
 OpenBabel11021811503D
libRbt.so/2013.1/901 2013/11/27
 12 13  0  0  0  0  0  0  0  0999 V2000
   29.5581   16.0620   16.0704 C   0  0  0  0  0  0  0  0  0  0  0  0
   31.0270   17.7253   15.1218 C   0  0  0  0  0  0  0  0  0  0  0  0
   28.8567   14.9395   15.9632 N   0  0  0  0  0  0  0  0  0  0  0  0
   29.5640   16.7136   17.2378 N   0  0  0  0  0  0  0  0  0  0  0  0
   30.2955   16.5519   14.9764 N   0  0  0  0  0  0  0  0  0  0  0  0
   31.6681   18.1552   14.1589 O   0  0  0  0  0  0  0  0  0  0  0  0
   31.6710   20.1971   17.8023 N   0  0  0  0  0  0  0  0  0  0  0  0
   30.9122   19.6426   18.8449 C   0  0  0  0  0  0  0  0  0  0  0  0
   30.2059   18.4456   18.6226 N   0  0  0  0  0  0  0  0  0  0  0  0
   30.2462   17.8524   17.4128 C   0  0  0  0  0  0  0  0  0  0  0  0
   30.9989   18.3812   16.3552 C   0  0  0  0  0  0  0  0  0  0  0  0
   31.7089   19.5583   16.5397 C   0  0  0  0  0  0  0  0  0  0  0  0
  1  3  1  0  0  0  0
  1  4  2  0  0  0  0
  1  5  1  0  0  0  0
  2  6  2  0  0  0  0
  2 11  1  0  0  0  0
  2  5  1  0  0  0  0
  4 10  1  0  0  0  0
  7  8  2  0  0  0  0
  7 12  1  0  0  0  0
  8  9  1  0  0  0  0
  9 10  2  0  0  0  0
 10 11  1  0  0  0  0
 11 12  2  0  0  0  0
M  END
>  <CHROM.1>
30.55954437,17.82923085,16.55150076,2.15264665,-0.91951769,-2.08057289

>  <Name>
ligand

>  <RI>
0

>  <Rbt.Current_Directory>
/home/itssahil/PROJECTS/Mol_Feturizer/New_Systems/rnas/4LX6

>  <Rbt.Executable>
rbdock ($Id: //depot/dev/client3/rdock/2013.1/src/exe/rbdock.cxx#4 $)

>  <Rbt.Library>
libRbt.so (2013.1, Build901 2013/11/27)

>  <Rbt.Parameter_File>
/export/apps/rDock/src/rDock_2013.1_src/data/scripts/dock_solv.prm

>  <Rbt.Receptor>
prm/pocket_docking_5.prm

>  <SCORE>
-17.3151

>  <SCORE.INTER>
-17.3151

>  <SCORE.INTER.CONST>
1

>  <SCORE.INTER.POLAR>
0

>  <SCORE.INTER.ROT>
0

>  <SCORE.INTER.SOLV>
10.9986

>  <SCORE.INTER.VDW>
-18.8096

>  <SCORE.INTER.norm>
-1.44292

>  <SCORE.INTRA>
0

>  <SCORE.INTRA.DIHEDRAL>
0

>  <SCORE.INTRA.DIHEDRAL.0>
0

>  <SCORE.INTRA.POLAR>
0

>  <SCORE.INTRA.POLAR.0>
0

>  <SCORE.INTRA.REPUL>
0

>  <SCORE.INTRA.REPUL.0>
0

>  <SCORE.INTRA.SOLV>
0

>  <SCORE.INTRA.SOLV.lig_0>
-28.9128

>  <SCORE.INTRA.VDW>
0

>  <SCORE.INTRA.VDW.0>
0

>  <SCORE.INTRA.norm>
0

>  <SCORE.RESTR>
0

>  <SCORE.RESTR.CAVITY>
0

>  <SCORE.RESTR.norm>
0

>  <SCORE.SYSTEM>
0

>  <SCORE.SYSTEM.CONST>
0

>  <SCORE.SYSTEM.DIHEDRAL>
0

>  <SCORE.SYSTEM.SOLV>
0

>  <SCORE.SYSTEM.norm>
0

>  <SCORE.heavy>
12

>  <SCORE.norm>
-1.44292

>  <RMSD>
2.968

$$$$
ligand
 OpenBabel11021811503D
libRbt.so/2013.1/901 2013/11/27
 12 13  0  0  0  0  0  0  0  0999 V2000
   29.5578   16.0632   16.0682 C   0  0  0  0  0  0  0  0  0  0  0  0
   31.0311   17.7260   15.1256 C   0  0  0  0  0  0  0  0  0  0  0  0
   28.8543   14.9424   15.9573 N   0  0  0  0  0  0  0  0  0  0  0  0
   29.5635   16.7119   17.2372 N   0  0  0  0  0  0  0  0  0  0  0  0
   30.2975   16.5544   14.9764 N   0  0  0  0  0  0  0  0  0  0  0  0
   31.6743   18.1570   14.1647 O   0  0  0  0  0  0  0  0  0  0  0  0
   31.6766   20.1898   17.8132 N   0  0  0  0  0  0  0  0  0  0  0  0
   30.9155   19.6342   18.8534 C   0  0  0  0  0  0  0  0  0  0  0  0
   30.2070   18.4391   18.6272 N   0  0  0  0  0  0  0  0  0  0  0  0
   30.2477   17.8489   17.4159 C   0  0  0  0  0  0  0  0  0  0  0  0
   31.0027   18.3788   16.3606 C   0  0  0  0  0  0  0  0  0  0  0  0
   31.7149   19.5542   16.5490 C   0  0  0  0  0  0  0  0  0  0  0  0
  1  3  1  0  0  0  0
  1  4  2  0  0  0  0
  1  5  1  0  0  0  0
  2  6  2  0  0  0  0
  2 11  1  0  0  0  0
  2  5  1  0  0  0  0
  4 10  1  0  0  0  0
  7  8  2  0  0  0  0
  7 12  1  0  0  0  0
  8  9  1  0  0  0  0
  9 10  2  0  0  0  0
 10 11  1  0  0  0  0
 11 12  2  0  0  0  0
M  END
>  <CHROM.1>
30.56206340,17.82729933,16.55501482,2.15242880,-0.91717986,-2.07823134

>  <Name>
ligand

>  <RI>
0

>  <Rbt.Current_Directory>
/home/itssahil/PROJECTS/Mol_Feturizer/New_Systems/rnas/4LX6

>  <Rbt.Executable>
rbdock ($Id: //depot/dev/client3/rdock/2013.1/src/exe/rbdock.cxx#4 $)

>  <Rbt.Library>
libRbt.so (2013.1, Build901 2013/11/27)

>  <Rbt.Parameter_File>
/export/apps/rDock/src/rDock_2013.1_src/data/scripts/dock_solv.prm

>  <Rbt.Receptor>
prm/pocket_docking_5.prm

>  <SCORE>
-17.3159

>  <SCORE.INTER>
-17.3159

>  <SCORE.INTER.CONST>
1

>  <SCORE.INTER.POLAR>
0

>  <SCORE.INTER.ROT>
0

>  <SCORE.INTER.SOLV>
10.9813

>  <SCORE.INTER.VDW>
-18.8044

>  <SCORE.INTER.norm>
-1.44299

>  <SCORE.INTRA>
0

>  <SCORE.INTRA.DIHEDRAL>
0

>  <SCORE.INTRA.DIHEDRAL.0>
0

>  <SCORE.INTRA.POLAR>
0

>  <SCORE.INTRA.POLAR.0>
0

>  <SCORE.INTRA.REPUL>
0

>  <SCORE.INTRA.REPUL.0>
0

>  <SCORE.INTRA.SOLV>
0

>  <SCORE.INTRA.SOLV.lig_0>
-28.9128

>  <SCORE.INTRA.VDW>
0

>  <SCORE.INTRA.VDW.0>
0

>  <SCORE.INTRA.norm>
0

>  <SCORE.RESTR>
0

>  <SCORE.RESTR.CAVITY>
0

>  <SCORE.RESTR.norm>
0

>  <SCORE.SYSTEM>
0

>  <SCORE.SYSTEM.CONST>
0

>  <SCORE.SYSTEM.DIHEDRAL>
0

>  <SCORE.SYSTEM.SOLV>
0

>  <SCORE.SYSTEM.norm>
0

>  <SCORE.heavy>
12

>  <SCORE.norm>
-1.44299

>  <RMSD>
2.968

$$$$
ligand
 OpenBabel11021811503D
libRbt.so/2013.1/901 2013/11/27
 12 13  0  0  0  0  0  0  0  0999 V2000
   29.4897   16.0964   16.0614 C   0  0  0  0  0  0  0  0  0  0  0  0
   30.9508   17.7504   15.0850 C   0  0  0  0  0  0  0  0  0  0  0  0
   28.7699   14.9846   15.9643 N   0  0  0  0  0  0  0  0  0  0  0  0
   29.5411   16.7347   17.2350 N   0  0  0  0  0  0  0  0  0  0  0  0
   30.1991   16.5886   14.9501 N   0  0  0  0  0  0  0  0  0  0  0  0
   31.5673   18.1824   14.1071 O   0  0  0  0  0  0  0  0  0  0  0  0
   31.7124   20.1832   17.7704 N   0  0  0  0  0  0  0  0  0  0  0  0
   30.9791   19.6272   18.8303 C   0  0  0  0  0  0  0  0  0  0  0  0
   30.2498   18.4424   18.6175 N   0  0  0  0  0  0  0  0  0  0  0  0
   30.2440   17.8623   17.4007 C   0  0  0  0  0  0  0  0  0  0  0  0
   30.9704   18.3927   16.3257 C   0  0  0  0  0  0  0  0  0  0  0  0
   31.7019   19.5581   16.5004 C   0  0  0  0  0  0  0  0  0  0  0  0
  1  3  1  0  0  0  0
  1  4  2  0  0  0  0
  1  5  1  0  0  0  0
  2  6  2  0  0  0  0
  2 11  1  0  0  0  0
  2  5  1  0  0  0  0
  4 10  1  0  0  0  0
  7  8  2  0  0  0  0
  7 12  1  0  0  0  0
  8  9  1  0  0  0  0
  9 10  2  0  0  0  0
 10 11  1  0  0  0  0
 11 12  2  0  0  0  0
M  END
>  <CHROM.1>
30.52985651,17.84455370,16.52976198,2.20902207,-0.92206038,-2.02471084

>  <Name>
ligand

>  <RI>
0

>  <Rbt.Current_Directory>
/home/itssahil/PROJECTS/Mol_Feturizer/New_Systems/rnas/4LX6

>  <Rbt.Executable>
rbdock ($Id: //depot/dev/client3/rdock/2013.1/src/exe/rbdock.cxx#4 $)

>  <Rbt.Library>
libRbt.so (2013.1, Build901 2013/11/27)

>  <Rbt.Parameter_File>
/export/apps/rDock/src/rDock_2013.1_src/data/scripts/dock_solv.prm

>  <Rbt.Receptor>
prm/pocket_docking_5.prm

>  <SCORE>
-17.2589

>  <SCORE.INTER>
-17.2589

>  <SCORE.INTER.CONST>
1

>  <SCORE.INTER.POLAR>
0

>  <SCORE.INTER.ROT>
0

>  <SCORE.INTER.SOLV>
10.5877

>  <SCORE.INTER.VDW>
-18.6352

>  <SCORE.INTER.norm>
-1.43824

>  <SCORE.INTRA>
0

>  <SCORE.INTRA.DIHEDRAL>
0

>  <SCORE.INTRA.DIHEDRAL.0>
0

>  <SCORE.INTRA.POLAR>
0

>  <SCORE.INTRA.POLAR.0>
0

>  <SCORE.INTRA.REPUL>
0

>  <SCORE.INTRA.REPUL.0>
0

>  <SCORE.INTRA.SOLV>
0

>  <SCORE.INTRA.SOLV.lig_0>
-28.9128

>  <SCORE.INTRA.VDW>
0

>  <SCORE.INTRA.VDW.0>
0

>  <SCORE.INTRA.norm>
0

>  <SCORE.RESTR>
0

>  <SCORE.RESTR.CAVITY>
0

>  <SCORE.RESTR.norm>
0

>  <SCORE.SYSTEM>
0

>  <SCORE.SYSTEM.CONST>
0

>  <SCORE.SYSTEM.DIHEDRAL>
0

>  <SCORE.SYSTEM.SOLV>
0

>  <SCORE.SYSTEM.norm>
0

>  <SCORE.heavy>
12

>  <SCORE.norm>
-1.43824

>  <RMSD>
2.968

$$$$
ligand
 OpenBabel11021811503D
libRbt.so/2013.1/901 2013/11/27
 12 13  0  0  0  0  0  0  0  0999 V2000
   29.5583   16.0639   16.0685 C   0  0  0  0  0  0  0  0  0  0  0  0
   31.0305   17.7273   15.1253 C   0  0  0  0  0  0  0  0  0  0  0  0
   28.8563   14.9420   15.9583 N   0  0  0  0  0  0  0  0  0  0  0  0
   29.5619   16.7140   17.2366 N   0  0  0  0  0  0  0  0  0  0  0  0
   30.2986   16.5546   14.9768 N   0  0  0  0  0  0  0  0  0  0  0  0
   31.6742   18.1579   14.1645 O   0  0  0  0  0  0  0  0  0  0  0  0
   31.6699   20.1955   17.8103 N   0  0  0  0  0  0  0  0  0  0  0  0
   30.9083   19.6402   18.8505 C   0  0  0  0  0  0  0  0  0  0  0  0
   30.2017   18.4440   18.6251 N   0  0  0  0  0  0  0  0  0  0  0  0
   30.2444   17.8522   17.4146 C   0  0  0  0  0  0  0  0  0  0  0  0
   30.9999   18.3817   16.3594 C   0  0  0  0  0  0  0  0  0  0  0  0
   31.7104   19.5582   16.5471 C   0  0  0  0  0  0  0  0  0  0  0  0
  1  3  1  0  0  0  0
  1  4  2  0  0  0  0
  1  5  1  0  0  0  0
  2  6  2  0  0  0  0
  2 11  1  0  0  0  0
  2  5  1  0  0  0  0
  4 10  1  0  0  0  0
  7  8  2  0  0  0  0
  7 12  1  0  0  0  0
  8  9  1  0  0  0  0
  9 10  2  0  0  0  0
 10 11  1  0  0  0  0
 11 12  2  0  0  0  0
M  END
>  <CHROM.1>
30.55976308,17.82984796,16.55405405,2.14980235,-0.91776755,-2.08162987

>  <Name>
ligand

>  <RI>
0

>  <Rbt.Current_Directory>
/home/itssahil/PROJECTS/Mol_Feturizer/New_Systems/rnas/4LX6

>  <Rbt.Executable>
rbdock ($Id: //depot/dev/client3/rdock/2013.1/src/exe/rbdock.cxx#4 $)

>  <Rbt.Library>
libRbt.so (2013.1, Build901 2013/11/27)

>  <Rbt.Parameter_File>
/export/apps/rDock/src/rDock_2013.1_src/data/scripts/dock_solv.prm

>  <Rbt.Receptor>
prm/pocket_docking_8.prm

>  <SCORE>
-17.314

>  <SCORE.INTER>
-17.314

>  <SCORE.INTER.CONST>
1

>  <SCORE.INTER.POLAR>
0

>  <SCORE.INTER.ROT>
0

>  <SCORE.INTER.SOLV>
10.9919

>  <SCORE.INTER.VDW>
-18.8067

>  <SCORE.INTER.norm>
-1.44284

>  <SCORE.INTRA>
0

>  <SCORE.INTRA.DIHEDRAL>
0

>  <SCORE.INTRA.DIHEDRAL.0>
0

>  <SCORE.INTRA.POLAR>
0

>  <SCORE.INTRA.POLAR.0>
0

>  <SCORE.INTRA.REPUL>
0

>  <SCORE.INTRA.REPUL.0>
0

>  <SCORE.INTRA.SOLV>
0

>  <SCORE.INTRA.SOLV.lig_0>
-28.9128

>  <SCORE.INTRA.VDW>
0

>  <SCORE.INTRA.VDW.0>
0

>  <SCORE.INTRA.norm>
0

>  <SCORE.RESTR>
0

>  <SCORE.RESTR.CAVITY>
0

>  <SCORE.RESTR.norm>
0

>  <SCORE.SYSTEM>
0

>  <SCORE.SYSTEM.CONST>
0

>  <SCORE.SYSTEM.DIHEDRAL>
0

>  <SCORE.SYSTEM.SOLV>
0

>  <SCORE.SYSTEM.norm>
0

>  <SCORE.heavy>
12

>  <SCORE.norm>
-1.44284

>  <RMSD>
2.968

$$$$
ligand
 OpenBabel11021811503D
libRbt.so/2013.1/901 2013/11/27
 12 13  0  0  0  0  0  0  0  0999 V2000
   29.5473   16.0546   16.0610 C   0  0  0  0  0  0  0  0  0  0  0  0
   31.0444   17.6994   15.1243 C   0  0  0  0  0  0  0  0  0  0  0  0
   28.8343   14.9400   15.9487 N   0  0  0  0  0  0  0  0  0  0  0  0
   29.5490   16.7082   17.2273 N   0  0  0  0  0  0  0  0  0  0  0  0
   30.3012   16.5342   14.9737 N   0  0  0  0  0  0  0  0  0  0  0  0
   31.7000   18.1202   14.1672 O   0  0  0  0  0  0  0  0  0  0  0  0
   31.6898   20.1686   17.8070 N   0  0  0  0  0  0  0  0  0  0  0  0
   30.9143   19.6246   18.8429 C   0  0  0  0  0  0  0  0  0  0  0  0
   30.1967   18.4353   18.6155 N   0  0  0  0  0  0  0  0  0  0  0  0
   30.2423   17.8395   17.4072 C   0  0  0  0  0  0  0  0  0  0  0  0
   31.0115   18.3578   16.3563 C   0  0  0  0  0  0  0  0  0  0  0  0
   31.7330   19.5271   16.5459 C   0  0  0  0  0  0  0  0  0  0  0  0
  1  3  1  0  0  0  0
  1  4  2  0  0  0  0
  1  5  1  0  0  0  0
  2  6  2  0  0  0  0
  2 11  1  0  0  0  0
  2  5  1  0  0  0  0
  4 10  1  0  0  0  0
  7  8  2  0  0  0  0
  7 12  1  0  0  0  0
  8  9  1  0  0  0  0
  9 10  2  0  0  0  0
 10 11  1  0  0  0  0
 11 12  2  0  0  0  0
M  END
>  <CHROM.1>
30.56395363,17.81125139,16.54912016,2.14752650,-0.90469224,-2.08637185

>  <Name>
ligand

>  <RI>
0

>  <Rbt.Current_Directory>
/home/itssahil/PROJECTS/Mol_Feturizer/New_Systems/rnas/4LX6

>  <Rbt.Executable>
rbdock ($Id: //depot/dev/client3/rdock/2013.1/src/exe/rbdock.cxx#4 $)

>  <Rbt.Library>
libRbt.so (2013.1, Build901 2013/11/27)

>  <Rbt.Parameter_File>
/export/apps/rDock/src/rDock_2013.1_src/data/scripts/dock_solv.prm

>  <Rbt.Receptor>
prm/blind_docking_60.prm

>  <SCORE>
-17.3304

>  <SCORE.INTER>
-17.3304

>  <SCORE.INTER.CONST>
1

>  <SCORE.INTER.POLAR>
0

>  <SCORE.INTER.ROT>
0

>  <SCORE.INTER.SOLV>
10.923

>  <SCORE.INTER.VDW>
-18.7946

>  <SCORE.INTER.norm>
-1.4442

>  <SCORE.INTRA>
0

>  <SCORE.INTRA.DIHEDRAL>
0

>  <SCORE.INTRA.DIHEDRAL.0>
0

>  <SCORE.INTRA.POLAR>
0

>  <SCORE.INTRA.POLAR.0>
0

>  <SCORE.INTRA.REPUL>
0

>  <SCORE.INTRA.REPUL.0>
0

>  <SCORE.INTRA.SOLV>
0

>  <SCORE.INTRA.SOLV.lig_0>
-28.9128

>  <SCORE.INTRA.VDW>
0

>  <SCORE.INTRA.VDW.0>
0

>  <SCORE.INTRA.norm>
0

>  <SCORE.RESTR>
0

>  <SCORE.RESTR.CAVITY>
0

>  <SCORE.RESTR.norm>
0

>  <SCORE.SYSTEM>
0

>  <SCORE.SYSTEM.CONST>
0

>  <SCORE.SYSTEM.DIHEDRAL>
0

>  <SCORE.SYSTEM.SOLV>
0

>  <SCORE.SYSTEM.norm>
0

>  <SCORE.heavy>
12

>  <SCORE.norm>
-1.4442

>  <RMSD>
2.969

$$$$
ligand
 OpenBabel11021811503D
libRbt.so/2013.1/901 2013/11/27
 12 13  0  0  0  0  0  0  0  0999 V2000
   29.5026   16.0931   16.0662 C   0  0  0  0  0  0  0  0  0  0  0  0
   30.9210   17.7820   15.0865 C   0  0  0  0  0  0  0  0  0  0  0  0
   28.8012   14.9698   15.9678 N   0  0  0  0  0  0  0  0  0  0  0  0
   29.5585   16.7211   17.2451 N   0  0  0  0  0  0  0  0  0  0  0  0
   30.1881   16.6084   14.9503 N   0  0  0  0  0  0  0  0  0  0  0  0
   31.5165   18.2341   14.1047 O   0  0  0  0  0  0  0  0  0  0  0  0
   31.6757   20.2024   17.7850 N   0  0  0  0  0  0  0  0  0  0  0  0
   30.9667   19.6235   18.8492 C   0  0  0  0  0  0  0  0  0  0  0  0
   30.2556   18.4279   18.6346 N   0  0  0  0  0  0  0  0  0  0  0  0
   30.2437   17.8594   17.4123 C   0  0  0  0  0  0  0  0  0  0  0  0
   30.9460   18.4128   16.3330 C   0  0  0  0  0  0  0  0  0  0  0  0
   31.6592   19.5893   16.5093 C   0  0  0  0  0  0  0  0  0  0  0  0
  1  3  1  0  0  0  0
  1  4  2  0  0  0  0
  1  5  1  0  0  0  0
  2  6  2  0  0  0  0
  2 11  1  0  0  0  0
  2  5  1  0  0  0  0
  4 10  1  0  0  0  0
  7  8  2  0  0  0  0
  7 12  1  0  0  0  0
  8  9  1  0  0  0  0
  9 10  2  0  0  0  0
 10 11  1  0  0  0  0
 11 12  2  0  0  0  0
M  END
>  <CHROM.1>
30.51797192,17.85500345,16.53757507,2.21652252,-0.94379392,-2.00907423

>  <Name>
ligand

>  <RI>
0

>  <Rbt.Current_Directory>
/home/itssahil/PROJECTS/Mol_Feturizer/New_Systems/rnas/4LX6

>  <Rbt.Executable>
rbdock ($Id: //depot/dev/client3/rdock/2013.1/src/exe/rbdock.cxx#4 $)

>  <Rbt.Library>
libRbt.so (2013.1, Build901 2013/11/27)

>  <Rbt.Parameter_File>
/export/apps/rDock/src/rDock_2013.1_src/data/scripts/dock_solv.prm

>  <Rbt.Receptor>
prm/pocket_docking_3.prm

>  <SCORE>
-17.2889

>  <SCORE.INTER>
-17.2889

>  <SCORE.INTER.CONST>
1

>  <SCORE.INTER.POLAR>
0

>  <SCORE.INTER.ROT>
0

>  <SCORE.INTER.SOLV>
10.7051

>  <SCORE.INTER.VDW>
-18.6943

>  <SCORE.INTER.norm>
-1.44074

>  <SCORE.INTRA>
0

>  <SCORE.INTRA.DIHEDRAL>
0

>  <SCORE.INTRA.DIHEDRAL.0>
0

>  <SCORE.INTRA.POLAR>
0

>  <SCORE.INTRA.POLAR.0>
0

>  <SCORE.INTRA.REPUL>
0

>  <SCORE.INTRA.REPUL.0>
0

>  <SCORE.INTRA.SOLV>
0

>  <SCORE.INTRA.SOLV.lig_0>
-28.9128

>  <SCORE.INTRA.VDW>
0

>  <SCORE.INTRA.VDW.0>
0

>  <SCORE.INTRA.norm>
0

>  <SCORE.RESTR>
0

>  <SCORE.RESTR.CAVITY>
0

>  <SCORE.RESTR.norm>
0

>  <SCORE.SYSTEM>
0

>  <SCORE.SYSTEM.CONST>
0

>  <SCORE.SYSTEM.DIHEDRAL>
0

>  <SCORE.SYSTEM.SOLV>
0

>  <SCORE.SYSTEM.norm>
0

>  <SCORE.heavy>
12

>  <SCORE.norm>
-1.44074

>  <RMSD>
2.969

$$$$
ligand
 OpenBabel11021811503D
libRbt.so/2013.1/901 2013/11/27
 12 13  0  0  0  0  0  0  0  0999 V2000
   29.5475   16.0492   16.0704 C   0  0  0  0  0  0  0  0  0  0  0  0
   30.9782   17.7334   15.1007 C   0  0  0  0  0  0  0  0  0  0  0  0
   28.8545   14.9207   15.9711 N   0  0  0  0  0  0  0  0  0  0  0  0
   29.5739   16.6924   17.2421 N   0  0  0  0  0  0  0  0  0  0  0  0
   30.2549   16.5540   14.9635 N   0  0  0  0  0  0  0  0  0  0  0  0
   31.5930   18.1763   14.1266 O   0  0  0  0  0  0  0  0  0  0  0  0
   31.6599   20.1922   17.7838 N   0  0  0  0  0  0  0  0  0  0  0  0
   30.9306   19.6229   18.8394 C   0  0  0  0  0  0  0  0  0  0  0  0
   30.2308   18.4207   18.6245 N   0  0  0  0  0  0  0  0  0  0  0  0
   30.2490   17.8366   17.4098 C   0  0  0  0  0  0  0  0  0  0  0  0
   30.9721   18.3802   16.3392 C   0  0  0  0  0  0  0  0  0  0  0  0
   31.6749   19.5629   16.5160 C   0  0  0  0  0  0  0  0  0  0  0  0
  1  3  1  0  0  0  0
  1  4  2  0  0  0  0
  1  5  1  0  0  0  0
  2  6  2  0  0  0  0
  2 11  1  0  0  0  0
  2  5  1  0  0  0  0
  4 10  1  0  0  0  0
  7  8  2  0  0  0  0
  7 12  1  0  0  0  0
  8  9  1  0  0  0  0
  9 10  2  0  0  0  0
 10 11  1  0  0  0  0
 11 12  2  0  0  0  0
M  END
>  <CHROM.1>
30.54271619,17.82260352,16.54143611,2.17863706,-0.93889842,-2.05252600

>  <Name>
ligand

>  <RI>
0

>  <Rbt.Current_Directory>
/home/itssahil/PROJECTS/Mol_Feturizer/New_Systems/rnas/4LX6

>  <Rbt.Executable>
rbdock ($Id: //depot/dev/client3/rdock/2013.1/src/exe/rbdock.cxx#4 $)

>  <Rbt.Library>
libRbt.so (2013.1, Build901 2013/11/27)

>  <Rbt.Parameter_File>
/export/apps/rDock/src/rDock_2013.1_src/data/scripts/dock_solv.prm

>  <Rbt.Receptor>
prm/pocket_docking_5.prm

>  <SCORE>
-17.306

>  <SCORE.INTER>
-17.306

>  <SCORE.INTER.CONST>
1

>  <SCORE.INTER.POLAR>
0

>  <SCORE.INTER.ROT>
0

>  <SCORE.INTER.SOLV>
10.9984

>  <SCORE.INTER.VDW>
-18.8034

>  <SCORE.INTER.norm>
-1.44216

>  <SCORE.INTRA>
0

>  <SCORE.INTRA.DIHEDRAL>
0

>  <SCORE.INTRA.DIHEDRAL.0>
0

>  <SCORE.INTRA.POLAR>
0

>  <SCORE.INTRA.POLAR.0>
0

>  <SCORE.INTRA.REPUL>
0

>  <SCORE.INTRA.REPUL.0>
0

>  <SCORE.INTRA.SOLV>
0

>  <SCORE.INTRA.SOLV.lig_0>
-28.9128

>  <SCORE.INTRA.VDW>
0

>  <SCORE.INTRA.VDW.0>
0

>  <SCORE.INTRA.norm>
0

>  <SCORE.RESTR>
0

>  <SCORE.RESTR.CAVITY>
0

>  <SCORE.RESTR.norm>
0

>  <SCORE.SYSTEM>
0

>  <SCORE.SYSTEM.CONST>
0

>  <SCORE.SYSTEM.DIHEDRAL>
0

>  <SCORE.SYSTEM.SOLV>
0

>  <SCORE.SYSTEM.norm>
0

>  <SCORE.heavy>
12

>  <SCORE.norm>
-1.44216

>  <RMSD>
2.969

$$$$
ligand
 OpenBabel11021811503D
libRbt.so/2013.1/901 2013/11/27
 12 13  0  0  0  0  0  0  0  0999 V2000
   29.4964   16.0735   16.0567 C   0  0  0  0  0  0  0  0  0  0  0  0
   30.9508   17.7385   15.0889 C   0  0  0  0  0  0  0  0  0  0  0  0
   28.7861   14.9560   15.9554 N   0  0  0  0  0  0  0  0  0  0  0  0
   29.5351   16.7128   17.2302 N   0  0  0  0  0  0  0  0  0  0  0  0
   30.2092   16.5707   14.9498 N   0  0  0  0  0  0  0  0  0  0  0  0
   31.5702   18.1749   14.1149 O   0  0  0  0  0  0  0  0  0  0  0  0
   31.6756   20.1785   17.7779 N   0  0  0  0  0  0  0  0  0  0  0  0
   30.9398   19.6173   18.8334 C   0  0  0  0  0  0  0  0  0  0  0  0
   30.2212   18.4266   18.6164 N   0  0  0  0  0  0  0  0  0  0  0  0
   30.2280   17.8459   17.3999 C   0  0  0  0  0  0  0  0  0  0  0  0
   30.9572   18.3816   16.3293 C   0  0  0  0  0  0  0  0  0  0  0  0
   31.6784   19.5528   16.5082 C   0  0  0  0  0  0  0  0  0  0  0  0
  1  3  1  0  0  0  0
  1  4  2  0  0  0  0
  1  5  1  0  0  0  0
  2  6  2  0  0  0  0
  2 11  1  0  0  0  0
  2  5  1  0  0  0  0
  4 10  1  0  0  0  0
  7  8  2  0  0  0  0
  7 12  1  0  0  0  0
  8  9  1  0  0  0  0
  9 10  2  0  0  0  0
 10 11  1  0  0  0  0
 11 12  2  0  0  0  0
M  END
>  <CHROM.1>
30.51966364,17.83004741,16.53085054,2.19349290,-0.92622219,-2.03760637

>  <Name>
ligand

>  <RI>
0

>  <Rbt.Current_Directory>
/home/itssahil/PROJECTS/Mol_Feturizer/New_Systems/rnas/4LX6

>  <Rbt.Executable>
rbdock ($Id: //depot/dev/client3/rdock/2013.1/src/exe/rbdock.cxx#4 $)

>  <Rbt.Library>
libRbt.so (2013.1, Build901 2013/11/27)

>  <Rbt.Parameter_File>
/export/apps/rDock/src/rDock_2013.1_src/data/scripts/dock_solv.prm

>  <Rbt.Receptor>
prm/pocket_docking_7.prm

>  <SCORE>
-17.2937

>  <SCORE.INTER>
-17.2937

>  <SCORE.INTER.CONST>
1

>  <SCORE.INTER.POLAR>
0

>  <SCORE.INTER.ROT>
0

>  <SCORE.INTER.SOLV>
10.6819

>  <SCORE.INTER.VDW>
-18.6897

>  <SCORE.INTER.norm>
-1.44114

>  <SCORE.INTRA>
0

>  <SCORE.INTRA.DIHEDRAL>
0

>  <SCORE.INTRA.DIHEDRAL.0>
0

>  <SCORE.INTRA.POLAR>
0

>  <SCORE.INTRA.POLAR.0>
0

>  <SCORE.INTRA.REPUL>
0

>  <SCORE.INTRA.REPUL.0>
0

>  <SCORE.INTRA.SOLV>
0

>  <SCORE.INTRA.SOLV.lig_0>
-28.9128

>  <SCORE.INTRA.VDW>
0

>  <SCORE.INTRA.VDW.0>
0

>  <SCORE.INTRA.norm>
0

>  <SCORE.RESTR>
0

>  <SCORE.RESTR.CAVITY>
0

>  <SCORE.RESTR.norm>
0

>  <SCORE.SYSTEM>
0

>  <SCORE.SYSTEM.CONST>
0

>  <SCORE.SYSTEM.DIHEDRAL>
0

>  <SCORE.SYSTEM.SOLV>
0

>  <SCORE.SYSTEM.norm>
0

>  <SCORE.heavy>
12

>  <SCORE.norm>
-1.44114

>  <RMSD>
2.969

$$$$
ligand
 OpenBabel11021811503D
libRbt.so/2013.1/901 2013/11/27
 12 13  0  0  0  0  0  0  0  0999 V2000
   29.5592   16.0618   16.0726 C   0  0  0  0  0  0  0  0  0  0  0  0
   31.0251   17.7285   15.1255 C   0  0  0  0  0  0  0  0  0  0  0  0
   28.8573   14.9398   15.9635 N   0  0  0  0  0  0  0  0  0  0  0  0
   29.5688   16.7091   17.2423 N   0  0  0  0  0  0  0  0  0  0  0  0
   30.2932   16.5557   14.9781 N   0  0  0  0  0  0  0  0  0  0  0  0
   31.6633   18.1619   14.1622 O   0  0  0  0  0  0  0  0  0  0  0  0
   31.6779   20.1904   17.8130 N   0  0  0  0  0  0  0  0  0  0  0  0
   30.9224   19.6320   18.8560 C   0  0  0  0  0  0  0  0  0  0  0  0
   30.2152   18.4360   18.6315 N   0  0  0  0  0  0  0  0  0  0  0  0
   30.2517   17.8472   17.4194 C   0  0  0  0  0  0  0  0  0  0  0  0
   31.0010   18.3798   16.3614 C   0  0  0  0  0  0  0  0  0  0  0  0
   31.7118   19.5562   16.5480 C   0  0  0  0  0  0  0  0  0  0  0  0
  1  3  1  0  0  0  0
  1  4  2  0  0  0  0
  1  5  1  0  0  0  0
  2  6  2  0  0  0  0
  2 11  1  0  0  0  0
  2  5  1  0  0  0  0
  4 10  1  0  0  0  0
  7  8  2  0  0  0  0
  7 12  1  0  0  0  0
  8  9  1  0  0  0  0
  9 10  2  0  0  0  0
 10 11  1  0  0  0  0
 11 12  2  0  0  0  0
M  END
>  <CHROM.1>
30.56225275,17.82720752,16.55703665,2.15727799,-0.92095981,-2.07320310

>  <Name>
ligand

>  <RI>
0

>  <Rbt.Current_Directory>
/home/itssahil/PROJECTS/Mol_Feturizer/New_Systems/rnas/4LX6

>  <Rbt.Executable>
rbdock ($Id: //depot/dev/client3/rdock/2013.1/src/exe/rbdock.cxx#4 $)

>  <Rbt.Library>
libRbt.so (2013.1, Build901 2013/11/27)

>  <Rbt.Parameter_File>
/export/apps/rDock/src/rDock_2013.1_src/data/scripts/dock_solv.prm

>  <Rbt.Receptor>
prm/pocket_docking_8.prm

>  <SCORE>
-17.3189

>  <SCORE.INTER>
-17.3189

>  <SCORE.INTER.CONST>
1

>  <SCORE.INTER.POLAR>
0

>  <SCORE.INTER.ROT>
0

>  <SCORE.INTER.SOLV>
10.992

>  <SCORE.INTER.VDW>
-18.81

>  <SCORE.INTER.norm>
-1.44325

>  <SCORE.INTRA>
0

>  <SCORE.INTRA.DIHEDRAL>
0

>  <SCORE.INTRA.DIHEDRAL.0>
0

>  <SCORE.INTRA.POLAR>
0

>  <SCORE.INTRA.POLAR.0>
0

>  <SCORE.INTRA.REPUL>
0

>  <SCORE.INTRA.REPUL.0>
0

>  <SCORE.INTRA.SOLV>
0

>  <SCORE.INTRA.SOLV.lig_0>
-28.9128

>  <SCORE.INTRA.VDW>
0

>  <SCORE.INTRA.VDW.0>
0

>  <SCORE.INTRA.norm>
0

>  <SCORE.RESTR>
0

>  <SCORE.RESTR.CAVITY>
0

>  <SCORE.RESTR.norm>
0

>  <SCORE.SYSTEM>
0

>  <SCORE.SYSTEM.CONST>
0

>  <SCORE.SYSTEM.DIHEDRAL>
0

>  <SCORE.SYSTEM.SOLV>
0

>  <SCORE.SYSTEM.norm>
0

>  <SCORE.heavy>
12

>  <SCORE.norm>
-1.44325

>  <RMSD>
2.969

$$$$
ligand
 OpenBabel11021811503D
libRbt.so/2013.1/901 2013/11/27
 12 13  0  0  0  0  0  0  0  0999 V2000
   29.4915   16.0864   16.0588 C   0  0  0  0  0  0  0  0  0  0  0  0
   30.9684   17.7396   15.1049 C   0  0  0  0  0  0  0  0  0  0  0  0
   28.7725   14.9752   15.9506 N   0  0  0  0  0  0  0  0  0  0  0  0
   29.5256   16.7245   17.2331 N   0  0  0  0  0  0  0  0  0  0  0  0
   30.2180   16.5783   14.9584 N   0  0  0  0  0  0  0  0  0  0  0  0
   31.5999   18.1712   14.1365 O   0  0  0  0  0  0  0  0  0  0  0  0
   31.6910   20.1714   17.8018 N   0  0  0  0  0  0  0  0  0  0  0  0
   30.9414   19.6158   18.8505 C   0  0  0  0  0  0  0  0  0  0  0  0
   30.2145   18.4315   18.6264 N   0  0  0  0  0  0  0  0  0  0  0  0
   30.2268   17.8516   17.4096 C   0  0  0  0  0  0  0  0  0  0  0  0
   30.9696   18.3817   16.3458 C   0  0  0  0  0  0  0  0  0  0  0  0
   31.6993   19.5466   16.5317 C   0  0  0  0  0  0  0  0  0  0  0  0
  1  3  1  0  0  0  0
  1  4  2  0  0  0  0
  1  5  1  0  0  0  0
  2  6  2  0  0  0  0
  2 11  1  0  0  0  0
  2  5  1  0  0  0  0
  4 10  1  0  0  0  0
  7  8  2  0  0  0  0
  7 12  1  0  0  0  0
  8  9  1  0  0  0  0
  9 10  2  0  0  0  0
 10 11  1  0  0  0  0
 11 12  2  0  0  0  0
M  END
>  <CHROM.1>
30.52570068,17.83380534,16.54307663,2.18725013,-0.91466730,-2.04185237

>  <Name>
ligand

>  <RI>
0

>  <Rbt.Current_Directory>
/home/itssahil/PROJECTS/Mol_Feturizer/New_Systems/rnas/4LX6

>  <Rbt.Executable>
rbdock ($Id: //depot/dev/client3/rdock/2013.1/src/exe/rbdock.cxx#4 $)

>  <Rbt.Library>
libRbt.so (2013.1, Build901 2013/11/27)

>  <Rbt.Parameter_File>
/export/apps/rDock/src/rDock_2013.1_src/data/scripts/dock_solv.prm

>  <Rbt.Receptor>
prm/blind_docking_100.prm

>  <SCORE>
-17.2823

>  <SCORE.INTER>
-17.2823

>  <SCORE.INTER.CONST>
1

>  <SCORE.INTER.POLAR>
0

>  <SCORE.INTER.ROT>
0

>  <SCORE.INTER.SOLV>
10.6065

>  <SCORE.INTER.VDW>
-18.657

>  <SCORE.INTER.norm>
-1.44019

>  <SCORE.INTRA>
0

>  <SCORE.INTRA.DIHEDRAL>
0

>  <SCORE.INTRA.DIHEDRAL.0>
0

>  <SCORE.INTRA.POLAR>
0

>  <SCORE.INTRA.POLAR.0>
0

>  <SCORE.INTRA.REPUL>
0

>  <SCORE.INTRA.REPUL.0>
0

>  <SCORE.INTRA.SOLV>
0

>  <SCORE.INTRA.SOLV.lig_0>
-28.9128

>  <SCORE.INTRA.VDW>
0

>  <SCORE.INTRA.VDW.0>
0

>  <SCORE.INTRA.norm>
0

>  <SCORE.RESTR>
0

>  <SCORE.RESTR.CAVITY>
0

>  <SCORE.RESTR.norm>
0

>  <SCORE.SYSTEM>
0

>  <SCORE.SYSTEM.CONST>
0

>  <SCORE.SYSTEM.DIHEDRAL>
0

>  <SCORE.SYSTEM.SOLV>
0

>  <SCORE.SYSTEM.norm>
0

>  <SCORE.heavy>
12

>  <SCORE.norm>
-1.44019

>  <RMSD>
2.970

$$$$
ligand
 OpenBabel11021811503D
libRbt.so/2013.1/901 2013/11/27
 12 13  0  0  0  0  0  0  0  0999 V2000
   29.5472   16.0540   16.0640 C   0  0  0  0  0  0  0  0  0  0  0  0
   31.0414   17.7011   15.1268 C   0  0  0  0  0  0  0  0  0  0  0  0
   28.8341   14.9395   15.9513 N   0  0  0  0  0  0  0  0  0  0  0  0
   29.5517   16.7053   17.2316 N   0  0  0  0  0  0  0  0  0  0  0  0
   30.2981   16.5359   14.9757 N   0  0  0  0  0  0  0  0  0  0  0  0
   31.6945   18.1239   14.1688 O   0  0  0  0  0  0  0  0  0  0  0  0
   31.6931   20.1650   17.8126 N   0  0  0  0  0  0  0  0  0  0  0  0
   30.9205   19.6188   18.8495 C   0  0  0  0  0  0  0  0  0  0  0  0
   30.2026   18.4298   18.6216 N   0  0  0  0  0  0  0  0  0  0  0  0
   30.2453   17.8364   17.4119 C   0  0  0  0  0  0  0  0  0  0  0  0
   31.0115   18.3570   16.3601 C   0  0  0  0  0  0  0  0  0  0  0  0
   31.7333   19.5261   16.5502 C   0  0  0  0  0  0  0  0  0  0  0  0
  1  3  1  0  0  0  0
  1  4  2  0  0  0  0
  1  5  1  0  0  0  0
  2  6  2  0  0  0  0
  2 11  1  0  0  0  0
  2  5  1  0  0  0  0
  4 10  1  0  0  0  0
  7  8  2  0  0  0  0
  7 12  1  0  0  0  0
  8  9  1  0  0  0  0
  9 10  2  0  0  0  0
 10 11  1  0  0  0  0
 11 12  2  0  0  0  0
M  END
>  <CHROM.1>
30.56463830,17.80992904,16.55298849,2.15099437,-0.90617702,-2.08164677

>  <Name>
ligand

>  <RI>
0

>  <Rbt.Current_Directory>
/home/itssahil/PROJECTS/Mol_Feturizer/New_Systems/rnas/4LX6

>  <Rbt.Executable>
rbdock ($Id: //depot/dev/client3/rdock/2013.1/src/exe/rbdock.cxx#4 $)

>  <Rbt.Library>
libRbt.so (2013.1, Build901 2013/11/27)

>  <Rbt.Parameter_File>
/export/apps/rDock/src/rDock_2013.1_src/data/scripts/dock_solv.prm

>  <Rbt.Receptor>
prm/blind_docking_60.prm

>  <SCORE>
-17.3326

>  <SCORE.INTER>
-17.3326

>  <SCORE.INTER.CONST>
1

>  <SCORE.INTER.POLAR>
0

>  <SCORE.INTER.ROT>
0

>  <SCORE.INTER.SOLV>
10.9168

>  <SCORE.INTER.VDW>
-18.794

>  <SCORE.INTER.norm>
-1.44438

>  <SCORE.INTRA>
0

>  <SCORE.INTRA.DIHEDRAL>
0

>  <SCORE.INTRA.DIHEDRAL.0>
0

>  <SCORE.INTRA.POLAR>
0

>  <SCORE.INTRA.POLAR.0>
0

>  <SCORE.INTRA.REPUL>
0

>  <SCORE.INTRA.REPUL.0>
0

>  <SCORE.INTRA.SOLV>
0

>  <SCORE.INTRA.SOLV.lig_0>
-28.9128

>  <SCORE.INTRA.VDW>
0

>  <SCORE.INTRA.VDW.0>
0

>  <SCORE.INTRA.norm>
0

>  <SCORE.RESTR>
0

>  <SCORE.RESTR.CAVITY>
0

>  <SCORE.RESTR.norm>
0

>  <SCORE.SYSTEM>
0

>  <SCORE.SYSTEM.CONST>
0

>  <SCORE.SYSTEM.DIHEDRAL>
0

>  <SCORE.SYSTEM.SOLV>
0

>  <SCORE.SYSTEM.norm>
0

>  <SCORE.heavy>
12

>  <SCORE.norm>
-1.44438

>  <RMSD>
2.970

$$$$
ligand
 OpenBabel11021811503D
libRbt.so/2013.1/901 2013/11/27
 12 13  0  0  0  0  0  0  0  0999 V2000
   29.4991   16.0970   16.0682 C   0  0  0  0  0  0  0  0  0  0  0  0
   30.9289   17.7790   15.0931 C   0  0  0  0  0  0  0  0  0  0  0  0
   28.7961   14.9748   15.9687 N   0  0  0  0  0  0  0  0  0  0  0  0
   29.5469   16.7297   17.2449 N   0  0  0  0  0  0  0  0  0  0  0  0
   30.1947   16.6063   14.9558 N   0  0  0  0  0  0  0  0  0  0  0  0
   31.5333   18.2259   14.1143 O   0  0  0  0  0  0  0  0  0  0  0  0
   31.6671   20.2087   17.7878 N   0  0  0  0  0  0  0  0  0  0  0  0
   30.9484   19.6355   18.8486 C   0  0  0  0  0  0  0  0  0  0  0  0
   30.2364   18.4406   18.6331 N   0  0  0  0  0  0  0  0  0  0  0  0
   30.2331   17.8671   17.4131 C   0  0  0  0  0  0  0  0  0  0  0  0
   30.9452   18.4147   16.3372 C   0  0  0  0  0  0  0  0  0  0  0  0
   31.6595   19.5905   16.5145 C   0  0  0  0  0  0  0  0  0  0  0  0
  1  3  1  0  0  0  0
  1  4  2  0  0  0  0
  1  5  1  0  0  0  0
  2  6  2  0  0  0  0
  2 11  1  0  0  0  0
  2  5  1  0  0  0  0
  4 10  1  0  0  0  0
  7  8  2  0  0  0  0
  7 12  1  0  0  0  0
  8  9  1  0  0  0  0
  9 10  2  0  0  0  0
 10 11  1  0  0  0  0
 11 12  2  0  0  0  0
M  END
>  <CHROM.1>
30.51441737,17.85866640,16.54058593,2.20575379,-0.93843597,-2.02182115

>  <Name>
ligand

>  <RI>
0

>  <Rbt.Current_Directory>
/home/itssahil/PROJECTS/Mol_Feturizer/New_Systems/rnas/4LX6

>  <Rbt.Executable>
rbdock ($Id: //depot/dev/client3/rdock/2013.1/src/exe/rbdock.cxx#4 $)

>  <Rbt.Library>
libRbt.so (2013.1, Build901 2013/11/27)

>  <Rbt.Parameter_File>
/export/apps/rDock/src/rDock_2013.1_src/data/scripts/dock_solv.prm

>  <Rbt.Receptor>
prm/blind_docking_80.prm

>  <SCORE>
-17.2866

>  <SCORE.INTER>
-17.2866

>  <SCORE.INTER.CONST>
1

>  <SCORE.INTER.POLAR>
0

>  <SCORE.INTER.ROT>
0

>  <SCORE.INTER.SOLV>
10.6875

>  <SCORE.INTER.VDW>
-18.6869

>  <SCORE.INTER.norm>
-1.44055

>  <SCORE.INTRA>
0

>  <SCORE.INTRA.DIHEDRAL>
0

>  <SCORE.INTRA.DIHEDRAL.0>
0

>  <SCORE.INTRA.POLAR>
0

>  <SCORE.INTRA.POLAR.0>
0

>  <SCORE.INTRA.REPUL>
0

>  <SCORE.INTRA.REPUL.0>
0

>  <SCORE.INTRA.SOLV>
0

>  <SCORE.INTRA.SOLV.lig_0>
-28.9128

>  <SCORE.INTRA.VDW>
0

>  <SCORE.INTRA.VDW.0>
0

>  <SCORE.INTRA.norm>
0

>  <SCORE.RESTR>
0

>  <SCORE.RESTR.CAVITY>
0

>  <SCORE.RESTR.norm>
0

>  <SCORE.SYSTEM>
0

>  <SCORE.SYSTEM.CONST>
0

>  <SCORE.SYSTEM.DIHEDRAL>
0

>  <SCORE.SYSTEM.SOLV>
0

>  <SCORE.SYSTEM.norm>
0

>  <SCORE.heavy>
12

>  <SCORE.norm>
-1.44055

>  <RMSD>
2.970

$$$$
ligand
 OpenBabel11021811503D
libRbt.so/2013.1/901 2013/11/27
 12 13  0  0  0  0  0  0  0  0999 V2000
   29.5177   16.0854   16.0635 C   0  0  0  0  0  0  0  0  0  0  0  0
   31.0411   17.7095   15.1333 C   0  0  0  0  0  0  0  0  0  0  0  0
   28.7921   14.9791   15.9490 N   0  0  0  0  0  0  0  0  0  0  0  0
   29.5188   16.7422   17.2280 N   0  0  0  0  0  0  0  0  0  0  0  0
   30.2850   16.5528   14.9803 N   0  0  0  0  0  0  0  0  0  0  0  0
   31.7086   18.1197   14.1798 O   0  0  0  0  0  0  0  0  0  0  0  0
   31.6968   20.1782   17.8138 N   0  0  0  0  0  0  0  0  0  0  0  0
   30.9075   19.6464   18.8456 C   0  0  0  0  0  0  0  0  0  0  0  0
   30.1772   18.4652   18.6162 N   0  0  0  0  0  0  0  0  0  0  0  0
   30.2244   17.8655   17.4098 C   0  0  0  0  0  0  0  0  0  0  0  0
   31.0073   18.3716   16.3631 C   0  0  0  0  0  0  0  0  0  0  0  0
   31.7414   19.5327   16.5548 C   0  0  0  0  0  0  0  0  0  0  0  0
  1  3  1  0  0  0  0
  1  4  2  0  0  0  0
  1  5  1  0  0  0  0
  2  6  2  0  0  0  0
  2 11  1  0  0  0  0
  2  5  1  0  0  0  0
  4 10  1  0  0  0  0
  7  8  2  0  0  0  0
  7 12  1  0  0  0  0
  8  9  1  0  0  0  0
  9 10  2  0  0  0  0
 10 11  1  0  0  0  0
 11 12  2  0  0  0  0
M  END
>  <CHROM.1>
30.55180492,17.83103397,16.55422083,2.14701522,-0.89067759,-2.08949952

>  <Name>
ligand

>  <RI>
0

>  <Rbt.Current_Directory>
/home/itssahil/PROJECTS/Mol_Feturizer/New_Systems/rnas/4LX6

>  <Rbt.Executable>
rbdock ($Id: //depot/dev/client3/rdock/2013.1/src/exe/rbdock.cxx#4 $)

>  <Rbt.Library>
libRbt.so (2013.1, Build901 2013/11/27)

>  <Rbt.Parameter_File>
/export/apps/rDock/src/rDock_2013.1_src/data/scripts/dock_solv.prm

>  <Rbt.Receptor>
prm/pocket_docking_4.prm

>  <SCORE>
-17.2819

>  <SCORE.INTER>
-17.2819

>  <SCORE.INTER.CONST>
1

>  <SCORE.INTER.POLAR>
0

>  <SCORE.INTER.ROT>
0

>  <SCORE.INTER.SOLV>
10.7203

>  <SCORE.INTER.VDW>
-18.6947

>  <SCORE.INTER.norm>
-1.44016

>  <SCORE.INTRA>
0

>  <SCORE.INTRA.DIHEDRAL>
0

>  <SCORE.INTRA.DIHEDRAL.0>
0

>  <SCORE.INTRA.POLAR>
0

>  <SCORE.INTRA.POLAR.0>
0

>  <SCORE.INTRA.REPUL>
0

>  <SCORE.INTRA.REPUL.0>
0

>  <SCORE.INTRA.SOLV>
0

>  <SCORE.INTRA.SOLV.lig_0>
-28.9128

>  <SCORE.INTRA.VDW>
0

>  <SCORE.INTRA.VDW.0>
0

>  <SCORE.INTRA.norm>
0

>  <SCORE.RESTR>
0

>  <SCORE.RESTR.CAVITY>
0

>  <SCORE.RESTR.norm>
0

>  <SCORE.SYSTEM>
0

>  <SCORE.SYSTEM.CONST>
0

>  <SCORE.SYSTEM.DIHEDRAL>
0

>  <SCORE.SYSTEM.SOLV>
0

>  <SCORE.SYSTEM.norm>
0

>  <SCORE.heavy>
12

>  <SCORE.norm>
-1.44016

>  <RMSD>
2.970

$$$$
ligand
 OpenBabel11021811503D
libRbt.so/2013.1/901 2013/11/27
 12 13  0  0  0  0  0  0  0  0999 V2000
   29.4876   16.1047   16.0687 C   0  0  0  0  0  0  0  0  0  0  0  0
   30.9201   17.7834   15.0920 C   0  0  0  0  0  0  0  0  0  0  0  0
   28.7814   14.9844   15.9698 N   0  0  0  0  0  0  0  0  0  0  0  0
   29.5395   16.7364   17.2458 N   0  0  0  0  0  0  0  0  0  0  0  0
   30.1824   16.6129   14.9553 N   0  0  0  0  0  0  0  0  0  0  0  0
   31.5238   18.2294   14.1124 O   0  0  0  0  0  0  0  0  0  0  0  0
   31.6703   20.2092   17.7870 N   0  0  0  0  0  0  0  0  0  0  0  0
   30.9520   19.6372   18.8488 C   0  0  0  0  0  0  0  0  0  0  0  0
   30.2364   18.4444   18.6338 N   0  0  0  0  0  0  0  0  0  0  0  0
   30.2291   17.8718   17.4134 C   0  0  0  0  0  0  0  0  0  0  0  0
   30.9406   18.4183   16.3365 C   0  0  0  0  0  0  0  0  0  0  0  0
   31.6584   19.5919   16.5132 C   0  0  0  0  0  0  0  0  0  0  0  0
  1  3  1  0  0  0  0
  1  4  2  0  0  0  0
  1  5  1  0  0  0  0
  2  6  2  0  0  0  0
  2 11  1  0  0  0  0
  2  5  1  0  0  0  0
  4 10  1  0  0  0  0
  7  8  2  0  0  0  0
  7 12  1  0  0  0  0
  8  9  1  0  0  0  0
  9 10  2  0  0  0  0
 10 11  1  0  0  0  0
 11 12  2  0  0  0  0
M  END
>  <CHROM.1>
30.50868565,17.86322263,16.54037184,2.21075489,-0.93683014,-2.01707666

>  <Name>
ligand

>  <RI>
0

>  <Rbt.Current_Directory>
/home/itssahil/PROJECTS/Mol_Feturizer/New_Systems/rnas/4LX6

>  <Rbt.Executable>
rbdock ($Id: //depot/dev/client3/rdock/2013.1/src/exe/rbdock.cxx#4 $)

>  <Rbt.Library>
libRbt.so (2013.1, Build901 2013/11/27)

>  <Rbt.Parameter_File>
/export/apps/rDock/src/rDock_2013.1_src/data/scripts/dock_solv.prm

>  <Rbt.Receptor>
prm/pocket_docking_5.prm

>  <SCORE>
-17.2877

>  <SCORE.INTER>
-17.2877

>  <SCORE.INTER.CONST>
1

>  <SCORE.INTER.POLAR>
0

>  <SCORE.INTER.ROT>
0

>  <SCORE.INTER.SOLV>
10.6174

>  <SCORE.INTER.VDW>
-18.6642

>  <SCORE.INTER.norm>
-1.44064

>  <SCORE.INTRA>
0

>  <SCORE.INTRA.DIHEDRAL>
0

>  <SCORE.INTRA.DIHEDRAL.0>
0

>  <SCORE.INTRA.POLAR>
0

>  <SCORE.INTRA.POLAR.0>
0

>  <SCORE.INTRA.REPUL>
0

>  <SCORE.INTRA.REPUL.0>
0

>  <SCORE.INTRA.SOLV>
0

>  <SCORE.INTRA.SOLV.lig_0>
-28.9128

>  <SCORE.INTRA.VDW>
0

>  <SCORE.INTRA.VDW.0>
0

>  <SCORE.INTRA.norm>
0

>  <SCORE.RESTR>
0

>  <SCORE.RESTR.CAVITY>
0

>  <SCORE.RESTR.norm>
0

>  <SCORE.SYSTEM>
0

>  <SCORE.SYSTEM.CONST>
0

>  <SCORE.SYSTEM.DIHEDRAL>
0

>  <SCORE.SYSTEM.SOLV>
0

>  <SCORE.SYSTEM.norm>
0

>  <SCORE.heavy>
12

>  <SCORE.norm>
-1.44064

>  <RMSD>
2.970

$$$$
ligand
 OpenBabel11021811503D
libRbt.so/2013.1/901 2013/11/27
 12 13  0  0  0  0  0  0  0  0999 V2000
   29.5614   16.0625   16.0757 C   0  0  0  0  0  0  0  0  0  0  0  0
   31.0228   17.7314   15.1254 C   0  0  0  0  0  0  0  0  0  0  0  0
   28.8603   14.9399   15.9678 N   0  0  0  0  0  0  0  0  0  0  0  0
   29.5739   16.7089   17.2458 N   0  0  0  0  0  0  0  0  0  0  0  0
   30.2916   16.5579   14.9793 N   0  0  0  0  0  0  0  0  0  0  0  0
   31.6577   18.1661   14.1605 O   0  0  0  0  0  0  0  0  0  0  0  0
   31.6812   20.1919   17.8127 N   0  0  0  0  0  0  0  0  0  0  0  0
   30.9294   19.6321   18.8576 C   0  0  0  0  0  0  0  0  0  0  0  0
   30.2228   18.4354   18.6343 N   0  0  0  0  0  0  0  0  0  0  0  0
   30.2562   17.8476   17.4217 C   0  0  0  0  0  0  0  0  0  0  0  0
   31.0018   18.3817   16.3618 C   0  0  0  0  0  0  0  0  0  0  0  0
   31.7119   19.5588   16.5471 C   0  0  0  0  0  0  0  0  0  0  0  0
  1  3  1  0  0  0  0
  1  4  2  0  0  0  0
  1  5  1  0  0  0  0
  2  6  2  0  0  0  0
  2 11  1  0  0  0  0
  2  5  1  0  0  0  0
  4 10  1  0  0  0  0
  7  8  2  0  0  0  0
  7 12  1  0  0  0  0
  8  9  1  0  0  0  0
  9 10  2  0  0  0  0
 10 11  1  0  0  0  0
 11 12  2  0  0  0  0
M  END
>  <CHROM.1>
30.56415230,17.82855676,16.55837037,2.16085891,-0.92329644,-2.06961653

>  <Name>
ligand

>  <RI>
0

>  <Rbt.Current_Directory>
/home/itssahil/PROJECTS/Mol_Feturizer/New_Systems/rnas/4LX6

>  <Rbt.Executable>
rbdock ($Id: //depot/dev/client3/rdock/2013.1/src/exe/rbdock.cxx#4 $)

>  <Rbt.Library>
libRbt.so (2013.1, Build901 2013/11/27)

>  <Rbt.Parameter_File>
/export/apps/rDock/src/rDock_2013.1_src/data/scripts/dock_solv.prm

>  <Rbt.Receptor>
prm/pocket_docking_6.prm

>  <SCORE>
-17.3199

>  <SCORE.INTER>
-17.3199

>  <SCORE.INTER.CONST>
1

>  <SCORE.INTER.POLAR>
0

>  <SCORE.INTER.ROT>
0

>  <SCORE.INTER.SOLV>
11.003

>  <SCORE.INTER.VDW>
-18.8143

>  <SCORE.INTER.norm>
-1.44332

>  <SCORE.INTRA>
0

>  <SCORE.INTRA.DIHEDRAL>
0

>  <SCORE.INTRA.DIHEDRAL.0>
0

>  <SCORE.INTRA.POLAR>
0

>  <SCORE.INTRA.POLAR.0>
0

>  <SCORE.INTRA.REPUL>
0

>  <SCORE.INTRA.REPUL.0>
0

>  <SCORE.INTRA.SOLV>
0

>  <SCORE.INTRA.SOLV.lig_0>
-28.9128

>  <SCORE.INTRA.VDW>
0

>  <SCORE.INTRA.VDW.0>
0

>  <SCORE.INTRA.norm>
0

>  <SCORE.RESTR>
0

>  <SCORE.RESTR.CAVITY>
0

>  <SCORE.RESTR.norm>
0

>  <SCORE.SYSTEM>
0

>  <SCORE.SYSTEM.CONST>
0

>  <SCORE.SYSTEM.DIHEDRAL>
0

>  <SCORE.SYSTEM.SOLV>
0

>  <SCORE.SYSTEM.norm>
0

>  <SCORE.heavy>
12

>  <SCORE.norm>
-1.44332

>  <RMSD>
2.970

$$$$
ligand
 OpenBabel11021811503D
libRbt.so/2013.1/901 2013/11/27
 12 13  0  0  0  0  0  0  0  0999 V2000
   29.5122   16.0833   16.0629 C   0  0  0  0  0  0  0  0  0  0  0  0
   30.9793   17.7460   15.1105 C   0  0  0  0  0  0  0  0  0  0  0  0
   28.7983   14.9689   15.9532 N   0  0  0  0  0  0  0  0  0  0  0  0
   29.5456   16.7184   17.2388 N   0  0  0  0  0  0  0  0  0  0  0  0
   30.2342   16.5815   14.9624 N   0  0  0  0  0  0  0  0  0  0  0  0
   31.6068   18.1833   14.1420 O   0  0  0  0  0  0  0  0  0  0  0  0
   31.6955   20.1741   17.8125 N   0  0  0  0  0  0  0  0  0  0  0  0
   30.9506   19.6121   18.8611 C   0  0  0  0  0  0  0  0  0  0  0  0
   30.2290   18.4250   18.6354 N   0  0  0  0  0  0  0  0  0  0  0  0
   30.2417   17.8483   17.4169 C   0  0  0  0  0  0  0  0  0  0  0  0
   30.9799   18.3848   16.3531 C   0  0  0  0  0  0  0  0  0  0  0  0
   31.7043   19.5527   16.5408 C   0  0  0  0  0  0  0  0  0  0  0  0
  1  3  1  0  0  0  0
  1  4  2  0  0  0  0
  1  5  1  0  0  0  0
  2  6  2  0  0  0  0
  2 11  1  0  0  0  0
  2  5  1  0  0  0  0
  4 10  1  0  0  0  0
  7  8  2  0  0  0  0
  7 12  1  0  0  0  0
  8  9  1  0  0  0  0
  9 10  2  0  0  0  0
 10 11  1  0  0  0  0
 11 12  2  0  0  0  0
M  END
>  <CHROM.1>
30.53898579,17.83430487,16.54982963,2.18654646,-0.91984673,-2.03974938

>  <Name>
ligand

>  <RI>
0

>  <Rbt.Current_Directory>
/home/itssahil/PROJECTS/Mol_Feturizer/New_Systems/rnas/4LX6

>  <Rbt.Executable>
rbdock ($Id: //depot/dev/client3/rdock/2013.1/src/exe/rbdock.cxx#4 $)

>  <Rbt.Library>
libRbt.so (2013.1, Build901 2013/11/27)

>  <Rbt.Parameter_File>
/export/apps/rDock/src/rDock_2013.1_src/data/scripts/dock_solv.prm

>  <Rbt.Receptor>
prm/pocket_docking_6.prm

>  <SCORE>
-17.2815

>  <SCORE.INTER>
-17.2815

>  <SCORE.INTER.CONST>
1

>  <SCORE.INTER.POLAR>
0

>  <SCORE.INTER.ROT>
0

>  <SCORE.INTER.SOLV>
10.712

>  <SCORE.INTER.VDW>
-18.6917

>  <SCORE.INTER.norm>
-1.44013

>  <SCORE.INTRA>
0

>  <SCORE.INTRA.DIHEDRAL>
0

>  <SCORE.INTRA.DIHEDRAL.0>
0

>  <SCORE.INTRA.POLAR>
0

>  <SCORE.INTRA.POLAR.0>
0

>  <SCORE.INTRA.REPUL>
0

>  <SCORE.INTRA.REPUL.0>
0

>  <SCORE.INTRA.SOLV>
0

>  <SCORE.INTRA.SOLV.lig_0>
-28.9128

>  <SCORE.INTRA.VDW>
0

>  <SCORE.INTRA.VDW.0>
0

>  <SCORE.INTRA.norm>
0

>  <SCORE.RESTR>
0

>  <SCORE.RESTR.CAVITY>
0

>  <SCORE.RESTR.norm>
0

>  <SCORE.SYSTEM>
0

>  <SCORE.SYSTEM.CONST>
0

>  <SCORE.SYSTEM.DIHEDRAL>
0

>  <SCORE.SYSTEM.SOLV>
0

>  <SCORE.SYSTEM.norm>
0

>  <SCORE.heavy>
12

>  <SCORE.norm>
-1.44013

>  <RMSD>
2.970

$$$$
ligand
 OpenBabel11021811503D
libRbt.so/2013.1/901 2013/11/27
 12 13  0  0  0  0  0  0  0  0999 V2000
   29.5495   16.0538   16.0669 C   0  0  0  0  0  0  0  0  0  0  0  0
   31.0391   17.7050   15.1293 C   0  0  0  0  0  0  0  0  0  0  0  0
   28.8397   14.9372   15.9543 N   0  0  0  0  0  0  0  0  0  0  0  0
   29.5522   16.7053   17.2343 N   0  0  0  0  0  0  0  0  0  0  0  0
   30.2991   16.5377   14.9784 N   0  0  0  0  0  0  0  0  0  0  0  0
   31.6909   18.1296   14.1713 O   0  0  0  0  0  0  0  0  0  0  0  0
   31.6837   20.1713   17.8148 N   0  0  0  0  0  0  0  0  0  0  0  0
   30.9126   19.6230   18.8517 C   0  0  0  0  0  0  0  0  0  0  0  0
   30.1981   18.4319   18.6240 N   0  0  0  0  0  0  0  0  0  0  0  0
   30.2425   17.8384   17.4145 C   0  0  0  0  0  0  0  0  0  0  0  0
   31.0073   18.3610   16.3626 C   0  0  0  0  0  0  0  0  0  0  0  0
   31.7256   19.5323   16.5525 C   0  0  0  0  0  0  0  0  0  0  0  0
  1  3  1  0  0  0  0
  1  4  2  0  0  0  0
  1  5  1  0  0  0  0
  2  6  2  0  0  0  0
  2 11  1  0  0  0  0
  2  5  1  0  0  0  0
  4 10  1  0  0  0  0
  7  8  2  0  0  0  0
  7 12  1  0  0  0  0
  8  9  1  0  0  0  0
  9 10  2  0  0  0  0
 10 11  1  0  0  0  0
 11 12  2  0  0  0  0
M  END
>  <CHROM.1>
30.56193962,17.81271633,16.55555223,2.14867989,-0.90867176,-2.08363564

>  <Name>
ligand

>  <RI>
0

>  <Rbt.Current_Directory>
/home/itssahil/PROJECTS/Mol_Feturizer/New_Systems/rnas/4LX6

>  <Rbt.Executable>
rbdock ($Id: //depot/dev/client3/rdock/2013.1/src/exe/rbdock.cxx#4 $)

>  <Rbt.Library>
libRbt.so (2013.1, Build901 2013/11/27)

>  <Rbt.Parameter_File>
/export/apps/rDock/src/rDock_2013.1_src/data/scripts/dock_solv.prm

>  <Rbt.Receptor>
prm/pocket_docking_7.prm

>  <SCORE>
-17.3324

>  <SCORE.INTER>
-17.3324

>  <SCORE.INTER.CONST>
1

>  <SCORE.INTER.POLAR>
0

>  <SCORE.INTER.ROT>
0

>  <SCORE.INTER.SOLV>
10.9387

>  <SCORE.INTER.VDW>
-18.8012

>  <SCORE.INTER.norm>
-1.44437

>  <SCORE.INTRA>
0

>  <SCORE.INTRA.DIHEDRAL>
0

>  <SCORE.INTRA.DIHEDRAL.0>
0

>  <SCORE.INTRA.POLAR>
0

>  <SCORE.INTRA.POLAR.0>
0

>  <SCORE.INTRA.REPUL>
0

>  <SCORE.INTRA.REPUL.0>
0

>  <SCORE.INTRA.SOLV>
0

>  <SCORE.INTRA.SOLV.lig_0>
-28.9128

>  <SCORE.INTRA.VDW>
0

>  <SCORE.INTRA.VDW.0>
0

>  <SCORE.INTRA.norm>
0

>  <SCORE.RESTR>
0

>  <SCORE.RESTR.CAVITY>
0

>  <SCORE.RESTR.norm>
0

>  <SCORE.SYSTEM>
0

>  <SCORE.SYSTEM.CONST>
0

>  <SCORE.SYSTEM.DIHEDRAL>
0

>  <SCORE.SYSTEM.SOLV>
0

>  <SCORE.SYSTEM.norm>
0

>  <SCORE.heavy>
12

>  <SCORE.norm>
-1.44437

>  <RMSD>
2.970

$$$$
ligand
 OpenBabel11021811503D
libRbt.so/2013.1/901 2013/11/27
 12 13  0  0  0  0  0  0  0  0999 V2000
   29.5559   16.0593   16.0687 C   0  0  0  0  0  0  0  0  0  0  0  0
   31.0474   17.7101   15.1336 C   0  0  0  0  0  0  0  0  0  0  0  0
   28.8455   14.9431   15.9548 N   0  0  0  0  0  0  0  0  0  0  0  0
   29.5577   16.7101   17.2364 N   0  0  0  0  0  0  0  0  0  0  0  0
   30.3069   16.5432   14.9813 N   0  0  0  0  0  0  0  0  0  0  0  0
   31.7005   18.1348   14.1765 O   0  0  0  0  0  0  0  0  0  0  0  0
   31.6906   20.1745   17.8211 N   0  0  0  0  0  0  0  0  0  0  0  0
   30.9181   19.6261   18.8568 C   0  0  0  0  0  0  0  0  0  0  0  0
   30.2031   18.4356   18.6278 N   0  0  0  0  0  0  0  0  0  0  0  0
   30.2484   17.8427   17.4180 C   0  0  0  0  0  0  0  0  0  0  0  0
   31.0147   18.3654   16.3671 C   0  0  0  0  0  0  0  0  0  0  0  0
   31.7335   19.5362   16.5584 C   0  0  0  0  0  0  0  0  0  0  0  0
  1  3  1  0  0  0  0
  1  4  2  0  0  0  0
  1  5  1  0  0  0  0
  2  6  2  0  0  0  0
  2 11  1  0  0  0  0
  2  5  1  0  0  0  0
  4 10  1  0  0  0  0
  7  8  2  0  0  0  0
  7 12  1  0  0  0  0
  8  9  1  0  0  0  0
  9 10  2  0  0  0  0
 10 11  1  0  0  0  0
 11 12  2  0  0  0  0
M  END
>  <CHROM.1>
30.56881330,17.81729986,16.55935144,2.14765144,-0.90764491,-2.08391993

>  <Name>
ligand

>  <RI>
0

>  <Rbt.Current_Directory>
/home/itssahil/PROJECTS/Mol_Feturizer/New_Systems/rnas/4LX6

>  <Rbt.Executable>
rbdock ($Id: //depot/dev/client3/rdock/2013.1/src/exe/rbdock.cxx#4 $)

>  <Rbt.Library>
libRbt.so (2013.1, Build901 2013/11/27)

>  <Rbt.Parameter_File>
/export/apps/rDock/src/rDock_2013.1_src/data/scripts/dock_solv.prm

>  <Rbt.Receptor>
prm/pocket_docking_8.prm

>  <SCORE>
-17.3315

>  <SCORE.INTER>
-17.3315

>  <SCORE.INTER.CONST>
1

>  <SCORE.INTER.POLAR>
0

>  <SCORE.INTER.ROT>
0

>  <SCORE.INTER.SOLV>
10.9552

>  <SCORE.INTER.VDW>
-18.8061

>  <SCORE.INTER.norm>
-1.44429

>  <SCORE.INTRA>
0

>  <SCORE.INTRA.DIHEDRAL>
0

>  <SCORE.INTRA.DIHEDRAL.0>
0

>  <SCORE.INTRA.POLAR>
0

>  <SCORE.INTRA.POLAR.0>
0

>  <SCORE.INTRA.REPUL>
0

>  <SCORE.INTRA.REPUL.0>
0

>  <SCORE.INTRA.SOLV>
0

>  <SCORE.INTRA.SOLV.lig_0>
-28.9128

>  <SCORE.INTRA.VDW>
0

>  <SCORE.INTRA.VDW.0>
0

>  <SCORE.INTRA.norm>
0

>  <SCORE.RESTR>
0

>  <SCORE.RESTR.CAVITY>
0

>  <SCORE.RESTR.norm>
0

>  <SCORE.SYSTEM>
0

>  <SCORE.SYSTEM.CONST>
0

>  <SCORE.SYSTEM.DIHEDRAL>
0

>  <SCORE.SYSTEM.SOLV>
0

>  <SCORE.SYSTEM.norm>
0

>  <SCORE.heavy>
12

>  <SCORE.norm>
-1.44429

>  <RMSD>
2.970

$$$$
ligand
 OpenBabel11021811503D
libRbt.so/2013.1/901 2013/11/27
 12 13  0  0  0  0  0  0  0  0999 V2000
   29.5587   16.0518   16.0672 C   0  0  0  0  0  0  0  0  0  0  0  0
   31.0417   17.7121   15.1356 C   0  0  0  0  0  0  0  0  0  0  0  0
   28.8557   14.9311   15.9516 N   0  0  0  0  0  0  0  0  0  0  0  0
   29.5536   16.7025   17.2350 N   0  0  0  0  0  0  0  0  0  0  0  0
   30.3090   16.5406   14.9816 N   0  0  0  0  0  0  0  0  0  0  0  0
   31.6943   18.1411   14.1800 O   0  0  0  0  0  0  0  0  0  0  0  0
   31.6629   20.1805   17.8247 N   0  0  0  0  0  0  0  0  0  0  0  0
   30.8916   19.6271   18.8587 C   0  0  0  0  0  0  0  0  0  0  0  0
   30.1848   18.4320   18.6279 N   0  0  0  0  0  0  0  0  0  0  0  0
   30.2367   17.8395   17.4182 C   0  0  0  0  0  0  0  0  0  0  0  0
   31.0020   18.3672   16.3691 C   0  0  0  0  0  0  0  0  0  0  0  0
   31.7129   19.5425   16.5621 C   0  0  0  0  0  0  0  0  0  0  0  0
  1  3  1  0  0  0  0
  1  4  2  0  0  0  0
  1  5  1  0  0  0  0
  2  6  2  0  0  0  0
  2 11  1  0  0  0  0
  2  5  1  0  0  0  0
  4 10  1  0  0  0  0
  7  8  2  0  0  0  0
  7 12  1  0  0  0  0
  8  9  1  0  0  0  0
  9 10  2  0  0  0  0
 10 11  1  0  0  0  0
 11 12  2  0  0  0  0
M  END
>  <CHROM.1>
30.55918121,17.81621834,16.56029743,2.13922960,-0.91207730,-2.09051120

>  <Name>
ligand

>  <RI>
0

>  <Rbt.Current_Directory>
/home/itssahil/PROJECTS/Mol_Feturizer/New_Systems/rnas/4LX6

>  <Rbt.Executable>
rbdock ($Id: //depot/dev/client3/rdock/2013.1/src/exe/rbdock.cxx#4 $)

>  <Rbt.Library>
libRbt.so (2013.1, Build901 2013/11/27)

>  <Rbt.Parameter_File>
/export/apps/rDock/src/rDock_2013.1_src/data/scripts/dock_solv.prm

>  <Rbt.Receptor>
prm/pocket_docking_8.prm

>  <SCORE>
-17.3229

>  <SCORE.INTER>
-17.3229

>  <SCORE.INTER.CONST>
1

>  <SCORE.INTER.POLAR>
0

>  <SCORE.INTER.ROT>
0

>  <SCORE.INTER.SOLV>
11.003

>  <SCORE.INTER.VDW>
-18.8163

>  <SCORE.INTER.norm>
-1.44357

>  <SCORE.INTRA>
0

>  <SCORE.INTRA.DIHEDRAL>
0

>  <SCORE.INTRA.DIHEDRAL.0>
0

>  <SCORE.INTRA.POLAR>
0

>  <SCORE.INTRA.POLAR.0>
0

>  <SCORE.INTRA.REPUL>
0

>  <SCORE.INTRA.REPUL.0>
0

>  <SCORE.INTRA.SOLV>
0

>  <SCORE.INTRA.SOLV.lig_0>
-28.9128

>  <SCORE.INTRA.VDW>
0

>  <SCORE.INTRA.VDW.0>
0

>  <SCORE.INTRA.norm>
0

>  <SCORE.RESTR>
0

>  <SCORE.RESTR.CAVITY>
0

>  <SCORE.RESTR.norm>
0

>  <SCORE.SYSTEM>
0

>  <SCORE.SYSTEM.CONST>
0

>  <SCORE.SYSTEM.DIHEDRAL>
0

>  <SCORE.SYSTEM.SOLV>
0

>  <SCORE.SYSTEM.norm>
0

>  <SCORE.heavy>
12

>  <SCORE.norm>
-1.44357

>  <RMSD>
2.970

$$$$
ligand
 OpenBabel11021811503D
libRbt.so/2013.1/901 2013/11/27
 12 13  0  0  0  0  0  0  0  0999 V2000
   29.5579   16.0592   16.0750 C   0  0  0  0  0  0  0  0  0  0  0  0
   31.0229   17.7264   15.1273 C   0  0  0  0  0  0  0  0  0  0  0  0
   28.8541   14.9384   15.9654 N   0  0  0  0  0  0  0  0  0  0  0  0
   29.5723   16.7034   17.2464 N   0  0  0  0  0  0  0  0  0  0  0  0
   30.2888   16.5549   14.9793 N   0  0  0  0  0  0  0  0  0  0  0  0
   31.6584   18.1613   14.1629 O   0  0  0  0  0  0  0  0  0  0  0  0
   31.6881   20.1803   17.8190 N   0  0  0  0  0  0  0  0  0  0  0  0
   30.9353   19.6203   18.8630 C   0  0  0  0  0  0  0  0  0  0  0  0
   30.2258   18.4258   18.6378 N   0  0  0  0  0  0  0  0  0  0  0  0
   30.2574   17.8401   17.4241 C   0  0  0  0  0  0  0  0  0  0  0  0
   31.0038   18.3745   16.3649 C   0  0  0  0  0  0  0  0  0  0  0  0
   31.7168   19.5495   16.5522 C   0  0  0  0  0  0  0  0  0  0  0  0
  1  3  1  0  0  0  0
  1  4  2  0  0  0  0
  1  5  1  0  0  0  0
  2  6  2  0  0  0  0
  2 11  1  0  0  0  0
  2  5  1  0  0  0  0
  4 10  1  0  0  0  0
  7  8  2  0  0  0  0
  7 12  1  0  0  0  0
  8  9  1  0  0  0  0
  9 10  2  0  0  0  0
 10 11  1  0  0  0  0
 11 12  2  0  0  0  0
M  END
>  <CHROM.1>
30.56498819,17.82195948,16.56062973,2.16327488,-0.92140222,-2.06583691

>  <Name>
ligand

>  <RI>
0

>  <Rbt.Current_Directory>
/home/itssahil/PROJECTS/Mol_Feturizer/New_Systems/rnas/4LX6

>  <Rbt.Executable>
rbdock ($Id: //depot/dev/client3/rdock/2013.1/src/exe/rbdock.cxx#4 $)

>  <Rbt.Library>
libRbt.so (2013.1, Build901 2013/11/27)

>  <Rbt.Parameter_File>
/export/apps/rDock/src/rDock_2013.1_src/data/scripts/dock_solv.prm

>  <Rbt.Receptor>
prm/blind_docking_60.prm

>  <SCORE>
-17.3134

>  <SCORE.INTER>
-17.3134

>  <SCORE.INTER.CONST>
1

>  <SCORE.INTER.POLAR>
0

>  <SCORE.INTER.ROT>
0

>  <SCORE.INTER.SOLV>
10.9763

>  <SCORE.INTER.VDW>
-18.801

>  <SCORE.INTER.norm>
-1.44278

>  <SCORE.INTRA>
0

>  <SCORE.INTRA.DIHEDRAL>
0

>  <SCORE.INTRA.DIHEDRAL.0>
0

>  <SCORE.INTRA.POLAR>
0

>  <SCORE.INTRA.POLAR.0>
0

>  <SCORE.INTRA.REPUL>
0

>  <SCORE.INTRA.REPUL.0>
0

>  <SCORE.INTRA.SOLV>
0

>  <SCORE.INTRA.SOLV.lig_0>
-28.9128

>  <SCORE.INTRA.VDW>
0

>  <SCORE.INTRA.VDW.0>
0

>  <SCORE.INTRA.norm>
0

>  <SCORE.RESTR>
0

>  <SCORE.RESTR.CAVITY>
0

>  <SCORE.RESTR.norm>
0

>  <SCORE.SYSTEM>
0

>  <SCORE.SYSTEM.CONST>
0

>  <SCORE.SYSTEM.DIHEDRAL>
0

>  <SCORE.SYSTEM.SOLV>
0

>  <SCORE.SYSTEM.norm>
0

>  <SCORE.heavy>
12

>  <SCORE.norm>
-1.44278

>  <RMSD>
2.971

$$$$
ligand
 OpenBabel11021811503D
libRbt.so/2013.1/901 2013/11/27
 12 13  0  0  0  0  0  0  0  0999 V2000
   29.5548   16.0562   16.0698 C   0  0  0  0  0  0  0  0  0  0  0  0
   31.0419   17.7107   15.1343 C   0  0  0  0  0  0  0  0  0  0  0  0
   28.8470   14.9383   15.9561 N   0  0  0  0  0  0  0  0  0  0  0  0
   29.5557   16.7068   17.2377 N   0  0  0  0  0  0  0  0  0  0  0  0
   30.3040   16.5422   14.9822 N   0  0  0  0  0  0  0  0  0  0  0  0
   31.6934   18.1372   14.1769 O   0  0  0  0  0  0  0  0  0  0  0  0
   31.6806   20.1761   17.8220 N   0  0  0  0  0  0  0  0  0  0  0  0
   30.9100   19.6257   18.8581 C   0  0  0  0  0  0  0  0  0  0  0  0
   30.1977   18.4335   18.6291 N   0  0  0  0  0  0  0  0  0  0  0  0
   30.2438   17.8410   17.4191 C   0  0  0  0  0  0  0  0  0  0  0  0
   31.0082   18.3657   16.3680 C   0  0  0  0  0  0  0  0  0  0  0  0
   31.7244   19.5381   16.5592 C   0  0  0  0  0  0  0  0  0  0  0  0
  1  3  1  0  0  0  0
  1  4  2  0  0  0  0
  1  5  1  0  0  0  0
  2  6  2  0  0  0  0
  2 11  1  0  0  0  0
  2  5  1  0  0  0  0
  4 10  1  0  0  0  0
  7  8  2  0  0  0  0
  7 12  1  0  0  0  0
  8  9  1  0  0  0  0
  9 10  2  0  0  0  0
 10 11  1  0  0  0  0
 11 12  2  0  0  0  0
M  END
>  <CHROM.1>
30.56380318,17.81651957,16.56035677,2.14650890,-0.90998188,-2.08460795

>  <Name>
ligand

>  <RI>
0

>  <Rbt.Current_Directory>
/home/itssahil/PROJECTS/Mol_Feturizer/New_Systems/rnas/4LX6

>  <Rbt.Executable>
rbdock ($Id: //depot/dev/client3/rdock/2013.1/src/exe/rbdock.cxx#4 $)

>  <Rbt.Library>
libRbt.so (2013.1, Build901 2013/11/27)

>  <Rbt.Parameter_File>
/export/apps/rDock/src/rDock_2013.1_src/data/scripts/dock_solv.prm

>  <Rbt.Receptor>
prm/pocket_docking_4.prm

>  <SCORE>
-17.3311

>  <SCORE.INTER>
-17.3311

>  <SCORE.INTER.CONST>
1

>  <SCORE.INTER.POLAR>
0

>  <SCORE.INTER.ROT>
0

>  <SCORE.INTER.SOLV>
10.963

>  <SCORE.INTER.VDW>
-18.8084

>  <SCORE.INTER.norm>
-1.44426

>  <SCORE.INTRA>
0

>  <SCORE.INTRA.DIHEDRAL>
0

>  <SCORE.INTRA.DIHEDRAL.0>
0

>  <SCORE.INTRA.POLAR>
0

>  <SCORE.INTRA.POLAR.0>
0

>  <SCORE.INTRA.REPUL>
0

>  <SCORE.INTRA.REPUL.0>
0

>  <SCORE.INTRA.SOLV>
0

>  <SCORE.INTRA.SOLV.lig_0>
-28.9128

>  <SCORE.INTRA.VDW>
0

>  <SCORE.INTRA.VDW.0>
0

>  <SCORE.INTRA.norm>
0

>  <SCORE.RESTR>
0

>  <SCORE.RESTR.CAVITY>
0

>  <SCORE.RESTR.norm>
0

>  <SCORE.SYSTEM>
0

>  <SCORE.SYSTEM.CONST>
0

>  <SCORE.SYSTEM.DIHEDRAL>
0

>  <SCORE.SYSTEM.SOLV>
0

>  <SCORE.SYSTEM.norm>
0

>  <SCORE.heavy>
12

>  <SCORE.norm>
-1.44426

>  <RMSD>
2.971

$$$$
ligand
 OpenBabel11021811503D
libRbt.so/2013.1/901 2013/11/27
 12 13  0  0  0  0  0  0  0  0999 V2000
   29.5649   16.0620   16.0839 C   0  0  0  0  0  0  0  0  0  0  0  0
   31.0097   17.7391   15.1227 C   0  0  0  0  0  0  0  0  0  0  0  0
   28.8697   14.9352   15.9815 N   0  0  0  0  0  0  0  0  0  0  0  0
   29.5819   16.7089   17.2538 N   0  0  0  0  0  0  0  0  0  0  0  0
   30.2843   16.5613   14.9823 N   0  0  0  0  0  0  0  0  0  0  0  0
   31.6351   18.1771   14.1532 O   0  0  0  0  0  0  0  0  0  0  0  0
   31.6727   20.2044   17.8046 N   0  0  0  0  0  0  0  0  0  0  0  0
   30.9316   19.6405   18.8549 C   0  0  0  0  0  0  0  0  0  0  0  0
   30.2304   18.4397   18.6371 N   0  0  0  0  0  0  0  0  0  0  0  0
   30.2587   17.8516   17.4244 C   0  0  0  0  0  0  0  0  0  0  0  0
   30.9936   18.3898   16.3591 C   0  0  0  0  0  0  0  0  0  0  0  0
   31.6981   19.5710   16.5390 C   0  0  0  0  0  0  0  0  0  0  0  0
  1  3  1  0  0  0  0
  1  4  2  0  0  0  0
  1  5  1  0  0  0  0
  2  6  2  0  0  0  0
  2 11  1  0  0  0  0
  2  5  1  0  0  0  0
  4 10  1  0  0  0  0
  7  8  2  0  0  0  0
  7 12  1  0  0  0  0
  8  9  1  0  0  0  0
  9 10  2  0  0  0  0
 10 11  1  0  0  0  0
 11 12  2  0  0  0  0
M  END
>  <CHROM.1>
30.56065291,17.83407876,16.55893874,2.16658968,-0.93184599,-2.06537428

>  <Name>
ligand

>  <RI>
0

>  <Rbt.Current_Directory>
/home/itssahil/PROJECTS/Mol_Feturizer/New_Systems/rnas/4LX6

>  <Rbt.Executable>
rbdock ($Id: //depot/dev/client3/rdock/2013.1/src/exe/rbdock.cxx#4 $)

>  <Rbt.Library>
libRbt.so (2013.1, Build901 2013/11/27)

>  <Rbt.Parameter_File>
/export/apps/rDock/src/rDock_2013.1_src/data/scripts/dock_solv.prm

>  <Rbt.Receptor>
prm/pocket_docking_5.prm

>  <SCORE>
-17.3172

>  <SCORE.INTER>
-17.3172

>  <SCORE.INTER.CONST>
1

>  <SCORE.INTER.POLAR>
0

>  <SCORE.INTER.ROT>
0

>  <SCORE.INTER.SOLV>
11.0592

>  <SCORE.INTER.VDW>
-18.8312

>  <SCORE.INTER.norm>
-1.4431

>  <SCORE.INTRA>
0

>  <SCORE.INTRA.DIHEDRAL>
0

>  <SCORE.INTRA.DIHEDRAL.0>
0

>  <SCORE.INTRA.POLAR>
0

>  <SCORE.INTRA.POLAR.0>
0

>  <SCORE.INTRA.REPUL>
0

>  <SCORE.INTRA.REPUL.0>
0

>  <SCORE.INTRA.SOLV>
0

>  <SCORE.INTRA.SOLV.lig_0>
-28.9128

>  <SCORE.INTRA.VDW>
0

>  <SCORE.INTRA.VDW.0>
0

>  <SCORE.INTRA.norm>
0

>  <SCORE.RESTR>
0

>  <SCORE.RESTR.CAVITY>
0

>  <SCORE.RESTR.norm>
0

>  <SCORE.SYSTEM>
0

>  <SCORE.SYSTEM.CONST>
0

>  <SCORE.SYSTEM.DIHEDRAL>
0

>  <SCORE.SYSTEM.SOLV>
0

>  <SCORE.SYSTEM.norm>
0

>  <SCORE.heavy>
12

>  <SCORE.norm>
-1.4431

>  <RMSD>
2.971

$$$$
ligand
 OpenBabel11021811503D
libRbt.so/2013.1/901 2013/11/27
 12 13  0  0  0  0  0  0  0  0999 V2000
   29.5575   16.0546   16.0736 C   0  0  0  0  0  0  0  0  0  0  0  0
   31.0155   17.7289   15.1275 C   0  0  0  0  0  0  0  0  0  0  0  0
   28.8601   14.9298   15.9634 N   0  0  0  0  0  0  0  0  0  0  0  0
   29.5657   16.7000   17.2443 N   0  0  0  0  0  0  0  0  0  0  0  0
   30.2882   16.5533   14.9790 N   0  0  0  0  0  0  0  0  0  0  0  0
   31.6508   18.1664   14.1642 O   0  0  0  0  0  0  0  0  0  0  0  0
   31.6610   20.1891   17.8182 N   0  0  0  0  0  0  0  0  0  0  0  0
   30.9089   19.6260   18.8611 C   0  0  0  0  0  0  0  0  0  0  0  0
   30.2065   18.4274   18.6355 N   0  0  0  0  0  0  0  0  0  0  0  0
   30.2441   17.8407   17.4224 C   0  0  0  0  0  0  0  0  0  0  0  0
   30.9900   18.3781   16.3644 C   0  0  0  0  0  0  0  0  0  0  0  0
   31.6961   19.5572   16.5521 C   0  0  0  0  0  0  0  0  0  0  0  0
  1  3  1  0  0  0  0
  1  4  2  0  0  0  0
  1  5  1  0  0  0  0
  2  6  2  0  0  0  0
  2 11  1  0  0  0  0
  2  5  1  0  0  0  0
  4 10  1  0  0  0  0
  7  8  2  0  0  0  0
  7 12  1  0  0  0  0
  8  9  1  0  0  0  0
  9 10  2  0  0  0  0
 10 11  1  0  0  0  0
 11 12  2  0  0  0  0
M  END
>  <CHROM.1>
30.55376894,17.82336754,16.55968746,2.15557665,-0.92514736,-2.07296585

>  <Name>
ligand

>  <RI>
0

>  <Rbt.Current_Directory>
/home/itssahil/PROJECTS/Mol_Feturizer/New_Systems/rnas/4LX6

>  <Rbt.Executable>
rbdock ($Id: //depot/dev/client3/rdock/2013.1/src/exe/rbdock.cxx#4 $)

>  <Rbt.Library>
libRbt.so (2013.1, Build901 2013/11/27)

>  <Rbt.Parameter_File>
/export/apps/rDock/src/rDock_2013.1_src/data/scripts/dock_solv.prm

>  <Rbt.Receptor>
prm/pocket_docking_6.prm

>  <SCORE>
-17.3155

>  <SCORE.INTER>
-17.3155

>  <SCORE.INTER.CONST>
1

>  <SCORE.INTER.POLAR>
0

>  <SCORE.INTER.ROT>
0

>  <SCORE.INTER.SOLV>
11.0087

>  <SCORE.INTER.VDW>
-18.8133

>  <SCORE.INTER.norm>
-1.44296

>  <SCORE.INTRA>
0

>  <SCORE.INTRA.DIHEDRAL>
0

>  <SCORE.INTRA.DIHEDRAL.0>
0

>  <SCORE.INTRA.POLAR>
0

>  <SCORE.INTRA.POLAR.0>
0

>  <SCORE.INTRA.REPUL>
0

>  <SCORE.INTRA.REPUL.0>
0

>  <SCORE.INTRA.SOLV>
0

>  <SCORE.INTRA.SOLV.lig_0>
-28.9128

>  <SCORE.INTRA.VDW>
0

>  <SCORE.INTRA.VDW.0>
0

>  <SCORE.INTRA.norm>
0

>  <SCORE.RESTR>
0

>  <SCORE.RESTR.CAVITY>
0

>  <SCORE.RESTR.norm>
0

>  <SCORE.SYSTEM>
0

>  <SCORE.SYSTEM.CONST>
0

>  <SCORE.SYSTEM.DIHEDRAL>
0

>  <SCORE.SYSTEM.SOLV>
0

>  <SCORE.SYSTEM.norm>
0

>  <SCORE.heavy>
12

>  <SCORE.norm>
-1.44296

>  <RMSD>
2.971

$$$$
ligand
 OpenBabel11021811503D
libRbt.so/2013.1/901 2013/11/27
 12 13  0  0  0  0  0  0  0  0999 V2000
   29.5504   16.0480   16.0744 C   0  0  0  0  0  0  0  0  0  0  0  0
   31.0313   17.7007   15.1259 C   0  0  0  0  0  0  0  0  0  0  0  0
   28.8421   14.9297   15.9675 N   0  0  0  0  0  0  0  0  0  0  0  0
   29.5585   16.7011   17.2408 N   0  0  0  0  0  0  0  0  0  0  0  0
   30.2927   16.5317   14.9809 N   0  0  0  0  0  0  0  0  0  0  0  0
   31.6767   18.1252   14.1635 O   0  0  0  0  0  0  0  0  0  0  0  0
   31.6864   20.1722   17.8040 N   0  0  0  0  0  0  0  0  0  0  0  0
   30.9224   19.6238   18.8462 C   0  0  0  0  0  0  0  0  0  0  0  0
   30.2089   18.4310   18.6243 N   0  0  0  0  0  0  0  0  0  0  0  0
   30.2475   17.8359   17.4154 C   0  0  0  0  0  0  0  0  0  0  0  0
   31.0052   18.3584   16.3583 C   0  0  0  0  0  0  0  0  0  0  0  0
   31.7224   19.5314   16.5424 C   0  0  0  0  0  0  0  0  0  0  0  0
  1  3  1  0  0  0  0
  1  4  2  0  0  0  0
  1  5  1  0  0  0  0
  2  6  2  0  0  0  0
  2 11  1  0  0  0  0
  2  5  1  0  0  0  0
  4 10  1  0  0  0  0
  7  8  2  0  0  0  0
  7 12  1  0  0  0  0
  8  9  1  0  0  0  0
  9 10  2  0  0  0  0
 10 11  1  0  0  0  0
 11 12  2  0  0  0  0
M  END
>  <CHROM.1>
30.56212241,17.80955838,16.55466438,2.15528628,-0.91321968,-2.07987258

>  <Name>
ligand

>  <RI>
0

>  <Rbt.Current_Directory>
/home/itssahil/PROJECTS/Mol_Feturizer/New_Systems/rnas/4LX6

>  <Rbt.Executable>
rbdock ($Id: //depot/dev/client3/rdock/2013.1/src/exe/rbdock.cxx#4 $)

>  <Rbt.Library>
libRbt.so (2013.1, Build901 2013/11/27)

>  <Rbt.Parameter_File>
/export/apps/rDock/src/rDock_2013.1_src/data/scripts/dock_solv.prm

>  <Rbt.Receptor>
prm/blind_docking_80.prm

>  <SCORE>
-17.3311

>  <SCORE.INTER>
-17.3311

>  <SCORE.INTER.CONST>
1

>  <SCORE.INTER.POLAR>
0

>  <SCORE.INTER.ROT>
0

>  <SCORE.INTER.SOLV>
10.9577

>  <SCORE.INTER.VDW>
-18.8066

>  <SCORE.INTER.norm>
-1.44426

>  <SCORE.INTRA>
0

>  <SCORE.INTRA.DIHEDRAL>
0

>  <SCORE.INTRA.DIHEDRAL.0>
0

>  <SCORE.INTRA.POLAR>
0

>  <SCORE.INTRA.POLAR.0>
0

>  <SCORE.INTRA.REPUL>
0

>  <SCORE.INTRA.REPUL.0>
0

>  <SCORE.INTRA.SOLV>
0

>  <SCORE.INTRA.SOLV.lig_0>
-28.9128

>  <SCORE.INTRA.VDW>
0

>  <SCORE.INTRA.VDW.0>
0

>  <SCORE.INTRA.norm>
0

>  <SCORE.RESTR>
0

>  <SCORE.RESTR.CAVITY>
0

>  <SCORE.RESTR.norm>
0

>  <SCORE.SYSTEM>
0

>  <SCORE.SYSTEM.CONST>
0

>  <SCORE.SYSTEM.DIHEDRAL>
0

>  <SCORE.SYSTEM.SOLV>
0

>  <SCORE.SYSTEM.norm>
0

>  <SCORE.heavy>
12

>  <SCORE.norm>
-1.44426

>  <RMSD>
2.972

$$$$
ligand
 OpenBabel11021811503D
libRbt.so/2013.1/901 2013/11/27
 12 13  0  0  0  0  0  0  0  0999 V2000
   29.5598   16.0539   16.0817 C   0  0  0  0  0  0  0  0  0  0  0  0
   31.0085   17.7314   15.1270 C   0  0  0  0  0  0  0  0  0  0  0  0
   28.8621   14.9291   15.9749 N   0  0  0  0  0  0  0  0  0  0  0  0
   29.5781   16.6964   17.2539 N   0  0  0  0  0  0  0  0  0  0  0  0
   30.2805   16.5557   14.9820 N   0  0  0  0  0  0  0  0  0  0  0  0
   31.6350   18.1717   14.1592 O   0  0  0  0  0  0  0  0  0  0  0  0
   31.6766   20.1851   17.8181 N   0  0  0  0  0  0  0  0  0  0  0  0
   30.9341   19.6190   18.8662 C   0  0  0  0  0  0  0  0  0  0  0  0
   30.2303   18.4205   18.6438 N   0  0  0  0  0  0  0  0  0  0  0  0
   30.2574   17.8370   17.4289 C   0  0  0  0  0  0  0  0  0  0  0  0
   30.9937   18.3774   16.3657 C   0  0  0  0  0  0  0  0  0  0  0  0
   31.7008   19.5564   16.5502 C   0  0  0  0  0  0  0  0  0  0  0  0
  1  3  1  0  0  0  0
  1  4  2  0  0  0  0
  1  5  1  0  0  0  0
  2  6  2  0  0  0  0
  2 11  1  0  0  0  0
  2  5  1  0  0  0  0
  4 10  1  0  0  0  0
  7  8  2  0  0  0  0
  7 12  1  0  0  0  0
  8  9  1  0  0  0  0
  9 10  2  0  0  0  0
 10 11  1  0  0  0  0
 11 12  2  0  0  0  0
M  END
>  <CHROM.1>
30.55945012,17.82197878,16.56346927,2.16816012,-0.92981656,-2.06036621

>  <Name>
ligand

>  <RI>
0

>  <Rbt.Current_Directory>
/home/itssahil/PROJECTS/Mol_Feturizer/New_Systems/rnas/4LX6

>  <Rbt.Executable>
rbdock ($Id: //depot/dev/client3/rdock/2013.1/src/exe/rbdock.cxx#4 $)

>  <Rbt.Library>
libRbt.so (2013.1, Build901 2013/11/27)

>  <Rbt.Parameter_File>
/export/apps/rDock/src/rDock_2013.1_src/data/scripts/dock_solv.prm

>  <Rbt.Receptor>
prm/pocket_docking_4.prm

>  <SCORE>
-17.3087

>  <SCORE.INTER>
-17.3087

>  <SCORE.INTER.CONST>
1

>  <SCORE.INTER.POLAR>
0

>  <SCORE.INTER.ROT>
0

>  <SCORE.INTER.SOLV>
11.0221

>  <SCORE.INTER.VDW>
-18.8132

>  <SCORE.INTER.norm>
-1.44239

>  <SCORE.INTRA>
0

>  <SCORE.INTRA.DIHEDRAL>
0

>  <SCORE.INTRA.DIHEDRAL.0>
0

>  <SCORE.INTRA.POLAR>
0

>  <SCORE.INTRA.POLAR.0>
0

>  <SCORE.INTRA.REPUL>
0

>  <SCORE.INTRA.REPUL.0>
0

>  <SCORE.INTRA.SOLV>
0

>  <SCORE.INTRA.SOLV.lig_0>
-28.9128

>  <SCORE.INTRA.VDW>
0

>  <SCORE.INTRA.VDW.0>
0

>  <SCORE.INTRA.norm>
0

>  <SCORE.RESTR>
0

>  <SCORE.RESTR.CAVITY>
0

>  <SCORE.RESTR.norm>
0

>  <SCORE.SYSTEM>
0

>  <SCORE.SYSTEM.CONST>
0

>  <SCORE.SYSTEM.DIHEDRAL>
0

>  <SCORE.SYSTEM.SOLV>
0

>  <SCORE.SYSTEM.norm>
0

>  <SCORE.heavy>
12

>  <SCORE.norm>
-1.44239

>  <RMSD>
2.972

$$$$
ligand
 OpenBabel11021811503D
libRbt.so/2013.1/901 2013/11/27
 12 13  0  0  0  0  0  0  0  0999 V2000
   29.5524   16.0501   16.0732 C   0  0  0  0  0  0  0  0  0  0  0  0
   31.0317   17.7092   15.1333 C   0  0  0  0  0  0  0  0  0  0  0  0
   28.8464   14.9309   15.9610 N   0  0  0  0  0  0  0  0  0  0  0  0
   29.5574   16.6988   17.2421 N   0  0  0  0  0  0  0  0  0  0  0  0
   30.2955   16.5393   14.9827 N   0  0  0  0  0  0  0  0  0  0  0  0
   31.6778   18.1385   14.1736 O   0  0  0  0  0  0  0  0  0  0  0  0
   31.6779   20.1717   17.8218 N   0  0  0  0  0  0  0  0  0  0  0  0
   30.9133   19.6180   18.8606 C   0  0  0  0  0  0  0  0  0  0  0  0
   30.2024   18.4247   18.6331 N   0  0  0  0  0  0  0  0  0  0  0  0
   30.2441   17.8342   17.4220 C   0  0  0  0  0  0  0  0  0  0  0  0
   31.0024   18.3622   16.3682 C   0  0  0  0  0  0  0  0  0  0  0  0
   31.7171   19.5358   16.5578 C   0  0  0  0  0  0  0  0  0  0  0  0
  1  3  1  0  0  0  0
  1  4  2  0  0  0  0
  1  5  1  0  0  0  0
  2  6  2  0  0  0  0
  2 11  1  0  0  0  0
  2  5  1  0  0  0  0
  4 10  1  0  0  0  0
  7  8  2  0  0  0  0
  7 12  1  0  0  0  0
  8  9  1  0  0  0  0
  9 10  2  0  0  0  0
 10 11  1  0  0  0  0
 11 12  2  0  0  0  0
M  END
>  <CHROM.1>
30.56005319,17.81173413,16.56172981,2.15151739,-0.91408847,-2.07907302

>  <Name>
ligand

>  <RI>
0

>  <Rbt.Current_Directory>
/home/itssahil/PROJECTS/Mol_Feturizer/New_Systems/rnas/4LX6

>  <Rbt.Executable>
rbdock ($Id: //depot/dev/client3/rdock/2013.1/src/exe/rbdock.cxx#4 $)

>  <Rbt.Library>
libRbt.so (2013.1, Build901 2013/11/27)

>  <Rbt.Parameter_File>
/export/apps/rDock/src/rDock_2013.1_src/data/scripts/dock_solv.prm

>  <Rbt.Receptor>
prm/pocket_docking_7.prm

>  <SCORE>
-17.3319

>  <SCORE.INTER>
-17.3319

>  <SCORE.INTER.CONST>
1

>  <SCORE.INTER.POLAR>
0

>  <SCORE.INTER.ROT>
0

>  <SCORE.INTER.SOLV>
10.9631

>  <SCORE.INTER.VDW>
-18.8089

>  <SCORE.INTER.norm>
-1.44432

>  <SCORE.INTRA>
0

>  <SCORE.INTRA.DIHEDRAL>
0

>  <SCORE.INTRA.DIHEDRAL.0>
0

>  <SCORE.INTRA.POLAR>
0

>  <SCORE.INTRA.POLAR.0>
0

>  <SCORE.INTRA.REPUL>
0

>  <SCORE.INTRA.REPUL.0>
0

>  <SCORE.INTRA.SOLV>
0

>  <SCORE.INTRA.SOLV.lig_0>
-28.9128

>  <SCORE.INTRA.VDW>
0

>  <SCORE.INTRA.VDW.0>
0

>  <SCORE.INTRA.norm>
0

>  <SCORE.RESTR>
0

>  <SCORE.RESTR.CAVITY>
0

>  <SCORE.RESTR.norm>
0

>  <SCORE.SYSTEM>
0

>  <SCORE.SYSTEM.CONST>
0

>  <SCORE.SYSTEM.DIHEDRAL>
0

>  <SCORE.SYSTEM.SOLV>
0

>  <SCORE.SYSTEM.norm>
0

>  <SCORE.heavy>
12

>  <SCORE.norm>
-1.44432

>  <RMSD>
2.972

$$$$
ligand
 OpenBabel11021811503D
libRbt.so/2013.1/901 2013/11/27
 12 13  0  0  0  0  0  0  0  0999 V2000
   29.5636   16.0456   16.0835 C   0  0  0  0  0  0  0  0  0  0  0  0
   30.9989   17.7297   15.1202 C   0  0  0  0  0  0  0  0  0  0  0  0
   28.8739   14.9154   15.9821 N   0  0  0  0  0  0  0  0  0  0  0  0
   29.5788   16.6929   17.2531 N   0  0  0  0  0  0  0  0  0  0  0  0
   30.2793   16.5483   14.9808 N   0  0  0  0  0  0  0  0  0  0  0  0
   31.6209   18.1706   14.1498 O   0  0  0  0  0  0  0  0  0  0  0  0
   31.6527   20.1989   17.8006 N   0  0  0  0  0  0  0  0  0  0  0  0
   30.9157   19.6316   18.8520 C   0  0  0  0  0  0  0  0  0  0  0  0
   30.2203   18.4273   18.6352 N   0  0  0  0  0  0  0  0  0  0  0  0
   30.2501   17.8390   17.4227 C   0  0  0  0  0  0  0  0  0  0  0  0
   30.9810   18.3806   16.3564 C   0  0  0  0  0  0  0  0  0  0  0  0
   31.6798   19.5653   16.5352 C   0  0  0  0  0  0  0  0  0  0  0  0
  1  3  1  0  0  0  0
  1  4  2  0  0  0  0
  1  5  1  0  0  0  0
  2  6  2  0  0  0  0
  2 11  1  0  0  0  0
  2  5  1  0  0  0  0
  4 10  1  0  0  0  0
  7  8  2  0  0  0  0
  7 12  1  0  0  0  0
  8  9  1  0  0  0  0
  9 10  2  0  0  0  0
 10 11  1  0  0  0  0
 11 12  2  0  0  0  0
M  END
>  <CHROM.1>
30.55107550,17.82277891,16.55687321,2.16435796,-0.93679879,-2.06740838

>  <Name>
ligand

>  <RI>
0

>  <Rbt.Current_Directory>
/home/itssahil/PROJECTS/Mol_Feturizer/New_Systems/rnas/4LX6

>  <Rbt.Executable>
rbdock ($Id: //depot/dev/client3/rdock/2013.1/src/exe/rbdock.cxx#4 $)

>  <Rbt.Library>
libRbt.so (2013.1, Build901 2013/11/27)

>  <Rbt.Parameter_File>
/export/apps/rDock/src/rDock_2013.1_src/data/scripts/dock_solv.prm

>  <Rbt.Receptor>
prm/pocket_docking_8.prm

>  <SCORE>
-17.305

>  <SCORE.INTER>
-17.305

>  <SCORE.INTER.CONST>
1

>  <SCORE.INTER.POLAR>
0

>  <SCORE.INTER.ROT>
0

>  <SCORE.INTER.SOLV>
11.101

>  <SCORE.INTER.VDW>
-18.837

>  <SCORE.INTER.norm>
-1.44208

>  <SCORE.INTRA>
0

>  <SCORE.INTRA.DIHEDRAL>
0

>  <SCORE.INTRA.DIHEDRAL.0>
0

>  <SCORE.INTRA.POLAR>
0

>  <SCORE.INTRA.POLAR.0>
0

>  <SCORE.INTRA.REPUL>
0

>  <SCORE.INTRA.REPUL.0>
0

>  <SCORE.INTRA.SOLV>
0

>  <SCORE.INTRA.SOLV.lig_0>
-28.9128

>  <SCORE.INTRA.VDW>
0

>  <SCORE.INTRA.VDW.0>
0

>  <SCORE.INTRA.norm>
0

>  <SCORE.RESTR>
0

>  <SCORE.RESTR.CAVITY>
0

>  <SCORE.RESTR.norm>
0

>  <SCORE.SYSTEM>
0

>  <SCORE.SYSTEM.CONST>
0

>  <SCORE.SYSTEM.DIHEDRAL>
0

>  <SCORE.SYSTEM.SOLV>
0

>  <SCORE.SYSTEM.norm>
0

>  <SCORE.heavy>
12

>  <SCORE.norm>
-1.44208

>  <RMSD>
2.972

$$$$
ligand
 OpenBabel11021811503D
libRbt.so/2013.1/901 2013/11/27
 12 13  0  0  0  0  0  0  0  0999 V2000
   29.5595   16.0538   16.0846 C   0  0  0  0  0  0  0  0  0  0  0  0
   31.0353   17.7096   15.1336 C   0  0  0  0  0  0  0  0  0  0  0  0
   28.8545   14.9334   15.9795 N   0  0  0  0  0  0  0  0  0  0  0  0
   29.5657   16.7088   17.2501 N   0  0  0  0  0  0  0  0  0  0  0  0
   30.3003   16.5382   14.9904 N   0  0  0  0  0  0  0  0  0  0  0  0
   31.6794   18.1346   14.1705 O   0  0  0  0  0  0  0  0  0  0  0  0
   31.6832   20.1870   17.8080 N   0  0  0  0  0  0  0  0  0  0  0  0
   30.9209   19.6379   18.8510 C   0  0  0  0  0  0  0  0  0  0  0  0
   30.2110   18.4426   18.6310 N   0  0  0  0  0  0  0  0  0  0  0  0
   30.2513   17.8458   17.4229 C   0  0  0  0  0  0  0  0  0  0  0  0
   31.0074   18.3691   16.3650 C   0  0  0  0  0  0  0  0  0  0  0  0
   31.7210   19.5444   16.5473 C   0  0  0  0  0  0  0  0  0  0  0  0
  1  3  1  0  0  0  0
  1  4  2  0  0  0  0
  1  5  1  0  0  0  0
  2  6  2  0  0  0  0
  2 11  1  0  0  0  0
  2  5  1  0  0  0  0
  4 10  1  0  0  0  0
  7  8  2  0  0  0  0
  7 12  1  0  0  0  0
  8  9  1  0  0  0  0
  9 10  2  0  0  0  0
 10 11  1  0  0  0  0
 11 12  2  0  0  0  0
M  END
>  <CHROM.1>
30.56594284,17.81916745,16.56222649,2.15298980,-0.91585705,-2.08317127

>  <Name>
ligand

>  <RI>
0

>  <Rbt.Current_Directory>
/home/itssahil/PROJECTS/Mol_Feturizer/New_Systems/rnas/4LX6

>  <Rbt.Executable>
rbdock ($Id: //depot/dev/client3/rdock/2013.1/src/exe/rbdock.cxx#4 $)

>  <Rbt.Library>
libRbt.so (2013.1, Build901 2013/11/27)

>  <Rbt.Parameter_File>
/export/apps/rDock/src/rDock_2013.1_src/data/scripts/dock_solv.prm

>  <Rbt.Receptor>
prm/pocket_docking_3.prm

>  <SCORE>
-17.322

>  <SCORE.INTER>
-17.322

>  <SCORE.INTER.CONST>
1

>  <SCORE.INTER.POLAR>
0

>  <SCORE.INTER.ROT>
0

>  <SCORE.INTER.SOLV>
11.0135

>  <SCORE.INTER.VDW>
-18.8192

>  <SCORE.INTER.norm>
-1.4435

>  <SCORE.INTRA>
0

>  <SCORE.INTRA.DIHEDRAL>
0

>  <SCORE.INTRA.DIHEDRAL.0>
0

>  <SCORE.INTRA.POLAR>
0

>  <SCORE.INTRA.POLAR.0>
0

>  <SCORE.INTRA.REPUL>
0

>  <SCORE.INTRA.REPUL.0>
0

>  <SCORE.INTRA.SOLV>
0

>  <SCORE.INTRA.SOLV.lig_0>
-28.9128

>  <SCORE.INTRA.VDW>
0

>  <SCORE.INTRA.VDW.0>
0

>  <SCORE.INTRA.norm>
0

>  <SCORE.RESTR>
0

>  <SCORE.RESTR.CAVITY>
0

>  <SCORE.RESTR.norm>
0

>  <SCORE.SYSTEM>
0

>  <SCORE.SYSTEM.CONST>
0

>  <SCORE.SYSTEM.DIHEDRAL>
0

>  <SCORE.SYSTEM.SOLV>
0

>  <SCORE.SYSTEM.norm>
0

>  <SCORE.heavy>
12

>  <SCORE.norm>
-1.4435

>  <RMSD>
2.973

$$$$
ligand
 OpenBabel11021811503D
libRbt.so/2013.1/901 2013/11/27
 12 13  0  0  0  0  0  0  0  0999 V2000
   29.5370   16.0662   16.0774 C   0  0  0  0  0  0  0  0  0  0  0  0
   31.0299   17.7121   15.1360 C   0  0  0  0  0  0  0  0  0  0  0  0
   28.8212   14.9532   15.9660 N   0  0  0  0  0  0  0  0  0  0  0  0
   29.5482   16.7153   17.2460 N   0  0  0  0  0  0  0  0  0  0  0  0
   30.2836   16.5486   14.9863 N   0  0  0  0  0  0  0  0  0  0  0  0
   31.6792   18.1355   14.1757 O   0  0  0  0  0  0  0  0  0  0  0  0
   31.6989   20.1700   17.8232 N   0  0  0  0  0  0  0  0  0  0  0  0
   30.9302   19.6233   18.8627 C   0  0  0  0  0  0  0  0  0  0  0  0
   30.2089   18.4361   18.6361 N   0  0  0  0  0  0  0  0  0  0  0  0
   30.2448   17.8448   17.4251 C   0  0  0  0  0  0  0  0  0  0  0  0
   31.0070   18.3658   16.3706 C   0  0  0  0  0  0  0  0  0  0  0  0
   31.7319   19.5333   16.5594 C   0  0  0  0  0  0  0  0  0  0  0  0
  1  3  1  0  0  0  0
  1  4  2  0  0  0  0
  1  5  1  0  0  0  0
  2  6  2  0  0  0  0
  2 11  1  0  0  0  0
  2  5  1  0  0  0  0
  4 10  1  0  0  0  0
  7  8  2  0  0  0  0
  7 12  1  0  0  0  0
  8  9  1  0  0  0  0
  9 10  2  0  0  0  0
 10 11  1  0  0  0  0
 11 12  2  0  0  0  0
M  END
>  <CHROM.1>
30.56002821,17.81929550,16.56466167,2.15918065,-0.90682356,-2.07340025

>  <Name>
ligand

>  <RI>
0

>  <Rbt.Current_Directory>
/home/itssahil/PROJECTS/Mol_Feturizer/New_Systems/rnas/4LX6

>  <Rbt.Executable>
rbdock ($Id: //depot/dev/client3/rdock/2013.1/src/exe/rbdock.cxx#4 $)

>  <Rbt.Library>
libRbt.so (2013.1, Build901 2013/11/27)

>  <Rbt.Parameter_File>
/export/apps/rDock/src/rDock_2013.1_src/data/scripts/dock_solv.prm

>  <Rbt.Receptor>
prm/pocket_docking_4.prm

>  <SCORE>
-17.2694

>  <SCORE.INTER>
-17.2694

>  <SCORE.INTER.CONST>
1

>  <SCORE.INTER.POLAR>
0

>  <SCORE.INTER.ROT>
0

>  <SCORE.INTER.SOLV>
10.8444

>  <SCORE.INTER.VDW>
-18.7277

>  <SCORE.INTER.norm>
-1.43912

>  <SCORE.INTRA>
0

>  <SCORE.INTRA.DIHEDRAL>
0

>  <SCORE.INTRA.DIHEDRAL.0>
0

>  <SCORE.INTRA.POLAR>
0

>  <SCORE.INTRA.POLAR.0>
0

>  <SCORE.INTRA.REPUL>
0

>  <SCORE.INTRA.REPUL.0>
0

>  <SCORE.INTRA.SOLV>
0

>  <SCORE.INTRA.SOLV.lig_0>
-28.9128

>  <SCORE.INTRA.VDW>
0

>  <SCORE.INTRA.VDW.0>
0

>  <SCORE.INTRA.norm>
0

>  <SCORE.RESTR>
0

>  <SCORE.RESTR.CAVITY>
0

>  <SCORE.RESTR.norm>
0

>  <SCORE.SYSTEM>
0

>  <SCORE.SYSTEM.CONST>
0

>  <SCORE.SYSTEM.DIHEDRAL>
0

>  <SCORE.SYSTEM.SOLV>
0

>  <SCORE.SYSTEM.norm>
0

>  <SCORE.heavy>
12

>  <SCORE.norm>
-1.43912

>  <RMSD>
2.973

$$$$
ligand
 OpenBabel11021811503D
libRbt.so/2013.1/901 2013/11/27
 12 13  0  0  0  0  0  0  0  0999 V2000
   29.5653   16.0586   16.0888 C   0  0  0  0  0  0  0  0  0  0  0  0
   31.0398   17.7172   15.1407 C   0  0  0  0  0  0  0  0  0  0  0  0
   28.8597   14.9388   15.9811 N   0  0  0  0  0  0  0  0  0  0  0  0
   29.5742   16.7093   17.2566 N   0  0  0  0  0  0  0  0  0  0  0  0
   30.3040   16.5466   14.9948 N   0  0  0  0  0  0  0  0  0  0  0  0
   31.6821   18.1454   14.1779 O   0  0  0  0  0  0  0  0  0  0  0  0
   31.6942   20.1847   17.8227 N   0  0  0  0  0  0  0  0  0  0  0  0
   30.9339   19.6322   18.8653 C   0  0  0  0  0  0  0  0  0  0  0  0
   30.2231   18.4380   18.6424 N   0  0  0  0  0  0  0  0  0  0  0  0
   30.2607   17.8455   17.4321 C   0  0  0  0  0  0  0  0  0  0  0  0
   31.0147   18.3722   16.3746 C   0  0  0  0  0  0  0  0  0  0  0  0
   31.7292   19.5467   16.5596 C   0  0  0  0  0  0  0  0  0  0  0  0
  1  3  1  0  0  0  0
  1  4  2  0  0  0  0
  1  5  1  0  0  0  0
  2  6  2  0  0  0  0
  2 11  1  0  0  0  0
  2  5  1  0  0  0  0
  4 10  1  0  0  0  0
  7  8  2  0  0  0  0
  7 12  1  0  0  0  0
  8  9  1  0  0  0  0
  9 10  2  0  0  0  0
 10 11  1  0  0  0  0
 11 12  2  0  0  0  0
M  END
>  <CHROM.1>
30.57347008,17.82180272,16.57071041,2.15627473,-0.91653502,-2.07696562

>  <Name>
ligand

>  <RI>
0

>  <Rbt.Current_Directory>
/home/itssahil/PROJECTS/Mol_Feturizer/New_Systems/rnas/4LX6

>  <Rbt.Executable>
rbdock ($Id: //depot/dev/client3/rdock/2013.1/src/exe/rbdock.cxx#4 $)

>  <Rbt.Library>
libRbt.so (2013.1, Build901 2013/11/27)

>  <Rbt.Parameter_File>
/export/apps/rDock/src/rDock_2013.1_src/data/scripts/dock_solv.prm

>  <Rbt.Receptor>
prm/pocket_docking_7.prm

>  <SCORE>
-17.2921

>  <SCORE.INTER>
-17.2921

>  <SCORE.INTER.CONST>
1

>  <SCORE.INTER.POLAR>
0

>  <SCORE.INTER.ROT>
0

>  <SCORE.INTER.SOLV>
11.0216

>  <SCORE.INTER.VDW>
-18.8019

>  <SCORE.INTER.norm>
-1.44101

>  <SCORE.INTRA>
0

>  <SCORE.INTRA.DIHEDRAL>
0

>  <SCORE.INTRA.DIHEDRAL.0>
0

>  <SCORE.INTRA.POLAR>
0

>  <SCORE.INTRA.POLAR.0>
0

>  <SCORE.INTRA.REPUL>
0

>  <SCORE.INTRA.REPUL.0>
0

>  <SCORE.INTRA.SOLV>
0

>  <SCORE.INTRA.SOLV.lig_0>
-28.9128

>  <SCORE.INTRA.VDW>
0

>  <SCORE.INTRA.VDW.0>
0

>  <SCORE.INTRA.norm>
0

>  <SCORE.RESTR>
0

>  <SCORE.RESTR.CAVITY>
0

>  <SCORE.RESTR.norm>
0

>  <SCORE.SYSTEM>
0

>  <SCORE.SYSTEM.CONST>
0

>  <SCORE.SYSTEM.DIHEDRAL>
0

>  <SCORE.SYSTEM.SOLV>
0

>  <SCORE.SYSTEM.norm>
0

>  <SCORE.heavy>
12

>  <SCORE.norm>
-1.44101

>  <RMSD>
2.974

$$$$
ligand
 OpenBabel11021811503D
libRbt.so/2013.1/901 2013/11/27
 12 13  0  0  0  0  0  0  0  0999 V2000
   31.5910   18.9400   17.2385 C   0  0  0  0  0  0  0  0  0  0  0  0
   29.7905   17.5527   16.4274 C   0  0  0  0  0  0  0  0  0  0  0  0
   32.2824   19.4728   18.2393 N   0  0  0  0  0  0  0  0  0  0  0  0
   31.9647   19.2005   15.9816 N   0  0  0  0  0  0  0  0  0  0  0  0
   30.4897   18.1025   17.4961 N   0  0  0  0  0  0  0  0  0  0  0  0
   28.8219   16.8232   16.6566 O   0  0  0  0  0  0  0  0  0  0  0  0
   29.9820   17.6526   12.7311 N   0  0  0  0  0  0  0  0  0  0  0  0
   31.0916   18.4948   12.5583 C   0  0  0  0  0  0  0  0  0  0  0  0
   31.7532   19.0049   13.6911 N   0  0  0  0  0  0  0  0  0  0  0  0
   31.3096   18.6994   14.9268 C   0  0  0  0  0  0  0  0  0  0  0  0
   30.2073   17.8576   15.1292 C   0  0  0  0  0  0  0  0  0  0  0  0
   29.5328   17.3354   14.0354 C   0  0  0  0  0  0  0  0  0  0  0  0
  1  3  1  0  0  0  0
  1  4  2  0  0  0  0
  1  5  1  0  0  0  0
  2  6  2  0  0  0  0
  2 11  1  0  0  0  0
  2  5  1  0  0  0  0
  4 10  1  0  0  0  0
  7  8  2  0  0  0  0
  7 12  1  0  0  0  0
  8  9  1  0  0  0  0
  9 10  2  0  0  0  0
 10 11  1  0  0  0  0
 11 12  2  0  0  0  0
M  END
>  <CHROM.1>
30.72177879,18.25192728,15.46974232,-1.34653353,-0.64942179,-1.58405147

>  <Name>
ligand

>  <RI>
0

>  <Rbt.Current_Directory>
/home/itssahil/PROJECTS/Mol_Feturizer/New_Systems/rnas/4LX6

>  <Rbt.Executable>
rbdock ($Id: //depot/dev/client3/rdock/2013.1/src/exe/rbdock.cxx#4 $)

>  <Rbt.Library>
libRbt.so (2013.1, Build901 2013/11/27)

>  <Rbt.Parameter_File>
/export/apps/rDock/src/rDock_2013.1_src/data/scripts/dock_solv.prm

>  <Rbt.Receptor>
prm/blind_docking_60.prm

>  <SCORE>
-13.9356

>  <SCORE.INTER>
-13.9362

>  <SCORE.INTER.CONST>
1

>  <SCORE.INTER.POLAR>
0

>  <SCORE.INTER.ROT>
0

>  <SCORE.INTER.SOLV>
11.2866

>  <SCORE.INTER.VDW>
-16.653

>  <SCORE.INTER.norm>
-1.16135

>  <SCORE.INTRA>
0

>  <SCORE.INTRA.DIHEDRAL>
0

>  <SCORE.INTRA.DIHEDRAL.0>
0

>  <SCORE.INTRA.POLAR>
0

>  <SCORE.INTRA.POLAR.0>
0

>  <SCORE.INTRA.REPUL>
0

>  <SCORE.INTRA.REPUL.0>
0

>  <SCORE.INTRA.SOLV>
0

>  <SCORE.INTRA.SOLV.lig_0>
-28.9128

>  <SCORE.INTRA.VDW>
0

>  <SCORE.INTRA.VDW.0>
0

>  <SCORE.INTRA.norm>
0

>  <SCORE.RESTR>
0.000683872

>  <SCORE.RESTR.CAVITY>
0.000683872

>  <SCORE.RESTR.norm>
5.69894e-05

>  <SCORE.SYSTEM>
0

>  <SCORE.SYSTEM.CONST>
0

>  <SCORE.SYSTEM.DIHEDRAL>
0

>  <SCORE.SYSTEM.SOLV>
0

>  <SCORE.SYSTEM.norm>
0

>  <SCORE.heavy>
12

>  <SCORE.norm>
-1.1613

>  <RMSD>
3.642

$$$$
ligand
 OpenBabel11021811503D
libRbt.so/2013.1/901 2013/11/27
 12 13  0  0  0  0  0  0  0  0999 V2000
   31.5745   18.9667   17.2319 C   0  0  0  0  0  0  0  0  0  0  0  0
   29.7897   17.5577   16.4236 C   0  0  0  0  0  0  0  0  0  0  0  0
   32.2564   19.5135   18.2317 N   0  0  0  0  0  0  0  0  0  0  0  0
   31.9522   19.2199   15.9748 N   0  0  0  0  0  0  0  0  0  0  0  0
   30.4789   18.1222   17.4910 N   0  0  0  0  0  0  0  0  0  0  0  0
   28.8260   16.8220   16.6541 O   0  0  0  0  0  0  0  0  0  0  0  0
   29.9987   17.6287   12.7275 N   0  0  0  0  0  0  0  0  0  0  0  0
   31.1021   18.4787   12.5532 C   0  0  0  0  0  0  0  0  0  0  0  0
   31.7537   19.0037   13.6849 N   0  0  0  0  0  0  0  0  0  0  0  0
   31.3066   18.7047   14.9210 C   0  0  0  0  0  0  0  0  0  0  0  0
   30.2103   17.8554   15.1249 C   0  0  0  0  0  0  0  0  0  0  0  0
   29.5457   17.3186   14.0322 C   0  0  0  0  0  0  0  0  0  0  0  0
  1  3  1  0  0  0  0
  1  4  2  0  0  0  0
  1  5  1  0  0  0  0
  2  6  2  0  0  0  0
  2 11  1  0  0  0  0
  2  5  1  0  0  0  0
  4 10  1  0  0  0  0
  7  8  2  0  0  0  0
  7 12  1  0  0  0  0
  8  9  1  0  0  0  0
  9 10  2  0  0  0  0
 10 11  1  0  0  0  0
 11 12  2  0  0  0  0
M  END
>  <CHROM.1>
30.71983412,18.25678734,15.46470805,-1.35296385,-0.65766936,-1.59623445

>  <Name>
ligand

>  <RI>
0

>  <Rbt.Current_Directory>
/home/itssahil/PROJECTS/Mol_Feturizer/New_Systems/rnas/4LX6

>  <Rbt.Executable>
rbdock ($Id: //depot/dev/client3/rdock/2013.1/src/exe/rbdock.cxx#4 $)

>  <Rbt.Library>
libRbt.so (2013.1, Build901 2013/11/27)

>  <Rbt.Parameter_File>
/export/apps/rDock/src/rDock_2013.1_src/data/scripts/dock_solv.prm

>  <Rbt.Receptor>
prm/blind_docking_60.prm

>  <SCORE>
-13.9662

>  <SCORE.INTER>
-13.9662

>  <SCORE.INTER.CONST>
1

>  <SCORE.INTER.POLAR>
0

>  <SCORE.INTER.ROT>
0

>  <SCORE.INTER.SOLV>
11.2701

>  <SCORE.INTER.VDW>
-16.6675

>  <SCORE.INTER.norm>
-1.16385

>  <SCORE.INTRA>
0

>  <SCORE.INTRA.DIHEDRAL>
0

>  <SCORE.INTRA.DIHEDRAL.0>
0

>  <SCORE.INTRA.POLAR>
0

>  <SCORE.INTRA.POLAR.0>
0

>  <SCORE.INTRA.REPUL>
0

>  <SCORE.INTRA.REPUL.0>
0

>  <SCORE.INTRA.SOLV>
0

>  <SCORE.INTRA.SOLV.lig_0>
-28.9128

>  <SCORE.INTRA.VDW>
0

>  <SCORE.INTRA.VDW.0>
0

>  <SCORE.INTRA.norm>
0

>  <SCORE.RESTR>
0

>  <SCORE.RESTR.CAVITY>
0

>  <SCORE.RESTR.norm>
0

>  <SCORE.SYSTEM>
0

>  <SCORE.SYSTEM.CONST>
0

>  <SCORE.SYSTEM.DIHEDRAL>
0

>  <SCORE.SYSTEM.SOLV>
0

>  <SCORE.SYSTEM.norm>
0

>  <SCORE.heavy>
12

>  <SCORE.norm>
-1.16385

>  <RMSD>
3.645

$$$$
ligand
 OpenBabel11021811503D
libRbt.so/2013.1/901 2013/11/27
 12 13  0  0  0  0  0  0  0  0999 V2000
   31.3247   18.8628   17.4610 C   0  0  0  0  0  0  0  0  0  0  0  0
   29.6836   17.4642   16.3770 C   0  0  0  0  0  0  0  0  0  0  0  0
   31.8769   19.3612   18.5611 N   0  0  0  0  0  0  0  0  0  0  0  0
   31.8276   19.2058   16.2708 N   0  0  0  0  0  0  0  0  0  0  0  0
   30.2351   17.9761   17.5461 N   0  0  0  0  0  0  0  0  0  0  0  0
   28.7248   16.6912   16.4549 O   0  0  0  0  0  0  0  0  0  0  0  0
   30.2880   17.7779   12.7375 N   0  0  0  0  0  0  0  0  0  0  0  0
   31.3759   18.6649   12.7376 C   0  0  0  0  0  0  0  0  0  0  0  0
   31.8844   19.1323   13.9640 N   0  0  0  0  0  0  0  0  0  0  0  0
   31.3163   18.7433   15.1229 C   0  0  0  0  0  0  0  0  0  0  0  0
   30.2322   17.8553   15.1530 C   0  0  0  0  0  0  0  0  0  0  0  0
   29.7069   17.3733   13.9631 C   0  0  0  0  0  0  0  0  0  0  0  0
  1  3  1  0  0  0  0
  1  4  2  0  0  0  0
  1  5  1  0  0  0  0
  2  6  2  0  0  0  0
  2 11  1  0  0  0  0
  2  5  1  0  0  0  0
  4 10  1  0  0  0  0
  7  8  2  0  0  0  0
  7 12  1  0  0  0  0
  8  9  1  0  0  0  0
  9 10  2  0  0  0  0
 10 11  1  0  0  0  0
 11 12  2  0  0  0  0
M  END
>  <CHROM.1>
30.68894402,18.24671332,15.57054934,-1.49349160,-0.68228272,-1.62062107

>  <Name>
ligand

>  <RI>
0

>  <Rbt.Current_Directory>
/home/itssahil/PROJECTS/Mol_Feturizer/New_Systems/rnas/4LX6

>  <Rbt.Executable>
rbdock ($Id: //depot/dev/client3/rdock/2013.1/src/exe/rbdock.cxx#4 $)

>  <Rbt.Library>
libRbt.so (2013.1, Build901 2013/11/27)

>  <Rbt.Parameter_File>
/export/apps/rDock/src/rDock_2013.1_src/data/scripts/dock_solv.prm

>  <Rbt.Receptor>
prm/pocket_docking_6.prm

>  <SCORE>
-14.407

>  <SCORE.INTER>
-14.407

>  <SCORE.INTER.CONST>
1

>  <SCORE.INTER.POLAR>
0

>  <SCORE.INTER.ROT>
0

>  <SCORE.INTER.SOLV>
11.834

>  <SCORE.INTER.VDW>
-17.1494

>  <SCORE.INTER.norm>
-1.20058

>  <SCORE.INTRA>
0

>  <SCORE.INTRA.DIHEDRAL>
0

>  <SCORE.INTRA.DIHEDRAL.0>
0

>  <SCORE.INTRA.POLAR>
0

>  <SCORE.INTRA.POLAR.0>
0

>  <SCORE.INTRA.REPUL>
0

>  <SCORE.INTRA.REPUL.0>
0

>  <SCORE.INTRA.SOLV>
0

>  <SCORE.INTRA.SOLV.lig_0>
-28.9128

>  <SCORE.INTRA.VDW>
0

>  <SCORE.INTRA.VDW.0>
0

>  <SCORE.INTRA.norm>
0

>  <SCORE.RESTR>
0

>  <SCORE.RESTR.CAVITY>
0

>  <SCORE.RESTR.norm>
0

>  <SCORE.SYSTEM>
0

>  <SCORE.SYSTEM.CONST>
0

>  <SCORE.SYSTEM.DIHEDRAL>
0

>  <SCORE.SYSTEM.SOLV>
0

>  <SCORE.SYSTEM.norm>
0

>  <SCORE.heavy>
12

>  <SCORE.norm>
-1.20058

>  <RMSD>
3.655

$$$$
ligand
 OpenBabel11021811503D
libRbt.so/2013.1/901 2013/11/27
 12 13  0  0  0  0  0  0  0  0999 V2000
   31.1087   18.9241   17.8177 C   0  0  0  0  0  0  0  0  0  0  0  0
   29.7880   17.2725   16.6549 C   0  0  0  0  0  0  0  0  0  0  0  0
   31.5030   19.5096   18.9425 N   0  0  0  0  0  0  0  0  0  0  0  0
   31.6218   19.3408   16.6557 N   0  0  0  0  0  0  0  0  0  0  0  0
   30.1751   17.8714   17.8484 N   0  0  0  0  0  0  0  0  0  0  0  0
   28.9650   16.3534   16.6848 O   0  0  0  0  0  0  0  0  0  0  0  0
   30.5576   17.6690   13.0549 N   0  0  0  0  0  0  0  0  0  0  0  0
   31.4842   18.7219   13.1091 C   0  0  0  0  0  0  0  0  0  0  0  0
   31.8328   19.2701   14.3578 N   0  0  0  0  0  0  0  0  0  0  0  0
   31.2649   18.7972   15.4852 C   0  0  0  0  0  0  0  0  0  0  0  0
   30.3403   17.7440   15.4613 C   0  0  0  0  0  0  0  0  0  0  0  0
   29.9754   17.1787   14.2483 C   0  0  0  0  0  0  0  0  0  0  0  0
  1  3  1  0  0  0  0
  1  4  2  0  0  0  0
  1  5  1  0  0  0  0
  2  6  2  0  0  0  0
  2 11  1  0  0  0  0
  2  5  1  0  0  0  0
  4 10  1  0  0  0  0
  7  8  2  0  0  0  0
  7 12  1  0  0  0  0
  8  9  1  0  0  0  0
  9 10  2  0  0  0  0
 10 11  1  0  0  0  0
 11 12  2  0  0  0  0
M  END
>  <CHROM.1>
30.70034244,18.20619963,15.90053430,-1.59865148,-0.84031155,-1.70177361

>  <Name>
ligand

>  <RI>
0

>  <Rbt.Current_Directory>
/home/itssahil/PROJECTS/Mol_Feturizer/New_Systems/rnas/4LX6

>  <Rbt.Executable>
rbdock ($Id: //depot/dev/client3/rdock/2013.1/src/exe/rbdock.cxx#4 $)

>  <Rbt.Library>
libRbt.so (2013.1, Build901 2013/11/27)

>  <Rbt.Parameter_File>
/export/apps/rDock/src/rDock_2013.1_src/data/scripts/dock_solv.prm

>  <Rbt.Receptor>
prm/blind_docking_80.prm

>  <SCORE>
-14.4704

>  <SCORE.INTER>
-14.4704

>  <SCORE.INTER.CONST>
1

>  <SCORE.INTER.POLAR>
0

>  <SCORE.INTER.ROT>
0

>  <SCORE.INTER.SOLV>
14.1889

>  <SCORE.INTER.VDW>
-17.9766

>  <SCORE.INTER.norm>
-1.20587

>  <SCORE.INTRA>
0

>  <SCORE.INTRA.DIHEDRAL>
0

>  <SCORE.INTRA.DIHEDRAL.0>
0

>  <SCORE.INTRA.POLAR>
0

>  <SCORE.INTRA.POLAR.0>
0

>  <SCORE.INTRA.REPUL>
0

>  <SCORE.INTRA.REPUL.0>
0

>  <SCORE.INTRA.SOLV>
0

>  <SCORE.INTRA.SOLV.lig_0>
-28.9128

>  <SCORE.INTRA.VDW>
0

>  <SCORE.INTRA.VDW.0>
0

>  <SCORE.INTRA.norm>
0

>  <SCORE.RESTR>
0

>  <SCORE.RESTR.CAVITY>
0

>  <SCORE.RESTR.norm>
0

>  <SCORE.SYSTEM>
0

>  <SCORE.SYSTEM.CONST>
0

>  <SCORE.SYSTEM.DIHEDRAL>
0

>  <SCORE.SYSTEM.SOLV>
0

>  <SCORE.SYSTEM.norm>
0

>  <SCORE.heavy>
12

>  <SCORE.norm>
-1.20587

>  <RMSD>
3.657

$$$$
ligand
 OpenBabel11021811503D
libRbt.so/2013.1/901 2013/11/27
 12 13  0  0  0  0  0  0  0  0999 V2000
   31.1106   18.9257   17.8216 C   0  0  0  0  0  0  0  0  0  0  0  0
   29.7819   17.2857   16.6516 C   0  0  0  0  0  0  0  0  0  0  0  0
   31.5025   19.5090   18.9484 N   0  0  0  0  0  0  0  0  0  0  0  0
   31.6363   19.3356   16.6627 N   0  0  0  0  0  0  0  0  0  0  0  0
   30.1663   17.8825   17.8470 N   0  0  0  0  0  0  0  0  0  0  0  0
   28.9496   16.3748   16.6768 O   0  0  0  0  0  0  0  0  0  0  0  0
   30.5816   17.6691   13.0567 N   0  0  0  0  0  0  0  0  0  0  0  0
   31.5183   18.7128   13.1162 C   0  0  0  0  0  0  0  0  0  0  0  0
   31.8632   19.2593   14.3666 N   0  0  0  0  0  0  0  0  0  0  0  0
   31.2824   18.7938   15.4905 C   0  0  0  0  0  0  0  0  0  0  0  0
   30.3476   17.7499   15.4613 C   0  0  0  0  0  0  0  0  0  0  0  0
   29.9859   17.1864   14.2465 C   0  0  0  0  0  0  0  0  0  0  0  0
  1  3  1  0  0  0  0
  1  4  2  0  0  0  0
  1  5  1  0  0  0  0
  2  6  2  0  0  0  0
  2 11  1  0  0  0  0
  2  5  1  0  0  0  0
  4 10  1  0  0  0  0
  7  8  2  0  0  0  0
  7 12  1  0  0  0  0
  8  9  1  0  0  0  0
  9 10  2  0  0  0  0
 10 11  1  0  0  0  0
 11 12  2  0  0  0  0
M  END
>  <CHROM.1>
30.70903587,18.20909113,15.90253177,-1.60740972,-0.82945660,-1.70972501

>  <Name>
ligand

>  <RI>
0

>  <Rbt.Current_Directory>
/home/itssahil/PROJECTS/Mol_Feturizer/New_Systems/rnas/4LX6

>  <Rbt.Executable>
rbdock ($Id: //depot/dev/client3/rdock/2013.1/src/exe/rbdock.cxx#4 $)

>  <Rbt.Library>
libRbt.so (2013.1, Build901 2013/11/27)

>  <Rbt.Parameter_File>
/export/apps/rDock/src/rDock_2013.1_src/data/scripts/dock_solv.prm

>  <Rbt.Receptor>
prm/blind_docking_100.prm

>  <SCORE>
-14.4601

>  <SCORE.INTER>
-14.4601

>  <SCORE.INTER.CONST>
1

>  <SCORE.INTER.POLAR>
0

>  <SCORE.INTER.ROT>
0

>  <SCORE.INTER.SOLV>
14.1822

>  <SCORE.INTER.VDW>
-17.9675

>  <SCORE.INTER.norm>
-1.20501

>  <SCORE.INTRA>
0

>  <SCORE.INTRA.DIHEDRAL>
0

>  <SCORE.INTRA.DIHEDRAL.0>
0

>  <SCORE.INTRA.POLAR>
0

>  <SCORE.INTRA.POLAR.0>
0

>  <SCORE.INTRA.REPUL>
0

>  <SCORE.INTRA.REPUL.0>
0

>  <SCORE.INTRA.SOLV>
0

>  <SCORE.INTRA.SOLV.lig_0>
-28.9128

>  <SCORE.INTRA.VDW>
0

>  <SCORE.INTRA.VDW.0>
0

>  <SCORE.INTRA.norm>
0

>  <SCORE.RESTR>
0

>  <SCORE.RESTR.CAVITY>
0

>  <SCORE.RESTR.norm>
0

>  <SCORE.SYSTEM>
0

>  <SCORE.SYSTEM.CONST>
0

>  <SCORE.SYSTEM.DIHEDRAL>
0

>  <SCORE.SYSTEM.SOLV>
0

>  <SCORE.SYSTEM.norm>
0

>  <SCORE.heavy>
12

>  <SCORE.norm>
-1.20501

>  <RMSD>
3.658

$$$$
ligand
 OpenBabel11021811503D
libRbt.so/2013.1/901 2013/11/27
 12 13  0  0  0  0  0  0  0  0999 V2000
   31.0646   18.9029   17.8409 C   0  0  0  0  0  0  0  0  0  0  0  0
   29.7362   17.2892   16.6346 C   0  0  0  0  0  0  0  0  0  0  0  0
   31.4438   19.4725   18.9790 N   0  0  0  0  0  0  0  0  0  0  0  0
   31.6161   19.3149   16.6948 N   0  0  0  0  0  0  0  0  0  0  0  0
   30.1068   17.8718   17.8413 N   0  0  0  0  0  0  0  0  0  0  0  0
   28.8921   16.3890   16.6379 O   0  0  0  0  0  0  0  0  0  0  0  0
   30.6047   17.6897   13.0576 N   0  0  0  0  0  0  0  0  0  0  0  0
   31.5534   18.7208   13.1419 C   0  0  0  0  0  0  0  0  0  0  0  0
   31.8829   19.2533   14.4025 N   0  0  0  0  0  0  0  0  0  0  0  0
   31.2763   18.7867   15.5122 C   0  0  0  0  0  0  0  0  0  0  0  0
   30.3289   17.7551   15.4583 C   0  0  0  0  0  0  0  0  0  0  0  0
   29.9817   17.2057   14.2329 C   0  0  0  0  0  0  0  0  0  0  0  0
  1  3  1  0  0  0  0
  1  4  2  0  0  0  0
  1  5  1  0  0  0  0
  2  6  2  0  0  0  0
  2 11  1  0  0  0  0
  2  5  1  0  0  0  0
  4 10  1  0  0  0  0
  7  8  2  0  0  0  0
  7 12  1  0  0  0  0
  8  9  1  0  0  0  0
  9 10  2  0  0  0  0
 10 11  1  0  0  0  0
 11 12  2  0  0  0  0
M  END
>  <CHROM.1>
30.68823928,18.20627059,15.90944141,-1.63054398,-0.81421639,-1.71890432

>  <Name>
ligand

>  <RI>
0

>  <Rbt.Current_Directory>
/home/itssahil/PROJECTS/Mol_Feturizer/New_Systems/rnas/4LX6

>  <Rbt.Executable>
rbdock ($Id: //depot/dev/client3/rdock/2013.1/src/exe/rbdock.cxx#4 $)

>  <Rbt.Library>
libRbt.so (2013.1, Build901 2013/11/27)

>  <Rbt.Parameter_File>
/export/apps/rDock/src/rDock_2013.1_src/data/scripts/dock_solv.prm

>  <Rbt.Receptor>
prm/blind_docking_80.prm

>  <SCORE>
-14.4522

>  <SCORE.INTER>
-14.4522

>  <SCORE.INTER.CONST>
1

>  <SCORE.INTER.POLAR>
0

>  <SCORE.INTER.ROT>
0

>  <SCORE.INTER.SOLV>
14.281

>  <SCORE.INTER.VDW>
-17.9951

>  <SCORE.INTER.norm>
-1.20435

>  <SCORE.INTRA>
0

>  <SCORE.INTRA.DIHEDRAL>
0

>  <SCORE.INTRA.DIHEDRAL.0>
0

>  <SCORE.INTRA.POLAR>
0

>  <SCORE.INTRA.POLAR.0>
0

>  <SCORE.INTRA.REPUL>
0

>  <SCORE.INTRA.REPUL.0>
0

>  <SCORE.INTRA.SOLV>
0

>  <SCORE.INTRA.SOLV.lig_0>
-28.9128

>  <SCORE.INTRA.VDW>
0

>  <SCORE.INTRA.VDW.0>
0

>  <SCORE.INTRA.norm>
0

>  <SCORE.RESTR>
0

>  <SCORE.RESTR.CAVITY>
0

>  <SCORE.RESTR.norm>
0

>  <SCORE.SYSTEM>
0

>  <SCORE.SYSTEM.CONST>
0

>  <SCORE.SYSTEM.DIHEDRAL>
0

>  <SCORE.SYSTEM.SOLV>
0

>  <SCORE.SYSTEM.norm>
0

>  <SCORE.heavy>
12

>  <SCORE.norm>
-1.20435

>  <RMSD>
3.661

$$$$
ligand
 OpenBabel11021811503D
libRbt.so/2013.1/901 2013/11/27
 12 13  0  0  0  0  0  0  0  0999 V2000
   31.0535   18.9225   17.8416 C   0  0  0  0  0  0  0  0  0  0  0  0
   29.7487   17.2850   16.6417 C   0  0  0  0  0  0  0  0  0  0  0  0
   31.4232   19.5029   18.9774 N   0  0  0  0  0  0  0  0  0  0  0  0
   31.6012   19.3359   16.6943 N   0  0  0  0  0  0  0  0  0  0  0  0
   30.1095   17.8787   17.8459 N   0  0  0  0  0  0  0  0  0  0  0  0
   28.9167   16.3736   16.6483 O   0  0  0  0  0  0  0  0  0  0  0  0
   30.6176   17.6787   13.0640 N   0  0  0  0  0  0  0  0  0  0  0  0
   31.5523   18.7228   13.1445 C   0  0  0  0  0  0  0  0  0  0  0  0
   31.8726   19.2661   14.4028 N   0  0  0  0  0  0  0  0  0  0  0  0
   31.2705   18.7971   15.5140 C   0  0  0  0  0  0  0  0  0  0  0  0
   30.3370   17.7528   15.4639 C   0  0  0  0  0  0  0  0  0  0  0  0
   29.9992   17.1925   14.2408 C   0  0  0  0  0  0  0  0  0  0  0  0
  1  3  1  0  0  0  0
  1  4  2  0  0  0  0
  1  5  1  0  0  0  0
  2  6  2  0  0  0  0
  2 11  1  0  0  0  0
  2  5  1  0  0  0  0
  4 10  1  0  0  0  0
  7  8  2  0  0  0  0
  7 12  1  0  0  0  0
  8  9  1  0  0  0  0
  9 10  2  0  0  0  0
 10 11  1  0  0  0  0
 11 12  2  0  0  0  0
M  END
>  <CHROM.1>
30.68956763,18.21097539,15.91324304,-1.63583841,-0.82719289,-1.72792684

>  <Name>
ligand

>  <RI>
0

>  <Rbt.Current_Directory>
/home/itssahil/PROJECTS/Mol_Feturizer/New_Systems/rnas/4LX6

>  <Rbt.Executable>
rbdock ($Id: //depot/dev/client3/rdock/2013.1/src/exe/rbdock.cxx#4 $)

>  <Rbt.Library>
libRbt.so (2013.1, Build901 2013/11/27)

>  <Rbt.Parameter_File>
/export/apps/rDock/src/rDock_2013.1_src/data/scripts/dock_solv.prm

>  <Rbt.Receptor>
prm/blind_docking_80.prm

>  <SCORE>
-14.4757

>  <SCORE.INTER>
-14.4757

>  <SCORE.INTER.CONST>
1

>  <SCORE.INTER.POLAR>
0

>  <SCORE.INTER.ROT>
0

>  <SCORE.INTER.SOLV>
14.3903

>  <SCORE.INTER.VDW>
-18.0472

>  <SCORE.INTER.norm>
-1.20631

>  <SCORE.INTRA>
0

>  <SCORE.INTRA.DIHEDRAL>
0

>  <SCORE.INTRA.DIHEDRAL.0>
0

>  <SCORE.INTRA.POLAR>
0

>  <SCORE.INTRA.POLAR.0>
0

>  <SCORE.INTRA.REPUL>
0

>  <SCORE.INTRA.REPUL.0>
0

>  <SCORE.INTRA.SOLV>
0

>  <SCORE.INTRA.SOLV.lig_0>
-28.9128

>  <SCORE.INTRA.VDW>
0

>  <SCORE.INTRA.VDW.0>
0

>  <SCORE.INTRA.norm>
0

>  <SCORE.RESTR>
0

>  <SCORE.RESTR.CAVITY>
0

>  <SCORE.RESTR.norm>
0

>  <SCORE.SYSTEM>
0

>  <SCORE.SYSTEM.CONST>
0

>  <SCORE.SYSTEM.DIHEDRAL>
0

>  <SCORE.SYSTEM.SOLV>
0

>  <SCORE.SYSTEM.norm>
0

>  <SCORE.heavy>
12

>  <SCORE.norm>
-1.20631

>  <RMSD>
3.662

$$$$
ligand
 OpenBabel11021811503D
libRbt.so/2013.1/901 2013/11/27
 12 13  0  0  0  0  0  0  0  0999 V2000
   30.6833   18.8820   18.0118 C   0  0  0  0  0  0  0  0  0  0  0  0
   29.9308   16.9576   16.7649 C   0  0  0  0  0  0  0  0  0  0  0  0
   30.7792   19.5600   19.1496 N   0  0  0  0  0  0  0  0  0  0  0  0
   31.2500   19.3825   16.9093 N   0  0  0  0  0  0  0  0  0  0  0  0
   30.0073   17.6483   17.9691 N   0  0  0  0  0  0  0  0  0  0  0  0
   29.3327   15.8788   16.7297 O   0  0  0  0  0  0  0  0  0  0  0  0
   31.0899   17.4535   13.2835 N   0  0  0  0  0  0  0  0  0  0  0  0
   31.7472   18.6873   13.4094 C   0  0  0  0  0  0  0  0  0  0  0  0
   31.7898   19.3209   14.6655 N   0  0  0  0  0  0  0  0  0  0  0  0
   31.1874   18.7528   15.7292 C   0  0  0  0  0  0  0  0  0  0  0  0
   30.5279   17.5197   15.6337 C   0  0  0  0  0  0  0  0  0  0  0  0
   30.4682   16.8664   14.4115 C   0  0  0  0  0  0  0  0  0  0  0  0
  1  3  1  0  0  0  0
  1  4  2  0  0  0  0
  1  5  1  0  0  0  0
  2  6  2  0  0  0  0
  2 11  1  0  0  0  0
  2  5  1  0  0  0  0
  4 10  1  0  0  0  0
  7  8  2  0  0  0  0
  7 12  1  0  0  0  0
  8  9  1  0  0  0  0
  9 10  2  0  0  0  0
 10 11  1  0  0  0  0
 11 12  2  0  0  0  0
M  END
>  <CHROM.1>
30.71328329,18.05809262,16.09404618,-1.92285287,-1.01934318,-1.99660237

>  <Name>
ligand

>  <RI>
0

>  <Rbt.Current_Directory>
/home/itssahil/PROJECTS/Mol_Feturizer/New_Systems/rnas/4LX6

>  <Rbt.Executable>
rbdock ($Id: //depot/dev/client3/rdock/2013.1/src/exe/rbdock.cxx#4 $)

>  <Rbt.Library>
libRbt.so (2013.1, Build901 2013/11/27)

>  <Rbt.Parameter_File>
/export/apps/rDock/src/rDock_2013.1_src/data/scripts/dock_solv.prm

>  <Rbt.Receptor>
prm/blind_docking_100.prm

>  <SCORE>
-14.7074

>  <SCORE.INTER>
-14.7074

>  <SCORE.INTER.CONST>
1

>  <SCORE.INTER.POLAR>
0

>  <SCORE.INTER.ROT>
0

>  <SCORE.INTER.SOLV>
16.7039

>  <SCORE.INTER.VDW>
-18.9729

>  <SCORE.INTER.norm>
-1.22562

>  <SCORE.INTRA>
0

>  <SCORE.INTRA.DIHEDRAL>
0

>  <SCORE.INTRA.DIHEDRAL.0>
0

>  <SCORE.INTRA.POLAR>
0

>  <SCORE.INTRA.POLAR.0>
0

>  <SCORE.INTRA.REPUL>
0

>  <SCORE.INTRA.REPUL.0>
0

>  <SCORE.INTRA.SOLV>
0

>  <SCORE.INTRA.SOLV.lig_0>
-28.9128

>  <SCORE.INTRA.VDW>
0

>  <SCORE.INTRA.VDW.0>
0

>  <SCORE.INTRA.norm>
0

>  <SCORE.RESTR>
0

>  <SCORE.RESTR.CAVITY>
0

>  <SCORE.RESTR.norm>
0

>  <SCORE.SYSTEM>
0

>  <SCORE.SYSTEM.CONST>
0

>  <SCORE.SYSTEM.DIHEDRAL>
0

>  <SCORE.SYSTEM.SOLV>
0

>  <SCORE.SYSTEM.norm>
0

>  <SCORE.heavy>
12

>  <SCORE.norm>
-1.22562

>  <RMSD>
3.684

$$$$
ligand
 OpenBabel11021811503D
libRbt.so/2013.1/901 2013/11/27
 12 13  0  0  0  0  0  0  0  0999 V2000
   30.6574   18.8668   18.0121 C   0  0  0  0  0  0  0  0  0  0  0  0
   29.9234   16.9400   16.7582 C   0  0  0  0  0  0  0  0  0  0  0  0
   30.7455   19.5423   19.1520 N   0  0  0  0  0  0  0  0  0  0  0  0
   31.2220   19.3753   16.9121 N   0  0  0  0  0  0  0  0  0  0  0  0
   29.9918   17.6277   17.9645 N   0  0  0  0  0  0  0  0  0  0  0  0
   29.3343   15.8563   16.7186 O   0  0  0  0  0  0  0  0  0  0  0  0
   31.0848   17.4556   13.2804 N   0  0  0  0  0  0  0  0  0  0  0  0
   31.7316   18.6945   13.4112 C   0  0  0  0  0  0  0  0  0  0  0  0
   31.7666   19.3247   14.6692 N   0  0  0  0  0  0  0  0  0  0  0  0
   31.1669   18.7486   15.7301 C   0  0  0  0  0  0  0  0  0  0  0  0
   30.5178   17.5103   15.6297 C   0  0  0  0  0  0  0  0  0  0  0  0
   30.4659   16.8601   14.4056 C   0  0  0  0  0  0  0  0  0  0  0  0
  1  3  1  0  0  0  0
  1  4  2  0  0  0  0
  1  5  1  0  0  0  0
  2  6  2  0  0  0  0
  2 11  1  0  0  0  0
  2  5  1  0  0  0  0
  4 10  1  0  0  0  0
  7  8  2  0  0  0  0
  7 12  1  0  0  0  0
  8  9  1  0  0  0  0
  9 10  2  0  0  0  0
 10 11  1  0  0  0  0
 11 12  2  0  0  0  0
M  END
>  <CHROM.1>
30.69789780,18.04884965,16.09202037,-1.93279794,-1.02611272,-2.00216382

>  <Name>
ligand

>  <RI>
0

>  <Rbt.Current_Directory>
/home/itssahil/PROJECTS/Mol_Feturizer/New_Systems/rnas/4LX6

>  <Rbt.Executable>
rbdock ($Id: //depot/dev/client3/rdock/2013.1/src/exe/rbdock.cxx#4 $)

>  <Rbt.Library>
libRbt.so (2013.1, Build901 2013/11/27)

>  <Rbt.Parameter_File>
/export/apps/rDock/src/rDock_2013.1_src/data/scripts/dock_solv.prm

>  <Rbt.Receptor>
prm/blind_docking_100.prm

>  <SCORE>
-14.7174

>  <SCORE.INTER>
-14.7174

>  <SCORE.INTER.CONST>
1

>  <SCORE.INTER.POLAR>
0

>  <SCORE.INTER.ROT>
0

>  <SCORE.INTER.SOLV>
16.7338

>  <SCORE.INTER.VDW>
-18.9895

>  <SCORE.INTER.norm>
-1.22645

>  <SCORE.INTRA>
0

>  <SCORE.INTRA.DIHEDRAL>
0

>  <SCORE.INTRA.DIHEDRAL.0>
0

>  <SCORE.INTRA.POLAR>
0

>  <SCORE.INTRA.POLAR.0>
0

>  <SCORE.INTRA.REPUL>
0

>  <SCORE.INTRA.REPUL.0>
0

>  <SCORE.INTRA.SOLV>
0

>  <SCORE.INTRA.SOLV.lig_0>
-28.9128

>  <SCORE.INTRA.VDW>
0

>  <SCORE.INTRA.VDW.0>
0

>  <SCORE.INTRA.norm>
0

>  <SCORE.RESTR>
0

>  <SCORE.RESTR.CAVITY>
0

>  <SCORE.RESTR.norm>
0

>  <SCORE.SYSTEM>
0

>  <SCORE.SYSTEM.CONST>
0

>  <SCORE.SYSTEM.DIHEDRAL>
0

>  <SCORE.SYSTEM.SOLV>
0

>  <SCORE.SYSTEM.norm>
0

>  <SCORE.heavy>
12

>  <SCORE.norm>
-1.22645

>  <RMSD>
3.684

$$$$
ligand
 OpenBabel11021811503D
libRbt.so/2013.1/901 2013/11/27
 12 13  0  0  0  0  0  0  0  0999 V2000
   30.6720   18.8743   18.0142 C   0  0  0  0  0  0  0  0  0  0  0  0
   29.9276   16.9488   16.7643 C   0  0  0  0  0  0  0  0  0  0  0  0
   30.7651   19.5511   19.1530 N   0  0  0  0  0  0  0  0  0  0  0  0
   31.2368   19.3789   16.9125 N   0  0  0  0  0  0  0  0  0  0  0  0
   30.0011   17.6380   17.9695 N   0  0  0  0  0  0  0  0  0  0  0  0
   29.3339   15.8676   16.7273 O   0  0  0  0  0  0  0  0  0  0  0  0
   31.0850   17.4548   13.2837 N   0  0  0  0  0  0  0  0  0  0  0  0
   31.7372   18.6911   13.4116 C   0  0  0  0  0  0  0  0  0  0  0  0
   31.7771   19.3229   14.6687 N   0  0  0  0  0  0  0  0  0  0  0  0
   31.1769   18.7508   15.7315 C   0  0  0  0  0  0  0  0  0  0  0  0
   30.5224   17.5151   15.6339 C   0  0  0  0  0  0  0  0  0  0  0  0
   30.4656   16.8635   14.4108 C   0  0  0  0  0  0  0  0  0  0  0  0
  1  3  1  0  0  0  0
  1  4  2  0  0  0  0
  1  5  1  0  0  0  0
  2  6  2  0  0  0  0
  2 11  1  0  0  0  0
  2  5  1  0  0  0  0
  4 10  1  0  0  0  0
  7  8  2  0  0  0  0
  7 12  1  0  0  0  0
  8  9  1  0  0  0  0
  9 10  2  0  0  0  0
 10 11  1  0  0  0  0
 11 12  2  0  0  0  0
M  END
>  <CHROM.1>
30.70560461,18.05354164,16.09517455,-1.92627381,-1.02303752,-1.99798773

>  <Name>
ligand

>  <RI>
0

>  <Rbt.Current_Directory>
/home/itssahil/PROJECTS/Mol_Feturizer/New_Systems/rnas/4LX6

>  <Rbt.Executable>
rbdock ($Id: //depot/dev/client3/rdock/2013.1/src/exe/rbdock.cxx#4 $)

>  <Rbt.Library>
libRbt.so (2013.1, Build901 2013/11/27)

>  <Rbt.Parameter_File>
/export/apps/rDock/src/rDock_2013.1_src/data/scripts/dock_solv.prm

>  <Rbt.Receptor>
prm/pocket_docking_6.prm

>  <SCORE>
-14.7165

>  <SCORE.INTER>
-14.7165

>  <SCORE.INTER.CONST>
1

>  <SCORE.INTER.POLAR>
0

>  <SCORE.INTER.ROT>
0

>  <SCORE.INTER.SOLV>
16.7237

>  <SCORE.INTER.VDW>
-18.9856

>  <SCORE.INTER.norm>
-1.22637

>  <SCORE.INTRA>
0

>  <SCORE.INTRA.DIHEDRAL>
0

>  <SCORE.INTRA.DIHEDRAL.0>
0

>  <SCORE.INTRA.POLAR>
0

>  <SCORE.INTRA.POLAR.0>
0

>  <SCORE.INTRA.REPUL>
0

>  <SCORE.INTRA.REPUL.0>
0

>  <SCORE.INTRA.SOLV>
0

>  <SCORE.INTRA.SOLV.lig_0>
-28.9128

>  <SCORE.INTRA.VDW>
0

>  <SCORE.INTRA.VDW.0>
0

>  <SCORE.INTRA.norm>
0

>  <SCORE.RESTR>
0

>  <SCORE.RESTR.CAVITY>
0

>  <SCORE.RESTR.norm>
0

>  <SCORE.SYSTEM>
0

>  <SCORE.SYSTEM.CONST>
0

>  <SCORE.SYSTEM.DIHEDRAL>
0

>  <SCORE.SYSTEM.SOLV>
0

>  <SCORE.SYSTEM.norm>
0

>  <SCORE.heavy>
12

>  <SCORE.norm>
-1.22637

>  <RMSD>
3.684

$$$$
ligand
 OpenBabel11021811503D
libRbt.so/2013.1/901 2013/11/27
 12 13  0  0  0  0  0  0  0  0999 V2000
   30.6337   18.8628   18.0066 C   0  0  0  0  0  0  0  0  0  0  0  0
   29.8988   16.9389   16.7486 C   0  0  0  0  0  0  0  0  0  0  0  0
   30.7188   19.5376   19.1472 N   0  0  0  0  0  0  0  0  0  0  0  0
   31.2052   19.3697   16.9095 N   0  0  0  0  0  0  0  0  0  0  0  0
   29.9640   17.6261   17.9555 N   0  0  0  0  0  0  0  0  0  0  0  0
   29.3061   15.8573   16.7059 O   0  0  0  0  0  0  0  0  0  0  0  0
   31.0784   17.4517   13.2765 N   0  0  0  0  0  0  0  0  0  0  0  0
   31.7289   18.6883   13.4108 C   0  0  0  0  0  0  0  0  0  0  0  0
   31.7602   19.3180   14.6692 N   0  0  0  0  0  0  0  0  0  0  0  0
   31.1534   18.7435   15.7270 C   0  0  0  0  0  0  0  0  0  0  0  0
   30.5005   17.5076   15.6231 C   0  0  0  0  0  0  0  0  0  0  0  0
   30.4521   16.8580   14.3985 C   0  0  0  0  0  0  0  0  0  0  0  0
  1  3  1  0  0  0  0
  1  4  2  0  0  0  0
  1  5  1  0  0  0  0
  2  6  2  0  0  0  0
  2 11  1  0  0  0  0
  2  5  1  0  0  0  0
  4 10  1  0  0  0  0
  7  8  2  0  0  0  0
  7 12  1  0  0  0  0
  8  9  1  0  0  0  0
  9 10  2  0  0  0  0
 10 11  1  0  0  0  0
 11 12  2  0  0  0  0
M  END
>  <CHROM.1>
30.68031239,18.04533000,16.08646474,-1.93818423,-1.02096454,-2.00641147

>  <Name>
ligand

>  <RI>
0

>  <Rbt.Current_Directory>
/home/itssahil/PROJECTS/Mol_Feturizer/New_Systems/rnas/4LX6

>  <Rbt.Executable>
rbdock ($Id: //depot/dev/client3/rdock/2013.1/src/exe/rbdock.cxx#4 $)

>  <Rbt.Library>
libRbt.so (2013.1, Build901 2013/11/27)

>  <Rbt.Parameter_File>
/export/apps/rDock/src/rDock_2013.1_src/data/scripts/dock_solv.prm

>  <Rbt.Receptor>
prm/pocket_docking_8.prm

>  <SCORE>
-14.6639

>  <SCORE.INTER>
-14.6639

>  <SCORE.INTER.CONST>
1

>  <SCORE.INTER.POLAR>
0

>  <SCORE.INTER.ROT>
0

>  <SCORE.INTER.SOLV>
16.736

>  <SCORE.INTER.VDW>
-18.9546

>  <SCORE.INTER.norm>
-1.222

>  <SCORE.INTRA>
0

>  <SCORE.INTRA.DIHEDRAL>
0

>  <SCORE.INTRA.DIHEDRAL.0>
0

>  <SCORE.INTRA.POLAR>
0

>  <SCORE.INTRA.POLAR.0>
0

>  <SCORE.INTRA.REPUL>
0

>  <SCORE.INTRA.REPUL.0>
0

>  <SCORE.INTRA.SOLV>
0

>  <SCORE.INTRA.SOLV.lig_0>
-28.9128

>  <SCORE.INTRA.VDW>
0

>  <SCORE.INTRA.VDW.0>
0

>  <SCORE.INTRA.norm>
0

>  <SCORE.RESTR>
0

>  <SCORE.RESTR.CAVITY>
0

>  <SCORE.RESTR.norm>
0

>  <SCORE.SYSTEM>
0

>  <SCORE.SYSTEM.CONST>
0

>  <SCORE.SYSTEM.DIHEDRAL>
0

>  <SCORE.SYSTEM.SOLV>
0

>  <SCORE.SYSTEM.norm>
0

>  <SCORE.heavy>
12

>  <SCORE.norm>
-1.222

>  <RMSD>
3.684

$$$$
ligand
 OpenBabel11021811503D
libRbt.so/2013.1/901 2013/11/27
 12 13  0  0  0  0  0  0  0  0999 V2000
   30.6526   18.8737   18.0228 C   0  0  0  0  0  0  0  0  0  0  0  0
   29.9143   16.9467   16.7716 C   0  0  0  0  0  0  0  0  0  0  0  0
   30.7394   19.5522   19.1610 N   0  0  0  0  0  0  0  0  0  0  0  0
   31.2242   19.3761   16.9236 N   0  0  0  0  0  0  0  0  0  0  0  0
   29.9812   17.6378   17.9761 N   0  0  0  0  0  0  0  0  0  0  0  0
   29.3201   15.8658   16.7328 O   0  0  0  0  0  0  0  0  0  0  0  0
   31.0926   17.4462   13.2971 N   0  0  0  0  0  0  0  0  0  0  0  0
   31.7449   18.6823   13.4269 C   0  0  0  0  0  0  0  0  0  0  0  0
   31.7778   19.3162   14.6831 N   0  0  0  0  0  0  0  0  0  0  0  0
   31.1709   18.7461   15.7433 C   0  0  0  0  0  0  0  0  0  0  0  0
   30.5162   17.5108   15.6439 C   0  0  0  0  0  0  0  0  0  0  0  0
   30.4661   16.8572   14.4215 C   0  0  0  0  0  0  0  0  0  0  0  0
  1  3  1  0  0  0  0
  1  4  2  0  0  0  0
  1  5  1  0  0  0  0
  2  6  2  0  0  0  0
  2 11  1  0  0  0  0
  2  5  1  0  0  0  0
  4 10  1  0  0  0  0
  7  8  2  0  0  0  0
  7 12  1  0  0  0  0
  8  9  1  0  0  0  0
  9 10  2  0  0  0  0
 10 11  1  0  0  0  0
 11 12  2  0  0  0  0
M  END
>  <CHROM.1>
30.69699644,18.04978979,16.10531561,-1.93601446,-1.01994189,-2.00790116

>  <Name>
ligand

>  <RI>
0

>  <Rbt.Current_Directory>
/home/itssahil/PROJECTS/Mol_Feturizer/New_Systems/rnas/4LX6

>  <Rbt.Executable>
rbdock ($Id: //depot/dev/client3/rdock/2013.1/src/exe/rbdock.cxx#4 $)

>  <Rbt.Library>
libRbt.so (2013.1, Build901 2013/11/27)

>  <Rbt.Parameter_File>
/export/apps/rDock/src/rDock_2013.1_src/data/scripts/dock_solv.prm

>  <Rbt.Receptor>
prm/pocket_docking_8.prm

>  <SCORE>
-14.7082

>  <SCORE.INTER>
-14.7082

>  <SCORE.INTER.CONST>
1

>  <SCORE.INTER.POLAR>
0

>  <SCORE.INTER.ROT>
0

>  <SCORE.INTER.SOLV>
16.7794

>  <SCORE.INTER.VDW>
-18.9986

>  <SCORE.INTER.norm>
-1.22569

>  <SCORE.INTRA>
0

>  <SCORE.INTRA.DIHEDRAL>
0

>  <SCORE.INTRA.DIHEDRAL.0>
0

>  <SCORE.INTRA.POLAR>
0

>  <SCORE.INTRA.POLAR.0>
0

>  <SCORE.INTRA.REPUL>
0

>  <SCORE.INTRA.REPUL.0>
0

>  <SCORE.INTRA.SOLV>
0

>  <SCORE.INTRA.SOLV.lig_0>
-28.9128

>  <SCORE.INTRA.VDW>
0

>  <SCORE.INTRA.VDW.0>
0

>  <SCORE.INTRA.norm>
0

>  <SCORE.RESTR>
0

>  <SCORE.RESTR.CAVITY>
0

>  <SCORE.RESTR.norm>
0

>  <SCORE.SYSTEM>
0

>  <SCORE.SYSTEM.CONST>
0

>  <SCORE.SYSTEM.DIHEDRAL>
0

>  <SCORE.SYSTEM.SOLV>
0

>  <SCORE.SYSTEM.norm>
0

>  <SCORE.heavy>
12

>  <SCORE.norm>
-1.22569

>  <RMSD>
3.686

$$$$
ligand
 OpenBabel11021811503D
libRbt.so/2013.1/901 2013/11/27
 12 13  0  0  0  0  0  0  0  0999 V2000
   30.7824   19.0588   18.0127 C   0  0  0  0  0  0  0  0  0  0  0  0
   29.9495   17.1051   16.8667 C   0  0  0  0  0  0  0  0  0  0  0  0
   30.9350   19.7749   19.1206 N   0  0  0  0  0  0  0  0  0  0  0  0
   31.3123   19.5101   16.8712 N   0  0  0  0  0  0  0  0  0  0  0  0
   30.0855   17.8365   18.0413 N   0  0  0  0  0  0  0  0  0  0  0  0
   29.3332   16.0363   16.8941 O   0  0  0  0  0  0  0  0  0  0  0  0
   30.9754   17.4572   13.3265 N   0  0  0  0  0  0  0  0  0  0  0  0
   31.6570   18.6830   13.3817 C   0  0  0  0  0  0  0  0  0  0  0  0
   31.7603   19.3597   14.6115 N   0  0  0  0  0  0  0  0  0  0  0  0
   31.1921   18.8403   15.7180 C   0  0  0  0  0  0  0  0  0  0  0  0
   30.5095   17.6163   15.6932 C   0  0  0  0  0  0  0  0  0  0  0  0
   30.3902   16.9214   14.4987 C   0  0  0  0  0  0  0  0  0  0  0  0
  1  3  1  0  0  0  0
  1  4  2  0  0  0  0
  1  5  1  0  0  0  0
  2  6  2  0  0  0  0
  2 11  1  0  0  0  0
  2  5  1  0  0  0  0
  4 10  1  0  0  0  0
  7  8  2  0  0  0  0
  7 12  1  0  0  0  0
  8  9  1  0  0  0  0
  9 10  2  0  0  0  0
 10 11  1  0  0  0  0
 11 12  2  0  0  0  0
M  END
>  <CHROM.1>
30.72196912,18.16727053,16.12614674,-1.84004825,-1.01978605,-1.96175935

>  <Name>
ligand

>  <RI>
0

>  <Rbt.Current_Directory>
/home/itssahil/PROJECTS/Mol_Feturizer/New_Systems/rnas/4LX6

>  <Rbt.Executable>
rbdock ($Id: //depot/dev/client3/rdock/2013.1/src/exe/rbdock.cxx#4 $)

>  <Rbt.Library>
libRbt.so (2013.1, Build901 2013/11/27)

>  <Rbt.Parameter_File>
/export/apps/rDock/src/rDock_2013.1_src/data/scripts/dock_solv.prm

>  <Rbt.Receptor>
prm/pocket_docking_8.prm

>  <SCORE>
-14.5746

>  <SCORE.INTER>
-14.5746

>  <SCORE.INTER.CONST>
1

>  <SCORE.INTER.POLAR>
0

>  <SCORE.INTER.ROT>
0

>  <SCORE.INTER.SOLV>
16.7166

>  <SCORE.INTER.VDW>
-18.8886

>  <SCORE.INTER.norm>
-1.21455

>  <SCORE.INTRA>
0

>  <SCORE.INTRA.DIHEDRAL>
0

>  <SCORE.INTRA.DIHEDRAL.0>
0

>  <SCORE.INTRA.POLAR>
0

>  <SCORE.INTRA.POLAR.0>
0

>  <SCORE.INTRA.REPUL>
0

>  <SCORE.INTRA.REPUL.0>
0

>  <SCORE.INTRA.SOLV>
0

>  <SCORE.INTRA.SOLV.lig_0>
-28.9128

>  <SCORE.INTRA.VDW>
0

>  <SCORE.INTRA.VDW.0>
0

>  <SCORE.INTRA.norm>
0

>  <SCORE.RESTR>
0

>  <SCORE.RESTR.CAVITY>
0

>  <SCORE.RESTR.norm>
0

>  <SCORE.SYSTEM>
0

>  <SCORE.SYSTEM.CONST>
0

>  <SCORE.SYSTEM.DIHEDRAL>
0

>  <SCORE.SYSTEM.SOLV>
0

>  <SCORE.SYSTEM.norm>
0

>  <SCORE.heavy>
12

>  <SCORE.norm>
-1.21455

>  <RMSD>
3.688

$$$$
ligand
 OpenBabel11021811503D
libRbt.so/2013.1/901 2013/11/27
 12 13  0  0  0  0  0  0  0  0999 V2000
   30.7071   18.9781   18.0655 C   0  0  0  0  0  0  0  0  0  0  0  0
   29.9591   17.0125   16.8819 C   0  0  0  0  0  0  0  0  0  0  0  0
   30.7964   19.6957   19.1793 N   0  0  0  0  0  0  0  0  0  0  0  0
   31.2828   19.4382   16.9502 N   0  0  0  0  0  0  0  0  0  0  0  0
   30.0286   17.7451   18.0615 N   0  0  0  0  0  0  0  0  0  0  0  0
   29.3587   15.9343   16.8804 O   0  0  0  0  0  0  0  0  0  0  0  0
   31.1443   17.3827   13.3936 N   0  0  0  0  0  0  0  0  0  0  0  0
   31.8036   18.6189   13.4807 C   0  0  0  0  0  0  0  0  0  0  0  0
   31.8387   19.2963   14.7139 N   0  0  0  0  0  0  0  0  0  0  0  0
   31.2272   18.7674   15.7926 C   0  0  0  0  0  0  0  0  0  0  0  0
   30.5656   17.5331   15.7359 C   0  0  0  0  0  0  0  0  0  0  0  0
   30.5131   16.8372   14.5371 C   0  0  0  0  0  0  0  0  0  0  0  0
  1  3  1  0  0  0  0
  1  4  2  0  0  0  0
  1  5  1  0  0  0  0
  2  6  2  0  0  0  0
  2 11  1  0  0  0  0
  2  5  1  0  0  0  0
  4 10  1  0  0  0  0
  7  8  2  0  0  0  0
  7 12  1  0  0  0  0
  8  9  1  0  0  0  0
  9 10  2  0  0  0  0
 10 11  1  0  0  0  0
 11 12  2  0  0  0  0
M  END
>  <CHROM.1>
30.74893496,18.08697338,16.17829970,-1.93338695,-1.01423283,-2.04084986

>  <Name>
ligand

>  <RI>
0

>  <Rbt.Current_Directory>
/home/itssahil/PROJECTS/Mol_Feturizer/New_Systems/rnas/4LX6

>  <Rbt.Executable>
rbdock ($Id: //depot/dev/client3/rdock/2013.1/src/exe/rbdock.cxx#4 $)

>  <Rbt.Library>
libRbt.so (2013.1, Build901 2013/11/27)

>  <Rbt.Parameter_File>
/export/apps/rDock/src/rDock_2013.1_src/data/scripts/dock_solv.prm

>  <Rbt.Receptor>
prm/blind_docking_100.prm

>  <SCORE>
-14.6106

>  <SCORE.INTER>
-14.6106

>  <SCORE.INTER.CONST>
1

>  <SCORE.INTER.POLAR>
0

>  <SCORE.INTER.ROT>
0

>  <SCORE.INTER.SOLV>
17.0646

>  <SCORE.INTER.VDW>
-19.0286

>  <SCORE.INTER.norm>
-1.21755

>  <SCORE.INTRA>
0

>  <SCORE.INTRA.DIHEDRAL>
0

>  <SCORE.INTRA.DIHEDRAL.0>
0

>  <SCORE.INTRA.POLAR>
0

>  <SCORE.INTRA.POLAR.0>
0

>  <SCORE.INTRA.REPUL>
0

>  <SCORE.INTRA.REPUL.0>
0

>  <SCORE.INTRA.SOLV>
0

>  <SCORE.INTRA.SOLV.lig_0>
-28.9128

>  <SCORE.INTRA.VDW>
0

>  <SCORE.INTRA.VDW.0>
0

>  <SCORE.INTRA.norm>
0

>  <SCORE.RESTR>
0

>  <SCORE.RESTR.CAVITY>
0

>  <SCORE.RESTR.norm>
0

>  <SCORE.SYSTEM>
0

>  <SCORE.SYSTEM.CONST>
0

>  <SCORE.SYSTEM.DIHEDRAL>
0

>  <SCORE.SYSTEM.SOLV>
0

>  <SCORE.SYSTEM.norm>
0

>  <SCORE.heavy>
12

>  <SCORE.norm>
-1.21755

>  <RMSD>
3.693

$$$$
ligand
 OpenBabel11021811503D
libRbt.so/2013.1/901 2013/11/27
 12 13  0  0  0  0  0  0  0  0999 V2000
   30.8518   19.1404   18.0206 C   0  0  0  0  0  0  0  0  0  0  0  0
   30.0439   17.1315   16.9550 C   0  0  0  0  0  0  0  0  0  0  0  0
   30.9980   19.9011   19.0992 N   0  0  0  0  0  0  0  0  0  0  0  0
   31.3700   19.5550   16.8601 N   0  0  0  0  0  0  0  0  0  0  0  0
   30.1736   17.9098   18.0997 N   0  0  0  0  0  0  0  0  0  0  0  0
   29.4439   16.0555   17.0266 O   0  0  0  0  0  0  0  0  0  0  0  0
   31.0497   17.3615   13.3990 N   0  0  0  0  0  0  0  0  0  0  0  0
   31.7129   18.5986   13.4036 C   0  0  0  0  0  0  0  0  0  0  0  0
   31.8111   19.3239   14.6058 N   0  0  0  0  0  0  0  0  0  0  0  0
   31.2553   18.8393   15.7342 C   0  0  0  0  0  0  0  0  0  0  0  0
   30.5912   17.6052   15.7599 C   0  0  0  0  0  0  0  0  0  0  0  0
   30.4775   16.8628   14.5938 C   0  0  0  0  0  0  0  0  0  0  0  0
  1  3  1  0  0  0  0
  1  4  2  0  0  0  0
  1  5  1  0  0  0  0
  2  6  2  0  0  0  0
  2 11  1  0  0  0  0
  2  5  1  0  0  0  0
  4 10  1  0  0  0  0
  7  8  2  0  0  0  0
  7 12  1  0  0  0  0
  8  9  1  0  0  0  0
  9 10  2  0  0  0  0
 10 11  1  0  0  0  0
 11 12  2  0  0  0  0
M  END
>  <CHROM.1>
30.79708495,18.17565260,16.17026560,-1.84392403,-1.03534582,-2.00380685

>  <Name>
ligand

>  <RI>
0

>  <Rbt.Current_Directory>
/home/itssahil/PROJECTS/Mol_Feturizer/New_Systems/rnas/4LX6

>  <Rbt.Executable>
rbdock ($Id: //depot/dev/client3/rdock/2013.1/src/exe/rbdock.cxx#4 $)

>  <Rbt.Library>
libRbt.so (2013.1, Build901 2013/11/27)

>  <Rbt.Parameter_File>
/export/apps/rDock/src/rDock_2013.1_src/data/scripts/dock_solv.prm

>  <Rbt.Receptor>
prm/blind_docking_80.prm

>  <SCORE>
-14.7033

>  <SCORE.INTER>
-14.7033

>  <SCORE.INTER.CONST>
1

>  <SCORE.INTER.POLAR>
0

>  <SCORE.INTER.ROT>
0

>  <SCORE.INTER.SOLV>
16.9364

>  <SCORE.INTER.VDW>
-19.0477

>  <SCORE.INTER.norm>
-1.22527

>  <SCORE.INTRA>
0

>  <SCORE.INTRA.DIHEDRAL>
0

>  <SCORE.INTRA.DIHEDRAL.0>
0

>  <SCORE.INTRA.POLAR>
0

>  <SCORE.INTRA.POLAR.0>
0

>  <SCORE.INTRA.REPUL>
0

>  <SCORE.INTRA.REPUL.0>
0

>  <SCORE.INTRA.SOLV>
0

>  <SCORE.INTRA.SOLV.lig_0>
-28.9128

>  <SCORE.INTRA.VDW>
0

>  <SCORE.INTRA.VDW.0>
0

>  <SCORE.INTRA.norm>
0

>  <SCORE.RESTR>
0

>  <SCORE.RESTR.CAVITY>
0

>  <SCORE.RESTR.norm>
0

>  <SCORE.SYSTEM>
0

>  <SCORE.SYSTEM.CONST>
0

>  <SCORE.SYSTEM.DIHEDRAL>
0

>  <SCORE.SYSTEM.SOLV>
0

>  <SCORE.SYSTEM.norm>
0

>  <SCORE.heavy>
12

>  <SCORE.norm>
-1.22527

>  <RMSD>
3.693

$$$$
ligand
 OpenBabel11021811503D
libRbt.so/2013.1/901 2013/11/27
 12 13  0  0  0  0  0  0  0  0999 V2000
   30.8246   19.0916   18.0443 C   0  0  0  0  0  0  0  0  0  0  0  0
   30.0260   17.0920   16.9544 C   0  0  0  0  0  0  0  0  0  0  0  0
   30.9713   19.8377   19.1330 N   0  0  0  0  0  0  0  0  0  0  0  0
   31.3327   19.5269   16.8869 N   0  0  0  0  0  0  0  0  0  0  0  0
   30.1565   17.8546   18.1095 N   0  0  0  0  0  0  0  0  0  0  0  0
   29.4348   16.0103   17.0139 O   0  0  0  0  0  0  0  0  0  0  0  0
   31.0089   17.3812   13.3963 N   0  0  0  0  0  0  0  0  0  0  0  0
   31.6625   18.6233   13.4150 C   0  0  0  0  0  0  0  0  0  0  0  0
   31.7621   19.3319   14.6270 N   0  0  0  0  0  0  0  0  0  0  0  0
   31.2168   18.8267   15.7515 C   0  0  0  0  0  0  0  0  0  0  0  0
   30.5626   17.5872   15.7632 C   0  0  0  0  0  0  0  0  0  0  0  0
   30.4477   16.8608   14.5871 C   0  0  0  0  0  0  0  0  0  0  0  0
  1  3  1  0  0  0  0
  1  4  2  0  0  0  0
  1  5  1  0  0  0  0
  2  6  2  0  0  0  0
  2 11  1  0  0  0  0
  2  5  1  0  0  0  0
  4 10  1  0  0  0  0
  7  8  2  0  0  0  0
  7 12  1  0  0  0  0
  8  9  1  0  0  0  0
  9 10  2  0  0  0  0
 10 11  1  0  0  0  0
 11 12  2  0  0  0  0
M  END
>  <CHROM.1>
30.76642056,18.15321740,16.18055964,-1.83968073,-1.04488735,-1.98566664

>  <Name>
ligand

>  <RI>
0

>  <Rbt.Current_Directory>
/home/itssahil/PROJECTS/Mol_Feturizer/New_Systems/rnas/4LX6

>  <Rbt.Executable>
rbdock ($Id: //depot/dev/client3/rdock/2013.1/src/exe/rbdock.cxx#4 $)

>  <Rbt.Library>
libRbt.so (2013.1, Build901 2013/11/27)

>  <Rbt.Parameter_File>
/export/apps/rDock/src/rDock_2013.1_src/data/scripts/dock_solv.prm

>  <Rbt.Receptor>
prm/blind_docking_60.prm

>  <SCORE>
-14.6689

>  <SCORE.INTER>
-14.6689

>  <SCORE.INTER.CONST>
1

>  <SCORE.INTER.POLAR>
0

>  <SCORE.INTER.ROT>
0

>  <SCORE.INTER.SOLV>
16.975

>  <SCORE.INTER.VDW>
-19.0376

>  <SCORE.INTER.norm>
-1.22241

>  <SCORE.INTRA>
0

>  <SCORE.INTRA.DIHEDRAL>
0

>  <SCORE.INTRA.DIHEDRAL.0>
0

>  <SCORE.INTRA.POLAR>
0

>  <SCORE.INTRA.POLAR.0>
0

>  <SCORE.INTRA.REPUL>
0

>  <SCORE.INTRA.REPUL.0>
0

>  <SCORE.INTRA.SOLV>
0

>  <SCORE.INTRA.SOLV.lig_0>
-28.9128

>  <SCORE.INTRA.VDW>
0

>  <SCORE.INTRA.VDW.0>
0

>  <SCORE.INTRA.norm>
0

>  <SCORE.RESTR>
0

>  <SCORE.RESTR.CAVITY>
0

>  <SCORE.RESTR.norm>
0

>  <SCORE.SYSTEM>
0

>  <SCORE.SYSTEM.CONST>
0

>  <SCORE.SYSTEM.DIHEDRAL>
0

>  <SCORE.SYSTEM.SOLV>
0

>  <SCORE.SYSTEM.norm>
0

>  <SCORE.heavy>
12

>  <SCORE.norm>
-1.22241

>  <RMSD>
3.695

$$$$
ligand
 OpenBabel11021811503D
libRbt.so/2013.1/901 2013/11/27
 12 13  0  0  0  0  0  0  0  0999 V2000
   31.7972   19.2179   17.1806 C   0  0  0  0  0  0  0  0  0  0  0  0
   31.5907   18.6101   14.8543 C   0  0  0  0  0  0  0  0  0  0  0  0
   32.3737   19.9232   18.1469 N   0  0  0  0  0  0  0  0  0  0  0  0
   30.8005   18.3836   17.4935 N   0  0  0  0  0  0  0  0  0  0  0  0
   32.2192   19.3558   15.8452 N   0  0  0  0  0  0  0  0  0  0  0  0
   31.9667   18.7294   13.6849 O   0  0  0  0  0  0  0  0  0  0  0  0
   28.8643   16.1117   14.6681 N   0  0  0  0  0  0  0  0  0  0  0  0
   28.5011   16.0329   16.0216 C   0  0  0  0  0  0  0  0  0  0  0  0
   29.1791   16.8275   16.9650 N   0  0  0  0  0  0  0  0  0  0  0  0
   30.1791   17.6403   16.5692 C   0  0  0  0  0  0  0  0  0  0  0  0
   30.5599   17.7425   15.2242 C   0  0  0  0  0  0  0  0  0  0  0  0
   29.9118   16.9753   14.2674 C   0  0  0  0  0  0  0  0  0  0  0  0
  1  3  1  0  0  0  0
  1  4  2  0  0  0  0
  1  5  1  0  0  0  0
  2  6  2  0  0  0  0
  2 11  1  0  0  0  0
  2  5  1  0  0  0  0
  4 10  1  0  0  0  0
  7  8  2  0  0  0  0
  7 12  1  0  0  0  0
  8  9  1  0  0  0  0
  9 10  2  0  0  0  0
 10 11  1  0  0  0  0
 11 12  2  0  0  0  0
M  END
>  <CHROM.1>
30.69645461,17.99183346,15.89897307,0.46317136,0.72569866,1.38740071

>  <Name>
ligand

>  <RI>
0

>  <Rbt.Current_Directory>
/home/itssahil/PROJECTS/Mol_Feturizer/New_Systems/rnas/4LX6

>  <Rbt.Executable>
rbdock ($Id: //depot/dev/client3/rdock/2013.1/src/exe/rbdock.cxx#4 $)

>  <Rbt.Library>
libRbt.so (2013.1, Build901 2013/11/27)

>  <Rbt.Parameter_File>
/export/apps/rDock/src/rDock_2013.1_src/data/scripts/dock_solv.prm

>  <Rbt.Receptor>
prm/pocket_docking_7.prm

>  <SCORE>
-11.9221

>  <SCORE.INTER>
-11.9221

>  <SCORE.INTER.CONST>
1

>  <SCORE.INTER.POLAR>
0

>  <SCORE.INTER.ROT>
0

>  <SCORE.INTER.SOLV>
12.2934

>  <SCORE.INTER.VDW>
-15.6459

>  <SCORE.INTER.norm>
-0.993506

>  <SCORE.INTRA>
0

>  <SCORE.INTRA.DIHEDRAL>
0

>  <SCORE.INTRA.DIHEDRAL.0>
0

>  <SCORE.INTRA.POLAR>
0

>  <SCORE.INTRA.POLAR.0>
0

>  <SCORE.INTRA.REPUL>
0

>  <SCORE.INTRA.REPUL.0>
0

>  <SCORE.INTRA.SOLV>
0

>  <SCORE.INTRA.SOLV.lig_0>
-28.9128

>  <SCORE.INTRA.VDW>
0

>  <SCORE.INTRA.VDW.0>
0

>  <SCORE.INTRA.norm>
0

>  <SCORE.RESTR>
0

>  <SCORE.RESTR.CAVITY>
0

>  <SCORE.RESTR.norm>
0

>  <SCORE.SYSTEM>
0

>  <SCORE.SYSTEM.CONST>
0

>  <SCORE.SYSTEM.DIHEDRAL>
0

>  <SCORE.SYSTEM.SOLV>
0

>  <SCORE.SYSTEM.norm>
0

>  <SCORE.heavy>
12

>  <SCORE.norm>
-0.993506

>  <RMSD>
3.701

$$$$
ligand
 OpenBabel11021811503D
libRbt.so/2013.1/901 2013/11/27
 12 13  0  0  0  0  0  0  0  0999 V2000
   31.8443   19.1601   17.2291 C   0  0  0  0  0  0  0  0  0  0  0  0
   31.6068   18.6154   14.8901 C   0  0  0  0  0  0  0  0  0  0  0  0
   32.4213   19.8522   18.2046 N   0  0  0  0  0  0  0  0  0  0  0  0
   30.8767   18.2903   17.5363 N   0  0  0  0  0  0  0  0  0  0  0  0
   32.2353   19.3486   15.8904 N   0  0  0  0  0  0  0  0  0  0  0  0
   31.9557   18.7791   13.7178 O   0  0  0  0  0  0  0  0  0  0  0  0
   28.9446   16.0504   14.6827 N   0  0  0  0  0  0  0  0  0  0  0  0
   28.6111   15.9221   16.0401 C   0  0  0  0  0  0  0  0  0  0  0  0
   29.2868   16.7069   16.9934 N   0  0  0  0  0  0  0  0  0  0  0  0
   30.2566   17.5577   16.6026 C   0  0  0  0  0  0  0  0  0  0  0  0
   30.6072   17.7096   15.2540 C   0  0  0  0  0  0  0  0  0  0  0  0
   29.9604   16.9536   14.2876 C   0  0  0  0  0  0  0  0  0  0  0  0
  1  3  1  0  0  0  0
  1  4  2  0  0  0  0
  1  5  1  0  0  0  0
  2  6  2  0  0  0  0
  2 11  1  0  0  0  0
  2  5  1  0  0  0  0
  4 10  1  0  0  0  0
  7  8  2  0  0  0  0
  7 12  1  0  0  0  0
  8  9  1  0  0  0  0
  9 10  2  0  0  0  0
 10 11  1  0  0  0  0
 11 12  2  0  0  0  0
M  END
>  <CHROM.1>
30.75073639,17.94271810,15.93317551,0.44239386,0.75543958,1.43102477

>  <Name>
ligand

>  <RI>
0

>  <Rbt.Current_Directory>
/home/itssahil/PROJECTS/Mol_Feturizer/New_Systems/rnas/4LX6

>  <Rbt.Executable>
rbdock ($Id: //depot/dev/client3/rdock/2013.1/src/exe/rbdock.cxx#4 $)

>  <Rbt.Library>
libRbt.so (2013.1, Build901 2013/11/27)

>  <Rbt.Parameter_File>
/export/apps/rDock/src/rDock_2013.1_src/data/scripts/dock_solv.prm

>  <Rbt.Receptor>
prm/pocket_docking_8.prm

>  <SCORE>
-11.9068

>  <SCORE.INTER>
-11.9068

>  <SCORE.INTER.CONST>
1

>  <SCORE.INTER.POLAR>
0

>  <SCORE.INTER.ROT>
0

>  <SCORE.INTER.SOLV>
12.2094

>  <SCORE.INTER.VDW>
-15.6077

>  <SCORE.INTER.norm>
-0.992231

>  <SCORE.INTRA>
0

>  <SCORE.INTRA.DIHEDRAL>
0

>  <SCORE.INTRA.DIHEDRAL.0>
0

>  <SCORE.INTRA.POLAR>
0

>  <SCORE.INTRA.POLAR.0>
0

>  <SCORE.INTRA.REPUL>
0

>  <SCORE.INTRA.REPUL.0>
0

>  <SCORE.INTRA.SOLV>
0

>  <SCORE.INTRA.SOLV.lig_0>
-28.9128

>  <SCORE.INTRA.VDW>
0

>  <SCORE.INTRA.VDW.0>
0

>  <SCORE.INTRA.norm>
0

>  <SCORE.RESTR>
0

>  <SCORE.RESTR.CAVITY>
0

>  <SCORE.RESTR.norm>
0

>  <SCORE.SYSTEM>
0

>  <SCORE.SYSTEM.CONST>
0

>  <SCORE.SYSTEM.DIHEDRAL>
0

>  <SCORE.SYSTEM.SOLV>
0

>  <SCORE.SYSTEM.norm>
0

>  <SCORE.heavy>
12

>  <SCORE.norm>
-0.992231

>  <RMSD>
3.718

$$$$
ligand
 OpenBabel11021811503D
libRbt.so/2013.1/901 2013/11/27
 12 13  0  0  0  0  0  0  0  0999 V2000
   31.8196   19.1378   17.2261 C   0  0  0  0  0  0  0  0  0  0  0  0
   31.5884   18.5903   14.8872 C   0  0  0  0  0  0  0  0  0  0  0  0
   32.3995   19.8253   18.2031 N   0  0  0  0  0  0  0  0  0  0  0  0
   30.8398   18.2805   17.5300 N   0  0  0  0  0  0  0  0  0  0  0  0
   32.2202   19.3182   15.8891 N   0  0  0  0  0  0  0  0  0  0  0  0
   31.9457   18.7468   13.7164 O   0  0  0  0  0  0  0  0  0  0  0  0
   28.8964   16.0572   14.6711 N   0  0  0  0  0  0  0  0  0  0  0  0
   28.5539   15.9363   16.0270 C   0  0  0  0  0  0  0  0  0  0  0  0
   29.2338   16.7152   16.9821 N   0  0  0  0  0  0  0  0  0  0  0  0
   30.2160   17.5533   16.5946 C   0  0  0  0  0  0  0  0  0  0  0  0
   30.5758   17.6976   15.2477 C   0  0  0  0  0  0  0  0  0  0  0  0
   29.9253   16.9470   14.2795 C   0  0  0  0  0  0  0  0  0  0  0  0
  1  3  1  0  0  0  0
  1  4  2  0  0  0  0
  1  5  1  0  0  0  0
  2  6  2  0  0  0  0
  2 11  1  0  0  0  0
  2  5  1  0  0  0  0
  4 10  1  0  0  0  0
  7  8  2  0  0  0  0
  7 12  1  0  0  0  0
  8  9  1  0  0  0  0
  9 10  2  0  0  0  0
 10 11  1  0  0  0  0
 11 12  2  0  0  0  0
M  END
>  <CHROM.1>
30.71844949,17.93057607,15.92705891,0.44752227,0.74264225,1.42508939

>  <Name>
ligand

>  <RI>
0

>  <Rbt.Current_Directory>
/home/itssahil/PROJECTS/Mol_Feturizer/New_Systems/rnas/4LX6

>  <Rbt.Executable>
rbdock ($Id: //depot/dev/client3/rdock/2013.1/src/exe/rbdock.cxx#4 $)

>  <Rbt.Library>
libRbt.so (2013.1, Build901 2013/11/27)

>  <Rbt.Parameter_File>
/export/apps/rDock/src/rDock_2013.1_src/data/scripts/dock_solv.prm

>  <Rbt.Receptor>
prm/blind_docking_60.prm

>  <SCORE>
-11.9336

>  <SCORE.INTER>
-11.9336

>  <SCORE.INTER.CONST>
1

>  <SCORE.INTER.POLAR>
0

>  <SCORE.INTER.ROT>
0

>  <SCORE.INTER.SOLV>
12.0748

>  <SCORE.INTER.VDW>
-15.5807

>  <SCORE.INTER.norm>
-0.994468

>  <SCORE.INTRA>
0

>  <SCORE.INTRA.DIHEDRAL>
0

>  <SCORE.INTRA.DIHEDRAL.0>
0

>  <SCORE.INTRA.POLAR>
0

>  <SCORE.INTRA.POLAR.0>
0

>  <SCORE.INTRA.REPUL>
0

>  <SCORE.INTRA.REPUL.0>
0

>  <SCORE.INTRA.SOLV>
0

>  <SCORE.INTRA.SOLV.lig_0>
-28.9128

>  <SCORE.INTRA.VDW>
0

>  <SCORE.INTRA.VDW.0>
0

>  <SCORE.INTRA.norm>
0

>  <SCORE.RESTR>
0

>  <SCORE.RESTR.CAVITY>
0

>  <SCORE.RESTR.norm>
0

>  <SCORE.SYSTEM>
0

>  <SCORE.SYSTEM.CONST>
0

>  <SCORE.SYSTEM.DIHEDRAL>
0

>  <SCORE.SYSTEM.SOLV>
0

>  <SCORE.SYSTEM.norm>
0

>  <SCORE.heavy>
12

>  <SCORE.norm>
-0.994468

>  <RMSD>
3.719

$$$$
ligand
 OpenBabel11021811503D
libRbt.so/2013.1/901 2013/11/27
 12 13  0  0  0  0  0  0  0  0999 V2000
   31.7957   19.1390   17.2289 C   0  0  0  0  0  0  0  0  0  0  0  0
   31.5069   18.6679   14.8798 C   0  0  0  0  0  0  0  0  0  0  0  0
   32.3820   19.8126   18.2118 N   0  0  0  0  0  0  0  0  0  0  0  0
   30.8596   18.2340   17.5319 N   0  0  0  0  0  0  0  0  0  0  0  0
   32.1442   19.3830   15.8874 N   0  0  0  0  0  0  0  0  0  0  0  0
   31.8187   18.8804   13.7048 O   0  0  0  0  0  0  0  0  0  0  0  0
   28.9062   16.0419   14.6557 N   0  0  0  0  0  0  0  0  0  0  0  0
   28.6142   15.8588   16.0164 C   0  0  0  0  0  0  0  0  0  0  0  0
   29.2960   16.6284   16.9776 N   0  0  0  0  0  0  0  0  0  0  0  0
   30.2325   17.5174   16.5905 C   0  0  0  0  0  0  0  0  0  0  0  0
   30.5413   17.7241   15.2390 C   0  0  0  0  0  0  0  0  0  0  0  0
   29.8872   16.9844   14.2648 C   0  0  0  0  0  0  0  0  0  0  0  0
  1  3  1  0  0  0  0
  1  4  2  0  0  0  0
  1  5  1  0  0  0  0
  2  6  2  0  0  0  0
  2 11  1  0  0  0  0
  2  5  1  0  0  0  0
  4 10  1  0  0  0  0
  7  8  2  0  0  0  0
  7 12  1  0  0  0  0
  8  9  1  0  0  0  0
  9 10  2  0  0  0  0
 10 11  1  0  0  0  0
 11 12  2  0  0  0  0
M  END
>  <CHROM.1>
30.69776806,17.93776047,15.92165759,0.40831227,0.78430574,1.48904476

>  <Name>
ligand

>  <RI>
0

>  <Rbt.Current_Directory>
/home/itssahil/PROJECTS/Mol_Feturizer/New_Systems/rnas/4LX6

>  <Rbt.Executable>
rbdock ($Id: //depot/dev/client3/rdock/2013.1/src/exe/rbdock.cxx#4 $)

>  <Rbt.Library>
libRbt.so (2013.1, Build901 2013/11/27)

>  <Rbt.Parameter_File>
/export/apps/rDock/src/rDock_2013.1_src/data/scripts/dock_solv.prm

>  <Rbt.Receptor>
prm/blind_docking_80.prm

>  <SCORE>
-11.9001

>  <SCORE.INTER>
-11.9001

>  <SCORE.INTER.CONST>
1

>  <SCORE.INTER.POLAR>
0

>  <SCORE.INTER.ROT>
0

>  <SCORE.INTER.SOLV>
12.1349

>  <SCORE.INTER.VDW>
-15.5784

>  <SCORE.INTER.norm>
-0.991676

>  <SCORE.INTRA>
0

>  <SCORE.INTRA.DIHEDRAL>
0

>  <SCORE.INTRA.DIHEDRAL.0>
0

>  <SCORE.INTRA.POLAR>
0

>  <SCORE.INTRA.POLAR.0>
0

>  <SCORE.INTRA.REPUL>
0

>  <SCORE.INTRA.REPUL.0>
0

>  <SCORE.INTRA.SOLV>
0

>  <SCORE.INTRA.SOLV.lig_0>
-28.9128

>  <SCORE.INTRA.VDW>
0

>  <SCORE.INTRA.VDW.0>
0

>  <SCORE.INTRA.norm>
0

>  <SCORE.RESTR>
0

>  <SCORE.RESTR.CAVITY>
0

>  <SCORE.RESTR.norm>
0

>  <SCORE.SYSTEM>
0

>  <SCORE.SYSTEM.CONST>
0

>  <SCORE.SYSTEM.DIHEDRAL>
0

>  <SCORE.SYSTEM.SOLV>
0

>  <SCORE.SYSTEM.norm>
0

>  <SCORE.heavy>
12

>  <SCORE.norm>
-0.991676

>  <RMSD>
3.732

$$$$
ligand
 OpenBabel11021811503D
libRbt.so/2013.1/901 2013/11/27
 12 13  0  0  0  0  0  0  0  0999 V2000
   31.6382   19.2778   17.1982 C   0  0  0  0  0  0  0  0  0  0  0  0
   31.4355   18.7049   14.8627 C   0  0  0  0  0  0  0  0  0  0  0  0
   32.1826   19.9995   18.1710 N   0  0  0  0  0  0  0  0  0  0  0  0
   30.7027   18.3742   17.5074 N   0  0  0  0  0  0  0  0  0  0  0  0
   32.0296   19.4699   15.8601 N   0  0  0  0  0  0  0  0  0  0  0  0
   31.7849   18.8720   13.6909 O   0  0  0  0  0  0  0  0  0  0  0  0
   28.8744   16.0384   14.6623 N   0  0  0  0  0  0  0  0  0  0  0  0
   28.5381   15.9087   16.0189 C   0  0  0  0  0  0  0  0  0  0  0  0
   29.1777   16.7267   16.9692 N   0  0  0  0  0  0  0  0  0  0  0  0
   30.1166   17.6107   16.5766 C   0  0  0  0  0  0  0  0  0  0  0  0
   30.4691   17.7646   15.2287 C   0  0  0  0  0  0  0  0  0  0  0  0
   29.8573   16.9764   14.2652 C   0  0  0  0  0  0  0  0  0  0  0  0
  1  3  1  0  0  0  0
  1  4  2  0  0  0  0
  1  5  1  0  0  0  0
  2  6  2  0  0  0  0
  2 11  1  0  0  0  0
  2  5  1  0  0  0  0
  4 10  1  0  0  0  0
  7  8  2  0  0  0  0
  7 12  1  0  0  0  0
  8  9  1  0  0  0  0
  9 10  2  0  0  0  0
 10 11  1  0  0  0  0
 11 12  2  0  0  0  0
M  END
>  <CHROM.1>
30.59960246,18.00870554,15.90664538,0.45831445,0.79237586,1.41143521

>  <Name>
ligand

>  <RI>
0

>  <Rbt.Current_Directory>
/home/itssahil/PROJECTS/Mol_Feturizer/New_Systems/rnas/4LX6

>  <Rbt.Executable>
rbdock ($Id: //depot/dev/client3/rdock/2013.1/src/exe/rbdock.cxx#4 $)

>  <Rbt.Library>
libRbt.so (2013.1, Build901 2013/11/27)

>  <Rbt.Parameter_File>
/export/apps/rDock/src/rDock_2013.1_src/data/scripts/dock_solv.prm

>  <Rbt.Receptor>
prm/blind_docking_80.prm

>  <SCORE>
-11.9401

>  <SCORE.INTER>
-11.9401

>  <SCORE.INTER.CONST>
1

>  <SCORE.INTER.POLAR>
0

>  <SCORE.INTER.ROT>
0

>  <SCORE.INTER.SOLV>
12.5747

>  <SCORE.INTER.VDW>
-15.7516

>  <SCORE.INTER.norm>
-0.995009

>  <SCORE.INTRA>
0

>  <SCORE.INTRA.DIHEDRAL>
0

>  <SCORE.INTRA.DIHEDRAL.0>
0

>  <SCORE.INTRA.POLAR>
0

>  <SCORE.INTRA.POLAR.0>
0

>  <SCORE.INTRA.REPUL>
0

>  <SCORE.INTRA.REPUL.0>
0

>  <SCORE.INTRA.SOLV>
0

>  <SCORE.INTRA.SOLV.lig_0>
-28.9128

>  <SCORE.INTRA.VDW>
0

>  <SCORE.INTRA.VDW.0>
0

>  <SCORE.INTRA.norm>
0

>  <SCORE.RESTR>
0

>  <SCORE.RESTR.CAVITY>
0

>  <SCORE.RESTR.norm>
0

>  <SCORE.SYSTEM>
0

>  <SCORE.SYSTEM.CONST>
0

>  <SCORE.SYSTEM.DIHEDRAL>
0

>  <SCORE.SYSTEM.SOLV>
0

>  <SCORE.SYSTEM.norm>
0

>  <SCORE.heavy>
12

>  <SCORE.norm>
-0.995009

>  <RMSD>
3.732

$$$$
ligand
 OpenBabel11021811503D
libRbt.so/2013.1/901 2013/11/27
 12 13  0  0  0  0  0  0  0  0999 V2000
   31.6460   19.2842   17.2015 C   0  0  0  0  0  0  0  0  0  0  0  0
   31.4418   18.7166   14.8648 C   0  0  0  0  0  0  0  0  0  0  0  0
   32.1905   20.0042   18.1755 N   0  0  0  0  0  0  0  0  0  0  0  0
   30.7116   18.3789   17.5094 N   0  0  0  0  0  0  0  0  0  0  0  0
   32.0360   19.4798   15.8635 N   0  0  0  0  0  0  0  0  0  0  0  0
   31.7900   18.8868   13.6931 O   0  0  0  0  0  0  0  0  0  0  0  0
   28.8832   16.0480   14.6604 N   0  0  0  0  0  0  0  0  0  0  0  0
   28.5482   15.9148   16.0170 C   0  0  0  0  0  0  0  0  0  0  0  0
   29.1878   16.7312   16.9686 N   0  0  0  0  0  0  0  0  0  0  0  0
   30.1255   17.6171   16.5772 C   0  0  0  0  0  0  0  0  0  0  0  0
   30.4766   17.7745   15.2295 C   0  0  0  0  0  0  0  0  0  0  0  0
   29.8648   16.9879   14.2646 C   0  0  0  0  0  0  0  0  0  0  0  0
  1  3  1  0  0  0  0
  1  4  2  0  0  0  0
  1  5  1  0  0  0  0
  2  6  2  0  0  0  0
  2 11  1  0  0  0  0
  2  5  1  0  0  0  0
  4 10  1  0  0  0  0
  7  8  2  0  0  0  0
  7 12  1  0  0  0  0
  8  9  1  0  0  0  0
  9 10  2  0  0  0  0
 10 11  1  0  0  0  0
 11 12  2  0  0  0  0
M  END
>  <CHROM.1>
30.60748744,18.01710973,15.90784871,0.45731351,0.79349653,1.41450877

>  <Name>
ligand

>  <RI>
0

>  <Rbt.Current_Directory>
/home/itssahil/PROJECTS/Mol_Feturizer/New_Systems/rnas/4LX6

>  <Rbt.Executable>
rbdock ($Id: //depot/dev/client3/rdock/2013.1/src/exe/rbdock.cxx#4 $)

>  <Rbt.Library>
libRbt.so (2013.1, Build901 2013/11/27)

>  <Rbt.Parameter_File>
/export/apps/rDock/src/rDock_2013.1_src/data/scripts/dock_solv.prm

>  <Rbt.Receptor>
prm/blind_docking_80.prm

>  <SCORE>
-11.9481

>  <SCORE.INTER>
-11.9481

>  <SCORE.INTER.CONST>
1

>  <SCORE.INTER.POLAR>
0

>  <SCORE.INTER.ROT>
0

>  <SCORE.INTER.SOLV>
12.6123

>  <SCORE.INTER.VDW>
-15.7695

>  <SCORE.INTER.norm>
-0.995675

>  <SCORE.INTRA>
0

>  <SCORE.INTRA.DIHEDRAL>
0

>  <SCORE.INTRA.DIHEDRAL.0>
0

>  <SCORE.INTRA.POLAR>
0

>  <SCORE.INTRA.POLAR.0>
0

>  <SCORE.INTRA.REPUL>
0

>  <SCORE.INTRA.REPUL.0>
0

>  <SCORE.INTRA.SOLV>
0

>  <SCORE.INTRA.SOLV.lig_0>
-28.9128

>  <SCORE.INTRA.VDW>
0

>  <SCORE.INTRA.VDW.0>
0

>  <SCORE.INTRA.norm>
0

>  <SCORE.RESTR>
0

>  <SCORE.RESTR.CAVITY>
0

>  <SCORE.RESTR.norm>
0

>  <SCORE.SYSTEM>
0

>  <SCORE.SYSTEM.CONST>
0

>  <SCORE.SYSTEM.DIHEDRAL>
0

>  <SCORE.SYSTEM.SOLV>
0

>  <SCORE.SYSTEM.norm>
0

>  <SCORE.heavy>
12

>  <SCORE.norm>
-0.995675

>  <RMSD>
3.732

$$$$
ligand
 OpenBabel11021811503D
libRbt.so/2013.1/901 2013/11/27
 12 13  0  0  0  0  0  0  0  0999 V2000
   31.6378   19.2862   17.2045 C   0  0  0  0  0  0  0  0  0  0  0  0
   31.4507   18.7011   14.8707 C   0  0  0  0  0  0  0  0  0  0  0  0
   32.1711   20.0174   18.1763 N   0  0  0  0  0  0  0  0  0  0  0  0
   30.7096   18.3751   17.5137 N   0  0  0  0  0  0  0  0  0  0  0  0
   32.0332   19.4761   15.8672 N   0  0  0  0  0  0  0  0  0  0  0  0
   31.8035   18.8663   13.6997 O   0  0  0  0  0  0  0  0  0  0  0  0
   28.9159   16.0095   14.6713 N   0  0  0  0  0  0  0  0  0  0  0  0
   28.5750   15.8826   16.0270 C   0  0  0  0  0  0  0  0  0  0  0  0
   29.2026   16.7109   16.9763 N   0  0  0  0  0  0  0  0  0  0  0  0
   30.1348   17.6020   16.5838 C   0  0  0  0  0  0  0  0  0  0  0  0
   30.4916   17.7533   15.2368 C   0  0  0  0  0  0  0  0  0  0  0  0
   29.8916   16.9550   14.2742 C   0  0  0  0  0  0  0  0  0  0  0  0
  1  3  1  0  0  0  0
  1  4  2  0  0  0  0
  1  5  1  0  0  0  0
  2  6  2  0  0  0  0
  2 11  1  0  0  0  0
  2  5  1  0  0  0  0
  4 10  1  0  0  0  0
  7  8  2  0  0  0  0
  7 12  1  0  0  0  0
  8  9  1  0  0  0  0
  9 10  2  0  0  0  0
 10 11  1  0  0  0  0
 11 12  2  0  0  0  0
M  END
>  <CHROM.1>
30.61689535,18.00160457,15.91414877,0.46663118,0.80103370,1.40103330

>  <Name>
ligand

>  <RI>
0

>  <Rbt.Current_Directory>
/home/itssahil/PROJECTS/Mol_Feturizer/New_Systems/rnas/4LX6

>  <Rbt.Executable>
rbdock ($Id: //depot/dev/client3/rdock/2013.1/src/exe/rbdock.cxx#4 $)

>  <Rbt.Library>
libRbt.so (2013.1, Build901 2013/11/27)

>  <Rbt.Parameter_File>
/export/apps/rDock/src/rDock_2013.1_src/data/scripts/dock_solv.prm

>  <Rbt.Receptor>
prm/blind_docking_100.prm

>  <SCORE>
-11.9564

>  <SCORE.INTER>
-11.9564

>  <SCORE.INTER.CONST>
1

>  <SCORE.INTER.POLAR>
0

>  <SCORE.INTER.ROT>
0

>  <SCORE.INTER.SOLV>
12.6375

>  <SCORE.INTER.VDW>
-15.7835

>  <SCORE.INTER.norm>
-0.996367

>  <SCORE.INTRA>
0

>  <SCORE.INTRA.DIHEDRAL>
0

>  <SCORE.INTRA.DIHEDRAL.0>
0

>  <SCORE.INTRA.POLAR>
0

>  <SCORE.INTRA.POLAR.0>
0

>  <SCORE.INTRA.REPUL>
0

>  <SCORE.INTRA.REPUL.0>
0

>  <SCORE.INTRA.SOLV>
0

>  <SCORE.INTRA.SOLV.lig_0>
-28.9128

>  <SCORE.INTRA.VDW>
0

>  <SCORE.INTRA.VDW.0>
0

>  <SCORE.INTRA.norm>
0

>  <SCORE.RESTR>
0

>  <SCORE.RESTR.CAVITY>
0

>  <SCORE.RESTR.norm>
0

>  <SCORE.SYSTEM>
0

>  <SCORE.SYSTEM.CONST>
0

>  <SCORE.SYSTEM.DIHEDRAL>
0

>  <SCORE.SYSTEM.SOLV>
0

>  <SCORE.SYSTEM.norm>
0

>  <SCORE.heavy>
12

>  <SCORE.norm>
-0.996367

>  <RMSD>
3.733

$$$$
ligand
 OpenBabel11021811503D
libRbt.so/2013.1/901 2013/11/27
 12 13  0  0  0  0  0  0  0  0999 V2000
   28.6305   15.7885   15.6243 C   0  0  0  0  0  0  0  0  0  0  0  0
   29.9354   17.3897   16.8724 C   0  0  0  0  0  0  0  0  0  0  0  0
   27.7360   14.8082   15.5773 N   0  0  0  0  0  0  0  0  0  0  0  0
   29.1635   16.2350   14.4824 N   0  0  0  0  0  0  0  0  0  0  0  0
   29.0025   16.3590   16.8559 N   0  0  0  0  0  0  0  0  0  0  0  0
   30.2634   17.8841   17.9545 O   0  0  0  0  0  0  0  0  0  0  0  0
   31.9388   19.2651   14.3866 N   0  0  0  0  0  0  0  0  0  0  0  0
   31.5141   18.6457   13.2008 C   0  0  0  0  0  0  0  0  0  0  0  0
   30.5583   17.6145   13.2654 N   0  0  0  0  0  0  0  0  0  0  0  0
   30.0732   17.2172   14.4588 C   0  0  0  0  0  0  0  0  0  0  0  0
   30.4758   17.8206   15.6581 C   0  0  0  0  0  0  0  0  0  0  0  0
   31.4146   18.8413   15.6313 C   0  0  0  0  0  0  0  0  0  0  0  0
  1  3  1  0  0  0  0
  1  4  2  0  0  0  0
  1  5  1  0  0  0  0
  2  6  2  0  0  0  0
  2 11  1  0  0  0  0
  2  5  1  0  0  0  0
  4 10  1  0  0  0  0
  7  8  2  0  0  0  0
  7 12  1  0  0  0  0
  8  9  1  0  0  0  0
  9 10  2  0  0  0  0
 10 11  1  0  0  0  0
 11 12  2  0  0  0  0
M  END
>  <CHROM.1>
30.04006486,17.30715836,15.37052204,2.78565039,0.82738928,1.44382769

>  <Name>
ligand

>  <RI>
0

>  <Rbt.Current_Directory>
/home/itssahil/PROJECTS/Mol_Feturizer/New_Systems/rnas/4LX6

>  <Rbt.Executable>
rbdock ($Id: //depot/dev/client3/rdock/2013.1/src/exe/rbdock.cxx#4 $)

>  <Rbt.Library>
libRbt.so (2013.1, Build901 2013/11/27)

>  <Rbt.Parameter_File>
/export/apps/rDock/src/rDock_2013.1_src/data/scripts/dock_solv.prm

>  <Rbt.Receptor>
prm/blind_docking_80.prm

>  <SCORE>
-13.0972

>  <SCORE.INTER>
-13.0972

>  <SCORE.INTER.CONST>
1

>  <SCORE.INTER.POLAR>
0

>  <SCORE.INTER.ROT>
0

>  <SCORE.INTER.SOLV>
8.90359

>  <SCORE.INTER.VDW>
-15.2993

>  <SCORE.INTER.norm>
-1.09143

>  <SCORE.INTRA>
0

>  <SCORE.INTRA.DIHEDRAL>
0

>  <SCORE.INTRA.DIHEDRAL.0>
0

>  <SCORE.INTRA.POLAR>
0

>  <SCORE.INTRA.POLAR.0>
0

>  <SCORE.INTRA.REPUL>
0

>  <SCORE.INTRA.REPUL.0>
0

>  <SCORE.INTRA.SOLV>
0

>  <SCORE.INTRA.SOLV.lig_0>
-28.9128

>  <SCORE.INTRA.VDW>
0

>  <SCORE.INTRA.VDW.0>
0

>  <SCORE.INTRA.norm>
0

>  <SCORE.RESTR>
0

>  <SCORE.RESTR.CAVITY>
0

>  <SCORE.RESTR.norm>
0

>  <SCORE.SYSTEM>
0

>  <SCORE.SYSTEM.CONST>
0

>  <SCORE.SYSTEM.DIHEDRAL>
0

>  <SCORE.SYSTEM.SOLV>
0

>  <SCORE.SYSTEM.norm>
0

>  <SCORE.heavy>
12

>  <SCORE.norm>
-1.09143

>  <RMSD>
3.878

$$$$
ligand
 OpenBabel11021811503D
libRbt.so/2013.1/901 2013/11/27
 12 13  0  0  0  0  0  0  0  0999 V2000
   29.1421   15.6119   16.0238 C   0  0  0  0  0  0  0  0  0  0  0  0
   30.1758   17.5163   17.0861 C   0  0  0  0  0  0  0  0  0  0  0  0
   28.4149   14.5026   16.0884 N   0  0  0  0  0  0  0  0  0  0  0  0
   29.5972   16.0202   14.8350 N   0  0  0  0  0  0  0  0  0  0  0  0
   29.4187   16.3546   17.1868 N   0  0  0  0  0  0  0  0  0  0  0  0
   30.4212   18.1624   18.1086 O   0  0  0  0  0  0  0  0  0  0  0  0
   31.8554   19.4261   14.3952 N   0  0  0  0  0  0  0  0  0  0  0  0
   31.5345   18.6315   13.2834 C   0  0  0  0  0  0  0  0  0  0  0  0
   30.7548   17.4739   13.4652 N   0  0  0  0  0  0  0  0  0  0  0  0
   30.3392   17.1266   14.6996 C   0  0  0  0  0  0  0  0  0  0  0  0
   30.6408   17.9033   15.8267 C   0  0  0  0  0  0  0  0  0  0  0  0
   31.4054   19.0518   15.6839 C   0  0  0  0  0  0  0  0  0  0  0  0
  1  3  1  0  0  0  0
  1  4  2  0  0  0  0
  1  5  1  0  0  0  0
  2  6  2  0  0  0  0
  2 11  1  0  0  0  0
  2  5  1  0  0  0  0
  4 10  1  0  0  0  0
  7  8  2  0  0  0  0
  7 12  1  0  0  0  0
  8  9  1  0  0  0  0
  9 10  2  0  0  0  0
 10 11  1  0  0  0  0
 11 12  2  0  0  0  0
M  END
>  <CHROM.1>
30.29223118,17.30115689,15.59837196,2.82199023,0.98550710,1.31465514

>  <Name>
ligand

>  <RI>
0

>  <Rbt.Current_Directory>
/home/itssahil/PROJECTS/Mol_Feturizer/New_Systems/rnas/4LX6

>  <Rbt.Executable>
rbdock ($Id: //depot/dev/client3/rdock/2013.1/src/exe/rbdock.cxx#4 $)

>  <Rbt.Library>
libRbt.so (2013.1, Build901 2013/11/27)

>  <Rbt.Parameter_File>
/export/apps/rDock/src/rDock_2013.1_src/data/scripts/dock_solv.prm

>  <Rbt.Receptor>
prm/blind_docking_60.prm

>  <SCORE>
-13.1481

>  <SCORE.INTER>
-13.1485

>  <SCORE.INTER.CONST>
1

>  <SCORE.INTER.POLAR>
0

>  <SCORE.INTER.ROT>
0

>  <SCORE.INTER.SOLV>
10.6785

>  <SCORE.INTER.VDW>
-15.9251

>  <SCORE.INTER.norm>
-1.09571

>  <SCORE.INTRA>
0

>  <SCORE.INTRA.DIHEDRAL>
0

>  <SCORE.INTRA.DIHEDRAL.0>
0

>  <SCORE.INTRA.POLAR>
0

>  <SCORE.INTRA.POLAR.0>
0

>  <SCORE.INTRA.REPUL>
0

>  <SCORE.INTRA.REPUL.0>
0

>  <SCORE.INTRA.SOLV>
0

>  <SCORE.INTRA.SOLV.lig_0>
-28.9128

>  <SCORE.INTRA.VDW>
0

>  <SCORE.INTRA.VDW.0>
0

>  <SCORE.INTRA.norm>
0

>  <SCORE.RESTR>
0.000362523

>  <SCORE.RESTR.CAVITY>
0.000362523

>  <SCORE.RESTR.norm>
3.02103e-05

>  <SCORE.SYSTEM>
0

>  <SCORE.SYSTEM.CONST>
0

>  <SCORE.SYSTEM.DIHEDRAL>
0

>  <SCORE.SYSTEM.SOLV>
0

>  <SCORE.SYSTEM.norm>
0

>  <SCORE.heavy>
12

>  <SCORE.norm>
-1.09568

>  <RMSD>
3.882

$$$$
ligand
 OpenBabel11021811503D
libRbt.so/2013.1/901 2013/11/27
 12 13  0  0  0  0  0  0  0  0999 V2000
   28.5816   15.7760   15.5769 C   0  0  0  0  0  0  0  0  0  0  0  0
   29.9380   17.3086   16.8557 C   0  0  0  0  0  0  0  0  0  0  0  0
   27.6519   14.8301   15.5105 N   0  0  0  0  0  0  0  0  0  0  0  0
   29.1365   16.2200   14.4446 N   0  0  0  0  0  0  0  0  0  0  0  0
   28.9679   16.3133   16.8190 N   0  0  0  0  0  0  0  0  0  0  0  0
   30.2784   17.7738   17.9469 O   0  0  0  0  0  0  0  0  0  0  0  0
   32.0219   19.1469   14.4087 N   0  0  0  0  0  0  0  0  0  0  0  0
   31.5808   18.5618   13.2114 C   0  0  0  0  0  0  0  0  0  0  0  0
   30.5874   17.5657   13.2556 N   0  0  0  0  0  0  0  0  0  0  0  0
   30.0819   17.1683   14.4404 C   0  0  0  0  0  0  0  0  0  0  0  0
   30.5002   17.7379   15.6508 C   0  0  0  0  0  0  0  0  0  0  0  0
   31.4760   18.7236   15.6442 C   0  0  0  0  0  0  0  0  0  0  0  0
  1  3  1  0  0  0  0
  1  4  2  0  0  0  0
  1  5  1  0  0  0  0
  2  6  2  0  0  0  0
  2 11  1  0  0  0  0
  2  5  1  0  0  0  0
  4 10  1  0  0  0  0
  7  8  2  0  0  0  0
  7 12  1  0  0  0  0
  8  9  1  0  0  0  0
  9 10  2  0  0  0  0
 10 11  1  0  0  0  0
 11 12  2  0  0  0  0
M  END
>  <CHROM.1>
30.04734940,17.24533830,15.35328466,2.78631626,0.79022812,1.45881953

>  <Name>
ligand

>  <RI>
0

>  <Rbt.Current_Directory>
/home/itssahil/PROJECTS/Mol_Feturizer/New_Systems/rnas/4LX6

>  <Rbt.Executable>
rbdock ($Id: //depot/dev/client3/rdock/2013.1/src/exe/rbdock.cxx#4 $)

>  <Rbt.Library>
libRbt.so (2013.1, Build901 2013/11/27)

>  <Rbt.Parameter_File>
/export/apps/rDock/src/rDock_2013.1_src/data/scripts/dock_solv.prm

>  <Rbt.Receptor>
prm/blind_docking_80.prm

>  <SCORE>
-13.1039

>  <SCORE.INTER>
-13.1039

>  <SCORE.INTER.CONST>
1

>  <SCORE.INTER.POLAR>
0

>  <SCORE.INTER.ROT>
0

>  <SCORE.INTER.SOLV>
8.78825

>  <SCORE.INTER.VDW>
-15.2653

>  <SCORE.INTER.norm>
-1.09199

>  <SCORE.INTRA>
0

>  <SCORE.INTRA.DIHEDRAL>
0

>  <SCORE.INTRA.DIHEDRAL.0>
0

>  <SCORE.INTRA.POLAR>
0

>  <SCORE.INTRA.POLAR.0>
0

>  <SCORE.INTRA.REPUL>
0

>  <SCORE.INTRA.REPUL.0>
0

>  <SCORE.INTRA.SOLV>
0

>  <SCORE.INTRA.SOLV.lig_0>
-28.9128

>  <SCORE.INTRA.VDW>
0

>  <SCORE.INTRA.VDW.0>
0

>  <SCORE.INTRA.norm>
0

>  <SCORE.RESTR>
0

>  <SCORE.RESTR.CAVITY>
0

>  <SCORE.RESTR.norm>
0

>  <SCORE.SYSTEM>
0

>  <SCORE.SYSTEM.CONST>
0

>  <SCORE.SYSTEM.DIHEDRAL>
0

>  <SCORE.SYSTEM.SOLV>
0

>  <SCORE.SYSTEM.norm>
0

>  <SCORE.heavy>
12

>  <SCORE.norm>
-1.09199

>  <RMSD>
3.882

$$$$
ligand
 OpenBabel11021811503D
libRbt.so/2013.1/901 2013/11/27
 12 13  0  0  0  0  0  0  0  0999 V2000
   29.2753   15.6503   16.2097 C   0  0  0  0  0  0  0  0  0  0  0  0
   30.2361   17.6575   17.1436 C   0  0  0  0  0  0  0  0  0  0  0  0
   28.6023   14.5142   16.3503 N   0  0  0  0  0  0  0  0  0  0  0  0
   29.6903   16.0113   14.9912 N   0  0  0  0  0  0  0  0  0  0  0  0
   29.5364   16.4696   17.3238 N   0  0  0  0  0  0  0  0  0  0  0  0
   30.4682   18.3710   18.1234 O   0  0  0  0  0  0  0  0  0  0  0  0
   31.7775   19.4874   14.3178 N   0  0  0  0  0  0  0  0  0  0  0  0
   31.4755   18.6172   13.2586 C   0  0  0  0  0  0  0  0  0  0  0  0
   30.7544   17.4370   13.5199 N   0  0  0  0  0  0  0  0  0  0  0  0
   30.3768   17.1413   14.7797 C   0  0  0  0  0  0  0  0  0  0  0  0
   30.6607   17.9936   15.8556 C   0  0  0  0  0  0  0  0  0  0  0  0
   31.3677   19.1662   15.6340 C   0  0  0  0  0  0  0  0  0  0  0  0
  1  3  1  0  0  0  0
  1  4  2  0  0  0  0
  1  5  1  0  0  0  0
  2  6  2  0  0  0  0
  2 11  1  0  0  0  0
  2  5  1  0  0  0  0
  4 10  1  0  0  0  0
  7  8  2  0  0  0  0
  7 12  1  0  0  0  0
  8  9  1  0  0  0  0
  9 10  2  0  0  0  0
 10 11  1  0  0  0  0
 11 12  2  0  0  0  0
M  END
>  <CHROM.1>
30.33705632,17.36405372,15.66813669,2.81295992,1.03544865,1.26609061

>  <Name>
ligand

>  <RI>
0

>  <Rbt.Current_Directory>
/home/itssahil/PROJECTS/Mol_Feturizer/New_Systems/rnas/4LX6

>  <Rbt.Executable>
rbdock ($Id: //depot/dev/client3/rdock/2013.1/src/exe/rbdock.cxx#4 $)

>  <Rbt.Library>
libRbt.so (2013.1, Build901 2013/11/27)

>  <Rbt.Parameter_File>
/export/apps/rDock/src/rDock_2013.1_src/data/scripts/dock_solv.prm

>  <Rbt.Receptor>
prm/blind_docking_80.prm

>  <SCORE>
-13.2829

>  <SCORE.INTER>
-13.2841

>  <SCORE.INTER.CONST>
1

>  <SCORE.INTER.POLAR>
0

>  <SCORE.INTER.ROT>
0

>  <SCORE.INTER.SOLV>
11.4375

>  <SCORE.INTER.VDW>
-16.2685

>  <SCORE.INTER.norm>
-1.10701

>  <SCORE.INTRA>
0

>  <SCORE.INTRA.DIHEDRAL>
0

>  <SCORE.INTRA.DIHEDRAL.0>
0

>  <SCORE.INTRA.POLAR>
0

>  <SCORE.INTRA.POLAR.0>
0

>  <SCORE.INTRA.REPUL>
0

>  <SCORE.INTRA.REPUL.0>
0

>  <SCORE.INTRA.SOLV>
0

>  <SCORE.INTRA.SOLV.lig_0>
-28.9128

>  <SCORE.INTRA.VDW>
0

>  <SCORE.INTRA.VDW.0>
0

>  <SCORE.INTRA.norm>
0

>  <SCORE.RESTR>
0.00112535

>  <SCORE.RESTR.CAVITY>
0.00112535

>  <SCORE.RESTR.norm>
9.3779e-05

>  <SCORE.SYSTEM>
0

>  <SCORE.SYSTEM.CONST>
0

>  <SCORE.SYSTEM.DIHEDRAL>
0

>  <SCORE.SYSTEM.SOLV>
0

>  <SCORE.SYSTEM.norm>
0

>  <SCORE.heavy>
12

>  <SCORE.norm>
-1.10691

>  <RMSD>
3.914

$$$$
ligand
 OpenBabel11021811503D
libRbt.so/2013.1/901 2013/11/27
 12 13  0  0  0  0  0  0  0  0999 V2000
   29.2753   15.6506   16.2174 C   0  0  0  0  0  0  0  0  0  0  0  0
   30.2374   17.6610   17.1430 C   0  0  0  0  0  0  0  0  0  0  0  0
   28.6044   14.5139   16.3633 N   0  0  0  0  0  0  0  0  0  0  0  0
   29.6848   16.0093   14.9964 N   0  0  0  0  0  0  0  0  0  0  0  0
   29.5400   16.4726   17.3286 N   0  0  0  0  0  0  0  0  0  0  0  0
   30.4726   18.3769   18.1203 O   0  0  0  0  0  0  0  0  0  0  0  0
   31.7649   19.4866   14.3068 N   0  0  0  0  0  0  0  0  0  0  0  0
   31.4596   18.6137   13.2508 C   0  0  0  0  0  0  0  0  0  0  0  0
   30.7412   17.4332   13.5177 N   0  0  0  0  0  0  0  0  0  0  0  0
   30.3691   17.1397   14.7797 C   0  0  0  0  0  0  0  0  0  0  0  0
   30.6563   17.9948   15.8525 C   0  0  0  0  0  0  0  0  0  0  0  0
   31.3609   19.1677   15.6255 C   0  0  0  0  0  0  0  0  0  0  0  0
  1  3  1  0  0  0  0
  1  4  2  0  0  0  0
  1  5  1  0  0  0  0
  2  6  2  0  0  0  0
  2 11  1  0  0  0  0
  2  5  1  0  0  0  0
  4 10  1  0  0  0  0
  7  8  2  0  0  0  0
  7 12  1  0  0  0  0
  8  9  1  0  0  0  0
  9 10  2  0  0  0  0
 10 11  1  0  0  0  0
 11 12  2  0  0  0  0
M  END
>  <CHROM.1>
30.33267615,17.36442808,15.66774747,2.80600168,1.03787536,1.26988089

>  <Name>
ligand

>  <RI>
0

>  <Rbt.Current_Directory>
/home/itssahil/PROJECTS/Mol_Feturizer/New_Systems/rnas/4LX6

>  <Rbt.Executable>
rbdock ($Id: //depot/dev/client3/rdock/2013.1/src/exe/rbdock.cxx#4 $)

>  <Rbt.Library>
libRbt.so (2013.1, Build901 2013/11/27)

>  <Rbt.Parameter_File>
/export/apps/rDock/src/rDock_2013.1_src/data/scripts/dock_solv.prm

>  <Rbt.Receptor>
prm/blind_docking_80.prm

>  <SCORE>
-13.3006

>  <SCORE.INTER>
-13.3029

>  <SCORE.INTER.CONST>
1

>  <SCORE.INTER.POLAR>
0

>  <SCORE.INTER.ROT>
0

>  <SCORE.INTER.SOLV>
11.445

>  <SCORE.INTER.VDW>
-16.2836

>  <SCORE.INTER.norm>
-1.10858

>  <SCORE.INTRA>
0

>  <SCORE.INTRA.DIHEDRAL>
0

>  <SCORE.INTRA.DIHEDRAL.0>
0

>  <SCORE.INTRA.POLAR>
0

>  <SCORE.INTRA.POLAR.0>
0

>  <SCORE.INTRA.REPUL>
0

>  <SCORE.INTRA.REPUL.0>
0

>  <SCORE.INTRA.SOLV>
0

>  <SCORE.INTRA.SOLV.lig_0>
-28.9128

>  <SCORE.INTRA.VDW>
0

>  <SCORE.INTRA.VDW.0>
0

>  <SCORE.INTRA.norm>
0

>  <SCORE.RESTR>
0.00232804

>  <SCORE.RESTR.CAVITY>
0.00232804

>  <SCORE.RESTR.norm>
0.000194003

>  <SCORE.SYSTEM>
0

>  <SCORE.SYSTEM.CONST>
0

>  <SCORE.SYSTEM.DIHEDRAL>
0

>  <SCORE.SYSTEM.SOLV>
0

>  <SCORE.SYSTEM.norm>
0

>  <SCORE.heavy>
12

>  <SCORE.norm>
-1.10838

>  <RMSD>
3.919

$$$$
ligand
 OpenBabel11021811503D
libRbt.so/2013.1/901 2013/11/27
 12 13  0  0  0  0  0  0  0  0999 V2000
   29.1840   15.6812   16.1509 C   0  0  0  0  0  0  0  0  0  0  0  0
   30.2342   17.6370   17.0976 C   0  0  0  0  0  0  0  0  0  0  0  0
   28.4795   14.5639   16.2876 N   0  0  0  0  0  0  0  0  0  0  0  0
   29.5756   16.0550   14.9286 N   0  0  0  0  0  0  0  0  0  0  0  0
   29.5024   16.4679   17.2735 N   0  0  0  0  0  0  0  0  0  0  0  0
   30.5165   18.3217   18.0847 O   0  0  0  0  0  0  0  0  0  0  0  0
   31.7525   19.4779   14.2664 N   0  0  0  0  0  0  0  0  0  0  0  0
   31.3931   18.6405   13.1988 C   0  0  0  0  0  0  0  0  0  0  0  0
   30.6426   17.4780   13.4567 N   0  0  0  0  0  0  0  0  0  0  0  0
   30.2915   17.1673   14.7206 C   0  0  0  0  0  0  0  0  0  0  0  0
   30.6327   17.9871   15.8050 C   0  0  0  0  0  0  0  0  0  0  0  0
   31.3701   19.1415   15.5872 C   0  0  0  0  0  0  0  0  0  0  0  0
  1  3  1  0  0  0  0
  1  4  2  0  0  0  0
  1  5  1  0  0  0  0
  2  6  2  0  0  0  0
  2 11  1  0  0  0  0
  2  5  1  0  0  0  0
  4 10  1  0  0  0  0
  7  8  2  0  0  0  0
  7 12  1  0  0  0  0
  8  9  1  0  0  0  0
  9 10  2  0  0  0  0
 10 11  1  0  0  0  0
 11 12  2  0  0  0  0
M  END
>  <CHROM.1>
30.28399909,17.37218128,15.61412011,2.74394914,1.01249662,1.34601247

>  <Name>
ligand

>  <RI>
0

>  <Rbt.Current_Directory>
/home/itssahil/PROJECTS/Mol_Feturizer/New_Systems/rnas/4LX6

>  <Rbt.Executable>
rbdock ($Id: //depot/dev/client3/rdock/2013.1/src/exe/rbdock.cxx#4 $)

>  <Rbt.Library>
libRbt.so (2013.1, Build901 2013/11/27)

>  <Rbt.Parameter_File>
/export/apps/rDock/src/rDock_2013.1_src/data/scripts/dock_solv.prm

>  <Rbt.Receptor>
prm/blind_docking_80.prm

>  <SCORE>
-13.3353

>  <SCORE.INTER>
-13.3532

>  <SCORE.INTER.CONST>
1

>  <SCORE.INTER.POLAR>
0

>  <SCORE.INTER.ROT>
0

>  <SCORE.INTER.SOLV>
10.85

>  <SCORE.INTER.VDW>
-16.1188

>  <SCORE.INTER.norm>
-1.11277

>  <SCORE.INTRA>
0

>  <SCORE.INTRA.DIHEDRAL>
0

>  <SCORE.INTRA.DIHEDRAL.0>
0

>  <SCORE.INTRA.POLAR>
0

>  <SCORE.INTRA.POLAR.0>
0

>  <SCORE.INTRA.REPUL>
0

>  <SCORE.INTRA.REPUL.0>
0

>  <SCORE.INTRA.SOLV>
0

>  <SCORE.INTRA.SOLV.lig_0>
-28.9128

>  <SCORE.INTRA.VDW>
0

>  <SCORE.INTRA.VDW.0>
0

>  <SCORE.INTRA.norm>
0

>  <SCORE.RESTR>
0.0179338

>  <SCORE.RESTR.CAVITY>
0.0179338

>  <SCORE.RESTR.norm>
0.00149448

>  <SCORE.SYSTEM>
0

>  <SCORE.SYSTEM.CONST>
0

>  <SCORE.SYSTEM.DIHEDRAL>
0

>  <SCORE.SYSTEM.SOLV>
0

>  <SCORE.SYSTEM.norm>
0

>  <SCORE.heavy>
12

>  <SCORE.norm>
-1.11127

>  <RMSD>
3.925

$$$$
ligand
 OpenBabel11021811503D
libRbt.so/2013.1/901 2013/11/27
 12 13  0  0  0  0  0  0  0  0999 V2000
   29.1300   15.9230   16.1742 C   0  0  0  0  0  0  0  0  0  0  0  0
   30.3971   17.8355   16.9229 C   0  0  0  0  0  0  0  0  0  0  0  0
   28.3486   14.8796   16.4278 N   0  0  0  0  0  0  0  0  0  0  0  0
   29.4658   16.1885   14.9077 N   0  0  0  0  0  0  0  0  0  0  0  0
   29.5871   16.7454   17.2207 N   0  0  0  0  0  0  0  0  0  0  0  0
   30.8007   18.5516   17.8434 O   0  0  0  0  0  0  0  0  0  0  0  0
   31.8614   19.3686   13.8872 N   0  0  0  0  0  0  0  0  0  0  0  0
   31.3632   18.5024   12.9014 C   0  0  0  0  0  0  0  0  0  0  0  0
   30.5407   17.4253   13.2815 N   0  0  0  0  0  0  0  0  0  0  0  0
   30.2532   17.2216   14.5827 C   0  0  0  0  0  0  0  0  0  0  0  0
   30.7330   18.0728   15.5876 C   0  0  0  0  0  0  0  0  0  0  0  0
   31.5445   19.1454   15.2486 C   0  0  0  0  0  0  0  0  0  0  0  0
  1  3  1  0  0  0  0
  1  4  2  0  0  0  0
  1  5  1  0  0  0  0
  2  6  2  0  0  0  0
  2 11  1  0  0  0  0
  2  5  1  0  0  0  0
  4 10  1  0  0  0  0
  7  8  2  0  0  0  0
  7 12  1  0  0  0  0
  8  9  1  0  0  0  0
  9 10  2  0  0  0  0
 10 11  1  0  0  0  0
 11 12  2  0  0  0  0
M  END
>  <CHROM.1>
30.32351920,17.47935696,15.45966806,2.59887722,0.94378641,1.40380580

>  <Name>
ligand

>  <RI>
0

>  <Rbt.Current_Directory>
/home/itssahil/PROJECTS/Mol_Feturizer/New_Systems/rnas/4LX6

>  <Rbt.Executable>
rbdock ($Id: //depot/dev/client3/rdock/2013.1/src/exe/rbdock.cxx#4 $)

>  <Rbt.Library>
libRbt.so (2013.1, Build901 2013/11/27)

>  <Rbt.Parameter_File>
/export/apps/rDock/src/rDock_2013.1_src/data/scripts/dock_solv.prm

>  <Rbt.Receptor>
prm/pocket_docking_8.prm

>  <SCORE>
-14.047

>  <SCORE.INTER>
-14.047

>  <SCORE.INTER.CONST>
1

>  <SCORE.INTER.POLAR>
0

>  <SCORE.INTER.ROT>
0

>  <SCORE.INTER.SOLV>
10.0499

>  <SCORE.INTER.VDW>
-16.3146

>  <SCORE.INTER.norm>
-1.17058

>  <SCORE.INTRA>
0

>  <SCORE.INTRA.DIHEDRAL>
0

>  <SCORE.INTRA.DIHEDRAL.0>
0

>  <SCORE.INTRA.POLAR>
0

>  <SCORE.INTRA.POLAR.0>
0

>  <SCORE.INTRA.REPUL>
0

>  <SCORE.INTRA.REPUL.0>
0

>  <SCORE.INTRA.SOLV>
0

>  <SCORE.INTRA.SOLV.lig_0>
-28.9128

>  <SCORE.INTRA.VDW>
0

>  <SCORE.INTRA.VDW.0>
0

>  <SCORE.INTRA.norm>
0

>  <SCORE.RESTR>
0

>  <SCORE.RESTR.CAVITY>
0

>  <SCORE.RESTR.norm>
0

>  <SCORE.SYSTEM>
0

>  <SCORE.SYSTEM.CONST>
0

>  <SCORE.SYSTEM.DIHEDRAL>
0

>  <SCORE.SYSTEM.SOLV>
0

>  <SCORE.SYSTEM.norm>
0

>  <SCORE.heavy>
12

>  <SCORE.norm>
-1.17058

>  <RMSD>
4.021

$$$$
ligand
 OpenBabel11021811503D
libRbt.so/2013.1/901 2013/11/27
 12 13  0  0  0  0  0  0  0  0999 V2000
   29.2497   15.9273   16.3781 C   0  0  0  0  0  0  0  0  0  0  0  0
   30.4181   17.9272   17.0559 C   0  0  0  0  0  0  0  0  0  0  0  0
   28.5164   14.8591   16.6691 N   0  0  0  0  0  0  0  0  0  0  0  0
   29.5839   16.1564   15.1041 N   0  0  0  0  0  0  0  0  0  0  0  0
   29.6580   16.8128   17.3928 N   0  0  0  0  0  0  0  0  0  0  0  0
   30.7790   18.6988   17.9488 O   0  0  0  0  0  0  0  0  0  0  0  0
   31.8353   19.4026   13.9698 N   0  0  0  0  0  0  0  0  0  0  0  0
   31.3877   18.4740   13.0171 C   0  0  0  0  0  0  0  0  0  0  0  0
   30.6137   17.3754   13.4357 N   0  0  0  0  0  0  0  0  0  0  0  0
   30.3244   17.2117   14.7421 C   0  0  0  0  0  0  0  0  0  0  0  0
   30.7543   18.1253   15.7143 C   0  0  0  0  0  0  0  0  0  0  0  0
   31.5172   19.2205   15.3370 C   0  0  0  0  0  0  0  0  0  0  0  0
  1  3  1  0  0  0  0
  1  4  2  0  0  0  0
  1  5  1  0  0  0  0
  2  6  2  0  0  0  0
  2 11  1  0  0  0  0
  2  5  1  0  0  0  0
  4 10  1  0  0  0  0
  7  8  2  0  0  0  0
  7 12  1  0  0  0  0
  8  9  1  0  0  0  0
  9 10  2  0  0  0  0
 10 11  1  0  0  0  0
 11 12  2  0  0  0  0
M  END
>  <CHROM.1>
30.37460801,17.50823674,15.60816441,2.62932782,0.98879667,1.33752178

>  <Name>
ligand

>  <RI>
0

>  <Rbt.Current_Directory>
/home/itssahil/PROJECTS/Mol_Feturizer/New_Systems/rnas/4LX6

>  <Rbt.Executable>
rbdock ($Id: //depot/dev/client3/rdock/2013.1/src/exe/rbdock.cxx#4 $)

>  <Rbt.Library>
libRbt.so (2013.1, Build901 2013/11/27)

>  <Rbt.Parameter_File>
/export/apps/rDock/src/rDock_2013.1_src/data/scripts/dock_solv.prm

>  <Rbt.Receptor>
prm/pocket_docking_4.prm

>  <SCORE>
-14.082

>  <SCORE.INTER>
-14.082

>  <SCORE.INTER.CONST>
1

>  <SCORE.INTER.POLAR>
0

>  <SCORE.INTER.ROT>
0

>  <SCORE.INTER.SOLV>
11.1049

>  <SCORE.INTER.VDW>
-16.6896

>  <SCORE.INTER.norm>
-1.1735

>  <SCORE.INTRA>
0

>  <SCORE.INTRA.DIHEDRAL>
0

>  <SCORE.INTRA.DIHEDRAL.0>
0

>  <SCORE.INTRA.POLAR>
0

>  <SCORE.INTRA.POLAR.0>
0

>  <SCORE.INTRA.REPUL>
0

>  <SCORE.INTRA.REPUL.0>
0

>  <SCORE.INTRA.SOLV>
0

>  <SCORE.INTRA.SOLV.lig_0>
-28.9128

>  <SCORE.INTRA.VDW>
0

>  <SCORE.INTRA.VDW.0>
0

>  <SCORE.INTRA.norm>
0

>  <SCORE.RESTR>
0

>  <SCORE.RESTR.CAVITY>
0

>  <SCORE.RESTR.norm>
0

>  <SCORE.SYSTEM>
0

>  <SCORE.SYSTEM.CONST>
0

>  <SCORE.SYSTEM.DIHEDRAL>
0

>  <SCORE.SYSTEM.SOLV>
0

>  <SCORE.SYSTEM.norm>
0

>  <SCORE.heavy>
12

>  <SCORE.norm>
-1.1735

>  <RMSD>
4.024

$$$$
ligand
 OpenBabel11021811503D
libRbt.so/2013.1/901 2013/11/27
 12 13  0  0  0  0  0  0  0  0999 V2000
   29.2494   15.9276   16.3574 C   0  0  0  0  0  0  0  0  0  0  0  0
   30.4164   17.9307   17.0280 C   0  0  0  0  0  0  0  0  0  0  0  0
   28.5189   14.8586   16.6527 N   0  0  0  0  0  0  0  0  0  0  0  0
   29.5791   16.1551   15.0819 N   0  0  0  0  0  0  0  0  0  0  0  0
   29.6594   16.8156   17.3693 N   0  0  0  0  0  0  0  0  0  0  0  0
   30.7789   18.7045   17.9184 O   0  0  0  0  0  0  0  0  0  0  0  0
   31.8210   19.4033   13.9347 N   0  0  0  0  0  0  0  0  0  0  0  0
   31.3719   18.4722   12.9851 C   0  0  0  0  0  0  0  0  0  0  0  0
   30.6012   17.3730   13.4081 N   0  0  0  0  0  0  0  0  0  0  0  0
   30.3165   17.2111   14.7158 C   0  0  0  0  0  0  0  0  0  0  0  0
   30.7480   18.1271   15.6850 C   0  0  0  0  0  0  0  0  0  0  0  0
   31.5077   19.2230   15.3033 C   0  0  0  0  0  0  0  0  0  0  0  0
  1  3  1  0  0  0  0
  1  4  2  0  0  0  0
  1  5  1  0  0  0  0
  2  6  2  0  0  0  0
  2 11  1  0  0  0  0
  2  5  1  0  0  0  0
  4 10  1  0  0  0  0
  7  8  2  0  0  0  0
  7 12  1  0  0  0  0
  8  9  1  0  0  0  0
  9 10  2  0  0  0  0
 10 11  1  0  0  0  0
 11 12  2  0  0  0  0
M  END
>  <CHROM.1>
30.36899774,17.50918555,15.58111728,2.62429137,0.99127562,1.34001336

>  <Name>
ligand

>  <RI>
0

>  <Rbt.Current_Directory>
/home/itssahil/PROJECTS/Mol_Feturizer/New_Systems/rnas/4LX6

>  <Rbt.Executable>
rbdock ($Id: //depot/dev/client3/rdock/2013.1/src/exe/rbdock.cxx#4 $)

>  <Rbt.Library>
libRbt.so (2013.1, Build901 2013/11/27)

>  <Rbt.Parameter_File>
/export/apps/rDock/src/rDock_2013.1_src/data/scripts/dock_solv.prm

>  <Rbt.Receptor>
prm/pocket_docking_8.prm

>  <SCORE>
-14.0783

>  <SCORE.INTER>
-14.0783

>  <SCORE.INTER.CONST>
1

>  <SCORE.INTER.POLAR>
0

>  <SCORE.INTER.ROT>
0

>  <SCORE.INTER.SOLV>
11.0797

>  <SCORE.INTER.VDW>
-16.6788

>  <SCORE.INTER.norm>
-1.17319

>  <SCORE.INTRA>
0

>  <SCORE.INTRA.DIHEDRAL>
0

>  <SCORE.INTRA.DIHEDRAL.0>
0

>  <SCORE.INTRA.POLAR>
0

>  <SCORE.INTRA.POLAR.0>
0

>  <SCORE.INTRA.REPUL>
0

>  <SCORE.INTRA.REPUL.0>
0

>  <SCORE.INTRA.SOLV>
0

>  <SCORE.INTRA.SOLV.lig_0>
-28.9128

>  <SCORE.INTRA.VDW>
0

>  <SCORE.INTRA.VDW.0>
0

>  <SCORE.INTRA.norm>
0

>  <SCORE.RESTR>
0

>  <SCORE.RESTR.CAVITY>
0

>  <SCORE.RESTR.norm>
0

>  <SCORE.SYSTEM>
0

>  <SCORE.SYSTEM.CONST>
0

>  <SCORE.SYSTEM.DIHEDRAL>
0

>  <SCORE.SYSTEM.SOLV>
0

>  <SCORE.SYSTEM.norm>
0

>  <SCORE.heavy>
12

>  <SCORE.norm>
-1.17319

>  <RMSD>
4.028

$$$$
ligand
 OpenBabel11021811503D
libRbt.so/2013.1/901 2013/11/27
 12 13  0  0  0  0  0  0  0  0999 V2000
   28.9645   16.0354   16.1449 C   0  0  0  0  0  0  0  0  0  0  0  0
   30.3844   17.8318   16.9070 C   0  0  0  0  0  0  0  0  0  0  0  0
   28.1146   15.0457   16.3930 N   0  0  0  0  0  0  0  0  0  0  0  0
   29.2909   16.3069   14.8772 N   0  0  0  0  0  0  0  0  0  0  0  0
   29.5035   16.7965   17.1989 N   0  0  0  0  0  0  0  0  0  0  0  0
   30.8595   18.4937   17.8339 O   0  0  0  0  0  0  0  0  0  0  0  0
   31.8900   19.3286   13.8735 N   0  0  0  0  0  0  0  0  0  0  0  0
   31.3082   18.5255   12.8801 C   0  0  0  0  0  0  0  0  0  0  0  0
   30.4176   17.5020   13.2548 N   0  0  0  0  0  0  0  0  0  0  0  0
   30.1446   17.2877   14.5574 C   0  0  0  0  0  0  0  0  0  0  0  0
   30.7074   18.0768   15.5699 C   0  0  0  0  0  0  0  0  0  0  0  0
   31.5876   19.0956   15.2365 C   0  0  0  0  0  0  0  0  0  0  0  0
  1  3  1  0  0  0  0
  1  4  2  0  0  0  0
  1  5  1  0  0  0  0
  2  6  2  0  0  0  0
  2 11  1  0  0  0  0
  2  5  1  0  0  0  0
  4 10  1  0  0  0  0
  7  8  2  0  0  0  0
  7 12  1  0  0  0  0
  8  9  1  0  0  0  0
  9 10  2  0  0  0  0
 10 11  1  0  0  0  0
 11 12  2  0  0  0  0
M  END
>  <CHROM.1>
30.25283450,17.51803040,15.43817134,2.54608811,0.87445270,1.46929318

>  <Name>
ligand

>  <RI>
0

>  <Rbt.Current_Directory>
/home/itssahil/PROJECTS/Mol_Feturizer/New_Systems/rnas/4LX6

>  <Rbt.Executable>
rbdock ($Id: //depot/dev/client3/rdock/2013.1/src/exe/rbdock.cxx#4 $)

>  <Rbt.Library>
libRbt.so (2013.1, Build901 2013/11/27)

>  <Rbt.Parameter_File>
/export/apps/rDock/src/rDock_2013.1_src/data/scripts/dock_solv.prm

>  <Rbt.Receptor>
prm/pocket_docking_4.prm

>  <SCORE>
-14.0785

>  <SCORE.INTER>
-14.0785

>  <SCORE.INTER.CONST>
1

>  <SCORE.INTER.POLAR>
0

>  <SCORE.INTER.ROT>
0

>  <SCORE.INTER.SOLV>
9.18752

>  <SCORE.INTER.VDW>
-16.0482

>  <SCORE.INTER.norm>
-1.17321

>  <SCORE.INTRA>
0

>  <SCORE.INTRA.DIHEDRAL>
0

>  <SCORE.INTRA.DIHEDRAL.0>
0

>  <SCORE.INTRA.POLAR>
0

>  <SCORE.INTRA.POLAR.0>
0

>  <SCORE.INTRA.REPUL>
0

>  <SCORE.INTRA.REPUL.0>
0

>  <SCORE.INTRA.SOLV>
0

>  <SCORE.INTRA.SOLV.lig_0>
-28.9128

>  <SCORE.INTRA.VDW>
0

>  <SCORE.INTRA.VDW.0>
0

>  <SCORE.INTRA.norm>
0

>  <SCORE.RESTR>
0

>  <SCORE.RESTR.CAVITY>
0

>  <SCORE.RESTR.norm>
0

>  <SCORE.SYSTEM>
0

>  <SCORE.SYSTEM.CONST>
0

>  <SCORE.SYSTEM.DIHEDRAL>
0

>  <SCORE.SYSTEM.SOLV>
0

>  <SCORE.SYSTEM.norm>
0

>  <SCORE.heavy>
12

>  <SCORE.norm>
-1.17321

>  <RMSD>
4.034

$$$$
ligand
 OpenBabel11021811503D
libRbt.so/2013.1/901 2013/11/27
 12 13  0  0  0  0  0  0  0  0999 V2000
   29.2603   15.9324   16.3933 C   0  0  0  0  0  0  0  0  0  0  0  0
   30.4201   17.9461   17.0444 C   0  0  0  0  0  0  0  0  0  0  0  0
   28.5334   14.8640   16.6990 N   0  0  0  0  0  0  0  0  0  0  0  0
   29.5896   16.1484   15.1158 N   0  0  0  0  0  0  0  0  0  0  0  0
   29.6668   16.8318   17.3965 N   0  0  0  0  0  0  0  0  0  0  0  0
   30.7797   18.7299   17.9272 O   0  0  0  0  0  0  0  0  0  0  0  0
   31.8208   19.3928   13.9372 N   0  0  0  0  0  0  0  0  0  0  0  0
   31.3752   18.4508   12.9967 C   0  0  0  0  0  0  0  0  0  0  0  0
   30.6082   17.3532   13.4303 N   0  0  0  0  0  0  0  0  0  0  0  0
   30.3236   17.2032   14.7394 C   0  0  0  0  0  0  0  0  0  0  0  0
   30.7515   18.1303   15.6996 C   0  0  0  0  0  0  0  0  0  0  0  0
   31.5076   19.2250   15.3074 C   0  0  0  0  0  0  0  0  0  0  0  0
  1  3  1  0  0  0  0
  1  4  2  0  0  0  0
  1  5  1  0  0  0  0
  2  6  2  0  0  0  0
  2 11  1  0  0  0  0
  2  5  1  0  0  0  0
  4 10  1  0  0  0  0
  7  8  2  0  0  0  0
  7 12  1  0  0  0  0
  8  9  1  0  0  0  0
  9 10  2  0  0  0  0
 10 11  1  0  0  0  0
 11 12  2  0  0  0  0
M  END
>  <CHROM.1>
30.37469284,17.51010446,15.60179629,2.62637972,0.99452896,1.32835366

>  <Name>
ligand

>  <RI>
0

>  <Rbt.Current_Directory>
/home/itssahil/PROJECTS/Mol_Feturizer/New_Systems/rnas/4LX6

>  <Rbt.Executable>
rbdock ($Id: //depot/dev/client3/rdock/2013.1/src/exe/rbdock.cxx#4 $)

>  <Rbt.Library>
libRbt.so (2013.1, Build901 2013/11/27)

>  <Rbt.Parameter_File>
/export/apps/rDock/src/rDock_2013.1_src/data/scripts/dock_solv.prm

>  <Rbt.Receptor>
prm/pocket_docking_8.prm

>  <SCORE>
-14.0983

>  <SCORE.INTER>
-14.0983

>  <SCORE.INTER.CONST>
1

>  <SCORE.INTER.POLAR>
0

>  <SCORE.INTER.ROT>
0

>  <SCORE.INTER.SOLV>
11.2324

>  <SCORE.INTER.VDW>
-16.743

>  <SCORE.INTER.norm>
-1.17486

>  <SCORE.INTRA>
0

>  <SCORE.INTRA.DIHEDRAL>
0

>  <SCORE.INTRA.DIHEDRAL.0>
0

>  <SCORE.INTRA.POLAR>
0

>  <SCORE.INTRA.POLAR.0>
0

>  <SCORE.INTRA.REPUL>
0

>  <SCORE.INTRA.REPUL.0>
0

>  <SCORE.INTRA.SOLV>
0

>  <SCORE.INTRA.SOLV.lig_0>
-28.9128

>  <SCORE.INTRA.VDW>
0

>  <SCORE.INTRA.VDW.0>
0

>  <SCORE.INTRA.norm>
0

>  <SCORE.RESTR>
0

>  <SCORE.RESTR.CAVITY>
0

>  <SCORE.RESTR.norm>
0

>  <SCORE.SYSTEM>
0

>  <SCORE.SYSTEM.CONST>
0

>  <SCORE.SYSTEM.DIHEDRAL>
0

>  <SCORE.SYSTEM.SOLV>
0

>  <SCORE.SYSTEM.norm>
0

>  <SCORE.heavy>
12

>  <SCORE.norm>
-1.17486

>  <RMSD>
4.034

$$$$
ligand
 OpenBabel11021811503D
libRbt.so/2013.1/901 2013/11/27
 12 13  0  0  0  0  0  0  0  0999 V2000
   30.9978   19.4129   18.0575 C   0  0  0  0  0  0  0  0  0  0  0  0
   31.2367   19.1961   15.6659 C   0  0  0  0  0  0  0  0  0  0  0  0
   31.1846   20.0915   19.1836 N   0  0  0  0  0  0  0  0  0  0  0  0
   30.3574   18.2404   18.1061 N   0  0  0  0  0  0  0  0  0  0  0  0
   31.4546   19.9257   16.8292 N   0  0  0  0  0  0  0  0  0  0  0  0
   31.6434   19.6460   14.5911 O   0  0  0  0  0  0  0  0  0  0  0  0
   29.6570   15.9754   14.7486 N   0  0  0  0  0  0  0  0  0  0  0  0
   29.2311   15.5343   16.0113 C   0  0  0  0  0  0  0  0  0  0  0  0
   29.4807   16.3348   17.1417 N   0  0  0  0  0  0  0  0  0  0  0  0
   30.1394   17.5035   17.0095 C   0  0  0  0  0  0  0  0  0  0  0  0
   30.5722   17.9707   15.7609 C   0  0  0  0  0  0  0  0  0  0  0  0
   30.3412   17.2084   14.6254 C   0  0  0  0  0  0  0  0  0  0  0  0
  1  3  1  0  0  0  0
  1  4  2  0  0  0  0
  1  5  1  0  0  0  0
  2  6  2  0  0  0  0
  2 11  1  0  0  0  0
  2  5  1  0  0  0  0
  4 10  1  0  0  0  0
  7  8  2  0  0  0  0
  7 12  1  0  0  0  0
  8  9  1  0  0  0  0
  9 10  2  0  0  0  0
 10 11  1  0  0  0  0
 11 12  2  0  0  0  0
M  END
>  <CHROM.1>
30.54672352,18.12768324,16.47569953,0.78597804,1.06341685,1.29394027

>  <Name>
ligand

>  <RI>
0

>  <Rbt.Current_Directory>
/home/itssahil/PROJECTS/Mol_Feturizer/New_Systems/rnas/4LX6

>  <Rbt.Executable>
rbdock ($Id: //depot/dev/client3/rdock/2013.1/src/exe/rbdock.cxx#4 $)

>  <Rbt.Library>
libRbt.so (2013.1, Build901 2013/11/27)

>  <Rbt.Parameter_File>
/export/apps/rDock/src/rDock_2013.1_src/data/scripts/dock_solv.prm

>  <Rbt.Receptor>
prm/blind_docking_100.prm

>  <SCORE>
-11.8259

>  <SCORE.INTER>
-11.8259

>  <SCORE.INTER.CONST>
1

>  <SCORE.INTER.POLAR>
0

>  <SCORE.INTER.ROT>
0

>  <SCORE.INTER.SOLV>
17.9249

>  <SCORE.INTER.VDW>
-17.4589

>  <SCORE.INTER.norm>
-0.985488

>  <SCORE.INTRA>
0

>  <SCORE.INTRA.DIHEDRAL>
0

>  <SCORE.INTRA.DIHEDRAL.0>
0

>  <SCORE.INTRA.POLAR>
0

>  <SCORE.INTRA.POLAR.0>
0

>  <SCORE.INTRA.REPUL>
0

>  <SCORE.INTRA.REPUL.0>
0

>  <SCORE.INTRA.SOLV>
0

>  <SCORE.INTRA.SOLV.lig_0>
-28.9128

>  <SCORE.INTRA.VDW>
0

>  <SCORE.INTRA.VDW.0>
0

>  <SCORE.INTRA.norm>
0

>  <SCORE.RESTR>
0

>  <SCORE.RESTR.CAVITY>
0

>  <SCORE.RESTR.norm>
0

>  <SCORE.SYSTEM>
0

>  <SCORE.SYSTEM.CONST>
0

>  <SCORE.SYSTEM.DIHEDRAL>
0

>  <SCORE.SYSTEM.SOLV>
0

>  <SCORE.SYSTEM.norm>
0

>  <SCORE.heavy>
12

>  <SCORE.norm>
-0.985488

>  <RMSD>
4.089

$$$$
ligand
 OpenBabel11021811503D
libRbt.so/2013.1/901 2013/11/27
 12 13  0  0  0  0  0  0  0  0999 V2000
   28.4205   15.8547   15.7521 C   0  0  0  0  0  0  0  0  0  0  0  0
   30.0656   17.3614   16.6727 C   0  0  0  0  0  0  0  0  0  0  0  0
   27.4578   14.9539   15.9102 N   0  0  0  0  0  0  0  0  0  0  0  0
   28.7580   16.2324   14.5148 N   0  0  0  0  0  0  0  0  0  0  0  0
   29.0672   16.4142   16.8699 N   0  0  0  0  0  0  0  0  0  0  0  0
   30.6345   17.8461   17.6548 O   0  0  0  0  0  0  0  0  0  0  0  0
   31.6977   19.0113   13.7876 N   0  0  0  0  0  0  0  0  0  0  0  0
   31.0044   18.4084   12.7264 C   0  0  0  0  0  0  0  0  0  0  0  0
   29.9990   17.4643   13.0075 N   0  0  0  0  0  0  0  0  0  0  0  0
   29.7222   17.1325   14.2844 C   0  0  0  0  0  0  0  0  0  0  0  0
   30.3953   17.7216   15.3636 C   0  0  0  0  0  0  0  0  0  0  0  0
   31.3904   18.6574   15.1232 C   0  0  0  0  0  0  0  0  0  0  0  0
  1  3  1  0  0  0  0
  1  4  2  0  0  0  0
  1  5  1  0  0  0  0
  2  6  2  0  0  0  0
  2 11  1  0  0  0  0
  2  5  1  0  0  0  0
  4 10  1  0  0  0  0
  7  8  2  0  0  0  0
  7 12  1  0  0  0  0
  8  9  1  0  0  0  0
  9 10  2  0  0  0  0
 10 11  1  0  0  0  0
 11 12  2  0  0  0  0
M  END
>  <CHROM.1>
29.87247132,17.24201192,15.18214710,2.50702485,0.75109920,1.61526972

>  <Name>
ligand

>  <RI>
0

>  <Rbt.Current_Directory>
/home/itssahil/PROJECTS/Mol_Feturizer/New_Systems/rnas/4LX6

>  <Rbt.Executable>
rbdock ($Id: //depot/dev/client3/rdock/2013.1/src/exe/rbdock.cxx#4 $)

>  <Rbt.Library>
libRbt.so (2013.1, Build901 2013/11/27)

>  <Rbt.Parameter_File>
/export/apps/rDock/src/rDock_2013.1_src/data/scripts/dock_solv.prm

>  <Rbt.Receptor>
prm/blind_docking_40.prm

>  <SCORE>
-11.527

>  <SCORE.INTER>
-11.9583

>  <SCORE.INTER.CONST>
1

>  <SCORE.INTER.POLAR>
0

>  <SCORE.INTER.ROT>
0

>  <SCORE.INTER.SOLV>
7.7124

>  <SCORE.INTER.VDW>
-14.143

>  <SCORE.INTER.norm>
-0.996529

>  <SCORE.INTRA>
0

>  <SCORE.INTRA.DIHEDRAL>
0

>  <SCORE.INTRA.DIHEDRAL.0>
0

>  <SCORE.INTRA.POLAR>
0

>  <SCORE.INTRA.POLAR.0>
0

>  <SCORE.INTRA.REPUL>
0

>  <SCORE.INTRA.REPUL.0>
0

>  <SCORE.INTRA.SOLV>
0

>  <SCORE.INTRA.SOLV.lig_0>
-28.9128

>  <SCORE.INTRA.VDW>
0

>  <SCORE.INTRA.VDW.0>
0

>  <SCORE.INTRA.norm>
0

>  <SCORE.RESTR>
0.431304

>  <SCORE.RESTR.CAVITY>
0.431304

>  <SCORE.RESTR.norm>
0.035942

>  <SCORE.SYSTEM>
0

>  <SCORE.SYSTEM.CONST>
0

>  <SCORE.SYSTEM.DIHEDRAL>
0

>  <SCORE.SYSTEM.SOLV>
0

>  <SCORE.SYSTEM.norm>
0

>  <SCORE.heavy>
12

>  <SCORE.norm>
-0.960587

>  <RMSD>
4.117

$$$$
ligand
 OpenBabel11021811503D
libRbt.so/2013.1/901 2013/11/27
 12 13  0  0  0  0  0  0  0  0999 V2000
   29.9120   16.9327   15.1330 C   0  0  0  0  0  0  0  0  0  0  0  0
   27.5281   17.2426   14.9212 C   0  0  0  0  0  0  0  0  0  0  0  0
   31.1573   17.3068   14.8631 N   0  0  0  0  0  0  0  0  0  0  0  0
   29.7103   15.8682   15.9161 N   0  0  0  0  0  0  0  0  0  0  0  0
   28.8203   17.6536   14.6141 N   0  0  0  0  0  0  0  0  0  0  0  0
   26.5730   17.8736   14.4602 O   0  0  0  0  0  0  0  0  0  0  0  0
   25.9464   14.5374   16.8935 N   0  0  0  0  0  0  0  0  0  0  0  0
   27.0869   13.8742   17.3727 C   0  0  0  0  0  0  0  0  0  0  0  0
   28.3625   14.3572   17.0251 N   0  0  0  0  0  0  0  0  0  0  0  0
   28.4814   15.4350   16.2243 C   0  0  0  0  0  0  0  0  0  0  0  0
   27.3603   16.1193   15.7350 C   0  0  0  0  0  0  0  0  0  0  0  0
   26.0879   15.6721   16.0592 C   0  0  0  0  0  0  0  0  0  0  0  0
  1  3  1  0  0  0  0
  1  4  2  0  0  0  0
  1  5  1  0  0  0  0
  2  6  2  0  0  0  0
  2 11  1  0  0  0  0
  2  5  1  0  0  0  0
  4 10  1  0  0  0  0
  7  8  2  0  0  0  0
  7 12  1  0  0  0  0
  8  9  1  0  0  0  0
  9 10  2  0  0  0  0
 10 11  1  0  0  0  0
 11 12  2  0  0  0  0
M  END
>  <CHROM.1>
28.09244489,16.11007823,15.74106577,-0.83962149,-0.00166780,2.51158855

>  <Name>
ligand

>  <RI>
0

>  <Rbt.Current_Directory>
/home/itssahil/PROJECTS/Mol_Feturizer/New_Systems/rnas/4LX6

>  <Rbt.Executable>
rbdock ($Id: //depot/dev/client3/rdock/2013.1/src/exe/rbdock.cxx#4 $)

>  <Rbt.Library>
libRbt.so (2013.1, Build901 2013/11/27)

>  <Rbt.Parameter_File>
/export/apps/rDock/src/rDock_2013.1_src/data/scripts/dock_solv.prm

>  <Rbt.Receptor>
prm/blind_docking_100.prm

>  <SCORE>
-9.19799

>  <SCORE.INTER>
-9.19799

>  <SCORE.INTER.CONST>
1

>  <SCORE.INTER.POLAR>
0

>  <SCORE.INTER.ROT>
0

>  <SCORE.INTER.SOLV>
10.4793

>  <SCORE.INTER.VDW>
-13.2251

>  <SCORE.INTER.norm>
-0.766499

>  <SCORE.INTRA>
0

>  <SCORE.INTRA.DIHEDRAL>
0

>  <SCORE.INTRA.DIHEDRAL.0>
0

>  <SCORE.INTRA.POLAR>
0

>  <SCORE.INTRA.POLAR.0>
0

>  <SCORE.INTRA.REPUL>
0

>  <SCORE.INTRA.REPUL.0>
0

>  <SCORE.INTRA.SOLV>
0

>  <SCORE.INTRA.SOLV.lig_0>
-28.9128

>  <SCORE.INTRA.VDW>
0

>  <SCORE.INTRA.VDW.0>
0

>  <SCORE.INTRA.norm>
0

>  <SCORE.RESTR>
0

>  <SCORE.RESTR.CAVITY>
0

>  <SCORE.RESTR.norm>
0

>  <SCORE.SYSTEM>
0

>  <SCORE.SYSTEM.CONST>
0

>  <SCORE.SYSTEM.DIHEDRAL>
0

>  <SCORE.SYSTEM.SOLV>
0

>  <SCORE.SYSTEM.norm>
0

>  <SCORE.heavy>
12

>  <SCORE.norm>
-0.766499

>  <RMSD>
4.375

$$$$
ligand
 OpenBabel11021811503D
libRbt.so/2013.1/901 2013/11/27
 12 13  0  0  0  0  0  0  0  0999 V2000
   29.9163   16.8588   15.0883 C   0  0  0  0  0  0  0  0  0  0  0  0
   27.5839   17.4083   14.8019 C   0  0  0  0  0  0  0  0  0  0  0  0
   31.2011   17.1058   14.8606 N   0  0  0  0  0  0  0  0  0  0  0  0
   29.5830   15.8183   15.8586 N   0  0  0  0  0  0  0  0  0  0  0  0
   28.9203   17.6874   14.5387 N   0  0  0  0  0  0  0  0  0  0  0  0
   26.7128   18.1336   14.3140 O   0  0  0  0  0  0  0  0  0  0  0  0
   25.6743   14.8722   16.7074 N   0  0  0  0  0  0  0  0  0  0  0  0
   26.7260   14.0961   17.2192 C   0  0  0  0  0  0  0  0  0  0  0  0
   28.0543   14.4486   16.9154 N   0  0  0  0  0  0  0  0  0  0  0  0
   28.3072   15.5107   16.1248 C   0  0  0  0  0  0  0  0  0  0  0  0
   27.2774   16.3059   15.6036 C   0  0  0  0  0  0  0  0  0  0  0  0
   25.9565   15.9887   15.8844 C   0  0  0  0  0  0  0  0  0  0  0  0
  1  3  1  0  0  0  0
  1  4  2  0  0  0  0
  1  5  1  0  0  0  0
  2  6  2  0  0  0  0
  2 11  1  0  0  0  0
  2  5  1  0  0  0  0
  4 10  1  0  0  0  0
  7  8  2  0  0  0  0
  7 12  1  0  0  0  0
  8  9  1  0  0  0  0
  9 10  2  0  0  0  0
 10 11  1  0  0  0  0
 11 12  2  0  0  0  0
M  END
>  <CHROM.1>
28.00425470,16.22272279,15.63314959,-0.73877672,-0.03486799,2.51737086

>  <Name>
ligand

>  <RI>
0

>  <Rbt.Current_Directory>
/home/itssahil/PROJECTS/Mol_Feturizer/New_Systems/rnas/4LX6

>  <Rbt.Executable>
rbdock ($Id: //depot/dev/client3/rdock/2013.1/src/exe/rbdock.cxx#4 $)

>  <Rbt.Library>
libRbt.so (2013.1, Build901 2013/11/27)

>  <Rbt.Parameter_File>
/export/apps/rDock/src/rDock_2013.1_src/data/scripts/dock_solv.prm

>  <Rbt.Receptor>
prm/blind_docking_40.prm

>  <SCORE>
-8.84783

>  <SCORE.INTER>
-8.84783

>  <SCORE.INTER.CONST>
1

>  <SCORE.INTER.POLAR>
0

>  <SCORE.INTER.ROT>
0

>  <SCORE.INTER.SOLV>
11.3423

>  <SCORE.INTER.VDW>
-13.2793

>  <SCORE.INTER.norm>
-0.737319

>  <SCORE.INTRA>
0

>  <SCORE.INTRA.DIHEDRAL>
0

>  <SCORE.INTRA.DIHEDRAL.0>
0

>  <SCORE.INTRA.POLAR>
0

>  <SCORE.INTRA.POLAR.0>
0

>  <SCORE.INTRA.REPUL>
0

>  <SCORE.INTRA.REPUL.0>
0

>  <SCORE.INTRA.SOLV>
0

>  <SCORE.INTRA.SOLV.lig_0>
-28.9128

>  <SCORE.INTRA.VDW>
0

>  <SCORE.INTRA.VDW.0>
0

>  <SCORE.INTRA.norm>
0

>  <SCORE.RESTR>
0

>  <SCORE.RESTR.CAVITY>
0

>  <SCORE.RESTR.norm>
0

>  <SCORE.SYSTEM>
0

>  <SCORE.SYSTEM.CONST>
0

>  <SCORE.SYSTEM.DIHEDRAL>
0

>  <SCORE.SYSTEM.SOLV>
0

>  <SCORE.SYSTEM.norm>
0

>  <SCORE.heavy>
12

>  <SCORE.norm>
-0.737319

>  <RMSD>
4.419

$$$$
ligand
 OpenBabel11021811503D
libRbt.so/2013.1/901 2013/11/27
 12 13  0  0  0  0  0  0  0  0999 V2000
   29.9014   16.8410   15.0674 C   0  0  0  0  0  0  0  0  0  0  0  0
   27.5680   17.3892   14.7872 C   0  0  0  0  0  0  0  0  0  0  0  0
   31.1853   17.0866   14.8334 N   0  0  0  0  0  0  0  0  0  0  0  0
   29.5710   15.8047   15.8447 N   0  0  0  0  0  0  0  0  0  0  0  0
   28.9033   17.6667   14.5173 N   0  0  0  0  0  0  0  0  0  0  0  0
   26.6950   18.1119   14.2988 O   0  0  0  0  0  0  0  0  0  0  0  0
   25.6656   14.8636   16.7139 N   0  0  0  0  0  0  0  0  0  0  0  0
   26.7192   14.0902   17.2258 C   0  0  0  0  0  0  0  0  0  0  0  0
   28.0464   14.4409   16.9149 N   0  0  0  0  0  0  0  0  0  0  0  0
   28.2963   15.4987   16.1175 C   0  0  0  0  0  0  0  0  0  0  0  0
   27.2645   16.2911   15.5961 C   0  0  0  0  0  0  0  0  0  0  0  0
   25.9447   15.9756   15.8837 C   0  0  0  0  0  0  0  0  0  0  0  0
  1  3  1  0  0  0  0
  1  4  2  0  0  0  0
  1  5  1  0  0  0  0
  2  6  2  0  0  0  0
  2 11  1  0  0  0  0
  2  5  1  0  0  0  0
  4 10  1  0  0  0  0
  7  8  2  0  0  0  0
  7 12  1  0  0  0  0
  8  9  1  0  0  0  0
  9 10  2  0  0  0  0
 10 11  1  0  0  0  0
 11 12  2  0  0  0  0
M  END
>  <CHROM.1>
27.99146981,16.20804918,15.62319674,-0.74100477,-0.03807138,2.51186437

>  <Name>
ligand

>  <RI>
0

>  <Rbt.Current_Directory>
/home/itssahil/PROJECTS/Mol_Feturizer/New_Systems/rnas/4LX6

>  <Rbt.Executable>
rbdock ($Id: //depot/dev/client3/rdock/2013.1/src/exe/rbdock.cxx#4 $)

>  <Rbt.Library>
libRbt.so (2013.1, Build901 2013/11/27)

>  <Rbt.Parameter_File>
/export/apps/rDock/src/rDock_2013.1_src/data/scripts/dock_solv.prm

>  <Rbt.Receptor>
prm/blind_docking_40.prm

>  <SCORE>
-8.81504

>  <SCORE.INTER>
-8.81504

>  <SCORE.INTER.CONST>
1

>  <SCORE.INTER.POLAR>
0

>  <SCORE.INTER.ROT>
0

>  <SCORE.INTER.SOLV>
11.4557

>  <SCORE.INTER.VDW>
-13.2953

>  <SCORE.INTER.norm>
-0.734587

>  <SCORE.INTRA>
0

>  <SCORE.INTRA.DIHEDRAL>
0

>  <SCORE.INTRA.DIHEDRAL.0>
0

>  <SCORE.INTRA.POLAR>
0

>  <SCORE.INTRA.POLAR.0>
0

>  <SCORE.INTRA.REPUL>
0

>  <SCORE.INTRA.REPUL.0>
0

>  <SCORE.INTRA.SOLV>
0

>  <SCORE.INTRA.SOLV.lig_0>
-28.9128

>  <SCORE.INTRA.VDW>
0

>  <SCORE.INTRA.VDW.0>
0

>  <SCORE.INTRA.norm>
0

>  <SCORE.RESTR>
0

>  <SCORE.RESTR.CAVITY>
0

>  <SCORE.RESTR.norm>
0

>  <SCORE.SYSTEM>
0

>  <SCORE.SYSTEM.CONST>
0

>  <SCORE.SYSTEM.DIHEDRAL>
0

>  <SCORE.SYSTEM.SOLV>
0

>  <SCORE.SYSTEM.norm>
0

>  <SCORE.heavy>
12

>  <SCORE.norm>
-0.734587

>  <RMSD>
4.428

$$$$
ligand
 OpenBabel11021811503D
libRbt.so/2013.1/901 2013/11/27
 12 13  0  0  0  0  0  0  0  0999 V2000
   29.2568   16.6263   14.9147 C   0  0  0  0  0  0  0  0  0  0  0  0
   28.5093   14.8552   16.3736 C   0  0  0  0  0  0  0  0  0  0  0  0
   30.2096   17.2147   14.2008 N   0  0  0  0  0  0  0  0  0  0  0  0
   28.0303   17.1582   14.9217 N   0  0  0  0  0  0  0  0  0  0  0  0
   29.5295   15.4529   15.6423 N   0  0  0  0  0  0  0  0  0  0  0  0
   28.7531   13.8294   17.0149 O   0  0  0  0  0  0  0  0  0  0  0  0
   24.9266   15.5029   17.0479 N   0  0  0  0  0  0  0  0  0  0  0  0
   24.7353   16.6721   16.2952 C   0  0  0  0  0  0  0  0  0  0  0  0
   25.8161   17.2120   15.5731 N   0  0  0  0  0  0  0  0  0  0  0  0
   27.0254   16.6184   15.6230 C   0  0  0  0  0  0  0  0  0  0  0  0
   27.2441   15.4480   16.3625 C   0  0  0  0  0  0  0  0  0  0  0  0
   26.2008   14.8874   17.0844 C   0  0  0  0  0  0  0  0  0  0  0  0
  1  3  1  0  0  0  0
  1  4  2  0  0  0  0
  1  5  1  0  0  0  0
  2  6  2  0  0  0  0
  2 11  1  0  0  0  0
  2  5  1  0  0  0  0
  4 10  1  0  0  0  0
  7  8  2  0  0  0  0
  7 12  1  0  0  0  0
  8  9  1  0  0  0  0
  9 10  2  0  0  0  0
 10 11  1  0  0  0  0
 11 12  2  0  0  0  0
M  END
>  <CHROM.1>
27.56238400,15.93760001,15.92072797,0.25038460,0.25155100,-0.60855134

>  <Name>
ligand

>  <RI>
0

>  <Rbt.Current_Directory>
/home/itssahil/PROJECTS/Mol_Feturizer/New_Systems/rnas/4LX6

>  <Rbt.Executable>
rbdock ($Id: //depot/dev/client3/rdock/2013.1/src/exe/rbdock.cxx#4 $)

>  <Rbt.Library>
libRbt.so (2013.1, Build901 2013/11/27)

>  <Rbt.Parameter_File>
/export/apps/rDock/src/rDock_2013.1_src/data/scripts/dock_solv.prm

>  <Rbt.Receptor>
prm/blind_docking_40.prm

>  <SCORE>
-7.58127

>  <SCORE.INTER>
-7.5957

>  <SCORE.INTER.CONST>
1

>  <SCORE.INTER.POLAR>
0

>  <SCORE.INTER.ROT>
0

>  <SCORE.INTER.SOLV>
11.1716

>  <SCORE.INTER.VDW>
-12.3877

>  <SCORE.INTER.norm>
-0.632975

>  <SCORE.INTRA>
0

>  <SCORE.INTRA.DIHEDRAL>
0

>  <SCORE.INTRA.DIHEDRAL.0>
0

>  <SCORE.INTRA.POLAR>
0

>  <SCORE.INTRA.POLAR.0>
0

>  <SCORE.INTRA.REPUL>
0

>  <SCORE.INTRA.REPUL.0>
0

>  <SCORE.INTRA.SOLV>
0

>  <SCORE.INTRA.SOLV.lig_0>
-28.9128

>  <SCORE.INTRA.VDW>
0

>  <SCORE.INTRA.VDW.0>
0

>  <SCORE.INTRA.norm>
0

>  <SCORE.RESTR>
0.0144337

>  <SCORE.RESTR.CAVITY>
0.0144337

>  <SCORE.RESTR.norm>
0.00120281

>  <SCORE.SYSTEM>
0

>  <SCORE.SYSTEM.CONST>
0

>  <SCORE.SYSTEM.DIHEDRAL>
0

>  <SCORE.SYSTEM.SOLV>
0

>  <SCORE.SYSTEM.norm>
0

>  <SCORE.heavy>
12

>  <SCORE.norm>
-0.631772

>  <RMSD>
4.566

$$$$
ligand
 OpenBabel11021811503D
libRbt.so/2013.1/901 2013/11/27
 12 13  0  0  0  0  0  0  0  0999 V2000
   26.5546   16.5436   15.6189 C   0  0  0  0  0  0  0  0  0  0  0  0
   27.3810   17.9402   13.8326 C   0  0  0  0  0  0  0  0  0  0  0  0
   25.5551   16.0866   16.3642 N   0  0  0  0  0  0  0  0  0  0  0  0
   27.7906   16.0845   15.8401 N   0  0  0  0  0  0  0  0  0  0  0  0
   26.3155   17.4867   14.6020 N   0  0  0  0  0  0  0  0  0  0  0  0
   27.1688   18.7713   12.9454 O   0  0  0  0  0  0  0  0  0  0  0  0
   31.0314   17.3474   13.6502 N   0  0  0  0  0  0  0  0  0  0  0  0
   31.1864   16.4069   14.6807 C   0  0  0  0  0  0  0  0  0  0  0  0
   30.0567   15.9898   15.4093 N   0  0  0  0  0  0  0  0  0  0  0  0
   28.8435   16.5060   15.1283 C   0  0  0  0  0  0  0  0  0  0  0  0
   28.6586   17.4428   14.1023 C   0  0  0  0  0  0  0  0  0  0  0  0
   29.7497   17.8747   13.3626 C   0  0  0  0  0  0  0  0  0  0  0  0
  1  3  1  0  0  0  0
  1  4  2  0  0  0  0
  1  5  1  0  0  0  0
  2  6  2  0  0  0  0
  2 11  1  0  0  0  0
  2  5  1  0  0  0  0
  4 10  1  0  0  0  0
  7  8  2  0  0  0  0
  7 12  1  0  0  0  0
  8  9  1  0  0  0  0
  9 10  2  0  0  0  0
 10 11  1  0  0  0  0
 11 12  2  0  0  0  0
M  END
>  <CHROM.1>
28.31454637,17.05587687,14.62001819,-2.92092270,0.15430627,-0.84716571

>  <Name>
ligand

>  <RI>
0

>  <Rbt.Current_Directory>
/home/itssahil/PROJECTS/Mol_Feturizer/New_Systems/rnas/4LX6

>  <Rbt.Executable>
rbdock ($Id: //depot/dev/client3/rdock/2013.1/src/exe/rbdock.cxx#4 $)

>  <Rbt.Library>
libRbt.so (2013.1, Build901 2013/11/27)

>  <Rbt.Parameter_File>
/export/apps/rDock/src/rDock_2013.1_src/data/scripts/dock_solv.prm

>  <Rbt.Receptor>
prm/blind_docking_40.prm

>  <SCORE>
-8.26945

>  <SCORE.INTER>
-8.26945

>  <SCORE.INTER.CONST>
1

>  <SCORE.INTER.POLAR>
0

>  <SCORE.INTER.ROT>
0

>  <SCORE.INTER.SOLV>
13.3542

>  <SCORE.INTER.VDW>
-13.5644

>  <SCORE.INTER.norm>
-0.689121

>  <SCORE.INTRA>
0

>  <SCORE.INTRA.DIHEDRAL>
0

>  <SCORE.INTRA.DIHEDRAL.0>
0

>  <SCORE.INTRA.POLAR>
0

>  <SCORE.INTRA.POLAR.0>
0

>  <SCORE.INTRA.REPUL>
0

>  <SCORE.INTRA.REPUL.0>
0

>  <SCORE.INTRA.SOLV>
0

>  <SCORE.INTRA.SOLV.lig_0>
-28.9128

>  <SCORE.INTRA.VDW>
0

>  <SCORE.INTRA.VDW.0>
0

>  <SCORE.INTRA.norm>
0

>  <SCORE.RESTR>
0

>  <SCORE.RESTR.CAVITY>
0

>  <SCORE.RESTR.norm>
0

>  <SCORE.SYSTEM>
0

>  <SCORE.SYSTEM.CONST>
0

>  <SCORE.SYSTEM.DIHEDRAL>
0

>  <SCORE.SYSTEM.SOLV>
0

>  <SCORE.SYSTEM.norm>
0

>  <SCORE.heavy>
12

>  <SCORE.norm>
-0.689121

>  <RMSD>
4.766

$$$$
ligand
 OpenBabel11021811503D
libRbt.so/2013.1/901 2013/11/27
 12 13  0  0  0  0  0  0  0  0999 V2000
   27.3271   13.6652   17.0398 C   0  0  0  0  0  0  0  0  0  0  0  0
   26.3880   15.6826   16.1058 C   0  0  0  0  0  0  0  0  0  0  0  0
   27.1856   12.5075   17.6749 N   0  0  0  0  0  0  0  0  0  0  0  0
   28.5462   14.0397   16.6388 N   0  0  0  0  0  0  0  0  0  0  0  0
   26.2093   14.4799   16.7802 N   0  0  0  0  0  0  0  0  0  0  0  0
   25.4066   16.3973   15.8846 O   0  0  0  0  0  0  0  0  0  0  0  0
   29.2190   17.5719   14.6479 N   0  0  0  0  0  0  0  0  0  0  0  0
   30.2812   16.7030   14.9430 C   0  0  0  0  0  0  0  0  0  0  0  0
   30.0184   15.4980   15.6211 N   0  0  0  0  0  0  0  0  0  0  0  0
   28.7598   15.1956   15.9976 C   0  0  0  0  0  0  0  0  0  0  0  0
   27.6796   16.0420   15.7124 C   0  0  0  0  0  0  0  0  0  0  0  0
   27.9020   17.2367   15.0438 C   0  0  0  0  0  0  0  0  0  0  0  0
  1  3  1  0  0  0  0
  1  4  2  0  0  0  0
  1  5  1  0  0  0  0
  2  6  2  0  0  0  0
  2 11  1  0  0  0  0
  2  5  1  0  0  0  0
  4 10  1  0  0  0  0
  7  8  2  0  0  0  0
  7 12  1  0  0  0  0
  8  9  1  0  0  0  0
  9 10  2  0  0  0  0
 10 11  1  0  0  0  0
 11 12  2  0  0  0  0
M  END
>  <CHROM.1>
27.86761696,15.40518669,16.02113132,-2.16309441,0.14040185,-0.48993291

>  <Name>
ligand

>  <RI>
0

>  <Rbt.Current_Directory>
/home/itssahil/PROJECTS/Mol_Feturizer/New_Systems/rnas/4LX6

>  <Rbt.Executable>
rbdock ($Id: //depot/dev/client3/rdock/2013.1/src/exe/rbdock.cxx#4 $)

>  <Rbt.Library>
libRbt.so (2013.1, Build901 2013/11/27)

>  <Rbt.Parameter_File>
/export/apps/rDock/src/rDock_2013.1_src/data/scripts/dock_solv.prm

>  <Rbt.Receptor>
prm/blind_docking_80.prm

>  <SCORE>
-9.4484

>  <SCORE.INTER>
-9.4484

>  <SCORE.INTER.CONST>
1

>  <SCORE.INTER.POLAR>
0

>  <SCORE.INTER.ROT>
0

>  <SCORE.INTER.SOLV>
7.96641

>  <SCORE.INTER.VDW>
-12.5544

>  <SCORE.INTER.norm>
-0.787367

>  <SCORE.INTRA>
0

>  <SCORE.INTRA.DIHEDRAL>
0

>  <SCORE.INTRA.DIHEDRAL.0>
0

>  <SCORE.INTRA.POLAR>
0

>  <SCORE.INTRA.POLAR.0>
0

>  <SCORE.INTRA.REPUL>
0

>  <SCORE.INTRA.REPUL.0>
0

>  <SCORE.INTRA.SOLV>
0

>  <SCORE.INTRA.SOLV.lig_0>
-28.9128

>  <SCORE.INTRA.VDW>
0

>  <SCORE.INTRA.VDW.0>
0

>  <SCORE.INTRA.norm>
0

>  <SCORE.RESTR>
0

>  <SCORE.RESTR.CAVITY>
0

>  <SCORE.RESTR.norm>
0

>  <SCORE.SYSTEM>
0

>  <SCORE.SYSTEM.CONST>
0

>  <SCORE.SYSTEM.DIHEDRAL>
0

>  <SCORE.SYSTEM.SOLV>
0

>  <SCORE.SYSTEM.norm>
0

>  <SCORE.heavy>
12

>  <SCORE.norm>
-0.787367

>  <RMSD>
5.324

$$$$
ligand
 OpenBabel11021811503D
libRbt.so/2013.1/901 2013/11/27
 12 13  0  0  0  0  0  0  0  0999 V2000
   27.3180   13.6368   17.0334 C   0  0  0  0  0  0  0  0  0  0  0  0
   26.3577   15.6445   16.1003 C   0  0  0  0  0  0  0  0  0  0  0  0
   27.1883   12.4752   17.6638 N   0  0  0  0  0  0  0  0  0  0  0  0
   28.5344   14.0288   16.6410 N   0  0  0  0  0  0  0  0  0  0  0  0
   26.1911   14.4374   16.7697 N   0  0  0  0  0  0  0  0  0  0  0  0
   25.3681   16.3468   15.8755 O   0  0  0  0  0  0  0  0  0  0  0  0
   29.1718   17.5764   14.6657 N   0  0  0  0  0  0  0  0  0  0  0  0
   30.2437   16.7208   14.9643 C   0  0  0  0  0  0  0  0  0  0  0  0
   29.9930   15.5101   15.6369 N   0  0  0  0  0  0  0  0  0  0  0  0
   28.7363   15.1897   16.0048 C   0  0  0  0  0  0  0  0  0  0  0  0
   27.6466   16.0225   15.7159 C   0  0  0  0  0  0  0  0  0  0  0  0
   27.8570   17.2223   15.0525 C   0  0  0  0  0  0  0  0  0  0  0  0
  1  3  1  0  0  0  0
  1  4  2  0  0  0  0
  1  5  1  0  0  0  0
  2  6  2  0  0  0  0
  2 11  1  0  0  0  0
  2  5  1  0  0  0  0
  4 10  1  0  0  0  0
  7  8  2  0  0  0  0
  7 12  1  0  0  0  0
  8  9  1  0  0  0  0
  9 10  2  0  0  0  0
 10 11  1  0  0  0  0
 11 12  2  0  0  0  0
M  END
>  <CHROM.1>
27.84131294,15.38723317,16.02363410,-2.15402403,0.12882793,-0.48785395

>  <Name>
ligand

>  <RI>
0

>  <Rbt.Current_Directory>
/home/itssahil/PROJECTS/Mol_Feturizer/New_Systems/rnas/4LX6

>  <Rbt.Executable>
rbdock ($Id: //depot/dev/client3/rdock/2013.1/src/exe/rbdock.cxx#4 $)

>  <Rbt.Library>
libRbt.so (2013.1, Build901 2013/11/27)

>  <Rbt.Parameter_File>
/export/apps/rDock/src/rDock_2013.1_src/data/scripts/dock_solv.prm

>  <Rbt.Receptor>
prm/blind_docking_80.prm

>  <SCORE>
-9.51404

>  <SCORE.INTER>
-9.51404

>  <SCORE.INTER.CONST>
1

>  <SCORE.INTER.POLAR>
0

>  <SCORE.INTER.ROT>
0

>  <SCORE.INTER.SOLV>
7.83041

>  <SCORE.INTER.VDW>
-12.5528

>  <SCORE.INTER.norm>
-0.792837

>  <SCORE.INTRA>
0

>  <SCORE.INTRA.DIHEDRAL>
0

>  <SCORE.INTRA.DIHEDRAL.0>
0

>  <SCORE.INTRA.POLAR>
0

>  <SCORE.INTRA.POLAR.0>
0

>  <SCORE.INTRA.REPUL>
0

>  <SCORE.INTRA.REPUL.0>
0

>  <SCORE.INTRA.SOLV>
0

>  <SCORE.INTRA.SOLV.lig_0>
-28.9128

>  <SCORE.INTRA.VDW>
0

>  <SCORE.INTRA.VDW.0>
0

>  <SCORE.INTRA.norm>
0

>  <SCORE.RESTR>
0

>  <SCORE.RESTR.CAVITY>
0

>  <SCORE.RESTR.norm>
0

>  <SCORE.SYSTEM>
0

>  <SCORE.SYSTEM.CONST>
0

>  <SCORE.SYSTEM.DIHEDRAL>
0

>  <SCORE.SYSTEM.SOLV>
0

>  <SCORE.SYSTEM.norm>
0

>  <SCORE.heavy>
12

>  <SCORE.norm>
-0.792837

>  <RMSD>
5.339

$$$$
ligand
 OpenBabel11021811503D
libRbt.so/2013.1/901 2013/11/27
 12 13  0  0  0  0  0  0  0  0999 V2000
   27.4049   13.7089   17.1847 C   0  0  0  0  0  0  0  0  0  0  0  0
   26.3921   15.6858   16.2411 C   0  0  0  0  0  0  0  0  0  0  0  0
   27.3127   12.5723   17.8653 N   0  0  0  0  0  0  0  0  0  0  0  0
   28.5944   14.0795   16.7000 N   0  0  0  0  0  0  0  0  0  0  0  0
   26.2656   14.5053   16.9646 N   0  0  0  0  0  0  0  0  0  0  0  0
   25.3922   16.3846   16.0545 O   0  0  0  0  0  0  0  0  0  0  0  0
   29.1132   17.5475   14.5560 N   0  0  0  0  0  0  0  0  0  0  0  0
   30.1996   16.6978   14.8166 C   0  0  0  0  0  0  0  0  0  0  0  0
   29.9893   15.5143   15.5489 N   0  0  0  0  0  0  0  0  0  0  0  0
   28.7582   15.2147   16.0091 C   0  0  0  0  0  0  0  0  0  0  0  0
   27.6546   16.0421   15.7602 C   0  0  0  0  0  0  0  0  0  0  0  0
   27.8251   17.2153   15.0400 C   0  0  0  0  0  0  0  0  0  0  0  0
  1  3  1  0  0  0  0
  1  4  2  0  0  0  0
  1  5  1  0  0  0  0
  2  6  2  0  0  0  0
  2 11  1  0  0  0  0
  2  5  1  0  0  0  0
  4 10  1  0  0  0  0
  7  8  2  0  0  0  0
  7 12  1  0  0  0  0
  8  9  1  0  0  0  0
  9 10  2  0  0  0  0
 10 11  1  0  0  0  0
 11 12  2  0  0  0  0
M  END
>  <CHROM.1>
27.86687333,15.41769362,16.07829974,-2.12581976,0.18747954,-0.52970608

>  <Name>
ligand

>  <RI>
0

>  <Rbt.Current_Directory>
/home/itssahil/PROJECTS/Mol_Feturizer/New_Systems/rnas/4LX6

>  <Rbt.Executable>
rbdock ($Id: //depot/dev/client3/rdock/2013.1/src/exe/rbdock.cxx#4 $)

>  <Rbt.Library>
libRbt.so (2013.1, Build901 2013/11/27)

>  <Rbt.Parameter_File>
/export/apps/rDock/src/rDock_2013.1_src/data/scripts/dock_solv.prm

>  <Rbt.Receptor>
prm/blind_docking_100.prm

>  <SCORE>
-9.46603

>  <SCORE.INTER>
-9.46603

>  <SCORE.INTER.CONST>
1

>  <SCORE.INTER.POLAR>
0

>  <SCORE.INTER.ROT>
0

>  <SCORE.INTER.SOLV>
8.90729

>  <SCORE.INTER.VDW>
-12.8798

>  <SCORE.INTER.norm>
-0.788836

>  <SCORE.INTRA>
0

>  <SCORE.INTRA.DIHEDRAL>
0

>  <SCORE.INTRA.DIHEDRAL.0>
0

>  <SCORE.INTRA.POLAR>
0

>  <SCORE.INTRA.POLAR.0>
0

>  <SCORE.INTRA.REPUL>
0

>  <SCORE.INTRA.REPUL.0>
0

>  <SCORE.INTRA.SOLV>
0

>  <SCORE.INTRA.SOLV.lig_0>
-28.9128

>  <SCORE.INTRA.VDW>
0

>  <SCORE.INTRA.VDW.0>
0

>  <SCORE.INTRA.norm>
0

>  <SCORE.RESTR>
0

>  <SCORE.RESTR.CAVITY>
0

>  <SCORE.RESTR.norm>
0

>  <SCORE.SYSTEM>
0

>  <SCORE.SYSTEM.CONST>
0

>  <SCORE.SYSTEM.DIHEDRAL>
0

>  <SCORE.SYSTEM.SOLV>
0

>  <SCORE.SYSTEM.norm>
0

>  <SCORE.heavy>
12

>  <SCORE.norm>
-0.788836

>  <RMSD>
5.347

$$$$
ligand
 OpenBabel11021811503D
libRbt.so/2013.1/901 2013/11/27
 12 13  0  0  0  0  0  0  0  0999 V2000
   27.3935   13.6920   17.1611 C   0  0  0  0  0  0  0  0  0  0  0  0
   26.3867   15.6787   16.2318 C   0  0  0  0  0  0  0  0  0  0  0  0
   27.2973   12.5492   17.8306 N   0  0  0  0  0  0  0  0  0  0  0  0
   28.5855   14.0659   16.6850 N   0  0  0  0  0  0  0  0  0  0  0  0
   26.2559   14.4916   16.9437 N   0  0  0  0  0  0  0  0  0  0  0  0
   25.3882   16.3802   16.0476 O   0  0  0  0  0  0  0  0  0  0  0  0
   29.1167   17.5534   14.5758 N   0  0  0  0  0  0  0  0  0  0  0  0
   30.2012   16.7002   14.8330 C   0  0  0  0  0  0  0  0  0  0  0  0
   29.9866   15.5101   15.5533 N   0  0  0  0  0  0  0  0  0  0  0  0
   28.7533   15.2074   16.0054 C   0  0  0  0  0  0  0  0  0  0  0  0
   27.6515   16.0383   15.7596 C   0  0  0  0  0  0  0  0  0  0  0  0
   27.8263   17.2179   15.0512 C   0  0  0  0  0  0  0  0  0  0  0  0
  1  3  1  0  0  0  0
  1  4  2  0  0  0  0
  1  5  1  0  0  0  0
  2  6  2  0  0  0  0
  2 11  1  0  0  0  0
  2  5  1  0  0  0  0
  4 10  1  0  0  0  0
  7  8  2  0  0  0  0
  7 12  1  0  0  0  0
  8  9  1  0  0  0  0
  9 10  2  0  0  0  0
 10 11  1  0  0  0  0
 11 12  2  0  0  0  0
M  END
>  <CHROM.1>
27.86185997,15.41064767,16.07277924,-2.12886118,0.18432604,-0.51975606

>  <Name>
ligand

>  <RI>
0

>  <Rbt.Current_Directory>
/home/itssahil/PROJECTS/Mol_Feturizer/New_Systems/rnas/4LX6

>  <Rbt.Executable>
rbdock ($Id: //depot/dev/client3/rdock/2013.1/src/exe/rbdock.cxx#4 $)

>  <Rbt.Library>
libRbt.so (2013.1, Build901 2013/11/27)

>  <Rbt.Parameter_File>
/export/apps/rDock/src/rDock_2013.1_src/data/scripts/dock_solv.prm

>  <Rbt.Receptor>
prm/blind_docking_100.prm

>  <SCORE>
-9.4666

>  <SCORE.INTER>
-9.4666

>  <SCORE.INTER.CONST>
1

>  <SCORE.INTER.POLAR>
0

>  <SCORE.INTER.ROT>
0

>  <SCORE.INTER.SOLV>
8.6975

>  <SCORE.INTER.VDW>
-12.8102

>  <SCORE.INTER.norm>
-0.788883

>  <SCORE.INTRA>
0

>  <SCORE.INTRA.DIHEDRAL>
0

>  <SCORE.INTRA.DIHEDRAL.0>
0

>  <SCORE.INTRA.POLAR>
0

>  <SCORE.INTRA.POLAR.0>
0

>  <SCORE.INTRA.REPUL>
0

>  <SCORE.INTRA.REPUL.0>
0

>  <SCORE.INTRA.SOLV>
0

>  <SCORE.INTRA.SOLV.lig_0>
-28.9128

>  <SCORE.INTRA.VDW>
0

>  <SCORE.INTRA.VDW.0>
0

>  <SCORE.INTRA.norm>
0

>  <SCORE.RESTR>
0

>  <SCORE.RESTR.CAVITY>
0

>  <SCORE.RESTR.norm>
0

>  <SCORE.SYSTEM>
0

>  <SCORE.SYSTEM.CONST>
0

>  <SCORE.SYSTEM.DIHEDRAL>
0

>  <SCORE.SYSTEM.SOLV>
0

>  <SCORE.SYSTEM.norm>
0

>  <SCORE.heavy>
12

>  <SCORE.norm>
-0.788883

>  <RMSD>
5.348

$$$$
ligand
 OpenBabel11021811503D
libRbt.so/2013.1/901 2013/11/27
 12 13  0  0  0  0  0  0  0  0999 V2000
   27.7247   14.3020   16.7955 C   0  0  0  0  0  0  0  0  0  0  0  0
   26.0064   15.9110   16.2642 C   0  0  0  0  0  0  0  0  0  0  0  0
   28.1435   13.2310   17.4597 N   0  0  0  0  0  0  0  0  0  0  0  0
   28.5584   14.9001   15.9385 N   0  0  0  0  0  0  0  0  0  0  0  0
   26.4187   14.7928   16.9801 N   0  0  0  0  0  0  0  0  0  0  0  0
   24.8623   16.3421   16.4324 O   0  0  0  0  0  0  0  0  0  0  0  0
   27.4750   18.2180   13.7681 N   0  0  0  0  0  0  0  0  0  0  0  0
   28.7593   17.6664   13.6391 C   0  0  0  0  0  0  0  0  0  0  0  0
   29.0989   16.5265   14.3917 N   0  0  0  0  0  0  0  0  0  0  0  0
   28.2019   15.9856   15.2403 C   0  0  0  0  0  0  0  0  0  0  0  0
   26.9113   16.5126   15.3859 C   0  0  0  0  0  0  0  0  0  0  0  0
   26.5419   17.6342   14.6581 C   0  0  0  0  0  0  0  0  0  0  0  0
  1  3  1  0  0  0  0
  1  4  2  0  0  0  0
  1  5  1  0  0  0  0
  2  6  2  0  0  0  0
  2 11  1  0  0  0  0
  2  5  1  0  0  0  0
  4 10  1  0  0  0  0
  7  8  2  0  0  0  0
  7 12  1  0  0  0  0
  8  9  1  0  0  0  0
  9 10  2  0  0  0  0
 10 11  1  0  0  0  0
 11 12  2  0  0  0  0
M  END
>  <CHROM.1>
27.36255888,15.98088173,15.60908297,-1.71410734,0.33489564,-0.67468621

>  <Name>
ligand

>  <RI>
0

>  <Rbt.Current_Directory>
/home/itssahil/PROJECTS/Mol_Feturizer/New_Systems/rnas/4LX6

>  <Rbt.Executable>
rbdock ($Id: //depot/dev/client3/rdock/2013.1/src/exe/rbdock.cxx#4 $)

>  <Rbt.Library>
libRbt.so (2013.1, Build901 2013/11/27)

>  <Rbt.Parameter_File>
/export/apps/rDock/src/rDock_2013.1_src/data/scripts/dock_solv.prm

>  <Rbt.Receptor>
prm/blind_docking_40.prm

>  <SCORE>
-7.0691

>  <SCORE.INTER>
-7.55293

>  <SCORE.INTER.CONST>
1

>  <SCORE.INTER.POLAR>
0

>  <SCORE.INTER.ROT>
0

>  <SCORE.INTER.SOLV>
11.4398

>  <SCORE.INTER.VDW>
-12.4485

>  <SCORE.INTER.norm>
-0.629411

>  <SCORE.INTRA>
0

>  <SCORE.INTRA.DIHEDRAL>
0

>  <SCORE.INTRA.DIHEDRAL.0>
0

>  <SCORE.INTRA.POLAR>
0

>  <SCORE.INTRA.POLAR.0>
0

>  <SCORE.INTRA.REPUL>
0

>  <SCORE.INTRA.REPUL.0>
0

>  <SCORE.INTRA.SOLV>
0

>  <SCORE.INTRA.SOLV.lig_0>
-28.9128

>  <SCORE.INTRA.VDW>
0

>  <SCORE.INTRA.VDW.0>
0

>  <SCORE.INTRA.norm>
0

>  <SCORE.RESTR>
0.483825

>  <SCORE.RESTR.CAVITY>
0.483825

>  <SCORE.RESTR.norm>
0.0403188

>  <SCORE.SYSTEM>
0

>  <SCORE.SYSTEM.CONST>
0

>  <SCORE.SYSTEM.DIHEDRAL>
0

>  <SCORE.SYSTEM.SOLV>
0

>  <SCORE.SYSTEM.norm>
0

>  <SCORE.heavy>
12

>  <SCORE.norm>
-0.589092

>  <RMSD>
5.349

$$$$
ligand
 OpenBabel11021811503D
libRbt.so/2013.1/901 2013/11/27
 12 13  0  0  0  0  0  0  0  0999 V2000
   27.3859   13.6446   17.1630 C   0  0  0  0  0  0  0  0  0  0  0  0
   26.3632   15.6074   16.2009 C   0  0  0  0  0  0  0  0  0  0  0  0
   27.2959   12.5027   17.8349 N   0  0  0  0  0  0  0  0  0  0  0  0
   28.5816   14.0401   16.7143 N   0  0  0  0  0  0  0  0  0  0  0  0
   26.2385   14.4207   16.9145 N   0  0  0  0  0  0  0  0  0  0  0  0
   25.3560   16.2884   15.9894 O   0  0  0  0  0  0  0  0  0  0  0  0
   29.0954   17.5291   14.6035 N   0  0  0  0  0  0  0  0  0  0  0  0
   30.1899   16.6985   14.8906 C   0  0  0  0  0  0  0  0  0  0  0  0
   29.9812   15.5072   15.6106 N   0  0  0  0  0  0  0  0  0  0  0  0
   28.7434   15.1820   16.0340 C   0  0  0  0  0  0  0  0  0  0  0  0
   27.6319   15.9900   15.7580 C   0  0  0  0  0  0  0  0  0  0  0  0
   27.8007   17.1701   15.0489 C   0  0  0  0  0  0  0  0  0  0  0  0
  1  3  1  0  0  0  0
  1  4  2  0  0  0  0
  1  5  1  0  0  0  0
  2  6  2  0  0  0  0
  2 11  1  0  0  0  0
  2  5  1  0  0  0  0
  4 10  1  0  0  0  0
  7  8  2  0  0  0  0
  7 12  1  0  0  0  0
  8  9  1  0  0  0  0
  9 10  2  0  0  0  0
 10 11  1  0  0  0  0
 11 12  2  0  0  0  0
M  END
>  <CHROM.1>
27.84681777,15.36788907,16.07883630,-2.12385602,0.15342484,-0.52472107

>  <Name>
ligand

>  <RI>
0

>  <Rbt.Current_Directory>
/home/itssahil/PROJECTS/Mol_Feturizer/New_Systems/rnas/4LX6

>  <Rbt.Executable>
rbdock ($Id: //depot/dev/client3/rdock/2013.1/src/exe/rbdock.cxx#4 $)

>  <Rbt.Library>
libRbt.so (2013.1, Build901 2013/11/27)

>  <Rbt.Parameter_File>
/export/apps/rDock/src/rDock_2013.1_src/data/scripts/dock_solv.prm

>  <Rbt.Receptor>
prm/blind_docking_100.prm

>  <SCORE>
-9.46926

>  <SCORE.INTER>
-9.46926

>  <SCORE.INTER.CONST>
1

>  <SCORE.INTER.POLAR>
0

>  <SCORE.INTER.ROT>
0

>  <SCORE.INTER.SOLV>
8.51899

>  <SCORE.INTER.VDW>
-12.7525

>  <SCORE.INTER.norm>
-0.789105

>  <SCORE.INTRA>
0

>  <SCORE.INTRA.DIHEDRAL>
0

>  <SCORE.INTRA.DIHEDRAL.0>
0

>  <SCORE.INTRA.POLAR>
0

>  <SCORE.INTRA.POLAR.0>
0

>  <SCORE.INTRA.REPUL>
0

>  <SCORE.INTRA.REPUL.0>
0

>  <SCORE.INTRA.SOLV>
0

>  <SCORE.INTRA.SOLV.lig_0>
-28.9128

>  <SCORE.INTRA.VDW>
0

>  <SCORE.INTRA.VDW.0>
0

>  <SCORE.INTRA.norm>
0

>  <SCORE.RESTR>
0

>  <SCORE.RESTR.CAVITY>
0

>  <SCORE.RESTR.norm>
0

>  <SCORE.SYSTEM>
0

>  <SCORE.SYSTEM.CONST>
0

>  <SCORE.SYSTEM.DIHEDRAL>
0

>  <SCORE.SYSTEM.SOLV>
0

>  <SCORE.SYSTEM.norm>
0

>  <SCORE.heavy>
12

>  <SCORE.norm>
-0.789105

>  <RMSD>
5.366

$$$$
ligand
 OpenBabel11021811503D
libRbt.so/2013.1/901 2013/11/27
 12 13  0  0  0  0  0  0  0  0999 V2000
   27.3542   13.6274   17.1770 C   0  0  0  0  0  0  0  0  0  0  0  0
   26.3339   15.6113   16.2565 C   0  0  0  0  0  0  0  0  0  0  0  0
   27.2655   12.4802   17.8399 N   0  0  0  0  0  0  0  0  0  0  0  0
   28.5442   14.0132   16.7055 N   0  0  0  0  0  0  0  0  0  0  0  0
   26.2109   14.4193   16.9615 N   0  0  0  0  0  0  0  0  0  0  0  0
   25.3305   16.3061   16.0740 O   0  0  0  0  0  0  0  0  0  0  0  0
   29.0528   17.5163   14.6169 N   0  0  0  0  0  0  0  0  0  0  0  0
   30.1434   16.6701   14.8717 C   0  0  0  0  0  0  0  0  0  0  0  0
   29.9365   15.4745   15.5849 N   0  0  0  0  0  0  0  0  0  0  0  0
   28.7046   15.1597   16.0326 C   0  0  0  0  0  0  0  0  0  0  0  0
   27.5970   15.9833   15.7891 C   0  0  0  0  0  0  0  0  0  0  0  0
   27.7641   17.1683   15.0876 C   0  0  0  0  0  0  0  0  0  0  0  0
  1  3  1  0  0  0  0
  1  4  2  0  0  0  0
  1  5  1  0  0  0  0
  2  6  2  0  0  0  0
  2 11  1  0  0  0  0
  2  5  1  0  0  0  0
  4 10  1  0  0  0  0
  7  8  2  0  0  0  0
  7 12  1  0  0  0  0
  8  9  1  0  0  0  0
  9 10  2  0  0  0  0
 10 11  1  0  0  0  0
 11 12  2  0  0  0  0
M  END
>  <CHROM.1>
27.81150179,15.35565275,16.09920731,-2.12308261,0.17861545,-0.51524845

>  <Name>
ligand

>  <RI>
0

>  <Rbt.Current_Directory>
/home/itssahil/PROJECTS/Mol_Feturizer/New_Systems/rnas/4LX6

>  <Rbt.Executable>
rbdock ($Id: //depot/dev/client3/rdock/2013.1/src/exe/rbdock.cxx#4 $)

>  <Rbt.Library>
libRbt.so (2013.1, Build901 2013/11/27)

>  <Rbt.Parameter_File>
/export/apps/rDock/src/rDock_2013.1_src/data/scripts/dock_solv.prm

>  <Rbt.Receptor>
prm/blind_docking_80.prm

>  <SCORE>
-9.47983

>  <SCORE.INTER>
-9.47983

>  <SCORE.INTER.CONST>
1

>  <SCORE.INTER.POLAR>
0

>  <SCORE.INTER.ROT>
0

>  <SCORE.INTER.SOLV>
8.49727

>  <SCORE.INTER.VDW>
-12.7523

>  <SCORE.INTER.norm>
-0.789986

>  <SCORE.INTRA>
0

>  <SCORE.INTRA.DIHEDRAL>
0

>  <SCORE.INTRA.DIHEDRAL.0>
0

>  <SCORE.INTRA.POLAR>
0

>  <SCORE.INTRA.POLAR.0>
0

>  <SCORE.INTRA.REPUL>
0

>  <SCORE.INTRA.REPUL.0>
0

>  <SCORE.INTRA.SOLV>
0

>  <SCORE.INTRA.SOLV.lig_0>
-28.9128

>  <SCORE.INTRA.VDW>
0

>  <SCORE.INTRA.VDW.0>
0

>  <SCORE.INTRA.norm>
0

>  <SCORE.RESTR>
0

>  <SCORE.RESTR.CAVITY>
0

>  <SCORE.RESTR.norm>
0

>  <SCORE.SYSTEM>
0

>  <SCORE.SYSTEM.CONST>
0

>  <SCORE.SYSTEM.DIHEDRAL>
0

>  <SCORE.SYSTEM.SOLV>
0

>  <SCORE.SYSTEM.norm>
0

>  <SCORE.heavy>
12

>  <SCORE.norm>
-0.789986

>  <RMSD>
5.399

$$$$
ligand
 OpenBabel11021811503D
libRbt.so/2013.1/901 2013/11/27
 12 13  0  0  0  0  0  0  0  0999 V2000
   26.9880   14.7371   16.4908 C   0  0  0  0  0  0  0  0  0  0  0  0
   25.1699   16.3009   16.7615 C   0  0  0  0  0  0  0  0  0  0  0  0
   27.5949   13.5998   16.8095 N   0  0  0  0  0  0  0  0  0  0  0  0
   27.5287   15.5190   15.5508 N   0  0  0  0  0  0  0  0  0  0  0  0
   25.7864   15.1082   17.1225 N   0  0  0  0  0  0  0  0  0  0  0  0
   24.1192   16.6261   17.3213 O   0  0  0  0  0  0  0  0  0  0  0  0
   25.8201   19.0744   14.3961 N   0  0  0  0  0  0  0  0  0  0  0  0
   27.0178   18.6329   13.8123 C   0  0  0  0  0  0  0  0  0  0  0  0
   27.5756   17.4082   14.2248 N   0  0  0  0  0  0  0  0  0  0  0  0
   26.9712   16.6801   15.1848 C   0  0  0  0  0  0  0  0  0  0  0  0
   25.7725   17.0942   15.7818 C   0  0  0  0  0  0  0  0  0  0  0  0
   25.1938   18.2949   15.3980 C   0  0  0  0  0  0  0  0  0  0  0  0
  1  3  1  0  0  0  0
  1  4  2  0  0  0  0
  1  5  1  0  0  0  0
  2  6  2  0  0  0  0
  2 11  1  0  0  0  0
  2  5  1  0  0  0  0
  4 10  1  0  0  0  0
  7  8  2  0  0  0  0
  7 12  1  0  0  0  0
  8  9  1  0  0  0  0
  9 10  2  0  0  0  0
 10 11  1  0  0  0  0
 11 12  2  0  0  0  0
M  END
>  <CHROM.1>
26.27569276,16.56230516,15.77040119,-1.48786548,0.54914378,-0.59768781

>  <Name>
ligand

>  <RI>
0

>  <Rbt.Current_Directory>
/home/itssahil/PROJECTS/Mol_Feturizer/New_Systems/rnas/4LX6

>  <Rbt.Executable>
rbdock ($Id: //depot/dev/client3/rdock/2013.1/src/exe/rbdock.cxx#4 $)

>  <Rbt.Library>
libRbt.so (2013.1, Build901 2013/11/27)

>  <Rbt.Parameter_File>
/export/apps/rDock/src/rDock_2013.1_src/data/scripts/dock_solv.prm

>  <Rbt.Receptor>
prm/blind_docking_100.prm

>  <SCORE>
-3.37502

>  <SCORE.INTER>
-3.37503

>  <SCORE.INTER.CONST>
1

>  <SCORE.INTER.POLAR>
0

>  <SCORE.INTER.ROT>
0

>  <SCORE.INTER.SOLV>
9.42788

>  <SCORE.INTER.VDW>
-8.99265

>  <SCORE.INTER.norm>
-0.281252

>  <SCORE.INTRA>
0

>  <SCORE.INTRA.DIHEDRAL>
0

>  <SCORE.INTRA.DIHEDRAL.0>
0

>  <SCORE.INTRA.POLAR>
0

>  <SCORE.INTRA.POLAR.0>
0

>  <SCORE.INTRA.REPUL>
0

>  <SCORE.INTRA.REPUL.0>
0

>  <SCORE.INTRA.SOLV>
0

>  <SCORE.INTRA.SOLV.lig_0>
-28.9128

>  <SCORE.INTRA.VDW>
0

>  <SCORE.INTRA.VDW.0>
0

>  <SCORE.INTRA.norm>
0

>  <SCORE.RESTR>
3.61924e-06

>  <SCORE.RESTR.CAVITY>
3.61924e-06

>  <SCORE.RESTR.norm>
3.01603e-07

>  <SCORE.SYSTEM>
0

>  <SCORE.SYSTEM.CONST>
0

>  <SCORE.SYSTEM.DIHEDRAL>
0

>  <SCORE.SYSTEM.SOLV>
0

>  <SCORE.SYSTEM.norm>
0

>  <SCORE.heavy>
12

>  <SCORE.norm>
-0.281252

>  <RMSD>
5.825

$$$$
ligand
 OpenBabel11021811503D
libRbt.so/2013.1/901 2013/11/27
 12 13  0  0  0  0  0  0  0  0999 V2000
   27.9833   13.5785   17.1928 C   0  0  0  0  0  0  0  0  0  0  0  0
   28.3883   15.3514   15.6064 C   0  0  0  0  0  0  0  0  0  0  0  0
   28.3769   12.4821   17.8303 N   0  0  0  0  0  0  0  0  0  0  0  0
   26.7798   14.0914   17.4681 N   0  0  0  0  0  0  0  0  0  0  0  0
   28.8250   14.1998   16.2515 N   0  0  0  0  0  0  0  0  0  0  0  0
   29.1266   15.8906   14.7774 O   0  0  0  0  0  0  0  0  0  0  0  0
   25.3595   17.4810   15.6277 N   0  0  0  0  0  0  0  0  0  0  0  0
   24.5814   16.8040   16.5798 C   0  0  0  0  0  0  0  0  0  0  0  0
   25.0975   15.6490   17.1970 N   0  0  0  0  0  0  0  0  0  0  0  0
   26.3197   15.1916   16.8591 C   0  0  0  0  0  0  0  0  0  0  0  0
   27.1201   15.8497   15.9153 C   0  0  0  0  0  0  0  0  0  0  0  0
   26.6439   16.9920   15.2890 C   0  0  0  0  0  0  0  0  0  0  0  0
  1  3  1  0  0  0  0
  1  4  2  0  0  0  0
  1  5  1  0  0  0  0
  2  6  2  0  0  0  0
  2 11  1  0  0  0  0
  2  5  1  0  0  0  0
  4 10  1  0  0  0  0
  7  8  2  0  0  0  0
  7 12  1  0  0  0  0
  8  9  1  0  0  0  0
  9 10  2  0  0  0  0
 10 11  1  0  0  0  0
 11 12  2  0  0  0  0
M  END
>  <CHROM.1>
27.09231061,15.27916856,16.37342346,0.75793633,-0.41202632,2.48267218

>  <Name>
ligand

>  <RI>
0

>  <Rbt.Current_Directory>
/home/itssahil/PROJECTS/Mol_Feturizer/New_Systems/rnas/4LX6

>  <Rbt.Executable>
rbdock ($Id: //depot/dev/client3/rdock/2013.1/src/exe/rbdock.cxx#4 $)

>  <Rbt.Library>
libRbt.so (2013.1, Build901 2013/11/27)

>  <Rbt.Parameter_File>
/export/apps/rDock/src/rDock_2013.1_src/data/scripts/dock_solv.prm

>  <Rbt.Receptor>
prm/blind_docking_80.prm

>  <SCORE>
-8.84165

>  <SCORE.INTER>
-8.84165

>  <SCORE.INTER.CONST>
1

>  <SCORE.INTER.POLAR>
0

>  <SCORE.INTER.ROT>
0

>  <SCORE.INTER.SOLV>
10.3689

>  <SCORE.INTER.VDW>
-12.9507

>  <SCORE.INTER.norm>
-0.736804

>  <SCORE.INTRA>
0

>  <SCORE.INTRA.DIHEDRAL>
0

>  <SCORE.INTRA.DIHEDRAL.0>
0

>  <SCORE.INTRA.POLAR>
0

>  <SCORE.INTRA.POLAR.0>
0

>  <SCORE.INTRA.REPUL>
0

>  <SCORE.INTRA.REPUL.0>
0

>  <SCORE.INTRA.SOLV>
0

>  <SCORE.INTRA.SOLV.lig_0>
-28.9128

>  <SCORE.INTRA.VDW>
0

>  <SCORE.INTRA.VDW.0>
0

>  <SCORE.INTRA.norm>
0

>  <SCORE.RESTR>
0

>  <SCORE.RESTR.CAVITY>
0

>  <SCORE.RESTR.norm>
0

>  <SCORE.SYSTEM>
0

>  <SCORE.SYSTEM.CONST>
0

>  <SCORE.SYSTEM.DIHEDRAL>
0

>  <SCORE.SYSTEM.SOLV>
0

>  <SCORE.SYSTEM.norm>
0

>  <SCORE.heavy>
12

>  <SCORE.norm>
-0.736804

>  <RMSD>
5.892

$$$$
ligand
 OpenBabel11021811503D
libRbt.so/2013.1/901 2013/11/27
 12 13  0  0  0  0  0  0  0  0999 V2000
   23.3640   28.1003    9.8815 C   0  0  0  0  0  0  0  0  0  0  0  0
   24.1174   26.3866   11.4045 C   0  0  0  0  0  0  0  0  0  0  0  0
   23.6137   29.1298    9.0807 N   0  0  0  0  0  0  0  0  0  0  0  0
   22.1059   27.6652   10.0044 N   0  0  0  0  0  0  0  0  0  0  0  0
   24.4090   27.4675   10.5801 N   0  0  0  0  0  0  0  0  0  0  0  0
   25.0353   25.8374   12.0200 O   0  0  0  0  0  0  0  0  0  0  0  0
   21.1014   24.4909   12.4145 N   0  0  0  0  0  0  0  0  0  0  0  0
   20.1171   25.1740   11.6832 C   0  0  0  0  0  0  0  0  0  0  0  0
   20.4929   26.2537   10.8622 N   0  0  0  0  0  0  0  0  0  0  0  0
   21.7842   26.6354   10.7975 C   0  0  0  0  0  0  0  0  0  0  0  0
   22.7884   25.9691   11.5131 C   0  0  0  0  0  0  0  0  0  0  0  0
   22.4541   24.8994   12.3304 C   0  0  0  0  0  0  0  0  0  0  0  0
  1  3  1  0  0  0  0
  1  4  2  0  0  0  0
  1  5  1  0  0  0  0
  2  6  2  0  0  0  0
  2 11  1  0  0  0  0
  2  5  1  0  0  0  0
  4 10  1  0  0  0  0
  7  8  2  0  0  0  0
  7 12  1  0  0  0  0
  8  9  1  0  0  0  0
  9 10  2  0  0  0  0
 10 11  1  0  0  0  0
 11 12  2  0  0  0  0
M  END
>  <CHROM.1>
22.65923848,26.51563455,11.04321070,0.89528050,-0.13784345,-0.68423826

>  <Name>
ligand

>  <RI>
0

>  <Rbt.Current_Directory>
/home/itssahil/PROJECTS/Mol_Feturizer/New_Systems/rnas/4LX6

>  <Rbt.Executable>
rbdock ($Id: //depot/dev/client3/rdock/2013.1/src/exe/rbdock.cxx#4 $)

>  <Rbt.Library>
libRbt.so (2013.1, Build901 2013/11/27)

>  <Rbt.Parameter_File>
/export/apps/rDock/src/rDock_2013.1_src/data/scripts/dock_solv.prm

>  <Rbt.Receptor>
prm/blind_docking_60.prm

>  <SCORE>
-8.52773

>  <SCORE.INTER>
-8.52773

>  <SCORE.INTER.CONST>
1

>  <SCORE.INTER.POLAR>
0

>  <SCORE.INTER.ROT>
0

>  <SCORE.INTER.SOLV>
3.00391

>  <SCORE.INTER.VDW>
-10.2865

>  <SCORE.INTER.norm>
-0.710644

>  <SCORE.INTRA>
0

>  <SCORE.INTRA.DIHEDRAL>
0

>  <SCORE.INTRA.DIHEDRAL.0>
0

>  <SCORE.INTRA.POLAR>
0

>  <SCORE.INTRA.POLAR.0>
0

>  <SCORE.INTRA.REPUL>
0

>  <SCORE.INTRA.REPUL.0>
0

>  <SCORE.INTRA.SOLV>
0

>  <SCORE.INTRA.SOLV.lig_0>
-28.9128

>  <SCORE.INTRA.VDW>
0

>  <SCORE.INTRA.VDW.0>
0

>  <SCORE.INTRA.norm>
0

>  <SCORE.RESTR>
0

>  <SCORE.RESTR.CAVITY>
0

>  <SCORE.RESTR.norm>
0

>  <SCORE.SYSTEM>
0

>  <SCORE.SYSTEM.CONST>
0

>  <SCORE.SYSTEM.DIHEDRAL>
0

>  <SCORE.SYSTEM.SOLV>
0

>  <SCORE.SYSTEM.norm>
0

>  <SCORE.heavy>
12

>  <SCORE.norm>
-0.710644

>  <RMSD>
12.963

$$$$
ligand
 OpenBabel11021811503D
libRbt.so/2013.1/901 2013/11/27
 12 13  0  0  0  0  0  0  0  0999 V2000
   23.2789   28.0788   10.0813 C   0  0  0  0  0  0  0  0  0  0  0  0
   23.9737   26.3335   11.5962 C   0  0  0  0  0  0  0  0  0  0  0  0
   23.5547   29.1393    9.3311 N   0  0  0  0  0  0  0  0  0  0  0  0
   22.0264   27.6120   10.1082 N   0  0  0  0  0  0  0  0  0  0  0  0
   24.2917   27.4469   10.8266 N   0  0  0  0  0  0  0  0  0  0  0  0
   24.8631   25.7849   12.2529 O   0  0  0  0  0  0  0  0  0  0  0  0
   20.9458   24.3392   12.3475 N   0  0  0  0  0  0  0  0  0  0  0  0
   19.9944   25.0238   11.5751 C   0  0  0  0  0  0  0  0  0  0  0  0
   20.3962   26.1378   10.8144 N   0  0  0  0  0  0  0  0  0  0  0  0
   21.6792   26.5500   10.8461 C   0  0  0  0  0  0  0  0  0  0  0  0
   22.6511   25.8832   11.6046 C   0  0  0  0  0  0  0  0  0  0  0  0
   22.2907   24.7802   12.3647 C   0  0  0  0  0  0  0  0  0  0  0  0
  1  3  1  0  0  0  0
  1  4  2  0  0  0  0
  1  5  1  0  0  0  0
  2  6  2  0  0  0  0
  2 11  1  0  0  0  0
  2  5  1  0  0  0  0
  4 10  1  0  0  0  0
  7  8  2  0  0  0  0
  7 12  1  0  0  0  0
  8  9  1  0  0  0  0
  9 10  2  0  0  0  0
 10 11  1  0  0  0  0
 11 12  2  0  0  0  0
M  END
>  <CHROM.1>
22.53929013,26.44176247,11.14460964,0.87282535,-0.20325217,-0.65609215

>  <Name>
ligand

>  <RI>
0

>  <Rbt.Current_Directory>
/home/itssahil/PROJECTS/Mol_Feturizer/New_Systems/rnas/4LX6

>  <Rbt.Executable>
rbdock ($Id: //depot/dev/client3/rdock/2013.1/src/exe/rbdock.cxx#4 $)

>  <Rbt.Library>
libRbt.so (2013.1, Build901 2013/11/27)

>  <Rbt.Parameter_File>
/export/apps/rDock/src/rDock_2013.1_src/data/scripts/dock_solv.prm

>  <Rbt.Receptor>
prm/blind_docking_40.prm

>  <SCORE>
-8.61484

>  <SCORE.INTER>
-8.61484

>  <SCORE.INTER.CONST>
1

>  <SCORE.INTER.POLAR>
0

>  <SCORE.INTER.ROT>
0

>  <SCORE.INTER.SOLV>
2.65937

>  <SCORE.INTER.VDW>
-10.2297

>  <SCORE.INTER.norm>
-0.717903

>  <SCORE.INTRA>
0

>  <SCORE.INTRA.DIHEDRAL>
0

>  <SCORE.INTRA.DIHEDRAL.0>
0

>  <SCORE.INTRA.POLAR>
0

>  <SCORE.INTRA.POLAR.0>
0

>  <SCORE.INTRA.REPUL>
0

>  <SCORE.INTRA.REPUL.0>
0

>  <SCORE.INTRA.SOLV>
0

>  <SCORE.INTRA.SOLV.lig_0>
-28.9128

>  <SCORE.INTRA.VDW>
0

>  <SCORE.INTRA.VDW.0>
0

>  <SCORE.INTRA.norm>
0

>  <SCORE.RESTR>
0

>  <SCORE.RESTR.CAVITY>
0

>  <SCORE.RESTR.norm>
0

>  <SCORE.SYSTEM>
0

>  <SCORE.SYSTEM.CONST>
0

>  <SCORE.SYSTEM.DIHEDRAL>
0

>  <SCORE.SYSTEM.SOLV>
0

>  <SCORE.SYSTEM.norm>
0

>  <SCORE.heavy>
12

>  <SCORE.norm>
-0.717903

>  <RMSD>
12.971

$$$$
ligand
 OpenBabel11021811503D
libRbt.so/2013.1/901 2013/11/27
 12 13  0  0  0  0  0  0  0  0999 V2000
   23.2767   28.0779   10.0725 C   0  0  0  0  0  0  0  0  0  0  0  0
   23.9741   26.3155   11.5664 C   0  0  0  0  0  0  0  0  0  0  0  0
   23.5520   29.1444    9.3308 N   0  0  0  0  0  0  0  0  0  0  0  0
   22.0227   27.6154   10.1024 N   0  0  0  0  0  0  0  0  0  0  0  0
   24.2915   27.4351   10.8056 N   0  0  0  0  0  0  0  0  0  0  0  0
   24.8652   25.7575   12.2124 O   0  0  0  0  0  0  0  0  0  0  0  0
   20.9433   24.3253   12.3167 N   0  0  0  0  0  0  0  0  0  0  0  0
   19.9899   25.0207   11.5567 C   0  0  0  0  0  0  0  0  0  0  0  0
   20.3912   26.1405   10.8043 N   0  0  0  0  0  0  0  0  0  0  0  0
   21.6760   26.5477   10.8322 C   0  0  0  0  0  0  0  0  0  0  0  0
   22.6499   25.8701   11.5785 C   0  0  0  0  0  0  0  0  0  0  0  0
   22.2899   24.7612   12.3301 C   0  0  0  0  0  0  0  0  0  0  0  0
  1  3  1  0  0  0  0
  1  4  2  0  0  0  0
  1  5  1  0  0  0  0
  2  6  2  0  0  0  0
  2 11  1  0  0  0  0
  2  5  1  0  0  0  0
  4 10  1  0  0  0  0
  7  8  2  0  0  0  0
  7 12  1  0  0  0  0
  8  9  1  0  0  0  0
  9 10  2  0  0  0  0
 10 11  1  0  0  0  0
 11 12  2  0  0  0  0
M  END
>  <CHROM.1>
22.53736685,26.43343376,11.12448990,0.87353079,-0.19625188,-0.64638665

>  <Name>
ligand

>  <RI>
0

>  <Rbt.Current_Directory>
/home/itssahil/PROJECTS/Mol_Feturizer/New_Systems/rnas/4LX6

>  <Rbt.Executable>
rbdock ($Id: //depot/dev/client3/rdock/2013.1/src/exe/rbdock.cxx#4 $)

>  <Rbt.Library>
libRbt.so (2013.1, Build901 2013/11/27)

>  <Rbt.Parameter_File>
/export/apps/rDock/src/rDock_2013.1_src/data/scripts/dock_solv.prm

>  <Rbt.Receptor>
prm/blind_docking_100.prm

>  <SCORE>
-8.5395

>  <SCORE.INTER>
-8.5395

>  <SCORE.INTER.CONST>
1

>  <SCORE.INTER.POLAR>
0

>  <SCORE.INTER.ROT>
0

>  <SCORE.INTER.SOLV>
2.68059

>  <SCORE.INTER.VDW>
-10.1865

>  <SCORE.INTER.norm>
-0.711625

>  <SCORE.INTRA>
0

>  <SCORE.INTRA.DIHEDRAL>
0

>  <SCORE.INTRA.DIHEDRAL.0>
0

>  <SCORE.INTRA.POLAR>
0

>  <SCORE.INTRA.POLAR.0>
0

>  <SCORE.INTRA.REPUL>
0

>  <SCORE.INTRA.REPUL.0>
0

>  <SCORE.INTRA.SOLV>
0

>  <SCORE.INTRA.SOLV.lig_0>
-28.9128

>  <SCORE.INTRA.VDW>
0

>  <SCORE.INTRA.VDW.0>
0

>  <SCORE.INTRA.norm>
0

>  <SCORE.RESTR>
0

>  <SCORE.RESTR.CAVITY>
0

>  <SCORE.RESTR.norm>
0

>  <SCORE.SYSTEM>
0

>  <SCORE.SYSTEM.CONST>
0

>  <SCORE.SYSTEM.DIHEDRAL>
0

>  <SCORE.SYSTEM.SOLV>
0

>  <SCORE.SYSTEM.norm>
0

>  <SCORE.heavy>
12

>  <SCORE.norm>
-0.711625

>  <RMSD>
12.974

$$$$
ligand
 OpenBabel11021811503D
libRbt.so/2013.1/901 2013/11/27
 12 13  0  0  0  0  0  0  0  0999 V2000
   23.2463   28.0719   10.0607 C   0  0  0  0  0  0  0  0  0  0  0  0
   23.9388   26.3469   11.5998 C   0  0  0  0  0  0  0  0  0  0  0  0
   23.5216   29.1277    9.3038 N   0  0  0  0  0  0  0  0  0  0  0  0
   21.9978   27.5942   10.0775 N   0  0  0  0  0  0  0  0  0  0  0  0
   24.2559   27.4559   10.8236 N   0  0  0  0  0  0  0  0  0  0  0  0
   24.8252   25.8123   12.2718 O   0  0  0  0  0  0  0  0  0  0  0  0
   20.9199   24.3329   12.3346 N   0  0  0  0  0  0  0  0  0  0  0  0
   19.9716   25.0017   11.5449 C   0  0  0  0  0  0  0  0  0  0  0  0
   20.3724   26.1122   10.7785 N   0  0  0  0  0  0  0  0  0  0  0  0
   21.6514   26.5361   10.8212 C   0  0  0  0  0  0  0  0  0  0  0  0
   22.6202   25.8849   11.5972 C   0  0  0  0  0  0  0  0  0  0  0  0
   22.2607   24.7859   12.3633 C   0  0  0  0  0  0  0  0  0  0  0  0
  1  3  1  0  0  0  0
  1  4  2  0  0  0  0
  1  5  1  0  0  0  0
  2  6  2  0  0  0  0
  2 11  1  0  0  0  0
  2  5  1  0  0  0  0
  4 10  1  0  0  0  0
  7  8  2  0  0  0  0
  7 12  1  0  0  0  0
  8  9  1  0  0  0  0
  9 10  2  0  0  0  0
 10 11  1  0  0  0  0
 11 12  2  0  0  0  0
M  END
>  <CHROM.1>
22.50882040,26.43823361,11.13065887,0.87265700,-0.21784274,-0.66545158

>  <Name>
ligand

>  <RI>
0

>  <Rbt.Current_Directory>
/home/itssahil/PROJECTS/Mol_Feturizer/New_Systems/rnas/4LX6

>  <Rbt.Executable>
rbdock ($Id: //depot/dev/client3/rdock/2013.1/src/exe/rbdock.cxx#4 $)

>  <Rbt.Library>
libRbt.so (2013.1, Build901 2013/11/27)

>  <Rbt.Parameter_File>
/export/apps/rDock/src/rDock_2013.1_src/data/scripts/dock_solv.prm

>  <Rbt.Receptor>
prm/blind_docking_100.prm

>  <SCORE>
-8.59821

>  <SCORE.INTER>
-8.59821

>  <SCORE.INTER.CONST>
1

>  <SCORE.INTER.POLAR>
0

>  <SCORE.INTER.ROT>
0

>  <SCORE.INTER.SOLV>
2.64205

>  <SCORE.INTER.VDW>
-10.2128

>  <SCORE.INTER.norm>
-0.716518

>  <SCORE.INTRA>
0

>  <SCORE.INTRA.DIHEDRAL>
0

>  <SCORE.INTRA.DIHEDRAL.0>
0

>  <SCORE.INTRA.POLAR>
0

>  <SCORE.INTRA.POLAR.0>
0

>  <SCORE.INTRA.REPUL>
0

>  <SCORE.INTRA.REPUL.0>
0

>  <SCORE.INTRA.SOLV>
0

>  <SCORE.INTRA.SOLV.lig_0>
-28.9128

>  <SCORE.INTRA.VDW>
0

>  <SCORE.INTRA.VDW.0>
0

>  <SCORE.INTRA.norm>
0

>  <SCORE.RESTR>
0

>  <SCORE.RESTR.CAVITY>
0

>  <SCORE.RESTR.norm>
0

>  <SCORE.SYSTEM>
0

>  <SCORE.SYSTEM.CONST>
0

>  <SCORE.SYSTEM.DIHEDRAL>
0

>  <SCORE.SYSTEM.SOLV>
0

>  <SCORE.SYSTEM.norm>
0

>  <SCORE.heavy>
12

>  <SCORE.norm>
-0.716518

>  <RMSD>
12.995

$$$$
ligand
 OpenBabel11021811503D
libRbt.so/2013.1/901 2013/11/27
 12 13  0  0  0  0  0  0  0  0999 V2000
   23.2706   28.0851   10.0709 C   0  0  0  0  0  0  0  0  0  0  0  0
   23.9442   26.3574   11.6154 C   0  0  0  0  0  0  0  0  0  0  0  0
   23.5561   29.1396    9.3160 N   0  0  0  0  0  0  0  0  0  0  0  0
   22.0200   27.6128   10.0784 N   0  0  0  0  0  0  0  0  0  0  0  0
   24.2718   27.4649   10.8414 N   0  0  0  0  0  0  0  0  0  0  0  0
   24.8232   25.8192   12.2941 O   0  0  0  0  0  0  0  0  0  0  0  0
   20.9113   24.3564   12.3278 N   0  0  0  0  0  0  0  0  0  0  0  0
   19.9718   25.0292   11.5309 C   0  0  0  0  0  0  0  0  0  0  0  0
   20.3831   26.1378   10.7674 N   0  0  0  0  0  0  0  0  0  0  0  0
   21.6635   26.5562   10.8197 C   0  0  0  0  0  0  0  0  0  0  0  0
   22.6236   25.9011   11.6029 C   0  0  0  0  0  0  0  0  0  0  0  0
   22.2537   24.8038   12.3664 C   0  0  0  0  0  0  0  0  0  0  0  0
  1  3  1  0  0  0  0
  1  4  2  0  0  0  0
  1  5  1  0  0  0  0
  2  6  2  0  0  0  0
  2 11  1  0  0  0  0
  2  5  1  0  0  0  0
  4 10  1  0  0  0  0
  7  8  2  0  0  0  0
  7 12  1  0  0  0  0
  8  9  1  0  0  0  0
  9 10  2  0  0  0  0
 10 11  1  0  0  0  0
 11 12  2  0  0  0  0
M  END
>  <CHROM.1>
22.51814508,26.45479939,11.13551484,0.86447324,-0.22110860,-0.66737460

>  <Name>
ligand

>  <RI>
0

>  <Rbt.Current_Directory>
/home/itssahil/PROJECTS/Mol_Feturizer/New_Systems/rnas/4LX6

>  <Rbt.Executable>
rbdock ($Id: //depot/dev/client3/rdock/2013.1/src/exe/rbdock.cxx#4 $)

>  <Rbt.Library>
libRbt.so (2013.1, Build901 2013/11/27)

>  <Rbt.Parameter_File>
/export/apps/rDock/src/rDock_2013.1_src/data/scripts/dock_solv.prm

>  <Rbt.Receptor>
prm/blind_docking_40.prm

>  <SCORE>
-8.57826

>  <SCORE.INTER>
-8.57826

>  <SCORE.INTER.CONST>
1

>  <SCORE.INTER.POLAR>
0

>  <SCORE.INTER.ROT>
0

>  <SCORE.INTER.SOLV>
2.62559

>  <SCORE.INTER.VDW>
-10.194

>  <SCORE.INTER.norm>
-0.714855

>  <SCORE.INTRA>
0

>  <SCORE.INTRA.DIHEDRAL>
0

>  <SCORE.INTRA.DIHEDRAL.0>
0

>  <SCORE.INTRA.POLAR>
0

>  <SCORE.INTRA.POLAR.0>
0

>  <SCORE.INTRA.REPUL>
0

>  <SCORE.INTRA.REPUL.0>
0

>  <SCORE.INTRA.SOLV>
0

>  <SCORE.INTRA.SOLV.lig_0>
-28.9128

>  <SCORE.INTRA.VDW>
0

>  <SCORE.INTRA.VDW.0>
0

>  <SCORE.INTRA.norm>
0

>  <SCORE.RESTR>
0

>  <SCORE.RESTR.CAVITY>
0

>  <SCORE.RESTR.norm>
0

>  <SCORE.SYSTEM>
0

>  <SCORE.SYSTEM.CONST>
0

>  <SCORE.SYSTEM.DIHEDRAL>
0

>  <SCORE.SYSTEM.SOLV>
0

>  <SCORE.SYSTEM.norm>
0

>  <SCORE.heavy>
12

>  <SCORE.norm>
-0.714855

>  <RMSD>
12.998

$$$$
ligand
 OpenBabel11021811503D
libRbt.so/2013.1/901 2013/11/27
 12 13  0  0  0  0  0  0  0  0999 V2000
   23.0516   28.1146   10.1570 C   0  0  0  0  0  0  0  0  0  0  0  0
   23.8220   26.2954   11.5430 C   0  0  0  0  0  0  0  0  0  0  0  0
   23.2885   29.2162    9.4541 N   0  0  0  0  0  0  0  0  0  0  0  0
   21.8041   27.6374   10.2133 N   0  0  0  0  0  0  0  0  0  0  0  0
   24.0997   27.4512   10.8218 N   0  0  0  0  0  0  0  0  0  0  0  0
   24.7423   25.7190   12.1293 O   0  0  0  0  0  0  0  0  0  0  0  0
   20.8409   24.2401   12.3166 N   0  0  0  0  0  0  0  0  0  0  0  0
   19.8527   24.9581   11.6249 C   0  0  0  0  0  0  0  0  0  0  0  0
   20.2145   26.1146   10.9090 N   0  0  0  0  0  0  0  0  0  0  0  0
   21.4955   26.5344   10.9069 C   0  0  0  0  0  0  0  0  0  0  0  0
   22.5035   25.8351   11.5848 C   0  0  0  0  0  0  0  0  0  0  0  0
   22.1829   24.6899   12.2988 C   0  0  0  0  0  0  0  0  0  0  0  0
  1  3  1  0  0  0  0
  1  4  2  0  0  0  0
  1  5  1  0  0  0  0
  2  6  2  0  0  0  0
  2 11  1  0  0  0  0
  2  5  1  0  0  0  0
  4 10  1  0  0  0  0
  7  8  2  0  0  0  0
  7 12  1  0  0  0  0
  8  9  1  0  0  0  0
  9 10  2  0  0  0  0
 10 11  1  0  0  0  0
 11 12  2  0  0  0  0
M  END
>  <CHROM.1>
22.36845606,26.41686341,11.16112909,0.90444235,-0.17144292,-0.59597194

>  <Name>
ligand

>  <RI>
0

>  <Rbt.Current_Directory>
/home/itssahil/PROJECTS/Mol_Feturizer/New_Systems/rnas/4LX6

>  <Rbt.Executable>
rbdock ($Id: //depot/dev/client3/rdock/2013.1/src/exe/rbdock.cxx#4 $)

>  <Rbt.Library>
libRbt.so (2013.1, Build901 2013/11/27)

>  <Rbt.Parameter_File>
/export/apps/rDock/src/rDock_2013.1_src/data/scripts/dock_solv.prm

>  <Rbt.Receptor>
prm/blind_docking_60.prm

>  <SCORE>
-8.4574

>  <SCORE.INTER>
-8.4574

>  <SCORE.INTER.CONST>
1

>  <SCORE.INTER.POLAR>
0

>  <SCORE.INTER.ROT>
0

>  <SCORE.INTER.SOLV>
2.33947

>  <SCORE.INTER.VDW>
-10.0181

>  <SCORE.INTER.norm>
-0.704784

>  <SCORE.INTRA>
0

>  <SCORE.INTRA.DIHEDRAL>
0

>  <SCORE.INTRA.DIHEDRAL.0>
0

>  <SCORE.INTRA.POLAR>
0

>  <SCORE.INTRA.POLAR.0>
0

>  <SCORE.INTRA.REPUL>
0

>  <SCORE.INTRA.REPUL.0>
0

>  <SCORE.INTRA.SOLV>
0

>  <SCORE.INTRA.SOLV.lig_0>
-28.9128

>  <SCORE.INTRA.VDW>
0

>  <SCORE.INTRA.VDW.0>
0

>  <SCORE.INTRA.norm>
0

>  <SCORE.RESTR>
0

>  <SCORE.RESTR.CAVITY>
0

>  <SCORE.RESTR.norm>
0

>  <SCORE.SYSTEM>
0

>  <SCORE.SYSTEM.CONST>
0

>  <SCORE.SYSTEM.DIHEDRAL>
0

>  <SCORE.SYSTEM.SOLV>
0

>  <SCORE.SYSTEM.norm>
0

>  <SCORE.heavy>
12

>  <SCORE.norm>
-0.704784

>  <RMSD>
13.065

$$$$
ligand
 OpenBabel11021811503D
libRbt.so/2013.1/901 2013/11/27
 12 13  0  0  0  0  0  0  0  0999 V2000
   21.5231   27.9860    9.1407 C   0  0  0  0  0  0  0  0  0  0  0  0
   21.3055   26.5844   11.0932 C   0  0  0  0  0  0  0  0  0  0  0  0
   20.9810   28.6999    8.1610 N   0  0  0  0  0  0  0  0  0  0  0  0
   22.8551   27.9224    9.2359 N   0  0  0  0  0  0  0  0  0  0  0  0
   20.7087   27.3172   10.0735 N   0  0  0  0  0  0  0  0  0  0  0  0
   20.5885   25.9946   11.9063 O   0  0  0  0  0  0  0  0  0  0  0  0
   24.7500   25.7845   12.1909 N   0  0  0  0  0  0  0  0  0  0  0  0
   25.4915   26.4809   11.2236 C   0  0  0  0  0  0  0  0  0  0  0  0
   24.8139   27.2086   10.2274 N   0  0  0  0  0  0  0  0  0  0  0  0
   23.4663   27.2175   10.1964 C   0  0  0  0  0  0  0  0  0  0  0  0
   22.7006   26.5352   11.1518 C   0  0  0  0  0  0  0  0  0  0  0  0
   23.3354   25.8096   12.1490 C   0  0  0  0  0  0  0  0  0  0  0  0
  1  3  1  0  0  0  0
  1  4  2  0  0  0  0
  1  5  1  0  0  0  0
  2  6  2  0  0  0  0
  2 11  1  0  0  0  0
  2  5  1  0  0  0  0
  4 10  1  0  0  0  0
  7  8  2  0  0  0  0
  7 12  1  0  0  0  0
  8  9  1  0  0  0  0
  9 10  2  0  0  0  0
 10 11  1  0  0  0  0
 11 12  2  0  0  0  0
M  END
>  <CHROM.1>
22.66350162,26.96413141,10.55947200,-2.47620606,-0.00076440,2.19655608

>  <Name>
ligand

>  <RI>
0

>  <Rbt.Current_Directory>
/home/itssahil/PROJECTS/Mol_Feturizer/New_Systems/rnas/4LX6

>  <Rbt.Executable>
rbdock ($Id: //depot/dev/client3/rdock/2013.1/src/exe/rbdock.cxx#4 $)

>  <Rbt.Library>
libRbt.so (2013.1, Build901 2013/11/27)

>  <Rbt.Parameter_File>
/export/apps/rDock/src/rDock_2013.1_src/data/scripts/dock_solv.prm

>  <Rbt.Receptor>
prm/blind_docking_40.prm

>  <SCORE>
-8.3941

>  <SCORE.INTER>
-8.3941

>  <SCORE.INTER.CONST>
1

>  <SCORE.INTER.POLAR>
0

>  <SCORE.INTER.ROT>
0

>  <SCORE.INTER.SOLV>
2.59505

>  <SCORE.INTER.VDW>
-10.0611

>  <SCORE.INTER.norm>
-0.699509

>  <SCORE.INTRA>
0

>  <SCORE.INTRA.DIHEDRAL>
0

>  <SCORE.INTRA.DIHEDRAL.0>
0

>  <SCORE.INTRA.POLAR>
0

>  <SCORE.INTRA.POLAR.0>
0

>  <SCORE.INTRA.REPUL>
0

>  <SCORE.INTRA.REPUL.0>
0

>  <SCORE.INTRA.SOLV>
0

>  <SCORE.INTRA.SOLV.lig_0>
-28.9128

>  <SCORE.INTRA.VDW>
0

>  <SCORE.INTRA.VDW.0>
0

>  <SCORE.INTRA.norm>
0

>  <SCORE.RESTR>
0

>  <SCORE.RESTR.CAVITY>
0

>  <SCORE.RESTR.norm>
0

>  <SCORE.SYSTEM>
0

>  <SCORE.SYSTEM.CONST>
0

>  <SCORE.SYSTEM.DIHEDRAL>
0

>  <SCORE.SYSTEM.SOLV>
0

>  <SCORE.SYSTEM.norm>
0

>  <SCORE.heavy>
12

>  <SCORE.norm>
-0.699509

>  <RMSD>
13.302

$$$$
ligand
 OpenBabel11021811503D
libRbt.so/2013.1/901 2013/11/27
 12 13  0  0  0  0  0  0  0  0999 V2000
   17.1751   15.6860   12.5545 C   0  0  0  0  0  0  0  0  0  0  0  0
   19.4935   15.4312   11.9347 C   0  0  0  0  0  0  0  0  0  0  0  0
   16.1262   16.4539   12.8259 N   0  0  0  0  0  0  0  0  0  0  0  0
   17.0318   14.3573   12.5888 N   0  0  0  0  0  0  0  0  0  0  0  0
   18.4158   16.2612   12.2221 N   0  0  0  0  0  0  0  0  0  0  0  0
   20.5815   15.9387   11.6489 O   0  0  0  0  0  0  0  0  0  0  0  0
   20.1346   11.7880   11.7734 N   0  0  0  0  0  0  0  0  0  0  0  0
   18.8653   11.2930   12.1111 C   0  0  0  0  0  0  0  0  0  0  0  0
   17.8212   12.1979   12.3796 N   0  0  0  0  0  0  0  0  0  0  0  0
   18.0489   13.5257   12.3299 C   0  0  0  0  0  0  0  0  0  0  0  0
   19.3047   14.0480   11.9912 C   0  0  0  0  0  0  0  0  0  0  0  0
   20.3558   13.1850   11.7185 C   0  0  0  0  0  0  0  0  0  0  0  0
  1  3  1  0  0  0  0
  1  4  2  0  0  0  0
  1  5  1  0  0  0  0
  2  6  2  0  0  0  0
  2 11  1  0  0  0  0
  2  5  1  0  0  0  0
  4 10  1  0  0  0  0
  7  8  2  0  0  0  0
  7 12  1  0  0  0  0
  8  9  1  0  0  0  0
  9 10  2  0  0  0  0
 10 11  1  0  0  0  0
 11 12  2  0  0  0  0
M  END
>  <CHROM.1>
18.61792696,14.22680546,12.17165264,2.04046448,0.25827645,-0.00144378

>  <Name>
ligand

>  <RI>
0

>  <Rbt.Current_Directory>
/home/itssahil/PROJECTS/Mol_Feturizer/New_Systems/rnas/4LX6

>  <Rbt.Executable>
rbdock ($Id: //depot/dev/client3/rdock/2013.1/src/exe/rbdock.cxx#4 $)

>  <Rbt.Library>
libRbt.so (2013.1, Build901 2013/11/27)

>  <Rbt.Parameter_File>
/export/apps/rDock/src/rDock_2013.1_src/data/scripts/dock_solv.prm

>  <Rbt.Receptor>
prm/blind_docking_40.prm

>  <SCORE>
-8.86512

>  <SCORE.INTER>
-8.86512

>  <SCORE.INTER.CONST>
1

>  <SCORE.INTER.POLAR>
0

>  <SCORE.INTER.ROT>
0

>  <SCORE.INTER.SOLV>
5.5459

>  <SCORE.INTER.VDW>
-11.3587

>  <SCORE.INTER.norm>
-0.73876

>  <SCORE.INTRA>
0

>  <SCORE.INTRA.DIHEDRAL>
0

>  <SCORE.INTRA.DIHEDRAL.0>
0

>  <SCORE.INTRA.POLAR>
0

>  <SCORE.INTRA.POLAR.0>
0

>  <SCORE.INTRA.REPUL>
0

>  <SCORE.INTRA.REPUL.0>
0

>  <SCORE.INTRA.SOLV>
0

>  <SCORE.INTRA.SOLV.lig_0>
-28.9128

>  <SCORE.INTRA.VDW>
0

>  <SCORE.INTRA.VDW.0>
0

>  <SCORE.INTRA.norm>
0

>  <SCORE.RESTR>
0

>  <SCORE.RESTR.CAVITY>
0

>  <SCORE.RESTR.norm>
0

>  <SCORE.SYSTEM>
0

>  <SCORE.SYSTEM.CONST>
0

>  <SCORE.SYSTEM.DIHEDRAL>
0

>  <SCORE.SYSTEM.SOLV>
0

>  <SCORE.SYSTEM.norm>
0

>  <SCORE.heavy>
12

>  <SCORE.norm>
-0.73876

>  <RMSD>
13.902

$$$$
ligand
 OpenBabel11021811503D
libRbt.so/2013.1/901 2013/11/27
 12 13  0  0  0  0  0  0  0  0999 V2000
   18.7331   11.2503   12.6196 C   0  0  0  0  0  0  0  0  0  0  0  0
   17.0488   12.9725   12.7652 C   0  0  0  0  0  0  0  0  0  0  0  0
   19.0942    9.9743   12.6892 N   0  0  0  0  0  0  0  0  0  0  0  0
   19.6543   12.1687   12.3109 N   0  0  0  0  0  0  0  0  0  0  0  0
   17.3982   11.6297   12.8536 N   0  0  0  0  0  0  0  0  0  0  0  0
   15.8786   13.3026   12.9764 O   0  0  0  0  0  0  0  0  0  0  0  0
   18.7624   16.1709   12.0280 N   0  0  0  0  0  0  0  0  0  0  0  0
   20.0703   15.7117   11.8070 C   0  0  0  0  0  0  0  0  0  0  0  0
   20.3435   14.3345   11.9057 N   0  0  0  0  0  0  0  0  0  0  0  0
   19.3588   13.4721   12.2281 C   0  0  0  0  0  0  0  0  0  0  0  0
   18.0432   13.9019   12.4497 C   0  0  0  0  0  0  0  0  0  0  0  0
   17.7379   15.2519   12.3587 C   0  0  0  0  0  0  0  0  0  0  0  0
  1  3  1  0  0  0  0
  1  4  2  0  0  0  0
  1  5  1  0  0  0  0
  2  6  2  0  0  0  0
  2 11  1  0  0  0  0
  2  5  1  0  0  0  0
  4 10  1  0  0  0  0
  7  8  2  0  0  0  0
  7 12  1  0  0  0  0
  8  9  1  0  0  0  0
  9 10  2  0  0  0  0
 10 11  1  0  0  0  0
 11 12  2  0  0  0  0
M  END
>  <CHROM.1>
18.47798642,13.31312512,12.42645449,-1.77340948,0.20718711,-0.11744995

>  <Name>
ligand

>  <RI>
0

>  <Rbt.Current_Directory>
/home/itssahil/PROJECTS/Mol_Feturizer/New_Systems/rnas/4LX6

>  <Rbt.Executable>
rbdock ($Id: //depot/dev/client3/rdock/2013.1/src/exe/rbdock.cxx#4 $)

>  <Rbt.Library>
libRbt.so (2013.1, Build901 2013/11/27)

>  <Rbt.Parameter_File>
/export/apps/rDock/src/rDock_2013.1_src/data/scripts/dock_solv.prm

>  <Rbt.Receptor>
prm/blind_docking_60.prm

>  <SCORE>
-8.31131

>  <SCORE.INTER>
-8.31131

>  <SCORE.INTER.CONST>
1

>  <SCORE.INTER.POLAR>
0

>  <SCORE.INTER.ROT>
0

>  <SCORE.INTER.SOLV>
5.10177

>  <SCORE.INTER.VDW>
-10.8415

>  <SCORE.INTER.norm>
-0.692609

>  <SCORE.INTRA>
0

>  <SCORE.INTRA.DIHEDRAL>
0

>  <SCORE.INTRA.DIHEDRAL.0>
0

>  <SCORE.INTRA.POLAR>
0

>  <SCORE.INTRA.POLAR.0>
0

>  <SCORE.INTRA.REPUL>
0

>  <SCORE.INTRA.REPUL.0>
0

>  <SCORE.INTRA.SOLV>
0

>  <SCORE.INTRA.SOLV.lig_0>
-28.9128

>  <SCORE.INTRA.VDW>
0

>  <SCORE.INTRA.VDW.0>
0

>  <SCORE.INTRA.norm>
0

>  <SCORE.RESTR>
0

>  <SCORE.RESTR.CAVITY>
0

>  <SCORE.RESTR.norm>
0

>  <SCORE.SYSTEM>
0

>  <SCORE.SYSTEM.CONST>
0

>  <SCORE.SYSTEM.DIHEDRAL>
0

>  <SCORE.SYSTEM.SOLV>
0

>  <SCORE.SYSTEM.norm>
0

>  <SCORE.heavy>
12

>  <SCORE.norm>
-0.692609

>  <RMSD>
13.941

$$$$
ligand
 OpenBabel11021811503D
libRbt.so/2013.1/901 2013/11/27
 12 13  0  0  0  0  0  0  0  0999 V2000
   17.1238   15.0464   12.5265 C   0  0  0  0  0  0  0  0  0  0  0  0
   19.4739   14.9787   11.9819 C   0  0  0  0  0  0  0  0  0  0  0  0
   16.0108   15.7277   12.7724 N   0  0  0  0  0  0  0  0  0  0  0  0
   17.0818   13.7102   12.5387 N   0  0  0  0  0  0  0  0  0  0  0  0
   18.3269   15.7196   12.2437 N   0  0  0  0  0  0  0  0  0  0  0  0
   20.5284   15.5721   11.7396 O   0  0  0  0  0  0  0  0  0  0  0  0
   20.3975   11.3980   11.7950 N   0  0  0  0  0  0  0  0  0  0  0  0
   19.1596   10.8024   12.0833 C   0  0  0  0  0  0  0  0  0  0  0  0
   18.0410   11.6208   12.3282 N   0  0  0  0  0  0  0  0  0  0  0  0
   18.1676   12.9627   12.3034 C   0  0  0  0  0  0  0  0  0  0  0  0
   19.3900   13.5844   12.0141 C   0  0  0  0  0  0  0  0  0  0  0  0
   20.5126   12.8085   11.7657 C   0  0  0  0  0  0  0  0  0  0  0  0
  1  3  1  0  0  0  0
  1  4  2  0  0  0  0
  1  5  1  0  0  0  0
  2  6  2  0  0  0  0
  2 11  1  0  0  0  0
  2  5  1  0  0  0  0
  4 10  1  0  0  0  0
  7  8  2  0  0  0  0
  7 12  1  0  0  0  0
  8  9  1  0  0  0  0
  9 10  2  0  0  0  0
 10 11  1  0  0  0  0
 11 12  2  0  0  0  0
M  END
>  <CHROM.1>
18.68600735,13.70754620,12.17357433,2.11920290,0.22480090,-0.00599973

>  <Name>
ligand

>  <RI>
0

>  <Rbt.Current_Directory>
/home/itssahil/PROJECTS/Mol_Feturizer/New_Systems/rnas/4LX6

>  <Rbt.Executable>
rbdock ($Id: //depot/dev/client3/rdock/2013.1/src/exe/rbdock.cxx#4 $)

>  <Rbt.Library>
libRbt.so (2013.1, Build901 2013/11/27)

>  <Rbt.Parameter_File>
/export/apps/rDock/src/rDock_2013.1_src/data/scripts/dock_solv.prm

>  <Rbt.Receptor>
prm/blind_docking_60.prm

>  <SCORE>
-8.81954

>  <SCORE.INTER>
-8.81954

>  <SCORE.INTER.CONST>
1

>  <SCORE.INTER.POLAR>
0

>  <SCORE.INTER.ROT>
0

>  <SCORE.INTER.SOLV>
5.12343

>  <SCORE.INTER.VDW>
-11.1875

>  <SCORE.INTER.norm>
-0.734962

>  <SCORE.INTRA>
0

>  <SCORE.INTRA.DIHEDRAL>
0

>  <SCORE.INTRA.DIHEDRAL.0>
0

>  <SCORE.INTRA.POLAR>
0

>  <SCORE.INTRA.POLAR.0>
0

>  <SCORE.INTRA.REPUL>
0

>  <SCORE.INTRA.REPUL.0>
0

>  <SCORE.INTRA.SOLV>
0

>  <SCORE.INTRA.SOLV.lig_0>
-28.9128

>  <SCORE.INTRA.VDW>
0

>  <SCORE.INTRA.VDW.0>
0

>  <SCORE.INTRA.norm>
0

>  <SCORE.RESTR>
0

>  <SCORE.RESTR.CAVITY>
0

>  <SCORE.RESTR.norm>
0

>  <SCORE.SYSTEM>
0

>  <SCORE.SYSTEM.CONST>
0

>  <SCORE.SYSTEM.DIHEDRAL>
0

>  <SCORE.SYSTEM.SOLV>
0

>  <SCORE.SYSTEM.norm>
0

>  <SCORE.heavy>
12

>  <SCORE.norm>
-0.734962

>  <RMSD>
13.999

$$$$
ligand
 OpenBabel11021811503D
libRbt.so/2013.1/901 2013/11/27
 12 13  0  0  0  0  0  0  0  0999 V2000
   15.6952   16.2744   13.0430 C   0  0  0  0  0  0  0  0  0  0  0  0
   16.3224   13.9713   12.6876 C   0  0  0  0  0  0  0  0  0  0  0  0
   14.7853   17.1944   13.3414 N   0  0  0  0  0  0  0  0  0  0  0  0
   16.9522   16.6604   12.8016 N   0  0  0  0  0  0  0  0  0  0  0  0
   15.3458   14.9120   12.9946 N   0  0  0  0  0  0  0  0  0  0  0  0
   16.0116   12.7779   12.6407 O   0  0  0  0  0  0  0  0  0  0  0  0
   19.9339   13.9890   11.8710 N   0  0  0  0  0  0  0  0  0  0  0  0
   20.2020   15.3650   11.9411 C   0  0  0  0  0  0  0  0  0  0  0  0
   19.1612   16.2546   12.2676 N   0  0  0  0  0  0  0  0  0  0  0  0
   17.9173   15.7857   12.4911 C   0  0  0  0  0  0  0  0  0  0  0  0
   17.6219   14.4168   12.4324 C   0  0  0  0  0  0  0  0  0  0  0  0
   18.6239   13.5116   12.1154 C   0  0  0  0  0  0  0  0  0  0  0  0
  1  3  1  0  0  0  0
  1  4  2  0  0  0  0
  1  5  1  0  0  0  0
  2  6  2  0  0  0  0
  2 11  1  0  0  0  0
  2  5  1  0  0  0  0
  4 10  1  0  0  0  0
  7  8  2  0  0  0  0
  7 12  1  0  0  0  0
  8  9  1  0  0  0  0
  9 10  2  0  0  0  0
 10 11  1  0  0  0  0
 11 12  2  0  0  0  0
M  END
>  <CHROM.1>
17.33732862,15.07913777,12.56101744,-2.83542974,-0.22109654,-3.04576175

>  <Name>
ligand

>  <RI>
0

>  <Rbt.Current_Directory>
/home/itssahil/PROJECTS/Mol_Feturizer/New_Systems/rnas/4LX6

>  <Rbt.Executable>
rbdock ($Id: //depot/dev/client3/rdock/2013.1/src/exe/rbdock.cxx#4 $)

>  <Rbt.Library>
libRbt.so (2013.1, Build901 2013/11/27)

>  <Rbt.Parameter_File>
/export/apps/rDock/src/rDock_2013.1_src/data/scripts/dock_solv.prm

>  <Rbt.Receptor>
prm/blind_docking_40.prm

>  <SCORE>
-8.61984

>  <SCORE.INTER>
-8.61984

>  <SCORE.INTER.CONST>
1

>  <SCORE.INTER.POLAR>
0

>  <SCORE.INTER.ROT>
0

>  <SCORE.INTER.SOLV>
2.62373

>  <SCORE.INTER.VDW>
-10.2211

>  <SCORE.INTER.norm>
-0.71832

>  <SCORE.INTRA>
0

>  <SCORE.INTRA.DIHEDRAL>
0

>  <SCORE.INTRA.DIHEDRAL.0>
0

>  <SCORE.INTRA.POLAR>
0

>  <SCORE.INTRA.POLAR.0>
0

>  <SCORE.INTRA.REPUL>
0

>  <SCORE.INTRA.REPUL.0>
0

>  <SCORE.INTRA.SOLV>
0

>  <SCORE.INTRA.SOLV.lig_0>
-28.9128

>  <SCORE.INTRA.VDW>
0

>  <SCORE.INTRA.VDW.0>
0

>  <SCORE.INTRA.norm>
0

>  <SCORE.RESTR>
0

>  <SCORE.RESTR.CAVITY>
0

>  <SCORE.RESTR.norm>
0

>  <SCORE.SYSTEM>
0

>  <SCORE.SYSTEM.CONST>
0

>  <SCORE.SYSTEM.DIHEDRAL>
0

>  <SCORE.SYSTEM.SOLV>
0

>  <SCORE.SYSTEM.norm>
0

>  <SCORE.heavy>
12

>  <SCORE.norm>
-0.71832

>  <RMSD>
14.513

$$$$
ligand
 OpenBabel11021811503D
libRbt.so/2013.1/901 2013/11/27
 12 13  0  0  0  0  0  0  0  0999 V2000
   15.6786   16.2124   13.1079 C   0  0  0  0  0  0  0  0  0  0  0  0
   16.3271   13.9197   12.7246 C   0  0  0  0  0  0  0  0  0  0  0  0
   14.7614   17.1197   13.4224 N   0  0  0  0  0  0  0  0  0  0  0  0
   16.9296   16.6140   12.8612 N   0  0  0  0  0  0  0  0  0  0  0  0
   15.3430   14.8469   13.0484 N   0  0  0  0  0  0  0  0  0  0  0  0
   16.0283   12.7236   12.6679 O   0  0  0  0  0  0  0  0  0  0  0  0
   19.9319   13.9835   11.8813 N   0  0  0  0  0  0  0  0  0  0  0  0
   20.1861   15.3615   11.9634 C   0  0  0  0  0  0  0  0  0  0  0  0
   19.1387   16.2368   12.3066 N   0  0  0  0  0  0  0  0  0  0  0  0
   17.9014   15.7526   12.5347 C   0  0  0  0  0  0  0  0  0  0  0  0
   17.6198   14.3814   12.4642 C   0  0  0  0  0  0  0  0  0  0  0  0
   18.6289   13.4900   12.1306 C   0  0  0  0  0  0  0  0  0  0  0  0
  1  3  1  0  0  0  0
  1  4  2  0  0  0  0
  1  5  1  0  0  0  0
  2  6  2  0  0  0  0
  2 11  1  0  0  0  0
  2  5  1  0  0  0  0
  4 10  1  0  0  0  0
  7  8  2  0  0  0  0
  7 12  1  0  0  0  0
  8  9  1  0  0  0  0
  9 10  2  0  0  0  0
 10 11  1  0  0  0  0
 11 12  2  0  0  0  0
M  END
>  <CHROM.1>
17.32938307,15.03933977,12.60167961,-2.84535457,-0.22960213,-3.03787219

>  <Name>
ligand

>  <RI>
0

>  <Rbt.Current_Directory>
/home/itssahil/PROJECTS/Mol_Feturizer/New_Systems/rnas/4LX6

>  <Rbt.Executable>
rbdock ($Id: //depot/dev/client3/rdock/2013.1/src/exe/rbdock.cxx#4 $)

>  <Rbt.Library>
libRbt.so (2013.1, Build901 2013/11/27)

>  <Rbt.Parameter_File>
/export/apps/rDock/src/rDock_2013.1_src/data/scripts/dock_solv.prm

>  <Rbt.Receptor>
prm/blind_docking_40.prm

>  <SCORE>
-8.7021

>  <SCORE.INTER>
-8.7021

>  <SCORE.INTER.CONST>
1

>  <SCORE.INTER.POLAR>
0

>  <SCORE.INTER.ROT>
0

>  <SCORE.INTER.SOLV>
2.62582

>  <SCORE.INTER.VDW>
-10.2767

>  <SCORE.INTER.norm>
-0.725175

>  <SCORE.INTRA>
0

>  <SCORE.INTRA.DIHEDRAL>
0

>  <SCORE.INTRA.DIHEDRAL.0>
0

>  <SCORE.INTRA.POLAR>
0

>  <SCORE.INTRA.POLAR.0>
0

>  <SCORE.INTRA.REPUL>
0

>  <SCORE.INTRA.REPUL.0>
0

>  <SCORE.INTRA.SOLV>
0

>  <SCORE.INTRA.SOLV.lig_0>
-28.9128

>  <SCORE.INTRA.VDW>
0

>  <SCORE.INTRA.VDW.0>
0

>  <SCORE.INTRA.norm>
0

>  <SCORE.RESTR>
0

>  <SCORE.RESTR.CAVITY>
0

>  <SCORE.RESTR.norm>
0

>  <SCORE.SYSTEM>
0

>  <SCORE.SYSTEM.CONST>
0

>  <SCORE.SYSTEM.DIHEDRAL>
0

>  <SCORE.SYSTEM.SOLV>
0

>  <SCORE.SYSTEM.norm>
0

>  <SCORE.heavy>
12

>  <SCORE.norm>
-0.725175

>  <RMSD>
14.522

$$$$
ligand
 OpenBabel11021811503D
libRbt.so/2013.1/901 2013/11/27
 12 13  0  0  0  0  0  0  0  0999 V2000
   15.6760   16.2131   13.0967 C   0  0  0  0  0  0  0  0  0  0  0  0
   16.3236   13.9196   12.7170 C   0  0  0  0  0  0  0  0  0  0  0  0
   14.7586   17.1216   13.4076 N   0  0  0  0  0  0  0  0  0  0  0  0
   16.9282   16.6134   12.8536 N   0  0  0  0  0  0  0  0  0  0  0  0
   15.3394   14.8480   13.0371 N   0  0  0  0  0  0  0  0  0  0  0  0
   16.0240   12.7238   12.6602 O   0  0  0  0  0  0  0  0  0  0  0  0
   19.9311   13.9795   11.8851 N   0  0  0  0  0  0  0  0  0  0  0  0
   20.1864   15.3574   11.9669 C   0  0  0  0  0  0  0  0  0  0  0  0
   19.1386   16.2338   12.3062 N   0  0  0  0  0  0  0  0  0  0  0  0
   17.9002   15.7510   12.5307 C   0  0  0  0  0  0  0  0  0  0  0  0
   17.6176   14.3799   12.4604 C   0  0  0  0  0  0  0  0  0  0  0  0
   18.6269   13.4874   12.1306 C   0  0  0  0  0  0  0  0  0  0  0  0
  1  3  1  0  0  0  0
  1  4  2  0  0  0  0
  1  5  1  0  0  0  0
  2  6  2  0  0  0  0
  2 11  1  0  0  0  0
  2  5  1  0  0  0  0
  4 10  1  0  0  0  0
  7  8  2  0  0  0  0
  7 12  1  0  0  0  0
  8  9  1  0  0  0  0
  9 10  2  0  0  0  0
 10 11  1  0  0  0  0
 11 12  2  0  0  0  0
M  END
>  <CHROM.1>
17.32732594,15.03823413,12.59646764,-2.84476299,-0.22637213,-3.03847495

>  <Name>
ligand

>  <RI>
0

>  <Rbt.Current_Directory>
/home/itssahil/PROJECTS/Mol_Feturizer/New_Systems/rnas/4LX6

>  <Rbt.Executable>
rbdock ($Id: //depot/dev/client3/rdock/2013.1/src/exe/rbdock.cxx#4 $)

>  <Rbt.Library>
libRbt.so (2013.1, Build901 2013/11/27)

>  <Rbt.Parameter_File>
/export/apps/rDock/src/rDock_2013.1_src/data/scripts/dock_solv.prm

>  <Rbt.Receptor>
prm/blind_docking_60.prm

>  <SCORE>
-8.69875

>  <SCORE.INTER>
-8.69875

>  <SCORE.INTER.CONST>
1

>  <SCORE.INTER.POLAR>
0

>  <SCORE.INTER.ROT>
0

>  <SCORE.INTER.SOLV>
2.63362

>  <SCORE.INTER.VDW>
-10.277

>  <SCORE.INTER.norm>
-0.724896

>  <SCORE.INTRA>
0

>  <SCORE.INTRA.DIHEDRAL>
0

>  <SCORE.INTRA.DIHEDRAL.0>
0

>  <SCORE.INTRA.POLAR>
0

>  <SCORE.INTRA.POLAR.0>
0

>  <SCORE.INTRA.REPUL>
0

>  <SCORE.INTRA.REPUL.0>
0

>  <SCORE.INTRA.SOLV>
0

>  <SCORE.INTRA.SOLV.lig_0>
-28.9128

>  <SCORE.INTRA.VDW>
0

>  <SCORE.INTRA.VDW.0>
0

>  <SCORE.INTRA.norm>
0

>  <SCORE.RESTR>
0

>  <SCORE.RESTR.CAVITY>
0

>  <SCORE.RESTR.norm>
0

>  <SCORE.SYSTEM>
0

>  <SCORE.SYSTEM.CONST>
0

>  <SCORE.SYSTEM.DIHEDRAL>
0

>  <SCORE.SYSTEM.SOLV>
0

>  <SCORE.SYSTEM.norm>
0

>  <SCORE.heavy>
12

>  <SCORE.norm>
-0.724896

>  <RMSD>
14.524

$$$$
ligand
 OpenBabel11021811503D
libRbt.so/2013.1/901 2013/11/27
 12 13  0  0  0  0  0  0  0  0999 V2000
   15.6750   16.2098   13.1141 C   0  0  0  0  0  0  0  0  0  0  0  0
   16.3281   13.9178   12.7345 C   0  0  0  0  0  0  0  0  0  0  0  0
   14.7566   17.1155   13.4300 N   0  0  0  0  0  0  0  0  0  0  0  0
   16.9237   16.6141   12.8604 N   0  0  0  0  0  0  0  0  0  0  0  0
   15.3430   14.8432   13.0600 N   0  0  0  0  0  0  0  0  0  0  0  0
   16.0325   12.7207   12.6827 O   0  0  0  0  0  0  0  0  0  0  0  0
   19.9289   13.9891   11.8747 N   0  0  0  0  0  0  0  0  0  0  0  0
   20.1797   15.3681   11.9515 C   0  0  0  0  0  0  0  0  0  0  0  0
   19.1313   16.2414   12.2970 N   0  0  0  0  0  0  0  0  0  0  0  0
   17.8964   15.7545   12.5320 C   0  0  0  0  0  0  0  0  0  0  0  0
   17.6184   14.3823   12.4669 C   0  0  0  0  0  0  0  0  0  0  0  0
   18.6284   13.4927   12.1314 C   0  0  0  0  0  0  0  0  0  0  0  0
  1  3  1  0  0  0  0
  1  4  2  0  0  0  0
  1  5  1  0  0  0  0
  2  6  2  0  0  0  0
  2 11  1  0  0  0  0
  2  5  1  0  0  0  0
  4 10  1  0  0  0  0
  7  8  2  0  0  0  0
  7 12  1  0  0  0  0
  8  9  1  0  0  0  0
  9 10  2  0  0  0  0
 10 11  1  0  0  0  0
 11 12  2  0  0  0  0
M  END
>  <CHROM.1>
17.32672367,15.03983799,12.60376180,-2.84773034,-0.23439575,-3.04137400

>  <Name>
ligand

>  <RI>
0

>  <Rbt.Current_Directory>
/home/itssahil/PROJECTS/Mol_Feturizer/New_Systems/rnas/4LX6

>  <Rbt.Executable>
rbdock ($Id: //depot/dev/client3/rdock/2013.1/src/exe/rbdock.cxx#4 $)

>  <Rbt.Library>
libRbt.so (2013.1, Build901 2013/11/27)

>  <Rbt.Parameter_File>
/export/apps/rDock/src/rDock_2013.1_src/data/scripts/dock_solv.prm

>  <Rbt.Receptor>
prm/blind_docking_40.prm

>  <SCORE>
-8.70169

>  <SCORE.INTER>
-8.70169

>  <SCORE.INTER.CONST>
1

>  <SCORE.INTER.POLAR>
0

>  <SCORE.INTER.ROT>
0

>  <SCORE.INTER.SOLV>
2.60525

>  <SCORE.INTER.VDW>
-10.2695

>  <SCORE.INTER.norm>
-0.725141

>  <SCORE.INTRA>
0

>  <SCORE.INTRA.DIHEDRAL>
0

>  <SCORE.INTRA.DIHEDRAL.0>
0

>  <SCORE.INTRA.POLAR>
0

>  <SCORE.INTRA.POLAR.0>
0

>  <SCORE.INTRA.REPUL>
0

>  <SCORE.INTRA.REPUL.0>
0

>  <SCORE.INTRA.SOLV>
0

>  <SCORE.INTRA.SOLV.lig_0>
-28.9128

>  <SCORE.INTRA.VDW>
0

>  <SCORE.INTRA.VDW.0>
0

>  <SCORE.INTRA.norm>
0

>  <SCORE.RESTR>
0

>  <SCORE.RESTR.CAVITY>
0

>  <SCORE.RESTR.norm>
0

>  <SCORE.SYSTEM>
0

>  <SCORE.SYSTEM.CONST>
0

>  <SCORE.SYSTEM.DIHEDRAL>
0

>  <SCORE.SYSTEM.SOLV>
0

>  <SCORE.SYSTEM.norm>
0

>  <SCORE.heavy>
12

>  <SCORE.norm>
-0.725141

>  <RMSD>
14.525

$$$$
ligand
 OpenBabel11021811503D
libRbt.so/2013.1/901 2013/11/27
 12 13  0  0  0  0  0  0  0  0999 V2000
   15.6737   16.2138   13.1037 C   0  0  0  0  0  0  0  0  0  0  0  0
   16.3211   13.9202   12.7240 C   0  0  0  0  0  0  0  0  0  0  0  0
   14.7580   17.1216   13.4215 N   0  0  0  0  0  0  0  0  0  0  0  0
   16.9226   16.6154   12.8466 N   0  0  0  0  0  0  0  0  0  0  0  0
   15.3387   14.8479   13.0515 N   0  0  0  0  0  0  0  0  0  0  0  0
   16.0229   12.7237   12.6737 O   0  0  0  0  0  0  0  0  0  0  0  0
   19.9198   13.9835   11.8548 N   0  0  0  0  0  0  0  0  0  0  0  0
   20.1736   15.3620   11.9301 C   0  0  0  0  0  0  0  0  0  0  0  0
   19.1279   16.2377   12.2777 N   0  0  0  0  0  0  0  0  0  0  0  0
   17.8927   15.7535   12.5163 C   0  0  0  0  0  0  0  0  0  0  0  0
   17.6117   14.3818   12.4528 C   0  0  0  0  0  0  0  0  0  0  0  0
   18.6189   13.4900   12.1152 C   0  0  0  0  0  0  0  0  0  0  0  0
  1  3  1  0  0  0  0
  1  4  2  0  0  0  0
  1  5  1  0  0  0  0
  2  6  2  0  0  0  0
  2 11  1  0  0  0  0
  2  5  1  0  0  0  0
  4 10  1  0  0  0  0
  7  8  2  0  0  0  0
  7 12  1  0  0  0  0
  8  9  1  0  0  0  0
  9 10  2  0  0  0  0
 10 11  1  0  0  0  0
 11 12  2  0  0  0  0
M  END
>  <CHROM.1>
17.32169292,15.04008599,12.58992595,-2.84535298,-0.23676130,-3.04147145

>  <Name>
ligand

>  <RI>
0

>  <Rbt.Current_Directory>
/home/itssahil/PROJECTS/Mol_Feturizer/New_Systems/rnas/4LX6

>  <Rbt.Executable>
rbdock ($Id: //depot/dev/client3/rdock/2013.1/src/exe/rbdock.cxx#4 $)

>  <Rbt.Library>
libRbt.so (2013.1, Build901 2013/11/27)

>  <Rbt.Parameter_File>
/export/apps/rDock/src/rDock_2013.1_src/data/scripts/dock_solv.prm

>  <Rbt.Receptor>
prm/blind_docking_40.prm

>  <SCORE>
-8.70055

>  <SCORE.INTER>
-8.70055

>  <SCORE.INTER.CONST>
1

>  <SCORE.INTER.POLAR>
0

>  <SCORE.INTER.ROT>
0

>  <SCORE.INTER.SOLV>
2.5908

>  <SCORE.INTER.VDW>
-10.264

>  <SCORE.INTER.norm>
-0.725046

>  <SCORE.INTRA>
0

>  <SCORE.INTRA.DIHEDRAL>
0

>  <SCORE.INTRA.DIHEDRAL.0>
0

>  <SCORE.INTRA.POLAR>
0

>  <SCORE.INTRA.POLAR.0>
0

>  <SCORE.INTRA.REPUL>
0

>  <SCORE.INTRA.REPUL.0>
0

>  <SCORE.INTRA.SOLV>
0

>  <SCORE.INTRA.SOLV.lig_0>
-28.9128

>  <SCORE.INTRA.VDW>
0

>  <SCORE.INTRA.VDW.0>
0

>  <SCORE.INTRA.norm>
0

>  <SCORE.RESTR>
0

>  <SCORE.RESTR.CAVITY>
0

>  <SCORE.RESTR.norm>
0

>  <SCORE.SYSTEM>
0

>  <SCORE.SYSTEM.CONST>
0

>  <SCORE.SYSTEM.DIHEDRAL>
0

>  <SCORE.SYSTEM.SOLV>
0

>  <SCORE.SYSTEM.norm>
0

>  <SCORE.heavy>
12

>  <SCORE.norm>
-0.725046

>  <RMSD>
14.533

$$$$
ligand
 OpenBabel11021811503D
libRbt.so/2013.1/901 2013/11/27
 12 13  0  0  0  0  0  0  0  0999 V2000
   15.6451   16.2285   13.1156 C   0  0  0  0  0  0  0  0  0  0  0  0
   16.2578   13.9340   12.6868 C   0  0  0  0  0  0  0  0  0  0  0  0
   14.7415   17.1439   13.4458 N   0  0  0  0  0  0  0  0  0  0  0  0
   16.9034   16.6147   12.8817 N   0  0  0  0  0  0  0  0  0  0  0  0
   15.2877   14.8702   13.0265 N   0  0  0  0  0  0  0  0  0  0  0  0
   15.9399   12.7444   12.6041 O   0  0  0  0  0  0  0  0  0  0  0  0
   19.8663   13.9566   11.8576 N   0  0  0  0  0  0  0  0  0  0  0  0
   20.1426   15.3283   11.9692 C   0  0  0  0  0  0  0  0  0  0  0  0
   19.1081   16.2132   12.3270 N   0  0  0  0  0  0  0  0  0  0  0  0
   17.8623   15.7446   12.5406 C   0  0  0  0  0  0  0  0  0  0  0  0
   17.5588   14.3799   12.4406 C   0  0  0  0  0  0  0  0  0  0  0  0
   18.5545   13.4793   12.0920 C   0  0  0  0  0  0  0  0  0  0  0  0
  1  3  1  0  0  0  0
  1  4  2  0  0  0  0
  1  5  1  0  0  0  0
  2  6  2  0  0  0  0
  2 11  1  0  0  0  0
  2  5  1  0  0  0  0
  4 10  1  0  0  0  0
  7  8  2  0  0  0  0
  7 12  1  0  0  0  0
  8  9  1  0  0  0  0
  9 10  2  0  0  0  0
 10 11  1  0  0  0  0
 11 12  2  0  0  0  0
M  END
>  <CHROM.1>
17.27855989,15.03947336,12.59076447,-2.82922210,-0.22410272,-3.01341326

>  <Name>
ligand

>  <RI>
0

>  <Rbt.Current_Directory>
/home/itssahil/PROJECTS/Mol_Feturizer/New_Systems/rnas/4LX6

>  <Rbt.Executable>
rbdock ($Id: //depot/dev/client3/rdock/2013.1/src/exe/rbdock.cxx#4 $)

>  <Rbt.Library>
libRbt.so (2013.1, Build901 2013/11/27)

>  <Rbt.Parameter_File>
/export/apps/rDock/src/rDock_2013.1_src/data/scripts/dock_solv.prm

>  <Rbt.Receptor>
prm/blind_docking_40.prm

>  <SCORE>
-8.65606

>  <SCORE.INTER>
-8.65606

>  <SCORE.INTER.CONST>
1

>  <SCORE.INTER.POLAR>
0

>  <SCORE.INTER.ROT>
0

>  <SCORE.INTER.SOLV>
2.5891

>  <SCORE.INTER.VDW>
-10.2337

>  <SCORE.INTER.norm>
-0.721339

>  <SCORE.INTRA>
0

>  <SCORE.INTRA.DIHEDRAL>
0

>  <SCORE.INTRA.DIHEDRAL.0>
0

>  <SCORE.INTRA.POLAR>
0

>  <SCORE.INTRA.POLAR.0>
0

>  <SCORE.INTRA.REPUL>
0

>  <SCORE.INTRA.REPUL.0>
0

>  <SCORE.INTRA.SOLV>
0

>  <SCORE.INTRA.SOLV.lig_0>
-28.9128

>  <SCORE.INTRA.VDW>
0

>  <SCORE.INTRA.VDW.0>
0

>  <SCORE.INTRA.norm>
0

>  <SCORE.RESTR>
0

>  <SCORE.RESTR.CAVITY>
0

>  <SCORE.RESTR.norm>
0

>  <SCORE.SYSTEM>
0

>  <SCORE.SYSTEM.CONST>
0

>  <SCORE.SYSTEM.DIHEDRAL>
0

>  <SCORE.SYSTEM.SOLV>
0

>  <SCORE.SYSTEM.norm>
0

>  <SCORE.heavy>
12

>  <SCORE.norm>
-0.721339

>  <RMSD>
14.572

$$$$
ligand
 OpenBabel11021811503D
libRbt.so/2013.1/901 2013/11/27
 12 13  0  0  0  0  0  0  0  0999 V2000
   15.6498   16.2423   13.0484 C   0  0  0  0  0  0  0  0  0  0  0  0
   16.2564   13.9328   12.6989 C   0  0  0  0  0  0  0  0  0  0  0  0
   14.7484   17.1711   13.3454 N   0  0  0  0  0  0  0  0  0  0  0  0
   16.9098   16.6166   12.8043 N   0  0  0  0  0  0  0  0  0  0  0  0
   15.2885   14.8829   13.0045 N   0  0  0  0  0  0  0  0  0  0  0  0
   15.9351   12.7421   12.6558 O   0  0  0  0  0  0  0  0  0  0  0  0
   19.8668   13.9166   11.8774 N   0  0  0  0  0  0  0  0  0  0  0  0
   20.1470   15.2904   11.9432 C   0  0  0  0  0  0  0  0  0  0  0  0
   19.1145   16.1900   12.2685 N   0  0  0  0  0  0  0  0  0  0  0  0
   17.8668   15.7326   12.4951 C   0  0  0  0  0  0  0  0  0  0  0  0
   17.5594   14.3662   12.4406 C   0  0  0  0  0  0  0  0  0  0  0  0
   18.5530   13.4514   12.1249 C   0  0  0  0  0  0  0  0  0  0  0  0
  1  3  1  0  0  0  0
  1  4  2  0  0  0  0
  1  5  1  0  0  0  0
  2  6  2  0  0  0  0
  2 11  1  0  0  0  0
  2  5  1  0  0  0  0
  4 10  1  0  0  0  0
  7  8  2  0  0  0  0
  7 12  1  0  0  0  0
  8  9  1  0  0  0  0
  9 10  2  0  0  0  0
 10 11  1  0  0  0  0
 11 12  2  0  0  0  0
M  END
>  <CHROM.1>
17.28078819,15.03135241,12.56775349,-2.82638605,-0.22160166,-3.04665177

>  <Name>
ligand

>  <RI>
0

>  <Rbt.Current_Directory>
/home/itssahil/PROJECTS/Mol_Feturizer/New_Systems/rnas/4LX6

>  <Rbt.Executable>
rbdock ($Id: //depot/dev/client3/rdock/2013.1/src/exe/rbdock.cxx#4 $)

>  <Rbt.Library>
libRbt.so (2013.1, Build901 2013/11/27)

>  <Rbt.Parameter_File>
/export/apps/rDock/src/rDock_2013.1_src/data/scripts/dock_solv.prm

>  <Rbt.Receptor>
prm/blind_docking_100.prm

>  <SCORE>
-8.63629

>  <SCORE.INTER>
-8.63831

>  <SCORE.INTER.CONST>
1

>  <SCORE.INTER.POLAR>
0

>  <SCORE.INTER.ROT>
0

>  <SCORE.INTER.SOLV>
2.538

>  <SCORE.INTER.VDW>
-10.2049

>  <SCORE.INTER.norm>
-0.719859

>  <SCORE.INTRA>
0

>  <SCORE.INTRA.DIHEDRAL>
0

>  <SCORE.INTRA.DIHEDRAL.0>
0

>  <SCORE.INTRA.POLAR>
0

>  <SCORE.INTRA.POLAR.0>
0

>  <SCORE.INTRA.REPUL>
0

>  <SCORE.INTRA.REPUL.0>
0

>  <SCORE.INTRA.SOLV>
0

>  <SCORE.INTRA.SOLV.lig_0>
-28.9128

>  <SCORE.INTRA.VDW>
0

>  <SCORE.INTRA.VDW.0>
0

>  <SCORE.INTRA.norm>
0

>  <SCORE.RESTR>
0.0020173

>  <SCORE.RESTR.CAVITY>
0.0020173

>  <SCORE.RESTR.norm>
0.000168109

>  <SCORE.SYSTEM>
0

>  <SCORE.SYSTEM.CONST>
0

>  <SCORE.SYSTEM.DIHEDRAL>
0

>  <SCORE.SYSTEM.SOLV>
0

>  <SCORE.SYSTEM.norm>
0

>  <SCORE.heavy>
12

>  <SCORE.norm>
-0.719691

>  <RMSD>
14.574

$$$$
ligand
 OpenBabel11021811503D
libRbt.so/2013.1/901 2013/11/27
 12 13  0  0  0  0  0  0  0  0999 V2000
   15.6309   16.2734   13.0845 C   0  0  0  0  0  0  0  0  0  0  0  0
   16.2259   13.9686   12.6872 C   0  0  0  0  0  0  0  0  0  0  0  0
   14.7337   17.2006   13.3989 N   0  0  0  0  0  0  0  0  0  0  0  0
   16.8936   16.6459   12.8519 N   0  0  0  0  0  0  0  0  0  0  0  0
   15.2622   14.9173   13.0105 N   0  0  0  0  0  0  0  0  0  0  0  0
   15.8981   12.7809   12.6178 O   0  0  0  0  0  0  0  0  0  0  0  0
   19.8384   13.9500   11.8755 N   0  0  0  0  0  0  0  0  0  0  0  0
   20.1259   15.3206   11.9714 C   0  0  0  0  0  0  0  0  0  0  0  0
   19.0974   16.2187   12.3131 N   0  0  0  0  0  0  0  0  0  0  0  0
   17.8466   15.7635   12.5264 C   0  0  0  0  0  0  0  0  0  0  0  0
   17.5319   14.4003   12.4419 C   0  0  0  0  0  0  0  0  0  0  0  0
   18.5214   13.4869   12.1094 C   0  0  0  0  0  0  0  0  0  0  0  0
  1  3  1  0  0  0  0
  1  4  2  0  0  0  0
  1  5  1  0  0  0  0
  2  6  2  0  0  0  0
  2 11  1  0  0  0  0
  2  5  1  0  0  0  0
  4 10  1  0  0  0  0
  7  8  2  0  0  0  0
  7 12  1  0  0  0  0
  8  9  1  0  0  0  0
  9 10  2  0  0  0  0
 10 11  1  0  0  0  0
 11 12  2  0  0  0  0
M  END
>  <CHROM.1>
17.25657202,15.06406278,12.58245622,-2.82109165,-0.21824947,-3.02408183

>  <Name>
ligand

>  <RI>
0

>  <Rbt.Current_Directory>
/home/itssahil/PROJECTS/Mol_Feturizer/New_Systems/rnas/4LX6

>  <Rbt.Executable>
rbdock ($Id: //depot/dev/client3/rdock/2013.1/src/exe/rbdock.cxx#4 $)

>  <Rbt.Library>
libRbt.so (2013.1, Build901 2013/11/27)

>  <Rbt.Parameter_File>
/export/apps/rDock/src/rDock_2013.1_src/data/scripts/dock_solv.prm

>  <Rbt.Receptor>
prm/blind_docking_40.prm

>  <SCORE>
-8.66106

>  <SCORE.INTER>
-8.66106

>  <SCORE.INTER.CONST>
1

>  <SCORE.INTER.POLAR>
0

>  <SCORE.INTER.ROT>
0

>  <SCORE.INTER.SOLV>
2.52535

>  <SCORE.INTER.VDW>
-10.2158

>  <SCORE.INTER.norm>
-0.721755

>  <SCORE.INTRA>
0

>  <SCORE.INTRA.DIHEDRAL>
0

>  <SCORE.INTRA.DIHEDRAL.0>
0

>  <SCORE.INTRA.POLAR>
0

>  <SCORE.INTRA.POLAR.0>
0

>  <SCORE.INTRA.REPUL>
0

>  <SCORE.INTRA.REPUL.0>
0

>  <SCORE.INTRA.SOLV>
0

>  <SCORE.INTRA.SOLV.lig_0>
-28.9128

>  <SCORE.INTRA.VDW>
0

>  <SCORE.INTRA.VDW.0>
0

>  <SCORE.INTRA.norm>
0

>  <SCORE.RESTR>
0

>  <SCORE.RESTR.CAVITY>
0

>  <SCORE.RESTR.norm>
0

>  <SCORE.SYSTEM>
0

>  <SCORE.SYSTEM.CONST>
0

>  <SCORE.SYSTEM.DIHEDRAL>
0

>  <SCORE.SYSTEM.SOLV>
0

>  <SCORE.SYSTEM.norm>
0

>  <SCORE.heavy>
12

>  <SCORE.norm>
-0.721755

>  <RMSD>
14.587

$$$$
ligand
 OpenBabel11021811503D
libRbt.so/2013.1/901 2013/11/27
 12 13  0  0  0  0  0  0  0  0999 V2000
   15.6141   16.2449   13.1169 C   0  0  0  0  0  0  0  0  0  0  0  0
   16.2159   13.9422   12.7176 C   0  0  0  0  0  0  0  0  0  0  0  0
   14.7152   17.1687   13.4366 N   0  0  0  0  0  0  0  0  0  0  0  0
   16.8737   16.6224   12.8754 N   0  0  0  0  0  0  0  0  0  0  0  0
   15.2506   14.8872   13.0466 N   0  0  0  0  0  0  0  0  0  0  0  0
   15.8926   12.7531   12.6514 O   0  0  0  0  0  0  0  0  0  0  0  0
   19.8229   13.9378   11.8812 N   0  0  0  0  0  0  0  0  0  0  0  0
   20.1054   15.3097   11.9740 C   0  0  0  0  0  0  0  0  0  0  0  0
   19.0755   16.2038   12.3220 N   0  0  0  0  0  0  0  0  0  0  0  0
   17.8281   15.7436   12.5442 C   0  0  0  0  0  0  0  0  0  0  0  0
   17.5184   14.3790   12.4630 C   0  0  0  0  0  0  0  0  0  0  0  0
   18.5094   13.4695   12.1245 C   0  0  0  0  0  0  0  0  0  0  0  0
  1  3  1  0  0  0  0
  1  4  2  0  0  0  0
  1  5  1  0  0  0  0
  2  6  2  0  0  0  0
  2 11  1  0  0  0  0
  2  5  1  0  0  0  0
  4 10  1  0  0  0  0
  7  8  2  0  0  0  0
  7 12  1  0  0  0  0
  8  9  1  0  0  0  0
  9 10  2  0  0  0  0
 10 11  1  0  0  0  0
 11 12  2  0  0  0  0
M  END
>  <CHROM.1>
17.24133391,15.04182221,12.60485374,-2.82448249,-0.22549161,-3.02569877

>  <Name>
ligand

>  <RI>
0

>  <Rbt.Current_Directory>
/home/itssahil/PROJECTS/Mol_Feturizer/New_Systems/rnas/4LX6

>  <Rbt.Executable>
rbdock ($Id: //depot/dev/client3/rdock/2013.1/src/exe/rbdock.cxx#4 $)

>  <Rbt.Library>
libRbt.so (2013.1, Build901 2013/11/27)

>  <Rbt.Parameter_File>
/export/apps/rDock/src/rDock_2013.1_src/data/scripts/dock_solv.prm

>  <Rbt.Receptor>
prm/blind_docking_60.prm

>  <SCORE>
-8.7223

>  <SCORE.INTER>
-8.7223

>  <SCORE.INTER.CONST>
1

>  <SCORE.INTER.POLAR>
0

>  <SCORE.INTER.ROT>
0

>  <SCORE.INTER.SOLV>
2.49168

>  <SCORE.INTER.VDW>
-10.2454

>  <SCORE.INTER.norm>
-0.726858

>  <SCORE.INTRA>
0

>  <SCORE.INTRA.DIHEDRAL>
0

>  <SCORE.INTRA.DIHEDRAL.0>
0

>  <SCORE.INTRA.POLAR>
0

>  <SCORE.INTRA.POLAR.0>
0

>  <SCORE.INTRA.REPUL>
0

>  <SCORE.INTRA.REPUL.0>
0

>  <SCORE.INTRA.SOLV>
0

>  <SCORE.INTRA.SOLV.lig_0>
-28.9128

>  <SCORE.INTRA.VDW>
0

>  <SCORE.INTRA.VDW.0>
0

>  <SCORE.INTRA.norm>
0

>  <SCORE.RESTR>
0

>  <SCORE.RESTR.CAVITY>
0

>  <SCORE.RESTR.norm>
0

>  <SCORE.SYSTEM>
0

>  <SCORE.SYSTEM.CONST>
0

>  <SCORE.SYSTEM.DIHEDRAL>
0

>  <SCORE.SYSTEM.SOLV>
0

>  <SCORE.SYSTEM.norm>
0

>  <SCORE.heavy>
12

>  <SCORE.norm>
-0.726858

>  <RMSD>
14.602

$$$$
ligand
 OpenBabel11021811503D
libRbt.so/2013.1/901 2013/11/27
 12 13  0  0  0  0  0  0  0  0999 V2000
   15.6117   16.6774   12.5985 C   0  0  0  0  0  0  0  0  0  0  0  0
   15.9562   14.2951   12.4254 C   0  0  0  0  0  0  0  0  0  0  0  0
   14.8099   17.7229   12.7647 N   0  0  0  0  0  0  0  0  0  0  0  0
   16.9240   16.8842   12.4493 N   0  0  0  0  0  0  0  0  0  0  0  0
   15.0906   15.3701   12.5931 N   0  0  0  0  0  0  0  0  0  0  0  0
   15.4953   13.1503   12.4157 O   0  0  0  0  0  0  0  0  0  0  0  0
   19.5926   13.8011   11.9332 N   0  0  0  0  0  0  0  0  0  0  0  0
   20.0334   15.1337   11.9522 C   0  0  0  0  0  0  0  0  0  0  0  0
   19.0961   16.1674   12.1364 N   0  0  0  0  0  0  0  0  0  0  0  0
   17.7872   15.8758   12.2736 C   0  0  0  0  0  0  0  0  0  0  0  0
   17.3194   14.5545   12.2629 C   0  0  0  0  0  0  0  0  0  0  0  0
   18.2156   13.5108   12.0857 C   0  0  0  0  0  0  0  0  0  0  0  0
  1  3  1  0  0  0  0
  1  4  2  0  0  0  0
  1  5  1  0  0  0  0
  2  6  2  0  0  0  0
  2 11  1  0  0  0  0
  2  5  1  0  0  0  0
  4 10  1  0  0  0  0
  7  8  2  0  0  0  0
  7 12  1  0  0  0  0
  8  9  1  0  0  0  0
  9 10  2  0  0  0  0
 10 11  1  0  0  0  0
 11 12  2  0  0  0  0
M  END
>  <CHROM.1>
17.11529081,15.25455987,12.32976281,-2.71050166,-0.12592449,-3.08417281

>  <Name>
ligand

>  <RI>
0

>  <Rbt.Current_Directory>
/home/itssahil/PROJECTS/Mol_Feturizer/New_Systems/rnas/4LX6

>  <Rbt.Executable>
rbdock ($Id: //depot/dev/client3/rdock/2013.1/src/exe/rbdock.cxx#4 $)

>  <Rbt.Library>
libRbt.so (2013.1, Build901 2013/11/27)

>  <Rbt.Parameter_File>
/export/apps/rDock/src/rDock_2013.1_src/data/scripts/dock_solv.prm

>  <Rbt.Receptor>
prm/blind_docking_100.prm

>  <SCORE>
-8.56627

>  <SCORE.INTER>
-8.56627

>  <SCORE.INTER.CONST>
1

>  <SCORE.INTER.POLAR>
0

>  <SCORE.INTER.ROT>
0

>  <SCORE.INTER.SOLV>
2.97263

>  <SCORE.INTER.VDW>
-10.3017

>  <SCORE.INTER.norm>
-0.713856

>  <SCORE.INTRA>
0

>  <SCORE.INTRA.DIHEDRAL>
0

>  <SCORE.INTRA.DIHEDRAL.0>
0

>  <SCORE.INTRA.POLAR>
0

>  <SCORE.INTRA.POLAR.0>
0

>  <SCORE.INTRA.REPUL>
0

>  <SCORE.INTRA.REPUL.0>
0

>  <SCORE.INTRA.SOLV>
0

>  <SCORE.INTRA.SOLV.lig_0>
-28.9128

>  <SCORE.INTRA.VDW>
0

>  <SCORE.INTRA.VDW.0>
0

>  <SCORE.INTRA.norm>
0

>  <SCORE.RESTR>
0

>  <SCORE.RESTR.CAVITY>
0

>  <SCORE.RESTR.norm>
0

>  <SCORE.SYSTEM>
0

>  <SCORE.SYSTEM.CONST>
0

>  <SCORE.SYSTEM.DIHEDRAL>
0

>  <SCORE.SYSTEM.SOLV>
0

>  <SCORE.SYSTEM.norm>
0

>  <SCORE.heavy>
12

>  <SCORE.norm>
-0.713856

>  <RMSD>
14.714

$$$$
ligand
 OpenBabel11021811503D
libRbt.so/2013.1/901 2013/11/27
 12 13  0  0  0  0  0  0  0  0999 V2000
   15.5700   16.7017   12.5676 C   0  0  0  0  0  0  0  0  0  0  0  0
   15.9176   14.3204   12.3865 C   0  0  0  0  0  0  0  0  0  0  0  0
   14.7661   17.7459   12.7315 N   0  0  0  0  0  0  0  0  0  0  0  0
   16.8835   16.9100   12.4309 N   0  0  0  0  0  0  0  0  0  0  0  0
   15.0498   15.3941   12.5516 N   0  0  0  0  0  0  0  0  0  0  0  0
   15.4576   13.1754   12.3675 O   0  0  0  0  0  0  0  0  0  0  0  0
   19.5585   13.8310   11.9241 N   0  0  0  0  0  0  0  0  0  0  0  0
   19.9982   15.1637   11.9531 C   0  0  0  0  0  0  0  0  0  0  0  0
   19.0587   16.1961   12.1338 N   0  0  0  0  0  0  0  0  0  0  0  0
   17.7488   15.9029   12.2581 C   0  0  0  0  0  0  0  0  0  0  0  0
   17.2820   14.5815   12.2373 C   0  0  0  0  0  0  0  0  0  0  0  0
   18.1805   13.5391   12.0631 C   0  0  0  0  0  0  0  0  0  0  0  0
  1  3  1  0  0  0  0
  1  4  2  0  0  0  0
  1  5  1  0  0  0  0
  2  6  2  0  0  0  0
  2 11  1  0  0  0  0
  2  5  1  0  0  0  0
  4 10  1  0  0  0  0
  7  8  2  0  0  0  0
  7 12  1  0  0  0  0
  8  9  1  0  0  0  0
  9 10  2  0  0  0  0
 10 11  1  0  0  0  0
 11 12  2  0  0  0  0
M  END
>  <CHROM.1>
17.07687361,15.28105390,12.30551162,-2.71168306,-0.11717184,-3.07970587

>  <Name>
ligand

>  <RI>
0

>  <Rbt.Current_Directory>
/home/itssahil/PROJECTS/Mol_Feturizer/New_Systems/rnas/4LX6

>  <Rbt.Executable>
rbdock ($Id: //depot/dev/client3/rdock/2013.1/src/exe/rbdock.cxx#4 $)

>  <Rbt.Library>
libRbt.so (2013.1, Build901 2013/11/27)

>  <Rbt.Parameter_File>
/export/apps/rDock/src/rDock_2013.1_src/data/scripts/dock_solv.prm

>  <Rbt.Receptor>
prm/blind_docking_40.prm

>  <SCORE>
-8.59017

>  <SCORE.INTER>
-8.59017

>  <SCORE.INTER.CONST>
1

>  <SCORE.INTER.POLAR>
0

>  <SCORE.INTER.ROT>
0

>  <SCORE.INTER.SOLV>
3.00578

>  <SCORE.INTER.VDW>
-10.3287

>  <SCORE.INTER.norm>
-0.715848

>  <SCORE.INTRA>
0

>  <SCORE.INTRA.DIHEDRAL>
0

>  <SCORE.INTRA.DIHEDRAL.0>
0

>  <SCORE.INTRA.POLAR>
0

>  <SCORE.INTRA.POLAR.0>
0

>  <SCORE.INTRA.REPUL>
0

>  <SCORE.INTRA.REPUL.0>
0

>  <SCORE.INTRA.SOLV>
0

>  <SCORE.INTRA.SOLV.lig_0>
-28.9128

>  <SCORE.INTRA.VDW>
0

>  <SCORE.INTRA.VDW.0>
0

>  <SCORE.INTRA.norm>
0

>  <SCORE.RESTR>
0

>  <SCORE.RESTR.CAVITY>
0

>  <SCORE.RESTR.norm>
0

>  <SCORE.SYSTEM>
0

>  <SCORE.SYSTEM.CONST>
0

>  <SCORE.SYSTEM.DIHEDRAL>
0

>  <SCORE.SYSTEM.SOLV>
0

>  <SCORE.SYSTEM.norm>
0

>  <SCORE.heavy>
12

>  <SCORE.norm>
-0.715848

>  <RMSD>
14.749

$$$$
ligand
 OpenBabel11021811503D
libRbt.so/2013.1/901 2013/11/27
 12 13  0  0  0  0  0  0  0  0999 V2000
   15.6217   16.9266   14.7113 C   0  0  0  0  0  0  0  0  0  0  0  0
   15.5085   16.8443   12.3021 C   0  0  0  0  0  0  0  0  0  0  0  0
   15.0442   17.1133   15.8925 N   0  0  0  0  0  0  0  0  0  0  0  0
   16.9180   16.6028   14.6677 N   0  0  0  0  0  0  0  0  0  0  0  0
   14.8780   17.0540   13.5233 N   0  0  0  0  0  0  0  0  0  0  0  0
   14.8549   16.9621   11.2620 O   0  0  0  0  0  0  0  0  0  0  0  0
   18.9089   15.9669   11.1286 N   0  0  0  0  0  0  0  0  0  0  0  0
   19.5795   15.8570   12.3568 C   0  0  0  0  0  0  0  0  0  0  0  0
   18.8692   16.0752   13.5522 N   0  0  0  0  0  0  0  0  0  0  0  0
   17.5627   16.4048   13.5109 C   0  0  0  0  0  0  0  0  0  0  0  0
   16.8669   16.5171   12.2994 C   0  0  0  0  0  0  0  0  0  0  0  0
   17.5351   16.3068   11.1023 C   0  0  0  0  0  0  0  0  0  0  0  0
  1  3  1  0  0  0  0
  1  4  2  0  0  0  0
  1  5  1  0  0  0  0
  2  6  2  0  0  0  0
  2 11  1  0  0  0  0
  2  5  1  0  0  0  0
  4 10  1  0  0  0  0
  7  8  2  0  0  0  0
  7 12  1  0  0  0  0
  8  9  1  0  0  0  0
  9 10  2  0  0  0  0
 10 11  1  0  0  0  0
 11 12  2  0  0  0  0
M  END
>  <CHROM.1>
16.80033120,16.56354394,13.02715972,-2.51897291,0.23928104,-1.61324799

>  <Name>
ligand

>  <RI>
0

>  <Rbt.Current_Directory>
/home/itssahil/PROJECTS/Mol_Feturizer/New_Systems/rnas/4LX6

>  <Rbt.Executable>
rbdock ($Id: //depot/dev/client3/rdock/2013.1/src/exe/rbdock.cxx#4 $)

>  <Rbt.Library>
libRbt.so (2013.1, Build901 2013/11/27)

>  <Rbt.Parameter_File>
/export/apps/rDock/src/rDock_2013.1_src/data/scripts/dock_solv.prm

>  <Rbt.Receptor>
prm/blind_docking_60.prm

>  <SCORE>
-6.49666

>  <SCORE.INTER>
-6.49666

>  <SCORE.INTER.CONST>
1

>  <SCORE.INTER.POLAR>
0

>  <SCORE.INTER.ROT>
0

>  <SCORE.INTER.SOLV>
2.75706

>  <SCORE.INTER.VDW>
-8.85012

>  <SCORE.INTER.norm>
-0.541388

>  <SCORE.INTRA>
0

>  <SCORE.INTRA.DIHEDRAL>
0

>  <SCORE.INTRA.DIHEDRAL.0>
0

>  <SCORE.INTRA.POLAR>
0

>  <SCORE.INTRA.POLAR.0>
0

>  <SCORE.INTRA.REPUL>
0

>  <SCORE.INTRA.REPUL.0>
0

>  <SCORE.INTRA.SOLV>
0

>  <SCORE.INTRA.SOLV.lig_0>
-28.9128

>  <SCORE.INTRA.VDW>
0

>  <SCORE.INTRA.VDW.0>
0

>  <SCORE.INTRA.norm>
0

>  <SCORE.RESTR>
0

>  <SCORE.RESTR.CAVITY>
0

>  <SCORE.RESTR.norm>
0

>  <SCORE.SYSTEM>
0

>  <SCORE.SYSTEM.CONST>
0

>  <SCORE.SYSTEM.DIHEDRAL>
0

>  <SCORE.SYSTEM.SOLV>
0

>  <SCORE.SYSTEM.norm>
0

>  <SCORE.heavy>
12

>  <SCORE.norm>
-0.541388

>  <RMSD>
14.842

$$$$
ligand
 OpenBabel11021811503D
libRbt.so/2013.1/901 2013/11/27
 12 13  0  0  0  0  0  0  0  0999 V2000
   15.6142   16.8721   14.7981 C   0  0  0  0  0  0  0  0  0  0  0  0
   15.4395   16.7962   12.3924 C   0  0  0  0  0  0  0  0  0  0  0  0
   15.0643   17.0427   15.9948 N   0  0  0  0  0  0  0  0  0  0  0  0
   16.9153   16.5751   14.7192 N   0  0  0  0  0  0  0  0  0  0  0  0
   14.8371   16.9886   13.6306 N   0  0  0  0  0  0  0  0  0  0  0  0
   14.7564   16.9045   11.3703 O   0  0  0  0  0  0  0  0  0  0  0  0
   18.8250   15.9928   11.1266 N   0  0  0  0  0  0  0  0  0  0  0  0
   19.5297   15.8922   12.3363 C   0  0  0  0  0  0  0  0  0  0  0  0
   18.8468   16.0915   13.5508 N   0  0  0  0  0  0  0  0  0  0  0  0
   17.5332   16.3944   13.5451 C   0  0  0  0  0  0  0  0  0  0  0  0
   16.8036   16.4969   12.3528 C   0  0  0  0  0  0  0  0  0  0  0  0
   17.4443   16.3046   11.1376 C   0  0  0  0  0  0  0  0  0  0  0  0
  1  3  1  0  0  0  0
  1  4  2  0  0  0  0
  1  5  1  0  0  0  0
  2  6  2  0  0  0  0
  2 11  1  0  0  0  0
  2  5  1  0  0  0  0
  4 10  1  0  0  0  0
  7  8  2  0  0  0  0
  7 12  1  0  0  0  0
  8  9  1  0  0  0  0
  9 10  2  0  0  0  0
 10 11  1  0  0  0  0
 11 12  2  0  0  0  0
M  END
>  <CHROM.1>
16.75533185,16.53931973,13.08218234,-2.49295799,0.21777993,-1.61524831

>  <Name>
ligand

>  <RI>
0

>  <Rbt.Current_Directory>
/home/itssahil/PROJECTS/Mol_Feturizer/New_Systems/rnas/4LX6

>  <Rbt.Executable>
rbdock ($Id: //depot/dev/client3/rdock/2013.1/src/exe/rbdock.cxx#4 $)

>  <Rbt.Library>
libRbt.so (2013.1, Build901 2013/11/27)

>  <Rbt.Parameter_File>
/export/apps/rDock/src/rDock_2013.1_src/data/scripts/dock_solv.prm

>  <Rbt.Receptor>
prm/blind_docking_80.prm

>  <SCORE>
-6.55682

>  <SCORE.INTER>
-6.55682

>  <SCORE.INTER.CONST>
1

>  <SCORE.INTER.POLAR>
0

>  <SCORE.INTER.ROT>
0

>  <SCORE.INTER.SOLV>
2.74318

>  <SCORE.INTER.VDW>
-8.88561

>  <SCORE.INTER.norm>
-0.546402

>  <SCORE.INTRA>
0

>  <SCORE.INTRA.DIHEDRAL>
0

>  <SCORE.INTRA.DIHEDRAL.0>
0

>  <SCORE.INTRA.POLAR>
0

>  <SCORE.INTRA.POLAR.0>
0

>  <SCORE.INTRA.REPUL>
0

>  <SCORE.INTRA.REPUL.0>
0

>  <SCORE.INTRA.SOLV>
0

>  <SCORE.INTRA.SOLV.lig_0>
-28.9128

>  <SCORE.INTRA.VDW>
0

>  <SCORE.INTRA.VDW.0>
0

>  <SCORE.INTRA.norm>
0

>  <SCORE.RESTR>
0

>  <SCORE.RESTR.CAVITY>
0

>  <SCORE.RESTR.norm>
0

>  <SCORE.SYSTEM>
0

>  <SCORE.SYSTEM.CONST>
0

>  <SCORE.SYSTEM.DIHEDRAL>
0

>  <SCORE.SYSTEM.SOLV>
0

>  <SCORE.SYSTEM.norm>
0

>  <SCORE.heavy>
12

>  <SCORE.norm>
-0.546402

>  <RMSD>
14.878

$$$$
ligand
 OpenBabel11021811503D
libRbt.so/2013.1/901 2013/11/27
 12 13  0  0  0  0  0  0  0  0999 V2000
   15.1844   18.0287   13.0840 C   0  0  0  0  0  0  0  0  0  0  0  0
   15.9685   17.4879   10.8666 C   0  0  0  0  0  0  0  0  0  0  0  0
   14.2788   18.5649   13.8938 N   0  0  0  0  0  0  0  0  0  0  0  0
   16.2618   17.4415   13.6149 N   0  0  0  0  0  0  0  0  0  0  0  0
   15.0071   18.0653   11.6884 N   0  0  0  0  0  0  0  0  0  0  0  0
   15.8127   17.5265    9.6430 O   0  0  0  0  0  0  0  0  0  0  0  0
   19.1855   15.7076   11.3043 N   0  0  0  0  0  0  0  0  0  0  0  0
   19.2876   15.7110   12.7043 C   0  0  0  0  0  0  0  0  0  0  0  0
   18.2675   16.3077   13.4687 N   0  0  0  0  0  0  0  0  0  0  0  0
   17.2147   16.8854   12.8562 C   0  0  0  0  0  0  0  0  0  0  0  0
   17.0845   16.8930   11.4606 C   0  0  0  0  0  0  0  0  0  0  0  0
   18.0702   16.3121   10.6764 C   0  0  0  0  0  0  0  0  0  0  0  0
  1  3  1  0  0  0  0
  1  4  2  0  0  0  0
  1  5  1  0  0  0  0
  2  6  2  0  0  0  0
  2 11  1  0  0  0  0
  2  5  1  0  0  0  0
  4 10  1  0  0  0  0
  7  8  2  0  0  0  0
  7 12  1  0  0  0  0
  8  9  1  0  0  0  0
  9 10  2  0  0  0  0
 10 11  1  0  0  0  0
 11 12  2  0  0  0  0
M  END
>  <CHROM.1>
16.76423219,17.09777859,12.08645267,-2.94988982,0.51019193,-1.61273149

>  <Name>
ligand

>  <RI>
0

>  <Rbt.Current_Directory>
/home/itssahil/PROJECTS/Mol_Feturizer/New_Systems/rnas/4LX6

>  <Rbt.Executable>
rbdock ($Id: //depot/dev/client3/rdock/2013.1/src/exe/rbdock.cxx#4 $)

>  <Rbt.Library>
libRbt.so (2013.1, Build901 2013/11/27)

>  <Rbt.Parameter_File>
/export/apps/rDock/src/rDock_2013.1_src/data/scripts/dock_solv.prm

>  <Rbt.Receptor>
prm/blind_docking_40.prm

>  <SCORE>
-5.77194

>  <SCORE.INTER>
-5.77194

>  <SCORE.INTER.CONST>
1

>  <SCORE.INTER.POLAR>
0

>  <SCORE.INTER.ROT>
0

>  <SCORE.INTER.SOLV>
4.30646

>  <SCORE.INTER.VDW>
-8.88345

>  <SCORE.INTER.norm>
-0.480995

>  <SCORE.INTRA>
0

>  <SCORE.INTRA.DIHEDRAL>
0

>  <SCORE.INTRA.DIHEDRAL.0>
0

>  <SCORE.INTRA.POLAR>
0

>  <SCORE.INTRA.POLAR.0>
0

>  <SCORE.INTRA.REPUL>
0

>  <SCORE.INTRA.REPUL.0>
0

>  <SCORE.INTRA.SOLV>
0

>  <SCORE.INTRA.SOLV.lig_0>
-28.9128

>  <SCORE.INTRA.VDW>
0

>  <SCORE.INTRA.VDW.0>
0

>  <SCORE.INTRA.norm>
0

>  <SCORE.RESTR>
0

>  <SCORE.RESTR.CAVITY>
0

>  <SCORE.RESTR.norm>
0

>  <SCORE.SYSTEM>
0

>  <SCORE.SYSTEM.CONST>
0

>  <SCORE.SYSTEM.DIHEDRAL>
0

>  <SCORE.SYSTEM.SOLV>
0

>  <SCORE.SYSTEM.norm>
0

>  <SCORE.heavy>
12

>  <SCORE.norm>
-0.480995

>  <RMSD>
14.983

$$$$
ligand
 OpenBabel11021811503D
libRbt.so/2013.1/901 2013/11/27
 12 13  0  0  0  0  0  0  0  0999 V2000
   16.5746   16.3572   11.5373 C   0  0  0  0  0  0  0  0  0  0  0  0
   18.3063   14.7365   11.9825 C   0  0  0  0  0  0  0  0  0  0  0  0
   16.1936   17.5667   11.1429 N   0  0  0  0  0  0  0  0  0  0  0  0
   15.6418   15.4660   11.8878 N   0  0  0  0  0  0  0  0  0  0  0  0
   17.9388   16.0133   11.5731 N   0  0  0  0  0  0  0  0  0  0  0  0
   19.5037   14.4398   12.0180 O   0  0  0  0  0  0  0  0  0  0  0  0
   16.5878   11.6634   13.1281 N   0  0  0  0  0  0  0  0  0  0  0  0
   15.2498   12.0830   13.0630 C   0  0  0  0  0  0  0  0  0  0  0  0
   14.9573   13.3896   12.6290 N   0  0  0  0  0  0  0  0  0  0  0  0
   15.9571   14.2312   12.2986 C   0  0  0  0  0  0  0  0  0  0  0  0
   17.3014   13.8379   12.3499 C   0  0  0  0  0  0  0  0  0  0  0  0
   17.6260   12.5568   12.7710 C   0  0  0  0  0  0  0  0  0  0  0  0
  1  3  1  0  0  0  0
  1  4  2  0  0  0  0
  1  5  1  0  0  0  0
  2  6  2  0  0  0  0
  2 11  1  0  0  0  0
  2  5  1  0  0  0  0
  4 10  1  0  0  0  0
  7  8  2  0  0  0  0
  7 12  1  0  0  0  0
  8  9  1  0  0  0  0
  9 10  2  0  0  0  0
 10 11  1  0  0  0  0
 11 12  2  0  0  0  0
M  END
>  <CHROM.1>
16.85246606,14.39267094,12.18592423,1.37713192,0.05364628,-0.32785207

>  <Name>
ligand

>  <RI>
0

>  <Rbt.Current_Directory>
/home/itssahil/PROJECTS/Mol_Feturizer/New_Systems/rnas/4LX6

>  <Rbt.Executable>
rbdock ($Id: //depot/dev/client3/rdock/2013.1/src/exe/rbdock.cxx#4 $)

>  <Rbt.Library>
libRbt.so (2013.1, Build901 2013/11/27)

>  <Rbt.Parameter_File>
/export/apps/rDock/src/rDock_2013.1_src/data/scripts/dock_solv.prm

>  <Rbt.Receptor>
prm/blind_docking_40.prm

>  <SCORE>
-8.94198

>  <SCORE.INTER>
-8.94198

>  <SCORE.INTER.CONST>
1

>  <SCORE.INTER.POLAR>
0

>  <SCORE.INTER.ROT>
0

>  <SCORE.INTER.SOLV>
4.62379

>  <SCORE.INTER.VDW>
-11.1026

>  <SCORE.INTER.norm>
-0.745165

>  <SCORE.INTRA>
0

>  <SCORE.INTRA.DIHEDRAL>
0

>  <SCORE.INTRA.DIHEDRAL.0>
0

>  <SCORE.INTRA.POLAR>
0

>  <SCORE.INTRA.POLAR.0>
0

>  <SCORE.INTRA.REPUL>
0

>  <SCORE.INTRA.REPUL.0>
0

>  <SCORE.INTRA.SOLV>
0

>  <SCORE.INTRA.SOLV.lig_0>
-28.9128

>  <SCORE.INTRA.VDW>
0

>  <SCORE.INTRA.VDW.0>
0

>  <SCORE.INTRA.norm>
0

>  <SCORE.RESTR>
0

>  <SCORE.RESTR.CAVITY>
0

>  <SCORE.RESTR.norm>
0

>  <SCORE.SYSTEM>
0

>  <SCORE.SYSTEM.CONST>
0

>  <SCORE.SYSTEM.DIHEDRAL>
0

>  <SCORE.SYSTEM.SOLV>
0

>  <SCORE.SYSTEM.norm>
0

>  <SCORE.heavy>
12

>  <SCORE.norm>
-0.745165

>  <RMSD>
15.293

$$$$
ligand
 OpenBabel11021811503D
libRbt.so/2013.1/901 2013/11/27
 12 13  0  0  0  0  0  0  0  0999 V2000
   16.5859   16.3128   11.5702 C   0  0  0  0  0  0  0  0  0  0  0  0
   18.3125   14.6837   12.0050 C   0  0  0  0  0  0  0  0  0  0  0  0
   16.2085   17.5248   11.1802 N   0  0  0  0  0  0  0  0  0  0  0  0
   15.6507   15.4247   11.9221 N   0  0  0  0  0  0  0  0  0  0  0  0
   17.9488   15.9631   11.6001 N   0  0  0  0  0  0  0  0  0  0  0  0
   19.5087   14.3819   12.0353 O   0  0  0  0  0  0  0  0  0  0  0  0
   16.5853   11.6151   13.1498 N   0  0  0  0  0  0  0  0  0  0  0  0
   15.2489   12.0405   13.0907 C   0  0  0  0  0  0  0  0  0  0  0  0
   14.9602   13.3493   12.6609 N   0  0  0  0  0  0  0  0  0  0  0  0
   15.9623   14.1875   12.3288 C   0  0  0  0  0  0  0  0  0  0  0  0
   17.3052   13.7885   12.3740 C   0  0  0  0  0  0  0  0  0  0  0  0
   17.6259   12.5050   12.7909 C   0  0  0  0  0  0  0  0  0  0  0  0
  1  3  1  0  0  0  0
  1  4  2  0  0  0  0
  1  5  1  0  0  0  0
  2  6  2  0  0  0  0
  2 11  1  0  0  0  0
  2  5  1  0  0  0  0
  4 10  1  0  0  0  0
  7  8  2  0  0  0  0
  7 12  1  0  0  0  0
  8  9  1  0  0  0  0
  9 10  2  0  0  0  0
 10 11  1  0  0  0  0
 11 12  2  0  0  0  0
M  END
>  <CHROM.1>
16.85794379,14.34551094,12.21309990,1.37436121,0.05855124,-0.32530658

>  <Name>
ligand

>  <RI>
0

>  <Rbt.Current_Directory>
/home/itssahil/PROJECTS/Mol_Feturizer/New_Systems/rnas/4LX6

>  <Rbt.Executable>
rbdock ($Id: //depot/dev/client3/rdock/2013.1/src/exe/rbdock.cxx#4 $)

>  <Rbt.Library>
libRbt.so (2013.1, Build901 2013/11/27)

>  <Rbt.Parameter_File>
/export/apps/rDock/src/rDock_2013.1_src/data/scripts/dock_solv.prm

>  <Rbt.Receptor>
prm/blind_docking_60.prm

>  <SCORE>
-8.91393

>  <SCORE.INTER>
-8.91393

>  <SCORE.INTER.CONST>
1

>  <SCORE.INTER.POLAR>
0

>  <SCORE.INTER.ROT>
0

>  <SCORE.INTER.SOLV>
4.64595

>  <SCORE.INTER.VDW>
-11.0913

>  <SCORE.INTER.norm>
-0.742827

>  <SCORE.INTRA>
0

>  <SCORE.INTRA.DIHEDRAL>
0

>  <SCORE.INTRA.DIHEDRAL.0>
0

>  <SCORE.INTRA.POLAR>
0

>  <SCORE.INTRA.POLAR.0>
0

>  <SCORE.INTRA.REPUL>
0

>  <SCORE.INTRA.REPUL.0>
0

>  <SCORE.INTRA.SOLV>
0

>  <SCORE.INTRA.SOLV.lig_0>
-28.9128

>  <SCORE.INTRA.VDW>
0

>  <SCORE.INTRA.VDW.0>
0

>  <SCORE.INTRA.norm>
0

>  <SCORE.RESTR>
0

>  <SCORE.RESTR.CAVITY>
0

>  <SCORE.RESTR.norm>
0

>  <SCORE.SYSTEM>
0

>  <SCORE.SYSTEM.CONST>
0

>  <SCORE.SYSTEM.DIHEDRAL>
0

>  <SCORE.SYSTEM.SOLV>
0

>  <SCORE.SYSTEM.norm>
0

>  <SCORE.heavy>
12

>  <SCORE.norm>
-0.742827

>  <RMSD>
15.293

$$$$
ligand
 OpenBabel11021811503D
libRbt.so/2013.1/901 2013/11/27
 12 13  0  0  0  0  0  0  0  0999 V2000
   16.5580   16.3467   11.5658 C   0  0  0  0  0  0  0  0  0  0  0  0
   18.2932   14.7241   11.9901 C   0  0  0  0  0  0  0  0  0  0  0  0
   16.1742   17.5598   11.1855 N   0  0  0  0  0  0  0  0  0  0  0  0
   15.6273   15.4500   11.9079 N   0  0  0  0  0  0  0  0  0  0  0  0
   17.9228   16.0048   11.5955 N   0  0  0  0  0  0  0  0  0  0  0  0
   19.4912   14.4292   12.0204 O   0  0  0  0  0  0  0  0  0  0  0  0
   16.5819   11.6355   13.1043 N   0  0  0  0  0  0  0  0  0  0  0  0
   15.2431   12.0534   13.0461 C   0  0  0  0  0  0  0  0  0  0  0  0
   14.9476   13.3642   12.6271 N   0  0  0  0  0  0  0  0  0  0  0  0
   15.9454   14.2113   12.3045 C   0  0  0  0  0  0  0  0  0  0  0  0
   17.2905   13.8198   12.3491 C   0  0  0  0  0  0  0  0  0  0  0  0
   17.6180   12.5346   12.7555 C   0  0  0  0  0  0  0  0  0  0  0  0
  1  3  1  0  0  0  0
  1  4  2  0  0  0  0
  1  5  1  0  0  0  0
  2  6  2  0  0  0  0
  2 11  1  0  0  0  0
  2  5  1  0  0  0  0
  4 10  1  0  0  0  0
  7  8  2  0  0  0  0
  7 12  1  0  0  0  0
  8  9  1  0  0  0  0
  9 10  2  0  0  0  0
 10 11  1  0  0  0  0
 11 12  2  0  0  0  0
M  END
>  <CHROM.1>
16.84030241,14.37553178,12.19209193,1.37930737,0.05465286,-0.31686394

>  <Name>
ligand

>  <RI>
0

>  <Rbt.Current_Directory>
/home/itssahil/PROJECTS/Mol_Feturizer/New_Systems/rnas/4LX6

>  <Rbt.Executable>
rbdock ($Id: //depot/dev/client3/rdock/2013.1/src/exe/rbdock.cxx#4 $)

>  <Rbt.Library>
libRbt.so (2013.1, Build901 2013/11/27)

>  <Rbt.Parameter_File>
/export/apps/rDock/src/rDock_2013.1_src/data/scripts/dock_solv.prm

>  <Rbt.Receptor>
prm/blind_docking_40.prm

>  <SCORE>
-8.97678

>  <SCORE.INTER>
-8.97678

>  <SCORE.INTER.CONST>
1

>  <SCORE.INTER.POLAR>
0

>  <SCORE.INTER.ROT>
0

>  <SCORE.INTER.SOLV>
4.50895

>  <SCORE.INTER.VDW>
-11.0875

>  <SCORE.INTER.norm>
-0.748065

>  <SCORE.INTRA>
0

>  <SCORE.INTRA.DIHEDRAL>
0

>  <SCORE.INTRA.DIHEDRAL.0>
0

>  <SCORE.INTRA.POLAR>
0

>  <SCORE.INTRA.POLAR.0>
0

>  <SCORE.INTRA.REPUL>
0

>  <SCORE.INTRA.REPUL.0>
0

>  <SCORE.INTRA.SOLV>
0

>  <SCORE.INTRA.SOLV.lig_0>
-28.9128

>  <SCORE.INTRA.VDW>
0

>  <SCORE.INTRA.VDW.0>
0

>  <SCORE.INTRA.norm>
0

>  <SCORE.RESTR>
0

>  <SCORE.RESTR.CAVITY>
0

>  <SCORE.RESTR.norm>
0

>  <SCORE.SYSTEM>
0

>  <SCORE.SYSTEM.CONST>
0

>  <SCORE.SYSTEM.DIHEDRAL>
0

>  <SCORE.SYSTEM.SOLV>
0

>  <SCORE.SYSTEM.norm>
0

>  <SCORE.heavy>
12

>  <SCORE.norm>
-0.748065

>  <RMSD>
15.309

$$$$
ligand
 OpenBabel11021811503D
libRbt.so/2013.1/901 2013/11/27
 12 13  0  0  0  0  0  0  0  0999 V2000
   15.1488   18.0206   11.2576 C   0  0  0  0  0  0  0  0  0  0  0  0
   13.9240   16.3065   12.4348 C   0  0  0  0  0  0  0  0  0  0  0  0
   15.2141   19.2282   10.7090 N   0  0  0  0  0  0  0  0  0  0  0  0
   16.2347   17.2410   11.2396 N   0  0  0  0  0  0  0  0  0  0  0  0
   13.9591   17.5726   11.8613 N   0  0  0  0  0  0  0  0  0  0  0  0
   12.8775   15.9145   12.9585 O   0  0  0  0  0  0  0  0  0  0  0  0
   16.2668   13.4750   12.8857 N   0  0  0  0  0  0  0  0  0  0  0  0
   17.4142   13.9954   12.2668 C   0  0  0  0  0  0  0  0  0  0  0  0
   17.3738   15.2905   11.7171 N   0  0  0  0  0  0  0  0  0  0  0  0
   16.2362   16.0118   11.7707 C   0  0  0  0  0  0  0  0  0  0  0  0
   15.0772   15.5193   12.3862 C   0  0  0  0  0  0  0  0  0  0  0  0
   15.0820   14.2476   12.9402 C   0  0  0  0  0  0  0  0  0  0  0  0
  1  3  1  0  0  0  0
  1  4  2  0  0  0  0
  1  5  1  0  0  0  0
  2  6  2  0  0  0  0
  2 11  1  0  0  0  0
  2  5  1  0  0  0  0
  4 10  1  0  0  0  0
  7  8  2  0  0  0  0
  7 12  1  0  0  0  0
  8  9  1  0  0  0  0
  9 10  2  0  0  0  0
 10 11  1  0  0  0  0
 11 12  2  0  0  0  0
M  END
>  <CHROM.1>
15.36285755,16.09580024,12.03661148,-2.00525299,-0.30014454,2.72695554

>  <Name>
ligand

>  <RI>
0

>  <Rbt.Current_Directory>
/home/itssahil/PROJECTS/Mol_Feturizer/New_Systems/rnas/4LX6

>  <Rbt.Executable>
rbdock ($Id: //depot/dev/client3/rdock/2013.1/src/exe/rbdock.cxx#4 $)

>  <Rbt.Library>
libRbt.so (2013.1, Build901 2013/11/27)

>  <Rbt.Parameter_File>
/export/apps/rDock/src/rDock_2013.1_src/data/scripts/dock_solv.prm

>  <Rbt.Receptor>
prm/blind_docking_40.prm

>  <SCORE>
-6.72478

>  <SCORE.INTER>
-6.72478

>  <SCORE.INTER.CONST>
1

>  <SCORE.INTER.POLAR>
0

>  <SCORE.INTER.ROT>
0

>  <SCORE.INTER.SOLV>
1.81802

>  <SCORE.INTER.VDW>
-8.68919

>  <SCORE.INTER.norm>
-0.560398

>  <SCORE.INTRA>
0

>  <SCORE.INTRA.DIHEDRAL>
0

>  <SCORE.INTRA.DIHEDRAL.0>
0

>  <SCORE.INTRA.POLAR>
0

>  <SCORE.INTRA.POLAR.0>
0

>  <SCORE.INTRA.REPUL>
0

>  <SCORE.INTRA.REPUL.0>
0

>  <SCORE.INTRA.SOLV>
0

>  <SCORE.INTRA.SOLV.lig_0>
-28.9128

>  <SCORE.INTRA.VDW>
0

>  <SCORE.INTRA.VDW.0>
0

>  <SCORE.INTRA.norm>
0

>  <SCORE.RESTR>
0

>  <SCORE.RESTR.CAVITY>
0

>  <SCORE.RESTR.norm>
0

>  <SCORE.SYSTEM>
0

>  <SCORE.SYSTEM.CONST>
0

>  <SCORE.SYSTEM.DIHEDRAL>
0

>  <SCORE.SYSTEM.SOLV>
0

>  <SCORE.SYSTEM.norm>
0

>  <SCORE.heavy>
12

>  <SCORE.norm>
-0.560398

>  <RMSD>
16.254

$$$$
ligand
 OpenBabel11021811503D
libRbt.so/2013.1/901 2013/11/27
 12 13  0  0  0  0  0  0  0  0999 V2000
   14.9925   17.9583   11.4560 C   0  0  0  0  0  0  0  0  0  0  0  0
   13.7862   16.1984   12.5836 C   0  0  0  0  0  0  0  0  0  0  0  0
   15.0454   19.1824   10.9438 N   0  0  0  0  0  0  0  0  0  0  0  0
   16.0855   17.1897   11.4123 N   0  0  0  0  0  0  0  0  0  0  0  0
   13.8084   17.4814   12.0484 N   0  0  0  0  0  0  0  0  0  0  0  0
   12.7446   15.7812   13.0975 O   0  0  0  0  0  0  0  0  0  0  0  0
   16.1560   13.3764   12.9445 N   0  0  0  0  0  0  0  0  0  0  0  0
   17.2971   13.9258   12.3392 C   0  0  0  0  0  0  0  0  0  0  0  0
   17.2436   15.2364   11.8287 N   0  0  0  0  0  0  0  0  0  0  0  0
   16.0995   15.9451   11.9063 C   0  0  0  0  0  0  0  0  0  0  0  0
   14.9465   15.4237   12.5090 C   0  0  0  0  0  0  0  0  0  0  0  0
   14.9643   14.1361   13.0246 C   0  0  0  0  0  0  0  0  0  0  0  0
  1  3  1  0  0  0  0
  1  4  2  0  0  0  0
  1  5  1  0  0  0  0
  2  6  2  0  0  0  0
  2 11  1  0  0  0  0
  2  5  1  0  0  0  0
  4 10  1  0  0  0  0
  7  8  2  0  0  0  0
  7 12  1  0  0  0  0
  8  9  1  0  0  0  0
  9 10  2  0  0  0  0
 10 11  1  0  0  0  0
 11 12  2  0  0  0  0
M  END
>  <CHROM.1>
15.22604910,16.01305796,12.17639507,-2.01503530,-0.29854934,2.75410552

>  <Name>
ligand

>  <RI>
0

>  <Rbt.Current_Directory>
/home/itssahil/PROJECTS/Mol_Feturizer/New_Systems/rnas/4LX6

>  <Rbt.Executable>
rbdock ($Id: //depot/dev/client3/rdock/2013.1/src/exe/rbdock.cxx#4 $)

>  <Rbt.Library>
libRbt.so (2013.1, Build901 2013/11/27)

>  <Rbt.Parameter_File>
/export/apps/rDock/src/rDock_2013.1_src/data/scripts/dock_solv.prm

>  <Rbt.Receptor>
prm/blind_docking_80.prm

>  <SCORE>
-6.68815

>  <SCORE.INTER>
-6.68815

>  <SCORE.INTER.CONST>
1

>  <SCORE.INTER.POLAR>
0

>  <SCORE.INTER.ROT>
0

>  <SCORE.INTER.SOLV>
2.01051

>  <SCORE.INTER.VDW>
-8.72894

>  <SCORE.INTER.norm>
-0.557346

>  <SCORE.INTRA>
0

>  <SCORE.INTRA.DIHEDRAL>
0

>  <SCORE.INTRA.DIHEDRAL.0>
0

>  <SCORE.INTRA.POLAR>
0

>  <SCORE.INTRA.POLAR.0>
0

>  <SCORE.INTRA.REPUL>
0

>  <SCORE.INTRA.REPUL.0>
0

>  <SCORE.INTRA.SOLV>
0

>  <SCORE.INTRA.SOLV.lig_0>
-28.9128

>  <SCORE.INTRA.VDW>
0

>  <SCORE.INTRA.VDW.0>
0

>  <SCORE.INTRA.norm>
0

>  <SCORE.RESTR>
0

>  <SCORE.RESTR.CAVITY>
0

>  <SCORE.RESTR.norm>
0

>  <SCORE.SYSTEM>
0

>  <SCORE.SYSTEM.CONST>
0

>  <SCORE.SYSTEM.DIHEDRAL>
0

>  <SCORE.SYSTEM.SOLV>
0

>  <SCORE.SYSTEM.norm>
0

>  <SCORE.heavy>
12

>  <SCORE.norm>
-0.557346

>  <RMSD>
16.368

$$$$
ligand
 OpenBabel11021811503D
libRbt.so/2013.1/901 2013/11/27
 12 13  0  0  0  0  0  0  0  0999 V2000
   16.1613   13.8009   12.8694 C   0  0  0  0  0  0  0  0  0  0  0  0
   16.5117   15.8485   11.6411 C   0  0  0  0  0  0  0  0  0  0  0  0
   16.5657   12.5946   13.2498 N   0  0  0  0  0  0  0  0  0  0  0  0
   14.9913   14.2645   13.3205 N   0  0  0  0  0  0  0  0  0  0  0  0
   16.9579   14.5860   12.0152 N   0  0  0  0  0  0  0  0  0  0  0  0
   17.2100   16.5322   10.8875 O   0  0  0  0  0  0  0  0  0  0  0  0
   13.5467   17.9706   12.2856 N   0  0  0  0  0  0  0  0  0  0  0  0
   12.8128   17.1279   13.1350 C   0  0  0  0  0  0  0  0  0  0  0  0
   13.3365   15.8667   13.4758 N   0  0  0  0  0  0  0  0  0  0  0  0
   14.5226   15.4697   12.9732 C   0  0  0  0  0  0  0  0  0  0  0  0
   15.2789   16.2919   12.1266 C   0  0  0  0  0  0  0  0  0  0  0  0
   14.7941   17.5421   11.7717 C   0  0  0  0  0  0  0  0  0  0  0  0
  1  3  1  0  0  0  0
  1  4  2  0  0  0  0
  1  5  1  0  0  0  0
  2  6  2  0  0  0  0
  2 11  1  0  0  0  0
  2  5  1  0  0  0  0
  4 10  1  0  0  0  0
  7  8  2  0  0  0  0
  7 12  1  0  0  0  0
  8  9  1  0  0  0  0
  9 10  2  0  0  0  0
 10 11  1  0  0  0  0
 11 12  2  0  0  0  0
M  END
>  <CHROM.1>
15.26510861,15.64204268,12.46373200,0.73768680,-0.47779460,2.67378055

>  <Name>
ligand

>  <RI>
0

>  <Rbt.Current_Directory>
/home/itssahil/PROJECTS/Mol_Feturizer/New_Systems/rnas/4LX6

>  <Rbt.Executable>
rbdock ($Id: //depot/dev/client3/rdock/2013.1/src/exe/rbdock.cxx#4 $)

>  <Rbt.Library>
libRbt.so (2013.1, Build901 2013/11/27)

>  <Rbt.Parameter_File>
/export/apps/rDock/src/rDock_2013.1_src/data/scripts/dock_solv.prm

>  <Rbt.Receptor>
prm/blind_docking_40.prm

>  <SCORE>
-6.72552

>  <SCORE.INTER>
-6.72552

>  <SCORE.INTER.CONST>
1

>  <SCORE.INTER.POLAR>
0

>  <SCORE.INTER.ROT>
0

>  <SCORE.INTER.SOLV>
3.9748

>  <SCORE.INTER.VDW>
-9.40861

>  <SCORE.INTER.norm>
-0.56046

>  <SCORE.INTRA>
0

>  <SCORE.INTRA.DIHEDRAL>
0

>  <SCORE.INTRA.DIHEDRAL.0>
0

>  <SCORE.INTRA.POLAR>
0

>  <SCORE.INTRA.POLAR.0>
0

>  <SCORE.INTRA.REPUL>
0

>  <SCORE.INTRA.REPUL.0>
0

>  <SCORE.INTRA.SOLV>
0

>  <SCORE.INTRA.SOLV.lig_0>
-28.9128

>  <SCORE.INTRA.VDW>
0

>  <SCORE.INTRA.VDW.0>
0

>  <SCORE.INTRA.norm>
0

>  <SCORE.RESTR>
0

>  <SCORE.RESTR.CAVITY>
0

>  <SCORE.RESTR.norm>
0

>  <SCORE.SYSTEM>
0

>  <SCORE.SYSTEM.CONST>
0

>  <SCORE.SYSTEM.DIHEDRAL>
0

>  <SCORE.SYSTEM.SOLV>
0

>  <SCORE.SYSTEM.norm>
0

>  <SCORE.heavy>
12

>  <SCORE.norm>
-0.56046

>  <RMSD>
16.484

$$$$
ligand
 OpenBabel11021811503D
libRbt.so/2013.1/901 2013/11/27
 12 13  0  0  0  0  0  0  0  0999 V2000
   14.6898   18.1404   11.5723 C   0  0  0  0  0  0  0  0  0  0  0  0
   13.3675   16.6159   12.8957 C   0  0  0  0  0  0  0  0  0  0  0  0
   15.1891   18.5271   10.4041 N   0  0  0  0  0  0  0  0  0  0  0  0
   14.9544   18.8672   12.6627 N   0  0  0  0  0  0  0  0  0  0  0  0
   13.8829   16.9907   11.6600 N   0  0  0  0  0  0  0  0  0  0  0  0
   12.6648   15.6041   12.9701 O   0  0  0  0  0  0  0  0  0  0  0  0
   13.5070   17.8678   16.3775 N   0  0  0  0  0  0  0  0  0  0  0  0
   14.3174   19.0010   16.2062 C   0  0  0  0  0  0  0  0  0  0  0  0
   14.7934   19.3205   14.9207 N   0  0  0  0  0  0  0  0  0  0  0  0
   14.4862   18.5317   13.8715 C   0  0  0  0  0  0  0  0  0  0  0  0
   13.6757   17.3969   14.0124 C   0  0  0  0  0  0  0  0  0  0  0  0
   13.1875   17.0536   15.2646 C   0  0  0  0  0  0  0  0  0  0  0  0
  1  3  1  0  0  0  0
  1  4  2  0  0  0  0
  1  5  1  0  0  0  0
  2  6  2  0  0  0  0
  2 11  1  0  0  0  0
  2  5  1  0  0  0  0
  4 10  1  0  0  0  0
  7  8  2  0  0  0  0
  7 12  1  0  0  0  0
  8  9  1  0  0  0  0
  9 10  2  0  0  0  0
 10 11  1  0  0  0  0
 11 12  2  0  0  0  0
M  END
>  <CHROM.1>
14.05005167,17.80116089,13.53014366,-1.34487795,0.95154834,1.27724348

>  <Name>
ligand

>  <RI>
0

>  <Rbt.Current_Directory>
/home/itssahil/PROJECTS/Mol_Feturizer/New_Systems/rnas/4LX6

>  <Rbt.Executable>
rbdock ($Id: //depot/dev/client3/rdock/2013.1/src/exe/rbdock.cxx#4 $)

>  <Rbt.Library>
libRbt.so (2013.1, Build901 2013/11/27)

>  <Rbt.Parameter_File>
/export/apps/rDock/src/rDock_2013.1_src/data/scripts/dock_solv.prm

>  <Rbt.Receptor>
prm/blind_docking_40.prm

>  <SCORE>
-7.43892

>  <SCORE.INTER>
-7.43892

>  <SCORE.INTER.CONST>
1

>  <SCORE.INTER.POLAR>
0

>  <SCORE.INTER.ROT>
0

>  <SCORE.INTER.SOLV>
4.3631

>  <SCORE.INTER.VDW>
-10.0136

>  <SCORE.INTER.norm>
-0.61991

>  <SCORE.INTRA>
0

>  <SCORE.INTRA.DIHEDRAL>
0

>  <SCORE.INTRA.DIHEDRAL.0>
0

>  <SCORE.INTRA.POLAR>
0

>  <SCORE.INTRA.POLAR.0>
0

>  <SCORE.INTRA.REPUL>
0

>  <SCORE.INTRA.REPUL.0>
0

>  <SCORE.INTRA.SOLV>
0

>  <SCORE.INTRA.SOLV.lig_0>
-28.9128

>  <SCORE.INTRA.VDW>
0

>  <SCORE.INTRA.VDW.0>
0

>  <SCORE.INTRA.norm>
0

>  <SCORE.RESTR>
0

>  <SCORE.RESTR.CAVITY>
0

>  <SCORE.RESTR.norm>
0

>  <SCORE.SYSTEM>
0

>  <SCORE.SYSTEM.CONST>
0

>  <SCORE.SYSTEM.DIHEDRAL>
0

>  <SCORE.SYSTEM.SOLV>
0

>  <SCORE.SYSTEM.norm>
0

>  <SCORE.heavy>
12

>  <SCORE.norm>
-0.61991

>  <RMSD>
16.943

$$$$
ligand
 OpenBabel11021811503D
libRbt.so/2013.1/901 2013/11/27
 12 13  0  0  0  0  0  0  0  0999 V2000
   14.3528   18.5120   12.2790 C   0  0  0  0  0  0  0  0  0  0  0  0
   13.1518   16.5838   13.0936 C   0  0  0  0  0  0  0  0  0  0  0  0
   14.8683   19.2187   11.2799 N   0  0  0  0  0  0  0  0  0  0  0  0
   14.4629   18.9784   13.5271 N   0  0  0  0  0  0  0  0  0  0  0  0
   13.6884   17.2971   12.0277 N   0  0  0  0  0  0  0  0  0  0  0  0
   12.5746   15.5161   12.8703 O   0  0  0  0  0  0  0  0  0  0  0  0
   12.9349   16.9677   16.7699 N   0  0  0  0  0  0  0  0  0  0  0  0
   13.6096   18.1873   16.9368 C   0  0  0  0  0  0  0  0  0  0  0  0
   14.1169   18.8550   15.8063 N   0  0  0  0  0  0  0  0  0  0  0  0
   13.9698   18.3144   14.5802 C   0  0  0  0  0  0  0  0  0  0  0  0
   13.2969   17.1007   14.3835 C   0  0  0  0  0  0  0  0  0  0  0  0
   12.7824   16.4167   15.4750 C   0  0  0  0  0  0  0  0  0  0  0  0
  1  3  1  0  0  0  0
  1  4  2  0  0  0  0
  1  5  1  0  0  0  0
  2  6  2  0  0  0  0
  2 11  1  0  0  0  0
  2  5  1  0  0  0  0
  4 10  1  0  0  0  0
  7  8  2  0  0  0  0
  7 12  1  0  0  0  0
  8  9  1  0  0  0  0
  9 10  2  0  0  0  0
 10 11  1  0  0  0  0
 11 12  2  0  0  0  0
M  END
>  <CHROM.1>
13.64654456,17.64610799,14.04225859,-1.16274909,1.04489635,1.36398097

>  <Name>
ligand

>  <RI>
0

>  <Rbt.Current_Directory>
/home/itssahil/PROJECTS/Mol_Feturizer/New_Systems/rnas/4LX6

>  <Rbt.Executable>
rbdock ($Id: //depot/dev/client3/rdock/2013.1/src/exe/rbdock.cxx#4 $)

>  <Rbt.Library>
libRbt.so (2013.1, Build901 2013/11/27)

>  <Rbt.Parameter_File>
/export/apps/rDock/src/rDock_2013.1_src/data/scripts/dock_solv.prm

>  <Rbt.Receptor>
prm/blind_docking_60.prm

>  <SCORE>
-8.3002

>  <SCORE.INTER>
-8.3002

>  <SCORE.INTER.CONST>
1

>  <SCORE.INTER.POLAR>
0

>  <SCORE.INTER.ROT>
0

>  <SCORE.INTER.SOLV>
3.32837

>  <SCORE.INTER.VDW>
-10.2429

>  <SCORE.INTER.norm>
-0.691683

>  <SCORE.INTRA>
0

>  <SCORE.INTRA.DIHEDRAL>
0

>  <SCORE.INTRA.DIHEDRAL.0>
0

>  <SCORE.INTRA.POLAR>
0

>  <SCORE.INTRA.POLAR.0>
0

>  <SCORE.INTRA.REPUL>
0

>  <SCORE.INTRA.REPUL.0>
0

>  <SCORE.INTRA.SOLV>
0

>  <SCORE.INTRA.SOLV.lig_0>
-28.9128

>  <SCORE.INTRA.VDW>
0

>  <SCORE.INTRA.VDW.0>
0

>  <SCORE.INTRA.norm>
0

>  <SCORE.RESTR>
0

>  <SCORE.RESTR.CAVITY>
0

>  <SCORE.RESTR.norm>
0

>  <SCORE.SYSTEM>
0

>  <SCORE.SYSTEM.CONST>
0

>  <SCORE.SYSTEM.DIHEDRAL>
0

>  <SCORE.SYSTEM.SOLV>
0

>  <SCORE.SYSTEM.norm>
0

>  <SCORE.heavy>
12

>  <SCORE.norm>
-0.691683

>  <RMSD>
17.314

$$$$
ligand
 OpenBabel11021811503D
libRbt.so/2013.1/901 2013/11/27
 12 13  0  0  0  0  0  0  0  0999 V2000
   17.3289   23.2576    0.5736 C   0  0  0  0  0  0  0  0  0  0  0  0
   16.3783   23.5603    2.7710 C   0  0  0  0  0  0  0  0  0  0  0  0
   17.6639   23.7349   -0.6195 N   0  0  0  0  0  0  0  0  0  0  0  0
   17.6005   21.9803    0.8602 N   0  0  0  0  0  0  0  0  0  0  0  0
   16.7096   24.0865    1.5275 N   0  0  0  0  0  0  0  0  0  0  0  0
   15.8304   24.2883    3.6033 O   0  0  0  0  0  0  0  0  0  0  0  0
   16.6655   20.2932    4.4896 N   0  0  0  0  0  0  0  0  0  0  0  0
   17.2862   19.5334    3.4858 C   0  0  0  0  0  0  0  0  0  0  0  0
   17.5990   20.1408    2.2552 N   0  0  0  0  0  0  0  0  0  0  0  0
   17.2861   21.4346    2.0418 C   0  0  0  0  0  0  0  0  0  0  0  0
   16.6703   22.2182    3.0274 C   0  0  0  0  0  0  0  0  0  0  0  0
   16.3497   21.6525    4.2527 C   0  0  0  0  0  0  0  0  0  0  0  0
  1  3  1  0  0  0  0
  1  4  2  0  0  0  0
  1  5  1  0  0  0  0
  2  6  2  0  0  0  0
  2 11  1  0  0  0  0
  2  5  1  0  0  0  0
  4 10  1  0  0  0  0
  7  8  2  0  0  0  0
  7 12  1  0  0  0  0
  8  9  1  0  0  0  0
  9 10  2  0  0  0  0
 10 11  1  0  0  0  0
 11 12  2  0  0  0  0
M  END
>  <CHROM.1>
16.93814784,22.22637269,2.34596835,-1.45839016,-1.11157713,2.49765998

>  <Name>
ligand

>  <RI>
0

>  <Rbt.Current_Directory>
/home/itssahil/PROJECTS/Mol_Feturizer/New_Systems/rnas/4LX6

>  <Rbt.Executable>
rbdock ($Id: //depot/dev/client3/rdock/2013.1/src/exe/rbdock.cxx#4 $)

>  <Rbt.Library>
libRbt.so (2013.1, Build901 2013/11/27)

>  <Rbt.Parameter_File>
/export/apps/rDock/src/rDock_2013.1_src/data/scripts/dock_solv.prm

>  <Rbt.Receptor>
prm/blind_docking_60.prm

>  <SCORE>
-6.37659

>  <SCORE.INTER>
-6.37659

>  <SCORE.INTER.CONST>
1

>  <SCORE.INTER.POLAR>
0

>  <SCORE.INTER.ROT>
0

>  <SCORE.INTER.SOLV>
2.24595

>  <SCORE.INTER.VDW>
-8.59971

>  <SCORE.INTER.norm>
-0.531383

>  <SCORE.INTRA>
0

>  <SCORE.INTRA.DIHEDRAL>
0

>  <SCORE.INTRA.DIHEDRAL.0>
0

>  <SCORE.INTRA.POLAR>
0

>  <SCORE.INTRA.POLAR.0>
0

>  <SCORE.INTRA.REPUL>
0

>  <SCORE.INTRA.REPUL.0>
0

>  <SCORE.INTRA.SOLV>
0

>  <SCORE.INTRA.SOLV.lig_0>
-28.9128

>  <SCORE.INTRA.VDW>
0

>  <SCORE.INTRA.VDW.0>
0

>  <SCORE.INTRA.norm>
0

>  <SCORE.RESTR>
0

>  <SCORE.RESTR.CAVITY>
0

>  <SCORE.RESTR.norm>
0

>  <SCORE.SYSTEM>
0

>  <SCORE.SYSTEM.CONST>
0

>  <SCORE.SYSTEM.DIHEDRAL>
0

>  <SCORE.SYSTEM.SOLV>
0

>  <SCORE.SYSTEM.norm>
0

>  <SCORE.heavy>
12

>  <SCORE.norm>
-0.531383

>  <RMSD>
19.886

$$$$
ligand
 OpenBabel11021811503D
libRbt.so/2013.1/901 2013/11/27
 12 13  0  0  0  0  0  0  0  0999 V2000
    7.8326   31.5007    8.6378 C   0  0  0  0  0  0  0  0  0  0  0  0
    7.4160   29.1420    8.3433 C   0  0  0  0  0  0  0  0  0  0  0  0
    7.4971   32.6821    9.1429 N   0  0  0  0  0  0  0  0  0  0  0  0
    8.9479   31.4013    7.9074 N   0  0  0  0  0  0  0  0  0  0  0  0
    7.0343   30.3670    8.8786 N   0  0  0  0  0  0  0  0  0  0  0  0
    6.7108   28.1509    8.5517 O   0  0  0  0  0  0  0  0  0  0  0  0
   10.1868   27.8470    6.2563 N   0  0  0  0  0  0  0  0  0  0  0  0
   10.9291   29.0228    6.0641 C   0  0  0  0  0  0  0  0  0  0  0  0
   10.4821   30.2235    6.6468 N   0  0  0  0  0  0  0  0  0  0  0  0
    9.3418   30.2418    7.3656 C   0  0  0  0  0  0  0  0  0  0  0  0
    8.5832   29.0825    7.5775 C   0  0  0  0  0  0  0  0  0  0  0  0
    8.9953   27.8813    7.0197 C   0  0  0  0  0  0  0  0  0  0  0  0
  1  3  1  0  0  0  0
  1  4  2  0  0  0  0
  1  5  1  0  0  0  0
  2  6  2  0  0  0  0
  2 11  1  0  0  0  0
  2  5  1  0  0  0  0
  4 10  1  0  0  0  0
  7  8  2  0  0  0  0
  7 12  1  0  0  0  0
  8  9  1  0  0  0  0
  9 10  2  0  0  0  0
 10 11  1  0  0  0  0
 11 12  2  0  0  0  0
M  END
>  <CHROM.1>
8.62432549,29.79850246,7.72504542,-2.35990181,-0.55588896,-2.90458143

>  <Name>
ligand

>  <RI>
0

>  <Rbt.Current_Directory>
/home/itssahil/PROJECTS/Mol_Feturizer/New_Systems/rnas/4LX6

>  <Rbt.Executable>
rbdock ($Id: //depot/dev/client3/rdock/2013.1/src/exe/rbdock.cxx#4 $)

>  <Rbt.Library>
libRbt.so (2013.1, Build901 2013/11/27)

>  <Rbt.Parameter_File>
/export/apps/rDock/src/rDock_2013.1_src/data/scripts/dock_solv.prm

>  <Rbt.Receptor>
prm/blind_docking_40.prm

>  <SCORE>
-7.73526

>  <SCORE.INTER>
-7.73526

>  <SCORE.INTER.CONST>
1

>  <SCORE.INTER.POLAR>
0

>  <SCORE.INTER.ROT>
0

>  <SCORE.INTER.SOLV>
6.53933

>  <SCORE.INTER.VDW>
-10.9366

>  <SCORE.INTER.norm>
-0.644605

>  <SCORE.INTRA>
0

>  <SCORE.INTRA.DIHEDRAL>
0

>  <SCORE.INTRA.DIHEDRAL.0>
0

>  <SCORE.INTRA.POLAR>
0

>  <SCORE.INTRA.POLAR.0>
0

>  <SCORE.INTRA.REPUL>
0

>  <SCORE.INTRA.REPUL.0>
0

>  <SCORE.INTRA.SOLV>
0

>  <SCORE.INTRA.SOLV.lig_0>
-28.9128

>  <SCORE.INTRA.VDW>
0

>  <SCORE.INTRA.VDW.0>
0

>  <SCORE.INTRA.norm>
0

>  <SCORE.RESTR>
0

>  <SCORE.RESTR.CAVITY>
0

>  <SCORE.RESTR.norm>
0

>  <SCORE.SYSTEM>
0

>  <SCORE.SYSTEM.CONST>
0

>  <SCORE.SYSTEM.DIHEDRAL>
0

>  <SCORE.SYSTEM.SOLV>
0

>  <SCORE.SYSTEM.norm>
0

>  <SCORE.heavy>
12

>  <SCORE.norm>
-0.644605

>  <RMSD>
26.558

$$$$
ligand
 OpenBabel11021811503D
libRbt.so/2013.1/901 2013/11/27
 12 13  0  0  0  0  0  0  0  0999 V2000
    9.5903   28.1672    7.9480 C   0  0  0  0  0  0  0  0  0  0  0  0
    7.5002   28.8500    6.9535 C   0  0  0  0  0  0  0  0  0  0  0  0
   10.5843   27.2953    8.0713 N   0  0  0  0  0  0  0  0  0  0  0  0
    9.6256   29.2959    8.6636 N   0  0  0  0  0  0  0  0  0  0  0  0
    8.5222   27.9143    7.0672 N   0  0  0  0  0  0  0  0  0  0  0  0
    6.5622   28.6227    6.1843 O   0  0  0  0  0  0  0  0  0  0  0  0
    6.6674   32.1401    8.4340 N   0  0  0  0  0  0  0  0  0  0  0  0
    7.7674   32.3187    9.2874 C   0  0  0  0  0  0  0  0  0  0  0  0
    8.7672   31.3294    9.3400 N   0  0  0  0  0  0  0  0  0  0  0  0
    8.6546   30.2149    8.5901 C   0  0  0  0  0  0  0  0  0  0  0  0
    7.5698   30.0121    7.7261 C   0  0  0  0  0  0  0  0  0  0  0  0
    6.5672   30.9674    7.6475 C   0  0  0  0  0  0  0  0  0  0  0  0
  1  3  1  0  0  0  0
  1  4  2  0  0  0  0
  1  5  1  0  0  0  0
  2  6  2  0  0  0  0
  2 11  1  0  0  0  0
  2  5  1  0  0  0  0
  4 10  1  0  0  0  0
  7  8  2  0  0  0  0
  7 12  1  0  0  0  0
  8  9  1  0  0  0  0
  9 10  2  0  0  0  0
 10 11  1  0  0  0  0
 11 12  2  0  0  0  0
M  END
>  <CHROM.1>
8.19701822,29.72149648,7.96748542,-1.01928970,-0.51989065,0.55448661

>  <Name>
ligand

>  <RI>
0

>  <Rbt.Current_Directory>
/home/itssahil/PROJECTS/Mol_Feturizer/New_Systems/rnas/4LX6

>  <Rbt.Executable>
rbdock ($Id: //depot/dev/client3/rdock/2013.1/src/exe/rbdock.cxx#4 $)

>  <Rbt.Library>
libRbt.so (2013.1, Build901 2013/11/27)

>  <Rbt.Parameter_File>
/export/apps/rDock/src/rDock_2013.1_src/data/scripts/dock_solv.prm

>  <Rbt.Receptor>
prm/blind_docking_60.prm

>  <SCORE>
-7.1764

>  <SCORE.INTER>
-7.1764

>  <SCORE.INTER.CONST>
1

>  <SCORE.INTER.POLAR>
0

>  <SCORE.INTER.ROT>
0

>  <SCORE.INTER.SOLV>
5.21749

>  <SCORE.INTER.VDW>
-10.1234

>  <SCORE.INTER.norm>
-0.598033

>  <SCORE.INTRA>
0

>  <SCORE.INTRA.DIHEDRAL>
0

>  <SCORE.INTRA.DIHEDRAL.0>
0

>  <SCORE.INTRA.POLAR>
0

>  <SCORE.INTRA.POLAR.0>
0

>  <SCORE.INTRA.REPUL>
0

>  <SCORE.INTRA.REPUL.0>
0

>  <SCORE.INTRA.SOLV>
0

>  <SCORE.INTRA.SOLV.lig_0>
-28.9128

>  <SCORE.INTRA.VDW>
0

>  <SCORE.INTRA.VDW.0>
0

>  <SCORE.INTRA.norm>
0

>  <SCORE.RESTR>
0

>  <SCORE.RESTR.CAVITY>
0

>  <SCORE.RESTR.norm>
0

>  <SCORE.SYSTEM>
0

>  <SCORE.SYSTEM.CONST>
0

>  <SCORE.SYSTEM.DIHEDRAL>
0

>  <SCORE.SYSTEM.SOLV>
0

>  <SCORE.SYSTEM.norm>
0

>  <SCORE.heavy>
12

>  <SCORE.norm>
-0.598033

>  <RMSD>
26.720

$$$$
ligand
 OpenBabel11021811503D
libRbt.so/2013.1/901 2013/11/27
 12 13  0  0  0  0  0  0  0  0999 V2000
    9.4162   28.4360    7.1305 C   0  0  0  0  0  0  0  0  0  0  0  0
    7.3637   28.6886    8.3744 C   0  0  0  0  0  0  0  0  0  0  0  0
   10.3093   27.6724    6.5117 N   0  0  0  0  0  0  0  0  0  0  0  0
    9.6003   29.7599    7.1534 N   0  0  0  0  0  0  0  0  0  0  0  0
    8.2856   27.8624    7.7414 N   0  0  0  0  0  0  0  0  0  0  0  0
    6.3761   28.1820    8.9139 O   0  0  0  0  0  0  0  0  0  0  0  0
    6.9629   32.3163    8.9980 N   0  0  0  0  0  0  0  0  0  0  0  0
    8.1139   32.8102    8.3642 C   0  0  0  0  0  0  0  0  0  0  0  0
    8.9953   31.9103    7.7363 N   0  0  0  0  0  0  0  0  0  0  0  0
    8.7413   30.5866    7.7630 C   0  0  0  0  0  0  0  0  0  0  0  0
    7.5979   30.0660    8.3844 C   0  0  0  0  0  0  0  0  0  0  0  0
    6.7066   30.9243    9.0112 C   0  0  0  0  0  0  0  0  0  0  0  0
  1  3  1  0  0  0  0
  1  4  2  0  0  0  0
  1  5  1  0  0  0  0
  2  6  2  0  0  0  0
  2 11  1  0  0  0  0
  2  5  1  0  0  0  0
  4 10  1  0  0  0  0
  7  8  2  0  0  0  0
  7 12  1  0  0  0  0
  8  9  1  0  0  0  0
  9 10  2  0  0  0  0
 10 11  1  0  0  0  0
 11 12  2  0  0  0  0
M  END
>  <CHROM.1>
8.19904846,29.88844413,8.00583050,-1.15430742,0.53607118,0.10463205

>  <Name>
ligand

>  <RI>
0

>  <Rbt.Current_Directory>
/home/itssahil/PROJECTS/Mol_Feturizer/New_Systems/rnas/4LX6

>  <Rbt.Executable>
rbdock ($Id: //depot/dev/client3/rdock/2013.1/src/exe/rbdock.cxx#4 $)

>  <Rbt.Library>
libRbt.so (2013.1, Build901 2013/11/27)

>  <Rbt.Parameter_File>
/export/apps/rDock/src/rDock_2013.1_src/data/scripts/dock_solv.prm

>  <Rbt.Receptor>
prm/blind_docking_40.prm

>  <SCORE>
-7.60427

>  <SCORE.INTER>
-7.60458

>  <SCORE.INTER.CONST>
1

>  <SCORE.INTER.POLAR>
0

>  <SCORE.INTER.ROT>
0

>  <SCORE.INTER.SOLV>
7.10069

>  <SCORE.INTER.VDW>
-11.0366

>  <SCORE.INTER.norm>
-0.633715

>  <SCORE.INTRA>
0

>  <SCORE.INTRA.DIHEDRAL>
0

>  <SCORE.INTRA.DIHEDRAL.0>
0

>  <SCORE.INTRA.POLAR>
0

>  <SCORE.INTRA.POLAR.0>
0

>  <SCORE.INTRA.REPUL>
0

>  <SCORE.INTRA.REPUL.0>
0

>  <SCORE.INTRA.SOLV>
0

>  <SCORE.INTRA.SOLV.lig_0>
-28.9128

>  <SCORE.INTRA.VDW>
0

>  <SCORE.INTRA.VDW.0>
0

>  <SCORE.INTRA.norm>
0

>  <SCORE.RESTR>
0.000317657

>  <SCORE.RESTR.CAVITY>
0.000317657

>  <SCORE.RESTR.norm>
2.64714e-05

>  <SCORE.SYSTEM>
0

>  <SCORE.SYSTEM.CONST>
0

>  <SCORE.SYSTEM.DIHEDRAL>
0

>  <SCORE.SYSTEM.SOLV>
0

>  <SCORE.SYSTEM.norm>
0

>  <SCORE.heavy>
12

>  <SCORE.norm>
-0.633689

>  <RMSD>
26.760

$$$$
ligand
 OpenBabel11021811503D
libRbt.so/2013.1/901 2013/11/27
 12 13  0  0  0  0  0  0  0  0999 V2000
    8.8608   31.9341    9.2460 C   0  0  0  0  0  0  0  0  0  0  0  0
    6.9945   31.4226    7.8041 C   0  0  0  0  0  0  0  0  0  0  0  0
    9.5323   32.7841   10.0143 N   0  0  0  0  0  0  0  0  0  0  0  0
    9.3162   30.6845    9.1104 N   0  0  0  0  0  0  0  0  0  0  0  0
    7.6802   32.3376    8.5951 N   0  0  0  0  0  0  0  0  0  0  0  0
    5.9625   31.7811    7.2302 O   0  0  0  0  0  0  0  0  0  0  0  0
    7.3968   27.8828    6.7952 N   0  0  0  0  0  0  0  0  0  0  0  0
    8.5793   27.5582    7.4784 C   0  0  0  0  0  0  0  0  0  0  0  0
    9.2105   28.5376    8.2679 N   0  0  0  0  0  0  0  0  0  0  0  0
    8.6904   29.7787    8.3481 C   0  0  0  0  0  0  0  0  0  0  0  0
    7.5090   30.1294    7.6805 C   0  0  0  0  0  0  0  0  0  0  0  0
    6.8594   29.1884    6.8953 C   0  0  0  0  0  0  0  0  0  0  0  0
  1  3  1  0  0  0  0
  1  4  2  0  0  0  0
  1  5  1  0  0  0  0
  2  6  2  0  0  0  0
  2 11  1  0  0  0  0
  2  5  1  0  0  0  0
  4 10  1  0  0  0  0
  7  8  2  0  0  0  0
  7 12  1  0  0  0  0
  8  9  1  0  0  0  0
  9 10  2  0  0  0  0
 10 11  1  0  0  0  0
 11 12  2  0  0  0  0
M  END
>  <CHROM.1>
8.03314874,30.37837419,8.12704315,-1.40976623,0.56811639,-2.79500818

>  <Name>
ligand

>  <RI>
0

>  <Rbt.Current_Directory>
/home/itssahil/PROJECTS/Mol_Feturizer/New_Systems/rnas/4LX6

>  <Rbt.Executable>
rbdock ($Id: //depot/dev/client3/rdock/2013.1/src/exe/rbdock.cxx#4 $)

>  <Rbt.Library>
libRbt.so (2013.1, Build901 2013/11/27)

>  <Rbt.Parameter_File>
/export/apps/rDock/src/rDock_2013.1_src/data/scripts/dock_solv.prm

>  <Rbt.Receptor>
prm/blind_docking_100.prm

>  <SCORE>
-7.74596

>  <SCORE.INTER>
-7.74596

>  <SCORE.INTER.CONST>
1

>  <SCORE.INTER.POLAR>
0

>  <SCORE.INTER.ROT>
0

>  <SCORE.INTER.SOLV>
4.0879

>  <SCORE.INTER.VDW>
-10.1266

>  <SCORE.INTER.norm>
-0.645497

>  <SCORE.INTRA>
0

>  <SCORE.INTRA.DIHEDRAL>
0

>  <SCORE.INTRA.DIHEDRAL.0>
0

>  <SCORE.INTRA.POLAR>
0

>  <SCORE.INTRA.POLAR.0>
0

>  <SCORE.INTRA.REPUL>
0

>  <SCORE.INTRA.REPUL.0>
0

>  <SCORE.INTRA.SOLV>
0

>  <SCORE.INTRA.SOLV.lig_0>
-28.9128

>  <SCORE.INTRA.VDW>
0

>  <SCORE.INTRA.VDW.0>
0

>  <SCORE.INTRA.norm>
0

>  <SCORE.RESTR>
0

>  <SCORE.RESTR.CAVITY>
0

>  <SCORE.RESTR.norm>
0

>  <SCORE.SYSTEM>
0

>  <SCORE.SYSTEM.CONST>
0

>  <SCORE.SYSTEM.DIHEDRAL>
0

>  <SCORE.SYSTEM.SOLV>
0

>  <SCORE.SYSTEM.norm>
0

>  <SCORE.heavy>
12

>  <SCORE.norm>
-0.645497

>  <RMSD>
27.217

$$$$
ligand
 OpenBabel11021811503D
libRbt.so/2013.1/901 2013/11/27
 12 13  0  0  0  0  0  0  0  0999 V2000
    8.1833   32.0674    8.9970 C   0  0  0  0  0  0  0  0  0  0  0  0
    9.1184   30.9777    7.0574 C   0  0  0  0  0  0  0  0  0  0  0  0
    8.0840   33.1219    9.7981 N   0  0  0  0  0  0  0  0  0  0  0  0
    7.4449   30.9838    9.2575 N   0  0  0  0  0  0  0  0  0  0  0  0
    9.0423   32.0941    7.8826 N   0  0  0  0  0  0  0  0  0  0  0  0
    9.8767   31.0023    6.0841 O   0  0  0  0  0  0  0  0  0  0  0  0
    7.5808   27.6125    6.9103 N   0  0  0  0  0  0  0  0  0  0  0  0
    6.7478   27.6659    8.0388 C   0  0  0  0  0  0  0  0  0  0  0  0
    6.7189   28.8365    8.8198 N   0  0  0  0  0  0  0  0  0  0  0  0
    7.4998   29.8856    8.4933 C   0  0  0  0  0  0  0  0  0  0  0  0
    8.3377   29.8619    7.3700 C   0  0  0  0  0  0  0  0  0  0  0  0
    8.3896   28.7253    6.5766 C   0  0  0  0  0  0  0  0  0  0  0  0
  1  3  1  0  0  0  0
  1  4  2  0  0  0  0
  1  5  1  0  0  0  0
  2  6  2  0  0  0  0
  2 11  1  0  0  0  0
  2  5  1  0  0  0  0
  4 10  1  0  0  0  0
  7  8  2  0  0  0  0
  7 12  1  0  0  0  0
  8  9  1  0  0  0  0
  9 10  2  0  0  0  0
 10 11  1  0  0  0  0
 11 12  2  0  0  0  0
M  END
>  <CHROM.1>
8.11090549,30.27408214,7.93107707,1.19364364,0.83365225,0.57194174

>  <Name>
ligand

>  <RI>
0

>  <Rbt.Current_Directory>
/home/itssahil/PROJECTS/Mol_Feturizer/New_Systems/rnas/4LX6

>  <Rbt.Executable>
rbdock ($Id: //depot/dev/client3/rdock/2013.1/src/exe/rbdock.cxx#4 $)

>  <Rbt.Library>
libRbt.so (2013.1, Build901 2013/11/27)

>  <Rbt.Parameter_File>
/export/apps/rDock/src/rDock_2013.1_src/data/scripts/dock_solv.prm

>  <Rbt.Receptor>
prm/blind_docking_40.prm

>  <SCORE>
-10.6045

>  <SCORE.INTER>
-10.6045

>  <SCORE.INTER.CONST>
1

>  <SCORE.INTER.POLAR>
0

>  <SCORE.INTER.ROT>
0

>  <SCORE.INTER.SOLV>
5.88773

>  <SCORE.INTER.VDW>
-12.6323

>  <SCORE.INTER.norm>
-0.883711

>  <SCORE.INTRA>
0

>  <SCORE.INTRA.DIHEDRAL>
0

>  <SCORE.INTRA.DIHEDRAL.0>
0

>  <SCORE.INTRA.POLAR>
0

>  <SCORE.INTRA.POLAR.0>
0

>  <SCORE.INTRA.REPUL>
0

>  <SCORE.INTRA.REPUL.0>
0

>  <SCORE.INTRA.SOLV>
0

>  <SCORE.INTRA.SOLV.lig_0>
-28.9128

>  <SCORE.INTRA.VDW>
0

>  <SCORE.INTRA.VDW.0>
0

>  <SCORE.INTRA.norm>
0

>  <SCORE.RESTR>
0

>  <SCORE.RESTR.CAVITY>
0

>  <SCORE.RESTR.norm>
0

>  <SCORE.SYSTEM>
0

>  <SCORE.SYSTEM.CONST>
0

>  <SCORE.SYSTEM.DIHEDRAL>
0

>  <SCORE.SYSTEM.SOLV>
0

>  <SCORE.SYSTEM.norm>
0

>  <SCORE.heavy>
12

>  <SCORE.norm>
-0.883711

>  <RMSD>
27.217

$$$$
ligand
 OpenBabel11021811503D
libRbt.so/2013.1/901 2013/11/27
 12 13  0  0  0  0  0  0  0  0999 V2000
    8.1816   32.0638    9.0207 C   0  0  0  0  0  0  0  0  0  0  0  0
    9.1121   30.9855    7.0726 C   0  0  0  0  0  0  0  0  0  0  0  0
    8.0838   33.1137    9.8279 N   0  0  0  0  0  0  0  0  0  0  0  0
    7.4446   30.9783    9.2772 N   0  0  0  0  0  0  0  0  0  0  0  0
    9.0375   32.0972    7.9041 N   0  0  0  0  0  0  0  0  0  0  0  0
    9.8678   31.0160    6.0973 O   0  0  0  0  0  0  0  0  0  0  0  0
    7.5764   27.6202    6.9109 N   0  0  0  0  0  0  0  0  0  0  0  0
    6.7464   27.6667    8.0419 C   0  0  0  0  0  0  0  0  0  0  0  0
    6.7188   28.8329    8.8295 N   0  0  0  0  0  0  0  0  0  0  0  0
    7.4981   29.8844    8.5067 C   0  0  0  0  0  0  0  0  0  0  0  0
    8.3330   29.8675    7.3810 C   0  0  0  0  0  0  0  0  0  0  0  0
    8.3835   28.7353    6.5812 C   0  0  0  0  0  0  0  0  0  0  0  0
  1  3  1  0  0  0  0
  1  4  2  0  0  0  0
  1  5  1  0  0  0  0
  2  6  2  0  0  0  0
  2 11  1  0  0  0  0
  2  5  1  0  0  0  0
  4 10  1  0  0  0  0
  7  8  2  0  0  0  0
  7 12  1  0  0  0  0
  8  9  1  0  0  0  0
  9 10  2  0  0  0  0
 10 11  1  0  0  0  0
 11 12  2  0  0  0  0
M  END
>  <CHROM.1>
8.10747228,30.27636918,7.94500295,1.19227507,0.83629452,0.57850501

>  <Name>
ligand

>  <RI>
0

>  <Rbt.Current_Directory>
/home/itssahil/PROJECTS/Mol_Feturizer/New_Systems/rnas/4LX6

>  <Rbt.Executable>
rbdock ($Id: //depot/dev/client3/rdock/2013.1/src/exe/rbdock.cxx#4 $)

>  <Rbt.Library>
libRbt.so (2013.1, Build901 2013/11/27)

>  <Rbt.Parameter_File>
/export/apps/rDock/src/rDock_2013.1_src/data/scripts/dock_solv.prm

>  <Rbt.Receptor>
prm/blind_docking_40.prm

>  <SCORE>
-10.5713

>  <SCORE.INTER>
-10.5713

>  <SCORE.INTER.CONST>
1

>  <SCORE.INTER.POLAR>
0

>  <SCORE.INTER.ROT>
0

>  <SCORE.INTER.SOLV>
5.93926

>  <SCORE.INTER.VDW>
-12.6273

>  <SCORE.INTER.norm>
-0.88094

>  <SCORE.INTRA>
0

>  <SCORE.INTRA.DIHEDRAL>
0

>  <SCORE.INTRA.DIHEDRAL.0>
0

>  <SCORE.INTRA.POLAR>
0

>  <SCORE.INTRA.POLAR.0>
0

>  <SCORE.INTRA.REPUL>
0

>  <SCORE.INTRA.REPUL.0>
0

>  <SCORE.INTRA.SOLV>
0

>  <SCORE.INTRA.SOLV.lig_0>
-28.9128

>  <SCORE.INTRA.VDW>
0

>  <SCORE.INTRA.VDW.0>
0

>  <SCORE.INTRA.norm>
0

>  <SCORE.RESTR>
0

>  <SCORE.RESTR.CAVITY>
0

>  <SCORE.RESTR.norm>
0

>  <SCORE.SYSTEM>
0

>  <SCORE.SYSTEM.CONST>
0

>  <SCORE.SYSTEM.DIHEDRAL>
0

>  <SCORE.SYSTEM.SOLV>
0

>  <SCORE.SYSTEM.norm>
0

>  <SCORE.heavy>
12

>  <SCORE.norm>
-0.88094

>  <RMSD>
27.218

$$$$
ligand
 OpenBabel11021811503D
libRbt.so/2013.1/901 2013/11/27
 12 13  0  0  0  0  0  0  0  0999 V2000
    8.1685   32.0648    9.0176 C   0  0  0  0  0  0  0  0  0  0  0  0
    9.1091   30.9789    7.0785 C   0  0  0  0  0  0  0  0  0  0  0  0
    8.0658   33.1183    9.8195 N   0  0  0  0  0  0  0  0  0  0  0  0
    7.4318   30.9795    9.2757 N   0  0  0  0  0  0  0  0  0  0  0  0
    9.0294   32.0943    7.9046 N   0  0  0  0  0  0  0  0  0  0  0  0
    9.8691   31.0059    6.1065 O   0  0  0  0  0  0  0  0  0  0  0  0
    7.5784   27.6109    6.9254 N   0  0  0  0  0  0  0  0  0  0  0  0
    6.7433   27.6615    8.0525 C   0  0  0  0  0  0  0  0  0  0  0  0
    6.7108   28.8312    8.8346 N   0  0  0  0  0  0  0  0  0  0  0  0
    7.4902   29.8823    8.5105 C   0  0  0  0  0  0  0  0  0  0  0  0
    8.3300   29.8613    7.3886 C   0  0  0  0  0  0  0  0  0  0  0  0
    8.3856   28.7256    6.5942 C   0  0  0  0  0  0  0  0  0  0  0  0
  1  3  1  0  0  0  0
  1  4  2  0  0  0  0
  1  5  1  0  0  0  0
  2  6  2  0  0  0  0
  2 11  1  0  0  0  0
  2  5  1  0  0  0  0
  4 10  1  0  0  0  0
  7  8  2  0  0  0  0
  7 12  1  0  0  0  0
  8  9  1  0  0  0  0
  9 10  2  0  0  0  0
 10 11  1  0  0  0  0
 11 12  2  0  0  0  0
M  END
>  <CHROM.1>
8.10150879,30.27245473,7.94970689,1.19748431,0.83325680,0.57009115

>  <Name>
ligand

>  <RI>
0

>  <Rbt.Current_Directory>
/home/itssahil/PROJECTS/Mol_Feturizer/New_Systems/rnas/4LX6

>  <Rbt.Executable>
rbdock ($Id: //depot/dev/client3/rdock/2013.1/src/exe/rbdock.cxx#4 $)

>  <Rbt.Library>
libRbt.so (2013.1, Build901 2013/11/27)

>  <Rbt.Parameter_File>
/export/apps/rDock/src/rDock_2013.1_src/data/scripts/dock_solv.prm

>  <Rbt.Receptor>
prm/blind_docking_40.prm

>  <SCORE>
-10.5775

>  <SCORE.INTER>
-10.5775

>  <SCORE.INTER.CONST>
1

>  <SCORE.INTER.POLAR>
0

>  <SCORE.INTER.ROT>
0

>  <SCORE.INTER.SOLV>
5.93481

>  <SCORE.INTER.VDW>
-12.6299

>  <SCORE.INTER.norm>
-0.881459

>  <SCORE.INTRA>
0

>  <SCORE.INTRA.DIHEDRAL>
0

>  <SCORE.INTRA.DIHEDRAL.0>
0

>  <SCORE.INTRA.POLAR>
0

>  <SCORE.INTRA.POLAR.0>
0

>  <SCORE.INTRA.REPUL>
0

>  <SCORE.INTRA.REPUL.0>
0

>  <SCORE.INTRA.SOLV>
0

>  <SCORE.INTRA.SOLV.lig_0>
-28.9128

>  <SCORE.INTRA.VDW>
0

>  <SCORE.INTRA.VDW.0>
0

>  <SCORE.INTRA.norm>
0

>  <SCORE.RESTR>
0

>  <SCORE.RESTR.CAVITY>
0

>  <SCORE.RESTR.norm>
0

>  <SCORE.SYSTEM>
0

>  <SCORE.SYSTEM.CONST>
0

>  <SCORE.SYSTEM.DIHEDRAL>
0

>  <SCORE.SYSTEM.SOLV>
0

>  <SCORE.SYSTEM.norm>
0

>  <SCORE.heavy>
12

>  <SCORE.norm>
-0.881459

>  <RMSD>
27.219

$$$$
ligand
 OpenBabel11021811503D
libRbt.so/2013.1/901 2013/11/27
 12 13  0  0  0  0  0  0  0  0999 V2000
    8.1816   32.0672    8.9982 C   0  0  0  0  0  0  0  0  0  0  0  0
    9.1125   30.9814    7.0544 C   0  0  0  0  0  0  0  0  0  0  0  0
    8.0833   33.1204    9.8011 N   0  0  0  0  0  0  0  0  0  0  0  0
    7.4453   30.9823    9.2592 N   0  0  0  0  0  0  0  0  0  0  0  0
    9.0374   32.0965    7.8813 N   0  0  0  0  0  0  0  0  0  0  0  0
    9.8680   31.0084    6.0789 O   0  0  0  0  0  0  0  0  0  0  0  0
    7.5787   27.6146    6.9067 N   0  0  0  0  0  0  0  0  0  0  0  0
    6.7488   27.6653    8.0376 C   0  0  0  0  0  0  0  0  0  0  0  0
    6.7207   28.8347    8.8205 N   0  0  0  0  0  0  0  0  0  0  0  0
    7.4994   29.8853    8.4932 C   0  0  0  0  0  0  0  0  0  0  0  0
    8.3341   29.8642    7.3675 C   0  0  0  0  0  0  0  0  0  0  0  0
    8.3852   28.7289    6.5723 C   0  0  0  0  0  0  0  0  0  0  0  0
  1  3  1  0  0  0  0
  1  4  2  0  0  0  0
  1  5  1  0  0  0  0
  2  6  2  0  0  0  0
  2 11  1  0  0  0  0
  2  5  1  0  0  0  0
  4 10  1  0  0  0  0
  7  8  2  0  0  0  0
  7 12  1  0  0  0  0
  8  9  1  0  0  0  0
  9 10  2  0  0  0  0
 10 11  1  0  0  0  0
 11 12  2  0  0  0  0
M  END
>  <CHROM.1>
8.10841065,30.27532960,7.92982733,1.19289497,0.83673093,0.57395360

>  <Name>
ligand

>  <RI>
0

>  <Rbt.Current_Directory>
/home/itssahil/PROJECTS/Mol_Feturizer/New_Systems/rnas/4LX6

>  <Rbt.Executable>
rbdock ($Id: //depot/dev/client3/rdock/2013.1/src/exe/rbdock.cxx#4 $)

>  <Rbt.Library>
libRbt.so (2013.1, Build901 2013/11/27)

>  <Rbt.Parameter_File>
/export/apps/rDock/src/rDock_2013.1_src/data/scripts/dock_solv.prm

>  <Rbt.Receptor>
prm/blind_docking_40.prm

>  <SCORE>
-10.5988

>  <SCORE.INTER>
-10.5988

>  <SCORE.INTER.CONST>
1

>  <SCORE.INTER.POLAR>
0

>  <SCORE.INTER.ROT>
0

>  <SCORE.INTER.SOLV>
5.90806

>  <SCORE.INTER.VDW>
-12.6353

>  <SCORE.INTER.norm>
-0.883237

>  <SCORE.INTRA>
0

>  <SCORE.INTRA.DIHEDRAL>
0

>  <SCORE.INTRA.DIHEDRAL.0>
0

>  <SCORE.INTRA.POLAR>
0

>  <SCORE.INTRA.POLAR.0>
0

>  <SCORE.INTRA.REPUL>
0

>  <SCORE.INTRA.REPUL.0>
0

>  <SCORE.INTRA.SOLV>
0

>  <SCORE.INTRA.SOLV.lig_0>
-28.9128

>  <SCORE.INTRA.VDW>
0

>  <SCORE.INTRA.VDW.0>
0

>  <SCORE.INTRA.norm>
0

>  <SCORE.RESTR>
0

>  <SCORE.RESTR.CAVITY>
0

>  <SCORE.RESTR.norm>
0

>  <SCORE.SYSTEM>
0

>  <SCORE.SYSTEM.CONST>
0

>  <SCORE.SYSTEM.DIHEDRAL>
0

>  <SCORE.SYSTEM.SOLV>
0

>  <SCORE.SYSTEM.norm>
0

>  <SCORE.heavy>
12

>  <SCORE.norm>
-0.883237

>  <RMSD>
27.220

$$$$
ligand
 OpenBabel11021811503D
libRbt.so/2013.1/901 2013/11/27
 12 13  0  0  0  0  0  0  0  0999 V2000
    8.1644   32.0680    9.0146 C   0  0  0  0  0  0  0  0  0  0  0  0
    9.1097   30.9776    7.0803 C   0  0  0  0  0  0  0  0  0  0  0  0
    8.0605   33.1230    9.8145 N   0  0  0  0  0  0  0  0  0  0  0  0
    7.4256   30.9840    9.2723 N   0  0  0  0  0  0  0  0  0  0  0  0
    9.0288   32.0946    7.9043 N   0  0  0  0  0  0  0  0  0  0  0  0
    9.8727   31.0022    6.1107 O   0  0  0  0  0  0  0  0  0  0  0  0
    7.5755   27.6113    6.9281 N   0  0  0  0  0  0  0  0  0  0  0  0
    6.7369   27.6647    8.0525 C   0  0  0  0  0  0  0  0  0  0  0  0
    6.7033   28.8358    8.8326 N   0  0  0  0  0  0  0  0  0  0  0  0
    7.4850   29.8854    8.5091 C   0  0  0  0  0  0  0  0  0  0  0  0
    8.3283   29.8615    7.3898 C   0  0  0  0  0  0  0  0  0  0  0  0
    8.3850   28.7244    6.5976 C   0  0  0  0  0  0  0  0  0  0  0  0
  1  3  1  0  0  0  0
  1  4  2  0  0  0  0
  1  5  1  0  0  0  0
  2  6  2  0  0  0  0
  2 11  1  0  0  0  0
  2  5  1  0  0  0  0
  4 10  1  0  0  0  0
  7  8  2  0  0  0  0
  7 12  1  0  0  0  0
  8  9  1  0  0  0  0
  9 10  2  0  0  0  0
 10 11  1  0  0  0  0
 11 12  2  0  0  0  0
M  END
>  <CHROM.1>
8.09856413,30.27390632,7.94958262,1.19847135,0.82999701,0.56767621

>  <Name>
ligand

>  <RI>
0

>  <Rbt.Current_Directory>
/home/itssahil/PROJECTS/Mol_Feturizer/New_Systems/rnas/4LX6

>  <Rbt.Executable>
rbdock ($Id: //depot/dev/client3/rdock/2013.1/src/exe/rbdock.cxx#4 $)

>  <Rbt.Library>
libRbt.so (2013.1, Build901 2013/11/27)

>  <Rbt.Parameter_File>
/export/apps/rDock/src/rDock_2013.1_src/data/scripts/dock_solv.prm

>  <Rbt.Receptor>
prm/blind_docking_40.prm

>  <SCORE>
-10.5821

>  <SCORE.INTER>
-10.5821

>  <SCORE.INTER.CONST>
1

>  <SCORE.INTER.POLAR>
0

>  <SCORE.INTER.ROT>
0

>  <SCORE.INTER.SOLV>
5.91951

>  <SCORE.INTER.VDW>
-12.6279

>  <SCORE.INTER.norm>
-0.881845

>  <SCORE.INTRA>
0

>  <SCORE.INTRA.DIHEDRAL>
0

>  <SCORE.INTRA.DIHEDRAL.0>
0

>  <SCORE.INTRA.POLAR>
0

>  <SCORE.INTRA.POLAR.0>
0

>  <SCORE.INTRA.REPUL>
0

>  <SCORE.INTRA.REPUL.0>
0

>  <SCORE.INTRA.SOLV>
0

>  <SCORE.INTRA.SOLV.lig_0>
-28.9128

>  <SCORE.INTRA.VDW>
0

>  <SCORE.INTRA.VDW.0>
0

>  <SCORE.INTRA.norm>
0

>  <SCORE.RESTR>
0

>  <SCORE.RESTR.CAVITY>
0

>  <SCORE.RESTR.norm>
0

>  <SCORE.SYSTEM>
0

>  <SCORE.SYSTEM.CONST>
0

>  <SCORE.SYSTEM.DIHEDRAL>
0

>  <SCORE.SYSTEM.SOLV>
0

>  <SCORE.SYSTEM.norm>
0

>  <SCORE.heavy>
12

>  <SCORE.norm>
-0.881845

>  <RMSD>
27.222

$$$$
ligand
 OpenBabel11021811503D
libRbt.so/2013.1/901 2013/11/27
 12 13  0  0  0  0  0  0  0  0999 V2000
    8.1971   32.0503    9.0490 C   0  0  0  0  0  0  0  0  0  0  0  0
    9.1124   31.0033    7.0766 C   0  0  0  0  0  0  0  0  0  0  0  0
    8.1093   33.0854    9.8762 N   0  0  0  0  0  0  0  0  0  0  0  0
    7.4548   30.9645    9.2884 N   0  0  0  0  0  0  0  0  0  0  0  0
    9.0483   32.0996    7.9293 N   0  0  0  0  0  0  0  0  0  0  0  0
    9.8639   31.0476    6.0987 O   0  0  0  0  0  0  0  0  0  0  0  0
    7.5557   27.6509    6.8588 N   0  0  0  0  0  0  0  0  0  0  0  0
    6.7310   27.6810    7.9943 C   0  0  0  0  0  0  0  0  0  0  0  0
    6.7140   28.8323    8.8038 N   0  0  0  0  0  0  0  0  0  0  0  0
    7.4982   29.8851    8.4973 C   0  0  0  0  0  0  0  0  0  0  0  0
    8.3279   29.8843    7.3676 C   0  0  0  0  0  0  0  0  0  0  0  0
    8.3680   28.7671    6.5464 C   0  0  0  0  0  0  0  0  0  0  0  0
  1  3  1  0  0  0  0
  1  4  2  0  0  0  0
  1  5  1  0  0  0  0
  2  6  2  0  0  0  0
  2 11  1  0  0  0  0
  2  5  1  0  0  0  0
  4 10  1  0  0  0  0
  7  8  2  0  0  0  0
  7 12  1  0  0  0  0
  8  9  1  0  0  0  0
  9 10  2  0  0  0  0
 10 11  1  0  0  0  0
 11 12  2  0  0  0  0
M  END
>  <CHROM.1>
8.10740924,30.28388930,7.94019737,1.18106700,0.83669465,0.60563537

>  <Name>
ligand

>  <RI>
0

>  <Rbt.Current_Directory>
/home/itssahil/PROJECTS/Mol_Feturizer/New_Systems/rnas/4LX6

>  <Rbt.Executable>
rbdock ($Id: //depot/dev/client3/rdock/2013.1/src/exe/rbdock.cxx#4 $)

>  <Rbt.Library>
libRbt.so (2013.1, Build901 2013/11/27)

>  <Rbt.Parameter_File>
/export/apps/rDock/src/rDock_2013.1_src/data/scripts/dock_solv.prm

>  <Rbt.Receptor>
prm/blind_docking_40.prm

>  <SCORE>
-10.5527

>  <SCORE.INTER>
-10.5527

>  <SCORE.INTER.CONST>
1

>  <SCORE.INTER.POLAR>
0

>  <SCORE.INTER.ROT>
0

>  <SCORE.INTER.SOLV>
6.00541

>  <SCORE.INTER.VDW>
-12.637

>  <SCORE.INTER.norm>
-0.879393

>  <SCORE.INTRA>
0

>  <SCORE.INTRA.DIHEDRAL>
0

>  <SCORE.INTRA.DIHEDRAL.0>
0

>  <SCORE.INTRA.POLAR>
0

>  <SCORE.INTRA.POLAR.0>
0

>  <SCORE.INTRA.REPUL>
0

>  <SCORE.INTRA.REPUL.0>
0

>  <SCORE.INTRA.SOLV>
0

>  <SCORE.INTRA.SOLV.lig_0>
-28.9128

>  <SCORE.INTRA.VDW>
0

>  <SCORE.INTRA.VDW.0>
0

>  <SCORE.INTRA.norm>
0

>  <SCORE.RESTR>
0

>  <SCORE.RESTR.CAVITY>
0

>  <SCORE.RESTR.norm>
0

>  <SCORE.SYSTEM>
0

>  <SCORE.SYSTEM.CONST>
0

>  <SCORE.SYSTEM.DIHEDRAL>
0

>  <SCORE.SYSTEM.SOLV>
0

>  <SCORE.SYSTEM.norm>
0

>  <SCORE.heavy>
12

>  <SCORE.norm>
-0.879393

>  <RMSD>
27.225

$$$$
ligand
 OpenBabel11021811503D
libRbt.so/2013.1/901 2013/11/27
 12 13  0  0  0  0  0  0  0  0999 V2000
    8.1591   32.0696    9.0150 C   0  0  0  0  0  0  0  0  0  0  0  0
    9.1047   30.9836    7.0784 C   0  0  0  0  0  0  0  0  0  0  0  0
    8.0532   33.1235    9.8159 N   0  0  0  0  0  0  0  0  0  0  0  0
    7.4238   30.9832    9.2729 N   0  0  0  0  0  0  0  0  0  0  0  0
    9.0217   32.0996    7.9035 N   0  0  0  0  0  0  0  0  0  0  0  0
    9.8662   31.0112    6.1076 O   0  0  0  0  0  0  0  0  0  0  0  0
    7.5802   27.6128    6.9256 N   0  0  0  0  0  0  0  0  0  0  0  0
    6.7432   27.6629    8.0513 C   0  0  0  0  0  0  0  0  0  0  0  0
    6.7073   28.8332    8.8324 N   0  0  0  0  0  0  0  0  0  0  0  0
    7.4854   29.8854    8.5087 C   0  0  0  0  0  0  0  0  0  0  0  0
    8.3271   29.8649    7.3881 C   0  0  0  0  0  0  0  0  0  0  0  0
    8.3859   28.7286    6.5948 C   0  0  0  0  0  0  0  0  0  0  0  0
  1  3  1  0  0  0  0
  1  4  2  0  0  0  0
  1  5  1  0  0  0  0
  2  6  2  0  0  0  0
  2 11  1  0  0  0  0
  2  5  1  0  0  0  0
  4 10  1  0  0  0  0
  7  8  2  0  0  0  0
  7 12  1  0  0  0  0
  8  9  1  0  0  0  0
  9 10  2  0  0  0  0
 10 11  1  0  0  0  0
 11 12  2  0  0  0  0
M  END
>  <CHROM.1>
8.09692411,30.27617067,7.94856276,1.20099864,0.83284122,0.56665576

>  <Name>
ligand

>  <RI>
0

>  <Rbt.Current_Directory>
/home/itssahil/PROJECTS/Mol_Feturizer/New_Systems/rnas/4LX6

>  <Rbt.Executable>
rbdock ($Id: //depot/dev/client3/rdock/2013.1/src/exe/rbdock.cxx#4 $)

>  <Rbt.Library>
libRbt.so (2013.1, Build901 2013/11/27)

>  <Rbt.Parameter_File>
/export/apps/rDock/src/rDock_2013.1_src/data/scripts/dock_solv.prm

>  <Rbt.Receptor>
prm/blind_docking_40.prm

>  <SCORE>
-10.5822

>  <SCORE.INTER>
-10.5822

>  <SCORE.INTER.CONST>
1

>  <SCORE.INTER.POLAR>
0

>  <SCORE.INTER.ROT>
0

>  <SCORE.INTER.SOLV>
5.94336

>  <SCORE.INTER.VDW>
-12.6359

>  <SCORE.INTER.norm>
-0.881847

>  <SCORE.INTRA>
0

>  <SCORE.INTRA.DIHEDRAL>
0

>  <SCORE.INTRA.DIHEDRAL.0>
0

>  <SCORE.INTRA.POLAR>
0

>  <SCORE.INTRA.POLAR.0>
0

>  <SCORE.INTRA.REPUL>
0

>  <SCORE.INTRA.REPUL.0>
0

>  <SCORE.INTRA.SOLV>
0

>  <SCORE.INTRA.SOLV.lig_0>
-28.9128

>  <SCORE.INTRA.VDW>
0

>  <SCORE.INTRA.VDW.0>
0

>  <SCORE.INTRA.norm>
0

>  <SCORE.RESTR>
0

>  <SCORE.RESTR.CAVITY>
0

>  <SCORE.RESTR.norm>
0

>  <SCORE.SYSTEM>
0

>  <SCORE.SYSTEM.CONST>
0

>  <SCORE.SYSTEM.DIHEDRAL>
0

>  <SCORE.SYSTEM.SOLV>
0

>  <SCORE.SYSTEM.norm>
0

>  <SCORE.heavy>
12

>  <SCORE.norm>
-0.881847

>  <RMSD>
27.225

$$$$
ligand
 OpenBabel11021811503D
libRbt.so/2013.1/901 2013/11/27
 12 13  0  0  0  0  0  0  0  0999 V2000
    8.1534   32.0690    9.0131 C   0  0  0  0  0  0  0  0  0  0  0  0
    9.1068   30.9778    7.0833 C   0  0  0  0  0  0  0  0  0  0  0  0
    8.0452   33.1248    9.8114 N   0  0  0  0  0  0  0  0  0  0  0  0
    7.4152   30.9843    9.2694 N   0  0  0  0  0  0  0  0  0  0  0  0
    9.0215   32.0955    7.9057 N   0  0  0  0  0  0  0  0  0  0  0  0
    9.8731   31.0022    6.1162 O   0  0  0  0  0  0  0  0  0  0  0  0
    7.5777   27.6091    6.9296 N   0  0  0  0  0  0  0  0  0  0  0  0
    6.7352   27.6628    8.0511 C   0  0  0  0  0  0  0  0  0  0  0  0
    6.6973   28.8347    8.8297 N   0  0  0  0  0  0  0  0  0  0  0  0
    7.4787   29.8849    8.5077 C   0  0  0  0  0  0  0  0  0  0  0  0
    8.3259   29.8609    7.3914 C   0  0  0  0  0  0  0  0  0  0  0  0
    8.3868   28.7230    6.6006 C   0  0  0  0  0  0  0  0  0  0  0  0
  1  3  1  0  0  0  0
  1  4  2  0  0  0  0
  1  5  1  0  0  0  0
  2  6  2  0  0  0  0
  2 11  1  0  0  0  0
  2  5  1  0  0  0  0
  4 10  1  0  0  0  0
  7  8  2  0  0  0  0
  7 12  1  0  0  0  0
  8  9  1  0  0  0  0
  9 10  2  0  0  0  0
 10 11  1  0  0  0  0
 11 12  2  0  0  0  0
M  END
>  <CHROM.1>
8.09363280,30.27365470,7.94985511,1.20291612,0.82782054,0.56326247

>  <Name>
ligand

>  <RI>
0

>  <Rbt.Current_Directory>
/home/itssahil/PROJECTS/Mol_Feturizer/New_Systems/rnas/4LX6

>  <Rbt.Executable>
rbdock ($Id: //depot/dev/client3/rdock/2013.1/src/exe/rbdock.cxx#4 $)

>  <Rbt.Library>
libRbt.so (2013.1, Build901 2013/11/27)

>  <Rbt.Parameter_File>
/export/apps/rDock/src/rDock_2013.1_src/data/scripts/dock_solv.prm

>  <Rbt.Receptor>
prm/blind_docking_40.prm

>  <SCORE>
-10.5832

>  <SCORE.INTER>
-10.5832

>  <SCORE.INTER.CONST>
1

>  <SCORE.INTER.POLAR>
0

>  <SCORE.INTER.ROT>
0

>  <SCORE.INTER.SOLV>
5.92719

>  <SCORE.INTER.VDW>
-12.6312

>  <SCORE.INTER.norm>
-0.881937

>  <SCORE.INTRA>
0

>  <SCORE.INTRA.DIHEDRAL>
0

>  <SCORE.INTRA.DIHEDRAL.0>
0

>  <SCORE.INTRA.POLAR>
0

>  <SCORE.INTRA.POLAR.0>
0

>  <SCORE.INTRA.REPUL>
0

>  <SCORE.INTRA.REPUL.0>
0

>  <SCORE.INTRA.SOLV>
0

>  <SCORE.INTRA.SOLV.lig_0>
-28.9128

>  <SCORE.INTRA.VDW>
0

>  <SCORE.INTRA.VDW.0>
0

>  <SCORE.INTRA.norm>
0

>  <SCORE.RESTR>
0

>  <SCORE.RESTR.CAVITY>
0

>  <SCORE.RESTR.norm>
0

>  <SCORE.SYSTEM>
0

>  <SCORE.SYSTEM.CONST>
0

>  <SCORE.SYSTEM.DIHEDRAL>
0

>  <SCORE.SYSTEM.SOLV>
0

>  <SCORE.SYSTEM.norm>
0

>  <SCORE.heavy>
12

>  <SCORE.norm>
-0.881937

>  <RMSD>
27.226

$$$$
ligand
 OpenBabel11021811503D
libRbt.so/2013.1/901 2013/11/27
 12 13  0  0  0  0  0  0  0  0999 V2000
    8.1645   32.0739    8.9768 C   0  0  0  0  0  0  0  0  0  0  0  0
    9.1081   30.9761    7.0459 C   0  0  0  0  0  0  0  0  0  0  0  0
    8.0591   33.1330    9.7710 N   0  0  0  0  0  0  0  0  0  0  0  0
    7.4303   30.9888    9.2427 N   0  0  0  0  0  0  0  0  0  0  0  0
    9.0256   32.0973    7.8639 N   0  0  0  0  0  0  0  0  0  0  0  0
    9.8682   30.9979    6.0739 O   0  0  0  0  0  0  0  0  0  0  0  0
    7.5855   27.6035    6.9171 N   0  0  0  0  0  0  0  0  0  0  0  0
    6.7500   27.6603    8.0436 C   0  0  0  0  0  0  0  0  0  0  0  0
    6.7145   28.8356    8.8172 N   0  0  0  0  0  0  0  0  0  0  0  0
    7.4915   29.8861    8.4856 C   0  0  0  0  0  0  0  0  0  0  0  0
    8.3316   29.8589    7.3640 C   0  0  0  0  0  0  0  0  0  0  0  0
    8.3901   28.7176    6.5779 C   0  0  0  0  0  0  0  0  0  0  0  0
  1  3  1  0  0  0  0
  1  4  2  0  0  0  0
  1  5  1  0  0  0  0
  2  6  2  0  0  0  0
  2 11  1  0  0  0  0
  2  5  1  0  0  0  0
  4 10  1  0  0  0  0
  7  8  2  0  0  0  0
  7 12  1  0  0  0  0
  8  9  1  0  0  0  0
  9 10  2  0  0  0  0
 10 11  1  0  0  0  0
 11 12  2  0  0  0  0
M  END
>  <CHROM.1>
8.10199978,30.27366341,7.92205142,1.20065385,0.83435265,0.56044881

>  <Name>
ligand

>  <RI>
0

>  <Rbt.Current_Directory>
/home/itssahil/PROJECTS/Mol_Feturizer/New_Systems/rnas/4LX6

>  <Rbt.Executable>
rbdock ($Id: //depot/dev/client3/rdock/2013.1/src/exe/rbdock.cxx#4 $)

>  <Rbt.Library>
libRbt.so (2013.1, Build901 2013/11/27)

>  <Rbt.Parameter_File>
/export/apps/rDock/src/rDock_2013.1_src/data/scripts/dock_solv.prm

>  <Rbt.Receptor>
prm/blind_docking_40.prm

>  <SCORE>
-10.5958

>  <SCORE.INTER>
-10.5958

>  <SCORE.INTER.CONST>
1

>  <SCORE.INTER.POLAR>
0

>  <SCORE.INTER.ROT>
0

>  <SCORE.INTER.SOLV>
5.88508

>  <SCORE.INTER.VDW>
-12.6256

>  <SCORE.INTER.norm>
-0.882985

>  <SCORE.INTRA>
0

>  <SCORE.INTRA.DIHEDRAL>
0

>  <SCORE.INTRA.DIHEDRAL.0>
0

>  <SCORE.INTRA.POLAR>
0

>  <SCORE.INTRA.POLAR.0>
0

>  <SCORE.INTRA.REPUL>
0

>  <SCORE.INTRA.REPUL.0>
0

>  <SCORE.INTRA.SOLV>
0

>  <SCORE.INTRA.SOLV.lig_0>
-28.9128

>  <SCORE.INTRA.VDW>
0

>  <SCORE.INTRA.VDW.0>
0

>  <SCORE.INTRA.norm>
0

>  <SCORE.RESTR>
0

>  <SCORE.RESTR.CAVITY>
0

>  <SCORE.RESTR.norm>
0

>  <SCORE.SYSTEM>
0

>  <SCORE.SYSTEM.CONST>
0

>  <SCORE.SYSTEM.DIHEDRAL>
0

>  <SCORE.SYSTEM.SOLV>
0

>  <SCORE.SYSTEM.norm>
0

>  <SCORE.heavy>
12

>  <SCORE.norm>
-0.882985

>  <RMSD>
27.226

$$$$
ligand
 OpenBabel11021811503D
libRbt.so/2013.1/901 2013/11/27
 12 13  0  0  0  0  0  0  0  0999 V2000
    8.1593   32.0655    9.0169 C   0  0  0  0  0  0  0  0  0  0  0  0
    9.1039   30.9866    7.0759 C   0  0  0  0  0  0  0  0  0  0  0  0
    8.0535   33.1168    9.8214 N   0  0  0  0  0  0  0  0  0  0  0  0
    7.4247   30.9780    9.2717 N   0  0  0  0  0  0  0  0  0  0  0  0
    9.0210   32.0997    7.9048 N   0  0  0  0  0  0  0  0  0  0  0  0
    9.8646   31.0178    6.1046 O   0  0  0  0  0  0  0  0  0  0  0  0
    7.5808   27.6156    6.9129 N   0  0  0  0  0  0  0  0  0  0  0  0
    6.7446   27.6615    8.0394 C   0  0  0  0  0  0  0  0  0  0  0  0
    6.7088   28.8292    8.8245 N   0  0  0  0  0  0  0  0  0  0  0  0
    7.4862   29.8828    8.5037 C   0  0  0  0  0  0  0  0  0  0  0  0
    8.3270   29.8665    7.3824 C   0  0  0  0  0  0  0  0  0  0  0  0
    8.3858   28.7329    6.5852 C   0  0  0  0  0  0  0  0  0  0  0  0
  1  3  1  0  0  0  0
  1  4  2  0  0  0  0
  1  5  1  0  0  0  0
  2  6  2  0  0  0  0
  2 11  1  0  0  0  0
  2  5  1  0  0  0  0
  4 10  1  0  0  0  0
  7  8  2  0  0  0  0
  7 12  1  0  0  0  0
  8  9  1  0  0  0  0
  9 10  2  0  0  0  0
 10 11  1  0  0  0  0
 11 12  2  0  0  0  0
M  END
>  <CHROM.1>
8.09711346,30.27573804,7.94442984,1.20094831,0.83374060,0.57006357

>  <Name>
ligand

>  <RI>
0

>  <Rbt.Current_Directory>
/home/itssahil/PROJECTS/Mol_Feturizer/New_Systems/rnas/4LX6

>  <Rbt.Executable>
rbdock ($Id: //depot/dev/client3/rdock/2013.1/src/exe/rbdock.cxx#4 $)

>  <Rbt.Library>
libRbt.so (2013.1, Build901 2013/11/27)

>  <Rbt.Parameter_File>
/export/apps/rDock/src/rDock_2013.1_src/data/scripts/dock_solv.prm

>  <Rbt.Receptor>
prm/blind_docking_60.prm

>  <SCORE>
-10.5768

>  <SCORE.INTER>
-10.5768

>  <SCORE.INTER.CONST>
1

>  <SCORE.INTER.POLAR>
0

>  <SCORE.INTER.ROT>
0

>  <SCORE.INTER.SOLV>
5.96293

>  <SCORE.INTER.VDW>
-12.6389

>  <SCORE.INTER.norm>
-0.881401

>  <SCORE.INTRA>
0

>  <SCORE.INTRA.DIHEDRAL>
0

>  <SCORE.INTRA.DIHEDRAL.0>
0

>  <SCORE.INTRA.POLAR>
0

>  <SCORE.INTRA.POLAR.0>
0

>  <SCORE.INTRA.REPUL>
0

>  <SCORE.INTRA.REPUL.0>
0

>  <SCORE.INTRA.SOLV>
0

>  <SCORE.INTRA.SOLV.lig_0>
-28.9128

>  <SCORE.INTRA.VDW>
0

>  <SCORE.INTRA.VDW.0>
0

>  <SCORE.INTRA.norm>
0

>  <SCORE.RESTR>
0

>  <SCORE.RESTR.CAVITY>
0

>  <SCORE.RESTR.norm>
0

>  <SCORE.SYSTEM>
0

>  <SCORE.SYSTEM.CONST>
0

>  <SCORE.SYSTEM.DIHEDRAL>
0

>  <SCORE.SYSTEM.SOLV>
0

>  <SCORE.SYSTEM.norm>
0

>  <SCORE.heavy>
12

>  <SCORE.norm>
-0.881401

>  <RMSD>
27.226

$$$$
ligand
 OpenBabel11021811503D
libRbt.so/2013.1/901 2013/11/27
 12 13  0  0  0  0  0  0  0  0999 V2000
    8.1456   32.0717    9.0131 C   0  0  0  0  0  0  0  0  0  0  0  0
    9.1013   30.9771    7.0863 C   0  0  0  0  0  0  0  0  0  0  0  0
    8.0356   33.1292    9.8087 N   0  0  0  0  0  0  0  0  0  0  0  0
    7.4091   30.9864    9.2721 N   0  0  0  0  0  0  0  0  0  0  0  0
    9.0139   32.0968    7.9059 N   0  0  0  0  0  0  0  0  0  0  0  0
    9.8678   31.0004    6.1194 O   0  0  0  0  0  0  0  0  0  0  0  0
    7.5777   27.6056    6.9408 N   0  0  0  0  0  0  0  0  0  0  0  0
    6.7348   27.6607    8.0619 C   0  0  0  0  0  0  0  0  0  0  0  0
    6.6949   28.8345    8.8376 N   0  0  0  0  0  0  0  0  0  0  0  0
    7.4746   29.8852    8.5131 C   0  0  0  0  0  0  0  0  0  0  0  0
    8.3221   29.8598    7.3971 C   0  0  0  0  0  0  0  0  0  0  0  0
    8.3851   28.7199    6.6091 C   0  0  0  0  0  0  0  0  0  0  0  0
  1  3  1  0  0  0  0
  1  4  2  0  0  0  0
  1  5  1  0  0  0  0
  2  6  2  0  0  0  0
  2 11  1  0  0  0  0
  2  5  1  0  0  0  0
  4 10  1  0  0  0  0
  7  8  2  0  0  0  0
  7 12  1  0  0  0  0
  8  9  1  0  0  0  0
  9 10  2  0  0  0  0
 10 11  1  0  0  0  0
 11 12  2  0  0  0  0
M  END
>  <CHROM.1>
8.08902799,30.27352142,7.95442294,1.20513944,0.82848197,0.55910501

>  <Name>
ligand

>  <RI>
0

>  <Rbt.Current_Directory>
/home/itssahil/PROJECTS/Mol_Feturizer/New_Systems/rnas/4LX6

>  <Rbt.Executable>
rbdock ($Id: //depot/dev/client3/rdock/2013.1/src/exe/rbdock.cxx#4 $)

>  <Rbt.Library>
libRbt.so (2013.1, Build901 2013/11/27)

>  <Rbt.Parameter_File>
/export/apps/rDock/src/rDock_2013.1_src/data/scripts/dock_solv.prm

>  <Rbt.Receptor>
prm/blind_docking_100.prm

>  <SCORE>
-10.5839

>  <SCORE.INTER>
-10.5839

>  <SCORE.INTER.CONST>
1

>  <SCORE.INTER.POLAR>
0

>  <SCORE.INTER.ROT>
0

>  <SCORE.INTER.SOLV>
5.93393

>  <SCORE.INTER.VDW>
-12.6339

>  <SCORE.INTER.norm>
-0.881994

>  <SCORE.INTRA>
0

>  <SCORE.INTRA.DIHEDRAL>
0

>  <SCORE.INTRA.DIHEDRAL.0>
0

>  <SCORE.INTRA.POLAR>
0

>  <SCORE.INTRA.POLAR.0>
0

>  <SCORE.INTRA.REPUL>
0

>  <SCORE.INTRA.REPUL.0>
0

>  <SCORE.INTRA.SOLV>
0

>  <SCORE.INTRA.SOLV.lig_0>
-28.9128

>  <SCORE.INTRA.VDW>
0

>  <SCORE.INTRA.VDW.0>
0

>  <SCORE.INTRA.norm>
0

>  <SCORE.RESTR>
0

>  <SCORE.RESTR.CAVITY>
0

>  <SCORE.RESTR.norm>
0

>  <SCORE.SYSTEM>
0

>  <SCORE.SYSTEM.CONST>
0

>  <SCORE.SYSTEM.DIHEDRAL>
0

>  <SCORE.SYSTEM.SOLV>
0

>  <SCORE.SYSTEM.norm>
0

>  <SCORE.heavy>
12

>  <SCORE.norm>
-0.881994

>  <RMSD>
27.229

$$$$
ligand
 OpenBabel11021811503D
libRbt.so/2013.1/901 2013/11/27
 12 13  0  0  0  0  0  0  0  0999 V2000
    8.1515   32.0705    9.0165 C   0  0  0  0  0  0  0  0  0  0  0  0
    9.0986   30.9855    7.0800 C   0  0  0  0  0  0  0  0  0  0  0  0
    8.0443   33.1243    9.8173 N   0  0  0  0  0  0  0  0  0  0  0  0
    7.4174   30.9833    9.2743 N   0  0  0  0  0  0  0  0  0  0  0  0
    9.0142   32.1014    7.9050 N   0  0  0  0  0  0  0  0  0  0  0  0
    9.8602   31.0139    6.1094 O   0  0  0  0  0  0  0  0  0  0  0  0
    7.5778   27.6131    6.9271 N   0  0  0  0  0  0  0  0  0  0  0  0
    6.7406   27.6622    8.0527 C   0  0  0  0  0  0  0  0  0  0  0  0
    6.7033   28.8325    8.8338 N   0  0  0  0  0  0  0  0  0  0  0  0
    7.4803   29.8855    8.5101 C   0  0  0  0  0  0  0  0  0  0  0  0
    8.3222   29.8660    7.3897 C   0  0  0  0  0  0  0  0  0  0  0  0
    8.3824   28.7297    6.5964 C   0  0  0  0  0  0  0  0  0  0  0  0
  1  3  1  0  0  0  0
  1  4  2  0  0  0  0
  1  5  1  0  0  0  0
  2  6  2  0  0  0  0
  2 11  1  0  0  0  0
  2  5  1  0  0  0  0
  4 10  1  0  0  0  0
  7  8  2  0  0  0  0
  7 12  1  0  0  0  0
  8  9  1  0  0  0  0
  9 10  2  0  0  0  0
 10 11  1  0  0  0  0
 11 12  2  0  0  0  0
M  END
>  <CHROM.1>
8.09146891,30.27697844,7.95005138,1.20249019,0.83330044,0.56552085

>  <Name>
ligand

>  <RI>
0

>  <Rbt.Current_Directory>
/home/itssahil/PROJECTS/Mol_Feturizer/New_Systems/rnas/4LX6

>  <Rbt.Executable>
rbdock ($Id: //depot/dev/client3/rdock/2013.1/src/exe/rbdock.cxx#4 $)

>  <Rbt.Library>
libRbt.so (2013.1, Build901 2013/11/27)

>  <Rbt.Parameter_File>
/export/apps/rDock/src/rDock_2013.1_src/data/scripts/dock_solv.prm

>  <Rbt.Receptor>
prm/blind_docking_80.prm

>  <SCORE>
-10.5825

>  <SCORE.INTER>
-10.5825

>  <SCORE.INTER.CONST>
1

>  <SCORE.INTER.POLAR>
0

>  <SCORE.INTER.ROT>
0

>  <SCORE.INTER.SOLV>
5.95932

>  <SCORE.INTER.VDW>
-12.6415

>  <SCORE.INTER.norm>
-0.881877

>  <SCORE.INTRA>
0

>  <SCORE.INTRA.DIHEDRAL>
0

>  <SCORE.INTRA.DIHEDRAL.0>
0

>  <SCORE.INTRA.POLAR>
0

>  <SCORE.INTRA.POLAR.0>
0

>  <SCORE.INTRA.REPUL>
0

>  <SCORE.INTRA.REPUL.0>
0

>  <SCORE.INTRA.SOLV>
0

>  <SCORE.INTRA.SOLV.lig_0>
-28.9128

>  <SCORE.INTRA.VDW>
0

>  <SCORE.INTRA.VDW.0>
0

>  <SCORE.INTRA.norm>
0

>  <SCORE.RESTR>
0

>  <SCORE.RESTR.CAVITY>
0

>  <SCORE.RESTR.norm>
0

>  <SCORE.SYSTEM>
0

>  <SCORE.SYSTEM.CONST>
0

>  <SCORE.SYSTEM.DIHEDRAL>
0

>  <SCORE.SYSTEM.SOLV>
0

>  <SCORE.SYSTEM.norm>
0

>  <SCORE.heavy>
12

>  <SCORE.norm>
-0.881877

>  <RMSD>
27.230

$$$$
ligand
 OpenBabel11021811503D
libRbt.so/2013.1/901 2013/11/27
 12 13  0  0  0  0  0  0  0  0999 V2000
    8.1461   32.0720    9.0110 C   0  0  0  0  0  0  0  0  0  0  0  0
    9.1000   30.9838    7.0797 C   0  0  0  0  0  0  0  0  0  0  0  0
    8.0360   33.1273    9.8095 N   0  0  0  0  0  0  0  0  0  0  0  0
    7.4115   30.9850    9.2683 N   0  0  0  0  0  0  0  0  0  0  0  0
    9.0125   32.1012    7.9023 N   0  0  0  0  0  0  0  0  0  0  0  0
    9.8648   31.0106    6.1115 O   0  0  0  0  0  0  0  0  0  0  0  0
    7.5808   27.6105    6.9279 N   0  0  0  0  0  0  0  0  0  0  0  0
    6.7398   27.6615    8.0506 C   0  0  0  0  0  0  0  0  0  0  0  0
    6.6995   28.8332    8.8294 N   0  0  0  0  0  0  0  0  0  0  0  0
    7.4772   29.8859    8.5064 C   0  0  0  0  0  0  0  0  0  0  0  0
    8.3229   29.8645    7.3888 C   0  0  0  0  0  0  0  0  0  0  0  0
    8.3860   28.7269    6.5978 C   0  0  0  0  0  0  0  0  0  0  0  0
  1  3  1  0  0  0  0
  1  4  2  0  0  0  0
  1  5  1  0  0  0  0
  2  6  2  0  0  0  0
  2 11  1  0  0  0  0
  2  5  1  0  0  0  0
  4 10  1  0  0  0  0
  7  8  2  0  0  0  0
  7 12  1  0  0  0  0
  8  9  1  0  0  0  0
  9 10  2  0  0  0  0
 10 11  1  0  0  0  0
 11 12  2  0  0  0  0
M  END
>  <CHROM.1>
8.09017407,30.27649628,7.94764348,1.20551545,0.83067072,0.56144690

>  <Name>
ligand

>  <RI>
0

>  <Rbt.Current_Directory>
/home/itssahil/PROJECTS/Mol_Feturizer/New_Systems/rnas/4LX6

>  <Rbt.Executable>
rbdock ($Id: //depot/dev/client3/rdock/2013.1/src/exe/rbdock.cxx#4 $)

>  <Rbt.Library>
libRbt.so (2013.1, Build901 2013/11/27)

>  <Rbt.Parameter_File>
/export/apps/rDock/src/rDock_2013.1_src/data/scripts/dock_solv.prm

>  <Rbt.Receptor>
prm/blind_docking_40.prm

>  <SCORE>
-10.5837

>  <SCORE.INTER>
-10.5837

>  <SCORE.INTER.CONST>
1

>  <SCORE.INTER.POLAR>
0

>  <SCORE.INTER.ROT>
0

>  <SCORE.INTER.SOLV>
5.94876

>  <SCORE.INTER.VDW>
-12.6387

>  <SCORE.INTER.norm>
-0.881973

>  <SCORE.INTRA>
0

>  <SCORE.INTRA.DIHEDRAL>
0

>  <SCORE.INTRA.DIHEDRAL.0>
0

>  <SCORE.INTRA.POLAR>
0

>  <SCORE.INTRA.POLAR.0>
0

>  <SCORE.INTRA.REPUL>
0

>  <SCORE.INTRA.REPUL.0>
0

>  <SCORE.INTRA.SOLV>
0

>  <SCORE.INTRA.SOLV.lig_0>
-28.9128

>  <SCORE.INTRA.VDW>
0

>  <SCORE.INTRA.VDW.0>
0

>  <SCORE.INTRA.norm>
0

>  <SCORE.RESTR>
0

>  <SCORE.RESTR.CAVITY>
0

>  <SCORE.RESTR.norm>
0

>  <SCORE.SYSTEM>
0

>  <SCORE.SYSTEM.CONST>
0

>  <SCORE.SYSTEM.DIHEDRAL>
0

>  <SCORE.SYSTEM.SOLV>
0

>  <SCORE.SYSTEM.norm>
0

>  <SCORE.heavy>
12

>  <SCORE.norm>
-0.881973

>  <RMSD>
27.231

$$$$
ligand
 OpenBabel11021811503D
libRbt.so/2013.1/901 2013/11/27
 12 13  0  0  0  0  0  0  0  0999 V2000
    8.1417   32.0707    9.0137 C   0  0  0  0  0  0  0  0  0  0  0  0
    9.0971   30.9857    7.0813 C   0  0  0  0  0  0  0  0  0  0  0  0
    8.0302   33.1250    9.8134 N   0  0  0  0  0  0  0  0  0  0  0  0
    7.4084   30.9826    9.2697 N   0  0  0  0  0  0  0  0  0  0  0  0
    9.0082   32.1021    7.9052 N   0  0  0  0  0  0  0  0  0  0  0  0
    9.8620   31.0145    6.1132 O   0  0  0  0  0  0  0  0  0  0  0  0
    7.5819   27.6109    6.9256 N   0  0  0  0  0  0  0  0  0  0  0  0
    6.7407   27.6597    8.0482 C   0  0  0  0  0  0  0  0  0  0  0  0
    6.6989   28.8305    8.8283 N   0  0  0  0  0  0  0  0  0  0  0  0
    7.4755   29.8844    8.5066 C   0  0  0  0  0  0  0  0  0  0  0  0
    8.3213   29.8652    7.3891 C   0  0  0  0  0  0  0  0  0  0  0  0
    8.3859   28.7285    6.5968 C   0  0  0  0  0  0  0  0  0  0  0  0
  1  3  1  0  0  0  0
  1  4  2  0  0  0  0
  1  5  1  0  0  0  0
  2  6  2  0  0  0  0
  2 11  1  0  0  0  0
  2  5  1  0  0  0  0
  4 10  1  0  0  0  0
  7  8  2  0  0  0  0
  7 12  1  0  0  0  0
  8  9  1  0  0  0  0
  9 10  2  0  0  0  0
 10 11  1  0  0  0  0
 11 12  2  0  0  0  0
M  END
>  <CHROM.1>
8.08802738,30.27632292,7.94835540,1.20708909,0.83117917,0.56138852

>  <Name>
ligand

>  <RI>
0

>  <Rbt.Current_Directory>
/home/itssahil/PROJECTS/Mol_Feturizer/New_Systems/rnas/4LX6

>  <Rbt.Executable>
rbdock ($Id: //depot/dev/client3/rdock/2013.1/src/exe/rbdock.cxx#4 $)

>  <Rbt.Library>
libRbt.so (2013.1, Build901 2013/11/27)

>  <Rbt.Parameter_File>
/export/apps/rDock/src/rDock_2013.1_src/data/scripts/dock_solv.prm

>  <Rbt.Receptor>
prm/blind_docking_40.prm

>  <SCORE>
-10.5834

>  <SCORE.INTER>
-10.5834

>  <SCORE.INTER.CONST>
1

>  <SCORE.INTER.POLAR>
0

>  <SCORE.INTER.ROT>
0

>  <SCORE.INTER.SOLV>
5.96608

>  <SCORE.INTER.VDW>
-12.6443

>  <SCORE.INTER.norm>
-0.881951

>  <SCORE.INTRA>
0

>  <SCORE.INTRA.DIHEDRAL>
0

>  <SCORE.INTRA.DIHEDRAL.0>
0

>  <SCORE.INTRA.POLAR>
0

>  <SCORE.INTRA.POLAR.0>
0

>  <SCORE.INTRA.REPUL>
0

>  <SCORE.INTRA.REPUL.0>
0

>  <SCORE.INTRA.SOLV>
0

>  <SCORE.INTRA.SOLV.lig_0>
-28.9128

>  <SCORE.INTRA.VDW>
0

>  <SCORE.INTRA.VDW.0>
0

>  <SCORE.INTRA.norm>
0

>  <SCORE.RESTR>
0

>  <SCORE.RESTR.CAVITY>
0

>  <SCORE.RESTR.norm>
0

>  <SCORE.SYSTEM>
0

>  <SCORE.SYSTEM.CONST>
0

>  <SCORE.SYSTEM.DIHEDRAL>
0

>  <SCORE.SYSTEM.SOLV>
0

>  <SCORE.SYSTEM.norm>
0

>  <SCORE.heavy>
12

>  <SCORE.norm>
-0.881951

>  <RMSD>
27.233

$$$$
ligand
 OpenBabel11021811503D
libRbt.so/2013.1/901 2013/11/27
 12 13  0  0  0  0  0  0  0  0999 V2000
    8.1417   32.0689    9.0335 C   0  0  0  0  0  0  0  0  0  0  0  0
    9.0957   30.9895    7.0973 C   0  0  0  0  0  0  0  0  0  0  0  0
    8.0318   33.1204    9.8370 N   0  0  0  0  0  0  0  0  0  0  0  0
    7.4066   30.9810    9.2854 N   0  0  0  0  0  0  0  0  0  0  0  0
    9.0084   32.1030    7.9252 N   0  0  0  0  0  0  0  0  0  0  0  0
    9.8608   31.0207    6.1294 O   0  0  0  0  0  0  0  0  0  0  0  0
    7.5751   27.6177    6.9289 N   0  0  0  0  0  0  0  0  0  0  0  0
    6.7338   27.6637    8.0516 C   0  0  0  0  0  0  0  0  0  0  0  0
    6.6939   28.8317    8.8360 N   0  0  0  0  0  0  0  0  0  0  0  0
    7.4721   29.8855    8.5183 C   0  0  0  0  0  0  0  0  0  0  0  0
    8.3180   29.8692    7.4008 C   0  0  0  0  0  0  0  0  0  0  0  0
    8.3810   28.7353    6.6044 C   0  0  0  0  0  0  0  0  0  0  0  0
  1  3  1  0  0  0  0
  1  4  2  0  0  0  0
  1  5  1  0  0  0  0
  2  6  2  0  0  0  0
  2 11  1  0  0  0  0
  2  5  1  0  0  0  0
  4 10  1  0  0  0  0
  7  8  2  0  0  0  0
  7 12  1  0  0  0  0
  8  9  1  0  0  0  0
  9 10  2  0  0  0  0
 10 11  1  0  0  0  0
 11 12  2  0  0  0  0
M  END
>  <CHROM.1>
8.08535444,30.27856194,7.96155859,1.20522214,0.83021111,0.56643853

>  <Name>
ligand

>  <RI>
0

>  <Rbt.Current_Directory>
/home/itssahil/PROJECTS/Mol_Feturizer/New_Systems/rnas/4LX6

>  <Rbt.Executable>
rbdock ($Id: //depot/dev/client3/rdock/2013.1/src/exe/rbdock.cxx#4 $)

>  <Rbt.Library>
libRbt.so (2013.1, Build901 2013/11/27)

>  <Rbt.Parameter_File>
/export/apps/rDock/src/rDock_2013.1_src/data/scripts/dock_solv.prm

>  <Rbt.Receptor>
prm/blind_docking_40.prm

>  <SCORE>
-10.556

>  <SCORE.INTER>
-10.556

>  <SCORE.INTER.CONST>
1

>  <SCORE.INTER.POLAR>
0

>  <SCORE.INTER.ROT>
0

>  <SCORE.INTER.SOLV>
5.99178

>  <SCORE.INTER.VDW>
-12.6346

>  <SCORE.INTER.norm>
-0.879666

>  <SCORE.INTRA>
0

>  <SCORE.INTRA.DIHEDRAL>
0

>  <SCORE.INTRA.DIHEDRAL.0>
0

>  <SCORE.INTRA.POLAR>
0

>  <SCORE.INTRA.POLAR.0>
0

>  <SCORE.INTRA.REPUL>
0

>  <SCORE.INTRA.REPUL.0>
0

>  <SCORE.INTRA.SOLV>
0

>  <SCORE.INTRA.SOLV.lig_0>
-28.9128

>  <SCORE.INTRA.VDW>
0

>  <SCORE.INTRA.VDW.0>
0

>  <SCORE.INTRA.norm>
0

>  <SCORE.RESTR>
0

>  <SCORE.RESTR.CAVITY>
0

>  <SCORE.RESTR.norm>
0

>  <SCORE.SYSTEM>
0

>  <SCORE.SYSTEM.CONST>
0

>  <SCORE.SYSTEM.DIHEDRAL>
0

>  <SCORE.SYSTEM.SOLV>
0

>  <SCORE.SYSTEM.norm>
0

>  <SCORE.heavy>
12

>  <SCORE.norm>
-0.879666

>  <RMSD>
27.233

$$$$
ligand
 OpenBabel11021811503D
libRbt.so/2013.1/901 2013/11/27
 12 13  0  0  0  0  0  0  0  0999 V2000
    8.1286   32.0477    9.0934 C   0  0  0  0  0  0  0  0  0  0  0  0
    9.0823   31.0031    7.1380 C   0  0  0  0  0  0  0  0  0  0  0  0
    8.0175   33.0853    9.9146 N   0  0  0  0  0  0  0  0  0  0  0  0
    7.3962   30.9542    9.3279 N   0  0  0  0  0  0  0  0  0  0  0  0
    8.9937   32.1023    7.9847 N   0  0  0  0  0  0  0  0  0  0  0  0
    9.8459   31.0522    6.1698 O   0  0  0  0  0  0  0  0  0  0  0  0
    7.5686   27.6313    6.9150 N   0  0  0  0  0  0  0  0  0  0  0  0
    6.7288   27.6566    8.0394 C   0  0  0  0  0  0  0  0  0  0  0  0
    6.6874   28.8111    8.8434 N   0  0  0  0  0  0  0  0  0  0  0  0
    7.4629   29.8718    8.5424 C   0  0  0  0  0  0  0  0  0  0  0  0
    8.3074   29.8761    7.4237 C   0  0  0  0  0  0  0  0  0  0  0  0
    8.3716   28.7559    6.6082 C   0  0  0  0  0  0  0  0  0  0  0  0
  1  3  1  0  0  0  0
  1  4  2  0  0  0  0
  1  5  1  0  0  0  0
  2  6  2  0  0  0  0
  2 11  1  0  0  0  0
  2  5  1  0  0  0  0
  4 10  1  0  0  0  0
  7  8  2  0  0  0  0
  7 12  1  0  0  0  0
  8  9  1  0  0  0  0
  9 10  2  0  0  0  0
 10 11  1  0  0  0  0
 11 12  2  0  0  0  0
M  END
>  <CHROM.1>
8.07459558,30.27550416,7.99155569,1.20680799,0.83250109,0.58209127

>  <Name>
ligand

>  <RI>
0

>  <Rbt.Current_Directory>
/home/itssahil/PROJECTS/Mol_Feturizer/New_Systems/rnas/4LX6

>  <Rbt.Executable>
rbdock ($Id: //depot/dev/client3/rdock/2013.1/src/exe/rbdock.cxx#4 $)

>  <Rbt.Library>
libRbt.so (2013.1, Build901 2013/11/27)

>  <Rbt.Parameter_File>
/export/apps/rDock/src/rDock_2013.1_src/data/scripts/dock_solv.prm

>  <Rbt.Receptor>
prm/blind_docking_100.prm

>  <SCORE>
-10.5427

>  <SCORE.INTER>
-10.5427

>  <SCORE.INTER.CONST>
1

>  <SCORE.INTER.POLAR>
0

>  <SCORE.INTER.ROT>
0

>  <SCORE.INTER.SOLV>
6.19947

>  <SCORE.INTER.VDW>
-12.6949

>  <SCORE.INTER.norm>
-0.878557

>  <SCORE.INTRA>
0

>  <SCORE.INTRA.DIHEDRAL>
0

>  <SCORE.INTRA.DIHEDRAL.0>
0

>  <SCORE.INTRA.POLAR>
0

>  <SCORE.INTRA.POLAR.0>
0

>  <SCORE.INTRA.REPUL>
0

>  <SCORE.INTRA.REPUL.0>
0

>  <SCORE.INTRA.SOLV>
0

>  <SCORE.INTRA.SOLV.lig_0>
-28.9128

>  <SCORE.INTRA.VDW>
0

>  <SCORE.INTRA.VDW.0>
0

>  <SCORE.INTRA.norm>
0

>  <SCORE.RESTR>
0

>  <SCORE.RESTR.CAVITY>
0

>  <SCORE.RESTR.norm>
0

>  <SCORE.SYSTEM>
0

>  <SCORE.SYSTEM.CONST>
0

>  <SCORE.SYSTEM.DIHEDRAL>
0

>  <SCORE.SYSTEM.SOLV>
0

>  <SCORE.SYSTEM.norm>
0

>  <SCORE.heavy>
12

>  <SCORE.norm>
-0.878557

>  <RMSD>
27.234

$$$$
ligand
 OpenBabel11021811503D
libRbt.so/2013.1/901 2013/11/27
 12 13  0  0  0  0  0  0  0  0999 V2000
    8.1739   32.0644    8.9929 C   0  0  0  0  0  0  0  0  0  0  0  0
    9.1039   30.9812    7.0472 C   0  0  0  0  0  0  0  0  0  0  0  0
    8.0779   33.1157    9.7985 N   0  0  0  0  0  0  0  0  0  0  0  0
    7.4340   30.9811    9.2500 N   0  0  0  0  0  0  0  0  0  0  0  0
    9.0312   32.0942    7.8772 N   0  0  0  0  0  0  0  0  0  0  0  0
    9.8607   31.0085    6.0728 O   0  0  0  0  0  0  0  0  0  0  0  0
    7.5600   27.6195    6.8884 N   0  0  0  0  0  0  0  0  0  0  0  0
    6.7289   27.6696    8.0185 C   0  0  0  0  0  0  0  0  0  0  0  0
    6.7033   28.8370    8.8045 N   0  0  0  0  0  0  0  0  0  0  0  0
    7.4856   29.8861    8.4811 C   0  0  0  0  0  0  0  0  0  0  0  0
    8.3217   29.8655    7.3563 C   0  0  0  0  0  0  0  0  0  0  0  0
    8.3703   28.7322    6.5581 C   0  0  0  0  0  0  0  0  0  0  0  0
  1  3  1  0  0  0  0
  1  4  2  0  0  0  0
  1  5  1  0  0  0  0
  2  6  2  0  0  0  0
  2 11  1  0  0  0  0
  2  5  1  0  0  0  0
  4 10  1  0  0  0  0
  7  8  2  0  0  0  0
  7 12  1  0  0  0  0
  8  9  1  0  0  0  0
  9 10  2  0  0  0  0
 10 11  1  0  0  0  0
 11 12  2  0  0  0  0
M  END
>  <CHROM.1>
8.09655526,30.27577266,7.91951243,1.19007272,0.83401611,0.57878205

>  <Name>
ligand

>  <RI>
0

>  <Rbt.Current_Directory>
/home/itssahil/PROJECTS/Mol_Feturizer/New_Systems/rnas/4LX6

>  <Rbt.Executable>
rbdock ($Id: //depot/dev/client3/rdock/2013.1/src/exe/rbdock.cxx#4 $)

>  <Rbt.Library>
libRbt.so (2013.1, Build901 2013/11/27)

>  <Rbt.Parameter_File>
/export/apps/rDock/src/rDock_2013.1_src/data/scripts/dock_solv.prm

>  <Rbt.Receptor>
prm/blind_docking_40.prm

>  <SCORE>
-10.5757

>  <SCORE.INTER>
-10.5757

>  <SCORE.INTER.CONST>
1

>  <SCORE.INTER.POLAR>
0

>  <SCORE.INTER.ROT>
0

>  <SCORE.INTER.SOLV>
5.9181

>  <SCORE.INTER.VDW>
-12.6231

>  <SCORE.INTER.norm>
-0.881304

>  <SCORE.INTRA>
0

>  <SCORE.INTRA.DIHEDRAL>
0

>  <SCORE.INTRA.DIHEDRAL.0>
0

>  <SCORE.INTRA.POLAR>
0

>  <SCORE.INTRA.POLAR.0>
0

>  <SCORE.INTRA.REPUL>
0

>  <SCORE.INTRA.REPUL.0>
0

>  <SCORE.INTRA.SOLV>
0

>  <SCORE.INTRA.SOLV.lig_0>
-28.9128

>  <SCORE.INTRA.VDW>
0

>  <SCORE.INTRA.VDW.0>
0

>  <SCORE.INTRA.norm>
0

>  <SCORE.RESTR>
0

>  <SCORE.RESTR.CAVITY>
0

>  <SCORE.RESTR.norm>
0

>  <SCORE.SYSTEM>
0

>  <SCORE.SYSTEM.CONST>
0

>  <SCORE.SYSTEM.DIHEDRAL>
0

>  <SCORE.SYSTEM.SOLV>
0

>  <SCORE.SYSTEM.norm>
0

>  <SCORE.heavy>
12

>  <SCORE.norm>
-0.881304

>  <RMSD>
27.234

$$$$
ligand
 OpenBabel11021811503D
libRbt.so/2013.1/901 2013/11/27
 12 13  0  0  0  0  0  0  0  0999 V2000
    8.1805   32.0433    9.0074 C   0  0  0  0  0  0  0  0  0  0  0  0
    9.1092   30.9915    7.0440 C   0  0  0  0  0  0  0  0  0  0  0  0
    8.0851   33.0814    9.8300 N   0  0  0  0  0  0  0  0  0  0  0  0
    7.4402   30.9562    9.2472 N   0  0  0  0  0  0  0  0  0  0  0  0
    9.0372   32.0909    7.8919 N   0  0  0  0  0  0  0  0  0  0  0  0
    9.8656   31.0343    6.0698 O   0  0  0  0  0  0  0  0  0  0  0  0
    7.5640   27.6334    6.8313 N   0  0  0  0  0  0  0  0  0  0  0  0
    6.7333   27.6654    7.9624 C   0  0  0  0  0  0  0  0  0  0  0  0
    6.7086   28.8199    8.7672 N   0  0  0  0  0  0  0  0  0  0  0  0
    7.4911   29.8738    8.4606 C   0  0  0  0  0  0  0  0  0  0  0  0
    8.3266   29.8712    7.3352 C   0  0  0  0  0  0  0  0  0  0  0  0
    8.3745   28.7510    6.5187 C   0  0  0  0  0  0  0  0  0  0  0  0
  1  3  1  0  0  0  0
  1  4  2  0  0  0  0
  1  5  1  0  0  0  0
  2  6  2  0  0  0  0
  2 11  1  0  0  0  0
  2  5  1  0  0  0  0
  4 10  1  0  0  0  0
  7  8  2  0  0  0  0
  7 12  1  0  0  0  0
  8  9  1  0  0  0  0
  9 10  2  0  0  0  0
 10 11  1  0  0  0  0
 11 12  2  0  0  0  0
M  END
>  <CHROM.1>
8.10194168,30.27234409,7.90514634,1.18924830,0.83417947,0.59563484

>  <Name>
ligand

>  <RI>
0

>  <Rbt.Current_Directory>
/home/itssahil/PROJECTS/Mol_Feturizer/New_Systems/rnas/4LX6

>  <Rbt.Executable>
rbdock ($Id: //depot/dev/client3/rdock/2013.1/src/exe/rbdock.cxx#4 $)

>  <Rbt.Library>
libRbt.so (2013.1, Build901 2013/11/27)

>  <Rbt.Parameter_File>
/export/apps/rDock/src/rDock_2013.1_src/data/scripts/dock_solv.prm

>  <Rbt.Receptor>
prm/blind_docking_40.prm

>  <SCORE>
-10.5771

>  <SCORE.INTER>
-10.5771

>  <SCORE.INTER.CONST>
1

>  <SCORE.INTER.POLAR>
0

>  <SCORE.INTER.ROT>
0

>  <SCORE.INTER.SOLV>
6.00009

>  <SCORE.INTER.VDW>
-12.6514

>  <SCORE.INTER.norm>
-0.881422

>  <SCORE.INTRA>
0

>  <SCORE.INTRA.DIHEDRAL>
0

>  <SCORE.INTRA.DIHEDRAL.0>
0

>  <SCORE.INTRA.POLAR>
0

>  <SCORE.INTRA.POLAR.0>
0

>  <SCORE.INTRA.REPUL>
0

>  <SCORE.INTRA.REPUL.0>
0

>  <SCORE.INTRA.SOLV>
0

>  <SCORE.INTRA.SOLV.lig_0>
-28.9128

>  <SCORE.INTRA.VDW>
0

>  <SCORE.INTRA.VDW.0>
0

>  <SCORE.INTRA.norm>
0

>  <SCORE.RESTR>
0

>  <SCORE.RESTR.CAVITY>
0

>  <SCORE.RESTR.norm>
0

>  <SCORE.SYSTEM>
0

>  <SCORE.SYSTEM.CONST>
0

>  <SCORE.SYSTEM.DIHEDRAL>
0

>  <SCORE.SYSTEM.SOLV>
0

>  <SCORE.SYSTEM.norm>
0

>  <SCORE.heavy>
12

>  <SCORE.norm>
-0.881422

>  <RMSD>
27.234

$$$$
ligand
 OpenBabel11021811503D
libRbt.so/2013.1/901 2013/11/27
 12 13  0  0  0  0  0  0  0  0999 V2000
    8.1790   32.0394    9.0103 C   0  0  0  0  0  0  0  0  0  0  0  0
    9.0938   30.9922    7.0379 C   0  0  0  0  0  0  0  0  0  0  0  0
    8.0870   33.0768    9.8342 N   0  0  0  0  0  0  0  0  0  0  0  0
    7.4457   30.9491    9.2567 N   0  0  0  0  0  0  0  0  0  0  0  0
    9.0251   32.0911    7.8869 N   0  0  0  0  0  0  0  0  0  0  0  0
    9.8408   31.0386    6.0567 O   0  0  0  0  0  0  0  0  0  0  0  0
    7.5609   27.6277    6.8384 N   0  0  0  0  0  0  0  0  0  0  0  0
    6.7407   27.6558    7.9772 C   0  0  0  0  0  0  0  0  0  0  0  0
    6.7186   28.8098    8.7827 N   0  0  0  0  0  0  0  0  0  0  0  0
    7.4938   29.8672    8.4692 C   0  0  0  0  0  0  0  0  0  0  0  0
    8.3188   29.8686    7.3361 C   0  0  0  0  0  0  0  0  0  0  0  0
    8.3637   28.7488    6.5187 C   0  0  0  0  0  0  0  0  0  0  0  0
  1  3  1  0  0  0  0
  1  4  2  0  0  0  0
  1  5  1  0  0  0  0
  2  6  2  0  0  0  0
  2 11  1  0  0  0  0
  2  5  1  0  0  0  0
  4 10  1  0  0  0  0
  7  8  2  0  0  0  0
  7 12  1  0  0  0  0
  8  9  1  0  0  0  0
  9 10  2  0  0  0  0
 10 11  1  0  0  0  0
 11 12  2  0  0  0  0
M  END
>  <CHROM.1>
8.09769265,30.26852526,7.90819632,1.18662460,0.84430204,0.59795195

>  <Name>
ligand

>  <RI>
0

>  <Rbt.Current_Directory>
/home/itssahil/PROJECTS/Mol_Feturizer/New_Systems/rnas/4LX6

>  <Rbt.Executable>
rbdock ($Id: //depot/dev/client3/rdock/2013.1/src/exe/rbdock.cxx#4 $)

>  <Rbt.Library>
libRbt.so (2013.1, Build901 2013/11/27)

>  <Rbt.Parameter_File>
/export/apps/rDock/src/rDock_2013.1_src/data/scripts/dock_solv.prm

>  <Rbt.Receptor>
prm/blind_docking_40.prm

>  <SCORE>
-10.579

>  <SCORE.INTER>
-10.579

>  <SCORE.INTER.CONST>
1

>  <SCORE.INTER.POLAR>
0

>  <SCORE.INTER.ROT>
0

>  <SCORE.INTER.SOLV>
6.04235

>  <SCORE.INTER.VDW>
-12.6668

>  <SCORE.INTER.norm>
-0.881582

>  <SCORE.INTRA>
0

>  <SCORE.INTRA.DIHEDRAL>
0

>  <SCORE.INTRA.DIHEDRAL.0>
0

>  <SCORE.INTRA.POLAR>
0

>  <SCORE.INTRA.POLAR.0>
0

>  <SCORE.INTRA.REPUL>
0

>  <SCORE.INTRA.REPUL.0>
0

>  <SCORE.INTRA.SOLV>
0

>  <SCORE.INTRA.SOLV.lig_0>
-28.9128

>  <SCORE.INTRA.VDW>
0

>  <SCORE.INTRA.VDW.0>
0

>  <SCORE.INTRA.norm>
0

>  <SCORE.RESTR>
0

>  <SCORE.RESTR.CAVITY>
0

>  <SCORE.RESTR.norm>
0

>  <SCORE.SYSTEM>
0

>  <SCORE.SYSTEM.CONST>
0

>  <SCORE.SYSTEM.DIHEDRAL>
0

>  <SCORE.SYSTEM.SOLV>
0

>  <SCORE.SYSTEM.norm>
0

>  <SCORE.heavy>
12

>  <SCORE.norm>
-0.881582

>  <RMSD>
27.234

$$$$
ligand
 OpenBabel11021811503D
libRbt.so/2013.1/901 2013/11/27
 12 13  0  0  0  0  0  0  0  0999 V2000
    8.1417   32.0725    9.0153 C   0  0  0  0  0  0  0  0  0  0  0  0
    9.0939   30.9896    7.0802 C   0  0  0  0  0  0  0  0  0  0  0  0
    8.0310   33.1263    9.8158 N   0  0  0  0  0  0  0  0  0  0  0  0
    7.4100   30.9836    9.2723 N   0  0  0  0  0  0  0  0  0  0  0  0
    9.0057   32.1055    7.9049 N   0  0  0  0  0  0  0  0  0  0  0  0
    9.8566   31.0197    6.1104 O   0  0  0  0  0  0  0  0  0  0  0  0
    7.5816   27.6134    6.9259 N   0  0  0  0  0  0  0  0  0  0  0  0
    6.7429   27.6607    8.0505 C   0  0  0  0  0  0  0  0  0  0  0  0
    6.7018   28.8310    8.8313 N   0  0  0  0  0  0  0  0  0  0  0  0
    7.4765   29.8858    8.5085 C   0  0  0  0  0  0  0  0  0  0  0  0
    8.3198   29.8682    7.3890 C   0  0  0  0  0  0  0  0  0  0  0  0
    8.3838   28.7320    6.5960 C   0  0  0  0  0  0  0  0  0  0  0  0
  1  3  1  0  0  0  0
  1  4  2  0  0  0  0
  1  5  1  0  0  0  0
  2  6  2  0  0  0  0
  2 11  1  0  0  0  0
  2  5  1  0  0  0  0
  4 10  1  0  0  0  0
  7  8  2  0  0  0  0
  7 12  1  0  0  0  0
  8  9  1  0  0  0  0
  9 10  2  0  0  0  0
 10 11  1  0  0  0  0
 11 12  2  0  0  0  0
M  END
>  <CHROM.1>
8.08744917,30.27873160,7.94907721,1.20656240,0.83359726,0.56234714

>  <Name>
ligand

>  <RI>
0

>  <Rbt.Current_Directory>
/home/itssahil/PROJECTS/Mol_Feturizer/New_Systems/rnas/4LX6

>  <Rbt.Executable>
rbdock ($Id: //depot/dev/client3/rdock/2013.1/src/exe/rbdock.cxx#4 $)

>  <Rbt.Library>
libRbt.so (2013.1, Build901 2013/11/27)

>  <Rbt.Parameter_File>
/export/apps/rDock/src/rDock_2013.1_src/data/scripts/dock_solv.prm

>  <Rbt.Receptor>
prm/blind_docking_60.prm

>  <SCORE>
-10.5836

>  <SCORE.INTER>
-10.5836

>  <SCORE.INTER.CONST>
1

>  <SCORE.INTER.POLAR>
0

>  <SCORE.INTER.ROT>
0

>  <SCORE.INTER.SOLV>
5.97661

>  <SCORE.INTER.VDW>
-12.6479

>  <SCORE.INTER.norm>
-0.881967

>  <SCORE.INTRA>
0

>  <SCORE.INTRA.DIHEDRAL>
0

>  <SCORE.INTRA.DIHEDRAL.0>
0

>  <SCORE.INTRA.POLAR>
0

>  <SCORE.INTRA.POLAR.0>
0

>  <SCORE.INTRA.REPUL>
0

>  <SCORE.INTRA.REPUL.0>
0

>  <SCORE.INTRA.SOLV>
0

>  <SCORE.INTRA.SOLV.lig_0>
-28.9128

>  <SCORE.INTRA.VDW>
0

>  <SCORE.INTRA.VDW.0>
0

>  <SCORE.INTRA.norm>
0

>  <SCORE.RESTR>
0

>  <SCORE.RESTR.CAVITY>
0

>  <SCORE.RESTR.norm>
0

>  <SCORE.SYSTEM>
0

>  <SCORE.SYSTEM.CONST>
0

>  <SCORE.SYSTEM.DIHEDRAL>
0

>  <SCORE.SYSTEM.SOLV>
0

>  <SCORE.SYSTEM.norm>
0

>  <SCORE.heavy>
12

>  <SCORE.norm>
-0.881967

>  <RMSD>
27.234

$$$$
ligand
 OpenBabel11021811503D
libRbt.so/2013.1/901 2013/11/27
 12 13  0  0  0  0  0  0  0  0999 V2000
    8.1820   32.0506    8.9969 C   0  0  0  0  0  0  0  0  0  0  0  0
    9.1047   30.9941    7.0331 C   0  0  0  0  0  0  0  0  0  0  0  0
    8.0877   33.0913    9.8163 N   0  0  0  0  0  0  0  0  0  0  0  0
    7.4454   30.9625    9.2437 N   0  0  0  0  0  0  0  0  0  0  0  0
    9.0337   32.0963    7.8775 N   0  0  0  0  0  0  0  0  0  0  0  0
    9.8567   31.0353    6.0555 O   0  0  0  0  0  0  0  0  0  0  0  0
    7.5667   27.6316    6.8389 N   0  0  0  0  0  0  0  0  0  0  0  0
    6.7409   27.6656    7.9735 C   0  0  0  0  0  0  0  0  0  0  0  0
    6.7169   28.8227    8.7744 N   0  0  0  0  0  0  0  0  0  0  0  0
    7.4955   29.8775    8.4607 C   0  0  0  0  0  0  0  0  0  0  0  0
    8.3261   29.8730    7.3317 C   0  0  0  0  0  0  0  0  0  0  0  0
    8.3731   28.7500    6.5189 C   0  0  0  0  0  0  0  0  0  0  0  0
  1  3  1  0  0  0  0
  1  4  2  0  0  0  0
  1  5  1  0  0  0  0
  2  6  2  0  0  0  0
  2 11  1  0  0  0  0
  2  5  1  0  0  0  0
  4 10  1  0  0  0  0
  7  8  2  0  0  0  0
  7 12  1  0  0  0  0
  8  9  1  0  0  0  0
  9 10  2  0  0  0  0
 10 11  1  0  0  0  0
 11 12  2  0  0  0  0
M  END
>  <CHROM.1>
8.10294922,30.27555176,7.90118606,1.18860298,0.83913550,0.59262127

>  <Name>
ligand

>  <RI>
0

>  <Rbt.Current_Directory>
/home/itssahil/PROJECTS/Mol_Feturizer/New_Systems/rnas/4LX6

>  <Rbt.Executable>
rbdock ($Id: //depot/dev/client3/rdock/2013.1/src/exe/rbdock.cxx#4 $)

>  <Rbt.Library>
libRbt.so (2013.1, Build901 2013/11/27)

>  <Rbt.Parameter_File>
/export/apps/rDock/src/rDock_2013.1_src/data/scripts/dock_solv.prm

>  <Rbt.Receptor>
prm/blind_docking_40.prm

>  <SCORE>
-10.581

>  <SCORE.INTER>
-10.581

>  <SCORE.INTER.CONST>
1

>  <SCORE.INTER.POLAR>
0

>  <SCORE.INTER.ROT>
0

>  <SCORE.INTER.SOLV>
5.98785

>  <SCORE.INTER.VDW>
-12.65

>  <SCORE.INTER.norm>
-0.881754

>  <SCORE.INTRA>
0

>  <SCORE.INTRA.DIHEDRAL>
0

>  <SCORE.INTRA.DIHEDRAL.0>
0

>  <SCORE.INTRA.POLAR>
0

>  <SCORE.INTRA.POLAR.0>
0

>  <SCORE.INTRA.REPUL>
0

>  <SCORE.INTRA.REPUL.0>
0

>  <SCORE.INTRA.SOLV>
0

>  <SCORE.INTRA.SOLV.lig_0>
-28.9128

>  <SCORE.INTRA.VDW>
0

>  <SCORE.INTRA.VDW.0>
0

>  <SCORE.INTRA.norm>
0

>  <SCORE.RESTR>
0

>  <SCORE.RESTR.CAVITY>
0

>  <SCORE.RESTR.norm>
0

>  <SCORE.SYSTEM>
0

>  <SCORE.SYSTEM.CONST>
0

>  <SCORE.SYSTEM.DIHEDRAL>
0

>  <SCORE.SYSTEM.SOLV>
0

>  <SCORE.SYSTEM.norm>
0

>  <SCORE.heavy>
12

>  <SCORE.norm>
-0.881754

>  <RMSD>
27.235

$$$$
ligand
 OpenBabel11021811503D
libRbt.so/2013.1/901 2013/11/27
 12 13  0  0  0  0  0  0  0  0999 V2000
    8.1748   32.0364    9.0222 C   0  0  0  0  0  0  0  0  0  0  0  0
    9.0882   30.9979    7.0445 C   0  0  0  0  0  0  0  0  0  0  0  0
    8.0828   33.0704    9.8503 N   0  0  0  0  0  0  0  0  0  0  0  0
    7.4430   30.9443    9.2652 N   0  0  0  0  0  0  0  0  0  0  0  0
    9.0194   32.0934    7.8980 N   0  0  0  0  0  0  0  0  0  0  0  0
    9.8340   31.0490    6.0626 O   0  0  0  0  0  0  0  0  0  0  0  0
    7.5587   27.6325    6.8337 N   0  0  0  0  0  0  0  0  0  0  0  0
    6.7400   27.6553    7.9737 C   0  0  0  0  0  0  0  0  0  0  0  0
    6.7177   28.8061    8.7838 N   0  0  0  0  0  0  0  0  0  0  0  0
    7.4913   29.8656    8.4734 C   0  0  0  0  0  0  0  0  0  0  0  0
    8.3148   29.8723    7.3393 C   0  0  0  0  0  0  0  0  0  0  0  0
    8.3599   28.7558    6.5174 C   0  0  0  0  0  0  0  0  0  0  0  0
  1  3  1  0  0  0  0
  1  4  2  0  0  0  0
  1  5  1  0  0  0  0
  2  6  2  0  0  0  0
  2 11  1  0  0  0  0
  2  5  1  0  0  0  0
  4 10  1  0  0  0  0
  7  8  2  0  0  0  0
  7 12  1  0  0  0  0
  8  9  1  0  0  0  0
  9 10  2  0  0  0  0
 10 11  1  0  0  0  0
 11 12  2  0  0  0  0
M  END
>  <CHROM.1>
8.09403006,30.26975026,7.91323833,1.18689030,0.84596529,0.60169143

>  <Name>
ligand

>  <RI>
0

>  <Rbt.Current_Directory>
/home/itssahil/PROJECTS/Mol_Feturizer/New_Systems/rnas/4LX6

>  <Rbt.Executable>
rbdock ($Id: //depot/dev/client3/rdock/2013.1/src/exe/rbdock.cxx#4 $)

>  <Rbt.Library>
libRbt.so (2013.1, Build901 2013/11/27)

>  <Rbt.Parameter_File>
/export/apps/rDock/src/rDock_2013.1_src/data/scripts/dock_solv.prm

>  <Rbt.Receptor>
prm/blind_docking_40.prm

>  <SCORE>
-10.5765

>  <SCORE.INTER>
-10.5765

>  <SCORE.INTER.CONST>
1

>  <SCORE.INTER.POLAR>
0

>  <SCORE.INTER.ROT>
0

>  <SCORE.INTER.SOLV>
6.0816

>  <SCORE.INTER.VDW>
-12.6782

>  <SCORE.INTER.norm>
-0.881379

>  <SCORE.INTRA>
0

>  <SCORE.INTRA.DIHEDRAL>
0

>  <SCORE.INTRA.DIHEDRAL.0>
0

>  <SCORE.INTRA.POLAR>
0

>  <SCORE.INTRA.POLAR.0>
0

>  <SCORE.INTRA.REPUL>
0

>  <SCORE.INTRA.REPUL.0>
0

>  <SCORE.INTRA.SOLV>
0

>  <SCORE.INTRA.SOLV.lig_0>
-28.9128

>  <SCORE.INTRA.VDW>
0

>  <SCORE.INTRA.VDW.0>
0

>  <SCORE.INTRA.norm>
0

>  <SCORE.RESTR>
0

>  <SCORE.RESTR.CAVITY>
0

>  <SCORE.RESTR.norm>
0

>  <SCORE.SYSTEM>
0

>  <SCORE.SYSTEM.CONST>
0

>  <SCORE.SYSTEM.DIHEDRAL>
0

>  <SCORE.SYSTEM.SOLV>
0

>  <SCORE.SYSTEM.norm>
0

>  <SCORE.heavy>
12

>  <SCORE.norm>
-0.881379

>  <RMSD>
27.237

$$$$
ligand
 OpenBabel11021811503D
libRbt.so/2013.1/901 2013/11/27
 12 13  0  0  0  0  0  0  0  0999 V2000
    8.1791   32.0566    9.0065 C   0  0  0  0  0  0  0  0  0  0  0  0
    9.0971   30.9923    7.0448 C   0  0  0  0  0  0  0  0  0  0  0  0
    8.0890   33.0995    9.8236 N   0  0  0  0  0  0  0  0  0  0  0  0
    7.4386   30.9718    9.2560 N   0  0  0  0  0  0  0  0  0  0  0  0
    9.0306   32.0967    7.8867 N   0  0  0  0  0  0  0  0  0  0  0  0
    9.8489   31.0286    6.0667 O   0  0  0  0  0  0  0  0  0  0  0  0
    7.5466   27.6351    6.8586 N   0  0  0  0  0  0  0  0  0  0  0  0
    6.7214   27.6747    7.9934 C   0  0  0  0  0  0  0  0  0  0  0  0
    6.7020   28.8337    8.7918 N   0  0  0  0  0  0  0  0  0  0  0  0
    7.4844   29.8849    8.4754 C   0  0  0  0  0  0  0  0  0  0  0  0
    8.3146   29.8748    7.3461 C   0  0  0  0  0  0  0  0  0  0  0  0
    8.3571   28.7498    6.5358 C   0  0  0  0  0  0  0  0  0  0  0  0
  1  3  1  0  0  0  0
  1  4  2  0  0  0  0
  1  5  1  0  0  0  0
  2  6  2  0  0  0  0
  2 11  1  0  0  0  0
  2  5  1  0  0  0  0
  4 10  1  0  0  0  0
  7  8  2  0  0  0  0
  7 12  1  0  0  0  0
  8  9  1  0  0  0  0
  9 10  2  0  0  0  0
 10 11  1  0  0  0  0
 11 12  2  0  0  0  0
M  END
>  <CHROM.1>
8.09306756,30.27942077,7.91478665,1.18369900,0.83738828,0.59403275

>  <Name>
ligand

>  <RI>
0

>  <Rbt.Current_Directory>
/home/itssahil/PROJECTS/Mol_Feturizer/New_Systems/rnas/4LX6

>  <Rbt.Executable>
rbdock ($Id: //depot/dev/client3/rdock/2013.1/src/exe/rbdock.cxx#4 $)

>  <Rbt.Library>
libRbt.so (2013.1, Build901 2013/11/27)

>  <Rbt.Parameter_File>
/export/apps/rDock/src/rDock_2013.1_src/data/scripts/dock_solv.prm

>  <Rbt.Receptor>
prm/blind_docking_40.prm

>  <SCORE>
-10.571

>  <SCORE.INTER>
-10.571

>  <SCORE.INTER.CONST>
1

>  <SCORE.INTER.POLAR>
0

>  <SCORE.INTER.ROT>
0

>  <SCORE.INTER.SOLV>
5.97473

>  <SCORE.INTER.VDW>
-12.6389

>  <SCORE.INTER.norm>
-0.880918

>  <SCORE.INTRA>
0

>  <SCORE.INTRA.DIHEDRAL>
0

>  <SCORE.INTRA.DIHEDRAL.0>
0

>  <SCORE.INTRA.POLAR>
0

>  <SCORE.INTRA.POLAR.0>
0

>  <SCORE.INTRA.REPUL>
0

>  <SCORE.INTRA.REPUL.0>
0

>  <SCORE.INTRA.SOLV>
0

>  <SCORE.INTRA.SOLV.lig_0>
-28.9128

>  <SCORE.INTRA.VDW>
0

>  <SCORE.INTRA.VDW.0>
0

>  <SCORE.INTRA.norm>
0

>  <SCORE.RESTR>
0

>  <SCORE.RESTR.CAVITY>
0

>  <SCORE.RESTR.norm>
0

>  <SCORE.SYSTEM>
0

>  <SCORE.SYSTEM.CONST>
0

>  <SCORE.SYSTEM.DIHEDRAL>
0

>  <SCORE.SYSTEM.SOLV>
0

>  <SCORE.SYSTEM.norm>
0

>  <SCORE.heavy>
12

>  <SCORE.norm>
-0.880918

>  <RMSD>
27.241

$$$$
ligand
 OpenBabel11021811503D
libRbt.so/2013.1/901 2013/11/27
 12 13  0  0  0  0  0  0  0  0999 V2000
    8.1451   32.0477    9.1005 C   0  0  0  0  0  0  0  0  0  0  0  0
    9.0756   31.0185    7.1259 C   0  0  0  0  0  0  0  0  0  0  0  0
    8.0481   33.0767    9.9342 N   0  0  0  0  0  0  0  0  0  0  0  0
    7.4067   30.9569    9.3286 N   0  0  0  0  0  0  0  0  0  0  0  0
    9.0018   32.1087    7.9856 N   0  0  0  0  0  0  0  0  0  0  0  0
    9.8319   31.0730    6.1522 O   0  0  0  0  0  0  0  0  0  0  0  0
    7.5359   27.6603    6.8772 N   0  0  0  0  0  0  0  0  0  0  0  0
    6.7052   27.6789    8.0085 C   0  0  0  0  0  0  0  0  0  0  0  0
    6.6785   28.8246    8.8257 N   0  0  0  0  0  0  0  0  0  0  0  0
    7.4594   29.8830    8.5304 C   0  0  0  0  0  0  0  0  0  0  0  0
    8.2949   29.8939    7.4051 C   0  0  0  0  0  0  0  0  0  0  0  0
    8.3445   28.7825    6.5766 C   0  0  0  0  0  0  0  0  0  0  0  0
  1  3  1  0  0  0  0
  1  4  2  0  0  0  0
  1  5  1  0  0  0  0
  2  6  2  0  0  0  0
  2 11  1  0  0  0  0
  2  5  1  0  0  0  0
  4 10  1  0  0  0  0
  7  8  2  0  0  0  0
  7 12  1  0  0  0  0
  8  9  1  0  0  0  0
  9 10  2  0  0  0  0
 10 11  1  0  0  0  0
 11 12  2  0  0  0  0
M  END
>  <CHROM.1>
8.06951440,30.28851119,7.97929271,1.19127067,0.83510762,0.60487343

>  <Name>
ligand

>  <RI>
0

>  <Rbt.Current_Directory>
/home/itssahil/PROJECTS/Mol_Feturizer/New_Systems/rnas/4LX6

>  <Rbt.Executable>
rbdock ($Id: //depot/dev/client3/rdock/2013.1/src/exe/rbdock.cxx#4 $)

>  <Rbt.Library>
libRbt.so (2013.1, Build901 2013/11/27)

>  <Rbt.Parameter_File>
/export/apps/rDock/src/rDock_2013.1_src/data/scripts/dock_solv.prm

>  <Rbt.Receptor>
prm/blind_docking_40.prm

>  <SCORE>
-10.5374

>  <SCORE.INTER>
-10.5374

>  <SCORE.INTER.CONST>
1

>  <SCORE.INTER.POLAR>
0

>  <SCORE.INTER.ROT>
0

>  <SCORE.INTER.SOLV>
6.2054

>  <SCORE.INTER.VDW>
-12.6934

>  <SCORE.INTER.norm>
-0.878115

>  <SCORE.INTRA>
0

>  <SCORE.INTRA.DIHEDRAL>
0

>  <SCORE.INTRA.DIHEDRAL.0>
0

>  <SCORE.INTRA.POLAR>
0

>  <SCORE.INTRA.POLAR.0>
0

>  <SCORE.INTRA.REPUL>
0

>  <SCORE.INTRA.REPUL.0>
0

>  <SCORE.INTRA.SOLV>
0

>  <SCORE.INTRA.SOLV.lig_0>
-28.9128

>  <SCORE.INTRA.VDW>
0

>  <SCORE.INTRA.VDW.0>
0

>  <SCORE.INTRA.norm>
0

>  <SCORE.RESTR>
0

>  <SCORE.RESTR.CAVITY>
0

>  <SCORE.RESTR.norm>
0

>  <SCORE.SYSTEM>
0

>  <SCORE.SYSTEM.CONST>
0

>  <SCORE.SYSTEM.DIHEDRAL>
0

>  <SCORE.SYSTEM.SOLV>
0

>  <SCORE.SYSTEM.norm>
0

>  <SCORE.heavy>
12

>  <SCORE.norm>
-0.878115

>  <RMSD>
27.249

$$$$
ligand
 OpenBabel11021811503D
libRbt.so/2013.1/901 2013/11/27
 12 13  0  0  0  0  0  0  0  0999 V2000
    8.1555   32.1474    8.9294 C   0  0  0  0  0  0  0  0  0  0  0  0
    9.0861   31.0156    7.0119 C   0  0  0  0  0  0  0  0  0  0  0  0
    8.0539   33.2210    9.7044 N   0  0  0  0  0  0  0  0  0  0  0  0
    7.4261   31.0658    9.2217 N   0  0  0  0  0  0  0  0  0  0  0  0
    9.0074   32.1518    7.8093 N   0  0  0  0  0  0  0  0  0  0  0  0
    9.8383   31.0208    6.0335 O   0  0  0  0  0  0  0  0  0  0  0  0
    7.5707   27.6376    6.9589 N   0  0  0  0  0  0  0  0  0  0  0  0
    6.7443   27.7137    8.0910 C   0  0  0  0  0  0  0  0  0  0  0  0
    6.7121   28.9033    8.8426 N   0  0  0  0  0  0  0  0  0  0  0  0
    7.4838   29.9492    8.4849 C   0  0  0  0  0  0  0  0  0  0  0  0
    8.3150   29.9028    7.3573 C   0  0  0  0  0  0  0  0  0  0  0  0
    8.3698   28.7470    6.5924 C   0  0  0  0  0  0  0  0  0  0  0  0
  1  3  1  0  0  0  0
  1  4  2  0  0  0  0
  1  5  1  0  0  0  0
  2  6  2  0  0  0  0
  2 11  1  0  0  0  0
  2  5  1  0  0  0  0
  4 10  1  0  0  0  0
  7  8  2  0  0  0  0
  7 12  1  0  0  0  0
  8  9  1  0  0  0  0
  9 10  2  0  0  0  0
 10 11  1  0  0  0  0
 11 12  2  0  0  0  0
M  END
>  <CHROM.1>
8.08883278,30.32745769,7.90927874,1.19730202,0.84250647,0.54411262

>  <Name>
ligand

>  <RI>
0

>  <Rbt.Current_Directory>
/home/itssahil/PROJECTS/Mol_Feturizer/New_Systems/rnas/4LX6

>  <Rbt.Executable>
rbdock ($Id: //depot/dev/client3/rdock/2013.1/src/exe/rbdock.cxx#4 $)

>  <Rbt.Library>
libRbt.so (2013.1, Build901 2013/11/27)

>  <Rbt.Parameter_File>
/export/apps/rDock/src/rDock_2013.1_src/data/scripts/dock_solv.prm

>  <Rbt.Receptor>
prm/blind_docking_80.prm

>  <SCORE>
-10.5728

>  <SCORE.INTER>
-10.5728

>  <SCORE.INTER.CONST>
1

>  <SCORE.INTER.POLAR>
0

>  <SCORE.INTER.ROT>
0

>  <SCORE.INTER.SOLV>
5.85208

>  <SCORE.INTER.VDW>
-12.5993

>  <SCORE.INTER.norm>
-0.88107

>  <SCORE.INTRA>
0

>  <SCORE.INTRA.DIHEDRAL>
0

>  <SCORE.INTRA.DIHEDRAL.0>
0

>  <SCORE.INTRA.POLAR>
0

>  <SCORE.INTRA.POLAR.0>
0

>  <SCORE.INTRA.REPUL>
0

>  <SCORE.INTRA.REPUL.0>
0

>  <SCORE.INTRA.SOLV>
0

>  <SCORE.INTRA.SOLV.lig_0>
-28.9128

>  <SCORE.INTRA.VDW>
0

>  <SCORE.INTRA.VDW.0>
0

>  <SCORE.INTRA.norm>
0

>  <SCORE.RESTR>
0

>  <SCORE.RESTR.CAVITY>
0

>  <SCORE.RESTR.norm>
0

>  <SCORE.SYSTEM>
0

>  <SCORE.SYSTEM.CONST>
0

>  <SCORE.SYSTEM.DIHEDRAL>
0

>  <SCORE.SYSTEM.SOLV>
0

>  <SCORE.SYSTEM.norm>
0

>  <SCORE.heavy>
12

>  <SCORE.norm>
-0.88107

>  <RMSD>
27.262

$$$$
ligand
 OpenBabel11021811503D
libRbt.so/2013.1/901 2013/11/27
 12 13  0  0  0  0  0  0  0  0999 V2000
    8.0759   32.1768    8.9374 C   0  0  0  0  0  0  0  0  0  0  0  0
    9.1011   31.0553    7.0625 C   0  0  0  0  0  0  0  0  0  0  0  0
    7.9195   33.2533    9.6991 N   0  0  0  0  0  0  0  0  0  0  0  0
    7.3660   31.0783    9.2143 N   0  0  0  0  0  0  0  0  0  0  0  0
    8.9651   32.1953    7.8467 N   0  0  0  0  0  0  0  0  0  0  0  0
    9.8857   31.0730    6.1101 O   0  0  0  0  0  0  0  0  0  0  0  0
    7.6787   27.6375    6.9879 N   0  0  0  0  0  0  0  0  0  0  0  0
    6.8124   27.7003    8.0906 C   0  0  0  0  0  0  0  0  0  0  0  0
    6.7231   28.8945    8.8302 N   0  0  0  0  0  0  0  0  0  0  0  0
    7.4785   29.9579    8.4897 C   0  0  0  0  0  0  0  0  0  0  0  0
    8.3484   29.9250    7.3913 C   0  0  0  0  0  0  0  0  0  0  0  0
    8.4600   28.7651    6.6388 C   0  0  0  0  0  0  0  0  0  0  0  0
  1  3  1  0  0  0  0
  1  4  2  0  0  0  0
  1  5  1  0  0  0  0
  2  6  2  0  0  0  0
  2 11  1  0  0  0  0
  2  5  1  0  0  0  0
  4 10  1  0  0  0  0
  7  8  2  0  0  0  0
  7 12  1  0  0  0  0
  8  9  1  0  0  0  0
  9 10  2  0  0  0  0
 10 11  1  0  0  0  0
 11 12  2  0  0  0  0
M  END
>  <CHROM.1>
8.09243021,30.34771443,7.93158488,1.25690348,0.82622404,0.49161880

>  <Name>
ligand

>  <RI>
0

>  <Rbt.Current_Directory>
/home/itssahil/PROJECTS/Mol_Feturizer/New_Systems/rnas/4LX6

>  <Rbt.Executable>
rbdock ($Id: //depot/dev/client3/rdock/2013.1/src/exe/rbdock.cxx#4 $)

>  <Rbt.Library>
libRbt.so (2013.1, Build901 2013/11/27)

>  <Rbt.Parameter_File>
/export/apps/rDock/src/rDock_2013.1_src/data/scripts/dock_solv.prm

>  <Rbt.Receptor>
prm/blind_docking_40.prm

>  <SCORE>
-10.5611

>  <SCORE.INTER>
-10.5611

>  <SCORE.INTER.CONST>
1

>  <SCORE.INTER.POLAR>
0

>  <SCORE.INTER.ROT>
0

>  <SCORE.INTER.SOLV>
5.96172

>  <SCORE.INTER.VDW>
-12.6279

>  <SCORE.INTER.norm>
-0.880089

>  <SCORE.INTRA>
0

>  <SCORE.INTRA.DIHEDRAL>
0

>  <SCORE.INTRA.DIHEDRAL.0>
0

>  <SCORE.INTRA.POLAR>
0

>  <SCORE.INTRA.POLAR.0>
0

>  <SCORE.INTRA.REPUL>
0

>  <SCORE.INTRA.REPUL.0>
0

>  <SCORE.INTRA.SOLV>
0

>  <SCORE.INTRA.SOLV.lig_0>
-28.9128

>  <SCORE.INTRA.VDW>
0

>  <SCORE.INTRA.VDW.0>
0

>  <SCORE.INTRA.norm>
0

>  <SCORE.RESTR>
0

>  <SCORE.RESTR.CAVITY>
0

>  <SCORE.RESTR.norm>
0

>  <SCORE.SYSTEM>
0

>  <SCORE.SYSTEM.CONST>
0

>  <SCORE.SYSTEM.DIHEDRAL>
0

>  <SCORE.SYSTEM.SOLV>
0

>  <SCORE.SYSTEM.norm>
0

>  <SCORE.heavy>
12

>  <SCORE.norm>
-0.880089

>  <RMSD>
27.263

$$$$
ligand
 OpenBabel11021811503D
libRbt.so/2013.1/901 2013/11/27
 12 13  0  0  0  0  0  0  0  0999 V2000
    8.8005   31.9103    9.1457 C   0  0  0  0  0  0  0  0  0  0  0  0
    7.2327   31.8286    7.3128 C   0  0  0  0  0  0  0  0  0  0  0  0
    9.4956   32.5958   10.0459 N   0  0  0  0  0  0  0  0  0  0  0  0
    8.9066   30.5778    9.1224 N   0  0  0  0  0  0  0  0  0  0  0  0
    7.9541   32.5743    8.2383 N   0  0  0  0  0  0  0  0  0  0  0  0
    6.4955   32.4143    6.5150 O   0  0  0  0  0  0  0  0  0  0  0  0
    6.8422   28.2529    6.4342 N   0  0  0  0  0  0  0  0  0  0  0  0
    7.7051   27.6664    7.3731 C   0  0  0  0  0  0  0  0  0  0  0  0
    8.3941   28.4886    8.2844 N   0  0  0  0  0  0  0  0  0  0  0  0
    8.2373   29.8267    8.2387 C   0  0  0  0  0  0  0  0  0  0  0  0
    7.3792   30.4391    7.3151 C   0  0  0  0  0  0  0  0  0  0  0  0
    6.6828   29.6591    6.4037 C   0  0  0  0  0  0  0  0  0  0  0  0
  1  3  1  0  0  0  0
  1  4  2  0  0  0  0
  1  5  1  0  0  0  0
  2  6  2  0  0  0  0
  2 11  1  0  0  0  0
  2  5  1  0  0  0  0
  4 10  1  0  0  0  0
  7  8  2  0  0  0  0
  7 12  1  0  0  0  0
  8  9  1  0  0  0  0
  9 10  2  0  0  0  0
 10 11  1  0  0  0  0
 11 12  2  0  0  0  0
M  END
>  <CHROM.1>
7.83975646,30.56593454,7.87003572,-1.11769758,0.86034536,-3.02537743

>  <Name>
ligand

>  <RI>
0

>  <Rbt.Current_Directory>
/home/itssahil/PROJECTS/Mol_Feturizer/New_Systems/rnas/4LX6

>  <Rbt.Executable>
rbdock ($Id: //depot/dev/client3/rdock/2013.1/src/exe/rbdock.cxx#4 $)

>  <Rbt.Library>
libRbt.so (2013.1, Build901 2013/11/27)

>  <Rbt.Parameter_File>
/export/apps/rDock/src/rDock_2013.1_src/data/scripts/dock_solv.prm

>  <Rbt.Receptor>
prm/blind_docking_40.prm

>  <SCORE>
-7.9115

>  <SCORE.INTER>
-7.9115

>  <SCORE.INTER.CONST>
1

>  <SCORE.INTER.POLAR>
0

>  <SCORE.INTER.ROT>
0

>  <SCORE.INTER.SOLV>
5.41752

>  <SCORE.INTER.VDW>
-10.6802

>  <SCORE.INTER.norm>
-0.659292

>  <SCORE.INTRA>
0

>  <SCORE.INTRA.DIHEDRAL>
0

>  <SCORE.INTRA.DIHEDRAL.0>
0

>  <SCORE.INTRA.POLAR>
0

>  <SCORE.INTRA.POLAR.0>
0

>  <SCORE.INTRA.REPUL>
0

>  <SCORE.INTRA.REPUL.0>
0

>  <SCORE.INTRA.SOLV>
0

>  <SCORE.INTRA.SOLV.lig_0>
-28.9128

>  <SCORE.INTRA.VDW>
0

>  <SCORE.INTRA.VDW.0>
0

>  <SCORE.INTRA.norm>
0

>  <SCORE.RESTR>
0

>  <SCORE.RESTR.CAVITY>
0

>  <SCORE.RESTR.norm>
0

>  <SCORE.SYSTEM>
0

>  <SCORE.SYSTEM.CONST>
0

>  <SCORE.SYSTEM.DIHEDRAL>
0

>  <SCORE.SYSTEM.SOLV>
0

>  <SCORE.SYSTEM.norm>
0

>  <SCORE.heavy>
12

>  <SCORE.norm>
-0.659292

>  <RMSD>
27.559

$$$$
ligand
 OpenBabel11021811503D
libRbt.so/2013.1/901 2013/11/27
 12 13  0  0  0  0  0  0  0  0999 V2000
    7.6783   33.8899    9.7219 C   0  0  0  0  0  0  0  0  0  0  0  0
    6.3808   33.2317    7.7964 C   0  0  0  0  0  0  0  0  0  0  0  0
    8.0629   34.8082   10.6007 N   0  0  0  0  0  0  0  0  0  0  0  0
    8.1556   32.6461    9.8332 N   0  0  0  0  0  0  0  0  0  0  0  0
    6.7713   34.2167    8.6966 N   0  0  0  0  0  0  0  0  0  0  0  0
    5.5896   33.5228    6.8952 O   0  0  0  0  0  0  0  0  0  0  0  0
    7.0955   29.6422    7.2359 N   0  0  0  0  0  0  0  0  0  0  0  0
    7.9936   29.3964    8.2864 C   0  0  0  0  0  0  0  0  0  0  0  0
    8.3330   30.4441    9.1628 N   0  0  0  0  0  0  0  0  0  0  0  0
    7.8124   31.6739    8.9788 C   0  0  0  0  0  0  0  0  0  0  0  0
    6.9102   31.9468    7.9415 C   0  0  0  0  0  0  0  0  0  0  0  0
    6.5519   30.9373    7.0603 C   0  0  0  0  0  0  0  0  0  0  0  0
  1  3  1  0  0  0  0
  1  4  2  0  0  0  0
  1  5  1  0  0  0  0
  2  6  2  0  0  0  0
  2 11  1  0  0  0  0
  2  5  1  0  0  0  0
  4 10  1  0  0  0  0
  7  8  2  0  0  0  0
  7 12  1  0  0  0  0
  8  9  1  0  0  0  0
  9 10  2  0  0  0  0
 10 11  1  0  0  0  0
 11 12  2  0  0  0  0
M  END
>  <CHROM.1>
7.26092241,32.23960816,8.51367573,-1.58463563,0.87144084,-2.75181749

>  <Name>
ligand

>  <RI>
0

>  <Rbt.Current_Directory>
/home/itssahil/PROJECTS/Mol_Feturizer/New_Systems/rnas/4LX6

>  <Rbt.Executable>
rbdock ($Id: //depot/dev/client3/rdock/2013.1/src/exe/rbdock.cxx#4 $)

>  <Rbt.Library>
libRbt.so (2013.1, Build901 2013/11/27)

>  <Rbt.Parameter_File>
/export/apps/rDock/src/rDock_2013.1_src/data/scripts/dock_solv.prm

>  <Rbt.Receptor>
prm/blind_docking_80.prm

>  <SCORE>
-7.77894

>  <SCORE.INTER>
-7.77894

>  <SCORE.INTER.CONST>
1

>  <SCORE.INTER.POLAR>
0

>  <SCORE.INTER.ROT>
0

>  <SCORE.INTER.SOLV>
4.13772

>  <SCORE.INTER.VDW>
-10.1652

>  <SCORE.INTER.norm>
-0.648245

>  <SCORE.INTRA>
0

>  <SCORE.INTRA.DIHEDRAL>
0

>  <SCORE.INTRA.DIHEDRAL.0>
0

>  <SCORE.INTRA.POLAR>
0

>  <SCORE.INTRA.POLAR.0>
0

>  <SCORE.INTRA.REPUL>
0

>  <SCORE.INTRA.REPUL.0>
0

>  <SCORE.INTRA.SOLV>
0

>  <SCORE.INTRA.SOLV.lig_0>
-28.9128

>  <SCORE.INTRA.VDW>
0

>  <SCORE.INTRA.VDW.0>
0

>  <SCORE.INTRA.norm>
0

>  <SCORE.RESTR>
0

>  <SCORE.RESTR.CAVITY>
0

>  <SCORE.RESTR.norm>
0

>  <SCORE.SYSTEM>
0

>  <SCORE.SYSTEM.CONST>
0

>  <SCORE.SYSTEM.DIHEDRAL>
0

>  <SCORE.SYSTEM.SOLV>
0

>  <SCORE.SYSTEM.norm>
0

>  <SCORE.heavy>
12

>  <SCORE.norm>
-0.648245

>  <RMSD>
28.635

$$$$
ligand
 OpenBabel11021811503D
libRbt.so/2013.1/901 2013/11/27
 12 13  0  0  0  0  0  0  0  0999 V2000
    8.0410   33.9607   10.3774 C   0  0  0  0  0  0  0  0  0  0  0  0
    6.5536   33.9277    8.4772 C   0  0  0  0  0  0  0  0  0  0  0  0
    8.6209   34.6048   11.3836 N   0  0  0  0  0  0  0  0  0  0  0  0
    8.3043   32.6618   10.2017 N   0  0  0  0  0  0  0  0  0  0  0  0
    7.1518   34.6309    9.5167 N   0  0  0  0  0  0  0  0  0  0  0  0
    5.7787   34.5197    7.7210 O   0  0  0  0  0  0  0  0  0  0  0  0
    6.6165   30.4659    7.1648 N   0  0  0  0  0  0  0  0  0  0  0  0
    7.5119   29.8701    8.0668 C   0  0  0  0  0  0  0  0  0  0  0  0
    8.0693   30.6468    9.0998 N   0  0  0  0  0  0  0  0  0  0  0  0
    7.7572   31.9540    9.2054 C   0  0  0  0  0  0  0  0  0  0  0  0
    6.8630   32.5740    8.3220 C   0  0  0  0  0  0  0  0  0  0  0  0
    6.2933   31.8381    7.2934 C   0  0  0  0  0  0  0  0  0  0  0  0
  1  3  1  0  0  0  0
  1  4  2  0  0  0  0
  1  5  1  0  0  0  0
  2  6  2  0  0  0  0
  2 11  1  0  0  0  0
  2  5  1  0  0  0  0
  4 10  1  0  0  0  0
  7  8  2  0  0  0  0
  7 12  1  0  0  0  0
  8  9  1  0  0  0  0
  9 10  2  0  0  0  0
 10 11  1  0  0  0  0
 11 12  2  0  0  0  0
M  END
>  <CHROM.1>
7.28724746,32.68307753,8.90870346,-1.30642258,0.87000559,-2.76025654

>  <Name>
ligand

>  <RI>
0

>  <Rbt.Current_Directory>
/home/itssahil/PROJECTS/Mol_Feturizer/New_Systems/rnas/4LX6

>  <Rbt.Executable>
rbdock ($Id: //depot/dev/client3/rdock/2013.1/src/exe/rbdock.cxx#4 $)

>  <Rbt.Library>
libRbt.so (2013.1, Build901 2013/11/27)

>  <Rbt.Parameter_File>
/export/apps/rDock/src/rDock_2013.1_src/data/scripts/dock_solv.prm

>  <Rbt.Receptor>
prm/blind_docking_40.prm

>  <SCORE>
-8.19703

>  <SCORE.INTER>
-8.19703

>  <SCORE.INTER.CONST>
1

>  <SCORE.INTER.POLAR>
0

>  <SCORE.INTER.ROT>
0

>  <SCORE.INTER.SOLV>
2.91019

>  <SCORE.INTER.VDW>
-10.0348

>  <SCORE.INTER.norm>
-0.683086

>  <SCORE.INTRA>
0

>  <SCORE.INTRA.DIHEDRAL>
0

>  <SCORE.INTRA.DIHEDRAL.0>
0

>  <SCORE.INTRA.POLAR>
0

>  <SCORE.INTRA.POLAR.0>
0

>  <SCORE.INTRA.REPUL>
0

>  <SCORE.INTRA.REPUL.0>
0

>  <SCORE.INTRA.SOLV>
0

>  <SCORE.INTRA.SOLV.lig_0>
-28.9128

>  <SCORE.INTRA.VDW>
0

>  <SCORE.INTRA.VDW.0>
0

>  <SCORE.INTRA.norm>
0

>  <SCORE.RESTR>
0

>  <SCORE.RESTR.CAVITY>
0

>  <SCORE.RESTR.norm>
0

>  <SCORE.SYSTEM>
0

>  <SCORE.SYSTEM.CONST>
0

>  <SCORE.SYSTEM.DIHEDRAL>
0

>  <SCORE.SYSTEM.SOLV>
0

>  <SCORE.SYSTEM.norm>
0

>  <SCORE.heavy>
12

>  <SCORE.norm>
-0.683086

>  <RMSD>
28.770

$$$$
ligand
 OpenBabel11021811503D
libRbt.so/2013.1/901 2013/11/27
 12 13  0  0  0  0  0  0  0  0999 V2000
    8.0457   33.9652   10.3692 C   0  0  0  0  0  0  0  0  0  0  0  0
    6.5480   33.9360    8.4771 C   0  0  0  0  0  0  0  0  0  0  0  0
    8.6298   34.6068   11.3746 N   0  0  0  0  0  0  0  0  0  0  0  0
    8.3110   32.6676   10.1872 N   0  0  0  0  0  0  0  0  0  0  0  0
    7.1504   34.6367    9.5160 N   0  0  0  0  0  0  0  0  0  0  0  0
    5.7675   34.5291    7.7274 O   0  0  0  0  0  0  0  0  0  0  0  0
    6.6112   30.4794    7.1514 N   0  0  0  0  0  0  0  0  0  0  0  0
    7.5129   29.8821    8.0461 C   0  0  0  0  0  0  0  0  0  0  0  0
    8.0743   30.6562    9.0789 N   0  0  0  0  0  0  0  0  0  0  0  0
    7.7599   31.9623    9.1912 C   0  0  0  0  0  0  0  0  0  0  0  0
    6.8595   32.5836    8.3151 C   0  0  0  0  0  0  0  0  0  0  0  0
    6.2858   31.8503    7.2870 C   0  0  0  0  0  0  0  0  0  0  0  0
  1  3  1  0  0  0  0
  1  4  2  0  0  0  0
  1  5  1  0  0  0  0
  2  6  2  0  0  0  0
  2 11  1  0  0  0  0
  2  5  1  0  0  0  0
  4 10  1  0  0  0  0
  7  8  2  0  0  0  0
  7 12  1  0  0  0  0
  8  9  1  0  0  0  0
  9 10  2  0  0  0  0
 10 11  1  0  0  0  0
 11 12  2  0  0  0  0
M  END
>  <CHROM.1>
7.28672793,32.69142871,8.89988203,-1.30640782,0.86404333,-2.75650973

>  <Name>
ligand

>  <RI>
0

>  <Rbt.Current_Directory>
/home/itssahil/PROJECTS/Mol_Feturizer/New_Systems/rnas/4LX6

>  <Rbt.Executable>
rbdock ($Id: //depot/dev/client3/rdock/2013.1/src/exe/rbdock.cxx#4 $)

>  <Rbt.Library>
libRbt.so (2013.1, Build901 2013/11/27)

>  <Rbt.Parameter_File>
/export/apps/rDock/src/rDock_2013.1_src/data/scripts/dock_solv.prm

>  <Rbt.Receptor>
prm/blind_docking_40.prm

>  <SCORE>
-8.21112

>  <SCORE.INTER>
-8.21112

>  <SCORE.INTER.CONST>
1

>  <SCORE.INTER.POLAR>
0

>  <SCORE.INTER.ROT>
0

>  <SCORE.INTER.SOLV>
2.87585

>  <SCORE.INTER.VDW>
-10.0327

>  <SCORE.INTER.norm>
-0.68426

>  <SCORE.INTRA>
0

>  <SCORE.INTRA.DIHEDRAL>
0

>  <SCORE.INTRA.DIHEDRAL.0>
0

>  <SCORE.INTRA.POLAR>
0

>  <SCORE.INTRA.POLAR.0>
0

>  <SCORE.INTRA.REPUL>
0

>  <SCORE.INTRA.REPUL.0>
0

>  <SCORE.INTRA.SOLV>
0

>  <SCORE.INTRA.SOLV.lig_0>
-28.9128

>  <SCORE.INTRA.VDW>
0

>  <SCORE.INTRA.VDW.0>
0

>  <SCORE.INTRA.norm>
0

>  <SCORE.RESTR>
0

>  <SCORE.RESTR.CAVITY>
0

>  <SCORE.RESTR.norm>
0

>  <SCORE.SYSTEM>
0

>  <SCORE.SYSTEM.CONST>
0

>  <SCORE.SYSTEM.DIHEDRAL>
0

>  <SCORE.SYSTEM.SOLV>
0

>  <SCORE.SYSTEM.norm>
0

>  <SCORE.heavy>
12

>  <SCORE.norm>
-0.68426

>  <RMSD>
28.777

$$$$
ligand
 OpenBabel11021811503D
libRbt.so/2013.1/901 2013/11/27
 12 13  0  0  0  0  0  0  0  0999 V2000
    8.0478   33.9664   10.3672 C   0  0  0  0  0  0  0  0  0  0  0  0
    6.5457   33.9392    8.4785 C   0  0  0  0  0  0  0  0  0  0  0  0
    8.6339   34.6069   11.3721 N   0  0  0  0  0  0  0  0  0  0  0  0
    8.3131   32.6692   10.1827 N   0  0  0  0  0  0  0  0  0  0  0  0
    7.1502   34.6387    9.5169 N   0  0  0  0  0  0  0  0  0  0  0  0
    5.7633   34.5330    7.7314 O   0  0  0  0  0  0  0  0  0  0  0  0
    6.6072   30.4844    7.1480 N   0  0  0  0  0  0  0  0  0  0  0  0
    7.5112   29.8863    8.0398 C   0  0  0  0  0  0  0  0  0  0  0  0
    8.0746   30.6592    9.0723 N   0  0  0  0  0  0  0  0  0  0  0  0
    7.7600   31.9650    9.1872 C   0  0  0  0  0  0  0  0  0  0  0  0
    6.8573   32.5872    8.3139 C   0  0  0  0  0  0  0  0  0  0  0  0
    6.2815   31.8550    7.2861 C   0  0  0  0  0  0  0  0  0  0  0  0
  1  3  1  0  0  0  0
  1  4  2  0  0  0  0
  1  5  1  0  0  0  0
  2  6  2  0  0  0  0
  2 11  1  0  0  0  0
  2  5  1  0  0  0  0
  4 10  1  0  0  0  0
  7  8  2  0  0  0  0
  7 12  1  0  0  0  0
  8  9  1  0  0  0  0
  9 10  2  0  0  0  0
 10 11  1  0  0  0  0
 11 12  2  0  0  0  0
M  END
>  <CHROM.1>
7.28589131,32.69439429,8.89787849,-1.30562861,0.86175906,-2.75573931

>  <Name>
ligand

>  <RI>
0

>  <Rbt.Current_Directory>
/home/itssahil/PROJECTS/Mol_Feturizer/New_Systems/rnas/4LX6

>  <Rbt.Executable>
rbdock ($Id: //depot/dev/client3/rdock/2013.1/src/exe/rbdock.cxx#4 $)

>  <Rbt.Library>
libRbt.so (2013.1, Build901 2013/11/27)

>  <Rbt.Parameter_File>
/export/apps/rDock/src/rDock_2013.1_src/data/scripts/dock_solv.prm

>  <Rbt.Receptor>
prm/blind_docking_40.prm

>  <SCORE>
-8.2118

>  <SCORE.INTER>
-8.2118

>  <SCORE.INTER.CONST>
1

>  <SCORE.INTER.POLAR>
0

>  <SCORE.INTER.ROT>
0

>  <SCORE.INTER.SOLV>
2.86365

>  <SCORE.INTER.VDW>
-10.0291

>  <SCORE.INTER.norm>
-0.684317

>  <SCORE.INTRA>
0

>  <SCORE.INTRA.DIHEDRAL>
0

>  <SCORE.INTRA.DIHEDRAL.0>
0

>  <SCORE.INTRA.POLAR>
0

>  <SCORE.INTRA.POLAR.0>
0

>  <SCORE.INTRA.REPUL>
0

>  <SCORE.INTRA.REPUL.0>
0

>  <SCORE.INTRA.SOLV>
0

>  <SCORE.INTRA.SOLV.lig_0>
-28.9128

>  <SCORE.INTRA.VDW>
0

>  <SCORE.INTRA.VDW.0>
0

>  <SCORE.INTRA.norm>
0

>  <SCORE.RESTR>
0

>  <SCORE.RESTR.CAVITY>
0

>  <SCORE.RESTR.norm>
0

>  <SCORE.SYSTEM>
0

>  <SCORE.SYSTEM.CONST>
0

>  <SCORE.SYSTEM.DIHEDRAL>
0

>  <SCORE.SYSTEM.SOLV>
0

>  <SCORE.SYSTEM.norm>
0

>  <SCORE.heavy>
12

>  <SCORE.norm>
-0.684317

>  <RMSD>
28.780

$$$$
ligand
 OpenBabel11021811503D
libRbt.so/2013.1/901 2013/11/27
 12 13  0  0  0  0  0  0  0  0999 V2000
    8.0038   33.9870   10.4190 C   0  0  0  0  0  0  0  0  0  0  0  0
    6.5669   34.0195    8.4804 C   0  0  0  0  0  0  0  0  0  0  0  0
    8.5741   34.6017   11.4488 N   0  0  0  0  0  0  0  0  0  0  0  0
    8.2367   32.6838   10.2323 N   0  0  0  0  0  0  0  0  0  0  0  0
    7.1561   34.6925    9.5448 N   0  0  0  0  0  0  0  0  0  0  0  0
    5.8285   34.6423    7.7124 O   0  0  0  0  0  0  0  0  0  0  0  0
    6.5712   30.5749    7.1223 N   0  0  0  0  0  0  0  0  0  0  0  0
    7.4261   29.9430    8.0389 C   0  0  0  0  0  0  0  0  0  0  0  0
    7.9767   30.6906    9.0968 N   0  0  0  0  0  0  0  0  0  0  0  0
    7.6972   32.0043    9.2123 C   0  0  0  0  0  0  0  0  0  0  0  0
    6.8437   32.6600    8.3145 C   0  0  0  0  0  0  0  0  0  0  0  0
    6.2819   31.9535    7.2614 C   0  0  0  0  0  0  0  0  0  0  0  0
  1  3  1  0  0  0  0
  1  4  2  0  0  0  0
  1  5  1  0  0  0  0
  2  6  2  0  0  0  0
  2 11  1  0  0  0  0
  2  5  1  0  0  0  0
  4 10  1  0  0  0  0
  7  8  2  0  0  0  0
  7 12  1  0  0  0  0
  8  9  1  0  0  0  0
  9 10  2  0  0  0  0
 10 11  1  0  0  0  0
 11 12  2  0  0  0  0
M  END
>  <CHROM.1>
7.25509269,32.74979451,8.91359370,-1.28190499,0.90443795,-2.76578167

>  <Name>
ligand

>  <RI>
0

>  <Rbt.Current_Directory>
/home/itssahil/PROJECTS/Mol_Feturizer/New_Systems/rnas/4LX6

>  <Rbt.Executable>
rbdock ($Id: //depot/dev/client3/rdock/2013.1/src/exe/rbdock.cxx#4 $)

>  <Rbt.Library>
libRbt.so (2013.1, Build901 2013/11/27)

>  <Rbt.Parameter_File>
/export/apps/rDock/src/rDock_2013.1_src/data/scripts/dock_solv.prm

>  <Rbt.Receptor>
prm/blind_docking_40.prm

>  <SCORE>
-8.14144

>  <SCORE.INTER>
-8.14161

>  <SCORE.INTER.CONST>
1

>  <SCORE.INTER.POLAR>
0

>  <SCORE.INTER.ROT>
0

>  <SCORE.INTER.SOLV>
2.99272

>  <SCORE.INTER.VDW>
-10.0253

>  <SCORE.INTER.norm>
-0.678468

>  <SCORE.INTRA>
0

>  <SCORE.INTRA.DIHEDRAL>
0

>  <SCORE.INTRA.DIHEDRAL.0>
0

>  <SCORE.INTRA.POLAR>
0

>  <SCORE.INTRA.POLAR.0>
0

>  <SCORE.INTRA.REPUL>
0

>  <SCORE.INTRA.REPUL.0>
0

>  <SCORE.INTRA.SOLV>
0

>  <SCORE.INTRA.SOLV.lig_0>
-28.9128

>  <SCORE.INTRA.VDW>
0

>  <SCORE.INTRA.VDW.0>
0

>  <SCORE.INTRA.norm>
0

>  <SCORE.RESTR>
0.000179169

>  <SCORE.RESTR.CAVITY>
0.000179169

>  <SCORE.RESTR.norm>
1.49308e-05

>  <SCORE.SYSTEM>
0

>  <SCORE.SYSTEM.CONST>
0

>  <SCORE.SYSTEM.DIHEDRAL>
0

>  <SCORE.SYSTEM.SOLV>
0

>  <SCORE.SYSTEM.norm>
0

>  <SCORE.heavy>
12

>  <SCORE.norm>
-0.678453

>  <RMSD>
28.834

$$$$
ligand
 OpenBabel11021811503D
libRbt.so/2013.1/901 2013/11/27
 12 13  0  0  0  0  0  0  0  0999 V2000
    5.7861   34.1299    7.2803 C   0  0  0  0  0  0  0  0  0  0  0  0
    7.0062   33.3971    9.2293 C   0  0  0  0  0  0  0  0  0  0  0  0
    5.1601   35.0794    6.5948 N   0  0  0  0  0  0  0  0  0  0  0  0
    5.8848   32.9063    6.7508 N   0  0  0  0  0  0  0  0  0  0  0  0
    6.3495   34.4098    8.5392 N   0  0  0  0  0  0  0  0  0  0  0  0
    7.4944   33.6444   10.3354 O   0  0  0  0  0  0  0  0  0  0  0  0
    7.7863   29.8186    8.6857 N   0  0  0  0  0  0  0  0  0  0  0  0
    7.2002   29.6208    7.4256 C   0  0  0  0  0  0  0  0  0  0  0  0
    6.5609   30.6991    6.7856 N   0  0  0  0  0  0  0  0  0  0  0  0
    6.4987   31.9025    7.3900 C   0  0  0  0  0  0  0  0  0  0  0  0
    7.0788   32.1297    8.6456 C   0  0  0  0  0  0  0  0  0  0  0  0
    7.7187   31.0901    9.3041 C   0  0  0  0  0  0  0  0  0  0  0  0
  1  3  1  0  0  0  0
  1  4  2  0  0  0  0
  1  5  1  0  0  0  0
  2  6  2  0  0  0  0
  2 11  1  0  0  0  0
  2  5  1  0  0  0  0
  4 10  1  0  0  0  0
  7  8  2  0  0  0  0
  7 12  1  0  0  0  0
  8  9  1  0  0  0  0
  9 10  2  0  0  0  0
 10 11  1  0  0  0  0
 11 12  2  0  0  0  0
M  END
>  <CHROM.1>
6.70730221,32.44503844,8.09894882,2.28952783,-1.03778105,0.52632203

>  <Name>
ligand

>  <RI>
0

>  <Rbt.Current_Directory>
/home/itssahil/PROJECTS/Mol_Feturizer/New_Systems/rnas/4LX6

>  <Rbt.Executable>
rbdock ($Id: //depot/dev/client3/rdock/2013.1/src/exe/rbdock.cxx#4 $)

>  <Rbt.Library>
libRbt.so (2013.1, Build901 2013/11/27)

>  <Rbt.Parameter_File>
/export/apps/rDock/src/rDock_2013.1_src/data/scripts/dock_solv.prm

>  <Rbt.Receptor>
prm/blind_docking_60.prm

>  <SCORE>
-8.27136

>  <SCORE.INTER>
-8.27136

>  <SCORE.INTER.CONST>
1

>  <SCORE.INTER.POLAR>
0

>  <SCORE.INTER.ROT>
0

>  <SCORE.INTER.SOLV>
6.52047

>  <SCORE.INTER.VDW>
-11.2877

>  <SCORE.INTER.norm>
-0.68928

>  <SCORE.INTRA>
0

>  <SCORE.INTRA.DIHEDRAL>
0

>  <SCORE.INTRA.DIHEDRAL.0>
0

>  <SCORE.INTRA.POLAR>
0

>  <SCORE.INTRA.POLAR.0>
0

>  <SCORE.INTRA.REPUL>
0

>  <SCORE.INTRA.REPUL.0>
0

>  <SCORE.INTRA.SOLV>
0

>  <SCORE.INTRA.SOLV.lig_0>
-28.9128

>  <SCORE.INTRA.VDW>
0

>  <SCORE.INTRA.VDW.0>
0

>  <SCORE.INTRA.norm>
0

>  <SCORE.RESTR>
0

>  <SCORE.RESTR.CAVITY>
0

>  <SCORE.RESTR.norm>
0

>  <SCORE.SYSTEM>
0

>  <SCORE.SYSTEM.CONST>
0

>  <SCORE.SYSTEM.DIHEDRAL>
0

>  <SCORE.SYSTEM.SOLV>
0

>  <SCORE.SYSTEM.norm>
0

>  <SCORE.heavy>
12

>  <SCORE.norm>
-0.68928

>  <RMSD>
29.293

$$$$
ligand
 OpenBabel11021811503D
libRbt.so/2013.1/901 2013/11/27
 12 13  0  0  0  0  0  0  0  0999 V2000
   -7.5756   20.2252    6.6553 C   0  0  0  0  0  0  0  0  0  0  0  0
   -5.5301   21.2616    5.9030 C   0  0  0  0  0  0  0  0  0  0  0  0
   -8.7508   20.2933    7.2699 N   0  0  0  0  0  0  0  0  0  0  0  0
   -7.1921   19.0631    6.1169 N   0  0  0  0  0  0  0  0  0  0  0  0
   -6.7514   21.3619    6.5598 N   0  0  0  0  0  0  0  0  0  0  0  0
   -4.8073   22.2588    5.8257 O   0  0  0  0  0  0  0  0  0  0  0  0
   -3.6051   18.6228    4.1591 N   0  0  0  0  0  0  0  0  0  0  0  0
   -4.4843   17.5370    4.2952 C   0  0  0  0  0  0  0  0  0  0  0  0
   -5.7080   17.7205    4.9661 N   0  0  0  0  0  0  0  0  0  0  0  0
   -6.0186   18.9243    5.4872 C   0  0  0  0  0  0  0  0  0  0  0  0
   -5.1621   20.0268    5.3626 C   0  0  0  0  0  0  0  0  0  0  0  0
   -3.9490   19.8824    4.7057 C   0  0  0  0  0  0  0  0  0  0  0  0
  1  3  1  0  0  0  0
  1  4  2  0  0  0  0
  1  5  1  0  0  0  0
  2  6  2  0  0  0  0
  2 11  1  0  0  0  0
  2  5  1  0  0  0  0
  4 10  1  0  0  0  0
  7  8  2  0  0  0  0
  7 12  1  0  0  0  0
  8  9  1  0  0  0  0
  9 10  2  0  0  0  0
 10 11  1  0  0  0  0
 11 12  2  0  0  0  0
M  END
>  <CHROM.1>
-5.80794942,19.80547352,5.62732772,2.47767464,0.45581980,0.28198921

>  <Name>
ligand

>  <RI>
0

>  <Rbt.Current_Directory>
/home/itssahil/PROJECTS/Mol_Feturizer/New_Systems/rnas/4LX6

>  <Rbt.Executable>
rbdock ($Id: //depot/dev/client3/rdock/2013.1/src/exe/rbdock.cxx#4 $)

>  <Rbt.Library>
libRbt.so (2013.1, Build901 2013/11/27)

>  <Rbt.Parameter_File>
/export/apps/rDock/src/rDock_2013.1_src/data/scripts/dock_solv.prm

>  <Rbt.Receptor>
prm/blind_docking_80.prm

>  <SCORE>
-10.751

>  <SCORE.INTER>
-10.751

>  <SCORE.INTER.CONST>
1

>  <SCORE.INTER.POLAR>
0

>  <SCORE.INTER.ROT>
0

>  <SCORE.INTER.SOLV>
5.4342

>  <SCORE.INTER.VDW>
-12.5787

>  <SCORE.INTER.norm>
-0.895914

>  <SCORE.INTRA>
0

>  <SCORE.INTRA.DIHEDRAL>
0

>  <SCORE.INTRA.DIHEDRAL.0>
0

>  <SCORE.INTRA.POLAR>
0

>  <SCORE.INTRA.POLAR.0>
0

>  <SCORE.INTRA.REPUL>
0

>  <SCORE.INTRA.REPUL.0>
0

>  <SCORE.INTRA.SOLV>
0

>  <SCORE.INTRA.SOLV.lig_0>
-28.9128

>  <SCORE.INTRA.VDW>
0

>  <SCORE.INTRA.VDW.0>
0

>  <SCORE.INTRA.norm>
0

>  <SCORE.RESTR>
0

>  <SCORE.RESTR.CAVITY>
0

>  <SCORE.RESTR.norm>
0

>  <SCORE.SYSTEM>
0

>  <SCORE.SYSTEM.CONST>
0

>  <SCORE.SYSTEM.DIHEDRAL>
0

>  <SCORE.SYSTEM.SOLV>
0

>  <SCORE.SYSTEM.norm>
0

>  <SCORE.heavy>
12

>  <SCORE.norm>
-0.895914

>  <RMSD>
38.293

$$$$
