@<TRIPOS>MOLECULE
4LX6_rdock.pdb
 1502 1677 0 0 0
SMALL
GASTEIGER

@<TRIPOS>ATOM
      1  P         50.1260    7.1130   14.7020 P.3    13  G13         0.1280
      2  C5'       49.4790    7.5740   12.1880 C.3    13  G13         0.1795
      3  O5'       49.3110    6.7910   13.3660 O.3    13  G13        -0.3259
      4  C4'       49.6980    6.7160   10.9620 C.3    13  G13         0.1772
      5  O4'       50.5350    5.5820   11.3090 O.3    13  G13        -0.3307
      6  C3'       48.4540    6.0950   10.3320 C.3    13  G13         0.1860
      7  O3'       47.8100    6.9770    9.4270 O.3    13  G13        -0.3112
      8  C2'       49.0010    4.8470    9.6510 C.3    13  G13         0.2309
      9  O2'       49.5960    5.1770    8.4040 O.3    13  G13        -0.2156
     10  C1'       50.1080    4.4310   10.6170 C.3    13  G13         0.2408
     11  N1        48.1570   -0.2100   11.4640 N.ar   13  G13        -0.1709
     12  C2        48.4380    0.4070   10.2730 C.ar   13  G13         0.2606
     13  N2        48.1650   -0.2980    9.1690 N.pl3  13  G13        -0.0859
     14  N3        48.9430    1.6230   10.1690 N.ar   13  G13        -0.1918
     15  C4        49.1520    2.1850   11.3770 C.ar   13  G13         0.1723
     16  C5        48.9060    1.6530   12.6270 C.ar   13  G13         0.1748
     17  C6        48.3600    0.3450   12.7200 C.ar   13  G13         0.3023
     18  O6        48.0630   -0.3040   13.7310 O.2    13  G13        -0.2633
     19  N7        49.2590    2.5520   13.6260 N.ar   13  G13        -0.2173
     20  C8        49.7020    3.5920   12.9770 C.ar   13  G13         0.1817
     21  N9        49.6590    3.4400   11.6120 N.ar   13  G13        -0.2693
     22  OP1       50.0920    8.5830   14.9470 O.3    13  G13        -0.1955
     23  OP2       49.6650    6.1730   15.7620 O.co2  13  G13        -0.7863
     24  P         46.2100    7.1300    9.4100 P.3    14  G14         0.2141
     25  C5'       45.7910    5.7360    7.2220 C.3    14  G14         0.1812
     26  O5'       45.6900    5.8350    8.6360 O.3    14  G14        -0.3114
     27  C4'       45.3450    4.3810    6.7240 C.3    14  G14         0.1773
     28  O4'       46.1730    3.3430    7.3120 O.3    14  G14        -0.3307
     29  C3'       43.9270    3.9680    7.0820 C.3    14  G14         0.1860
     30  O3'       42.9570    4.5350    6.2220 O.3    14  G14        -0.3112
     31  C2'       43.9920    2.4470    7.0140 C.3    14  G14         0.2309
     32  O2'       43.9280    1.9970    5.6680 O.3    14  G14        -0.2156
     33  C1'       45.3990    2.1840    7.5500 C.3    14  G14         0.2408
     34  N1        44.4170   -1.1440   11.2930 N.ar   14  G14        -0.1709
     35  C2        44.2570   -1.2940    9.9350 C.ar   14  G14         0.2606
     36  N2        43.7750   -2.4750    9.5170 N.pl3  14  G14        -0.0859
     37  N3        44.5440   -0.3540    9.0490 N.ar   14  G14        -0.1918
     38  C4        45.0140    0.7660    9.6430 C.ar   14  G14         0.1723
     39  C5        45.2110    1.0140   10.9890 C.ar   14  G14         0.1748
     40  C6        44.8980   -0.0030   11.9280 C.ar   14  G14         0.3023
     41  O6        45.0030    0.0280   13.1610 O.2    14  G14        -0.2633
     42  N7        45.7110    2.2950   11.1880 N.ar   14  G14        -0.2173
     43  C8        45.8130    2.7920    9.9860 C.ar   14  G14         0.1817
     44  N9        45.4020    1.9210    9.0020 N.ar   14  G14        -0.2693
     45  OP1       45.9180    8.3130    8.5640 O.2    14  G14        -0.5172
     46  OP2       45.7150    7.0770   10.8110 O.co2  14  G14        -0.4373
     47  P         41.6210    5.1800    6.8330 P.3    15  C15         0.2141
     48  C5'       40.4260    3.1440    5.7090 C.3    15  C15         0.1812
     49  O5'       40.5840    3.9750    6.8460 O.3    15  C15        -0.3114
     50  C4'       39.9110    1.7850    6.1030 C.3    15  C15         0.1773
     51  O4'       40.9540    1.0380    6.7830 O.3    15  C15        -0.3307
     52  C3'       38.7570    1.7800    7.0920 C.3    15  C15         0.1860
     53  O3'       37.5040    2.0570    6.4910 O.3    15  C15        -0.3112
     54  C2'       38.8640    0.3910    7.7050 C.3    15  C15         0.2309
     55  O2'       38.3400   -0.5890    6.8220 O.3    15  C15        -0.2156
     56  C1'       40.3800    0.2170    7.7810 C.3    15  C15         0.2420
     57  N1        40.9030    0.6290    9.1030 N.ar   15  C15        -0.2535
     58  C2        40.8340   -0.2950   10.1530 C.ar   15  C15         0.3532
     59  O2        40.3570   -1.4210    9.9420 O.2    15  C15        -0.2443
     60  N3        41.2940    0.0540   11.3730 N.ar   15  C15        -0.1739
     61  C4        41.8000    1.2680   11.5690 C.ar   15  C15         0.1759
     62  N4        42.2380    1.5530   12.7960 N.pl3  15  C15        -0.1070
     63  C5        41.8780    2.2340   10.5220 C.ar   15  C15         0.0566
     64  C6        41.4220    1.8760    9.3170 C.ar   15  C15         0.0850
     65  OP1       41.1250    6.1940    5.8700 O.2    15  C15        -0.5172
     66  OP2       41.8910    5.5560    8.2440 O.co2  15  C15        -0.4373
     67  P         36.3530    2.8200    7.3180 P.3    16  U16         0.2141
     68  C5'       35.4430    0.4900    8.0480 C.3    16  U16         0.1812
     69  O5'       35.9400    1.7610    8.4280 O.3    16  U16        -0.3114
     70  C4'       35.3070   -0.4200    9.2350 C.3    16  U16         0.1773
     71  O4'       36.6050   -0.6500    9.8410 O.3    16  U16        -0.3307
     72  C3'       34.4690    0.1110   10.3820 C.3    16  U16         0.1860
     73  O3'       33.0760    0.0120   10.1500 O.3    16  U16        -0.3112
     74  C2'       34.9540   -0.7290   11.5480 C.3    16  U16         0.2309
     75  O2'       34.3850   -2.0260   11.4910 O.3    16  U16        -0.2156
     76  C1'       36.4480   -0.8460   11.2310 C.3    16  U16         0.2420
     77  N1        37.2500    0.1620   11.9570 N.ar   16  U16        -0.2534
     78  C2        37.4480   -0.0760   13.3030 C.ar   16  U16         0.3546
     79  O2        36.9910   -1.0480   13.8750 O.2    16  U16        -0.2443
     80  N3        38.2000    0.8630   13.9610 N.ar   16  U16        -0.1530
     81  C4        38.7580    1.9960   13.4140 C.ar   16  U16         0.2846
     82  O4        39.4050    2.7450   14.1470 O.2    16  U16        -0.2650
     83  C5        38.5110    2.1740   12.0130 C.ar   16  U16         0.0814
     84  C6        37.7830    1.2720   11.3440 C.ar   16  U16         0.0870
     85  OP1       35.1900    3.0010    6.4090 O.2    16  U16        -0.5172
     86  OP2       36.9180    4.0080    8.0050 O.co2  16  U16        -0.4373
     87  P         32.1050    1.2070   10.6020 P.3    17  U17         0.2141
     88  C5'       31.1360    0.2270   12.7950 C.3    17  U17         0.1812
     89  O5'       32.0720    1.0940   12.1870 O.3    17  U17        -0.3114
     90  C4'       31.6180   -0.3080   14.1140 C.3    17  U17         0.1773
     91  O4'       33.0610   -0.4580   14.1240 O.3    17  U17        -0.3307
     92  C3'       31.3480    0.5580   15.3240 C.3    17  U17         0.1860
     93  O3'       30.0020    0.4930   15.7440 O.3    17  U17        -0.3112
     94  C2'       32.3290   -0.0030   16.3380 C.3    17  U17         0.2309
     95  O2'       31.8590   -1.2460   16.8380 O.3    17  U17        -0.2156
     96  C1'       33.5410   -0.2820   15.4460 C.3    17  U17         0.2420
     97  N1        34.5160    0.8340   15.4720 N.ar   17  U17        -0.2534
     98  C2        35.2140    1.0570   16.6520 C.ar   17  U17         0.3546
     99  O2        35.0640    0.3860   17.6610 O.2    17  U17        -0.2443
    100  N3        36.1030    2.1030   16.6200 N.ar   17  U17        -0.1530
    101  C4        36.3670    2.9370   15.5520 C.ar   17  U17         0.2846
    102  O4        37.2000    3.8400   15.6780 O.2    17  U17        -0.2650
    103  C5        35.6070    2.6430   14.3710 C.ar   17  U17         0.0814
    104  C6        34.7350    1.6300   14.3710 C.ar   17  U17         0.0870
    105  OP1       30.7370    0.8600   10.1380 O.2    17  U17        -0.5172
    106  OP2       32.7220    2.5000   10.2090 O.co2  17  U17        -0.4373
    107  P         29.2370    1.8360   16.1580 P.3    18  C18         0.2141
    108  C5'       29.6950    1.0010   18.5940 C.3    18  C18         0.1812
    109  O5'       29.7000    2.0720   17.6610 O.3    18  C18        -0.3114
    110  C4'       30.5430    1.2980   19.8090 C.3    18  C18         0.1773
    111  O4'       31.9550    1.2470   19.4700 O.3    18  C18        -0.3307
    112  C3'       30.3750    2.6710   20.4380 C.3    18  C18         0.1860
    113  O3'       29.2110    2.7970   21.2350 O.3    18  C18        -0.3112
    114  C2'       31.6710    2.8330   21.2210 C.3    18  C18         0.2309
    115  O2'       31.6210    2.1130   22.4450 O.3    18  C18        -0.2156
    116  C1'       32.6750    2.1520   20.2880 C.3    18  C18         0.2420
    117  N1        33.3690    3.1320   19.4230 N.ar   18  C18        -0.2535
    118  C2        34.3170    3.9860   19.9990 C.ar   18  C18         0.3532
    119  O2        34.5590    3.9050   21.2170 O.2    18  C18        -0.2443
    120  N3        34.9430    4.8840   19.2030 N.ar   18  C18        -0.1739
    121  C4        34.6610    4.9450   17.8980 C.ar   18  C18         0.1759
    122  N4        35.3090    5.8470   17.1570 N.pl3  18  C18        -0.1070
    123  C5        33.7000    4.0870   17.2910 C.ar   18  C18         0.0566
    124  C6        33.0840    3.2050   18.0870 C.ar   18  C18         0.0850
    125  OP1       27.7830    1.5380   16.1830 O.3    18  C18        -0.4373
    126  OP2       29.7650    2.9360   15.3080 O.co2  18  C18        -0.5172
    127  P         28.4120    4.1940   21.2500 P.3    19  A19         0.2141
    128  C5'       29.4730    4.6350   23.6120 C.3    19  A19         0.1812
    129  O5'       29.2110    5.0930   22.2930 O.3    19  A19        -0.3114
    130  C4'       30.6710    5.3360   24.2040 C.3    19  A19         0.1773
    131  O4'       31.8420    5.0800   23.3840 O.3    19  A19        -0.3307
    132  C3'       30.5960    6.8540   24.2720 C.3    19  A19         0.1860
    133  O3'       29.8600    7.3170   25.3900 O.3    19  A19        -0.3112
    134  C2'       32.0630    7.2620   24.3030 C.3    19  A19         0.2309
    135  O2'       32.6000    7.0910   25.6050 O.3    19  A19        -0.2156
    136  C1'       32.6900    6.2090   23.3880 C.3    19  A19         0.2408
    137  N1        35.4790    9.2480   20.3420 N.ar   19  A19        -0.2040
    138  C2        35.5200    8.9870   21.6530 C.ar   19  A19         0.2016
    139  N3        34.7570    8.1760   22.3750 N.ar   19  A19        -0.2048
    140  C4        33.8320    7.5820   21.5970 C.ar   19  A19         0.1692
    141  C5        33.6560    7.7460   20.2320 C.ar   19  A19         0.1518
    142  C6        34.5440    8.6320   19.5860 C.ar   19  A19         0.1919
    143  N6        34.5200    8.9100   18.2810 N.pl3  19  A19        -0.1054
    144  N7        32.5940    6.9690   19.7790 N.ar   19  A19        -0.2193
    145  C8        32.1670    6.3610   20.8640 C.ar   19  A19         0.1816
    146  N9        32.8690    6.6900   22.0020 N.ar   19  A19        -0.2693
    147  OP1       27.0500    3.9530   21.7920 O.3    19  A19        -0.4373
    148  OP2       28.5860    4.8160   19.9110 O.co2  19  A19        -0.5172
    149  P         28.8280    8.5380   25.2320 P.3    20  U20         0.2141
    150  C5'       30.5560   10.1140   26.4070 C.3    20  U20         0.1812
    151  O5'       29.7480    9.8320   25.2780 O.3    20  U20        -0.3114
    152  C4'       31.5230   11.2280   26.1040 C.3    20  U20         0.1773
    153  O4'       32.5140   10.7680   25.1470 O.3    20  U20        -0.3307
    154  C3'       30.9180   12.4520   25.4410 C.3    20  U20         0.1860
    155  O3'       30.2570   13.3200   26.3480 O.3    20  U20        -0.3112
    156  C2'       32.1160   13.0750   24.7350 C.3    20  U20         0.2309
    157  O2'       32.9180   13.8170   25.6430 O.3    20  U20        -0.2156
    158  C1'       32.8980   11.8340   24.3030 C.3    20  U20         0.2420
    159  N1        32.6290   11.4740   22.8890 N.ar   20  U20        -0.2534
    160  C2        33.3150   12.2040   21.9280 C.ar   20  U20         0.3546
    161  O2        34.1010   13.0900   22.2140 O.2    20  U20        -0.2443
    162  N3        33.0530   11.8710   20.6230 N.ar   20  U20        -0.1530
    163  C4        32.1790   10.8930   20.1930 C.ar   20  U20         0.2846
    164  O4        32.0500   10.7100   18.9810 O.2    20  U20        -0.2650
    165  C5        31.5010   10.1800   21.2390 C.ar   20  U20         0.0814
    166  C6        31.7400   10.4860   22.5240 C.ar   20  U20         0.0870
    167  OP1       27.9690    8.5510   26.4470 O.3    20  U20        -0.4373
    168  OP2       28.2260    8.4750   23.8720 O.co2  20  U20        -0.5172
    169  P         28.9170   14.0910   25.8840 P.3    21  A21         0.2141
    170  C5'       30.4720   16.0690   25.1400 C.3    21  A21         0.1812
    171  O5'       29.4250   15.1630   24.8230 O.3    21  A21        -0.3114
    172  C4'       30.8390   16.9030   23.9430 C.3    21  A21         0.1773
    173  O4'       31.6790   16.1480   23.0400 O.3    21  A21        -0.3307
    174  C3'       29.6770   17.3460   23.0650 C.3    21  A21         0.1860
    175  O3'       28.9640   18.4450   23.6050 O.3    21  A21        -0.3112
    176  C2'       30.3610   17.6570   21.7390 C.3    21  A21         0.2309
    177  O2'       30.9050   18.9640   21.7450 O.3    21  A21        -0.2156
    178  C1'       31.5160   16.6390   21.7260 C.3    21  A21         0.2408
    179  N1        32.4170   14.8830   17.0250 N.ar   21  A21        -0.2040
    180  C2        32.8720   15.9490   17.6910 C.ar   21  A21         0.2016
    181  N3        32.5800   16.3370   18.9280 N.ar   21  A21        -0.2048
    182  C4        31.7230   15.4810   19.5130 C.ar   21  A21         0.1692
    183  C5        31.1790   14.3410   18.9600 C.ar   21  A21         0.1518
    184  C6        31.5590   14.0430   17.6470 C.ar   21  A21         0.1919
    185  N6        31.1170   12.9790   16.9860 N.pl3  21  A21        -0.1054
    186  N7        30.3470   13.7010   19.8630 N.ar   21  A21        -0.2193
    187  C8        30.3950   14.4610   20.9310 C.ar   21  A21         0.1816
    188  N9        31.2320   15.5390   20.7900 N.ar   21  A21        -0.2693
    189  OP1       28.3720   14.8300   27.0570 O.3    21  A21        -0.4373
    190  OP2       28.0770   13.1140   25.1440 O.co2  21  A21        -0.5172
    191  P         27.4330   18.2550   24.0800 P.3    22  U22         0.2141
    192  C5'       25.3790   17.4550   22.6740 C.3    22  U22         0.1812
    193  O5'       26.6290   18.1480   22.7230 O.3    22  U22        -0.3114
    194  C4'       25.0870   16.9700   21.2790 C.3    22  U22         0.1773
    195  O4'       25.2010   18.1120   20.3770 O.3    22  U22        -0.3307
    196  C3'       26.0740   15.9250   20.7650 C.3    22  U22         0.1860
    197  O3'       25.4450   15.0950   19.7930 O.3    22  U22        -0.3112
    198  C2'       27.1280   16.7870   20.0770 C.3    22  U22         0.2309
    199  O2'       27.9030   16.1190   19.1040 O.3    22  U22        -0.2156
    200  C1'       26.2710   17.8990   19.4700 C.3    22  U22         0.2420
    201  N1        27.0110   19.1620   19.3120 N.ar   22  U22        -0.2534
    202  C2        27.3530   19.5360   18.0330 C.ar   22  U22         0.3546
    203  O2        27.0510   18.8740   17.0540 O.2    22  U22        -0.2443
    204  N3        28.0850   20.6950   17.9390 N.ar   22  U22        -0.1530
    205  C4        28.4870   21.5010   18.9780 C.ar   22  U22         0.2846
    206  O4        29.1220   22.5240   18.7260 O.2    22  U22        -0.2650
    207  C5        28.0960   21.0420   20.2850 C.ar   22  U22         0.0814
    208  C6        27.3970   19.9100   20.3980 C.ar   22  U22         0.0870
    209  OP1       27.0300   19.4870   24.7960 O.3    22  U22        -0.4373
    210  OP2       27.2940   16.9460   24.7580 O.co2  22  U22        -0.5172
    211  P         24.6330   13.7740   20.2170 P.3    23  A23         0.2141
    212  C5'       22.7200   14.7170   18.7580 C.3    23  A23         0.1812
    213  O5'       23.1220   14.1910   20.0010 O.3    23  A23        -0.3114
    214  C4'       21.3240   15.2730   18.8120 C.3    23  A23         0.1773
    215  O4'       21.1820   16.1080   19.9820 O.3    23  A23        -0.3307
    216  C3'       20.9820   16.1720   17.6430 C.3    23  A23         0.1860
    217  O3'       20.4900   15.4240   16.5530 O.3    23  A23        -0.3112
    218  C2'       19.9760   17.1610   18.2220 C.3    23  A23         0.2309
    219  O2'       18.6680   16.6220   18.1990 O.3    23  A23        -0.2156
    220  C1'       20.4350   17.2610   19.6800 C.3    23  A23         0.2408
    221  N1        24.0830   20.7390   18.2050 N.ar   23  A23        -0.2040
    222  C2        23.5340   19.7120   17.5370 C.ar   23  A23         0.2016
    223  N3        22.5880   18.8480   17.9430 N.ar   23  A23        -0.2048
    224  C4        22.2140   19.0980   19.2050 C.ar   23  A23         0.1692
    225  C5        22.7180   20.1100   20.0100 C.ar   23  A23         0.1518
    226  C6        23.6950   20.9590   19.4760 C.ar   23  A23         0.1919
    227  N6        24.2450   21.9680   20.1540 N.pl3  23  A23        -0.1054
    228  N7        22.1250   20.0930   21.2460 N.ar   23  A23        -0.2193
    229  C8        21.2930   19.0890   21.1850 C.ar   23  A23         0.1816
    230  N9        21.2820   18.4400   19.9740 N.ar   23  A23        -0.2693
    231  OP1       24.7600   13.4440   21.6590 O.3    23  A23        -0.4373
    232  OP2       24.9720   12.7590   19.1890 O.co2  23  A23        -0.5172
    233  P         21.4400   15.0610   15.3150 P.3    24  A24         0.2141
    234  C5'       22.2330   17.5220   14.8730 C.3    24  A24         0.1812
    235  O5'       21.4880   16.3920   14.4540 O.3    24  A24        -0.3114
    236  C4'       22.9600   18.1430   13.7160 C.3    24  A24         0.1773
    237  O4'       23.9770   17.2280   13.2600 O.3    24  A24        -0.3307
    238  C3'       22.1320   18.4430   12.4670 C.3    24  A24         0.1860
    239  O3'       21.4650   19.6870   12.5680 O.3    24  A24        -0.3112
    240  C2'       23.1970   18.4360   11.3730 C.3    24  A24         0.2309
    241  O2'       23.9350   19.6490   11.4020 O.3    24  A24        -0.2156
    242  C1'       24.1410   17.3440   11.8620 C.3    24  A24         0.2408
    243  N1        24.7040   14.4440    7.6520 N.ar   24  A24        -0.2040
    244  C2        25.0010   15.7360    7.8840 C.ar   24  A24         0.2016
    245  N3        24.8220   16.4360    9.0010 N.ar   24  A24        -0.2048
    246  C4        24.2630   15.6630    9.9560 C.ar   24  A24         0.1692
    247  C5        23.9020   14.3330    9.8580 C.ar   24  A24         0.1518
    248  C6        24.1570   13.7040    8.6370 C.ar   24  A24         0.1919
    249  N6        23.8730   12.4190    8.4320 N.pl3  24  A24        -0.1054
    250  N7        23.3610   13.8470   11.0430 N.ar   24  A24        -0.2193
    251  C8        23.4010   14.8920   11.8350 C.ar   24  A24         0.1816
    252  N9        23.9250   16.0260   11.2400 N.ar   24  A24        -0.2693
    253  OP1       20.7270   14.0220   14.5250 O.2    24  A24        -0.5172
    254  OP2       22.8120   14.7730   15.7670 O.co2  24  A24        -0.4373
    255  P         19.9600   19.9410   12.0390 P.3    25  U25         0.2141
    256  C5'       18.7190   19.3090   14.2710 C.3    25  U25         0.1812
    257  O5'       19.1550   20.3060   13.3630 O.3    25  U25        -0.3114
    258  C4'       18.7560   19.8200   15.6920 C.3    25  U25         0.1773
    259  O4'       20.1410   19.9170   16.1440 O.3    25  U25        -0.3307
    260  C3'       18.2050   21.2200   15.9050 C.3    25  U25         0.1860
    261  O3'       16.7820   21.2730   15.9400 O.3    25  U25        -0.3112
    262  C2'       18.9030   21.6450   17.2000 C.3    25  U25         0.2309
    263  O2'       18.3020   21.0420   18.3460 O.3    25  U25        -0.2156
    264  C1'       20.2890   21.0280   17.0110 C.3    25  U25         0.2420
    265  N1        21.2500   21.9970   16.4140 N.ar   25  U25        -0.2534
    266  C2        21.6290   23.0820   17.1790 C.ar   25  U25         0.3546
    267  O2        21.2120   23.2710   18.3180 O.2    25  U25        -0.2443
    268  N3        22.5120   23.9440   16.5700 N.ar   25  U25        -0.1530
    269  C4        23.0320   23.8370   15.2860 C.ar   25  U25         0.2846
    270  O4        23.8160   24.6870   14.8480 O.2    25  U25        -0.2650
    271  C5        22.6000   22.6830   14.5720 C.ar   25  U25         0.0814
    272  C6        21.7390   21.8390   15.1450 C.ar   25  U25         0.0870
    273  OP1       19.3820   18.7390   11.4170 O.3    25  U25        -0.4373
    274  OP2       20.0110   21.2120   11.2810 O.co2  25  U25        -0.5172
    275  P         15.9930   22.5730   15.4030 P.3    26  C26         0.2141
    276  C5'       15.8700   23.3460   17.8940 C.3    26  C26         0.1812
    277  O5'       16.2530   23.6280   16.5560 O.3    26  C26        -0.3114
    278  C4'       16.4520   24.3820   18.8180 C.3    26  C26         0.1773
    279  O4'       17.9040   24.3330   18.7550 O.3    26  C26        -0.3307
    280  C3'       16.1300   25.8140   18.4470 C.3    26  C26         0.1860
    281  O3'       14.8210   26.2130   18.8350 O.3    26  C26        -0.3112
    282  C2'       17.2490   26.5800   19.1330 C.3    26  C26         0.2309
    283  O2'       17.0300   26.6310   20.5390 O.3    26  C26        -0.2156
    284  C1'       18.4280   25.6450   18.8790 C.3    26  C26         0.2420
    285  N1        19.1900   25.9930   17.6470 N.ar   26  C26        -0.2535
    286  C2        20.1210   27.0400   17.7430 C.ar   26  C26         0.3532
    287  O2        20.2330   27.6420   18.8210 O.2    26  C26        -0.2443
    288  N3        20.8840   27.3790   16.6770 N.ar   26  C26        -0.1739
    289  C4        20.7460   26.7190   15.5250 C.ar   26  C26         0.1759
    290  N4        21.5190   27.1350   14.5200 N.pl3  26  C26        -0.1070
    291  C5        19.8040   25.6420   15.3770 C.ar   26  C26         0.0566
    292  C6        19.0610   25.3130   16.4600 C.ar   26  C26         0.0850
    293  OP1       14.5490   22.2050   15.3830 O.3    26  C26        -0.4373
    294  OP2       16.6040   23.1190   14.1690 O.co2  26  C26        -0.5172
    295  P         14.0590   27.3490   17.9940 P.3    27  C27         0.2141
    296  C5'       14.7450   29.0770   19.8020 C.3    27  C27         0.1812
    297  O5'       14.7640   28.6950   18.4360 O.3    27  C27        -0.3114
    298  C4'       15.6270   30.2740   20.0410 C.3    27  C27         0.1773
    299  O4'       17.0210   29.9250   19.7920 O.3    27  C27        -0.3307
    300  C3'       15.3850   31.4520   19.1250 C.3    27  C27         0.1860
    301  O3'       14.2560   32.2270   19.4940 O.3    27  C27        -0.3112
    302  C2'       16.7090   32.1990   19.2150 C.3    27  C27         0.2309
    303  O2'       16.7960   32.8830   20.4650 O.3    27  C27        -0.2156
    304  C1'       17.6950   31.0340   19.2370 C.3    27  C27         0.2420
    305  N1        18.1650   30.6750   17.8720 N.ar   27  C27        -0.2535
    306  C2        19.2010   31.4490   17.3220 C.ar   27  C27         0.3532
    307  O2        19.6840   32.3830   17.9740 O.2    27  C27        -0.2443
    308  N3        19.6660   31.1760   16.0940 N.ar   27  C27        -0.1739
    309  C4        19.1390   30.1770   15.3900 C.ar   27  C27         0.1759
    310  N4        19.6590   29.9690   14.1760 N.pl3  27  C27        -0.1070
    311  C5        18.0660   29.3680   15.8970 C.ar   27  C27         0.0566
    312  C6        17.6200   29.6570   17.1400 C.ar   27  C27         0.0850
    313  OP1       12.6520   27.3930   18.5020 O.3    27  C27        -0.4373
    314  OP2       14.3600   27.1510   16.5480 O.co2  27  C27        -0.5172
    315  P         13.4590   33.0690   18.3740 P.3    28  G28         0.2141
    316  C5'       14.7760   35.2130   19.0210 C.3    28  G28         0.1812
    317  O5'       14.4340   34.2680   18.0250 O.3    28  G28        -0.3114
    318  C4'       15.8040   36.1680   18.4950 C.3    28  G28         0.1773
    319  O4'       17.0220   35.4490   18.1690 O.3    28  G28        -0.3307
    320  C3'       15.4420   36.8690   17.1990 C.3    28  G28         0.1860
    321  O3'       14.5740   37.9680   17.4030 O.3    28  G28        -0.3112
    322  C2'       16.8070   37.2560   16.6470 C.3    28  G28         0.2309
    323  O2'       17.3200   38.3810   17.3370 O.3    28  G28        -0.2156
    324  C1'       17.6420   36.0430   17.0450 C.3    28  G28         0.2408
    325  N1        19.7500   34.9960   12.5690 N.ar   28  G28        -0.1709
    326  C2        19.9010   36.0850   13.3900 C.ar   28  G28         0.2606
    327  N2        20.7340   37.0370   12.9630 N.pl3  28  G28        -0.0859
    328  N3        19.2870   36.2290   14.5540 N.ar   28  G28        -0.1918
    329  C4        18.4790   35.1890   14.8300 C.ar   28  G28         0.1723
    330  C5        18.2440   34.0590   14.0880 C.ar   28  G28         0.1748
    331  C6        18.9210   33.9080   12.8480 C.ar   28  G28         0.3023
    332  O6        18.8510   32.9660   12.0450 O.2    28  G28        -0.2633
    333  N7        17.3420   33.2290   14.7430 N.ar   28  G28        -0.2173
    334  C8        17.0490   33.8510   15.8500 C.ar   28  G28         0.1817
    335  N9        17.7070   35.0550   15.9560 N.ar   28  G28        -0.2693
    336  OP1       12.2640   33.6590   19.0190 O.3    28  G28        -0.4373
    337  OP2       13.3530   32.2190   17.1590 O.co2  28  G28        -0.5172
    338  P         13.4420   38.3340   16.3180 P.3    29  A29         0.2141
    339  C5'       15.0500   40.2530   15.6740 C.3    29  A29         0.1812
    340  O5'       14.2430   39.1700   15.2420 O.3    29  A29        -0.3114
    341  C4'       16.0150   40.6800   14.6060 C.3    29  A29         0.1773
    342  O4'       16.9980   39.6410   14.3850 O.3    29  A29        -0.3307
    343  C3'       15.4020   40.9110   13.2410 C.3    29  A29         0.1860
    344  O3'       14.8130   42.1930   13.1510 O.3    29  A29        -0.3112
    345  C2'       16.5860   40.7170   12.3090 C.3    29  A29         0.2309
    346  O2'       17.4030   41.8750   12.3040 O.3    29  A29        -0.2156
    347  C1'       17.3510   39.6030   13.0190 C.3    29  A29         0.2408
    348  N1        18.1510   36.1840    9.2910 N.ar   29  A29        -0.2040
    349  C2        18.6430   37.4100    9.5010 C.ar   29  A29         0.2016
    350  N3        18.3860   38.2570   10.4990 N.ar   29  A29        -0.2048
    351  C4        17.5080   37.7110   11.3470 C.ar   29  A29         0.1692
    352  C5        16.9160   36.4630   11.2680 C.ar   29  A29         0.1518
    353  C6        17.2610   35.6720   10.1720 C.ar   29  A29         0.1919
    354  N6        16.7590   34.4520    9.9660 N.pl3  29  A29        -0.1054
    355  N7        16.0500   36.2500   12.3390 N.ar   29  A29        -0.2193
    356  C8        16.1450   37.3540   13.0420 C.ar   29  A29         0.1816
    357  N9        17.0100   38.2730   12.4940 N.ar   29  A29        -0.2693
    358  OP1       12.5130   39.2830   16.9790 O.3    29  A29        -0.4373
    359  OP2       12.9120   37.0850   15.7110 O.co2  29  A29        -0.5172
    360  P         13.4450   42.3990   12.3440 P.3    30  A30         0.2141
    361  C5'       13.5800   41.9910    9.7790 C.3    30  A30         0.1812
    362  O5'       13.9570   42.7620   10.8940 O.3    30  A30        -0.3114
    363  C4'       14.7340   41.8700    8.8330 C.3    30  A30         0.1773
    364  O4'       15.5870   40.7850    9.2760 O.3    30  A30        -0.3307
    365  C3'       14.3540   41.5000    7.4130 C.3    30  A30         0.1860
    366  O3'       14.0160   42.6340    6.6370 O.3    30  A30        -0.3112
    367  C2'       15.5840   40.7650    6.9100 C.3    30  A30         0.2309
    368  O2'       16.5840   41.6950    6.5350 O.3    30  A30        -0.2156
    369  C1'       16.0400   40.0430    8.1740 C.3    30  A30         0.2408
    370  N1        15.8830   35.4190    6.0460 N.ar   30  A30        -0.2040
    371  C2        16.5380   36.5480    5.7240 C.ar   30  A30         0.2016
    372  N3        16.5280   37.7360    6.3270 N.ar   30  A30        -0.2048
    373  C4        15.7230   37.6760    7.4070 C.ar   30  A30         0.1692
    374  C5        14.9860   36.5950    7.8720 C.ar   30  A30         0.1518
    375  C6        15.0850   35.4040    7.1360 C.ar   30  A30         0.1919
    376  N6        14.4390   34.2690    7.4270 N.pl3  30  A30        -0.1054
    377  N7        14.2710   36.9400    9.0140 N.ar   30  A30        -0.2193
    378  C8        14.5890   38.1970    9.2100 C.ar   30  A30         0.1816
    379  N9        15.4640   38.6940    8.2720 N.ar   30  A30        -0.2693
    380  OP1       12.7740   43.6120   12.8880 O.3    30  A30        -0.4373
    381  OP2       12.7260   41.1010   12.2560 O.co2  30  A30        -0.5172
    382  P         12.7180   42.5740    5.7030 P.3    31  U31         0.2141
    383  C5'       14.1630   41.5630    3.7760 C.3    31  U31         0.1812
    384  O5'       13.0580   41.4340    4.6470 O.3    31  U31        -0.3114
    385  C4'       14.3640   40.3040    2.9840 C.3    31  U31         0.1773
    386  O4'       14.8280   39.2370    3.8500 O.3    31  U31        -0.3307
    387  C3'       13.1140   39.7240    2.3360 C.3    31  U31         0.1860
    388  O3'       12.7450   40.4030    1.1490 O.3    31  U31        -0.3112
    389  C2'       13.5210   38.2730    2.1190 C.3    31  U31         0.2309
    390  O2'       14.4110   38.1710    1.0210 O.3    31  U31        -0.2156
    391  C1'       14.3150   37.9940    3.3930 C.3    31  U31         0.2420
    392  N1        13.4610   37.3920    4.4460 N.ar   31  U31        -0.2534
    393  C2        13.1350   36.0510    4.3020 C.ar   31  U31         0.3546
    394  O2        13.5280   35.3600    3.3720 O.2    31  U31        -0.2443
    395  N3        12.3320   35.5380    5.2950 N.ar   31  U31        -0.1530
    396  C4        11.8390   36.2330    6.3920 C.ar   31  U31         0.2846
    397  O4        11.1280   35.6430    7.2020 O.2    31  U31        -0.2650
    398  C5        12.2100   37.6160    6.4630 C.ar   31  U31         0.0814
    399  C6        12.9900   38.1290    5.5080 C.ar   31  U31         0.0870
    400  OP1       12.6070   43.8530    4.9650 O.2    31  U31        -0.5172
    401  OP2       11.6120   42.0760    6.5620 O.co2  31  U31        -0.4373
    402  P         11.2030   40.5150    0.6980 P.3    32  G32         0.2141
    403  C5'       11.5580   38.3550   -0.7460 C.3    32  G32         0.1812
    404  O5'       10.8350   39.0260    0.2740 O.3    32  G32        -0.3114
    405  C4'       11.0890   36.9340   -0.8910 C.3    32  G32         0.1773
    406  O4'       11.4620   36.1680    0.2800 O.3    32  G32        -0.3307
    407  C3'        9.5860   36.7530   -0.9690 C.3    32  G32         0.1860
    408  O3'        9.0670   37.0320   -2.2500 O.3    32  G32        -0.3112
    409  C2'        9.4000   35.3090   -0.5320 C.3    32  G32         0.2309
    410  O2'        9.7240   34.4260   -1.5960 O.3    32  G32        -0.2156
    411  C1'       10.4780   35.1820    0.5410 C.3    32  G32         0.2408
    412  N1         8.4460   32.9770    4.6840 N.ar   32  G32        -0.1709
    413  C2         8.8280   32.4190    3.4880 C.ar   32  G32         0.2606
    414  N2         8.6460   31.0980    3.3800 N.pl3  32  G32        -0.0859
    415  N3         9.3380   33.0920    2.4720 N.ar   32  G32        -0.1918
    416  C4         9.4480   34.4060    2.7440 C.ar   32  G32         0.1723
    417  C5         9.1010   35.0590    3.9040 C.ar   32  G32         0.1748
    418  C6         8.5450   34.3240    4.9850 C.ar   32  G32         0.3023
    419  O6         8.1700   34.7480    6.0820 O.2    32  G32        -0.2633
    420  N7         9.3700   36.4100    3.8050 N.ar   32  G32        -0.2173
    421  C8         9.8670   36.5530    2.6020 C.ar   32  G32         0.1817
    422  N9         9.9450   35.3790    1.9060 N.ar   32  G32        -0.2693
    423  OP1       11.1700   41.3610   -0.5240 O.2    32  G32        -0.5172
    424  OP2       10.3530   40.9040    1.8640 O.co2  32  G32        -0.4373
    425  P          7.4820   37.0340   -2.4840 P.3    33  A33         0.2141
    426  C5'        5.9460   34.9280   -2.1910 C.3    33  A33         0.1812
    427  O5'        7.1610   35.4880   -2.6510 O.3    33  A33        -0.3114
    428  C4'        5.9840   33.4280   -2.3070 C.3    33  A33         0.1773
    429  O4'        6.7780   32.8710   -1.2290 O.3    33  A33        -0.3307
    430  C3'        4.6470   32.7200   -2.1960 C.3    33  A33         0.1860
    431  O3'        3.9720   32.7060   -3.4370 O.3    33  A33        -0.3112
    432  C2'        5.0390   31.3330   -1.7060 C.3    33  A33         0.2309
    433  O2'        5.5390   30.5510   -2.7760 O.3    33  A33        -0.2156
    434  C1'        6.2170   31.6580   -0.7970 C.3    33  A33         0.2408
    435  N1         4.7430   29.3440    3.5660 N.ar   33  A33        -0.2040
    436  C2         4.9530   28.8620    2.3350 C.ar   33  A33         0.2016
    437  N3         5.3350   29.5040    1.2360 N.ar   33  A33        -0.2048
    438  C4         5.4840   30.8110    1.4940 C.ar   33  A33         0.1692
    439  C5         5.2980   31.4480    2.6990 C.ar   33  A33         0.1518
    440  C6         4.9090   30.6630    3.7810 C.ar   33  A33         0.1919
    441  N6         4.7040   31.1570    5.0020 N.pl3  33  A33        -0.1054
    442  N7         5.5640   32.8010    2.5970 N.ar   33  A33        -0.2193
    443  C8         5.8910   32.9650    1.3440 C.ar   33  A33         0.1816
    444  N9         5.8480   31.8060    0.6200 N.ar   33  A33        -0.2693
    445  OP1        7.2090   37.6990   -3.7840 O.2    33  A33        -0.5172
    446  OP2        6.8180   37.5460   -1.2550 O.co2  33  A33        -0.4373
    447  P          2.3810   32.8760   -3.5150 P.3    34  U34         0.2141
    448  C5'        2.1090   30.2790   -3.2500 C.3    34  U34         0.1812
    449  O5'        1.8290   31.5840   -2.7580 O.3    34  U34        -0.3114
    450  C4'        1.7290   29.2020   -2.2610 C.3    34  U34         0.1773
    451  O4'        2.3550   29.4840   -0.9770 O.3    34  U34        -0.3307
    452  C3'        0.2300   29.0420   -1.9980 C.3    34  U34         0.1860
    453  O3'       -0.1270   27.6620   -1.9740 O.3    34  U34        -0.3112
    454  C2'        0.0390   29.6540   -0.6100 C.3    34  U34         0.2309
    455  O2'       -0.9940   29.0720    0.1520 O.3    34  U34        -0.2156
    456  C1'        1.3920   29.4200    0.0520 C.3    34  U34         0.2420
    457  N1         1.6890   30.4530    1.0580 N.ar   34  U34        -0.2534
    458  C2         1.6820   30.0670    2.3860 C.ar   34  U34         0.3546
    459  O2         1.4950   28.9110    2.7350 O.2    34  U34        -0.2443
    460  N3         1.9170   31.0730    3.2880 N.ar   34  U34        -0.1530
    461  C4         2.1470   32.4030    2.9990 C.ar   34  U34         0.2846
    462  O4         2.3520   33.1860    3.9280 O.2    34  U34        -0.2650
    463  C5         2.1170   32.7310    1.6020 C.ar   34  U34         0.0814
    464  C6         1.8830   31.7650    0.6990 C.ar   34  U34         0.0870
    465  OP1        2.0580   32.7810   -4.9630 O.2    34  U34        -0.5172
    466  OP2        1.9630   34.0760   -2.7480 O.co2  34  U34        -0.4373
    467  P         -0.9420   27.0190   -3.2070 P.3    35  A35         0.2141
    468  C5'        0.4820   24.8060   -3.2980 C.3    35  A35         0.1812
    469  O5'       -0.7520   25.4490   -3.0050 O.3    35  A35        -0.3114
    470  C4'        0.4400   23.3380   -2.9450 C.3    35  A35         0.1773
    471  O4'        0.2750   23.2000   -1.5070 O.3    35  A35        -0.3307
    472  C3'       -0.6950   22.5460   -3.5850 C.3    35  A35         0.1860
    473  O3'       -0.2530   21.2140   -3.8600 O.3    35  A35        -0.3112
    474  C2'       -1.7660   22.5410   -2.4910 C.3    35  A35         0.2309
    475  O2'       -2.6700   21.4590   -2.5510 O.3    35  A35        -0.2156
    476  C1'       -0.9220   22.5000   -1.2200 C.3    35  A35         0.2408
    477  N1        -4.0370   22.0030    2.8490 N.ar   35  A35        -0.2040
    478  C2        -3.6350   21.1310    1.9140 C.ar   35  A35         0.2016
    479  N3        -2.8280   21.3230    0.8740 N.ar   35  A35        -0.2048
    480  C4        -2.3940   22.5950    0.8460 C.ar   35  A35         0.1692
    481  C5        -2.7130   23.6090    1.7340 C.ar   35  A35         0.1518
    482  C6        -3.5870   23.2740    2.7880 C.ar   35  A35         0.1919
    483  N6        -3.9930   24.1320    3.7300 N.pl3  35  A35        -0.1054
    484  N7        -2.0730   24.7980    1.3830 N.ar   35  A35        -0.2193
    485  C8        -1.3990   24.4780    0.3050 C.ar   35  A35         0.1816
    486  N9        -1.5510   23.1650   -0.0750 N.ar   35  A35        -0.2693
    487  OP1       -0.3130   27.4250   -4.4910 O.2    35  A35        -0.5172
    488  OP2       -2.3840   27.2620   -2.9730 O.co2  35  A35        -0.4373
    489  P          0.1840   20.8050   -5.3570 P.3    36  U36         0.2141
    490  C5'        2.7570   21.0640   -5.8410 C.3    36  U36         0.1812
    491  O5'        1.4900   21.6800   -5.6340 O.3    36  U36        -0.3114
    492  C4'        3.6120   21.8190   -6.8360 C.3    36  U36         0.1773
    493  O4'        3.0510   21.6770   -8.1740 O.3    36  U36        -0.3307
    494  C3'        3.7580   23.3260   -6.5970 C.3    36  U36         0.1860
    495  O3'        5.0590   23.7450   -7.0220 O.3    36  U36        -0.3112
    496  C2'        2.7290   23.9070   -7.5610 C.3    36  U36         0.2309
    497  O2'        2.9670   25.2480   -7.9340 O.3    36  U36        -0.2156
    498  C1'        2.8780   22.9570   -8.7450 C.3    36  U36         0.2420
    499  N1         1.7330   22.9220   -9.6710 N.ar   36  U36        -0.2534
    500  C2         2.0390   22.8480  -11.0180 C.ar   36  U36         0.3546
    501  O2         3.1840   22.7980  -11.4340 O.2    36  U36        -0.2443
    502  N3         0.9580   22.8190  -11.8630 N.ar   36  U36        -0.1530
    503  C4        -0.3730   22.8670  -11.5060 C.ar   36  U36         0.2846
    504  O4        -1.2310   22.8350  -12.3930 O.2    36  U36        -0.2650
    505  C5        -0.6110   22.9540  -10.0950 C.ar   36  U36         0.0814
    506  C6         0.4260   22.9790   -9.2450 C.ar   36  U36         0.0870
    507  OP1       -0.8310   21.3090   -6.3070 O.2    36  U36        -0.5172
    508  OP2        0.5540   19.3720   -5.3350 O.co2  36  U36        -0.4373
    509  P          6.3000   23.7880   -5.9990 P.3    37  G37         0.2141
    510  C5'        5.5310   26.1280   -5.0870 C.3    37  G37         0.1812
    511  O5'        5.8050   24.7580   -4.8380 O.3    37  G37        -0.3114
    512  C4'        5.3780   26.8930   -3.7970 C.3    37  G37         0.1773
    513  O4'        4.0940   26.6010   -3.1940 O.3    37  G37        -0.3307
    514  C3'        6.3900   26.5470   -2.7160 C.3    37  G37         0.1860
    515  O3'        7.5940   27.2640   -2.8910 O.3    37  G37        -0.3112
    516  C2'        5.6540   26.8960   -1.4290 C.3    37  G37         0.2309
    517  O2'        5.7110   28.2920   -1.1910 O.3    37  G37        -0.2156
    518  C1'        4.2150   26.5340   -1.7900 C.3    37  G37         0.2408
    519  N1         1.8850   23.6600    1.6920 N.ar   37  G37        -0.1709
    520  C2         2.0760   25.0220    1.6730 C.ar   37  G37         0.2606
    521  N2         1.5690   25.6890    2.7180 N.pl3  37  G37        -0.0859
    522  N3         2.7180   25.6760    0.7150 N.ar   37  G37        -0.1918
    523  C4         3.1450   24.8270   -0.2450 C.ar   37  G37         0.1723
    524  C5         3.0060   23.4550   -0.3210 C.ar   37  G37         0.1748
    525  C6         2.3240   22.7740    0.7170 C.ar   37  G37         0.3023
    526  O6         2.1070   21.5600    0.8320 O.2    37  G37        -0.2633
    527  N7         3.5950   22.9530   -1.4710 N.ar   37  G37        -0.2173
    528  C8         4.0690   24.0100   -2.0660 C.ar   37  G37         0.1817
    529  N9         3.8400   25.1750   -1.3710 N.ar   37  G37        -0.2693
    530  OP1        7.4390   24.4180   -6.7150 O.2    37  G37        -0.5172
    531  OP2        6.4720   22.4410   -5.4000 O.co2  37  G37        -0.4373
    532  P          8.9820   26.6740   -2.3580 P.3    38  G38         0.2141
    533  C5'        8.7060   27.8140   -0.0290 C.3    38  G38         0.1812
    534  O5'        8.8040   26.6170   -0.7790 O.3    38  G38        -0.3114
    535  C4'        8.4100   27.5250    1.4140 C.3    38  G38         0.1773
    536  O4'        7.0770   26.9860    1.5390 O.3    38  G38        -0.3307
    537  C3'        9.2960   26.4860    2.0810 C.3    38  G38         0.1860
    538  O3'       10.5190   27.0550    2.5120 O.3    38  G38        -0.3112
    539  C2'        8.4260   25.9990    3.2350 C.3    38  G38         0.2309
    540  O2'        8.5440   26.8580    4.3630 O.3    38  G38        -0.2156
    541  C1'        7.0130   26.1160    2.6410 C.3    38  G38         0.2408
    542  N1         4.0290   22.1510    3.6690 N.ar   38  G38        -0.1709
    543  C2         4.1860   23.3330    4.3530 C.ar   38  G38         0.2606
    544  N2         3.4660   23.4890    5.4760 N.pl3  38  G38        -0.0859
    545  N3         4.9930   24.3030    3.9670 N.ar   38  G38        -0.1918
    546  C4         5.6460   24.0030    2.8300 C.ar   38  G38         0.1723
    547  C5         5.5680   22.8680    2.0680 C.ar   38  G38         0.1748
    548  C6         4.6970   21.8310    2.4920 C.ar   38  G38         0.3023
    549  O6         4.4990   20.7480    1.9440 O.2    38  G38        -0.2633
    550  N7         6.4160   22.9490    0.9700 N.ar   38  G38        -0.2173
    551  C8         6.9800   24.1180    1.0770 C.ar   38  G38         0.1817
    552  N9         6.5430   24.8060    2.1770 N.ar   38  G38        -0.2693
    553  OP1        9.9440   27.7360   -2.7140 O.3    38  G38        -0.4373
    554  OP2        9.1710   25.2770   -2.8380 O.co2  38  G38        -0.5172
    555  P         11.8920   26.2030    2.5540 P.3    39  U39         0.2141
    556  C5'       12.6120   26.9120    0.1120 C.3    39  U39         0.1812
    557  O5'       12.8520   26.9510    1.5180 O.3    39  U39        -0.3114
    558  C4'       12.8530   28.2560   -0.5460 C.3    39  U39         0.1773
    559  O4'       11.9280   29.2370   -0.0110 O.3    39  U39        -0.3307
    560  C3'       14.2280   28.8890   -0.3350 C.3    39  U39         0.1860
    561  O3'       15.2190   28.3760   -1.2120 O.3    39  U39        -0.3112
    562  C2'       13.9570   30.3750   -0.5470 C.3    39  U39         0.2309
    563  O2'       13.9720   30.7160   -1.9290 O.3    39  U39        -0.2156
    564  C1'       12.5230   30.5200   -0.0270 C.3    39  U39         0.2420
    565  N1        12.4520   31.1150    1.3330 N.ar   39  U39        -0.2534
    566  C2        12.8400   32.4320    1.4880 C.ar   39  U39         0.3546
    567  O2        13.2530   33.0930    0.5500 O.2    39  U39        -0.2443
    568  N3        12.7240   32.9440    2.7670 N.ar   39  U39        -0.1530
    569  C4        12.2700   32.2770    3.8910 C.ar   39  U39         0.2846
    570  O4        12.2240   32.8600    4.9870 O.2    39  U39        -0.2650
    571  C5        11.8830   30.9240    3.6470 C.ar   39  U39         0.0814
    572  C6        11.9840   30.4040    2.4150 C.ar   39  U39         0.0870
    573  OP1       11.6870   24.8390    2.0340 O.2    39  U39        -0.5172
    574  OP2       12.3860   26.4350    3.9360 O.co2  39  U39        -0.4373
    575  P         16.7660   28.3010   -0.7610 P.3    40  U40         0.2141
    576  C5'       17.1990   30.7580   -1.5570 C.3    40  U40         0.1812
    577  O5'       17.1720   29.8150   -0.4960 O.3    40  U40        -0.3114
    578  C4'       17.6620   32.0930   -1.0500 C.3    40  U40         0.1773
    579  O4'       16.6160   32.7100   -0.2550 O.3    40  U40        -0.3307
    580  C3'       18.8540   32.0340   -0.1090 C.3    40  U40         0.1860
    581  O3'       20.0840   31.9090   -0.8080 O.3    40  U40        -0.3112
    582  C2'       18.7120   33.3170    0.6980 C.3    40  U40         0.2309
    583  O2'       19.1930   34.4340   -0.0420 O.3    40  U40        -0.2156
    584  C1'       17.1900   33.4340    0.8150 C.3    40  U40         0.2420
    585  N1        16.6670   32.9010    2.0900 N.ar   40  U40        -0.2534
    586  C2        16.6160   33.8040    3.1240 C.ar   40  U40         0.3546
    587  O2        16.9960   34.9510    2.9830 O.2    40  U40        -0.2443
    588  N3        16.1090   33.3320    4.3060 N.ar   40  U40        -0.1530
    589  C4        15.6350   32.0570    4.5310 C.ar   40  U40         0.2846
    590  O4        15.2100   31.7820    5.6550 O.2    40  U40        -0.2650
    591  C5        15.7300   31.1700    3.4100 C.ar   40  U40         0.0814
    592  C6        16.2290   31.6120    2.2420 C.ar   40  U40         0.0870
    593  OP1       17.5110   27.8540   -1.9670 O.2    40  U40        -0.5172
    594  OP2       16.8950   27.5920    0.5330 O.co2  40  U40        -0.4373
    595  P         21.4410   31.5520   -0.0220 P.3    41  U41         0.2141
    596  C5'       22.3640   32.8600    2.0290 C.3    41  U41         0.1812
    597  O5'       21.6990   32.8850    0.7910 O.3    41  U41        -0.3114
    598  C4'       22.3260   34.2250    2.6400 C.3    41  U41         0.1773
    599  O4'       20.9570   34.5800    2.9600 O.3    41  U41        -0.3307
    600  C3'       23.0750   34.3730    3.9470 C.3    41  U41         0.1860
    601  O3'       24.4660   34.5620    3.7190 O.3    41  U41        -0.3112
    602  C2'       22.3760   35.5630    4.5900 C.3    41  U41         0.2309
    603  O2'       22.8340   36.7730    4.0010 O.3    41  U41        -0.2156
    604  C1'       20.9240   35.3380    4.1480 C.3    41  U41         0.2420
    605  N1        20.1050   34.6080    5.1550 N.ar   41  U41        -0.2534
    606  C2        19.7180   35.2830    6.3070 C.ar   41  U41         0.3546
    607  O2        20.0150   36.4420    6.5490 O.2    41  U41        -0.2443
    608  N3        18.9670   34.5550    7.1960 N.ar   41  U41        -0.1530
    609  C4        18.5500   33.2430    7.0710 C.ar   41  U41         0.2846
    610  O4        17.8710   32.7410    7.9790 O.2    41  U41        -0.2650
    611  C5        18.9760   32.6040    5.8610 C.ar   41  U41         0.0814
    612  C6        19.7240   33.2920    4.9730 C.ar   41  U41         0.0870
    613  OP1       22.5280   31.4040   -1.0300 O.2    41  U41        -0.5172
    614  OP2       21.2300   30.4470    0.9500 O.co2  41  U41        -0.4373
    615  P         25.5480   33.9840    4.7460 P.3    42  C42         0.2141
    616  C5'       25.6570   36.4170    5.6650 C.3    42  C42         0.1812
    617  O5'       25.5190   35.0360    5.9360 O.3    42  C42        -0.3114
    618  C4'       25.2800   37.2270    6.8670 C.3    42  C42         0.1773
    619  O4'       23.8410   37.2630    7.0050 O.3    42  C42        -0.3307
    620  C3'       25.7450   36.6890    8.2090 C.3    42  C42         0.1860
    621  O3'       27.1130   36.9270    8.4590 O.3    42  C42        -0.3112
    622  C2'       24.8160   37.4220    9.1530 C.3    42  C42         0.2309
    623  O2'       25.2030   38.7900    9.1930 O.3    42  C42        -0.2156
    624  C1'       23.4990   37.3230    8.3760 C.3    42  C42         0.2420
    625  N1        22.7430   36.0930    8.7120 N.ar   42  C42        -0.2535
    626  C2        21.9150   36.0560    9.8370 C.ar   42  C42         0.3532
    627  O2        21.8040   37.0620   10.5550 O.2    42  C42        -0.2443
    628  N3        21.2470   34.9130   10.1260 N.ar   42  C42        -0.1739
    629  C4        21.3800   33.8410    9.3450 C.ar   42  C42         0.1759
    630  N4        20.6880   32.7450    9.6840 N.pl3  42  C42        -0.1070
    631  C5        22.2200   33.8400    8.1870 C.ar   42  C42         0.0566
    632  C6        22.8720   34.9740    7.9230 C.ar   42  C42         0.0850
    633  OP1       26.8770   34.0780    4.0800 O.2    42  C42        -0.5172
    634  OP2       25.0840   32.7030    5.3370 O.co2  42  C42        -0.4373
    635  P         27.9540   35.9410    9.4070 P.3    43  G43         0.2141
    636  C5'       27.4540   37.5330   11.4150 C.3    43  G43         0.1812
    637  O5'       27.3930   36.2270   10.8690 O.3    43  G43        -0.3114
    638  C4'       26.7060   37.6160   12.7190 C.3    43  G43         0.1773
    639  O4'       25.2780   37.5130   12.4810 O.3    43  G43        -0.3307
    640  C3'       26.9810   36.5140   13.7270 C.3    43  G43         0.1860
    641  O3'       28.1990   36.6770   14.4290 O.3    43  G43        -0.3112
    642  C2'       25.7540   36.5870   14.6170 C.3    43  G43         0.2309
    643  O2'       25.8500   37.6970   15.4980 O.3    43  G43        -0.2156
    644  C1'       24.6630   36.8620   13.5770 C.3    43  G43         0.2408
    645  N1        21.5140   33.1580   14.8570 N.ar   43  G43        -0.1709
    646  C2        21.8700   34.3020   15.5240 C.ar   43  G43         0.2606
    647  N2        21.3140   34.4760   16.7250 N.pl3  43  G43        -0.0859
    648  N3        22.7200   35.2010   15.0660 N.ar   43  G43        -0.1918
    649  C4        23.1850   34.8520   13.8530 C.ar   43  G43         0.1723
    650  C5        22.9020   33.7410   13.0930 C.ar   43  G43         0.1748
    651  C6        21.9890   32.7930   13.6100 C.ar   43  G43         0.3023
    652  O6        21.5960   31.7470   13.0890 O.2    43  G43        -0.2633
    653  N7        23.6000   33.7660   11.8870 N.ar   43  G43        -0.2173
    654  C8        24.2930   34.8860   11.9470 C.ar   43  G43         0.1817
    655  N9        24.0730   35.5930   13.1130 N.ar   43  G43        -0.2693
    656  OP1       29.3490   36.4590    9.3340 O.3    43  G43        -0.4373
    657  OP2       27.6430   34.5380    9.0530 O.co2  43  G43        -0.5172
    658  P         28.9460   35.3950   15.0530 P.3    44  G44         0.2141
    659  C5'       27.8020   35.8970   17.3410 C.3    44  G44         0.1812
    660  O5'       28.0310   34.9780   16.2810 O.3    44  G44        -0.3114
    661  C4'       26.6960   35.4270   18.2510 C.3    44  G44         0.1773
    662  O4'       25.4730   35.2300   17.4960 O.3    44  G44        -0.3307
    663  C3'       26.9180   34.0900   18.9260 C.3    44  G44         0.1860
    664  O3'       27.7940   34.1810   20.0380 O.3    44  G44        -0.3112
    665  C2'       25.4990   33.6820   19.2850 C.3    44  G44         0.2309
    666  O2'       25.0380   34.4490   20.3810 O.3    44  G44        -0.2156
    667  C1'       24.7430   34.1560   18.0520 C.3    44  G44         0.2408
    668  N1        22.4890   29.7940   16.8600 N.ar   44  G44        -0.1709
    669  C2        22.3530   30.5810   17.9830 C.ar   44  G44         0.2606
    670  N2        21.5080   30.1200   18.9140 N.pl3  44  G44        -0.0859
    671  N3        23.0070   31.7120   18.1880 N.ar   44  G44        -0.1918
    672  C4        23.8210   31.9920   17.1490 C.ar   44  G44         0.1723
    673  C5        24.0290   31.2840   15.9850 C.ar   44  G44         0.1748
    674  C6        23.3240   30.0730   15.7800 C.ar   44  G44         0.3023
    675  O6        23.3770   29.3110   14.8020 O.2    44  G44        -0.2633
    676  N7        24.9490   31.9200   15.1710 N.ar   44  G44        -0.2173
    677  C8        25.2780   32.9900   15.8440 C.ar   44  G44         0.1817
    678  N9        24.6270   33.0880   17.0430 N.ar   44  G44        -0.2693
    679  OP1       30.2240   35.8850   15.6420 O.3    44  G44        -0.4373
    680  OP2       28.9500   34.3250   14.0340 O.co2  44  G44        -0.5172
    681  P         28.6290   32.8970   20.5060 P.3    45  A45         0.2141
    682  C5'       26.7570   32.4680   22.2610 C.3    45  A45         0.1812
    683  O5'       27.5480   31.9720   21.1960 O.3    45  A45        -0.3114
    684  C4'       25.7320   31.4490   22.6560 C.3    45  A45         0.1773
    685  O4'       24.7850   31.2540   21.5760 O.3    45  A45        -0.3307
    686  C3'       26.2750   30.0590   22.9110 C.3    45  A45         0.1860
    687  O3'       26.8610   29.9390   24.1890 O.3    45  A45        -0.3112
    688  C2'       25.0390   29.2000   22.7300 C.3    45  A45         0.2309
    689  O2'       24.1970   29.3440   23.8660 O.3    45  A45        -0.2156
    690  C1'       24.3640   29.9050   21.5550 C.3    45  A45         0.2408
    691  N1        23.7540   26.1120   18.0220 N.ar   45  A45        -0.2040
    692  C2        23.2180   26.2800   19.2430 C.ar   45  A45         0.2016
    693  N3        23.4030   27.2630   20.1250 N.ar   45  A45        -0.2048
    694  C4        24.2660   28.1750   19.6480 C.ar   45  A45         0.1692
    695  C5        24.8990   28.1310   18.4240 C.ar   45  A45         0.1518
    696  C6        24.6260   27.0460   17.5790 C.ar   45  A45         0.1919
    697  N6        25.1950   26.9190   16.3700 N.pl3  45  A45        -0.1054
    698  N7        25.7170   29.2260   18.2470 N.ar   45  A45        -0.2193
    699  C8        25.5820   29.9020   19.3550 C.ar   45  A45         0.1816
    700  N9        24.7250   29.3290   20.2510 N.ar   45  A45        -0.2693
    701  OP1       29.5720   33.3080   21.5840 O.3    45  A45        -0.4373
    702  OP2       29.1120   32.2070   19.2830 O.co2  45  A45        -0.5172
    703  P         28.1420   29.0020   24.4270 P.3    46  G46         0.2141
    704  C5'       26.6300   26.8930   24.7380 C.3    46  G46         0.1812
    705  O5'       27.6540   27.5510   24.0090 O.3    46  G46        -0.3114
    706  C4'       26.2010   25.6310   24.0320 C.3    46  G46         0.1773
    707  O4'       25.6730   25.9510   22.7160 O.3    46  G46        -0.3307
    708  C3'       27.3070   24.6320   23.7510 C.3    46  G46         0.1860
    709  O3'       27.6020   23.8440   24.8900 O.3    46  G46        -0.3112
    710  C2'       26.7460   23.8340   22.5790 C.3    46  G46         0.2309
    711  O2'       25.8000   22.8810   23.0440 O.3    46  G46        -0.2156
    712  C1'       25.9910   24.9190   21.8050 C.3    46  G46         0.2408
    713  N1        27.2590   24.5320   16.8210 N.ar   46  G46        -0.1709
    714  C2        26.4220   23.7450   17.5770 C.ar   46  G46         0.2606
    715  N2        25.8210   22.7330   16.9150 N.pl3  46  G46        -0.0859
    716  N3        26.1700   23.9470   18.8740 N.ar   46  G46        -0.1918
    717  C4        26.8160   25.0260   19.3730 C.ar   46  G46         0.1723
    718  C5        27.6780   25.8760   18.7100 C.ar   46  G46         0.1748
    719  C6        27.9410   25.6500   17.3260 C.ar   46  G46         0.3023
    720  O6        28.6640   26.3120   16.5810 O.2    46  G46        -0.2633
    721  N7        28.1540   26.8600   19.5690 N.ar   46  G46        -0.2173
    722  C8        27.5930   26.5960   20.7180 C.ar   46  G46         0.1817
    723  N9        26.7760   25.4890   20.6850 N.ar   46  G46        -0.2693
    724  OP1       28.3800   28.9830   25.8950 O.3    46  G46        -0.4373
    725  OP2       29.1960   29.4060   23.4730 O.co2  46  G46        -0.5172
    726  P         28.9790   24.0700   25.6940 P.3    47  C47         0.2141
    727  C5'       29.7270   21.6920   24.9200 C.3    47  C47         0.1812
    728  O5'       29.9800   23.0880   24.9500 O.3    47  C47        -0.3114
    729  C4'       30.8250   20.9580   24.2000 C.3    47  C47         0.1773
    730  O4'       30.8050   21.3260   22.7960 O.3    47  C47        -0.3307
    731  C3'       32.2370   21.2410   24.6990 C.3    47  C47         0.1860
    732  O3'       32.9910   20.0300   24.7020 O.3    47  C47        -0.3112
    733  C2'       32.7930   22.2080   23.6590 C.3    47  C47         0.2309
    734  O2'       34.1910   22.1540   23.5140 O.3    47  C47        -0.2156
    735  C1'       32.0950   21.7380   22.3940 C.3    47  C47         0.2420
    736  N1        31.9380   22.7780   21.3740 N.ar   47  C47        -0.2535
    737  C2        32.5780   22.6050   20.1470 C.ar   47  C47         0.3532
    738  O2        33.2610   21.5780   19.9800 O.2    47  C47        -0.2443
    739  N3        32.4300   23.5450   19.1820 N.ar   47  C47        -0.1739
    740  C4        31.6930   24.6240   19.4330 C.ar   47  C47         0.1759
    741  N4        31.5720   25.5370   18.4710 N.pl3  47  C47        -0.1070
    742  C5        31.0390   24.8230   20.6840 C.ar   47  C47         0.0566
    743  C6        31.1760   23.8820   21.6200 C.ar   47  C47         0.0850
    744  OP1       28.7920   23.5960   27.0830 O.3    47  C47        -0.4373
    745  OP2       29.4790   25.4540   25.4490 O.co2  47  C47        -0.5172
    746  P         33.1540   19.2270   26.0850 P.3    48  U48         0.2141
    747  C5'       35.5630   20.1810   26.1560 C.3    48  U48         0.1812
    748  O5'       34.3320   19.9830   26.8180 O.3    48  U48        -0.3114
    749  C4'       36.2800   21.3610   26.7340 C.3    48  U48         0.1773
    750  O4'       36.6840   21.0500   28.0890 O.3    48  U48        -0.3307
    751  C3'       37.5390   21.7690   25.9860 C.3    48  U48         0.1860
    752  O3'       37.6580   23.1850   25.9970 O.3    48  U48        -0.3112
    753  C2'       38.6530   21.1560   26.8160 C.3    48  U48         0.2309
    754  O2'       39.8670   21.8640   26.7370 O.3    48  U48        -0.2156
    755  C1'       38.0760   21.2160   28.2260 C.3    48  U48         0.2420
    756  N1        38.5650   20.1370   29.0910 N.ar   48  U48        -0.2534
    757  C2        38.6810   20.3910   30.4410 C.ar   48  U48         0.3546
    758  O2        38.3750   21.4670   30.9300 O.2    48  U48        -0.2443
    759  N3        39.1520   19.3310   31.1870 N.ar   48  U48        -0.1530
    760  C4        39.5210   18.0790   30.7260 C.ar   48  U48         0.2846
    761  O4        39.9290   17.2300   31.5270 O.2    48  U48        -0.2650
    762  C5        39.3780   17.9050   29.3100 C.ar   48  U48         0.0814
    763  C6        38.9190   18.9170   28.5620 C.ar   48  U48         0.0870
    764  OP1       33.5950   17.8240   25.8230 O.2    48  U48        -0.5172
    765  OP2       31.9550   19.5060   26.9170 O.co2  48  U48        -0.4373
    766  P         36.7810   24.0620   24.9820 P.3    49  U49         0.2141
    767  C5'       38.4420   23.3460   23.0790 C.3    49  U49         0.1812
    768  O5'       37.1090   23.4690   23.5460 O.3    49  U49        -0.3114
    769  C4'       38.4430   22.8140   21.6760 C.3    49  U49         0.1773
    770  O4'       38.2350   21.3740   21.6890 O.3    49  U49        -0.3307
    771  C3'       37.3560   23.3950   20.7760 C.3    49  U49         0.1860
    772  O3'       37.9010   23.6050   19.4850 O.3    49  U49        -0.3112
    773  C2'       36.3250   22.2670   20.7010 C.3    49  U49         0.2309
    774  O2'       35.5440   22.2730   19.5250 O.3    49  U49        -0.2156
    775  C1'       37.2260   21.0460   20.7590 C.3    49  U49         0.2420
    776  N1        36.5610   19.8030   21.1750 N.ar   49  U49        -0.2534
    777  C2        36.8600   18.7070   20.4030 C.ar   49  U49         0.3546
    778  O2        37.6220   18.7870   19.4620 O.2    49  U49        -0.2443
    779  N3        36.2480   17.5360   20.7690 N.ar   49  U49        -0.1530
    780  C4        35.3790   17.3700   21.8250 C.ar   49  U49         0.2846
    781  O4        34.9120   16.2530   22.0340 O.2    49  U49        -0.2650
    782  C5        35.1090   18.5580   22.5830 C.ar   49  U49         0.0814
    783  C6        35.6930   19.7130   22.2390 C.ar   49  U49         0.0870
    784  OP1       37.2700   25.4560   25.0560 O.2    49  U49        -0.5172
    785  OP2       35.3420   23.7600   25.1920 O.co2  49  U49        -0.4373
    786  P         38.1310   25.0960   18.9530 P.3    50  C50         0.2141
    787  C5'       39.3300   25.5050   16.7000 C.3    50  C50         0.1812
    788  O5'       39.3780   24.9360   17.9880 O.3    50  C50        -0.3114
    789  C4'       39.8550   24.5650   15.6550 C.3    50  C50         0.1773
    790  O4'       39.9130   23.1970   16.1400 O.3    50  C50        -0.3307
    791  C3'       38.9990   24.4670   14.4190 C.3    50  C50         0.1860
    792  O3'       39.1370   25.5960   13.5760 O.3    50  C50        -0.3112
    793  C2'       39.4630   23.1530   13.8110 C.3    50  C50         0.2309
    794  O2'       40.7110   23.3170   13.1550 O.3    50  C50        -0.2156
    795  C1'       39.6860   22.3040   15.0670 C.3    50  C50         0.2420
    796  N1        38.5220   21.4320   15.3850 N.ar   50  C50        -0.2535
    797  C2        38.1630   20.4070   14.4980 C.ar   50  C50         0.3532
    798  O2        38.8340   20.2690   13.4730 O.2    50  C50        -0.2443
    799  N3        37.0930   19.6000   14.7600 N.ar   50  C50        -0.1739
    800  C4        36.4160   19.7820   15.8970 C.ar   50  C50         0.1759
    801  N4        35.3860   18.9740   16.1440 N.pl3  50  C50        -0.1070
    802  C5        36.7540   20.8090   16.8290 C.ar   50  C50         0.0566
    803  C6        37.8030   21.5990   16.5410 C.ar   50  C50         0.0850
    804  OP1       38.5280   25.9860   20.0790 O.3    50  C50        -0.4373
    805  OP2       36.9690   25.4420   18.0960 O.co2  50  C50        -0.5172
    806  P         37.8580   26.5280   13.3220 P.3    51  C51         0.2141
    807  C5'       37.6380   25.1200   11.1290 C.3    51  C51         0.1812
    808  O5'       37.0070   25.6650   12.2820 O.3    51  C51        -0.3114
    809  C4'       37.0260   23.8120   10.6820 C.3    51  C51         0.1773
    810  O4'       37.1920   22.7880   11.7070 O.3    51  C51        -0.3307
    811  C3'       35.5330   23.8050   10.4160 C.3    51  C51         0.1860
    812  O3'       35.1710   24.3930    9.1770 O.3    51  C51        -0.3112
    813  C2'       35.2010   22.3210   10.5040 C.3    51  C51         0.2309
    814  O2'       35.6550   21.6390    9.3490 O.3    51  C51        -0.2156
    815  C1'       36.0900   21.9010   11.6670 C.3    51  C51         0.2420
    816  N1        35.3650   21.9760   12.9600 N.ar   51  C51        -0.2535
    817  C2        34.3810   21.0170   13.2690 C.ar   51  C51         0.3532
    818  O2        34.1260   20.1110   12.4510 O.2    51  C51        -0.2443
    819  N3        33.7410   21.0860   14.4580 N.ar   51  C51        -0.1739
    820  C4        34.0320   22.0680   15.3140 C.ar   51  C51         0.1759
    821  N4        33.3670   22.1100   16.4770 N.pl3  51  C51        -0.1070
    822  C5        35.0180   23.0540   15.0140 C.ar   51  C51         0.0566
    823  C6        35.6470   22.9700   13.8360 C.ar   51  C51         0.0850
    824  OP1       38.3090   27.7950   12.6750 O.2    51  C51        -0.5172
    825  OP2       37.1210   26.6040   14.6070 O.co2  51  C51        -0.4373
    826  P         33.8280   25.2600    9.0670 P.3    52  A52         0.2141
    827  C5'       32.6280   23.1120    8.1130 C.3    52  A52         0.1812
    828  O5'       32.6590   24.1670    9.0690 O.3    52  A52        -0.3114
    829  C4'       31.5930   22.0720    8.4810 C.3    52  A52         0.1773
    830  O4'       31.9510   21.4440    9.7370 O.3    52  A52        -0.3307
    831  C3'       30.1820   22.5980    8.7110 C.3    52  A52         0.1860
    832  O3'       29.4690   22.7530    7.4960 O.3    52  A52        -0.3112
    833  C2'       29.5780   21.5500    9.6430 C.3    52  A52         0.2309
    834  O2'       29.1610   20.4100    8.9040 O.3    52  A52        -0.2156
    835  C1'       30.7870   21.1490   10.4870 C.3    52  A52         0.2408
    836  N1        29.1190   21.5380   15.4000 N.ar   52  A52        -0.2040
    837  C2        28.8140   20.6730   14.4140 C.ar   52  A52         0.2016
    838  N3        29.2710   20.6240   13.1610 N.ar   52  A52        -0.2048
    839  C4        30.1630   21.6100   12.9330 C.ar   52  A52         0.1692
    840  C5        30.5750   22.5720   13.8450 C.ar   52  A52         0.1518
    841  C6        30.0210   22.5320   15.1360 C.ar   52  A52         0.1919
    842  N6        30.3480   23.4200   16.0990 N.pl3  52  A52        -0.1054
    843  N7        31.4980   23.4250   13.2670 N.ar   52  A52        -0.2193
    844  C8        31.6300   22.9740   12.0430 C.ar   52  A52         0.1816
    845  N9        30.8510   21.8790   11.7680 N.ar   52  A52        -0.2693
    846  OP1       33.8330   25.9630    7.7540 O.2    52  A52        -0.5172
    847  OP2       33.7010   26.0240   10.3340 O.co2  52  A52        -0.4373
    848  P         28.5780   24.0640    7.2250 P.3    53  C53         0.2141
    849  C5'       26.5080   22.5920    7.8790 C.3    53  C53         0.1812
    850  O5'       27.2330   23.8000    8.0420 O.3    53  C53        -0.3114
    851  C4'       25.6420   22.2950    9.0800 C.3    53  C53         0.1773
    852  O4'       26.4870   22.0120   10.2150 O.3    53  C53        -0.3307
    853  C3'       24.7210   23.4130    9.5550 C.3    53  C53         0.1860
    854  O3'       23.4940   23.4360    8.8510 O.3    53  C53        -0.3112
    855  C2'       24.5140   23.0750   11.0270 C.3    53  C53         0.2309
    856  O2'       23.5000   22.0870   11.1540 O.3    53  C53        -0.2156
    857  C1'       25.8670   22.4590   11.4030 C.3    53  C53         0.2420
    858  N1        26.7720   23.4360   12.0470 N.ar   53  C53        -0.2535
    859  C2        26.7440   23.5410   13.4360 C.ar   53  C53         0.3532
    860  O2        25.9710   22.8100   14.0670 O.2    53  C53        -0.2443
    861  N3        27.5560   24.4280   14.0600 N.ar   53  C53        -0.1739
    862  C4        28.3800   25.1890   13.3480 C.ar   53  C53         0.1759
    863  N4        29.1640   26.0310   14.0320 N.pl3  53  C53        -0.1070
    864  C5        28.4410   25.1090   11.9240 C.ar   53  C53         0.0566
    865  C6        27.6240   24.2260   11.3220 C.ar   53  C53         0.0850
    866  OP1       28.2530   24.0960    5.7710 O.2    53  C53        -0.5172
    867  OP2       29.2700   25.2080    7.8610 O.co2  53  C53        -0.4373
    868  P         23.1020   24.6410    7.8560 P.3    54  C54         0.2141
    869  C5'       23.6510   23.6900    5.4730 C.3    54  C54         0.1812
    870  O5'       22.7080   23.8680    6.5120 O.3    54  C54        -0.3114
    871  C4'       23.6990   22.2760    4.9320 C.3    54  C54         0.1773
    872  O4'       24.0410   21.3090    5.9630 O.3    54  C54        -0.3307
    873  C3'       22.4500   21.6730    4.3100 C.3    54  C54         0.1860
    874  O3'       22.0940   22.2390    3.0520 O.3    54  C54        -0.3112
    875  C2'       22.8650   20.2160    4.2130 C.3    54  C54         0.2309
    876  O2'       23.8460   20.0770    3.1960 O.3    54  C54        -0.2156
    877  C1'       23.5910   20.0300    5.5490 C.3    54  C54         0.2420
    878  N1        22.7270   19.4030    6.5820 N.ar   54  C54        -0.2535
    879  C2        22.5000   18.0240    6.4580 C.ar   54  C54         0.3532
    880  O2        23.0120   17.4090    5.5050 O.2    54  C54        -0.2443
    881  N3        21.7310   17.3770    7.3630 N.ar   54  C54        -0.1739
    882  C4        21.1790   18.0500    8.3700 C.ar   54  C54         0.1759
    883  N4        20.4300   17.3560    9.2380 N.pl3  54  C54        -0.1070
    884  C5        21.3900   19.4510    8.5360 C.ar   54  C54         0.0566
    885  C6        22.1630   20.0830    7.6310 C.ar   54  C54         0.0850
    886  OP1       24.2680   25.5220    7.6270 O.2    54  C54        -0.5172
    887  OP2       21.8400   25.2370    8.3550 O.co2  54  C54        -0.4373
    888  P         20.6040   22.0700    2.4630 P.3    55  A55         0.2141
    889  C5'       21.3670   20.0390    1.0210 C.3    55  A55         0.1812
    890  O5'       20.5310   20.5380    2.0500 O.3    55  A55        -0.3114
    891  C4'       21.1880   18.5580    0.8380 C.3    55  A55         0.1773
    892  O4'       21.5530   17.8740    2.0570 O.3    55  A55        -0.3307
    893  C3'       19.7640   18.0970    0.5680 C.3    55  A55         0.1860
    894  O3'       19.3930   18.2550   -0.7910 O.3    55  A55        -0.3112
    895  C2'       19.7820   16.6500    1.0500 C.3    55  A55         0.2309
    896  O2'       20.3560   15.7900    0.0880 O.3    55  A55        -0.2156
    897  C1'       20.7400   16.7300    2.2320 C.3    55  A55         0.2408
    898  N1        18.2340   14.3100    6.0150 N.ar   55  A55        -0.2040
    899  C2        18.7650   13.8540    4.8710 C.ar   55  A55         0.2016
    900  N3        19.4010   14.5310    3.9190 N.ar   55  A55        -0.2048
    901  C4        19.4580   15.8390    4.2330 C.ar   55  A55         0.1692
    902  C5        18.9560   16.4510    5.3660 C.ar   55  A55         0.1518
    903  C6        18.3110   15.6290    6.2950 C.ar   55  A55         0.1919
    904  N6        17.7900   16.0930    7.4260 N.pl3  55  A55        -0.1054
    905  N7        19.2200   17.8090    5.3670 N.ar   55  A55        -0.2193
    906  C8        19.8620   18.0000    4.2470 C.ar   55  A55         0.1816
    907  N9        20.0350   16.8540    3.5160 N.ar   55  A55        -0.2693
    908  OP1       20.5250   22.8570    1.2030 O.2    55  A55        -0.5172
    909  OP2       19.6130   22.2910    3.5510 O.co2  55  A55        -0.4373
    910  P         17.8510   18.4790   -1.2100 P.3    56  A56         0.2141
    911  C5'       17.6490   15.9540   -1.7900 C.3    56  A56         0.1812
    912  O5'       17.2170   17.0420   -0.9900 O.3    56  A56        -0.3114
    913  C4'       17.1430   14.6380   -1.2650 C.3    56  A56         0.1773
    914  O4'       17.6840   14.3920    0.0610 O.3    56  A56        -0.3307
    915  C3'       15.6390   14.5320   -1.0730 C.3    56  A56         0.1860
    916  O3'       14.9560   14.2580   -2.2880 O.3    56  A56        -0.3112
    917  C2'       15.5270   13.4240   -0.0370 C.3    56  A56         0.2309
    918  O2'       15.7650   12.1640   -0.6410 O.3    56  A56        -0.2156
    919  C1'       16.7180   13.7440    0.8570 C.3    56  A56         0.2408
    920  N1        14.8740   14.0650    5.6320 N.ar   56  A56        -0.2040
    921  C2        15.1230   13.0150    4.8320 C.ar   56  A56         0.2016
    922  N3        15.6030   13.0050    3.5860 N.ar   56  A56        -0.2048
    923  C4        15.8430   14.2660    3.1660 C.ar   56  A56         0.1692
    924  C5        15.6390   15.4360    3.8660 C.ar   56  A56         0.1518
    925  C6        15.1230   15.3070    5.1700 C.ar   56  A56         0.1919
    926  N6        14.8640   16.3430    5.9620 N.pl3  56  A56        -0.1054
    927  N7        15.9940   16.5480    3.1020 N.ar   56  A56        -0.2193
    928  C8        16.4060   16.0220    1.9730 C.ar   56  A56         0.1816
    929  N9        16.3410   14.6540    1.9530 N.ar   56  A56        -0.2693
    930  OP1       17.7980   18.7270   -2.6790 O.2    56  A56        -0.5172
    931  OP2       17.2220   19.4500   -0.2850 O.co2  56  A56        -0.4373
    932  P         13.4000   14.6410   -2.4780 P.3    57  G57         0.2141
    933  C5'       12.4490   12.3970   -1.5480 C.3    57  G57         0.1812
    934  O5'       12.6560   13.7840   -1.3640 O.3    57  G57        -0.3114
    935  C4'       11.9430   11.7490   -0.2880 C.3    57  G57         0.1773
    936  O4'       12.7840   12.1250    0.8320 O.3    57  G57        -0.3307
    937  C3'       10.5530   12.1480    0.1740 C.3    57  G57         0.1860
    938  O3'        9.5160   11.5300   -0.5610 O.3    57  G57        -0.3112
    939  C2'       10.5850   11.7460    1.6410 C.3    57  G57         0.2309
    940  O2'       10.4770   10.3390    1.7690 O.3    57  G57        -0.2156
    941  C1'       12.0140   12.1320    2.0190 C.3    57  G57         0.2408
    942  N1        11.1600   14.7630    6.2750 N.ar   57  G57        -0.1709
    943  C2        10.9970   13.4140    6.0110 C.ar   57  G57         0.2606
    944  N2        10.5460   12.6480    7.0140 N.pl3  57  G57        -0.0859
    945  N3        11.2630   12.8450    4.8480 N.ar   57  G57        -0.1918
    946  C4        11.7100   13.7400    3.9400 C.ar   57  G57         0.1723
    947  C5        11.9040   15.0950    4.0860 C.ar   57  G57         0.1748
    948  C6        11.6230   15.6990    5.3380 C.ar   57  G57         0.3023
    949  O6        11.7470   16.8950    5.6290 O.2    57  G57        -0.2633
    950  N7        12.3730   15.6570    2.9060 N.ar   57  G57        -0.2173
    951  C8        12.4490   14.6520    2.0690 C.ar   57  G57         0.1817
    952  N9        12.0660   13.4630    2.6380 N.ar   57  G57        -0.2693
    953  OP1       12.9980   14.1130   -3.8060 O.2    57  G57        -0.5172
    954  OP2       13.1710   16.0740   -2.1610 O.co2  57  G57        -0.4373
    955  P          8.0780   12.2400   -0.6840 P.3    58  A58         0.2141
    956  C5'        6.9430   10.8640    1.2510 C.3    58  A58         0.1812
    957  O5'        7.4420   12.1110    0.7780 O.3    58  A58        -0.3114
    958  C4'        6.6740   10.8840    2.7400 C.3    58  A58         0.1773
    959  O4'        7.8430   11.3710    3.4570 O.3    58  A58        -0.3307
    960  C3'        5.5580   11.8010    3.2180 C.3    58  A58         0.1860
    961  O3'        4.2530   11.2900    3.0080 O.3    58  A58        -0.3112
    962  C2'        5.9180   12.0040    4.6820 C.3    58  A58         0.2309
    963  O2'        5.5930   10.8530    5.4480 O.3    58  A58        -0.2156
    964  C1'        7.4350   12.1200    4.5880 C.3    58  A58         0.2408
    965  N1         8.0170   16.7430    6.7840 N.ar   58  A58        -0.2040
    966  C2         7.6410   15.5470    7.2630 C.ar   58  A58         0.2016
    967  N3         7.5100   14.3780    6.6340 N.ar   58  A58        -0.2048
    968  C4         7.8200   14.5100    5.3350 C.ar   58  A58         0.1692
    969  C5         8.2240   15.6690    4.6900 C.ar   58  A58         0.1518
    970  C6         8.3180   16.8350    5.4680 C.ar   58  A58         0.1919
    971  N6         8.6990   18.0210    4.9870 N.pl3  58  A58        -0.1054
    972  N7         8.4600   15.4220    3.3470 N.ar   58  A58        -0.2193
    973  C8         8.2000   14.1410    3.2110 C.ar   58  A58         0.1816
    974  N9         7.8170   13.5230    4.3780 N.ar   58  A58        -0.2693
    975  OP1        7.2780   11.4090   -1.6160 O.2    58  A58        -0.5172
    976  OP2        8.2940   13.6820   -0.9740 O.co2  58  A58        -0.4373
    977  P          3.0330   12.3140    2.7570 P.3    59  G59         0.2141
    978  C5'        2.3680   12.2110    5.2890 C.3    59  G59         0.1812
    979  O5'        2.7930   12.9840    4.1800 O.3    59  G59        -0.3114
    980  C4'        2.6130   12.9390    6.5820 C.3    59  G59         0.1773
    981  O4'        3.9190   13.5590    6.5360 O.3    59  G59        -0.3307
    982  C3'        1.6730   14.0930    6.8960 C.3    59  G59         0.1860
    983  O3'        0.4380   13.6630    7.4480 O.3    59  G59        -0.3112
    984  C2'        2.5060   14.9430    7.8490 C.3    59  G59         0.2309
    985  O2'        2.4910   14.3810    9.1550 O.3    59  G59        -0.2156
    986  C1'        3.9080   14.7610    7.2700 C.3    59  G59         0.2408
    987  N1         5.3100   19.6750    6.9380 N.ar   59  G59        -0.1709
    988  C2         4.9060   18.9580    8.0340 C.ar   59  G59         0.2606
    989  N2         4.8760   19.6400    9.1870 N.pl3  59  G59        -0.0859
    990  N3         4.5570   17.6800    8.0020 N.ar   59  G59        -0.1918
    991  C4         4.6410   17.1540    6.7540 C.ar   59  G59         0.1723
    992  C5         5.0250   17.7860    5.5870 C.ar   59  G59         0.1748
    993  C6         5.3970   19.1610    5.6510 C.ar   59  G59         0.3023
    994  O6         5.7700   19.9070    4.7390 O.2    59  G59        -0.2633
    995  N7         4.9720   16.9020    4.5100 N.ar   59  G59        -0.2173
    996  C8         4.5660   15.7730    5.0280 C.ar   59  G59         0.1817
    997  N9         4.3370   15.8600    6.3820 N.ar   59  G59        -0.2693
    998  OP1        1.8220   11.5420    2.3840 O.3    59  G59        -0.4373
    999  OP2        3.4910   13.4120    1.8670 O.co2  59  G59        -0.5172
   1000  P         -0.9510   14.3530    7.0050 P.3    60  C60         0.2141
   1001  C5'       -0.5250   15.9810    9.0220 C.3    60  C60         0.1812
   1002  O5'       -0.8970   15.7990    7.6630 O.3    60  C60        -0.3114
   1003  C4'       -0.1570   17.4180    9.2830 C.3    60  C60         0.1773
   1004  O4'        1.1710   17.6970    8.7670 O.3    60  C60        -0.3307
   1005  C3'       -1.0420   18.4410    8.5930 C.3    60  C60         0.1860
   1006  O3'       -2.2470   18.6710    9.2950 O.3    60  C60        -0.3112
   1007  C2'       -0.1340   19.6600    8.4940 C.3    60  C60         0.2309
   1008  O2'       -0.0610   20.3400    9.7370 O.3    60  C60        -0.2156
   1009  C1'        1.2170   19.0020    8.2260 C.3    60  C60         0.2420
   1010  N1         1.5070   18.9050    6.7770 N.ar   60  C60        -0.2535
   1011  C2         2.0740   20.0200    6.1550 C.ar   60  C60         0.3532
   1012  O2         2.3080   21.0430    6.8350 O.2    60  C60        -0.2443
   1013  N3         2.3490   19.9480    4.8300 N.ar   60  C60        -0.1739
   1014  C4         2.0880   18.8390    4.1350 C.ar   60  C60         0.1759
   1015  N4         2.3920   18.8470    2.8350 N.pl3  60  C60        -0.1070
   1016  C5         1.5010   17.6880    4.7420 C.ar   60  C60         0.0566
   1017  C6         1.2340   17.7690    6.0540 C.ar   60  C60         0.0850
   1018  OP1       -2.0230   13.6030    7.7070 O.3    60  C60        -0.4373
   1019  OP2       -0.9760   14.5210    5.5280 O.co2  60  C60        -0.5172
   1020  P         -3.5390   19.2480    8.5370 P.3    61  C61         0.2141
   1021  C5'       -3.1780   21.6920    9.3920 C.3    61  C61         0.1812
   1022  O5'       -3.1940   20.7800    8.3060 O.3    61  C61        -0.3114
   1023  C4'       -2.5530   22.9930    8.9750 C.3    61  C61         0.1773
   1024  O4'       -1.2870   22.7190    8.3190 O.3    61  C61        -0.3307
   1025  C3'       -3.3380   23.7890    7.9470 C.3    61  C61         0.1860
   1026  O3'       -4.3530   24.5790    8.5430 O.3    61  C61        -0.3112
   1027  C2'       -2.2530   24.6140    7.2640 C.3    61  C61         0.2309
   1028  O2'       -1.9030   25.7310    8.0690 O.3    61  C61        -0.2156
   1029  C1'       -1.0690   23.6470    7.2830 C.3    61  C61         0.2420
   1030  N1        -0.8650   22.9200    6.0080 N.ar   61  C61        -0.2535
   1031  C2        -0.2750   23.6070    4.9590 C.ar   61  C61         0.3532
   1032  O2         0.0320   24.7970    5.1320 O.2    61  C61        -0.2443
   1033  N3        -0.0520   22.9820    3.7850 N.ar   61  C61        -0.1739
   1034  C4        -0.3830   21.7050    3.6520 C.ar   61  C61         0.1759
   1035  N4        -0.1350   21.1280    2.4680 N.pl3  61  C61        -0.1070
   1036  C5        -0.9830   20.9690    4.7060 C.ar   61  C61         0.0566
   1037  C6        -1.1960   21.6070    5.8610 C.ar   61  C61         0.0850
   1038  OP1       -4.6090   19.2100    9.5530 O.3    61  C61        -0.4373
   1039  OP2       -3.7240   18.6380    7.1910 O.co2  61  C61        -0.5172
   1040  P         -5.9140   24.2440    8.3270 P.3    62  U62         0.2141
   1041  C5'       -7.5160   24.6570    6.3150 C.3    62  U62         0.1812
   1042  O5'       -6.1800   24.5130    6.7840 O.3    62  U62        -0.3114
   1043  C4'       -7.5840   25.4150    5.0170 C.3    62  U62         0.1773
   1044  O4'       -6.9420   24.6270    3.9840 O.3    62  U62        -0.3307
   1045  C3'       -8.9940   25.7090    4.5210 C.3    62  U62         0.1860
   1046  O3'       -9.0060   26.9680    3.8700 O.3    62  U62        -0.3112
   1047  C2'       -9.2550   24.5990    3.5070 C.3    62  U62         0.2309
   1048  O2'      -10.1580   24.9520    2.4790 O.3    62  U62        -0.2156
   1049  C1'       -7.8590   24.3270    2.9490 C.3    62  U62         0.2420
   1050  N1        -7.6570   22.9160    2.5920 N.ar   62  U62        -0.2534
   1051  C2        -7.4700   22.5540    1.2650 C.ar   62  U62         0.3546
   1052  O2        -7.4580   23.3550    0.3410 O.2    62  U62        -0.2443
   1053  N3        -7.3090   21.2000    1.0620 N.ar   62  U62        -0.1530
   1054  C4        -7.3090   20.2060    2.0220 C.ar   62  U62         0.2846
   1055  O4        -7.1350   19.0330    1.6900 O.2    62  U62        -0.2650
   1056  C5        -7.5170   20.6650    3.3590 C.ar   62  U62         0.0814
   1057  C6        -7.6760   21.9710    3.5930 C.ar   62  U62         0.0870
   1058  OP1       -6.6470   25.2930    9.0690 O.3    62  U62        -0.4373
   1059  OP2       -6.2000   22.8120    8.6000 O.co2  62  U62        -0.5172
   1060  P         -9.3700   28.2860    4.7090 P.3    63  U63         0.2141
   1061  C5'       -7.8480   29.7610    3.2300 C.3    63  U63         0.1812
   1062  O5'       -8.0930   29.2100    4.5120 O.3    63  U63        -0.3114
   1063  C4'       -6.5580   30.5320    3.1440 C.3    63  U63         0.1773
   1064  O4'       -5.4700   29.5970    2.8990 O.3    63  U63        -0.3307
   1065  C3'       -6.5530   31.4860    1.9660 C.3    63  U63         0.1860
   1066  O3'       -5.5770   32.5000    2.1860 O.3    63  U63        -0.3112
   1067  C2'       -6.0900   30.5740    0.8470 C.3    63  U63         0.2309
   1068  O2'       -5.6110   31.2510   -0.2980 O.3    63  U63        -0.2156
   1069  C1'       -5.0100   29.7570    1.5610 C.3    63  U63         0.2420
   1070  N1        -4.8190   28.4180    0.9990 N.ar   63  U63        -0.2534
   1071  C2        -4.0230   28.3130   -0.1200 C.ar   63  U63         0.3546
   1072  O2        -3.4880   29.2850   -0.6300 O.2    63  U63        -0.2443
   1073  N3        -3.8890   27.0340   -0.6080 N.ar   63  U63        -0.1530
   1074  C4        -4.4580   25.8860   -0.0950 C.ar   63  U63         0.2846
   1075  O4        -4.2290   24.8060   -0.6390 O.2    63  U63        -0.2650
   1076  C5        -5.2690   26.0860    1.0690 C.ar   63  U63         0.0814
   1077  C6        -5.4220   27.3190    1.5660 C.ar   63  U63         0.0870
   1078  OP1       -9.5040   27.9700    6.1560 O.3    63  U63        -0.4373
   1079  OP2      -10.4960   28.9060    3.9750 O.co2  63  U63        -0.5172
   1080  P         -5.9930   33.8680    2.9090 P.3    64  A64         0.2141
   1081  C5'       -4.6480   34.2000    5.1210 C.3    64  A64         0.1812
   1082  O5'       -5.7340   33.5770    4.4540 O.3    64  A64        -0.3114
   1083  C4'       -4.3350   33.5670    6.4550 C.3    64  A64         0.1773
   1084  O4'       -4.5890   32.1430    6.4040 O.3    64  A64        -0.3307
   1085  C3'       -2.8780   33.7080    6.8890 C.3    64  A64         0.1860
   1086  O3'       -2.6840   34.8790    7.6650 O.3    64  A64        -0.3112
   1087  C2'       -2.5930   32.4170    7.6440 C.3    64  A64         0.2309
   1088  O2'       -3.0290   32.5190    8.9920 O.3    64  A64        -0.2156
   1089  C1'       -3.5010   31.4240    6.9250 C.3    64  A64         0.2408
   1090  N1        -3.1190   27.0090    4.4220 N.ar   64  A64        -0.2040
   1091  C2        -3.7130   27.3530    5.5680 C.ar   64  A64         0.2016
   1092  N3        -3.7570   28.5430    6.1630 N.ar   64  A64        -0.2048
   1093  C4        -3.0820   29.4560    5.4450 C.ar   64  A64         0.1692
   1094  C5        -2.4200   29.2600    4.2510 C.ar   64  A64         0.1518
   1095  C6        -2.4520   27.9540    3.7240 C.ar   64  A64         0.1919
   1096  N6        -1.8620   27.5950    2.5810 N.pl3  64  A64        -0.1054
   1097  N7        -1.8500   30.4500    3.8030 N.ar   64  A64        -0.2193
   1098  C8        -2.1640   31.3150    4.7270 C.ar   64  A64         0.1816
   1099  N9        -2.8820   30.7680    5.7630 N.ar   64  A64        -0.2693
   1100  OP1       -7.4510   34.0910    2.7100 O.3    64  A64        -0.4373
   1101  OP2       -5.0200   34.8930    2.4540 O.co2  64  A64        -0.5172
   1102  P         -1.4230   35.8380    7.4210 P.3    65  A65         0.2141
   1103  C5'       -0.5930   34.8480    9.6650 C.3    65  A65         0.1812
   1104  O5'       -0.3050   35.1580    8.3110 O.3    65  A65        -0.3114
   1105  C4'        0.3440   33.8110   10.2080 C.3    65  A65         0.1773
   1106  O4'        0.1470   32.5400    9.5190 O.3    65  A65        -0.3307
   1107  C3'        1.8350   34.1310   10.0790 C.3    65  A65         0.1860
   1108  O3'        2.4900   33.5690   11.2070 O.3    65  A65        -0.3112
   1109  C2'        2.2350   33.3320    8.8440 C.3    65  A65         0.2309
   1110  O2'        3.6140   33.0320    8.7420 O.3    65  A65        -0.2156
   1111  C1'        1.3930   32.0770    9.0470 C.3    65  A65         0.2408
   1112  N1         0.1210   27.4220    7.3280 N.ar   65  A65        -0.2040
   1113  C2         0.1790   27.9460    8.5630 C.ar   65  A65         0.2016
   1114  N3         0.5140   29.1830    8.9330 N.ar   65  A65        -0.2048
   1115  C4         0.8270   29.9350    7.8610 C.ar   65  A65         0.1692
   1116  C5         0.8170   29.5460    6.5330 C.ar   65  A65         0.1518
   1117  C6         0.4420   28.2110    6.2730 C.ar   65  A65         0.1919
   1118  N6         0.3910   27.6900    5.0470 N.pl3  65  A65        -0.1054
   1119  N7         1.1970   30.5970    5.7030 N.ar   65  A65        -0.2193
   1120  C8         1.4230   31.5850    6.5350 C.ar   65  A65         0.1816
   1121  N9         1.2130   31.2510    7.8520 N.ar   65  A65        -0.2693
   1122  OP1       -1.7330   37.1430    8.0670 O.3    65  A65        -0.4373
   1123  OP2       -1.0110   35.7750    5.9960 O.co2  65  A65        -0.5172
   1124  P          3.8230   34.2260   11.8030 P.3    66  A66         0.2141
   1125  C5'        5.1110   31.9420   11.6030 C.3    66  A66         0.1812
   1126  O5'        4.5820   32.9720   12.4290 O.3    66  A66        -0.3114
   1127  C4'        4.6150   30.5800   12.0210 C.3    66  A66         0.1773
   1128  O4'        3.4110   30.2450   11.2790 O.3    66  A66        -0.3307
   1129  C3'        5.5510   29.4190   11.7360 C.3    66  A66         0.1860
   1130  O3'        6.5520   29.2720   12.7180 O.3    66  A66        -0.3112
   1131  C2'        4.6000   28.2360   11.6740 C.3    66  A66         0.2309
   1132  O2'        4.2130   27.8230   12.9790 O.3    66  A66        -0.2156
   1133  C1'        3.4100   28.8710   10.9600 C.3    66  A66         0.2408
   1134  N1         3.3390   25.7110    6.9070 N.ar   66  A66        -0.2040
   1135  C2         3.0740   25.5030    8.2050 C.ar   66  A66         0.2016
   1136  N3         3.1030   26.3720    9.2120 N.ar   66  A66        -0.2048
   1137  C4         3.4640   27.5930    8.7720 C.ar   66  A66         0.1692
   1138  C5         3.7670   27.9580    7.4740 C.ar   66  A66         0.1518
   1139  C6         3.7000   26.9530    6.5050 C.ar   66  A66         0.1919
   1140  N6         3.9770   27.1700    5.2200 N.pl3  66  A66        -0.1054
   1141  N7         4.0960   29.3000    7.3900 N.ar   66  A66        -0.2193
   1142  C8         3.9960   29.7250    8.6260 C.ar   66  A66         0.1816
   1143  N9         3.5970   28.7460    9.5060 N.ar   66  A66        -0.2693
   1144  OP1        3.3960   35.0970   12.9260 O.3    66  A66        -0.4373
   1145  OP2        4.6450   34.8150   10.7080 O.co2  66  A66        -0.5172
   1146  P          8.0950   29.3630   12.3200 P.3    67  C67         0.2141
   1147  C5'        8.6270   27.1240   11.0770 C.3    67  C67         0.1812
   1148  O5'        8.2200   28.4830   10.9990 O.3    67  C67        -0.3114
   1149  C4'        7.4880   26.2170   11.4800 C.3    67  C67         0.1773
   1150  O4'        6.5590   26.0480   10.3760 O.3    67  C67        -0.3307
   1151  C3'        7.8820   24.8000   11.8630 C.3    67  C67         0.1860
   1152  O3'        8.2970   24.7400   13.2160 O.3    67  C67        -0.3112
   1153  C2'        6.6060   24.0070   11.5950 C.3    67  C67         0.2309
   1154  O2'        5.6920   24.1740   12.6710 O.3    67  C67        -0.2156
   1155  C1'        6.0330   24.7380   10.3770 C.3    67  C67         0.2420
   1156  N1         6.3680   24.0880    9.0830 N.ar   67  C67        -0.2535
   1157  C2         5.6920   22.9230    8.6870 C.ar   67  C67         0.3532
   1158  O2         4.8380   22.4220    9.4260 O.2    67  C67        -0.2443
   1159  N3         5.9860   22.3480    7.5010 N.ar   67  C67        -0.1739
   1160  C4         6.9060   22.8960    6.7060 C.ar   67  C67         0.1759
   1161  N4         7.1470   22.2810    5.5430 N.pl3  67  C67        -0.1070
   1162  C5         7.6080   24.0870    7.0710 C.ar   67  C67         0.0566
   1163  C6         7.3050   24.6450    8.2510 C.ar   67  C67         0.0850
   1164  OP1        8.7940   28.6540   13.4260 O.3    67  C67        -0.4373
   1165  OP2        8.4210   30.7590   11.9510 O.co2  67  C67        -0.5172
   1166  P          9.3230   23.6210   13.7140 P.3    68  U68         0.2141
   1167  C5'        7.5740   21.8760   14.6180 C.3    68  U68         0.1812
   1168  O5'        8.4920   22.2700   13.6160 O.3    68  U68        -0.3114
   1169  C4'        7.0710   20.4810   14.3430 C.3    68  U68         0.1773
   1170  O4'        6.4100   20.4450   13.0490 O.3    68  U68        -0.3307
   1171  C3'        8.1350   19.3970   14.2370 C.3    68  U68         0.1860
   1172  O3'        8.5890   18.9220   15.4930 O.3    68  U68        -0.3112
   1173  C2'        7.4440   18.3300   13.3940 C.3    68  U68         0.2309
   1174  O2'        6.5540   17.5510   14.1790 O.3    68  U68        -0.2156
   1175  C1'        6.6160   19.1860   12.4380 C.3    68  U68         0.2420
   1176  N1         7.2880   19.3790   11.1330 N.ar   68  U68        -0.2534
   1177  C2         7.2910   18.3010   10.2700 C.ar   68  U68         0.3546
   1178  O2         6.7810   17.2290   10.5460 O.2    68  U68        -0.2443
   1179  N3         7.9010   18.5210    9.0650 N.ar   68  U68        -0.1530
   1180  C4         8.4990   19.6860    8.6470 C.ar   68  U68         0.2846
   1181  O4         9.0050   19.7210    7.5250 O.2    68  U68        -0.2650
   1182  C5         8.4560   20.7600    9.5960 C.ar   68  U68         0.0814
   1183  C6         7.8650   20.5750   10.7810 C.ar   68  U68         0.0870
   1184  OP1        9.6600   23.9570   15.1260 O.3    68  U68        -0.4373
   1185  OP2       10.3820   23.4920   12.6770 O.co2  68  U68        -0.5172
   1186  P         10.0310   18.2140   15.6240 P.3    69  C69         0.2141
   1187  C5'        8.9960   15.8280   15.2940 C.3    69  C69         0.1812
   1188  O5'        9.8800   16.8400   14.8290 O.3    69  C69        -0.3114
   1189  C4'        8.8350   14.7170   14.2860 C.3    69  C69         0.1773
   1190  O4'        8.3710   15.2590   13.0250 O.3    69  C69        -0.3307
   1191  C3'       10.1010   13.9670   13.9080 C.3    69  C69         0.1860
   1192  O3'       10.4730   13.0010   14.8710 O.3    69  C69        -0.3112
   1193  C2'        9.7320   13.3740   12.5550 C.3    69  C69         0.2309
   1194  O2'        8.8840   12.2490   12.7160 O.3    69  C69        -0.2156
   1195  C1'        8.8940   14.4980   11.9560 C.3    69  C69         0.2420
   1196  N1         9.6780   15.3900   11.0680 N.ar   69  C69        -0.2535
   1197  C2         9.9020   14.9710    9.7510 C.ar   69  C69         0.3532
   1198  O2         9.4570   13.8630    9.3840 O.2    69  C69        -0.2443
   1199  N3        10.5990   15.7820    8.9190 N.ar   69  C69        -0.1739
   1200  C4        11.0530   16.9620    9.3640 C.ar   69  C69         0.1759
   1201  N4        11.7320   17.7320    8.5110 N.pl3  69  C69        -0.1070
   1202  C5        10.8380   17.4160   10.7020 C.ar   69  C69         0.0566
   1203  C6        10.1440   16.6000   11.5120 C.ar   69  C69         0.0850
   1204  OP1       10.1760   17.8750   17.0620 O.3    69  C69        -0.4373
   1205  OP2       11.0610   19.0290   14.9360 O.co2  69  C69        -0.5172
   1206  P         11.9850   12.4680   14.9510 P.3    70  U70         0.2141
   1207  C5'       11.4400   10.3560   13.4920 C.3    70  U70         0.1812
   1208  O5'       12.1520   11.5800   13.6370 O.3    70  U70        -0.3114
   1209  C4'       11.6430    9.7570   12.1240 C.3    70  U70         0.1773
   1210  O4'       11.2420   10.7100   11.1050 O.3    70  U70        -0.3307
   1211  C3'       13.0800    9.4020   11.7610 C.3    70  U70         0.1860
   1212  O3'       13.4690    8.1370   12.2690 O.3    70  U70        -0.3112
   1213  C2'       13.0750    9.4600   10.2390 C.3    70  U70         0.2309
   1214  O2'       12.5420    8.2590    9.7010 O.3    70  U70        -0.2156
   1215  C1'       12.0740   10.5830    9.9690 C.3    70  U70         0.2420
   1216  N1        12.6910   11.9020    9.6710 N.ar   70  U70        -0.2534
   1217  C2        13.2500   12.1240    8.4190 C.ar   70  U70         0.3546
   1218  O2        13.3100   11.2540    7.5580 O.2    70  U70        -0.2443
   1219  N3        13.7270   13.4020    8.2080 N.ar   70  U70        -0.1530
   1220  C4        13.7050   14.4510    9.1050 C.ar   70  U70         0.2846
   1221  O4        14.1670   15.5400    8.7850 O.2    70  U70        -0.2650
   1222  C5        13.0990   14.1560   10.3610 C.ar   70  U70         0.0814
   1223  C6        12.6190   12.9250   10.5860 C.ar   70  U70         0.0870
   1224  OP1       12.0350   11.5340   16.1060 O.3    70  U70        -0.4373
   1225  OP2       12.9170   13.6200   14.9150 O.co2  70  U70        -0.5172
   1226  P         14.9980    7.8550   12.6870 P.3    71  U71         0.2141
   1227  C5'       15.3780    6.8440   10.3200 C.3    71  U71         0.1812
   1228  O5'       15.7580    7.7970   11.2950 O.3    71  U71        -0.3114
   1229  C4'       16.1190    7.0630    9.0350 C.3    71  U71         0.1773
   1230  O4'       15.5850    8.2110    8.3360 O.3    71  U71        -0.3307
   1231  C3'       17.5890    7.3840    9.1920 C.3    71  U71         0.1860
   1232  O3'       18.3570    6.2250    9.4210 O.3    71  U71        -0.3112
   1233  C2'       17.9110    8.0910    7.8870 C.3    71  U71         0.2309
   1234  O2'       18.0270    7.1460    6.8320 O.3    71  U71        -0.2156
   1235  C1'       16.6270    8.8860    7.6630 C.3    71  U71         0.2420
   1236  N1        16.6950   10.2760    8.1740 N.ar   71  U71        -0.2534
   1237  C2        17.0910   11.2250    7.2650 C.ar   71  U71         0.3546
   1238  O2        17.4030   10.9270    6.1290 O.2    71  U71        -0.2443
   1239  N3        17.1090   12.5150    7.7310 N.ar   71  U71        -0.1530
   1240  C4        16.7730   12.9440    9.0010 C.ar   71  U71         0.2846
   1241  O4        16.8470   14.1510    9.2670 O.2    71  U71        -0.2650
   1242  C5        16.3580   11.8940    9.8880 C.ar   71  U71         0.0814
   1243  C6        16.3340   10.6260    9.4560 C.ar   71  U71         0.0870
   1244  OP1       15.0580    6.4920   13.2640 O.2    71  U71        -0.5172
   1245  OP2       15.5170    8.9970   13.4670 O.co2  71  U71        -0.4373
   1246  P         19.7800    6.3280   10.1500 P.3    72  G72         0.2141
   1247  C5'       20.9610    6.3210    7.8410 C.3    72  G72         0.1812
   1248  O5'       20.6920    7.0060    9.0500 O.3    72  G72        -0.3114
   1249  C4'       21.7180    7.1940    6.8860 C.3    72  G72         0.1773
   1250  O4'       20.9080    8.3370    6.5380 O.3    72  G72        -0.3307
   1251  C3'       23.0080    7.7950    7.4240 C.3    72  G72         0.1860
   1252  O3'       24.0860    6.8750    7.3440 O.3    72  G72        -0.3112
   1253  C2'       23.1830    9.0380    6.5600 C.3    72  G72         0.2309
   1254  O2'       23.7390    8.6980    5.2980 O.3    72  G72        -0.2156
   1255  C1'       21.7270    9.4680    6.3400 C.3    72  G72         0.2408
   1256  N1        21.3760   14.4780    7.1620 N.ar   72  G72        -0.1709
   1257  C2        21.9100   13.7830    6.0930 C.ar   72  G72         0.2606
   1258  N2        22.4400   14.5130    5.0970 N.pl3  72  G72        -0.0859
   1259  N3        21.9400   12.4630    6.0070 N.ar   72  G72        -0.1918
   1260  C4        21.3810   11.8690    7.0760 C.ar   72  G72         0.1723
   1261  C5        20.8230   12.4540    8.1920 C.ar   72  G72         0.1748
   1262  C6        20.7900   13.8760    8.2780 C.ar   72  G72         0.3023
   1263  O6        20.3300   14.5790    9.1900 O.2    72  G72        -0.2633
   1264  N7        20.3540   11.4810    9.0720 N.ar   72  G72        -0.2173
   1265  C8        20.6480   10.3510    8.4840 C.ar   72  G72         0.1817
   1266  N9        21.2820   10.5220    7.2730 N.ar   72  G72        -0.2693
   1267  OP1       20.2340    4.9300   10.3250 O.2    72  G72        -0.5172
   1268  OP2       19.7380    7.2220   11.3270 O.co2  72  G72        -0.4373
   1269  P         25.4120    7.0540    8.2290 P.3    73  A73         0.2141
   1270  C5'       27.3380    8.8120    8.0790 C.3    73  A73         0.1812
   1271  O5'       26.1680    8.2570    7.5210 O.3    73  A73        -0.3114
   1272  C4'       27.7650   10.0170    7.2930 C.3    73  A73         0.1773
   1273  O4'       26.8430   11.1010    7.5410 O.3    73  A73        -0.3307
   1274  C3'       29.1240   10.5890    7.6420 C.3    73  A73         0.1860
   1275  O3'       30.1590    9.9070    6.9660 O.3    73  A73        -0.3112
   1276  C2'       28.9880   12.0470    7.2260 C.3    73  A73         0.2309
   1277  O2'       29.1370   12.1770    5.8180 O.3    73  A73        -0.2156
   1278  C1'       27.5290   12.3270    7.5790 C.3    73  A73         0.2408
   1279  N1        27.9300   16.4150   10.7110 N.ar   73  A73        -0.2040
   1280  C2        28.2270   16.2550    9.4150 C.ar   73  A73         0.2016
   1281  N3        28.1010   15.1770    8.6470 N.ar   73  A73        -0.2048
   1282  C4        27.6050   14.1520    9.3620 C.ar   73  A73         0.1692
   1283  C5        27.2590   14.1590   10.7000 C.ar   73  A73         0.1518
   1284  C6        27.4370   15.3650   11.4010 C.ar   73  A73         0.1919
   1285  N6        27.1420   15.5320   12.6950 N.pl3  73  A73        -0.1054
   1286  N7        26.7860   12.9180   11.1000 N.ar   73  A73        -0.2193
   1287  C8        26.8630   12.1920   10.0120 C.ar   73  A73         0.1816
   1288  N9        27.3630   12.8720    8.9310 N.ar   73  A73        -0.2693
   1289  OP1       26.2430    5.8410    8.0120 O.2    73  A73        -0.5172
   1290  OP2       25.0400    7.4560    9.6090 O.co2  73  A73        -0.4373
   1291  P         31.5650    9.6260    7.6880 P.3    74  C74         0.2141
   1292  C5'       32.4890   11.8370    6.5880 C.3    74  C74         0.1812
   1293  O5'       32.2770   11.0530    7.7560 O.3    74  C74        -0.3114
   1294  C4'       32.7260   13.2930    6.9220 C.3    74  C74         0.1773
   1295  O4'       31.5310   13.8810    7.5050 O.3    74  C74        -0.3307
   1296  C3'       33.8090   13.5810    7.9440 C.3    74  C74         0.1860
   1297  O3'       35.1010   13.5570    7.3630 O.3    74  C74        -0.3112
   1298  C2'       33.4100   14.9520    8.4780 C.3    74  C74         0.2309
   1299  O2'       33.7920   15.9760    7.5720 O.3    74  C74        -0.2156
   1300  C1'       31.8860   14.8530    8.4580 C.3    74  C74         0.2420
   1301  N1        31.3200   14.4760    9.7790 N.ar   74  C74        -0.2535
   1302  C2        31.1400   15.4900   10.7330 C.ar   74  C74         0.3532
   1303  O2        31.4580   16.6480   10.4430 O.2    74  C74        -0.2443
   1304  N3        30.6200   15.2010   11.9510 N.ar   74  C74        -0.1739
   1305  C4        30.2810   13.9520   12.2450 C.ar   74  C74         0.1759
   1306  N4        29.7700   13.7500   13.4600 N.pl3  74  C74        -0.1070
   1307  C5        30.4500   12.8840   11.2950 C.ar   74  C74         0.0566
   1308  C6        30.9650   13.1890   10.0890 C.ar   74  C74         0.0850
   1309  OP1       32.3040    8.7280    6.7680 O.2    74  C74        -0.5172
   1310  OP2       31.3030    9.2150    9.0910 O.co2  74  C74        -0.4373
   1311  P         36.3890   13.1250    8.2200 P.3    75  U75         0.2141
   1312  C5'       36.7710   15.6060    8.9230 C.3    75  U75         0.1812
   1313  O5'       36.5030   14.2700    9.3100 O.3    75  U75        -0.3114
   1314  C4'       36.7400   16.5180   10.1120 C.3    75  U75         0.1773
   1315  O4'       35.3750   16.6530   10.6000 O.3    75  U75        -0.3307
   1316  C3'       37.5070   16.0280   11.3270 C.3    75  U75         0.1860
   1317  O3'       38.9090   16.2180   11.2320 O.3    75  U75        -0.3112
   1318  C2'       36.8550   16.8140   12.4440 C.3    75  U75         0.2309
   1319  O2'       37.2810   18.1650   12.3860 O.3    75  U75        -0.2156
   1320  C1'       35.3890   16.7680   12.0090 C.3    75  U75         0.2420
   1321  N1        34.6780   15.6070   12.5940 N.ar   75  U75        -0.2534
   1322  C2        34.1740   15.7760   13.8660 C.ar   75  U75         0.3546
   1323  O2        34.3140   16.8220   14.4710 O.2    75  U75        -0.2443
   1324  N3        33.5030   14.6980   14.4020 N.ar   75  U75        -0.1530
   1325  C4        33.3090   13.4790   13.7780 C.ar   75  U75         0.2846
   1326  O4        32.6860   12.5970   14.3660 O.2    75  U75        -0.2650
   1327  C5        33.8660   13.3740   12.4570 C.ar   75  U75         0.0814
   1328  C6        34.5160   14.4190   11.9280 C.ar   75  U75         0.0870
   1329  OP1       37.5520   13.2610    7.3090 O.2    75  U75        -0.5172
   1330  OP2       36.1530   11.8280    8.9120 O.co2  75  U75        -0.4373
   1331  P         39.9050   15.2420   12.0400 P.3    76  A76         0.2141
   1332  C5'       39.9240   17.0350   13.9630 C.3    76  A76         0.1812
   1333  O5'       39.6940   15.6950   13.5570 O.3    76  A76        -0.3114
   1334  C4'       39.6740   17.2210   15.4410 C.3    76  A76         0.1773
   1335  O4'       38.2460   17.2160   15.7100 O.3    76  A76        -0.3307
   1336  C3'       40.2230   16.1490   16.3700 C.3    76  A76         0.1860
   1337  O3'       41.6060   16.3090   16.6340 O.3    76  A76        -0.3112
   1338  C2'       39.3480   16.3210   17.6020 C.3    76  A76         0.2309
   1339  O2'       39.7220   17.4950   18.3070 O.3    76  A76        -0.2156
   1340  C1'       37.9970   16.6090   16.9580 C.3    76  A76         0.2408
   1341  N1        34.6540   13.1600   18.8610 N.ar   76  A76        -0.2040
   1342  C2        35.2740   14.2110   19.4180 C.ar   76  A76         0.2016
   1343  N3        36.1430   15.0650   18.8820 N.ar   76  A76        -0.2048
   1344  C4        36.3620   14.7590   17.5920 C.ar   76  A76         0.1692
   1345  C5        35.8010   13.7160   16.8770 C.ar   76  A76         0.1518
   1346  C6        34.9030   12.8820   17.5640 C.ar   76  A76         0.1919
   1347  N6        34.2870   11.8360   17.0060 N.pl3  76  A76        -0.1054
   1348  N7        36.2730   13.7100   15.5710 N.ar   76  A76        -0.2193
   1349  C8        37.0880   14.7390   15.5220 C.ar   76  A76         0.1816
   1350  N9        37.2010   15.3990   16.7130 N.ar   76  A76        -0.2693
   1351  OP1       41.2970   15.5400   11.5950 O.2    76  A76        -0.5172
   1352  OP2       39.4050   13.8420   11.9470 O.co2  76  A76        -0.4373
   1353  P         42.5670   15.0350   16.8480 P.3    77  U77         0.2141
   1354  C5'       42.2590   15.3380   19.4320 C.3    77  U77         0.1812
   1355  O5'       42.1790   14.4990   18.2910 O.3    77  U77        -0.3114
   1356  C4'       41.4870   14.7490   20.5820 C.3    77  U77         0.1773
   1357  O4'       40.0680   14.7410   20.2650 O.3    77  U77        -0.3307
   1358  C3'       41.7850   13.2950   20.9020 C.3    77  U77         0.1860
   1359  O3'       42.9840   13.1030   21.6300 O.3    77  U77        -0.3112
   1360  C2'       40.5270   12.8650   21.6400 C.3    77  U77         0.2309
   1361  O2'       40.5060   13.3990   22.9550 O.3    77  U77        -0.2156
   1362  C1'       39.4600   13.5930   20.8280 C.3    77  U77         0.2420
   1363  N1        38.9150   12.7440   19.7410 N.ar   77  U77        -0.2534
   1364  C2        37.9350   11.8390   20.1080 C.ar   77  U77         0.3546
   1365  O2        37.5410   11.7420   21.2580 O.2    77  U77        -0.2443
   1366  N3        37.4290   11.0640   19.0920 N.ar   77  U77        -0.1530
   1367  C4        37.8140   11.1010   17.7670 C.ar   77  U77         0.2846
   1368  O4        37.2710   10.3260   16.9730 O.2    77  U77        -0.2650
   1369  C5        38.8530   12.0570   17.4560 C.ar   77  U77         0.0814
   1370  C6        39.3500   12.8310   18.4320 C.ar   77  U77         0.0870
   1371  OP1       43.9480   15.5810   16.9130 O.3    77  U77        -0.4373
   1372  OP2       42.2170   13.9550   15.8840 O.co2  77  U77        -0.5172
   1373  P         43.9730   11.9020   21.2190 P.3    78  G78         0.2141
   1374  C5'       43.2290   10.6860   23.3850 C.3    78  G78         0.1812
   1375  O5'       43.3840   10.6430   21.9820 O.3    78  G78        -0.3114
   1376  C4'       42.2090    9.6910   23.8600 C.3    78  G78         0.1773
   1377  O4'       40.9030   10.0040   23.3110 O.3    78  G78        -0.3307
   1378  C3'       42.4190    8.2510   23.4430 C.3    78  G78         0.1860
   1379  O3'       43.4380    7.5910   24.1670 O.3    78  G78        -0.3112
   1380  C2'       41.0370    7.6700   23.6750 C.3    78  G78         0.2309
   1381  O2'       40.8020    7.5330   25.0670 O.3    78  G78        -0.2156
   1382  C1'       40.1630    8.8080   23.1620 C.3    78  G78         0.2408
   1383  N1        37.1260    6.2770   20.0070 N.ar   78  G78        -0.1709
   1384  C2        37.2170    6.2360   21.3780 C.ar   78  G78         0.2606
   1385  N2        36.3660    5.4060   22.0000 N.pl3  78  G78        -0.0859
   1386  N3        38.0660    6.9670   22.0840 N.ar   78  G78        -0.1918
   1387  C4        38.8380    7.7450   21.3000 C.ar   78  G78         0.1723
   1388  C5        38.8390    7.8600   19.9280 C.ar   78  G78         0.1748
   1389  C6        37.9130    7.0760   19.1820 C.ar   78  G78         0.3023
   1390  O6        37.7440    7.0260   17.9560 O.2    78  G78        -0.2633
   1391  N7        39.8010    8.7800   19.5200 N.ar   78  G78        -0.2173
   1392  C8        40.3560    9.1960   20.6280 C.ar   78  G78         0.1817
   1393  N9        39.8130    8.6110   21.7440 N.ar   78  G78        -0.2693
   1394  OP1       45.3080   12.2070   21.7900 O.3    78  G78        -0.4373
   1395  OP2       43.8040   11.6250   19.7690 O.co2  78  G78        -0.5172
   1396  P         44.2650    6.3940   23.4830 P.3    79  A79         0.2141
   1397  C5'       42.5970    4.9090   24.8570 C.3    79  A79         0.1812
   1398  O5'       43.3280    5.1160   23.6580 O.3    79  A79        -0.3114
   1399  C4'       41.4470    3.9580   24.6480 C.3    79  A79         0.1773
   1400  O4'       40.4230    4.5430   23.8030 O.3    79  A79        -0.3307
   1401  C3'       41.8050    2.6700   23.9490 C.3    79  A79         0.1860
   1402  O3'       42.4260    1.7720   24.8420 O.3    79  A79        -0.3112
   1403  C2'       40.4600    2.1960   23.4000 C.3    79  A79         0.2309
   1404  O2'       39.7040    1.5270   24.3980 O.3    79  A79        -0.2156
   1405  C1'       39.7710    3.5270   23.0720 C.3    79  A79         0.2408
   1406  N1        37.8420    2.5120   18.4130 N.ar   79  A79        -0.2040
   1407  C2        37.5650    2.0250   19.6310 C.ar   79  A79         0.2016
   1408  N3        38.1120    2.3370   20.8050 N.ar   79  A79        -0.2048
   1409  C4        39.0570    3.2800   20.6540 C.ar   79  A79         0.1692
   1410  C5        39.4490    3.8800   19.4710 C.ar   79  A79         0.1518
   1411  C6        38.8020    3.4610   18.2960 C.ar   79  A79         0.1919
   1412  N6        39.0880    3.9560   17.0870 N.pl3  79  A79        -0.1054
   1413  N7        40.4540    4.8150   19.7010 N.ar   79  A79        -0.2193
   1414  C8        40.6460    4.7610   20.9990 C.ar   79  A79         0.1816
   1415  N9        39.8330    3.8520   21.6350 N.ar   79  A79        -0.2693
   1416  OP1       45.4860    6.2220   24.3000 O.3    79  A79        -0.4373
   1417  OP2       44.3690    6.6440   22.0220 O.co2  79  A79        -0.5172
   1418  P         43.2530    0.5160   24.2960 P.3    80  A80         0.2141
   1419  C5'       42.2450   -1.6160   23.1980 C.3    80  A80         0.1812
   1420  O5'       42.1240   -0.5870   24.1530 O.3    80  A80        -0.3114
   1421  C4'       40.8960   -2.0770   22.7220 C.3    80  A80         0.1773
   1422  O4'       40.0870   -0.9390   22.3170 O.3    80  A80        -0.3307
   1423  C3'       40.9410   -2.9690   21.5000 C.3    80  A80         0.1860
   1424  O3'       41.2170   -4.3080   21.8450 O.3    80  A80        -0.3112
   1425  C2'       39.5730   -2.7420   20.8680 C.3    80  A80         0.2309
   1426  O2'       38.5720   -3.4740   21.5590 O.3    80  A80        -0.2156
   1427  C1'       39.3720   -1.2520   21.1410 C.3    80  A80         0.2408
   1428  N1        39.2340    0.1490   16.1510 N.ar   80  A80        -0.2040
   1429  C2        38.4880   -0.7170   16.8510 C.ar   80  A80         0.2016
   1430  N3        38.5610   -1.0450   18.1400 N.ar   80  A80        -0.2048
   1431  C4        39.5530   -0.3640   18.7430 C.ar   80  A80         0.1692
   1432  C5        40.4020    0.5620   18.1570 C.ar   80  A80         0.1518
   1433  C6        40.2200    0.8210   16.7910 C.ar   80  A80         0.1919
   1434  N6        40.9760    1.6850   16.1080 N.pl3  80  A80        -0.1054
   1435  N7        41.3060    1.0750   19.0750 N.ar   80  A80        -0.2193
   1436  C8        40.9840    0.4600   20.1840 C.ar   80  A80         0.1816
   1437  N9        39.9360   -0.4210   20.0610 N.ar   80  A80        -0.2693
   1438  OP1       44.1630    0.0750   25.3840 O.3    80  A80        -0.4373
   1439  OP2       43.7980    0.8200   22.9460 O.co2  80  A80        -0.5172
   1440  P         42.5680   -5.0110   21.3420 P.3    81  G81         0.2141
   1441  C5'       40.8300   -6.5630   20.1830 C.3    81  G81         0.1812
   1442  O5'       42.0600   -5.8560   20.0950 O.3    81  G81        -0.3114
   1443  C4'       40.0840   -6.5570   18.8760 C.3    81  G81         0.1773
   1444  O4'       39.5320   -5.2390   18.6180 O.3    81  G81        -0.3307
   1445  C3'       40.9160   -6.8490   17.6410 C.3    81  G81         0.1860
   1446  O3'       41.1860   -8.2280   17.4690 O.3    81  G81        -0.3112
   1447  C2'       40.0780   -6.2310   16.5320 C.3    81  G81         0.2309
   1448  O2'       38.9640   -7.0510   16.2190 O.3    81  G81        -0.2156
   1449  C1'       39.5610   -4.9750   17.2300 C.3    81  G81         0.2408
   1450  N1        41.0790   -1.5760   13.8200 N.ar   81  G81        -0.1709
   1451  C2        40.1290   -2.5640   13.7150 C.ar   81  G81         0.2606
   1452  N2        39.4970   -2.6680   12.5380 N.pl3  81  G81        -0.0859
   1453  N3        39.8240   -3.3950   14.6960 N.ar   81  G81        -0.1918
   1454  C4        40.5550   -3.1550   15.8040 C.ar   81  G81         0.1723
   1455  C5        41.5210   -2.2020   16.0200 C.ar   81  G81         0.1748
   1456  C6        41.8390   -1.3130   14.9580 C.ar   81  G81         0.3023
   1457  O6        42.6670   -0.3940   14.9460 O.2    81  G81        -0.2633
   1458  N7        42.0310   -2.2980   17.3110 N.ar   81  G81        -0.2173
   1459  C8        41.3740   -3.2860   17.8480 C.ar   81  G81         0.1817
   1460  N9        40.4610   -3.8370   16.9870 N.ar   81  G81        -0.2693
   1461  OP1       42.9990   -5.9450   22.4120 O.3    81  G81        -0.4373
   1462  OP2       43.5360   -3.9900   20.8710 O.co2  81  G81        -0.5172
   1463  P         42.7040   -8.7420   17.3710 P.3    82  U82         0.2141
   1464  C5'       42.3320   -9.3840   14.8760 C.3    82  U82         0.1812
   1465  O5'       43.0400   -8.6050   15.8240 O.3    82  U82        -0.3114
   1466  C4'       42.1630   -8.6580   13.5700 C.3    82  U82         0.1773
   1467  O4'       41.6140   -7.3330   13.8020 O.3    82  U82        -0.3307
   1468  C3'       43.4340   -8.3920   12.7850 C.3    82  U82         0.1860
   1469  O3'       43.8930   -9.5250   12.0680 O.3    82  U82        -0.3112
   1470  C2'       43.0230   -7.2300   11.8960 C.3    82  U82         0.2309
   1471  O2'       42.2200   -7.6870   10.8200 O.3    82  U82        -0.2156
   1472  C1'       42.1350   -6.4290   12.8520 C.3    82  U82         0.2420
   1473  N1        42.9040   -5.3820   13.5660 N.ar   82  U82        -0.2534
   1474  C2        43.2430   -4.2370   12.8600 C.ar   82  U82         0.3546
   1475  O2        42.9370   -4.0610   11.6910 O.2    82  U82        -0.2443
   1476  N3        43.9590   -3.3030   13.5720 N.ar   82  U82        -0.1530
   1477  C4        44.3570   -3.3930   14.8880 C.ar   82  U82         0.2846
   1478  O4        44.9910   -2.4630   15.3810 O.2    82  U82        -0.2650
   1479  C5        43.9670   -4.6020   15.5530 C.ar   82  U82         0.0814
   1480  C6        43.2730   -5.5310   14.8860 C.ar   82  U82         0.0870
   1481  OP1       42.7160  -10.1930   17.6940 O.2    82  U82        -0.5172
   1482  OP2       43.5710   -7.8140   18.1400 O.co2  82  U82        -0.4373
   1483  P         45.4670   -9.8410   11.9580 P.3    83  C83         0.2141
   1484  C5'       45.4240   -9.2060    9.4140 C.3    83  C83         0.1813
   1485  O5'       45.9510   -8.9760   10.7120 O.3    83  C83        -0.3114
   1486  C4'       45.5980   -8.0010    8.5250 C.3    83  C83         0.1801
   1487  O4'       45.0220   -6.8290    9.1570 O.3    83  C83        -0.3306
   1488  C3'       47.0340   -7.5940    8.2340 C.3    83  C83         0.2161
   1489  O3'       47.6280   -8.3790    7.2140 O.3    83  C83        -0.2175
   1490  C2'       46.8960   -6.1180    7.8720 C.3    83  C83         0.2338
   1491  O2'       46.4360   -5.9740    6.5370 O.3    83  C83        -0.2155
   1492  C1'       45.7680   -5.6770    8.8090 C.3    83  C83         0.2421
   1493  N1        46.2460   -5.0160   10.0530 N.ar   83  C83        -0.2535
   1494  C2        46.7960   -3.7180   10.0240 C.ar   83  C83         0.3532
   1495  O2        46.9170   -3.1320    8.9330 O.2    83  C83        -0.2443
   1496  N3        47.2000   -3.1400   11.1920 N.ar   83  C83        -0.1739
   1497  C4        47.0590   -3.8030   12.3490 C.ar   83  C83         0.1759
   1498  N4        47.4590   -3.2220   13.4810 N.pl3  83  C83        -0.1070
   1499  C5        46.4930   -5.1090   12.4080 C.ar   83  C83         0.0566
   1500  C6        46.1020   -5.6630   11.2530 C.ar   83  C83         0.0850
   1501  OP1       45.6110  -11.2630   11.5560 O.2    83  C83        -0.5172
   1502  OP2       46.1530   -9.3400   13.1800 O.co2  83  C83        -0.4373
@<TRIPOS>BOND
     1   504   503    2
     2   502   503   ar
     3   502   500   ar
     4   503   505   ar
     5   501   500    2
     6   500   499   ar
     7   505   506   ar
     8   499   506   ar
     9   499   498    1
    10   498   493    1
    11   498   496    1
    12   493   492    1
    13   497   496    1
    14   496   494    1
    15   495   494    1
    16   495   509    1
    17   492   494    1
    18   492   490    1
    19   530   509    2
    20   507   489    2
    21   509   531    1
    22   509   511    1
    23   490   491    1
    24   491   489    1
    25   489   508    1
    26   489   473    1
    27   510   511    1
    28   510   512    1
    29   465   447    2
    30   487   467    2
    31   473   472    1
    32   953   932    2
    33   512   513    1
    34   512   514    1
    35   445   425    2
    36   472   470    1
    37   472   474    1
    38   447   431    1
    39   447   449    1
    40   447   466    1
    41   431   430    1
    42   468   469    1
    43   468   470    1
    44   448   449    1
    45   448   450    1
    46   467   469    1
    47   467   488    1
    48   467   453    1
    49   513   518    1
    50   470   471    1
    51   515   514    1
    52   515   532    1
    53   554   532    2
    54   433   432    1
    55   514   516    1
    56   553   532    1
    57   930   910    2
    58   427   425    1
    59   427   426    1
    60   475   474    1
    61   474   476    1
    62   425   408    1
    63   425   446    1
    64   932   916    1
    65   932   954    1
    66   932   934    1
    67   532   534    1
    68   428   430    1
    69   428   426    1
    70   428   429    1
    71   916   915    1
    72   450   452    1
    73   450   451    1
    74   408   407    1
    75   430   432    1
    76   528   527   ar
    77   528   529   ar
    78   452   453    1
    79   452   454    1
    80   593   575    2
    81   563   562    1
    82   911   913    1
    83   911   912    1
    84   518   516    1
    85   518   529    1
    86   432   434    1
    87   975   955    2
    88   410   409    1
    89   576   578    1
    90   576   577    1
    91   933   934    1
    92   933   935    1
    93   471   476    1
    94   527   524   ar
    95   516   517    1
    96   529   523   ar
    97   913   915    1
    98   913   914    1
    99   429   434    1
   100   476   486    1
   101   561   575    1
   102   561   560    1
   103   910   912    1
   104   910   894    1
   105   910   931    1
   106   915   917    1
   107   578   579    1
   108   578   580    1
   109   613   595    2
   110   451   456    1
   111   976   955    1
   112   407   405    1
   113   407   409    1
   114   405   403    1
   115   405   406    1
   116   581   580    1
   117   581   595    1
   118   434   444    1
   119   894   893    1
   120   534   533    1
   121   575   577    1
   122   575   594    1
   123   403   404    1
   124   955   938    1
   125   955   957    1
   126   918   917    1
   127  1075  1074    2
   128  1072  1071    2
   129   454   456    1
   130   454   455    1
   131  1073  1071   ar
   132  1073  1074   ar
   133   938   937    1
   134   562   560    1
   135   562   564    1
   136   558   560    1
   137   558   559    1
   138   558   556    1
   139   409   411    1
   140   423   402    2
   141   524   523   ar
   142   524   525   ar
   143  1068  1067    1
   144   935   937    1
   145   935   936    1
   146   579   584    1
   147   523   522   ar
   148  1071  1070   ar
   149   580   582    1
   150  1074  1076   ar
   151   486   485   ar
   152   486   480   ar
   153   583   582    1
   154   917   919    1
   155   533   535    1
   156   564   559    1
   157   564   565    1
   158   595   597    1
   159   595   614    1
   160   456   457    1
   161   914   919    1
   162   896   895    1
   163   556   557    1
   164   937   939    1
   165   404   402    1
   166   406   411    1
   167   485   484   ar
   168  1052  1051    2
   169   411   422    1
   170   567   566    2
   171   893   891    1
   172   893   895    1
   173   444   443   ar
   174   444   438   ar
   175   582   584    1
   176   402   388    1
   177   402   424    1
   178   464   457   ar
   179   464   463   ar
   180   522   520   ar
   181   525   526    2
   182   525   519   ar
   183   957   956    1
   184   597   596    1
   185   584   585    1
   186   936   941    1
   187   891   889    1
   188   891   892    1
   189   480   479   ar
   190   480   481   ar
   191  1067  1069    1
   192  1067  1065    1
   193   919   929    1
   194   479   478   ar
   195   550   551   ar
   196   550   547   ar
   197  1070  1069    1
   198  1070  1077   ar
   199   390   389    1
   200   889   890    1
   201   895   897    1
   202   457   458   ar
   203  1053  1051   ar
   204  1053  1054   ar
   205  1076  1077   ar
   206   551   552   ar
   207   388   387    1
   208   908   888    2
   209   437   438   ar
   210   437   436   ar
   211   956   958    1
   212  1051  1050   ar
   213   565   566   ar
   214   565   572   ar
   215   443   442   ar
   216   484   481   ar
   217   535   536    1
   218   535   537    1
   219   566   568   ar
   220   438   439   ar
   221   557   555    1
   222   536   541    1
   223  1069  1064    1
   224   463   461   ar
   225   939   940    1
   226   939   941    1
   227   520   519   ar
   228   520   521    1
   229  1055  1054    2
   230   481   482   ar
   231   999   977    2
   232   422   421   ar
   233   422   416   ar
   234   478   477   ar
   235   549   548    2
   236   929   928   ar
   237   929   923   ar
   238  1065  1066    1
   239  1065  1063    1
   240   928   927   ar
   241   941   952    1
   242  1054  1056   ar
   243   596   598    1
   244   573   555    2
   245   890   888    1
   246   892   897    1
   247   547   548   ar
   248   547   546   ar
   249   951   952   ar
   250   951   950   ar
   251   537   538    1
   252   537   539    1
   253   585   592   ar
   254   585   586   ar
   255   389   387    1
   256   389   391    1
   257   552   541    1
   258   552   546   ar
   259  1066  1080    1
   260   897   907    1
   261   592   591   ar
   262   436   435   ar
   263   387   385    1
   264   998   977    1
   265   458   459    2
   266   458   460   ar
   267   572   571   ar
   268  1101  1080    2
   269   888   874    1
   270   888   909    1
   271  1035  1034    1
   272   415   416   ar
   273   415   413   ar
   274  1048  1047    1
   275   548   542   ar
   276   538   555    1
   277   555   574    1
   278  1096  1095    1
   279  1050  1049    1
   280  1050  1057   ar
   281   442   439   ar
   282   421   420   ar
   283   952   946   ar
   284   598   599    1
   285   598   600    1
   286   541   539    1
   287   439   440   ar
   288  1100  1080    1
   289   958   960    1
   290   958   959    1
   291   416   417   ar
   292   977   961    1
   293   977   979    1
   294   568   569   ar
   295   482   477   ar
   296   482   483    1
   297   546   545   ar
   298  1015  1014    1
   299  1064  1063    1
   300   950   947   ar
   301  1080  1082    1
   302  1049  1047    1
   303  1049  1044    1
   304   599   604    1
   305   587   586    2
   306   385   383    1
   307   385   386    1
   308   461   460   ar
   309   461   462    2
   310   961   960    1
   311   874   873    1
   312   927   924   ar
   313   586   588   ar
   314  1063  1061    1
   315   923   922   ar
   316   923   924   ar
   317   876   875    1
   318   973   972   ar
   319   973   974   ar
   320   960   962    1
   321  1061  1062    1
   322   539   540    1
   323   972   969   ar
   324  1056  1057   ar
   325   394   393    2
   326   414   413    1
   327   391   386    1
   328   391   392    1
   329   591   589   ar
   330   959   964    1
   331   413   412   ar
   332  1047  1045    1
   333   907   901   ar
   334   907   906   ar
   335   435   440   ar
   336   922   921   ar
   337   571   569   ar
   338  1034  1033   ar
   339  1034  1036   ar
   340   542   543   ar
   341   601   600    1
   342   601   615    1
   343  1095  1094   ar
   344  1095  1090   ar
   345   383   384    1
   346   440   441    1
   347  1033  1031   ar
   348  1097  1094   ar
   349  1097  1098   ar
   350   420   417   ar
   351   924   925   ar
   352  1046  1045    1
   353  1046  1060    1
   354   569   570    2
   355   417   418   ar
   356   900   901   ar
   357   900   899   ar
   358   946   947   ar
   359   946   945   ar
   360   600   602    1
   361   545   543   ar
   362  1079  1060    2
   363  1044  1043    1
   364   603   602    1
   365   633   615    2
   366   947   948   ar
   367  1014  1016   ar
   368  1014  1013   ar
   369   604   602    1
   370   604   605    1
   371   979   978    1
   372   875   873    1
   373   875   877    1
   374   901   902   ar
   375   906   905   ar
   376  1094  1093   ar
   377   393   392   ar
   378   393   395   ar
   379   588   589   ar
   380   873   871    1
   381   543   544    1
   382   974   964    1
   383   974   968   ar
   384  1090  1091   ar
   385   392   399   ar
   386  1082  1081    1
   387   995   996   ar
   388   995   992   ar
   389  1062  1060    1
   390  1045  1043    1
   391   589   590    2
   392   964   962    1
   393   384   382    1
   394   962   963    1
   395   412   418   ar
   396   969   968   ar
   397   969   970   ar
   398  1036  1037   ar
   399  1060  1078    1
   400  1098  1099   ar
   401   994   993    2
   402  1016  1017   ar
   403   615   634    1
   404   615   617    1
   405  1013  1011   ar
   406   921   920   ar
   407   945   943   ar
   408   899   898   ar
   409   871   869    1
   410   871   872    1
   411  1031  1032    2
   412  1031  1030   ar
   413   400   382    2
   414   612   605   ar
   415   612   611   ar
   416   418   419    2
   417   971   970    1
   418  1043  1041    1
   419   996   997   ar
   420  1118  1117    1
   421  1258  1257    1
   422  1081  1083    1
   423   605   606   ar
   424   925   920   ar
   425   925   926    1
   426  1140  1139    1
   427   978   980    1
   428   395   396   ar
   429  1254  1253    1
   430   968   967   ar
   431   948   949    2
   432   948   942   ar
   433   902   905   ar
   434   902   903   ar
   435  1093  1099   ar
   436  1093  1092   ar
   437   970   965   ar
   438   869   870    1
   439   880   879    2
   440   399   398   ar
   441  1019  1000    2
   442  1161  1160    1
   443   877   872    1
   444   877   878    1
   445  1091  1092   ar
   446   992   993   ar
   447   992   991   ar
   448   993   987   ar
   449   616   617    1
   450   616   618    1
   451    32    31    1
   452   382   401    1
   453   382   366    1
   454  1119  1116   ar
   455  1119  1120   ar
   456    48    50    1
   457    48    49    1
   458   371   370   ar
   459   371   372   ar
   460  1099  1089    1
   461   866   848    2
   462  1277  1276    1
   463   611   609   ar
   464  1037  1030   ar
   465    65    47    2
   466  1123  1102    2
   467  1259  1257   ar
   468  1259  1260   ar
   469  1030  1029    1
   470   943   942   ar
   471   943   944    1
   472   898   903   ar
   473   370   375   ar
   474  1017  1010   ar
   475  1257  1256   ar
   476    50    51    1
   477    50    52    1
   478  1238  1237    2
   479  1011  1010   ar
   480  1011  1012    2
   481    30    47    1
   482    30    29    1
   483  1117  1116   ar
   484  1117  1112   ar
   485   903   904    1
   486   606   607    2
   487   606   608   ar
   488  1041  1042    1
   489   372   373   ar
   490  1255  1250    1
   491  1255  1253    1
   492  1255  1266    1
   493   997   991   ar
   494   997   986    1
   495   396   398   ar
   496   396   397    2
   497  1084  1083    1
   498  1084  1089    1
   499    85    67    2
   500  1083  1085    1
   501   879   878   ar
   502   879   881   ar
   503    53    52    1
   504    53    67    1
   505  1139  1134   ar
   506  1139  1138   ar
   507   870   868    1
   508  1116  1115   ar
   509   368   367    1
   510  1120  1121   ar
   511   981   980    1
   512   981   986    1
   513  1491  1490    1
   514  1250  1249    1
   515  1253  1251    1
   516   980   982    1
   517   878   885   ar
   518  1292  1294    1
   519  1292  1293    1
   520   967   966   ar
   521   366   365    1
   522  1160  1162   ar
   523  1160  1159   ar
   524    27    29    1
   525    27    25    1
   526    27    28    1
   527   991   990   ar
   528  1309  1291    2
   529  1010  1009    1
   530    51    56    1
   531  1042  1040    1
   532   965   966   ar
   533    55    54    1
   534  1234  1233    1
   535    47    49    1
   536    47    66    1
   537   618   619    1
   538   618   620    1
   539  1249  1251    1
   540  1249  1247    1
   541  1085  1087    1
   542  1085  1086    1
   543   982   983    1
   544   982   984    1
   545  1134  1135   ar
   546   367   365    1
   547   367   369    1
   548  1294  1295    1
   549  1294  1296    1
   550  1089  1087    1
   551   987   988   ar
   552  1275  1274    1
   553  1275  1291    1
   554  1000   983    1
   555  1000  1002    1
   556  1000  1018    1
   557   619   624    1
   558    31    29    1
   559    31    33    1
   560   609   608   ar
   561   609   610    2
   562  1162  1163   ar
   563  1260  1266   ar
   564  1260  1261   ar
   565    52    54    1
   566   375   376    1
   567   375   374   ar
   568  1256  1262   ar
   569  1039  1020    2
   570  1489  1488    1
   571    25    26    1
   572   848   832    1
   573   848   867    1
   574   848   850    1
   575  1276  1278    1
   576  1276  1274    1
   577  1027  1029    1
   578  1027  1025    1
   579  1027  1028    1
   580  1237  1239   ar
   581  1237  1236   ar
   582   986   984    1
   583  1266  1265   ar
   584  1029  1024    1
   585  1272  1273    1
   586  1272  1274    1
   587  1272  1270    1
   588  1329  1311    2
   589    28    33    1
   590    67    86    1
   591    67    69    1
   592  1112  1113   ar
   593  1252  1251    1
   594  1252  1269    1
   595   881   882   ar
   596  1297  1296    1
   597  1297  1311    1
   598  1141  1138   ar
   599  1141  1142   ar
   600   373   374   ar
   601   373   379   ar
   602   365   363    1
   603  1102  1086    1
   604  1102  1122    1
   605  1102  1104    1
   606  1138  1137   ar
   607   832   831    1
   608  1159  1157   ar
   609  1295  1300    1
   610  1271  1270    1
   611  1271  1269    1
   612  1181  1180    2
   613  1273  1278    1
   614    33    44    1
   615  1218  1217    2
   616  1299  1298    1
   617  1278  1288    1
   618   886   868    2
   619   885   884   ar
   620  1087  1088    1
   621   243   244   ar
   622   243   248   ar
   623  1002  1001    1
   624  1235  1233    1
   625  1235  1236    1
   626  1235  1230    1
   627  1291  1293    1
   628  1291  1310    1
   629    54    56    1
   630  1239  1240   ar
   631   846   826    2
   632    56    57    1
   633  1247  1248    1
   634   984   985    1
   635  1121  1115   ar
   636  1121  1111    1
   637   868   887    1
   638   868   854    1
   639  1115  1114   ar
   640  1490  1488    1
   641  1490  1492    1
   642   374   377   ar
   643   849   850    1
   644   849   851    1
   645   244   245   ar
   646  1233  1231    1
   647   632   631   ar
   648   632   625   ar
   649  1296  1298    1
   650  1025  1026    1
   651  1025  1023    1
   652   990   988   ar
   653  1289  1269    2
   654   988   989    1
   655    68    69    1
   656    68    70    1
   657   827   829    1
   658   827   828    1
   659  1236  1243   ar
   660   369   379    1
   661   369   364    1
   662   631   629   ar
   663  1261  1262   ar
   664  1261  1264   ar
   665  1135  1136   ar
   666  1219  1217   ar
   667  1219  1220   ar
   668   620   621    1
   669   620   622    1
   670  1311  1330    1
   671  1311  1313    1
   672  1009  1007    1
   673  1009  1004    1
   674  1269  1290    1
   675  1488  1486    1
   676  1163  1156   ar
   677   379   378   ar
   678  1262  1263    2
   679  1022  1020    1
   680  1022  1021    1
   681  1104  1103    1
   682  1024  1023    1
   683  1040  1026    1
   684  1040  1059    2
   685  1040  1058    1
   686  1230  1229    1
   687   882   884   ar
   688   882   883    1
   689   624   625    1
   690   624   622    1
   691     9     8    1
   692  1217  1216   ar
   693   249   248    1
   694  1300  1298    1
   695  1300  1301    1
   696   621   635    1
   697   829   831    1
   698   829   830    1
   699  1265  1264   ar
   700  1007  1005    1
   701  1007  1008    1
   702  1201  1200    1
   703  1486  1487    1
   704  1486  1484    1
   705  1020  1006    1
   706  1020  1038    1
   707  1113  1114   ar
   708    45    24    2
   709  1005  1003    1
   710  1005  1006    1
   711  1142  1143   ar
   712    26    24    1
   713   248   247   ar
   714  1180  1179   ar
   715  1180  1182   ar
   716  1281  1282   ar
   717  1281  1280   ar
   718  1157  1156   ar
   719  1157  1158    2
   720   831   833    1
   721   625   626   ar
   722  1110  1109    1
   723  1004  1003    1
   724  1137  1136   ar
   725  1137  1143   ar
   726  1221  1220    2
   727  1492  1487    1
   728  1492  1493    1
   729   363   364    1
   730   363   361    1
   731  1109  1111    1
   732  1109  1107    1
   733   854   853    1
   734   834   833    1
   735  1199  1200   ar
   736  1199  1197   ar
   737  1312  1313    1
   738  1312  1314    1
   739  1288  1282   ar
   740  1288  1287   ar
   741  1495  1494    2
   742  1023  1021    1
   743  1240  1241    2
   744  1240  1242   ar
   745   245   246   ar
   746    44    38   ar
   747    44    43   ar
   748   377   378   ar
   749  1001  1003    1
   750  1229  1231    1
   751  1229  1227    1
   752  1111  1106    1
   753    37    38   ar
   754    37    35   ar
   755  1248  1246    1
   756   657   635    2
   757  1179  1177   ar
   758   826   828    1
   759   826   812    1
   760   826   847    1
   761   851   853    1
   762   851   852    1
   763  1156  1155    1
   764    57    64   ar
   765    57    58   ar
   766  1220  1222   ar
   767   622   623    1
   768    13    12    1
   769   812   811    1
   770  1231  1232    1
   771    70    71    1
   772    70    72    1
   773   348   349   ar
   774   348   353   ar
   775    64    63   ar
   776   656   635    1
   777   629   630    1
   778   629   628   ar
   779   814   813    1
   780  1282  1283   ar
   781  1200  1202   ar
   782  1198  1197    2
   783   635   637    1
   784    24     7    1
   785    24    46    1
   786  1484  1485    1
   787  1280  1279   ar
   788  1232  1246    1
   789     7     6    1
   790  1243  1242   ar
   791   349   350   ar
   792  1143  1133    1
   793    36    35    1
   794  1106  1105    1
   795   853   855    1
   796  1182  1183   ar
   797    38    39   ar
   798   833   835    1
   799     8     6    1
   800     8    10    1
   801  1103  1105    1
   802  1216  1215    1
   803  1216  1223   ar
   804  1214  1213    1
   805   830   835    1
   806  1197  1196   ar
   807  1301  1308   ar
   808  1301  1302   ar
   809   361   362    1
   810   626   628   ar
   811   626   627    2
   812    71    76    1
   813   247   246   ar
   814   247   250   ar
   815    35    34   ar
   816    59    58    2
   817   246   252   ar
   818   354   353    1
   819  1215  1213    1
   820  1215  1210    1
   821    43    42   ar
   822  1287  1286   ar
   823  1494  1493   ar
   824  1494  1496   ar
   825  1493  1500   ar
   826  1107  1105    1
   827  1107  1108    1
   828  1308  1307   ar
   829  1314  1315    1
   830  1314  1316    1
   831   105    87    2
   832  1246  1267    2
   833  1246  1268    1
   834    73    72    1
   835    73    87    1
   836    58    60   ar
   837    14    12   ar
   838    14    15   ar
   839   353   352   ar
   840   106    87    1
   841   852   857    1
   842  1213  1211    1
   843  1177  1178    2
   844  1177  1176   ar
   845    12    11   ar
   846  1227  1228    1
   847     6     4    1
   848  1222  1223   ar
   849  1150  1155    1
   850  1150  1149    1
   851  1155  1153    1
   852    72    74    1
   853   811   813    1
   854   811   809    1
   855  1303  1302    2
   856   835   845    1
   857   350   351   ar
   858   813   815    1
   859    63    61   ar
   860  1315  1320    1
   861    87    89    1
   862    10     5    1
   863    10    21    1
   864   809   807    1
   865   809   810    1
   866  1283  1286   ar
   867  1283  1284   ar
   868  1202  1203   ar
   869  1145  1124    2
   870  1279  1284   ar
   871  1485  1483    1
   872  1302  1304   ar
   873  1183  1176   ar
   874  1471  1470    1
   875   637   636    1
   876   362   360    1
   877  1133  1128    1
   878  1133  1131    1
   879     4     5    1
   880     4     2    1
   881    39    42   ar
   882    39    40   ar
   883  1148  1147    1
   884  1148  1146    1
   885   855   856    1
   886   855   857    1
   887   250   251   ar
   888  1196  1203   ar
   889  1196  1195    1
   890  1147  1149    1
   891  1210  1209    1
   892   807   808    1
   893  1176  1175    1
   894  1496  1497   ar
   895  1108  1124    1
   896    76    74    1
   897    76    77    1
   898  1317  1316    1
   899  1317  1331    1
   900   252   251   ar
   901   252   242    1
   902  1500  1499   ar
   903   352   351   ar
   904   352   355   ar
   905  1128  1127    1
   906   274   255    2
   907    34    40   ar
   908  1307  1305   ar
   909  1228  1226    1
   910   865   864   ar
   911   865   858   ar
   912  1316  1318    1
   913    84    77   ar
   914    84    83   ar
   915   351   357   ar
   916    60    61   ar
   917   240   241    1
   918   240   242    1
   919   240   238    1
   920    15    21   ar
   921    15    16   ar
   922  1284  1285    1
   923   857   858    1
   924   636   638    1
   925   273   255    1
   926    11    17   ar
   927  1149  1151    1
   928    75    74    1
   929  1501  1483    2
   930    61    62    1
   931  1153  1151    1
   932  1153  1154    1
   933  1351  1331    2
   934  1125  1127    1
   935  1125  1126    1
   936    21    20   ar
   937   815   810    1
   938   815   816    1
   939  1131  1129    1
   940  1131  1132    1
   941  1475  1474    2
   942  1129  1127    1
   943  1129  1130    1
   944  1211  1209    1
   945  1211  1212    1
   946   845   844   ar
   947   845   839   ar
   948  1124  1126    1
   949  1124  1144    1
   950   242   237    1
   951  1151  1152    1
   952   653   654   ar
   953   653   650   ar
   954  1470  1468    1
   955  1470  1472    1
   956   864   862   ar
   957    40    41    2
   958  1328  1327   ar
   959  1328  1321   ar
   960   654   655   ar
   961  1352  1331    1
   962  1304  1305   ar
   963  1165  1146    2
   964  1195  1193    1
   965  1195  1190    1
   966    77    78   ar
   967  1483  1469    1
   968  1483  1502    1
   969  1320  1318    1
   970  1320  1321    1
   971    83    81   ar
   972   255   239    1
   973   255   257    1
   974  1331  1333    1
   975   844   843   ar
   976   332   331    2
   977   858   859   ar
   978  1469  1468    1
   979  1209  1207    1
   980    89    88    1
   981     2     3    1
   982  1305  1306    1
   983   381   360    2
   984  1212  1226    1
   985   808   806    1
   986   346   345    1
   987   345   347    1
   988   345   343    1
   989  1146  1130    1
   990  1146  1164    1
   991   355   356   ar
   992   360   380    1
   993   360   344    1
   994  1497  1499   ar
   995  1497  1498    1
   996  1319  1318    1
   997  1175  1170    1
   998  1175  1173    1
   999   818   817    2
  1000  1327  1325   ar
  1001   238   239    1
  1002   238   236    1
  1003   639   638    1
  1004   639   644    1
  1005   357   347    1
  1006   357   356   ar
  1007  1452  1451    1
  1008  1193  1194    1
  1009  1193  1191    1
  1010   325   331   ar
  1011   325   326   ar
  1012  1321  1322   ar
  1013    16    17   ar
  1014    16    19   ar
  1015   824   806    2
  1016  1185  1166    2
  1017  1226  1244    2
  1018  1226  1245    1
  1019   638   640    1
  1020    17    18    2
  1021  1468  1466    1
  1022    88    90    1
  1023   331   330   ar
  1024  1472  1473    1
  1025  1472  1467    1
  1026  1474  1473   ar
  1027  1474  1476   ar
  1028   839   838   ar
  1029   839   840   ar
  1030   816   817   ar
  1031   816   823   ar
  1032   327   326    1
  1033    20    19   ar
  1034   347   342    1
  1035  1190  1189    1
  1036  1170  1169    1
  1037   652   651    2
  1038   650   651   ar
  1039   650   649   ar
  1040   655   644    1
  1041   655   649   ar
  1042   344   343    1
  1043   794   793    1
  1044   838   837   ar
  1045  1152  1166    1
  1046   343   341    1
  1047   237   236    1
  1048   843   840   ar
  1049   817   819   ar
  1050    78    79    2
  1051    78    80   ar
  1052   806   792    1
  1053   806   825    1
  1054   862   863    1
  1055   862   861   ar
  1056   257   256    1
  1057     3     1    1
  1058   326   328   ar
  1059  1173  1174    1
  1060  1173  1171    1
  1061    81    80   ar
  1062    81    82    2
  1063   859   861   ar
  1064   859   860    2
  1065   798   797    2
  1066  1207  1208    1
  1067  1333  1332    1
  1068  1473  1480   ar
  1069  1466  1467    1
  1070  1466  1464    1
  1071  1476  1477   ar
  1072   792   791    1
  1073   644   642    1
  1074   651   645   ar
  1075  1168  1166    1
  1076  1168  1167    1
  1077  1208  1206    1
  1078  1166  1184    1
  1079  1451  1450   ar
  1080  1451  1453   ar
  1081   236   234    1
  1082   640   641    1
  1083   640   642    1
  1084  1325  1326    2
  1085  1325  1324   ar
  1086   793   791    1
  1087   793   795    1
  1088  1450  1456   ar
  1089   823   822   ar
  1090   840   841   ar
  1091   649   648   ar
  1092  1322  1324   ar
  1093  1322  1323    2
  1094  1191  1189    1
  1095  1191  1192    1
  1096  1332  1334    1
  1097   680   658    2
  1098   330   333   ar
  1099   330   329   ar
  1100    90    91    1
  1101    90    92    1
  1102    91    96    1
  1103   294   275    2
  1104   310   309    1
  1105  1171  1169    1
  1106  1171  1172    1
  1107   256   258    1
  1108  1189  1187    1
  1109  1169  1167    1
  1110   104   103   ar
  1111   104    97   ar
  1112   103   101   ar
  1113   342   341    1
  1114   837   836   ar
  1115   791   789    1
  1116   641   658    1
  1117   235   234    1
  1118   235   233    1
  1119   819   820   ar
  1120   797   799   ar
  1121   797   796   ar
  1122   290   289    1
  1123   253   233    2
  1124   328   329   ar
  1125   271   272   ar
  1126   271   269   ar
  1127   341   339    1
  1128   642   643    1
  1129  1453  1454   ar
  1130     1    22    1
  1131     1    23    1
  1132   333   334   ar
  1133   799   800   ar
  1134   675   674    2
  1135  1188  1187    1
  1136  1188  1186    1
  1137   329   335   ar
  1138   270   269    2
  1139   645   646   ar
  1140  1192  1206    1
  1141  1464  1465    1
  1142  1480  1479   ar
  1143  1477  1478    2
  1144  1477  1479   ar
  1145  1225  1206    2
  1146  1205  1186    2
  1147  1457  1456    2
  1148  1206  1224    1
  1149  1456  1455   ar
  1150   822   820   ar
  1151   658   679    1
  1152   658   660    1
  1153   648   646   ar
  1154   795   796    1
  1155   795   790    1
  1156   841   836   ar
  1157   841   842    1
  1158   272   265   ar
  1159   676   677   ar
  1160   676   673   ar
  1161   340   339    1
  1162   340   338    1
  1163   269   268   ar
  1164   126   107    2
  1165   820   821    1
  1166   233   254    1
  1167   233   217    1
  1168    92    93    1
  1169    92    94    1
  1170   291   289   ar
  1171   291   292   ar
  1172   293   275    1
  1173   796   803   ar
  1174   309   311   ar
  1175   309   308   ar
  1176   275   261    1
  1177   275   277    1
  1178  1334  1335    1
  1179  1334  1336    1
  1180    96    97    1
  1181    96    94    1
  1182    97    98   ar
  1183  1172  1186    1
  1184  1349  1348   ar
  1185  1349  1350   ar
  1186   646   647    1
  1187   289   288   ar
  1188   101   102    2
  1189   101   100   ar
  1190  1348  1345   ar
  1191  1186  1204    1
  1192   789   790    1
  1193   789   787    1
  1194   258   260    1
  1195   258   259    1
  1196  1335  1340    1
  1197   359   338    2
  1198    93   107    1
  1199   674   673   ar
  1200   674   668   ar
  1201  1454  1455   ar
  1202  1454  1460   ar
  1203  1465  1463    1
  1204   677   678   ar
  1205   334   335   ar
  1206  1372  1353    2
  1207   311   312   ar
  1208   800   801    1
  1209   800   802   ar
  1210   260   261    1
  1211   260   262    1
  1212   335   324    1
  1213   673   672   ar
  1214  1455  1458   ar
  1215   308   306   ar
  1216  1434  1433    1
  1217   259   264    1
  1218  1428  1433   ar
  1219  1428  1429   ar
  1220   107   125    1
  1221   107   109    1
  1222  1448  1447    1
  1223   660   659    1
  1224   338   358    1
  1225   338   321    1
  1226    94    95    1
  1227  1336  1337    1
  1228  1336  1338    1
  1229   697   696    1
  1230   265   264    1
  1231   265   266   ar
  1232   292   285   ar
  1233  1447  1449    1
  1234  1447  1445    1
  1235   803   802   ar
  1236   314   295    2
  1237   217   216    1
  1238   277   276    1
  1239   268   266   ar
  1240   720   719    2
  1241   100    98   ar
  1242  1337  1353    1
  1243   322   324    1
  1244   322   320    1
  1245   322   323    1
  1246    98    99    2
  1247   288   286   ar
  1248   787   788    1
  1249  1350  1340    1
  1250  1350  1344   ar
  1251  1433  1432   ar
  1252   713   719   ar
  1253   713   714   ar
  1254  1353  1371    1
  1255  1353  1355    1
  1256  1429  1430   ar
  1257   668   669   ar
  1258  1345  1346   ar
  1259  1345  1344   ar
  1260   715   714    1
  1261  1340  1338    1
  1262  1368  1367    2
  1263   185   184    1
  1264  1460  1449    1
  1265  1460  1459   ar
  1266  1347  1346    1
  1267   264   262    1
  1268   179   184   ar
  1269   179   180   ar
  1270   678   672   ar
  1271   678   667    1
  1272   324   319    1
  1273   203   202    2
  1274  1412  1411    1
  1275   312   305   ar
  1276   672   671   ar
  1277   122   121    1
  1278   337   315    2
  1279   266   267    2
  1280   320   321    1
  1281   320   318    1
  1282   262   263    1
  1283  1449  1444    1
  1284   123   121   ar
  1285   123   124   ar
  1286  1458  1459   ar
  1287   306   305   ar
  1288   306   307    2
  1289   719   718   ar
  1290   659   661    1
  1291  1463  1446    1
  1292  1463  1481    2
  1293  1463  1482    1
  1294  1369  1367   ar
  1295  1369  1370   ar
  1296  1446  1445    1
  1297   662   667    1
  1298   662   661    1
  1299   222   223   ar
  1300   222   221   ar
  1301  1346  1341   ar
  1302   714   716   ar
  1303   696   691   ar
  1304   696   695   ar
  1305  1344  1343   ar
  1306  1338  1339    1
  1307  1445  1443    1
  1308   216   218    1
  1309   216   214    1
  1310   184   183   ar
  1311   285   286   ar
  1312   285   284    1
  1313   109   108    1
  1314   180   181   ar
  1315   286   287    2
  1316  1367  1366   ar
  1317   305   304    1
  1318   276   278    1
  1319   121   120   ar
  1320   204   202   ar
  1321   204   205   ar
  1322   223   224   ar
  1323  1390  1389    2
  1324   669   671   ar
  1325   669   670    1
  1326   788   786    1
  1327   295   297    1
  1328   295   313    1
  1329   295   281    1
  1330   691   692   ar
  1331   317   315    1
  1332   317   316    1
  1333   202   201   ar
  1334   667   665    1
  1335   124   117   ar
  1336   805   786    2
  1337  1430  1431   ar
  1338  1432  1431   ar
  1339  1432  1435   ar
  1340   319   318    1
  1341   219   218    1
  1342   221   226   ar
  1343   218   220    1
  1344   698   695   ar
  1345   698   699   ar
  1346   661   663    1
  1347   143   142    1
  1348  1355  1354    1
  1349  1411  1406   ar
  1350  1411  1410   ar
  1351   315   336    1
  1352   315   301    1
  1353  1406  1407   ar
  1354   695   694   ar
  1355  1370  1363   ar
  1356   297   296    1
  1357   280   278    1
  1358   280   281    1
  1359   280   282    1
  1360   741   740    1
  1361   318   316    1
  1362   108   110    1
  1363  1444  1443    1
  1364   718   717   ar
  1365   718   721   ar
  1366   206   205    2
  1367  1431  1437   ar
  1368   279   278    1
  1369   279   284    1
  1370   212   214    1
  1371   212   213    1
  1372   214   215    1
  1373  1341  1342   ar
  1374   716   717   ar
  1375  1443  1441    1
  1376   284   282    1
  1377  1343  1342   ar
  1378   663   665    1
  1379   663   664    1
  1380   181   182   ar
  1381   786   772    1
  1382   786   804    1
  1383   183   182   ar
  1384   183   186   ar
  1385   205   207   ar
  1386   164   163    2
  1387  1435  1436   ar
  1388  1366  1364   ar
  1389   199   198    1
  1390   300   302    1
  1391   300   301    1
  1392   300   298    1
  1393   282   283    1
  1394  1389  1388   ar
  1395  1389  1383   ar
  1396   739   740   ar
  1397   739   737   ar
  1398   232   211    2
  1399   120   118   ar
  1400   224   230   ar
  1401   224   225   ar
  1402   302   304    1
  1403   302   303    1
  1404   304   299    1
  1405   692   693   ar
  1406   702   681    2
  1407   665   666    1
  1408   201   200    1
  1409   201   208   ar
  1410   699   700   ar
  1411   717   723   ar
  1412   117   118   ar
  1413   117   116    1
  1414  1354  1356    1
  1415   740   742   ar
  1416   778   777    2
  1417   200   198    1
  1418   200   195    1
  1419   111   110    1
  1420   111   116    1
  1421  1410  1413   ar
  1422  1410  1409   ar
  1423   226   225   ar
  1424   226   227    1
  1425   772   771    1
  1426   182   188   ar
  1427  1391  1388   ar
  1428  1391  1392   ar
  1429   774   773    1
  1430   721   722   ar
  1431   142   141   ar
  1432   142   137   ar
  1433  1407  1408   ar
  1434   694   693   ar
  1435   694   700   ar
  1436   220   230    1
  1437   220   215    1
  1438  1413  1414   ar
  1439  1363  1364   ar
  1440  1363  1362    1
  1441  1395  1373    2
  1442   144   141   ar
  1443   144   145   ar
  1444   299   298    1
  1445   197   211    1
  1446   197   196    1
  1447   296   298    1
  1448   110   112    1
  1449   186   187   ar
  1450   148   127    2
  1451  1388  1387   ar
  1452   230   229   ar
  1453   738   737    2
  1454   118   119    2
  1455   213   211    1
  1456  1383  1384   ar
  1457   225   228   ar
  1458   664   681    1
  1459  1437  1436   ar
  1460  1437  1427    1
  1461   198   196    1
  1462  1442  1441    1
  1463  1442  1440    1
  1464  1364  1365    2
  1465   737   736   ar
  1466   163   162   ar
  1467   163   165   ar
  1468   211   231    1
  1469   141   140   ar
  1470   700   690    1
  1471  1357  1356    1
  1472  1357  1362    1
  1473   207   208   ar
  1474   116   114    1
  1475   137   138   ar
  1476   195   194    1
  1477   777   779   ar
  1478   777   776   ar
  1479   112   114    1
  1480   112   113    1
  1481   681   683    1
  1482   681   701    1
  1483  1356  1358    1
  1484   162   160   ar
  1485  1392  1393   ar
  1486  1409  1408   ar
  1487  1409  1415   ar
  1488   742   743   ar
  1489   723   722   ar
  1490   723   712    1
  1491   773   775    1
  1492   773   771    1
  1493   775   776    1
  1494   775   770    1
  1495   196   194    1
  1496   779   780   ar
  1497   771   769    1
  1498   188   187   ar
  1499   188   178    1
  1500  1362  1360    1
  1501   145   146   ar
  1502  1425  1427    1
  1503  1425  1423    1
  1504  1425  1426    1
  1505  1462  1440    2
  1506  1358  1359    1
  1507  1358  1360    1
  1508  1414  1415   ar
  1509  1427  1422    1
  1510   776   783   ar
  1511   229   228   ar
  1512   683   682    1
  1513  1373  1359    1
  1514  1373  1394    1
  1515  1373  1375    1
  1516   114   115    1
  1517   113   127    1
  1518   165   166   ar
  1519   127   147    1
  1520   127   129    1
  1521   194   192    1
  1522  1387  1393   ar
  1523  1387  1386   ar
  1524  1440  1424    1
  1525  1440  1461    1
  1526   736   743   ar
  1527   736   735    1
  1528  1384  1385    1
  1529  1384  1386   ar
  1530  1423  1424    1
  1531  1423  1421    1
  1532   690   685    1
  1533   690   688    1
  1534   685   684    1
  1535   140   146   ar
  1536   140   139   ar
  1537  1415  1405    1
  1538  1360  1361    1
  1539   138   139   ar
  1540   769   770    1
  1541   769   767    1
  1542   178   176    1
  1543   178   173    1
  1544   176   177    1
  1545   176   174    1
  1546  1393  1382    1
  1547   712   710    1
  1548   712   707    1
  1549   780   781    2
  1550   780   782   ar
  1551   160   161    2
  1552   160   159   ar
  1553  1375  1374    1
  1554   146   136    1
  1555  1417  1396    2
  1556   783   782   ar
  1557   682   684    1
  1558   129   128    1
  1559  1422  1421    1
  1560   735   730    1
  1561   735   733    1
  1562   166   159   ar
  1563   710   711    1
  1564   710   708    1
  1565   684   686    1
  1566   192   193    1
  1567   707   706    1
  1568  1421  1419    1
  1569   193   191    1
  1570   688   686    1
  1571   688   689    1
  1572   730   729    1
  1573   159   158    1
  1574   686   687    1
  1575  1439  1418    2
  1576   173   172    1
  1577   174   175    1
  1578   174   172    1
  1579  1405  1403    1
  1580  1405  1400    1
  1581   767   768    1
  1582  1382  1377    1
  1583  1382  1380    1
  1584  1419  1420    1
  1585  1377  1376    1
  1586   131   136    1
  1587   131   130    1
  1588  1374  1376    1
  1589   136   134    1
  1590  1403  1401    1
  1591  1403  1404    1
  1592  1378  1380    1
  1593  1378  1376    1
  1594  1378  1379    1
  1595   725   703    2
  1596  1396  1398    1
  1597  1396  1379    1
  1598  1396  1416    1
  1599   734   733    1
  1600   768   766    1
  1601   175   191    1
  1602   128   130    1
  1603  1398  1397    1
  1604   733   731    1
  1605  1380  1381    1
  1606   708   706    1
  1607   708   709    1
  1608  1400  1399    1
  1609   168   149    2
  1610   172   170    1
  1611  1401  1399    1
  1612  1401  1402    1
  1613   705   703    1
  1614   705   704    1
  1615   706   704    1
  1616   191   210    2
  1617   191   209    1
  1618  1420  1418    1
  1619   687   703    1
  1620   729   731    1
  1621   729   727    1
  1622   130   132    1
  1623   132   134    1
  1624   132   133    1
  1625  1418  1402    1
  1626  1418  1438    1
  1627   158   156    1
  1628   158   153    1
  1629   134   135    1
  1630   703   724    1
  1631  1399  1397    1
  1632   731   732    1
  1633   732   746    1
  1634   156   154    1
  1635   156   157    1
  1636   171   170    1
  1637   171   169    1
  1638   709   726    1
  1639   727   728    1
  1640   728   726    1
  1641   766   784    2
  1642   766   785    1
  1643   766   752    1
  1644   190   169    2
  1645   153   152    1
  1646   149   151    1
  1647   149   133    1
  1648   149   167    1
  1649   151   150    1
  1650   154   152    1
  1651   154   155    1
  1652   745   726    2
  1653   726   744    1
  1654   764   746    2
  1655   169   155    1
  1656   169   189    1
  1657   751   752    1
  1658   751   749    1
  1659   751   753    1
  1660   746   748    1
  1661   746   765    1
  1662   152   150    1
  1663   747   749    1
  1664   747   748    1
  1665   749   750    1
  1666   754   753    1
  1667   753   755    1
  1668   750   755    1
  1669   755   756    1
  1670   763   756   ar
  1671   763   762   ar
  1672   756   757   ar
  1673   762   760   ar
  1674   757   758    2
  1675   757   759   ar
  1676   760   759   ar
  1677   760   761    2
