ligand
 OpenBabel11021811513D
libRbt.so/2013.1/901 2013/11/27
 45 51  0  0  0  0  0  0  0  0999 V2000
   97.3087   17.0760   97.1708 C   0  0  0  0  0  0  0  0  0  0  0  0
   95.2396   14.5329   94.4925 C   0  0  0  0  0  0  0  0  0  0  0  0
  102.4002   14.9809   98.6168 N   0  0  0  0  0  0  0  0  0  0  0  0
   97.5063   17.1910   98.4440 N   0  0  0  0  0  0  0  0  0  0  0  0
  100.4560   15.6638   97.5167 N   0  0  0  0  0  0  0  0  0  0  0  0
  100.6485   15.9589   99.8170 N   0  0  0  0  0  0  0  0  0  0  0  0
   98.8946   17.0171  101.0734 O   0  0  0  0  0  0  0  0  0  0  0  0
   92.4378   15.0150   95.7154 O   0  5  0  0  0  0  0  0  0  0  0  0
   98.4001   10.7251   93.6800 O   0  5  0  0  0  0  0  0  0  0  0  0
   99.6217   14.7320   93.9847 O   0  0  0  0  0  0  0  0  0  0  0  0
   93.4010   14.6443   97.6872 O   0  5  0  0  0  0  0  0  0  0  0  0
   99.4070   11.8259   95.3445 O   0  5  0  0  0  0  0  0  0  0  0  0
   94.7885   15.1074   95.6531 O   0  0  0  0  0  0  0  0  0  0  0  0
   97.0342   16.3388   94.5854 O   0  0  0  0  0  0  0  0  0  0  0  0
   97.6730   12.9767   93.8720 O   0  0  0  0  0  0  0  0  0  0  0  0
  101.0937   15.5558   98.6529 C   0  0  0  0  0  0  0  0  0  0  0  0
   99.4570   16.5364   99.8923 C   0  0  0  0  0  0  0  0  0  0  0  0
   98.6980   16.6707   98.7078 C   0  0  0  0  0  0  0  0  0  0  0  0
   99.2285   16.2336   97.5191 C   0  0  0  0  0  0  0  0  0  0  0  0
   98.7457   14.9589   95.0244 C   0  0  2  0  0  0  0  0  0  0  0  0
   96.6332   14.9085   94.1853 C   0  0  1  0  0  0  0  0  0  0  0  0
   97.4158   14.0935   94.7151 C   0  0  1  0  0  0  0  0  0  0  0  0
   98.3885   16.2138   95.2252 C   0  0  2  0  0  0  0  0  0  0  0  0
   98.3019   16.5025   96.5985 N   0  0  0  0  0  0  0  0  0  0  0  0
   93.5580   14.3975   96.2967 P   0  0  2  0  0  0  0  0  0  0  0  0
   98.1581   11.7245   94.6298 P   0  0  1  0  0  0  0  0  0  0  0  0
   95.6516   11.0845   94.9904 C   0  0  0  0  0  0  0  0  0  0  0  0
   96.9869   11.1814   95.5115 O   0  0  0  0  0  0  0  0  0  0  0  0
   94.5983   10.9456   96.0071 C   0  0  1  0  0  0  0  0  0  0  0  0
   95.1094    9.8953   97.1109 O   0  0  0  0  0  0  0  0  0  0  0  0
   94.4451   12.0319   96.6204 C   0  0  1  0  0  0  0  0  0  0  0  0
   93.4923   12.9009   95.9657 O   0  0  0  0  0  0  0  0  0  0  0  0
   94.0450   11.6086   98.0256 C   0  0  1  0  0  0  0  0  0  0  0  0
   92.8034   11.3906   98.0782 O   0  0  0  0  0  0  0  0  0  0  0  0
   94.7857   10.2903   98.2506 C   0  0  2  0  0  0  0  0  0  0  0  0
   95.8664   10.9690  103.2312 N   0  0  0  0  0  0  0  0  0  0  0  0
   94.6627   11.1380  102.6234 C   0  0  0  0  0  0  0  0  0  0  0  0
   94.5975   10.9005  101.3189 N   0  0  0  0  0  0  0  0  0  0  0  0
   95.6574   10.5664  100.5521 C   0  0  0  0  0  0  0  0  0  0  0  0
   96.9239   10.3816  101.1471 C   0  0  0  0  0  0  0  0  0  0  0  0
   96.9786   10.6189  102.5577 C   0  0  0  0  0  0  0  0  0  0  0  0
   98.2233   10.4784  103.2397 N   0  0  0  0  0  0  0  0  0  0  0  0
   97.7253   10.0297  100.2038 N   0  0  0  0  0  0  0  0  0  0  0  0
   97.0475    9.9598   99.0713 C   0  0  0  0  0  0  0  0  0  0  0  0
   95.8195   10.2941   99.2492 N   0  0  0  0  0  0  0  0  0  0  0  0
  1 24  1  0  0  0  0
  1  4  2  0  0  0  0
  2 13  1  0  0  0  0
  2 21  1  0  0  0  0
  3 16  1  0  0  0  0
  4 18  1  0  0  0  0
  5 19  2  0  0  0  0
  5 16  1  0  0  0  0
  6 16  2  0  0  0  0
  6 17  1  0  0  0  0
  7 17  1  0  0  0  0
 11 25  2  0  0  0  0
 12 26  2  0  0  0  0
 13 25  1  0  0  0  0
 14 23  1  0  0  0  0
 15 26  1  0  0  0  0
 17 18  2  0  0  0  0
 18 19  1  0  0  0  0
 19 24  1  0  0  0  0
 20 10  1  6  0  0  0
 20 22  1  0  0  0  0
 20 23  1  0  0  0  0
 21 14  1  1  0  0  0
 21 22  1  0  0  0  0
 22 15  1  6  0  0  0
 23 24  1  1  0  0  0
 25  8  1  6  0  0  0
 25 32  1  0  0  0  0
 26  9  1  6  0  0  0
 26 28  1  0  0  0  0
 27 28  1  0  0  0  0
 29 27  1  6  0  0  0
 29 30  1  0  0  0  0
 29 31  1  0  0  0  0
 30 35  1  0  0  0  0
 31 33  1  0  0  0  0
 31 32  1  6  0  0  0
 33 34  1  6  0  0  0
 33 35  1  0  0  0  0
 35 45  1  1  0  0  0
 36 41  2  0  0  0  0
 36 37  1  0  0  0  0
 37 38  2  0  0  0  0
 38 39  1  0  0  0  0
 39 40  2  0  0  0  0
 39 45  1  0  0  0  0
 40 41  1  0  0  0  0
 40 43  1  0  0  0  0
 41 42  1  0  0  0  0
 43 44  2  0  0  0  0
 44 45  1  0  0  0  0
M  CHG  4   8  -1   9  -1  11  -1  12  -1
M  END
>  <CHROM.1>
-14.67002395,-173.78965892,96.79847411,13.28170909,97.39967806,-1.00199230
0.69352915,1.97894071

>  <Name>
ligand

>  <RI>
0

>  <Rbt.Current_Directory>
/home/itssahil/PROJECTS/Mol_Feturizer/New_Systems/rnas/4YAZ

>  <Rbt.Executable>
rbdock ($Id: //depot/dev/client3/rdock/2013.1/src/exe/rbdock.cxx#4 $)

>  <Rbt.Library>
libRbt.so (2013.1, Build901 2013/11/27)

>  <Rbt.Parameter_File>
/export/apps/rDock/src/rDock_2013.1_src/data/scripts/dock_solv.prm

>  <Rbt.Receptor>
prm/pocket_docking_2.prm

>  <SCORE>
-45.2964

>  <SCORE.INTER>
-45.3331

>  <SCORE.INTER.CONST>
1

>  <SCORE.INTER.POLAR>
0

>  <SCORE.INTER.ROT>
2

>  <SCORE.INTER.SOLV>
42.4183

>  <SCORE.INTER.VDW>
-49.2949

>  <SCORE.INTER.norm>
-1.0074

>  <SCORE.INTRA>
0.0315309

>  <SCORE.INTRA.DIHEDRAL>
0.0333857

>  <SCORE.INTRA.DIHEDRAL.0>
2.39103

>  <SCORE.INTRA.POLAR>
0

>  <SCORE.INTRA.POLAR.0>
0

>  <SCORE.INTRA.REPUL>
0

>  <SCORE.INTRA.REPUL.0>
0

>  <SCORE.INTRA.SOLV>
-0.00140686

>  <SCORE.INTRA.SOLV.lig_0>
-163.975

>  <SCORE.INTRA.VDW>
0.0155414

>  <SCORE.INTRA.VDW.0>
-1.49176

>  <SCORE.INTRA.norm>
0.000700686

>  <SCORE.RESTR>
0.00517105

>  <SCORE.RESTR.CAVITY>
0.00517105

>  <SCORE.RESTR.norm>
0.000114912

>  <SCORE.SYSTEM>
0

>  <SCORE.SYSTEM.CONST>
0

>  <SCORE.SYSTEM.DIHEDRAL>
0

>  <SCORE.SYSTEM.SOLV>
0

>  <SCORE.SYSTEM.norm>
0

>  <SCORE.heavy>
45

>  <SCORE.norm>
-1.00659

>  <RMSD>
0.309

$$$$
ligand
 OpenBabel11021811513D
libRbt.so/2013.1/901 2013/11/27
 45 51  0  0  0  0  0  0  0  0999 V2000
   97.2993   17.0619   97.2096 C   0  0  0  0  0  0  0  0  0  0  0  0
   95.0802   14.5104   94.6765 C   0  0  0  0  0  0  0  0  0  0  0  0
  102.4660   15.0007   98.4180 N   0  0  0  0  0  0  0  0  0  0  0  0
   97.5635   17.1978   98.4686 N   0  0  0  0  0  0  0  0  0  0  0  0
  100.4645   15.6619   97.4113 N   0  0  0  0  0  0  0  0  0  0  0  0
  100.7773   15.9944   99.6933 N   0  0  0  0  0  0  0  0  0  0  0  0
   99.0891   17.0692  101.0235 O   0  0  0  0  0  0  0  0  0  0  0  0
   92.3480   15.0394   96.0303 O   0  5  0  0  0  0  0  0  0  0  0  0
   98.1605   10.6591   93.7672 O   0  5  0  0  0  0  0  0  0  0  0  0
   99.4330   14.6576   93.9467 O   0  0  0  0  0  0  0  0  0  0  0  0
   93.4056   14.6894   97.9570 O   0  5  0  0  0  0  0  0  0  0  0  0
   99.2599   11.7752   95.3615 O   0  5  0  0  0  0  0  0  0  0  0  0
   94.6934   15.1072   95.8489 O   0  0  0  0  0  0  0  0  0  0  0  0
   96.8939   16.2994   94.6507 O   0  0  0  0  0  0  0  0  0  0  0  0
   97.4649   12.9206   93.9596 O   0  0  0  0  0  0  0  0  0  0  0  0
  101.1616   15.5735   98.5139 C   0  0  0  0  0  0  0  0  0  0  0  0
   99.5898   16.5707   99.8222 C   0  0  0  0  0  0  0  0  0  0  0  0
   98.7690   16.6843   98.6774 C   0  0  0  0  0  0  0  0  0  0  0  0
   99.2373   16.2291   97.4695 C   0  0  0  0  0  0  0  0  0  0  0  0
   98.6124   14.9093   95.0252 C   0  0  2  0  0  0  0  0  0  0  0  0
   96.4601   14.8672   94.2939 C   0  0  1  0  0  0  0  0  0  0  0  0
   97.2607   14.0527   94.7967 C   0  0  1  0  0  0  0  0  0  0  0  0
   98.2774   16.1707   95.2238 C   0  0  2  0  0  0  0  0  0  0  0  0
   98.2626   16.4813   96.5950 N   0  0  0  0  0  0  0  0  0  0  0  0
   93.4902   14.4197   96.5645 P   0  0  2  0  0  0  0  0  0  0  0  0
   97.9758   11.6753   94.7119 P   0  0  1  0  0  0  0  0  0  0  0  0
   95.4848   11.0661   95.2077 C   0  0  0  0  0  0  0  0  0  0  0  0
   96.8454   11.1576   95.6596 O   0  0  0  0  0  0  0  0  0  0  0  0
   94.4826   10.9535   96.2779 C   0  0  1  0  0  0  0  0  0  0  0  0
   95.0388    9.9151   97.3713 O   0  0  0  0  0  0  0  0  0  0  0  0
   94.3705   12.0506   96.8808 C   0  0  1  0  0  0  0  0  0  0  0  0
   93.3941   12.9189   96.2610 O   0  0  0  0  0  0  0  0  0  0  0  0
   94.0376   11.6529   98.3109 C   0  0  1  0  0  0  0  0  0  0  0  0
   92.7983   11.4483   98.4290 O   0  0  0  0  0  0  0  0  0  0  0  0
   94.7764   10.3309   98.5194 C   0  0  2  0  0  0  0  0  0  0  0  0
   96.1185   11.1128  103.4205 N   0  0  0  0  0  0  0  0  0  0  0  0
   94.8890   11.2897  102.8694 C   0  0  0  0  0  0  0  0  0  0  0  0
   94.7539   11.0210  101.5763 N   0  0  0  0  0  0  0  0  0  0  0  0
   95.7677   10.6475  100.7666 C   0  0  0  0  0  0  0  0  0  0  0  0
   97.0589   10.4531  101.3022 C   0  0  0  0  0  0  0  0  0  0  0  0
   97.1889   10.7245  102.7018 C   0  0  0  0  0  0  0  0  0  0  0  0
   98.4635   10.5770  103.3243 N   0  0  0  0  0  0  0  0  0  0  0  0
   97.8054   10.0624  100.3297 N   0  0  0  0  0  0  0  0  0  0  0  0
   97.0703    9.9773   99.2345 C   0  0  0  0  0  0  0  0  0  0  0  0
   95.8591   10.3397   99.4647 N   0  0  0  0  0  0  0  0  0  0  0  0
  1 24  1  0  0  0  0
  1  4  2  0  0  0  0
  2 13  1  0  0  0  0
  2 21  1  0  0  0  0
  3 16  1  0  0  0  0
  4 18  1  0  0  0  0
  5 19  2  0  0  0  0
  5 16  1  0  0  0  0
  6 16  2  0  0  0  0
  6 17  1  0  0  0  0
  7 17  1  0  0  0  0
 11 25  2  0  0  0  0
 12 26  2  0  0  0  0
 13 25  1  0  0  0  0
 14 23  1  0  0  0  0
 15 26  1  0  0  0  0
 17 18  2  0  0  0  0
 18 19  1  0  0  0  0
 19 24  1  0  0  0  0
 20 10  1  6  0  0  0
 20 22  1  0  0  0  0
 20 23  1  0  0  0  0
 21 14  1  1  0  0  0
 21 22  1  0  0  0  0
 22 15  1  6  0  0  0
 23 24  1  1  0  0  0
 25  8  1  6  0  0  0
 25 32  1  0  0  0  0
 26  9  1  6  0  0  0
 26 28  1  0  0  0  0
 27 28  1  0  0  0  0
 29 27  1  6  0  0  0
 29 30  1  0  0  0  0
 29 31  1  0  0  0  0
 30 35  1  0  0  0  0
 31 33  1  0  0  0  0
 31 32  1  6  0  0  0
 33 34  1  6  0  0  0
 33 35  1  0  0  0  0
 35 45  1  1  0  0  0
 36 41  2  0  0  0  0
 36 37  1  0  0  0  0
 37 38  2  0  0  0  0
 38 39  1  0  0  0  0
 39 40  2  0  0  0  0
 39 45  1  0  0  0  0
 40 41  1  0  0  0  0
 40 43  1  0  0  0  0
 41 42  1  0  0  0  0
 43 44  2  0  0  0  0
 44 45  1  0  0  0  0
M  CHG  4   8  -1   9  -1  11  -1  12  -1
M  END
>  <CHROM.1>
-13.95985689,-174.55587763,96.77357426,13.29483657,97.52005812,-1.04244119
0.66622649,1.99397249

>  <Name>
ligand

>  <RI>
0

>  <Rbt.Current_Directory>
/home/itssahil/PROJECTS/Mol_Feturizer/New_Systems/rnas/4YAZ

>  <Rbt.Executable>
rbdock ($Id: //depot/dev/client3/rdock/2013.1/src/exe/rbdock.cxx#4 $)

>  <Rbt.Library>
libRbt.so (2013.1, Build901 2013/11/27)

>  <Rbt.Parameter_File>
/export/apps/rDock/src/rDock_2013.1_src/data/scripts/dock_solv.prm

>  <Rbt.Receptor>
prm/pocket_docking_2.prm

>  <SCORE>
-45.4824

>  <SCORE.INTER>
-45.5068

>  <SCORE.INTER.CONST>
1

>  <SCORE.INTER.POLAR>
0

>  <SCORE.INTER.ROT>
2

>  <SCORE.INTER.SOLV>
44.8544

>  <SCORE.INTER.VDW>
-50.2227

>  <SCORE.INTER.norm>
-1.01126

>  <SCORE.INTRA>
0.0171903

>  <SCORE.INTRA.DIHEDRAL>
0.0281446

>  <SCORE.INTRA.DIHEDRAL.0>
2.39103

>  <SCORE.INTRA.POLAR>
0

>  <SCORE.INTRA.POLAR.0>
0

>  <SCORE.INTRA.REPUL>
0

>  <SCORE.INTRA.REPUL.0>
0

>  <SCORE.INTRA.SOLV>
-0.00130268

>  <SCORE.INTRA.SOLV.lig_0>
-163.975

>  <SCORE.INTRA.VDW>
0.00376929

>  <SCORE.INTRA.VDW.0>
-1.49176

>  <SCORE.INTRA.norm>
0.000382006

>  <SCORE.RESTR>
0.00720947

>  <SCORE.RESTR.CAVITY>
0.00720947

>  <SCORE.RESTR.norm>
0.00016021

>  <SCORE.SYSTEM>
0

>  <SCORE.SYSTEM.CONST>
0

>  <SCORE.SYSTEM.DIHEDRAL>
0

>  <SCORE.SYSTEM.SOLV>
0

>  <SCORE.SYSTEM.norm>
0

>  <SCORE.heavy>
45

>  <SCORE.norm>
-1.01072

>  <RMSD>
0.479

$$$$
ligand
 OpenBabel11021811513D
libRbt.so/2013.1/901 2013/11/27
 45 51  0  0  0  0  0  0  0  0999 V2000
   97.4646   17.0310   97.3158 C   0  0  0  0  0  0  0  0  0  0  0  0
   95.1622   14.5383   94.7684 C   0  0  0  0  0  0  0  0  0  0  0  0
  102.5224   14.7033   98.5003 N   0  0  0  0  0  0  0  0  0  0  0  0
   97.7339   17.1381   98.5765 N   0  0  0  0  0  0  0  0  0  0  0  0
  100.5569   15.4746   97.5012 N   0  0  0  0  0  0  0  0  0  0  0  0
  100.8834   15.7629   99.7873 N   0  0  0  0  0  0  0  0  0  0  0  0
   99.2488   16.9028  101.1301 O   0  0  0  0  0  0  0  0  0  0  0  0
   92.4497   15.1135   96.1428 O   0  5  0  0  0  0  0  0  0  0  0  0
   98.1481   10.6285   93.7959 O   0  5  0  0  0  0  0  0  0  0  0  0
   99.5136   14.5942   94.0178 O   0  0  0  0  0  0  0  0  0  0  0  0
   93.5084   14.7153   98.0596 O   0  5  0  0  0  0  0  0  0  0  0  0
   99.2808   11.6991   95.3981 O   0  5  0  0  0  0  0  0  0  0  0  0
   94.7951   15.1294   95.9501 O   0  0  0  0  0  0  0  0  0  0  0  0
   97.0166   16.2853   94.7551 O   0  0  0  0  0  0  0  0  0  0  0  0
   97.5059   12.9029   94.0197 O   0  0  0  0  0  0  0  0  0  0  0  0
  101.2477   15.3383   98.6028 C   0  0  0  0  0  0  0  0  0  0  0  0
   99.7255   16.3952   99.9229 C   0  0  0  0  0  0  0  0  0  0  0  0
   98.9125   16.5633   98.7794 C   0  0  0  0  0  0  0  0  0  0  0  0
   99.3590   16.1007   97.5660 C   0  0  0  0  0  0  0  0  0  0  0  0
   98.7044   14.8513   95.1036 C   0  0  2  0  0  0  0  0  0  0  0  0
   96.5481   14.8679   94.3831 C   0  0  1  0  0  0  0  0  0  0  0  0
   97.3321   14.0290   94.8717 C   0  0  1  0  0  0  0  0  0  0  0  0
   98.3996   16.1175   95.3194 C   0  0  2  0  0  0  0  0  0  0  0  0
   98.3988   16.4114   96.6943 N   0  0  0  0  0  0  0  0  0  0  0  0
   93.5799   14.4610   96.6634 P   0  0  2  0  0  0  0  0  0  0  0  0
   97.9916   11.6369   94.7540 P   0  0  1  0  0  0  0  0  0  0  0  0
   95.4896   11.0793   95.2552 C   0  0  0  0  0  0  0  0  0  0  0  0
   96.8542   11.1338   95.7012 O   0  0  0  0  0  0  0  0  0  0  0  0
   94.4904   10.9766   96.3292 C   0  0  1  0  0  0  0  0  0  0  0  0
   95.0278    9.9123   97.4068 O   0  0  0  0  0  0  0  0  0  0  0  0
   94.4067   12.0685   96.9461 C   0  0  1  0  0  0  0  0  0  0  0  0
   93.4476   12.9667   96.3420 O   0  0  0  0  0  0  0  0  0  0  0  0
   94.0717   11.6609   98.3729 C   0  0  1  0  0  0  0  0  0  0  0  0
   92.8285   11.4835   98.4949 O   0  0  0  0  0  0  0  0  0  0  0  0
   94.7807   10.3197   98.5613 C   0  0  2  0  0  0  0  0  0  0  0  0
   96.1812   11.0904  103.4479 N   0  0  0  0  0  0  0  0  0  0  0  0
   94.9572   11.3138  102.9013 C   0  0  0  0  0  0  0  0  0  0  0  0
   94.8039   11.0389  101.6116 N   0  0  0  0  0  0  0  0  0  0  0  0
   95.7967   10.6154  100.8003 C   0  0  0  0  0  0  0  0  0  0  0  0
   97.0815   10.3719  101.3313 C   0  0  0  0  0  0  0  0  0  0  0  0
   97.2304   10.6507  102.7275 C   0  0  0  0  0  0  0  0  0  0  0  0
   98.5011   10.4556  103.3449 N   0  0  0  0  0  0  0  0  0  0  0  0
   97.8056    9.9410  100.3588 N   0  0  0  0  0  0  0  0  0  0  0  0
   97.0616    9.8767   99.2682 C   0  0  0  0  0  0  0  0  0  0  0  0
   95.8680   10.2918   99.5010 N   0  0  0  0  0  0  0  0  0  0  0  0
  1 24  1  0  0  0  0
  1  4  2  0  0  0  0
  2 13  1  0  0  0  0
  2 21  1  0  0  0  0
  3 16  1  0  0  0  0
  4 18  1  0  0  0  0
  5 19  2  0  0  0  0
  5 16  1  0  0  0  0
  6 16  2  0  0  0  0
  6 17  1  0  0  0  0
  7 17  1  0  0  0  0
 11 25  2  0  0  0  0
 12 26  2  0  0  0  0
 13 25  1  0  0  0  0
 14 23  1  0  0  0  0
 15 26  1  0  0  0  0
 17 18  2  0  0  0  0
 18 19  1  0  0  0  0
 19 24  1  0  0  0  0
 20 10  1  6  0  0  0
 20 22  1  0  0  0  0
 20 23  1  0  0  0  0
 21 14  1  1  0  0  0
 21 22  1  0  0  0  0
 22 15  1  6  0  0  0
 23 24  1  1  0  0  0
 25  8  1  6  0  0  0
 25 32  1  0  0  0  0
 26  9  1  6  0  0  0
 26 28  1  0  0  0  0
 27 28  1  0  0  0  0
 29 27  1  6  0  0  0
 29 30  1  0  0  0  0
 29 31  1  0  0  0  0
 30 35  1  0  0  0  0
 31 33  1  0  0  0  0
 31 32  1  6  0  0  0
 33 34  1  6  0  0  0
 33 35  1  0  0  0  0
 35 45  1  1  0  0  0
 36 41  2  0  0  0  0
 36 37  1  0  0  0  0
 37 38  2  0  0  0  0
 38 39  1  0  0  0  0
 39 40  2  0  0  0  0
 39 45  1  0  0  0  0
 40 41  1  0  0  0  0
 40 43  1  0  0  0  0
 41 42  1  0  0  0  0
 43 44  2  0  0  0  0
 44 45  1  0  0  0  0
M  CHG  4   8  -1   9  -1  11  -1  12  -1
M  END
>  <CHROM.1>
-15.49125029,-176.21119267,96.83848310,13.24793245,97.58840772,-1.05614852
0.64159848,1.99929028

>  <Name>
ligand

>  <RI>
0

>  <Rbt.Current_Directory>
/home/itssahil/PROJECTS/Mol_Feturizer/New_Systems/rnas/4YAZ

>  <Rbt.Executable>
rbdock ($Id: //depot/dev/client3/rdock/2013.1/src/exe/rbdock.cxx#4 $)

>  <Rbt.Library>
libRbt.so (2013.1, Build901 2013/11/27)

>  <Rbt.Parameter_File>
/export/apps/rDock/src/rDock_2013.1_src/data/scripts/dock_solv.prm

>  <Rbt.Receptor>
prm/pocket_docking_8.prm

>  <SCORE>
-45.6062

>  <SCORE.INTER>
-45.6617

>  <SCORE.INTER.CONST>
1

>  <SCORE.INTER.POLAR>
0

>  <SCORE.INTER.ROT>
2

>  <SCORE.INTER.SOLV>
46.2321

>  <SCORE.INTER.VDW>
-50.7852

>  <SCORE.INTER.norm>
-1.0147

>  <SCORE.INTRA>
0.055473

>  <SCORE.INTRA.DIHEDRAL>
0.0160712

>  <SCORE.INTRA.DIHEDRAL.0>
2.39103

>  <SCORE.INTRA.POLAR>
0

>  <SCORE.INTRA.POLAR.0>
0

>  <SCORE.INTRA.REPUL>
0

>  <SCORE.INTRA.REPUL.0>
0

>  <SCORE.INTRA.SOLV>
0.00303218

>  <SCORE.INTRA.SOLV.lig_0>
-163.975

>  <SCORE.INTRA.VDW>
0.0459213

>  <SCORE.INTRA.VDW.0>
-1.49176

>  <SCORE.INTRA.norm>
0.00123273

>  <SCORE.RESTR>
0

>  <SCORE.RESTR.CAVITY>
0

>  <SCORE.RESTR.norm>
0

>  <SCORE.SYSTEM>
0

>  <SCORE.SYSTEM.CONST>
0

>  <SCORE.SYSTEM.DIHEDRAL>
0

>  <SCORE.SYSTEM.SOLV>
0

>  <SCORE.SYSTEM.norm>
0

>  <SCORE.heavy>
45

>  <SCORE.norm>
-1.01347

>  <RMSD>
0.490

$$$$
ligand
 OpenBabel11021811513D
libRbt.so/2013.1/901 2013/11/27
 45 51  0  0  0  0  0  0  0  0999 V2000
   97.4439   17.0004   97.3682 C   0  0  0  0  0  0  0  0  0  0  0  0
   95.1580   14.5261   94.8007 C   0  0  0  0  0  0  0  0  0  0  0  0
  102.5484   14.7533   98.5072 N   0  0  0  0  0  0  0  0  0  0  0  0
   97.7172   17.1004   98.6286 N   0  0  0  0  0  0  0  0  0  0  0  0
  100.5645   15.4983   97.5245 N   0  0  0  0  0  0  0  0  0  0  0  0
  100.8968   15.7710   99.8117 N   0  0  0  0  0  0  0  0  0  0  0  0
   99.2484   16.8685  101.1728 O   0  0  0  0  0  0  0  0  0  0  0  0
   92.4449   15.0692   96.1869 O   0  5  0  0  0  0  0  0  0  0  0  0
   98.1688   10.6467   93.7842 O   0  5  0  0  0  0  0  0  0  0  0  0
   99.5070   14.6196   94.0403 O   0  0  0  0  0  0  0  0  0  0  0  0
   93.5110   14.6604   98.0973 O   0  5  0  0  0  0  0  0  0  0  0  0
   99.2979   11.7101   95.3937 O   0  5  0  0  0  0  0  0  0  0  0  0
   94.7896   15.1034   95.9888 O   0  0  0  0  0  0  0  0  0  0  0  0
   97.0001   16.2861   94.7995 O   0  0  0  0  0  0  0  0  0  0  0  0
   97.5113   12.9143   94.0310 O   0  0  0  0  0  0  0  0  0  0  0  0
  101.2630   15.3642   98.6216 C   0  0  0  0  0  0  0  0  0  0  0  0
   99.7284   16.3810   99.9587 C   0  0  0  0  0  0  0  0  0  0  0  0
   98.9069   16.5451   98.8205 C   0  0  0  0  0  0  0  0  0  0  0  0
   99.3559   16.1021   97.6008 C   0  0  0  0  0  0  0  0  0  0  0  0
   98.6987   14.8608   95.1304 C   0  0  2  0  0  0  0  0  0  0  0  0
   96.5406   14.8691   94.4152 C   0  0  1  0  0  0  0  0  0  0  0  0
   97.3317   14.0310   94.8940 C   0  0  1  0  0  0  0  0  0  0  0  0
   98.3856   16.1227   95.3589 C   0  0  2  0  0  0  0  0  0  0  0  0
   98.3860   16.4036   96.7365 N   0  0  0  0  0  0  0  0  0  0  0  0
   93.5809   14.4198   96.6986 P   0  0  2  0  0  0  0  0  0  0  0  0
   98.0076   11.6449   94.7522 P   0  0  1  0  0  0  0  0  0  0  0  0
   95.5108   11.0651   95.2540 C   0  0  0  0  0  0  0  0  0  0  0  0
   96.8760   11.1249   95.6972 O   0  0  0  0  0  0  0  0  0  0  0  0
   94.5149   10.9452   96.3293 C   0  0  1  0  0  0  0  0  0  0  0  0
   95.0624    9.8745   97.3956 O   0  0  0  0  0  0  0  0  0  0  0  0
   94.4251   12.0306   96.9568 C   0  0  1  0  0  0  0  0  0  0  0  0
   93.4583   12.9277   96.3634 O   0  0  0  0  0  0  0  0  0  0  0  0
   94.0964   11.6072   98.3804 C   0  0  1  0  0  0  0  0  0  0  0  0
   92.8549   11.4199   98.5037 O   0  0  0  0  0  0  0  0  0  0  0  0
   94.8153   10.2693   98.5544 C   0  0  2  0  0  0  0  0  0  0  0  0
   96.2296   11.0381  103.4374 N   0  0  0  0  0  0  0  0  0  0  0  0
   95.0044   11.2627  102.8940 C   0  0  0  0  0  0  0  0  0  0  0  0
   94.8474   10.9881  101.6047 N   0  0  0  0  0  0  0  0  0  0  0  0
   95.8375   10.5637  100.7908 C   0  0  0  0  0  0  0  0  0  0  0  0
   97.1235   10.3188  101.3183 C   0  0  0  0  0  0  0  0  0  0  0  0
   97.2764   10.5973  102.7141 C   0  0  0  0  0  0  0  0  0  0  0  0
   98.5485   10.4009  103.3282 N   0  0  0  0  0  0  0  0  0  0  0  0
   97.8445    9.8873  100.3438 N   0  0  0  0  0  0  0  0  0  0  0  0
   97.0976    9.8239   99.2552 C   0  0  0  0  0  0  0  0  0  0  0  0
   95.9050   10.2402   99.4913 N   0  0  0  0  0  0  0  0  0  0  0  0
  1 24  1  0  0  0  0
  1  4  2  0  0  0  0
  2 13  1  0  0  0  0
  2 21  1  0  0  0  0
  3 16  1  0  0  0  0
  4 18  1  0  0  0  0
  5 19  2  0  0  0  0
  5 16  1  0  0  0  0
  6 16  2  0  0  0  0
  6 17  1  0  0  0  0
  7 17  1  0  0  0  0
 11 25  2  0  0  0  0
 12 26  2  0  0  0  0
 13 25  1  0  0  0  0
 14 23  1  0  0  0  0
 15 26  1  0  0  0  0
 17 18  2  0  0  0  0
 18 19  1  0  0  0  0
 19 24  1  0  0  0  0
 20 10  1  6  0  0  0
 20 22  1  0  0  0  0
 20 23  1  0  0  0  0
 21 14  1  1  0  0  0
 21 22  1  0  0  0  0
 22 15  1  6  0  0  0
 23 24  1  1  0  0  0
 25  8  1  6  0  0  0
 25 32  1  0  0  0  0
 26  9  1  6  0  0  0
 26 28  1  0  0  0  0
 27 28  1  0  0  0  0
 29 27  1  6  0  0  0
 29 30  1  0  0  0  0
 29 31  1  0  0  0  0
 30 35  1  0  0  0  0
 31 33  1  0  0  0  0
 31 32  1  6  0  0  0
 33 34  1  6  0  0  0
 33 35  1  0  0  0  0
 35 45  1  1  0  0  0
 36 41  2  0  0  0  0
 36 37  1  0  0  0  0
 37 38  2  0  0  0  0
 38 39  1  0  0  0  0
 39 40  2  0  0  0  0
 39 45  1  0  0  0  0
 40 41  1  0  0  0  0
 40 43  1  0  0  0  0
 41 42  1  0  0  0  0
 43 44  2  0  0  0  0
 44 45  1  0  0  0  0
M  CHG  4   8  -1   9  -1  11  -1  12  -1
M  END
>  <CHROM.1>
-14.84649411,-176.91832585,96.85220679,13.22671717,97.60322994,-1.04990763
0.64858291,2.00984084

>  <Name>
ligand

>  <RI>
0

>  <Rbt.Current_Directory>
/home/itssahil/PROJECTS/Mol_Feturizer/New_Systems/rnas/4YAZ

>  <Rbt.Executable>
rbdock ($Id: //depot/dev/client3/rdock/2013.1/src/exe/rbdock.cxx#4 $)

>  <Rbt.Library>
libRbt.so (2013.1, Build901 2013/11/27)

>  <Rbt.Parameter_File>
/export/apps/rDock/src/rDock_2013.1_src/data/scripts/dock_solv.prm

>  <Rbt.Receptor>
prm/pocket_docking_4.prm

>  <SCORE>
-45.7449

>  <SCORE.INTER>
-45.7871

>  <SCORE.INTER.CONST>
1

>  <SCORE.INTER.POLAR>
0

>  <SCORE.INTER.ROT>
2

>  <SCORE.INTER.SOLV>
46.6907

>  <SCORE.INTER.VDW>
-51.0216

>  <SCORE.INTER.norm>
-1.01749

>  <SCORE.INTRA>
0.0421504

>  <SCORE.INTRA.DIHEDRAL>
0.0111473

>  <SCORE.INTRA.DIHEDRAL.0>
2.39103

>  <SCORE.INTRA.POLAR>
0

>  <SCORE.INTRA.POLAR.0>
0

>  <SCORE.INTRA.REPUL>
0

>  <SCORE.INTRA.REPUL.0>
0

>  <SCORE.INTRA.SOLV>
0.00310831

>  <SCORE.INTRA.SOLV.lig_0>
-163.975

>  <SCORE.INTRA.VDW>
0.0350226

>  <SCORE.INTRA.VDW.0>
-1.49176

>  <SCORE.INTRA.norm>
0.000936675

>  <SCORE.RESTR>
0

>  <SCORE.RESTR.CAVITY>
0

>  <SCORE.RESTR.norm>
0

>  <SCORE.SYSTEM>
0

>  <SCORE.SYSTEM.CONST>
0

>  <SCORE.SYSTEM.DIHEDRAL>
0

>  <SCORE.SYSTEM.SOLV>
0

>  <SCORE.SYSTEM.norm>
0

>  <SCORE.heavy>
45

>  <SCORE.norm>
-1.01655

>  <RMSD>
0.495

$$$$
ligand
 OpenBabel11021811513D
libRbt.so/2013.1/901 2013/11/27
 45 51  0  0  0  0  0  0  0  0999 V2000
   97.4544   17.0268   97.3372 C   0  0  0  0  0  0  0  0  0  0  0  0
   95.1414   14.5266   94.7893 C   0  0  0  0  0  0  0  0  0  0  0  0
  102.4843   14.6313   98.5054 N   0  0  0  0  0  0  0  0  0  0  0  0
   97.7260   17.1241   98.5982 N   0  0  0  0  0  0  0  0  0  0  0  0
  100.5275   15.4317   97.5120 N   0  0  0  0  0  0  0  0  0  0  0  0
  100.8595   15.7043   99.7992 N   0  0  0  0  0  0  0  0  0  0  0  0
   99.2401   16.8572  101.1493 O   0  0  0  0  0  0  0  0  0  0  0  0
   92.4328   15.0870   96.1775 O   0  5  0  0  0  0  0  0  0  0  0  0
   98.1343   10.6303   93.7848 O   0  5  0  0  0  0  0  0  0  0  0  0
   99.4895   14.5986   94.0215 O   0  0  0  0  0  0  0  0  0  0  0  0
   93.5004   14.6821   98.0880 O   0  5  0  0  0  0  0  0  0  0  0  0
   99.2705   11.6959   95.3878 O   0  5  0  0  0  0  0  0  0  0  0  0
   94.7774   15.1105   95.9755 O   0  0  0  0  0  0  0  0  0  0  0  0
   96.9908   16.2788   94.7775 O   0  0  0  0  0  0  0  0  0  0  0  0
   97.4867   12.9017   94.0228 O   0  0  0  0  0  0  0  0  0  0  0  0
  101.2176   15.2813   98.6122 C   0  0  0  0  0  0  0  0  0  0  0  0
   99.7096   16.3501   99.9390 C   0  0  0  0  0  0  0  0  0  0  0  0
   98.8976   16.5339   98.7971 C   0  0  0  0  0  0  0  0  0  0  0  0
   99.3374   16.0721   97.5810 C   0  0  0  0  0  0  0  0  0  0  0  0
   98.6840   14.8479   95.1119 C   0  0  2  0  0  0  0  0  0  0  0  0
   96.5248   14.8621   94.4001 C   0  0  1  0  0  0  0  0  0  0  0  0
   97.3131   14.0229   94.8812 C   0  0  1  0  0  0  0  0  0  0  0  0
   98.3765   16.1121   95.3353 C   0  0  2  0  0  0  0  0  0  0  0  0
   98.3804   16.3990   96.7117 N   0  0  0  0  0  0  0  0  0  0  0  0
   93.5670   14.4351   96.6903 P   0  0  2  0  0  0  0  0  0  0  0  0
   97.9789   11.6334   94.7487 P   0  0  1  0  0  0  0  0  0  0  0  0
   95.4805   11.0661   95.2571 C   0  0  0  0  0  0  0  0  0  0  0  0
   96.8467   11.1222   95.6978 O   0  0  0  0  0  0  0  0  0  0  0  0
   94.4859   10.9550   96.3345 C   0  0  1  0  0  0  0  0  0  0  0  0
   95.0307    9.8867   97.4045 O   0  0  0  0  0  0  0  0  0  0  0  0
   94.4016   12.0435   96.9574 C   0  0  1  0  0  0  0  0  0  0  0  0
   93.4376   12.9421   96.3617 O   0  0  0  0  0  0  0  0  0  0  0  0
   94.0736   11.6277   98.3834 C   0  0  1  0  0  0  0  0  0  0  0  0
   92.8314   11.4461   98.5095 O   0  0  0  0  0  0  0  0  0  0  0  0
   94.7871   10.2876   98.5620 C   0  0  2  0  0  0  0  0  0  0  0  0
   96.1462   10.6861  103.5045 N   0  0  0  0  0  0  0  0  0  0  0  0
   94.9048   10.8593  102.9795 C   0  0  0  0  0  0  0  0  0  0  0  0
   94.7676   10.7013  101.6685 N   0  0  0  0  0  0  0  0  0  0  0  0
   95.7876   10.4445  100.8220 C   0  0  0  0  0  0  0  0  0  0  0  0
   97.0913   10.2580  101.3296 C   0  0  0  0  0  0  0  0  0  0  0  0
   97.2243   10.4090  102.7469 C   0  0  0  0  0  0  0  0  0  0  0  0
   98.5104   10.2608  103.3453 N   0  0  0  0  0  0  0  0  0  0  0  0
   97.8433    9.9873  100.3211 N   0  0  0  0  0  0  0  0  0  0  0  0
   97.1011    9.9691   99.2276 C   0  0  0  0  0  0  0  0  0  0  0  0
   95.8782   10.2580   99.4972 N   0  0  0  0  0  0  0  0  0  0  0  0
  1 24  1  0  0  0  0
  1  4  2  0  0  0  0
  2 13  1  0  0  0  0
  2 21  1  0  0  0  0
  3 16  1  0  0  0  0
  4 18  1  0  0  0  0
  5 19  2  0  0  0  0
  5 16  1  0  0  0  0
  6 16  2  0  0  0  0
  6 17  1  0  0  0  0
  7 17  1  0  0  0  0
 11 25  2  0  0  0  0
 12 26  2  0  0  0  0
 13 25  1  0  0  0  0
 14 23  1  0  0  0  0
 15 26  1  0  0  0  0
 17 18  2  0  0  0  0
 18 19  1  0  0  0  0
 19 24  1  0  0  0  0
 20 10  1  6  0  0  0
 20 22  1  0  0  0  0
 20 23  1  0  0  0  0
 21 14  1  1  0  0  0
 21 22  1  0  0  0  0
 22 15  1  6  0  0  0
 23 24  1  1  0  0  0
 25  8  1  6  0  0  0
 25 32  1  0  0  0  0
 26  9  1  6  0  0  0
 26 28  1  0  0  0  0
 27 28  1  0  0  0  0
 29 27  1  6  0  0  0
 29 30  1  0  0  0  0
 29 31  1  0  0  0  0
 30 35  1  0  0  0  0
 31 33  1  0  0  0  0
 31 32  1  6  0  0  0
 33 34  1  6  0  0  0
 33 35  1  0  0  0  0
 35 45  1  1  0  0  0
 36 41  2  0  0  0  0
 36 37  1  0  0  0  0
 37 38  2  0  0  0  0
 38 39  1  0  0  0  0
 39 40  2  0  0  0  0
 39 45  1  0  0  0  0
 40 41  1  0  0  0  0
 40 43  1  0  0  0  0
 41 42  1  0  0  0  0
 43 44  2  0  0  0  0
 44 45  1  0  0  0  0
M  CHG  4   8  -1   9  -1  11  -1  12  -1
M  END
>  <CHROM.1>
-16.37423692,-169.10335742,96.82636329,13.19504435,97.60070146,-1.09177652
0.63578248,2.03172220

>  <Name>
ligand

>  <RI>
0

>  <Rbt.Current_Directory>
/home/itssahil/PROJECTS/Mol_Feturizer/New_Systems/rnas/4YAZ

>  <Rbt.Executable>
rbdock ($Id: //depot/dev/client3/rdock/2013.1/src/exe/rbdock.cxx#4 $)

>  <Rbt.Library>
libRbt.so (2013.1, Build901 2013/11/27)

>  <Rbt.Parameter_File>
/export/apps/rDock/src/rDock_2013.1_src/data/scripts/dock_solv.prm

>  <Rbt.Receptor>
prm/pocket_docking_4.prm

>  <SCORE>
-45.5991

>  <SCORE.INTER>
-45.6595

>  <SCORE.INTER.CONST>
1

>  <SCORE.INTER.POLAR>
0

>  <SCORE.INTER.ROT>
2

>  <SCORE.INTER.SOLV>
46.2746

>  <SCORE.INTER.VDW>
-50.7979

>  <SCORE.INTER.norm>
-1.01466

>  <SCORE.INTRA>
0.0604256

>  <SCORE.INTRA.DIHEDRAL>
0.0647138

>  <SCORE.INTRA.DIHEDRAL.0>
2.39103

>  <SCORE.INTRA.POLAR>
0

>  <SCORE.INTRA.POLAR.0>
0

>  <SCORE.INTRA.REPUL>
0

>  <SCORE.INTRA.REPUL.0>
0

>  <SCORE.INTRA.SOLV>
-0.00613529

>  <SCORE.INTRA.SOLV.lig_0>
-163.975

>  <SCORE.INTRA.VDW>
0.0311363

>  <SCORE.INTRA.VDW.0>
-1.49176

>  <SCORE.INTRA.norm>
0.00134279

>  <SCORE.RESTR>
0

>  <SCORE.RESTR.CAVITY>
0

>  <SCORE.RESTR.norm>
0

>  <SCORE.SYSTEM>
0

>  <SCORE.SYSTEM.CONST>
0

>  <SCORE.SYSTEM.DIHEDRAL>
0

>  <SCORE.SYSTEM.SOLV>
0

>  <SCORE.SYSTEM.norm>
0

>  <SCORE.heavy>
45

>  <SCORE.norm>
-1.01331

>  <RMSD>
0.503

$$$$
ligand
 OpenBabel11021811513D
libRbt.so/2013.1/901 2013/11/27
 45 51  0  0  0  0  0  0  0  0999 V2000
   97.4205   17.0748   97.3554 C   0  0  0  0  0  0  0  0  0  0  0  0
   95.1278   14.5179   94.7962 C   0  0  0  0  0  0  0  0  0  0  0  0
  102.3705   14.5366   98.5630 N   0  0  0  0  0  0  0  0  0  0  0  0
   97.6811   17.1578   98.6197 N   0  0  0  0  0  0  0  0  0  0  0  0
  100.4470   15.3955   97.5535 N   0  0  0  0  0  0  0  0  0  0  0  0
  100.7616   15.6465   99.8457 N   0  0  0  0  0  0  0  0  0  0  0  0
   99.1598   16.8358  101.1851 O   0  0  0  0  0  0  0  0  0  0  0  0
   92.4086   15.0318   96.1816 O   0  5  0  0  0  0  0  0  0  0  0  0
   98.1781   10.6703   93.7765 O   0  5  0  0  0  0  0  0  0  0  0  0
   99.4761   14.6561   94.0383 O   0  0  0  0  0  0  0  0  0  0  0  0
   93.4778   14.6314   98.0921 O   0  5  0  0  0  0  0  0  0  0  0  0
   99.2956   11.7430   95.3879 O   0  5  0  0  0  0  0  0  0  0  0  0
   94.7530   15.0899   95.9848 O   0  0  0  0  0  0  0  0  0  0  0  0
   96.9521   16.2963   94.7982 O   0  0  0  0  0  0  0  0  0  0  0  0
   97.4976   12.9309   94.0257 O   0  0  0  0  0  0  0  0  0  0  0  0
  101.1208   15.2204   98.6602 C   0  0  0  0  0  0  0  0  0  0  0  0
   99.6283   16.3226   99.9770 C   0  0  0  0  0  0  0  0  0  0  0  0
   98.8340   16.5347   98.8276 C   0  0  0  0  0  0  0  0  0  0  0  0
   99.2741   16.0678   97.6136 C   0  0  0  0  0  0  0  0  0  0  0  0
   98.6648   14.8878   95.1283 C   0  0  2  0  0  0  0  0  0  0  0  0
   96.5071   14.8752   94.4119 C   0  0  1  0  0  0  0  0  0  0  0  0
   97.3063   14.0446   94.8901 C   0  0  1  0  0  0  0  0  0  0  0  0
   98.3389   16.1462   95.3582 C   0  0  2  0  0  0  0  0  0  0  0  0
   98.3357   16.4254   96.7362 N   0  0  0  0  0  0  0  0  0  0  0  0
   93.5508   14.3933   96.6932 P   0  0  2  0  0  0  0  0  0  0  0  0
   98.0063   11.6656   94.7456 P   0  0  1  0  0  0  0  0  0  0  0  0
   95.5152   11.0600   95.2454 C   0  0  0  0  0  0  0  0  0  0  0  0
   96.8795   11.1330   95.6893 O   0  0  0  0  0  0  0  0  0  0  0  0
   94.5200   10.9287   96.3200 C   0  0  1  0  0  0  0  0  0  0  0  0
   95.0777    9.8623   97.3852 O   0  0  0  0  0  0  0  0  0  0  0  0
   94.4189   12.0123   96.9487 C   0  0  1  0  0  0  0  0  0  0  0  0
   93.4435   12.9004   96.3560 O   0  0  0  0  0  0  0  0  0  0  0  0
   94.0938   11.5839   98.3716 C   0  0  1  0  0  0  0  0  0  0  0  0
   92.8541   11.3839   98.4940 O   0  0  0  0  0  0  0  0  0  0  0  0
   94.8260   10.2531   98.5444 C   0  0  2  0  0  0  0  0  0  0  0  0
   96.2375   11.0658  103.4210 N   0  0  0  0  0  0  0  0  0  0  0  0
   95.0121   11.2838  102.8754 C   0  0  0  0  0  0  0  0  0  0  0  0
   94.8559   10.9980  101.5884 N   0  0  0  0  0  0  0  0  0  0  0  0
   95.8471   10.5683  100.7785 C   0  0  0  0  0  0  0  0  0  0  0  0
   97.1333   10.3300  101.3085 C   0  0  0  0  0  0  0  0  0  0  0  0
   97.2852   10.6207  102.7019 C   0  0  0  0  0  0  0  0  0  0  0  0
   98.5575   10.4315  103.3180 N   0  0  0  0  0  0  0  0  0  0  0  0
   97.8553    9.8913  100.3379 N   0  0  0  0  0  0  0  0  0  0  0  0
   97.1089    9.8174   99.2497 C   0  0  0  0  0  0  0  0  0  0  0  0
   95.9155   10.2338   99.4818 N   0  0  0  0  0  0  0  0  0  0  0  0
  1 24  1  0  0  0  0
  1  4  2  0  0  0  0
  2 13  1  0  0  0  0
  2 21  1  0  0  0  0
  3 16  1  0  0  0  0
  4 18  1  0  0  0  0
  5 19  2  0  0  0  0
  5 16  1  0  0  0  0
  6 16  2  0  0  0  0
  6 17  1  0  0  0  0
  7 17  1  0  0  0  0
 11 25  2  0  0  0  0
 12 26  2  0  0  0  0
 13 25  1  0  0  0  0
 14 23  1  0  0  0  0
 15 26  1  0  0  0  0
 17 18  2  0  0  0  0
 18 19  1  0  0  0  0
 19 24  1  0  0  0  0
 20 10  1  6  0  0  0
 20 22  1  0  0  0  0
 20 23  1  0  0  0  0
 21 14  1  1  0  0  0
 21 22  1  0  0  0  0
 22 15  1  6  0  0  0
 23 24  1  1  0  0  0
 25  8  1  6  0  0  0
 25 32  1  0  0  0  0
 26  9  1  6  0  0  0
 26 28  1  0  0  0  0
 27 28  1  0  0  0  0
 29 27  1  6  0  0  0
 29 30  1  0  0  0  0
 29 31  1  0  0  0  0
 30 35  1  0  0  0  0
 31 33  1  0  0  0  0
 31 32  1  6  0  0  0
 33 34  1  6  0  0  0
 33 35  1  0  0  0  0
 35 45  1  1  0  0  0
 36 41  2  0  0  0  0
 36 37  1  0  0  0  0
 37 38  2  0  0  0  0
 38 39  1  0  0  0  0
 39 40  2  0  0  0  0
 39 45  1  0  0  0  0
 40 41  1  0  0  0  0
 40 43  1  0  0  0  0
 41 42  1  0  0  0  0
 43 44  2  0  0  0  0
 44 45  1  0  0  0  0
M  CHG  4   8  -1   9  -1  11  -1  12  -1
M  END
>  <CHROM.1>
-18.80185523,-177.65946564,96.82418782,13.21615040,97.60122791,-1.11847683
0.65258557,2.01624281

>  <Name>
ligand

>  <RI>
0

>  <Rbt.Current_Directory>
/home/itssahil/PROJECTS/Mol_Feturizer/New_Systems/rnas/4YAZ

>  <Rbt.Executable>
rbdock ($Id: //depot/dev/client3/rdock/2013.1/src/exe/rbdock.cxx#4 $)

>  <Rbt.Library>
libRbt.so (2013.1, Build901 2013/11/27)

>  <Rbt.Parameter_File>
/export/apps/rDock/src/rDock_2013.1_src/data/scripts/dock_solv.prm

>  <Rbt.Receptor>
prm/pocket_docking_4.prm

>  <SCORE>
-45.7585

>  <SCORE.INTER>
-45.9155

>  <SCORE.INTER.CONST>
1

>  <SCORE.INTER.POLAR>
0

>  <SCORE.INTER.ROT>
2

>  <SCORE.INTER.SOLV>
45.959

>  <SCORE.INTER.VDW>
-50.8633

>  <SCORE.INTER.norm>
-1.02034

>  <SCORE.INTRA>
0.156966

>  <SCORE.INTRA.DIHEDRAL>
0.00512036

>  <SCORE.INTRA.DIHEDRAL.0>
2.39103

>  <SCORE.INTRA.POLAR>
0

>  <SCORE.INTRA.POLAR.0>
0

>  <SCORE.INTRA.REPUL>
0

>  <SCORE.INTRA.REPUL.0>
0

>  <SCORE.INTRA.SOLV>
0.00910562

>  <SCORE.INTRA.SOLV.lig_0>
-163.975

>  <SCORE.INTRA.VDW>
0.149853

>  <SCORE.INTRA.VDW.0>
-1.49176

>  <SCORE.INTRA.norm>
0.00348812

>  <SCORE.RESTR>
0

>  <SCORE.RESTR.CAVITY>
0

>  <SCORE.RESTR.norm>
0

>  <SCORE.SYSTEM>
0

>  <SCORE.SYSTEM.CONST>
0

>  <SCORE.SYSTEM.DIHEDRAL>
0

>  <SCORE.SYSTEM.SOLV>
0

>  <SCORE.SYSTEM.norm>
0

>  <SCORE.heavy>
45

>  <SCORE.norm>
-1.01686

>  <RMSD>
0.504

$$$$
ligand
 OpenBabel11021811513D
libRbt.so/2013.1/901 2013/11/27
 45 51  0  0  0  0  0  0  0  0999 V2000
   97.4208   17.0912   97.3429 C   0  0  0  0  0  0  0  0  0  0  0  0
   95.1280   14.5303   94.7803 C   0  0  0  0  0  0  0  0  0  0  0  0
  102.3261   14.4954   98.6093 N   0  0  0  0  0  0  0  0  0  0  0  0
   97.6709   17.1775   98.6092 N   0  0  0  0  0  0  0  0  0  0  0  0
  100.4233   15.3738   97.5777 N   0  0  0  0  0  0  0  0  0  0  0  0
  100.7201   15.6329   99.8713 N   0  0  0  0  0  0  0  0  0  0  0  0
   99.1217   16.8499  101.1897 O   0  0  0  0  0  0  0  0  0  0  0  0
   92.4014   15.0695   96.1414 O   0  5  0  0  0  0  0  0  0  0  0  0
   98.1605   10.6572   93.8049 O   0  5  0  0  0  0  0  0  0  0  0  0
   99.4829   14.6357   94.0561 O   0  0  0  0  0  0  0  0  0  0  0  0
   93.4528   14.6722   98.0624 O   0  5  0  0  0  0  0  0  0  0  0  0
   99.2723   11.7310   95.4195 O   0  5  0  0  0  0  0  0  0  0  0  0
   94.7476   15.1110   95.9629 O   0  0  0  0  0  0  0  0  0  0  0  0
   96.9640   16.2965   94.7874 O   0  0  0  0  0  0  0  0  0  0  0  0
   97.4931   12.9235   94.0369 O   0  0  0  0  0  0  0  0  0  0  0  0
  101.0846   15.1959   98.6914 C   0  0  0  0  0  0  0  0  0  0  0  0
   99.5945   16.3243   99.9887 C   0  0  0  0  0  0  0  0  0  0  0  0
   98.8136   16.5406   98.8309 C   0  0  0  0  0  0  0  0  0  0  0  0
   99.2587   16.0616   97.6235 C   0  0  0  0  0  0  0  0  0  0  0  0
   98.6646   14.8785   95.1384 C   0  0  2  0  0  0  0  0  0  0  0  0
   96.5126   14.8764   94.4050 C   0  0  1  0  0  0  0  0  0  0  0  0
   97.3024   14.0431   94.8939 C   0  0  1  0  0  0  0  0  0  0  0  0
   98.3453   16.1402   95.3591 C   0  0  2  0  0  0  0  0  0  0  0  0
   98.3331   16.4267   96.7355 N   0  0  0  0  0  0  0  0  0  0  0  0
   93.5353   14.4262   96.6653 P   0  0  2  0  0  0  0  0  0  0  0  0
   97.9877   11.6588   94.7674 P   0  0  1  0  0  0  0  0  0  0  0  0
   95.4887   11.0723   95.2506 C   0  0  0  0  0  0  0  0  0  0  0  0
   96.8500   11.1386   95.7050 O   0  0  0  0  0  0  0  0  0  0  0  0
   94.4843   10.9533   96.3180 C   0  0  1  0  0  0  0  0  0  0  0  0
   95.0264    9.8888   97.3931 O   0  0  0  0  0  0  0  0  0  0  0  0
   94.3854   12.0409   96.9402 C   0  0  1  0  0  0  0  0  0  0  0  0
   93.4206   12.9323   96.3351 O   0  0  0  0  0  0  0  0  0  0  0  0
   94.0463   11.6222   98.3627 C   0  0  1  0  0  0  0  0  0  0  0  0
   92.8044   11.4310   98.4763 O   0  0  0  0  0  0  0  0  0  0  0  0
   94.7682   10.2874   98.5482 C   0  0  2  0  0  0  0  0  0  0  0  0
   96.0989   10.8680  103.4804 N   0  0  0  0  0  0  0  0  0  0  0  0
   94.8680   11.0565  102.9361 C   0  0  0  0  0  0  0  0  0  0  0  0
   94.7366   10.8432  101.6324 N   0  0  0  0  0  0  0  0  0  0  0  0
   95.7547   10.5156  100.8083 C   0  0  0  0  0  0  0  0  0  0  0  0
   97.0474   10.3110  101.3364 C   0  0  0  0  0  0  0  0  0  0  0  0
   97.1737   10.5223  102.7466 C   0  0  0  0  0  0  0  0  0  0  0  0
   98.4493   10.3606  103.3636 N   0  0  0  0  0  0  0  0  0  0  0  0
   97.7985    9.9707  100.3486 N   0  0  0  0  0  0  0  0  0  0  0  0
   97.0651    9.9262   99.2499 C   0  0  0  0  0  0  0  0  0  0  0  0
   95.8501   10.2659   99.4943 N   0  0  0  0  0  0  0  0  0  0  0  0
  1 24  1  0  0  0  0
  1  4  2  0  0  0  0
  2 13  1  0  0  0  0
  2 21  1  0  0  0  0
  3 16  1  0  0  0  0
  4 18  1  0  0  0  0
  5 19  2  0  0  0  0
  5 16  1  0  0  0  0
  6 16  2  0  0  0  0
  6 17  1  0  0  0  0
  7 17  1  0  0  0  0
 11 25  2  0  0  0  0
 12 26  2  0  0  0  0
 13 25  1  0  0  0  0
 14 23  1  0  0  0  0
 15 26  1  0  0  0  0
 17 18  2  0  0  0  0
 18 19  1  0  0  0  0
 19 24  1  0  0  0  0
 20 10  1  6  0  0  0
 20 22  1  0  0  0  0
 20 23  1  0  0  0  0
 21 14  1  1  0  0  0
 21 22  1  0  0  0  0
 22 15  1  6  0  0  0
 23 24  1  1  0  0  0
 25  8  1  6  0  0  0
 25 32  1  0  0  0  0
 26  9  1  6  0  0  0
 26 28  1  0  0  0  0
 27 28  1  0  0  0  0
 29 27  1  6  0  0  0
 29 30  1  0  0  0  0
 29 31  1  0  0  0  0
 30 35  1  0  0  0  0
 31 33  1  0  0  0  0
 31 32  1  6  0  0  0
 33 34  1  6  0  0  0
 33 35  1  0  0  0  0
 35 45  1  1  0  0  0
 36 41  2  0  0  0  0
 36 37  1  0  0  0  0
 37 38  2  0  0  0  0
 38 39  1  0  0  0  0
 39 40  2  0  0  0  0
 39 45  1  0  0  0  0
 40 41  1  0  0  0  0
 40 43  1  0  0  0  0
 41 42  1  0  0  0  0
 43 44  2  0  0  0  0
 44 45  1  0  0  0  0
M  CHG  4   8  -1   9  -1  11  -1  12  -1
M  END
>  <CHROM.1>
-19.17312596,-172.58044650,96.78908144,13.21108739,97.60916885,-1.11912960
0.64562902,2.01893511

>  <Name>
ligand

>  <RI>
0

>  <Rbt.Current_Directory>
/home/itssahil/PROJECTS/Mol_Feturizer/New_Systems/rnas/4YAZ

>  <Rbt.Executable>
rbdock ($Id: //depot/dev/client3/rdock/2013.1/src/exe/rbdock.cxx#4 $)

>  <Rbt.Library>
libRbt.so (2013.1, Build901 2013/11/27)

>  <Rbt.Parameter_File>
/export/apps/rDock/src/rDock_2013.1_src/data/scripts/dock_solv.prm

>  <Rbt.Receptor>
prm/pocket_docking_3.prm

>  <SCORE>
-45.6239

>  <SCORE.INTER>
-45.7609

>  <SCORE.INTER.CONST>
1

>  <SCORE.INTER.POLAR>
0

>  <SCORE.INTER.ROT>
2

>  <SCORE.INTER.SOLV>
45.5061

>  <SCORE.INTER.VDW>
-50.6093

>  <SCORE.INTER.norm>
-1.01691

>  <SCORE.INTRA>
0.137011

>  <SCORE.INTRA.DIHEDRAL>
0.0409804

>  <SCORE.INTRA.DIHEDRAL.0>
2.39103

>  <SCORE.INTRA.POLAR>
0

>  <SCORE.INTRA.POLAR.0>
0

>  <SCORE.INTRA.REPUL>
0

>  <SCORE.INTRA.REPUL.0>
0

>  <SCORE.INTRA.SOLV>
0.00256676

>  <SCORE.INTRA.SOLV.lig_0>
-163.975

>  <SCORE.INTRA.VDW>
0.115237

>  <SCORE.INTRA.VDW.0>
-1.49176

>  <SCORE.INTRA.norm>
0.00304469

>  <SCORE.RESTR>
0

>  <SCORE.RESTR.CAVITY>
0

>  <SCORE.RESTR.norm>
0

>  <SCORE.SYSTEM>
0

>  <SCORE.SYSTEM.CONST>
0

>  <SCORE.SYSTEM.DIHEDRAL>
0

>  <SCORE.SYSTEM.SOLV>
0

>  <SCORE.SYSTEM.norm>
0

>  <SCORE.heavy>
45

>  <SCORE.norm>
-1.01386

>  <RMSD>
0.505

$$$$
ligand
 OpenBabel11021811513D
libRbt.so/2013.1/901 2013/11/27
 45 51  0  0  0  0  0  0  0  0999 V2000
   97.2523   17.0827   97.2405 C   0  0  0  0  0  0  0  0  0  0  0  0
   95.0624   14.4818   94.7057 C   0  0  0  0  0  0  0  0  0  0  0  0
  102.3903   14.9707   98.4830 N   0  0  0  0  0  0  0  0  0  0  0  0
   97.5088   17.2146   98.5015 N   0  0  0  0  0  0  0  0  0  0  0  0
  100.4024   15.6521   97.4630 N   0  0  0  0  0  0  0  0  0  0  0  0
  100.7021   15.9791   99.7475 N   0  0  0  0  0  0  0  0  0  0  0  0
   99.0149   17.0685  101.0669 O   0  0  0  0  0  0  0  0  0  0  0  0
   92.3207   14.9728   96.0547 O   0  5  0  0  0  0  0  0  0  0  0  0
   98.1959   10.6730   93.7990 O   0  5  0  0  0  0  0  0  0  0  0  0
   99.4141   14.6881   93.9844 O   0  0  0  0  0  0  0  0  0  0  0  0
   93.3792   14.6354   97.9832 O   0  5  0  0  0  0  0  0  0  0  0  0
   99.2771   11.8023   95.3964 O   0  5  0  0  0  0  0  0  0  0  0  0
   94.6653   15.0723   95.8779 O   0  0  0  0  0  0  0  0  0  0  0  0
   96.8518   16.2950   94.6849 O   0  0  0  0  0  0  0  0  0  0  0  0
   97.4696   12.9247   93.9920 O   0  0  0  0  0  0  0  0  0  0  0  0
  101.0908   15.5559   98.5703 C   0  0  0  0  0  0  0  0  0  0  0  0
   99.5193   16.5666   99.8686 C   0  0  0  0  0  0  0  0  0  0  0  0
   98.7078   16.6893   98.7182 C   0  0  0  0  0  0  0  0  0  0  0  0
   99.1803   16.2311   97.5131 C   0  0  0  0  0  0  0  0  0  0  0  0
   98.5882   14.9278   95.0616 C   0  0  2  0  0  0  0  0  0  0  0  0
   96.4381   14.8574   94.3261 C   0  0  1  0  0  0  0  0  0  0  0  0
   97.2486   14.0533   94.8298 C   0  0  1  0  0  0  0  0  0  0  0  0
   98.2359   16.1844   95.2606 C   0  0  2  0  0  0  0  0  0  0  0  0
   98.2143   16.4936   96.6320 N   0  0  0  0  0  0  0  0  0  0  0  0
   93.4702   14.3681   96.5906 P   0  0  2  0  0  0  0  0  0  0  0  0
   97.9957   11.6858   94.7443 P   0  0  1  0  0  0  0  0  0  0  0  0
   95.5122   11.0428   95.2348 C   0  0  0  0  0  0  0  0  0  0  0  0
   96.8706   11.1521   95.6894 O   0  0  0  0  0  0  0  0  0  0  0  0
   94.5096   10.9157   96.3030 C   0  0  1  0  0  0  0  0  0  0  0  0
   95.0776    9.8840   97.3965 O   0  0  0  0  0  0  0  0  0  0  0  0
   94.3816   12.0107   96.9066 C   0  0  1  0  0  0  0  0  0  0  0  0
   93.3948   12.8664   96.2856 O   0  0  0  0  0  0  0  0  0  0  0  0
   94.0513   11.6073   98.3357 C   0  0  1  0  0  0  0  0  0  0  0  0
   92.8147   11.3859   98.4512 O   0  0  0  0  0  0  0  0  0  0  0  0
   94.8074   10.2952   98.5444 C   0  0  2  0  0  0  0  0  0  0  0  0
   96.1122   10.9696  103.4716 N   0  0  0  0  0  0  0  0  0  0  0  0
   94.8768   11.1135  102.9240 C   0  0  0  0  0  0  0  0  0  0  0  0
   94.7540   10.8823  101.6225 N   0  0  0  0  0  0  0  0  0  0  0  0
   95.7831   10.5782  100.8030 C   0  0  0  0  0  0  0  0  0  0  0  0
   97.0808   10.4200  101.3347 C   0  0  0  0  0  0  0  0  0  0  0  0
   97.1984   10.6502  102.7427 C   0  0  0  0  0  0  0  0  0  0  0  0
   98.4775   10.5353  103.3627 N   0  0  0  0  0  0  0  0  0  0  0  0
   97.8437   10.0930  100.3513 N   0  0  0  0  0  0  0  0  0  0  0  0
   97.1136   10.0138   99.2524 C   0  0  0  0  0  0  0  0  0  0  0  0
   95.8881   10.3177   99.4918 N   0  0  0  0  0  0  0  0  0  0  0  0
  1 24  1  0  0  0  0
  1  4  2  0  0  0  0
  2 13  1  0  0  0  0
  2 21  1  0  0  0  0
  3 16  1  0  0  0  0
  4 18  1  0  0  0  0
  5 19  2  0  0  0  0
  5 16  1  0  0  0  0
  6 16  2  0  0  0  0
  6 17  1  0  0  0  0
  7 17  1  0  0  0  0
 11 25  2  0  0  0  0
 12 26  2  0  0  0  0
 13 25  1  0  0  0  0
 14 23  1  0  0  0  0
 15 26  1  0  0  0  0
 17 18  2  0  0  0  0
 18 19  1  0  0  0  0
 19 24  1  0  0  0  0
 20 10  1  6  0  0  0
 20 22  1  0  0  0  0
 20 23  1  0  0  0  0
 21 14  1  1  0  0  0
 21 22  1  0  0  0  0
 22 15  1  6  0  0  0
 23 24  1  1  0  0  0
 25  8  1  6  0  0  0
 25 32  1  0  0  0  0
 26  9  1  6  0  0  0
 26 28  1  0  0  0  0
 27 28  1  0  0  0  0
 29 27  1  6  0  0  0
 29 30  1  0  0  0  0
 29 31  1  0  0  0  0
 30 35  1  0  0  0  0
 31 33  1  0  0  0  0
 31 32  1  6  0  0  0
 33 34  1  6  0  0  0
 33 35  1  0  0  0  0
 35 45  1  1  0  0  0
 36 41  2  0  0  0  0
 36 37  1  0  0  0  0
 37 38  2  0  0  0  0
 38 39  1  0  0  0  0
 39 40  2  0  0  0  0
 39 45  1  0  0  0  0
 40 41  1  0  0  0  0
 40 43  1  0  0  0  0
 41 42  1  0  0  0  0
 43 44  2  0  0  0  0
 44 45  1  0  0  0  0
M  CHG  4   8  -1   9  -1  11  -1  12  -1
M  END
>  <CHROM.1>
-15.31215917,-172.10503689,96.76229522,13.27058817,97.55450723,-1.07523496
0.67498066,2.00732897

>  <Name>
ligand

>  <RI>
0

>  <Rbt.Current_Directory>
/home/itssahil/PROJECTS/Mol_Feturizer/New_Systems/rnas/4YAZ

>  <Rbt.Executable>
rbdock ($Id: //depot/dev/client3/rdock/2013.1/src/exe/rbdock.cxx#4 $)

>  <Rbt.Library>
libRbt.so (2013.1, Build901 2013/11/27)

>  <Rbt.Parameter_File>
/export/apps/rDock/src/rDock_2013.1_src/data/scripts/dock_solv.prm

>  <Rbt.Receptor>
prm/pocket_docking_2.prm

>  <SCORE>
-45.3275

>  <SCORE.INTER>
-45.3701

>  <SCORE.INTER.CONST>
1

>  <SCORE.INTER.POLAR>
0

>  <SCORE.INTER.ROT>
2

>  <SCORE.INTER.SOLV>
44.9783

>  <SCORE.INTER.VDW>
-50.1728

>  <SCORE.INTER.norm>
-1.00823

>  <SCORE.INTRA>
0.0425587

>  <SCORE.INTRA.DIHEDRAL>
0.0449347

>  <SCORE.INTRA.DIHEDRAL.0>
2.39103

>  <SCORE.INTRA.POLAR>
0

>  <SCORE.INTRA.POLAR.0>
0

>  <SCORE.INTRA.REPUL>
0

>  <SCORE.INTRA.REPUL.0>
0

>  <SCORE.INTRA.SOLV>
-0.00297716

>  <SCORE.INTRA.SOLV.lig_0>
-163.975

>  <SCORE.INTRA.VDW>
0.0215799

>  <SCORE.INTRA.VDW.0>
-1.49176

>  <SCORE.INTRA.norm>
0.000945748

>  <SCORE.RESTR>
5.6892e-05

>  <SCORE.RESTR.CAVITY>
5.6892e-05

>  <SCORE.RESTR.norm>
1.26427e-06

>  <SCORE.SYSTEM>
0

>  <SCORE.SYSTEM.CONST>
0

>  <SCORE.SYSTEM.DIHEDRAL>
0

>  <SCORE.SYSTEM.SOLV>
0

>  <SCORE.SYSTEM.norm>
0

>  <SCORE.heavy>
45

>  <SCORE.norm>
-1.00728

>  <RMSD>
0.507

$$$$
ligand
 OpenBabel11021811513D
libRbt.so/2013.1/901 2013/11/27
 45 51  0  0  0  0  0  0  0  0999 V2000
   97.4507   17.0113   97.3509 C   0  0  0  0  0  0  0  0  0  0  0  0
   95.1488   14.5148   94.8021 C   0  0  0  0  0  0  0  0  0  0  0  0
  102.5128   14.6816   98.5129 N   0  0  0  0  0  0  0  0  0  0  0  0
   97.7232   17.1134   98.6113 N   0  0  0  0  0  0  0  0  0  0  0  0
  100.5442   15.4558   97.5220 N   0  0  0  0  0  0  0  0  0  0  0  0
  100.8766   15.7352   99.8083 N   0  0  0  0  0  0  0  0  0  0  0  0
   99.2449   16.8687  101.1600 O   0  0  0  0  0  0  0  0  0  0  0  0
   92.4385   15.0722   96.1881 O   0  5  0  0  0  0  0  0  0  0  0  0
   98.1488   10.6224   93.8037 O   0  5  0  0  0  0  0  0  0  0  0  0
   99.4973   14.5932   94.0369 O   0  0  0  0  0  0  0  0  0  0  0  0
   93.5055   14.6712   98.0996 O   0  5  0  0  0  0  0  0  0  0  0  0
   99.2822   11.6916   95.4063 O   0  5  0  0  0  0  0  0  0  0  0  0
   94.7831   15.0995   95.9874 O   0  0  0  0  0  0  0  0  0  0  0  0
   96.9953   16.2701   94.7895 O   0  0  0  0  0  0  0  0  0  0  0  0
   97.4972   12.8929   94.0388 O   0  0  0  0  0  0  0  0  0  0  0  0
  101.2380   15.3155   98.6212 C   0  0  0  0  0  0  0  0  0  0  0  0
   99.7187   16.3663   99.9495 C   0  0  0  0  0  0  0  0  0  0  0  0
   98.9026   16.5385   98.8087 C   0  0  0  0  0  0  0  0  0  0  0  0
   99.3462   16.0810   97.5924 C   0  0  0  0  0  0  0  0  0  0  0  0
   98.6907   14.8424   95.1265 C   0  0  2  0  0  0  0  0  0  0  0  0
   96.5319   14.8522   94.4134 C   0  0  1  0  0  0  0  0  0  0  0  0
   97.3213   14.0148   94.8959 C   0  0  1  0  0  0  0  0  0  0  0  0
   98.3810   16.1063   95.3484 C   0  0  2  0  0  0  0  0  0  0  0  0
   98.3835   16.3947   96.7245 N   0  0  0  0  0  0  0  0  0  0  0  0
   93.5734   14.4228   96.7022 P   0  0  2  0  0  0  0  0  0  0  0  0
   97.9911   11.6262   94.7664 P   0  0  1  0  0  0  0  0  0  0  0  0
   95.4933   11.0554   95.2739 C   0  0  0  0  0  0  0  0  0  0  0  0
   96.8592   11.1142   95.7154 O   0  0  0  0  0  0  0  0  0  0  0  0
   94.4983   10.9439   96.3509 C   0  0  1  0  0  0  0  0  0  0  0  0
   95.0441    9.8776   97.4224 O   0  0  0  0  0  0  0  0  0  0  0  0
   94.4118   12.0329   96.9725 C   0  0  1  0  0  0  0  0  0  0  0  0
   93.4467   12.9292   96.3752 O   0  0  0  0  0  0  0  0  0  0  0  0
   94.0836   11.6181   98.3987 C   0  0  1  0  0  0  0  0  0  0  0  0
   92.8417   11.4346   98.5243 O   0  0  0  0  0  0  0  0  0  0  0  0
   94.7992   10.2794   98.5793 C   0  0  2  0  0  0  0  0  0  0  0  0
   96.2171   11.0559  103.4600 N   0  0  0  0  0  0  0  0  0  0  0  0
   94.9912   11.2786  102.9175 C   0  0  0  0  0  0  0  0  0  0  0  0
   94.8333   11.0022  101.6286 N   0  0  0  0  0  0  0  0  0  0  0  0
   95.8232   10.5777  100.8144 C   0  0  0  0  0  0  0  0  0  0  0  0
   97.1099   10.3349  101.3410 C   0  0  0  0  0  0  0  0  0  0  0  0
   97.2638   10.6153  102.7363 C   0  0  0  0  0  0  0  0  0  0  0  0
   98.5366   10.4210  103.3495 N   0  0  0  0  0  0  0  0  0  0  0  0
   97.8305    9.9028  100.3664 N   0  0  0  0  0  0  0  0  0  0  0  0
   97.0827    9.8372   99.2786 C   0  0  0  0  0  0  0  0  0  0  0  0
   95.8898   10.2526   99.5152 N   0  0  0  0  0  0  0  0  0  0  0  0
  1 24  1  0  0  0  0
  1  4  2  0  0  0  0
  2 13  1  0  0  0  0
  2 21  1  0  0  0  0
  3 16  1  0  0  0  0
  4 18  1  0  0  0  0
  5 19  2  0  0  0  0
  5 16  1  0  0  0  0
  6 16  2  0  0  0  0
  6 17  1  0  0  0  0
  7 17  1  0  0  0  0
 11 25  2  0  0  0  0
 12 26  2  0  0  0  0
 13 25  1  0  0  0  0
 14 23  1  0  0  0  0
 15 26  1  0  0  0  0
 17 18  2  0  0  0  0
 18 19  1  0  0  0  0
 19 24  1  0  0  0  0
 20 10  1  6  0  0  0
 20 22  1  0  0  0  0
 20 23  1  0  0  0  0
 21 14  1  1  0  0  0
 21 22  1  0  0  0  0
 22 15  1  6  0  0  0
 23 24  1  1  0  0  0
 25  8  1  6  0  0  0
 25 32  1  0  0  0  0
 26  9  1  6  0  0  0
 26 28  1  0  0  0  0
 27 28  1  0  0  0  0
 29 27  1  6  0  0  0
 29 30  1  0  0  0  0
 29 31  1  0  0  0  0
 30 35  1  0  0  0  0
 31 33  1  0  0  0  0
 31 32  1  6  0  0  0
 33 34  1  6  0  0  0
 33 35  1  0  0  0  0
 35 45  1  1  0  0  0
 36 41  2  0  0  0  0
 36 37  1  0  0  0  0
 37 38  2  0  0  0  0
 38 39  1  0  0  0  0
 39 40  2  0  0  0  0
 39 45  1  0  0  0  0
 40 41  1  0  0  0  0
 40 43  1  0  0  0  0
 41 42  1  0  0  0  0
 43 44  2  0  0  0  0
 44 45  1  0  0  0  0
M  CHG  4   8  -1   9  -1  11  -1  12  -1
M  END
>  <CHROM.1>
-15.72203312,-176.60469732,96.84024351,13.22105397,97.61109435,-1.06513265
0.64414899,2.00616657

>  <Name>
ligand

>  <RI>
0

>  <Rbt.Current_Directory>
/home/itssahil/PROJECTS/Mol_Feturizer/New_Systems/rnas/4YAZ

>  <Rbt.Executable>
rbdock ($Id: //depot/dev/client3/rdock/2013.1/src/exe/rbdock.cxx#4 $)

>  <Rbt.Library>
libRbt.so (2013.1, Build901 2013/11/27)

>  <Rbt.Parameter_File>
/export/apps/rDock/src/rDock_2013.1_src/data/scripts/dock_solv.prm

>  <Rbt.Receptor>
prm/pocket_docking_7.prm

>  <SCORE>
-45.7461

>  <SCORE.INTER>
-45.8078

>  <SCORE.INTER.CONST>
1

>  <SCORE.INTER.POLAR>
0

>  <SCORE.INTER.ROT>
2

>  <SCORE.INTER.SOLV>
46.5188

>  <SCORE.INTER.VDW>
-50.9781

>  <SCORE.INTER.norm>
-1.01795

>  <SCORE.INTRA>
0.0616613

>  <SCORE.INTRA.DIHEDRAL>
0.0132151

>  <SCORE.INTRA.DIHEDRAL.0>
2.39103

>  <SCORE.INTRA.POLAR>
0

>  <SCORE.INTRA.POLAR.0>
0

>  <SCORE.INTRA.REPUL>
0

>  <SCORE.INTRA.REPUL.0>
0

>  <SCORE.INTRA.SOLV>
0.00386104

>  <SCORE.INTRA.SOLV.lig_0>
-163.975

>  <SCORE.INTRA.VDW>
0.0531233

>  <SCORE.INTRA.VDW.0>
-1.49176

>  <SCORE.INTRA.norm>
0.00137025

>  <SCORE.RESTR>
0

>  <SCORE.RESTR.CAVITY>
0

>  <SCORE.RESTR.norm>
0

>  <SCORE.SYSTEM>
0

>  <SCORE.SYSTEM.CONST>
0

>  <SCORE.SYSTEM.DIHEDRAL>
0

>  <SCORE.SYSTEM.SOLV>
0

>  <SCORE.SYSTEM.norm>
0

>  <SCORE.heavy>
45

>  <SCORE.norm>
-1.01658

>  <RMSD>
0.509

$$$$
ligand
 OpenBabel11021811513D
libRbt.so/2013.1/901 2013/11/27
 45 51  0  0  0  0  0  0  0  0999 V2000
   97.4276   17.0793   97.3416 C   0  0  0  0  0  0  0  0  0  0  0  0
   95.1217   14.5292   94.7924 C   0  0  0  0  0  0  0  0  0  0  0  0
  102.3689   14.5319   98.5655 N   0  0  0  0  0  0  0  0  0  0  0  0
   97.6879   17.1684   98.6055 N   0  0  0  0  0  0  0  0  0  0  0  0
  100.4486   15.3914   97.5504 N   0  0  0  0  0  0  0  0  0  0  0  0
  100.7629   15.6540   99.8413 N   0  0  0  0  0  0  0  0  0  0  0  0
   99.1643   16.8557  101.1734 O   0  0  0  0  0  0  0  0  0  0  0  0
   92.4046   15.0708   96.1713 O   0  5  0  0  0  0  0  0  0  0  0  0
   98.1449   10.6537   93.7979 O   0  5  0  0  0  0  0  0  0  0  0  0
   99.4719   14.6313   94.0398 O   0  0  0  0  0  0  0  0  0  0  0  0
   93.4682   14.6729   98.0854 O   0  5  0  0  0  0  0  0  0  0  0  0
   99.2681   11.7269   95.4050 O   0  5  0  0  0  0  0  0  0  0  0  0
   94.7496   15.1105   95.9774 O   0  0  0  0  0  0  0  0  0  0  0  0
   96.9591   16.2941   94.7873 O   0  0  0  0  0  0  0  0  0  0  0  0
   97.4808   12.9206   94.0339 O   0  0  0  0  0  0  0  0  0  0  0  0
  101.1213   15.2202   98.6583 C   0  0  0  0  0  0  0  0  0  0  0  0
   99.6317   16.3344   99.9684 C   0  0  0  0  0  0  0  0  0  0  0  0
   98.8387   16.5428   98.8174 C   0  0  0  0  0  0  0  0  0  0  0  0
   99.2779   16.0678   97.6062 C   0  0  0  0  0  0  0  0  0  0  0  0
   98.6609   14.8749   95.1273 C   0  0  2  0  0  0  0  0  0  0  0  0
   96.5041   14.8743   94.4081 C   0  0  1  0  0  0  0  0  0  0  0  0
   97.2965   14.0404   94.8919 C   0  0  1  0  0  0  0  0  0  0  0  0
   98.3440   16.1369   95.3499 C   0  0  2  0  0  0  0  0  0  0  0  0
   98.3411   16.4236   96.7264 N   0  0  0  0  0  0  0  0  0  0  0  0
   93.5414   14.4266   96.6879 P   0  0  2  0  0  0  0  0  0  0  0  0
   97.9792   11.6556   94.7613 P   0  0  1  0  0  0  0  0  0  0  0  0
   95.4830   11.0711   95.2610 C   0  0  0  0  0  0  0  0  0  0  0  0
   96.8472   11.1365   95.7064 O   0  0  0  0  0  0  0  0  0  0  0  0
   94.4855   10.9530   96.3349 C   0  0  1  0  0  0  0  0  0  0  0  0
   95.0338    9.8883   97.4067 O   0  0  0  0  0  0  0  0  0  0  0  0
   94.3915   12.0408   96.9576 C   0  0  1  0  0  0  0  0  0  0  0  0
   93.4234   12.9328   96.3587 O   0  0  0  0  0  0  0  0  0  0  0  0
   94.0614   11.6225   98.3824 C   0  0  1  0  0  0  0  0  0  0  0  0
   92.8201   11.4324   98.5041 O   0  0  0  0  0  0  0  0  0  0  0  0
   94.7835   10.2873   98.5634 C   0  0  2  0  0  0  0  0  0  0  0  0
   96.1618   10.9551  103.4714 N   0  0  0  0  0  0  0  0  0  0  0  0
   94.9312   11.1567  102.9311 C   0  0  0  0  0  0  0  0  0  0  0  0
   94.7859   10.9157  101.6337 N   0  0  0  0  0  0  0  0  0  0  0  0
   95.7909   10.5475  100.8107 C   0  0  0  0  0  0  0  0  0  0  0  0
   97.0829   10.3281  101.3348 C   0  0  0  0  0  0  0  0  0  0  0  0
   97.2237   10.5697  102.7387 C   0  0  0  0  0  0  0  0  0  0  0  0
   98.5001   10.3956  103.3506 N   0  0  0  0  0  0  0  0  0  0  0  0
   97.8195    9.9489  100.3501 N   0  0  0  0  0  0  0  0  0  0  0  0
   97.0774    9.8942   99.2578 C   0  0  0  0  0  0  0  0  0  0  0  0
   95.8715   10.2651   99.5023 N   0  0  0  0  0  0  0  0  0  0  0  0
  1 24  1  0  0  0  0
  1  4  2  0  0  0  0
  2 13  1  0  0  0  0
  2 21  1  0  0  0  0
  3 16  1  0  0  0  0
  4 18  1  0  0  0  0
  5 19  2  0  0  0  0
  5 16  1  0  0  0  0
  6 16  2  0  0  0  0
  6 17  1  0  0  0  0
  7 17  1  0  0  0  0
 11 25  2  0  0  0  0
 12 26  2  0  0  0  0
 13 25  1  0  0  0  0
 14 23  1  0  0  0  0
 15 26  1  0  0  0  0
 17 18  2  0  0  0  0
 18 19  1  0  0  0  0
 19 24  1  0  0  0  0
 20 10  1  6  0  0  0
 20 22  1  0  0  0  0
 20 23  1  0  0  0  0
 21 14  1  1  0  0  0
 21 22  1  0  0  0  0
 22 15  1  6  0  0  0
 23 24  1  1  0  0  0
 25  8  1  6  0  0  0
 25 32  1  0  0  0  0
 26  9  1  6  0  0  0
 26 28  1  0  0  0  0
 27 28  1  0  0  0  0
 29 27  1  6  0  0  0
 29 30  1  0  0  0  0
 29 31  1  0  0  0  0
 30 35  1  0  0  0  0
 31 33  1  0  0  0  0
 31 32  1  6  0  0  0
 33 34  1  6  0  0  0
 33 35  1  0  0  0  0
 35 45  1  1  0  0  0
 36 41  2  0  0  0  0
 36 37  1  0  0  0  0
 37 38  2  0  0  0  0
 38 39  1  0  0  0  0
 39 40  2  0  0  0  0
 39 45  1  0  0  0  0
 40 41  1  0  0  0  0
 40 43  1  0  0  0  0
 41 42  1  0  0  0  0
 43 44  2  0  0  0  0
 44 45  1  0  0  0  0
M  CHG  4   8  -1   9  -1  11  -1  12  -1
M  END
>  <CHROM.1>
-18.55763112,-174.35220896,96.80305636,13.21892571,97.60897381,-1.11437680
0.64422275,2.01679315

>  <Name>
ligand

>  <RI>
0

>  <Rbt.Current_Directory>
/home/itssahil/PROJECTS/Mol_Feturizer/New_Systems/rnas/4YAZ

>  <Rbt.Executable>
rbdock ($Id: //depot/dev/client3/rdock/2013.1/src/exe/rbdock.cxx#4 $)

>  <Rbt.Library>
libRbt.so (2013.1, Build901 2013/11/27)

>  <Rbt.Parameter_File>
/export/apps/rDock/src/rDock_2013.1_src/data/scripts/dock_solv.prm

>  <Rbt.Receptor>
prm/pocket_docking_5.prm

>  <SCORE>
-45.6421

>  <SCORE.INTER>
-45.7674

>  <SCORE.INTER.CONST>
1

>  <SCORE.INTER.POLAR>
0

>  <SCORE.INTER.ROT>
2

>  <SCORE.INTER.SOLV>
45.8187

>  <SCORE.INTER.VDW>
-50.7178

>  <SCORE.INTER.norm>
-1.01705

>  <SCORE.INTRA>
0.125334

>  <SCORE.INTRA.DIHEDRAL>
0.0287135

>  <SCORE.INTRA.DIHEDRAL.0>
2.39103

>  <SCORE.INTRA.POLAR>
0

>  <SCORE.INTRA.POLAR.0>
0

>  <SCORE.INTRA.REPUL>
0

>  <SCORE.INTRA.REPUL.0>
0

>  <SCORE.INTRA.SOLV>
0.00436384

>  <SCORE.INTRA.SOLV.lig_0>
-163.975

>  <SCORE.INTRA.VDW>
0.108795

>  <SCORE.INTRA.VDW.0>
-1.49176

>  <SCORE.INTRA.norm>
0.0027852

>  <SCORE.RESTR>
0

>  <SCORE.RESTR.CAVITY>
0

>  <SCORE.RESTR.norm>
0

>  <SCORE.SYSTEM>
0

>  <SCORE.SYSTEM.CONST>
0

>  <SCORE.SYSTEM.DIHEDRAL>
0

>  <SCORE.SYSTEM.SOLV>
0

>  <SCORE.SYSTEM.norm>
0

>  <SCORE.heavy>
45

>  <SCORE.norm>
-1.01427

>  <RMSD>
0.510

$$$$
ligand
 OpenBabel11021811513D
libRbt.so/2013.1/901 2013/11/27
 45 51  0  0  0  0  0  0  0  0999 V2000
   97.2601   17.0410   97.2064 C   0  0  0  0  0  0  0  0  0  0  0  0
   95.0627   14.4193   94.6944 C   0  0  0  0  0  0  0  0  0  0  0  0
  102.3843   14.9078   98.4695 N   0  0  0  0  0  0  0  0  0  0  0  0
   97.5166   17.1815   98.4664 N   0  0  0  0  0  0  0  0  0  0  0  0
  100.4013   15.5931   97.4426 N   0  0  0  0  0  0  0  0  0  0  0  0
  100.7015   15.9366   99.7246 N   0  0  0  0  0  0  0  0  0  0  0  0
   99.0201   17.0468  101.0340 O   0  0  0  0  0  0  0  0  0  0  0  0
   92.3224   14.9262   96.0403 O   0  5  0  0  0  0  0  0  0  0  0  0
   98.1892   10.5977   93.8177 O   0  5  0  0  0  0  0  0  0  0  0  0
   99.4146   14.6121   93.9701 O   0  0  0  0  0  0  0  0  0  0  0  0
   93.3810   14.6025   97.9711 O   0  5  0  0  0  0  0  0  0  0  0  0
   99.2730   11.7381   95.4055 O   0  5  0  0  0  0  0  0  0  0  0  0
   94.6671   15.0201   95.8619 O   0  0  0  0  0  0  0  0  0  0  0  0
   96.8554   16.2292   94.6583 O   0  0  0  0  0  0  0  0  0  0  0  0
   97.4669   12.8523   93.9927 O   0  0  0  0  0  0  0  0  0  0  0  0
  101.0883   15.5015   98.5511 C   0  0  0  0  0  0  0  0  0  0  0  0
   99.5222   16.5322   99.8402 C   0  0  0  0  0  0  0  0  0  0  0  0
   98.7122   16.6506   98.6882 C   0  0  0  0  0  0  0  0  0  0  0  0
   99.1827   16.1798   97.4872 C   0  0  0  0  0  0  0  0  0  0  0  0
   98.5895   14.8620   95.0455 C   0  0  2  0  0  0  0  0  0  0  0  0
   96.4390   14.7894   94.3113 C   0  0  1  0  0  0  0  0  0  0  0  0
   97.2482   13.9880   94.8213 C   0  0  1  0  0  0  0  0  0  0  0  0
   98.2395   16.1208   95.2344 C   0  0  2  0  0  0  0  0  0  0  0  0
   98.2189   16.4411   96.6033 N   0  0  0  0  0  0  0  0  0  0  0  0
   93.4710   14.3238   96.5807 P   0  0  2  0  0  0  0  0  0  0  0  0
   97.9912   11.6185   94.7548 P   0  0  1  0  0  0  0  0  0  0  0  0
   95.5066   10.9839   95.2513 C   0  0  0  0  0  0  0  0  0  0  0  0
   96.8654   11.0946   95.7045 O   0  0  0  0  0  0  0  0  0  0  0  0
   94.5042   10.8673   96.3208 C   0  0  1  0  0  0  0  0  0  0  0  0
   95.0707    9.8435   97.4225 O   0  0  0  0  0  0  0  0  0  0  0  0
   94.3783   11.9674   96.9156 C   0  0  1  0  0  0  0  0  0  0  0  0
   93.3929   12.8198   96.2879 O   0  0  0  0  0  0  0  0  0  0  0  0
   94.0478   11.5763   98.3479 C   0  0  1  0  0  0  0  0  0  0  0  0
   92.8108   11.3580   98.4657 O   0  0  0  0  0  0  0  0  0  0  0  0
   94.8017   10.2645   98.5671 C   0  0  2  0  0  0  0  0  0  0  0  0
   96.1079   10.9661  103.4901 N   0  0  0  0  0  0  0  0  0  0  0  0
   94.8721   11.1061  102.9422 C   0  0  0  0  0  0  0  0  0  0  0  0
   94.7490   10.8680  101.6420 N   0  0  0  0  0  0  0  0  0  0  0  0
   95.7780   10.5602  100.8238 C   0  0  0  0  0  0  0  0  0  0  0  0
   97.0760   10.4058  101.3558 C   0  0  0  0  0  0  0  0  0  0  0  0
   97.1940   10.6435  102.7625 C   0  0  0  0  0  0  0  0  0  0  0  0
   98.4735   10.5328  103.3826 N   0  0  0  0  0  0  0  0  0  0  0  0
   97.8387   10.0741  100.3739 N   0  0  0  0  0  0  0  0  0  0  0  0
   97.1083    9.9885   99.2757 C   0  0  0  0  0  0  0  0  0  0  0  0
   95.8827   10.2928   99.5140 N   0  0  0  0  0  0  0  0  0  0  0  0
  1 24  1  0  0  0  0
  1  4  2  0  0  0  0
  2 13  1  0  0  0  0
  2 21  1  0  0  0  0
  3 16  1  0  0  0  0
  4 18  1  0  0  0  0
  5 19  2  0  0  0  0
  5 16  1  0  0  0  0
  6 16  2  0  0  0  0
  6 17  1  0  0  0  0
  7 17  1  0  0  0  0
 11 25  2  0  0  0  0
 12 26  2  0  0  0  0
 13 25  1  0  0  0  0
 14 23  1  0  0  0  0
 15 26  1  0  0  0  0
 17 18  2  0  0  0  0
 18 19  1  0  0  0  0
 19 24  1  0  0  0  0
 20 10  1  6  0  0  0
 20 22  1  0  0  0  0
 20 23  1  0  0  0  0
 21 14  1  1  0  0  0
 21 22  1  0  0  0  0
 22 15  1  6  0  0  0
 23 24  1  1  0  0  0
 25  8  1  6  0  0  0
 25 32  1  0  0  0  0
 26  9  1  6  0  0  0
 26 28  1  0  0  0  0
 27 28  1  0  0  0  0
 29 27  1  6  0  0  0
 29 30  1  0  0  0  0
 29 31  1  0  0  0  0
 30 35  1  0  0  0  0
 31 33  1  0  0  0  0
 31 32  1  6  0  0  0
 33 34  1  6  0  0  0
 33 35  1  0  0  0  0
 35 45  1  1  0  0  0
 36 41  2  0  0  0  0
 36 37  1  0  0  0  0
 37 38  2  0  0  0  0
 38 39  1  0  0  0  0
 39 40  2  0  0  0  0
 39 45  1  0  0  0  0
 40 41  1  0  0  0  0
 40 43  1  0  0  0  0
 41 42  1  0  0  0  0
 43 44  2  0  0  0  0
 44 45  1  0  0  0  0
M  CHG  4   8  -1   9  -1  11  -1  12  -1
M  END
>  <CHROM.1>
-15.56695783,-171.89084725,96.76078591,13.22626567,97.55284597,-1.07902722
0.67263718,1.99983886

>  <Name>
ligand

>  <RI>
0

>  <Rbt.Current_Directory>
/home/itssahil/PROJECTS/Mol_Feturizer/New_Systems/rnas/4YAZ

>  <Rbt.Executable>
rbdock ($Id: //depot/dev/client3/rdock/2013.1/src/exe/rbdock.cxx#4 $)

>  <Rbt.Library>
libRbt.so (2013.1, Build901 2013/11/27)

>  <Rbt.Parameter_File>
/export/apps/rDock/src/rDock_2013.1_src/data/scripts/dock_solv.prm

>  <Rbt.Receptor>
prm/pocket_docking_2.prm

>  <SCORE>
-45.3578

>  <SCORE.INTER>
-45.4058

>  <SCORE.INTER.CONST>
1

>  <SCORE.INTER.POLAR>
0

>  <SCORE.INTER.ROT>
2

>  <SCORE.INTER.SOLV>
44.7216

>  <SCORE.INTER.VDW>
-50.1111

>  <SCORE.INTER.norm>
-1.00902

>  <SCORE.INTRA>
0.0479767

>  <SCORE.INTRA.DIHEDRAL>
0.0463488

>  <SCORE.INTRA.DIHEDRAL.0>
2.39103

>  <SCORE.INTRA.POLAR>
0

>  <SCORE.INTRA.POLAR.0>
0

>  <SCORE.INTRA.REPUL>
0

>  <SCORE.INTRA.REPUL.0>
0

>  <SCORE.INTRA.SOLV>
-0.00295484

>  <SCORE.INTRA.SOLV.lig_0>
-163.975

>  <SCORE.INTRA.VDW>
0.0262797

>  <SCORE.INTRA.VDW.0>
-1.49176

>  <SCORE.INTRA.norm>
0.00106615

>  <SCORE.RESTR>
0

>  <SCORE.RESTR.CAVITY>
0

>  <SCORE.RESTR.norm>
0

>  <SCORE.SYSTEM>
0

>  <SCORE.SYSTEM.CONST>
0

>  <SCORE.SYSTEM.DIHEDRAL>
0

>  <SCORE.SYSTEM.SOLV>
0

>  <SCORE.SYSTEM.norm>
0

>  <SCORE.heavy>
45

>  <SCORE.norm>
-1.00795

>  <RMSD>
0.511

$$$$
ligand
 OpenBabel11021811513D
libRbt.so/2013.1/901 2013/11/27
 45 51  0  0  0  0  0  0  0  0999 V2000
   97.3381   17.0604   97.3105 C   0  0  0  0  0  0  0  0  0  0  0  0
   95.0983   14.5455   94.7631 C   0  0  0  0  0  0  0  0  0  0  0  0
  102.5086   14.9834   98.4748 N   0  0  0  0  0  0  0  0  0  0  0  0
   97.6087   17.1848   98.5693 N   0  0  0  0  0  0  0  0  0  0  0  0
  100.5028   15.6555   97.4840 N   0  0  0  0  0  0  0  0  0  0  0  0
  100.8273   15.9673   99.7673 N   0  0  0  0  0  0  0  0  0  0  0  0
   99.1468   17.0318  101.1154 O   0  0  0  0  0  0  0  0  0  0  0  0
   92.3742   15.0749   96.1330 O   0  5  0  0  0  0  0  0  0  0  0  0
   98.1570   10.6883   93.8065 O   0  5  0  0  0  0  0  0  0  0  0  0
   99.4487   14.6792   94.0165 O   0  0  0  0  0  0  0  0  0  0  0  0
   93.4381   14.7027   98.0521 O   0  5  0  0  0  0  0  0  0  0  0  0
   99.2681   11.7850   95.4061 O   0  5  0  0  0  0  0  0  0  0  0  0
   94.7191   15.1335   95.9425 O   0  0  0  0  0  0  0  0  0  0  0  0
   96.9202   16.3263   94.7458 O   0  0  0  0  0  0  0  0  0  0  0  0
   97.4726   12.9512   94.0221 O   0  0  0  0  0  0  0  0  0  0  0  0
  101.2053   15.5566   98.5822 C   0  0  0  0  0  0  0  0  0  0  0  0
   99.6410   16.5435   99.9072 C   0  0  0  0  0  0  0  0  0  0  0  0
   98.8147   16.6682   98.7676 C   0  0  0  0  0  0  0  0  0  0  0  0
   99.2765   16.2234   97.5533 C   0  0  0  0  0  0  0  0  0  0  0  0
   98.6338   14.9250   95.1007 C   0  0  2  0  0  0  0  0  0  0  0  0
   96.4783   14.8993   94.3780 C   0  0  1  0  0  0  0  0  0  0  0  0
   97.2772   14.0766   94.8702 C   0  0  1  0  0  0  0  0  0  0  0  0
   98.3055   16.1860   95.3120 C   0  0  2  0  0  0  0  0  0  0  0  0
   98.2977   16.4844   96.6859 N   0  0  0  0  0  0  0  0  0  0  0  0
   93.5158   14.4451   96.6568 P   0  0  2  0  0  0  0  0  0  0  0  0
   97.9809   11.6968   94.7611 P   0  0  1  0  0  0  0  0  0  0  0  0
   95.4891   11.0947   95.2617 C   0  0  0  0  0  0  0  0  0  0  0  0
   96.8520   11.1759   95.7088 O   0  0  0  0  0  0  0  0  0  0  0  0
   94.4909   10.9771   96.3351 C   0  0  1  0  0  0  0  0  0  0  0  0
   95.0467    9.9264   97.4168 O   0  0  0  0  0  0  0  0  0  0  0  0
   94.3863   12.0692   96.9483 C   0  0  1  0  0  0  0  0  0  0  0  0
   93.4115   12.9476   96.3403 O   0  0  0  0  0  0  0  0  0  0  0  0
   94.0575   11.6603   98.3761 C   0  0  1  0  0  0  0  0  0  0  0  0
   92.8177   11.4603   98.4975 O   0  0  0  0  0  0  0  0  0  0  0  0
   94.7910   10.3330   98.5696 C   0  0  2  0  0  0  0  0  0  0  0  0
   96.1594   11.0784  103.4692 N   0  0  0  0  0  0  0  0  0  0  0  0
   94.9291   11.2679  102.9241 C   0  0  0  0  0  0  0  0  0  0  0  0
   94.7866   11.0072  101.6302 N   0  0  0  0  0  0  0  0  0  0  0  0
   95.7940   10.6300  100.8143 C   0  0  0  0  0  0  0  0  0  0  0  0
   97.0859   10.4226  101.3436 C   0  0  0  0  0  0  0  0  0  0  0  0
   97.2238   10.6856  102.7439 C   0  0  0  0  0  0  0  0  0  0  0  0
   98.4997   10.5249  103.3604 N   0  0  0  0  0  0  0  0  0  0  0  0
   97.8253   10.0312  100.3658 N   0  0  0  0  0  0  0  0  0  0  0  0
   97.0850    9.9577   99.2733 C   0  0  0  0  0  0  0  0  0  0  0  0
   95.8776   10.3283   99.5104 N   0  0  0  0  0  0  0  0  0  0  0  0
  1 24  1  0  0  0  0
  1  4  2  0  0  0  0
  2 13  1  0  0  0  0
  2 21  1  0  0  0  0
  3 16  1  0  0  0  0
  4 18  1  0  0  0  0
  5 19  2  0  0  0  0
  5 16  1  0  0  0  0
  6 16  2  0  0  0  0
  6 17  1  0  0  0  0
  7 17  1  0  0  0  0
 11 25  2  0  0  0  0
 12 26  2  0  0  0  0
 13 25  1  0  0  0  0
 14 23  1  0  0  0  0
 15 26  1  0  0  0  0
 17 18  2  0  0  0  0
 18 19  1  0  0  0  0
 19 24  1  0  0  0  0
 20 10  1  6  0  0  0
 20 22  1  0  0  0  0
 20 23  1  0  0  0  0
 21 14  1  1  0  0  0
 21 22  1  0  0  0  0
 22 15  1  6  0  0  0
 23 24  1  1  0  0  0
 25  8  1  6  0  0  0
 25 32  1  0  0  0  0
 26  9  1  6  0  0  0
 26 28  1  0  0  0  0
 27 28  1  0  0  0  0
 29 27  1  6  0  0  0
 29 30  1  0  0  0  0
 29 31  1  0  0  0  0
 30 35  1  0  0  0  0
 31 33  1  0  0  0  0
 31 32  1  6  0  0  0
 33 34  1  6  0  0  0
 33 35  1  0  0  0  0
 35 45  1  1  0  0  0
 36 41  2  0  0  0  0
 36 37  1  0  0  0  0
 37 38  2  0  0  0  0
 38 39  1  0  0  0  0
 39 40  2  0  0  0  0
 39 45  1  0  0  0  0
 40 41  1  0  0  0  0
 40 43  1  0  0  0  0
 41 42  1  0  0  0  0
 43 44  2  0  0  0  0
 44 45  1  0  0  0  0
M  CHG  4   8  -1   9  -1  11  -1  12  -1
M  END
>  <CHROM.1>
-13.74797441,-174.83659065,96.79842826,13.29871288,97.58819032,-1.04053605
0.66090845,2.00328724

>  <Name>
ligand

>  <RI>
0

>  <Rbt.Current_Directory>
/home/itssahil/PROJECTS/Mol_Feturizer/New_Systems/rnas/4YAZ

>  <Rbt.Executable>
rbdock ($Id: //depot/dev/client3/rdock/2013.1/src/exe/rbdock.cxx#4 $)

>  <Rbt.Library>
libRbt.so (2013.1, Build901 2013/11/27)

>  <Rbt.Parameter_File>
/export/apps/rDock/src/rDock_2013.1_src/data/scripts/dock_solv.prm

>  <Rbt.Receptor>
prm/pocket_docking_5.prm

>  <SCORE>
-45.6093

>  <SCORE.INTER>
-45.6224

>  <SCORE.INTER.CONST>
1

>  <SCORE.INTER.POLAR>
0

>  <SCORE.INTER.ROT>
2

>  <SCORE.INTER.SOLV>
46.1978

>  <SCORE.INTER.VDW>
-50.7476

>  <SCORE.INTER.norm>
-1.01383

>  <SCORE.INTRA>
0.0130738

>  <SCORE.INTRA.DIHEDRAL>
0.0262057

>  <SCORE.INTRA.DIHEDRAL.0>
2.39103

>  <SCORE.INTRA.POLAR>
0

>  <SCORE.INTRA.POLAR.0>
0

>  <SCORE.INTRA.REPUL>
0

>  <SCORE.INTRA.REPUL.0>
0

>  <SCORE.INTRA.SOLV>
-0.00120681

>  <SCORE.INTRA.SOLV.lig_0>
-163.975

>  <SCORE.INTRA.VDW>
0.000574322

>  <SCORE.INTRA.VDW.0>
-1.49176

>  <SCORE.INTRA.norm>
0.000290528

>  <SCORE.RESTR>
0

>  <SCORE.RESTR.CAVITY>
0

>  <SCORE.RESTR.norm>
0

>  <SCORE.SYSTEM>
0

>  <SCORE.SYSTEM.CONST>
0

>  <SCORE.SYSTEM.DIHEDRAL>
0

>  <SCORE.SYSTEM.SOLV>
0

>  <SCORE.SYSTEM.norm>
0

>  <SCORE.heavy>
45

>  <SCORE.norm>
-1.01354

>  <RMSD>
0.515

$$$$
ligand
 OpenBabel11021811513D
libRbt.so/2013.1/901 2013/11/27
 45 51  0  0  0  0  0  0  0  0999 V2000
   97.2631   17.0605   97.2409 C   0  0  0  0  0  0  0  0  0  0  0  0
   95.0376   14.4815   94.7287 C   0  0  0  0  0  0  0  0  0  0  0  0
  102.4430   14.9987   98.3898 N   0  0  0  0  0  0  0  0  0  0  0  0
   97.5398   17.1920   98.4977 N   0  0  0  0  0  0  0  0  0  0  0  0
  100.4311   15.6620   97.4057 N   0  0  0  0  0  0  0  0  0  0  0  0
  100.7666   15.9865   99.6856 N   0  0  0  0  0  0  0  0  0  0  0  0
   99.0911   17.0552  101.0366 O   0  0  0  0  0  0  0  0  0  0  0  0
   92.3166   14.9736   96.1185 O   0  5  0  0  0  0  0  0  0  0  0  0
   98.1511   10.6698   93.7669 O   0  5  0  0  0  0  0  0  0  0  0  0
   99.3789   14.6824   93.9451 O   0  0  0  0  0  0  0  0  0  0  0  0
   93.4023   14.6293   98.0306 O   0  5  0  0  0  0  0  0  0  0  0  0
   99.2573   11.7931   95.3514 O   0  5  0  0  0  0  0  0  0  0  0  0
   94.6586   15.0696   95.9081 O   0  0  0  0  0  0  0  0  0  0  0  0
   96.8297   16.2918   94.6868 O   0  0  0  0  0  0  0  0  0  0  0  0
   97.4315   12.9223   93.9763 O   0  0  0  0  0  0  0  0  0  0  0  0
  101.1393   15.5702   98.5008 C   0  0  0  0  0  0  0  0  0  0  0  0
   99.5800   16.5614   99.8285 C   0  0  0  0  0  0  0  0  0  0  0  0
   98.7477   16.6786   98.6925 C   0  0  0  0  0  0  0  0  0  0  0  0
   99.2041   16.2282   97.4783 C   0  0  0  0  0  0  0  0  0  0  0  0
   98.5690   14.9206   95.0347 C   0  0  2  0  0  0  0  0  0  0  0  0
   96.4083   14.8558   94.3302 C   0  0  1  0  0  0  0  0  0  0  0  0
   97.2247   14.0490   94.8200 C   0  0  1  0  0  0  0  0  0  0  0  0
   98.2218   16.1773   95.2421 C   0  0  2  0  0  0  0  0  0  0  0  0
   98.2205   16.4829   96.6145 N   0  0  0  0  0  0  0  0  0  0  0  0
   93.4726   14.3655   96.6361 P   0  0  2  0  0  0  0  0  0  0  0  0
   97.9664   11.6804   94.7176 P   0  0  1  0  0  0  0  0  0  0  0  0
   95.4890   11.0403   95.2422 C   0  0  0  0  0  0  0  0  0  0  0  0
   96.8541   11.1462   95.6774 O   0  0  0  0  0  0  0  0  0  0  0  0
   94.5018   10.9122   96.3244 C   0  0  1  0  0  0  0  0  0  0  0  0
   95.0837    9.8766   97.4069 O   0  0  0  0  0  0  0  0  0  0  0  0
   94.3844   12.0058   96.9327 C   0  0  1  0  0  0  0  0  0  0  0  0
   93.3903   12.8648   96.3283 O   0  0  0  0  0  0  0  0  0  0  0  0
   94.0741   11.5992   98.3653 C   0  0  1  0  0  0  0  0  0  0  0  0
   92.8389   11.3796   98.4982 O   0  0  0  0  0  0  0  0  0  0  0  0
   94.8309   10.2852   98.5597 C   0  0  2  0  0  0  0  0  0  0  0  0
   96.2251   11.0651  103.4467 N   0  0  0  0  0  0  0  0  0  0  0  0
   94.9867   11.2295  102.9116 C   0  0  0  0  0  0  0  0  0  0  0  0
   94.8386   10.9639  101.6193 N   0  0  0  0  0  0  0  0  0  0  0  0
   95.8465   10.6054  100.7956 C   0  0  0  0  0  0  0  0  0  0  0  0
   97.1465   10.4243  101.3143 C   0  0  0  0  0  0  0  0  0  0  0  0
   97.2909   10.6921  102.7131 C   0  0  0  0  0  0  0  0  0  0  0  0
   98.5748   10.5575  103.3191 N   0  0  0  0  0  0  0  0  0  0  0  0
   97.8853   10.0460  100.3310 N   0  0  0  0  0  0  0  0  0  0  0  0
   97.1376    9.9563   99.2448 C   0  0  0  0  0  0  0  0  0  0  0  0
   95.9252   10.3034   99.4915 N   0  0  0  0  0  0  0  0  0  0  0  0
  1 24  1  0  0  0  0
  1  4  2  0  0  0  0
  2 13  1  0  0  0  0
  2 21  1  0  0  0  0
  3 16  1  0  0  0  0
  4 18  1  0  0  0  0
  5 19  2  0  0  0  0
  5 16  1  0  0  0  0
  6 16  2  0  0  0  0
  6 17  1  0  0  0  0
  7 17  1  0  0  0  0
 11 25  2  0  0  0  0
 12 26  2  0  0  0  0
 13 25  1  0  0  0  0
 14 23  1  0  0  0  0
 15 26  1  0  0  0  0
 17 18  2  0  0  0  0
 18 19  1  0  0  0  0
 19 24  1  0  0  0  0
 20 10  1  6  0  0  0
 20 22  1  0  0  0  0
 20 23  1  0  0  0  0
 21 14  1  1  0  0  0
 21 22  1  0  0  0  0
 22 15  1  6  0  0  0
 23 24  1  1  0  0  0
 25  8  1  6  0  0  0
 25 32  1  0  0  0  0
 26  9  1  6  0  0  0
 26 28  1  0  0  0  0
 27 28  1  0  0  0  0
 29 27  1  6  0  0  0
 29 30  1  0  0  0  0
 29 31  1  0  0  0  0
 30 35  1  0  0  0  0
 31 33  1  0  0  0  0
 31 32  1  6  0  0  0
 33 34  1  6  0  0  0
 33 35  1  0  0  0  0
 35 45  1  1  0  0  0
 36 41  2  0  0  0  0
 36 37  1  0  0  0  0
 37 38  2  0  0  0  0
 38 39  1  0  0  0  0
 39 40  2  0  0  0  0
 39 45  1  0  0  0  0
 40 41  1  0  0  0  0
 40 43  1  0  0  0  0
 41 42  1  0  0  0  0
 43 44  2  0  0  0  0
 44 45  1  0  0  0  0
M  CHG  4   8  -1   9  -1  11  -1  12  -1
M  END
>  <CHROM.1>
-14.60664499,-174.54589721,96.77916925,13.27271687,97.54713615,-1.07347612
0.67042794,2.01116791

>  <Name>
ligand

>  <RI>
0

>  <Rbt.Current_Directory>
/home/itssahil/PROJECTS/Mol_Feturizer/New_Systems/rnas/4YAZ

>  <Rbt.Executable>
rbdock ($Id: //depot/dev/client3/rdock/2013.1/src/exe/rbdock.cxx#4 $)

>  <Rbt.Library>
libRbt.so (2013.1, Build901 2013/11/27)

>  <Rbt.Parameter_File>
/export/apps/rDock/src/rDock_2013.1_src/data/scripts/dock_solv.prm

>  <Rbt.Receptor>
prm/pocket_docking_2.prm

>  <SCORE>
-45.458

>  <SCORE.INTER>
-45.4897

>  <SCORE.INTER.CONST>
1

>  <SCORE.INTER.POLAR>
0

>  <SCORE.INTER.ROT>
2

>  <SCORE.INTER.SOLV>
45.4327

>  <SCORE.INTER.VDW>
-50.404

>  <SCORE.INTER.norm>
-1.01088

>  <SCORE.INTRA>
0.0317025

>  <SCORE.INTRA.DIHEDRAL>
0.0280791

>  <SCORE.INTRA.DIHEDRAL.0>
2.39103

>  <SCORE.INTRA.POLAR>
0

>  <SCORE.INTRA.POLAR.0>
0

>  <SCORE.INTRA.REPUL>
0

>  <SCORE.INTRA.REPUL.0>
0

>  <SCORE.INTRA.SOLV>
-0.000429856

>  <SCORE.INTRA.SOLV.lig_0>
-163.975

>  <SCORE.INTRA.VDW>
0.0178779

>  <SCORE.INTRA.VDW.0>
-1.49176

>  <SCORE.INTRA.norm>
0.000704501

>  <SCORE.RESTR>
0

>  <SCORE.RESTR.CAVITY>
0

>  <SCORE.RESTR.norm>
0

>  <SCORE.SYSTEM>
0

>  <SCORE.SYSTEM.CONST>
0

>  <SCORE.SYSTEM.DIHEDRAL>
0

>  <SCORE.SYSTEM.SOLV>
0

>  <SCORE.SYSTEM.norm>
0

>  <SCORE.heavy>
45

>  <SCORE.norm>
-1.01018

>  <RMSD>
0.519

$$$$
ligand
 OpenBabel11021811513D
libRbt.so/2013.1/901 2013/11/27
 45 51  0  0  0  0  0  0  0  0999 V2000
   97.2469   17.1013   97.2784 C   0  0  0  0  0  0  0  0  0  0  0  0
   95.0247   14.5043   94.7465 C   0  0  0  0  0  0  0  0  0  0  0  0
  102.3618   14.8973   98.4546 N   0  0  0  0  0  0  0  0  0  0  0  0
   97.5158   17.2154   98.5385 N   0  0  0  0  0  0  0  0  0  0  0  0
  100.3763   15.6203   97.4588 N   0  0  0  0  0  0  0  0  0  0  0  0
  100.6999   15.9175   99.7441 N   0  0  0  0  0  0  0  0  0  0  0  0
   99.0405   17.0180  101.0895 O   0  0  0  0  0  0  0  0  0  0  0  0
   92.2986   14.9730   96.1343 O   0  5  0  0  0  0  0  0  0  0  0  0
   98.1572   10.7144   93.7603 O   0  5  0  0  0  0  0  0  0  0  0  0
   99.3667   14.7308   93.9740 O   0  0  0  0  0  0  0  0  0  0  0  0
   93.3817   14.6178   98.0459 O   0  5  0  0  0  0  0  0  0  0  0  0
   99.2549   11.8296   95.3564 O   0  5  0  0  0  0  0  0  0  0  0  0
   94.6405   15.0810   95.9298 O   0  0  0  0  0  0  0  0  0  0  0  0
   96.8089   16.3228   94.7232 O   0  0  0  0  0  0  0  0  0  0  0  0
   97.4271   12.9619   93.9865 O   0  0  0  0  0  0  0  0  0  0  0  0
  101.0722   15.5013   98.5592 C   0  0  0  0  0  0  0  0  0  0  0  0
   99.5273   16.5216   99.8816 C   0  0  0  0  0  0  0  0  0  0  0  0
   98.7083   16.6694   98.7395 C   0  0  0  0  0  0  0  0  0  0  0  0
   99.1637   16.2173   97.5255 C   0  0  0  0  0  0  0  0  0  0  0  0
   98.5535   14.9565   95.0637 C   0  0  2  0  0  0  0  0  0  0  0  0
   96.3946   14.8879   94.3540 C   0  0  1  0  0  0  0  0  0  0  0  0
   97.2135   14.0807   94.8390 C   0  0  1  0  0  0  0  0  0  0  0  0
   98.2002   16.2099   95.2806 C   0  0  2  0  0  0  0  0  0  0  0  0
   98.1947   16.5042   96.6554 N   0  0  0  0  0  0  0  0  0  0  0  0
   93.4562   14.3658   96.6494 P   0  0  2  0  0  0  0  0  0  0  0  0
   97.9659   11.7164   94.7188 P   0  0  1  0  0  0  0  0  0  0  0  0
   95.4903   11.0611   95.2328 C   0  0  0  0  0  0  0  0  0  0  0  0
   96.8540   11.1694   95.6719 O   0  0  0  0  0  0  0  0  0  0  0  0
   94.5014   10.9197   96.3119 C   0  0  1  0  0  0  0  0  0  0  0  0
   95.0856    9.8779   97.3871 O   0  0  0  0  0  0  0  0  0  0  0  0
   94.3778   12.0078   96.9288 C   0  0  1  0  0  0  0  0  0  0  0  0
   93.3812   12.8672   96.3292 O   0  0  0  0  0  0  0  0  0  0  0  0
   94.0663   11.5881   98.3574 C   0  0  1  0  0  0  0  0  0  0  0  0
   92.8318   11.3620   98.4857 O   0  0  0  0  0  0  0  0  0  0  0  0
   94.8285   10.2759   98.5427 C   0  0  2  0  0  0  0  0  0  0  0  0
   96.2169   11.0727  103.4286 N   0  0  0  0  0  0  0  0  0  0  0  0
   94.9810   11.2431  102.8897 C   0  0  0  0  0  0  0  0  0  0  0  0
   94.8340   10.9715  101.5985 N   0  0  0  0  0  0  0  0  0  0  0  0
   95.8412   10.6011  100.7791 C   0  0  0  0  0  0  0  0  0  0  0  0
   97.1387   10.4135  101.3020 C   0  0  0  0  0  0  0  0  0  0  0  0
   97.2816   10.6880  102.6996 C   0  0  0  0  0  0  0  0  0  0  0  0
   98.5632   10.5475  103.3094 N   0  0  0  0  0  0  0  0  0  0  0  0
   97.8770   10.0244  100.3225 N   0  0  0  0  0  0  0  0  0  0  0  0
   97.1312    9.9341   99.2350 C   0  0  0  0  0  0  0  0  0  0  0  0
   95.9207   10.2914   99.4769 N   0  0  0  0  0  0  0  0  0  0  0  0
  1 24  1  0  0  0  0
  1  4  2  0  0  0  0
  2 13  1  0  0  0  0
  2 21  1  0  0  0  0
  3 16  1  0  0  0  0
  4 18  1  0  0  0  0
  5 19  2  0  0  0  0
  5 16  1  0  0  0  0
  6 16  2  0  0  0  0
  6 17  1  0  0  0  0
  7 17  1  0  0  0  0
 11 25  2  0  0  0  0
 12 26  2  0  0  0  0
 13 25  1  0  0  0  0
 14 23  1  0  0  0  0
 15 26  1  0  0  0  0
 17 18  2  0  0  0  0
 18 19  1  0  0  0  0
 19 24  1  0  0  0  0
 20 10  1  6  0  0  0
 20 22  1  0  0  0  0
 20 23  1  0  0  0  0
 21 14  1  1  0  0  0
 21 22  1  0  0  0  0
 22 15  1  6  0  0  0
 23 24  1  1  0  0  0
 25  8  1  6  0  0  0
 25 32  1  0  0  0  0
 26  9  1  6  0  0  0
 26 28  1  0  0  0  0
 27 28  1  0  0  0  0
 29 27  1  6  0  0  0
 29 30  1  0  0  0  0
 29 31  1  0  0  0  0
 30 35  1  0  0  0  0
 31 33  1  0  0  0  0
 31 32  1  6  0  0  0
 33 34  1  6  0  0  0
 33 35  1  0  0  0  0
 35 45  1  1  0  0  0
 36 41  2  0  0  0  0
 36 37  1  0  0  0  0
 37 38  2  0  0  0  0
 38 39  1  0  0  0  0
 39 40  2  0  0  0  0
 39 45  1  0  0  0  0
 40 41  1  0  0  0  0
 40 43  1  0  0  0  0
 41 42  1  0  0  0  0
 43 44  2  0  0  0  0
 44 45  1  0  0  0  0
M  CHG  4   8  -1   9  -1  11  -1  12  -1
M  END
>  <CHROM.1>
-16.37651123,-175.57745368,96.76215803,13.27563219,97.55980635,-1.09895452
0.67316915,2.01807876

>  <Name>
ligand

>  <RI>
0

>  <Rbt.Current_Directory>
/home/itssahil/PROJECTS/Mol_Feturizer/New_Systems/rnas/4YAZ

>  <Rbt.Executable>
rbdock ($Id: //depot/dev/client3/rdock/2013.1/src/exe/rbdock.cxx#4 $)

>  <Rbt.Library>
libRbt.so (2013.1, Build901 2013/11/27)

>  <Rbt.Parameter_File>
/export/apps/rDock/src/rDock_2013.1_src/data/scripts/dock_solv.prm

>  <Rbt.Receptor>
prm/pocket_docking_2.prm

>  <SCORE>
-45.4173

>  <SCORE.INTER>
-45.4925

>  <SCORE.INTER.CONST>
1

>  <SCORE.INTER.POLAR>
0

>  <SCORE.INTER.ROT>
2

>  <SCORE.INTER.SOLV>
45.2377

>  <SCORE.INTER.VDW>
-50.3409

>  <SCORE.INTER.norm>
-1.01094

>  <SCORE.INTRA>
0.0748695

>  <SCORE.INTRA.DIHEDRAL>
0.0204168

>  <SCORE.INTRA.DIHEDRAL.0>
2.39103

>  <SCORE.INTRA.POLAR>
0

>  <SCORE.INTRA.POLAR.0>
0

>  <SCORE.INTRA.REPUL>
0

>  <SCORE.INTRA.REPUL.0>
0

>  <SCORE.INTRA.SOLV>
0.00333457

>  <SCORE.INTRA.SOLV.lig_0>
-163.975

>  <SCORE.INTRA.VDW>
0.0629938

>  <SCORE.INTRA.VDW.0>
-1.49176

>  <SCORE.INTRA.norm>
0.00166377

>  <SCORE.RESTR>
0.000361195

>  <SCORE.RESTR.CAVITY>
0.000361195

>  <SCORE.RESTR.norm>
8.02656e-06

>  <SCORE.SYSTEM>
0

>  <SCORE.SYSTEM.CONST>
0

>  <SCORE.SYSTEM.DIHEDRAL>
0

>  <SCORE.SYSTEM.SOLV>
0

>  <SCORE.SYSTEM.norm>
0

>  <SCORE.heavy>
45

>  <SCORE.norm>
-1.00927

>  <RMSD>
0.521

$$$$
ligand
 OpenBabel11021811513D
libRbt.so/2013.1/901 2013/11/27
 45 51  0  0  0  0  0  0  0  0999 V2000
   97.2511   17.0498   97.2385 C   0  0  0  0  0  0  0  0  0  0  0  0
   95.0222   14.4790   94.7255 C   0  0  0  0  0  0  0  0  0  0  0  0
  102.4290   14.9892   98.3987 N   0  0  0  0  0  0  0  0  0  0  0  0
   97.5261   17.1838   98.4953 N   0  0  0  0  0  0  0  0  0  0  0  0
  100.4186   15.6510   97.4104 N   0  0  0  0  0  0  0  0  0  0  0  0
  100.7510   15.9800   99.6901 N   0  0  0  0  0  0  0  0  0  0  0  0
   99.0739   17.0518  101.0366 O   0  0  0  0  0  0  0  0  0  0  0  0
   92.3001   14.9855   96.1081 O   0  5  0  0  0  0  0  0  0  0  0  0
   98.1217   10.6522   93.7785 O   0  5  0  0  0  0  0  0  0  0  0  0
   99.3660   14.6599   93.9515 O   0  0  0  0  0  0  0  0  0  0  0  0
   93.3800   14.6405   98.0233 O   0  5  0  0  0  0  0  0  0  0  0  0
   99.2289   11.7740   95.3633 O   0  5  0  0  0  0  0  0  0  0  0  0
   94.6430   15.0711   95.9028 O   0  0  0  0  0  0  0  0  0  0  0  0
   96.8221   16.2816   94.6840 O   0  0  0  0  0  0  0  0  0  0  0  0
   97.4112   12.9081   93.9817 O   0  0  0  0  0  0  0  0  0  0  0  0
  101.1253   15.5612   98.5067 C   0  0  0  0  0  0  0  0  0  0  0  0
   99.5644   16.5555   99.8303 C   0  0  0  0  0  0  0  0  0  0  0  0
   98.7336   16.6705   98.6928 C   0  0  0  0  0  0  0  0  0  0  0  0
   99.1916   16.2175   97.4802 C   0  0  0  0  0  0  0  0  0  0  0  0
   98.5547   14.9038   95.0387 C   0  0  2  0  0  0  0  0  0  0  0  0
   96.3954   14.8467   94.3294 C   0  0  1  0  0  0  0  0  0  0  0  0
   97.2072   14.0374   94.8227 C   0  0  1  0  0  0  0  0  0  0  0  0
   98.2124   16.1623   95.2428 C   0  0  2  0  0  0  0  0  0  0  0  0
   98.2093   16.4707   96.6145 N   0  0  0  0  0  0  0  0  0  0  0  0
   93.4524   14.3735   96.6295 P   0  0  2  0  0  0  0  0  0  0  0  0
   97.9391   11.6655   94.7268 P   0  0  1  0  0  0  0  0  0  0  0  0
   95.4578   11.0370   95.2470 C   0  0  0  0  0  0  0  0  0  0  0  0
   96.8223   11.1380   95.6851 O   0  0  0  0  0  0  0  0  0  0  0  0
   94.4676   10.9152   96.3273 C   0  0  1  0  0  0  0  0  0  0  0  0
   95.0426    9.8794   97.4132 O   0  0  0  0  0  0  0  0  0  0  0  0
   94.3535   12.0106   96.9331 C   0  0  1  0  0  0  0  0  0  0  0  0
   93.3644   12.8725   96.3246 O   0  0  0  0  0  0  0  0  0  0  0  0
   94.0382   11.6082   98.3658 C   0  0  1  0  0  0  0  0  0  0  0  0
   92.8017   11.3941   98.4962 O   0  0  0  0  0  0  0  0  0  0  0  0
   94.7889   10.2914   98.5646 C   0  0  2  0  0  0  0  0  0  0  0  0
   96.1743   11.0692  103.4544 N   0  0  0  0  0  0  0  0  0  0  0  0
   94.9376   11.2368  102.9165 C   0  0  0  0  0  0  0  0  0  0  0  0
   94.7917   10.9712  101.6239 N   0  0  0  0  0  0  0  0  0  0  0  0
   95.8004   10.6095  100.8026 C   0  0  0  0  0  0  0  0  0  0  0  0
   97.0988   10.4250  101.3243 C   0  0  0  0  0  0  0  0  0  0  0  0
   97.2407   10.6929  102.7234 C   0  0  0  0  0  0  0  0  0  0  0  0
   98.5229   10.5549  103.3323 N   0  0  0  0  0  0  0  0  0  0  0  0
   97.8387   10.0443  100.3428 N   0  0  0  0  0  0  0  0  0  0  0  0
   97.0932    9.9562   99.2550 C   0  0  0  0  0  0  0  0  0  0  0  0
   95.8812   10.3069   99.4988 N   0  0  0  0  0  0  0  0  0  0  0  0
  1 24  1  0  0  0  0
  1  4  2  0  0  0  0
  2 13  1  0  0  0  0
  2 21  1  0  0  0  0
  3 16  1  0  0  0  0
  4 18  1  0  0  0  0
  5 19  2  0  0  0  0
  5 16  1  0  0  0  0
  6 16  2  0  0  0  0
  6 17  1  0  0  0  0
  7 17  1  0  0  0  0
 11 25  2  0  0  0  0
 12 26  2  0  0  0  0
 13 25  1  0  0  0  0
 14 23  1  0  0  0  0
 15 26  1  0  0  0  0
 17 18  2  0  0  0  0
 18 19  1  0  0  0  0
 19 24  1  0  0  0  0
 20 10  1  6  0  0  0
 20 22  1  0  0  0  0
 20 23  1  0  0  0  0
 21 14  1  1  0  0  0
 21 22  1  0  0  0  0
 22 15  1  6  0  0  0
 23 24  1  1  0  0  0
 25  8  1  6  0  0  0
 25 32  1  0  0  0  0
 26  9  1  6  0  0  0
 26 28  1  0  0  0  0
 27 28  1  0  0  0  0
 29 27  1  6  0  0  0
 29 30  1  0  0  0  0
 29 31  1  0  0  0  0
 30 35  1  0  0  0  0
 31 33  1  0  0  0  0
 31 32  1  6  0  0  0
 33 34  1  6  0  0  0
 33 35  1  0  0  0  0
 35 45  1  1  0  0  0
 36 41  2  0  0  0  0
 36 37  1  0  0  0  0
 37 38  2  0  0  0  0
 38 39  1  0  0  0  0
 39 40  2  0  0  0  0
 39 45  1  0  0  0  0
 40 41  1  0  0  0  0
 40 43  1  0  0  0  0
 41 42  1  0  0  0  0
 43 44  2  0  0  0  0
 44 45  1  0  0  0  0
M  CHG  4   8  -1   9  -1  11  -1  12  -1
M  END
>  <CHROM.1>
-14.36972867,-174.42039583,96.75264166,13.26924737,97.55020369,-1.06516159
0.66788433,2.00620700

>  <Name>
ligand

>  <RI>
0

>  <Rbt.Current_Directory>
/home/itssahil/PROJECTS/Mol_Feturizer/New_Systems/rnas/4YAZ

>  <Rbt.Executable>
rbdock ($Id: //depot/dev/client3/rdock/2013.1/src/exe/rbdock.cxx#4 $)

>  <Rbt.Library>
libRbt.so (2013.1, Build901 2013/11/27)

>  <Rbt.Parameter_File>
/export/apps/rDock/src/rDock_2013.1_src/data/scripts/dock_solv.prm

>  <Rbt.Receptor>
prm/pocket_docking_2.prm

>  <SCORE>
-45.4214

>  <SCORE.INTER>
-45.4474

>  <SCORE.INTER.CONST>
1

>  <SCORE.INTER.POLAR>
0

>  <SCORE.INTER.ROT>
2

>  <SCORE.INTER.SOLV>
45.1015

>  <SCORE.INTER.VDW>
-50.2655

>  <SCORE.INTER.norm>
-1.00994

>  <SCORE.INTRA>
0.0260858

>  <SCORE.INTRA.DIHEDRAL>
0.0290139

>  <SCORE.INTRA.DIHEDRAL.0>
2.39103

>  <SCORE.INTRA.POLAR>
0

>  <SCORE.INTRA.POLAR.0>
0

>  <SCORE.INTRA.REPUL>
0

>  <SCORE.INTRA.REPUL.0>
0

>  <SCORE.INTRA.SOLV>
-0.000927956

>  <SCORE.INTRA.SOLV.lig_0>
-163.975

>  <SCORE.INTRA.VDW>
0.0120428

>  <SCORE.INTRA.VDW.0>
-1.49176

>  <SCORE.INTRA.norm>
0.000579683

>  <SCORE.RESTR>
0

>  <SCORE.RESTR.CAVITY>
0

>  <SCORE.RESTR.norm>
0

>  <SCORE.SYSTEM>
0

>  <SCORE.SYSTEM.CONST>
0

>  <SCORE.SYSTEM.DIHEDRAL>
0

>  <SCORE.SYSTEM.SOLV>
0

>  <SCORE.SYSTEM.norm>
0

>  <SCORE.heavy>
45

>  <SCORE.norm>
-1.00936

>  <RMSD>
0.522

$$$$
ligand
 OpenBabel11021811513D
libRbt.so/2013.1/901 2013/11/27
 45 51  0  0  0  0  0  0  0  0999 V2000
   97.4742   17.0195   97.3239 C   0  0  0  0  0  0  0  0  0  0  0  0
   95.1723   14.4940   94.7953 C   0  0  0  0  0  0  0  0  0  0  0  0
  102.5134   14.6604   98.5258 N   0  0  0  0  0  0  0  0  0  0  0  0
   97.7431   17.1312   98.5843 N   0  0  0  0  0  0  0  0  0  0  0  0
  100.5546   15.4410   97.5206 N   0  0  0  0  0  0  0  0  0  0  0  0
  100.8810   15.7389   99.8055 N   0  0  0  0  0  0  0  0  0  0  0  0
   99.2537   16.8980  101.1407 O   0  0  0  0  0  0  0  0  0  0  0  0
   92.4596   15.0658   96.1706 O   0  5  0  0  0  0  0  0  0  0  0  0
   98.1721   10.5908   93.8389 O   0  5  0  0  0  0  0  0  0  0  0  0
   99.5224   14.5628   94.0381 O   0  0  0  0  0  0  0  0  0  0  0  0
   93.5226   14.6818   98.0879 O   0  5  0  0  0  0  0  0  0  0  0  0
   99.3029   11.6742   95.4338 O   0  5  0  0  0  0  0  0  0  0  0  0
   94.8046   15.0898   95.9744 O   0  0  0  0  0  0  0  0  0  0  0  0
   97.0199   16.2480   94.7701 O   0  0  0  0  0  0  0  0  0  0  0  0
   97.5213   12.8638   94.0517 O   0  0  0  0  0  0  0  0  0  0  0  0
  101.2433   15.3054   98.6236 C   0  0  0  0  0  0  0  0  0  0  0  0
   99.7278   16.3806   99.9366 C   0  0  0  0  0  0  0  0  0  0  0  0
   98.9171   16.5487   98.7914 C   0  0  0  0  0  0  0  0  0  0  0  0
   99.3613   16.0764   97.5809 C   0  0  0  0  0  0  0  0  0  0  0  0
   98.7137   14.8225   95.1237 C   0  0  2  0  0  0  0  0  0  0  0  0
   96.5564   14.8269   94.4062 C   0  0  1  0  0  0  0  0  0  0  0  0
   97.3444   13.9936   94.8981 C   0  0  1  0  0  0  0  0  0  0  0  0
   98.4044   16.0886   95.3332 C   0  0  2  0  0  0  0  0  0  0  0  0
   98.4043   16.3897   96.7066 N   0  0  0  0  0  0  0  0  0  0  0  0
   93.5931   14.4205   96.6930 P   0  0  2  0  0  0  0  0  0  0  0  0
   98.0130   11.6036   94.7920 P   0  0  1  0  0  0  0  0  0  0  0  0
   95.5139   11.0389   95.2998 C   0  0  0  0  0  0  0  0  0  0  0  0
   96.8789   11.1010   95.7434 O   0  0  0  0  0  0  0  0  0  0  0  0
   94.5167   10.9379   96.3757 C   0  0  1  0  0  0  0  0  0  0  0  0
   95.0597    9.8813   97.4581 O   0  0  0  0  0  0  0  0  0  0  0  0
   94.4296   12.0327   96.9870 C   0  0  1  0  0  0  0  0  0  0  0  0
   93.4661   12.9240   96.3796 O   0  0  0  0  0  0  0  0  0  0  0  0
   94.0982   11.6313   98.4164 C   0  0  1  0  0  0  0  0  0  0  0  0
   92.8560   11.4497   98.5412 O   0  0  0  0  0  0  0  0  0  0  0  0
   94.8128   10.2939   98.6108 C   0  0  2  0  0  0  0  0  0  0  0  0
   96.2180   11.0991  103.4905 N   0  0  0  0  0  0  0  0  0  0  0  0
   94.9926   11.3152  102.9443 C   0  0  0  0  0  0  0  0  0  0  0  0
   94.8382   11.0319  101.6565 N   0  0  0  0  0  0  0  0  0  0  0  0
   95.8311   10.6065  100.8464 C   0  0  0  0  0  0  0  0  0  0  0  0
   97.1174   10.3703  101.3770 C   0  0  0  0  0  0  0  0  0  0  0  0
   97.2675   10.6582  102.7712 C   0  0  0  0  0  0  0  0  0  0  0  0
   98.5397   10.4708  103.3880 N   0  0  0  0  0  0  0  0  0  0  0  0
   97.8414    9.9356  100.4061 N   0  0  0  0  0  0  0  0  0  0  0  0
   97.0961    9.8623   99.3170 C   0  0  0  0  0  0  0  0  0  0  0  0
   95.9015   10.2751   99.5490 N   0  0  0  0  0  0  0  0  0  0  0  0
  1 24  1  0  0  0  0
  1  4  2  0  0  0  0
  2 13  1  0  0  0  0
  2 21  1  0  0  0  0
  3 16  1  0  0  0  0
  4 18  1  0  0  0  0
  5 19  2  0  0  0  0
  5 16  1  0  0  0  0
  6 16  2  0  0  0  0
  6 17  1  0  0  0  0
  7 17  1  0  0  0  0
 11 25  2  0  0  0  0
 12 26  2  0  0  0  0
 13 25  1  0  0  0  0
 14 23  1  0  0  0  0
 15 26  1  0  0  0  0
 17 18  2  0  0  0  0
 18 19  1  0  0  0  0
 19 24  1  0  0  0  0
 20 10  1  6  0  0  0
 20 22  1  0  0  0  0
 20 23  1  0  0  0  0
 21 14  1  1  0  0  0
 21 22  1  0  0  0  0
 22 15  1  6  0  0  0
 23 24  1  1  0  0  0
 25  8  1  6  0  0  0
 25 32  1  0  0  0  0
 26  9  1  6  0  0  0
 26 28  1  0  0  0  0
 27 28  1  0  0  0  0
 29 27  1  6  0  0  0
 29 30  1  0  0  0  0
 29 31  1  0  0  0  0
 30 35  1  0  0  0  0
 31 33  1  0  0  0  0
 31 32  1  6  0  0  0
 33 34  1  6  0  0  0
 33 35  1  0  0  0  0
 35 45  1  1  0  0  0
 36 41  2  0  0  0  0
 36 37  1  0  0  0  0
 37 38  2  0  0  0  0
 38 39  1  0  0  0  0
 39 40  2  0  0  0  0
 39 45  1  0  0  0  0
 40 41  1  0  0  0  0
 40 43  1  0  0  0  0
 41 42  1  0  0  0  0
 43 44  2  0  0  0  0
 44 45  1  0  0  0  0
M  CHG  4   8  -1   9  -1  11  -1  12  -1
M  END
>  <CHROM.1>
-16.15725050,-176.28154944,96.85609518,13.22203717,97.62019007,-1.07052576
0.64350614,1.99677906

>  <Name>
ligand

>  <RI>
0

>  <Rbt.Current_Directory>
/home/itssahil/PROJECTS/Mol_Feturizer/New_Systems/rnas/4YAZ

>  <Rbt.Executable>
rbdock ($Id: //depot/dev/client3/rdock/2013.1/src/exe/rbdock.cxx#4 $)

>  <Rbt.Library>
libRbt.so (2013.1, Build901 2013/11/27)

>  <Rbt.Parameter_File>
/export/apps/rDock/src/rDock_2013.1_src/data/scripts/dock_solv.prm

>  <Rbt.Receptor>
prm/pocket_docking_3.prm

>  <SCORE>
-45.7254

>  <SCORE.INTER>
-45.7966

>  <SCORE.INTER.CONST>
1

>  <SCORE.INTER.POLAR>
0

>  <SCORE.INTER.ROT>
2

>  <SCORE.INTER.SOLV>
46.6792

>  <SCORE.INTER.VDW>
-51.0241

>  <SCORE.INTER.norm>
-1.0177

>  <SCORE.INTRA>
0.0711735

>  <SCORE.INTRA.DIHEDRAL>
0.0154397

>  <SCORE.INTRA.DIHEDRAL.0>
2.39103

>  <SCORE.INTRA.POLAR>
0

>  <SCORE.INTRA.POLAR.0>
0

>  <SCORE.INTRA.REPUL>
0

>  <SCORE.INTRA.REPUL.0>
0

>  <SCORE.INTRA.SOLV>
0.0039999

>  <SCORE.INTRA.SOLV.lig_0>
-163.975

>  <SCORE.INTRA.VDW>
0.0614537

>  <SCORE.INTRA.VDW.0>
-1.49176

>  <SCORE.INTRA.norm>
0.00158163

>  <SCORE.RESTR>
0

>  <SCORE.RESTR.CAVITY>
0

>  <SCORE.RESTR.norm>
0

>  <SCORE.SYSTEM>
0

>  <SCORE.SYSTEM.CONST>
0

>  <SCORE.SYSTEM.DIHEDRAL>
0

>  <SCORE.SYSTEM.SOLV>
0

>  <SCORE.SYSTEM.norm>
0

>  <SCORE.heavy>
45

>  <SCORE.norm>
-1.01612

>  <RMSD>
0.523

$$$$
ligand
 OpenBabel11021811513D
libRbt.so/2013.1/901 2013/11/27
 45 51  0  0  0  0  0  0  0  0999 V2000
   97.4396   17.0696   97.3772 C   0  0  0  0  0  0  0  0  0  0  0  0
   95.1553   14.5230   94.8107 C   0  0  0  0  0  0  0  0  0  0  0  0
  102.3821   14.5430   98.6387 N   0  0  0  0  0  0  0  0  0  0  0  0
   97.6904   17.1608   98.6429 N   0  0  0  0  0  0  0  0  0  0  0  0
  100.4657   15.3939   97.6091 N   0  0  0  0  0  0  0  0  0  0  0  0
  100.7626   15.6597   99.9019 N   0  0  0  0  0  0  0  0  0  0  0  0
   99.1497   16.8562  101.2215 O   0  0  0  0  0  0  0  0  0  0  0  0
   92.4274   15.0675   96.1670 O   0  5  0  0  0  0  0  0  0  0  0  0
   98.1839   10.6448   93.8440 O   0  5  0  0  0  0  0  0  0  0  0  0
   99.5115   14.6217   94.0933 O   0  0  0  0  0  0  0  0  0  0  0  0
   93.4752   14.6706   98.0901 O   0  5  0  0  0  0  0  0  0  0  0  0
   99.2948   11.7186   95.4593 O   0  5  0  0  0  0  0  0  0  0  0  0
   94.7739   15.1055   95.9921 O   0  0  0  0  0  0  0  0  0  0  0  0
   96.9937   16.2868   94.8190 O   0  0  0  0  0  0  0  0  0  0  0  0
   97.5194   12.9123   94.0727 O   0  0  0  0  0  0  0  0  0  0  0  0
  101.1312   15.2264   98.7220 C   0  0  0  0  0  0  0  0  0  0  0  0
   99.6278   16.3358  100.0204 C   0  0  0  0  0  0  0  0  0  0  0  0
   98.8422   16.5400   98.8636 C   0  0  0  0  0  0  0  0  0  0  0  0
   99.2919   16.0657   97.6560 C   0  0  0  0  0  0  0  0  0  0  0  0
   98.6918   14.8667   95.1741 C   0  0  2  0  0  0  0  0  0  0  0  0
   96.5410   14.8669   94.4373 C   0  0  1  0  0  0  0  0  0  0  0  0
   97.3289   14.0329   94.9282 C   0  0  1  0  0  0  0  0  0  0  0  0
   98.3739   16.1291   95.3930 C   0  0  2  0  0  0  0  0  0  0  0  0
   98.3600   16.4170   96.7691 N   0  0  0  0  0  0  0  0  0  0  0  0
   93.5595   14.4230   96.6934 P   0  0  2  0  0  0  0  0  0  0  0  0
   98.0110   11.6475   94.8052 P   0  0  1  0  0  0  0  0  0  0  0  0
   95.5105   11.0650   95.2851 C   0  0  0  0  0  0  0  0  0  0  0  0
   96.8712   11.1300   95.7416 O   0  0  0  0  0  0  0  0  0  0  0  0
   94.5042   10.9485   96.3511 C   0  0  1  0  0  0  0  0  0  0  0  0
   95.0432    9.8844   97.4281 O   0  0  0  0  0  0  0  0  0  0  0  0
   94.4059   12.0369   96.9720 C   0  0  1  0  0  0  0  0  0  0  0  0
   93.4433   12.9290   96.3645 O   0  0  0  0  0  0  0  0  0  0  0  0
   94.0640   11.6201   98.3944 C   0  0  1  0  0  0  0  0  0  0  0  0
   92.8216   11.4308   98.5063 O   0  0  0  0  0  0  0  0  0  0  0  0
   94.7837   10.2846   98.5824 C   0  0  2  0  0  0  0  0  0  0  0  0
   96.1485   11.0848  103.4744 N   0  0  0  0  0  0  0  0  0  0  0  0
   94.9285   11.3047  102.9176 C   0  0  0  0  0  0  0  0  0  0  0  0
   94.7847   11.0220  101.6284 N   0  0  0  0  0  0  0  0  0  0  0  0
   95.7833   10.5938  100.8270 C   0  0  0  0  0  0  0  0  0  0  0  0
   97.0643   10.3537  101.3688 C   0  0  0  0  0  0  0  0  0  0  0  0
   97.2029   10.6409  102.7643 C   0  0  0  0  0  0  0  0  0  0  0  0
   98.4691   10.4496  103.3922 N   0  0  0  0  0  0  0  0  0  0  0  0
   97.7955    9.9170  100.4042 N   0  0  0  0  0  0  0  0  0  0  0  0
   97.0595    9.8461   99.3086 C   0  0  0  0  0  0  0  0  0  0  0  0
   95.8641   10.2624   99.5302 N   0  0  0  0  0  0  0  0  0  0  0  0
  1 24  1  0  0  0  0
  1  4  2  0  0  0  0
  2 13  1  0  0  0  0
  2 21  1  0  0  0  0
  3 16  1  0  0  0  0
  4 18  1  0  0  0  0
  5 19  2  0  0  0  0
  5 16  1  0  0  0  0
  6 16  2  0  0  0  0
  6 17  1  0  0  0  0
  7 17  1  0  0  0  0
 11 25  2  0  0  0  0
 12 26  2  0  0  0  0
 13 25  1  0  0  0  0
 14 23  1  0  0  0  0
 15 26  1  0  0  0  0
 17 18  2  0  0  0  0
 18 19  1  0  0  0  0
 19 24  1  0  0  0  0
 20 10  1  6  0  0  0
 20 22  1  0  0  0  0
 20 23  1  0  0  0  0
 21 14  1  1  0  0  0
 21 22  1  0  0  0  0
 22 15  1  6  0  0  0
 23 24  1  1  0  0  0
 25  8  1  6  0  0  0
 25 32  1  0  0  0  0
 26  9  1  6  0  0  0
 26 28  1  0  0  0  0
 27 28  1  0  0  0  0
 29 27  1  6  0  0  0
 29 30  1  0  0  0  0
 29 31  1  0  0  0  0
 30 35  1  0  0  0  0
 31 33  1  0  0  0  0
 31 32  1  6  0  0  0
 33 34  1  6  0  0  0
 33 35  1  0  0  0  0
 35 45  1  1  0  0  0
 36 41  2  0  0  0  0
 36 37  1  0  0  0  0
 37 38  2  0  0  0  0
 38 39  1  0  0  0  0
 39 40  2  0  0  0  0
 39 45  1  0  0  0  0
 40 41  1  0  0  0  0
 40 43  1  0  0  0  0
 41 42  1  0  0  0  0
 43 44  2  0  0  0  0
 44 45  1  0  0  0  0
M  CHG  4   8  -1   9  -1  11  -1  12  -1
M  END
>  <CHROM.1>
-18.28743207,-176.99773677,96.81542173,13.22540074,97.63983646,-1.09619188
0.64946052,2.00213185

>  <Name>
ligand

>  <RI>
0

>  <Rbt.Current_Directory>
/home/itssahil/PROJECTS/Mol_Feturizer/New_Systems/rnas/4YAZ

>  <Rbt.Executable>
rbdock ($Id: //depot/dev/client3/rdock/2013.1/src/exe/rbdock.cxx#4 $)

>  <Rbt.Library>
libRbt.so (2013.1, Build901 2013/11/27)

>  <Rbt.Parameter_File>
/export/apps/rDock/src/rDock_2013.1_src/data/scripts/dock_solv.prm

>  <Rbt.Receptor>
prm/pocket_docking_6.prm

>  <SCORE>
-45.8069

>  <SCORE.INTER>
-45.9311

>  <SCORE.INTER.CONST>
1

>  <SCORE.INTER.POLAR>
0

>  <SCORE.INTER.ROT>
2

>  <SCORE.INTER.SOLV>
46.1568

>  <SCORE.INTER.VDW>
-50.9396

>  <SCORE.INTER.norm>
-1.02069

>  <SCORE.INTRA>
0.124184

>  <SCORE.INTRA.DIHEDRAL>
0.00994094

>  <SCORE.INTRA.DIHEDRAL.0>
2.39103

>  <SCORE.INTRA.POLAR>
0

>  <SCORE.INTRA.POLAR.0>
0

>  <SCORE.INTRA.REPUL>
0

>  <SCORE.INTRA.REPUL.0>
0

>  <SCORE.INTRA.SOLV>
0.00762541

>  <SCORE.INTRA.SOLV.lig_0>
-163.975

>  <SCORE.INTRA.VDW>
0.115401

>  <SCORE.INTRA.VDW.0>
-1.49176

>  <SCORE.INTRA.norm>
0.00275964

>  <SCORE.RESTR>
0

>  <SCORE.RESTR.CAVITY>
0

>  <SCORE.RESTR.norm>
0

>  <SCORE.SYSTEM>
0

>  <SCORE.SYSTEM.CONST>
0

>  <SCORE.SYSTEM.DIHEDRAL>
0

>  <SCORE.SYSTEM.SOLV>
0

>  <SCORE.SYSTEM.norm>
0

>  <SCORE.heavy>
45

>  <SCORE.norm>
-1.01793

>  <RMSD>
0.524

$$$$
ligand
 OpenBabel11021811513D
libRbt.so/2013.1/901 2013/11/27
 45 51  0  0  0  0  0  0  0  0999 V2000
   97.4340   17.0982   97.3525 C   0  0  0  0  0  0  0  0  0  0  0  0
   95.1283   14.5372   94.8094 C   0  0  0  0  0  0  0  0  0  0  0  0
  102.3746   14.5465   98.5702 N   0  0  0  0  0  0  0  0  0  0  0  0
   97.6961   17.1872   98.6161 N   0  0  0  0  0  0  0  0  0  0  0  0
  100.4538   15.4076   97.5575 N   0  0  0  0  0  0  0  0  0  0  0  0
  100.7714   15.6701   99.8479 N   0  0  0  0  0  0  0  0  0  0  0  0
   99.1756   16.8735  101.1820 O   0  0  0  0  0  0  0  0  0  0  0  0
   92.4125   15.0706   96.1941 O   0  5  0  0  0  0  0  0  0  0  0  0
   98.1611   10.6707   93.8089 O   0  5  0  0  0  0  0  0  0  0  0  0
   99.4765   14.6523   94.0474 O   0  0  0  0  0  0  0  0  0  0  0  0
   93.4815   14.6763   98.1060 O   0  5  0  0  0  0  0  0  0  0  0  0
   99.2845   11.7476   95.4134 O   0  5  0  0  0  0  0  0  0  0  0  0
   94.7570   15.1175   95.9951 O   0  0  0  0  0  0  0  0  0  0  0  0
   96.9603   16.3076   94.8000 O   0  0  0  0  0  0  0  0  0  0  0  0
   97.4906   12.9356   94.0460 O   0  0  0  0  0  0  0  0  0  0  0  0
  101.1278   15.2359   98.6645 C   0  0  0  0  0  0  0  0  0  0  0  0
   99.6410   16.3516   99.9764 C   0  0  0  0  0  0  0  0  0  0  0  0
   98.8466   16.5606   98.8265 C   0  0  0  0  0  0  0  0  0  0  0  0
   99.2837   16.0850   97.6148 C   0  0  0  0  0  0  0  0  0  0  0  0
   98.6671   14.8936   95.1366 C   0  0  2  0  0  0  0  0  0  0  0  0
   96.5088   14.8864   94.4220 C   0  0  1  0  0  0  0  0  0  0  0  0
   97.3048   14.0550   94.9042 C   0  0  1  0  0  0  0  0  0  0  0  0
   98.3469   16.1547   95.3597 C   0  0  2  0  0  0  0  0  0  0  0  0
   98.3460   16.4416   96.7361 N   0  0  0  0  0  0  0  0  0  0  0  0
   93.5524   14.4300   96.7083 P   0  0  2  0  0  0  0  0  0  0  0  0
   97.9944   11.6722   94.7725 P   0  0  1  0  0  0  0  0  0  0  0  0
   95.5011   11.0802   95.2777 C   0  0  0  0  0  0  0  0  0  0  0  0
   96.8661   11.1498   95.7202 O   0  0  0  0  0  0  0  0  0  0  0  0
   94.5063   10.9593   96.3538 C   0  0  1  0  0  0  0  0  0  0  0  0
   95.0601    9.8964   97.4245 O   0  0  0  0  0  0  0  0  0  0  0  0
   94.4103   12.0468   96.9765 C   0  0  1  0  0  0  0  0  0  0  0  0
   93.4382   12.9358   96.3796 O   0  0  0  0  0  0  0  0  0  0  0  0
   94.0846   11.6278   98.4021 C   0  0  1  0  0  0  0  0  0  0  0  0
   92.8441   11.4339   98.5266 O   0  0  0  0  0  0  0  0  0  0  0  0
   94.8111   10.2948   98.5817 C   0  0  2  0  0  0  0  0  0  0  0  0
   96.1858   10.8951  103.4994 N   0  0  0  0  0  0  0  0  0  0  0  0
   94.9504   11.0827  102.9652 C   0  0  0  0  0  0  0  0  0  0  0  0
   94.8073   10.8639  101.6636 N   0  0  0  0  0  0  0  0  0  0  0  0
   95.8177   10.5315  100.8320 C   0  0  0  0  0  0  0  0  0  0  0  0
   97.1148   10.3277  101.3496 C   0  0  0  0  0  0  0  0  0  0  0  0
   97.2536   10.5449  102.7577 C   0  0  0  0  0  0  0  0  0  0  0  0
   98.5344   10.3844  103.3642 N   0  0  0  0  0  0  0  0  0  0  0  0
   97.8568    9.9822  100.3567 N   0  0  0  0  0  0  0  0  0  0  0  0
   97.1137    9.9337   99.2647 C   0  0  0  0  0  0  0  0  0  0  0  0
   95.9013   10.2760   99.5183 N   0  0  0  0  0  0  0  0  0  0  0  0
  1 24  1  0  0  0  0
  1  4  2  0  0  0  0
  2 13  1  0  0  0  0
  2 21  1  0  0  0  0
  3 16  1  0  0  0  0
  4 18  1  0  0  0  0
  5 19  2  0  0  0  0
  5 16  1  0  0  0  0
  6 16  2  0  0  0  0
  6 17  1  0  0  0  0
  7 17  1  0  0  0  0
 11 25  2  0  0  0  0
 12 26  2  0  0  0  0
 13 25  1  0  0  0  0
 14 23  1  0  0  0  0
 15 26  1  0  0  0  0
 17 18  2  0  0  0  0
 18 19  1  0  0  0  0
 19 24  1  0  0  0  0
 20 10  1  6  0  0  0
 20 22  1  0  0  0  0
 20 23  1  0  0  0  0
 21 14  1  1  0  0  0
 21 22  1  0  0  0  0
 22 15  1  6  0  0  0
 23 24  1  1  0  0  0
 25  8  1  6  0  0  0
 25 32  1  0  0  0  0
 26  9  1  6  0  0  0
 26 28  1  0  0  0  0
 27 28  1  0  0  0  0
 29 27  1  6  0  0  0
 29 30  1  0  0  0  0
 29 31  1  0  0  0  0
 30 35  1  0  0  0  0
 31 33  1  0  0  0  0
 31 32  1  6  0  0  0
 33 34  1  6  0  0  0
 33 35  1  0  0  0  0
 35 45  1  1  0  0  0
 36 41  2  0  0  0  0
 36 37  1  0  0  0  0
 37 38  2  0  0  0  0
 38 39  1  0  0  0  0
 39 40  2  0  0  0  0
 39 45  1  0  0  0  0
 40 41  1  0  0  0  0
 40 43  1  0  0  0  0
 41 42  1  0  0  0  0
 43 44  2  0  0  0  0
 44 45  1  0  0  0  0
M  CHG  4   8  -1   9  -1  11  -1  12  -1
M  END
>  <CHROM.1>
-18.78922016,-172.88571754,96.81823516,13.22568214,97.62363207,-1.12414254
0.64460172,2.02390828

>  <Name>
ligand

>  <RI>
0

>  <Rbt.Current_Directory>
/home/itssahil/PROJECTS/Mol_Feturizer/New_Systems/rnas/4YAZ

>  <Rbt.Executable>
rbdock ($Id: //depot/dev/client3/rdock/2013.1/src/exe/rbdock.cxx#4 $)

>  <Rbt.Library>
libRbt.so (2013.1, Build901 2013/11/27)

>  <Rbt.Parameter_File>
/export/apps/rDock/src/rDock_2013.1_src/data/scripts/dock_solv.prm

>  <Rbt.Receptor>
prm/pocket_docking_3.prm

>  <SCORE>
-45.6822

>  <SCORE.INTER>
-45.8102

>  <SCORE.INTER.CONST>
1

>  <SCORE.INTER.POLAR>
0

>  <SCORE.INTER.ROT>
2

>  <SCORE.INTER.SOLV>
46.2613

>  <SCORE.INTER.VDW>
-50.8939

>  <SCORE.INTER.norm>
-1.01801

>  <SCORE.INTRA>
0.127989

>  <SCORE.INTRA.DIHEDRAL>
0.0389298

>  <SCORE.INTRA.DIHEDRAL.0>
2.39103

>  <SCORE.INTRA.POLAR>
0

>  <SCORE.INTRA.POLAR.0>
0

>  <SCORE.INTRA.REPUL>
0

>  <SCORE.INTRA.REPUL.0>
0

>  <SCORE.INTRA.SOLV>
0.00255434

>  <SCORE.INTRA.SOLV.lig_0>
-163.975

>  <SCORE.INTRA.VDW>
0.107247

>  <SCORE.INTRA.VDW.0>
-1.49176

>  <SCORE.INTRA.norm>
0.0028442

>  <SCORE.RESTR>
0

>  <SCORE.RESTR.CAVITY>
0

>  <SCORE.RESTR.norm>
0

>  <SCORE.SYSTEM>
0

>  <SCORE.SYSTEM.CONST>
0

>  <SCORE.SYSTEM.DIHEDRAL>
0

>  <SCORE.SYSTEM.SOLV>
0

>  <SCORE.SYSTEM.norm>
0

>  <SCORE.heavy>
45

>  <SCORE.norm>
-1.01516

>  <RMSD>
0.525

$$$$
ligand
 OpenBabel11021811513D
libRbt.so/2013.1/901 2013/11/27
 45 51  0  0  0  0  0  0  0  0999 V2000
   97.2503   17.0893   97.2564 C   0  0  0  0  0  0  0  0  0  0  0  0
   95.0360   14.4935   94.7340 C   0  0  0  0  0  0  0  0  0  0  0  0
  102.3915   14.9570   98.4504 N   0  0  0  0  0  0  0  0  0  0  0  0
   97.5176   17.2166   98.5156 N   0  0  0  0  0  0  0  0  0  0  0  0
  100.3975   15.6479   97.4487 N   0  0  0  0  0  0  0  0  0  0  0  0
  100.7170   15.9670   99.7317 N   0  0  0  0  0  0  0  0  0  0  0  0
   99.0442   17.0578  101.0682 O   0  0  0  0  0  0  0  0  0  0  0  0
   92.3066   14.9812   96.1088 O   0  5  0  0  0  0  0  0  0  0  0  0
   98.1604   10.6867   93.7883 O   0  5  0  0  0  0  0  0  0  0  0  0
   99.3812   14.7011   93.9747 O   0  0  0  0  0  0  0  0  0  0  0  0
   93.3821   14.6378   98.0268 O   0  5  0  0  0  0  0  0  0  0  0  0
   99.2560   11.8111   95.3793 O   0  5  0  0  0  0  0  0  0  0  0  0
   94.6495   15.0807   95.9115 O   0  0  0  0  0  0  0  0  0  0  0  0
   96.8257   16.3065   94.7027 O   0  0  0  0  0  0  0  0  0  0  0  0
   97.4364   12.9381   93.9944 O   0  0  0  0  0  0  0  0  0  0  0  0
  101.0946   15.5461   98.5501 C   0  0  0  0  0  0  0  0  0  0  0  0
   99.5371   16.5579   99.8643 C   0  0  0  0  0  0  0  0  0  0  0  0
   98.7166   16.6867   98.7209 C   0  0  0  0  0  0  0  0  0  0  0  0
   99.1777   16.2306   97.5106 C   0  0  0  0  0  0  0  0  0  0  0  0
   98.5650   14.9377   95.0599 C   0  0  2  0  0  0  0  0  0  0  0  0
   96.4084   14.8700   94.3434 C   0  0  1  0  0  0  0  0  0  0  0  0
   97.2231   14.0642   94.8374 C   0  0  1  0  0  0  0  0  0  0  0  0
   98.2148   16.1938   95.2658 C   0  0  2  0  0  0  0  0  0  0  0  0
   98.2054   16.4989   96.6382 N   0  0  0  0  0  0  0  0  0  0  0  0
   93.4606   14.3746   96.6326 P   0  0  2  0  0  0  0  0  0  0  0  0
   97.9689   11.6968   94.7383 P   0  0  1  0  0  0  0  0  0  0  0  0
   95.4896   11.0529   95.2488 C   0  0  0  0  0  0  0  0  0  0  0  0
   96.8520   11.1606   95.6917 O   0  0  0  0  0  0  0  0  0  0  0  0
   94.4965   10.9229   96.3255 C   0  0  1  0  0  0  0  0  0  0  0  0
   95.0739    9.8878   97.4109 O   0  0  0  0  0  0  0  0  0  0  0  0
   94.3741   12.0161   96.9336 C   0  0  1  0  0  0  0  0  0  0  0  0
   93.3821   12.8738   96.3239 O   0  0  0  0  0  0  0  0  0  0  0  0
   94.0565   11.6086   98.3643 C   0  0  1  0  0  0  0  0  0  0  0  0
   92.8208   11.3871   98.4901 O   0  0  0  0  0  0  0  0  0  0  0  0
   94.8141   10.2956   98.5624 C   0  0  2  0  0  0  0  0  0  0  0  0
   96.1816   11.0867  103.4551 N   0  0  0  0  0  0  0  0  0  0  0  0
   94.9465   11.2510  102.9127 C   0  0  0  0  0  0  0  0  0  0  0  0
   94.8053   10.9822  101.6203 N   0  0  0  0  0  0  0  0  0  0  0  0
   95.8175   10.6205  100.8031 C   0  0  0  0  0  0  0  0  0  0  0  0
   97.1144   10.4394  101.3296 C   0  0  0  0  0  0  0  0  0  0  0  0
   97.2511   10.7107  102.7285 C   0  0  0  0  0  0  0  0  0  0  0  0
   98.5315   10.5763  103.3421 N   0  0  0  0  0  0  0  0  0  0  0  0
   97.8583   10.0578  100.3515 N   0  0  0  0  0  0  0  0  0  0  0  0
   97.1166    9.9660   99.2613 C   0  0  0  0  0  0  0  0  0  0  0  0
   95.9031   10.3151   99.5003 N   0  0  0  0  0  0  0  0  0  0  0  0
  1 24  1  0  0  0  0
  1  4  2  0  0  0  0
  2 13  1  0  0  0  0
  2 21  1  0  0  0  0
  3 16  1  0  0  0  0
  4 18  1  0  0  0  0
  5 19  2  0  0  0  0
  5 16  1  0  0  0  0
  6 16  2  0  0  0  0
  6 17  1  0  0  0  0
  7 17  1  0  0  0  0
 11 25  2  0  0  0  0
 12 26  2  0  0  0  0
 13 25  1  0  0  0  0
 14 23  1  0  0  0  0
 15 26  1  0  0  0  0
 17 18  2  0  0  0  0
 18 19  1  0  0  0  0
 19 24  1  0  0  0  0
 20 10  1  6  0  0  0
 20 22  1  0  0  0  0
 20 23  1  0  0  0  0
 21 14  1  1  0  0  0
 21 22  1  0  0  0  0
 22 15  1  6  0  0  0
 23 24  1  1  0  0  0
 25  8  1  6  0  0  0
 25 32  1  0  0  0  0
 26  9  1  6  0  0  0
 26 28  1  0  0  0  0
 27 28  1  0  0  0  0
 29 27  1  6  0  0  0
 29 30  1  0  0  0  0
 29 31  1  0  0  0  0
 30 35  1  0  0  0  0
 31 33  1  0  0  0  0
 31 32  1  6  0  0  0
 33 34  1  6  0  0  0
 33 35  1  0  0  0  0
 35 45  1  1  0  0  0
 36 41  2  0  0  0  0
 36 37  1  0  0  0  0
 37 38  2  0  0  0  0
 38 39  1  0  0  0  0
 39 40  2  0  0  0  0
 39 45  1  0  0  0  0
 40 41  1  0  0  0  0
 40 43  1  0  0  0  0
 41 42  1  0  0  0  0
 43 44  2  0  0  0  0
 44 45  1  0  0  0  0
M  CHG  4   8  -1   9  -1  11  -1  12  -1
M  END
>  <CHROM.1>
-15.48766058,-174.76799614,96.76172221,13.28291398,97.56249876,-1.08120319
0.67274423,2.00828240

>  <Name>
ligand

>  <RI>
0

>  <Rbt.Current_Directory>
/home/itssahil/PROJECTS/Mol_Feturizer/New_Systems/rnas/4YAZ

>  <Rbt.Executable>
rbdock ($Id: //depot/dev/client3/rdock/2013.1/src/exe/rbdock.cxx#4 $)

>  <Rbt.Library>
libRbt.so (2013.1, Build901 2013/11/27)

>  <Rbt.Parameter_File>
/export/apps/rDock/src/rDock_2013.1_src/data/scripts/dock_solv.prm

>  <Rbt.Receptor>
prm/pocket_docking_2.prm

>  <SCORE>
-45.4492

>  <SCORE.INTER>
-45.5021

>  <SCORE.INTER.CONST>
1

>  <SCORE.INTER.POLAR>
0

>  <SCORE.INTER.ROT>
2

>  <SCORE.INTER.SOLV>
45.2465

>  <SCORE.INTER.VDW>
-50.3502

>  <SCORE.INTER.norm>
-1.01116

>  <SCORE.INTRA>
0.052351

>  <SCORE.INTRA.DIHEDRAL>
0.0263313

>  <SCORE.INTRA.DIHEDRAL.0>
2.39103

>  <SCORE.INTRA.POLAR>
0

>  <SCORE.INTRA.POLAR.0>
0

>  <SCORE.INTRA.REPUL>
0

>  <SCORE.INTRA.REPUL.0>
0

>  <SCORE.INTRA.SOLV>
0.00106095

>  <SCORE.INTRA.SOLV.lig_0>
-163.975

>  <SCORE.INTRA.VDW>
0.0386549

>  <SCORE.INTRA.VDW.0>
-1.49176

>  <SCORE.INTRA.norm>
0.00116336

>  <SCORE.RESTR>
0.000560729

>  <SCORE.RESTR.CAVITY>
0.000560729

>  <SCORE.RESTR.norm>
1.24607e-05

>  <SCORE.SYSTEM>
0

>  <SCORE.SYSTEM.CONST>
0

>  <SCORE.SYSTEM.DIHEDRAL>
0

>  <SCORE.SYSTEM.SOLV>
0

>  <SCORE.SYSTEM.norm>
0

>  <SCORE.heavy>
45

>  <SCORE.norm>
-1.00998

>  <RMSD>
0.526

$$$$
ligand
 OpenBabel11021811513D
libRbt.so/2013.1/901 2013/11/27
 45 51  0  0  0  0  0  0  0  0999 V2000
   97.4204   17.0933   97.3567 C   0  0  0  0  0  0  0  0  0  0  0  0
   95.1417   14.5136   94.8053 C   0  0  0  0  0  0  0  0  0  0  0  0
  102.3666   14.5642   98.5983 N   0  0  0  0  0  0  0  0  0  0  0  0
   97.6761   17.1838   98.6215 N   0  0  0  0  0  0  0  0  0  0  0  0
  100.4468   15.4163   97.5764 N   0  0  0  0  0  0  0  0  0  0  0  0
  100.7524   15.6810   99.8682 N   0  0  0  0  0  0  0  0  0  0  0  0
   99.1450   16.8776  101.1944 O   0  0  0  0  0  0  0  0  0  0  0  0
   92.4165   15.0289   96.1784 O   0  5  0  0  0  0  0  0  0  0  0  0
   98.2050   10.6677   93.8187 O   0  5  0  0  0  0  0  0  0  0  0  0
   99.4922   14.6582   94.0614 O   0  0  0  0  0  0  0  0  0  0  0  0
   93.4801   14.6425   98.0948 O   0  5  0  0  0  0  0  0  0  0  0  0
   99.3143   11.7527   95.4276 O   0  5  0  0  0  0  0  0  0  0  0  0
   94.7614   15.0917   95.9892 O   0  0  0  0  0  0  0  0  0  0  0  0
   96.9615   16.2966   94.8030 O   0  0  0  0  0  0  0  0  0  0  0  0
   97.5181   12.9280   94.0523 O   0  0  0  0  0  0  0  0  0  0  0  0
  101.1164   15.2480   98.6866 C   0  0  0  0  0  0  0  0  0  0  0  0
   99.6184   16.3574   99.9912 C   0  0  0  0  0  0  0  0  0  0  0  0
   98.8284   16.5625   98.8375 C   0  0  0  0  0  0  0  0  0  0  0  0
   99.2734   16.0885   97.6280 C   0  0  0  0  0  0  0  0  0  0  0  0
   98.6766   14.8944   95.1472 C   0  0  2  0  0  0  0  0  0  0  0  0
   96.5214   14.8721   94.4236 C   0  0  1  0  0  0  0  0  0  0  0  0
   97.3210   14.0464   94.9094 C   0  0  1  0  0  0  0  0  0  0  0  0
   98.3468   16.1533   95.3685 C   0  0  2  0  0  0  0  0  0  0  0  0
   98.3382   16.4406   96.7448 N   0  0  0  0  0  0  0  0  0  0  0  0
   93.5586   14.3963   96.6975 P   0  0  2  0  0  0  0  0  0  0  0  0
   98.0274   11.6683   94.7813 P   0  0  1  0  0  0  0  0  0  0  0  0
   95.5362   11.0594   95.2762 C   0  0  0  0  0  0  0  0  0  0  0  0
   96.8988   11.1385   95.7244 O   0  0  0  0  0  0  0  0  0  0  0  0
   94.5377   10.9320   96.3482 C   0  0  1  0  0  0  0  0  0  0  0  0
   95.0943    9.8733   97.4216 O   0  0  0  0  0  0  0  0  0  0  0  0
   94.4317   12.0191   96.9701 C   0  0  1  0  0  0  0  0  0  0  0  0
   93.4561   12.9012   96.3689 O   0  0  0  0  0  0  0  0  0  0  0  0
   94.1028   11.5982   98.3945 C   0  0  1  0  0  0  0  0  0  0  0  0
   92.8632   11.3959   98.5138 O   0  0  0  0  0  0  0  0  0  0  0  0
   94.8377   10.2703   98.5776 C   0  0  2  0  0  0  0  0  0  0  0  0
   96.2478   11.1933  103.4349 N   0  0  0  0  0  0  0  0  0  0  0  0
   95.0277   11.4158  102.8795 C   0  0  0  0  0  0  0  0  0  0  0  0
   94.8707   11.0974  101.6003 N   0  0  0  0  0  0  0  0  0  0  0  0
   95.8572   10.6301  100.8056 C   0  0  0  0  0  0  0  0  0  0  0  0
   97.1379   10.3859  101.3462 C   0  0  0  0  0  0  0  0  0  0  0  0
   97.2904   10.7121  102.7317 C   0  0  0  0  0  0  0  0  0  0  0  0
   98.5577   10.5196  103.3570 N   0  0  0  0  0  0  0  0  0  0  0  0
   97.8556    9.9095  100.3904 N   0  0  0  0  0  0  0  0  0  0  0  0
   97.1113    9.8177   99.3021 C   0  0  0  0  0  0  0  0  0  0  0  0
   95.9240   10.2592   99.5187 N   0  0  0  0  0  0  0  0  0  0  0  0
  1 24  1  0  0  0  0
  1  4  2  0  0  0  0
  2 13  1  0  0  0  0
  2 21  1  0  0  0  0
  3 16  1  0  0  0  0
  4 18  1  0  0  0  0
  5 19  2  0  0  0  0
  5 16  1  0  0  0  0
  6 16  2  0  0  0  0
  6 17  1  0  0  0  0
  7 17  1  0  0  0  0
 11 25  2  0  0  0  0
 12 26  2  0  0  0  0
 13 25  1  0  0  0  0
 14 23  1  0  0  0  0
 15 26  1  0  0  0  0
 17 18  2  0  0  0  0
 18 19  1  0  0  0  0
 19 24  1  0  0  0  0
 20 10  1  6  0  0  0
 20 22  1  0  0  0  0
 20 23  1  0  0  0  0
 21 14  1  1  0  0  0
 21 22  1  0  0  0  0
 22 15  1  6  0  0  0
 23 24  1  1  0  0  0
 25  8  1  6  0  0  0
 25 32  1  0  0  0  0
 26  9  1  6  0  0  0
 26 28  1  0  0  0  0
 27 28  1  0  0  0  0
 29 27  1  6  0  0  0
 29 30  1  0  0  0  0
 29 31  1  0  0  0  0
 30 35  1  0  0  0  0
 31 33  1  0  0  0  0
 31 32  1  6  0  0  0
 33 34  1  6  0  0  0
 33 35  1  0  0  0  0
 35 45  1  1  0  0  0
 36 41  2  0  0  0  0
 36 37  1  0  0  0  0
 37 38  2  0  0  0  0
 38 39  1  0  0  0  0
 39 40  2  0  0  0  0
 39 45  1  0  0  0  0
 40 41  1  0  0  0  0
 40 43  1  0  0  0  0
 41 42  1  0  0  0  0
 43 44  2  0  0  0  0
 44 45  1  0  0  0  0
M  CHG  4   8  -1   9  -1  11  -1  12  -1
M  END
>  <CHROM.1>
-18.92560629,-179.27676906,96.83264129,13.23823360,97.62245286,-1.11528296
0.65745477,2.00457409

>  <Name>
ligand

>  <RI>
0

>  <Rbt.Current_Directory>
/home/itssahil/PROJECTS/Mol_Feturizer/New_Systems/rnas/4YAZ

>  <Rbt.Executable>
rbdock ($Id: //depot/dev/client3/rdock/2013.1/src/exe/rbdock.cxx#4 $)

>  <Rbt.Library>
libRbt.so (2013.1, Build901 2013/11/27)

>  <Rbt.Parameter_File>
/export/apps/rDock/src/rDock_2013.1_src/data/scripts/dock_solv.prm

>  <Rbt.Receptor>
prm/pocket_docking_3.prm

>  <SCORE>
-45.7353

>  <SCORE.INTER>
-45.8984

>  <SCORE.INTER.CONST>
1

>  <SCORE.INTER.POLAR>
0

>  <SCORE.INTER.ROT>
2

>  <SCORE.INTER.SOLV>
46.274

>  <SCORE.INTER.VDW>
-50.957

>  <SCORE.INTER.norm>
-1.01997

>  <SCORE.INTRA>
0.163111

>  <SCORE.INTRA.DIHEDRAL>
-0.00646886

>  <SCORE.INTRA.DIHEDRAL.0>
2.39103

>  <SCORE.INTRA.POLAR>
0

>  <SCORE.INTRA.POLAR.0>
0

>  <SCORE.INTRA.REPUL>
0

>  <SCORE.INTRA.REPUL.0>
0

>  <SCORE.INTRA.SOLV>
0.0112935

>  <SCORE.INTRA.SOLV.lig_0>
-163.975

>  <SCORE.INTRA.VDW>
0.160698

>  <SCORE.INTRA.VDW.0>
-1.49176

>  <SCORE.INTRA.norm>
0.00362468

>  <SCORE.RESTR>
0

>  <SCORE.RESTR.CAVITY>
0

>  <SCORE.RESTR.norm>
0

>  <SCORE.SYSTEM>
0

>  <SCORE.SYSTEM.CONST>
0

>  <SCORE.SYSTEM.DIHEDRAL>
0

>  <SCORE.SYSTEM.SOLV>
0

>  <SCORE.SYSTEM.norm>
0

>  <SCORE.heavy>
45

>  <SCORE.norm>
-1.01634

>  <RMSD>
0.527

$$$$
ligand
 OpenBabel11021811513D
libRbt.so/2013.1/901 2013/11/27
 45 51  0  0  0  0  0  0  0  0999 V2000
   97.4646   17.0260   97.3525 C   0  0  0  0  0  0  0  0  0  0  0  0
   95.1567   14.5191   94.8101 C   0  0  0  0  0  0  0  0  0  0  0  0
  102.4921   14.6406   98.5514 N   0  0  0  0  0  0  0  0  0  0  0  0
   97.7321   17.1311   98.6137 N   0  0  0  0  0  0  0  0  0  0  0  0
  100.5381   15.4338   97.5468 N   0  0  0  0  0  0  0  0  0  0  0  0
  100.8624   15.7205   99.8334 N   0  0  0  0  0  0  0  0  0  0  0  0
   99.2380   16.8806  101.1712 O   0  0  0  0  0  0  0  0  0  0  0  0
   92.4442   15.0947   96.1843 O   0  5  0  0  0  0  0  0  0  0  0  0
   98.1437   10.6092   93.8410 O   0  5  0  0  0  0  0  0  0  0  0  0
   99.5080   14.5755   94.0589 O   0  0  0  0  0  0  0  0  0  0  0  0
   93.5033   14.6987   98.1014 O   0  5  0  0  0  0  0  0  0  0  0  0
   99.2763   11.6817   95.4419 O   0  5  0  0  0  0  0  0  0  0  0  0
   94.7896   15.1111   95.9913 O   0  0  0  0  0  0  0  0  0  0  0  0
   97.0106   16.2665   94.7949 O   0  0  0  0  0  0  0  0  0  0  0  0
   97.5008   12.8836   94.0626 O   0  0  0  0  0  0  0  0  0  0  0  0
  101.2246   15.2905   98.6502 C   0  0  0  0  0  0  0  0  0  0  0  0
   99.7117   16.3664   99.9656 C   0  0  0  0  0  0  0  0  0  0  0  0
   98.9034   16.5428   98.8200 C   0  0  0  0  0  0  0  0  0  0  0  0
   99.3474   16.0739   97.6081 C   0  0  0  0  0  0  0  0  0  0  0  0
   98.6988   14.8334   95.1446 C   0  0  2  0  0  0  0  0  0  0  0  0
   96.5425   14.8487   94.4243 C   0  0  1  0  0  0  0  0  0  0  0  0
   97.3268   14.0104   94.9136 C   0  0  1  0  0  0  0  0  0  0  0  0
   98.3937   16.0997   95.3592 C   0  0  2  0  0  0  0  0  0  0  0  0
   98.3930   16.3949   96.7338 N   0  0  0  0  0  0  0  0  0  0  0  0
   93.5747   14.4431   96.7054 P   0  0  2  0  0  0  0  0  0  0  0  0
   97.9870   11.6185   94.7981 P   0  0  1  0  0  0  0  0  0  0  0  0
   95.4852   11.0606   95.3002 C   0  0  0  0  0  0  0  0  0  0  0  0
   96.8498   11.1159   95.7459 O   0  0  0  0  0  0  0  0  0  0  0  0
   94.4862   10.9586   96.3744 C   0  0  1  0  0  0  0  0  0  0  0  0
   95.0240    9.8954   97.4530 O   0  0  0  0  0  0  0  0  0  0  0  0
   94.4022   12.0510   96.9903 C   0  0  1  0  0  0  0  0  0  0  0  0
   93.4428   12.9484   96.3855 O   0  0  0  0  0  0  0  0  0  0  0  0
   94.0675   11.6448   98.4175 C   0  0  1  0  0  0  0  0  0  0  0  0
   92.8245   11.4670   98.5398 O   0  0  0  0  0  0  0  0  0  0  0  0
   94.7770   10.3039   98.6071 C   0  0  2  0  0  0  0  0  0  0  0  0
   96.1865   11.1186  103.4839 N   0  0  0  0  0  0  0  0  0  0  0  0
   94.9643   11.3465  102.9352 C   0  0  0  0  0  0  0  0  0  0  0  0
   94.8080   11.0581  101.6488 N   0  0  0  0  0  0  0  0  0  0  0  0
   95.7966   10.6165  100.8422 C   0  0  0  0  0  0  0  0  0  0  0  0
   97.0794   10.3677  101.3755 C   0  0  0  0  0  0  0  0  0  0  0  0
   97.2314   10.6613  102.7683 C   0  0  0  0  0  0  0  0  0  0  0  0
   98.5006   10.4621  103.3875 N   0  0  0  0  0  0  0  0  0  0  0  0
   97.7992    9.9192  100.4077 N   0  0  0  0  0  0  0  0  0  0  0  0
   97.0542    9.8489   99.3183 C   0  0  0  0  0  0  0  0  0  0  0  0
   95.8644   10.2773   99.5467 N   0  0  0  0  0  0  0  0  0  0  0  0
  1 24  1  0  0  0  0
  1  4  2  0  0  0  0
  2 13  1  0  0  0  0
  2 21  1  0  0  0  0
  3 16  1  0  0  0  0
  4 18  1  0  0  0  0
  5 19  2  0  0  0  0
  5 16  1  0  0  0  0
  6 16  2  0  0  0  0
  6 17  1  0  0  0  0
  7 17  1  0  0  0  0
 11 25  2  0  0  0  0
 12 26  2  0  0  0  0
 13 25  1  0  0  0  0
 14 23  1  0  0  0  0
 15 26  1  0  0  0  0
 17 18  2  0  0  0  0
 18 19  1  0  0  0  0
 19 24  1  0  0  0  0
 20 10  1  6  0  0  0
 20 22  1  0  0  0  0
 20 23  1  0  0  0  0
 21 14  1  1  0  0  0
 21 22  1  0  0  0  0
 22 15  1  6  0  0  0
 23 24  1  1  0  0  0
 25  8  1  6  0  0  0
 25 32  1  0  0  0  0
 26  9  1  6  0  0  0
 26 28  1  0  0  0  0
 27 28  1  0  0  0  0
 29 27  1  6  0  0  0
 29 30  1  0  0  0  0
 29 31  1  0  0  0  0
 30 35  1  0  0  0  0
 31 33  1  0  0  0  0
 31 32  1  6  0  0  0
 33 34  1  6  0  0  0
 33 35  1  0  0  0  0
 35 45  1  1  0  0  0
 36 41  2  0  0  0  0
 36 37  1  0  0  0  0
 37 38  2  0  0  0  0
 38 39  1  0  0  0  0
 39 40  2  0  0  0  0
 39 45  1  0  0  0  0
 40 41  1  0  0  0  0
 40 43  1  0  0  0  0
 41 42  1  0  0  0  0
 43 44  2  0  0  0  0
 44 45  1  0  0  0  0
M  CHG  4   8  -1   9  -1  11  -1  12  -1
M  END
>  <CHROM.1>
-16.19175257,-177.01501798,96.83262332,13.23156439,97.63121011,-1.06592153
0.64127736,1.99701296

>  <Name>
ligand

>  <RI>
0

>  <Rbt.Current_Directory>
/home/itssahil/PROJECTS/Mol_Feturizer/New_Systems/rnas/4YAZ

>  <Rbt.Executable>
rbdock ($Id: //depot/dev/client3/rdock/2013.1/src/exe/rbdock.cxx#4 $)

>  <Rbt.Library>
libRbt.so (2013.1, Build901 2013/11/27)

>  <Rbt.Parameter_File>
/export/apps/rDock/src/rDock_2013.1_src/data/scripts/dock_solv.prm

>  <Rbt.Receptor>
prm/pocket_docking_3.prm

>  <SCORE>
-45.7421

>  <SCORE.INTER>
-45.8156

>  <SCORE.INTER.CONST>
1

>  <SCORE.INTER.POLAR>
0

>  <SCORE.INTER.ROT>
2

>  <SCORE.INTER.SOLV>
46.5397

>  <SCORE.INTER.VDW>
-50.9903

>  <SCORE.INTER.norm>
-1.01812

>  <SCORE.INTRA>
0.0735321

>  <SCORE.INTRA.DIHEDRAL>
0.0101901

>  <SCORE.INTRA.DIHEDRAL.0>
2.39103

>  <SCORE.INTRA.POLAR>
0

>  <SCORE.INTRA.POLAR.0>
0

>  <SCORE.INTRA.REPUL>
0

>  <SCORE.INTRA.REPUL.0>
0

>  <SCORE.INTRA.SOLV>
0.00501579

>  <SCORE.INTRA.SOLV.lig_0>
-163.975

>  <SCORE.INTRA.VDW>
0.0659292

>  <SCORE.INTRA.VDW.0>
-1.49176

>  <SCORE.INTRA.norm>
0.00163405

>  <SCORE.RESTR>
0

>  <SCORE.RESTR.CAVITY>
0

>  <SCORE.RESTR.norm>
0

>  <SCORE.SYSTEM>
0

>  <SCORE.SYSTEM.CONST>
0

>  <SCORE.SYSTEM.DIHEDRAL>
0

>  <SCORE.SYSTEM.SOLV>
0

>  <SCORE.SYSTEM.norm>
0

>  <SCORE.heavy>
45

>  <SCORE.norm>
-1.01649

>  <RMSD>
0.527

$$$$
ligand
 OpenBabel11021811513D
libRbt.so/2013.1/901 2013/11/27
 45 51  0  0  0  0  0  0  0  0999 V2000
   97.4156   17.0675   97.3339 C   0  0  0  0  0  0  0  0  0  0  0  0
   95.1047   14.5202   94.7986 C   0  0  0  0  0  0  0  0  0  0  0  0
  102.3769   14.5597   98.5586 N   0  0  0  0  0  0  0  0  0  0  0  0
   97.6787   17.1654   98.5966 N   0  0  0  0  0  0  0  0  0  0  0  0
  100.4483   15.4008   97.5439 N   0  0  0  0  0  0  0  0  0  0  0  0
  100.7671   15.6783   99.8324 N   0  0  0  0  0  0  0  0  0  0  0  0
   99.1641   16.8769  101.1621 O   0  0  0  0  0  0  0  0  0  0  0  0
   92.3903   15.0787   96.1760 O   0  5  0  0  0  0  0  0  0  0  0  0
   98.1140   10.6289   93.8239 O   0  5  0  0  0  0  0  0  0  0  0  0
   99.4547   14.6031   94.0427 O   0  0  0  0  0  0  0  0  0  0  0  0
   93.4537   14.6880   98.0917 O   0  5  0  0  0  0  0  0  0  0  0  0
   99.2419   11.7072   95.4243 O   0  5  0  0  0  0  0  0  0  0  0  0
   94.7353   15.1093   95.9805 O   0  0  0  0  0  0  0  0  0  0  0  0
   96.9480   16.2787   94.7824 O   0  0  0  0  0  0  0  0  0  0  0  0
   97.4578   12.8993   94.0476 O   0  0  0  0  0  0  0  0  0  0  0  0
  101.1251   15.2403   98.6509 C   0  0  0  0  0  0  0  0  0  0  0  0
   99.6317   16.3520   99.9588 C   0  0  0  0  0  0  0  0  0  0  0  0
   98.8342   16.5486   98.8088 C   0  0  0  0  0  0  0  0  0  0  0  0
   99.2732   16.0697   97.5991 C   0  0  0  0  0  0  0  0  0  0  0  0
   98.6452   14.8556   95.1294 C   0  0  2  0  0  0  0  0  0  0  0  0
   96.4880   14.8584   94.4114 C   0  0  1  0  0  0  0  0  0  0  0  0
   97.2779   14.0245   94.8994 C   0  0  1  0  0  0  0  0  0  0  0  0
   98.3328   16.1199   95.3451 C   0  0  2  0  0  0  0  0  0  0  0  0
   98.3317   16.4144   96.7199 N   0  0  0  0  0  0  0  0  0  0  0  0
   93.5252   14.4336   96.6955 P   0  0  2  0  0  0  0  0  0  0  0  0
   97.9523   11.6367   94.7818 P   0  0  1  0  0  0  0  0  0  0  0  0
   95.4545   11.0635   95.2863 C   0  0  0  0  0  0  0  0  0  0  0  0
   96.8192   11.1267   95.7305 O   0  0  0  0  0  0  0  0  0  0  0  0
   94.4572   10.9549   96.3615 C   0  0  1  0  0  0  0  0  0  0  0  0
   95.0026    9.8943   97.4389 O   0  0  0  0  0  0  0  0  0  0  0  0
   94.3674   12.0464   96.9781 C   0  0  1  0  0  0  0  0  0  0  0  0
   93.4019   12.9384   96.3748 O   0  0  0  0  0  0  0  0  0  0  0  0
   94.0367   11.6373   98.4054 C   0  0  1  0  0  0  0  0  0  0  0  0
   92.7948   11.4521   98.5290 O   0  0  0  0  0  0  0  0  0  0  0  0
   94.7544   10.3007   98.5935 C   0  0  2  0  0  0  0  0  0  0  0  0
   96.1566   11.0855  103.4773 N   0  0  0  0  0  0  0  0  0  0  0  0
   94.9308   11.3015  102.9319 C   0  0  0  0  0  0  0  0  0  0  0  0
   94.7774   11.0240  101.6428 N   0  0  0  0  0  0  0  0  0  0  0  0
   95.7715   10.6049  100.8309 C   0  0  0  0  0  0  0  0  0  0  0  0
   97.0583   10.3692  101.3606 C   0  0  0  0  0  0  0  0  0  0  0  0
   97.2073   10.6506  102.7562 C   0  0  0  0  0  0  0  0  0  0  0  0
   98.4798   10.4633  103.3724 N   0  0  0  0  0  0  0  0  0  0  0  0
   97.7835    9.9410  100.3877 N   0  0  0  0  0  0  0  0  0  0  0  0
   97.0386    9.8711   99.2982 C   0  0  0  0  0  0  0  0  0  0  0  0
   95.8429   10.2800   99.5319 N   0  0  0  0  0  0  0  0  0  0  0  0
  1 24  1  0  0  0  0
  1  4  2  0  0  0  0
  2 13  1  0  0  0  0
  2 21  1  0  0  0  0
  3 16  1  0  0  0  0
  4 18  1  0  0  0  0
  5 19  2  0  0  0  0
  5 16  1  0  0  0  0
  6 16  2  0  0  0  0
  6 17  1  0  0  0  0
  7 17  1  0  0  0  0
 11 25  2  0  0  0  0
 12 26  2  0  0  0  0
 13 25  1  0  0  0  0
 14 23  1  0  0  0  0
 15 26  1  0  0  0  0
 17 18  2  0  0  0  0
 18 19  1  0  0  0  0
 19 24  1  0  0  0  0
 20 10  1  6  0  0  0
 20 22  1  0  0  0  0
 20 23  1  0  0  0  0
 21 14  1  1  0  0  0
 21 22  1  0  0  0  0
 22 15  1  6  0  0  0
 23 24  1  1  0  0  0
 25  8  1  6  0  0  0
 25 32  1  0  0  0  0
 26  9  1  6  0  0  0
 26 28  1  0  0  0  0
 27 28  1  0  0  0  0
 29 27  1  6  0  0  0
 29 30  1  0  0  0  0
 29 31  1  0  0  0  0
 30 35  1  0  0  0  0
 31 33  1  0  0  0  0
 31 32  1  6  0  0  0
 33 34  1  6  0  0  0
 33 35  1  0  0  0  0
 35 45  1  1  0  0  0
 36 41  2  0  0  0  0
 36 37  1  0  0  0  0
 37 38  2  0  0  0  0
 38 39  1  0  0  0  0
 39 40  2  0  0  0  0
 39 45  1  0  0  0  0
 40 41  1  0  0  0  0
 40 43  1  0  0  0  0
 41 42  1  0  0  0  0
 43 44  2  0  0  0  0
 44 45  1  0  0  0  0
M  CHG  4   8  -1   9  -1  11  -1  12  -1
M  END
>  <CHROM.1>
-17.97097235,-176.28348096,96.78621761,13.23004436,97.61945717,-1.10085414
0.64312942,2.00418612

>  <Name>
ligand

>  <RI>
0

>  <Rbt.Current_Directory>
/home/itssahil/PROJECTS/Mol_Feturizer/New_Systems/rnas/4YAZ

>  <Rbt.Executable>
rbdock ($Id: //depot/dev/client3/rdock/2013.1/src/exe/rbdock.cxx#4 $)

>  <Rbt.Library>
libRbt.so (2013.1, Build901 2013/11/27)

>  <Rbt.Parameter_File>
/export/apps/rDock/src/rDock_2013.1_src/data/scripts/dock_solv.prm

>  <Rbt.Receptor>
prm/pocket_docking_3.prm

>  <SCORE>
-45.7642

>  <SCORE.INTER>
-45.879

>  <SCORE.INTER.CONST>
1

>  <SCORE.INTER.POLAR>
0

>  <SCORE.INTER.ROT>
2

>  <SCORE.INTER.SOLV>
45.7908

>  <SCORE.INTER.VDW>
-50.783

>  <SCORE.INTER.norm>
-1.01953

>  <SCORE.INTRA>
0.114856

>  <SCORE.INTRA.DIHEDRAL>
0.0150995

>  <SCORE.INTRA.DIHEDRAL.0>
2.39103

>  <SCORE.INTRA.POLAR>
0

>  <SCORE.INTRA.POLAR.0>
0

>  <SCORE.INTRA.REPUL>
0

>  <SCORE.INTRA.REPUL.0>
0

>  <SCORE.INTRA.SOLV>
0.00629327

>  <SCORE.INTRA.SOLV.lig_0>
-163.975

>  <SCORE.INTRA.VDW>
0.10416

>  <SCORE.INTRA.VDW.0>
-1.49176

>  <SCORE.INTRA.norm>
0.00255236

>  <SCORE.RESTR>
0

>  <SCORE.RESTR.CAVITY>
0

>  <SCORE.RESTR.norm>
0

>  <SCORE.SYSTEM>
0

>  <SCORE.SYSTEM.CONST>
0

>  <SCORE.SYSTEM.DIHEDRAL>
0

>  <SCORE.SYSTEM.SOLV>
0

>  <SCORE.SYSTEM.norm>
0

>  <SCORE.heavy>
45

>  <SCORE.norm>
-1.01698

>  <RMSD>
0.528

$$$$
ligand
 OpenBabel11021811513D
libRbt.so/2013.1/901 2013/11/27
 45 51  0  0  0  0  0  0  0  0999 V2000
   97.4104   17.0919   97.3470 C   0  0  0  0  0  0  0  0  0  0  0  0
   95.1246   14.5288   94.7992 C   0  0  0  0  0  0  0  0  0  0  0  0
  102.3686   14.5903   98.5968 N   0  0  0  0  0  0  0  0  0  0  0  0
   97.6663   17.1888   98.6112 N   0  0  0  0  0  0  0  0  0  0  0  0
  100.4444   15.4295   97.5722 N   0  0  0  0  0  0  0  0  0  0  0  0
  100.7499   15.7051   99.8627 N   0  0  0  0  0  0  0  0  0  0  0  0
   99.1377   16.8999  101.1847 O   0  0  0  0  0  0  0  0  0  0  0  0
   92.4005   15.0690   96.1647 O   0  5  0  0  0  0  0  0  0  0  0  0
   98.1624   10.6572   93.8345 O   0  5  0  0  0  0  0  0  0  0  0  0
   99.4775   14.6394   94.0636 O   0  0  0  0  0  0  0  0  0  0  0  0
   93.4575   14.6829   98.0849 O   0  5  0  0  0  0  0  0  0  0  0  0
   99.2762   11.7408   95.4412 O   0  5  0  0  0  0  0  0  0  0  0  0
   94.7461   15.1144   95.9800 O   0  0  0  0  0  0  0  0  0  0  0  0
   96.9571   16.2987   94.7934 O   0  0  0  0  0  0  0  0  0  0  0  0
   97.4911   12.9232   94.0575 O   0  0  0  0  0  0  0  0  0  0  0  0
  101.1152   15.2689   98.6828 C   0  0  0  0  0  0  0  0  0  0  0  0
   99.6128   16.3769   99.9835 C   0  0  0  0  0  0  0  0  0  0  0  0
   98.8215   16.5736   98.8293 C   0  0  0  0  0  0  0  0  0  0  0  0
   99.2680   16.0966   97.6216 C   0  0  0  0  0  0  0  0  0  0  0  0
   98.6614   14.8857   95.1468 C   0  0  2  0  0  0  0  0  0  0  0  0
   96.5076   14.8759   94.4189 C   0  0  1  0  0  0  0  0  0  0  0  0
   97.3004   14.0464   94.9096 C   0  0  1  0  0  0  0  0  0  0  0  0
   98.3402   16.1479   95.3623 C   0  0  2  0  0  0  0  0  0  0  0  0
   98.3309   16.4408   96.7374 N   0  0  0  0  0  0  0  0  0  0  0  0
   93.5369   14.4304   96.6888 P   0  0  2  0  0  0  0  0  0  0  0  0
   97.9901   11.6629   94.7927 P   0  0  1  0  0  0  0  0  0  0  0  0
   95.4935   11.0738   95.2850 C   0  0  0  0  0  0  0  0  0  0  0  0
   96.8558   11.1450   95.7356 O   0  0  0  0  0  0  0  0  0  0  0  0
   94.4920   10.9578   96.3555 C   0  0  1  0  0  0  0  0  0  0  0  0
   95.0390    9.8996   97.4343 O   0  0  0  0  0  0  0  0  0  0  0  0
   94.3926   12.0482   96.9728 C   0  0  1  0  0  0  0  0  0  0  0  0
   93.4244   12.9348   96.3660 O   0  0  0  0  0  0  0  0  0  0  0  0
   94.0579   11.6355   98.3981 C   0  0  1  0  0  0  0  0  0  0  0  0
   92.8166   11.4424   98.5158 O   0  0  0  0  0  0  0  0  0  0  0  0
   94.7829   10.3031   98.5881 C   0  0  2  0  0  0  0  0  0  0  0  0
   96.1593   11.0988  103.4776 N   0  0  0  0  0  0  0  0  0  0  0  0
   94.9350   11.3087  102.9264 C   0  0  0  0  0  0  0  0  0  0  0  0
   94.7888   11.0294  101.6368 N   0  0  0  0  0  0  0  0  0  0  0  0
   95.7884   10.6140  100.8299 C   0  0  0  0  0  0  0  0  0  0  0  0
   97.0738   10.3845  101.3657 C   0  0  0  0  0  0  0  0  0  0  0  0
   97.2152   10.6679  102.7617 C   0  0  0  0  0  0  0  0  0  0  0  0
   98.4857   10.4869  103.3839 N   0  0  0  0  0  0  0  0  0  0  0  0
   97.8054    9.9586  100.3966 N   0  0  0  0  0  0  0  0  0  0  0  0
   97.0658    9.8844   99.3037 C   0  0  0  0  0  0  0  0  0  0  0  0
   95.8672   10.2882   99.5315 N   0  0  0  0  0  0  0  0  0  0  0  0
  1 24  1  0  0  0  0
  1  4  2  0  0  0  0
  2 13  1  0  0  0  0
  2 21  1  0  0  0  0
  3 16  1  0  0  0  0
  4 18  1  0  0  0  0
  5 19  2  0  0  0  0
  5 16  1  0  0  0  0
  6 16  2  0  0  0  0
  6 17  1  0  0  0  0
  7 17  1  0  0  0  0
 11 25  2  0  0  0  0
 12 26  2  0  0  0  0
 13 25  1  0  0  0  0
 14 23  1  0  0  0  0
 15 26  1  0  0  0  0
 17 18  2  0  0  0  0
 18 19  1  0  0  0  0
 19 24  1  0  0  0  0
 20 10  1  6  0  0  0
 20 22  1  0  0  0  0
 20 23  1  0  0  0  0
 21 14  1  1  0  0  0
 21 22  1  0  0  0  0
 22 15  1  6  0  0  0
 23 24  1  1  0  0  0
 25  8  1  6  0  0  0
 25 32  1  0  0  0  0
 26  9  1  6  0  0  0
 26 28  1  0  0  0  0
 27 28  1  0  0  0  0
 29 27  1  6  0  0  0
 29 30  1  0  0  0  0
 29 31  1  0  0  0  0
 30 35  1  0  0  0  0
 31 33  1  0  0  0  0
 31 32  1  6  0  0  0
 33 34  1  6  0  0  0
 33 35  1  0  0  0  0
 35 45  1  1  0  0  0
 36 41  2  0  0  0  0
 36 37  1  0  0  0  0
 37 38  2  0  0  0  0
 38 39  1  0  0  0  0
 39 40  2  0  0  0  0
 39 45  1  0  0  0  0
 40 41  1  0  0  0  0
 40 43  1  0  0  0  0
 41 42  1  0  0  0  0
 43 44  2  0  0  0  0
 44 45  1  0  0  0  0
M  CHG  4   8  -1   9  -1  11  -1  12  -1
M  END
>  <CHROM.1>
-18.24501012,-176.43451528,96.80044981,13.24534109,97.62668762,-1.10296871
0.65043742,2.00388507

>  <Name>
ligand

>  <RI>
0

>  <Rbt.Current_Directory>
/home/itssahil/PROJECTS/Mol_Feturizer/New_Systems/rnas/4YAZ

>  <Rbt.Executable>
rbdock ($Id: //depot/dev/client3/rdock/2013.1/src/exe/rbdock.cxx#4 $)

>  <Rbt.Library>
libRbt.so (2013.1, Build901 2013/11/27)

>  <Rbt.Parameter_File>
/export/apps/rDock/src/rDock_2013.1_src/data/scripts/dock_solv.prm

>  <Rbt.Receptor>
prm/pocket_docking_3.prm

>  <SCORE>
-45.7086

>  <SCORE.INTER>
-45.8306

>  <SCORE.INTER.CONST>
1

>  <SCORE.INTER.POLAR>
0

>  <SCORE.INTER.ROT>
2

>  <SCORE.INTER.SOLV>
46.004

>  <SCORE.INTER.VDW>
-50.8217

>  <SCORE.INTER.norm>
-1.01846

>  <SCORE.INTRA>
0.121944

>  <SCORE.INTRA.DIHEDRAL>
0.013975

>  <SCORE.INTRA.DIHEDRAL.0>
2.39103

>  <SCORE.INTRA.POLAR>
0

>  <SCORE.INTRA.POLAR.0>
0

>  <SCORE.INTRA.REPUL>
0

>  <SCORE.INTRA.REPUL.0>
0

>  <SCORE.INTRA.SOLV>
0.00682945

>  <SCORE.INTRA.SOLV.lig_0>
-163.975

>  <SCORE.INTRA.VDW>
0.111542

>  <SCORE.INTRA.VDW.0>
-1.49176

>  <SCORE.INTRA.norm>
0.00270987

>  <SCORE.RESTR>
0

>  <SCORE.RESTR.CAVITY>
0

>  <SCORE.RESTR.norm>
0

>  <SCORE.SYSTEM>
0

>  <SCORE.SYSTEM.CONST>
0

>  <SCORE.SYSTEM.DIHEDRAL>
0

>  <SCORE.SYSTEM.SOLV>
0

>  <SCORE.SYSTEM.norm>
0

>  <SCORE.heavy>
45

>  <SCORE.norm>
-1.01575

>  <RMSD>
0.528

$$$$
ligand
 OpenBabel11021811513D
libRbt.so/2013.1/901 2013/11/27
 45 51  0  0  0  0  0  0  0  0999 V2000
   97.4494   17.0889   97.3299 C   0  0  0  0  0  0  0  0  0  0  0  0
   95.1508   14.5173   94.7922 C   0  0  0  0  0  0  0  0  0  0  0  0
  102.3701   14.5282   98.6075 N   0  0  0  0  0  0  0  0  0  0  0  0
   97.7023   17.1882   98.5946 N   0  0  0  0  0  0  0  0  0  0  0  0
  100.4605   15.3879   97.5728 N   0  0  0  0  0  0  0  0  0  0  0  0
  100.7621   15.6698   99.8630 N   0  0  0  0  0  0  0  0  0  0  0  0
   99.1614   16.8917  101.1743 O   0  0  0  0  0  0  0  0  0  0  0  0
   92.4272   15.0767   96.1511 O   0  5  0  0  0  0  0  0  0  0  0  0
   98.1717   10.6270   93.8497 O   0  5  0  0  0  0  0  0  0  0  0  0
   99.5052   14.6040   94.0625 O   0  0  0  0  0  0  0  0  0  0  0  0
   93.4795   14.6943   98.0745 O   0  5  0  0  0  0  0  0  0  0  0  0
   99.2882   11.7127   95.4531 O   0  5  0  0  0  0  0  0  0  0  0  0
   94.7733   15.1101   95.9697 O   0  0  0  0  0  0  0  0  0  0  0  0
   96.9917   16.2785   94.7810 O   0  0  0  0  0  0  0  0  0  0  0  0
   97.5108   12.8972   94.0613 O   0  0  0  0  0  0  0  0  0  0  0  0
  101.1256   15.2235   98.6863 C   0  0  0  0  0  0  0  0  0  0  0  0
   99.6336   16.3570   99.9770 C   0  0  0  0  0  0  0  0  0  0  0  0
   98.8487   16.5589   98.8193 C   0  0  0  0  0  0  0  0  0  0  0  0
   99.2929   16.0706   97.6152 C   0  0  0  0  0  0  0  0  0  0  0  0
   98.6888   14.8591   95.1434 C   0  0  2  0  0  0  0  0  0  0  0  0
   96.5360   14.8562   94.4123 C   0  0  1  0  0  0  0  0  0  0  0  0
   97.3241   14.0252   94.9080 C   0  0  1  0  0  0  0  0  0  0  0  0
   98.3731   16.1238   95.3526 C   0  0  2  0  0  0  0  0  0  0  0  0
   98.3633   16.4230   96.7264 N   0  0  0  0  0  0  0  0  0  0  0  0
   93.5599   14.4351   96.6797 P   0  0  2  0  0  0  0  0  0  0  0  0
   98.0026   11.6380   94.8030 P   0  0  1  0  0  0  0  0  0  0  0  0
   95.5026   11.0629   95.2943 C   0  0  0  0  0  0  0  0  0  0  0  0
   96.8645   11.1297   95.7466 O   0  0  0  0  0  0  0  0  0  0  0  0
   94.4990   10.9566   96.3638 C   0  0  1  0  0  0  0  0  0  0  0  0
   95.0393    9.9007   97.4482 O   0  0  0  0  0  0  0  0  0  0  0  0
   94.4038   12.0502   96.9759 C   0  0  1  0  0  0  0  0  0  0  0  0
   93.4408   12.9386   96.3636 O   0  0  0  0  0  0  0  0  0  0  0  0
   94.0650   11.6456   98.4026 C   0  0  1  0  0  0  0  0  0  0  0  0
   92.8227   11.4590   98.5193 O   0  0  0  0  0  0  0  0  0  0  0  0
   94.7835   10.3107   98.5998 C   0  0  2  0  0  0  0  0  0  0  0  0
   96.1508   11.0959  103.4935 N   0  0  0  0  0  0  0  0  0  0  0  0
   94.9271   11.3054  102.9409 C   0  0  0  0  0  0  0  0  0  0  0  0
   94.7834   11.0292  101.6503 N   0  0  0  0  0  0  0  0  0  0  0  0
   95.7849   10.6173  100.8439 C   0  0  0  0  0  0  0  0  0  0  0  0
   97.0698   10.3884  101.3812 C   0  0  0  0  0  0  0  0  0  0  0  0
   97.2085   10.6684  102.7782 C   0  0  0  0  0  0  0  0  0  0  0  0
   98.4783   10.4877  103.4019 N   0  0  0  0  0  0  0  0  0  0  0  0
   97.8036    9.9661  100.4122 N   0  0  0  0  0  0  0  0  0  0  0  0
   97.0658    9.8936   99.3179 C   0  0  0  0  0  0  0  0  0  0  0  0
   95.8663   10.2950   99.5449 N   0  0  0  0  0  0  0  0  0  0  0  0
  1 24  1  0  0  0  0
  1  4  2  0  0  0  0
  2 13  1  0  0  0  0
  2 21  1  0  0  0  0
  3 16  1  0  0  0  0
  4 18  1  0  0  0  0
  5 19  2  0  0  0  0
  5 16  1  0  0  0  0
  6 16  2  0  0  0  0
  6 17  1  0  0  0  0
  7 17  1  0  0  0  0
 11 25  2  0  0  0  0
 12 26  2  0  0  0  0
 13 25  1  0  0  0  0
 14 23  1  0  0  0  0
 15 26  1  0  0  0  0
 17 18  2  0  0  0  0
 18 19  1  0  0  0  0
 19 24  1  0  0  0  0
 20 10  1  6  0  0  0
 20 22  1  0  0  0  0
 20 23  1  0  0  0  0
 21 14  1  1  0  0  0
 21 22  1  0  0  0  0
 22 15  1  6  0  0  0
 23 24  1  1  0  0  0
 25  8  1  6  0  0  0
 25 32  1  0  0  0  0
 26  9  1  6  0  0  0
 26 28  1  0  0  0  0
 27 28  1  0  0  0  0
 29 27  1  6  0  0  0
 29 30  1  0  0  0  0
 29 31  1  0  0  0  0
 30 35  1  0  0  0  0
 31 33  1  0  0  0  0
 31 32  1  6  0  0  0
 33 34  1  6  0  0  0
 33 35  1  0  0  0  0
 35 45  1  1  0  0  0
 36 41  2  0  0  0  0
 36 37  1  0  0  0  0
 37 38  2  0  0  0  0
 38 39  1  0  0  0  0
 39 40  2  0  0  0  0
 39 45  1  0  0  0  0
 40 41  1  0  0  0  0
 40 43  1  0  0  0  0
 41 42  1  0  0  0  0
 43 44  2  0  0  0  0
 44 45  1  0  0  0  0
M  CHG  4   8  -1   9  -1  11  -1  12  -1
M  END
>  <CHROM.1>
-18.73691966,-175.89109354,96.81462296,13.23461175,97.62886376,-1.10748201
0.64571636,1.99887313

>  <Name>
ligand

>  <RI>
0

>  <Rbt.Current_Directory>
/home/itssahil/PROJECTS/Mol_Feturizer/New_Systems/rnas/4YAZ

>  <Rbt.Executable>
rbdock ($Id: //depot/dev/client3/rdock/2013.1/src/exe/rbdock.cxx#4 $)

>  <Rbt.Library>
libRbt.so (2013.1, Build901 2013/11/27)

>  <Rbt.Parameter_File>
/export/apps/rDock/src/rDock_2013.1_src/data/scripts/dock_solv.prm

>  <Rbt.Receptor>
prm/pocket_docking_4.prm

>  <SCORE>
-45.757

>  <SCORE.INTER>
-45.8901

>  <SCORE.INTER.CONST>
1

>  <SCORE.INTER.POLAR>
0

>  <SCORE.INTER.ROT>
2

>  <SCORE.INTER.SOLV>
46.0317

>  <SCORE.INTER.VDW>
-50.8706

>  <SCORE.INTER.norm>
-1.01978

>  <SCORE.INTRA>
0.133068

>  <SCORE.INTRA.DIHEDRAL>
0.0177725

>  <SCORE.INTRA.DIHEDRAL.0>
2.39103

>  <SCORE.INTRA.POLAR>
0

>  <SCORE.INTRA.POLAR.0>
0

>  <SCORE.INTRA.REPUL>
0

>  <SCORE.INTRA.REPUL.0>
0

>  <SCORE.INTRA.SOLV>
0.00669441

>  <SCORE.INTRA.SOLV.lig_0>
-163.975

>  <SCORE.INTRA.VDW>
0.120834

>  <SCORE.INTRA.VDW.0>
-1.49176

>  <SCORE.INTRA.norm>
0.00295706

>  <SCORE.RESTR>
0

>  <SCORE.RESTR.CAVITY>
0

>  <SCORE.RESTR.norm>
0

>  <SCORE.SYSTEM>
0

>  <SCORE.SYSTEM.CONST>
0

>  <SCORE.SYSTEM.DIHEDRAL>
0

>  <SCORE.SYSTEM.SOLV>
0

>  <SCORE.SYSTEM.norm>
0

>  <SCORE.heavy>
45

>  <SCORE.norm>
-1.01682

>  <RMSD>
0.528

$$$$
ligand
 OpenBabel11021811513D
libRbt.so/2013.1/901 2013/11/27
 45 51  0  0  0  0  0  0  0  0999 V2000
   97.4093   17.0679   97.4075 C   0  0  0  0  0  0  0  0  0  0  0  0
   95.1493   14.5431   94.8261 C   0  0  0  0  0  0  0  0  0  0  0  0
  102.4282   14.6789   98.6349 N   0  0  0  0  0  0  0  0  0  0  0  0
   97.6638   17.1614   98.6723 N   0  0  0  0  0  0  0  0  0  0  0  0
  100.4832   15.4786   97.6180 N   0  0  0  0  0  0  0  0  0  0  0  0
  100.7838   15.7440   99.9104 N   0  0  0  0  0  0  0  0  0  0  0  0
   99.1439   16.8888  101.2426 O   0  0  0  0  0  0  0  0  0  0  0  0
   92.4188   15.0688   96.1846 O   0  5  0  0  0  0  0  0  0  0  0  0
   98.1965   10.6834   93.8433 O   0  5  0  0  0  0  0  0  0  0  0  0
   99.5050   14.6656   94.1091 O   0  0  0  0  0  0  0  0  0  0  0  0
   93.4686   14.6690   98.1060 O   0  5  0  0  0  0  0  0  0  0  0  0
   99.3022   11.7559   95.4630 O   0  5  0  0  0  0  0  0  0  0  0  0
   94.7652   15.1188   96.0099 O   0  0  0  0  0  0  0  0  0  0  0  0
   96.9793   16.3156   94.8417 O   0  0  0  0  0  0  0  0  0  0  0  0
   97.5211   12.9467   94.0814 O   0  0  0  0  0  0  0  0  0  0  0  0
  101.1587   15.3259   98.7270 C   0  0  0  0  0  0  0  0  0  0  0  0
   99.6307   16.3868  100.0370 C   0  0  0  0  0  0  0  0  0  0  0  0
   98.8338   16.5730   98.8849 C   0  0  0  0  0  0  0  0  0  0  0  0
   99.2909   16.1163   97.6732 C   0  0  0  0  0  0  0  0  0  0  0  0
   98.6842   14.9022   95.1909 C   0  0  2  0  0  0  0  0  0  0  0  0
   96.5334   14.8951   94.4541 C   0  0  1  0  0  0  0  0  0  0  0  0
   97.3253   14.0629   94.9416 C   0  0  1  0  0  0  0  0  0  0  0  0
   98.3602   16.1622   95.4150 C   0  0  2  0  0  0  0  0  0  0  0  0
   98.3450   16.4442   96.7923 N   0  0  0  0  0  0  0  0  0  0  0  0
   93.5541   14.4276   96.7083 P   0  0  2  0  0  0  0  0  0  0  0  0
   98.0188   11.6814   94.8087 P   0  0  1  0  0  0  0  0  0  0  0  0
   95.5212   11.0849   95.2861 C   0  0  0  0  0  0  0  0  0  0  0  0
   96.8815   11.1544   95.7429 O   0  0  0  0  0  0  0  0  0  0  0  0
   94.5155   10.9591   96.3515 C   0  0  1  0  0  0  0  0  0  0  0  0
   95.0595    9.8931   97.4242 O   0  0  0  0  0  0  0  0  0  0  0  0
   94.4119   12.0444   96.9770 C   0  0  1  0  0  0  0  0  0  0  0  0
   93.4450   12.9344   96.3732 O   0  0  0  0  0  0  0  0  0  0  0  0
   94.0720   11.6201   98.3977 C   0  0  1  0  0  0  0  0  0  0  0  0
   92.8305   11.4244   98.5087 O   0  0  0  0  0  0  0  0  0  0  0  0
   94.7982   10.2872   98.5802 C   0  0  2  0  0  0  0  0  0  0  0  0
   96.1596   11.0762  103.4749 N   0  0  0  0  0  0  0  0  0  0  0  0
   94.9387   11.2930  102.9188 C   0  0  0  0  0  0  0  0  0  0  0  0
   94.7960   11.0142  101.6287 N   0  0  0  0  0  0  0  0  0  0  0  0
   95.7965   10.5929  100.8258 C   0  0  0  0  0  0  0  0  0  0  0  0
   97.0784   10.3563  101.3667 C   0  0  0  0  0  0  0  0  0  0  0  0
   97.2159   10.6392  102.7632 C   0  0  0  0  0  0  0  0  0  0  0  0
   98.4829   10.4511  103.3905 N   0  0  0  0  0  0  0  0  0  0  0  0
   97.8114    9.9260  100.4006 N   0  0  0  0  0  0  0  0  0  0  0  0
   97.0757    9.8558   99.3048 C   0  0  0  0  0  0  0  0  0  0  0  0
   95.8786   10.2664   99.5278 N   0  0  0  0  0  0  0  0  0  0  0  0
  1 24  1  0  0  0  0
  1  4  2  0  0  0  0
  2 13  1  0  0  0  0
  2 21  1  0  0  0  0
  3 16  1  0  0  0  0
  4 18  1  0  0  0  0
  5 19  2  0  0  0  0
  5 16  1  0  0  0  0
  6 16  2  0  0  0  0
  6 17  1  0  0  0  0
  7 17  1  0  0  0  0
 11 25  2  0  0  0  0
 12 26  2  0  0  0  0
 13 25  1  0  0  0  0
 14 23  1  0  0  0  0
 15 26  1  0  0  0  0
 17 18  2  0  0  0  0
 18 19  1  0  0  0  0
 19 24  1  0  0  0  0
 20 10  1  6  0  0  0
 20 22  1  0  0  0  0
 20 23  1  0  0  0  0
 21 14  1  1  0  0  0
 21 22  1  0  0  0  0
 22 15  1  6  0  0  0
 23 24  1  1  0  0  0
 25  8  1  6  0  0  0
 25 32  1  0  0  0  0
 26  9  1  6  0  0  0
 26 28  1  0  0  0  0
 27 28  1  0  0  0  0
 29 27  1  6  0  0  0
 29 30  1  0  0  0  0
 29 31  1  0  0  0  0
 30 35  1  0  0  0  0
 31 33  1  0  0  0  0
 31 32  1  6  0  0  0
 33 34  1  6  0  0  0
 33 35  1  0  0  0  0
 35 45  1  1  0  0  0
 36 41  2  0  0  0  0
 36 37  1  0  0  0  0
 37 38  2  0  0  0  0
 38 39  1  0  0  0  0
 39 40  2  0  0  0  0
 39 45  1  0  0  0  0
 40 41  1  0  0  0  0
 40 43  1  0  0  0  0
 41 42  1  0  0  0  0
 43 44  2  0  0  0  0
 44 45  1  0  0  0  0
M  CHG  4   8  -1   9  -1  11  -1  12  -1
M  END
>  <CHROM.1>
-16.89528826,-177.05006625,96.81934568,13.24841449,97.64845657,-1.07584332
0.65578193,2.00616459

>  <Name>
ligand

>  <RI>
0

>  <Rbt.Current_Directory>
/home/itssahil/PROJECTS/Mol_Feturizer/New_Systems/rnas/4YAZ

>  <Rbt.Executable>
rbdock ($Id: //depot/dev/client3/rdock/2013.1/src/exe/rbdock.cxx#4 $)

>  <Rbt.Library>
libRbt.so (2013.1, Build901 2013/11/27)

>  <Rbt.Parameter_File>
/export/apps/rDock/src/rDock_2013.1_src/data/scripts/dock_solv.prm

>  <Rbt.Receptor>
prm/pocket_docking_3.prm

>  <SCORE>
-45.8286

>  <SCORE.INTER>
-45.919

>  <SCORE.INTER.CONST>
1

>  <SCORE.INTER.POLAR>
0

>  <SCORE.INTER.ROT>
2

>  <SCORE.INTER.SOLV>
46.5365

>  <SCORE.INTER.VDW>
-51.0582

>  <SCORE.INTER.norm>
-1.02042

>  <SCORE.INTRA>
0.0903315

>  <SCORE.INTRA.DIHEDRAL>
0.00980842

>  <SCORE.INTRA.DIHEDRAL.0>
2.39103

>  <SCORE.INTRA.POLAR>
0

>  <SCORE.INTRA.POLAR.0>
0

>  <SCORE.INTRA.REPUL>
0

>  <SCORE.INTRA.REPUL.0>
0

>  <SCORE.INTRA.SOLV>
0.0059648

>  <SCORE.INTRA.SOLV.lig_0>
-163.975

>  <SCORE.INTRA.VDW>
0.0824449

>  <SCORE.INTRA.VDW.0>
-1.49176

>  <SCORE.INTRA.norm>
0.00200737

>  <SCORE.RESTR>
0

>  <SCORE.RESTR.CAVITY>
0

>  <SCORE.RESTR.norm>
0

>  <SCORE.SYSTEM>
0

>  <SCORE.SYSTEM.CONST>
0

>  <SCORE.SYSTEM.DIHEDRAL>
0

>  <SCORE.SYSTEM.SOLV>
0

>  <SCORE.SYSTEM.norm>
0

>  <SCORE.heavy>
45

>  <SCORE.norm>
-1.01841

>  <RMSD>
0.529

$$$$
ligand
 OpenBabel11021811513D
libRbt.so/2013.1/901 2013/11/27
 45 51  0  0  0  0  0  0  0  0999 V2000
   97.4177   17.0680   97.3335 C   0  0  0  0  0  0  0  0  0  0  0  0
   95.1038   14.5197   94.7989 C   0  0  0  0  0  0  0  0  0  0  0  0
  102.3719   14.5462   98.5584 N   0  0  0  0  0  0  0  0  0  0  0  0
   97.6809   17.1648   98.5963 N   0  0  0  0  0  0  0  0  0  0  0  0
  100.4457   15.3928   97.5436 N   0  0  0  0  0  0  0  0  0  0  0  0
  100.7649   15.6690   99.8322 N   0  0  0  0  0  0  0  0  0  0  0  0
   99.1651   16.8717  101.1620 O   0  0  0  0  0  0  0  0  0  0  0  0
   92.3900   15.0787   96.1775 O   0  5  0  0  0  0  0  0  0  0  0  0
   98.1116   10.6277   93.8223 O   0  5  0  0  0  0  0  0  0  0  0  0
   99.4536   14.6015   94.0415 O   0  0  0  0  0  0  0  0  0  0  0  0
   93.4541   14.6872   98.0927 O   0  5  0  0  0  0  0  0  0  0  0  0
   99.2404   11.7053   95.4225 O   0  5  0  0  0  0  0  0  0  0  0  0
   94.7350   15.1086   95.9811 O   0  0  0  0  0  0  0  0  0  0  0  0
   96.9477   16.2777   94.7825 O   0  0  0  0  0  0  0  0  0  0  0  0
   97.4561   12.8982   94.0468 O   0  0  0  0  0  0  0  0  0  0  0  0
  101.1219   15.2302   98.6507 C   0  0  0  0  0  0  0  0  0  0  0  0
   99.6314   16.3457   99.9586 C   0  0  0  0  0  0  0  0  0  0  0  0
   98.8346   16.5449   98.8086 C   0  0  0  0  0  0  0  0  0  0  0  0
   99.2725   16.0650   97.5988 C   0  0  0  0  0  0  0  0  0  0  0  0
   98.6445   14.8540   95.1285 C   0  0  2  0  0  0  0  0  0  0  0  0
   96.4871   14.8575   94.4114 C   0  0  1  0  0  0  0  0  0  0  0  0
   97.2769   14.0233   94.8989 C   0  0  1  0  0  0  0  0  0  0  0  0
   98.3325   16.1183   95.3446 C   0  0  2  0  0  0  0  0  0  0  0  0
   98.3321   16.4124   96.7195 N   0  0  0  0  0  0  0  0  0  0  0  0
   93.5250   14.4331   96.6965 P   0  0  2  0  0  0  0  0  0  0  0  0
   97.9505   11.6353   94.7805 P   0  0  1  0  0  0  0  0  0  0  0  0
   95.4527   11.0627   95.2858 C   0  0  0  0  0  0  0  0  0  0  0  0
   96.8177   11.1255   95.7295 O   0  0  0  0  0  0  0  0  0  0  0  0
   94.4559   10.9542   96.3613 C   0  0  1  0  0  0  0  0  0  0  0  0
   95.0013    9.8932   97.4383 O   0  0  0  0  0  0  0  0  0  0  0  0
   94.3665   12.0456   96.9782 C   0  0  1  0  0  0  0  0  0  0  0  0
   93.4012   12.9380   96.3755 O   0  0  0  0  0  0  0  0  0  0  0  0
   94.0363   11.6363   98.4056 C   0  0  1  0  0  0  0  0  0  0  0  0
   92.7944   11.4514   98.5296 O   0  0  0  0  0  0  0  0  0  0  0  0
   94.7536   10.2994   98.5931 C   0  0  2  0  0  0  0  0  0  0  0  0
   96.1589   11.0871  103.4756 N   0  0  0  0  0  0  0  0  0  0  0  0
   94.9331   11.3041  102.9305 C   0  0  0  0  0  0  0  0  0  0  0  0
   94.7789   11.0256  101.6416 N   0  0  0  0  0  0  0  0  0  0  0  0
   95.7720   10.6045  100.8297 C   0  0  0  0  0  0  0  0  0  0  0  0
   97.0587   10.3675  101.3592 C   0  0  0  0  0  0  0  0  0  0  0  0
   97.2087   10.6501  102.7544 C   0  0  0  0  0  0  0  0  0  0  0  0
   98.4812   10.4617  103.3703 N   0  0  0  0  0  0  0  0  0  0  0  0
   97.7830    9.9374  100.3864 N   0  0  0  0  0  0  0  0  0  0  0  0
   97.0376    9.8675   99.2972 C   0  0  0  0  0  0  0  0  0  0  0  0
   95.8425   10.2782   99.5310 N   0  0  0  0  0  0  0  0  0  0  0  0
  1 24  1  0  0  0  0
  1  4  2  0  0  0  0
  2 13  1  0  0  0  0
  2 21  1  0  0  0  0
  3 16  1  0  0  0  0
  4 18  1  0  0  0  0
  5 19  2  0  0  0  0
  5 16  1  0  0  0  0
  6 16  2  0  0  0  0
  6 17  1  0  0  0  0
  7 17  1  0  0  0  0
 11 25  2  0  0  0  0
 12 26  2  0  0  0  0
 13 25  1  0  0  0  0
 14 23  1  0  0  0  0
 15 26  1  0  0  0  0
 17 18  2  0  0  0  0
 18 19  1  0  0  0  0
 19 24  1  0  0  0  0
 20 10  1  6  0  0  0
 20 22  1  0  0  0  0
 20 23  1  0  0  0  0
 21 14  1  1  0  0  0
 21 22  1  0  0  0  0
 22 15  1  6  0  0  0
 23 24  1  1  0  0  0
 25  8  1  6  0  0  0
 25 32  1  0  0  0  0
 26  9  1  6  0  0  0
 26 28  1  0  0  0  0
 27 28  1  0  0  0  0
 29 27  1  6  0  0  0
 29 30  1  0  0  0  0
 29 31  1  0  0  0  0
 30 35  1  0  0  0  0
 31 33  1  0  0  0  0
 31 32  1  6  0  0  0
 33 34  1  6  0  0  0
 33 35  1  0  0  0  0
 35 45  1  1  0  0  0
 36 41  2  0  0  0  0
 36 37  1  0  0  0  0
 37 38  2  0  0  0  0
 38 39  1  0  0  0  0
 39 40  2  0  0  0  0
 39 45  1  0  0  0  0
 40 41  1  0  0  0  0
 40 43  1  0  0  0  0
 41 42  1  0  0  0  0
 43 44  2  0  0  0  0
 44 45  1  0  0  0  0
M  CHG  4   8  -1   9  -1  11  -1  12  -1
M  END
>  <CHROM.1>
-18.11531057,-176.37347264,96.78566911,13.22805000,97.61899451,-1.10326819
0.64258064,2.00446578

>  <Name>
ligand

>  <RI>
0

>  <Rbt.Current_Directory>
/home/itssahil/PROJECTS/Mol_Feturizer/New_Systems/rnas/4YAZ

>  <Rbt.Executable>
rbdock ($Id: //depot/dev/client3/rdock/2013.1/src/exe/rbdock.cxx#4 $)

>  <Rbt.Library>
libRbt.so (2013.1, Build901 2013/11/27)

>  <Rbt.Parameter_File>
/export/apps/rDock/src/rDock_2013.1_src/data/scripts/dock_solv.prm

>  <Rbt.Receptor>
prm/pocket_docking_5.prm

>  <SCORE>
-45.7681

>  <SCORE.INTER>
-45.8867

>  <SCORE.INTER.CONST>
1

>  <SCORE.INTER.POLAR>
0

>  <SCORE.INTER.ROT>
2

>  <SCORE.INTER.SOLV>
45.765

>  <SCORE.INTER.VDW>
-50.7795

>  <SCORE.INTER.norm>
-1.0197

>  <SCORE.INTRA>
0.118606

>  <SCORE.INTRA.DIHEDRAL>
0.0144326

>  <SCORE.INTRA.DIHEDRAL.0>
2.39103

>  <SCORE.INTRA.POLAR>
0

>  <SCORE.INTRA.POLAR.0>
0

>  <SCORE.INTRA.REPUL>
0

>  <SCORE.INTRA.REPUL.0>
0

>  <SCORE.INTRA.SOLV>
0.00659007

>  <SCORE.INTRA.SOLV.lig_0>
-163.975

>  <SCORE.INTRA.VDW>
0.108095

>  <SCORE.INTRA.VDW.0>
-1.49176

>  <SCORE.INTRA.norm>
0.00263569

>  <SCORE.RESTR>
0

>  <SCORE.RESTR.CAVITY>
0

>  <SCORE.RESTR.norm>
0

>  <SCORE.SYSTEM>
0

>  <SCORE.SYSTEM.CONST>
0

>  <SCORE.SYSTEM.DIHEDRAL>
0

>  <SCORE.SYSTEM.SOLV>
0

>  <SCORE.SYSTEM.norm>
0

>  <SCORE.heavy>
45

>  <SCORE.norm>
-1.01707

>  <RMSD>
0.529

$$$$
ligand
 OpenBabel11021811513D
libRbt.so/2013.1/901 2013/11/27
 45 51  0  0  0  0  0  0  0  0999 V2000
   97.4235   17.0897   97.3349 C   0  0  0  0  0  0  0  0  0  0  0  0
   95.1278   14.5204   94.7972 C   0  0  0  0  0  0  0  0  0  0  0  0
  102.3664   14.5609   98.5901 N   0  0  0  0  0  0  0  0  0  0  0  0
   97.6802   17.1883   98.5989 N   0  0  0  0  0  0  0  0  0  0  0  0
  100.4472   15.4093   97.5638 N   0  0  0  0  0  0  0  0  0  0  0  0
  100.7549   15.6888   99.8535 N   0  0  0  0  0  0  0  0  0  0  0  0
   99.1504   16.8969  101.1728 O   0  0  0  0  0  0  0  0  0  0  0  0
   92.4061   15.0693   96.1643 O   0  5  0  0  0  0  0  0  0  0  0  0
   98.1572   10.6406   93.8390 O   0  5  0  0  0  0  0  0  0  0  0  0
   99.4800   14.6209   94.0564 O   0  0  0  0  0  0  0  0  0  0  0  0
   93.4646   14.6861   98.0842 O   0  5  0  0  0  0  0  0  0  0  0  0
   99.2748   11.7262   95.4417 O   0  5  0  0  0  0  0  0  0  0  0  0
   94.7517   15.1098   95.9769 O   0  0  0  0  0  0  0  0  0  0  0  0
   96.9636   16.2869   94.7847 O   0  0  0  0  0  0  0  0  0  0  0  0
   97.4904   12.9085   94.0569 O   0  0  0  0  0  0  0  0  0  0  0  0
  101.1173   15.2474   98.6747 C   0  0  0  0  0  0  0  0  0  0  0  0
   99.6220   16.3679   99.9728 C   0  0  0  0  0  0  0  0  0  0  0  0
   98.8316   16.5665   98.8182 C   0  0  0  0  0  0  0  0  0  0  0  0
   99.2750   16.0837   97.6116 C   0  0  0  0  0  0  0  0  0  0  0  0
   98.6656   14.8716   95.1398 C   0  0  2  0  0  0  0  0  0  0  0  0
   96.5110   14.8639   94.4143 C   0  0  1  0  0  0  0  0  0  0  0  0
   97.3027   14.0343   94.9064 C   0  0  1  0  0  0  0  0  0  0  0  0
   98.3470   16.1349   95.3524 C   0  0  2  0  0  0  0  0  0  0  0  0
   98.3398   16.4314   96.7268 N   0  0  0  0  0  0  0  0  0  0  0  0
   93.5420   14.4299   96.6887 P   0  0  2  0  0  0  0  0  0  0  0  0
   97.9878   11.6491   94.7948 P   0  0  1  0  0  0  0  0  0  0  0  0
   95.4907   11.0660   95.2914 C   0  0  0  0  0  0  0  0  0  0  0  0
   96.8536   11.1358   95.7403 O   0  0  0  0  0  0  0  0  0  0  0  0
   94.4902   10.9547   96.3633 C   0  0  1  0  0  0  0  0  0  0  0  0
   95.0363    9.8982   97.4443 O   0  0  0  0  0  0  0  0  0  0  0  0
   94.3934   12.0468   96.9779 C   0  0  1  0  0  0  0  0  0  0  0  0
   93.4263   12.9337   96.3699 O   0  0  0  0  0  0  0  0  0  0  0  0
   94.0595   11.6385   98.4047 C   0  0  1  0  0  0  0  0  0  0  0  0
   92.8181   11.4481   98.5243 O   0  0  0  0  0  0  0  0  0  0  0  0
   94.7823   10.3052   98.5974 C   0  0  2  0  0  0  0  0  0  0  0  0
   96.1609   11.0875  103.4883 N   0  0  0  0  0  0  0  0  0  0  0  0
   94.9352   11.2951  102.9392 C   0  0  0  0  0  0  0  0  0  0  0  0
   94.7887   11.0201  101.6487 N   0  0  0  0  0  0  0  0  0  0  0  0
   95.7890   10.6113  100.8392 C   0  0  0  0  0  0  0  0  0  0  0  0
   97.0757   10.3845  101.3728 C   0  0  0  0  0  0  0  0  0  0  0  0
   97.2176   10.6632  102.7698 C   0  0  0  0  0  0  0  0  0  0  0  0
   98.4894   10.4844  103.3899 N   0  0  0  0  0  0  0  0  0  0  0  0
   97.8079    9.9649  100.4014 N   0  0  0  0  0  0  0  0  0  0  0  0
   97.0674    9.8921   99.3090 C   0  0  0  0  0  0  0  0  0  0  0  0
   95.8676   10.2907   99.5396 N   0  0  0  0  0  0  0  0  0  0  0  0
  1 24  1  0  0  0  0
  1  4  2  0  0  0  0
  2 13  1  0  0  0  0
  2 21  1  0  0  0  0
  3 16  1  0  0  0  0
  4 18  1  0  0  0  0
  5 19  2  0  0  0  0
  5 16  1  0  0  0  0
  6 16  2  0  0  0  0
  6 17  1  0  0  0  0
  7 17  1  0  0  0  0
 11 25  2  0  0  0  0
 12 26  2  0  0  0  0
 13 25  1  0  0  0  0
 14 23  1  0  0  0  0
 15 26  1  0  0  0  0
 17 18  2  0  0  0  0
 18 19  1  0  0  0  0
 19 24  1  0  0  0  0
 20 10  1  6  0  0  0
 20 22  1  0  0  0  0
 20 23  1  0  0  0  0
 21 14  1  1  0  0  0
 21 22  1  0  0  0  0
 22 15  1  6  0  0  0
 23 24  1  1  0  0  0
 25  8  1  6  0  0  0
 25 32  1  0  0  0  0
 26  9  1  6  0  0  0
 26 28  1  0  0  0  0
 27 28  1  0  0  0  0
 29 27  1  6  0  0  0
 29 30  1  0  0  0  0
 29 31  1  0  0  0  0
 30 35  1  0  0  0  0
 31 33  1  0  0  0  0
 31 32  1  6  0  0  0
 33 34  1  6  0  0  0
 33 35  1  0  0  0  0
 35 45  1  1  0  0  0
 36 41  2  0  0  0  0
 36 37  1  0  0  0  0
 37 38  2  0  0  0  0
 38 39  1  0  0  0  0
 39 40  2  0  0  0  0
 39 45  1  0  0  0  0
 40 41  1  0  0  0  0
 40 43  1  0  0  0  0
 41 42  1  0  0  0  0
 43 44  2  0  0  0  0
 44 45  1  0  0  0  0
M  CHG  4   8  -1   9  -1  11  -1  12  -1
M  END
>  <CHROM.1>
-18.49359591,-175.95365193,96.80331525,13.23814818,97.62665732,-1.10801601
0.64755954,2.00311997

>  <Name>
ligand

>  <RI>
0

>  <Rbt.Current_Directory>
/home/itssahil/PROJECTS/Mol_Feturizer/New_Systems/rnas/4YAZ

>  <Rbt.Executable>
rbdock ($Id: //depot/dev/client3/rdock/2013.1/src/exe/rbdock.cxx#4 $)

>  <Rbt.Library>
libRbt.so (2013.1, Build901 2013/11/27)

>  <Rbt.Parameter_File>
/export/apps/rDock/src/rDock_2013.1_src/data/scripts/dock_solv.prm

>  <Rbt.Receptor>
prm/pocket_docking_3.prm

>  <SCORE>
-45.7534

>  <SCORE.INTER>
-45.8805

>  <SCORE.INTER.CONST>
1

>  <SCORE.INTER.POLAR>
0

>  <SCORE.INTER.ROT>
2

>  <SCORE.INTER.SOLV>
45.9974

>  <SCORE.INTER.VDW>
-50.8528

>  <SCORE.INTER.norm>
-1.01957

>  <SCORE.INTRA>
0.127113

>  <SCORE.INTRA.DIHEDRAL>
0.0173659

>  <SCORE.INTRA.DIHEDRAL.0>
2.39103

>  <SCORE.INTRA.POLAR>
0

>  <SCORE.INTRA.POLAR.0>
0

>  <SCORE.INTRA.REPUL>
0

>  <SCORE.INTRA.REPUL.0>
0

>  <SCORE.INTRA.SOLV>
0.0064865

>  <SCORE.INTRA.SOLV.lig_0>
-163.975

>  <SCORE.INTRA.VDW>
0.115187

>  <SCORE.INTRA.VDW.0>
-1.49176

>  <SCORE.INTRA.norm>
0.00282474

>  <SCORE.RESTR>
0

>  <SCORE.RESTR.CAVITY>
0

>  <SCORE.RESTR.norm>
0

>  <SCORE.SYSTEM>
0

>  <SCORE.SYSTEM.CONST>
0

>  <SCORE.SYSTEM.DIHEDRAL>
0

>  <SCORE.SYSTEM.SOLV>
0

>  <SCORE.SYSTEM.norm>
0

>  <SCORE.heavy>
45

>  <SCORE.norm>
-1.01674

>  <RMSD>
0.530

$$$$
ligand
 OpenBabel11021811513D
libRbt.so/2013.1/901 2013/11/27
 45 51  0  0  0  0  0  0  0  0999 V2000
   97.4516   17.0751   97.3438 C   0  0  0  0  0  0  0  0  0  0  0  0
   95.1422   14.5149   94.8078 C   0  0  0  0  0  0  0  0  0  0  0  0
  102.3883   14.5260   98.5824 N   0  0  0  0  0  0  0  0  0  0  0  0
   97.7117   17.1704   98.6073 N   0  0  0  0  0  0  0  0  0  0  0  0
  100.4697   15.3832   97.5623 N   0  0  0  0  0  0  0  0  0  0  0  0
  100.7839   15.6574   99.8518 N   0  0  0  0  0  0  0  0  0  0  0  0
   99.1870   16.8689  101.1772 O   0  0  0  0  0  0  0  0  0  0  0  0
   92.4256   15.0678   96.1832 O   0  5  0  0  0  0  0  0  0  0  0  0
   98.1597   10.6296   93.8344 O   0  5  0  0  0  0  0  0  0  0  0  0
   99.4927   14.6063   94.0555 O   0  0  0  0  0  0  0  0  0  0  0  0
   93.4883   14.6786   98.0996 O   0  5  0  0  0  0  0  0  0  0  0  0
   99.2842   11.7095   95.4360 O   0  5  0  0  0  0  0  0  0  0  0  0
   94.7707   15.1030   95.9895 O   0  0  0  0  0  0  0  0  0  0  0  0
   96.9823   16.2769   94.7936 O   0  0  0  0  0  0  0  0  0  0  0  0
   97.4990   12.8986   94.0582 O   0  0  0  0  0  0  0  0  0  0  0  0
  101.1419   15.2168   98.6713 C   0  0  0  0  0  0  0  0  0  0  0  0
   99.6538   16.3404   99.9750 C   0  0  0  0  0  0  0  0  0  0  0  0
   98.8614   16.5440   98.8228 C   0  0  0  0  0  0  0  0  0  0  0  0
   99.3001   16.0618   97.6142 C   0  0  0  0  0  0  0  0  0  0  0  0
   98.6818   14.8569   95.1416 C   0  0  2  0  0  0  0  0  0  0  0  0
   96.5252   14.8558   94.4219 C   0  0  1  0  0  0  0  0  0  0  0  0
   97.3163   14.0233   94.9102 C   0  0  1  0  0  0  0  0  0  0  0  0
   98.3668   16.1206   95.3574 C   0  0  2  0  0  0  0  0  0  0  0  0
   98.3641   16.4145   96.7323 N   0  0  0  0  0  0  0  0  0  0  0  0
   93.5613   14.4247   96.7034 P   0  0  2  0  0  0  0  0  0  0  0  0
   97.9953   11.6367   94.7925 P   0  0  1  0  0  0  0  0  0  0  0  0
   95.4981   11.0587   95.2947 C   0  0  0  0  0  0  0  0  0  0  0  0
   96.8624   11.1244   95.7401 O   0  0  0  0  0  0  0  0  0  0  0  0
   94.5002   10.9479   96.3691 C   0  0  1  0  0  0  0  0  0  0  0  0
   95.0467    9.8880   97.4466 O   0  0  0  0  0  0  0  0  0  0  0  0
   94.4078   12.0390   96.9860 C   0  0  1  0  0  0  0  0  0  0  0  0
   93.4412   12.9293   96.3821 O   0  0  0  0  0  0  0  0  0  0  0  0
   94.0767   11.6289   98.4129 C   0  0  1  0  0  0  0  0  0  0  0  0
   92.8351   11.4412   98.5354 O   0  0  0  0  0  0  0  0  0  0  0  0
   94.7968   10.2935   98.6011 C   0  0  2  0  0  0  0  0  0  0  0  0
   96.2074   11.1439  103.4716 N   0  0  0  0  0  0  0  0  0  0  0  0
   94.9848   11.3666  102.9218 C   0  0  0  0  0  0  0  0  0  0  0  0
   94.8282   11.0690  101.6375 N   0  0  0  0  0  0  0  0  0  0  0  0
   95.8170   10.6228  100.8335 C   0  0  0  0  0  0  0  0  0  0  0  0
   97.1003   10.3792  101.3680 C   0  0  0  0  0  0  0  0  0  0  0  0
   97.2526   10.6827  102.7587 C   0  0  0  0  0  0  0  0  0  0  0  0
   98.5222   10.4892  103.3788 N   0  0  0  0  0  0  0  0  0  0  0  0
   97.8202    9.9247  100.4031 N   0  0  0  0  0  0  0  0  0  0  0  0
   97.0748    9.8460   99.3145 C   0  0  0  0  0  0  0  0  0  0  0  0
   95.8846   10.2746   99.5404 N   0  0  0  0  0  0  0  0  0  0  0  0
  1 24  1  0  0  0  0
  1  4  2  0  0  0  0
  2 13  1  0  0  0  0
  2 21  1  0  0  0  0
  3 16  1  0  0  0  0
  4 18  1  0  0  0  0
  5 19  2  0  0  0  0
  5 16  1  0  0  0  0
  6 16  2  0  0  0  0
  6 17  1  0  0  0  0
  7 17  1  0  0  0  0
 11 25  2  0  0  0  0
 12 26  2  0  0  0  0
 13 25  1  0  0  0  0
 14 23  1  0  0  0  0
 15 26  1  0  0  0  0
 17 18  2  0  0  0  0
 18 19  1  0  0  0  0
 19 24  1  0  0  0  0
 20 10  1  6  0  0  0
 20 22  1  0  0  0  0
 20 23  1  0  0  0  0
 21 14  1  1  0  0  0
 21 22  1  0  0  0  0
 22 15  1  6  0  0  0
 23 24  1  1  0  0  0
 25  8  1  6  0  0  0
 25 32  1  0  0  0  0
 26  9  1  6  0  0  0
 26 28  1  0  0  0  0
 27 28  1  0  0  0  0
 29 27  1  6  0  0  0
 29 30  1  0  0  0  0
 29 31  1  0  0  0  0
 30 35  1  0  0  0  0
 31 33  1  0  0  0  0
 31 32  1  6  0  0  0
 33 34  1  6  0  0  0
 33 35  1  0  0  0  0
 35 45  1  1  0  0  0
 36 41  2  0  0  0  0
 36 37  1  0  0  0  0
 37 38  2  0  0  0  0
 38 39  1  0  0  0  0
 39 40  2  0  0  0  0
 39 45  1  0  0  0  0
 40 41  1  0  0  0  0
 40 43  1  0  0  0  0
 41 42  1  0  0  0  0
 43 44  2  0  0  0  0
 44 45  1  0  0  0  0
M  CHG  4   8  -1   9  -1  11  -1  12  -1
M  END
>  <CHROM.1>
-18.56630110,-177.61112355,96.82328320,13.22930100,97.62917307,-1.10819368
0.64545210,2.00141671

>  <Name>
ligand

>  <RI>
0

>  <Rbt.Current_Directory>
/home/itssahil/PROJECTS/Mol_Feturizer/New_Systems/rnas/4YAZ

>  <Rbt.Executable>
rbdock ($Id: //depot/dev/client3/rdock/2013.1/src/exe/rbdock.cxx#4 $)

>  <Rbt.Library>
libRbt.so (2013.1, Build901 2013/11/27)

>  <Rbt.Parameter_File>
/export/apps/rDock/src/rDock_2013.1_src/data/scripts/dock_solv.prm

>  <Rbt.Receptor>
prm/pocket_docking_7.prm

>  <SCORE>
-45.7835

>  <SCORE.INTER>
-45.9345

>  <SCORE.INTER.CONST>
1

>  <SCORE.INTER.POLAR>
0

>  <SCORE.INTER.ROT>
2

>  <SCORE.INTER.SOLV>
46.2284

>  <SCORE.INTER.VDW>
-50.9658

>  <SCORE.INTER.norm>
-1.02077

>  <SCORE.INTRA>
0.150975

>  <SCORE.INTRA.DIHEDRAL>
0.00550435

>  <SCORE.INTRA.DIHEDRAL.0>
2.39103

>  <SCORE.INTRA.POLAR>
0

>  <SCORE.INTRA.POLAR.0>
0

>  <SCORE.INTRA.REPUL>
0

>  <SCORE.INTRA.REPUL.0>
0

>  <SCORE.INTRA.SOLV>
0.00876096

>  <SCORE.INTRA.SOLV.lig_0>
-163.975

>  <SCORE.INTRA.VDW>
0.143842

>  <SCORE.INTRA.VDW.0>
-1.49176

>  <SCORE.INTRA.norm>
0.003355

>  <SCORE.RESTR>
0

>  <SCORE.RESTR.CAVITY>
0

>  <SCORE.RESTR.norm>
0

>  <SCORE.SYSTEM>
0

>  <SCORE.SYSTEM.CONST>
0

>  <SCORE.SYSTEM.DIHEDRAL>
0

>  <SCORE.SYSTEM.SOLV>
0

>  <SCORE.SYSTEM.norm>
0

>  <SCORE.heavy>
45

>  <SCORE.norm>
-1.01741

>  <RMSD>
0.532

$$$$
ligand
 OpenBabel11021811513D
libRbt.so/2013.1/901 2013/11/27
 45 51  0  0  0  0  0  0  0  0999 V2000
   97.4010   17.0654   97.3308 C   0  0  0  0  0  0  0  0  0  0  0  0
   95.1009   14.4869   94.8033 C   0  0  0  0  0  0  0  0  0  0  0  0
  102.3594   14.5486   98.5486 N   0  0  0  0  0  0  0  0  0  0  0  0
   97.6654   17.1618   98.5933 N   0  0  0  0  0  0  0  0  0  0  0  0
  100.4312   15.3936   97.5365 N   0  0  0  0  0  0  0  0  0  0  0  0
  100.7525   15.6687   99.8249 N   0  0  0  0  0  0  0  0  0  0  0  0
   99.1528   16.8688  101.1572 O   0  0  0  0  0  0  0  0  0  0  0  0
   92.3857   15.0174   96.1905 O   0  5  0  0  0  0  0  0  0  0  0  0
   98.1452   10.6264   93.8151 O   0  5  0  0  0  0  0  0  0  0  0  0
   99.4472   14.6135   94.0328 O   0  0  0  0  0  0  0  0  0  0  0  0
   93.4595   14.6356   98.1022 O   0  5  0  0  0  0  0  0  0  0  0  0
   99.2678   11.7145   95.4126 O   0  5  0  0  0  0  0  0  0  0  0  0
   94.7296   15.0714   95.9870 O   0  0  0  0  0  0  0  0  0  0  0  0
   96.9266   16.2636   94.7824 O   0  0  0  0  0  0  0  0  0  0  0  0
   97.4673   12.8900   94.0430 O   0  0  0  0  0  0  0  0  0  0  0  0
  101.1088   15.2311   98.6427 C   0  0  0  0  0  0  0  0  0  0  0  0
   99.6184   16.3441   99.9530 C   0  0  0  0  0  0  0  0  0  0  0  0
   98.8201   16.5430   98.8039 C   0  0  0  0  0  0  0  0  0  0  0  0
   99.2572   16.0644   97.5934 C   0  0  0  0  0  0  0  0  0  0  0  0
   98.6390   14.8571   95.1224 C   0  0  2  0  0  0  0  0  0  0  0  0
   96.4794   14.8391   94.4118 C   0  0  1  0  0  0  0  0  0  0  0  0
   97.2792   14.0127   94.8964 C   0  0  1  0  0  0  0  0  0  0  0  0
   98.3148   16.1181   95.3403 C   0  0  2  0  0  0  0  0  0  0  0  0
   98.3154   16.4113   96.7153 N   0  0  0  0  0  0  0  0  0  0  0  0
   93.5287   14.3831   96.7056 P   0  0  2  0  0  0  0  0  0  0  0  0
   97.9768   11.6317   94.7744 P   0  0  1  0  0  0  0  0  0  0  0  0
   95.4865   11.0334   95.2869 C   0  0  0  0  0  0  0  0  0  0  0  0
   96.8520   11.1098   95.7265 O   0  0  0  0  0  0  0  0  0  0  0  0
   94.4940   10.9140   96.3654 C   0  0  1  0  0  0  0  0  0  0  0  0
   95.0535    9.8581   97.4400 O   0  0  0  0  0  0  0  0  0  0  0  0
   94.3954   12.0041   96.9832 C   0  0  1  0  0  0  0  0  0  0  0  0
   93.4192   12.8870   96.3840 O   0  0  0  0  0  0  0  0  0  0  0  0
   94.0737   11.5906   98.4113 C   0  0  1  0  0  0  0  0  0  0  0  0
   92.8342   11.3929   98.5389 O   0  0  0  0  0  0  0  0  0  0  0  0
   94.8052   10.2610   98.5958 C   0  0  2  0  0  0  0  0  0  0  0  0
   96.2219   11.0838  103.4692 N   0  0  0  0  0  0  0  0  0  0  0  0
   94.9935   11.2919  102.9266 C   0  0  0  0  0  0  0  0  0  0  0  0
   94.8365   11.0052  101.6399 N   0  0  0  0  0  0  0  0  0  0  0  0
   95.8291   10.5838  100.8274 C   0  0  0  0  0  0  0  0  0  0  0  0
   97.1185   10.3559  101.3542 C   0  0  0  0  0  0  0  0  0  0  0  0
   97.2716   10.6474  102.7473 C   0  0  0  0  0  0  0  0  0  0  0  0
   98.5468   10.4685  103.3603 N   0  0  0  0  0  0  0  0  0  0  0  0
   97.8418    9.9235  100.3817 N   0  0  0  0  0  0  0  0  0  0  0  0
   97.0933    9.8437   99.2953 C   0  0  0  0  0  0  0  0  0  0  0  0
   95.8971   10.2503   99.5304 N   0  0  0  0  0  0  0  0  0  0  0  0
  1 24  1  0  0  0  0
  1  4  2  0  0  0  0
  2 13  1  0  0  0  0
  2 21  1  0  0  0  0
  3 16  1  0  0  0  0
  4 18  1  0  0  0  0
  5 19  2  0  0  0  0
  5 16  1  0  0  0  0
  6 16  2  0  0  0  0
  6 17  1  0  0  0  0
  7 17  1  0  0  0  0
 11 25  2  0  0  0  0
 12 26  2  0  0  0  0
 13 25  1  0  0  0  0
 14 23  1  0  0  0  0
 15 26  1  0  0  0  0
 17 18  2  0  0  0  0
 18 19  1  0  0  0  0
 19 24  1  0  0  0  0
 20 10  1  6  0  0  0
 20 22  1  0  0  0  0
 20 23  1  0  0  0  0
 21 14  1  1  0  0  0
 21 22  1  0  0  0  0
 22 15  1  6  0  0  0
 23 24  1  1  0  0  0
 25  8  1  6  0  0  0
 25 32  1  0  0  0  0
 26  9  1  6  0  0  0
 26 28  1  0  0  0  0
 27 28  1  0  0  0  0
 29 27  1  6  0  0  0
 29 30  1  0  0  0  0
 29 31  1  0  0  0  0
 30 35  1  0  0  0  0
 31 33  1  0  0  0  0
 31 32  1  6  0  0  0
 33 34  1  6  0  0  0
 33 35  1  0  0  0  0
 35 45  1  1  0  0  0
 36 41  2  0  0  0  0
 36 37  1  0  0  0  0
 37 38  2  0  0  0  0
 38 39  1  0  0  0  0
 39 40  2  0  0  0  0
 39 45  1  0  0  0  0
 40 41  1  0  0  0  0
 40 43  1  0  0  0  0
 41 42  1  0  0  0  0
 43 44  2  0  0  0  0
 44 45  1  0  0  0  0
M  CHG  4   8  -1   9  -1  11  -1  12  -1
M  END
>  <CHROM.1>
-18.64572107,-176.86346193,96.80326895,13.21017061,97.61760402,-1.11975045
0.65024764,2.00956865

>  <Name>
ligand

>  <RI>
0

>  <Rbt.Current_Directory>
/home/itssahil/PROJECTS/Mol_Feturizer/New_Systems/rnas/4YAZ

>  <Rbt.Executable>
rbdock ($Id: //depot/dev/client3/rdock/2013.1/src/exe/rbdock.cxx#4 $)

>  <Rbt.Library>
libRbt.so (2013.1, Build901 2013/11/27)

>  <Rbt.Parameter_File>
/export/apps/rDock/src/rDock_2013.1_src/data/scripts/dock_solv.prm

>  <Rbt.Receptor>
prm/pocket_docking_3.prm

>  <SCORE>
-45.7322

>  <SCORE.INTER>
-45.865

>  <SCORE.INTER.CONST>
1

>  <SCORE.INTER.POLAR>
0

>  <SCORE.INTER.ROT>
2

>  <SCORE.INTER.SOLV>
45.9411

>  <SCORE.INTER.VDW>
-50.8237

>  <SCORE.INTER.norm>
-1.01922

>  <SCORE.INTRA>
0.13283

>  <SCORE.INTRA.DIHEDRAL>
0.0108431

>  <SCORE.INTRA.DIHEDRAL.0>
2.39103

>  <SCORE.INTRA.POLAR>
0

>  <SCORE.INTRA.POLAR.0>
0

>  <SCORE.INTRA.REPUL>
0

>  <SCORE.INTRA.REPUL.0>
0

>  <SCORE.INTRA.SOLV>
0.0078814

>  <SCORE.INTRA.SOLV.lig_0>
-163.975

>  <SCORE.INTRA.VDW>
0.123467

>  <SCORE.INTRA.VDW.0>
-1.49176

>  <SCORE.INTRA.norm>
0.00295177

>  <SCORE.RESTR>
0

>  <SCORE.RESTR.CAVITY>
0

>  <SCORE.RESTR.norm>
0

>  <SCORE.SYSTEM>
0

>  <SCORE.SYSTEM.CONST>
0

>  <SCORE.SYSTEM.DIHEDRAL>
0

>  <SCORE.SYSTEM.SOLV>
0

>  <SCORE.SYSTEM.norm>
0

>  <SCORE.heavy>
45

>  <SCORE.norm>
-1.01627

>  <RMSD>
0.533

$$$$
ligand
 OpenBabel11021811513D
libRbt.so/2013.1/901 2013/11/27
 45 51  0  0  0  0  0  0  0  0999 V2000
   97.4410   17.0886   97.3469 C   0  0  0  0  0  0  0  0  0  0  0  0
   95.1501   14.5186   94.8045 C   0  0  0  0  0  0  0  0  0  0  0  0
  102.3816   14.5584   98.6083 N   0  0  0  0  0  0  0  0  0  0  0  0
   97.6957   17.1864   98.6113 N   0  0  0  0  0  0  0  0  0  0  0  0
  100.4641   15.4077   97.5794 N   0  0  0  0  0  0  0  0  0  0  0  0
  100.7683   15.6858   99.8699 N   0  0  0  0  0  0  0  0  0  0  0  0
   99.1618   16.8932  101.1873 O   0  0  0  0  0  0  0  0  0  0  0  0
   92.4262   15.0648   96.1682 O   0  5  0  0  0  0  0  0  0  0  0  0
   98.1835   10.6415   93.8482 O   0  5  0  0  0  0  0  0  0  0  0  0
   99.5033   14.6226   94.0698 O   0  0  0  0  0  0  0  0  0  0  0  0
   93.4823   14.6812   98.0894 O   0  5  0  0  0  0  0  0  0  0  0  0
   99.2982   11.7269   95.4531 O   0  5  0  0  0  0  0  0  0  0  0  0
   94.7720   15.1070   95.9840 O   0  0  0  0  0  0  0  0  0  0  0  0
   96.9847   16.2863   94.7957 O   0  0  0  0  0  0  0  0  0  0  0  0
   97.5149   12.9088   94.0666 O   0  0  0  0  0  0  0  0  0  0  0  0
  101.1325   15.2450   98.6913 C   0  0  0  0  0  0  0  0  0  0  0  0
   99.6353   16.3649   99.9877 C   0  0  0  0  0  0  0  0  0  0  0  0
   98.8467   16.5643   98.8321 C   0  0  0  0  0  0  0  0  0  0  0  0
   99.2919   16.0822   97.6259 C   0  0  0  0  0  0  0  0  0  0  0  0
   98.6873   14.8720   95.1523 C   0  0  2  0  0  0  0  0  0  0  0  0
   96.5336   14.8633   94.4238 C   0  0  1  0  0  0  0  0  0  0  0  0
   97.3252   14.0339   94.9164 C   0  0  1  0  0  0  0  0  0  0  0  0
   98.3675   16.1349   95.3653 C   0  0  2  0  0  0  0  0  0  0  0  0
   98.3582   16.4306   96.7398 N   0  0  0  0  0  0  0  0  0  0  0  0
   93.5618   14.4259   96.6938 P   0  0  2  0  0  0  0  0  0  0  0  0
   98.0121   11.6493   94.8044 P   0  0  1  0  0  0  0  0  0  0  0  0
   95.5147   11.0641   95.2971 C   0  0  0  0  0  0  0  0  0  0  0  0
   96.8769   11.1346   95.7480 O   0  0  0  0  0  0  0  0  0  0  0  0
   94.5128   10.9515   96.3676 C   0  0  1  0  0  0  0  0  0  0  0  0
   95.0581    9.8947   97.4486 O   0  0  0  0  0  0  0  0  0  0  0  0
   94.4145   12.0432   96.9827 C   0  0  1  0  0  0  0  0  0  0  0  0
   93.4476   12.9297   96.3739 O   0  0  0  0  0  0  0  0  0  0  0  0
   94.0788   11.6337   98.4088 C   0  0  1  0  0  0  0  0  0  0  0  0
   92.8373   11.4424   98.5265 O   0  0  0  0  0  0  0  0  0  0  0  0
   94.8023   10.3008   98.6016 C   0  0  2  0  0  0  0  0  0  0  0  0
   96.1845   11.1342  103.4831 N   0  0  0  0  0  0  0  0  0  0  0  0
   94.9620   11.3487  102.9296 C   0  0  0  0  0  0  0  0  0  0  0  0
   94.8137   11.0576  101.6428 N   0  0  0  0  0  0  0  0  0  0  0  0
   95.8100   10.6259  100.8403 C   0  0  0  0  0  0  0  0  0  0  0  0
   97.0933   10.3912  101.3787 C   0  0  0  0  0  0  0  0  0  0  0  0
   97.2369   10.6875  102.7718 C   0  0  0  0  0  0  0  0  0  0  0  0
   98.5058   10.5022  103.3960 N   0  0  0  0  0  0  0  0  0  0  0  0
   97.8215    9.9496  100.4140 N   0  0  0  0  0  0  0  0  0  0  0  0
   97.0815    9.8705   99.3218 C   0  0  0  0  0  0  0  0  0  0  0  0
   95.8863   10.2864   99.5453 N   0  0  0  0  0  0  0  0  0  0  0  0
  1 24  1  0  0  0  0
  1  4  2  0  0  0  0
  2 13  1  0  0  0  0
  2 21  1  0  0  0  0
  3 16  1  0  0  0  0
  4 18  1  0  0  0  0
  5 19  2  0  0  0  0
  5 16  1  0  0  0  0
  6 16  2  0  0  0  0
  6 17  1  0  0  0  0
  7 17  1  0  0  0  0
 11 25  2  0  0  0  0
 12 26  2  0  0  0  0
 13 25  1  0  0  0  0
 14 23  1  0  0  0  0
 15 26  1  0  0  0  0
 17 18  2  0  0  0  0
 18 19  1  0  0  0  0
 19 24  1  0  0  0  0
 20 10  1  6  0  0  0
 20 22  1  0  0  0  0
 20 23  1  0  0  0  0
 21 14  1  1  0  0  0
 21 22  1  0  0  0  0
 22 15  1  6  0  0  0
 23 24  1  1  0  0  0
 25  8  1  6  0  0  0
 25 32  1  0  0  0  0
 26  9  1  6  0  0  0
 26 28  1  0  0  0  0
 27 28  1  0  0  0  0
 29 27  1  6  0  0  0
 29 30  1  0  0  0  0
 29 31  1  0  0  0  0
 30 35  1  0  0  0  0
 31 33  1  0  0  0  0
 31 32  1  6  0  0  0
 33 34  1  6  0  0  0
 33 35  1  0  0  0  0
 35 45  1  1  0  0  0
 36 41  2  0  0  0  0
 36 37  1  0  0  0  0
 37 38  2  0  0  0  0
 38 39  1  0  0  0  0
 39 40  2  0  0  0  0
 39 45  1  0  0  0  0
 40 41  1  0  0  0  0
 40 43  1  0  0  0  0
 41 42  1  0  0  0  0
 43 44  2  0  0  0  0
 44 45  1  0  0  0  0
M  CHG  4   8  -1   9  -1  11  -1  12  -1
M  END
>  <CHROM.1>
-18.54180769,-177.04856997,96.82326012,13.23966009,97.63474343,-1.10572661
0.64954815,1.99991379

>  <Name>
ligand

>  <RI>
0

>  <Rbt.Current_Directory>
/home/itssahil/PROJECTS/Mol_Feturizer/New_Systems/rnas/4YAZ

>  <Rbt.Executable>
rbdock ($Id: //depot/dev/client3/rdock/2013.1/src/exe/rbdock.cxx#4 $)

>  <Rbt.Library>
libRbt.so (2013.1, Build901 2013/11/27)

>  <Rbt.Parameter_File>
/export/apps/rDock/src/rDock_2013.1_src/data/scripts/dock_solv.prm

>  <Rbt.Receptor>
prm/pocket_docking_3.prm

>  <SCORE>
-45.744

>  <SCORE.INTER>
-45.8746

>  <SCORE.INTER.CONST>
1

>  <SCORE.INTER.POLAR>
0

>  <SCORE.INTER.ROT>
2

>  <SCORE.INTER.SOLV>
46.2704

>  <SCORE.INTER.VDW>
-50.9398

>  <SCORE.INTER.norm>
-1.01943

>  <SCORE.INTRA>
0.130623

>  <SCORE.INTRA.DIHEDRAL>
0.00953551

>  <SCORE.INTRA.DIHEDRAL.0>
2.39103

>  <SCORE.INTRA.POLAR>
0

>  <SCORE.INTRA.POLAR.0>
0

>  <SCORE.INTRA.REPUL>
0

>  <SCORE.INTRA.REPUL.0>
0

>  <SCORE.INTRA.SOLV>
0.00799966

>  <SCORE.INTRA.SOLV.lig_0>
-163.975

>  <SCORE.INTRA.VDW>
0.121855

>  <SCORE.INTRA.VDW.0>
-1.49176

>  <SCORE.INTRA.norm>
0.00290273

>  <SCORE.RESTR>
0

>  <SCORE.RESTR.CAVITY>
0

>  <SCORE.RESTR.norm>
0

>  <SCORE.SYSTEM>
0

>  <SCORE.SYSTEM.CONST>
0

>  <SCORE.SYSTEM.DIHEDRAL>
0

>  <SCORE.SYSTEM.SOLV>
0

>  <SCORE.SYSTEM.norm>
0

>  <SCORE.heavy>
45

>  <SCORE.norm>
-1.01653

>  <RMSD>
0.533

$$$$
ligand
 OpenBabel11021811513D
libRbt.so/2013.1/901 2013/11/27
 45 51  0  0  0  0  0  0  0  0999 V2000
   97.4124   17.0519   97.3828 C   0  0  0  0  0  0  0  0  0  0  0  0
   95.1613   14.5300   94.8165 C   0  0  0  0  0  0  0  0  0  0  0  0
  102.4899   14.7845   98.5996 N   0  0  0  0  0  0  0  0  0  0  0  0
   97.6714   17.1603   98.6455 N   0  0  0  0  0  0  0  0  0  0  0  0
  100.5222   15.5332   97.5878 N   0  0  0  0  0  0  0  0  0  0  0  0
  100.8290   15.8218   99.8765 N   0  0  0  0  0  0  0  0  0  0  0  0
   99.1711   16.9394  101.2095 O   0  0  0  0  0  0  0  0  0  0  0  0
   92.4319   15.0651   96.1735 O   0  5  0  0  0  0  0  0  0  0  0  0
   98.2078   10.6637   93.8583 O   0  5  0  0  0  0  0  0  0  0  0  0
   99.5164   14.6476   94.0954 O   0  0  0  0  0  0  0  0  0  0  0  0
   93.4831   14.6787   98.0967 O   0  5  0  0  0  0  0  0  0  0  0  0
   99.3147   11.7474   95.4696 O   0  5  0  0  0  0  0  0  0  0  0  0
   94.7781   15.1140   95.9966 O   0  0  0  0  0  0  0  0  0  0  0  0
   96.9913   16.3026   94.8183 O   0  0  0  0  0  0  0  0  0  0  0  0
   97.5325   12.9285   94.0811 O   0  0  0  0  0  0  0  0  0  0  0  0
  101.2068   15.4036   98.6940 C   0  0  0  0  0  0  0  0  0  0  0  0
   99.6625   16.4397  100.0049 C   0  0  0  0  0  0  0  0  0  0  0  0
   98.8555   16.5996   98.8559 C   0  0  0  0  0  0  0  0  0  0  0  0
   99.3162   16.1445   97.6450 C   0  0  0  0  0  0  0  0  0  0  0  0
   98.6964   14.8917   95.1761 C   0  0  2  0  0  0  0  0  0  0  0  0
   96.5450   14.8795   94.4410 C   0  0  1  0  0  0  0  0  0  0  0  0
   97.3374   14.0507   94.9337 C   0  0  1  0  0  0  0  0  0  0  0  0
   98.3727   16.1532   95.3917 C   0  0  2  0  0  0  0  0  0  0  0  0
   98.3585   16.4448   96.7670 N   0  0  0  0  0  0  0  0  0  0  0  0
   93.5675   14.4276   96.7007 P   0  0  2  0  0  0  0  0  0  0  0  0
   98.0308   11.6683   94.8168 P   0  0  1  0  0  0  0  0  0  0  0  0
   95.5335   11.0751   95.3003 C   0  0  0  0  0  0  0  0  0  0  0  0
   96.8942   11.1479   95.7555 O   0  0  0  0  0  0  0  0  0  0  0  0
   94.5287   10.9568   96.3674 C   0  0  1  0  0  0  0  0  0  0  0  0
   95.0736    9.8983   97.4470 O   0  0  0  0  0  0  0  0  0  0  0  0
   94.4256   12.0464   96.9854 C   0  0  1  0  0  0  0  0  0  0  0  0
   93.4582   12.9322   96.3762 O   0  0  0  0  0  0  0  0  0  0  0  0
   94.0868   11.6319   98.4092 C   0  0  1  0  0  0  0  0  0  0  0  0
   92.8454   11.4370   98.5226 O   0  0  0  0  0  0  0  0  0  0  0  0
   94.8131   10.3004   98.6004 C   0  0  2  0  0  0  0  0  0  0  0  0
   96.1808   11.1349  103.4858 N   0  0  0  0  0  0  0  0  0  0  0  0
   94.9601   11.3494  102.9285 C   0  0  0  0  0  0  0  0  0  0  0  0
   94.8155   11.0580  101.6414 N   0  0  0  0  0  0  0  0  0  0  0  0
   95.8142   10.6260  100.8420 C   0  0  0  0  0  0  0  0  0  0  0  0
   97.0959   10.3913  101.3843 C   0  0  0  0  0  0  0  0  0  0  0  0
   97.2353   10.6879  102.7777 C   0  0  0  0  0  0  0  0  0  0  0  0
   98.5023   10.5026  103.4058 N   0  0  0  0  0  0  0  0  0  0  0  0
   97.8269    9.9493  100.4219 N   0  0  0  0  0  0  0  0  0  0  0  0
   97.0901    9.8700   99.3275 C   0  0  0  0  0  0  0  0  0  0  0  0
   95.8943   10.2861   99.5473 N   0  0  0  0  0  0  0  0  0  0  0  0
  1 24  1  0  0  0  0
  1  4  2  0  0  0  0
  2 13  1  0  0  0  0
  2 21  1  0  0  0  0
  3 16  1  0  0  0  0
  4 18  1  0  0  0  0
  5 19  2  0  0  0  0
  5 16  1  0  0  0  0
  6 16  2  0  0  0  0
  6 17  1  0  0  0  0
  7 17  1  0  0  0  0
 11 25  2  0  0  0  0
 12 26  2  0  0  0  0
 13 25  1  0  0  0  0
 14 23  1  0  0  0  0
 15 26  1  0  0  0  0
 17 18  2  0  0  0  0
 18 19  1  0  0  0  0
 19 24  1  0  0  0  0
 20 10  1  6  0  0  0
 20 22  1  0  0  0  0
 20 23  1  0  0  0  0
 21 14  1  1  0  0  0
 21 22  1  0  0  0  0
 22 15  1  6  0  0  0
 23 24  1  1  0  0  0
 25  8  1  6  0  0  0
 25 32  1  0  0  0  0
 26  9  1  6  0  0  0
 26 28  1  0  0  0  0
 27 28  1  0  0  0  0
 29 27  1  6  0  0  0
 29 30  1  0  0  0  0
 29 31  1  0  0  0  0
 30 35  1  0  0  0  0
 31 33  1  0  0  0  0
 31 32  1  6  0  0  0
 33 34  1  6  0  0  0
 33 35  1  0  0  0  0
 35 45  1  1  0  0  0
 36 41  2  0  0  0  0
 36 37  1  0  0  0  0
 37 38  2  0  0  0  0
 38 39  1  0  0  0  0
 39 40  2  0  0  0  0
 39 45  1  0  0  0  0
 40 41  1  0  0  0  0
 40 43  1  0  0  0  0
 41 42  1  0  0  0  0
 43 44  2  0  0  0  0
 44 45  1  0  0  0  0
M  CHG  4   8  -1   9  -1  11  -1  12  -1
M  END
>  <CHROM.1>
-15.58804209,-177.28767605,96.83694953,13.26212974,97.64506044,-1.05436044
0.65769250,1.99761724

>  <Name>
ligand

>  <RI>
0

>  <Rbt.Current_Directory>
/home/itssahil/PROJECTS/Mol_Feturizer/New_Systems/rnas/4YAZ

>  <Rbt.Executable>
rbdock ($Id: //depot/dev/client3/rdock/2013.1/src/exe/rbdock.cxx#4 $)

>  <Rbt.Library>
libRbt.so (2013.1, Build901 2013/11/27)

>  <Rbt.Parameter_File>
/export/apps/rDock/src/rDock_2013.1_src/data/scripts/dock_solv.prm

>  <Rbt.Receptor>
prm/pocket_docking_3.prm

>  <SCORE>
-45.7362

>  <SCORE.INTER>
-45.8148

>  <SCORE.INTER.CONST>
1

>  <SCORE.INTER.POLAR>
0

>  <SCORE.INTER.ROT>
2

>  <SCORE.INTER.SOLV>
46.8576

>  <SCORE.INTER.VDW>
-51.0958

>  <SCORE.INTER.norm>
-1.01811

>  <SCORE.INTRA>
0.0786281

>  <SCORE.INTRA.DIHEDRAL>
0.00835529

>  <SCORE.INTRA.DIHEDRAL.0>
2.39103

>  <SCORE.INTRA.POLAR>
0

>  <SCORE.INTRA.POLAR.0>
0

>  <SCORE.INTRA.REPUL>
0

>  <SCORE.INTRA.REPUL.0>
0

>  <SCORE.INTRA.SOLV>
0.00458178

>  <SCORE.INTRA.SOLV.lig_0>
-163.975

>  <SCORE.INTRA.VDW>
0.0721595

>  <SCORE.INTRA.VDW.0>
-1.49176

>  <SCORE.INTRA.norm>
0.00174729

>  <SCORE.RESTR>
0

>  <SCORE.RESTR.CAVITY>
0

>  <SCORE.RESTR.norm>
0

>  <SCORE.SYSTEM>
0

>  <SCORE.SYSTEM.CONST>
0

>  <SCORE.SYSTEM.DIHEDRAL>
0

>  <SCORE.SYSTEM.SOLV>
0

>  <SCORE.SYSTEM.norm>
0

>  <SCORE.heavy>
45

>  <SCORE.norm>
-1.01636

>  <RMSD>
0.533

$$$$
ligand
 OpenBabel11021811513D
libRbt.so/2013.1/901 2013/11/27
 45 51  0  0  0  0  0  0  0  0999 V2000
   97.4410   17.0363   97.3453 C   0  0  0  0  0  0  0  0  0  0  0  0
   95.1413   14.5146   94.8126 C   0  0  0  0  0  0  0  0  0  0  0  0
  102.4963   14.6982   98.5200 N   0  0  0  0  0  0  0  0  0  0  0  0
   97.7135   17.1439   98.6052 N   0  0  0  0  0  0  0  0  0  0  0  0
  100.5301   15.4729   97.5248 N   0  0  0  0  0  0  0  0  0  0  0  0
  100.8628   15.7628   99.8098 N   0  0  0  0  0  0  0  0  0  0  0  0
   99.2340   16.9077  101.1554 O   0  0  0  0  0  0  0  0  0  0  0  0
   92.4307   15.0705   96.1987 O   0  5  0  0  0  0  0  0  0  0  0  0
   98.1523   10.6265   93.8304 O   0  5  0  0  0  0  0  0  0  0  0  0
   99.4887   14.6025   94.0424 O   0  0  0  0  0  0  0  0  0  0  0  0
   93.5010   14.6823   98.1111 O   0  5  0  0  0  0  0  0  0  0  0  0
   99.2841   11.7072   95.4264 O   0  5  0  0  0  0  0  0  0  0  0  0
   94.7750   15.1040   95.9954 O   0  0  0  0  0  0  0  0  0  0  0  0
   96.9824   16.2754   94.7893 O   0  0  0  0  0  0  0  0  0  0  0  0
   97.4939   12.8961   94.0549 O   0  0  0  0  0  0  0  0  0  0  0  0
  101.2233   15.3362   98.6249 C   0  0  0  0  0  0  0  0  0  0  0  0
   99.7067   16.3979   99.9476 C   0  0  0  0  0  0  0  0  0  0  0  0
   98.8913   16.5667   98.8058 C   0  0  0  0  0  0  0  0  0  0  0  0
   99.3338   16.1019   97.5919 C   0  0  0  0  0  0  0  0  0  0  0  0
   98.6825   14.8546   95.1316 C   0  0  2  0  0  0  0  0  0  0  0  0
   96.5229   14.8542   94.4208 C   0  0  1  0  0  0  0  0  0  0  0  0
   97.3154   14.0217   94.9066 C   0  0  1  0  0  0  0  0  0  0  0  0
   98.3691   16.1187   95.3475 C   0  0  2  0  0  0  0  0  0  0  0  0
   98.3722   16.4139   96.7222 N   0  0  0  0  0  0  0  0  0  0  0  0
   93.5681   14.4271   96.7148 P   0  0  2  0  0  0  0  0  0  0  0  0
   97.9924   11.6346   94.7882 P   0  0  1  0  0  0  0  0  0  0  0  0
   95.4970   11.0586   95.3013 C   0  0  0  0  0  0  0  0  0  0  0  0
   96.8631   11.1238   95.7410 O   0  0  0  0  0  0  0  0  0  0  0  0
   94.5035   10.9494   96.3798 C   0  0  1  0  0  0  0  0  0  0  0  0
   95.0537    9.8902   97.4560 O   0  0  0  0  0  0  0  0  0  0  0  0
   94.4143   12.0412   96.9961 C   0  0  1  0  0  0  0  0  0  0  0  0
   93.4457   12.9315   96.3954 O   0  0  0  0  0  0  0  0  0  0  0  0
   94.0888   11.6325   98.4247 C   0  0  1  0  0  0  0  0  0  0  0  0
   92.8476   11.4458   98.5525 O   0  0  0  0  0  0  0  0  0  0  0  0
   94.8088   10.2969   98.6112 C   0  0  2  0  0  0  0  0  0  0  0  0
   96.2417   11.1583  103.4732 N   0  0  0  0  0  0  0  0  0  0  0  0
   95.0173   11.3823  102.9278 C   0  0  0  0  0  0  0  0  0  0  0  0
   94.8547   11.0813  101.6451 N   0  0  0  0  0  0  0  0  0  0  0  0
   95.8390   10.6304  100.8384 C   0  0  0  0  0  0  0  0  0  0  0  0
   97.1240   10.3852  101.3683 C   0  0  0  0  0  0  0  0  0  0  0  0
   97.2827   10.6925  102.7574 C   0  0  0  0  0  0  0  0  0  0  0  0
   98.5545   10.4978  103.3728 N   0  0  0  0  0  0  0  0  0  0  0  0
   97.8388    9.9261  100.4018 N   0  0  0  0  0  0  0  0  0  0  0  0
   97.0887    9.8459   99.3165 C   0  0  0  0  0  0  0  0  0  0  0  0
   95.9004   10.2781   99.5460 N   0  0  0  0  0  0  0  0  0  0  0  0
  1 24  1  0  0  0  0
  1  4  2  0  0  0  0
  2 13  1  0  0  0  0
  2 21  1  0  0  0  0
  3 16  1  0  0  0  0
  4 18  1  0  0  0  0
  5 19  2  0  0  0  0
  5 16  1  0  0  0  0
  6 16  2  0  0  0  0
  6 17  1  0  0  0  0
  7 17  1  0  0  0  0
 11 25  2  0  0  0  0
 12 26  2  0  0  0  0
 13 25  1  0  0  0  0
 14 23  1  0  0  0  0
 15 26  1  0  0  0  0
 17 18  2  0  0  0  0
 18 19  1  0  0  0  0
 19 24  1  0  0  0  0
 20 10  1  6  0  0  0
 20 22  1  0  0  0  0
 20 23  1  0  0  0  0
 21 14  1  1  0  0  0
 21 22  1  0  0  0  0
 22 15  1  6  0  0  0
 23 24  1  1  0  0  0
 25  8  1  6  0  0  0
 25 32  1  0  0  0  0
 26  9  1  6  0  0  0
 26 28  1  0  0  0  0
 27 28  1  0  0  0  0
 29 27  1  6  0  0  0
 29 30  1  0  0  0  0
 29 31  1  0  0  0  0
 30 35  1  0  0  0  0
 31 33  1  0  0  0  0
 31 32  1  6  0  0  0
 33 34  1  6  0  0  0
 33 35  1  0  0  0  0
 35 45  1  1  0  0  0
 36 41  2  0  0  0  0
 36 37  1  0  0  0  0
 37 38  2  0  0  0  0
 38 39  1  0  0  0  0
 39 40  2  0  0  0  0
 39 45  1  0  0  0  0
 40 41  1  0  0  0  0
 40 43  1  0  0  0  0
 41 42  1  0  0  0  0
 43 44  2  0  0  0  0
 44 45  1  0  0  0  0
M  CHG  4   8  -1   9  -1  11  -1  12  -1
M  END
>  <CHROM.1>
-16.06778194,-177.76771504,96.83969860,13.24275856,97.62562674,-1.07065230
0.64684497,2.00001942

>  <Name>
ligand

>  <RI>
0

>  <Rbt.Current_Directory>
/home/itssahil/PROJECTS/Mol_Feturizer/New_Systems/rnas/4YAZ

>  <Rbt.Executable>
rbdock ($Id: //depot/dev/client3/rdock/2013.1/src/exe/rbdock.cxx#4 $)

>  <Rbt.Library>
libRbt.so (2013.1, Build901 2013/11/27)

>  <Rbt.Parameter_File>
/export/apps/rDock/src/rDock_2013.1_src/data/scripts/dock_solv.prm

>  <Rbt.Receptor>
prm/pocket_docking_8.prm

>  <SCORE>
-45.6855

>  <SCORE.INTER>
-45.7762

>  <SCORE.INTER.CONST>
1

>  <SCORE.INTER.POLAR>
0

>  <SCORE.INTER.ROT>
2

>  <SCORE.INTER.SOLV>
46.7265

>  <SCORE.INTER.VDW>
-51.0263

>  <SCORE.INTER.norm>
-1.01725

>  <SCORE.INTRA>
0.0907152

>  <SCORE.INTRA.DIHEDRAL>
0.00482511

>  <SCORE.INTRA.DIHEDRAL.0>
2.39103

>  <SCORE.INTRA.POLAR>
0

>  <SCORE.INTRA.POLAR.0>
0

>  <SCORE.INTRA.REPUL>
0

>  <SCORE.INTRA.REPUL.0>
0

>  <SCORE.INTRA.SOLV>
0.00583224

>  <SCORE.INTRA.SOLV.lig_0>
-163.975

>  <SCORE.INTRA.VDW>
0.0853866

>  <SCORE.INTRA.VDW.0>
-1.49176

>  <SCORE.INTRA.norm>
0.00201589

>  <SCORE.RESTR>
0

>  <SCORE.RESTR.CAVITY>
0

>  <SCORE.RESTR.norm>
0

>  <SCORE.SYSTEM>
0

>  <SCORE.SYSTEM.CONST>
0

>  <SCORE.SYSTEM.DIHEDRAL>
0

>  <SCORE.SYSTEM.SOLV>
0

>  <SCORE.SYSTEM.norm>
0

>  <SCORE.heavy>
45

>  <SCORE.norm>
-1.01523

>  <RMSD>
0.533

$$$$
ligand
 OpenBabel11021811513D
libRbt.so/2013.1/901 2013/11/27
 45 51  0  0  0  0  0  0  0  0999 V2000
   97.2441   17.1155   97.2608 C   0  0  0  0  0  0  0  0  0  0  0  0
   95.0421   14.5023   94.7364 C   0  0  0  0  0  0  0  0  0  0  0  0
  102.3714   14.9627   98.4774 N   0  0  0  0  0  0  0  0  0  0  0  0
   97.5067   17.2424   98.5211 N   0  0  0  0  0  0  0  0  0  0  0  0
  100.3845   15.6613   97.4671 N   0  0  0  0  0  0  0  0  0  0  0  0
  100.6958   15.9804   99.7512 N   0  0  0  0  0  0  0  0  0  0  0  0
   99.0220   17.0788  101.0801 O   0  0  0  0  0  0  0  0  0  0  0  0
   92.3075   14.9805   96.1043 O   0  5  0  0  0  0  0  0  0  0  0  0
   98.1831   10.7068   93.8006 O   0  5  0  0  0  0  0  0  0  0  0  0
   99.3883   14.7258   93.9874 O   0  0  0  0  0  0  0  0  0  0  0  0
   93.3797   14.6424   98.0251 O   0  5  0  0  0  0  0  0  0  0  0  0
   99.2707   11.8363   95.3936 O   0  5  0  0  0  0  0  0  0  0  0  0
   94.6506   15.0887   95.9126 O   0  0  0  0  0  0  0  0  0  0  0  0
   96.8250   16.3220   94.7083 O   0  0  0  0  0  0  0  0  0  0  0  0
   97.4501   12.9555   94.0036 O   0  0  0  0  0  0  0  0  0  0  0  0
  101.0766   15.5572   98.5714 C   0  0  0  0  0  0  0  0  0  0  0  0
   99.5178   16.5762   99.8785 C   0  0  0  0  0  0  0  0  0  0  0  0
   98.7026   16.7078   98.7317 C   0  0  0  0  0  0  0  0  0  0  0  0
   99.1669   16.2490   97.5235 C   0  0  0  0  0  0  0  0  0  0  0  0
   98.5686   14.9601   95.0705 C   0  0  2  0  0  0  0  0  0  0  0  0
   96.4140   14.8838   94.3488 C   0  0  1  0  0  0  0  0  0  0  0  0
   97.2306   14.0813   94.8453 C   0  0  1  0  0  0  0  0  0  0  0  0
   98.2131   16.2149   95.2747 C   0  0  2  0  0  0  0  0  0  0  0  0
   98.1993   16.5209   96.6470 N   0  0  0  0  0  0  0  0  0  0  0  0
   93.4626   14.3786   96.6313 P   0  0  2  0  0  0  0  0  0  0  0  0
   97.9855   11.7167   94.7495 P   0  0  1  0  0  0  0  0  0  0  0  0
   95.5075   11.0637   95.2545 C   0  0  0  0  0  0  0  0  0  0  0  0
   96.8684   11.1769   95.7006 O   0  0  0  0  0  0  0  0  0  0  0  0
   94.5123   10.9307   96.3289 C   0  0  1  0  0  0  0  0  0  0  0  0
   95.0910    9.8984   97.4163 O   0  0  0  0  0  0  0  0  0  0  0  0
   94.3843   12.0238   96.9359 C   0  0  1  0  0  0  0  0  0  0  0  0
   93.3905   12.8774   96.3233 O   0  0  0  0  0  0  0  0  0  0  0  0
   94.0648   11.6159   98.3661 C   0  0  1  0  0  0  0  0  0  0  0  0
   92.8296   11.3899   98.4891 O   0  0  0  0  0  0  0  0  0  0  0  0
   94.8268   10.3060   98.5669 C   0  0  2  0  0  0  0  0  0  0  0  0
   96.1873   11.1531  103.4522 N   0  0  0  0  0  0  0  0  0  0  0  0
   94.9548   11.3191  102.9042 C   0  0  0  0  0  0  0  0  0  0  0  0
   94.8151   11.0339  101.6152 N   0  0  0  0  0  0  0  0  0  0  0  0
   95.8267   10.6538  100.8057 C   0  0  0  0  0  0  0  0  0  0  0  0
   97.1209   10.4704  101.3381 C   0  0  0  0  0  0  0  0  0  0  0  0
   97.2559   10.7595  102.7336 C   0  0  0  0  0  0  0  0  0  0  0  0
   98.5337   10.6241  103.3524 N   0  0  0  0  0  0  0  0  0  0  0  0
   97.8645   10.0701  100.3673 N   0  0  0  0  0  0  0  0  0  0  0  0
   97.1250    9.9690   99.2764 C   0  0  0  0  0  0  0  0  0  0  0  0
   95.9135   10.3301   99.5074 N   0  0  0  0  0  0  0  0  0  0  0  0
  1 24  1  0  0  0  0
  1  4  2  0  0  0  0
  2 13  1  0  0  0  0
  2 21  1  0  0  0  0
  3 16  1  0  0  0  0
  4 18  1  0  0  0  0
  5 19  2  0  0  0  0
  5 16  1  0  0  0  0
  6 16  2  0  0  0  0
  6 17  1  0  0  0  0
  7 17  1  0  0  0  0
 11 25  2  0  0  0  0
 12 26  2  0  0  0  0
 13 25  1  0  0  0  0
 14 23  1  0  0  0  0
 15 26  1  0  0  0  0
 17 18  2  0  0  0  0
 18 19  1  0  0  0  0
 19 24  1  0  0  0  0
 20 10  1  6  0  0  0
 20 22  1  0  0  0  0
 20 23  1  0  0  0  0
 21 14  1  1  0  0  0
 21 22  1  0  0  0  0
 22 15  1  6  0  0  0
 23 24  1  1  0  0  0
 25  8  1  6  0  0  0
 25 32  1  0  0  0  0
 26  9  1  6  0  0  0
 26 28  1  0  0  0  0
 27 28  1  0  0  0  0
 29 27  1  6  0  0  0
 29 30  1  0  0  0  0
 29 31  1  0  0  0  0
 30 35  1  0  0  0  0
 31 33  1  0  0  0  0
 31 32  1  6  0  0  0
 33 34  1  6  0  0  0
 33 35  1  0  0  0  0
 35 45  1  1  0  0  0
 36 41  2  0  0  0  0
 36 37  1  0  0  0  0
 37 38  2  0  0  0  0
 38 39  1  0  0  0  0
 39 40  2  0  0  0  0
 39 45  1  0  0  0  0
 40 41  1  0  0  0  0
 40 43  1  0  0  0  0
 41 42  1  0  0  0  0
 43 44  2  0  0  0  0
 44 45  1  0  0  0  0
M  CHG  4   8  -1   9  -1  11  -1  12  -1
M  END
>  <CHROM.1>
-15.95181978,-175.74347989,96.76504558,13.30149242,97.56955896,-1.08533032
0.67718257,2.00472695

>  <Name>
ligand

>  <RI>
0

>  <Rbt.Current_Directory>
/home/itssahil/PROJECTS/Mol_Feturizer/New_Systems/rnas/4YAZ

>  <Rbt.Executable>
rbdock ($Id: //depot/dev/client3/rdock/2013.1/src/exe/rbdock.cxx#4 $)

>  <Rbt.Library>
libRbt.so (2013.1, Build901 2013/11/27)

>  <Rbt.Parameter_File>
/export/apps/rDock/src/rDock_2013.1_src/data/scripts/dock_solv.prm

>  <Rbt.Receptor>
prm/pocket_docking_2.prm

>  <SCORE>
-45.444

>  <SCORE.INTER>
-45.5092

>  <SCORE.INTER.CONST>
1

>  <SCORE.INTER.POLAR>
0

>  <SCORE.INTER.ROT>
2

>  <SCORE.INTER.SOLV>
45.3344

>  <SCORE.INTER.VDW>
-50.3843

>  <SCORE.INTER.norm>
-1.01132

>  <SCORE.INTRA>
0.0652171

>  <SCORE.INTRA.DIHEDRAL>
0.0193159

>  <SCORE.INTRA.DIHEDRAL.0>
2.39103

>  <SCORE.INTRA.POLAR>
0

>  <SCORE.INTRA.POLAR.0>
0

>  <SCORE.INTRA.REPUL>
0

>  <SCORE.INTRA.REPUL.0>
0

>  <SCORE.INTRA.SOLV>
0.00300841

>  <SCORE.INTRA.SOLV.lig_0>
-163.975

>  <SCORE.INTRA.VDW>
0.0540549

>  <SCORE.INTRA.VDW.0>
-1.49176

>  <SCORE.INTRA.norm>
0.00144927

>  <SCORE.RESTR>
0

>  <SCORE.RESTR.CAVITY>
0

>  <SCORE.RESTR.norm>
0

>  <SCORE.SYSTEM>
0

>  <SCORE.SYSTEM.CONST>
0

>  <SCORE.SYSTEM.DIHEDRAL>
0

>  <SCORE.SYSTEM.SOLV>
0

>  <SCORE.SYSTEM.norm>
0

>  <SCORE.heavy>
45

>  <SCORE.norm>
-1.00987

>  <RMSD>
0.535

$$$$
ligand
 OpenBabel11021811513D
libRbt.so/2013.1/901 2013/11/27
 45 51  0  0  0  0  0  0  0  0999 V2000
   97.4249   17.0438   97.3493 C   0  0  0  0  0  0  0  0  0  0  0  0
   95.1420   14.5177   94.8134 C   0  0  0  0  0  0  0  0  0  0  0  0
  102.5041   14.7589   98.5257 N   0  0  0  0  0  0  0  0  0  0  0  0
   97.6962   17.1550   98.6092 N   0  0  0  0  0  0  0  0  0  0  0  0
  100.5301   15.5127   97.5299 N   0  0  0  0  0  0  0  0  0  0  0  0
  100.8595   15.8072   99.8148 N   0  0  0  0  0  0  0  0  0  0  0  0
   99.2189   16.9359  101.1597 O   0  0  0  0  0  0  0  0  0  0  0  0
   92.4272   15.0637   96.1952 O   0  5  0  0  0  0  0  0  0  0  0  0
   98.1697   10.6409   93.8378 O   0  5  0  0  0  0  0  0  0  0  0  0
   99.4901   14.6223   94.0495 O   0  0  0  0  0  0  0  0  0  0  0  0
   93.4962   14.6808   98.1094 O   0  5  0  0  0  0  0  0  0  0  0  0
   99.2949   11.7270   95.4348 O   0  5  0  0  0  0  0  0  0  0  0  0
   94.7717   15.1063   95.9953 O   0  0  0  0  0  0  0  0  0  0  0  0
   96.9761   16.2858   94.7918 O   0  0  0  0  0  0  0  0  0  0  0  0
   97.5021   12.9081   94.0601 O   0  0  0  0  0  0  0  0  0  0  0  0
  101.2245   15.3837   98.6301 C   0  0  0  0  0  0  0  0  0  0  0  0
   99.6969   16.4303   99.9521 C   0  0  0  0  0  0  0  0  0  0  0  0
   98.8799   16.5901   98.8102 C   0  0  0  0  0  0  0  0  0  0  0  0
   99.3273   16.1292   97.5965 C   0  0  0  0  0  0  0  0  0  0  0  0
   98.6813   14.8719   95.1374 C   0  0  2  0  0  0  0  0  0  0  0  0
   96.5228   14.8626   94.4234 C   0  0  1  0  0  0  0  0  0  0  0  0
   97.3179   14.0334   94.9109 C   0  0  1  0  0  0  0  0  0  0  0  0
   98.3627   16.1348   95.3521 C   0  0  2  0  0  0  0  0  0  0  0  0
   98.3626   16.4308   96.7266 N   0  0  0  0  0  0  0  0  0  0  0  0
   93.5664   14.4251   96.7134 P   0  0  2  0  0  0  0  0  0  0  0  0
   98.0045   11.6490   94.7948 P   0  0  1  0  0  0  0  0  0  0  0  0
   95.5106   11.0634   95.3045 C   0  0  0  0  0  0  0  0  0  0  0  0
   96.8758   11.1343   95.7462 O   0  0  0  0  0  0  0  0  0  0  0  0
   94.5159   10.9509   96.3817 C   0  0  1  0  0  0  0  0  0  0  0  0
   95.0688    9.8944   97.4593 O   0  0  0  0  0  0  0  0  0  0  0  0
   94.4215   12.0427   96.9972 C   0  0  1  0  0  0  0  0  0  0  0  0
   93.4503   12.9289   96.3947 O   0  0  0  0  0  0  0  0  0  0  0  0
   94.0956   11.6335   98.4256 C   0  0  1  0  0  0  0  0  0  0  0  0
   92.8549   11.4420   98.5517 O   0  0  0  0  0  0  0  0  0  0  0  0
   94.8205   10.3008   98.6139 C   0  0  2  0  0  0  0  0  0  0  0  0
   96.2265   11.0929  103.4955 N   0  0  0  0  0  0  0  0  0  0  0  0
   94.9983   11.3010  102.9524 C   0  0  0  0  0  0  0  0  0  0  0  0
   94.8444   11.0231  101.6634 N   0  0  0  0  0  0  0  0  0  0  0  0
   95.8397   10.6109  100.8496 C   0  0  0  0  0  0  0  0  0  0  0  0
   97.1289   10.3833  101.3768 C   0  0  0  0  0  0  0  0  0  0  0  0
   97.2787   10.6652  102.7723 C   0  0  0  0  0  0  0  0  0  0  0  0
   98.5535   10.4860  103.3861 N   0  0  0  0  0  0  0  0  0  0  0  0
   97.8552    9.9602  100.4025 N   0  0  0  0  0  0  0  0  0  0  0  0
   97.1088    9.8860   99.3143 C   0  0  0  0  0  0  0  0  0  0  0  0
   95.9109   10.2869   99.5503 N   0  0  0  0  0  0  0  0  0  0  0  0
  1 24  1  0  0  0  0
  1  4  2  0  0  0  0
  2 13  1  0  0  0  0
  2 21  1  0  0  0  0
  3 16  1  0  0  0  0
  4 18  1  0  0  0  0
  5 19  2  0  0  0  0
  5 16  1  0  0  0  0
  6 16  2  0  0  0  0
  6 17  1  0  0  0  0
  7 17  1  0  0  0  0
 11 25  2  0  0  0  0
 12 26  2  0  0  0  0
 13 25  1  0  0  0  0
 14 23  1  0  0  0  0
 15 26  1  0  0  0  0
 17 18  2  0  0  0  0
 18 19  1  0  0  0  0
 19 24  1  0  0  0  0
 20 10  1  6  0  0  0
 20 22  1  0  0  0  0
 20 23  1  0  0  0  0
 21 14  1  1  0  0  0
 21 22  1  0  0  0  0
 22 15  1  6  0  0  0
 23 24  1  1  0  0  0
 25  8  1  6  0  0  0
 25 32  1  0  0  0  0
 26  9  1  6  0  0  0
 26 28  1  0  0  0  0
 27 28  1  0  0  0  0
 29 27  1  6  0  0  0
 29 30  1  0  0  0  0
 29 31  1  0  0  0  0
 30 35  1  0  0  0  0
 31 33  1  0  0  0  0
 31 32  1  6  0  0  0
 33 34  1  6  0  0  0
 33 35  1  0  0  0  0
 35 45  1  1  0  0  0
 36 41  2  0  0  0  0
 36 37  1  0  0  0  0
 37 38  2  0  0  0  0
 38 39  1  0  0  0  0
 39 40  2  0  0  0  0
 39 45  1  0  0  0  0
 40 41  1  0  0  0  0
 40 43  1  0  0  0  0
 41 42  1  0  0  0  0
 43 44  2  0  0  0  0
 44 45  1  0  0  0  0
M  CHG  4   8  -1   9  -1  11  -1  12  -1
M  END
>  <CHROM.1>
-15.69173233,-176.16480052,96.84101678,13.24987440,97.63051243,-1.06903447
0.65040733,2.00381903

>  <Name>
ligand

>  <RI>
0

>  <Rbt.Current_Directory>
/home/itssahil/PROJECTS/Mol_Feturizer/New_Systems/rnas/4YAZ

>  <Rbt.Executable>
rbdock ($Id: //depot/dev/client3/rdock/2013.1/src/exe/rbdock.cxx#4 $)

>  <Rbt.Library>
libRbt.so (2013.1, Build901 2013/11/27)

>  <Rbt.Parameter_File>
/export/apps/rDock/src/rDock_2013.1_src/data/scripts/dock_solv.prm

>  <Rbt.Receptor>
prm/pocket_docking_3.prm

>  <SCORE>
-45.7349

>  <SCORE.INTER>
-45.795

>  <SCORE.INTER.CONST>
1

>  <SCORE.INTER.POLAR>
0

>  <SCORE.INTER.ROT>
2

>  <SCORE.INTER.SOLV>
46.8801

>  <SCORE.INTER.VDW>
-51.09

>  <SCORE.INTER.norm>
-1.01767

>  <SCORE.INTRA>
0.0600299

>  <SCORE.INTRA.DIHEDRAL>
0.0163628

>  <SCORE.INTRA.DIHEDRAL.0>
2.39103

>  <SCORE.INTRA.POLAR>
0

>  <SCORE.INTRA.POLAR.0>
0

>  <SCORE.INTRA.REPUL>
0

>  <SCORE.INTRA.REPUL.0>
0

>  <SCORE.INTRA.SOLV>
0.00323483

>  <SCORE.INTRA.SOLV.lig_0>
-163.975

>  <SCORE.INTRA.VDW>
0.0502311

>  <SCORE.INTRA.VDW.0>
-1.49176

>  <SCORE.INTRA.norm>
0.001334

>  <SCORE.RESTR>
0

>  <SCORE.RESTR.CAVITY>
0

>  <SCORE.RESTR.norm>
0

>  <SCORE.SYSTEM>
0

>  <SCORE.SYSTEM.CONST>
0

>  <SCORE.SYSTEM.DIHEDRAL>
0

>  <SCORE.SYSTEM.SOLV>
0

>  <SCORE.SYSTEM.norm>
0

>  <SCORE.heavy>
45

>  <SCORE.norm>
-1.01633

>  <RMSD>
0.535

$$$$
ligand
 OpenBabel11021811513D
libRbt.so/2013.1/901 2013/11/27
 45 51  0  0  0  0  0  0  0  0999 V2000
   97.3961   17.0782   97.3549 C   0  0  0  0  0  0  0  0  0  0  0  0
   95.1423   14.4909   94.8083 C   0  0  0  0  0  0  0  0  0  0  0  0
  102.3967   14.6588   98.5975 N   0  0  0  0  0  0  0  0  0  0  0  0
   97.6523   17.1796   98.6188 N   0  0  0  0  0  0  0  0  0  0  0  0
  100.4574   15.4660   97.5758 N   0  0  0  0  0  0  0  0  0  0  0  0
  100.7619   15.7470   99.8658 N   0  0  0  0  0  0  0  0  0  0  0  0
   99.1323   16.9154  101.1900 O   0  0  0  0  0  0  0  0  0  0  0  0
   92.4126   14.9982   96.1754 O   0  5  0  0  0  0  0  0  0  0  0  0
   98.2264   10.6564   93.8422 O   0  5  0  0  0  0  0  0  0  0  0  0
   99.4930   14.6544   94.0698 O   0  0  0  0  0  0  0  0  0  0  0  0
   93.4755   14.6252   98.0949 O   0  5  0  0  0  0  0  0  0  0  0  0
   99.3279   11.7538   95.4480 O   0  5  0  0  0  0  0  0  0  0  0  0
   94.7574   15.0720   95.9892 O   0  0  0  0  0  0  0  0  0  0  0  0
   96.9531   16.2830   94.8009 O   0  0  0  0  0  0  0  0  0  0  0  0
   97.5277   12.9142   94.0652 O   0  0  0  0  0  0  0  0  0  0  0  0
  101.1325   15.3166   98.6854 C   0  0  0  0  0  0  0  0  0  0  0  0
   99.6141   16.4001   99.9881 C   0  0  0  0  0  0  0  0  0  0  0  0
   98.8178   16.5835   98.8352 C   0  0  0  0  0  0  0  0  0  0  0  0
   99.2703   16.1137   97.6268 C   0  0  0  0  0  0  0  0  0  0  0  0
   98.6747   14.8910   95.1534 C   0  0  2  0  0  0  0  0  0  0  0  0
   96.5207   14.8548   94.4269 C   0  0  1  0  0  0  0  0  0  0  0  0
   97.3238   14.0351   94.9173 C   0  0  1  0  0  0  0  0  0  0  0  0
   98.3382   16.1491   95.3690 C   0  0  2  0  0  0  0  0  0  0  0  0
   98.3263   16.4422   96.7440 N   0  0  0  0  0  0  0  0  0  0  0  0
   93.5571   14.3735   96.6988 P   0  0  2  0  0  0  0  0  0  0  0  0
   98.0424   11.6602   94.8003 P   0  0  1  0  0  0  0  0  0  0  0  0
   95.5535   11.0407   95.2943 C   0  0  0  0  0  0  0  0  0  0  0  0
   96.9151   11.1286   95.7440 O   0  0  0  0  0  0  0  0  0  0  0  0
   94.5542   10.9128   96.3655 C   0  0  1  0  0  0  0  0  0  0  0  0
   95.1147    9.8614   97.4441 O   0  0  0  0  0  0  0  0  0  0  0  0
   94.4419   12.0019   96.9827 C   0  0  1  0  0  0  0  0  0  0  0  0
   93.4626   12.8766   96.3763 O   0  0  0  0  0  0  0  0  0  0  0  0
   94.1131   11.5855   98.4083 C   0  0  1  0  0  0  0  0  0  0  0  0
   92.8744   11.3773   98.5268 O   0  0  0  0  0  0  0  0  0  0  0  0
   94.8545   10.2620   98.5980 C   0  0  2  0  0  0  0  0  0  0  0  0
   96.2284   11.0970  103.4816 N   0  0  0  0  0  0  0  0  0  0  0  0
   95.0023   11.2950  102.9300 C   0  0  0  0  0  0  0  0  0  0  0  0
   94.8572   11.0068  101.6422 N   0  0  0  0  0  0  0  0  0  0  0  0
   95.8592   10.5936  100.8371 C   0  0  0  0  0  0  0  0  0  0  0  0
   97.1465   10.3764  101.3734 C   0  0  0  0  0  0  0  0  0  0  0  0
   97.2869   10.6693  102.7676 C   0  0  0  0  0  0  0  0  0  0  0  0
   98.5590   10.5010  103.3899 N   0  0  0  0  0  0  0  0  0  0  0  0
   97.8805    9.9498  100.4064 N   0  0  0  0  0  0  0  0  0  0  0  0
   97.1407    9.8638   99.3145 C   0  0  0  0  0  0  0  0  0  0  0  0
   95.9395   10.2605   99.5407 N   0  0  0  0  0  0  0  0  0  0  0  0
  1 24  1  0  0  0  0
  1  4  2  0  0  0  0
  2 13  1  0  0  0  0
  2 21  1  0  0  0  0
  3 16  1  0  0  0  0
  4 18  1  0  0  0  0
  5 19  2  0  0  0  0
  5 16  1  0  0  0  0
  6 16  2  0  0  0  0
  6 17  1  0  0  0  0
  7 17  1  0  0  0  0
 11 25  2  0  0  0  0
 12 26  2  0  0  0  0
 13 25  1  0  0  0  0
 14 23  1  0  0  0  0
 15 26  1  0  0  0  0
 17 18  2  0  0  0  0
 18 19  1  0  0  0  0
 19 24  1  0  0  0  0
 20 10  1  6  0  0  0
 20 22  1  0  0  0  0
 20 23  1  0  0  0  0
 21 14  1  1  0  0  0
 21 22  1  0  0  0  0
 22 15  1  6  0  0  0
 23 24  1  1  0  0  0
 25  8  1  6  0  0  0
 25 32  1  0  0  0  0
 26  9  1  6  0  0  0
 26 28  1  0  0  0  0
 27 28  1  0  0  0  0
 29 27  1  6  0  0  0
 29 30  1  0  0  0  0
 29 31  1  0  0  0  0
 30 35  1  0  0  0  0
 31 33  1  0  0  0  0
 31 32  1  6  0  0  0
 33 34  1  6  0  0  0
 33 35  1  0  0  0  0
 35 45  1  1  0  0  0
 36 41  2  0  0  0  0
 36 37  1  0  0  0  0
 37 38  2  0  0  0  0
 38 39  1  0  0  0  0
 39 40  2  0  0  0  0
 39 45  1  0  0  0  0
 40 41  1  0  0  0  0
 40 43  1  0  0  0  0
 41 42  1  0  0  0  0
 43 44  2  0  0  0  0
 44 45  1  0  0  0  0
M  CHG  4   8  -1   9  -1  11  -1  12  -1
M  END
>  <CHROM.1>
-17.99413548,-176.88255996,96.83636282,13.23132623,97.63423549,-1.10530825
0.66189881,2.00657181

>  <Name>
ligand

>  <RI>
0

>  <Rbt.Current_Directory>
/home/itssahil/PROJECTS/Mol_Feturizer/New_Systems/rnas/4YAZ

>  <Rbt.Executable>
rbdock ($Id: //depot/dev/client3/rdock/2013.1/src/exe/rbdock.cxx#4 $)

>  <Rbt.Library>
libRbt.so (2013.1, Build901 2013/11/27)

>  <Rbt.Parameter_File>
/export/apps/rDock/src/rDock_2013.1_src/data/scripts/dock_solv.prm

>  <Rbt.Receptor>
prm/pocket_docking_4.prm

>  <SCORE>
-45.7545

>  <SCORE.INTER>
-45.8712

>  <SCORE.INTER.CONST>
1

>  <SCORE.INTER.POLAR>
0

>  <SCORE.INTER.ROT>
2

>  <SCORE.INTER.SOLV>
46.5166

>  <SCORE.INTER.VDW>
-51.0197

>  <SCORE.INTER.norm>
-1.01936

>  <SCORE.INTRA>
0.116689

>  <SCORE.INTRA.DIHEDRAL>
0.010814

>  <SCORE.INTRA.DIHEDRAL.0>
2.39103

>  <SCORE.INTRA.POLAR>
0

>  <SCORE.INTRA.POLAR.0>
0

>  <SCORE.INTRA.REPUL>
0

>  <SCORE.INTRA.REPUL.0>
0

>  <SCORE.INTRA.SOLV>
0.00711617

>  <SCORE.INTRA.SOLV.lig_0>
-163.975

>  <SCORE.INTRA.VDW>
0.107724

>  <SCORE.INTRA.VDW.0>
-1.49176

>  <SCORE.INTRA.norm>
0.00259308

>  <SCORE.RESTR>
0

>  <SCORE.RESTR.CAVITY>
0

>  <SCORE.RESTR.norm>
0

>  <SCORE.SYSTEM>
0

>  <SCORE.SYSTEM.CONST>
0

>  <SCORE.SYSTEM.DIHEDRAL>
0

>  <SCORE.SYSTEM.SOLV>
0

>  <SCORE.SYSTEM.norm>
0

>  <SCORE.heavy>
45

>  <SCORE.norm>
-1.01677

>  <RMSD>
0.535

$$$$
ligand
 OpenBabel11021811513D
libRbt.so/2013.1/901 2013/11/27
 45 51  0  0  0  0  0  0  0  0999 V2000
   97.4118   17.0972   97.3364 C   0  0  0  0  0  0  0  0  0  0  0  0
   95.0974   14.5315   94.8051 C   0  0  0  0  0  0  0  0  0  0  0  0
  102.3417   14.5313   98.5672 N   0  0  0  0  0  0  0  0  0  0  0  0
   97.6739   17.1910   98.5997 N   0  0  0  0  0  0  0  0  0  0  0  0
  100.4247   15.3954   97.5500 N   0  0  0  0  0  0  0  0  0  0  0  0
  100.7428   15.6673   99.8393 N   0  0  0  0  0  0  0  0  0  0  0  0
   99.1515   16.8832  101.1674 O   0  0  0  0  0  0  0  0  0  0  0  0
   92.3833   15.0804   96.1870 O   0  5  0  0  0  0  0  0  0  0  0  0
   98.1174   10.6504   93.8228 O   0  5  0  0  0  0  0  0  0  0  0  0
   99.4461   14.6286   94.0430 O   0  0  0  0  0  0  0  0  0  0  0  0
   93.4507   14.6914   98.1008 O   0  5  0  0  0  0  0  0  0  0  0  0
   99.2442   11.7309   95.4224 O   0  5  0  0  0  0  0  0  0  0  0  0
   94.7279   15.1185   95.9880 O   0  0  0  0  0  0  0  0  0  0  0  0
   96.9353   16.2958   94.7877 O   0  0  0  0  0  0  0  0  0  0  0  0
   97.4544   12.9186   94.0493 O   0  0  0  0  0  0  0  0  0  0  0  0
  101.0977   15.2262   98.6580 C   0  0  0  0  0  0  0  0  0  0  0  0
   99.6151   16.3539   99.9644 C   0  0  0  0  0  0  0  0  0  0  0  0
   98.8218   16.5607   98.8133 C   0  0  0  0  0  0  0  0  0  0  0  0
   99.2573   16.0778   97.6039 C   0  0  0  0  0  0  0  0  0  0  0  0
   98.6374   14.8777   95.1311 C   0  0  2  0  0  0  0  0  0  0  0  0
   96.4791   14.8743   94.4163 C   0  0  1  0  0  0  0  0  0  0  0  0
   97.2723   14.0425   94.9024 C   0  0  1  0  0  0  0  0  0  0  0  0
   98.3213   16.1408   95.3483 C   0  0  2  0  0  0  0  0  0  0  0  0
   98.3213   16.4341   96.7233 N   0  0  0  0  0  0  0  0  0  0  0  0
   93.5209   14.4384   96.7043 P   0  0  2  0  0  0  0  0  0  0  0  0
   97.9539   11.6569   94.7818 P   0  0  1  0  0  0  0  0  0  0  0  0
   95.4586   11.0755   95.2893 C   0  0  0  0  0  0  0  0  0  0  0  0
   96.8238   11.1426   95.7317 O   0  0  0  0  0  0  0  0  0  0  0  0
   94.4633   10.9629   96.3659 C   0  0  1  0  0  0  0  0  0  0  0  0
   95.0135    9.9031   97.4416 O   0  0  0  0  0  0  0  0  0  0  0  0
   94.3709   12.0536   96.9836 C   0  0  1  0  0  0  0  0  0  0  0  0
   93.4019   12.9431   96.3825 O   0  0  0  0  0  0  0  0  0  0  0  0
   94.0436   11.6423   98.4110 C   0  0  1  0  0  0  0  0  0  0  0  0
   92.8025   11.4530   98.5363 O   0  0  0  0  0  0  0  0  0  0  0  0
   94.7657   10.3077   98.5969 C   0  0  2  0  0  0  0  0  0  0  0  0
   96.1701   11.0801  103.4821 N   0  0  0  0  0  0  0  0  0  0  0  0
   94.9421   11.2909  102.9394 C   0  0  0  0  0  0  0  0  0  0  0  0
   94.7887   11.0180  101.6492 N   0  0  0  0  0  0  0  0  0  0  0  0
   95.7841   10.6085  100.8342 C   0  0  0  0  0  0  0  0  0  0  0  0
   97.0730   10.3783  101.3611 C   0  0  0  0  0  0  0  0  0  0  0  0
   97.2224   10.6547  102.7577 C   0  0  0  0  0  0  0  0  0  0  0  0
   98.4968   10.4724  103.3713 N   0  0  0  0  0  0  0  0  0  0  0  0
   97.7995    9.9587  100.3854 N   0  0  0  0  0  0  0  0  0  0  0  0
   97.0535    9.8890   99.2966 C   0  0  0  0  0  0  0  0  0  0  0  0
   95.8557   10.2896   99.5337 N   0  0  0  0  0  0  0  0  0  0  0  0
  1 24  1  0  0  0  0
  1  4  2  0  0  0  0
  2 13  1  0  0  0  0
  2 21  1  0  0  0  0
  3 16  1  0  0  0  0
  4 18  1  0  0  0  0
  5 19  2  0  0  0  0
  5 16  1  0  0  0  0
  6 16  2  0  0  0  0
  6 17  1  0  0  0  0
  7 17  1  0  0  0  0
 11 25  2  0  0  0  0
 12 26  2  0  0  0  0
 13 25  1  0  0  0  0
 14 23  1  0  0  0  0
 15 26  1  0  0  0  0
 17 18  2  0  0  0  0
 18 19  1  0  0  0  0
 19 24  1  0  0  0  0
 20 10  1  6  0  0  0
 20 22  1  0  0  0  0
 20 23  1  0  0  0  0
 21 14  1  1  0  0  0
 21 22  1  0  0  0  0
 22 15  1  6  0  0  0
 23 24  1  1  0  0  0
 25  8  1  6  0  0  0
 25 32  1  0  0  0  0
 26  9  1  6  0  0  0
 26 28  1  0  0  0  0
 27 28  1  0  0  0  0
 29 27  1  6  0  0  0
 29 30  1  0  0  0  0
 29 31  1  0  0  0  0
 30 35  1  0  0  0  0
 31 33  1  0  0  0  0
 31 32  1  6  0  0  0
 33 34  1  6  0  0  0
 33 35  1  0  0  0  0
 35 45  1  1  0  0  0
 36 41  2  0  0  0  0
 36 37  1  0  0  0  0
 37 38  2  0  0  0  0
 38 39  1  0  0  0  0
 39 40  2  0  0  0  0
 39 45  1  0  0  0  0
 40 41  1  0  0  0  0
 40 43  1  0  0  0  0
 41 42  1  0  0  0  0
 43 44  2  0  0  0  0
 44 45  1  0  0  0  0
M  CHG  4   8  -1   9  -1  11  -1  12  -1
M  END
>  <CHROM.1>
-18.82946257,-176.02283312,96.78456608,13.23922653,97.62348302,-1.11817543
0.64402277,2.00865024

>  <Name>
ligand

>  <RI>
0

>  <Rbt.Current_Directory>
/home/itssahil/PROJECTS/Mol_Feturizer/New_Systems/rnas/4YAZ

>  <Rbt.Executable>
rbdock ($Id: //depot/dev/client3/rdock/2013.1/src/exe/rbdock.cxx#4 $)

>  <Rbt.Library>
libRbt.so (2013.1, Build901 2013/11/27)

>  <Rbt.Parameter_File>
/export/apps/rDock/src/rDock_2013.1_src/data/scripts/dock_solv.prm

>  <Rbt.Receptor>
prm/pocket_docking_5.prm

>  <SCORE>
-45.7716

>  <SCORE.INTER>
-45.9073

>  <SCORE.INTER.CONST>
1

>  <SCORE.INTER.POLAR>
0

>  <SCORE.INTER.ROT>
2

>  <SCORE.INTER.SOLV>
45.8369

>  <SCORE.INTER.VDW>
-50.8172

>  <SCORE.INTER.norm>
-1.02016

>  <SCORE.INTRA>
0.135669

>  <SCORE.INTRA.DIHEDRAL>
0.0168186

>  <SCORE.INTRA.DIHEDRAL.0>
2.39103

>  <SCORE.INTRA.POLAR>
0

>  <SCORE.INTRA.POLAR.0>
0

>  <SCORE.INTRA.REPUL>
0

>  <SCORE.INTRA.REPUL.0>
0

>  <SCORE.INTRA.SOLV>
0.00698241

>  <SCORE.INTRA.SOLV.lig_0>
-163.975

>  <SCORE.INTRA.VDW>
0.123768

>  <SCORE.INTRA.VDW.0>
-1.49176

>  <SCORE.INTRA.norm>
0.00301487

>  <SCORE.RESTR>
0

>  <SCORE.RESTR.CAVITY>
0

>  <SCORE.RESTR.norm>
0

>  <SCORE.SYSTEM>
0

>  <SCORE.SYSTEM.CONST>
0

>  <SCORE.SYSTEM.DIHEDRAL>
0

>  <SCORE.SYSTEM.SOLV>
0

>  <SCORE.SYSTEM.norm>
0

>  <SCORE.heavy>
45

>  <SCORE.norm>
-1.01715

>  <RMSD>
0.536

$$$$
ligand
 OpenBabel11021811513D
libRbt.so/2013.1/901 2013/11/27
 45 51  0  0  0  0  0  0  0  0999 V2000
   97.4202   17.1067   97.4067 C   0  0  0  0  0  0  0  0  0  0  0  0
   95.1566   14.5425   94.8330 C   0  0  0  0  0  0  0  0  0  0  0  0
  102.3806   14.6048   98.6469 N   0  0  0  0  0  0  0  0  0  0  0  0
   97.6723   17.1924   98.6726 N   0  0  0  0  0  0  0  0  0  0  0  0
  100.4573   15.4492   97.6248 N   0  0  0  0  0  0  0  0  0  0  0  0
  100.7559   15.7040   99.9187 N   0  0  0  0  0  0  0  0  0  0  0  0
   99.1373   16.8827  101.2473 O   0  0  0  0  0  0  0  0  0  0  0  0
   92.4260   15.0472   96.1992 O   0  5  0  0  0  0  0  0  0  0  0  0
   98.2283   10.7058   93.8369 O   0  5  0  0  0  0  0  0  0  0  0  0
   99.5094   14.6966   94.1050 O   0  0  0  0  0  0  0  0  0  0  0  0
   93.4834   14.6521   98.1173 O   0  5  0  0  0  0  0  0  0  0  0  0
   99.3306   11.7837   95.4553 O   0  5  0  0  0  0  0  0  0  0  0  0
   94.7714   15.1139   96.0185 O   0  0  0  0  0  0  0  0  0  0  0  0
   96.9741   16.3278   94.8463 O   0  0  0  0  0  0  0  0  0  0  0  0
   97.5376   12.9639   94.0799 O   0  0  0  0  0  0  0  0  0  0  0  0
  101.1255   15.2797   98.7358 C   0  0  0  0  0  0  0  0  0  0  0  0
   99.6170   16.3721  100.0425 C   0  0  0  0  0  0  0  0  0  0  0  0
   98.8283   16.5778   98.8881 C   0  0  0  0  0  0  0  0  0  0  0  0
   99.2793   16.1131   97.6772 C   0  0  0  0  0  0  0  0  0  0  0  0
   98.6897   14.9260   95.1892 C   0  0  2  0  0  0  0  0  0  0  0  0
   96.5371   14.9048   94.4579 C   0  0  1  0  0  0  0  0  0  0  0  0
   97.3361   14.0775   94.9422 C   0  0  1  0  0  0  0  0  0  0  0  0
   98.3575   16.1833   95.4159 C   0  0  2  0  0  0  0  0  0  0  0  0
   98.3438   16.4634   96.7936 N   0  0  0  0  0  0  0  0  0  0  0  0
   93.5670   14.4133   96.7191 P   0  0  2  0  0  0  0  0  0  0  0  0
   98.0460   11.7011   94.8042 P   0  0  1  0  0  0  0  0  0  0  0  0
   95.5538   11.0864   95.2872 C   0  0  0  0  0  0  0  0  0  0  0  0
   96.9148   11.1649   95.7405 O   0  0  0  0  0  0  0  0  0  0  0  0
   94.5518   10.9521   96.3550 C   0  0  1  0  0  0  0  0  0  0  0  0
   95.1061    9.8885   97.4248 O   0  0  0  0  0  0  0  0  0  0  0  0
   94.4423   12.0358   96.9823 C   0  0  1  0  0  0  0  0  0  0  0  0
   93.4676   12.9198   96.3822 O   0  0  0  0  0  0  0  0  0  0  0  0
   94.1090   11.6071   98.4032 C   0  0  1  0  0  0  0  0  0  0  0  0
   92.8693   11.4025   98.5172 O   0  0  0  0  0  0  0  0  0  0  0  0
   94.8450   10.2791   98.5819 C   0  0  2  0  0  0  0  0  0  0  0  0
   96.2130   11.0685  103.4748 N   0  0  0  0  0  0  0  0  0  0  0  0
   94.9891   11.2771  102.9222 C   0  0  0  0  0  0  0  0  0  0  0  0
   94.8452   10.9998  101.6319 N   0  0  0  0  0  0  0  0  0  0  0  0
   95.8468   10.5879  100.8256 C   0  0  0  0  0  0  0  0  0  0  0  0
   97.1318   10.3598  101.3628 C   0  0  0  0  0  0  0  0  0  0  0  0
   97.2708   10.6410  102.7595 C   0  0  0  0  0  0  0  0  0  0  0  0
   98.5407   10.4612  103.3831 N   0  0  0  0  0  0  0  0  0  0  0  0
   97.8656    9.9371  100.3939 N   0  0  0  0  0  0  0  0  0  0  0  0
   97.1276    9.8635   99.2999 C   0  0  0  0  0  0  0  0  0  0  0  0
   95.9280   10.2646   99.5268 N   0  0  0  0  0  0  0  0  0  0  0  0
  1 24  1  0  0  0  0
  1  4  2  0  0  0  0
  2 13  1  0  0  0  0
  2 21  1  0  0  0  0
  3 16  1  0  0  0  0
  4 18  1  0  0  0  0
  5 19  2  0  0  0  0
  5 16  1  0  0  0  0
  6 16  2  0  0  0  0
  6 17  1  0  0  0  0
  7 17  1  0  0  0  0
 11 25  2  0  0  0  0
 12 26  2  0  0  0  0
 13 25  1  0  0  0  0
 14 23  1  0  0  0  0
 15 26  1  0  0  0  0
 17 18  2  0  0  0  0
 18 19  1  0  0  0  0
 19 24  1  0  0  0  0
 20 10  1  6  0  0  0
 20 22  1  0  0  0  0
 20 23  1  0  0  0  0
 21 14  1  1  0  0  0
 21 22  1  0  0  0  0
 22 15  1  6  0  0  0
 23 24  1  1  0  0  0
 25  8  1  6  0  0  0
 25 32  1  0  0  0  0
 26  9  1  6  0  0  0
 26 28  1  0  0  0  0
 27 28  1  0  0  0  0
 29 27  1  6  0  0  0
 29 30  1  0  0  0  0
 29 31  1  0  0  0  0
 30 35  1  0  0  0  0
 31 33  1  0  0  0  0
 31 32  1  6  0  0  0
 33 34  1  6  0  0  0
 33 35  1  0  0  0  0
 35 45  1  1  0  0  0
 36 41  2  0  0  0  0
 36 37  1  0  0  0  0
 37 38  2  0  0  0  0
 38 39  1  0  0  0  0
 39 40  2  0  0  0  0
 39 45  1  0  0  0  0
 40 41  1  0  0  0  0
 40 43  1  0  0  0  0
 41 42  1  0  0  0  0
 43 44  2  0  0  0  0
 44 45  1  0  0  0  0
M  CHG  4   8  -1   9  -1  11  -1  12  -1
M  END
>  <CHROM.1>
-18.60340929,-177.00111121,96.83850048,13.24750976,97.65083004,-1.11054414
0.65866944,2.01363815

>  <Name>
ligand

>  <RI>
0

>  <Rbt.Current_Directory>
/home/itssahil/PROJECTS/Mol_Feturizer/New_Systems/rnas/4YAZ

>  <Rbt.Executable>
rbdock ($Id: //depot/dev/client3/rdock/2013.1/src/exe/rbdock.cxx#4 $)

>  <Rbt.Library>
libRbt.so (2013.1, Build901 2013/11/27)

>  <Rbt.Parameter_File>
/export/apps/rDock/src/rDock_2013.1_src/data/scripts/dock_solv.prm

>  <Rbt.Receptor>
prm/pocket_docking_3.prm

>  <SCORE>
-45.7549

>  <SCORE.INTER>
-45.8869

>  <SCORE.INTER.CONST>
1

>  <SCORE.INTER.POLAR>
0

>  <SCORE.INTER.ROT>
2

>  <SCORE.INTER.SOLV>
46.7355

>  <SCORE.INTER.VDW>
-51.1031

>  <SCORE.INTER.norm>
-1.01971

>  <SCORE.INTRA>
0.132062

>  <SCORE.INTRA.DIHEDRAL>
0.00986512

>  <SCORE.INTRA.DIHEDRAL.0>
2.39103

>  <SCORE.INTRA.POLAR>
0

>  <SCORE.INTRA.POLAR.0>
0

>  <SCORE.INTRA.REPUL>
0

>  <SCORE.INTRA.REPUL.0>
0

>  <SCORE.INTRA.SOLV>
0.00801153

>  <SCORE.INTRA.SOLV.lig_0>
-163.975

>  <SCORE.INTRA.VDW>
0.123123

>  <SCORE.INTRA.VDW.0>
-1.49176

>  <SCORE.INTRA.norm>
0.00293471

>  <SCORE.RESTR>
0

>  <SCORE.RESTR.CAVITY>
0

>  <SCORE.RESTR.norm>
0

>  <SCORE.SYSTEM>
0

>  <SCORE.SYSTEM.CONST>
0

>  <SCORE.SYSTEM.DIHEDRAL>
0

>  <SCORE.SYSTEM.SOLV>
0

>  <SCORE.SYSTEM.norm>
0

>  <SCORE.heavy>
45

>  <SCORE.norm>
-1.01677

>  <RMSD>
0.537

$$$$
ligand
 OpenBabel11021811513D
libRbt.so/2013.1/901 2013/11/27
 45 51  0  0  0  0  0  0  0  0999 V2000
   97.4138   17.0851   97.3301 C   0  0  0  0  0  0  0  0  0  0  0  0
   95.0986   14.5215   94.8027 C   0  0  0  0  0  0  0  0  0  0  0  0
  102.3519   14.5358   98.5628 N   0  0  0  0  0  0  0  0  0  0  0  0
   97.6765   17.1822   98.5930 N   0  0  0  0  0  0  0  0  0  0  0  0
  100.4317   15.3923   97.5452 N   0  0  0  0  0  0  0  0  0  0  0  0
  100.7506   15.6698   99.8337 N   0  0  0  0  0  0  0  0  0  0  0  0
   99.1568   16.8839  101.1603 O   0  0  0  0  0  0  0  0  0  0  0  0
   92.3849   15.0772   96.1827 O   0  5  0  0  0  0  0  0  0  0  0  0
   98.1131   10.6339   93.8291 O   0  5  0  0  0  0  0  0  0  0  0  0
   99.4476   14.6106   94.0415 O   0  0  0  0  0  0  0  0  0  0  0  0
   93.4514   14.6906   98.0976 O   0  5  0  0  0  0  0  0  0  0  0  0
   99.2412   11.7161   95.4268 O   0  5  0  0  0  0  0  0  0  0  0  0
   94.7297   15.1115   95.9843 O   0  0  0  0  0  0  0  0  0  0  0  0
   96.9391   16.2830   94.7821 O   0  0  0  0  0  0  0  0  0  0  0  0
   97.4534   12.9035   94.0508 O   0  0  0  0  0  0  0  0  0  0  0  0
  101.1060   15.2273   98.6531 C   0  0  0  0  0  0  0  0  0  0  0  0
   99.6210   16.3535   99.9581 C   0  0  0  0  0  0  0  0  0  0  0  0
   98.8264   16.5557   98.8071 C   0  0  0  0  0  0  0  0  0  0  0  0
   99.2625   16.0715   97.5984 C   0  0  0  0  0  0  0  0  0  0  0  0
   98.6390   14.8631   95.1288 C   0  0  2  0  0  0  0  0  0  0  0  0
   96.4809   14.8615   94.4135 C   0  0  1  0  0  0  0  0  0  0  0  0
   97.2728   14.0295   94.9015 C   0  0  1  0  0  0  0  0  0  0  0  0
   98.3247   16.1272   95.3433 C   0  0  2  0  0  0  0  0  0  0  0  0
   98.3248   16.4233   96.7178 N   0  0  0  0  0  0  0  0  0  0  0  0
   93.5215   14.4346   96.7016 P   0  0  2  0  0  0  0  0  0  0  0  0
   97.9509   11.6426   94.7860 P   0  0  1  0  0  0  0  0  0  0  0  0
   95.4546   11.0660   95.2941 C   0  0  0  0  0  0  0  0  0  0  0  0
   96.8198   11.1320   95.7367 O   0  0  0  0  0  0  0  0  0  0  0  0
   94.4589   10.9570   96.3707 C   0  0  1  0  0  0  0  0  0  0  0  0
   95.0073    9.8987   97.4487 O   0  0  0  0  0  0  0  0  0  0  0  0
   94.3680   12.0492   96.9861 C   0  0  1  0  0  0  0  0  0  0  0  0
   93.4004   12.9388   96.3829 O   0  0  0  0  0  0  0  0  0  0  0  0
   94.0397   11.6412   98.4143 C   0  0  1  0  0  0  0  0  0  0  0  0
   92.7983   11.4541   98.5396 O   0  0  0  0  0  0  0  0  0  0  0  0
   94.7598   10.3060   98.6031 C   0  0  2  0  0  0  0  0  0  0  0  0
   96.1571   11.0514  103.4945 N   0  0  0  0  0  0  0  0  0  0  0  0
   94.9280   11.2580  102.9528 C   0  0  0  0  0  0  0  0  0  0  0  0
   94.7768   10.9937  101.6606 N   0  0  0  0  0  0  0  0  0  0  0  0
   95.7753   10.5970  100.8430 C   0  0  0  0  0  0  0  0  0  0  0  0
   97.0655   10.3715  101.3687 C   0  0  0  0  0  0  0  0  0  0  0  0
   97.2125   10.6384  102.7674 C   0  0  0  0  0  0  0  0  0  0  0  0
   98.4879   10.4602  103.3802 N   0  0  0  0  0  0  0  0  0  0  0  0
   97.7952    9.9640  100.3902 N   0  0  0  0  0  0  0  0  0  0  0  0
   97.0500    9.8974   99.3006 C   0  0  0  0  0  0  0  0  0  0  0  0
   95.8495   10.2882   99.5402 N   0  0  0  0  0  0  0  0  0  0  0  0
  1 24  1  0  0  0  0
  1  4  2  0  0  0  0
  2 13  1  0  0  0  0
  2 21  1  0  0  0  0
  3 16  1  0  0  0  0
  4 18  1  0  0  0  0
  5 19  2  0  0  0  0
  5 16  1  0  0  0  0
  6 16  2  0  0  0  0
  6 17  1  0  0  0  0
  7 17  1  0  0  0  0
 11 25  2  0  0  0  0
 12 26  2  0  0  0  0
 13 25  1  0  0  0  0
 14 23  1  0  0  0  0
 15 26  1  0  0  0  0
 17 18  2  0  0  0  0
 18 19  1  0  0  0  0
 19 24  1  0  0  0  0
 20 10  1  6  0  0  0
 20 22  1  0  0  0  0
 20 23  1  0  0  0  0
 21 14  1  1  0  0  0
 21 22  1  0  0  0  0
 22 15  1  6  0  0  0
 23 24  1  1  0  0  0
 25  8  1  6  0  0  0
 25 32  1  0  0  0  0
 26  9  1  6  0  0  0
 26 28  1  0  0  0  0
 27 28  1  0  0  0  0
 29 27  1  6  0  0  0
 29 30  1  0  0  0  0
 29 31  1  0  0  0  0
 30 35  1  0  0  0  0
 31 33  1  0  0  0  0
 31 32  1  6  0  0  0
 33 34  1  6  0  0  0
 33 35  1  0  0  0  0
 35 45  1  1  0  0  0
 36 41  2  0  0  0  0
 36 37  1  0  0  0  0
 37 38  2  0  0  0  0
 38 39  1  0  0  0  0
 39 40  2  0  0  0  0
 39 45  1  0  0  0  0
 40 41  1  0  0  0  0
 40 43  1  0  0  0  0
 41 42  1  0  0  0  0
 43 44  2  0  0  0  0
 44 45  1  0  0  0  0
M  CHG  4   8  -1   9  -1  11  -1  12  -1
M  END
>  <CHROM.1>
-18.57566650,-175.30497776,96.78336094,13.23098795,97.62441696,-1.11427099
0.64255641,2.00779291

>  <Name>
ligand

>  <RI>
0

>  <Rbt.Current_Directory>
/home/itssahil/PROJECTS/Mol_Feturizer/New_Systems/rnas/4YAZ

>  <Rbt.Executable>
rbdock ($Id: //depot/dev/client3/rdock/2013.1/src/exe/rbdock.cxx#4 $)

>  <Rbt.Library>
libRbt.so (2013.1, Build901 2013/11/27)

>  <Rbt.Parameter_File>
/export/apps/rDock/src/rDock_2013.1_src/data/scripts/dock_solv.prm

>  <Rbt.Receptor>
prm/pocket_docking_3.prm

>  <SCORE>
-45.7564

>  <SCORE.INTER>
-45.8842

>  <SCORE.INTER.CONST>
1

>  <SCORE.INTER.POLAR>
0

>  <SCORE.INTER.ROT>
2

>  <SCORE.INTER.SOLV>
45.8147

>  <SCORE.INTER.VDW>
-50.7943

>  <SCORE.INTER.norm>
-1.01965

>  <SCORE.INTRA>
0.127797

>  <SCORE.INTRA.DIHEDRAL>
0.0219686

>  <SCORE.INTRA.DIHEDRAL.0>
2.39103

>  <SCORE.INTRA.POLAR>
0

>  <SCORE.INTRA.POLAR.0>
0

>  <SCORE.INTRA.REPUL>
0

>  <SCORE.INTRA.REPUL.0>
0

>  <SCORE.INTRA.SOLV>
0.00570444

>  <SCORE.INTRA.SOLV.lig_0>
-163.975

>  <SCORE.INTRA.VDW>
0.113961

>  <SCORE.INTRA.VDW.0>
-1.49176

>  <SCORE.INTRA.norm>
0.00283994

>  <SCORE.RESTR>
0

>  <SCORE.RESTR.CAVITY>
0

>  <SCORE.RESTR.norm>
0

>  <SCORE.SYSTEM>
0

>  <SCORE.SYSTEM.CONST>
0

>  <SCORE.SYSTEM.DIHEDRAL>
0

>  <SCORE.SYSTEM.SOLV>
0

>  <SCORE.SYSTEM.norm>
0

>  <SCORE.heavy>
45

>  <SCORE.norm>
-1.01681

>  <RMSD>
0.537

$$$$
ligand
 OpenBabel11021811513D
libRbt.so/2013.1/901 2013/11/27
 45 51  0  0  0  0  0  0  0  0999 V2000
   97.4429   17.0555   97.3561 C   0  0  0  0  0  0  0  0  0  0  0  0
   95.1511   14.5197   94.8194 C   0  0  0  0  0  0  0  0  0  0  0  0
  102.4763   14.6820   98.5539 N   0  0  0  0  0  0  0  0  0  0  0  0
   97.7104   17.1612   98.6173 N   0  0  0  0  0  0  0  0  0  0  0  0
  100.5202   15.4706   97.5497 N   0  0  0  0  0  0  0  0  0  0  0  0
  100.8444   15.7581   99.8362 N   0  0  0  0  0  0  0  0  0  0  0  0
   99.2176   16.9143  101.1744 O   0  0  0  0  0  0  0  0  0  0  0  0
   92.4357   15.0692   96.1984 O   0  5  0  0  0  0  0  0  0  0  0  0
   98.1737   10.6387   93.8448 O   0  5  0  0  0  0  0  0  0  0  0  0
   99.5003   14.6179   94.0603 O   0  0  0  0  0  0  0  0  0  0  0  0
   93.5019   14.6835   98.1136 O   0  5  0  0  0  0  0  0  0  0  0  0
   99.2989   11.7221   95.4437 O   0  5  0  0  0  0  0  0  0  0  0  0
   94.7804   15.1082   96.0012 O   0  0  0  0  0  0  0  0  0  0  0  0
   96.9881   16.2849   94.8008 O   0  0  0  0  0  0  0  0  0  0  0  0
   97.5095   12.9069   94.0677 O   0  0  0  0  0  0  0  0  0  0  0  0
  101.2073   15.3290   98.6530 C   0  0  0  0  0  0  0  0  0  0  0  0
   99.6922   16.4012   99.9687 C   0  0  0  0  0  0  0  0  0  0  0  0
   98.8832   16.5757   98.8233 C   0  0  0  0  0  0  0  0  0  0  0  0
   99.3280   16.1079   97.6113 C   0  0  0  0  0  0  0  0  0  0  0  0
   98.6906   14.8681   95.1474 C   0  0  2  0  0  0  0  0  0  0  0  0
   96.5329   14.8627   94.4310 C   0  0  1  0  0  0  0  0  0  0  0  0
   97.3262   14.0320   94.9189 C   0  0  1  0  0  0  0  0  0  0  0  0
   98.3738   16.1314   95.3626 C   0  0  2  0  0  0  0  0  0  0  0  0
   98.3726   16.4266   96.7372 N   0  0  0  0  0  0  0  0  0  0  0  0
   93.5733   14.4285   96.7175 P   0  0  2  0  0  0  0  0  0  0  0  0
   98.0091   11.6465   94.8022 P   0  0  1  0  0  0  0  0  0  0  0  0
   95.5137   11.0646   95.3088 C   0  0  0  0  0  0  0  0  0  0  0  0
   96.8785   11.1330   95.7521 O   0  0  0  0  0  0  0  0  0  0  0  0
   94.5176   10.9530   96.3848 C   0  0  1  0  0  0  0  0  0  0  0  0
   95.0676    9.8951   97.4624 O   0  0  0  0  0  0  0  0  0  0  0  0
   94.4243   12.0446   97.0009 C   0  0  1  0  0  0  0  0  0  0  0  0
   93.4552   12.9327   96.3978 O   0  0  0  0  0  0  0  0  0  0  0  0
   94.0961   11.6351   98.4287 C   0  0  1  0  0  0  0  0  0  0  0  0
   92.8550   11.4454   98.5532 O   0  0  0  0  0  0  0  0  0  0  0  0
   94.8187   10.3012   98.6170 C   0  0  2  0  0  0  0  0  0  0  0  0
   96.2216   11.0934  103.4995 N   0  0  0  0  0  0  0  0  0  0  0  0
   94.9945   11.3045  102.9549 C   0  0  0  0  0  0  0  0  0  0  0  0
   94.8413   11.0259  101.6659 N   0  0  0  0  0  0  0  0  0  0  0  0
   95.8363   10.6102  100.8535 C   0  0  0  0  0  0  0  0  0  0  0  0
   97.1243   10.3795  101.3824 C   0  0  0  0  0  0  0  0  0  0  0  0
   97.2734   10.6621  102.7778 C   0  0  0  0  0  0  0  0  0  0  0  0
   98.5470   10.4798  103.3931 N   0  0  0  0  0  0  0  0  0  0  0  0
   97.8505    9.9535  100.4092 N   0  0  0  0  0  0  0  0  0  0  0  0
   97.1050    9.8804   99.3202 C   0  0  0  0  0  0  0  0  0  0  0  0
   95.9080   10.2850   99.5546 N   0  0  0  0  0  0  0  0  0  0  0  0
  1 24  1  0  0  0  0
  1  4  2  0  0  0  0
  2 13  1  0  0  0  0
  2 21  1  0  0  0  0
  3 16  1  0  0  0  0
  4 18  1  0  0  0  0
  5 19  2  0  0  0  0
  5 16  1  0  0  0  0
  6 16  2  0  0  0  0
  6 17  1  0  0  0  0
  7 17  1  0  0  0  0
 11 25  2  0  0  0  0
 12 26  2  0  0  0  0
 13 25  1  0  0  0  0
 14 23  1  0  0  0  0
 15 26  1  0  0  0  0
 17 18  2  0  0  0  0
 18 19  1  0  0  0  0
 19 24  1  0  0  0  0
 20 10  1  6  0  0  0
 20 22  1  0  0  0  0
 20 23  1  0  0  0  0
 21 14  1  1  0  0  0
 21 22  1  0  0  0  0
 22 15  1  6  0  0  0
 23 24  1  1  0  0  0
 25  8  1  6  0  0  0
 25 32  1  0  0  0  0
 26  9  1  6  0  0  0
 26 28  1  0  0  0  0
 27 28  1  0  0  0  0
 29 27  1  6  0  0  0
 29 30  1  0  0  0  0
 29 31  1  0  0  0  0
 30 35  1  0  0  0  0
 31 33  1  0  0  0  0
 31 32  1  6  0  0  0
 33 34  1  6  0  0  0
 33 35  1  0  0  0  0
 35 45  1  1  0  0  0
 36 41  2  0  0  0  0
 36 37  1  0  0  0  0
 37 38  2  0  0  0  0
 38 39  1  0  0  0  0
 39 40  2  0  0  0  0
 39 45  1  0  0  0  0
 40 41  1  0  0  0  0
 40 43  1  0  0  0  0
 41 42  1  0  0  0  0
 43 44  2  0  0  0  0
 44 45  1  0  0  0  0
M  CHG  4   8  -1   9  -1  11  -1  12  -1
M  END
>  <CHROM.1>
-16.61561901,-176.27320678,96.84277579,13.24360343,97.63843132,-1.08171861
0.64804526,2.00382598

>  <Name>
ligand

>  <RI>
0

>  <Rbt.Current_Directory>
/home/itssahil/PROJECTS/Mol_Feturizer/New_Systems/rnas/4YAZ

>  <Rbt.Executable>
rbdock ($Id: //depot/dev/client3/rdock/2013.1/src/exe/rbdock.cxx#4 $)

>  <Rbt.Library>
libRbt.so (2013.1, Build901 2013/11/27)

>  <Rbt.Parameter_File>
/export/apps/rDock/src/rDock_2013.1_src/data/scripts/dock_solv.prm

>  <Rbt.Receptor>
prm/pocket_docking_6.prm

>  <SCORE>
-45.7411

>  <SCORE.INTER>
-45.8231

>  <SCORE.INTER.CONST>
1

>  <SCORE.INTER.POLAR>
0

>  <SCORE.INTER.ROT>
2

>  <SCORE.INTER.SOLV>
46.8401

>  <SCORE.INTER.VDW>
-51.0954

>  <SCORE.INTER.norm>
-1.01829

>  <SCORE.INTRA>
0.0820104

>  <SCORE.INTRA.DIHEDRAL>
0.0154132

>  <SCORE.INTRA.DIHEDRAL.0>
2.39103

>  <SCORE.INTRA.POLAR>
0

>  <SCORE.INTRA.POLAR.0>
0

>  <SCORE.INTRA.REPUL>
0

>  <SCORE.INTRA.REPUL.0>
0

>  <SCORE.INTRA.SOLV>
0.00457994

>  <SCORE.INTRA.SOLV.lig_0>
-163.975

>  <SCORE.INTRA.VDW>
0.0720139

>  <SCORE.INTRA.VDW.0>
-1.49176

>  <SCORE.INTRA.norm>
0.00182245

>  <SCORE.RESTR>
0

>  <SCORE.RESTR.CAVITY>
0

>  <SCORE.RESTR.norm>
0

>  <SCORE.SYSTEM>
0

>  <SCORE.SYSTEM.CONST>
0

>  <SCORE.SYSTEM.DIHEDRAL>
0

>  <SCORE.SYSTEM.SOLV>
0

>  <SCORE.SYSTEM.norm>
0

>  <SCORE.heavy>
45

>  <SCORE.norm>
-1.01647

>  <RMSD>
0.538

$$$$
ligand
 OpenBabel11021811513D
libRbt.so/2013.1/901 2013/11/27
 45 51  0  0  0  0  0  0  0  0999 V2000
   97.4329   17.0375   97.3555 C   0  0  0  0  0  0  0  0  0  0  0  0
   95.1455   14.5169   94.8208 C   0  0  0  0  0  0  0  0  0  0  0  0
  102.5163   14.7578   98.5240 N   0  0  0  0  0  0  0  0  0  0  0  0
   97.7060   17.1487   98.6150 N   0  0  0  0  0  0  0  0  0  0  0  0
  100.5400   15.5096   97.5313 N   0  0  0  0  0  0  0  0  0  0  0  0
  100.8725   15.8041   99.8157 N   0  0  0  0  0  0  0  0  0  0  0  0
   99.2326   16.9307  101.1632 O   0  0  0  0  0  0  0  0  0  0  0  0
   92.4327   15.0660   96.2053 O   0  5  0  0  0  0  0  0  0  0  0  0
   98.1674   10.6365   93.8415 O   0  5  0  0  0  0  0  0  0  0  0  0
   99.4930   14.6162   94.0527 O   0  0  0  0  0  0  0  0  0  0  0  0
   93.5031   14.6814   98.1184 O   0  5  0  0  0  0  0  0  0  0  0  0
   99.2955   11.7208   95.4377 O   0  5  0  0  0  0  0  0  0  0  0  0
   94.7771   15.1057   96.0032 O   0  0  0  0  0  0  0  0  0  0  0  0
   96.9819   16.2827   94.7978 O   0  0  0  0  0  0  0  0  0  0  0  0
   97.5028   12.9045   94.0649 O   0  0  0  0  0  0  0  0  0  0  0  0
  101.2362   15.3812   98.6304 C   0  0  0  0  0  0  0  0  0  0  0  0
   99.7094   16.4259   99.9549 C   0  0  0  0  0  0  0  0  0  0  0  0
   98.8905   16.5850   98.8142 C   0  0  0  0  0  0  0  0  0  0  0  0
   99.3367   16.1249   97.5998 C   0  0  0  0  0  0  0  0  0  0  0  0
   98.6856   14.8666   95.1414 C   0  0  2  0  0  0  0  0  0  0  0  0
   96.5264   14.8601   94.4295 C   0  0  1  0  0  0  0  0  0  0  0  0
   97.3209   14.0299   94.9161 C   0  0  1  0  0  0  0  0  0  0  0  0
   98.3688   16.1299   95.3568 C   0  0  2  0  0  0  0  0  0  0  0  0
   98.3704   16.4256   96.7313 N   0  0  0  0  0  0  0  0  0  0  0  0
   93.5716   14.4259   96.7223 P   0  0  2  0  0  0  0  0  0  0  0  0
   98.0044   11.6446   94.7989 P   0  0  1  0  0  0  0  0  0  0  0  0
   95.5103   11.0621   95.3109 C   0  0  0  0  0  0  0  0  0  0  0  0
   96.8760   11.1311   95.7513 O   0  0  0  0  0  0  0  0  0  0  0  0
   94.5165   10.9505   96.3890 C   0  0  1  0  0  0  0  0  0  0  0  0
   95.0690    9.8932   97.4659 O   0  0  0  0  0  0  0  0  0  0  0  0
   94.4240   12.0423   97.0048 C   0  0  1  0  0  0  0  0  0  0  0  0
   93.4534   12.9299   96.4034 O   0  0  0  0  0  0  0  0  0  0  0  0
   94.0989   11.6333   98.4334 C   0  0  1  0  0  0  0  0  0  0  0  0
   92.8582   11.4433   98.5607 O   0  0  0  0  0  0  0  0  0  0  0  0
   94.8224   10.2997   98.6208 C   0  0  2  0  0  0  0  0  0  0  0  0
   96.2344   11.0909  103.5008 N   0  0  0  0  0  0  0  0  0  0  0  0
   95.0060   11.3009  102.9588 C   0  0  0  0  0  0  0  0  0  0  0  0
   94.8504   11.0229  101.6701 N   0  0  0  0  0  0  0  0  0  0  0  0
   95.8443   10.6087  100.8554 C   0  0  0  0  0  0  0  0  0  0  0  0
   97.1336   10.3791  101.3815 C   0  0  0  0  0  0  0  0  0  0  0  0
   97.2852   10.6612  102.7767 C   0  0  0  0  0  0  0  0  0  0  0  0
   98.5603   10.4800  103.3893 N   0  0  0  0  0  0  0  0  0  0  0  0
   97.8582    9.9545  100.4065 N   0  0  0  0  0  0  0  0  0  0  0  0
   97.1106    9.8811   99.3190 C   0  0  0  0  0  0  0  0  0  0  0  0
   95.9136   10.2842   99.5561 N   0  0  0  0  0  0  0  0  0  0  0  0
  1 24  1  0  0  0  0
  1  4  2  0  0  0  0
  2 13  1  0  0  0  0
  2 21  1  0  0  0  0
  3 16  1  0  0  0  0
  4 18  1  0  0  0  0
  5 19  2  0  0  0  0
  5 16  1  0  0  0  0
  6 16  2  0  0  0  0
  6 17  1  0  0  0  0
  7 17  1  0  0  0  0
 11 25  2  0  0  0  0
 12 26  2  0  0  0  0
 13 25  1  0  0  0  0
 14 23  1  0  0  0  0
 15 26  1  0  0  0  0
 17 18  2  0  0  0  0
 18 19  1  0  0  0  0
 19 24  1  0  0  0  0
 20 10  1  6  0  0  0
 20 22  1  0  0  0  0
 20 23  1  0  0  0  0
 21 14  1  1  0  0  0
 21 22  1  0  0  0  0
 22 15  1  6  0  0  0
 23 24  1  1  0  0  0
 25  8  1  6  0  0  0
 25 32  1  0  0  0  0
 26  9  1  6  0  0  0
 26 28  1  0  0  0  0
 27 28  1  0  0  0  0
 29 27  1  6  0  0  0
 29 30  1  0  0  0  0
 29 31  1  0  0  0  0
 30 35  1  0  0  0  0
 31 33  1  0  0  0  0
 31 32  1  6  0  0  0
 33 34  1  6  0  0  0
 33 35  1  0  0  0  0
 35 45  1  1  0  0  0
 36 41  2  0  0  0  0
 36 37  1  0  0  0  0
 37 38  2  0  0  0  0
 38 39  1  0  0  0  0
 39 40  2  0  0  0  0
 39 45  1  0  0  0  0
 40 41  1  0  0  0  0
 40 43  1  0  0  0  0
 41 42  1  0  0  0  0
 43 44  2  0  0  0  0
 44 45  1  0  0  0  0
M  CHG  4   8  -1   9  -1  11  -1  12  -1
M  END
>  <CHROM.1>
-15.55466274,-176.20360978,96.84601448,13.24717552,97.63585799,-1.06711860
0.64912161,2.00401112

>  <Name>
ligand

>  <RI>
0

>  <Rbt.Current_Directory>
/home/itssahil/PROJECTS/Mol_Feturizer/New_Systems/rnas/4YAZ

>  <Rbt.Executable>
rbdock ($Id: //depot/dev/client3/rdock/2013.1/src/exe/rbdock.cxx#4 $)

>  <Rbt.Library>
libRbt.so (2013.1, Build901 2013/11/27)

>  <Rbt.Parameter_File>
/export/apps/rDock/src/rDock_2013.1_src/data/scripts/dock_solv.prm

>  <Rbt.Receptor>
prm/pocket_docking_3.prm

>  <SCORE>
-45.7291

>  <SCORE.INTER>
-45.786

>  <SCORE.INTER.CONST>
1

>  <SCORE.INTER.POLAR>
0

>  <SCORE.INTER.ROT>
2

>  <SCORE.INTER.SOLV>
47.0281

>  <SCORE.INTER.VDW>
-51.1334

>  <SCORE.INTER.norm>
-1.01747

>  <SCORE.INTRA>
0.0569267

>  <SCORE.INTRA.DIHEDRAL>
0.0161128

>  <SCORE.INTRA.DIHEDRAL.0>
2.39103

>  <SCORE.INTRA.POLAR>
0

>  <SCORE.INTRA.POLAR.0>
0

>  <SCORE.INTRA.REPUL>
0

>  <SCORE.INTRA.REPUL.0>
0

>  <SCORE.INTRA.SOLV>
0.00310595

>  <SCORE.INTRA.SOLV.lig_0>
-163.975

>  <SCORE.INTRA.VDW>
0.0473174

>  <SCORE.INTRA.VDW.0>
-1.49176

>  <SCORE.INTRA.norm>
0.00126504

>  <SCORE.RESTR>
0

>  <SCORE.RESTR.CAVITY>
0

>  <SCORE.RESTR.norm>
0

>  <SCORE.SYSTEM>
0

>  <SCORE.SYSTEM.CONST>
0

>  <SCORE.SYSTEM.DIHEDRAL>
0

>  <SCORE.SYSTEM.SOLV>
0

>  <SCORE.SYSTEM.norm>
0

>  <SCORE.heavy>
45

>  <SCORE.norm>
-1.0162

>  <RMSD>
0.539

$$$$
ligand
 OpenBabel11021811513D
libRbt.so/2013.1/901 2013/11/27
 45 51  0  0  0  0  0  0  0  0999 V2000
   97.4272   17.0982   97.3696 C   0  0  0  0  0  0  0  0  0  0  0  0
   95.1552   14.5235   94.8111 C   0  0  0  0  0  0  0  0  0  0  0  0
  102.3544   14.5585   98.6639 N   0  0  0  0  0  0  0  0  0  0  0  0
   97.6730   17.1944   98.6359 N   0  0  0  0  0  0  0  0  0  0  0  0
  100.4458   15.4119   97.6222 N   0  0  0  0  0  0  0  0  0  0  0  0
  100.7340   15.6874   99.9150 N   0  0  0  0  0  0  0  0  0  0  0  0
   99.1203   16.8964  101.2221 O   0  0  0  0  0  0  0  0  0  0  0  0
   92.4217   15.0639   96.1577 O   0  5  0  0  0  0  0  0  0  0  0  0
   98.2012   10.6523   93.8708 O   0  5  0  0  0  0  0  0  0  0  0  0
   99.5128   14.6354   94.1043 O   0  0  0  0  0  0  0  0  0  0  0  0
   93.4661   14.6804   98.0853 O   0  5  0  0  0  0  0  0  0  0  0  0
   99.3037   11.7382   95.4837 O   0  5  0  0  0  0  0  0  0  0  0  0
   94.7685   15.1102   95.9887 O   0  0  0  0  0  0  0  0  0  0  0  0
   96.9868   16.2943   94.8155 O   0  0  0  0  0  0  0  0  0  0  0  0
   97.5273   12.9183   94.0869 O   0  0  0  0  0  0  0  0  0  0  0  0
  101.1059   15.2471   98.7386 C   0  0  0  0  0  0  0  0  0  0  0  0
   99.6014   16.3684  100.0254 C   0  0  0  0  0  0  0  0  0  0  0  0
   98.8214   16.5702   98.8644 C   0  0  0  0  0  0  0  0  0  0  0  0
   99.2744   16.0884   97.6609 C   0  0  0  0  0  0  0  0  0  0  0  0
   98.6894   14.8825   95.1818 C   0  0  2  0  0  0  0  0  0  0  0  0
   96.5405   14.8709   94.4395 C   0  0  1  0  0  0  0  0  0  0  0  0
   97.3303   14.0423   94.9365 C   0  0  1  0  0  0  0  0  0  0  0  0
   98.3661   16.1447   95.3938 C   0  0  2  0  0  0  0  0  0  0  0  0
   98.3476   16.4392   96.7685 N   0  0  0  0  0  0  0  0  0  0  0  0
   93.5550   14.4264   96.6901 P   0  0  2  0  0  0  0  0  0  0  0  0
   98.0219   11.6590   94.8267 P   0  0  1  0  0  0  0  0  0  0  0  0
   95.5224   11.0692   95.3030 C   0  0  0  0  0  0  0  0  0  0  0  0
   96.8816   11.1416   95.7626 O   0  0  0  0  0  0  0  0  0  0  0  0
   94.5139   10.9540   96.3669 C   0  0  1  0  0  0  0  0  0  0  0  0
   95.0541    9.8971   97.4505 O   0  0  0  0  0  0  0  0  0  0  0  0
   94.4098   12.0449   96.9824 C   0  0  1  0  0  0  0  0  0  0  0  0
   93.4453   12.9304   96.3682 O   0  0  0  0  0  0  0  0  0  0  0  0
   94.0657   11.6336   98.4059 C   0  0  1  0  0  0  0  0  0  0  0  0
   92.8238   11.4401   98.5155 O   0  0  0  0  0  0  0  0  0  0  0  0
   94.7902   10.3018   98.6022 C   0  0  2  0  0  0  0  0  0  0  0  0
   96.0897   10.8535  103.5460 N   0  0  0  0  0  0  0  0  0  0  0  0
   94.8582   11.0271  102.9981 C   0  0  0  0  0  0  0  0  0  0  0  0
   94.7360   10.8251  101.6917 N   0  0  0  0  0  0  0  0  0  0  0  0
   95.7629   10.5230  100.8688 C   0  0  0  0  0  0  0  0  0  0  0  0
   97.0566   10.3344  101.4007 C   0  0  0  0  0  0  0  0  0  0  0  0
   97.1732   10.5332  102.8135 C   0  0  0  0  0  0  0  0  0  0  0  0
   98.4486   10.3864  103.4345 N   0  0  0  0  0  0  0  0  0  0  0  0
   97.8175   10.0167  100.4128 N   0  0  0  0  0  0  0  0  0  0  0  0
   97.0897    9.9714   99.3104 C   0  0  0  0  0  0  0  0  0  0  0  0
   95.8681   10.2884   99.5528 N   0  0  0  0  0  0  0  0  0  0  0  0
  1 24  1  0  0  0  0
  1  4  2  0  0  0  0
  2 13  1  0  0  0  0
  2 21  1  0  0  0  0
  3 16  1  0  0  0  0
  4 18  1  0  0  0  0
  5 19  2  0  0  0  0
  5 16  1  0  0  0  0
  6 16  2  0  0  0  0
  6 17  1  0  0  0  0
  7 17  1  0  0  0  0
 11 25  2  0  0  0  0
 12 26  2  0  0  0  0
 13 25  1  0  0  0  0
 14 23  1  0  0  0  0
 15 26  1  0  0  0  0
 17 18  2  0  0  0  0
 18 19  1  0  0  0  0
 19 24  1  0  0  0  0
 20 10  1  6  0  0  0
 20 22  1  0  0  0  0
 20 23  1  0  0  0  0
 21 14  1  1  0  0  0
 21 22  1  0  0  0  0
 22 15  1  6  0  0  0
 23 24  1  1  0  0  0
 25  8  1  6  0  0  0
 25 32  1  0  0  0  0
 26  9  1  6  0  0  0
 26 28  1  0  0  0  0
 27 28  1  0  0  0  0
 29 27  1  6  0  0  0
 29 30  1  0  0  0  0
 29 31  1  0  0  0  0
 30 35  1  0  0  0  0
 31 33  1  0  0  0  0
 31 32  1  6  0  0  0
 33 34  1  6  0  0  0
 33 35  1  0  0  0  0
 35 45  1  1  0  0  0
 36 41  2  0  0  0  0
 36 37  1  0  0  0  0
 37 38  2  0  0  0  0
 38 39  1  0  0  0  0
 39 40  2  0  0  0  0
 39 45  1  0  0  0  0
 40 41  1  0  0  0  0
 40 43  1  0  0  0  0
 41 42  1  0  0  0  0
 43 44  2  0  0  0  0
 44 45  1  0  0  0  0
M  CHG  4   8  -1   9  -1  11  -1  12  -1
M  END
>  <CHROM.1>
-18.73953643,-171.35317696,96.80829067,13.22216150,97.65469858,-1.11123854
0.64927543,2.01466625

>  <Name>
ligand

>  <RI>
0

>  <Rbt.Current_Directory>
/home/itssahil/PROJECTS/Mol_Feturizer/New_Systems/rnas/4YAZ

>  <Rbt.Executable>
rbdock ($Id: //depot/dev/client3/rdock/2013.1/src/exe/rbdock.cxx#4 $)

>  <Rbt.Library>
libRbt.so (2013.1, Build901 2013/11/27)

>  <Rbt.Parameter_File>
/export/apps/rDock/src/rDock_2013.1_src/data/scripts/dock_solv.prm

>  <Rbt.Receptor>
prm/pocket_docking_4.prm

>  <SCORE>
-45.5837

>  <SCORE.INTER>
-45.707

>  <SCORE.INTER.CONST>
1

>  <SCORE.INTER.POLAR>
0

>  <SCORE.INTER.ROT>
2

>  <SCORE.INTER.SOLV>
46.2718

>  <SCORE.INTER.VDW>
-50.8286

>  <SCORE.INTER.norm>
-1.01571

>  <SCORE.INTRA>
0.123351

>  <SCORE.INTRA.DIHEDRAL>
0.0494349

>  <SCORE.INTRA.DIHEDRAL.0>
2.39103

>  <SCORE.INTRA.POLAR>
0

>  <SCORE.INTRA.POLAR.0>
0

>  <SCORE.INTRA.REPUL>
0

>  <SCORE.INTRA.REPUL.0>
0

>  <SCORE.INTRA.SOLV>
0.000241843

>  <SCORE.INTRA.SOLV.lig_0>
-163.975

>  <SCORE.INTRA.VDW>
0.0985122

>  <SCORE.INTRA.VDW.0>
-1.49176

>  <SCORE.INTRA.norm>
0.00274112

>  <SCORE.RESTR>
0

>  <SCORE.RESTR.CAVITY>
0

>  <SCORE.RESTR.norm>
0

>  <SCORE.SYSTEM>
0

>  <SCORE.SYSTEM.CONST>
0

>  <SCORE.SYSTEM.DIHEDRAL>
0

>  <SCORE.SYSTEM.SOLV>
0

>  <SCORE.SYSTEM.norm>
0

>  <SCORE.heavy>
45

>  <SCORE.norm>
-1.01297

>  <RMSD>
0.540

$$$$
ligand
 OpenBabel11021811513D
libRbt.so/2013.1/901 2013/11/27
 45 51  0  0  0  0  0  0  0  0999 V2000
   97.4040   17.0541   97.3467 C   0  0  0  0  0  0  0  0  0  0  0  0
   95.1073   14.4850   94.8164 C   0  0  0  0  0  0  0  0  0  0  0  0
  102.3833   14.5748   98.5562 N   0  0  0  0  0  0  0  0  0  0  0  0
   97.6696   17.1521   98.6089 N   0  0  0  0  0  0  0  0  0  0  0  0
  100.4472   15.4054   97.5473 N   0  0  0  0  0  0  0  0  0  0  0  0
  100.7699   15.6822   99.8353 N   0  0  0  0  0  0  0  0  0  0  0  0
   99.1631   16.8697  101.1704 O   0  0  0  0  0  0  0  0  0  0  0  0
   92.3921   15.0165   96.2032 O   0  5  0  0  0  0  0  0  0  0  0  0
   98.1498   10.6232   93.8277 O   0  5  0  0  0  0  0  0  0  0  0  0
   99.4539   14.6096   94.0468 O   0  0  0  0  0  0  0  0  0  0  0  0
   93.4654   14.6336   98.1150 O   0  5  0  0  0  0  0  0  0  0  0  0
   99.2726   11.7103   95.4257 O   0  5  0  0  0  0  0  0  0  0  0  0
   94.7361   15.0693   96.0002 O   0  0  0  0  0  0  0  0  0  0  0  0
   96.9340   16.2608   94.7964 O   0  0  0  0  0  0  0  0  0  0  0  0
   97.4730   12.8871   94.0561 O   0  0  0  0  0  0  0  0  0  0  0  0
  101.1277   15.2477   98.6525 C   0  0  0  0  0  0  0  0  0  0  0  0
   99.6309   16.3489   99.9653 C   0  0  0  0  0  0  0  0  0  0  0  0
   98.8293   16.5421   98.8176 C   0  0  0  0  0  0  0  0  0  0  0  0
   99.2683   16.0672   97.6062 C   0  0  0  0  0  0  0  0  0  0  0  0
   98.6455   14.8533   95.1364 C   0  0  2  0  0  0  0  0  0  0  0  0
   96.4861   14.8366   94.4253 C   0  0  1  0  0  0  0  0  0  0  0  0
   97.2853   14.0096   94.9098 C   0  0  1  0  0  0  0  0  0  0  0  0
   98.3219   16.1144   95.3545 C   0  0  2  0  0  0  0  0  0  0  0  0
   98.3225   16.4072   96.7297 N   0  0  0  0  0  0  0  0  0  0  0  0
   93.5347   14.3815   96.7183 P   0  0  2  0  0  0  0  0  0  0  0  0
   97.9817   11.6283   94.7873 P   0  0  1  0  0  0  0  0  0  0  0  0
   95.4910   11.0312   95.2990 C   0  0  0  0  0  0  0  0  0  0  0  0
   96.8565   11.1067   95.7390 O   0  0  0  0  0  0  0  0  0  0  0  0
   94.4983   10.9120   96.3773 C   0  0  1  0  0  0  0  0  0  0  0  0
   95.0570    9.8554   97.4517 O   0  0  0  0  0  0  0  0  0  0  0  0
   94.4001   12.0020   96.9955 C   0  0  1  0  0  0  0  0  0  0  0  0
   93.4245   12.8855   96.3963 O   0  0  0  0  0  0  0  0  0  0  0  0
   94.0779   11.5882   98.4233 C   0  0  1  0  0  0  0  0  0  0  0  0
   92.8382   11.3911   98.5507 O   0  0  0  0  0  0  0  0  0  0  0  0
   94.8087   10.2581   98.6075 C   0  0  2  0  0  0  0  0  0  0  0  0
   96.2242   11.0760  103.4821 N   0  0  0  0  0  0  0  0  0  0  0  0
   94.9959   11.2845  102.9396 C   0  0  0  0  0  0  0  0  0  0  0  0
   94.8392   10.9991  101.6525 N   0  0  0  0  0  0  0  0  0  0  0  0
   95.8321   10.5787  100.8398 C   0  0  0  0  0  0  0  0  0  0  0  0
   97.1214   10.3505  101.3666 C   0  0  0  0  0  0  0  0  0  0  0  0
   97.2741   10.6405  102.7600 C   0  0  0  0  0  0  0  0  0  0  0  0
   98.5492   10.4611  103.3731 N   0  0  0  0  0  0  0  0  0  0  0  0
   97.8449    9.9191  100.3938 N   0  0  0  0  0  0  0  0  0  0  0  0
   97.0966    9.8404   99.3071 C   0  0  0  0  0  0  0  0  0  0  0  0
   95.9003   10.2466   99.5425 N   0  0  0  0  0  0  0  0  0  0  0  0
  1 24  1  0  0  0  0
  1  4  2  0  0  0  0
  2 13  1  0  0  0  0
  2 21  1  0  0  0  0
  3 16  1  0  0  0  0
  4 18  1  0  0  0  0
  5 19  2  0  0  0  0
  5 16  1  0  0  0  0
  6 16  2  0  0  0  0
  6 17  1  0  0  0  0
  7 17  1  0  0  0  0
 11 25  2  0  0  0  0
 12 26  2  0  0  0  0
 13 25  1  0  0  0  0
 14 23  1  0  0  0  0
 15 26  1  0  0  0  0
 17 18  2  0  0  0  0
 18 19  1  0  0  0  0
 19 24  1  0  0  0  0
 20 10  1  6  0  0  0
 20 22  1  0  0  0  0
 20 23  1  0  0  0  0
 21 14  1  1  0  0  0
 21 22  1  0  0  0  0
 22 15  1  6  0  0  0
 23 24  1  1  0  0  0
 25  8  1  6  0  0  0
 25 32  1  0  0  0  0
 26  9  1  6  0  0  0
 26 28  1  0  0  0  0
 27 28  1  0  0  0  0
 29 27  1  6  0  0  0
 29 30  1  0  0  0  0
 29 31  1  0  0  0  0
 30 35  1  0  0  0  0
 31 33  1  0  0  0  0
 31 32  1  6  0  0  0
 33 34  1  6  0  0  0
 33 35  1  0  0  0  0
 35 45  1  1  0  0  0
 36 41  2  0  0  0  0
 36 37  1  0  0  0  0
 37 38  2  0  0  0  0
 38 39  1  0  0  0  0
 39 40  2  0  0  0  0
 39 45  1  0  0  0  0
 40 41  1  0  0  0  0
 40 43  1  0  0  0  0
 41 42  1  0  0  0  0
 43 44  2  0  0  0  0
 44 45  1  0  0  0  0
M  CHG  4   8  -1   9  -1  11  -1  12  -1
M  END
>  <CHROM.1>
-18.16848710,-176.80633620,96.80967452,13.20855777,97.63025855,-1.11166076
0.65043020,2.00922454

>  <Name>
ligand

>  <RI>
0

>  <Rbt.Current_Directory>
/home/itssahil/PROJECTS/Mol_Feturizer/New_Systems/rnas/4YAZ

>  <Rbt.Executable>
rbdock ($Id: //depot/dev/client3/rdock/2013.1/src/exe/rbdock.cxx#4 $)

>  <Rbt.Library>
libRbt.so (2013.1, Build901 2013/11/27)

>  <Rbt.Parameter_File>
/export/apps/rDock/src/rDock_2013.1_src/data/scripts/dock_solv.prm

>  <Rbt.Receptor>
prm/pocket_docking_6.prm

>  <SCORE>
-45.6989

>  <SCORE.INTER>
-45.8198

>  <SCORE.INTER.CONST>
1

>  <SCORE.INTER.POLAR>
0

>  <SCORE.INTER.ROT>
2

>  <SCORE.INTER.SOLV>
46.2001

>  <SCORE.INTER.VDW>
-50.8799

>  <SCORE.INTER.norm>
-1.01822

>  <SCORE.INTRA>
0.120833

>  <SCORE.INTRA.DIHEDRAL>
0.0113299

>  <SCORE.INTRA.DIHEDRAL.0>
2.39103

>  <SCORE.INTRA.POLAR>
0

>  <SCORE.INTRA.POLAR.0>
0

>  <SCORE.INTRA.REPUL>
0

>  <SCORE.INTRA.REPUL.0>
0

>  <SCORE.INTRA.SOLV>
0.00722892

>  <SCORE.INTRA.SOLV.lig_0>
-163.975

>  <SCORE.INTRA.VDW>
0.111553

>  <SCORE.INTRA.VDW.0>
-1.49176

>  <SCORE.INTRA.norm>
0.00268517

>  <SCORE.RESTR>
0

>  <SCORE.RESTR.CAVITY>
0

>  <SCORE.RESTR.norm>
0

>  <SCORE.SYSTEM>
0

>  <SCORE.SYSTEM.CONST>
0

>  <SCORE.SYSTEM.DIHEDRAL>
0

>  <SCORE.SYSTEM.SOLV>
0

>  <SCORE.SYSTEM.norm>
0

>  <SCORE.heavy>
45

>  <SCORE.norm>
-1.01553

>  <RMSD>
0.540

$$$$
ligand
 OpenBabel11021811513D
libRbt.so/2013.1/901 2013/11/27
 45 51  0  0  0  0  0  0  0  0999 V2000
   97.2507   17.1239   97.2585 C   0  0  0  0  0  0  0  0  0  0  0  0
   95.0412   14.5078   94.7413 C   0  0  0  0  0  0  0  0  0  0  0  0
  102.3702   14.9541   98.4778 N   0  0  0  0  0  0  0  0  0  0  0  0
   97.5141   17.2522   98.5184 N   0  0  0  0  0  0  0  0  0  0  0  0
  100.3856   15.6582   97.4666 N   0  0  0  0  0  0  0  0  0  0  0  0
  100.6989   15.9805   99.7500 N   0  0  0  0  0  0  0  0  0  0  0  0
   99.0296   17.0879  101.0773 O   0  0  0  0  0  0  0  0  0  0  0  0
   92.3085   14.9937   96.1103 O   0  5  0  0  0  0  0  0  0  0  0  0
   98.1746   10.7047   93.8107 O   0  5  0  0  0  0  0  0  0  0  0  0
   99.3872   14.7219   93.9887 O   0  0  0  0  0  0  0  0  0  0  0  0
   93.3815   14.6574   98.0310 O   0  5  0  0  0  0  0  0  0  0  0  0
   99.2654   11.8354   95.4006 O   0  5  0  0  0  0  0  0  0  0  0  0
   94.6516   15.0973   95.9166 O   0  0  0  0  0  0  0  0  0  0  0  0
   96.8273   16.3242   94.7083 O   0  0  0  0  0  0  0  0  0  0  0  0
   97.4458   12.9552   94.0097 O   0  0  0  0  0  0  0  0  0  0  0  0
  101.0777   15.5536   98.5710 C   0  0  0  0  0  0  0  0  0  0  0  0
   99.5232   16.5810   99.8766 C   0  0  0  0  0  0  0  0  0  0  0  0
   98.7081   16.7135   98.7297 C   0  0  0  0  0  0  0  0  0  0  0  0
   99.1702   16.2506   97.5223 C   0  0  0  0  0  0  0  0  0  0  0  0
   98.5687   14.9598   95.0719 C   0  0  2  0  0  0  0  0  0  0  0  0
   96.4134   14.8860   94.3520 C   0  0  1  0  0  0  0  0  0  0  0  0
   97.2290   14.0830   94.8494 C   0  0  1  0  0  0  0  0  0  0  0  0
   98.2157   16.2157   95.2739 C   0  0  2  0  0  0  0  0  0  0  0  0
   98.2035   16.5244   96.6455 N   0  0  0  0  0  0  0  0  0  0  0  0
   93.4628   14.3907   96.6376 P   0  0  2  0  0  0  0  0  0  0  0  0
   97.9795   11.7169   94.7577 P   0  0  1  0  0  0  0  0  0  0  0  0
   95.5007   11.0694   95.2659 C   0  0  0  0  0  0  0  0  0  0  0  0
   96.8621   11.1810   95.7107 O   0  0  0  0  0  0  0  0  0  0  0  0
   94.5061   10.9403   96.3412 C   0  0  1  0  0  0  0  0  0  0  0  0
   95.0837    9.9091   97.4303 O   0  0  0  0  0  0  0  0  0  0  0  0
   94.3805   12.0348   96.9462 C   0  0  1  0  0  0  0  0  0  0  0  0
   93.3879   12.8890   96.3326 O   0  0  0  0  0  0  0  0  0  0  0  0
   94.0613   11.6304   98.3775 C   0  0  1  0  0  0  0  0  0  0  0  0
   92.8259   11.4068   98.5018 O   0  0  0  0  0  0  0  0  0  0  0  0
   94.8211   10.3194   98.5803 C   0  0  2  0  0  0  0  0  0  0  0  0
   96.1748   11.0992  103.4786 N   0  0  0  0  0  0  0  0  0  0  0  0
   94.9392   11.2559  102.9351 C   0  0  0  0  0  0  0  0  0  0  0  0
   94.8022   10.9919  101.6412 N   0  0  0  0  0  0  0  0  0  0  0  0
   95.8185   10.6422  100.8240 C   0  0  0  0  0  0  0  0  0  0  0  0
   97.1160   10.4693  101.3516 C   0  0  0  0  0  0  0  0  0  0  0  0
   97.2485   10.7353  102.7520 C   0  0  0  0  0  0  0  0  0  0  0  0
   98.5290   10.6086  103.3668 N   0  0  0  0  0  0  0  0  0  0  0  0
   97.8645   10.0983  100.3729 N   0  0  0  0  0  0  0  0  0  0  0  0
   97.1252   10.0055   99.2812 C   0  0  0  0  0  0  0  0  0  0  0  0
   95.9086   10.3435   99.5199 N   0  0  0  0  0  0  0  0  0  0  0  0
  1 24  1  0  0  0  0
  1  4  2  0  0  0  0
  2 13  1  0  0  0  0
  2 21  1  0  0  0  0
  3 16  1  0  0  0  0
  4 18  1  0  0  0  0
  5 19  2  0  0  0  0
  5 16  1  0  0  0  0
  6 16  2  0  0  0  0
  6 17  1  0  0  0  0
  7 17  1  0  0  0  0
 11 25  2  0  0  0  0
 12 26  2  0  0  0  0
 13 25  1  0  0  0  0
 14 23  1  0  0  0  0
 15 26  1  0  0  0  0
 17 18  2  0  0  0  0
 18 19  1  0  0  0  0
 19 24  1  0  0  0  0
 20 10  1  6  0  0  0
 20 22  1  0  0  0  0
 20 23  1  0  0  0  0
 21 14  1  1  0  0  0
 21 22  1  0  0  0  0
 22 15  1  6  0  0  0
 23 24  1  1  0  0  0
 25  8  1  6  0  0  0
 25 32  1  0  0  0  0
 26  9  1  6  0  0  0
 26 28  1  0  0  0  0
 27 28  1  0  0  0  0
 29 27  1  6  0  0  0
 29 30  1  0  0  0  0
 29 31  1  0  0  0  0
 30 35  1  0  0  0  0
 31 33  1  0  0  0  0
 31 32  1  6  0  0  0
 33 34  1  6  0  0  0
 33 35  1  0  0  0  0
 35 45  1  1  0  0  0
 36 41  2  0  0  0  0
 36 37  1  0  0  0  0
 37 38  2  0  0  0  0
 38 39  1  0  0  0  0
 39 40  2  0  0  0  0
 39 45  1  0  0  0  0
 40 41  1  0  0  0  0
 40 43  1  0  0  0  0
 41 42  1  0  0  0  0
 43 44  2  0  0  0  0
 44 45  1  0  0  0  0
M  CHG  4   8  -1   9  -1  11  -1  12  -1
M  END
>  <CHROM.1>
-16.06738197,-174.22354748,96.76294304,13.30309136,97.57679886,-1.09088024
0.67383558,2.00746451

>  <Name>
ligand

>  <RI>
0

>  <Rbt.Current_Directory>
/home/itssahil/PROJECTS/Mol_Feturizer/New_Systems/rnas/4YAZ

>  <Rbt.Executable>
rbdock ($Id: //depot/dev/client3/rdock/2013.1/src/exe/rbdock.cxx#4 $)

>  <Rbt.Library>
libRbt.so (2013.1, Build901 2013/11/27)

>  <Rbt.Parameter_File>
/export/apps/rDock/src/rDock_2013.1_src/data/scripts/dock_solv.prm

>  <Rbt.Receptor>
prm/pocket_docking_2.prm

>  <SCORE>
-45.4516

>  <SCORE.INTER>
-45.5163

>  <SCORE.INTER.CONST>
1

>  <SCORE.INTER.POLAR>
0

>  <SCORE.INTER.ROT>
2

>  <SCORE.INTER.SOLV>
45.4353

>  <SCORE.INTER.VDW>
-50.4226

>  <SCORE.INTER.norm>
-1.01147

>  <SCORE.INTRA>
0.0647193

>  <SCORE.INTRA.DIHEDRAL>
0.0300604

>  <SCORE.INTRA.DIHEDRAL.0>
2.39103

>  <SCORE.INTRA.POLAR>
0

>  <SCORE.INTRA.POLAR.0>
0

>  <SCORE.INTRA.REPUL>
0

>  <SCORE.INTRA.REPUL.0>
0

>  <SCORE.INTRA.SOLV>
0.00106288

>  <SCORE.INTRA.SOLV.lig_0>
-163.975

>  <SCORE.INTRA.VDW>
0.0491577

>  <SCORE.INTRA.VDW.0>
-1.49176

>  <SCORE.INTRA.norm>
0.00143821

>  <SCORE.RESTR>
0

>  <SCORE.RESTR.CAVITY>
0

>  <SCORE.RESTR.norm>
0

>  <SCORE.SYSTEM>
0

>  <SCORE.SYSTEM.CONST>
0

>  <SCORE.SYSTEM.DIHEDRAL>
0

>  <SCORE.SYSTEM.SOLV>
0

>  <SCORE.SYSTEM.norm>
0

>  <SCORE.heavy>
45

>  <SCORE.norm>
-1.01004

>  <RMSD>
0.542

$$$$
ligand
 OpenBabel11021811513D
libRbt.so/2013.1/901 2013/11/27
 45 51  0  0  0  0  0  0  0  0999 V2000
   97.3946   17.1068   97.3831 C   0  0  0  0  0  0  0  0  0  0  0  0
   95.1465   14.5193   94.8226 C   0  0  0  0  0  0  0  0  0  0  0  0
  102.3776   14.6544   98.6314 N   0  0  0  0  0  0  0  0  0  0  0  0
   97.6471   17.2012   98.6483 N   0  0  0  0  0  0  0  0  0  0  0  0
  100.4462   15.4768   97.6069 N   0  0  0  0  0  0  0  0  0  0  0  0
  100.7446   15.7460   99.8991 N   0  0  0  0  0  0  0  0  0  0  0  0
   99.1171   16.9174  101.2232 O   0  0  0  0  0  0  0  0  0  0  0  0
   92.4135   15.0152   96.1872 O   0  5  0  0  0  0  0  0  0  0  0  0
   98.2399   10.6952   93.8452 O   0  5  0  0  0  0  0  0  0  0  0  0
   99.4982   14.6947   94.0925 O   0  0  0  0  0  0  0  0  0  0  0  0
   93.4738   14.6360   98.1070 O   0  5  0  0  0  0  0  0  0  0  0  0
   99.3365   11.7877   95.4577 O   0  5  0  0  0  0  0  0  0  0  0  0
   94.7585   15.0945   96.0054 O   0  0  0  0  0  0  0  0  0  0  0  0
   96.9537   16.3150   94.8263 O   0  0  0  0  0  0  0  0  0  0  0  0
   97.5363   12.9506   94.0769 O   0  0  0  0  0  0  0  0  0  0  0  0
  101.1168   15.3188   98.7181 C   0  0  0  0  0  0  0  0  0  0  0  0
   99.6000   16.4048  100.0206 C   0  0  0  0  0  0  0  0  0  0  0  0
   98.8086   16.5977   98.8658 C   0  0  0  0  0  0  0  0  0  0  0  0
   99.2625   16.1308   97.6569 C   0  0  0  0  0  0  0  0  0  0  0  0
   98.6775   14.9249   95.1757 C   0  0  2  0  0  0  0  0  0  0  0  0
   96.5249   14.8876   94.4453 C   0  0  1  0  0  0  0  0  0  0  0  0
   97.3287   14.0674   94.9335 C   0  0  1  0  0  0  0  0  0  0  0  0
   98.3382   16.1814   95.3962 C   0  0  2  0  0  0  0  0  0  0  0  0
   98.3233   16.4684   96.7725 N   0  0  0  0  0  0  0  0  0  0  0  0
   93.5583   14.3905   96.7099 P   0  0  2  0  0  0  0  0  0  0  0  0
   98.0523   11.6944   94.8074 P   0  0  1  0  0  0  0  0  0  0  0  0
   95.5638   11.0679   95.2943 C   0  0  0  0  0  0  0  0  0  0  0  0
   96.9244   11.1565   95.7468 O   0  0  0  0  0  0  0  0  0  0  0  0
   94.5629   10.9333   96.3632 C   0  0  1  0  0  0  0  0  0  0  0  0
   95.1236    9.8783   97.4382 O   0  0  0  0  0  0  0  0  0  0  0  0
   94.4473   12.0195   96.9849 C   0  0  1  0  0  0  0  0  0  0  0  0
   93.4674   12.8948   96.3807 O   0  0  0  0  0  0  0  0  0  0  0  0
   94.1169   11.5961   98.4082 C   0  0  1  0  0  0  0  0  0  0  0  0
   92.8784   11.3850   98.5236 O   0  0  0  0  0  0  0  0  0  0  0  0
   94.8606   10.2734   98.5934 C   0  0  2  0  0  0  0  0  0  0  0  0
   96.2260   11.0979  103.4811 N   0  0  0  0  0  0  0  0  0  0  0  0
   95.0008   11.2969  102.9279 C   0  0  0  0  0  0  0  0  0  0  0  0
   94.8580   11.0115  101.6392 N   0  0  0  0  0  0  0  0  0  0  0  0
   95.8614   10.6001  100.8349 C   0  0  0  0  0  0  0  0  0  0  0  0
   97.1478   10.3818  101.3730 C   0  0  0  0  0  0  0  0  0  0  0  0
   97.2857   10.6717  102.7680 C   0  0  0  0  0  0  0  0  0  0  0  0
   98.5568   10.5021  103.3922 N   0  0  0  0  0  0  0  0  0  0  0  0
   97.8835    9.9574  100.4063 N   0  0  0  0  0  0  0  0  0  0  0  0
   97.1456    9.8737   99.3129 C   0  0  0  0  0  0  0  0  0  0  0  0
   95.9439   10.2698   99.5380 N   0  0  0  0  0  0  0  0  0  0  0  0
  1 24  1  0  0  0  0
  1  4  2  0  0  0  0
  2 13  1  0  0  0  0
  2 21  1  0  0  0  0
  3 16  1  0  0  0  0
  4 18  1  0  0  0  0
  5 19  2  0  0  0  0
  5 16  1  0  0  0  0
  6 16  2  0  0  0  0
  6 17  1  0  0  0  0
  7 17  1  0  0  0  0
 11 25  2  0  0  0  0
 12 26  2  0  0  0  0
 13 25  1  0  0  0  0
 14 23  1  0  0  0  0
 15 26  1  0  0  0  0
 17 18  2  0  0  0  0
 18 19  1  0  0  0  0
 19 24  1  0  0  0  0
 20 10  1  6  0  0  0
 20 22  1  0  0  0  0
 20 23  1  0  0  0  0
 21 14  1  1  0  0  0
 21 22  1  0  0  0  0
 22 15  1  6  0  0  0
 23 24  1  1  0  0  0
 25  8  1  6  0  0  0
 25 32  1  0  0  0  0
 26  9  1  6  0  0  0
 26 28  1  0  0  0  0
 27 28  1  0  0  0  0
 29 27  1  6  0  0  0
 29 30  1  0  0  0  0
 29 31  1  0  0  0  0
 30 35  1  0  0  0  0
 31 33  1  0  0  0  0
 31 32  1  6  0  0  0
 33 34  1  6  0  0  0
 33 35  1  0  0  0  0
 35 45  1  1  0  0  0
 36 41  2  0  0  0  0
 36 37  1  0  0  0  0
 37 38  2  0  0  0  0
 38 39  1  0  0  0  0
 39 40  2  0  0  0  0
 39 45  1  0  0  0  0
 40 41  1  0  0  0  0
 40 43  1  0  0  0  0
 41 42  1  0  0  0  0
 43 44  2  0  0  0  0
 44 45  1  0  0  0  0
M  CHG  4   8  -1   9  -1  11  -1  12  -1
M  END
>  <CHROM.1>
-18.43289613,-177.05018759,96.83718740,13.24933363,97.64633462,-1.11117419
0.66399066,2.01035788

>  <Name>
ligand

>  <RI>
0

>  <Rbt.Current_Directory>
/home/itssahil/PROJECTS/Mol_Feturizer/New_Systems/rnas/4YAZ

>  <Rbt.Executable>
rbdock ($Id: //depot/dev/client3/rdock/2013.1/src/exe/rbdock.cxx#4 $)

>  <Rbt.Library>
libRbt.so (2013.1, Build901 2013/11/27)

>  <Rbt.Parameter_File>
/export/apps/rDock/src/rDock_2013.1_src/data/scripts/dock_solv.prm

>  <Rbt.Receptor>
prm/pocket_docking_4.prm

>  <SCORE>
-45.8369

>  <SCORE.INTER>
-45.9648

>  <SCORE.INTER.CONST>
1

>  <SCORE.INTER.POLAR>
0

>  <SCORE.INTER.ROT>
2

>  <SCORE.INTER.SOLV>
46.6881

>  <SCORE.INTER.VDW>
-51.1392

>  <SCORE.INTER.norm>
-1.02144

>  <SCORE.INTRA>
0.127911

>  <SCORE.INTRA.DIHEDRAL>
0.00954168

>  <SCORE.INTRA.DIHEDRAL.0>
2.39103

>  <SCORE.INTRA.POLAR>
0

>  <SCORE.INTRA.POLAR.0>
0

>  <SCORE.INTRA.REPUL>
0

>  <SCORE.INTRA.REPUL.0>
0

>  <SCORE.INTRA.SOLV>
0.0078704

>  <SCORE.INTRA.SOLV.lig_0>
-163.975

>  <SCORE.INTRA.VDW>
0.119205

>  <SCORE.INTRA.VDW.0>
-1.49176

>  <SCORE.INTRA.norm>
0.00284246

>  <SCORE.RESTR>
0

>  <SCORE.RESTR.CAVITY>
0

>  <SCORE.RESTR.norm>
0

>  <SCORE.SYSTEM>
0

>  <SCORE.SYSTEM.CONST>
0

>  <SCORE.SYSTEM.DIHEDRAL>
0

>  <SCORE.SYSTEM.SOLV>
0

>  <SCORE.SYSTEM.norm>
0

>  <SCORE.heavy>
45

>  <SCORE.norm>
-1.0186

>  <RMSD>
0.542

$$$$
ligand
 OpenBabel11021811513D
libRbt.so/2013.1/901 2013/11/27
 45 51  0  0  0  0  0  0  0  0999 V2000
   97.2624   17.0931   97.2429 C   0  0  0  0  0  0  0  0  0  0  0  0
   95.0309   14.4932   94.7451 C   0  0  0  0  0  0  0  0  0  0  0  0
  102.4219   14.9858   98.4015 N   0  0  0  0  0  0  0  0  0  0  0  0
   97.5396   17.2259   98.4994 N   0  0  0  0  0  0  0  0  0  0  0  0
  100.4169   15.6651   97.4140 N   0  0  0  0  0  0  0  0  0  0  0  0
  100.7541   15.9935   99.6931 N   0  0  0  0  0  0  0  0  0  0  0  0
   99.0881   17.0823  101.0397 O   0  0  0  0  0  0  0  0  0  0  0  0
   92.3117   14.9864   96.1382 O   0  5  0  0  0  0  0  0  0  0  0  0
   98.1473   10.6823   93.7897 O   0  5  0  0  0  0  0  0  0  0  0  0
   99.3704   14.6970   93.9531 O   0  0  0  0  0  0  0  0  0  0  0  0
   93.4013   14.6494   98.0494 O   0  5  0  0  0  0  0  0  0  0  0  0
   99.2549   11.8120   95.3687 O   0  5  0  0  0  0  0  0  0  0  0  0
   94.6532   15.0846   95.9233 O   0  0  0  0  0  0  0  0  0  0  0  0
   96.8207   16.3056   94.6943 O   0  0  0  0  0  0  0  0  0  0  0  0
   97.4254   12.9346   93.9933 O   0  0  0  0  0  0  0  0  0  0  0  0
  101.1235   15.5700   98.5099 C   0  0  0  0  0  0  0  0  0  0  0  0
   99.5730   16.5801   99.8335 C   0  0  0  0  0  0  0  0  0  0  0  0
   98.7425   16.7016   98.6966 C   0  0  0  0  0  0  0  0  0  0  0  0
   99.1953   16.2431   97.4840 C   0  0  0  0  0  0  0  0  0  0  0  0
   98.5623   14.9376   95.0434 C   0  0  2  0  0  0  0  0  0  0  0  0
   96.4004   14.8680   94.3430 C   0  0  1  0  0  0  0  0  0  0  0  0
   97.2186   14.0637   94.8339 C   0  0  1  0  0  0  0  0  0  0  0  0
   98.2139   16.1945   95.2475 C   0  0  2  0  0  0  0  0  0  0  0  0
   98.2147   16.5044   96.6189 N   0  0  0  0  0  0  0  0  0  0  0  0
   93.4694   14.3813   96.6557 P   0  0  2  0  0  0  0  0  0  0  0  0
   97.9630   11.6957   94.7375 P   0  0  1  0  0  0  0  0  0  0  0  0
   95.4874   11.0543   95.2686 C   0  0  0  0  0  0  0  0  0  0  0  0
   96.8531   11.1632   95.7010 O   0  0  0  0  0  0  0  0  0  0  0  0
   94.5023   10.9283   96.3530 C   0  0  1  0  0  0  0  0  0  0  0  0
   95.0874    9.8968   97.4377 O   0  0  0  0  0  0  0  0  0  0  0  0
   94.3847   12.0237   96.9581 C   0  0  1  0  0  0  0  0  0  0  0  0
   93.3884   12.8795   96.3527 O   0  0  0  0  0  0  0  0  0  0  0  0
   94.0775   11.6212   98.3925 C   0  0  1  0  0  0  0  0  0  0  0  0
   92.8427   11.4005   98.5283 O   0  0  0  0  0  0  0  0  0  0  0  0
   94.8362   10.3088   98.5897 C   0  0  2  0  0  0  0  0  0  0  0  0
   96.2344   11.0810  103.4767 N   0  0  0  0  0  0  0  0  0  0  0  0
   94.9939   11.2387  102.9446 C   0  0  0  0  0  0  0  0  0  0  0  0
   94.8451   10.9767  101.6517 N   0  0  0  0  0  0  0  0  0  0  0  0
   95.8539   10.6280  100.8247 C   0  0  0  0  0  0  0  0  0  0  0  0
   97.1561   10.4541  101.3403 C   0  0  0  0  0  0  0  0  0  0  0  0
   97.3013   10.7180  102.7398 C   0  0  0  0  0  0  0  0  0  0  0  0
   98.5874   10.5901  103.3429 N   0  0  0  0  0  0  0  0  0  0  0  0
   97.8956   10.0844  100.3543 N   0  0  0  0  0  0  0  0  0  0  0  0
   97.1465    9.9933   99.2692 C   0  0  0  0  0  0  0  0  0  0  0  0
   95.9321   10.3312   99.5194 N   0  0  0  0  0  0  0  0  0  0  0  0
  1 24  1  0  0  0  0
  1  4  2  0  0  0  0
  2 13  1  0  0  0  0
  2 21  1  0  0  0  0
  3 16  1  0  0  0  0
  4 18  1  0  0  0  0
  5 19  2  0  0  0  0
  5 16  1  0  0  0  0
  6 16  2  0  0  0  0
  6 17  1  0  0  0  0
  7 17  1  0  0  0  0
 11 25  2  0  0  0  0
 12 26  2  0  0  0  0
 13 25  1  0  0  0  0
 14 23  1  0  0  0  0
 15 26  1  0  0  0  0
 17 18  2  0  0  0  0
 18 19  1  0  0  0  0
 19 24  1  0  0  0  0
 20 10  1  6  0  0  0
 20 22  1  0  0  0  0
 20 23  1  0  0  0  0
 21 14  1  1  0  0  0
 21 22  1  0  0  0  0
 22 15  1  6  0  0  0
 23 24  1  1  0  0  0
 25  8  1  6  0  0  0
 25 32  1  0  0  0  0
 26  9  1  6  0  0  0
 26 28  1  0  0  0  0
 27 28  1  0  0  0  0
 29 27  1  6  0  0  0
 29 30  1  0  0  0  0
 29 31  1  0  0  0  0
 30 35  1  0  0  0  0
 31 33  1  0  0  0  0
 31 32  1  6  0  0  0
 33 34  1  6  0  0  0
 33 35  1  0  0  0  0
 35 45  1  1  0  0  0
 36 41  2  0  0  0  0
 36 37  1  0  0  0  0
 37 38  2  0  0  0  0
 38 39  1  0  0  0  0
 39 40  2  0  0  0  0
 39 45  1  0  0  0  0
 40 41  1  0  0  0  0
 40 43  1  0  0  0  0
 41 42  1  0  0  0  0
 43 44  2  0  0  0  0
 44 45  1  0  0  0  0
M  CHG  4   8  -1   9  -1  11  -1  12  -1
M  END
>  <CHROM.1>
-15.23638265,-174.04308992,96.77729394,13.29048493,97.56524470,-1.08754276
0.66924470,2.01197136

>  <Name>
ligand

>  <RI>
0

>  <Rbt.Current_Directory>
/home/itssahil/PROJECTS/Mol_Feturizer/New_Systems/rnas/4YAZ

>  <Rbt.Executable>
rbdock ($Id: //depot/dev/client3/rdock/2013.1/src/exe/rbdock.cxx#4 $)

>  <Rbt.Library>
libRbt.so (2013.1, Build901 2013/11/27)

>  <Rbt.Parameter_File>
/export/apps/rDock/src/rDock_2013.1_src/data/scripts/dock_solv.prm

>  <Rbt.Receptor>
prm/pocket_docking_2.prm

>  <SCORE>
-45.4822

>  <SCORE.INTER>
-45.5272

>  <SCORE.INTER.CONST>
1

>  <SCORE.INTER.POLAR>
0

>  <SCORE.INTER.ROT>
2

>  <SCORE.INTER.SOLV>
45.6724

>  <SCORE.INTER.VDW>
-50.5089

>  <SCORE.INTER.norm>
-1.01172

>  <SCORE.INTRA>
0.0450129

>  <SCORE.INTRA.DIHEDRAL>
0.0314923

>  <SCORE.INTRA.DIHEDRAL.0>
2.39103

>  <SCORE.INTRA.POLAR>
0

>  <SCORE.INTRA.POLAR.0>
0

>  <SCORE.INTRA.REPUL>
0

>  <SCORE.INTRA.REPUL.0>
0

>  <SCORE.INTRA.SOLV>
-0.000286594

>  <SCORE.INTRA.SOLV.lig_0>
-163.975

>  <SCORE.INTRA.VDW>
0.02941

>  <SCORE.INTRA.VDW.0>
-1.49176

>  <SCORE.INTRA.norm>
0.00100029

>  <SCORE.RESTR>
0

>  <SCORE.RESTR.CAVITY>
0

>  <SCORE.RESTR.norm>
0

>  <SCORE.SYSTEM>
0

>  <SCORE.SYSTEM.CONST>
0

>  <SCORE.SYSTEM.DIHEDRAL>
0

>  <SCORE.SYSTEM.SOLV>
0

>  <SCORE.SYSTEM.norm>
0

>  <SCORE.heavy>
45

>  <SCORE.norm>
-1.01071

>  <RMSD>
0.543

$$$$
ligand
 OpenBabel11021811513D
libRbt.so/2013.1/901 2013/11/27
 45 51  0  0  0  0  0  0  0  0999 V2000
   97.2295   17.1111   97.2203 C   0  0  0  0  0  0  0  0  0  0  0  0
   95.0362   14.4986   94.7091 C   0  0  0  0  0  0  0  0  0  0  0  0
  102.3901   15.0488   98.4527 N   0  0  0  0  0  0  0  0  0  0  0  0
   97.4911   17.2540   98.4790 N   0  0  0  0  0  0  0  0  0  0  0  0
  100.3920   15.7072   97.4375 N   0  0  0  0  0  0  0  0  0  0  0  0
  100.7001   16.0528   99.7182 N   0  0  0  0  0  0  0  0  0  0  0  0
   99.0107   17.1381  101.0381 O   0  0  0  0  0  0  0  0  0  0  0  0
   92.2986   14.9979   96.0632 O   0  5  0  0  0  0  0  0  0  0  0  0
   98.1687   10.6850   93.8192 O   0  5  0  0  0  0  0  0  0  0  0  0
   99.3856   14.7019   93.9726 O   0  0  0  0  0  0  0  0  0  0  0  0
   93.3633   14.6745   97.9907 O   0  5  0  0  0  0  0  0  0  0  0  0
   99.2544   11.8260   95.4052 O   0  5  0  0  0  0  0  0  0  0  0  0
   94.6426   15.0972   95.8783 O   0  0  0  0  0  0  0  0  0  0  0  0
   96.8248   16.3125   94.6699 O   0  0  0  0  0  0  0  0  0  0  0  0
   97.4419   12.9377   93.9988 O   0  0  0  0  0  0  0  0  0  0  0  0
  101.0864   15.6242   98.5422 C   0  0  0  0  0  0  0  0  0  0  0  0
   99.5132   16.6317   99.8409 C   0  0  0  0  0  0  0  0  0  0  0  0
   98.6953   16.7398   98.6937 C   0  0  0  0  0  0  0  0  0  0  0  0
   99.1655   16.2767   97.4895 C   0  0  0  0  0  0  0  0  0  0  0  0
   98.5630   14.9488   95.0507 C   0  0  2  0  0  0  0  0  0  0  0  0
   96.4106   14.8722   94.3225 C   0  0  1  0  0  0  0  0  0  0  0  0
   97.2230   14.0720   94.8292 C   0  0  1  0  0  0  0  0  0  0  0  0
   98.2107   16.2065   95.2420 C   0  0  2  0  0  0  0  0  0  0  0  0
   98.1933   16.5253   96.6113 N   0  0  0  0  0  0  0  0  0  0  0  0
   93.4500   14.3974   96.5997 P   0  0  2  0  0  0  0  0  0  0  0  0
   97.9710   11.7043   94.7580 P   0  0  1  0  0  0  0  0  0  0  0  0
   95.4893   11.0636   95.2607 C   0  0  0  0  0  0  0  0  0  0  0  0
   96.8491   11.1768   95.7103 O   0  0  0  0  0  0  0  0  0  0  0  0
   94.4901   10.9436   96.3330 C   0  0  1  0  0  0  0  0  0  0  0  0
   95.0620    9.9198   97.4319 O   0  0  0  0  0  0  0  0  0  0  0  0
   94.3635   12.0428   96.9293 C   0  0  1  0  0  0  0  0  0  0  0  0
   93.3744   12.8936   96.3054 O   0  0  0  0  0  0  0  0  0  0  0  0
   94.0379   11.6493   98.3622 C   0  0  1  0  0  0  0  0  0  0  0  0
   92.8017   11.4281   98.4832 O   0  0  0  0  0  0  0  0  0  0  0  0
   94.7953   10.3389   98.5778 C   0  0  2  0  0  0  0  0  0  0  0  0
   96.1525   11.2855  103.4457 N   0  0  0  0  0  0  0  0  0  0  0  0
   94.9250   11.4582  102.8888 C   0  0  0  0  0  0  0  0  0  0  0  0
   94.7850   11.1432  101.6068 N   0  0  0  0  0  0  0  0  0  0  0  0
   95.7930   10.7260  100.8111 C   0  0  0  0  0  0  0  0  0  0  0  0
   97.0820   10.5345  101.3531 C   0  0  0  0  0  0  0  0  0  0  0  0
   97.2169   10.8563  102.7414 C   0  0  0  0  0  0  0  0  0  0  0  0
   98.4901   10.7151  103.3684 N   0  0  0  0  0  0  0  0  0  0  0  0
   97.8222   10.0977  100.3954 N   0  0  0  0  0  0  0  0  0  0  0  0
   97.0850    9.9816   99.3046 C   0  0  0  0  0  0  0  0  0  0  0  0
   95.8789   10.3685   99.5216 N   0  0  0  0  0  0  0  0  0  0  0  0
  1 24  1  0  0  0  0
  1  4  2  0  0  0  0
  2 13  1  0  0  0  0
  2 21  1  0  0  0  0
  3 16  1  0  0  0  0
  4 18  1  0  0  0  0
  5 19  2  0  0  0  0
  5 16  1  0  0  0  0
  6 16  2  0  0  0  0
  6 17  1  0  0  0  0
  7 17  1  0  0  0  0
 11 25  2  0  0  0  0
 12 26  2  0  0  0  0
 13 25  1  0  0  0  0
 14 23  1  0  0  0  0
 15 26  1  0  0  0  0
 17 18  2  0  0  0  0
 18 19  1  0  0  0  0
 19 24  1  0  0  0  0
 20 10  1  6  0  0  0
 20 22  1  0  0  0  0
 20 23  1  0  0  0  0
 21 14  1  1  0  0  0
 21 22  1  0  0  0  0
 22 15  1  6  0  0  0
 23 24  1  1  0  0  0
 25  8  1  6  0  0  0
 25 32  1  0  0  0  0
 26  9  1  6  0  0  0
 26 28  1  0  0  0  0
 27 28  1  0  0  0  0
 29 27  1  6  0  0  0
 29 30  1  0  0  0  0
 29 31  1  0  0  0  0
 30 35  1  0  0  0  0
 31 33  1  0  0  0  0
 31 32  1  6  0  0  0
 33 34  1  6  0  0  0
 33 35  1  0  0  0  0
 35 45  1  1  0  0  0
 36 41  2  0  0  0  0
 36 37  1  0  0  0  0
 37 38  2  0  0  0  0
 38 39  1  0  0  0  0
 39 40  2  0  0  0  0
 39 45  1  0  0  0  0
 40 41  1  0  0  0  0
 40 43  1  0  0  0  0
 41 42  1  0  0  0  0
 43 44  2  0  0  0  0
 44 45  1  0  0  0  0
M  CHG  4   8  -1   9  -1  11  -1  12  -1
M  END
>  <CHROM.1>
-14.87204574,-176.93559184,96.74922988,13.32879785,97.55688782,-1.05864091
0.67854452,1.98720064

>  <Name>
ligand

>  <RI>
0

>  <Rbt.Current_Directory>
/home/itssahil/PROJECTS/Mol_Feturizer/New_Systems/rnas/4YAZ

>  <Rbt.Executable>
rbdock ($Id: //depot/dev/client3/rdock/2013.1/src/exe/rbdock.cxx#4 $)

>  <Rbt.Library>
libRbt.so (2013.1, Build901 2013/11/27)

>  <Rbt.Parameter_File>
/export/apps/rDock/src/rDock_2013.1_src/data/scripts/dock_solv.prm

>  <Rbt.Receptor>
prm/pocket_docking_2.prm

>  <SCORE>
-45.476

>  <SCORE.INTER>
-45.5188

>  <SCORE.INTER.CONST>
1

>  <SCORE.INTER.POLAR>
0

>  <SCORE.INTER.ROT>
2

>  <SCORE.INTER.SOLV>
45.0352

>  <SCORE.INTER.VDW>
-50.2909

>  <SCORE.INTER.norm>
-1.01153

>  <SCORE.INTRA>
0.0427693

>  <SCORE.INTRA.DIHEDRAL>
0.0110185

>  <SCORE.INTRA.DIHEDRAL.0>
2.39103

>  <SCORE.INTRA.POLAR>
0

>  <SCORE.INTRA.POLAR.0>
0

>  <SCORE.INTRA.REPUL>
0

>  <SCORE.INTRA.REPUL.0>
0

>  <SCORE.INTRA.SOLV>
0.00316548

>  <SCORE.INTRA.SOLV.lig_0>
-163.975

>  <SCORE.INTRA.VDW>
0.0356773

>  <SCORE.INTRA.VDW.0>
-1.49176

>  <SCORE.INTRA.norm>
0.000950429

>  <SCORE.RESTR>
0

>  <SCORE.RESTR.CAVITY>
0

>  <SCORE.RESTR.norm>
0

>  <SCORE.SYSTEM>
0

>  <SCORE.SYSTEM.CONST>
0

>  <SCORE.SYSTEM.DIHEDRAL>
0

>  <SCORE.SYSTEM.SOLV>
0

>  <SCORE.SYSTEM.norm>
0

>  <SCORE.heavy>
45

>  <SCORE.norm>
-1.01058

>  <RMSD>
0.545

$$$$
ligand
 OpenBabel11021811513D
libRbt.so/2013.1/901 2013/11/27
 45 51  0  0  0  0  0  0  0  0999 V2000
   97.2412   17.1053   97.2156 C   0  0  0  0  0  0  0  0  0  0  0  0
   95.0426   14.4946   94.7108 C   0  0  0  0  0  0  0  0  0  0  0  0
  102.4070   15.0533   98.4432 N   0  0  0  0  0  0  0  0  0  0  0  0
   97.5046   17.2510   98.4736 N   0  0  0  0  0  0  0  0  0  0  0  0
  100.4061   15.7066   97.4302 N   0  0  0  0  0  0  0  0  0  0  0  0
  100.7176   16.0572   99.7096 N   0  0  0  0  0  0  0  0  0  0  0  0
   99.0288   17.1424  101.0303 O   0  0  0  0  0  0  0  0  0  0  0  0
   92.3071   15.0008   96.0667 O   0  5  0  0  0  0  0  0  0  0  0  0
   98.1681   10.6742   93.8252 O   0  5  0  0  0  0  0  0  0  0  0  0
   99.3916   14.6894   93.9698 O   0  0  0  0  0  0  0  0  0  0  0  0
   93.3732   14.6793   97.9937 O   0  5  0  0  0  0  0  0  0  0  0  0
   99.2572   11.8165   95.4080 O   0  5  0  0  0  0  0  0  0  0  0  0
   94.6511   15.0960   95.8794 O   0  0  0  0  0  0  0  0  0  0  0  0
   96.8341   16.3055   94.6665 O   0  0  0  0  0  0  0  0  0  0  0  0
   97.4451   12.9285   94.0011 O   0  0  0  0  0  0  0  0  0  0  0  0
  101.1026   15.6269   98.5338 C   0  0  0  0  0  0  0  0  0  0  0  0
   99.5301   16.6345   99.8333 C   0  0  0  0  0  0  0  0  0  0  0  0
   98.7100   16.7391   98.6872 C   0  0  0  0  0  0  0  0  0  0  0  0
   99.1789   16.2744   97.4832 C   0  0  0  0  0  0  0  0  0  0  0  0
   98.5704   14.9397   95.0482 C   0  0  2  0  0  0  0  0  0  0  0  0
   96.4172   14.8652   94.3222 C   0  0  1  0  0  0  0  0  0  0  0  0
   97.2289   14.0646   94.8297 C   0  0  1  0  0  0  0  0  0  0  0  0
   98.2204   16.1984   95.2374 C   0  0  2  0  0  0  0  0  0  0  0  0
   98.2048   16.5198   96.6061 N   0  0  0  0  0  0  0  0  0  0  0  0
   93.4581   14.3995   96.6032 P   0  0  2  0  0  0  0  0  0  0  0  0
   97.9730   11.6956   94.7622 P   0  0  1  0  0  0  0  0  0  0  0  0
   95.4907   11.0599   95.2686 C   0  0  0  0  0  0  0  0  0  0  0  0
   96.8511   11.1717   95.7166 O   0  0  0  0  0  0  0  0  0  0  0  0
   94.4924   10.9435   96.3420 C   0  0  1  0  0  0  0  0  0  0  0  0
   95.0638    9.9209   97.4424 O   0  0  0  0  0  0  0  0  0  0  0  0
   94.3682   12.0440   96.9364 C   0  0  1  0  0  0  0  0  0  0  0  0
   93.3798   12.8952   96.3119 O   0  0  0  0  0  0  0  0  0  0  0  0
   94.0433   11.6537   98.3704 C   0  0  1  0  0  0  0  0  0  0  0  0
   92.8069   11.4348   98.4930 O   0  0  0  0  0  0  0  0  0  0  0  0
   94.7988   10.3426   98.5877 C   0  0  2  0  0  0  0  0  0  0  0  0
   96.1547   11.2547  103.4625 N   0  0  0  0  0  0  0  0  0  0  0  0
   94.9250   11.4225  102.9089 C   0  0  0  0  0  0  0  0  0  0  0  0
   94.7860   11.1183  101.6241 N   0  0  0  0  0  0  0  0  0  0  0  0
   95.7962   10.7170  100.8233 C   0  0  0  0  0  0  0  0  0  0  0  0
   97.0875   10.5310  101.3618 C   0  0  0  0  0  0  0  0  0  0  0  0
   97.2216   10.8408  102.7530 C   0  0  0  0  0  0  0  0  0  0  0  0
   98.4967   10.7043  103.3770 N   0  0  0  0  0  0  0  0  0  0  0  0
   97.8300   10.1092  100.3992 N   0  0  0  0  0  0  0  0  0  0  0  0
   97.0923    9.9973   99.3082 C   0  0  0  0  0  0  0  0  0  0  0  0
   95.8834   10.3723   99.5304 N   0  0  0  0  0  0  0  0  0  0  0  0
  1 24  1  0  0  0  0
  1  4  2  0  0  0  0
  2 13  1  0  0  0  0
  2 21  1  0  0  0  0
  3 16  1  0  0  0  0
  4 18  1  0  0  0  0
  5 19  2  0  0  0  0
  5 16  1  0  0  0  0
  6 16  2  0  0  0  0
  6 17  1  0  0  0  0
  7 17  1  0  0  0  0
 11 25  2  0  0  0  0
 12 26  2  0  0  0  0
 13 25  1  0  0  0  0
 14 23  1  0  0  0  0
 15 26  1  0  0  0  0
 17 18  2  0  0  0  0
 18 19  1  0  0  0  0
 19 24  1  0  0  0  0
 20 10  1  6  0  0  0
 20 22  1  0  0  0  0
 20 23  1  0  0  0  0
 21 14  1  1  0  0  0
 21 22  1  0  0  0  0
 22 15  1  6  0  0  0
 23 24  1  1  0  0  0
 25  8  1  6  0  0  0
 25 32  1  0  0  0  0
 26  9  1  6  0  0  0
 26 28  1  0  0  0  0
 27 28  1  0  0  0  0
 29 27  1  6  0  0  0
 29 30  1  0  0  0  0
 29 31  1  0  0  0  0
 30 35  1  0  0  0  0
 31 33  1  0  0  0  0
 31 32  1  6  0  0  0
 33 34  1  6  0  0  0
 33 35  1  0  0  0  0
 35 45  1  1  0  0  0
 36 41  2  0  0  0  0
 36 37  1  0  0  0  0
 37 38  2  0  0  0  0
 38 39  1  0  0  0  0
 39 40  2  0  0  0  0
 39 45  1  0  0  0  0
 40 41  1  0  0  0  0
 40 43  1  0  0  0  0
 41 42  1  0  0  0  0
 43 44  2  0  0  0  0
 44 45  1  0  0  0  0
M  CHG  4   8  -1   9  -1  11  -1  12  -1
M  END
>  <CHROM.1>
-14.68675607,-176.07921804,96.75641477,13.32504247,97.55971818,-1.05852890
0.67635185,1.98779655

>  <Name>
ligand

>  <RI>
0

>  <Rbt.Current_Directory>
/home/itssahil/PROJECTS/Mol_Feturizer/New_Systems/rnas/4YAZ

>  <Rbt.Executable>
rbdock ($Id: //depot/dev/client3/rdock/2013.1/src/exe/rbdock.cxx#4 $)

>  <Rbt.Library>
libRbt.so (2013.1, Build901 2013/11/27)

>  <Rbt.Parameter_File>
/export/apps/rDock/src/rDock_2013.1_src/data/scripts/dock_solv.prm

>  <Rbt.Receptor>
prm/pocket_docking_2.prm

>  <SCORE>
-45.4776

>  <SCORE.INTER>
-45.52

>  <SCORE.INTER.CONST>
1

>  <SCORE.INTER.POLAR>
0

>  <SCORE.INTER.ROT>
2

>  <SCORE.INTER.SOLV>
45.1814

>  <SCORE.INTER.VDW>
-50.3405

>  <SCORE.INTER.norm>
-1.01156

>  <SCORE.INTRA>
0.0367501

>  <SCORE.INTRA.DIHEDRAL>
0.0171753

>  <SCORE.INTRA.DIHEDRAL.0>
2.39103

>  <SCORE.INTRA.POLAR>
0

>  <SCORE.INTRA.POLAR.0>
0

>  <SCORE.INTRA.REPUL>
0

>  <SCORE.INTRA.REPUL.0>
0

>  <SCORE.INTRA.SOLV>
0.00177707

>  <SCORE.INTRA.SOLV.lig_0>
-163.975

>  <SCORE.INTRA.VDW>
0.027274

>  <SCORE.INTRA.VDW.0>
-1.49176

>  <SCORE.INTRA.norm>
0.00081667

>  <SCORE.RESTR>
0.00570431

>  <SCORE.RESTR.CAVITY>
0.00570431

>  <SCORE.RESTR.norm>
0.000126762

>  <SCORE.SYSTEM>
0

>  <SCORE.SYSTEM.CONST>
0

>  <SCORE.SYSTEM.DIHEDRAL>
0

>  <SCORE.SYSTEM.SOLV>
0

>  <SCORE.SYSTEM.norm>
0

>  <SCORE.heavy>
45

>  <SCORE.norm>
-1.01061

>  <RMSD>
0.546

$$$$
ligand
 OpenBabel11021811513D
libRbt.so/2013.1/901 2013/11/27
 45 51  0  0  0  0  0  0  0  0999 V2000
   97.4031   17.1057   97.3313 C   0  0  0  0  0  0  0  0  0  0  0  0
   95.1140   14.4753   94.8114 C   0  0  0  0  0  0  0  0  0  0  0  0
  102.2959   14.4870   98.5985 N   0  0  0  0  0  0  0  0  0  0  0  0
   97.6587   17.1999   98.5959 N   0  0  0  0  0  0  0  0  0  0  0  0
  100.3950   15.3702   97.5676 N   0  0  0  0  0  0  0  0  0  0  0  0
  100.7025   15.6446   99.8580 N   0  0  0  0  0  0  0  0  0  0  0  0
   99.1174   16.8823  101.1732 O   0  0  0  0  0  0  0  0  0  0  0  0
   92.3915   14.9878   96.1908 O   0  5  0  0  0  0  0  0  0  0  0  0
   98.1914   10.6366   93.8407 O   0  5  0  0  0  0  0  0  0  0  0  0
   99.4610   14.6346   94.0505 O   0  0  0  0  0  0  0  0  0  0  0  0
   93.4638   14.6198   98.1060 O   0  5  0  0  0  0  0  0  0  0  0  0
   99.3015   11.7380   95.4378 O   0  5  0  0  0  0  0  0  0  0  0  0
   94.7354   15.0600   95.9926 O   0  0  0  0  0  0  0  0  0  0  0  0
   96.9255   16.2665   94.7898 O   0  0  0  0  0  0  0  0  0  0  0  0
   97.4948   12.8953   94.0608 O   0  0  0  0  0  0  0  0  0  0  0  0
  101.0594   15.1963   98.6800 C   0  0  0  0  0  0  0  0  0  0  0  0
   99.5820   16.3444   99.9744 C   0  0  0  0  0  0  0  0  0  0  0  0
   98.7981   16.5572   98.8181 C   0  0  0  0  0  0  0  0  0  0  0  0
   99.2352   16.0660   97.6126 C   0  0  0  0  0  0  0  0  0  0  0  0
   98.6483   14.8747   95.1376 C   0  0  2  0  0  0  0  0  0  0  0  0
   96.4906   14.8374   94.4221 C   0  0  1  0  0  0  0  0  0  0  0  0
   97.2958   14.0188   94.9107 C   0  0  1  0  0  0  0  0  0  0  0  0
   98.3135   16.1336   95.3512 C   0  0  2  0  0  0  0  0  0  0  0  0
   98.3086   16.4305   96.7255 N   0  0  0  0  0  0  0  0  0  0  0  0
   93.5383   14.3641   96.7102 P   0  0  2  0  0  0  0  0  0  0  0  0
   98.0127   11.6432   94.7969 P   0  0  1  0  0  0  0  0  0  0  0  0
   95.5260   11.0264   95.3052 C   0  0  0  0  0  0  0  0  0  0  0  0
   96.8899   11.1149   95.7478 O   0  0  0  0  0  0  0  0  0  0  0  0
   94.5321   10.9020   96.3817 C   0  0  1  0  0  0  0  0  0  0  0  0
   95.0975    9.8534   97.4605 O   0  0  0  0  0  0  0  0  0  0  0  0
   94.4234   11.9929   96.9964 C   0  0  1  0  0  0  0  0  0  0  0  0
   93.4415   12.8663   96.3925 O   0  0  0  0  0  0  0  0  0  0  0  0
   94.1016   11.5807   98.4248 C   0  0  1  0  0  0  0  0  0  0  0  0
   92.8634   11.3735   98.5502 O   0  0  0  0  0  0  0  0  0  0  0  0
   94.8433   10.2574   98.6146 C   0  0  2  0  0  0  0  0  0  0  0  0
   96.2409   11.0990  103.4903 N   0  0  0  0  0  0  0  0  0  0  0  0
   95.0118   11.2950  102.9447 C   0  0  0  0  0  0  0  0  0  0  0  0
   94.8606   11.0054  101.6580 N   0  0  0  0  0  0  0  0  0  0  0  0
   95.8590   10.5924  100.8483 C   0  0  0  0  0  0  0  0  0  0  0  0
   97.1492   10.3772  101.3783 C   0  0  0  0  0  0  0  0  0  0  0  0
   97.2962   10.6716  102.7714 C   0  0  0  0  0  0  0  0  0  0  0  0
   98.5717   10.5053  103.3875 N   0  0  0  0  0  0  0  0  0  0  0  0
   97.8787    9.9503  100.4080 N   0  0  0  0  0  0  0  0  0  0  0  0
   97.1335    9.8624   99.3199 C   0  0  0  0  0  0  0  0  0  0  0  0
   95.9330   10.2580   99.5518 N   0  0  0  0  0  0  0  0  0  0  0  0
  1 24  1  0  0  0  0
  1  4  2  0  0  0  0
  2 13  1  0  0  0  0
  2 21  1  0  0  0  0
  3 16  1  0  0  0  0
  4 18  1  0  0  0  0
  5 19  2  0  0  0  0
  5 16  1  0  0  0  0
  6 16  2  0  0  0  0
  6 17  1  0  0  0  0
  7 17  1  0  0  0  0
 11 25  2  0  0  0  0
 12 26  2  0  0  0  0
 13 25  1  0  0  0  0
 14 23  1  0  0  0  0
 15 26  1  0  0  0  0
 17 18  2  0  0  0  0
 18 19  1  0  0  0  0
 19 24  1  0  0  0  0
 20 10  1  6  0  0  0
 20 22  1  0  0  0  0
 20 23  1  0  0  0  0
 21 14  1  1  0  0  0
 21 22  1  0  0  0  0
 22 15  1  6  0  0  0
 23 24  1  1  0  0  0
 25  8  1  6  0  0  0
 25 32  1  0  0  0  0
 26  9  1  6  0  0  0
 26 28  1  0  0  0  0
 27 28  1  0  0  0  0
 29 27  1  6  0  0  0
 29 30  1  0  0  0  0
 29 31  1  0  0  0  0
 30 35  1  0  0  0  0
 31 33  1  0  0  0  0
 31 32  1  6  0  0  0
 33 34  1  6  0  0  0
 33 35  1  0  0  0  0
 35 45  1  1  0  0  0
 36 41  2  0  0  0  0
 36 37  1  0  0  0  0
 37 38  2  0  0  0  0
 38 39  1  0  0  0  0
 39 40  2  0  0  0  0
 39 45  1  0  0  0  0
 40 41  1  0  0  0  0
 40 43  1  0  0  0  0
 41 42  1  0  0  0  0
 43 44  2  0  0  0  0
 44 45  1  0  0  0  0
M  CHG  4   8  -1   9  -1  11  -1  12  -1
M  END
>  <CHROM.1>
-20.36607789,-176.74507979,96.81527943,13.21146363,97.63482246,-1.14863900
0.65641813,2.00989820

>  <Name>
ligand

>  <RI>
0

>  <Rbt.Current_Directory>
/home/itssahil/PROJECTS/Mol_Feturizer/New_Systems/rnas/4YAZ

>  <Rbt.Executable>
rbdock ($Id: //depot/dev/client3/rdock/2013.1/src/exe/rbdock.cxx#4 $)

>  <Rbt.Library>
libRbt.so (2013.1, Build901 2013/11/27)

>  <Rbt.Parameter_File>
/export/apps/rDock/src/rDock_2013.1_src/data/scripts/dock_solv.prm

>  <Rbt.Receptor>
prm/pocket_docking_8.prm

>  <SCORE>
-45.7123

>  <SCORE.INTER>
-45.8888

>  <SCORE.INTER.CONST>
1

>  <SCORE.INTER.POLAR>
0

>  <SCORE.INTER.ROT>
2

>  <SCORE.INTER.SOLV>
46.1331

>  <SCORE.INTER.VDW>
-50.9036

>  <SCORE.INTER.norm>
-1.01975

>  <SCORE.INTRA>
0.176545

>  <SCORE.INTRA.DIHEDRAL>
0.0114313

>  <SCORE.INTRA.DIHEDRAL.0>
2.39103

>  <SCORE.INTRA.POLAR>
0

>  <SCORE.INTRA.POLAR.0>
0

>  <SCORE.INTRA.REPUL>
0

>  <SCORE.INTRA.REPUL.0>
0

>  <SCORE.INTRA.SOLV>
0.00973957

>  <SCORE.INTRA.SOLV.lig_0>
-163.975

>  <SCORE.INTRA.VDW>
0.16596

>  <SCORE.INTRA.VDW.0>
-1.49176

>  <SCORE.INTRA.norm>
0.00392322

>  <SCORE.RESTR>
0

>  <SCORE.RESTR.CAVITY>
0

>  <SCORE.RESTR.norm>
0

>  <SCORE.SYSTEM>
0

>  <SCORE.SYSTEM.CONST>
0

>  <SCORE.SYSTEM.DIHEDRAL>
0

>  <SCORE.SYSTEM.SOLV>
0

>  <SCORE.SYSTEM.norm>
0

>  <SCORE.heavy>
45

>  <SCORE.norm>
-1.01583

>  <RMSD>
0.552

$$$$
ligand
 OpenBabel11021811513D
libRbt.so/2013.1/901 2013/11/27
 45 51  0  0  0  0  0  0  0  0999 V2000
   97.4213   17.0968   97.3569 C   0  0  0  0  0  0  0  0  0  0  0  0
   95.1332   14.4911   94.8255 C   0  0  0  0  0  0  0  0  0  0  0  0
  102.3378   14.5176   98.6138 N   0  0  0  0  0  0  0  0  0  0  0  0
   97.6774   17.1907   98.6214 N   0  0  0  0  0  0  0  0  0  0  0  0
  100.4282   15.3866   97.5866 N   0  0  0  0  0  0  0  0  0  0  0  0
  100.7358   15.6591   99.8772 N   0  0  0  0  0  0  0  0  0  0  0  0
   99.1414   16.8804  101.1966 O   0  0  0  0  0  0  0  0  0  0  0  0
   92.4104   15.0108   96.2017 O   0  5  0  0  0  0  0  0  0  0  0  0
   98.1981   10.6432   93.8518 O   0  5  0  0  0  0  0  0  0  0  0  0
   99.4820   14.6361   94.0719 O   0  0  0  0  0  0  0  0  0  0  0  0
   93.4784   14.6349   98.1178 O   0  5  0  0  0  0  0  0  0  0  0  0
   99.3097   11.7372   95.4530 O   0  5  0  0  0  0  0  0  0  0  0  0
   94.7549   15.0748   96.0073 O   0  0  0  0  0  0  0  0  0  0  0  0
   96.9514   16.2757   94.8106 O   0  0  0  0  0  0  0  0  0  0  0  0
   97.5095   12.9040   94.0756 O   0  0  0  0  0  0  0  0  0  0  0  0
  101.0953   15.2161   98.6980 C   0  0  0  0  0  0  0  0  0  0  0  0
   99.6094   16.3490   99.9963 C   0  0  0  0  0  0  0  0  0  0  0  0
   98.8225   16.5573   98.8411 C   0  0  0  0  0  0  0  0  0  0  0  0
   99.2626   16.0723   97.6342 C   0  0  0  0  0  0  0  0  0  0  0  0
   98.6685   14.8768   95.1582 C   0  0  2  0  0  0  0  0  0  0  0  0
   96.5118   14.8490   94.4392 C   0  0  1  0  0  0  0  0  0  0  0  0
   97.3132   14.0264   94.9274 C   0  0  1  0  0  0  0  0  0  0  0  0
   98.3379   16.1366   95.3740 C   0  0  2  0  0  0  0  0  0  0  0  0
   98.3320   16.4307   96.7488 N   0  0  0  0  0  0  0  0  0  0  0  0
   93.5541   14.3818   96.7217 P   0  0  2  0  0  0  0  0  0  0  0  0
   98.0216   11.6484   94.8098 P   0  0  1  0  0  0  0  0  0  0  0  0
   95.5319   11.0397   95.3129 C   0  0  0  0  0  0  0  0  0  0  0  0
   96.8954   11.1223   95.7579 O   0  0  0  0  0  0  0  0  0  0  0  0
   94.5357   10.9167   96.3876 C   0  0  1  0  0  0  0  0  0  0  0  0
   95.0956    9.8639   97.4651 O   0  0  0  0  0  0  0  0  0  0  0  0
   94.4300   12.0068   97.0043 C   0  0  1  0  0  0  0  0  0  0  0  0
   93.4523   12.8850   96.4007 O   0  0  0  0  0  0  0  0  0  0  0  0
   94.1045   11.5928   98.4314 C   0  0  1  0  0  0  0  0  0  0  0  0
   92.8653   11.3899   98.5543 O   0  0  0  0  0  0  0  0  0  0  0  0
   94.8410   10.2664   98.6196 C   0  0  2  0  0  0  0  0  0  0  0  0
   96.2328   11.0873  103.5005 N   0  0  0  0  0  0  0  0  0  0  0  0
   95.0050   11.2882  102.9537 C   0  0  0  0  0  0  0  0  0  0  0  0
   94.8552   11.0035  101.6657 N   0  0  0  0  0  0  0  0  0  0  0  0
   95.8539   10.5910  100.8561 C   0  0  0  0  0  0  0  0  0  0  0  0
   97.1427   10.3708  101.3874 C   0  0  0  0  0  0  0  0  0  0  0  0
   97.2882   10.6600  102.7818 C   0  0  0  0  0  0  0  0  0  0  0  0
   98.5623   10.4885  103.3993 N   0  0  0  0  0  0  0  0  0  0  0  0
   97.8728    9.9458  100.4167 N   0  0  0  0  0  0  0  0  0  0  0  0
   97.1291    9.8634   99.3272 C   0  0  0  0  0  0  0  0  0  0  0  0
   95.9292   10.2611   99.5586 N   0  0  0  0  0  0  0  0  0  0  0  0
  1 24  1  0  0  0  0
  1  4  2  0  0  0  0
  2 13  1  0  0  0  0
  2 21  1  0  0  0  0
  3 16  1  0  0  0  0
  4 18  1  0  0  0  0
  5 19  2  0  0  0  0
  5 16  1  0  0  0  0
  6 16  2  0  0  0  0
  6 17  1  0  0  0  0
  7 17  1  0  0  0  0
 11 25  2  0  0  0  0
 12 26  2  0  0  0  0
 13 25  1  0  0  0  0
 14 23  1  0  0  0  0
 15 26  1  0  0  0  0
 17 18  2  0  0  0  0
 18 19  1  0  0  0  0
 19 24  1  0  0  0  0
 20 10  1  6  0  0  0
 20 22  1  0  0  0  0
 20 23  1  0  0  0  0
 21 14  1  1  0  0  0
 21 22  1  0  0  0  0
 22 15  1  6  0  0  0
 23 24  1  1  0  0  0
 25  8  1  6  0  0  0
 25 32  1  0  0  0  0
 26  9  1  6  0  0  0
 26 28  1  0  0  0  0
 27 28  1  0  0  0  0
 29 27  1  6  0  0  0
 29 30  1  0  0  0  0
 29 31  1  0  0  0  0
 30 35  1  0  0  0  0
 31 33  1  0  0  0  0
 31 32  1  6  0  0  0
 33 34  1  6  0  0  0
 33 35  1  0  0  0  0
 35 45  1  1  0  0  0
 36 41  2  0  0  0  0
 36 37  1  0  0  0  0
 37 38  2  0  0  0  0
 38 39  1  0  0  0  0
 39 40  2  0  0  0  0
 39 45  1  0  0  0  0
 40 41  1  0  0  0  0
 40 43  1  0  0  0  0
 41 42  1  0  0  0  0
 43 44  2  0  0  0  0
 44 45  1  0  0  0  0
M  CHG  4   8  -1   9  -1  11  -1  12  -1
M  END
>  <CHROM.1>
-19.64804280,-176.63182154,96.82726631,13.21810475,97.64847757,-1.13381584
0.65444941,2.00926627

>  <Name>
ligand

>  <RI>
0

>  <Rbt.Current_Directory>
/home/itssahil/PROJECTS/Mol_Feturizer/New_Systems/rnas/4YAZ

>  <Rbt.Executable>
rbdock ($Id: //depot/dev/client3/rdock/2013.1/src/exe/rbdock.cxx#4 $)

>  <Rbt.Library>
libRbt.so (2013.1, Build901 2013/11/27)

>  <Rbt.Parameter_File>
/export/apps/rDock/src/rDock_2013.1_src/data/scripts/dock_solv.prm

>  <Rbt.Receptor>
prm/pocket_docking_6.prm

>  <SCORE>
-45.6926

>  <SCORE.INTER>
-45.8503

>  <SCORE.INTER.CONST>
1

>  <SCORE.INTER.POLAR>
0

>  <SCORE.INTER.ROT>
2

>  <SCORE.INTER.SOLV>
46.4634

>  <SCORE.INTER.VDW>
-50.988

>  <SCORE.INTER.norm>
-1.0189

>  <SCORE.INTRA>
0.157734

>  <SCORE.INTRA.DIHEDRAL>
0.0123443

>  <SCORE.INTRA.DIHEDRAL.0>
2.39103

>  <SCORE.INTRA.POLAR>
0

>  <SCORE.INTRA.POLAR.0>
0

>  <SCORE.INTRA.REPUL>
0

>  <SCORE.INTRA.REPUL.0>
0

>  <SCORE.INTRA.SOLV>
0.00875778

>  <SCORE.INTRA.SOLV.lig_0>
-163.975

>  <SCORE.INTRA.VDW>
0.147183

>  <SCORE.INTRA.VDW.0>
-1.49176

>  <SCORE.INTRA.norm>
0.00350521

>  <SCORE.RESTR>
0

>  <SCORE.RESTR.CAVITY>
0

>  <SCORE.RESTR.norm>
0

>  <SCORE.SYSTEM>
0

>  <SCORE.SYSTEM.CONST>
0

>  <SCORE.SYSTEM.DIHEDRAL>
0

>  <SCORE.SYSTEM.SOLV>
0

>  <SCORE.SYSTEM.norm>
0

>  <SCORE.heavy>
45

>  <SCORE.norm>
-1.01539

>  <RMSD>
0.553

$$$$
ligand
 OpenBabel11021811513D
libRbt.so/2013.1/901 2013/11/27
 45 51  0  0  0  0  0  0  0  0999 V2000
   97.3954   17.0391   97.3221 C   0  0  0  0  0  0  0  0  0  0  0  0
   95.1009   14.4391   94.8138 C   0  0  0  0  0  0  0  0  0  0  0  0
  102.3658   14.5522   98.5521 N   0  0  0  0  0  0  0  0  0  0  0  0
   97.6607   17.1454   98.5836 N   0  0  0  0  0  0  0  0  0  0  0  0
  100.4329   15.3818   97.5362 N   0  0  0  0  0  0  0  0  0  0  0  0
  100.7555   15.6742   99.8223 N   0  0  0  0  0  0  0  0  0  0  0  0
   99.1519   16.8767  101.1479 O   0  0  0  0  0  0  0  0  0  0  0  0
   92.3853   14.9727   96.1990 O   0  5  0  0  0  0  0  0  0  0  0  0
   98.1540   10.5793   93.8505 O   0  5  0  0  0  0  0  0  0  0  0  0
   99.4464   14.5710   94.0395 O   0  0  0  0  0  0  0  0  0  0  0  0
   93.4613   14.6068   98.1126 O   0  5  0  0  0  0  0  0  0  0  0  0
   99.2749   11.6812   95.4396 O   0  5  0  0  0  0  0  0  0  0  0  0
   94.7290   15.0310   95.9936 O   0  0  0  0  0  0  0  0  0  0  0  0
   96.9223   16.2201   94.7793 O   0  0  0  0  0  0  0  0  0  0  0  0
   97.4707   12.8427   94.0630 O   0  0  0  0  0  0  0  0  0  0  0  0
  101.1124   15.2299   98.6428 C   0  0  0  0  0  0  0  0  0  0  0  0
   99.6186   16.3456   99.9468 C   0  0  0  0  0  0  0  0  0  0  0  0
   98.8182   16.5331   98.7973 C   0  0  0  0  0  0  0  0  0  0  0  0
   99.2562   16.0479   97.5897 C   0  0  0  0  0  0  0  0  0  0  0  0
   98.6383   14.8202   95.1280 C   0  0  2  0  0  0  0  0  0  0  0  0
   96.4783   14.7919   94.4189 C   0  0  1  0  0  0  0  0  0  0  0  0
   97.2804   13.9709   94.9087 C   0  0  1  0  0  0  0  0  0  0  0  0
   98.3111   16.0819   95.3372 C   0  0  2  0  0  0  0  0  0  0  0  0
   98.3120   16.3847   96.7102 N   0  0  0  0  0  0  0  0  0  0  0  0
   93.5302   14.3448   96.7177 P   0  0  2  0  0  0  0  0  0  0  0  0
   97.9837   11.5909   94.8029 P   0  0  1  0  0  0  0  0  0  0  0  0
   95.4952   10.9901   95.3211 C   0  0  0  0  0  0  0  0  0  0  0  0
   96.8609   11.0729   95.7593 O   0  0  0  0  0  0  0  0  0  0  0  0
   94.5037   10.8758   96.4011 C   0  0  1  0  0  0  0  0  0  0  0  0
   95.0665    9.8287   97.4826 O   0  0  0  0  0  0  0  0  0  0  0  0
   94.4029   11.9699   97.0114 C   0  0  1  0  0  0  0  0  0  0  0  0
   93.4241   12.8462   96.4067 O   0  0  0  0  0  0  0  0  0  0  0  0
   94.0831   11.5656   98.4425 C   0  0  1  0  0  0  0  0  0  0  0  0
   92.8441   11.3658   98.5723 O   0  0  0  0  0  0  0  0  0  0  0  0
   94.8180   10.2390   98.6358 C   0  0  2  0  0  0  0  0  0  0  0  0
   96.2344   11.0922  103.5040 N   0  0  0  0  0  0  0  0  0  0  0  0
   95.0047   11.2926  102.9613 C   0  0  0  0  0  0  0  0  0  0  0  0
   94.8481   10.9987  101.6761 N   0  0  0  0  0  0  0  0  0  0  0  0
   95.8419   10.5773  100.8651 C   0  0  0  0  0  0  0  0  0  0  0  0
   97.1326   10.3574  101.3922 C   0  0  0  0  0  0  0  0  0  0  0  0
   97.2853   10.6565  102.7837 C   0  0  0  0  0  0  0  0  0  0  0  0
   98.5617   10.4859  103.3967 N   0  0  0  0  0  0  0  0  0  0  0  0
   97.8570    9.9230  100.4214 N   0  0  0  0  0  0  0  0  0  0  0  0
   97.1081    9.8347   99.3359 C   0  0  0  0  0  0  0  0  0  0  0  0
   95.9105   10.2375   99.5698 N   0  0  0  0  0  0  0  0  0  0  0  0
  1 24  1  0  0  0  0
  1  4  2  0  0  0  0
  2 13  1  0  0  0  0
  2 21  1  0  0  0  0
  3 16  1  0  0  0  0
  4 18  1  0  0  0  0
  5 19  2  0  0  0  0
  5 16  1  0  0  0  0
  6 16  2  0  0  0  0
  6 17  1  0  0  0  0
  7 17  1  0  0  0  0
 11 25  2  0  0  0  0
 12 26  2  0  0  0  0
 13 25  1  0  0  0  0
 14 23  1  0  0  0  0
 15 26  1  0  0  0  0
 17 18  2  0  0  0  0
 18 19  1  0  0  0  0
 19 24  1  0  0  0  0
 20 10  1  6  0  0  0
 20 22  1  0  0  0  0
 20 23  1  0  0  0  0
 21 14  1  1  0  0  0
 21 22  1  0  0  0  0
 22 15  1  6  0  0  0
 23 24  1  1  0  0  0
 25  8  1  6  0  0  0
 25 32  1  0  0  0  0
 26  9  1  6  0  0  0
 26 28  1  0  0  0  0
 27 28  1  0  0  0  0
 29 27  1  6  0  0  0
 29 30  1  0  0  0  0
 29 31  1  0  0  0  0
 30 35  1  0  0  0  0
 31 33  1  0  0  0  0
 31 32  1  6  0  0  0
 33 34  1  6  0  0  0
 33 35  1  0  0  0  0
 35 45  1  1  0  0  0
 36 41  2  0  0  0  0
 36 37  1  0  0  0  0
 37 38  2  0  0  0  0
 38 39  1  0  0  0  0
 39 40  2  0  0  0  0
 39 45  1  0  0  0  0
 40 41  1  0  0  0  0
 40 43  1  0  0  0  0
 41 42  1  0  0  0  0
 43 44  2  0  0  0  0
 44 45  1  0  0  0  0
M  CHG  4   8  -1   9  -1  11  -1  12  -1
M  END
>  <CHROM.1>
-18.53567436,-176.71809643,96.80837159,13.18617547,97.63577222,-1.12026236
0.65220352,2.00413071

>  <Name>
ligand

>  <RI>
0

>  <Rbt.Current_Directory>
/home/itssahil/PROJECTS/Mol_Feturizer/New_Systems/rnas/4YAZ

>  <Rbt.Executable>
rbdock ($Id: //depot/dev/client3/rdock/2013.1/src/exe/rbdock.cxx#4 $)

>  <Rbt.Library>
libRbt.so (2013.1, Build901 2013/11/27)

>  <Rbt.Parameter_File>
/export/apps/rDock/src/rDock_2013.1_src/data/scripts/dock_solv.prm

>  <Rbt.Receptor>
prm/pocket_docking_3.prm

>  <SCORE>
-45.804

>  <SCORE.INTER>
-45.9337

>  <SCORE.INTER.CONST>
1

>  <SCORE.INTER.POLAR>
0

>  <SCORE.INTER.ROT>
2

>  <SCORE.INTER.SOLV>
46.145

>  <SCORE.INTER.VDW>
-50.9375

>  <SCORE.INTER.norm>
-1.02075

>  <SCORE.INTRA>
0.129772

>  <SCORE.INTRA.DIHEDRAL>
0.0119005

>  <SCORE.INTRA.DIHEDRAL.0>
2.39103

>  <SCORE.INTRA.POLAR>
0

>  <SCORE.INTRA.POLAR.0>
0

>  <SCORE.INTRA.REPUL>
0

>  <SCORE.INTRA.REPUL.0>
0

>  <SCORE.INTRA.SOLV>
0.00755735

>  <SCORE.INTRA.SOLV.lig_0>
-163.975

>  <SCORE.INTRA.VDW>
0.120043

>  <SCORE.INTRA.VDW.0>
-1.49176

>  <SCORE.INTRA.norm>
0.00288383

>  <SCORE.RESTR>
0

>  <SCORE.RESTR.CAVITY>
0

>  <SCORE.RESTR.norm>
0

>  <SCORE.SYSTEM>
0

>  <SCORE.SYSTEM.CONST>
0

>  <SCORE.SYSTEM.DIHEDRAL>
0

>  <SCORE.SYSTEM.SOLV>
0

>  <SCORE.SYSTEM.norm>
0

>  <SCORE.heavy>
45

>  <SCORE.norm>
-1.01787

>  <RMSD>
0.556

$$$$
ligand
 OpenBabel11021811513D
libRbt.so/2013.1/901 2013/11/27
 45 51  0  0  0  0  0  0  0  0999 V2000
   97.3412   17.1667   97.3084 C   0  0  0  0  0  0  0  0  0  0  0  0
   95.0415   14.4976   94.7831 C   0  0  0  0  0  0  0  0  0  0  0  0
  102.1006   14.3399   98.6353 N   0  0  0  0  0  0  0  0  0  0  0  0
   97.5834   17.2478   98.5765 N   0  0  0  0  0  0  0  0  0  0  0  0
  100.2531   15.3050   97.5809 N   0  0  0  0  0  0  0  0  0  0  0  0
  100.5409   15.5622   99.8759 N   0  0  0  0  0  0  0  0  0  0  0  0
   98.9922   16.8640  101.1725 O   0  0  0  0  0  0  0  0  0  0  0  0
   92.3126   15.0033   96.1525 O   0  5  0  0  0  0  0  0  0  0  0  0
   98.1289   10.6656   93.8180 O   0  5  0  0  0  0  0  0  0  0  0  0
   99.3912   14.6653   94.0398 O   0  0  0  0  0  0  0  0  0  0  0  0
   93.3780   14.6337   98.0713 O   0  5  0  0  0  0  0  0  0  0  0  0
   99.2309   11.7660   95.4214 O   0  5  0  0  0  0  0  0  0  0  0  0
   94.6572   15.0796   95.9638 O   0  0  0  0  0  0  0  0  0  0  0  0
   96.8502   16.2918   94.7718 O   0  0  0  0  0  0  0  0  0  0  0  0
   97.4279   12.9228   94.0393 O   0  0  0  0  0  0  0  0  0  0  0  0
  100.8944   15.1011   98.7018 C   0  0  0  0  0  0  0  0  0  0  0  0
   99.4497   16.3089   99.9789 C   0  0  0  0  0  0  0  0  0  0  0  0
   98.6913   16.5568   98.8125 C   0  0  0  0  0  0  0  0  0  0  0  0
   99.1234   16.0495   97.6119 C   0  0  0  0  0  0  0  0  0  0  0  0
   98.5738   14.9021   95.1241 C   0  0  2  0  0  0  0  0  0  0  0  0
   96.4190   14.8626   94.3999 C   0  0  1  0  0  0  0  0  0  0  0  0
   97.2236   14.0444   94.8903 C   0  0  1  0  0  0  0  0  0  0  0  0
   98.2361   16.1601   95.3386 C   0  0  2  0  0  0  0  0  0  0  0  0
   98.2253   16.4546   96.7133 N   0  0  0  0  0  0  0  0  0  0  0  0
   93.4584   14.3805   96.6754 P   0  0  2  0  0  0  0  0  0  0  0  0
   97.9448   11.6702   94.7752 P   0  0  1  0  0  0  0  0  0  0  0  0
   95.4572   11.0484   95.2725 C   0  0  0  0  0  0  0  0  0  0  0  0
   96.8191   11.1384   95.7207 O   0  0  0  0  0  0  0  0  0  0  0  0
   94.4591   10.9206   96.3449 C   0  0  1  0  0  0  0  0  0  0  0  0
   95.0219    9.8710   97.4241 O   0  0  0  0  0  0  0  0  0  0  0  0
   94.3462   12.0103   96.9610 C   0  0  1  0  0  0  0  0  0  0  0  0
   93.3653   12.8831   96.3547 O   0  0  0  0  0  0  0  0  0  0  0  0
   94.0194   11.5950   98.3874 C   0  0  1  0  0  0  0  0  0  0  0  0
   92.7810   11.3856   98.5074 O   0  0  0  0  0  0  0  0  0  0  0  0
   94.7625   10.2726   98.5779 C   0  0  2  0  0  0  0  0  0  0  0  0
   96.1367   11.0944  103.4636 N   0  0  0  0  0  0  0  0  0  0  0  0
   94.9088   11.2875  102.9142 C   0  0  0  0  0  0  0  0  0  0  0  0
   94.7641   11.0041  101.6253 N   0  0  0  0  0  0  0  0  0  0  0  0
   95.7676   10.6003  100.8173 C   0  0  0  0  0  0  0  0  0  0  0  0
   97.0568   10.3884  101.3513 C   0  0  0  0  0  0  0  0  0  0  0  0
   97.1969   10.6760  102.7466 C   0  0  0  0  0  0  0  0  0  0  0  0
   98.4706   10.5125  103.3669 N   0  0  0  0  0  0  0  0  0  0  0  0
   97.7922    9.9704  100.3817 N   0  0  0  0  0  0  0  0  0  0  0  0
   97.0518    9.8848   99.2902 C   0  0  0  0  0  0  0  0  0  0  0  0
   95.8485   10.2733   99.5194 N   0  0  0  0  0  0  0  0  0  0  0  0
  1 24  1  0  0  0  0
  1  4  2  0  0  0  0
  2 13  1  0  0  0  0
  2 21  1  0  0  0  0
  3 16  1  0  0  0  0
  4 18  1  0  0  0  0
  5 19  2  0  0  0  0
  5 16  1  0  0  0  0
  6 16  2  0  0  0  0
  6 17  1  0  0  0  0
  7 17  1  0  0  0  0
 11 25  2  0  0  0  0
 12 26  2  0  0  0  0
 13 25  1  0  0  0  0
 14 23  1  0  0  0  0
 15 26  1  0  0  0  0
 17 18  2  0  0  0  0
 18 19  1  0  0  0  0
 19 24  1  0  0  0  0
 20 10  1  6  0  0  0
 20 22  1  0  0  0  0
 20 23  1  0  0  0  0
 21 14  1  1  0  0  0
 21 22  1  0  0  0  0
 22 15  1  6  0  0  0
 23 24  1  1  0  0  0
 25  8  1  6  0  0  0
 25 32  1  0  0  0  0
 26  9  1  6  0  0  0
 26 28  1  0  0  0  0
 27 28  1  0  0  0  0
 29 27  1  6  0  0  0
 29 30  1  0  0  0  0
 29 31  1  0  0  0  0
 30 35  1  0  0  0  0
 31 33  1  0  0  0  0
 31 32  1  6  0  0  0
 33 34  1  6  0  0  0
 33 35  1  0  0  0  0
 35 45  1  1  0  0  0
 36 41  2  0  0  0  0
 36 37  1  0  0  0  0
 37 38  2  0  0  0  0
 38 39  1  0  0  0  0
 39 40  2  0  0  0  0
 39 45  1  0  0  0  0
 40 41  1  0  0  0  0
 40 43  1  0  0  0  0
 41 42  1  0  0  0  0
 43 44  2  0  0  0  0
 44 45  1  0  0  0  0
M  CHG  4   8  -1   9  -1  11  -1  12  -1
M  END
>  <CHROM.1>
-22.95608662,-176.46599776,96.72594388,13.21878295,97.61373778,-1.18371547
0.65723833,2.01260456

>  <Name>
ligand

>  <RI>
0

>  <Rbt.Current_Directory>
/home/itssahil/PROJECTS/Mol_Feturizer/New_Systems/rnas/4YAZ

>  <Rbt.Executable>
rbdock ($Id: //depot/dev/client3/rdock/2013.1/src/exe/rbdock.cxx#4 $)

>  <Rbt.Library>
libRbt.so (2013.1, Build901 2013/11/27)

>  <Rbt.Parameter_File>
/export/apps/rDock/src/rDock_2013.1_src/data/scripts/dock_solv.prm

>  <Rbt.Receptor>
prm/pocket_docking_2.prm

>  <SCORE>
-45.3051

>  <SCORE.INTER>
-45.4795

>  <SCORE.INTER.CONST>
1

>  <SCORE.INTER.POLAR>
0

>  <SCORE.INTER.ROT>
2

>  <SCORE.INTER.SOLV>
44.8229

>  <SCORE.INTER.VDW>
-50.194

>  <SCORE.INTER.norm>
-1.01066

>  <SCORE.INTRA>
0.173801

>  <SCORE.INTRA.DIHEDRAL>
0.0131104

>  <SCORE.INTRA.DIHEDRAL.0>
2.39103

>  <SCORE.INTRA.POLAR>
0

>  <SCORE.INTRA.POLAR.0>
0

>  <SCORE.INTRA.REPUL>
0

>  <SCORE.INTRA.REPUL.0>
0

>  <SCORE.INTRA.SOLV>
0.012303

>  <SCORE.INTRA.SOLV.lig_0>
-163.975

>  <SCORE.INTRA.VDW>
0.161094

>  <SCORE.INTRA.VDW.0>
-1.49176

>  <SCORE.INTRA.norm>
0.00386224

>  <SCORE.RESTR>
0.000576909

>  <SCORE.RESTR.CAVITY>
0.000576909

>  <SCORE.RESTR.norm>
1.28202e-05

>  <SCORE.SYSTEM>
0

>  <SCORE.SYSTEM.CONST>
0

>  <SCORE.SYSTEM.DIHEDRAL>
0

>  <SCORE.SYSTEM.SOLV>
0

>  <SCORE.SYSTEM.norm>
0

>  <SCORE.heavy>
45

>  <SCORE.norm>
-1.00678

>  <RMSD>
0.557

$$$$
ligand
 OpenBabel11021811513D
libRbt.so/2013.1/901 2013/11/27
 45 51  0  0  0  0  0  0  0  0999 V2000
   97.4029   16.9640   97.3023 C   0  0  0  0  0  0  0  0  0  0  0  0
   95.0967   14.4306   94.8127 C   0  0  0  0  0  0  0  0  0  0  0  0
  102.5244   14.7547   98.4391 N   0  0  0  0  0  0  0  0  0  0  0  0
   97.6886   17.0925   98.5573 N   0  0  0  0  0  0  0  0  0  0  0  0
  100.5289   15.4731   97.4603 N   0  0  0  0  0  0  0  0  0  0  0  0
  100.8833   15.7971   99.7374 N   0  0  0  0  0  0  0  0  0  0  0  0
   99.2458   16.9206  101.0905 O   0  0  0  0  0  0  0  0  0  0  0  0
   92.3964   14.9998   96.2134 O   0  5  0  0  0  0  0  0  0  0  0  0
   98.1043   10.5344   93.8525 O   0  5  0  0  0  0  0  0  0  0  0  0
   99.4378   14.5141   94.0074 O   0  0  0  0  0  0  0  0  0  0  0  0
   93.4820   14.6352   98.1217 O   0  5  0  0  0  0  0  0  0  0  0  0
   99.2473   11.6349   95.4268 O   0  5  0  0  0  0  0  0  0  0  0  0
   94.7390   15.0334   95.9913 O   0  0  0  0  0  0  0  0  0  0  0  0
   96.9355   16.1930   94.7543 O   0  0  0  0  0  0  0  0  0  0  0  0
   97.4451   12.8059   94.0555 O   0  0  0  0  0  0  0  0  0  0  0  0
  101.2386   15.3650   98.5529 C   0  0  0  0  0  0  0  0  0  0  0  0
   99.7149   16.4075   99.8826 C   0  0  0  0  0  0  0  0  0  0  0  0
   98.8816   16.5444   98.7495 C   0  0  0  0  0  0  0  0  0  0  0  0
   99.3195   16.0756   97.5354 C   0  0  0  0  0  0  0  0  0  0  0  0
   98.6398   14.7781   95.0999 C   0  0  2  0  0  0  0  0  0  0  0  0
   96.4748   14.7671   94.4060 C   0  0  1  0  0  0  0  0  0  0  0  0
   97.2720   13.9411   94.8954 C   0  0  1  0  0  0  0  0  0  0  0  0
   98.3267   16.0443   95.3035 C   0  0  2  0  0  0  0  0  0  0  0  0
   98.3402   16.3556   96.6745 N   0  0  0  0  0  0  0  0  0  0  0  0
   93.5385   14.3637   96.7281 P   0  0  2  0  0  0  0  0  0  0  0  0
   97.9508   11.5535   94.7997 P   0  0  1  0  0  0  0  0  0  0  0  0
   95.4602   10.9809   95.3389 C   0  0  0  0  0  0  0  0  0  0  0  0
   96.8296   11.0528   95.7671 O   0  0  0  0  0  0  0  0  0  0  0  0
   94.4752   10.8833   96.4265 C   0  0  1  0  0  0  0  0  0  0  0  0
   95.0351    9.8374   97.5107 O   0  0  0  0  0  0  0  0  0  0  0  0
   94.3896   11.9822   97.0306 C   0  0  1  0  0  0  0  0  0  0  0  0
   93.4154   12.8644   96.4272 O   0  0  0  0  0  0  0  0  0  0  0  0
   94.0758   11.5899   98.4664 C   0  0  1  0  0  0  0  0  0  0  0  0
   92.8358   11.4034   98.6061 O   0  0  0  0  0  0  0  0  0  0  0  0
   94.7987   10.2573   98.6629 C   0  0  2  0  0  0  0  0  0  0  0  0
   96.2561   11.1188  103.5176 N   0  0  0  0  0  0  0  0  0  0  0  0
   95.0244   11.3270  102.9826 C   0  0  0  0  0  0  0  0  0  0  0  0
   94.8564   11.0292  101.6998 N   0  0  0  0  0  0  0  0  0  0  0  0
   95.8410   10.5964  100.8836 C   0  0  0  0  0  0  0  0  0  0  0  0
   97.1335   10.3680  101.4026 C   0  0  0  0  0  0  0  0  0  0  0  0
   97.2984   10.6715  102.7918 C   0  0  0  0  0  0  0  0  0  0  0  0
   98.5776   10.4930  103.3966 N   0  0  0  0  0  0  0  0  0  0  0  0
   97.8475    9.9237  100.4286 N   0  0  0  0  0  0  0  0  0  0  0  0
   97.0904    9.8371   99.3487 C   0  0  0  0  0  0  0  0  0  0  0  0
   95.8977   10.2507   99.5893 N   0  0  0  0  0  0  0  0  0  0  0  0
  1 24  1  0  0  0  0
  1  4  2  0  0  0  0
  2 13  1  0  0  0  0
  2 21  1  0  0  0  0
  3 16  1  0  0  0  0
  4 18  1  0  0  0  0
  5 19  2  0  0  0  0
  5 16  1  0  0  0  0
  6 16  2  0  0  0  0
  6 17  1  0  0  0  0
  7 17  1  0  0  0  0
 11 25  2  0  0  0  0
 12 26  2  0  0  0  0
 13 25  1  0  0  0  0
 14 23  1  0  0  0  0
 15 26  1  0  0  0  0
 17 18  2  0  0  0  0
 18 19  1  0  0  0  0
 19 24  1  0  0  0  0
 20 10  1  6  0  0  0
 20 22  1  0  0  0  0
 20 23  1  0  0  0  0
 21 14  1  1  0  0  0
 21 22  1  0  0  0  0
 22 15  1  6  0  0  0
 23 24  1  1  0  0  0
 25  8  1  6  0  0  0
 25 32  1  0  0  0  0
 26  9  1  6  0  0  0
 26 28  1  0  0  0  0
 27 28  1  0  0  0  0
 29 27  1  6  0  0  0
 29 30  1  0  0  0  0
 29 31  1  0  0  0  0
 30 35  1  0  0  0  0
 31 33  1  0  0  0  0
 31 32  1  6  0  0  0
 33 34  1  6  0  0  0
 33 35  1  0  0  0  0
 35 45  1  1  0  0  0
 36 41  2  0  0  0  0
 36 37  1  0  0  0  0
 37 38  2  0  0  0  0
 38 39  1  0  0  0  0
 39 40  2  0  0  0  0
 39 45  1  0  0  0  0
 40 41  1  0  0  0  0
 40 43  1  0  0  0  0
 41 42  1  0  0  0  0
 43 44  2  0  0  0  0
 44 45  1  0  0  0  0
M  CHG  4   8  -1   9  -1  11  -1  12  -1
M  END
>  <CHROM.1>
-14.80126880,-176.55829342,96.82064935,13.19505256,97.62661849,-1.06238860
0.64579248,1.99602152

>  <Name>
ligand

>  <RI>
0

>  <Rbt.Current_Directory>
/home/itssahil/PROJECTS/Mol_Feturizer/New_Systems/rnas/4YAZ

>  <Rbt.Executable>
rbdock ($Id: //depot/dev/client3/rdock/2013.1/src/exe/rbdock.cxx#4 $)

>  <Rbt.Library>
libRbt.so (2013.1, Build901 2013/11/27)

>  <Rbt.Parameter_File>
/export/apps/rDock/src/rDock_2013.1_src/data/scripts/dock_solv.prm

>  <Rbt.Receptor>
prm/pocket_docking_3.prm

>  <SCORE>
-45.7048

>  <SCORE.INTER>
-45.7452

>  <SCORE.INTER.CONST>
1

>  <SCORE.INTER.POLAR>
0

>  <SCORE.INTER.ROT>
2

>  <SCORE.INTER.SOLV>
46.6078

>  <SCORE.INTER.VDW>
-50.966

>  <SCORE.INTER.norm>
-1.01656

>  <SCORE.INTRA>
0.0403612

>  <SCORE.INTRA.DIHEDRAL>
0.013731

>  <SCORE.INTRA.DIHEDRAL.0>
2.39103

>  <SCORE.INTRA.POLAR>
0

>  <SCORE.INTRA.POLAR.0>
0

>  <SCORE.INTRA.REPUL>
0

>  <SCORE.INTRA.REPUL.0>
0

>  <SCORE.INTRA.SOLV>
0.00257165

>  <SCORE.INTRA.SOLV.lig_0>
-163.975

>  <SCORE.INTRA.VDW>
0.0322099

>  <SCORE.INTRA.VDW.0>
-1.49176

>  <SCORE.INTRA.norm>
0.000896916

>  <SCORE.RESTR>
0

>  <SCORE.RESTR.CAVITY>
0

>  <SCORE.RESTR.norm>
0

>  <SCORE.SYSTEM>
0

>  <SCORE.SYSTEM.CONST>
0

>  <SCORE.SYSTEM.DIHEDRAL>
0

>  <SCORE.SYSTEM.SOLV>
0

>  <SCORE.SYSTEM.norm>
0

>  <SCORE.heavy>
45

>  <SCORE.norm>
-1.01566

>  <RMSD>
0.561

$$$$
ligand
 OpenBabel11021811513D
libRbt.so/2013.1/901 2013/11/27
 45 51  0  0  0  0  0  0  0  0999 V2000
   97.2466   17.1075   97.2460 C   0  0  0  0  0  0  0  0  0  0  0  0
   95.0197   14.5031   94.7510 C   0  0  0  0  0  0  0  0  0  0  0  0
  102.4088   15.0130   98.4154 N   0  0  0  0  0  0  0  0  0  0  0  0
   97.5222   17.2440   98.5025 N   0  0  0  0  0  0  0  0  0  0  0  0
  100.4036   15.6860   97.4241 N   0  0  0  0  0  0  0  0  0  0  0  0
  100.7377   16.0208   99.7027 N   0  0  0  0  0  0  0  0  0  0  0  0
   99.0681   17.1097  101.0448 O   0  0  0  0  0  0  0  0  0  0  0  0
   92.2985   14.9997   96.1387 O   0  5  0  0  0  0  0  0  0  0  0  0
   98.1377   10.6899   93.8098 O   0  5  0  0  0  0  0  0  0  0  0  0
   99.3605   14.7050   93.9650 O   0  0  0  0  0  0  0  0  0  0  0  0
   93.3851   14.6675   98.0524 O   0  5  0  0  0  0  0  0  0  0  0  0
   99.2429   11.8235   95.3876 O   0  5  0  0  0  0  0  0  0  0  0  0
   94.6403   15.0974   95.9271 O   0  0  0  0  0  0  0  0  0  0  0  0
   96.8096   16.3153   94.6983 O   0  0  0  0  0  0  0  0  0  0  0  0
   97.4154   12.9426   94.0067 O   0  0  0  0  0  0  0  0  0  0  0  0
  101.1092   15.5949   98.5210 C   0  0  0  0  0  0  0  0  0  0  0  0
   99.5553   16.6054   99.8404 C   0  0  0  0  0  0  0  0  0  0  0  0
   98.7258   16.7225   98.7023 C   0  0  0  0  0  0  0  0  0  0  0  0
   99.1808   16.2618   97.4914 C   0  0  0  0  0  0  0  0  0  0  0  0
   98.5506   14.9483   95.0535 C   0  0  2  0  0  0  0  0  0  0  0  0
   96.3899   14.8769   94.3500 C   0  0  1  0  0  0  0  0  0  0  0  0
   97.2073   14.0738   94.8441 C   0  0  1  0  0  0  0  0  0  0  0  0
   98.2019   16.2057   95.2539 C   0  0  2  0  0  0  0  0  0  0  0  0
   98.2007   16.5191   96.6245 N   0  0  0  0  0  0  0  0  0  0  0  0
   93.4554   14.3960   96.6594 P   0  0  2  0  0  0  0  0  0  0  0  0
   97.9519   11.7057   94.7548 P   0  0  1  0  0  0  0  0  0  0  0  0
   95.4756   11.0655   95.2838 C   0  0  0  0  0  0  0  0  0  0  0  0
   96.8406   11.1755   95.7180 O   0  0  0  0  0  0  0  0  0  0  0  0
   94.4888   10.9422   96.3670 C   0  0  1  0  0  0  0  0  0  0  0  0
   95.0723    9.9135   97.4552 O   0  0  0  0  0  0  0  0  0  0  0  0
   94.3702   12.0391   96.9692 C   0  0  1  0  0  0  0  0  0  0  0  0
   93.3748   12.8934   96.3602 O   0  0  0  0  0  0  0  0  0  0  0  0
   94.0609   11.6402   98.4042 C   0  0  1  0  0  0  0  0  0  0  0  0
   92.8259   11.4198   98.5386 O   0  0  0  0  0  0  0  0  0  0  0  0
   94.8193   10.3283   98.6058 C   0  0  2  0  0  0  0  0  0  0  0  0
   96.2275   11.2191  103.4697 N   0  0  0  0  0  0  0  0  0  0  0  0
   94.9922   11.3904  102.9298 C   0  0  0  0  0  0  0  0  0  0  0  0
   94.8393   11.0916  101.6453 N   0  0  0  0  0  0  0  0  0  0  0  0
   95.8406   10.6926  100.8322 C   0  0  0  0  0  0  0  0  0  0  0  0
   97.1373   10.5032  101.3563 C   0  0  0  0  0  0  0  0  0  0  0  0
   97.2865   10.8072  102.7472 C   0  0  0  0  0  0  0  0  0  0  0  0
   98.5679   10.6669  103.3572 N   0  0  0  0  0  0  0  0  0  0  0  0
   97.8692   10.0847  100.3842 N   0  0  0  0  0  0  0  0  0  0  0  0
   97.1200    9.9779   99.3006 C   0  0  0  0  0  0  0  0  0  0  0  0
   95.9138   10.3531   99.5371 N   0  0  0  0  0  0  0  0  0  0  0  0
  1 24  1  0  0  0  0
  1  4  2  0  0  0  0
  2 13  1  0  0  0  0
  2 21  1  0  0  0  0
  3 16  1  0  0  0  0
  4 18  1  0  0  0  0
  5 19  2  0  0  0  0
  5 16  1  0  0  0  0
  6 16  2  0  0  0  0
  6 17  1  0  0  0  0
  7 17  1  0  0  0  0
 11 25  2  0  0  0  0
 12 26  2  0  0  0  0
 13 25  1  0  0  0  0
 14 23  1  0  0  0  0
 15 26  1  0  0  0  0
 17 18  2  0  0  0  0
 18 19  1  0  0  0  0
 19 24  1  0  0  0  0
 20 10  1  6  0  0  0
 20 22  1  0  0  0  0
 20 23  1  0  0  0  0
 21 14  1  1  0  0  0
 21 22  1  0  0  0  0
 22 15  1  6  0  0  0
 23 24  1  1  0  0  0
 25  8  1  6  0  0  0
 25 32  1  0  0  0  0
 26  9  1  6  0  0  0
 26 28  1  0  0  0  0
 27 28  1  0  0  0  0
 29 27  1  6  0  0  0
 29 30  1  0  0  0  0
 29 31  1  0  0  0  0
 30 35  1  0  0  0  0
 31 33  1  0  0  0  0
 31 32  1  6  0  0  0
 33 34  1  6  0  0  0
 33 35  1  0  0  0  0
 35 45  1  1  0  0  0
 36 41  2  0  0  0  0
 36 37  1  0  0  0  0
 37 38  2  0  0  0  0
 38 39  1  0  0  0  0
 39 40  2  0  0  0  0
 39 45  1  0  0  0  0
 40 41  1  0  0  0  0
 40 43  1  0  0  0  0
 41 42  1  0  0  0  0
 43 44  2  0  0  0  0
 44 45  1  0  0  0  0
M  CHG  4   8  -1   9  -1  11  -1  12  -1
M  END
>  <CHROM.1>
-15.12513220,-176.21453079,96.76335680,13.31629818,97.57499127,-1.07799703
0.67184130,2.00167613

>  <Name>
ligand

>  <RI>
0

>  <Rbt.Current_Directory>
/home/itssahil/PROJECTS/Mol_Feturizer/New_Systems/rnas/4YAZ

>  <Rbt.Executable>
rbdock ($Id: //depot/dev/client3/rdock/2013.1/src/exe/rbdock.cxx#4 $)

>  <Rbt.Library>
libRbt.so (2013.1, Build901 2013/11/27)

>  <Rbt.Parameter_File>
/export/apps/rDock/src/rDock_2013.1_src/data/scripts/dock_solv.prm

>  <Rbt.Receptor>
prm/pocket_docking_2.prm

>  <SCORE>
-45.4683

>  <SCORE.INTER>
-45.5176

>  <SCORE.INTER.CONST>
1

>  <SCORE.INTER.POLAR>
0

>  <SCORE.INTER.ROT>
2

>  <SCORE.INTER.SOLV>
45.6326

>  <SCORE.INTER.VDW>
-50.4893

>  <SCORE.INTER.norm>
-1.0115

>  <SCORE.INTRA>
0.0470397

>  <SCORE.INTRA.DIHEDRAL>
0.0161204

>  <SCORE.INTRA.DIHEDRAL.0>
2.39103

>  <SCORE.INTRA.POLAR>
0

>  <SCORE.INTRA.POLAR.0>
0

>  <SCORE.INTRA.REPUL>
0

>  <SCORE.INTRA.REPUL.0>
0

>  <SCORE.INTRA.SOLV>
0.00254908

>  <SCORE.INTRA.SOLV.lig_0>
-163.975

>  <SCORE.INTRA.VDW>
0.037705

>  <SCORE.INTRA.VDW.0>
-1.49176

>  <SCORE.INTRA.norm>
0.00104533

>  <SCORE.RESTR>
0.00225948

>  <SCORE.RESTR.CAVITY>
0.00225948

>  <SCORE.RESTR.norm>
5.02107e-05

>  <SCORE.SYSTEM>
0

>  <SCORE.SYSTEM.CONST>
0

>  <SCORE.SYSTEM.DIHEDRAL>
0

>  <SCORE.SYSTEM.SOLV>
0

>  <SCORE.SYSTEM.norm>
0

>  <SCORE.heavy>
45

>  <SCORE.norm>
-1.01041

>  <RMSD>
0.562

$$$$
ligand
 OpenBabel11021811513D
libRbt.so/2013.1/901 2013/11/27
 45 51  0  0  0  0  0  0  0  0999 V2000
   97.4073   17.1054   97.3664 C   0  0  0  0  0  0  0  0  0  0  0  0
   95.1043   14.5111   94.8388 C   0  0  0  0  0  0  0  0  0  0  0  0
  102.3280   14.5214   98.5962 N   0  0  0  0  0  0  0  0  0  0  0  0
   97.6690   17.1966   98.6299 N   0  0  0  0  0  0  0  0  0  0  0  0
  100.4144   15.3933   97.5792 N   0  0  0  0  0  0  0  0  0  0  0  0
  100.7322   15.6610   99.8690 N   0  0  0  0  0  0  0  0  0  0  0  0
   99.1443   16.8803  101.1980 O   0  0  0  0  0  0  0  0  0  0  0  0
   92.3882   15.0335   96.2272 O   0  5  0  0  0  0  0  0  0  0  0  0
   98.1572   10.6588   93.8447 O   0  5  0  0  0  0  0  0  0  0  0  0
   99.4502   14.6486   94.0677 O   0  0  0  0  0  0  0  0  0  0  0  0
   93.4632   14.6515   98.1382 O   0  5  0  0  0  0  0  0  0  0  0  0
   99.2776   11.7473   95.4435 O   0  5  0  0  0  0  0  0  0  0  0  0
   94.7320   15.0931   96.0234 O   0  0  0  0  0  0  0  0  0  0  0  0
   96.9261   16.2919   94.8201 O   0  0  0  0  0  0  0  0  0  0  0  0
   97.4742   12.9206   94.0759 O   0  0  0  0  0  0  0  0  0  0  0  0
  101.0863   15.2203   98.6873 C   0  0  0  0  0  0  0  0  0  0  0  0
   99.6067   16.3511   99.9945 C   0  0  0  0  0  0  0  0  0  0  0  0
   98.8147   16.5622   98.8433 C   0  0  0  0  0  0  0  0  0  0  0  0
   99.2493   16.0795   97.6334 C   0  0  0  0  0  0  0  0  0  0  0  0
   98.6416   14.8888   95.1578 C   0  0  2  0  0  0  0  0  0  0  0  0
   96.4820   14.8669   94.4476 C   0  0  1  0  0  0  0  0  0  0  0  0
   97.2837   14.0417   94.9308 C   0  0  1  0  0  0  0  0  0  0  0  0
   98.3146   16.1488   95.3774 C   0  0  2  0  0  0  0  0  0  0  0  0
   98.3149   16.4401   96.7529 N   0  0  0  0  0  0  0  0  0  0  0  0
   93.5328   14.4011   96.7412 P   0  0  2  0  0  0  0  0  0  0  0  0
   97.9866   11.6624   94.8055 P   0  0  1  0  0  0  0  0  0  0  0  0
   95.4978   11.0578   95.3175 C   0  0  0  0  0  0  0  0  0  0  0  0
   96.8633   11.1367   95.7570 O   0  0  0  0  0  0  0  0  0  0  0  0
   94.5058   10.9347   96.3960 C   0  0  1  0  0  0  0  0  0  0  0  0
   95.0679    9.8785   97.4691 O   0  0  0  0  0  0  0  0  0  0  0  0
   94.4049   12.0237   97.0154 C   0  0  1  0  0  0  0  0  0  0  0  0
   93.4265   12.9052   96.4176 O   0  0  0  0  0  0  0  0  0  0  0  0
   94.0843   11.6075   98.4430 C   0  0  1  0  0  0  0  0  0  0  0  0
   92.8453   11.4068   98.5706 O   0  0  0  0  0  0  0  0  0  0  0  0
   94.8189   10.2792   98.6255 C   0  0  2  0  0  0  0  0  0  0  0  0
   96.2335   11.0927  103.5011 N   0  0  0  0  0  0  0  0  0  0  0  0
   95.0042   11.2980  102.9593 C   0  0  0  0  0  0  0  0  0  0  0  0
   94.8480   11.0145  101.6718 N   0  0  0  0  0  0  0  0  0  0  0  0
   95.8420   10.5992  100.8579 C   0  0  0  0  0  0  0  0  0  0  0  0
   97.1323   10.3744  101.3838 C   0  0  0  0  0  0  0  0  0  0  0  0
   97.2845   10.6623  102.7778 C   0  0  0  0  0  0  0  0  0  0  0  0
   98.5605   10.4862  103.3899 N   0  0  0  0  0  0  0  0  0  0  0  0
   97.8570    9.9474  100.4099 N   0  0  0  0  0  0  0  0  0  0  0  0
   97.1086    9.8682   99.3234 C   0  0  0  0  0  0  0  0  0  0  0  0
   95.9110   10.2697   99.5599 N   0  0  0  0  0  0  0  0  0  0  0  0
  1 24  1  0  0  0  0
  1  4  2  0  0  0  0
  2 13  1  0  0  0  0
  2 21  1  0  0  0  0
  3 16  1  0  0  0  0
  4 18  1  0  0  0  0
  5 19  2  0  0  0  0
  5 16  1  0  0  0  0
  6 16  2  0  0  0  0
  6 17  1  0  0  0  0
  7 17  1  0  0  0  0
 11 25  2  0  0  0  0
 12 26  2  0  0  0  0
 13 25  1  0  0  0  0
 14 23  1  0  0  0  0
 15 26  1  0  0  0  0
 17 18  2  0  0  0  0
 18 19  1  0  0  0  0
 19 24  1  0  0  0  0
 20 10  1  6  0  0  0
 20 22  1  0  0  0  0
 20 23  1  0  0  0  0
 21 14  1  1  0  0  0
 21 22  1  0  0  0  0
 22 15  1  6  0  0  0
 23 24  1  1  0  0  0
 25  8  1  6  0  0  0
 25 32  1  0  0  0  0
 26  9  1  6  0  0  0
 26 28  1  0  0  0  0
 27 28  1  0  0  0  0
 29 27  1  6  0  0  0
 29 30  1  0  0  0  0
 29 31  1  0  0  0  0
 30 35  1  0  0  0  0
 31 33  1  0  0  0  0
 31 32  1  6  0  0  0
 33 34  1  6  0  0  0
 33 35  1  0  0  0  0
 35 45  1  1  0  0  0
 36 41  2  0  0  0  0
 36 37  1  0  0  0  0
 37 38  2  0  0  0  0
 38 39  1  0  0  0  0
 39 40  2  0  0  0  0
 39 45  1  0  0  0  0
 40 41  1  0  0  0  0
 40 43  1  0  0  0  0
 41 42  1  0  0  0  0
 43 44  2  0  0  0  0
 44 45  1  0  0  0  0
M  CHG  4   8  -1   9  -1  11  -1  12  -1
M  END
>  <CHROM.1>
-19.55447345,-176.74423827,96.80758436,13.22962893,97.65201954,-1.13576713
0.65102901,2.01306317

>  <Name>
ligand

>  <RI>
0

>  <Rbt.Current_Directory>
/home/itssahil/PROJECTS/Mol_Feturizer/New_Systems/rnas/4YAZ

>  <Rbt.Executable>
rbdock ($Id: //depot/dev/client3/rdock/2013.1/src/exe/rbdock.cxx#4 $)

>  <Rbt.Library>
libRbt.so (2013.1, Build901 2013/11/27)

>  <Rbt.Parameter_File>
/export/apps/rDock/src/rDock_2013.1_src/data/scripts/dock_solv.prm

>  <Rbt.Receptor>
prm/pocket_docking_4.prm

>  <SCORE>
-45.7131

>  <SCORE.INTER>
-45.8687

>  <SCORE.INTER.CONST>
1

>  <SCORE.INTER.POLAR>
0

>  <SCORE.INTER.ROT>
2

>  <SCORE.INTER.SOLV>
46.4249

>  <SCORE.INTER.VDW>
-50.9874

>  <SCORE.INTER.norm>
-1.0193

>  <SCORE.INTRA>
0.155575

>  <SCORE.INTRA.DIHEDRAL>
0.0115545

>  <SCORE.INTRA.DIHEDRAL.0>
2.39103

>  <SCORE.INTRA.POLAR>
0

>  <SCORE.INTRA.POLAR.0>
0

>  <SCORE.INTRA.REPUL>
0

>  <SCORE.INTRA.REPUL.0>
0

>  <SCORE.INTRA.SOLV>
0.00879783

>  <SCORE.INTRA.SOLV.lig_0>
-163.975

>  <SCORE.INTRA.VDW>
0.145399

>  <SCORE.INTRA.VDW.0>
-1.49176

>  <SCORE.INTRA.norm>
0.00345722

>  <SCORE.RESTR>
0

>  <SCORE.RESTR.CAVITY>
0

>  <SCORE.RESTR.norm>
0

>  <SCORE.SYSTEM>
0

>  <SCORE.SYSTEM.CONST>
0

>  <SCORE.SYSTEM.DIHEDRAL>
0

>  <SCORE.SYSTEM.SOLV>
0

>  <SCORE.SYSTEM.norm>
0

>  <SCORE.heavy>
45

>  <SCORE.norm>
-1.01585

>  <RMSD>
0.562

$$$$
ligand
 OpenBabel11021811513D
libRbt.so/2013.1/901 2013/11/27
 45 51  0  0  0  0  0  0  0  0999 V2000
   97.2175   17.0995   97.2353 C   0  0  0  0  0  0  0  0  0  0  0  0
   95.0211   14.4684   94.7403 C   0  0  0  0  0  0  0  0  0  0  0  0
  102.3921   15.0487   98.4274 N   0  0  0  0  0  0  0  0  0  0  0  0
   97.4878   17.2414   98.4923 N   0  0  0  0  0  0  0  0  0  0  0  0
  100.3850   15.7034   97.4277 N   0  0  0  0  0  0  0  0  0  0  0  0
  100.7088   16.0467   99.7065 N   0  0  0  0  0  0  0  0  0  0  0  0
   99.0262   17.1259  101.0401 O   0  0  0  0  0  0  0  0  0  0  0  0
   92.2912   14.9447   96.1182 O   0  5  0  0  0  0  0  0  0  0  0  0
   98.1753   10.6803   93.8189 O   0  5  0  0  0  0  0  0  0  0  0  0
   99.3624   14.7063   93.9674 O   0  0  0  0  0  0  0  0  0  0  0  0
   93.3747   14.6270   98.0362 O   0  5  0  0  0  0  0  0  0  0  0  0
   99.2655   11.8276   95.3972 O   0  5  0  0  0  0  0  0  0  0  0  0
   94.6327   15.0624   95.9137 O   0  0  0  0  0  0  0  0  0  0  0  0
   96.7951   16.2961   94.6885 O   0  0  0  0  0  0  0  0  0  0  0  0
   97.4326   12.9271   94.0076 O   0  0  0  0  0  0  0  0  0  0  0  0
  101.0877   15.6207   98.5271 C   0  0  0  0  0  0  0  0  0  0  0  0
   99.5214   16.6224   99.8386 C   0  0  0  0  0  0  0  0  0  0  0  0
   98.6948   16.7300   98.6975 C   0  0  0  0  0  0  0  0  0  0  0  0
   99.1575   16.2697   97.4893 C   0  0  0  0  0  0  0  0  0  0  0  0
   98.5470   14.9454   95.0527 C   0  0  2  0  0  0  0  0  0  0  0  0
   96.3891   14.8531   94.3426 C   0  0  1  0  0  0  0  0  0  0  0  0
   97.2120   14.0585   94.8414 C   0  0  1  0  0  0  0  0  0  0  0  0
   98.1866   16.2001   95.2487 C   0  0  2  0  0  0  0  0  0  0  0  0
   98.1783   16.5170   96.6185 N   0  0  0  0  0  0  0  0  0  0  0  0
   93.4517   14.3525   96.6441 P   0  0  2  0  0  0  0  0  0  0  0  0
   97.9777   11.6968   94.7606 P   0  0  1  0  0  0  0  0  0  0  0  0
   95.5054   11.0363   95.2835 C   0  0  0  0  0  0  0  0  0  0  0  0
   96.8680   11.1594   95.7217 O   0  0  0  0  0  0  0  0  0  0  0  0
   94.5163   10.9071   96.3640 C   0  0  1  0  0  0  0  0  0  0  0  0
   95.1054    9.8864   97.4567 O   0  0  0  0  0  0  0  0  0  0  0  0
   94.3862   12.0045   96.9629 C   0  0  1  0  0  0  0  0  0  0  0  0
   93.3853   12.8485   96.3485 O   0  0  0  0  0  0  0  0  0  0  0  0
   94.0758   11.6067   98.3979 C   0  0  1  0  0  0  0  0  0  0  0  0
   92.8424   11.3758   98.5290 O   0  0  0  0  0  0  0  0  0  0  0  0
   94.8451   10.3019   98.6053 C   0  0  2  0  0  0  0  0  0  0  0  0
   96.2213   11.1639  103.4836 N   0  0  0  0  0  0  0  0  0  0  0  0
   94.9841   11.3153  102.9422 C   0  0  0  0  0  0  0  0  0  0  0  0
   94.8410   11.0289  101.6538 N   0  0  0  0  0  0  0  0  0  0  0  0
   95.8527   10.6610  100.8389 C   0  0  0  0  0  0  0  0  0  0  0  0
   97.1517   10.4928  101.3644 C   0  0  0  0  0  0  0  0  0  0  0  0
   97.2907   10.7832  102.7592 C   0  0  0  0  0  0  0  0  0  0  0  0
   98.5733   10.6628  103.3712 N   0  0  0  0  0  0  0  0  0  0  0  0
   97.8949   10.1017  100.3894 N   0  0  0  0  0  0  0  0  0  0  0  0
   97.1509    9.9921   99.3025 C   0  0  0  0  0  0  0  0  0  0  0  0
   95.9364   10.3388   99.5400 N   0  0  0  0  0  0  0  0  0  0  0  0
  1 24  1  0  0  0  0
  1  4  2  0  0  0  0
  2 13  1  0  0  0  0
  2 21  1  0  0  0  0
  3 16  1  0  0  0  0
  4 18  1  0  0  0  0
  5 19  2  0  0  0  0
  5 16  1  0  0  0  0
  6 16  2  0  0  0  0
  6 17  1  0  0  0  0
  7 17  1  0  0  0  0
 11 25  2  0  0  0  0
 12 26  2  0  0  0  0
 13 25  1  0  0  0  0
 14 23  1  0  0  0  0
 15 26  1  0  0  0  0
 17 18  2  0  0  0  0
 18 19  1  0  0  0  0
 19 24  1  0  0  0  0
 20 10  1  6  0  0  0
 20 22  1  0  0  0  0
 20 23  1  0  0  0  0
 21 14  1  1  0  0  0
 21 22  1  0  0  0  0
 22 15  1  6  0  0  0
 23 24  1  1  0  0  0
 25  8  1  6  0  0  0
 25 32  1  0  0  0  0
 26  9  1  6  0  0  0
 26 28  1  0  0  0  0
 27 28  1  0  0  0  0
 29 27  1  6  0  0  0
 29 30  1  0  0  0  0
 29 31  1  0  0  0  0
 30 35  1  0  0  0  0
 31 33  1  0  0  0  0
 31 32  1  6  0  0  0
 33 34  1  6  0  0  0
 33 35  1  0  0  0  0
 35 45  1  1  0  0  0
 36 41  2  0  0  0  0
 36 37  1  0  0  0  0
 37 38  2  0  0  0  0
 38 39  1  0  0  0  0
 39 40  2  0  0  0  0
 39 45  1  0  0  0  0
 40 41  1  0  0  0  0
 40 43  1  0  0  0  0
 41 42  1  0  0  0  0
 43 44  2  0  0  0  0
 44 45  1  0  0  0  0
M  CHG  4   8  -1   9  -1  11  -1  12  -1
M  END
>  <CHROM.1>
-15.17775344,-175.11368389,96.76541040,13.29977823,97.57377320,-1.08303272
0.68014645,2.00308613

>  <Name>
ligand

>  <RI>
0

>  <Rbt.Current_Directory>
/home/itssahil/PROJECTS/Mol_Feturizer/New_Systems/rnas/4YAZ

>  <Rbt.Executable>
rbdock ($Id: //depot/dev/client3/rdock/2013.1/src/exe/rbdock.cxx#4 $)

>  <Rbt.Library>
libRbt.so (2013.1, Build901 2013/11/27)

>  <Rbt.Parameter_File>
/export/apps/rDock/src/rDock_2013.1_src/data/scripts/dock_solv.prm

>  <Rbt.Receptor>
prm/pocket_docking_2.prm

>  <SCORE>
-45.4746

>  <SCORE.INTER>
-45.5205

>  <SCORE.INTER.CONST>
1

>  <SCORE.INTER.POLAR>
0

>  <SCORE.INTER.ROT>
2

>  <SCORE.INTER.SOLV>
45.5221

>  <SCORE.INTER.VDW>
-50.4544

>  <SCORE.INTER.norm>
-1.01157

>  <SCORE.INTRA>
0.0459318

>  <SCORE.INTRA.DIHEDRAL>
0.0239445

>  <SCORE.INTRA.DIHEDRAL.0>
2.39103

>  <SCORE.INTRA.POLAR>
0

>  <SCORE.INTRA.POLAR.0>
0

>  <SCORE.INTRA.REPUL>
0

>  <SCORE.INTRA.REPUL.0>
0

>  <SCORE.INTRA.SOLV>
0.00112581

>  <SCORE.INTRA.SOLV.lig_0>
-163.975

>  <SCORE.INTRA.VDW>
0.0333966

>  <SCORE.INTRA.VDW.0>
-1.49176

>  <SCORE.INTRA.norm>
0.00102071

>  <SCORE.RESTR>
0

>  <SCORE.RESTR.CAVITY>
0

>  <SCORE.RESTR.norm>
0

>  <SCORE.SYSTEM>
0

>  <SCORE.SYSTEM.CONST>
0

>  <SCORE.SYSTEM.DIHEDRAL>
0

>  <SCORE.SYSTEM.SOLV>
0

>  <SCORE.SYSTEM.norm>
0

>  <SCORE.heavy>
45

>  <SCORE.norm>
-1.01055

>  <RMSD>
0.563

$$$$
ligand
 OpenBabel11021811513D
libRbt.so/2013.1/901 2013/11/27
 45 51  0  0  0  0  0  0  0  0999 V2000
   97.2445   17.0604   97.1961 C   0  0  0  0  0  0  0  0  0  0  0  0
   95.0315   14.4043   94.7298 C   0  0  0  0  0  0  0  0  0  0  0  0
  102.3845   14.9437   98.4223 N   0  0  0  0  0  0  0  0  0  0  0  0
   97.5137   17.2107   98.4524 N   0  0  0  0  0  0  0  0  0  0  0  0
  100.3900   15.6186   97.4108 N   0  0  0  0  0  0  0  0  0  0  0  0
  100.7132   15.9797   99.6870 N   0  0  0  0  0  0  0  0  0  0  0  0
   99.0438   17.0974  101.0053 O   0  0  0  0  0  0  0  0  0  0  0  0
   92.3038   14.9067   96.1027 O   0  5  0  0  0  0  0  0  0  0  0  0
   98.1686   10.5929   93.8467 O   0  5  0  0  0  0  0  0  0  0  0  0
   99.3739   14.6148   93.9550 O   0  0  0  0  0  0  0  0  0  0  0  0
   93.3857   14.6034   98.0238 O   0  5  0  0  0  0  0  0  0  0  0  0
   99.2639   11.7511   95.4136 O   0  5  0  0  0  0  0  0  0  0  0  0
   94.6458   15.0117   95.8972 O   0  0  0  0  0  0  0  0  0  0  0  0
   96.8138   16.2234   94.6599 O   0  0  0  0  0  0  0  0  0  0  0  0
   97.4361   12.8448   94.0128 O   0  0  0  0  0  0  0  0  0  0  0  0
  101.0886   15.5363   98.5129 C   0  0  0  0  0  0  0  0  0  0  0  0
   99.5343   16.5745   99.8102 C   0  0  0  0  0  0  0  0  0  0  0  0
   98.7124   16.6832   98.6659 C   0  0  0  0  0  0  0  0  0  0  0  0
   99.1711   16.2040   97.4636 C   0  0  0  0  0  0  0  0  0  0  0  0
   98.5595   14.8684   95.0378 C   0  0  2  0  0  0  0  0  0  0  0  0
   96.4013   14.7788   94.3285 C   0  0  1  0  0  0  0  0  0  0  0  0
   97.2206   13.9856   94.8353 C   0  0  1  0  0  0  0  0  0  0  0  0
   98.2048   16.1267   95.2212 C   0  0  2  0  0  0  0  0  0  0  0  0
   98.1979   16.4573   96.5877 N   0  0  0  0  0  0  0  0  0  0  0  0
   93.4616   14.3145   96.6346 P   0  0  2  0  0  0  0  0  0  0  0  0
   97.9756   11.6197   94.7782 P   0  0  1  0  0  0  0  0  0  0  0  0
   95.5002   10.9756   95.3075 C   0  0  0  0  0  0  0  0  0  0  0  0
   96.8634   11.0970   95.7445 O   0  0  0  0  0  0  0  0  0  0  0  0
   94.5105   10.8618   96.3891 C   0  0  1  0  0  0  0  0  0  0  0  0
   95.0949    9.8494   97.4920 O   0  0  0  0  0  0  0  0  0  0  0  0
   94.3854   11.9657   96.9769 C   0  0  1  0  0  0  0  0  0  0  0  0
   93.3883   12.8080   96.3540 O   0  0  0  0  0  0  0  0  0  0  0  0
   94.0731   11.5836   98.4159 C   0  0  1  0  0  0  0  0  0  0  0  0
   92.8387   11.3597   98.5492 O   0  0  0  0  0  0  0  0  0  0  0  0
   94.8365   10.2776   98.6364 C   0  0  2  0  0  0  0  0  0  0  0  0
   96.1926   11.0112  103.5412 N   0  0  0  0  0  0  0  0  0  0  0  0
   94.9497   11.1387  103.0068 C   0  0  0  0  0  0  0  0  0  0  0  0
   94.8137   10.8939  101.7091 N   0  0  0  0  0  0  0  0  0  0  0  0
   95.8358   10.5911  100.8805 C   0  0  0  0  0  0  0  0  0  0  0  0
   97.1411   10.4496  101.3984 C   0  0  0  0  0  0  0  0  0  0  0  0
   97.2730   10.6943  102.8026 C   0  0  0  0  0  0  0  0  0  0  0  0
   98.5603   10.5968  103.4086 N   0  0  0  0  0  0  0  0  0  0  0  0
   97.8953   10.1199  100.4093 N   0  0  0  0  0  0  0  0  0  0  0  0
   97.1532   10.0236   99.3198 C   0  0  0  0  0  0  0  0  0  0  0  0
   95.9279   10.3189   99.5707 N   0  0  0  0  0  0  0  0  0  0  0  0
  1 24  1  0  0  0  0
  1  4  2  0  0  0  0
  2 13  1  0  0  0  0
  2 21  1  0  0  0  0
  3 16  1  0  0  0  0
  4 18  1  0  0  0  0
  5 19  2  0  0  0  0
  5 16  1  0  0  0  0
  6 16  2  0  0  0  0
  6 17  1  0  0  0  0
  7 17  1  0  0  0  0
 11 25  2  0  0  0  0
 12 26  2  0  0  0  0
 13 25  1  0  0  0  0
 14 23  1  0  0  0  0
 15 26  1  0  0  0  0
 17 18  2  0  0  0  0
 18 19  1  0  0  0  0
 19 24  1  0  0  0  0
 20 10  1  6  0  0  0
 20 22  1  0  0  0  0
 20 23  1  0  0  0  0
 21 14  1  1  0  0  0
 21 22  1  0  0  0  0
 22 15  1  6  0  0  0
 23 24  1  1  0  0  0
 25  8  1  6  0  0  0
 25 32  1  0  0  0  0
 26  9  1  6  0  0  0
 26 28  1  0  0  0  0
 27 28  1  0  0  0  0
 29 27  1  6  0  0  0
 29 30  1  0  0  0  0
 29 31  1  0  0  0  0
 30 35  1  0  0  0  0
 31 33  1  0  0  0  0
 31 32  1  6  0  0  0
 33 34  1  6  0  0  0
 33 35  1  0  0  0  0
 35 45  1  1  0  0  0
 36 41  2  0  0  0  0
 36 37  1  0  0  0  0
 37 38  2  0  0  0  0
 38 39  1  0  0  0  0
 39 40  2  0  0  0  0
 39 45  1  0  0  0  0
 40 41  1  0  0  0  0
 40 43  1  0  0  0  0
 41 42  1  0  0  0  0
 43 44  2  0  0  0  0
 44 45  1  0  0  0  0
M  CHG  4   8  -1   9  -1  11  -1  12  -1
M  END
>  <CHROM.1>
-15.80126478,-171.64299362,96.76736226,13.23993959,97.57824996,-1.09907400
0.67224447,2.00330168

>  <Name>
ligand

>  <RI>
0

>  <Rbt.Current_Directory>
/home/itssahil/PROJECTS/Mol_Feturizer/New_Systems/rnas/4YAZ

>  <Rbt.Executable>
rbdock ($Id: //depot/dev/client3/rdock/2013.1/src/exe/rbdock.cxx#4 $)

>  <Rbt.Library>
libRbt.so (2013.1, Build901 2013/11/27)

>  <Rbt.Parameter_File>
/export/apps/rDock/src/rDock_2013.1_src/data/scripts/dock_solv.prm

>  <Rbt.Receptor>
prm/pocket_docking_2.prm

>  <SCORE>
-45.3748

>  <SCORE.INTER>
-45.4276

>  <SCORE.INTER.CONST>
1

>  <SCORE.INTER.POLAR>
0

>  <SCORE.INTER.ROT>
2

>  <SCORE.INTER.SOLV>
45.3664

>  <SCORE.INTER.VDW>
-50.3406

>  <SCORE.INTER.norm>
-1.0095

>  <SCORE.INTRA>
0.052876

>  <SCORE.INTRA.DIHEDRAL>
0.0479913

>  <SCORE.INTRA.DIHEDRAL.0>
2.39103

>  <SCORE.INTRA.POLAR>
0

>  <SCORE.INTRA.POLAR.0>
0

>  <SCORE.INTRA.REPUL>
0

>  <SCORE.INTRA.REPUL.0>
0

>  <SCORE.INTRA.SOLV>
-0.00301331

>  <SCORE.INTRA.SOLV.lig_0>
-163.975

>  <SCORE.INTRA.VDW>
0.030387

>  <SCORE.INTRA.VDW.0>
-1.49176

>  <SCORE.INTRA.norm>
0.00117502

>  <SCORE.RESTR>
0

>  <SCORE.RESTR.CAVITY>
0

>  <SCORE.RESTR.norm>
0

>  <SCORE.SYSTEM>
0

>  <SCORE.SYSTEM.CONST>
0

>  <SCORE.SYSTEM.DIHEDRAL>
0

>  <SCORE.SYSTEM.SOLV>
0

>  <SCORE.SYSTEM.norm>
0

>  <SCORE.heavy>
45

>  <SCORE.norm>
-1.00833

>  <RMSD>
0.564

$$$$
ligand
 OpenBabel11021811513D
libRbt.so/2013.1/901 2013/11/27
 45 51  0  0  0  0  0  0  0  0999 V2000
   97.3955   16.9854   97.3381 C   0  0  0  0  0  0  0  0  0  0  0  0
   95.0770   14.4700   94.8394 C   0  0  0  0  0  0  0  0  0  0  0  0
  102.5203   14.7608   98.4296 N   0  0  0  0  0  0  0  0  0  0  0  0
   97.6877   17.1026   98.5927 N   0  0  0  0  0  0  0  0  0  0  0  0
  100.5206   15.4899   97.4672 N   0  0  0  0  0  0  0  0  0  0  0  0
  100.8868   15.7935   99.7453 N   0  0  0  0  0  0  0  0  0  0  0  0
   99.2574   16.9068  101.1164 O   0  0  0  0  0  0  0  0  0  0  0  0
   92.3839   15.0243   96.2597 O   0  5  0  0  0  0  0  0  0  0  0  0
   98.0829   10.5853   93.8284 O   0  5  0  0  0  0  0  0  0  0  0  0
   99.4136   14.5647   94.0111 O   0  0  0  0  0  0  0  0  0  0  0  0
   93.4804   14.6439   98.1588 O   0  5  0  0  0  0  0  0  0  0  0  0
   99.2335   11.6730   95.4060 O   0  5  0  0  0  0  0  0  0  0  0  0
   94.7253   15.0621   96.0252 O   0  0  0  0  0  0  0  0  0  0  0  0
   96.9139   16.2346   94.7865 O   0  0  0  0  0  0  0  0  0  0  0  0
   97.4228   12.8542   94.0551 O   0  0  0  0  0  0  0  0  0  0  0  0
  101.2357   15.3714   98.5553 C   0  0  0  0  0  0  0  0  0  0  0  0
   99.7198   16.4038   99.9017 C   0  0  0  0  0  0  0  0  0  0  0  0
   98.8811   16.5516   98.7741 C   0  0  0  0  0  0  0  0  0  0  0  0
   99.3122   16.0930   97.5537 C   0  0  0  0  0  0  0  0  0  0  0  0
   98.6214   14.8183   95.1102 C   0  0  2  0  0  0  0  0  0  0  0  0
   96.4526   14.8114   94.4281 C   0  0  1  0  0  0  0  0  0  0  0  0
   97.2532   13.9819   94.9058 C   0  0  1  0  0  0  0  0  0  0  0  0
   98.3083   16.0824   95.3266 C   0  0  2  0  0  0  0  0  0  0  0  0
   98.3290   16.3816   96.7002 N   0  0  0  0  0  0  0  0  0  0  0  0
   93.5295   14.3848   96.7625 P   0  0  2  0  0  0  0  0  0  0  0  0
   97.9337   11.5959   94.7853 P   0  0  1  0  0  0  0  0  0  0  0  0
   95.4465   11.0162   95.3332 C   0  0  0  0  0  0  0  0  0  0  0  0
   96.8182   11.0855   95.7545 O   0  0  0  0  0  0  0  0  0  0  0  0
   94.4676   10.9081   96.4252 C   0  0  1  0  0  0  0  0  0  0  0  0
   95.0344    9.8531   97.4970 O   0  0  0  0  0  0  0  0  0  0  0  0
   94.3843   12.0015   97.0394 C   0  0  1  0  0  0  0  0  0  0  0  0
   93.4060   12.8881   96.4491 O   0  0  0  0  0  0  0  0  0  0  0  0
   94.0787   11.5963   98.4734 C   0  0  1  0  0  0  0  0  0  0  0  0
   92.8397   11.4074   98.6182 O   0  0  0  0  0  0  0  0  0  0  0  0
   94.8040   10.2627   98.6542 C   0  0  2  0  0  0  0  0  0  0  0  0
   96.2781   11.0378  103.5183 N   0  0  0  0  0  0  0  0  0  0  0  0
   95.0412   11.2433  102.9943 C   0  0  0  0  0  0  0  0  0  0  0  0
   94.8696   10.9708  101.7064 N   0  0  0  0  0  0  0  0  0  0  0  0
   95.8545   10.5665  100.8761 C   0  0  0  0  0  0  0  0  0  0  0  0
   97.1523   10.3419  101.3833 C   0  0  0  0  0  0  0  0  0  0  0  0
   97.3214   10.6178  102.7778 C   0  0  0  0  0  0  0  0  0  0  0  0
   98.6058   10.4411  103.3719 N   0  0  0  0  0  0  0  0  0  0  0  0
   97.8659    9.9264  100.3965 N   0  0  0  0  0  0  0  0  0  0  0  0
   97.1039    9.8541   99.3189 C   0  0  0  0  0  0  0  0  0  0  0  0
   95.9080   10.2489   99.5744 N   0  0  0  0  0  0  0  0  0  0  0  0
  1 24  1  0  0  0  0
  1  4  2  0  0  0  0
  2 13  1  0  0  0  0
  2 21  1  0  0  0  0
  3 16  1  0  0  0  0
  4 18  1  0  0  0  0
  5 19  2  0  0  0  0
  5 16  1  0  0  0  0
  6 16  2  0  0  0  0
  6 17  1  0  0  0  0
  7 17  1  0  0  0  0
 11 25  2  0  0  0  0
 12 26  2  0  0  0  0
 13 25  1  0  0  0  0
 14 23  1  0  0  0  0
 15 26  1  0  0  0  0
 17 18  2  0  0  0  0
 18 19  1  0  0  0  0
 19 24  1  0  0  0  0
 20 10  1  6  0  0  0
 20 22  1  0  0  0  0
 20 23  1  0  0  0  0
 21 14  1  1  0  0  0
 21 22  1  0  0  0  0
 22 15  1  6  0  0  0
 23 24  1  1  0  0  0
 25  8  1  6  0  0  0
 25 32  1  0  0  0  0
 26  9  1  6  0  0  0
 26 28  1  0  0  0  0
 27 28  1  0  0  0  0
 29 27  1  6  0  0  0
 29 30  1  0  0  0  0
 29 31  1  0  0  0  0
 30 35  1  0  0  0  0
 31 33  1  0  0  0  0
 31 32  1  6  0  0  0
 33 34  1  6  0  0  0
 33 35  1  0  0  0  0
 35 45  1  1  0  0  0
 36 41  2  0  0  0  0
 36 37  1  0  0  0  0
 37 38  2  0  0  0  0
 38 39  1  0  0  0  0
 39 40  2  0  0  0  0
 39 45  1  0  0  0  0
 40 41  1  0  0  0  0
 40 43  1  0  0  0  0
 41 42  1  0  0  0  0
 43 44  2  0  0  0  0
 44 45  1  0  0  0  0
M  CHG  4   8  -1   9  -1  11  -1  12  -1
M  END
>  <CHROM.1>
-14.91883285,-175.63386492,96.81659691,13.20729449,97.63362925,-1.07368103
0.64339013,2.01166315

>  <Name>
ligand

>  <RI>
0

>  <Rbt.Current_Directory>
/home/itssahil/PROJECTS/Mol_Feturizer/New_Systems/rnas/4YAZ

>  <Rbt.Executable>
rbdock ($Id: //depot/dev/client3/rdock/2013.1/src/exe/rbdock.cxx#4 $)

>  <Rbt.Library>
libRbt.so (2013.1, Build901 2013/11/27)

>  <Rbt.Parameter_File>
/export/apps/rDock/src/rDock_2013.1_src/data/scripts/dock_solv.prm

>  <Rbt.Receptor>
prm/pocket_docking_5.prm

>  <SCORE>
-45.5835

>  <SCORE.INTER>
-45.6246

>  <SCORE.INTER.CONST>
1

>  <SCORE.INTER.POLAR>
0

>  <SCORE.INTER.ROT>
2

>  <SCORE.INTER.SOLV>
46.848

>  <SCORE.INTER.VDW>
-50.9657

>  <SCORE.INTER.norm>
-1.01388

>  <SCORE.INTRA>
0.0410966

>  <SCORE.INTRA.DIHEDRAL>
0.020301

>  <SCORE.INTRA.DIHEDRAL.0>
2.39103

>  <SCORE.INTRA.POLAR>
0

>  <SCORE.INTRA.POLAR.0>
0

>  <SCORE.INTRA.REPUL>
0

>  <SCORE.INTRA.REPUL.0>
0

>  <SCORE.INTRA.SOLV>
0.0014892

>  <SCORE.INTRA.SOLV.lig_0>
-163.975

>  <SCORE.INTRA.VDW>
0.0302015

>  <SCORE.INTRA.VDW.0>
-1.49176

>  <SCORE.INTRA.norm>
0.000913257

>  <SCORE.RESTR>
0

>  <SCORE.RESTR.CAVITY>
0

>  <SCORE.RESTR.norm>
0

>  <SCORE.SYSTEM>
0

>  <SCORE.SYSTEM.CONST>
0

>  <SCORE.SYSTEM.DIHEDRAL>
0

>  <SCORE.SYSTEM.SOLV>
0

>  <SCORE.SYSTEM.norm>
0

>  <SCORE.heavy>
45

>  <SCORE.norm>
-1.01297

>  <RMSD>
0.564

$$$$
ligand
 OpenBabel11021811513D
libRbt.so/2013.1/901 2013/11/27
 45 51  0  0  0  0  0  0  0  0999 V2000
   97.2242   17.1075   97.2342 C   0  0  0  0  0  0  0  0  0  0  0  0
   95.0297   14.4669   94.7424 C   0  0  0  0  0  0  0  0  0  0  0  0
  102.3923   15.0437   98.4322 N   0  0  0  0  0  0  0  0  0  0  0  0
   97.4938   17.2495   98.4914 N   0  0  0  0  0  0  0  0  0  0  0  0
  100.3878   15.7030   97.4303 N   0  0  0  0  0  0  0  0  0  0  0  0
  100.7106   16.0470   99.7091 N   0  0  0  0  0  0  0  0  0  0  0  0
   99.0298   17.1317  101.0406 O   0  0  0  0  0  0  0  0  0  0  0  0
   92.2993   14.9399   96.1203 O   0  5  0  0  0  0  0  0  0  0  0  0
   98.1899   10.6832   93.8233 O   0  5  0  0  0  0  0  0  0  0  0  0
   99.3705   14.7112   93.9687 O   0  0  0  0  0  0  0  0  0  0  0  0
   93.3836   14.6253   98.0384 O   0  5  0  0  0  0  0  0  0  0  0  0
   99.2785   11.8334   95.4006 O   0  5  0  0  0  0  0  0  0  0  0  0
   94.6406   15.0611   95.9154 O   0  0  0  0  0  0  0  0  0  0  0  0
   96.8009   16.2974   94.6890 O   0  0  0  0  0  0  0  0  0  0  0  0
   97.4437   12.9289   94.0104 O   0  0  0  0  0  0  0  0  0  0  0  0
  101.0893   15.6192   98.5304 C   0  0  0  0  0  0  0  0  0  0  0  0
   99.5246   16.6260   99.8399 C   0  0  0  0  0  0  0  0  0  0  0  0
   98.6993   16.7350   98.6979 C   0  0  0  0  0  0  0  0  0  0  0  0
   99.1618   16.2727   97.4905 C   0  0  0  0  0  0  0  0  0  0  0  0
   98.5549   14.9498   95.0540 C   0  0  2  0  0  0  0  0  0  0  0  0
   96.3971   14.8535   94.3443 C   0  0  1  0  0  0  0  0  0  0  0  0
   97.2214   14.0606   94.8435 C   0  0  1  0  0  0  0  0  0  0  0  0
   98.1926   16.2041   95.2491 C   0  0  2  0  0  0  0  0  0  0  0  0
   98.1840   16.5219   96.6186 N   0  0  0  0  0  0  0  0  0  0  0  0
   93.4608   14.3499   96.6465 P   0  0  2  0  0  0  0  0  0  0  0  0
   97.9908   11.7001   94.7643 P   0  0  1  0  0  0  0  0  0  0  0  0
   95.5196   11.0360   95.2880 C   0  0  0  0  0  0  0  0  0  0  0  0
   96.8820   11.1616   95.7259 O   0  0  0  0  0  0  0  0  0  0  0  0
   94.5308   10.9061   96.3687 C   0  0  1  0  0  0  0  0  0  0  0  0
   95.1217    9.8871   97.4621 O   0  0  0  0  0  0  0  0  0  0  0  0
   94.3991   12.0036   96.9669 C   0  0  1  0  0  0  0  0  0  0  0  0
   93.3968   12.8456   96.3520 O   0  0  0  0  0  0  0  0  0  0  0  0
   94.0896   11.6063   98.4022 C   0  0  1  0  0  0  0  0  0  0  0  0
   92.8565   11.3736   98.5337 O   0  0  0  0  0  0  0  0  0  0  0  0
   94.8609   10.3030   98.6105 C   0  0  2  0  0  0  0  0  0  0  0  0
   96.2391   11.1874  103.4842 N   0  0  0  0  0  0  0  0  0  0  0  0
   95.0022   11.3388  102.9420 C   0  0  0  0  0  0  0  0  0  0  0  0
   94.8584   11.0459  101.6551 N   0  0  0  0  0  0  0  0  0  0  0  0
   95.8693   10.6715  100.8422 C   0  0  0  0  0  0  0  0  0  0  0  0
   97.1680   10.5031  101.3685 C   0  0  0  0  0  0  0  0  0  0  0  0
   97.3076   10.8005  102.7618 C   0  0  0  0  0  0  0  0  0  0  0  0
   98.5899   10.6804  103.3744 N   0  0  0  0  0  0  0  0  0  0  0  0
   97.9102   10.1052  100.3957 N   0  0  0  0  0  0  0  0  0  0  0  0
   97.1660    9.9916   99.3093 C   0  0  0  0  0  0  0  0  0  0  0  0
   95.9523   10.3423   99.5450 N   0  0  0  0  0  0  0  0  0  0  0  0
  1 24  1  0  0  0  0
  1  4  2  0  0  0  0
  2 13  1  0  0  0  0
  2 21  1  0  0  0  0
  3 16  1  0  0  0  0
  4 18  1  0  0  0  0
  5 19  2  0  0  0  0
  5 16  1  0  0  0  0
  6 16  2  0  0  0  0
  6 17  1  0  0  0  0
  7 17  1  0  0  0  0
 11 25  2  0  0  0  0
 12 26  2  0  0  0  0
 13 25  1  0  0  0  0
 14 23  1  0  0  0  0
 15 26  1  0  0  0  0
 17 18  2  0  0  0  0
 18 19  1  0  0  0  0
 19 24  1  0  0  0  0
 20 10  1  6  0  0  0
 20 22  1  0  0  0  0
 20 23  1  0  0  0  0
 21 14  1  1  0  0  0
 21 22  1  0  0  0  0
 22 15  1  6  0  0  0
 23 24  1  1  0  0  0
 25  8  1  6  0  0  0
 25 32  1  0  0  0  0
 26  9  1  6  0  0  0
 26 28  1  0  0  0  0
 27 28  1  0  0  0  0
 29 27  1  6  0  0  0
 29 30  1  0  0  0  0
 29 31  1  0  0  0  0
 30 35  1  0  0  0  0
 31 33  1  0  0  0  0
 31 32  1  6  0  0  0
 33 34  1  6  0  0  0
 33 35  1  0  0  0  0
 35 45  1  1  0  0  0
 36 41  2  0  0  0  0
 36 37  1  0  0  0  0
 37 38  2  0  0  0  0
 38 39  1  0  0  0  0
 39 40  2  0  0  0  0
 39 45  1  0  0  0  0
 40 41  1  0  0  0  0
 40 43  1  0  0  0  0
 41 42  1  0  0  0  0
 43 44  2  0  0  0  0
 44 45  1  0  0  0  0
M  CHG  4   8  -1   9  -1  11  -1  12  -1
M  END
>  <CHROM.1>
-15.42890296,-175.45429029,96.77595332,13.30324358,97.57648815,-1.08714652
0.68137696,2.00223836

>  <Name>
ligand

>  <RI>
0

>  <Rbt.Current_Directory>
/home/itssahil/PROJECTS/Mol_Feturizer/New_Systems/rnas/4YAZ

>  <Rbt.Executable>
rbdock ($Id: //depot/dev/client3/rdock/2013.1/src/exe/rbdock.cxx#4 $)

>  <Rbt.Library>
libRbt.so (2013.1, Build901 2013/11/27)

>  <Rbt.Parameter_File>
/export/apps/rDock/src/rDock_2013.1_src/data/scripts/dock_solv.prm

>  <Rbt.Receptor>
prm/pocket_docking_2.prm

>  <SCORE>
-45.4022

>  <SCORE.INTER>
-45.4547

>  <SCORE.INTER.CONST>
1

>  <SCORE.INTER.POLAR>
0

>  <SCORE.INTER.ROT>
2

>  <SCORE.INTER.SOLV>
45.689

>  <SCORE.INTER.VDW>
-50.4661

>  <SCORE.INTER.norm>
-1.0101

>  <SCORE.INTRA>
0.0524382

>  <SCORE.INTRA.DIHEDRAL>
0.0214758

>  <SCORE.INTRA.DIHEDRAL.0>
2.39103

>  <SCORE.INTRA.POLAR>
0

>  <SCORE.INTRA.POLAR.0>
0

>  <SCORE.INTRA.REPUL>
0

>  <SCORE.INTRA.REPUL.0>
0

>  <SCORE.INTRA.SOLV>
0.00192674

>  <SCORE.INTRA.SOLV.lig_0>
-163.975

>  <SCORE.INTRA.VDW>
0.040737

>  <SCORE.INTRA.VDW.0>
-1.49176

>  <SCORE.INTRA.norm>
0.00116529

>  <SCORE.RESTR>
0

>  <SCORE.RESTR.CAVITY>
0

>  <SCORE.RESTR.norm>
0

>  <SCORE.SYSTEM>
0

>  <SCORE.SYSTEM.CONST>
0

>  <SCORE.SYSTEM.DIHEDRAL>
0

>  <SCORE.SYSTEM.SOLV>
0

>  <SCORE.SYSTEM.norm>
0

>  <SCORE.heavy>
45

>  <SCORE.norm>
-1.00894

>  <RMSD>
0.567

$$$$
ligand
 OpenBabel11021811513D
libRbt.so/2013.1/901 2013/11/27
 45 51  0  0  0  0  0  0  0  0999 V2000
   97.2116   17.1072   97.2299 C   0  0  0  0  0  0  0  0  0  0  0  0
   95.0206   14.4687   94.7354 C   0  0  0  0  0  0  0  0  0  0  0  0
  102.3775   15.0473   98.4434 N   0  0  0  0  0  0  0  0  0  0  0  0
   97.4781   17.2513   98.4875 N   0  0  0  0  0  0  0  0  0  0  0  0
  100.3752   15.7043   97.4357 N   0  0  0  0  0  0  0  0  0  0  0  0
  100.6924   16.0520   99.7148 N   0  0  0  0  0  0  0  0  0  0  0  0
   99.0080   17.1381  101.0405 O   0  0  0  0  0  0  0  0  0  0  0  0
   92.2871   14.9484   96.1047 O   0  5  0  0  0  0  0  0  0  0  0  0
   98.1769   10.6781   93.8312 O   0  5  0  0  0  0  0  0  0  0  0  0
   99.3640   14.7042   93.9738 O   0  0  0  0  0  0  0  0  0  0  0  0
   93.3653   14.6350   98.0264 O   0  5  0  0  0  0  0  0  0  0  0  0
   99.2629   11.8289   95.4099 O   0  5  0  0  0  0  0  0  0  0  0  0
   94.6291   15.0654   95.9063 O   0  0  0  0  0  0  0  0  0  0  0  0
   96.7951   16.2961   94.6843 O   0  0  0  0  0  0  0  0  0  0  0  0
   97.4340   12.9254   94.0128 O   0  0  0  0  0  0  0  0  0  0  0  0
  101.0741   15.6225   98.5376 C   0  0  0  0  0  0  0  0  0  0  0  0
   99.5059   16.6307   99.8418 C   0  0  0  0  0  0  0  0  0  0  0  0
   98.6833   16.7376   98.6977 C   0  0  0  0  0  0  0  0  0  0  0  0
   99.1488   16.2736   97.4921 C   0  0  0  0  0  0  0  0  0  0  0  0
   98.5457   14.9459   95.0564 C   0  0  2  0  0  0  0  0  0  0  0  0
   96.3898   14.8523   94.3406 C   0  0  1  0  0  0  0  0  0  0  0  0
   97.2113   14.0588   94.8434 C   0  0  1  0  0  0  0  0  0  0  0  0
   98.1850   16.2011   95.2485 C   0  0  2  0  0  0  0  0  0  0  0  0
   98.1730   16.5211   96.6176 N   0  0  0  0  0  0  0  0  0  0  0  0
   93.4461   14.3573   96.6352 P   0  0  2  0  0  0  0  0  0  0  0  0
   97.9768   11.6967   94.7701 P   0  0  1  0  0  0  0  0  0  0  0  0
   95.5030   11.0377   95.2877 C   0  0  0  0  0  0  0  0  0  0  0  0
   96.8644   11.1617   95.7293 O   0  0  0  0  0  0  0  0  0  0  0  0
   94.5109   10.9112   96.3657 C   0  0  1  0  0  0  0  0  0  0  0  0
   95.0969    9.8928   97.4624 O   0  0  0  0  0  0  0  0  0  0  0  0
   94.3793   12.0099   96.9618 C   0  0  1  0  0  0  0  0  0  0  0  0
   93.3802   12.8526   96.3428 O   0  0  0  0  0  0  0  0  0  0  0  0
   94.0650   11.6154   98.3969 C   0  0  1  0  0  0  0  0  0  0  0  0
   92.8312   11.3850   98.5251 O   0  0  0  0  0  0  0  0  0  0  0  0
   94.8335   10.3110   98.6093 C   0  0  2  0  0  0  0  0  0  0  0  0
   96.2059   11.2414  103.4761 N   0  0  0  0  0  0  0  0  0  0  0  0
   94.9725   11.3998  102.9279 C   0  0  0  0  0  0  0  0  0  0  0  0
   94.8296   11.0924  101.6444 N   0  0  0  0  0  0  0  0  0  0  0  0
   95.8388   10.6963  100.8396 C   0  0  0  0  0  0  0  0  0  0  0  0
   97.1338   10.5201  101.3724 C   0  0  0  0  0  0  0  0  0  0  0  0
   97.2723   10.8335  102.7623 C   0  0  0  0  0  0  0  0  0  0  0  0
   98.5512   10.7067  103.3806 N   0  0  0  0  0  0  0  0  0  0  0  0
   97.8746   10.1016  100.4071 N   0  0  0  0  0  0  0  0  0  0  0  0
   97.1327    9.9827   99.3198 C   0  0  0  0  0  0  0  0  0  0  0  0
   95.9223   10.3498   99.5469 N   0  0  0  0  0  0  0  0  0  0  0  0
  1 24  1  0  0  0  0
  1  4  2  0  0  0  0
  2 13  1  0  0  0  0
  2 21  1  0  0  0  0
  3 16  1  0  0  0  0
  4 18  1  0  0  0  0
  5 19  2  0  0  0  0
  5 16  1  0  0  0  0
  6 16  2  0  0  0  0
  6 17  1  0  0  0  0
  7 17  1  0  0  0  0
 11 25  2  0  0  0  0
 12 26  2  0  0  0  0
 13 25  1  0  0  0  0
 14 23  1  0  0  0  0
 15 26  1  0  0  0  0
 17 18  2  0  0  0  0
 18 19  1  0  0  0  0
 19 24  1  0  0  0  0
 20 10  1  6  0  0  0
 20 22  1  0  0  0  0
 20 23  1  0  0  0  0
 21 14  1  1  0  0  0
 21 22  1  0  0  0  0
 22 15  1  6  0  0  0
 23 24  1  1  0  0  0
 25  8  1  6  0  0  0
 25 32  1  0  0  0  0
 26  9  1  6  0  0  0
 26 28  1  0  0  0  0
 27 28  1  0  0  0  0
 29 27  1  6  0  0  0
 29 30  1  0  0  0  0
 29 31  1  0  0  0  0
 30 35  1  0  0  0  0
 31 33  1  0  0  0  0
 31 32  1  6  0  0  0
 33 34  1  6  0  0  0
 33 35  1  0  0  0  0
 35 45  1  1  0  0  0
 36 41  2  0  0  0  0
 36 37  1  0  0  0  0
 37 38  2  0  0  0  0
 38 39  1  0  0  0  0
 39 40  2  0  0  0  0
 39 45  1  0  0  0  0
 40 41  1  0  0  0  0
 40 43  1  0  0  0  0
 41 42  1  0  0  0  0
 43 44  2  0  0  0  0
 44 45  1  0  0  0  0
M  CHG  4   8  -1   9  -1  11  -1  12  -1
M  END
>  <CHROM.1>
-15.30495248,-176.29183979,96.75741566,13.31013804,97.57546514,-1.07846839
0.68188818,1.99535294

>  <Name>
ligand

>  <RI>
0

>  <Rbt.Current_Directory>
/home/itssahil/PROJECTS/Mol_Feturizer/New_Systems/rnas/4YAZ

>  <Rbt.Executable>
rbdock ($Id: //depot/dev/client3/rdock/2013.1/src/exe/rbdock.cxx#4 $)

>  <Rbt.Library>
libRbt.so (2013.1, Build901 2013/11/27)

>  <Rbt.Parameter_File>
/export/apps/rDock/src/rDock_2013.1_src/data/scripts/dock_solv.prm

>  <Rbt.Receptor>
prm/pocket_docking_2.prm

>  <SCORE>
-45.4433

>  <SCORE.INTER>
-45.4946

>  <SCORE.INTER.CONST>
1

>  <SCORE.INTER.POLAR>
0

>  <SCORE.INTER.ROT>
2

>  <SCORE.INTER.SOLV>
45.4144

>  <SCORE.INTER.VDW>
-50.4012

>  <SCORE.INTER.norm>
-1.01099

>  <SCORE.INTRA>
0.0513382

>  <SCORE.INTRA.DIHEDRAL>
0.0155325

>  <SCORE.INTRA.DIHEDRAL.0>
2.39103

>  <SCORE.INTRA.POLAR>
0

>  <SCORE.INTRA.POLAR.0>
0

>  <SCORE.INTRA.REPUL>
0

>  <SCORE.INTRA.REPUL.0>
0

>  <SCORE.INTRA.SOLV>
0.00289258

>  <SCORE.INTRA.SOLV.lig_0>
-163.975

>  <SCORE.INTRA.VDW>
0.0421257

>  <SCORE.INTRA.VDW.0>
-1.49176

>  <SCORE.INTRA.norm>
0.00114085

>  <SCORE.RESTR>
0

>  <SCORE.RESTR.CAVITY>
0

>  <SCORE.RESTR.norm>
0

>  <SCORE.SYSTEM>
0

>  <SCORE.SYSTEM.CONST>
0

>  <SCORE.SYSTEM.DIHEDRAL>
0

>  <SCORE.SYSTEM.SOLV>
0

>  <SCORE.SYSTEM.norm>
0

>  <SCORE.heavy>
45

>  <SCORE.norm>
-1.00985

>  <RMSD>
0.568

$$$$
ligand
 OpenBabel11021811513D
libRbt.so/2013.1/901 2013/11/27
 45 51  0  0  0  0  0  0  0  0999 V2000
   97.3876   17.0439   97.3092 C   0  0  0  0  0  0  0  0  0  0  0  0
   95.0883   14.4307   94.8173 C   0  0  0  0  0  0  0  0  0  0  0  0
  102.3602   14.5596   98.5359 N   0  0  0  0  0  0  0  0  0  0  0  0
   97.6561   17.1547   98.5697 N   0  0  0  0  0  0  0  0  0  0  0  0
  100.4251   15.3863   97.5218 N   0  0  0  0  0  0  0  0  0  0  0  0
  100.7534   15.6869   99.8060 N   0  0  0  0  0  0  0  0  0  0  0  0
   99.1536   16.8947  101.1312 O   0  0  0  0  0  0  0  0  0  0  0  0
   92.3760   14.9660   96.2083 O   0  5  0  0  0  0  0  0  0  0  0  0
   98.1433   10.5709   93.8594 O   0  5  0  0  0  0  0  0  0  0  0  0
   99.4314   14.5649   94.0302 O   0  0  0  0  0  0  0  0  0  0  0  0
   93.4579   14.6084   98.1201 O   0  5  0  0  0  0  0  0  0  0  0  0
   99.2674   11.6800   95.4413 O   0  5  0  0  0  0  0  0  0  0  0  0
   94.7190   15.0263   95.9960 O   0  0  0  0  0  0  0  0  0  0  0  0
   96.9074   16.2137   94.7711 O   0  0  0  0  0  0  0  0  0  0  0  0
   97.4579   12.8344   94.0656 O   0  0  0  0  0  0  0  0  0  0  0  0
  101.1072   15.2382   98.6273 C   0  0  0  0  0  0  0  0  0  0  0  0
   99.6171   16.3591   99.9309 C   0  0  0  0  0  0  0  0  0  0  0  0
   98.8139   16.5427   98.7827 C   0  0  0  0  0  0  0  0  0  0  0  0
   99.2487   16.0530   97.5758 C   0  0  0  0  0  0  0  0  0  0  0  0
   98.6261   14.8170   95.1200 C   0  0  2  0  0  0  0  0  0  0  0  0
   96.4642   14.7837   94.4172 C   0  0  1  0  0  0  0  0  0  0  0  0
   97.2686   13.9654   94.9077 C   0  0  1  0  0  0  0  0  0  0  0  0
   98.2980   16.0791   95.3256 C   0  0  2  0  0  0  0  0  0  0  0  0
   98.3024   16.3869   96.6975 N   0  0  0  0  0  0  0  0  0  0  0  0
   93.5231   14.3414   96.7260 P   0  0  2  0  0  0  0  0  0  0  0  0
   97.9745   11.5858   94.8086 P   0  0  1  0  0  0  0  0  0  0  0  0
   95.4882   10.9839   95.3361 C   0  0  0  0  0  0  0  0  0  0  0  0
   96.8550   11.0699   95.7701 O   0  0  0  0  0  0  0  0  0  0  0  0
   94.4999   10.8724   96.4192 C   0  0  1  0  0  0  0  0  0  0  0  0
   95.0670    9.8299   97.5030 O   0  0  0  0  0  0  0  0  0  0  0  0
   94.3995   11.9686   97.0259 C   0  0  1  0  0  0  0  0  0  0  0  0
   93.4180   12.8415   96.4207 O   0  0  0  0  0  0  0  0  0  0  0  0
   94.0843   11.5691   98.4594 C   0  0  1  0  0  0  0  0  0  0  0  0
   92.8459   11.3683   98.5934 O   0  0  0  0  0  0  0  0  0  0  0  0
   94.8213   10.2442   98.6553 C   0  0  2  0  0  0  0  0  0  0  0  0
   96.2485   11.1067  103.5188 N   0  0  0  0  0  0  0  0  0  0  0  0
   95.0166   11.3023  102.9793 C   0  0  0  0  0  0  0  0  0  0  0  0
   94.8574   11.0067  101.6949 N   0  0  0  0  0  0  0  0  0  0  0  0
   95.8504   10.5881  100.8814 C   0  0  0  0  0  0  0  0  0  0  0  0
   97.1433   10.3732  101.4050 C   0  0  0  0  0  0  0  0  0  0  0  0
   97.2989   10.6741  102.7959 C   0  0  0  0  0  0  0  0  0  0  0  0
   98.5776   10.5086  103.4054 N   0  0  0  0  0  0  0  0  0  0  0  0
   97.8665    9.9405  100.4326 N   0  0  0  0  0  0  0  0  0  0  0  0
   97.1149    9.8486   99.3493 C   0  0  0  0  0  0  0  0  0  0  0  0
   95.9164   10.2474   99.5862 N   0  0  0  0  0  0  0  0  0  0  0  0
  1 24  1  0  0  0  0
  1  4  2  0  0  0  0
  2 13  1  0  0  0  0
  2 21  1  0  0  0  0
  3 16  1  0  0  0  0
  4 18  1  0  0  0  0
  5 19  2  0  0  0  0
  5 16  1  0  0  0  0
  6 16  2  0  0  0  0
  6 17  1  0  0  0  0
  7 17  1  0  0  0  0
 11 25  2  0  0  0  0
 12 26  2  0  0  0  0
 13 25  1  0  0  0  0
 14 23  1  0  0  0  0
 15 26  1  0  0  0  0
 17 18  2  0  0  0  0
 18 19  1  0  0  0  0
 19 24  1  0  0  0  0
 20 10  1  6  0  0  0
 20 22  1  0  0  0  0
 20 23  1  0  0  0  0
 21 14  1  1  0  0  0
 21 22  1  0  0  0  0
 22 15  1  6  0  0  0
 23 24  1  1  0  0  0
 25  8  1  6  0  0  0
 25 32  1  0  0  0  0
 26  9  1  6  0  0  0
 26 28  1  0  0  0  0
 27 28  1  0  0  0  0
 29 27  1  6  0  0  0
 29 30  1  0  0  0  0
 29 31  1  0  0  0  0
 30 35  1  0  0  0  0
 31 33  1  0  0  0  0
 31 32  1  6  0  0  0
 33 34  1  6  0  0  0
 33 35  1  0  0  0  0
 35 45  1  1  0  0  0
 36 41  2  0  0  0  0
 36 37  1  0  0  0  0
 37 38  2  0  0  0  0
 38 39  1  0  0  0  0
 39 40  2  0  0  0  0
 39 45  1  0  0  0  0
 40 41  1  0  0  0  0
 40 43  1  0  0  0  0
 41 42  1  0  0  0  0
 43 44  2  0  0  0  0
 44 45  1  0  0  0  0
M  CHG  4   8  -1   9  -1  11  -1  12  -1
M  END
>  <CHROM.1>
-18.62774815,-176.51120483,96.80491698,13.18880336,97.63921406,-1.12595719
0.65181131,2.00352575

>  <Name>
ligand

>  <RI>
0

>  <Rbt.Current_Directory>
/home/itssahil/PROJECTS/Mol_Feturizer/New_Systems/rnas/4YAZ

>  <Rbt.Executable>
rbdock ($Id: //depot/dev/client3/rdock/2013.1/src/exe/rbdock.cxx#4 $)

>  <Rbt.Library>
libRbt.so (2013.1, Build901 2013/11/27)

>  <Rbt.Parameter_File>
/export/apps/rDock/src/rDock_2013.1_src/data/scripts/dock_solv.prm

>  <Rbt.Receptor>
prm/pocket_docking_3.prm

>  <SCORE>
-45.7838

>  <SCORE.INTER>
-45.9154

>  <SCORE.INTER.CONST>
1

>  <SCORE.INTER.POLAR>
0

>  <SCORE.INTER.ROT>
2

>  <SCORE.INTER.SOLV>
46.2023

>  <SCORE.INTER.VDW>
-50.9444

>  <SCORE.INTER.norm>
-1.02034

>  <SCORE.INTRA>
0.131637

>  <SCORE.INTRA.DIHEDRAL>
0.0133644

>  <SCORE.INTRA.DIHEDRAL.0>
2.39103

>  <SCORE.INTRA.POLAR>
0

>  <SCORE.INTRA.POLAR.0>
0

>  <SCORE.INTRA.REPUL>
0

>  <SCORE.INTRA.REPUL.0>
0

>  <SCORE.INTRA.SOLV>
0.00739391

>  <SCORE.INTRA.SOLV.lig_0>
-163.975

>  <SCORE.INTRA.VDW>
0.121258

>  <SCORE.INTRA.VDW.0>
-1.49176

>  <SCORE.INTRA.norm>
0.00292528

>  <SCORE.RESTR>
0

>  <SCORE.RESTR.CAVITY>
0

>  <SCORE.RESTR.norm>
0

>  <SCORE.SYSTEM>
0

>  <SCORE.SYSTEM.CONST>
0

>  <SCORE.SYSTEM.DIHEDRAL>
0

>  <SCORE.SYSTEM.SOLV>
0

>  <SCORE.SYSTEM.norm>
0

>  <SCORE.heavy>
45

>  <SCORE.norm>
-1.01742

>  <RMSD>
0.569

$$$$
ligand
 OpenBabel11021811513D
libRbt.so/2013.1/901 2013/11/27
 45 51  0  0  0  0  0  0  0  0999 V2000
   97.3944   16.9987   97.3072 C   0  0  0  0  0  0  0  0  0  0  0  0
   95.0991   14.4270   94.8219 C   0  0  0  0  0  0  0  0  0  0  0  0
  102.4854   14.7285   98.4608 N   0  0  0  0  0  0  0  0  0  0  0  0
   97.6770   17.1228   98.5633 N   0  0  0  0  0  0  0  0  0  0  0  0
  100.5020   15.4711   97.4753 N   0  0  0  0  0  0  0  0  0  0  0  0
  100.8519   15.7890   99.7540 N   0  0  0  0  0  0  0  0  0  0  0  0
   99.2227   16.9305  101.1021 O   0  0  0  0  0  0  0  0  0  0  0  0
   92.3952   14.9698   96.2262 O   0  5  0  0  0  0  0  0  0  0  0  0
   98.1416   10.5598   93.8543 O   0  5  0  0  0  0  0  0  0  0  0  0
   99.4384   14.5515   94.0120 O   0  0  0  0  0  0  0  0  0  0  0  0
   93.4863   14.6131   98.1329 O   0  5  0  0  0  0  0  0  0  0  0  0
   99.2761   11.6692   95.4285 O   0  5  0  0  0  0  0  0  0  0  0  0
   94.7371   15.0252   96.0016 O   0  0  0  0  0  0  0  0  0  0  0  0
   96.9215   16.2064   94.7635 O   0  0  0  0  0  0  0  0  0  0  0  0
   97.4616   12.8249   94.0605 O   0  0  0  0  0  0  0  0  0  0  0  0
  101.2064   15.3537   98.5704 C   0  0  0  0  0  0  0  0  0  0  0  0
   99.6901   16.4129   99.8954 C   0  0  0  0  0  0  0  0  0  0  0  0
   98.8627   16.5606   98.7594 C   0  0  0  0  0  0  0  0  0  0  0  0
   99.2995   16.0877   97.5465 C   0  0  0  0  0  0  0  0  0  0  0  0
   98.6392   14.8069   95.1056 C   0  0  2  0  0  0  0  0  0  0  0  0
   96.4736   14.7766   94.4142 C   0  0  1  0  0  0  0  0  0  0  0  0
   97.2790   13.9576   94.9018 C   0  0  1  0  0  0  0  0  0  0  0  0
   98.3146   16.0699   95.3109 C   0  0  2  0  0  0  0  0  0  0  0  0
   98.3268   16.3799   96.6822 N   0  0  0  0  0  0  0  0  0  0  0  0
   93.5438   14.3437   96.7389 P   0  0  2  0  0  0  0  0  0  0  0  0
   97.9797   11.5765   94.8027 P   0  0  1  0  0  0  0  0  0  0  0  0
   95.4950   10.9803   95.3441 C   0  0  0  0  0  0  0  0  0  0  0  0
   96.8642   11.0643   95.7709 O   0  0  0  0  0  0  0  0  0  0  0  0
   94.5122   10.8724   96.4326 C   0  0  1  0  0  0  0  0  0  0  0  0
   95.0829    9.8305   97.5150 O   0  0  0  0  0  0  0  0  0  0  0  0
   94.4171   11.9698   97.0380 C   0  0  1  0  0  0  0  0  0  0  0  0
   93.4341   12.8436   96.4366 O   0  0  0  0  0  0  0  0  0  0  0  0
   94.1085   11.5731   98.4737 C   0  0  1  0  0  0  0  0  0  0  0  0
   92.8705   11.3750   98.6146 O   0  0  0  0  0  0  0  0  0  0  0  0
   94.8439   10.2471   98.6680 C   0  0  2  0  0  0  0  0  0  0  0  0
   96.3033   11.1401  103.5164 N   0  0  0  0  0  0  0  0  0  0  0  0
   95.0702   11.3407  102.9816 C   0  0  0  0  0  0  0  0  0  0  0  0
   94.9019   11.0354  101.7006 N   0  0  0  0  0  0  0  0  0  0  0  0
   95.8874   10.6020  100.8857 C   0  0  0  0  0  0  0  0  0  0  0  0
   97.1812   10.3813  101.4045 C   0  0  0  0  0  0  0  0  0  0  0  0
   97.3465   10.6930  102.7918 C   0  0  0  0  0  0  0  0  0  0  0  0
   98.6270   10.5226  103.3962 N   0  0  0  0  0  0  0  0  0  0  0  0
   97.8959    9.9346  100.4321 N   0  0  0  0  0  0  0  0  0  0  0  0
   97.1379    9.8393   99.3535 C   0  0  0  0  0  0  0  0  0  0  0  0
   95.9439   10.2496   99.5932 N   0  0  0  0  0  0  0  0  0  0  0  0
  1 24  1  0  0  0  0
  1  4  2  0  0  0  0
  2 13  1  0  0  0  0
  2 21  1  0  0  0  0
  3 16  1  0  0  0  0
  4 18  1  0  0  0  0
  5 19  2  0  0  0  0
  5 16  1  0  0  0  0
  6 16  2  0  0  0  0
  6 17  1  0  0  0  0
  7 17  1  0  0  0  0
 11 25  2  0  0  0  0
 12 26  2  0  0  0  0
 13 25  1  0  0  0  0
 14 23  1  0  0  0  0
 15 26  1  0  0  0  0
 17 18  2  0  0  0  0
 18 19  1  0  0  0  0
 19 24  1  0  0  0  0
 20 10  1  6  0  0  0
 20 22  1  0  0  0  0
 20 23  1  0  0  0  0
 21 14  1  1  0  0  0
 21 22  1  0  0  0  0
 22 15  1  6  0  0  0
 23 24  1  1  0  0  0
 25  8  1  6  0  0  0
 25 32  1  0  0  0  0
 26  9  1  6  0  0  0
 26 28  1  0  0  0  0
 27 28  1  0  0  0  0
 29 27  1  6  0  0  0
 29 30  1  0  0  0  0
 29 31  1  0  0  0  0
 30 35  1  0  0  0  0
 31 33  1  0  0  0  0
 31 32  1  6  0  0  0
 33 34  1  6  0  0  0
 33 35  1  0  0  0  0
 35 45  1  1  0  0  0
 36 41  2  0  0  0  0
 36 37  1  0  0  0  0
 37 38  2  0  0  0  0
 38 39  1  0  0  0  0
 39 40  2  0  0  0  0
 39 45  1  0  0  0  0
 40 41  1  0  0  0  0
 40 43  1  0  0  0  0
 41 42  1  0  0  0  0
 43 44  2  0  0  0  0
 44 45  1  0  0  0  0
M  CHG  4   8  -1   9  -1  11  -1  12  -1
M  END
>  <CHROM.1>
-16.03418889,-177.03860683,96.83490904,13.20039335,97.63361827,-1.08753499
0.65203680,2.00072602

>  <Name>
ligand

>  <RI>
0

>  <Rbt.Current_Directory>
/home/itssahil/PROJECTS/Mol_Feturizer/New_Systems/rnas/4YAZ

>  <Rbt.Executable>
rbdock ($Id: //depot/dev/client3/rdock/2013.1/src/exe/rbdock.cxx#4 $)

>  <Rbt.Library>
libRbt.so (2013.1, Build901 2013/11/27)

>  <Rbt.Parameter_File>
/export/apps/rDock/src/rDock_2013.1_src/data/scripts/dock_solv.prm

>  <Rbt.Receptor>
prm/pocket_docking_7.prm

>  <SCORE>
-45.6774

>  <SCORE.INTER>
-45.7473

>  <SCORE.INTER.CONST>
1

>  <SCORE.INTER.POLAR>
0

>  <SCORE.INTER.ROT>
2

>  <SCORE.INTER.SOLV>
46.8094

>  <SCORE.INTER.VDW>
-51.0346

>  <SCORE.INTER.norm>
-1.01661

>  <SCORE.INTRA>
0.069876

>  <SCORE.INTRA.DIHEDRAL>
0.0100513

>  <SCORE.INTRA.DIHEDRAL.0>
2.39103

>  <SCORE.INTRA.POLAR>
0

>  <SCORE.INTRA.POLAR.0>
0

>  <SCORE.INTRA.REPUL>
0

>  <SCORE.INTRA.REPUL.0>
0

>  <SCORE.INTRA.SOLV>
0.00484181

>  <SCORE.INTRA.SOLV.lig_0>
-163.975

>  <SCORE.INTRA.VDW>
0.0624294

>  <SCORE.INTRA.VDW.0>
-1.49176

>  <SCORE.INTRA.norm>
0.0015528

>  <SCORE.RESTR>
0

>  <SCORE.RESTR.CAVITY>
0

>  <SCORE.RESTR.norm>
0

>  <SCORE.SYSTEM>
0

>  <SCORE.SYSTEM.CONST>
0

>  <SCORE.SYSTEM.DIHEDRAL>
0

>  <SCORE.SYSTEM.SOLV>
0

>  <SCORE.SYSTEM.norm>
0

>  <SCORE.heavy>
45

>  <SCORE.norm>
-1.01505

>  <RMSD>
0.570

$$$$
ligand
 OpenBabel11021811513D
libRbt.so/2013.1/901 2013/11/27
 45 51  0  0  0  0  0  0  0  0999 V2000
   97.2406   17.1130   97.2852 C   0  0  0  0  0  0  0  0  0  0  0  0
   95.0227   14.4948   94.7790 C   0  0  0  0  0  0  0  0  0  0  0  0
  102.3747   14.9597   98.4715 N   0  0  0  0  0  0  0  0  0  0  0  0
   97.5113   17.2414   98.5436 N   0  0  0  0  0  0  0  0  0  0  0  0
  100.3816   15.6578   97.4731 N   0  0  0  0  0  0  0  0  0  0  0  0
  100.7078   15.9796   99.7547 N   0  0  0  0  0  0  0  0  0  0  0  0
   99.0430   17.0804  101.0930 O   0  0  0  0  0  0  0  0  0  0  0  0
   92.2971   14.9734   96.1644 O   0  5  0  0  0  0  0  0  0  0  0  0
   98.1593   10.6996   93.8271 O   0  5  0  0  0  0  0  0  0  0  0  0
   99.3638   14.7194   94.0009 O   0  0  0  0  0  0  0  0  0  0  0  0
   93.3821   14.6382   98.0785 O   0  5  0  0  0  0  0  0  0  0  0  0
   99.2569   11.8316   95.4114 O   0  5  0  0  0  0  0  0  0  0  0  0
   94.6387   15.0825   95.9570 O   0  0  0  0  0  0  0  0  0  0  0  0
   96.8045   16.3153   94.7368 O   0  0  0  0  0  0  0  0  0  0  0  0
   97.4265   12.9482   94.0321 O   0  0  0  0  0  0  0  0  0  0  0  0
  101.0808   15.5548   98.5730 C   0  0  0  0  0  0  0  0  0  0  0  0
   99.5309   16.5760   99.8889 C   0  0  0  0  0  0  0  0  0  0  0  0
   98.7084   16.7065   98.7472 C   0  0  0  0  0  0  0  0  0  0  0  0
   99.1646   16.2461   97.5367 C   0  0  0  0  0  0  0  0  0  0  0  0
   98.5511   14.9546   95.0891 C   0  0  2  0  0  0  0  0  0  0  0  0
   96.3918   14.8764   94.3818 C   0  0  1  0  0  0  0  0  0  0  0  0
   97.2121   14.0749   94.8739 C   0  0  1  0  0  0  0  0  0  0  0  0
   98.1964   16.2096   95.2941 C   0  0  2  0  0  0  0  0  0  0  0  0
   98.1916   16.5172   96.6660 N   0  0  0  0  0  0  0  0  0  0  0  0
   93.4558   14.3727   96.6845 P   0  0  2  0  0  0  0  0  0  0  0  0
   97.9675   11.7106   94.7760 P   0  0  1  0  0  0  0  0  0  0  0  0
   95.4932   11.0571   95.2983 C   0  0  0  0  0  0  0  0  0  0  0  0
   96.8570   11.1714   95.7352 O   0  0  0  0  0  0  0  0  0  0  0  0
   94.5052   10.9249   96.3794 C   0  0  1  0  0  0  0  0  0  0  0  0
   95.0916    9.8943   97.4643 O   0  0  0  0  0  0  0  0  0  0  0  0
   94.3808   12.0187   96.9859 C   0  0  1  0  0  0  0  0  0  0  0  0
   93.3825   12.8710   96.3788 O   0  0  0  0  0  0  0  0  0  0  0  0
   94.0709   11.6125   98.4187 C   0  0  1  0  0  0  0  0  0  0  0  0
   92.8367   11.3860   98.5502 O   0  0  0  0  0  0  0  0  0  0  0  0
   94.8349   10.3031   98.6161 C   0  0  2  0  0  0  0  0  0  0  0  0
   96.2323   11.1857  103.4846 N   0  0  0  0  0  0  0  0  0  0  0  0
   94.9973   11.3544  102.9432 C   0  0  0  0  0  0  0  0  0  0  0  0
   94.8475   11.0585  101.6577 N   0  0  0  0  0  0  0  0  0  0  0  0
   95.8515   10.6648  100.8452 C   0  0  0  0  0  0  0  0  0  0  0  0
   97.1479   10.4782  101.3709 C   0  0  0  0  0  0  0  0  0  0  0  0
   97.2938   10.7790  102.7628 C   0  0  0  0  0  0  0  0  0  0  0  0
   98.5747   10.6412  103.3746 N   0  0  0  0  0  0  0  0  0  0  0  0
   97.8827   10.0646  100.3989 N   0  0  0  0  0  0  0  0  0  0  0  0
   97.1356    9.9583   99.3138 C   0  0  0  0  0  0  0  0  0  0  0  0
   95.9279   10.3290   99.5493 N   0  0  0  0  0  0  0  0  0  0  0  0
  1 24  1  0  0  0  0
  1  4  2  0  0  0  0
  2 13  1  0  0  0  0
  2 21  1  0  0  0  0
  3 16  1  0  0  0  0
  4 18  1  0  0  0  0
  5 19  2  0  0  0  0
  5 16  1  0  0  0  0
  6 16  2  0  0  0  0
  6 17  1  0  0  0  0
  7 17  1  0  0  0  0
 11 25  2  0  0  0  0
 12 26  2  0  0  0  0
 13 25  1  0  0  0  0
 14 23  1  0  0  0  0
 15 26  1  0  0  0  0
 17 18  2  0  0  0  0
 18 19  1  0  0  0  0
 19 24  1  0  0  0  0
 20 10  1  6  0  0  0
 20 22  1  0  0  0  0
 20 23  1  0  0  0  0
 21 14  1  1  0  0  0
 21 22  1  0  0  0  0
 22 15  1  6  0  0  0
 23 24  1  1  0  0  0
 25  8  1  6  0  0  0
 25 32  1  0  0  0  0
 26  9  1  6  0  0  0
 26 28  1  0  0  0  0
 27 28  1  0  0  0  0
 29 27  1  6  0  0  0
 29 30  1  0  0  0  0
 29 31  1  0  0  0  0
 30 35  1  0  0  0  0
 31 33  1  0  0  0  0
 31 32  1  6  0  0  0
 33 34  1  6  0  0  0
 33 35  1  0  0  0  0
 35 45  1  1  0  0  0
 36 41  2  0  0  0  0
 36 37  1  0  0  0  0
 37 38  2  0  0  0  0
 38 39  1  0  0  0  0
 39 40  2  0  0  0  0
 39 45  1  0  0  0  0
 40 41  1  0  0  0  0
 40 43  1  0  0  0  0
 41 42  1  0  0  0  0
 43 44  2  0  0  0  0
 44 45  1  0  0  0  0
M  CHG  4   8  -1   9  -1  11  -1  12  -1
M  END
>  <CHROM.1>
-16.00386166,-176.32925055,96.76524216,13.30030899,97.60173937,-1.09263742
0.67520719,2.00679202

>  <Name>
ligand

>  <RI>
0

>  <Rbt.Current_Directory>
/home/itssahil/PROJECTS/Mol_Feturizer/New_Systems/rnas/4YAZ

>  <Rbt.Executable>
rbdock ($Id: //depot/dev/client3/rdock/2013.1/src/exe/rbdock.cxx#4 $)

>  <Rbt.Library>
libRbt.so (2013.1, Build901 2013/11/27)

>  <Rbt.Parameter_File>
/export/apps/rDock/src/rDock_2013.1_src/data/scripts/dock_solv.prm

>  <Rbt.Receptor>
prm/pocket_docking_2.prm

>  <SCORE>
-45.5085

>  <SCORE.INTER>
-45.582

>  <SCORE.INTER.CONST>
1

>  <SCORE.INTER.POLAR>
0

>  <SCORE.INTER.ROT>
2

>  <SCORE.INTER.SOLV>
45.8529

>  <SCORE.INTER.VDW>
-50.6056

>  <SCORE.INTER.norm>
-1.01293

>  <SCORE.INTRA>
0.067669

>  <SCORE.INTRA.DIHEDRAL>
0.0151284

>  <SCORE.INTRA.DIHEDRAL.0>
2.39103

>  <SCORE.INTRA.POLAR>
0

>  <SCORE.INTRA.POLAR.0>
0

>  <SCORE.INTRA.REPUL>
0

>  <SCORE.INTRA.REPUL.0>
0

>  <SCORE.INTRA.SOLV>
0.00386393

>  <SCORE.INTRA.SOLV.lig_0>
-163.975

>  <SCORE.INTRA.VDW>
0.0581728

>  <SCORE.INTRA.VDW.0>
-1.49176

>  <SCORE.INTRA.norm>
0.00150376

>  <SCORE.RESTR>
0.00585853

>  <SCORE.RESTR.CAVITY>
0.00585853

>  <SCORE.RESTR.norm>
0.00013019

>  <SCORE.SYSTEM>
0

>  <SCORE.SYSTEM.CONST>
0

>  <SCORE.SYSTEM.DIHEDRAL>
0

>  <SCORE.SYSTEM.SOLV>
0

>  <SCORE.SYSTEM.norm>
0

>  <SCORE.heavy>
45

>  <SCORE.norm>
-1.0113

>  <RMSD>
0.571

$$$$
ligand
 OpenBabel11021811513D
libRbt.so/2013.1/901 2013/11/27
 45 51  0  0  0  0  0  0  0  0999 V2000
   97.3779   17.0505   97.3080 C   0  0  0  0  0  0  0  0  0  0  0  0
   95.0792   14.4390   94.8174 C   0  0  0  0  0  0  0  0  0  0  0  0
  102.3583   14.5806   98.5319 N   0  0  0  0  0  0  0  0  0  0  0  0
   97.6472   17.1628   98.5682 N   0  0  0  0  0  0  0  0  0  0  0  0
  100.4201   15.4014   97.5189 N   0  0  0  0  0  0  0  0  0  0  0  0
  100.7496   15.7041   99.8027 N   0  0  0  0  0  0  0  0  0  0  0  0
   99.1476   16.9084  101.1286 O   0  0  0  0  0  0  0  0  0  0  0  0
   92.3673   14.9755   96.2086 O   0  5  0  0  0  0  0  0  0  0  0  0
   98.1333   10.5781   93.8611 O   0  5  0  0  0  0  0  0  0  0  0  0
   99.4222   14.5719   94.0294 O   0  0  0  0  0  0  0  0  0  0  0  0
   93.4494   14.6189   98.1205 O   0  5  0  0  0  0  0  0  0  0  0  0
   99.2579   11.6879   95.4421 O   0  5  0  0  0  0  0  0  0  0  0  0
   94.7103   15.0354   95.9958 O   0  0  0  0  0  0  0  0  0  0  0  0
   96.8986   16.2216   94.7699 O   0  0  0  0  0  0  0  0  0  0  0  0
   97.4483   12.8418   94.0662 O   0  0  0  0  0  0  0  0  0  0  0  0
  101.1036   15.2557   98.6239 C   0  0  0  0  0  0  0  0  0  0  0  0
   99.6115   16.3733   99.9282 C   0  0  0  0  0  0  0  0  0  0  0  0
   98.8069   16.5541   98.7806 C   0  0  0  0  0  0  0  0  0  0  0  0
   99.2419   16.0649   97.5736 C   0  0  0  0  0  0  0  0  0  0  0  0
   98.6171   14.8249   95.1192 C   0  0  2  0  0  0  0  0  0  0  0  0
   96.4551   14.7915   94.4169 C   0  0  1  0  0  0  0  0  0  0  0  0
   97.2594   13.9733   94.9077 C   0  0  1  0  0  0  0  0  0  0  0  0
   98.2893   16.0871   95.3242 C   0  0  2  0  0  0  0  0  0  0  0  0
   98.2940   16.3957   96.6958 N   0  0  0  0  0  0  0  0  0  0  0  0
   93.5144   14.3510   96.7265 P   0  0  2  0  0  0  0  0  0  0  0  0
   97.9649   11.5936   94.8098 P   0  0  1  0  0  0  0  0  0  0  0  0
   95.4786   10.9925   95.3381 C   0  0  0  0  0  0  0  0  0  0  0  0
   96.8455   11.0785   95.7718 O   0  0  0  0  0  0  0  0  0  0  0  0
   94.4905   10.8817   96.4215 C   0  0  1  0  0  0  0  0  0  0  0  0
   95.0576    9.8398   97.5058 O   0  0  0  0  0  0  0  0  0  0  0  0
   94.3904   11.9783   97.0275 C   0  0  1  0  0  0  0  0  0  0  0  0
   93.4089   12.8510   96.4221 O   0  0  0  0  0  0  0  0  0  0  0  0
   94.0754   11.5797   98.4613 C   0  0  1  0  0  0  0  0  0  0  0  0
   92.8370   11.3792   98.5957 O   0  0  0  0  0  0  0  0  0  0  0  0
   94.8122   10.2547   98.6579 C   0  0  2  0  0  0  0  0  0  0  0  0
   96.2383   11.1087  103.5232 N   0  0  0  0  0  0  0  0  0  0  0  0
   95.0059   11.3027  102.9844 C   0  0  0  0  0  0  0  0  0  0  0  0
   94.8471   11.0098  101.6993 N   0  0  0  0  0  0  0  0  0  0  0  0
   95.8409   10.5956  100.8846 C   0  0  0  0  0  0  0  0  0  0  0  0
   97.1345   10.3825  101.4074 C   0  0  0  0  0  0  0  0  0  0  0  0
   97.2896   10.6804  102.7990 C   0  0  0  0  0  0  0  0  0  0  0  0
   98.5688   10.5164  103.4078 N   0  0  0  0  0  0  0  0  0  0  0  0
   97.8585    9.9539  100.4338 N   0  0  0  0  0  0  0  0  0  0  0  0
   97.1068    9.8629   99.3504 C   0  0  0  0  0  0  0  0  0  0  0  0
   95.9075   10.2582   99.5886 N   0  0  0  0  0  0  0  0  0  0  0  0
  1 24  1  0  0  0  0
  1  4  2  0  0  0  0
  2 13  1  0  0  0  0
  2 21  1  0  0  0  0
  3 16  1  0  0  0  0
  4 18  1  0  0  0  0
  5 19  2  0  0  0  0
  5 16  1  0  0  0  0
  6 16  2  0  0  0  0
  6 17  1  0  0  0  0
  7 17  1  0  0  0  0
 11 25  2  0  0  0  0
 12 26  2  0  0  0  0
 13 25  1  0  0  0  0
 14 23  1  0  0  0  0
 15 26  1  0  0  0  0
 17 18  2  0  0  0  0
 18 19  1  0  0  0  0
 19 24  1  0  0  0  0
 20 10  1  6  0  0  0
 20 22  1  0  0  0  0
 20 23  1  0  0  0  0
 21 14  1  1  0  0  0
 21 22  1  0  0  0  0
 22 15  1  6  0  0  0
 23 24  1  1  0  0  0
 25  8  1  6  0  0  0
 25 32  1  0  0  0  0
 26  9  1  6  0  0  0
 26 28  1  0  0  0  0
 27 28  1  0  0  0  0
 29 27  1  6  0  0  0
 29 30  1  0  0  0  0
 29 31  1  0  0  0  0
 30 35  1  0  0  0  0
 31 33  1  0  0  0  0
 31 32  1  6  0  0  0
 33 34  1  6  0  0  0
 33 35  1  0  0  0  0
 35 45  1  1  0  0  0
 36 41  2  0  0  0  0
 36 37  1  0  0  0  0
 37 38  2  0  0  0  0
 38 39  1  0  0  0  0
 39 40  2  0  0  0  0
 39 45  1  0  0  0  0
 40 41  1  0  0  0  0
 40 43  1  0  0  0  0
 41 42  1  0  0  0  0
 43 44  2  0  0  0  0
 44 45  1  0  0  0  0
M  CHG  4   8  -1   9  -1  11  -1  12  -1
M  END
>  <CHROM.1>
-18.45687799,-176.28385214,96.79643283,13.19833867,97.63971648,-1.12374439
0.65160395,2.00350764

>  <Name>
ligand

>  <RI>
0

>  <Rbt.Current_Directory>
/home/itssahil/PROJECTS/Mol_Feturizer/New_Systems/rnas/4YAZ

>  <Rbt.Executable>
rbdock ($Id: //depot/dev/client3/rdock/2013.1/src/exe/rbdock.cxx#4 $)

>  <Rbt.Library>
libRbt.so (2013.1, Build901 2013/11/27)

>  <Rbt.Parameter_File>
/export/apps/rDock/src/rDock_2013.1_src/data/scripts/dock_solv.prm

>  <Rbt.Receptor>
prm/pocket_docking_4.prm

>  <SCORE>
-45.7732

>  <SCORE.INTER>
-45.9001

>  <SCORE.INTER.CONST>
1

>  <SCORE.INTER.POLAR>
0

>  <SCORE.INTER.ROT>
2

>  <SCORE.INTER.SOLV>
46.1654

>  <SCORE.INTER.VDW>
-50.9219

>  <SCORE.INTER.norm>
-1.02

>  <SCORE.INTRA>
0.126893

>  <SCORE.INTRA.DIHEDRAL>
0.0150161

>  <SCORE.INTRA.DIHEDRAL.0>
2.39103

>  <SCORE.INTRA.POLAR>
0

>  <SCORE.INTRA.POLAR.0>
0

>  <SCORE.INTRA.REPUL>
0

>  <SCORE.INTRA.REPUL.0>
0

>  <SCORE.INTRA.SOLV>
0.00688524

>  <SCORE.INTRA.SOLV.lig_0>
-163.975

>  <SCORE.INTRA.VDW>
0.115942

>  <SCORE.INTRA.VDW.0>
-1.49176

>  <SCORE.INTRA.norm>
0.00281984

>  <SCORE.RESTR>
0

>  <SCORE.RESTR.CAVITY>
0

>  <SCORE.RESTR.norm>
0

>  <SCORE.SYSTEM>
0

>  <SCORE.SYSTEM.CONST>
0

>  <SCORE.SYSTEM.DIHEDRAL>
0

>  <SCORE.SYSTEM.SOLV>
0

>  <SCORE.SYSTEM.norm>
0

>  <SCORE.heavy>
45

>  <SCORE.norm>
-1.01718

>  <RMSD>
0.571

$$$$
ligand
 OpenBabel11021811513D
libRbt.so/2013.1/901 2013/11/27
 45 51  0  0  0  0  0  0  0  0999 V2000
   97.4157   17.0538   97.3210 C   0  0  0  0  0  0  0  0  0  0  0  0
   95.1224   14.4323   94.8246 C   0  0  0  0  0  0  0  0  0  0  0  0
  102.3755   14.5494   98.5583 N   0  0  0  0  0  0  0  0  0  0  0  0
   97.6813   17.1623   98.5823 N   0  0  0  0  0  0  0  0  0  0  0  0
  100.4463   15.3844   97.5399 N   0  0  0  0  0  0  0  0  0  0  0  0
  100.7697   15.6814   99.8253 N   0  0  0  0  0  0  0  0  0  0  0  0
   99.1710   16.8940  101.1475 O   0  0  0  0  0  0  0  0  0  0  0  0
   92.4072   14.9600   96.2127 O   0  5  0  0  0  0  0  0  0  0  0  0
   98.1875   10.5807   93.8666 O   0  5  0  0  0  0  0  0  0  0  0  0
   99.4663   14.5773   94.0432 O   0  0  0  0  0  0  0  0  0  0  0  0
   93.4874   14.6029   98.1256 O   0  5  0  0  0  0  0  0  0  0  0  0
   99.3070   11.6906   95.4511 O   0  5  0  0  0  0  0  0  0  0  0  0
   94.7503   15.0259   96.0035 O   0  0  0  0  0  0  0  0  0  0  0  0
   96.9375   16.2196   94.7827 O   0  0  0  0  0  0  0  0  0  0  0  0
   97.4966   12.8423   94.0743 O   0  0  0  0  0  0  0  0  0  0  0  0
  101.1249   15.2326   98.6470 C   0  0  0  0  0  0  0  0  0  0  0  0
   99.6356   16.3578   99.9479 C   0  0  0  0  0  0  0  0  0  0  0  0
   98.8362   16.5457   98.7978 C   0  0  0  0  0  0  0  0  0  0  0  0
   99.2723   16.0556   97.5915 C   0  0  0  0  0  0  0  0  0  0  0  0
   98.6589   14.8265   95.1323 C   0  0  2  0  0  0  0  0  0  0  0  0
   96.4980   14.7889   94.4267 C   0  0  1  0  0  0  0  0  0  0  0  0
   97.3037   13.9720   94.9174 C   0  0  1  0  0  0  0  0  0  0  0  0
   98.3277   16.0876   95.3388 C   0  0  2  0  0  0  0  0  0  0  0  0
   98.3296   16.3940   96.7110 N   0  0  0  0  0  0  0  0  0  0  0  0
   93.5550   14.3374   96.7313 P   0  0  2  0  0  0  0  0  0  0  0  0
   98.0152   11.5941   94.8166 P   0  0  1  0  0  0  0  0  0  0  0  0
   95.5296   10.9860   95.3403 C   0  0  0  0  0  0  0  0  0  0  0  0
   96.8956   11.0747   95.7762 O   0  0  0  0  0  0  0  0  0  0  0  0
   94.5402   10.8711   96.4221 C   0  0  1  0  0  0  0  0  0  0  0  0
   95.1083    9.8287   97.5055 O   0  0  0  0  0  0  0  0  0  0  0  0
   94.4365   11.9664   97.0297 C   0  0  1  0  0  0  0  0  0  0  0  0
   93.4537   12.8377   96.4243 O   0  0  0  0  0  0  0  0  0  0  0  0
   94.1203   11.5646   98.4624 C   0  0  1  0  0  0  0  0  0  0  0  0
   92.8822   11.3609   98.5947 O   0  0  0  0  0  0  0  0  0  0  0  0
   94.8601   10.2412   98.6579 C   0  0  2  0  0  0  0  0  0  0  0  0
   96.2901   11.1561  103.5110 N   0  0  0  0  0  0  0  0  0  0  0  0
   95.0609   11.3569  102.9672 C   0  0  0  0  0  0  0  0  0  0  0  0
   94.9003   11.0452  101.6867 N   0  0  0  0  0  0  0  0  0  0  0  0
   95.8899   10.6052  100.8805 C   0  0  0  0  0  0  0  0  0  0  0  0
   97.1799   10.3842  101.4088 C   0  0  0  0  0  0  0  0  0  0  0  0
   97.3368   10.7027  102.7956 C   0  0  0  0  0  0  0  0  0  0  0  0
   98.6130   10.5323  103.4092 N   0  0  0  0  0  0  0  0  0  0  0  0
   97.8998    9.9306  100.4435 N   0  0  0  0  0  0  0  0  0  0  0  0
   97.1486    9.8315   99.3605 C   0  0  0  0  0  0  0  0  0  0  0  0
   95.9541   10.2459   99.5902 N   0  0  0  0  0  0  0  0  0  0  0  0
  1 24  1  0  0  0  0
  1  4  2  0  0  0  0
  2 13  1  0  0  0  0
  2 21  1  0  0  0  0
  3 16  1  0  0  0  0
  4 18  1  0  0  0  0
  5 19  2  0  0  0  0
  5 16  1  0  0  0  0
  6 16  2  0  0  0  0
  6 17  1  0  0  0  0
  7 17  1  0  0  0  0
 11 25  2  0  0  0  0
 12 26  2  0  0  0  0
 13 25  1  0  0  0  0
 14 23  1  0  0  0  0
 15 26  1  0  0  0  0
 17 18  2  0  0  0  0
 18 19  1  0  0  0  0
 19 24  1  0  0  0  0
 20 10  1  6  0  0  0
 20 22  1  0  0  0  0
 20 23  1  0  0  0  0
 21 14  1  1  0  0  0
 21 22  1  0  0  0  0
 22 15  1  6  0  0  0
 23 24  1  1  0  0  0
 25  8  1  6  0  0  0
 25 32  1  0  0  0  0
 26  9  1  6  0  0  0
 26 28  1  0  0  0  0
 27 28  1  0  0  0  0
 29 27  1  6  0  0  0
 29 30  1  0  0  0  0
 29 31  1  0  0  0  0
 30 35  1  0  0  0  0
 31 33  1  0  0  0  0
 31 32  1  6  0  0  0
 33 34  1  6  0  0  0
 33 35  1  0  0  0  0
 35 45  1  1  0  0  0
 36 41  2  0  0  0  0
 36 37  1  0  0  0  0
 37 38  2  0  0  0  0
 38 39  1  0  0  0  0
 39 40  2  0  0  0  0
 39 45  1  0  0  0  0
 40 41  1  0  0  0  0
 40 43  1  0  0  0  0
 41 42  1  0  0  0  0
 43 44  2  0  0  0  0
 44 45  1  0  0  0  0
M  CHG  4   8  -1   9  -1  11  -1  12  -1
M  END
>  <CHROM.1>
-18.98579988,-177.63010821,96.83810995,13.19401174,97.64689055,-1.12965401
0.65490680,2.00165259

>  <Name>
ligand

>  <RI>
0

>  <Rbt.Current_Directory>
/home/itssahil/PROJECTS/Mol_Feturizer/New_Systems/rnas/4YAZ

>  <Rbt.Executable>
rbdock ($Id: //depot/dev/client3/rdock/2013.1/src/exe/rbdock.cxx#4 $)

>  <Rbt.Library>
libRbt.so (2013.1, Build901 2013/11/27)

>  <Rbt.Parameter_File>
/export/apps/rDock/src/rDock_2013.1_src/data/scripts/dock_solv.prm

>  <Rbt.Receptor>
prm/pocket_docking_6.prm

>  <SCORE>
-45.7723

>  <SCORE.INTER>
-45.9338

>  <SCORE.INTER.CONST>
1

>  <SCORE.INTER.POLAR>
0

>  <SCORE.INTER.ROT>
2

>  <SCORE.INTER.SOLV>
46.6261

>  <SCORE.INTER.VDW>
-51.0979

>  <SCORE.INTER.norm>
-1.02075

>  <SCORE.INTRA>
0.161543

>  <SCORE.INTRA.DIHEDRAL>
0.00530152

>  <SCORE.INTRA.DIHEDRAL.0>
2.39103

>  <SCORE.INTRA.POLAR>
0

>  <SCORE.INTRA.POLAR.0>
0

>  <SCORE.INTRA.REPUL>
0

>  <SCORE.INTRA.REPUL.0>
0

>  <SCORE.INTRA.SOLV>
0.00928661

>  <SCORE.INTRA.SOLV.lig_0>
-163.975

>  <SCORE.INTRA.VDW>
0.154249

>  <SCORE.INTRA.VDW.0>
-1.49176

>  <SCORE.INTRA.norm>
0.00358985

>  <SCORE.RESTR>
0

>  <SCORE.RESTR.CAVITY>
0

>  <SCORE.RESTR.norm>
0

>  <SCORE.SYSTEM>
0

>  <SCORE.SYSTEM.CONST>
0

>  <SCORE.SYSTEM.DIHEDRAL>
0

>  <SCORE.SYSTEM.SOLV>
0

>  <SCORE.SYSTEM.norm>
0

>  <SCORE.heavy>
45

>  <SCORE.norm>
-1.01716

>  <RMSD>
0.571

$$$$
ligand
 OpenBabel11021811513D
libRbt.so/2013.1/901 2013/11/27
 45 51  0  0  0  0  0  0  0  0999 V2000
   97.3931   17.0533   97.3224 C   0  0  0  0  0  0  0  0  0  0  0  0
   95.0863   14.4464   94.8268 C   0  0  0  0  0  0  0  0  0  0  0  0
  102.3497   14.5383   98.5512 N   0  0  0  0  0  0  0  0  0  0  0  0
   97.6609   17.1609   98.5834 N   0  0  0  0  0  0  0  0  0  0  0  0
  100.4206   15.3776   97.5361 N   0  0  0  0  0  0  0  0  0  0  0  0
  100.7482   15.6732   99.8211 N   0  0  0  0  0  0  0  0  0  0  0  0
   99.1541   16.8887  101.1461 O   0  0  0  0  0  0  0  0  0  0  0  0
   92.3749   14.9869   96.2175 O   0  5  0  0  0  0  0  0  0  0  0  0
   98.1316   10.5801   93.8647 O   0  5  0  0  0  0  0  0  0  0  0  0
   99.4301   14.5705   94.0414 O   0  0  0  0  0  0  0  0  0  0  0  0
   93.4551   14.6239   98.1293 O   0  5  0  0  0  0  0  0  0  0  0  0
   99.2580   11.6842   95.4485 O   0  5  0  0  0  0  0  0  0  0  0  0
   94.7181   15.0414   96.0061 O   0  0  0  0  0  0  0  0  0  0  0  0
   96.9101   16.2248   94.7837 O   0  0  0  0  0  0  0  0  0  0  0  0
   97.4520   12.8450   94.0738 O   0  0  0  0  0  0  0  0  0  0  0  0
  101.1006   15.2240   98.6421 C   0  0  0  0  0  0  0  0  0  0  0  0
   99.6157   16.3520   99.9457 C   0  0  0  0  0  0  0  0  0  0  0  0
   98.8149   16.5418   98.7968 C   0  0  0  0  0  0  0  0  0  0  0  0
   99.2481   16.0512   97.5897 C   0  0  0  0  0  0  0  0  0  0  0  0
   98.6250   14.8233   95.1313 C   0  0  2  0  0  0  0  0  0  0  0  0
   96.4632   14.7964   94.4277 C   0  0  1  0  0  0  0  0  0  0  0  0
   97.2654   13.9754   94.9174 C   0  0  1  0  0  0  0  0  0  0  0  0
   98.3001   16.0859   95.3385 C   0  0  2  0  0  0  0  0  0  0  0  0
   98.3048   16.3918   96.7108 N   0  0  0  0  0  0  0  0  0  0  0  0
   93.5202   14.3586   96.7348 P   0  0  2  0  0  0  0  0  0  0  0  0
   97.9651   11.5941   94.8152 P   0  0  1  0  0  0  0  0  0  0  0  0
   95.4771   10.9980   95.3410 C   0  0  0  0  0  0  0  0  0  0  0  0
   96.8439   11.0799   95.7756 O   0  0  0  0  0  0  0  0  0  0  0  0
   94.4881   10.8875   96.4237 C   0  0  1  0  0  0  0  0  0  0  0  0
   95.0521    9.8421   97.5062 O   0  0  0  0  0  0  0  0  0  0  0  0
   94.3903   11.9832   97.0317 C   0  0  1  0  0  0  0  0  0  0  0  0
   93.4113   12.8594   96.4274 O   0  0  0  0  0  0  0  0  0  0  0  0
   94.0735   11.5825   98.4646 C   0  0  1  0  0  0  0  0  0  0  0  0
   92.8346   11.3848   98.5979 O   0  0  0  0  0  0  0  0  0  0  0  0
   94.8070   10.2554   98.6590 C   0  0  2  0  0  0  0  0  0  0  0  0
   96.2396   11.1321  103.5184 N   0  0  0  0  0  0  0  0  0  0  0  0
   95.0096   11.3349  102.9774 C   0  0  0  0  0  0  0  0  0  0  0  0
   94.8484   11.0338  101.6945 N   0  0  0  0  0  0  0  0  0  0  0  0
   95.8382   10.6027  100.8837 C   0  0  0  0  0  0  0  0  0  0  0  0
   97.1291   10.3799  101.4089 C   0  0  0  0  0  0  0  0  0  0  0  0
   97.2867   10.6869  102.7982 C   0  0  0  0  0  0  0  0  0  0  0  0
   98.5637   10.5141  103.4091 N   0  0  0  0  0  0  0  0  0  0  0  0
   97.8490    9.9360  100.4391 N   0  0  0  0  0  0  0  0  0  0  0  0
   97.0970    9.8446   99.3560 C   0  0  0  0  0  0  0  0  0  0  0  0
   95.9018   10.2545   99.5903 N   0  0  0  0  0  0  0  0  0  0  0  0
  1 24  1  0  0  0  0
  1  4  2  0  0  0  0
  2 13  1  0  0  0  0
  2 21  1  0  0  0  0
  3 16  1  0  0  0  0
  4 18  1  0  0  0  0
  5 19  2  0  0  0  0
  5 16  1  0  0  0  0
  6 16  2  0  0  0  0
  6 17  1  0  0  0  0
  7 17  1  0  0  0  0
 11 25  2  0  0  0  0
 12 26  2  0  0  0  0
 13 25  1  0  0  0  0
 14 23  1  0  0  0  0
 15 26  1  0  0  0  0
 17 18  2  0  0  0  0
 18 19  1  0  0  0  0
 19 24  1  0  0  0  0
 20 10  1  6  0  0  0
 20 22  1  0  0  0  0
 20 23  1  0  0  0  0
 21 14  1  1  0  0  0
 21 22  1  0  0  0  0
 22 15  1  6  0  0  0
 23 24  1  1  0  0  0
 25  8  1  6  0  0  0
 25 32  1  0  0  0  0
 26  9  1  6  0  0  0
 26 28  1  0  0  0  0
 27 28  1  0  0  0  0
 29 27  1  6  0  0  0
 29 30  1  0  0  0  0
 29 31  1  0  0  0  0
 30 35  1  0  0  0  0
 31 33  1  0  0  0  0
 31 32  1  6  0  0  0
 33 34  1  6  0  0  0
 33 35  1  0  0  0  0
 35 45  1  1  0  0  0
 36 41  2  0  0  0  0
 36 37  1  0  0  0  0
 37 38  2  0  0  0  0
 38 39  1  0  0  0  0
 39 40  2  0  0  0  0
 39 45  1  0  0  0  0
 40 41  1  0  0  0  0
 40 43  1  0  0  0  0
 41 42  1  0  0  0  0
 43 44  2  0  0  0  0
 44 45  1  0  0  0  0
M  CHG  4   8  -1   9  -1  11  -1  12  -1
M  END
>  <CHROM.1>
-18.82058399,-177.01455195,96.79849443,13.19731497,97.64742178,-1.12644130
0.64978619,2.00257740

>  <Name>
ligand

>  <RI>
0

>  <Rbt.Current_Directory>
/home/itssahil/PROJECTS/Mol_Feturizer/New_Systems/rnas/4YAZ

>  <Rbt.Executable>
rbdock ($Id: //depot/dev/client3/rdock/2013.1/src/exe/rbdock.cxx#4 $)

>  <Rbt.Library>
libRbt.so (2013.1, Build901 2013/11/27)

>  <Rbt.Parameter_File>
/export/apps/rDock/src/rDock_2013.1_src/data/scripts/dock_solv.prm

>  <Rbt.Receptor>
prm/pocket_docking_5.prm

>  <SCORE>
-45.7926

>  <SCORE.INTER>
-45.9302

>  <SCORE.INTER.CONST>
1

>  <SCORE.INTER.POLAR>
0

>  <SCORE.INTER.ROT>
2

>  <SCORE.INTER.SOLV>
46.2308

>  <SCORE.INTER.VDW>
-50.9637

>  <SCORE.INTER.norm>
-1.02067

>  <SCORE.INTRA>
0.137535

>  <SCORE.INTRA.DIHEDRAL>
0.00973415

>  <SCORE.INTRA.DIHEDRAL.0>
2.39103

>  <SCORE.INTRA.POLAR>
0

>  <SCORE.INTRA.POLAR.0>
0

>  <SCORE.INTRA.REPUL>
0

>  <SCORE.INTRA.REPUL.0>
0

>  <SCORE.INTRA.SOLV>
0.00828916

>  <SCORE.INTRA.SOLV.lig_0>
-163.975

>  <SCORE.INTRA.VDW>
0.128523

>  <SCORE.INTRA.VDW.0>
-1.49176

>  <SCORE.INTRA.norm>
0.00305633

>  <SCORE.RESTR>
0

>  <SCORE.RESTR.CAVITY>
0

>  <SCORE.RESTR.norm>
0

>  <SCORE.SYSTEM>
0

>  <SCORE.SYSTEM.CONST>
0

>  <SCORE.SYSTEM.DIHEDRAL>
0

>  <SCORE.SYSTEM.SOLV>
0

>  <SCORE.SYSTEM.norm>
0

>  <SCORE.heavy>
45

>  <SCORE.norm>
-1.01761

>  <RMSD>
0.574

$$$$
ligand
 OpenBabel11021811513D
libRbt.so/2013.1/901 2013/11/27
 45 51  0  0  0  0  0  0  0  0999 V2000
   97.3522   17.1194   97.2662 C   0  0  0  0  0  0  0  0  0  0  0  0
   95.0947   14.3943   94.7625 C   0  0  0  0  0  0  0  0  0  0  0  0
  102.1045   14.3366   98.7065 N   0  0  0  0  0  0  0  0  0  0  0  0
   97.5778   17.2252   98.5355 N   0  0  0  0  0  0  0  0  0  0  0  0
  100.2671   15.2745   97.6107 N   0  0  0  0  0  0  0  0  0  0  0  0
  100.5246   15.5759   99.9039 N   0  0  0  0  0  0  0  0  0  0  0  0
   98.9547   16.8957  101.1560 O   0  0  0  0  0  0  0  0  0  0  0  0
   92.3468   14.9148   96.0874 O   0  5  0  0  0  0  0  0  0  0  0  0
   98.2084   10.5570   93.9091 O   0  5  0  0  0  0  0  0  0  0  0  0
   99.4530   14.5651   94.0716 O   0  0  0  0  0  0  0  0  0  0  0  0
   93.3889   14.5855   98.0262 O   0  5  0  0  0  0  0  0  0  0  0  0
   99.2857   11.6916   95.5054 O   0  5  0  0  0  0  0  0  0  0  0  0
   94.6932   14.9968   95.9271 O   0  0  0  0  0  0  0  0  0  0  0  0
   96.8968   16.1950   94.7405 O   0  0  0  0  0  0  0  0  0  0  0  0
   97.4963   12.8152   94.0789 O   0  0  0  0  0  0  0  0  0  0  0  0
  100.8948   15.0942   98.7433 C   0  0  0  0  0  0  0  0  0  0  0  0
   99.4295   16.3201   99.9789 C   0  0  0  0  0  0  0  0  0  0  0  0
   98.6851   16.5431   98.7986 C   0  0  0  0  0  0  0  0  0  0  0  0
   99.1344   16.0150   97.6133 C   0  0  0  0  0  0  0  0  0  0  0  0
   98.6209   14.8190   95.1407 C   0  0  2  0  0  0  0  0  0  0  0  0
   96.4757   14.7574   94.3901 C   0  0  1  0  0  0  0  0  0  0  0  0
   97.2770   13.9518   94.9060 C   0  0  1  0  0  0  0  0  0  0  0  0
   98.2758   16.0795   95.3272 C   0  0  2  0  0  0  0  0  0  0  0  0
   98.2464   16.3997   96.6959 N   0  0  0  0  0  0  0  0  0  0  0  0
   93.4881   14.3065   96.6365 P   0  0  2  0  0  0  0  0  0  0  0  0
   98.0084   11.5786   94.8448 P   0  0  1  0  0  0  0  0  0  0  0  0
   95.5169   10.9566   95.3221 C   0  0  0  0  0  0  0  0  0  0  0  0
   96.8727   11.0603   95.7858 O   0  0  0  0  0  0  0  0  0  0  0  0
   94.5057   10.8449   96.3839 C   0  0  1  0  0  0  0  0  0  0  0  0
   95.0586    9.8181   97.4897 O   0  0  0  0  0  0  0  0  0  0  0  0
   94.3809   11.9455   96.9779 C   0  0  1  0  0  0  0  0  0  0  0  0
   93.4046   12.8030   96.3429 O   0  0  0  0  0  0  0  0  0  0  0  0
   94.0374   11.5559   98.4076 C   0  0  1  0  0  0  0  0  0  0  0  0
   92.7984   11.3439   98.5158 O   0  0  0  0  0  0  0  0  0  0  0  0
   94.7829   10.2403   98.6323 C   0  0  2  0  0  0  0  0  0  0  0  0
   96.0410   10.8202  103.5836 N   0  0  0  0  0  0  0  0  0  0  0  0
   94.8062   10.9504  103.0312 C   0  0  0  0  0  0  0  0  0  0  0  0
   94.6969   10.7492  101.7235 N   0  0  0  0  0  0  0  0  0  0  0  0
   95.7376   10.4883  100.9039 C   0  0  0  0  0  0  0  0  0  0  0  0
   97.0352   10.3455  101.4405 C   0  0  0  0  0  0  0  0  0  0  0  0
   97.1386   10.5430  102.8545 C   0  0  0  0  0  0  0  0  0  0  0  0
   98.4160   10.4409  103.4803 N   0  0  0  0  0  0  0  0  0  0  0  0
   97.8113   10.0600  100.4546 N   0  0  0  0  0  0  0  0  0  0  0  0
   97.0901    9.9922   99.3490 C   0  0  0  0  0  0  0  0  0  0  0  0
   95.8568   10.2629   99.5874 N   0  0  0  0  0  0  0  0  0  0  0  0
  1 24  1  0  0  0  0
  1  4  2  0  0  0  0
  2 13  1  0  0  0  0
  2 21  1  0  0  0  0
  3 16  1  0  0  0  0
  4 18  1  0  0  0  0
  5 19  2  0  0  0  0
  5 16  1  0  0  0  0
  6 16  2  0  0  0  0
  6 17  1  0  0  0  0
  7 17  1  0  0  0  0
 11 25  2  0  0  0  0
 12 26  2  0  0  0  0
 13 25  1  0  0  0  0
 14 23  1  0  0  0  0
 15 26  1  0  0  0  0
 17 18  2  0  0  0  0
 18 19  1  0  0  0  0
 19 24  1  0  0  0  0
 20 10  1  6  0  0  0
 20 22  1  0  0  0  0
 20 23  1  0  0  0  0
 21 14  1  1  0  0  0
 21 22  1  0  0  0  0
 22 15  1  6  0  0  0
 23 24  1  1  0  0  0
 25  8  1  6  0  0  0
 25 32  1  0  0  0  0
 26  9  1  6  0  0  0
 26 28  1  0  0  0  0
 27 28  1  0  0  0  0
 29 27  1  6  0  0  0
 29 30  1  0  0  0  0
 29 31  1  0  0  0  0
 30 35  1  0  0  0  0
 31 33  1  0  0  0  0
 31 32  1  6  0  0  0
 33 34  1  6  0  0  0
 33 35  1  0  0  0  0
 35 45  1  1  0  0  0
 36 41  2  0  0  0  0
 36 37  1  0  0  0  0
 37 38  2  0  0  0  0
 38 39  1  0  0  0  0
 39 40  2  0  0  0  0
 39 45  1  0  0  0  0
 40 41  1  0  0  0  0
 40 43  1  0  0  0  0
 41 42  1  0  0  0  0
 43 44  2  0  0  0  0
 44 45  1  0  0  0  0
M  CHG  4   8  -1   9  -1  11  -1  12  -1
M  END
>  <CHROM.1>
-22.95802594,-169.59615089,96.74415031,13.14909576,97.64246863,-1.17415368
0.66069976,2.00791207

>  <Name>
ligand

>  <RI>
0

>  <Rbt.Current_Directory>
/home/itssahil/PROJECTS/Mol_Feturizer/New_Systems/rnas/4YAZ

>  <Rbt.Executable>
rbdock ($Id: //depot/dev/client3/rdock/2013.1/src/exe/rbdock.cxx#4 $)

>  <Rbt.Library>
libRbt.so (2013.1, Build901 2013/11/27)

>  <Rbt.Parameter_File>
/export/apps/rDock/src/rDock_2013.1_src/data/scripts/dock_solv.prm

>  <Rbt.Receptor>
prm/pocket_docking_2.prm

>  <SCORE>
-45.257

>  <SCORE.INTER>
-45.4203

>  <SCORE.INTER.CONST>
1

>  <SCORE.INTER.POLAR>
0

>  <SCORE.INTER.ROT>
2

>  <SCORE.INTER.SOLV>
44.9075

>  <SCORE.INTER.VDW>
-50.1827

>  <SCORE.INTER.norm>
-1.00934

>  <SCORE.INTRA>
0.158782

>  <SCORE.INTRA.DIHEDRAL>
0.0605503

>  <SCORE.INTRA.DIHEDRAL.0>
2.39103

>  <SCORE.INTRA.POLAR>
0

>  <SCORE.INTRA.POLAR.0>
0

>  <SCORE.INTRA.REPUL>
0

>  <SCORE.INTRA.REPUL.0>
0

>  <SCORE.INTRA.SOLV>
0.00240847

>  <SCORE.INTRA.SOLV.lig_0>
-163.975

>  <SCORE.INTRA.VDW>
0.127303

>  <SCORE.INTRA.VDW.0>
-1.49176

>  <SCORE.INTRA.norm>
0.00352849

>  <SCORE.RESTR>
0.00448694

>  <SCORE.RESTR.CAVITY>
0.00448694

>  <SCORE.RESTR.norm>
9.97098e-05

>  <SCORE.SYSTEM>
0

>  <SCORE.SYSTEM.CONST>
0

>  <SCORE.SYSTEM.DIHEDRAL>
0

>  <SCORE.SYSTEM.SOLV>
0

>  <SCORE.SYSTEM.norm>
0

>  <SCORE.heavy>
45

>  <SCORE.norm>
-1.00571

>  <RMSD>
0.578

$$$$
ligand
 OpenBabel11021811513D
libRbt.so/2013.1/901 2013/11/27
 45 51  0  0  0  0  0  0  0  0999 V2000
   97.2549   17.0328   97.1935 C   0  0  0  0  0  0  0  0  0  0  0  0
   95.0448   14.3773   94.7380 C   0  0  0  0  0  0  0  0  0  0  0  0
  102.4208   14.9779   98.4160 N   0  0  0  0  0  0  0  0  0  0  0  0
   97.5260   17.1926   98.4482 N   0  0  0  0  0  0  0  0  0  0  0  0
  100.4163   15.6260   97.4067 N   0  0  0  0  0  0  0  0  0  0  0  0
  100.7420   16.0024   99.6800 N   0  0  0  0  0  0  0  0  0  0  0  0
   99.0643   17.1090  100.9973 O   0  0  0  0  0  0  0  0  0  0  0  0
   92.3175   14.8893   96.1081 O   0  5  0  0  0  0  0  0  0  0  0  0
   98.1784   10.5585   93.8746 O   0  5  0  0  0  0  0  0  0  0  0  0
   99.3874   14.5798   93.9624 O   0  0  0  0  0  0  0  0  0  0  0  0
   93.3991   14.5948   98.0308 O   0  5  0  0  0  0  0  0  0  0  0  0
   99.2747   11.7237   95.4356 O   0  5  0  0  0  0  0  0  0  0  0  0
   94.6596   14.9911   95.9022 O   0  0  0  0  0  0  0  0  0  0  0  0
   96.8289   16.1943   94.6588 O   0  0  0  0  0  0  0  0  0  0  0  0
   97.4480   12.8119   94.0291 O   0  0  0  0  0  0  0  0  0  0  0  0
  101.1188   15.5570   98.5072 C   0  0  0  0  0  0  0  0  0  0  0  0
   99.5571   16.5852   99.8036 C   0  0  0  0  0  0  0  0  0  0  0  0
   98.7308   16.6791   98.6610 C   0  0  0  0  0  0  0  0  0  0  0  0
   99.1913   16.1986   97.4599 C   0  0  0  0  0  0  0  0  0  0  0  0
   98.5733   14.8397   95.0438 C   0  0  2  0  0  0  0  0  0  0  0  0
   96.4150   14.7485   94.3348 C   0  0  1  0  0  0  0  0  0  0  0  0
   97.2335   13.9571   94.8457 C   0  0  1  0  0  0  0  0  0  0  0  0
   98.2198   16.0992   95.2207 C   0  0  2  0  0  0  0  0  0  0  0  0
   98.2130   16.4369   96.5855 N   0  0  0  0  0  0  0  0  0  0  0  0
   93.4747   14.2988   96.6431 P   0  0  2  0  0  0  0  0  0  0  0  0
   97.9863   11.5902   94.8009 P   0  0  1  0  0  0  0  0  0  0  0  0
   95.5103   10.9512   95.3332 C   0  0  0  0  0  0  0  0  0  0  0  0
   96.8736   11.0735   95.7698 O   0  0  0  0  0  0  0  0  0  0  0  0
   94.5204   10.8439   96.4154 C   0  0  1  0  0  0  0  0  0  0  0  0
   95.1039    9.8366   97.5235 O   0  0  0  0  0  0  0  0  0  0  0  0
   94.3963   11.9509   96.9976 C   0  0  1  0  0  0  0  0  0  0  0  0
   93.4001   12.7909   96.3703 O   0  0  0  0  0  0  0  0  0  0  0  0
   94.0836   11.5765   98.4384 C   0  0  1  0  0  0  0  0  0  0  0  0
   92.8490   11.3544   98.5728 O   0  0  0  0  0  0  0  0  0  0  0  0
   94.8458   10.2709   98.6657 C   0  0  2  0  0  0  0  0  0  0  0  0
   96.2249   11.1904  103.5326 N   0  0  0  0  0  0  0  0  0  0  0  0
   94.9882   11.3392  102.9893 C   0  0  0  0  0  0  0  0  0  0  0  0
   94.8441   11.0368  101.7047 N   0  0  0  0  0  0  0  0  0  0  0  0
   95.8545   10.6550  100.8946 C   0  0  0  0  0  0  0  0  0  0  0  0
   97.1530   10.4891  101.4222 C   0  0  0  0  0  0  0  0  0  0  0  0
   97.2930   10.7968  102.8132 C   0  0  0  0  0  0  0  0  0  0  0  0
   98.5751   10.6799  103.4268 N   0  0  0  0  0  0  0  0  0  0  0  0
   97.8948   10.0830  100.4524 N   0  0  0  0  0  0  0  0  0  0  0  0
   97.1504    9.9621   99.3669 C   0  0  0  0  0  0  0  0  0  0  0  0
   95.9372   10.3159   99.5999 N   0  0  0  0  0  0  0  0  0  0  0  0
  1 24  1  0  0  0  0
  1  4  2  0  0  0  0
  2 13  1  0  0  0  0
  2 21  1  0  0  0  0
  3 16  1  0  0  0  0
  4 18  1  0  0  0  0
  5 19  2  0  0  0  0
  5 16  1  0  0  0  0
  6 16  2  0  0  0  0
  6 17  1  0  0  0  0
  7 17  1  0  0  0  0
 11 25  2  0  0  0  0
 12 26  2  0  0  0  0
 13 25  1  0  0  0  0
 14 23  1  0  0  0  0
 15 26  1  0  0  0  0
 17 18  2  0  0  0  0
 18 19  1  0  0  0  0
 19 24  1  0  0  0  0
 20 10  1  6  0  0  0
 20 22  1  0  0  0  0
 20 23  1  0  0  0  0
 21 14  1  1  0  0  0
 21 22  1  0  0  0  0
 22 15  1  6  0  0  0
 23 24  1  1  0  0  0
 25  8  1  6  0  0  0
 25 32  1  0  0  0  0
 26  9  1  6  0  0  0
 26 28  1  0  0  0  0
 27 28  1  0  0  0  0
 29 27  1  6  0  0  0
 29 30  1  0  0  0  0
 29 31  1  0  0  0  0
 30 35  1  0  0  0  0
 31 33  1  0  0  0  0
 31 32  1  6  0  0  0
 33 34  1  6  0  0  0
 33 35  1  0  0  0  0
 35 45  1  1  0  0  0
 36 41  2  0  0  0  0
 36 37  1  0  0  0  0
 37 38  2  0  0  0  0
 38 39  1  0  0  0  0
 39 40  2  0  0  0  0
 39 45  1  0  0  0  0
 40 41  1  0  0  0  0
 40 43  1  0  0  0  0
 41 42  1  0  0  0  0
 43 44  2  0  0  0  0
 44 45  1  0  0  0  0
M  CHG  4   8  -1   9  -1  11  -1  12  -1
M  END
>  <CHROM.1>
-15.11150683,-174.93502797,96.78256496,13.24187982,97.58924179,-1.07943759
0.67519866,1.98650586

>  <Name>
ligand

>  <RI>
0

>  <Rbt.Current_Directory>
/home/itssahil/PROJECTS/Mol_Feturizer/New_Systems/rnas/4YAZ

>  <Rbt.Executable>
rbdock ($Id: //depot/dev/client3/rdock/2013.1/src/exe/rbdock.cxx#4 $)

>  <Rbt.Library>
libRbt.so (2013.1, Build901 2013/11/27)

>  <Rbt.Parameter_File>
/export/apps/rDock/src/rDock_2013.1_src/data/scripts/dock_solv.prm

>  <Rbt.Receptor>
prm/pocket_docking_2.prm

>  <SCORE>
-45.478

>  <SCORE.INTER>
-45.5221

>  <SCORE.INTER.CONST>
1

>  <SCORE.INTER.POLAR>
0

>  <SCORE.INTER.ROT>
2

>  <SCORE.INTER.SOLV>
45.6626

>  <SCORE.INTER.VDW>
-50.5022

>  <SCORE.INTER.norm>
-1.0116

>  <SCORE.INTRA>
0.044034

>  <SCORE.INTRA.DIHEDRAL>
0.0252241

>  <SCORE.INTRA.DIHEDRAL.0>
2.39103

>  <SCORE.INTRA.POLAR>
0

>  <SCORE.INTRA.POLAR.0>
0

>  <SCORE.INTRA.REPUL>
0

>  <SCORE.INTRA.REPUL.0>
0

>  <SCORE.INTRA.SOLV>
0.000790993

>  <SCORE.INTRA.SOLV.lig_0>
-163.975

>  <SCORE.INTRA.VDW>
0.0310264

>  <SCORE.INTRA.VDW.0>
-1.49176

>  <SCORE.INTRA.norm>
0.000978533

>  <SCORE.RESTR>
0

>  <SCORE.RESTR.CAVITY>
0

>  <SCORE.RESTR.norm>
0

>  <SCORE.SYSTEM>
0

>  <SCORE.SYSTEM.CONST>
0

>  <SCORE.SYSTEM.DIHEDRAL>
0

>  <SCORE.SYSTEM.SOLV>
0

>  <SCORE.SYSTEM.norm>
0

>  <SCORE.heavy>
45

>  <SCORE.norm>
-1.01062

>  <RMSD>
0.580

$$$$
ligand
 OpenBabel11021811513D
libRbt.so/2013.1/901 2013/11/27
 45 51  0  0  0  0  0  0  0  0999 V2000
   97.4141   17.0559   97.2928 C   0  0  0  0  0  0  0  0  0  0  0  0
   95.1174   14.4086   94.8154 C   0  0  0  0  0  0  0  0  0  0  0  0
  102.3487   14.5157   98.5580 N   0  0  0  0  0  0  0  0  0  0  0  0
   97.6778   17.1704   98.5540 N   0  0  0  0  0  0  0  0  0  0  0  0
  100.4292   15.3612   97.5297 N   0  0  0  0  0  0  0  0  0  0  0  0
  100.7502   15.6704   99.8138 N   0  0  0  0  0  0  0  0  0  0  0  0
   99.1594   16.9059  101.1243 O   0  0  0  0  0  0  0  0  0  0  0  0
   92.4017   14.9443   96.1995 O   0  5  0  0  0  0  0  0  0  0  0  0
   98.1841   10.5519   93.8833 O   0  5  0  0  0  0  0  0  0  0  0  0
   99.4613   14.5502   94.0338 O   0  0  0  0  0  0  0  0  0  0  0  0
   93.4817   14.6003   98.1149 O   0  5  0  0  0  0  0  0  0  0  0  0
   99.3030   11.6728   95.4606 O   0  5  0  0  0  0  0  0  0  0  0  0
   94.7448   15.0098   95.9902 O   0  0  0  0  0  0  0  0  0  0  0  0
   96.9318   16.1962   94.7619 O   0  0  0  0  0  0  0  0  0  0  0  0
   97.4923   12.8146   94.0760 O   0  0  0  0  0  0  0  0  0  0  0  0
  101.1040   15.2106   98.6393 C   0  0  0  0  0  0  0  0  0  0  0  0
   99.6219   16.3577   99.9293 C   0  0  0  0  0  0  0  0  0  0  0  0
   98.8268   16.5450   98.7761 C   0  0  0  0  0  0  0  0  0  0  0  0
   99.2612   16.0430   97.5741 C   0  0  0  0  0  0  0  0  0  0  0  0
   98.6537   14.8062   95.1210 C   0  0  2  0  0  0  0  0  0  0  0  0
   96.4929   14.7631   94.4153 C   0  0  1  0  0  0  0  0  0  0  0  0
   97.2988   13.9497   94.9115 C   0  0  1  0  0  0  0  0  0  0  0  0
   98.3219   16.0685   95.3191 C   0  0  2  0  0  0  0  0  0  0  0  0
   98.3235   16.3840   96.6892 N   0  0  0  0  0  0  0  0  0  0  0  0
   93.5497   14.3257   96.7224 P   0  0  2  0  0  0  0  0  0  0  0  0
   98.0113   11.5715   94.8266 P   0  0  1  0  0  0  0  0  0  0  0  0
   95.5258   10.9659   95.3539 C   0  0  0  0  0  0  0  0  0  0  0  0
   96.8918   11.0580   95.7894 O   0  0  0  0  0  0  0  0  0  0  0  0
   94.5363   10.8577   96.4363 C   0  0  1  0  0  0  0  0  0  0  0  0
   95.1047    9.8228   97.5266 O   0  0  0  0  0  0  0  0  0  0  0  0
   94.4321   11.9571   97.0366 C   0  0  1  0  0  0  0  0  0  0  0  0
   93.4491   12.8239   96.4253 O   0  0  0  0  0  0  0  0  0  0  0  0
   94.1158   11.5646   98.4719 C   0  0  1  0  0  0  0  0  0  0  0  0
   92.8778   11.3613   98.6053 O   0  0  0  0  0  0  0  0  0  0  0  0
   94.8561   10.2428   98.6763 C   0  0  2  0  0  0  0  0  0  0  0  0
   96.2772   11.1526  103.5329 N   0  0  0  0  0  0  0  0  0  0  0  0
   95.0463   11.3441  102.9897 C   0  0  0  0  0  0  0  0  0  0  0  0
   94.8887   11.0358  101.7081 N   0  0  0  0  0  0  0  0  0  0  0  0
   95.8824   10.6080  100.9003 C   0  0  0  0  0  0  0  0  0  0  0  0
   97.1743   10.3969  101.4280 C   0  0  0  0  0  0  0  0  0  0  0  0
   97.3282   10.7116  102.8159 C   0  0  0  0  0  0  0  0  0  0  0  0
   98.6058   10.5507  103.4290 N   0  0  0  0  0  0  0  0  0  0  0  0
   97.8984    9.9536  100.4610 N   0  0  0  0  0  0  0  0  0  0  0  0
   97.1482    9.8517   99.3776 C   0  0  0  0  0  0  0  0  0  0  0  0
   95.9499   10.2541   99.6087 N   0  0  0  0  0  0  0  0  0  0  0  0
  1 24  1  0  0  0  0
  1  4  2  0  0  0  0
  2 13  1  0  0  0  0
  2 21  1  0  0  0  0
  3 16  1  0  0  0  0
  4 18  1  0  0  0  0
  5 19  2  0  0  0  0
  5 16  1  0  0  0  0
  6 16  2  0  0  0  0
  6 17  1  0  0  0  0
  7 17  1  0  0  0  0
 11 25  2  0  0  0  0
 12 26  2  0  0  0  0
 13 25  1  0  0  0  0
 14 23  1  0  0  0  0
 15 26  1  0  0  0  0
 17 18  2  0  0  0  0
 18 19  1  0  0  0  0
 19 24  1  0  0  0  0
 20 10  1  6  0  0  0
 20 22  1  0  0  0  0
 20 23  1  0  0  0  0
 21 14  1  1  0  0  0
 21 22  1  0  0  0  0
 22 15  1  6  0  0  0
 23 24  1  1  0  0  0
 25  8  1  6  0  0  0
 25 32  1  0  0  0  0
 26  9  1  6  0  0  0
 26 28  1  0  0  0  0
 27 28  1  0  0  0  0
 29 27  1  6  0  0  0
 29 30  1  0  0  0  0
 29 31  1  0  0  0  0
 30 35  1  0  0  0  0
 31 33  1  0  0  0  0
 31 32  1  6  0  0  0
 33 34  1  6  0  0  0
 33 35  1  0  0  0  0
 35 45  1  1  0  0  0
 36 41  2  0  0  0  0
 36 37  1  0  0  0  0
 37 38  2  0  0  0  0
 38 39  1  0  0  0  0
 39 40  2  0  0  0  0
 39 45  1  0  0  0  0
 40 41  1  0  0  0  0
 40 43  1  0  0  0  0
 41 42  1  0  0  0  0
 43 44  2  0  0  0  0
 44 45  1  0  0  0  0
M  CHG  4   8  -1   9  -1  11  -1  12  -1
M  END
>  <CHROM.1>
-19.53207238,-176.84842584,96.83110690,13.18419731,97.64731968,-1.13954365
0.65405224,1.99777324

>  <Name>
ligand

>  <RI>
0

>  <Rbt.Current_Directory>
/home/itssahil/PROJECTS/Mol_Feturizer/New_Systems/rnas/4YAZ

>  <Rbt.Executable>
rbdock ($Id: //depot/dev/client3/rdock/2013.1/src/exe/rbdock.cxx#4 $)

>  <Rbt.Library>
libRbt.so (2013.1, Build901 2013/11/27)

>  <Rbt.Parameter_File>
/export/apps/rDock/src/rDock_2013.1_src/data/scripts/dock_solv.prm

>  <Rbt.Receptor>
prm/pocket_docking_3.prm

>  <SCORE>
-45.784

>  <SCORE.INTER>
-45.9392

>  <SCORE.INTER.CONST>
1

>  <SCORE.INTER.POLAR>
0

>  <SCORE.INTER.ROT>
2

>  <SCORE.INTER.SOLV>
46.4639

>  <SCORE.INTER.VDW>
-51.0474

>  <SCORE.INTER.norm>
-1.02087

>  <SCORE.INTRA>
0.155222

>  <SCORE.INTRA.DIHEDRAL>
0.0108128

>  <SCORE.INTRA.DIHEDRAL.0>
2.39103

>  <SCORE.INTRA.POLAR>
0

>  <SCORE.INTRA.POLAR.0>
0

>  <SCORE.INTRA.REPUL>
0

>  <SCORE.INTRA.REPUL.0>
0

>  <SCORE.INTRA.SOLV>
0.0089092

>  <SCORE.INTRA.SOLV.lig_0>
-163.975

>  <SCORE.INTRA.VDW>
0.145361

>  <SCORE.INTRA.VDW.0>
-1.49176

>  <SCORE.INTRA.norm>
0.00344937

>  <SCORE.RESTR>
0

>  <SCORE.RESTR.CAVITY>
0

>  <SCORE.RESTR.norm>
0

>  <SCORE.SYSTEM>
0

>  <SCORE.SYSTEM.CONST>
0

>  <SCORE.SYSTEM.DIHEDRAL>
0

>  <SCORE.SYSTEM.SOLV>
0

>  <SCORE.SYSTEM.norm>
0

>  <SCORE.heavy>
45

>  <SCORE.norm>
-1.01742

>  <RMSD>
0.580

$$$$
ligand
 OpenBabel11021811513D
libRbt.so/2013.1/901 2013/11/27
 45 51  0  0  0  0  0  0  0  0999 V2000
   97.4101   17.1023   97.3047 C   0  0  0  0  0  0  0  0  0  0  0  0
   95.0992   14.4440   94.8226 C   0  0  0  0  0  0  0  0  0  0  0  0
  102.2747   14.4391   98.5881 N   0  0  0  0  0  0  0  0  0  0  0  0
   97.6695   17.2061   98.5678 N   0  0  0  0  0  0  0  0  0  0  0  0
  100.3820   15.3342   97.5522 N   0  0  0  0  0  0  0  0  0  0  0  0
  100.6976   15.6279   99.8391 N   0  0  0  0  0  0  0  0  0  0  0  0
   99.1299   16.8970  101.1452 O   0  0  0  0  0  0  0  0  0  0  0  0
   92.3836   14.9767   96.2081 O   0  5  0  0  0  0  0  0  0  0  0  0
   98.1634   10.5884   93.8775 O   0  5  0  0  0  0  0  0  0  0  0  0
   99.4433   14.5853   94.0422 O   0  0  0  0  0  0  0  0  0  0  0  0
   93.4631   14.6253   98.1224 O   0  5  0  0  0  0  0  0  0  0  0  0
   99.2828   11.7030   95.4589 O   0  5  0  0  0  0  0  0  0  0  0  0
   94.7268   15.0413   95.9994 O   0  0  0  0  0  0  0  0  0  0  0  0
   96.9148   16.2305   94.7756 O   0  0  0  0  0  0  0  0  0  0  0  0
   97.4732   12.8509   94.0780 O   0  0  0  0  0  0  0  0  0  0  0  0
  101.0467   15.1636   98.6650 C   0  0  0  0  0  0  0  0  0  0  0  0
   99.5856   16.3419   99.9509 C   0  0  0  0  0  0  0  0  0  0  0  0
   98.8017   16.5523   98.7940 C   0  0  0  0  0  0  0  0  0  0  0  0
   99.2305   16.0440   97.5926 C   0  0  0  0  0  0  0  0  0  0  0  0
   98.6357   14.8381   95.1302 C   0  0  2  0  0  0  0  0  0  0  0  0
   96.4750   14.7989   94.4240 C   0  0  1  0  0  0  0  0  0  0  0  0
   97.2803   13.9832   94.9174 C   0  0  1  0  0  0  0  0  0  0  0  0
   98.3048   16.0999   95.3326 C   0  0  2  0  0  0  0  0  0  0  0  0
   98.3064   16.4105   96.7038 N   0  0  0  0  0  0  0  0  0  0  0  0
   93.5312   14.3555   96.7289 P   0  0  2  0  0  0  0  0  0  0  0  0
   97.9911   11.6049   94.8244 P   0  0  1  0  0  0  0  0  0  0  0  0
   95.5052   10.9991   95.3491 C   0  0  0  0  0  0  0  0  0  0  0  0
   96.8711   11.0888   95.7851 O   0  0  0  0  0  0  0  0  0  0  0  0
   94.5154   10.8879   96.4309 C   0  0  1  0  0  0  0  0  0  0  0  0
   95.0828    9.8488   97.5177 O   0  0  0  0  0  0  0  0  0  0  0  0
   94.4118   11.9851   97.0351 C   0  0  1  0  0  0  0  0  0  0  0  0
   93.4295   12.8548   96.4266 O   0  0  0  0  0  0  0  0  0  0  0  0
   94.0950   11.5879   98.4689 C   0  0  1  0  0  0  0  0  0  0  0  0
   92.8569   11.3850   98.6014 O   0  0  0  0  0  0  0  0  0  0  0  0
   94.8344   10.2649   98.6688 C   0  0  2  0  0  0  0  0  0  0  0  0
   96.2515   11.1374  103.5335 N   0  0  0  0  0  0  0  0  0  0  0  0
   95.0199   11.3289  102.9918 C   0  0  0  0  0  0  0  0  0  0  0  0
   94.8636   11.0313  101.7075 N   0  0  0  0  0  0  0  0  0  0  0  0
   95.8590   10.6144  100.8961 C   0  0  0  0  0  0  0  0  0  0  0  0
   97.1516   10.4036  101.4221 C   0  0  0  0  0  0  0  0  0  0  0  0
   97.3042   10.7067  102.8128 C   0  0  0  0  0  0  0  0  0  0  0  0
   98.5824   10.5454  103.4246 N   0  0  0  0  0  0  0  0  0  0  0  0
   97.8775    9.9716  100.4514 N   0  0  0  0  0  0  0  0  0  0  0  0
   97.1279    9.8763   99.3670 C   0  0  0  0  0  0  0  0  0  0  0  0
   95.9280   10.2722   99.6015 N   0  0  0  0  0  0  0  0  0  0  0  0
  1 24  1  0  0  0  0
  1  4  2  0  0  0  0
  2 13  1  0  0  0  0
  2 21  1  0  0  0  0
  3 16  1  0  0  0  0
  4 18  1  0  0  0  0
  5 19  2  0  0  0  0
  5 16  1  0  0  0  0
  6 16  2  0  0  0  0
  6 17  1  0  0  0  0
  7 17  1  0  0  0  0
 11 25  2  0  0  0  0
 12 26  2  0  0  0  0
 13 25  1  0  0  0  0
 14 23  1  0  0  0  0
 15 26  1  0  0  0  0
 17 18  2  0  0  0  0
 18 19  1  0  0  0  0
 19 24  1  0  0  0  0
 20 10  1  6  0  0  0
 20 22  1  0  0  0  0
 20 23  1  0  0  0  0
 21 14  1  1  0  0  0
 21 22  1  0  0  0  0
 22 15  1  6  0  0  0
 23 24  1  1  0  0  0
 25  8  1  6  0  0  0
 25 32  1  0  0  0  0
 26  9  1  6  0  0  0
 26 28  1  0  0  0  0
 27 28  1  0  0  0  0
 29 27  1  6  0  0  0
 29 30  1  0  0  0  0
 29 31  1  0  0  0  0
 30 35  1  0  0  0  0
 31 33  1  0  0  0  0
 31 32  1  6  0  0  0
 33 34  1  6  0  0  0
 33 35  1  0  0  0  0
 35 45  1  1  0  0  0
 36 41  2  0  0  0  0
 36 37  1  0  0  0  0
 37 38  2  0  0  0  0
 38 39  1  0  0  0  0
 39 40  2  0  0  0  0
 39 45  1  0  0  0  0
 40 41  1  0  0  0  0
 40 43  1  0  0  0  0
 41 42  1  0  0  0  0
 43 44  2  0  0  0  0
 44 45  1  0  0  0  0
M  CHG  4   8  -1   9  -1  11  -1  12  -1
M  END
>  <CHROM.1>
-20.91374243,-176.44999913,96.80750145,13.20065872,97.65223180,-1.16077854
0.65173954,2.00339607

>  <Name>
ligand

>  <RI>
0

>  <Rbt.Current_Directory>
/home/itssahil/PROJECTS/Mol_Feturizer/New_Systems/rnas/4YAZ

>  <Rbt.Executable>
rbdock ($Id: //depot/dev/client3/rdock/2013.1/src/exe/rbdock.cxx#4 $)

>  <Rbt.Library>
libRbt.so (2013.1, Build901 2013/11/27)

>  <Rbt.Parameter_File>
/export/apps/rDock/src/rDock_2013.1_src/data/scripts/dock_solv.prm

>  <Rbt.Receptor>
prm/pocket_docking_3.prm

>  <SCORE>
-45.6876

>  <SCORE.INTER>
-45.8779

>  <SCORE.INTER.CONST>
1

>  <SCORE.INTER.POLAR>
0

>  <SCORE.INTER.ROT>
2

>  <SCORE.INTER.SOLV>
46.2642

>  <SCORE.INTER.VDW>
-50.94

>  <SCORE.INTER.norm>
-1.01951

>  <SCORE.INTRA>
0.190311

>  <SCORE.INTRA.DIHEDRAL>
0.0134661

>  <SCORE.INTRA.DIHEDRAL.0>
2.39103

>  <SCORE.INTRA.POLAR>
0

>  <SCORE.INTRA.POLAR.0>
0

>  <SCORE.INTRA.REPUL>
0

>  <SCORE.INTRA.REPUL.0>
0

>  <SCORE.INTRA.SOLV>
0.00999166

>  <SCORE.INTRA.SOLV.lig_0>
-163.975

>  <SCORE.INTRA.VDW>
0.178582

>  <SCORE.INTRA.VDW.0>
-1.49176

>  <SCORE.INTRA.norm>
0.00422914

>  <SCORE.RESTR>
0

>  <SCORE.RESTR.CAVITY>
0

>  <SCORE.RESTR.norm>
0

>  <SCORE.SYSTEM>
0

>  <SCORE.SYSTEM.CONST>
0

>  <SCORE.SYSTEM.DIHEDRAL>
0

>  <SCORE.SYSTEM.SOLV>
0

>  <SCORE.SYSTEM.norm>
0

>  <SCORE.heavy>
45

>  <SCORE.norm>
-1.01528

>  <RMSD>
0.584

$$$$
ligand
 OpenBabel11021811513D
libRbt.so/2013.1/901 2013/11/27
 45 51  0  0  0  0  0  0  0  0999 V2000
   97.3910   17.0594   97.2991 C   0  0  0  0  0  0  0  0  0  0  0  0
   95.1009   14.4115   94.8209 C   0  0  0  0  0  0  0  0  0  0  0  0
  102.3456   14.5514   98.5499 N   0  0  0  0  0  0  0  0  0  0  0  0
   97.6568   17.1741   98.5599 N   0  0  0  0  0  0  0  0  0  0  0  0
  100.4181   15.3850   97.5270 N   0  0  0  0  0  0  0  0  0  0  0  0
  100.7422   15.6935   99.8108 N   0  0  0  0  0  0  0  0  0  0  0  0
   99.1460   16.9164  101.1265 O   0  0  0  0  0  0  0  0  0  0  0  0
   92.3856   14.9370   96.2095 O   0  5  0  0  0  0  0  0  0  0  0  0
   98.1783   10.5655   93.8795 O   0  5  0  0  0  0  0  0  0  0  0  0
   99.4433   14.5676   94.0332 O   0  0  0  0  0  0  0  0  0  0  0  0
   93.4694   14.5939   98.1229 O   0  5  0  0  0  0  0  0  0  0  0  0
   99.2960   11.6879   95.4567 O   0  5  0  0  0  0  0  0  0  0  0  0
   94.7282   15.0101   95.9970 O   0  0  0  0  0  0  0  0  0  0  0  0
   96.9097   16.2048   94.7671 O   0  0  0  0  0  0  0  0  0  0  0  0
   97.4798   12.8258   94.0761 O   0  0  0  0  0  0  0  0  0  0  0  0
  101.0964   15.2376   98.6349 C   0  0  0  0  0  0  0  0  0  0  0  0
   99.6094   16.3729   99.9298 C   0  0  0  0  0  0  0  0  0  0  0  0
   98.8105   16.5563   98.7786 C   0  0  0  0  0  0  0  0  0  0  0  0
   99.2455   16.0588   97.5750 C   0  0  0  0  0  0  0  0  0  0  0  0
   98.6364   14.8197   95.1220 C   0  0  2  0  0  0  0  0  0  0  0  0
   96.4748   14.7708   94.4193 C   0  0  1  0  0  0  0  0  0  0  0  0
   97.2839   13.9593   94.9133 C   0  0  1  0  0  0  0  0  0  0  0  0
   98.3010   16.0807   95.3221 C   0  0  2  0  0  0  0  0  0  0  0  0
   98.3036   16.3944   96.6927 N   0  0  0  0  0  0  0  0  0  0  0  0
   93.5363   14.3213   96.7299 P   0  0  2  0  0  0  0  0  0  0  0  0
   98.0036   11.5834   94.8244 P   0  0  1  0  0  0  0  0  0  0  0  0
   95.5209   10.9694   95.3544 C   0  0  0  0  0  0  0  0  0  0  0  0
   96.8871   11.0652   95.7881 O   0  0  0  0  0  0  0  0  0  0  0  0
   94.5332   10.8568   96.4380 C   0  0  1  0  0  0  0  0  0  0  0  0
   95.1063    9.8223   97.5263 O   0  0  0  0  0  0  0  0  0  0  0  0
   94.4264   11.9550   97.0399 C   0  0  1  0  0  0  0  0  0  0  0  0
   93.4398   12.8196   96.4311 O   0  0  0  0  0  0  0  0  0  0  0  0
   94.1134   11.5598   98.4751 C   0  0  1  0  0  0  0  0  0  0  0  0
   92.8763   11.3524   98.6100 O   0  0  0  0  0  0  0  0  0  0  0  0
   94.8581   10.2400   98.6768 C   0  0  2  0  0  0  0  0  0  0  0  0
   96.2830   11.1466  103.5329 N   0  0  0  0  0  0  0  0  0  0  0  0
   95.0507   11.3348  102.9918 C   0  0  0  0  0  0  0  0  0  0  0  0
   94.8923   11.0280  101.7099 N   0  0  0  0  0  0  0  0  0  0  0  0
   95.8863   10.6050  100.9000 C   0  0  0  0  0  0  0  0  0  0  0  0
   97.1797   10.3975  101.4254 C   0  0  0  0  0  0  0  0  0  0  0  0
   97.3345   10.7104  102.8137 C   0  0  0  0  0  0  0  0  0  0  0  0
   98.6135   10.5529  103.4246 N   0  0  0  0  0  0  0  0  0  0  0  0
   97.9039    9.9583  100.4567 N   0  0  0  0  0  0  0  0  0  0  0  0
   97.1526    9.8556   99.3742 C   0  0  0  0  0  0  0  0  0  0  0  0
   95.9532   10.2536   99.6077 N   0  0  0  0  0  0  0  0  0  0  0  0
  1 24  1  0  0  0  0
  1  4  2  0  0  0  0
  2 13  1  0  0  0  0
  2 21  1  0  0  0  0
  3 16  1  0  0  0  0
  4 18  1  0  0  0  0
  5 19  2  0  0  0  0
  5 16  1  0  0  0  0
  6 16  2  0  0  0  0
  6 17  1  0  0  0  0
  7 17  1  0  0  0  0
 11 25  2  0  0  0  0
 12 26  2  0  0  0  0
 13 25  1  0  0  0  0
 14 23  1  0  0  0  0
 15 26  1  0  0  0  0
 17 18  2  0  0  0  0
 18 19  1  0  0  0  0
 19 24  1  0  0  0  0
 20 10  1  6  0  0  0
 20 22  1  0  0  0  0
 20 23  1  0  0  0  0
 21 14  1  1  0  0  0
 21 22  1  0  0  0  0
 22 15  1  6  0  0  0
 23 24  1  1  0  0  0
 25  8  1  6  0  0  0
 25 32  1  0  0  0  0
 26  9  1  6  0  0  0
 26 28  1  0  0  0  0
 27 28  1  0  0  0  0
 29 27  1  6  0  0  0
 29 30  1  0  0  0  0
 29 31  1  0  0  0  0
 30 35  1  0  0  0  0
 31 33  1  0  0  0  0
 31 32  1  6  0  0  0
 33 34  1  6  0  0  0
 33 35  1  0  0  0  0
 35 45  1  1  0  0  0
 36 41  2  0  0  0  0
 36 37  1  0  0  0  0
 37 38  2  0  0  0  0
 38 39  1  0  0  0  0
 39 40  2  0  0  0  0
 39 45  1  0  0  0  0
 40 41  1  0  0  0  0
 40 43  1  0  0  0  0
 41 42  1  0  0  0  0
 43 44  2  0  0  0  0
 44 45  1  0  0  0  0
M  CHG  4   8  -1   9  -1  11  -1  12  -1
M  END
>  <CHROM.1>
-19.31370091,-176.81908255,96.82305021,13.18972433,97.64857127,-1.13939577
0.65651825,2.00089912

>  <Name>
ligand

>  <RI>
0

>  <Rbt.Current_Directory>
/home/itssahil/PROJECTS/Mol_Feturizer/New_Systems/rnas/4YAZ

>  <Rbt.Executable>
rbdock ($Id: //depot/dev/client3/rdock/2013.1/src/exe/rbdock.cxx#4 $)

>  <Rbt.Library>
libRbt.so (2013.1, Build901 2013/11/27)

>  <Rbt.Parameter_File>
/export/apps/rDock/src/rDock_2013.1_src/data/scripts/dock_solv.prm

>  <Rbt.Receptor>
prm/pocket_docking_7.prm

>  <SCORE>
-45.8096

>  <SCORE.INTER>
-45.9592

>  <SCORE.INTER.CONST>
1

>  <SCORE.INTER.POLAR>
0

>  <SCORE.INTER.ROT>
2

>  <SCORE.INTER.SOLV>
46.4719

>  <SCORE.INTER.VDW>
-51.0634

>  <SCORE.INTER.norm>
-1.02132

>  <SCORE.INTRA>
0.149591

>  <SCORE.INTRA.DIHEDRAL>
0.0110557

>  <SCORE.INTRA.DIHEDRAL.0>
2.39103

>  <SCORE.INTRA.POLAR>
0

>  <SCORE.INTRA.POLAR.0>
0

>  <SCORE.INTRA.REPUL>
0

>  <SCORE.INTRA.REPUL.0>
0

>  <SCORE.INTRA.SOLV>
0.0086154

>  <SCORE.INTRA.SOLV.lig_0>
-163.975

>  <SCORE.INTRA.VDW>
0.139755

>  <SCORE.INTRA.VDW.0>
-1.49176

>  <SCORE.INTRA.norm>
0.00332424

>  <SCORE.RESTR>
0

>  <SCORE.RESTR.CAVITY>
0

>  <SCORE.RESTR.norm>
0

>  <SCORE.SYSTEM>
0

>  <SCORE.SYSTEM.CONST>
0

>  <SCORE.SYSTEM.DIHEDRAL>
0

>  <SCORE.SYSTEM.SOLV>
0

>  <SCORE.SYSTEM.norm>
0

>  <SCORE.heavy>
45

>  <SCORE.norm>
-1.01799

>  <RMSD>
0.584

$$$$
ligand
 OpenBabel11021811513D
libRbt.so/2013.1/901 2013/11/27
 45 51  0  0  0  0  0  0  0  0999 V2000
   97.3872   17.0773   97.2872 C   0  0  0  0  0  0  0  0  0  0  0  0
   95.0985   14.4113   94.8142 C   0  0  0  0  0  0  0  0  0  0  0  0
  102.3123   14.5258   98.5665 N   0  0  0  0  0  0  0  0  0  0  0  0
   97.6486   17.1931   98.5488 N   0  0  0  0  0  0  0  0  0  0  0  0
  100.3972   15.3748   97.5329 N   0  0  0  0  0  0  0  0  0  0  0  0
  100.7144   15.6868   99.8172 N   0  0  0  0  0  0  0  0  0  0  0  0
   99.1243   16.9286  101.1225 O   0  0  0  0  0  0  0  0  0  0  0  0
   92.3800   14.9387   96.1961 O   0  5  0  0  0  0  0  0  0  0  0  0
   98.1806   10.5650   93.8898 O   0  5  0  0  0  0  0  0  0  0  0  0
   99.4422   14.5684   94.0346 O   0  0  0  0  0  0  0  0  0  0  0  0
   93.4604   14.6019   98.1125 O   0  5  0  0  0  0  0  0  0  0  0  0
   99.2943   11.6927   95.4659 O   0  5  0  0  0  0  0  0  0  0  0  0
   94.7230   15.0129   95.9879 O   0  0  0  0  0  0  0  0  0  0  0  0
   96.9060   16.2058   94.7588 O   0  0  0  0  0  0  0  0  0  0  0  0
   97.4800   12.8253   94.0786 O   0  0  0  0  0  0  0  0  0  0  0  0
  101.0693   15.2242   98.6442 C   0  0  0  0  0  0  0  0  0  0  0  0
   99.5877   16.3773   99.9293 C   0  0  0  0  0  0  0  0  0  0  0  0
   98.7954   16.5649   98.7743 C   0  0  0  0  0  0  0  0  0  0  0  0
   99.2309   16.0599   97.5739 C   0  0  0  0  0  0  0  0  0  0  0  0
   98.6331   14.8230   95.1210 C   0  0  2  0  0  0  0  0  0  0  0  0
   96.4728   14.7704   94.4143 C   0  0  1  0  0  0  0  0  0  0  0  0
   97.2816   13.9610   94.9122 C   0  0  1  0  0  0  0  0  0  0  0  0
   98.2963   16.0843   95.3169 C   0  0  2  0  0  0  0  0  0  0  0  0
   98.2960   16.4019   96.6866 N   0  0  0  0  0  0  0  0  0  0  0  0
   93.5302   14.3253   96.7205 P   0  0  2  0  0  0  0  0  0  0  0  0
   98.0033   11.5854   94.8314 P   0  0  1  0  0  0  0  0  0  0  0  0
   95.5199   10.9711   95.3583 C   0  0  0  0  0  0  0  0  0  0  0  0
   96.8853   11.0691   95.7944 O   0  0  0  0  0  0  0  0  0  0  0  0
   94.5303   10.8608   96.4404 C   0  0  1  0  0  0  0  0  0  0  0  0
   95.1020    9.8298   97.5327 O   0  0  0  0  0  0  0  0  0  0  0  0
   94.4215   11.9606   97.0390 C   0  0  1  0  0  0  0  0  0  0  0  0
   93.4354   12.8227   96.4257 O   0  0  0  0  0  0  0  0  0  0  0  0
   94.1060   11.5692   98.4747 C   0  0  1  0  0  0  0  0  0  0  0  0
   92.8687   11.3613   98.6078 O   0  0  0  0  0  0  0  0  0  0  0  0
   94.8513   10.2506   98.6815 C   0  0  2  0  0  0  0  0  0  0  0  0
   96.2607   11.1440  103.5446 N   0  0  0  0  0  0  0  0  0  0  0  0
   95.0280   11.3257  103.0021 C   0  0  0  0  0  0  0  0  0  0  0  0
   94.8742   11.0241  101.7185 N   0  0  0  0  0  0  0  0  0  0  0  0
   95.8727   10.6123  100.9084 C   0  0  0  0  0  0  0  0  0  0  0  0
   97.1666   10.4116  101.4352 C   0  0  0  0  0  0  0  0  0  0  0  0
   97.3166   10.7189  102.8252 C   0  0  0  0  0  0  0  0  0  0  0  0
   98.5957   10.5679  103.4378 N   0  0  0  0  0  0  0  0  0  0  0  0
   97.8958    9.9825  100.4657 N   0  0  0  0  0  0  0  0  0  0  0  0
   97.1472    9.8796   99.3813 C   0  0  0  0  0  0  0  0  0  0  0  0
   95.9446   10.2676   99.6145 N   0  0  0  0  0  0  0  0  0  0  0  0
  1 24  1  0  0  0  0
  1  4  2  0  0  0  0
  2 13  1  0  0  0  0
  2 21  1  0  0  0  0
  3 16  1  0  0  0  0
  4 18  1  0  0  0  0
  5 19  2  0  0  0  0
  5 16  1  0  0  0  0
  6 16  2  0  0  0  0
  6 17  1  0  0  0  0
  7 17  1  0  0  0  0
 11 25  2  0  0  0  0
 12 26  2  0  0  0  0
 13 25  1  0  0  0  0
 14 23  1  0  0  0  0
 15 26  1  0  0  0  0
 17 18  2  0  0  0  0
 18 19  1  0  0  0  0
 19 24  1  0  0  0  0
 20 10  1  6  0  0  0
 20 22  1  0  0  0  0
 20 23  1  0  0  0  0
 21 14  1  1  0  0  0
 21 22  1  0  0  0  0
 22 15  1  6  0  0  0
 23 24  1  1  0  0  0
 25  8  1  6  0  0  0
 25 32  1  0  0  0  0
 26  9  1  6  0  0  0
 26 28  1  0  0  0  0
 27 28  1  0  0  0  0
 29 27  1  6  0  0  0
 29 30  1  0  0  0  0
 29 31  1  0  0  0  0
 30 35  1  0  0  0  0
 31 33  1  0  0  0  0
 31 32  1  6  0  0  0
 33 34  1  6  0  0  0
 33 35  1  0  0  0  0
 35 45  1  1  0  0  0
 36 41  2  0  0  0  0
 36 37  1  0  0  0  0
 37 38  2  0  0  0  0
 38 39  1  0  0  0  0
 39 40  2  0  0  0  0
 39 45  1  0  0  0  0
 40 41  1  0  0  0  0
 40 43  1  0  0  0  0
 41 42  1  0  0  0  0
 43 44  2  0  0  0  0
 44 45  1  0  0  0  0
M  CHG  4   8  -1   9  -1  11  -1  12  -1
M  END
>  <CHROM.1>
-19.91867378,-176.23963595,96.81400341,13.19387608,97.64985852,-1.14777696
0.65684978,1.99918097

>  <Name>
ligand

>  <RI>
0

>  <Rbt.Current_Directory>
/home/itssahil/PROJECTS/Mol_Feturizer/New_Systems/rnas/4YAZ

>  <Rbt.Executable>
rbdock ($Id: //depot/dev/client3/rdock/2013.1/src/exe/rbdock.cxx#4 $)

>  <Rbt.Library>
libRbt.so (2013.1, Build901 2013/11/27)

>  <Rbt.Parameter_File>
/export/apps/rDock/src/rDock_2013.1_src/data/scripts/dock_solv.prm

>  <Rbt.Receptor>
prm/pocket_docking_4.prm

>  <SCORE>
-45.7521

>  <SCORE.INTER>
-45.916

>  <SCORE.INTER.CONST>
1

>  <SCORE.INTER.POLAR>
0

>  <SCORE.INTER.ROT>
2

>  <SCORE.INTER.SOLV>
46.3183

>  <SCORE.INTER.VDW>
-50.9835

>  <SCORE.INTER.norm>
-1.02036

>  <SCORE.INTRA>
0.16387

>  <SCORE.INTRA.DIHEDRAL>
0.0151062

>  <SCORE.INTRA.DIHEDRAL.0>
2.39103

>  <SCORE.INTRA.POLAR>
0

>  <SCORE.INTRA.POLAR.0>
0

>  <SCORE.INTRA.REPUL>
0

>  <SCORE.INTRA.REPUL.0>
0

>  <SCORE.INTRA.SOLV>
0.00854793

>  <SCORE.INTRA.SOLV.lig_0>
-163.975

>  <SCORE.INTRA.VDW>
0.152043

>  <SCORE.INTRA.VDW.0>
-1.49176

>  <SCORE.INTRA.norm>
0.00364155

>  <SCORE.RESTR>
0

>  <SCORE.RESTR.CAVITY>
0

>  <SCORE.RESTR.norm>
0

>  <SCORE.SYSTEM>
0

>  <SCORE.SYSTEM.CONST>
0

>  <SCORE.SYSTEM.DIHEDRAL>
0

>  <SCORE.SYSTEM.SOLV>
0

>  <SCORE.SYSTEM.norm>
0

>  <SCORE.heavy>
45

>  <SCORE.norm>
-1.01671

>  <RMSD>
0.587

$$$$
ligand
 OpenBabel11021811513D
libRbt.so/2013.1/901 2013/11/27
 45 51  0  0  0  0  0  0  0  0999 V2000
   97.2273   17.0974   97.1648 C   0  0  0  0  0  0  0  0  0  0  0  0
   95.0275   14.3522   94.7203 C   0  0  0  0  0  0  0  0  0  0  0  0
  102.2488   14.7729   98.5006 N   0  0  0  0  0  0  0  0  0  0  0  0
   97.4800   17.2462   98.4247 N   0  0  0  0  0  0  0  0  0  0  0  0
  100.3037   15.5242   97.4477 N   0  0  0  0  0  0  0  0  0  0  0  0
  100.6009   15.8894   99.7268 N   0  0  0  0  0  0  0  0  0  0  0  0
   98.9575   17.0880  101.0061 O   0  0  0  0  0  0  0  0  0  0  0  0
   92.2878   14.8405   96.0743 O   0  5  0  0  0  0  0  0  0  0  0  0
   98.2042   10.5629   93.8850 O   0  5  0  0  0  0  0  0  0  0  0  0
   99.3719   14.5965   93.9672 O   0  0  0  0  0  0  0  0  0  0  0  0
   93.3620   14.5627   98.0036 O   0  5  0  0  0  0  0  0  0  0  0  0
   99.2803   11.7437   95.4483 O   0  5  0  0  0  0  0  0  0  0  0  0
   94.6299   14.9655   95.8805 O   0  0  0  0  0  0  0  0  0  0  0  0
   96.7934   16.1870   94.6452 O   0  0  0  0  0  0  0  0  0  0  0  0
   97.4502   12.8092   94.0289 O   0  0  0  0  0  0  0  0  0  0  0  0
  100.9780   15.4210   98.5630 C   0  0  0  0  0  0  0  0  0  0  0  0
   99.4466   16.5351   99.8240 C   0  0  0  0  0  0  0  0  0  0  0  0
   98.6508   16.6696   98.6640 C   0  0  0  0  0  0  0  0  0  0  0  0
   99.1102   16.1616   97.4738 C   0  0  0  0  0  0  0  0  0  0  0  0
   98.5494   14.8513   95.0434 C   0  0  2  0  0  0  0  0  0  0  0  0
   96.3960   14.7361   94.3233 C   0  0  1  0  0  0  0  0  0  0  0  0
   97.2198   13.9545   94.8409 C   0  0  1  0  0  0  0  0  0  0  0  0
   98.1822   16.1077   95.2147 C   0  0  2  0  0  0  0  0  0  0  0  0
   98.1647   16.4493   96.5784 N   0  0  0  0  0  0  0  0  0  0  0  0
   93.4481   14.2634   96.6172 P   0  0  2  0  0  0  0  0  0  0  0  0
   97.9967   11.5954   94.8071 P   0  0  1  0  0  0  0  0  0  0  0  0
   95.5245   10.9328   95.3282 C   0  0  0  0  0  0  0  0  0  0  0  0
   96.8841   11.0702   95.7716 O   0  0  0  0  0  0  0  0  0  0  0  0
   94.5300   10.8186   96.4054 C   0  0  1  0  0  0  0  0  0  0  0  0
   95.1176    9.8206   97.5196 O   0  0  0  0  0  0  0  0  0  0  0  0
   94.3915   11.9260   96.9836 C   0  0  1  0  0  0  0  0  0  0  0  0
   93.3902   12.7540   96.3485 O   0  0  0  0  0  0  0  0  0  0  0  0
   94.0750   11.5527   98.4239 C   0  0  1  0  0  0  0  0  0  0  0  0
   92.8419   11.3184   98.5523 O   0  0  0  0  0  0  0  0  0  0  0  0
   94.8491   10.2556   98.6591 C   0  0  2  0  0  0  0  0  0  0  0  0
   96.1898   11.1837  103.5351 N   0  0  0  0  0  0  0  0  0  0  0  0
   94.9538   11.3156  102.9858 C   0  0  0  0  0  0  0  0  0  0  0  0
   94.8207   11.0141  101.6998 N   0  0  0  0  0  0  0  0  0  0  0  0
   95.8407   10.6492  100.8940 C   0  0  0  0  0  0  0  0  0  0  0  0
   97.1388   10.5012  101.4279 C   0  0  0  0  0  0  0  0  0  0  0  0
   97.2672   10.8076  102.8203 C   0  0  0  0  0  0  0  0  0  0  0  0
   98.5478   10.7080  103.4401 N   0  0  0  0  0  0  0  0  0  0  0  0
   97.8914   10.1083  100.4609 N   0  0  0  0  0  0  0  0  0  0  0  0
   97.1544    9.9791   99.3714 C   0  0  0  0  0  0  0  0  0  0  0  0
   95.9349   10.3144   99.5990 N   0  0  0  0  0  0  0  0  0  0  0  0
  1 24  1  0  0  0  0
  1  4  2  0  0  0  0
  2 13  1  0  0  0  0
  2 21  1  0  0  0  0
  3 16  1  0  0  0  0
  4 18  1  0  0  0  0
  5 19  2  0  0  0  0
  5 16  1  0  0  0  0
  6 16  2  0  0  0  0
  6 17  1  0  0  0  0
  7 17  1  0  0  0  0
 11 25  2  0  0  0  0
 12 26  2  0  0  0  0
 13 25  1  0  0  0  0
 14 23  1  0  0  0  0
 15 26  1  0  0  0  0
 17 18  2  0  0  0  0
 18 19  1  0  0  0  0
 19 24  1  0  0  0  0
 20 10  1  6  0  0  0
 20 22  1  0  0  0  0
 20 23  1  0  0  0  0
 21 14  1  1  0  0  0
 21 22  1  0  0  0  0
 22 15  1  6  0  0  0
 23 24  1  1  0  0  0
 25  8  1  6  0  0  0
 25 32  1  0  0  0  0
 26  9  1  6  0  0  0
 26 28  1  0  0  0  0
 27 28  1  0  0  0  0
 29 27  1  6  0  0  0
 29 30  1  0  0  0  0
 29 31  1  0  0  0  0
 30 35  1  0  0  0  0
 31 33  1  0  0  0  0
 31 32  1  6  0  0  0
 33 34  1  6  0  0  0
 33 35  1  0  0  0  0
 35 45  1  1  0  0  0
 36 41  2  0  0  0  0
 36 37  1  0  0  0  0
 37 38  2  0  0  0  0
 38 39  1  0  0  0  0
 39 40  2  0  0  0  0
 39 45  1  0  0  0  0
 40 41  1  0  0  0  0
 40 43  1  0  0  0  0
 41 42  1  0  0  0  0
 43 44  2  0  0  0  0
 44 45  1  0  0  0  0
M  CHG  4   8  -1   9  -1  11  -1  12  -1
M  END
>  <CHROM.1>
-18.87111309,-174.53392725,96.75228565,13.22347078,97.58880220,-1.13819796
0.68065599,1.98809037

>  <Name>
ligand

>  <RI>
0

>  <Rbt.Current_Directory>
/home/itssahil/PROJECTS/Mol_Feturizer/New_Systems/rnas/4YAZ

>  <Rbt.Executable>
rbdock ($Id: //depot/dev/client3/rdock/2013.1/src/exe/rbdock.cxx#4 $)

>  <Rbt.Library>
libRbt.so (2013.1, Build901 2013/11/27)

>  <Rbt.Parameter_File>
/export/apps/rDock/src/rDock_2013.1_src/data/scripts/dock_solv.prm

>  <Rbt.Receptor>
prm/pocket_docking_2.prm

>  <SCORE>
-45.4596

>  <SCORE.INTER>
-45.6064

>  <SCORE.INTER.CONST>
1

>  <SCORE.INTER.POLAR>
0

>  <SCORE.INTER.ROT>
2

>  <SCORE.INTER.SOLV>
44.8978

>  <SCORE.INTER.VDW>
-50.3035

>  <SCORE.INTER.norm>
-1.01347

>  <SCORE.INTRA>
0.133579

>  <SCORE.INTRA.DIHEDRAL>
0.0273816

>  <SCORE.INTRA.DIHEDRAL.0>
2.39103

>  <SCORE.INTRA.POLAR>
0

>  <SCORE.INTRA.POLAR.0>
0

>  <SCORE.INTRA.REPUL>
0

>  <SCORE.INTRA.REPUL.0>
0

>  <SCORE.INTRA.SOLV>
0.00499294

>  <SCORE.INTRA.SOLV.lig_0>
-163.975

>  <SCORE.INTRA.VDW>
0.117392

>  <SCORE.INTRA.VDW.0>
-1.49176

>  <SCORE.INTRA.norm>
0.00296842

>  <SCORE.RESTR>
0.0131618

>  <SCORE.RESTR.CAVITY>
0.0131618

>  <SCORE.RESTR.norm>
0.000292484

>  <SCORE.SYSTEM>
0

>  <SCORE.SYSTEM.CONST>
0

>  <SCORE.SYSTEM.DIHEDRAL>
0

>  <SCORE.SYSTEM.SOLV>
0

>  <SCORE.SYSTEM.norm>
0

>  <SCORE.heavy>
45

>  <SCORE.norm>
-1.01021

>  <RMSD>
0.588

$$$$
ligand
 OpenBabel11021811513D
libRbt.so/2013.1/901 2013/11/27
 45 51  0  0  0  0  0  0  0  0999 V2000
   97.3877   17.0829   97.3043 C   0  0  0  0  0  0  0  0  0  0  0  0
   95.0878   14.4307   94.8273 C   0  0  0  0  0  0  0  0  0  0  0  0
  102.3124   14.5195   98.5609 N   0  0  0  0  0  0  0  0  0  0  0  0
   97.6527   17.1936   98.5655 N   0  0  0  0  0  0  0  0  0  0  0  0
  100.3958   15.3751   97.5356 N   0  0  0  0  0  0  0  0  0  0  0  0
  100.7196   15.6782   99.8201 N   0  0  0  0  0  0  0  0  0  0  0  0
   99.1348   16.9175  101.1343 O   0  0  0  0  0  0  0  0  0  0  0  0
   92.3739   14.9581   96.2182 O   0  5  0  0  0  0  0  0  0  0  0  0
   98.1602   10.5820   93.8808 O   0  5  0  0  0  0  0  0  0  0  0  0
   99.4298   14.5825   94.0370 O   0  0  0  0  0  0  0  0  0  0  0  0
   93.4586   14.6122   98.1306 O   0  5  0  0  0  0  0  0  0  0  0  0
   99.2801   11.7018   95.4581 O   0  5  0  0  0  0  0  0  0  0  0  0
   94.7165   15.0286   96.0042 O   0  0  0  0  0  0  0  0  0  0  0  0
   96.8985   16.2220   94.7739 O   0  0  0  0  0  0  0  0  0  0  0  0
   97.4643   12.8429   94.0797 O   0  0  0  0  0  0  0  0  0  0  0  0
  101.0707   15.2194   98.6445 C   0  0  0  0  0  0  0  0  0  0  0  0
   99.5942   16.3699   99.9379 C   0  0  0  0  0  0  0  0  0  0  0  0
   98.7992   16.5630   98.7856 C   0  0  0  0  0  0  0  0  0  0  0  0
   99.2307   16.0617   97.5823 C   0  0  0  0  0  0  0  0  0  0  0  0
   98.6239   14.8346   95.1265 C   0  0  2  0  0  0  0  0  0  0  0  0
   96.4618   14.7887   94.4252 C   0  0  1  0  0  0  0  0  0  0  0  0
   97.2703   13.9759   94.9180 C   0  0  1  0  0  0  0  0  0  0  0  0
   98.2901   16.0958   95.3279 C   0  0  2  0  0  0  0  0  0  0  0  0
   98.2939   16.4084   96.6987 N   0  0  0  0  0  0  0  0  0  0  0  0
   93.5243   14.3406   96.7373 P   0  0  2  0  0  0  0  0  0  0  0  0
   97.9873   11.5993   94.8266 P   0  0  1  0  0  0  0  0  0  0  0  0
   95.5041   10.9877   95.3577 C   0  0  0  0  0  0  0  0  0  0  0  0
   96.8708   11.0815   95.7906 O   0  0  0  0  0  0  0  0  0  0  0  0
   94.5171   10.8752   96.4419 C   0  0  1  0  0  0  0  0  0  0  0  0
   95.0897    9.8392   97.5289 O   0  0  0  0  0  0  0  0  0  0  0  0
   94.4119   11.9731   97.0448 C   0  0  1  0  0  0  0  0  0  0  0  0
   93.4259   12.8393   96.4373 O   0  0  0  0  0  0  0  0  0  0  0  0
   94.0994   11.5770   98.4799 C   0  0  1  0  0  0  0  0  0  0  0  0
   92.8621   11.3709   98.6154 O   0  0  0  0  0  0  0  0  0  0  0  0
   94.8427   10.2562   98.6799 C   0  0  2  0  0  0  0  0  0  0  0  0
   96.2678   11.1365  103.5408 N   0  0  0  0  0  0  0  0  0  0  0  0
   95.0344   11.3236  103.0018 C   0  0  0  0  0  0  0  0  0  0  0  0
   94.8762   11.0247  101.7181 N   0  0  0  0  0  0  0  0  0  0  0  0
   95.8712   10.6105  100.9047 C   0  0  0  0  0  0  0  0  0  0  0  0
   97.1657   10.4043  101.4279 C   0  0  0  0  0  0  0  0  0  0  0  0
   97.3204   10.7088  102.8181 C   0  0  0  0  0  0  0  0  0  0  0  0
   98.6004   10.5521  103.4271 N   0  0  0  0  0  0  0  0  0  0  0  0
   97.8908    9.9741  100.4558 N   0  0  0  0  0  0  0  0  0  0  0  0
   97.1391    9.8757   99.3732 C   0  0  0  0  0  0  0  0  0  0  0  0
   95.9384   10.2677   99.6101 N   0  0  0  0  0  0  0  0  0  0  0  0
  1 24  1  0  0  0  0
  1  4  2  0  0  0  0
  2 13  1  0  0  0  0
  2 21  1  0  0  0  0
  3 16  1  0  0  0  0
  4 18  1  0  0  0  0
  5 19  2  0  0  0  0
  5 16  1  0  0  0  0
  6 16  2  0  0  0  0
  6 17  1  0  0  0  0
  7 17  1  0  0  0  0
 11 25  2  0  0  0  0
 12 26  2  0  0  0  0
 13 25  1  0  0  0  0
 14 23  1  0  0  0  0
 15 26  1  0  0  0  0
 17 18  2  0  0  0  0
 18 19  1  0  0  0  0
 19 24  1  0  0  0  0
 20 10  1  6  0  0  0
 20 22  1  0  0  0  0
 20 23  1  0  0  0  0
 21 14  1  1  0  0  0
 21 22  1  0  0  0  0
 22 15  1  6  0  0  0
 23 24  1  1  0  0  0
 25  8  1  6  0  0  0
 25 32  1  0  0  0  0
 26  9  1  6  0  0  0
 26 28  1  0  0  0  0
 27 28  1  0  0  0  0
 29 27  1  6  0  0  0
 29 30  1  0  0  0  0
 29 31  1  0  0  0  0
 30 35  1  0  0  0  0
 31 33  1  0  0  0  0
 31 32  1  6  0  0  0
 33 34  1  6  0  0  0
 33 35  1  0  0  0  0
 35 45  1  1  0  0  0
 36 41  2  0  0  0  0
 36 37  1  0  0  0  0
 37 38  2  0  0  0  0
 38 39  1  0  0  0  0
 39 40  2  0  0  0  0
 39 45  1  0  0  0  0
 40 41  1  0  0  0  0
 40 43  1  0  0  0  0
 41 42  1  0  0  0  0
 43 44  2  0  0  0  0
 44 45  1  0  0  0  0
M  CHG  4   8  -1   9  -1  11  -1  12  -1
M  END
>  <CHROM.1>
-19.89309861,-176.39381467,96.80849904,13.20028312,97.65386930,-1.14917144
0.65421344,2.00360484

>  <Name>
ligand

>  <RI>
0

>  <Rbt.Current_Directory>
/home/itssahil/PROJECTS/Mol_Feturizer/New_Systems/rnas/4YAZ

>  <Rbt.Executable>
rbdock ($Id: //depot/dev/client3/rdock/2013.1/src/exe/rbdock.cxx#4 $)

>  <Rbt.Library>
libRbt.so (2013.1, Build901 2013/11/27)

>  <Rbt.Parameter_File>
/export/apps/rDock/src/rDock_2013.1_src/data/scripts/dock_solv.prm

>  <Rbt.Receptor>
prm/pocket_docking_3.prm

>  <SCORE>
-45.8154

>  <SCORE.INTER>
-45.9789

>  <SCORE.INTER.CONST>
1

>  <SCORE.INTER.POLAR>
0

>  <SCORE.INTER.ROT>
2

>  <SCORE.INTER.SOLV>
46.3956

>  <SCORE.INTER.VDW>
-51.0512

>  <SCORE.INTER.norm>
-1.02175

>  <SCORE.INTRA>
0.163534

>  <SCORE.INTRA.DIHEDRAL>
0.014009

>  <SCORE.INTRA.DIHEDRAL.0>
2.39103

>  <SCORE.INTRA.POLAR>
0

>  <SCORE.INTRA.POLAR.0>
0

>  <SCORE.INTRA.REPUL>
0

>  <SCORE.INTRA.REPUL.0>
0

>  <SCORE.INTRA.SOLV>
0.00872441

>  <SCORE.INTRA.SOLV.lig_0>
-163.975

>  <SCORE.INTRA.VDW>
0.152168

>  <SCORE.INTRA.VDW.0>
-1.49176

>  <SCORE.INTRA.norm>
0.0036341

>  <SCORE.RESTR>
0

>  <SCORE.RESTR.CAVITY>
0

>  <SCORE.RESTR.norm>
0

>  <SCORE.SYSTEM>
0

>  <SCORE.SYSTEM.CONST>
0

>  <SCORE.SYSTEM.DIHEDRAL>
0

>  <SCORE.SYSTEM.SOLV>
0

>  <SCORE.SYSTEM.norm>
0

>  <SCORE.heavy>
45

>  <SCORE.norm>
-1.01812

>  <RMSD>
0.590

$$$$
ligand
 OpenBabel11021811513D
libRbt.so/2013.1/901 2013/11/27
 45 51  0  0  0  0  0  0  0  0999 V2000
   97.2320   17.1212   97.1094 C   0  0  0  0  0  0  0  0  0  0  0  0
   94.9886   14.3273   94.6954 C   0  0  0  0  0  0  0  0  0  0  0  0
  102.1027   14.5319   98.5148 N   0  0  0  0  0  0  0  0  0  0  0  0
   97.4783   17.2630   98.3713 N   0  0  0  0  0  0  0  0  0  0  0  0
  100.2138   15.3830   97.4358 N   0  0  0  0  0  0  0  0  0  0  0  0
  100.5051   15.7443   99.7162 N   0  0  0  0  0  0  0  0  0  0  0  0
   98.9158   17.0387  100.9704 O   0  0  0  0  0  0  0  0  0  0  0  0
   92.2532   14.8378   96.0499 O   0  5  0  0  0  0  0  0  0  0  0  0
   98.1447   10.5167   93.8790 O   0  5  0  0  0  0  0  0  0  0  0  0
   99.3333   14.5446   93.9355 O   0  0  0  0  0  0  0  0  0  0  0  0
   93.3284   14.5660   97.9795 O   0  5  0  0  0  0  0  0  0  0  0  0
   99.2288   11.7013   95.4338 O   0  5  0  0  0  0  0  0  0  0  0  0
   94.5956   14.9495   95.8525 O   0  0  0  0  0  0  0  0  0  0  0  0
   96.7639   16.1525   94.6072 O   0  0  0  0  0  0  0  0  0  0  0  0
   97.4025   12.7677   94.0103 O   0  0  0  0  0  0  0  0  0  0  0  0
  100.8689   15.2492   98.5593 C   0  0  0  0  0  0  0  0  0  0  0  0
   99.3870   16.4530   99.7969 C   0  0  0  0  0  0  0  0  0  0  0  0
   98.6129   16.6244   98.6271 C   0  0  0  0  0  0  0  0  0  0  0  0
   99.0570   16.0851   97.4449 C   0  0  0  0  0  0  0  0  0  0  0  0
   98.5134   14.8101   95.0113 C   0  0  2  0  0  0  0  0  0  0  0  0
   96.3586   14.7017   94.2945 C   0  0  1  0  0  0  0  0  0  0  0  0
   97.1789   13.9190   94.8157 C   0  0  1  0  0  0  0  0  0  0  0  0
   98.1529   16.0694   95.1755 C   0  0  2  0  0  0  0  0  0  0  0  0
   98.1389   16.4192   96.5372 N   0  0  0  0  0  0  0  0  0  0  0  0
   93.4111   14.2579   96.5948 P   0  0  2  0  0  0  0  0  0  0  0  0
   97.9436   11.5557   94.7951 P   0  0  1  0  0  0  0  0  0  0  0  0
   95.4688   10.9090   95.3232 C   0  0  0  0  0  0  0  0  0  0  0  0
   96.8296   11.0421   95.7641 O   0  0  0  0  0  0  0  0  0  0  0  0
   94.4750   10.8064   96.4023 C   0  0  1  0  0  0  0  0  0  0  0  0
   95.0589    9.8120   97.5217 O   0  0  0  0  0  0  0  0  0  0  0  0
   94.3430   11.9179   96.9740 C   0  0  1  0  0  0  0  0  0  0  0  0
   93.3452   12.7473   96.3352 O   0  0  0  0  0  0  0  0  0  0  0  0
   94.0263   11.5549   98.4169 C   0  0  1  0  0  0  0  0  0  0  0  0
   92.7922   11.3278   98.5483 O   0  0  0  0  0  0  0  0  0  0  0  0
   94.7940   10.2552   98.6589 C   0  0  2  0  0  0  0  0  0  0  0  0
   96.1487   11.2256  103.5228 N   0  0  0  0  0  0  0  0  0  0  0  0
   94.9135   11.3634  102.9731 C   0  0  0  0  0  0  0  0  0  0  0  0
   94.7762   11.0486  101.6908 N   0  0  0  0  0  0  0  0  0  0  0  0
   95.7918   10.6645  100.8883 C   0  0  0  0  0  0  0  0  0  0  0  0
   97.0888   10.5098  101.4227 C   0  0  0  0  0  0  0  0  0  0  0  0
   97.2216   10.8308  102.8114 C   0  0  0  0  0  0  0  0  0  0  0  0
   98.5018   10.7257  103.4311 N   0  0  0  0  0  0  0  0  0  0  0  0
   97.8366   10.0985  100.4596 N   0  0  0  0  0  0  0  0  0  0  0  0
   97.0973    9.9641   99.3722 C   0  0  0  0  0  0  0  0  0  0  0  0
   95.8814   10.3141   99.5971 N   0  0  0  0  0  0  0  0  0  0  0  0
  1 24  1  0  0  0  0
  1  4  2  0  0  0  0
  2 13  1  0  0  0  0
  2 21  1  0  0  0  0
  3 16  1  0  0  0  0
  4 18  1  0  0  0  0
  5 19  2  0  0  0  0
  5 16  1  0  0  0  0
  6 16  2  0  0  0  0
  6 17  1  0  0  0  0
  7 17  1  0  0  0  0
 11 25  2  0  0  0  0
 12 26  2  0  0  0  0
 13 25  1  0  0  0  0
 14 23  1  0  0  0  0
 15 26  1  0  0  0  0
 17 18  2  0  0  0  0
 18 19  1  0  0  0  0
 19 24  1  0  0  0  0
 20 10  1  6  0  0  0
 20 22  1  0  0  0  0
 20 23  1  0  0  0  0
 21 14  1  1  0  0  0
 21 22  1  0  0  0  0
 22 15  1  6  0  0  0
 23 24  1  1  0  0  0
 25  8  1  6  0  0  0
 25 32  1  0  0  0  0
 26  9  1  6  0  0  0
 26 28  1  0  0  0  0
 27 28  1  0  0  0  0
 29 27  1  6  0  0  0
 29 30  1  0  0  0  0
 29 31  1  0  0  0  0
 30 35  1  0  0  0  0
 31 33  1  0  0  0  0
 31 32  1  6  0  0  0
 33 34  1  6  0  0  0
 33 35  1  0  0  0  0
 35 45  1  1  0  0  0
 36 41  2  0  0  0  0
 36 37  1  0  0  0  0
 37 38  2  0  0  0  0
 38 39  1  0  0  0  0
 39 40  2  0  0  0  0
 39 45  1  0  0  0  0
 40 41  1  0  0  0  0
 40 43  1  0  0  0  0
 41 42  1  0  0  0  0
 43 44  2  0  0  0  0
 44 45  1  0  0  0  0
M  CHG  4   8  -1   9  -1  11  -1  12  -1
M  END
>  <CHROM.1>
-21.81819228,-174.94556340,96.70350607,13.19483063,97.57159217,-1.18022143
0.67271944,1.98293327

>  <Name>
ligand

>  <RI>
0

>  <Rbt.Current_Directory>
/home/itssahil/PROJECTS/Mol_Feturizer/New_Systems/rnas/4YAZ

>  <Rbt.Executable>
rbdock ($Id: //depot/dev/client3/rdock/2013.1/src/exe/rbdock.cxx#4 $)

>  <Rbt.Library>
libRbt.so (2013.1, Build901 2013/11/27)

>  <Rbt.Parameter_File>
/export/apps/rDock/src/rDock_2013.1_src/data/scripts/dock_solv.prm

>  <Rbt.Receptor>
prm/pocket_docking_2.prm

>  <SCORE>
-45.2713

>  <SCORE.INTER>
-45.4118

>  <SCORE.INTER.CONST>
1

>  <SCORE.INTER.POLAR>
0

>  <SCORE.INTER.ROT>
2

>  <SCORE.INTER.SOLV>
43.8445

>  <SCORE.INTER.VDW>
-49.8227

>  <SCORE.INTER.norm>
-1.00915

>  <SCORE.INTRA>
0.140544

>  <SCORE.INTRA.DIHEDRAL>
0.02406

>  <SCORE.INTRA.DIHEDRAL.0>
2.39103

>  <SCORE.INTRA.POLAR>
0

>  <SCORE.INTRA.POLAR.0>
0

>  <SCORE.INTRA.REPUL>
0

>  <SCORE.INTRA.REPUL.0>
0

>  <SCORE.INTRA.SOLV>
0.00898754

>  <SCORE.INTRA.SOLV.lig_0>
-163.975

>  <SCORE.INTRA.VDW>
0.12402

>  <SCORE.INTRA.VDW.0>
-1.49176

>  <SCORE.INTRA.norm>
0.00312319

>  <SCORE.RESTR>
0

>  <SCORE.RESTR.CAVITY>
0

>  <SCORE.RESTR.norm>
0

>  <SCORE.SYSTEM>
0

>  <SCORE.SYSTEM.CONST>
0

>  <SCORE.SYSTEM.DIHEDRAL>
0

>  <SCORE.SYSTEM.SOLV>
0

>  <SCORE.SYSTEM.norm>
0

>  <SCORE.heavy>
45

>  <SCORE.norm>
-1.00603

>  <RMSD>
0.601

$$$$
ligand
 OpenBabel11021811513D
libRbt.so/2013.1/901 2013/11/27
 45 51  0  0  0  0  0  0  0  0999 V2000
   97.3383   17.1374   97.2525 C   0  0  0  0  0  0  0  0  0  0  0  0
   95.0702   14.3552   94.7982 C   0  0  0  0  0  0  0  0  0  0  0  0
  102.0998   14.3440   98.6410 N   0  0  0  0  0  0  0  0  0  0  0  0
   97.5801   17.2460   98.5186 N   0  0  0  0  0  0  0  0  0  0  0  0
  100.2518   15.2846   97.5656 N   0  0  0  0  0  0  0  0  0  0  0  0
  100.5388   15.5913   99.8546 N   0  0  0  0  0  0  0  0  0  0  0  0
   98.9886   16.9192  101.1226 O   0  0  0  0  0  0  0  0  0  0  0  0
   92.3372   14.8388   96.1674 O   0  5  0  0  0  0  0  0  0  0  0  0
   98.2263   10.5623   93.9038 O   0  5  0  0  0  0  0  0  0  0  0  0
   99.4132   14.5890   94.0341 O   0  0  0  0  0  0  0  0  0  0  0  0
   93.4162   14.5311   98.0894 O   0  5  0  0  0  0  0  0  0  0  0  0
   99.3130   11.7178   95.4786 O   0  5  0  0  0  0  0  0  0  0  0  0
   94.6792   14.9554   95.9676 O   0  0  0  0  0  0  0  0  0  0  0  0
   96.8445   16.1826   94.7410 O   0  0  0  0  0  0  0  0  0  0  0  0
   97.4833   12.8101   94.0791 O   0  0  0  0  0  0  0  0  0  0  0  0
  100.8930   15.1054   98.6908 C   0  0  0  0  0  0  0  0  0  0  0  0
   99.4469   16.3390   99.9412 C   0  0  0  0  0  0  0  0  0  0  0  0
   98.6885   16.5611   98.7697 C   0  0  0  0  0  0  0  0  0  0  0  0
   99.1215   16.0286   97.5803 C   0  0  0  0  0  0  0  0  0  0  0  0
   98.5954   14.8337   95.1163 C   0  0  2  0  0  0  0  0  0  0  0  0
   96.4392   14.7379   94.4017 C   0  0  1  0  0  0  0  0  0  0  0  0
   97.2609   13.9459   94.9065 C   0  0  1  0  0  0  0  0  0  0  0  0
   98.2346   16.0895   95.3049 C   0  0  2  0  0  0  0  0  0  0  0  0
   98.2232   16.4135   96.6730 N   0  0  0  0  0  0  0  0  0  0  0  0
   93.4965   14.2493   96.6990 P   0  0  2  0  0  0  0  0  0  0  0  0
   98.0266   11.5837   94.8398 P   0  0  1  0  0  0  0  0  0  0  0  0
   95.5530   10.9260   95.3604 C   0  0  0  0  0  0  0  0  0  0  0  0
   96.9146   11.0513   95.8011 O   0  0  0  0  0  0  0  0  0  0  0  0
   94.5615   10.8025   96.4393 C   0  0  1  0  0  0  0  0  0  0  0  0
   95.1480    9.7875   97.5386 O   0  0  0  0  0  0  0  0  0  0  0  0
   94.4301   11.9030   97.0321 C   0  0  1  0  0  0  0  0  0  0  0  0
   93.4306   12.7438   96.4111 O   0  0  0  0  0  0  0  0  0  0  0  0
   94.1164   11.5127   98.4685 C   0  0  1  0  0  0  0  0  0  0  0  0
   92.8827   11.2825   98.5980 O   0  0  0  0  0  0  0  0  0  0  0  0
   94.8851   10.2090   98.6845 C   0  0  2  0  0  0  0  0  0  0  0  0
   96.2623   11.1697  103.5440 N   0  0  0  0  0  0  0  0  0  0  0  0
   95.0294   11.3286  102.9950 C   0  0  0  0  0  0  0  0  0  0  0  0
   94.8849   11.0123  101.7138 N   0  0  0  0  0  0  0  0  0  0  0  0
   95.8924   10.6068  100.9116 C   0  0  0  0  0  0  0  0  0  0  0  0
   97.1869   10.4298  101.4453 C   0  0  0  0  0  0  0  0  0  0  0  0
   97.3270   10.7527  102.8329 C   0  0  0  0  0  0  0  0  0  0  0  0
   98.6056   10.6258  103.4518 N   0  0  0  0  0  0  0  0  0  0  0  0
   97.9260   10.0016  100.4829 N   0  0  0  0  0  0  0  0  0  0  0  0
   97.1832    9.8774   99.3967 C   0  0  0  0  0  0  0  0  0  0  0  0
   95.9743   10.2506   99.6214 N   0  0  0  0  0  0  0  0  0  0  0  0
  1 24  1  0  0  0  0
  1  4  2  0  0  0  0
  2 13  1  0  0  0  0
  2 21  1  0  0  0  0
  3 16  1  0  0  0  0
  4 18  1  0  0  0  0
  5 19  2  0  0  0  0
  5 16  1  0  0  0  0
  6 16  2  0  0  0  0
  6 17  1  0  0  0  0
  7 17  1  0  0  0  0
 11 25  2  0  0  0  0
 12 26  2  0  0  0  0
 13 25  1  0  0  0  0
 14 23  1  0  0  0  0
 15 26  1  0  0  0  0
 17 18  2  0  0  0  0
 18 19  1  0  0  0  0
 19 24  1  0  0  0  0
 20 10  1  6  0  0  0
 20 22  1  0  0  0  0
 20 23  1  0  0  0  0
 21 14  1  1  0  0  0
 21 22  1  0  0  0  0
 22 15  1  6  0  0  0
 23 24  1  1  0  0  0
 25  8  1  6  0  0  0
 25 32  1  0  0  0  0
 26  9  1  6  0  0  0
 26 28  1  0  0  0  0
 27 28  1  0  0  0  0
 29 27  1  6  0  0  0
 29 30  1  0  0  0  0
 29 31  1  0  0  0  0
 30 35  1  0  0  0  0
 31 33  1  0  0  0  0
 31 32  1  6  0  0  0
 33 34  1  6  0  0  0
 33 35  1  0  0  0  0
 35 45  1  1  0  0  0
 36 41  2  0  0  0  0
 36 37  1  0  0  0  0
 37 38  2  0  0  0  0
 38 39  1  0  0  0  0
 39 40  2  0  0  0  0
 39 45  1  0  0  0  0
 40 41  1  0  0  0  0
 40 43  1  0  0  0  0
 41 42  1  0  0  0  0
 43 44  2  0  0  0  0
 44 45  1  0  0  0  0
M  CHG  4   8  -1   9  -1  11  -1  12  -1
M  END
>  <CHROM.1>
-24.01622210,-176.61848049,96.78579394,13.16599665,97.65005916,-1.21315308
0.67236477,2.00043174

>  <Name>
ligand

>  <RI>
0

>  <Rbt.Current_Directory>
/home/itssahil/PROJECTS/Mol_Feturizer/New_Systems/rnas/4YAZ

>  <Rbt.Executable>
rbdock ($Id: //depot/dev/client3/rdock/2013.1/src/exe/rbdock.cxx#4 $)

>  <Rbt.Library>
libRbt.so (2013.1, Build901 2013/11/27)

>  <Rbt.Parameter_File>
/export/apps/rDock/src/rDock_2013.1_src/data/scripts/dock_solv.prm

>  <Rbt.Receptor>
prm/pocket_docking_2.prm

>  <SCORE>
-45.3992

>  <SCORE.INTER>
-45.602

>  <SCORE.INTER.CONST>
1

>  <SCORE.INTER.POLAR>
0

>  <SCORE.INTER.ROT>
2

>  <SCORE.INTER.SOLV>
45.7045

>  <SCORE.INTER.VDW>
-50.5695

>  <SCORE.INTER.norm>
-1.01338

>  <SCORE.INTRA>
0.202809

>  <SCORE.INTRA.DIHEDRAL>
0.0119182

>  <SCORE.INTRA.DIHEDRAL.0>
2.39103

>  <SCORE.INTRA.POLAR>
0

>  <SCORE.INTRA.POLAR.0>
0

>  <SCORE.INTRA.REPUL>
0

>  <SCORE.INTRA.REPUL.0>
0

>  <SCORE.INTRA.SOLV>
0.0136256

>  <SCORE.INTRA.SOLV.lig_0>
-163.975

>  <SCORE.INTRA.VDW>
0.190038

>  <SCORE.INTRA.VDW.0>
-1.49176

>  <SCORE.INTRA.norm>
0.00450688

>  <SCORE.RESTR>
0

>  <SCORE.RESTR.CAVITY>
0

>  <SCORE.RESTR.norm>
0

>  <SCORE.SYSTEM>
0

>  <SCORE.SYSTEM.CONST>
0

>  <SCORE.SYSTEM.DIHEDRAL>
0

>  <SCORE.SYSTEM.SOLV>
0

>  <SCORE.SYSTEM.norm>
0

>  <SCORE.heavy>
45

>  <SCORE.norm>
-1.00887

>  <RMSD>
0.617

$$$$
ligand
 OpenBabel11021811513D
libRbt.so/2013.1/901 2013/11/27
 45 51  0  0  0  0  0  0  0  0999 V2000
   97.2220   16.9332   96.8780 C   0  0  0  0  0  0  0  0  0  0  0  0
   95.5097   14.9202   93.7728 C   0  0  0  0  0  0  0  0  0  0  0  0
  102.0868   15.2634   99.3169 N   0  0  0  0  0  0  0  0  0  0  0  0
   97.1877   17.1375   98.1548 N   0  0  0  0  0  0  0  0  0  0  0  0
  100.3312   15.7512   97.8554 N   0  0  0  0  0  0  0  0  0  0  0  0
  100.1028   16.1967  100.1281 N   0  0  0  0  0  0  0  0  0  0  0  0
   98.1025   17.2131  100.9884 O   0  0  0  0  0  0  0  0  0  0  0  0
   92.6471   15.9670   94.3087 O   0  5  0  0  0  0  0  0  0  0  0  0
   97.9902   10.5621   93.7319 O   0  5  0  0  0  0  0  0  0  0  0  0
   99.8484   14.2860   94.2972 O   0  0  0  0  0  0  0  0  0  0  0  0
   93.0478   15.5202   96.4519 O   0  5  0  0  0  0  0  0  0  0  0  0
   98.7819   11.5373   95.5808 O   0  5  0  0  0  0  0  0  0  0  0  0
   94.9239   15.6227   94.7945 O   0  0  0  0  0  0  0  0  0  0  0  0
   97.5455   16.3679   94.2736 O   0  0  0  0  0  0  0  0  0  0  0  0
   97.6796   12.9155   93.7411 O   0  0  0  0  0  0  0  0  0  0  0  0
  100.7654   15.7536   99.0886 C   0  0  0  0  0  0  0  0  0  0  0  0
   98.8874   16.6993   99.9577 C   0  0  0  0  0  0  0  0  0  0  0  0
   98.3410   16.7123   98.6545 C   0  0  0  0  0  0  0  0  0  0  0  0
   99.0936   16.2395   97.6078 C   0  0  0  0  0  0  0  0  0  0  0  0
   98.8181   14.7195   95.1038 C   0  0  2  0  0  0  0  0  0  0  0  0
   96.9820   15.0182   93.7967 C   0  0  1  0  0  0  0  0  0  0  0  0
   97.4541   14.0995   94.4971 C   0  0  1  0  0  0  0  0  0  0  0  0
   98.6695   16.0268   95.2114 C   0  0  2  0  0  0  0  0  0  0  0  0
   98.3291   16.3917   96.5258 N   0  0  0  0  0  0  0  0  0  0  0  0
   93.4674   15.1826   95.1369 P   0  0  2  0  0  0  0  0  0  0  0  0
   97.7326   11.6331   94.5956 P   0  0  1  0  0  0  0  0  0  0  0  0
   95.1352   11.4827   94.3658 C   0  0  0  0  0  0  0  0  0  0  0  0
   96.3102   11.3573   95.1828 O   0  0  0  0  0  0  0  0  0  0  0  0
   93.8714   11.5885   95.1102 C   0  0  1  0  0  0  0  0  0  0  0  0
   93.9089   10.5160   96.3066 O   0  0  0  0  0  0  0  0  0  0  0  0
   93.7918   12.7125   95.6670 C   0  0  1  0  0  0  0  0  0  0  0  0
   93.1959   13.7095   94.8054 O   0  0  0  0  0  0  0  0  0  0  0  0
   93.0094   12.4375   96.9422 C   0  0  1  0  0  0  0  0  0  0  0  0
   91.7703   12.4542   96.7054 O   0  0  0  0  0  0  0  0  0  0  0  0
   93.4153   11.0178   97.3383 C   0  0  2  0  0  0  0  0  0  0  0  0
   97.5981    8.9581   99.5052 N   0  0  0  0  0  0  0  0  0  0  0  0
   97.1618    8.7770   98.2310 C   0  0  0  0  0  0  0  0  0  0  0  0
   96.0542    9.4123   97.8676 N   0  0  0  0  0  0  0  0  0  0  0  0
   95.3046   10.1700   98.6965 C   0  0  0  0  0  0  0  0  0  0  0  0
   95.7252   10.3817  100.0269 C   0  0  0  0  0  0  0  0  0  0  0  0
   96.9322    9.7098  100.4022 C   0  0  0  0  0  0  0  0  0  0  0  0
   97.4206    9.8478  101.7350 N   0  0  0  0  0  0  0  0  0  0  0  0
   94.8588   11.1656  100.5661 N   0  0  0  0  0  0  0  0  0  0  0  0
   93.9436   11.4755   99.6642 C   0  0  0  0  0  0  0  0  0  0  0  0
   94.1761   10.8792   98.5498 N   0  0  0  0  0  0  0  0  0  0  0  0
  1 24  1  0  0  0  0
  1  4  2  0  0  0  0
  2 13  1  0  0  0  0
  2 21  1  0  0  0  0
  3 16  1  0  0  0  0
  4 18  1  0  0  0  0
  5 19  2  0  0  0  0
  5 16  1  0  0  0  0
  6 16  2  0  0  0  0
  6 17  1  0  0  0  0
  7 17  1  0  0  0  0
 11 25  2  0  0  0  0
 12 26  2  0  0  0  0
 13 25  1  0  0  0  0
 14 23  1  0  0  0  0
 15 26  1  0  0  0  0
 17 18  2  0  0  0  0
 18 19  1  0  0  0  0
 19 24  1  0  0  0  0
 20 10  1  6  0  0  0
 20 22  1  0  0  0  0
 20 23  1  0  0  0  0
 21 14  1  1  0  0  0
 21 22  1  0  0  0  0
 22 15  1  6  0  0  0
 23 24  1  1  0  0  0
 25  8  1  6  0  0  0
 25 32  1  0  0  0  0
 26  9  1  6  0  0  0
 26 28  1  0  0  0  0
 27 28  1  0  0  0  0
 29 27  1  1  0  0  0
 29 30  1  0  0  0  0
 29 31  1  0  0  0  0
 30 35  1  0  0  0  0
 31 33  1  0  0  0  0
 31 32  1  6  0  0  0
 33 34  1  6  0  0  0
 33 35  1  0  0  0  0
 35 45  1  1  0  0  0
 36 41  2  0  0  0  0
 36 37  1  0  0  0  0
 37 38  2  0  0  0  0
 38 39  1  0  0  0  0
 39 40  2  0  0  0  0
 39 45  1  0  0  0  0
 40 41  1  0  0  0  0
 40 43  1  0  0  0  0
 41 42  1  0  0  0  0
 43 44  2  0  0  0  0
 44 45  1  0  0  0  0
M  CHG  4   8  -1   9  -1  11  -1  12  -1
M  END
>  <CHROM.1>
0.16087530,-5.92004665,96.46681600,13.40888377,96.73039974,0.52088328,-0.65446042
-0.68891562

>  <Name>
ligand

>  <RI>
0

>  <Rbt.Current_Directory>
/home/itssahil/PROJECTS/Mol_Feturizer/New_Systems/rnas/4YAZ

>  <Rbt.Executable>
rbdock ($Id: //depot/dev/client3/rdock/2013.1/src/exe/rbdock.cxx#4 $)

>  <Rbt.Library>
libRbt.so (2013.1, Build901 2013/11/27)

>  <Rbt.Parameter_File>
/export/apps/rDock/src/rDock_2013.1_src/data/scripts/dock_solv.prm

>  <Rbt.Receptor>
prm/pocket_docking_2.prm

>  <SCORE>
-37.8565

>  <SCORE.INTER>
-37.5626

>  <SCORE.INTER.CONST>
1

>  <SCORE.INTER.POLAR>
0

>  <SCORE.INTER.ROT>
2

>  <SCORE.INTER.SOLV>
39.1215

>  <SCORE.INTER.VDW>
-43.0155

>  <SCORE.INTER.norm>
-0.834724

>  <SCORE.INTRA>
-0.526173

>  <SCORE.INTRA.DIHEDRAL>
0.0657482

>  <SCORE.INTRA.DIHEDRAL.0>
2.39103

>  <SCORE.INTRA.POLAR>
0

>  <SCORE.INTRA.POLAR.0>
0

>  <SCORE.INTRA.REPUL>
0

>  <SCORE.INTRA.REPUL.0>
0

>  <SCORE.INTRA.SOLV>
-0.00824197

>  <SCORE.INTRA.SOLV.lig_0>
-163.975

>  <SCORE.INTRA.VDW>
-0.554926

>  <SCORE.INTRA.VDW.0>
-1.49176

>  <SCORE.INTRA.norm>
-0.0116927

>  <SCORE.RESTR>
0.232276

>  <SCORE.RESTR.CAVITY>
0.232276

>  <SCORE.RESTR.norm>
0.00516169

>  <SCORE.SYSTEM>
0

>  <SCORE.SYSTEM.CONST>
0

>  <SCORE.SYSTEM.DIHEDRAL>
0

>  <SCORE.SYSTEM.SOLV>
0

>  <SCORE.SYSTEM.norm>
0

>  <SCORE.heavy>
45

>  <SCORE.norm>
-0.841255

>  <RMSD>
1.694

$$$$
ligand
 OpenBabel11021811513D
libRbt.so/2013.1/901 2013/11/27
 45 51  0  0  0  0  0  0  0  0999 V2000
   97.2485   16.9372   96.8679 C   0  0  0  0  0  0  0  0  0  0  0  0
   95.5243   14.9179   93.7661 C   0  0  0  0  0  0  0  0  0  0  0  0
  102.0769   15.1902   99.3251 N   0  0  0  0  0  0  0  0  0  0  0  0
   97.2123   17.1411   98.1447 N   0  0  0  0  0  0  0  0  0  0  0  0
  100.3350   15.7063   97.8569 N   0  0  0  0  0  0  0  0  0  0  0  0
  100.1044   16.1538  100.1290 N   0  0  0  0  0  0  0  0  0  0  0  0
   98.1167   17.2006  100.9820 O   0  0  0  0  0  0  0  0  0  0  0  0
   92.6669   15.9816   94.2966 O   0  5  0  0  0  0  0  0  0  0  0  0
   97.9803   10.5458   93.7365 O   0  5  0  0  0  0  0  0  0  0  0  0
   99.8586   14.2603   94.2970 O   0  0  0  0  0  0  0  0  0  0  0  0
   93.0625   15.5366   96.4411 O   0  5  0  0  0  0  0  0  0  0  0  0
   98.7753   11.5201   95.5845 O   0  5  0  0  0  0  0  0  0  0  0  0
   94.9411   15.6255   94.7858 O   0  0  0  0  0  0  0  0  0  0  0  0
   97.5674   16.3550   94.2667 O   0  0  0  0  0  0  0  0  0  0  0  0
   97.6829   12.9010   93.7408 O   0  0  0  0  0  0  0  0  0  0  0  0
  100.7642   15.7011   99.0918 C   0  0  0  0  0  0  0  0  0  0  0  0
   98.8977   16.6754   99.9541 C   0  0  0  0  0  0  0  0  0  0  0  0
   98.3568   16.6977   98.6487 C   0  0  0  0  0  0  0  0  0  0  0  0
   99.1061   16.2139   97.6047 C   0  0  0  0  0  0  0  0  0  0  0  0
   98.8299   14.7011   95.1015 C   0  0  2  0  0  0  0  0  0  0  0  0
   96.9971   15.0076   93.7916 C   0  0  1  0  0  0  0  0  0  0  0  0
   97.4631   14.0876   94.4943 C   0  0  1  0  0  0  0  0  0  0  0  0
   98.6885   16.0094   95.2065 C   0  0  2  0  0  0  0  0  0  0  0  0
   98.3484   16.3788   96.5197 N   0  0  0  0  0  0  0  0  0  0  0  0
   93.4818   15.1942   95.1272 P   0  0  2  0  0  0  0  0  0  0  0  0
   97.7277   11.6198   94.5978 P   0  0  1  0  0  0  0  0  0  0  0  0
   95.1297   11.4836   94.3652 C   0  0  0  0  0  0  0  0  0  0  0  0
   96.3031   11.3531   95.1838 O   0  0  0  0  0  0  0  0  0  0  0  0
   93.8657   11.5978   95.1078 C   0  0  1  0  0  0  0  0  0  0  0  0
   93.8957   10.5274   96.3062 O   0  0  0  0  0  0  0  0  0  0  0  0
   93.7917   12.7233   95.6624 C   0  0  1  0  0  0  0  0  0  0  0  0
   93.2024   13.7220   94.7981 O   0  0  0  0  0  0  0  0  0  0  0  0
   93.0062   12.4551   96.9372 C   0  0  1  0  0  0  0  0  0  0  0  0
   91.7675   12.4783   96.6988 O   0  0  0  0  0  0  0  0  0  0  0  0
   93.4036   11.0339   97.3364 C   0  0  2  0  0  0  0  0  0  0  0  0
   97.5971    8.9937   99.5012 N   0  0  0  0  0  0  0  0  0  0  0  0
   97.1658    8.8176   98.2246 C   0  0  0  0  0  0  0  0  0  0  0  0
   96.0540    9.4463   97.8624 N   0  0  0  0  0  0  0  0  0  0  0  0
   95.2960   10.1923   98.6942 C   0  0  0  0  0  0  0  0  0  0  0  0
   95.7112   10.3985  100.0272 C   0  0  0  0  0  0  0  0  0  0  0  0
   96.9226    9.7339  100.4014 C   0  0  0  0  0  0  0  0  0  0  0  0
   97.4062    9.8669  101.7365 N   0  0  0  0  0  0  0  0  0  0  0  0
   94.8370   11.1718  100.5691 N   0  0  0  0  0  0  0  0  0  0  0  0
   93.9218   11.4802   99.6668 C   0  0  0  0  0  0  0  0  0  0  0  0
   94.1622   10.8934   98.5491 N   0  0  0  0  0  0  0  0  0  0  0  0
  1 24  1  0  0  0  0
  1  4  2  0  0  0  0
  2 13  1  0  0  0  0
  2 21  1  0  0  0  0
  3 16  1  0  0  0  0
  4 18  1  0  0  0  0
  5 19  2  0  0  0  0
  5 16  1  0  0  0  0
  6 16  2  0  0  0  0
  6 17  1  0  0  0  0
  7 17  1  0  0  0  0
 11 25  2  0  0  0  0
 12 26  2  0  0  0  0
 13 25  1  0  0  0  0
 14 23  1  0  0  0  0
 15 26  1  0  0  0  0
 17 18  2  0  0  0  0
 18 19  1  0  0  0  0
 19 24  1  0  0  0  0
 20 10  1  6  0  0  0
 20 22  1  0  0  0  0
 20 23  1  0  0  0  0
 21 14  1  1  0  0  0
 21 22  1  0  0  0  0
 22 15  1  6  0  0  0
 23 24  1  1  0  0  0
 25  8  1  6  0  0  0
 25 32  1  0  0  0  0
 26  9  1  6  0  0  0
 26 28  1  0  0  0  0
 27 28  1  0  0  0  0
 29 27  1  1  0  0  0
 29 30  1  0  0  0  0
 29 31  1  0  0  0  0
 30 35  1  0  0  0  0
 31 33  1  0  0  0  0
 31 32  1  6  0  0  0
 33 34  1  6  0  0  0
 33 35  1  0  0  0  0
 35 45  1  1  0  0  0
 36 41  2  0  0  0  0
 36 37  1  0  0  0  0
 37 38  2  0  0  0  0
 38 39  1  0  0  0  0
 39 40  2  0  0  0  0
 39 45  1  0  0  0  0
 40 41  1  0  0  0  0
 40 43  1  0  0  0  0
 41 42  1  0  0  0  0
 43 44  2  0  0  0  0
 44 45  1  0  0  0  0
M  CHG  4   8  -1   9  -1  11  -1  12  -1
M  END
>  <CHROM.1>
-0.45028070,-4.98909765,96.46978167,13.40681070,96.72740201,0.50397006,-0.65057476
-0.69587458

>  <Name>
ligand

>  <RI>
0

>  <Rbt.Current_Directory>
/home/itssahil/PROJECTS/Mol_Feturizer/New_Systems/rnas/4YAZ

>  <Rbt.Executable>
rbdock ($Id: //depot/dev/client3/rdock/2013.1/src/exe/rbdock.cxx#4 $)

>  <Rbt.Library>
libRbt.so (2013.1, Build901 2013/11/27)

>  <Rbt.Parameter_File>
/export/apps/rDock/src/rDock_2013.1_src/data/scripts/dock_solv.prm

>  <Rbt.Receptor>
prm/pocket_docking_2.prm

>  <SCORE>
-37.7503

>  <SCORE.INTER>
-37.4212

>  <SCORE.INTER.CONST>
1

>  <SCORE.INTER.POLAR>
0

>  <SCORE.INTER.ROT>
2

>  <SCORE.INTER.SOLV>
39.0502

>  <SCORE.INTER.VDW>
-42.8975

>  <SCORE.INTER.norm>
-0.831582

>  <SCORE.INTRA>
-0.545115

>  <SCORE.INTRA.DIHEDRAL>
0.0594425

>  <SCORE.INTRA.DIHEDRAL.0>
2.39103

>  <SCORE.INTRA.POLAR>
0

>  <SCORE.INTRA.POLAR.0>
0

>  <SCORE.INTRA.REPUL>
0

>  <SCORE.INTRA.REPUL.0>
0

>  <SCORE.INTRA.SOLV>
-0.00815458

>  <SCORE.INTRA.SOLV.lig_0>
-163.975

>  <SCORE.INTRA.VDW>
-0.570759

>  <SCORE.INTRA.VDW.0>
-1.49176

>  <SCORE.INTRA.norm>
-0.0121137

>  <SCORE.RESTR>
0.215964

>  <SCORE.RESTR.CAVITY>
0.215964

>  <SCORE.RESTR.norm>
0.00479919

>  <SCORE.SYSTEM>
0

>  <SCORE.SYSTEM.CONST>
0

>  <SCORE.SYSTEM.DIHEDRAL>
0

>  <SCORE.SYSTEM.SOLV>
0

>  <SCORE.SYSTEM.norm>
0

>  <SCORE.heavy>
45

>  <SCORE.norm>
-0.838897

>  <RMSD>
1.696

$$$$
ligand
 OpenBabel11021811513D
libRbt.so/2013.1/901 2013/11/27
 45 51  0  0  0  0  0  0  0  0999 V2000
   97.2021   16.9023   96.8634 C   0  0  0  0  0  0  0  0  0  0  0  0
   95.4987   14.9013   93.7578 C   0  0  0  0  0  0  0  0  0  0  0  0
  102.1038   15.3287   99.2924 N   0  0  0  0  0  0  0  0  0  0  0  0
   97.1695   17.1138   98.1391 N   0  0  0  0  0  0  0  0  0  0  0  0
  100.3344   15.7782   97.8351 N   0  0  0  0  0  0  0  0  0  0  0  0
  100.1078   16.2338  100.1060 N   0  0  0  0  0  0  0  0  0  0  0  0
   98.0943   17.2220  100.9683 O   0  0  0  0  0  0  0  0  0  0  0  0
   92.6360   15.9496   94.2901 O   0  5  0  0  0  0  0  0  0  0  0  0
   97.9783   10.5426   93.7261 O   0  5  0  0  0  0  0  0  0  0  0  0
   99.8369   14.2671   94.2860 O   0  0  0  0  0  0  0  0  0  0  0  0
   93.0352   15.5065   96.4343 O   0  5  0  0  0  0  0  0  0  0  0  0
   98.7691   11.5209   95.5737 O   0  5  0  0  0  0  0  0  0  0  0  0
   94.9124   15.6057   94.7779 O   0  0  0  0  0  0  0  0  0  0  0  0
   97.5344   16.3495   94.2573 O   0  0  0  0  0  0  0  0  0  0  0  0
   97.6682   12.8961   93.7309 O   0  0  0  0  0  0  0  0  0  0  0  0
  100.7735   15.7954   99.0665 C   0  0  0  0  0  0  0  0  0  0  0  0
   98.8835   16.7151   99.9376 C   0  0  0  0  0  0  0  0  0  0  0  0
   98.3318   16.7110   98.6366 C   0  0  0  0  0  0  0  0  0  0  0  0
   99.0879   16.2442   97.5897 C   0  0  0  0  0  0  0  0  0  0  0  0
   98.8062   14.7023   95.0912 C   0  0  2  0  0  0  0  0  0  0  0  0
   96.9710   14.9990   93.7824 C   0  0  1  0  0  0  0  0  0  0  0  0
   97.4424   14.0815   94.4847 C   0  0  1  0  0  0  0  0  0  0  0  0
   98.6578   16.0098   95.1964 C   0  0  2  0  0  0  0  0  0  0  0  0
   98.3166   16.3771   96.5099 N   0  0  0  0  0  0  0  0  0  0  0  0
   93.4556   15.1665   95.1202 P   0  0  2  0  0  0  0  0  0  0  0  0
   97.7204   11.6152   94.5878 P   0  0  1  0  0  0  0  0  0  0  0  0
   95.1230   11.4649   94.3566 C   0  0  0  0  0  0  0  0  0  0  0  0
   96.2976   11.3407   95.1745 O   0  0  0  0  0  0  0  0  0  0  0  0
   93.8588   11.5723   95.1000 C   0  0  1  0  0  0  0  0  0  0  0  0
   93.8953   10.5019   96.2983 O   0  0  0  0  0  0  0  0  0  0  0  0
   93.7791   12.6973   95.6548 C   0  0  1  0  0  0  0  0  0  0  0  0
   93.1839   13.6929   94.7910 O   0  0  0  0  0  0  0  0  0  0  0  0
   92.9959   12.4247   96.9300 C   0  0  1  0  0  0  0  0  0  0  0  0
   91.7569   12.4412   96.6924 O   0  0  0  0  0  0  0  0  0  0  0  0
   93.4012   11.0056   97.3288 C   0  0  2  0  0  0  0  0  0  0  0  0
   97.5806    8.9463   99.5027 N   0  0  0  0  0  0  0  0  0  0  0  0
   97.1448    8.7627   98.2286 C   0  0  0  0  0  0  0  0  0  0  0  0
   96.0380    9.3984   97.8632 N   0  0  0  0  0  0  0  0  0  0  0  0
   95.2888   10.1588   98.6899 C   0  0  0  0  0  0  0  0  0  0  0  0
   95.7090   10.3731  100.0201 C   0  0  0  0  0  0  0  0  0  0  0  0
   96.9151    9.7008  100.3976 C   0  0  0  0  0  0  0  0  0  0  0  0
   97.4029    9.8414  101.7304 N   0  0  0  0  0  0  0  0  0  0  0  0
   94.8432   11.1593  100.5570 N   0  0  0  0  0  0  0  0  0  0  0  0
   93.9288   11.4681   99.6540 C   0  0  0  0  0  0  0  0  0  0  0  0
   94.1612   10.8690   98.5411 N   0  0  0  0  0  0  0  0  0  0  0  0
  1 24  1  0  0  0  0
  1  4  2  0  0  0  0
  2 13  1  0  0  0  0
  2 21  1  0  0  0  0
  3 16  1  0  0  0  0
  4 18  1  0  0  0  0
  5 19  2  0  0  0  0
  5 16  1  0  0  0  0
  6 16  2  0  0  0  0
  6 17  1  0  0  0  0
  7 17  1  0  0  0  0
 11 25  2  0  0  0  0
 12 26  2  0  0  0  0
 13 25  1  0  0  0  0
 14 23  1  0  0  0  0
 15 26  1  0  0  0  0
 17 18  2  0  0  0  0
 18 19  1  0  0  0  0
 19 24  1  0  0  0  0
 20 10  1  6  0  0  0
 20 22  1  0  0  0  0
 20 23  1  0  0  0  0
 21 14  1  1  0  0  0
 21 22  1  0  0  0  0
 22 15  1  6  0  0  0
 23 24  1  1  0  0  0
 25  8  1  6  0  0  0
 25 32  1  0  0  0  0
 26  9  1  6  0  0  0
 26 28  1  0  0  0  0
 27 28  1  0  0  0  0
 29 27  1  1  0  0  0
 29 30  1  0  0  0  0
 29 31  1  0  0  0  0
 30 35  1  0  0  0  0
 31 33  1  0  0  0  0
 31 32  1  6  0  0  0
 33 34  1  6  0  0  0
 33 35  1  0  0  0  0
 35 45  1  1  0  0  0
 36 41  2  0  0  0  0
 36 37  1  0  0  0  0
 37 38  2  0  0  0  0
 38 39  1  0  0  0  0
 39 40  2  0  0  0  0
 39 45  1  0  0  0  0
 40 41  1  0  0  0  0
 40 43  1  0  0  0  0
 41 42  1  0  0  0  0
 43 44  2  0  0  0  0
 44 45  1  0  0  0  0
M  CHG  4   8  -1   9  -1  11  -1  12  -1
M  END
>  <CHROM.1>
1.19450555,-5.98181771,96.45567405,13.39988889,96.71781548,0.51945349,-0.65607141
-0.69097379

>  <Name>
ligand

>  <RI>
0

>  <Rbt.Current_Directory>
/home/itssahil/PROJECTS/Mol_Feturizer/New_Systems/rnas/4YAZ

>  <Rbt.Executable>
rbdock ($Id: //depot/dev/client3/rdock/2013.1/src/exe/rbdock.cxx#4 $)

>  <Rbt.Library>
libRbt.so (2013.1, Build901 2013/11/27)

>  <Rbt.Parameter_File>
/export/apps/rDock/src/rDock_2013.1_src/data/scripts/dock_solv.prm

>  <Rbt.Receptor>
prm/pocket_docking_2.prm

>  <SCORE>
-37.7854

>  <SCORE.INTER>
-37.4927

>  <SCORE.INTER.CONST>
1

>  <SCORE.INTER.POLAR>
0

>  <SCORE.INTER.ROT>
2

>  <SCORE.INTER.SOLV>
38.9413

>  <SCORE.INTER.VDW>
-42.9089

>  <SCORE.INTER.norm>
-0.833172

>  <SCORE.INTRA>
-0.541005

>  <SCORE.INTRA.DIHEDRAL>
0.0664453

>  <SCORE.INTRA.DIHEDRAL.0>
2.39103

>  <SCORE.INTRA.POLAR>
0

>  <SCORE.INTRA.POLAR.0>
0

>  <SCORE.INTRA.REPUL>
0

>  <SCORE.INTRA.REPUL.0>
0

>  <SCORE.INTRA.SOLV>
-0.00988603

>  <SCORE.INTRA.SOLV.lig_0>
-163.975

>  <SCORE.INTRA.VDW>
-0.569285

>  <SCORE.INTRA.VDW.0>
-1.49176

>  <SCORE.INTRA.norm>
-0.0120223

>  <SCORE.RESTR>
0.248351

>  <SCORE.RESTR.CAVITY>
0.248351

>  <SCORE.RESTR.norm>
0.00551892

>  <SCORE.SYSTEM>
0

>  <SCORE.SYSTEM.CONST>
0

>  <SCORE.SYSTEM.DIHEDRAL>
0

>  <SCORE.SYSTEM.SOLV>
0

>  <SCORE.SYSTEM.norm>
0

>  <SCORE.heavy>
45

>  <SCORE.norm>
-0.839675

>  <RMSD>
1.698

$$$$
ligand
 OpenBabel11021811513D
libRbt.so/2013.1/901 2013/11/27
 45 51  0  0  0  0  0  0  0  0999 V2000
   97.2177   16.9148   96.8601 C   0  0  0  0  0  0  0  0  0  0  0  0
   95.5122   14.8990   93.7548 C   0  0  0  0  0  0  0  0  0  0  0  0
  102.0799   15.2579   99.3130 N   0  0  0  0  0  0  0  0  0  0  0  0
   97.1807   17.1227   98.1363 N   0  0  0  0  0  0  0  0  0  0  0  0
  100.3265   15.7394   97.8468 N   0  0  0  0  0  0  0  0  0  0  0  0
  100.0932   16.1911  100.1178 N   0  0  0  0  0  0  0  0  0  0  0  0
   98.0900   17.2075  100.9713 O   0  0  0  0  0  0  0  0  0  0  0  0
   92.6493   15.9501   94.2811 O   0  5  0  0  0  0  0  0  0  0  0  0
   97.9879   10.5380   93.7301 O   0  5  0  0  0  0  0  0  0  0  0  0
   99.8487   14.2612   94.2916 O   0  0  0  0  0  0  0  0  0  0  0  0
   93.0441   15.5077   96.4263 O   0  5  0  0  0  0  0  0  0  0  0  0
   98.7760   11.5165   95.5787 O   0  5  0  0  0  0  0  0  0  0  0  0
   94.9245   15.6044   94.7734 O   0  0  0  0  0  0  0  0  0  0  0  0
   97.5482   16.3456   94.2575 O   0  0  0  0  0  0  0  0  0  0  0  0
   97.6799   12.8919   93.7331 O   0  0  0  0  0  0  0  0  0  0  0  0
  100.7583   15.7459   99.0808 C   0  0  0  0  0  0  0  0  0  0  0  0
   98.8775   16.6918   99.9437 C   0  0  0  0  0  0  0  0  0  0  0  0
   98.3336   16.7004   98.6394 C   0  0  0  0  0  0  0  0  0  0  0  0
   99.0887   16.2254   97.5955 C   0  0  0  0  0  0  0  0  0  0  0  0
   98.8169   14.6976   95.0946 C   0  0  2  0  0  0  0  0  0  0  0  0
   96.9845   14.9954   93.7822 C   0  0  1  0  0  0  0  0  0  0  0  0
   97.4537   14.0778   94.4858 C   0  0  1  0  0  0  0  0  0  0  0  0
   98.6695   16.0053   95.1989 C   0  0  2  0  0  0  0  0  0  0  0  0
   98.3261   16.3736   96.5116 N   0  0  0  0  0  0  0  0  0  0  0  0
   93.4667   15.1667   95.1131 P   0  0  2  0  0  0  0  0  0  0  0  0
   97.7293   11.6113   94.5907 P   0  0  1  0  0  0  0  0  0  0  0  0
   95.1323   11.4632   94.3546 C   0  0  0  0  0  0  0  0  0  0  0  0
   96.3052   11.3384   95.1748 O   0  0  0  0  0  0  0  0  0  0  0  0
   93.8668   11.5721   95.0956 C   0  0  1  0  0  0  0  0  0  0  0  0
   93.9000   10.5023   96.2945 O   0  0  0  0  0  0  0  0  0  0  0  0
   93.7869   12.6974   95.6496 C   0  0  1  0  0  0  0  0  0  0  0  0
   93.1943   13.6931   94.7842 O   0  0  0  0  0  0  0  0  0  0  0  0
   93.0011   12.4262   96.9235 C   0  0  1  0  0  0  0  0  0  0  0  0
   91.7626   12.4437   96.6835 O   0  0  0  0  0  0  0  0  0  0  0  0
   93.4043   11.0069   97.3237 C   0  0  2  0  0  0  0  0  0  0  0  0
   97.5914    8.9662   99.5006 N   0  0  0  0  0  0  0  0  0  0  0  0
   97.1602    8.7851   98.2246 C   0  0  0  0  0  0  0  0  0  0  0  0
   96.0503    9.4150   97.8588 N   0  0  0  0  0  0  0  0  0  0  0  0
   95.2938   10.1670   98.6865 C   0  0  0  0  0  0  0  0  0  0  0  0
   95.7089   10.3785  100.0188 C   0  0  0  0  0  0  0  0  0  0  0  0
   96.9184    9.7126  100.3968 C   0  0  0  0  0  0  0  0  0  0  0  0
   97.4016    9.8507  101.7315 N   0  0  0  0  0  0  0  0  0  0  0  0
   94.8364   11.1566  100.5565 N   0  0  0  0  0  0  0  0  0  0  0  0
   93.9225   11.4631   99.6523 C   0  0  0  0  0  0  0  0  0  0  0  0
   94.1619   10.8703   98.5375 N   0  0  0  0  0  0  0  0  0  0  0  0
  1 24  1  0  0  0  0
  1  4  2  0  0  0  0
  2 13  1  0  0  0  0
  2 21  1  0  0  0  0
  3 16  1  0  0  0  0
  4 18  1  0  0  0  0
  5 19  2  0  0  0  0
  5 16  1  0  0  0  0
  6 16  2  0  0  0  0
  6 17  1  0  0  0  0
  7 17  1  0  0  0  0
 11 25  2  0  0  0  0
 12 26  2  0  0  0  0
 13 25  1  0  0  0  0
 14 23  1  0  0  0  0
 15 26  1  0  0  0  0
 17 18  2  0  0  0  0
 18 19  1  0  0  0  0
 19 24  1  0  0  0  0
 20 10  1  6  0  0  0
 20 22  1  0  0  0  0
 20 23  1  0  0  0  0
 21 14  1  1  0  0  0
 21 22  1  0  0  0  0
 22 15  1  6  0  0  0
 23 24  1  1  0  0  0
 25  8  1  6  0  0  0
 25 32  1  0  0  0  0
 26  9  1  6  0  0  0
 26 28  1  0  0  0  0
 27 28  1  0  0  0  0
 29 27  1  1  0  0  0
 29 30  1  0  0  0  0
 29 31  1  0  0  0  0
 30 35  1  0  0  0  0
 31 33  1  0  0  0  0
 31 32  1  6  0  0  0
 33 34  1  6  0  0  0
 33 35  1  0  0  0  0
 35 45  1  1  0  0  0
 36 41  2  0  0  0  0
 36 37  1  0  0  0  0
 37 38  2  0  0  0  0
 38 39  1  0  0  0  0
 39 40  2  0  0  0  0
 39 45  1  0  0  0  0
 40 41  1  0  0  0  0
 40 43  1  0  0  0  0
 41 42  1  0  0  0  0
 43 44  2  0  0  0  0
 44 45  1  0  0  0  0
M  CHG  4   8  -1   9  -1  11  -1  12  -1
M  END
>  <CHROM.1>
0.30329841,-5.47113627,96.46126303,13.39546880,96.71769945,0.51208321,-0.65561495
-0.69359786

>  <Name>
ligand

>  <RI>
0

>  <Rbt.Current_Directory>
/home/itssahil/PROJECTS/Mol_Feturizer/New_Systems/rnas/4YAZ

>  <Rbt.Executable>
rbdock ($Id: //depot/dev/client3/rdock/2013.1/src/exe/rbdock.cxx#4 $)

>  <Rbt.Library>
libRbt.so (2013.1, Build901 2013/11/27)

>  <Rbt.Parameter_File>
/export/apps/rDock/src/rDock_2013.1_src/data/scripts/dock_solv.prm

>  <Rbt.Receptor>
prm/pocket_docking_2.prm

>  <SCORE>
-37.8689

>  <SCORE.INTER>
-37.5873

>  <SCORE.INTER.CONST>
1

>  <SCORE.INTER.POLAR>
0

>  <SCORE.INTER.ROT>
2

>  <SCORE.INTER.SOLV>
38.8503

>  <SCORE.INTER.VDW>
-42.9416

>  <SCORE.INTER.norm>
-0.835273

>  <SCORE.INTRA>
-0.542473

>  <SCORE.INTRA.DIHEDRAL>
0.0628483

>  <SCORE.INTRA.DIHEDRAL.0>
2.39103

>  <SCORE.INTRA.POLAR>
0

>  <SCORE.INTRA.POLAR.0>
0

>  <SCORE.INTRA.REPUL>
0

>  <SCORE.INTRA.REPUL.0>
0

>  <SCORE.INTRA.SOLV>
-0.00900551

>  <SCORE.INTRA.SOLV.lig_0>
-163.975

>  <SCORE.INTRA.VDW>
-0.569395

>  <SCORE.INTRA.VDW.0>
-1.49176

>  <SCORE.INTRA.norm>
-0.012055

>  <SCORE.RESTR>
0.260822

>  <SCORE.RESTR.CAVITY>
0.260822

>  <SCORE.RESTR.norm>
0.00579604

>  <SCORE.SYSTEM>
0

>  <SCORE.SYSTEM.CONST>
0

>  <SCORE.SYSTEM.DIHEDRAL>
0

>  <SCORE.SYSTEM.SOLV>
0

>  <SCORE.SYSTEM.norm>
0

>  <SCORE.heavy>
45

>  <SCORE.norm>
-0.841532

>  <RMSD>
1.698

$$$$
ligand
 OpenBabel11021811513D
libRbt.so/2013.1/901 2013/11/27
 45 51  0  0  0  0  0  0  0  0999 V2000
   97.2947   16.8496   96.7536 C   0  0  0  0  0  0  0  0  0  0  0  0
   95.6601   14.8273   93.6383 C   0  0  0  0  0  0  0  0  0  0  0  0
  102.1894   15.4134   99.2799 N   0  0  0  0  0  0  0  0  0  0  0  0
   97.2398   17.0837   98.0246 N   0  0  0  0  0  0  0  0  0  0  0  0
  100.4331   15.8028   97.7898 N   0  0  0  0  0  0  0  0  0  0  0  0
  100.1654   16.2954  100.0485 N   0  0  0  0  0  0  0  0  0  0  0  0
   98.1216   17.2610  100.8640 O   0  0  0  0  0  0  0  0  0  0  0  0
   92.7877   15.8827   94.1003 O   0  5  0  0  0  0  0  0  0  0  0  0
   98.1385   10.4684   93.7131 O   0  5  0  0  0  0  0  0  0  0  0  0
   99.9868   14.2000   94.2601 O   0  0  0  0  0  0  0  0  0  0  0  0
   93.1446   15.4679   96.2576 O   0  5  0  0  0  0  0  0  0  0  0  0
   98.8931   11.4710   95.5628 O   0  5  0  0  0  0  0  0  0  0  0  0
   95.0540   15.5451   94.6373 O   0  0  0  0  0  0  0  0  0  0  0  0
   97.6860   16.2818   94.1586 O   0  0  0  0  0  0  0  0  0  0  0  0
   97.8291   12.8218   93.6807 O   0  0  0  0  0  0  0  0  0  0  0  0
  100.8540   15.8508   99.0267 C   0  0  0  0  0  0  0  0  0  0  0  0
   98.9349   16.7503   99.8540 C   0  0  0  0  0  0  0  0  0  0  0  0
   98.4021   16.7120   98.5457 C   0  0  0  0  0  0  0  0  0  0  0  0
   99.1818   16.2407   97.5183 C   0  0  0  0  0  0  0  0  0  0  0  0
   98.9407   14.6457   95.0390 C   0  0  2  0  0  0  0  0  0  0  0  0
   97.1316   14.9252   93.6906 C   0  0  1  0  0  0  0  0  0  0  0  0
   97.5889   14.0170   94.4141 C   0  0  1  0  0  0  0  0  0  0  0  0
   98.7907   15.9545   95.1240 C   0  0  2  0  0  0  0  0  0  0  0  0
   98.4238   16.3392   96.4256 N   0  0  0  0  0  0  0  0  0  0  0  0
   93.5906   15.1106   94.9567 P   0  0  2  0  0  0  0  0  0  0  0  0
   97.8640   11.5523   94.5552 P   0  0  1  0  0  0  0  0  0  0  0  0
   95.2717   11.3991   94.2751 C   0  0  0  0  0  0  0  0  0  0  0  0
   96.4299   11.2857   95.1175 O   0  0  0  0  0  0  0  0  0  0  0  0
   93.9932   11.5163   94.9920 C   0  0  1  0  0  0  0  0  0  0  0  0
   94.0058   10.4619   96.2048 O   0  0  0  0  0  0  0  0  0  0  0  0
   93.9028   12.6486   95.5301 C   0  0  1  0  0  0  0  0  0  0  0  0
   93.3251   13.6327   94.6418 O   0  0  0  0  0  0  0  0  0  0  0  0
   93.0946   12.3929   96.7932 C   0  0  1  0  0  0  0  0  0  0  0  0
   91.8606   12.4064   96.5311 O   0  0  0  0  0  0  0  0  0  0  0  0
   93.4916   10.9792   97.2186 C   0  0  2  0  0  0  0  0  0  0  0  0
   98.0024    9.7443   99.3544 N   0  0  0  0  0  0  0  0  0  0  0  0
   97.6644    9.6505   98.0415 C   0  0  0  0  0  0  0  0  0  0  0  0
   96.4406   10.0322   97.6963 N   0  0  0  0  0  0  0  0  0  0  0  0
   95.4969   10.4438   98.5696 C   0  0  0  0  0  0  0  0  0  0  0  0
   95.8102   10.5545   99.9413 C   0  0  0  0  0  0  0  0  0  0  0  0
   97.1391   10.1612  100.2999 C   0  0  0  0  0  0  0  0  0  0  0  0
   97.5369   10.2182  101.6683 N   0  0  0  0  0  0  0  0  0  0  0  0
   94.7551   11.0049  100.5243 N   0  0  0  0  0  0  0  0  0  0  0  0
   93.8168   11.2041   99.6149 C   0  0  0  0  0  0  0  0  0  0  0  0
   94.2276   10.8587   98.4473 N   0  0  0  0  0  0  0  0  0  0  0  0
  1 24  1  0  0  0  0
  1  4  2  0  0  0  0
  2 13  1  0  0  0  0
  2 21  1  0  0  0  0
  3 16  1  0  0  0  0
  4 18  1  0  0  0  0
  5 19  2  0  0  0  0
  5 16  1  0  0  0  0
  6 16  2  0  0  0  0
  6 17  1  0  0  0  0
  7 17  1  0  0  0  0
 11 25  2  0  0  0  0
 12 26  2  0  0  0  0
 13 25  1  0  0  0  0
 14 23  1  0  0  0  0
 15 26  1  0  0  0  0
 17 18  2  0  0  0  0
 18 19  1  0  0  0  0
 19 24  1  0  0  0  0
 20 10  1  6  0  0  0
 20 22  1  0  0  0  0
 20 23  1  0  0  0  0
 21 14  1  1  0  0  0
 21 22  1  0  0  0  0
 22 15  1  6  0  0  0
 23 24  1  1  0  0  0
 25  8  1  6  0  0  0
 25 32  1  0  0  0  0
 26  9  1  6  0  0  0
 26 28  1  0  0  0  0
 27 28  1  0  0  0  0
 29 27  1  1  0  0  0
 29 30  1  0  0  0  0
 29 31  1  0  0  0  0
 30 35  1  0  0  0  0
 31 33  1  0  0  0  0
 31 32  1  6  0  0  0
 33 34  1  6  0  0  0
 33 35  1  0  0  0  0
 35 45  1  1  0  0  0
 36 41  2  0  0  0  0
 36 37  1  0  0  0  0
 37 38  2  0  0  0  0
 38 39  1  0  0  0  0
 39 40  2  0  0  0  0
 39 45  1  0  0  0  0
 40 41  1  0  0  0  0
 40 43  1  0  0  0  0
 41 42  1  0  0  0  0
 43 44  2  0  0  0  0
 44 45  1  0  0  0  0
M  CHG  4   8  -1   9  -1  11  -1  12  -1
M  END
>  <CHROM.1>
2.36056569,11.65424098,96.58835433,13.43326022,96.62466234,0.30112017,-0.66466424
-0.76260471

>  <Name>
ligand

>  <RI>
0

>  <Rbt.Current_Directory>
/home/itssahil/PROJECTS/Mol_Feturizer/New_Systems/rnas/4YAZ

>  <Rbt.Executable>
rbdock ($Id: //depot/dev/client3/rdock/2013.1/src/exe/rbdock.cxx#4 $)

>  <Rbt.Library>
libRbt.so (2013.1, Build901 2013/11/27)

>  <Rbt.Parameter_File>
/export/apps/rDock/src/rDock_2013.1_src/data/scripts/dock_solv.prm

>  <Rbt.Receptor>
prm/pocket_docking_7.prm

>  <SCORE>
-40.293

>  <SCORE.INTER>
-39.5145

>  <SCORE.INTER.CONST>
1

>  <SCORE.INTER.POLAR>
0

>  <SCORE.INTER.ROT>
2

>  <SCORE.INTER.SOLV>
39.3252

>  <SCORE.INTER.VDW>
-44.3848

>  <SCORE.INTER.norm>
-0.878101

>  <SCORE.INTRA>
-0.778511

>  <SCORE.INTRA.DIHEDRAL>
-0.0550138

>  <SCORE.INTRA.DIHEDRAL.0>
2.39103

>  <SCORE.INTRA.POLAR>
0

>  <SCORE.INTRA.POLAR.0>
0

>  <SCORE.INTRA.REPUL>
0

>  <SCORE.INTRA.REPUL.0>
0

>  <SCORE.INTRA.SOLV>
0.916055

>  <SCORE.INTRA.SOLV.lig_0>
-163.975

>  <SCORE.INTRA.VDW>
-1.20903

>  <SCORE.INTRA.VDW.0>
-1.49176

>  <SCORE.INTRA.norm>
-0.0173003

>  <SCORE.RESTR>
0

>  <SCORE.RESTR.CAVITY>
0

>  <SCORE.RESTR.norm>
0

>  <SCORE.SYSTEM>
0

>  <SCORE.SYSTEM.CONST>
0

>  <SCORE.SYSTEM.DIHEDRAL>
0

>  <SCORE.SYSTEM.SOLV>
0

>  <SCORE.SYSTEM.norm>
0

>  <SCORE.heavy>
45

>  <SCORE.norm>
-0.895401

>  <RMSD>
1.710

$$$$
ligand
 OpenBabel11021811513D
libRbt.so/2013.1/901 2013/11/27
 45 51  0  0  0  0  0  0  0  0999 V2000
   97.3024   16.9214   96.7885 C   0  0  0  0  0  0  0  0  0  0  0  0
   95.6317   14.9161   93.6653 C   0  0  0  0  0  0  0  0  0  0  0  0
  102.1923   15.3543   99.2453 N   0  0  0  0  0  0  0  0  0  0  0  0
   97.2598   17.1266   98.0649 N   0  0  0  0  0  0  0  0  0  0  0  0
  100.4318   15.8043   97.7775 N   0  0  0  0  0  0  0  0  0  0  0  0
  100.1871   16.2481  100.0488 N   0  0  0  0  0  0  0  0  0  0  0  0
   98.1637   17.2247  100.9012 O   0  0  0  0  0  0  0  0  0  0  0  0
   92.7580   15.9412   94.1838 O   0  5  0  0  0  0  0  0  0  0  0  0
   98.1437   10.5760   93.6325 O   0  5  0  0  0  0  0  0  0  0  0  0
   99.9710   14.3120   94.2181 O   0  0  0  0  0  0  0  0  0  0  0  0
   93.1472   15.4927   96.3287 O   0  5  0  0  0  0  0  0  0  0  0  0
   98.9157   11.5530   95.4887 O   0  5  0  0  0  0  0  0  0  0  0  0
   95.0338   15.6122   94.6844 O   0  0  0  0  0  0  0  0  0  0  0  0
   97.6534   16.3773   94.1831 O   0  0  0  0  0  0  0  0  0  0  0  0
   97.8161   12.9271   93.6443 O   0  0  0  0  0  0  0  0  0  0  0  0
  100.8619   15.8172   99.0121 C   0  0  0  0  0  0  0  0  0  0  0  0
   98.9623   16.7256   99.8738 C   0  0  0  0  0  0  0  0  0  0  0  0
   98.4199   16.7257   98.5689 C   0  0  0  0  0  0  0  0  0  0  0  0
   99.1854   16.2668   97.5253 C   0  0  0  0  0  0  0  0  0  0  0  0
   98.9322   14.7364   95.0186 C   0  0  2  0  0  0  0  0  0  0  0  0
   97.1030   15.0246   93.6995 C   0  0  1  0  0  0  0  0  0  0  0  0
   97.5769   14.1079   94.4012 C   0  0  1  0  0  0  0  0  0  0  0  0
   98.7735   16.0423   95.1278 C   0  0  2  0  0  0  0  0  0  0  0  0
   98.4214   16.4021   96.4406 N   0  0  0  0  0  0  0  0  0  0  0  0
   93.5782   15.1610   95.0160 P   0  0  2  0  0  0  0  0  0  0  0  0
   97.8725   11.6433   94.4966 P   0  0  1  0  0  0  0  0  0  0  0  0
   95.2778   11.4747   94.2487 C   0  0  0  0  0  0  0  0  0  0  0  0
   96.4481   11.3560   95.0734 O   0  0  0  0  0  0  0  0  0  0  0  0
   94.0083   11.5699   94.9846 C   0  0  1  0  0  0  0  0  0  0  0  0
   94.0452   10.4952   96.1790 O   0  0  0  0  0  0  0  0  0  0  0  0
   93.9167   12.6921   95.5432 C   0  0  1  0  0  0  0  0  0  0  0  0
   93.3195   13.6866   94.6795 O   0  0  0  0  0  0  0  0  0  0  0  0
   93.1277   12.4088   96.8124 C   0  0  1  0  0  0  0  0  0  0  0  0
   91.8901   12.4171   96.5672 O   0  0  0  0  0  0  0  0  0  0  0  0
   93.5410   10.9912   97.2083 C   0  0  2  0  0  0  0  0  0  0  0  0
   98.0487    9.6310   99.2734 N   0  0  0  0  0  0  0  0  0  0  0  0
   97.6849    9.5396   97.9673 C   0  0  0  0  0  0  0  0  0  0  0  0
   96.4675    9.9567   97.6408 N   0  0  0  0  0  0  0  0  0  0  0  0
   95.5524   10.4026   98.5277 C   0  0  0  0  0  0  0  0  0  0  0  0
   95.8931   10.5120   99.8930 C   0  0  0  0  0  0  0  0  0  0  0  0
   97.2154   10.0802  100.2310 C   0  0  0  0  0  0  0  0  0  0  0  0
   97.6388   10.1333  101.5919 N   0  0  0  0  0  0  0  0  0  0  0  0
   94.8628   10.9982  100.4912 N   0  0  0  0  0  0  0  0  0  0  0  0
   93.9151   11.2207   99.5971 C   0  0  0  0  0  0  0  0  0  0  0  0
   94.2945   10.8556   98.4248 N   0  0  0  0  0  0  0  0  0  0  0  0
  1 24  1  0  0  0  0
  1  4  2  0  0  0  0
  2 13  1  0  0  0  0
  2 21  1  0  0  0  0
  3 16  1  0  0  0  0
  4 18  1  0  0  0  0
  5 19  2  0  0  0  0
  5 16  1  0  0  0  0
  6 16  2  0  0  0  0
  6 17  1  0  0  0  0
  7 17  1  0  0  0  0
 11 25  2  0  0  0  0
 12 26  2  0  0  0  0
 13 25  1  0  0  0  0
 14 23  1  0  0  0  0
 15 26  1  0  0  0  0
 17 18  2  0  0  0  0
 18 19  1  0  0  0  0
 19 24  1  0  0  0  0
 20 10  1  6  0  0  0
 20 22  1  0  0  0  0
 20 23  1  0  0  0  0
 21 14  1  1  0  0  0
 21 22  1  0  0  0  0
 22 15  1  6  0  0  0
 23 24  1  1  0  0  0
 25  8  1  6  0  0  0
 25 32  1  0  0  0  0
 26  9  1  6  0  0  0
 26 28  1  0  0  0  0
 27 28  1  0  0  0  0
 29 27  1  1  0  0  0
 29 30  1  0  0  0  0
 29 31  1  0  0  0  0
 30 35  1  0  0  0  0
 31 33  1  0  0  0  0
 31 32  1  6  0  0  0
 33 34  1  6  0  0  0
 33 35  1  0  0  0  0
 35 45  1  1  0  0  0
 36 41  2  0  0  0  0
 36 37  1  0  0  0  0
 37 38  2  0  0  0  0
 38 39  1  0  0  0  0
 39 40  2  0  0  0  0
 39 45  1  0  0  0  0
 40 41  1  0  0  0  0
 40 43  1  0  0  0  0
 41 42  1  0  0  0  0
 43 44  2  0  0  0  0
 44 45  1  0  0  0  0
M  CHG  4   8  -1   9  -1  11  -1  12  -1
M  END
>  <CHROM.1>
0.96863269,9.06635105,96.60508847,13.46230034,96.61664348,0.34214087,-0.65859080
-0.72357706

>  <Name>
ligand

>  <RI>
0

>  <Rbt.Current_Directory>
/home/itssahil/PROJECTS/Mol_Feturizer/New_Systems/rnas/4YAZ

>  <Rbt.Executable>
rbdock ($Id: //depot/dev/client3/rdock/2013.1/src/exe/rbdock.cxx#4 $)

>  <Rbt.Library>
libRbt.so (2013.1, Build901 2013/11/27)

>  <Rbt.Parameter_File>
/export/apps/rDock/src/rDock_2013.1_src/data/scripts/dock_solv.prm

>  <Rbt.Receptor>
prm/pocket_docking_4.prm

>  <SCORE>
-40.2194

>  <SCORE.INTER>
-39.4693

>  <SCORE.INTER.CONST>
1

>  <SCORE.INTER.POLAR>
0

>  <SCORE.INTER.ROT>
2

>  <SCORE.INTER.SOLV>
39.9315

>  <SCORE.INTER.VDW>
-44.5567

>  <SCORE.INTER.norm>
-0.877096

>  <SCORE.INTRA>
-0.750047

>  <SCORE.INTRA.DIHEDRAL>
-0.0385388

>  <SCORE.INTRA.DIHEDRAL.0>
2.39103

>  <SCORE.INTRA.POLAR>
0

>  <SCORE.INTRA.POLAR.0>
0

>  <SCORE.INTRA.REPUL>
0

>  <SCORE.INTRA.REPUL.0>
0

>  <SCORE.INTRA.SOLV>
0.778007

>  <SCORE.INTRA.SOLV.lig_0>
-163.975

>  <SCORE.INTRA.VDW>
-1.11978

>  <SCORE.INTRA.VDW.0>
-1.49176

>  <SCORE.INTRA.norm>
-0.0166677

>  <SCORE.RESTR>
0

>  <SCORE.RESTR.CAVITY>
0

>  <SCORE.RESTR.norm>
0

>  <SCORE.SYSTEM>
0

>  <SCORE.SYSTEM.CONST>
0

>  <SCORE.SYSTEM.DIHEDRAL>
0

>  <SCORE.SYSTEM.SOLV>
0

>  <SCORE.SYSTEM.norm>
0

>  <SCORE.heavy>
45

>  <SCORE.norm>
-0.893763

>  <RMSD>
1.712

$$$$
ligand
 OpenBabel11021811513D
libRbt.so/2013.1/901 2013/11/27
 45 51  0  0  0  0  0  0  0  0999 V2000
   97.2723   16.9049   96.7388 C   0  0  0  0  0  0  0  0  0  0  0  0
   95.6394   14.8464   93.6298 C   0  0  0  0  0  0  0  0  0  0  0  0
  102.1351   15.3819   99.2758 N   0  0  0  0  0  0  0  0  0  0  0  0
   97.2149   17.1304   98.0112 N   0  0  0  0  0  0  0  0  0  0  0  0
  100.3911   15.8068   97.7810 N   0  0  0  0  0  0  0  0  0  0  0  0
  100.1201   16.2863  100.0421 N   0  0  0  0  0  0  0  0  0  0  0  0
   98.0863   17.2743  100.8558 O   0  0  0  0  0  0  0  0  0  0  0  0
   92.7585   15.8749   94.0995 O   0  5  0  0  0  0  0  0  0  0  0  0
   98.1579   10.5105   93.6948 O   0  5  0  0  0  0  0  0  0  0  0  0
   99.9731   14.2584   94.2409 O   0  0  0  0  0  0  0  0  0  0  0  0
   93.1243   15.4616   96.2556 O   0  5  0  0  0  0  0  0  0  0  0  0
   98.9077   11.5184   95.5437 O   0  5  0  0  0  0  0  0  0  0  0  0
   95.0291   15.5577   94.6309 O   0  0  0  0  0  0  0  0  0  0  0  0
   97.6530   16.3191   94.1467 O   0  0  0  0  0  0  0  0  0  0  0  0
   97.8268   12.8610   93.6653 O   0  0  0  0  0  0  0  0  0  0  0  0
  100.8071   15.8397   99.0200 C   0  0  0  0  0  0  0  0  0  0  0  0
   98.8970   16.7598   99.8456 C   0  0  0  0  0  0  0  0  0  0  0  0
   98.3696   16.7387   98.5347 C   0  0  0  0  0  0  0  0  0  0  0  0
   99.1472   16.2641   97.5073 C   0  0  0  0  0  0  0  0  0  0  0  0
   98.9248   14.6938   95.0227 C   0  0  2  0  0  0  0  0  0  0  0  0
   97.1101   14.9578   93.6788 C   0  0  1  0  0  0  0  0  0  0  0  0
   97.5774   14.0533   94.4003 C   0  0  1  0  0  0  0  0  0  0  0  0
   98.7629   16.0011   95.1091 C   0  0  2  0  0  0  0  0  0  0  0  0
   98.3956   16.3813   96.4120 N   0  0  0  0  0  0  0  0  0  0  0  0
   93.5705   15.1095   94.9533 P   0  0  2  0  0  0  0  0  0  0  0  0
   97.8755   11.5910   94.5386 P   0  0  1  0  0  0  0  0  0  0  0  0
   95.2840   11.4142   94.2644 C   0  0  0  0  0  0  0  0  0  0  0  0
   96.4452   11.3107   95.1040 O   0  0  0  0  0  0  0  0  0  0  0  0
   94.0062   11.5191   94.9844 C   0  0  1  0  0  0  0  0  0  0  0  0
   94.0313   10.4638   96.1963 O   0  0  0  0  0  0  0  0  0  0  0  0
   93.9067   12.6500   95.5238 C   0  0  1  0  0  0  0  0  0  0  0  0
   93.3178   13.6295   94.6377 O   0  0  0  0  0  0  0  0  0  0  0  0
   93.1039   12.3858   96.7886 C   0  0  1  0  0  0  0  0  0  0  0  0
   91.8691   12.3881   96.5293 O   0  0  0  0  0  0  0  0  0  0  0  0
   93.5148   10.9754   97.2118 C   0  0  2  0  0  0  0  0  0  0  0  0
   98.0217    9.7170   99.3421 N   0  0  0  0  0  0  0  0  0  0  0  0
   97.6771    9.6125   98.0317 C   0  0  0  0  0  0  0  0  0  0  0  0
   96.4559   10.0030   97.6874 N   0  0  0  0  0  0  0  0  0  0  0  0
   95.5202   10.4339   98.5601 C   0  0  0  0  0  0  0  0  0  0  0  0
   95.8405   10.5562   99.9292 C   0  0  0  0  0  0  0  0  0  0  0  0
   97.1668   10.1531  100.2865 C   0  0  0  0  0  0  0  0  0  0  0  0
   97.5710   10.2208  101.6526 N   0  0  0  0  0  0  0  0  0  0  0  0
   94.7927   11.0238  100.5116 N   0  0  0  0  0  0  0  0  0  0  0  0
   93.8526   11.2229   99.6041 C   0  0  0  0  0  0  0  0  0  0  0  0
   94.2548   10.8606   98.4386 N   0  0  0  0  0  0  0  0  0  0  0  0
  1 24  1  0  0  0  0
  1  4  2  0  0  0  0
  2 13  1  0  0  0  0
  2 21  1  0  0  0  0
  3 16  1  0  0  0  0
  4 18  1  0  0  0  0
  5 19  2  0  0  0  0
  5 16  1  0  0  0  0
  6 16  2  0  0  0  0
  6 17  1  0  0  0  0
  7 17  1  0  0  0  0
 11 25  2  0  0  0  0
 12 26  2  0  0  0  0
 13 25  1  0  0  0  0
 14 23  1  0  0  0  0
 15 26  1  0  0  0  0
 17 18  2  0  0  0  0
 18 19  1  0  0  0  0
 19 24  1  0  0  0  0
 20 10  1  6  0  0  0
 20 22  1  0  0  0  0
 20 23  1  0  0  0  0
 21 14  1  1  0  0  0
 21 22  1  0  0  0  0
 22 15  1  6  0  0  0
 23 24  1  1  0  0  0
 25  8  1  6  0  0  0
 25 32  1  0  0  0  0
 26  9  1  6  0  0  0
 26 28  1  0  0  0  0
 27 28  1  0  0  0  0
 29 27  1  1  0  0  0
 29 30  1  0  0  0  0
 29 31  1  0  0  0  0
 30 35  1  0  0  0  0
 31 33  1  0  0  0  0
 31 32  1  6  0  0  0
 33 34  1  6  0  0  0
 33 35  1  0  0  0  0
 35 45  1  1  0  0  0
 36 41  2  0  0  0  0
 36 37  1  0  0  0  0
 37 38  2  0  0  0  0
 38 39  1  0  0  0  0
 39 40  2  0  0  0  0
 39 45  1  0  0  0  0
 40 41  1  0  0  0  0
 40 43  1  0  0  0  0
 41 42  1  0  0  0  0
 43 44  2  0  0  0  0
 44 45  1  0  0  0  0
M  CHG  4   8  -1   9  -1  11  -1  12  -1
M  END
>  <CHROM.1>
0.92808296,10.34252966,96.58313669,13.44630346,96.61441282,0.31947847,-0.66751268
-0.74972455

>  <Name>
ligand

>  <RI>
0

>  <Rbt.Current_Directory>
/home/itssahil/PROJECTS/Mol_Feturizer/New_Systems/rnas/4YAZ

>  <Rbt.Executable>
rbdock ($Id: //depot/dev/client3/rdock/2013.1/src/exe/rbdock.cxx#4 $)

>  <Rbt.Library>
libRbt.so (2013.1, Build901 2013/11/27)

>  <Rbt.Parameter_File>
/export/apps/rDock/src/rDock_2013.1_src/data/scripts/dock_solv.prm

>  <Rbt.Receptor>
prm/pocket_docking_8.prm

>  <SCORE>
-40.3064

>  <SCORE.INTER>
-39.535

>  <SCORE.INTER.CONST>
1

>  <SCORE.INTER.POLAR>
0

>  <SCORE.INTER.ROT>
2

>  <SCORE.INTER.SOLV>
39.1747

>  <SCORE.INTER.VDW>
-44.3482

>  <SCORE.INTER.norm>
-0.878555

>  <SCORE.INTRA>
-0.771427

>  <SCORE.INTRA.DIHEDRAL>
-0.0469991

>  <SCORE.INTRA.DIHEDRAL.0>
2.39103

>  <SCORE.INTRA.POLAR>
0

>  <SCORE.INTRA.POLAR.0>
0

>  <SCORE.INTRA.REPUL>
0

>  <SCORE.INTRA.REPUL.0>
0

>  <SCORE.INTRA.SOLV>
0.848471

>  <SCORE.INTRA.SOLV.lig_0>
-163.975

>  <SCORE.INTRA.VDW>
-1.17216

>  <SCORE.INTRA.VDW.0>
-1.49176

>  <SCORE.INTRA.norm>
-0.0171428

>  <SCORE.RESTR>
0

>  <SCORE.RESTR.CAVITY>
0

>  <SCORE.RESTR.norm>
0

>  <SCORE.SYSTEM>
0

>  <SCORE.SYSTEM.CONST>
0

>  <SCORE.SYSTEM.DIHEDRAL>
0

>  <SCORE.SYSTEM.SOLV>
0

>  <SCORE.SYSTEM.norm>
0

>  <SCORE.heavy>
45

>  <SCORE.norm>
-0.895698

>  <RMSD>
1.712

$$$$
ligand
 OpenBabel11021811513D
libRbt.so/2013.1/901 2013/11/27
 45 51  0  0  0  0  0  0  0  0999 V2000
   97.2608   16.8059   96.7591 C   0  0  0  0  0  0  0  0  0  0  0  0
   95.6631   14.8013   93.6269 C   0  0  0  0  0  0  0  0  0  0  0  0
  102.1867   15.4986   99.2947 N   0  0  0  0  0  0  0  0  0  0  0  0
   97.1994   17.0440   98.0290 N   0  0  0  0  0  0  0  0  0  0  0  0
  100.4227   15.8393   97.8019 N   0  0  0  0  0  0  0  0  0  0  0  0
  100.1415   16.3350  100.0582 N   0  0  0  0  0  0  0  0  0  0  0  0
   98.0745   17.2547  100.8682 O   0  0  0  0  0  0  0  0  0  0  0  0
   92.7833   15.8436   94.0715 O   0  5  0  0  0  0  0  0  0  0  0  0
   98.1598   10.4530   93.7121 O   0  5  0  0  0  0  0  0  0  0  0  0
   99.9884   14.1918   94.2760 O   0  0  0  0  0  0  0  0  0  0  0  0
   93.1280   15.4275   96.2305 O   0  5  0  0  0  0  0  0  0  0  0  0
   98.8980   11.4564   95.5680 O   0  5  0  0  0  0  0  0  0  0  0  0
   95.0475   15.5151   94.6228 O   0  0  0  0  0  0  0  0  0  0  0  0
   97.6793   16.2638   94.1622 O   0  0  0  0  0  0  0  0  0  0  0  0
   97.8404   12.8051   93.6807 O   0  0  0  0  0  0  0  0  0  0  0  0
  100.8414   15.9027   99.0388 C   0  0  0  0  0  0  0  0  0  0  0  0
   98.9006   16.7594   99.8610 C   0  0  0  0  0  0  0  0  0  0  0  0
   98.3698   16.7027   98.5525 C   0  0  0  0  0  0  0  0  0  0  0  0
   99.1614   16.2457   97.5277 C   0  0  0  0  0  0  0  0  0  0  0  0
   98.9353   14.6320   95.0487 C   0  0  2  0  0  0  0  0  0  0  0  0
   97.1339   14.9055   93.6889 C   0  0  1  0  0  0  0  0  0  0  0  0
   97.5903   13.9983   94.4141 C   0  0  1  0  0  0  0  0  0  0  0  0
   98.7791   15.9400   95.1343 C   0  0  2  0  0  0  0  0  0  0  0  0
   98.4021   16.3214   96.4340 N   0  0  0  0  0  0  0  0  0  0  0  0
   93.5839   15.0739   94.9320 P   0  0  2  0  0  0  0  0  0  0  0  0
   97.8752   11.5346   94.5538 P   0  0  1  0  0  0  0  0  0  0  0  0
   95.2854   11.3706   94.2566 C   0  0  0  0  0  0  0  0  0  0  0  0
   96.4386   11.2610   95.1063 O   0  0  0  0  0  0  0  0  0  0  0  0
   94.0017   11.4813   94.9653 C   0  0  1  0  0  0  0  0  0  0  0  0
   94.0110   10.4254   96.1768 O   0  0  0  0  0  0  0  0  0  0  0  0
   93.9030   12.6125   95.5043 C   0  0  1  0  0  0  0  0  0  0  0  0
   93.3268   13.5953   94.6135 O   0  0  0  0  0  0  0  0  0  0  0  0
   93.0877   12.3516   96.7618 C   0  0  1  0  0  0  0  0  0  0  0  0
   91.8554   12.3601   96.4916 O   0  0  0  0  0  0  0  0  0  0  0  0
   93.4880   10.9391   97.1879 C   0  0  2  0  0  0  0  0  0  0  0  0
   97.9954    9.7378   99.3500 N   0  0  0  0  0  0  0  0  0  0  0  0
   97.6675    9.6468   98.0343 C   0  0  0  0  0  0  0  0  0  0  0  0
   96.4426   10.0182   97.6821 N   0  0  0  0  0  0  0  0  0  0  0  0
   95.4888   10.4169   98.5506 C   0  0  0  0  0  0  0  0  0  0  0  0
   95.7915   10.5244   99.9250 C   0  0  0  0  0  0  0  0  0  0  0  0
   97.1215   10.1423  100.2912 C   0  0  0  0  0  0  0  0  0  0  0  0
   97.5091   10.1969  101.6626 N   0  0  0  0  0  0  0  0  0  0  0  0
   94.7281   10.9620  100.5024 N   0  0  0  0  0  0  0  0  0  0  0  0
   93.7943   11.1563   99.5874 C   0  0  0  0  0  0  0  0  0  0  0  0
   94.2165   10.8201   98.4212 N   0  0  0  0  0  0  0  0  0  0  0  0
  1 24  1  0  0  0  0
  1  4  2  0  0  0  0
  2 13  1  0  0  0  0
  2 21  1  0  0  0  0
  3 16  1  0  0  0  0
  4 18  1  0  0  0  0
  5 19  2  0  0  0  0
  5 16  1  0  0  0  0
  6 16  2  0  0  0  0
  6 17  1  0  0  0  0
  7 17  1  0  0  0  0
 11 25  2  0  0  0  0
 12 26  2  0  0  0  0
 13 25  1  0  0  0  0
 14 23  1  0  0  0  0
 15 26  1  0  0  0  0
 17 18  2  0  0  0  0
 18 19  1  0  0  0  0
 19 24  1  0  0  0  0
 20 10  1  6  0  0  0
 20 22  1  0  0  0  0
 20 23  1  0  0  0  0
 21 14  1  1  0  0  0
 21 22  1  0  0  0  0
 22 15  1  6  0  0  0
 23 24  1  1  0  0  0
 25  8  1  6  0  0  0
 25 32  1  0  0  0  0
 26  9  1  6  0  0  0
 26 28  1  0  0  0  0
 27 28  1  0  0  0  0
 29 27  1  1  0  0  0
 29 30  1  0  0  0  0
 29 31  1  0  0  0  0
 30 35  1  0  0  0  0
 31 33  1  0  0  0  0
 31 32  1  6  0  0  0
 33 34  1  6  0  0  0
 33 35  1  0  0  0  0
 35 45  1  1  0  0  0
 36 41  2  0  0  0  0
 36 37  1  0  0  0  0
 37 38  2  0  0  0  0
 38 39  1  0  0  0  0
 39 40  2  0  0  0  0
 39 45  1  0  0  0  0
 40 41  1  0  0  0  0
 40 43  1  0  0  0  0
 41 42  1  0  0  0  0
 43 44  2  0  0  0  0
 44 45  1  0  0  0  0
M  CHG  4   8  -1   9  -1  11  -1  12  -1
M  END
>  <CHROM.1>
3.58167658,12.00784900,96.58067590,13.41469160,96.61613361,0.30152877,-0.67418097
-0.76388109

>  <Name>
ligand

>  <RI>
0

>  <Rbt.Current_Directory>
/home/itssahil/PROJECTS/Mol_Feturizer/New_Systems/rnas/4YAZ

>  <Rbt.Executable>
rbdock ($Id: //depot/dev/client3/rdock/2013.1/src/exe/rbdock.cxx#4 $)

>  <Rbt.Library>
libRbt.so (2013.1, Build901 2013/11/27)

>  <Rbt.Parameter_File>
/export/apps/rDock/src/rDock_2013.1_src/data/scripts/dock_solv.prm

>  <Rbt.Receptor>
prm/pocket_docking_6.prm

>  <SCORE>
-40.2454

>  <SCORE.INTER>
-39.4309

>  <SCORE.INTER.CONST>
1

>  <SCORE.INTER.POLAR>
0

>  <SCORE.INTER.ROT>
2

>  <SCORE.INTER.SOLV>
39.0552

>  <SCORE.INTER.VDW>
-44.239

>  <SCORE.INTER.norm>
-0.876243

>  <SCORE.INTRA>
-0.814448

>  <SCORE.INTRA.DIHEDRAL>
-0.0568894

>  <SCORE.INTRA.DIHEDRAL.0>
2.39103

>  <SCORE.INTRA.POLAR>
0

>  <SCORE.INTRA.POLAR.0>
0

>  <SCORE.INTRA.REPUL>
0

>  <SCORE.INTRA.REPUL.0>
0

>  <SCORE.INTRA.SOLV>
0.932587

>  <SCORE.INTRA.SOLV.lig_0>
-163.975

>  <SCORE.INTRA.VDW>
-1.2523

>  <SCORE.INTRA.VDW.0>
-1.49176

>  <SCORE.INTRA.norm>
-0.0180988

>  <SCORE.RESTR>
0

>  <SCORE.RESTR.CAVITY>
0

>  <SCORE.RESTR.norm>
0

>  <SCORE.SYSTEM>
0

>  <SCORE.SYSTEM.CONST>
0

>  <SCORE.SYSTEM.DIHEDRAL>
0

>  <SCORE.SYSTEM.SOLV>
0

>  <SCORE.SYSTEM.norm>
0

>  <SCORE.heavy>
45

>  <SCORE.norm>
-0.894342

>  <RMSD>
1.717

$$$$
ligand
 OpenBabel11021811513D
libRbt.so/2013.1/901 2013/11/27
 45 51  0  0  0  0  0  0  0  0999 V2000
   97.2597   16.8618   96.7606 C   0  0  0  0  0  0  0  0  0  0  0  0
   95.6179   14.8549   93.6428 C   0  0  0  0  0  0  0  0  0  0  0  0
  102.1818   15.4574   99.2513 N   0  0  0  0  0  0  0  0  0  0  0  0
   97.2110   17.0914   98.0326 N   0  0  0  0  0  0  0  0  0  0  0  0
  100.4130   15.8372   97.7736 N   0  0  0  0  0  0  0  0  0  0  0  0
  100.1556   16.3205  100.0355 N   0  0  0  0  0  0  0  0  0  0  0  0
   98.1093   17.2669  100.8670 O   0  0  0  0  0  0  0  0  0  0  0  0
   92.7449   15.9001   94.1234 O   0  5  0  0  0  0  0  0  0  0  0  0
   98.1088   10.5027   93.6854 O   0  5  0  0  0  0  0  0  0  0  0  0
   99.9493   14.2368   94.2410 O   0  0  0  0  0  0  0  0  0  0  0  0
   93.1133   15.4763   96.2771 O   0  5  0  0  0  0  0  0  0  0  0  0
   98.8694   11.4988   95.5362 O   0  5  0  0  0  0  0  0  0  0  0  0
   95.0146   15.5664   94.6480 O   0  0  0  0  0  0  0  0  0  0  0  0
   97.6423   16.3127   94.1602 O   0  0  0  0  0  0  0  0  0  0  0  0
   97.7926   12.8553   93.6654 O   0  0  0  0  0  0  0  0  0  0  0  0
  100.8413   15.8847   99.0080 C   0  0  0  0  0  0  0  0  0  0  0  0
   98.9203   16.7661   99.8503 C   0  0  0  0  0  0  0  0  0  0  0  0
   98.3795   16.7276   98.5452 C   0  0  0  0  0  0  0  0  0  0  0  0
   99.1564   16.2658   97.5115 C   0  0  0  0  0  0  0  0  0  0  0  0
   98.9057   14.6760   95.0270 C   0  0  2  0  0  0  0  0  0  0  0  0
   97.0894   14.9567   93.6885 C   0  0  1  0  0  0  0  0  0  0  0  0
   97.5526   14.0464   94.4056 C   0  0  1  0  0  0  0  0  0  0  0  0
   98.7524   15.9840   95.1187 C   0  0  2  0  0  0  0  0  0  0  0  0
   98.3907   16.3616   96.4238 N   0  0  0  0  0  0  0  0  0  0  0  0
   93.5540   15.1263   94.9723 P   0  0  2  0  0  0  0  0  0  0  0  0
   97.8353   11.5819   94.5339 P   0  0  1  0  0  0  0  0  0  0  0  0
   95.2421   11.4227   94.2654 C   0  0  0  0  0  0  0  0  0  0  0  0
   96.4046   11.3086   95.1017 O   0  0  0  0  0  0  0  0  0  0  0  0
   93.9667   11.5330   94.9890 C   0  0  1  0  0  0  0  0  0  0  0  0
   93.9880   10.4730   96.1968 O   0  0  0  0  0  0  0  0  0  0  0  0
   93.8758   12.6625   95.5328 C   0  0  1  0  0  0  0  0  0  0  0  0
   93.2911   13.6491   94.6518 O   0  0  0  0  0  0  0  0  0  0  0  0
   93.0744   12.3987   96.7986 C   0  0  1  0  0  0  0  0  0  0  0  0
   91.8390   12.4100   96.5424 O   0  0  0  0  0  0  0  0  0  0  0  0
   93.4773   10.9842   97.2155 C   0  0  2  0  0  0  0  0  0  0  0  0
   97.9935    9.7263   99.3263 N   0  0  0  0  0  0  0  0  0  0  0  0
   97.6477    9.6342   98.0153 C   0  0  0  0  0  0  0  0  0  0  0  0
   96.4240   10.0221   97.6768 N   0  0  0  0  0  0  0  0  0  0  0  0
   95.4873   10.4387   98.5554 C   0  0  0  0  0  0  0  0  0  0  0  0
   95.8088   10.5479   99.9253 C   0  0  0  0  0  0  0  0  0  0  0  0
   97.1377   10.1479  100.2765 C   0  0  0  0  0  0  0  0  0  0  0  0
   97.5433   10.2029  101.6427 N   0  0  0  0  0  0  0  0  0  0  0  0
   94.7593   11.0037  100.5140 N   0  0  0  0  0  0  0  0  0  0  0  0
   93.8170   11.2077   99.6099 C   0  0  0  0  0  0  0  0  0  0  0  0
   94.2195   10.8600   98.4401 N   0  0  0  0  0  0  0  0  0  0  0  0
  1 24  1  0  0  0  0
  1  4  2  0  0  0  0
  2 13  1  0  0  0  0
  2 21  1  0  0  0  0
  3 16  1  0  0  0  0
  4 18  1  0  0  0  0
  5 19  2  0  0  0  0
  5 16  1  0  0  0  0
  6 16  2  0  0  0  0
  6 17  1  0  0  0  0
  7 17  1  0  0  0  0
 11 25  2  0  0  0  0
 12 26  2  0  0  0  0
 13 25  1  0  0  0  0
 14 23  1  0  0  0  0
 15 26  1  0  0  0  0
 17 18  2  0  0  0  0
 18 19  1  0  0  0  0
 19 24  1  0  0  0  0
 20 10  1  6  0  0  0
 20 22  1  0  0  0  0
 20 23  1  0  0  0  0
 21 14  1  1  0  0  0
 21 22  1  0  0  0  0
 22 15  1  6  0  0  0
 23 24  1  1  0  0  0
 25  8  1  6  0  0  0
 25 32  1  0  0  0  0
 26  9  1  6  0  0  0
 26 28  1  0  0  0  0
 27 28  1  0  0  0  0
 29 27  1  1  0  0  0
 29 30  1  0  0  0  0
 29 31  1  0  0  0  0
 30 35  1  0  0  0  0
 31 33  1  0  0  0  0
 31 32  1  6  0  0  0
 33 34  1  6  0  0  0
 33 35  1  0  0  0  0
 35 45  1  1  0  0  0
 36 41  2  0  0  0  0
 36 37  1  0  0  0  0
 37 38  2  0  0  0  0
 38 39  1  0  0  0  0
 39 40  2  0  0  0  0
 39 45  1  0  0  0  0
 40 41  1  0  0  0  0
 40 43  1  0  0  0  0
 41 42  1  0  0  0  0
 43 44  2  0  0  0  0
 44 45  1  0  0  0  0
M  CHG  4   8  -1   9  -1  11  -1  12  -1
M  END
>  <CHROM.1>
2.68898566,11.12254656,96.56439783,13.44926019,96.61801491,0.31509190,-0.66375194
-0.75149705

>  <Name>
ligand

>  <RI>
0

>  <Rbt.Current_Directory>
/home/itssahil/PROJECTS/Mol_Feturizer/New_Systems/rnas/4YAZ

>  <Rbt.Executable>
rbdock ($Id: //depot/dev/client3/rdock/2013.1/src/exe/rbdock.cxx#4 $)

>  <Rbt.Library>
libRbt.so (2013.1, Build901 2013/11/27)

>  <Rbt.Parameter_File>
/export/apps/rDock/src/rDock_2013.1_src/data/scripts/dock_solv.prm

>  <Rbt.Receptor>
prm/pocket_docking_6.prm

>  <SCORE>
-40.3557

>  <SCORE.INTER>
-39.5728

>  <SCORE.INTER.CONST>
1

>  <SCORE.INTER.POLAR>
0

>  <SCORE.INTER.ROT>
2

>  <SCORE.INTER.SOLV>
39.2613

>  <SCORE.INTER.VDW>
-44.4023

>  <SCORE.INTER.norm>
-0.879396

>  <SCORE.INTRA>
-0.782887

>  <SCORE.INTRA.DIHEDRAL>
-0.0515416

>  <SCORE.INTRA.DIHEDRAL.0>
2.39103

>  <SCORE.INTRA.POLAR>
0

>  <SCORE.INTRA.POLAR.0>
0

>  <SCORE.INTRA.REPUL>
0

>  <SCORE.INTRA.REPUL.0>
0

>  <SCORE.INTRA.SOLV>
0.887651

>  <SCORE.INTRA.SOLV.lig_0>
-163.975

>  <SCORE.INTRA.VDW>
-1.20094

>  <SCORE.INTRA.VDW.0>
-1.49176

>  <SCORE.INTRA.norm>
-0.0173975

>  <SCORE.RESTR>
0

>  <SCORE.RESTR.CAVITY>
0

>  <SCORE.RESTR.norm>
0

>  <SCORE.SYSTEM>
0

>  <SCORE.SYSTEM.CONST>
0

>  <SCORE.SYSTEM.DIHEDRAL>
0

>  <SCORE.SYSTEM.SOLV>
0

>  <SCORE.SYSTEM.norm>
0

>  <SCORE.heavy>
45

>  <SCORE.norm>
-0.896794

>  <RMSD>
1.717

$$$$
ligand
 OpenBabel11021811513D
libRbt.so/2013.1/901 2013/11/27
 45 51  0  0  0  0  0  0  0  0999 V2000
   97.2880   16.8213   96.7693 C   0  0  0  0  0  0  0  0  0  0  0  0
   95.6503   14.8381   93.6426 C   0  0  0  0  0  0  0  0  0  0  0  0
  102.2100   15.4440   99.2754 N   0  0  0  0  0  0  0  0  0  0  0  0
   97.2362   17.0565   98.0402 N   0  0  0  0  0  0  0  0  0  0  0  0
  100.4427   15.8115   97.7928 N   0  0  0  0  0  0  0  0  0  0  0  0
  100.1796   16.3040  100.0520 N   0  0  0  0  0  0  0  0  0  0  0  0
   98.1287   17.2475  100.8754 O   0  0  0  0  0  0  0  0  0  0  0  0
   92.7841   15.9093   94.1065 O   0  5  0  0  0  0  0  0  0  0  0  0
   98.1022   10.4640   93.7033 O   0  5  0  0  0  0  0  0  0  0  0  0
   99.9727   14.1823   94.2647 O   0  0  0  0  0  0  0  0  0  0  0  0
   93.1371   15.4847   96.2626 O   0  5  0  0  0  0  0  0  0  0  0  0
   98.8617   11.4555   95.5570 O   0  5  0  0  0  0  0  0  0  0  0  0
   95.0479   15.5560   94.6437 O   0  0  0  0  0  0  0  0  0  0  0  0
   97.6847   16.2785   94.1693 O   0  0  0  0  0  0  0  0  0  0  0  0
   97.8070   12.8194   93.6791 O   0  0  0  0  0  0  0  0  0  0  0  0
  100.8686   15.8659   99.0277 C   0  0  0  0  0  0  0  0  0  0  0  0
   98.9431   16.7448   99.8625 C   0  0  0  0  0  0  0  0  0  0  0  0
   98.4049   16.6987   98.5566 C   0  0  0  0  0  0  0  0  0  0  0  0
   99.1853   16.2348   97.5263 C   0  0  0  0  0  0  0  0  0  0  0  0
   98.9288   14.6317   95.0446 C   0  0  2  0  0  0  0  0  0  0  0  0
   97.1224   14.9269   93.6961 C   0  0  1  0  0  0  0  0  0  0  0  0
   97.5736   14.0134   94.4166 C   0  0  1  0  0  0  0  0  0  0  0  0
   98.7867   15.9410   95.1341 C   0  0  2  0  0  0  0  0  0  0  0  0
   98.4213   16.3233   96.4369 N   0  0  0  0  0  0  0  0  0  0  0  0
   93.5818   15.1293   94.9606 P   0  0  2  0  0  0  0  0  0  0  0  0
   97.8337   11.5466   94.5491 P   0  0  1  0  0  0  0  0  0  0  0  0
   95.2407   11.4101   94.2668 C   0  0  0  0  0  0  0  0  0  0  0  0
   96.3976   11.2866   95.1095 O   0  0  0  0  0  0  0  0  0  0  0  0
   93.9624   11.5326   94.9834 C   0  0  1  0  0  0  0  0  0  0  0  0
   93.9679   10.4738   96.1924 O   0  0  0  0  0  0  0  0  0  0  0  0
   93.8786   12.6634   95.5255 C   0  0  1  0  0  0  0  0  0  0  0  0
   93.3074   13.6542   94.6403 O   0  0  0  0  0  0  0  0  0  0  0  0
   93.0681   12.4081   96.7872 C   0  0  1  0  0  0  0  0  0  0  0  0
   91.8343   12.4300   96.5243 O   0  0  0  0  0  0  0  0  0  0  0  0
   93.4562   10.9906   97.2078 C   0  0  2  0  0  0  0  0  0  0  0  0
   97.9822    9.7981   99.3357 N   0  0  0  0  0  0  0  0  0  0  0  0
   97.6497    9.7219   98.0202 C   0  0  0  0  0  0  0  0  0  0  0  0
   96.4203   10.0878   97.6779 N   0  0  0  0  0  0  0  0  0  0  0  0
   95.4668   10.4669   98.5555 C   0  0  0  0  0  0  0  0  0  0  0  0
   95.7741   10.5585   99.9299 C   0  0  0  0  0  0  0  0  0  0  0  0
   97.1088   10.1826  100.2857 C   0  0  0  0  0  0  0  0  0  0  0  0
   97.5015   10.2222  101.6562 N   0  0  0  0  0  0  0  0  0  0  0  0
   94.7095   10.9795  100.5174 N   0  0  0  0  0  0  0  0  0  0  0  0
   93.7704   11.1783   99.6087 C   0  0  0  0  0  0  0  0  0  0  0  0
   94.1907   10.8611   98.4365 N   0  0  0  0  0  0  0  0  0  0  0  0
  1 24  1  0  0  0  0
  1  4  2  0  0  0  0
  2 13  1  0  0  0  0
  2 21  1  0  0  0  0
  3 16  1  0  0  0  0
  4 18  1  0  0  0  0
  5 19  2  0  0  0  0
  5 16  1  0  0  0  0
  6 16  2  0  0  0  0
  6 17  1  0  0  0  0
  7 17  1  0  0  0  0
 11 25  2  0  0  0  0
 12 26  2  0  0  0  0
 13 25  1  0  0  0  0
 14 23  1  0  0  0  0
 15 26  1  0  0  0  0
 17 18  2  0  0  0  0
 18 19  1  0  0  0  0
 19 24  1  0  0  0  0
 20 10  1  6  0  0  0
 20 22  1  0  0  0  0
 20 23  1  0  0  0  0
 21 14  1  1  0  0  0
 21 22  1  0  0  0  0
 22 15  1  6  0  0  0
 23 24  1  1  0  0  0
 25  8  1  6  0  0  0
 25 32  1  0  0  0  0
 26  9  1  6  0  0  0
 26 28  1  0  0  0  0
 27 28  1  0  0  0  0
 29 27  1  1  0  0  0
 29 30  1  0  0  0  0
 29 31  1  0  0  0  0
 30 35  1  0  0  0  0
 31 33  1  0  0  0  0
 31 32  1  6  0  0  0
 33 34  1  6  0  0  0
 33 35  1  0  0  0  0
 35 45  1  1  0  0  0
 36 41  2  0  0  0  0
 36 37  1  0  0  0  0
 37 38  2  0  0  0  0
 38 39  1  0  0  0  0
 39 40  2  0  0  0  0
 39 45  1  0  0  0  0
 40 41  1  0  0  0  0
 40 43  1  0  0  0  0
 41 42  1  0  0  0  0
 43 44  2  0  0  0  0
 44 45  1  0  0  0  0
M  CHG  4   8  -1   9  -1  11  -1  12  -1
M  END
>  <CHROM.1>
3.43640216,13.25689627,96.57203210,13.43925192,96.62308564,0.28359185,-0.66218062
-0.76993359

>  <Name>
ligand

>  <RI>
0

>  <Rbt.Current_Directory>
/home/itssahil/PROJECTS/Mol_Feturizer/New_Systems/rnas/4YAZ

>  <Rbt.Executable>
rbdock ($Id: //depot/dev/client3/rdock/2013.1/src/exe/rbdock.cxx#4 $)

>  <Rbt.Library>
libRbt.so (2013.1, Build901 2013/11/27)

>  <Rbt.Parameter_File>
/export/apps/rDock/src/rDock_2013.1_src/data/scripts/dock_solv.prm

>  <Rbt.Receptor>
prm/pocket_docking_4.prm

>  <SCORE>
-40.2785

>  <SCORE.INTER>
-39.4669

>  <SCORE.INTER.CONST>
1

>  <SCORE.INTER.POLAR>
0

>  <SCORE.INTER.ROT>
2

>  <SCORE.INTER.SOLV>
39.3513

>  <SCORE.INTER.VDW>
-44.3617

>  <SCORE.INTER.norm>
-0.877042

>  <SCORE.INTRA>
-0.811616

>  <SCORE.INTRA.DIHEDRAL>
-0.0645825

>  <SCORE.INTRA.DIHEDRAL.0>
2.39103

>  <SCORE.INTRA.POLAR>
0

>  <SCORE.INTRA.POLAR.0>
0

>  <SCORE.INTRA.REPUL>
0

>  <SCORE.INTRA.REPUL.0>
0

>  <SCORE.INTRA.SOLV>
0.995721

>  <SCORE.INTRA.SOLV.lig_0>
-163.975

>  <SCORE.INTRA.VDW>
-1.27719

>  <SCORE.INTRA.VDW.0>
-1.49176

>  <SCORE.INTRA.norm>
-0.0180359

>  <SCORE.RESTR>
0

>  <SCORE.RESTR.CAVITY>
0

>  <SCORE.RESTR.norm>
0

>  <SCORE.SYSTEM>
0

>  <SCORE.SYSTEM.CONST>
0

>  <SCORE.SYSTEM.DIHEDRAL>
0

>  <SCORE.SYSTEM.SOLV>
0

>  <SCORE.SYSTEM.norm>
0

>  <SCORE.heavy>
45

>  <SCORE.norm>
-0.895078

>  <RMSD>
1.719

$$$$
ligand
 OpenBabel11021811513D
libRbt.so/2013.1/901 2013/11/27
 45 51  0  0  0  0  0  0  0  0999 V2000
   97.2613   16.8532   96.7842 C   0  0  0  0  0  0  0  0  0  0  0  0
   95.6199   14.8627   93.6557 C   0  0  0  0  0  0  0  0  0  0  0  0
  102.1730   15.4230   99.2809 N   0  0  0  0  0  0  0  0  0  0  0  0
   97.2105   17.0783   98.0570 N   0  0  0  0  0  0  0  0  0  0  0  0
  100.4088   15.8142   97.8007 N   0  0  0  0  0  0  0  0  0  0  0  0
  100.1479   16.2901  100.0637 N   0  0  0  0  0  0  0  0  0  0  0  0
   98.1030   17.2405  100.8940 O   0  0  0  0  0  0  0  0  0  0  0  0
   92.7493   15.9154   94.1337 O   0  5  0  0  0  0  0  0  0  0  0  0
   98.0966   10.5022   93.6881 O   0  5  0  0  0  0  0  0  0  0  0  0
   99.9480   14.2284   94.2612 O   0  0  0  0  0  0  0  0  0  0  0  0
   93.1115   15.4828   96.2866 O   0  5  0  0  0  0  0  0  0  0  0  0
   98.8563   11.4893   95.5441 O   0  5  0  0  0  0  0  0  0  0  0  0
   95.0168   15.5725   94.6621 O   0  0  0  0  0  0  0  0  0  0  0  0
   97.6479   16.3120   94.1828 O   0  0  0  0  0  0  0  0  0  0  0  0
   97.7881   12.8560   93.6759 O   0  0  0  0  0  0  0  0  0  0  0  0
  100.8345   15.8557   99.0361 C   0  0  0  0  0  0  0  0  0  0  0  0
   98.9146   16.7405   99.8773 C   0  0  0  0  0  0  0  0  0  0  0  0
   98.3766   16.7086   98.5709 C   0  0  0  0  0  0  0  0  0  0  0  0
   99.1543   16.2479   97.5372 C   0  0  0  0  0  0  0  0  0  0  0  0
   98.9040   14.6681   95.0464 C   0  0  2  0  0  0  0  0  0  0  0  0
   97.0917   14.9595   93.7050 C   0  0  1  0  0  0  0  0  0  0  0  0
   97.5504   14.0452   94.4198 C   0  0  1  0  0  0  0  0  0  0  0  0
   98.7548   15.9763   95.1426 C   0  0  2  0  0  0  0  0  0  0  0  0
   98.3914   16.3504   96.4482 N   0  0  0  0  0  0  0  0  0  0  0  0
   93.5540   15.1360   94.9816 P   0  0  2  0  0  0  0  0  0  0  0  0
   97.8247   11.5793   94.5399 P   0  0  1  0  0  0  0  0  0  0  0  0
   95.2316   11.4295   94.2651 C   0  0  0  0  0  0  0  0  0  0  0  0
   96.3919   11.3086   95.1036 O   0  0  0  0  0  0  0  0  0  0  0  0
   93.9550   11.5414   94.9862 C   0  0  1  0  0  0  0  0  0  0  0  0
   93.9702   10.4770   96.1903 O   0  0  0  0  0  0  0  0  0  0  0  0
   93.8665   12.6692   95.5339 C   0  0  1  0  0  0  0  0  0  0  0  0
   93.2870   13.6609   94.6552 O   0  0  0  0  0  0  0  0  0  0  0  0
   93.0614   12.4035   96.7969 C   0  0  1  0  0  0  0  0  0  0  0  0
   91.8267   12.4196   96.5380 O   0  0  0  0  0  0  0  0  0  0  0  0
   93.4588   10.9862   97.2096 C   0  0  2  0  0  0  0  0  0  0  0  0
   97.9904    9.7830   99.3196 N   0  0  0  0  0  0  0  0  0  0  0  0
   97.6524    9.7074   98.0055 C   0  0  0  0  0  0  0  0  0  0  0  0
   96.4226   10.0762   97.6680 N   0  0  0  0  0  0  0  0  0  0  0  0
   95.4735   10.4578   98.5493 C   0  0  0  0  0  0  0  0  0  0  0  0
   95.7866   10.5489   99.9225 C   0  0  0  0  0  0  0  0  0  0  0  0
   97.1218   10.1698  100.2730 C   0  0  0  0  0  0  0  0  0  0  0  0
   97.5201   10.2086  101.6419 N   0  0  0  0  0  0  0  0  0  0  0  0
   94.7253   10.9726  100.5142 N   0  0  0  0  0  0  0  0  0  0  0  0
   93.7831   11.1734   99.6093 C   0  0  0  0  0  0  0  0  0  0  0  0
   94.1979   10.8551   98.4354 N   0  0  0  0  0  0  0  0  0  0  0  0
  1 24  1  0  0  0  0
  1  4  2  0  0  0  0
  2 13  1  0  0  0  0
  2 21  1  0  0  0  0
  3 16  1  0  0  0  0
  4 18  1  0  0  0  0
  5 19  2  0  0  0  0
  5 16  1  0  0  0  0
  6 16  2  0  0  0  0
  6 17  1  0  0  0  0
  7 17  1  0  0  0  0
 11 25  2  0  0  0  0
 12 26  2  0  0  0  0
 13 25  1  0  0  0  0
 14 23  1  0  0  0  0
 15 26  1  0  0  0  0
 17 18  2  0  0  0  0
 18 19  1  0  0  0  0
 19 24  1  0  0  0  0
 20 10  1  6  0  0  0
 20 22  1  0  0  0  0
 20 23  1  0  0  0  0
 21 14  1  1  0  0  0
 21 22  1  0  0  0  0
 22 15  1  6  0  0  0
 23 24  1  1  0  0  0
 25  8  1  6  0  0  0
 25 32  1  0  0  0  0
 26  9  1  6  0  0  0
 26 28  1  0  0  0  0
 27 28  1  0  0  0  0
 29 27  1  1  0  0  0
 29 30  1  0  0  0  0
 29 31  1  0  0  0  0
 30 35  1  0  0  0  0
 31 33  1  0  0  0  0
 31 32  1  6  0  0  0
 33 34  1  6  0  0  0
 33 35  1  0  0  0  0
 35 45  1  1  0  0  0
 36 41  2  0  0  0  0
 36 37  1  0  0  0  0
 37 38  2  0  0  0  0
 38 39  1  0  0  0  0
 39 40  2  0  0  0  0
 39 45  1  0  0  0  0
 40 41  1  0  0  0  0
 40 43  1  0  0  0  0
 41 42  1  0  0  0  0
 43 44  2  0  0  0  0
 44 45  1  0  0  0  0
M  CHG  4   8  -1   9  -1  11  -1  12  -1
M  END
>  <CHROM.1>
2.67921609,12.71648067,96.55696237,13.44924217,96.62747883,0.29327630,-0.66272388
-0.75792812

>  <Name>
ligand

>  <RI>
0

>  <Rbt.Current_Directory>
/home/itssahil/PROJECTS/Mol_Feturizer/New_Systems/rnas/4YAZ

>  <Rbt.Executable>
rbdock ($Id: //depot/dev/client3/rdock/2013.1/src/exe/rbdock.cxx#4 $)

>  <Rbt.Library>
libRbt.so (2013.1, Build901 2013/11/27)

>  <Rbt.Parameter_File>
/export/apps/rDock/src/rDock_2013.1_src/data/scripts/dock_solv.prm

>  <Rbt.Receptor>
prm/pocket_docking_4.prm

>  <SCORE>
-40.344

>  <SCORE.INTER>
-39.5604

>  <SCORE.INTER.CONST>
1

>  <SCORE.INTER.POLAR>
0

>  <SCORE.INTER.ROT>
2

>  <SCORE.INTER.SOLV>
39.2359

>  <SCORE.INTER.VDW>
-44.3856

>  <SCORE.INTER.norm>
-0.879119

>  <SCORE.INTRA>
-0.783677

>  <SCORE.INTRA.DIHEDRAL>
-0.0615221

>  <SCORE.INTRA.DIHEDRAL.0>
2.39103

>  <SCORE.INTRA.POLAR>
0

>  <SCORE.INTRA.POLAR.0>
0

>  <SCORE.INTRA.REPUL>
0

>  <SCORE.INTRA.REPUL.0>
0

>  <SCORE.INTRA.SOLV>
0.969935

>  <SCORE.INTRA.SOLV.lig_0>
-163.975

>  <SCORE.INTRA.VDW>
-1.23788

>  <SCORE.INTRA.VDW.0>
-1.49176

>  <SCORE.INTRA.norm>
-0.017415

>  <SCORE.RESTR>
0

>  <SCORE.RESTR.CAVITY>
0

>  <SCORE.RESTR.norm>
0

>  <SCORE.SYSTEM>
0

>  <SCORE.SYSTEM.CONST>
0

>  <SCORE.SYSTEM.DIHEDRAL>
0

>  <SCORE.SYSTEM.SOLV>
0

>  <SCORE.SYSTEM.norm>
0

>  <SCORE.heavy>
45

>  <SCORE.norm>
-0.896534

>  <RMSD>
1.720

$$$$
ligand
 OpenBabel11021811513D
libRbt.so/2013.1/901 2013/11/27
 45 51  0  0  0  0  0  0  0  0999 V2000
   97.2703   16.8357   96.8232 C   0  0  0  0  0  0  0  0  0  0  0  0
   95.6260   14.8927   93.6780 C   0  0  0  0  0  0  0  0  0  0  0  0
  102.2180   15.4694   99.2840 N   0  0  0  0  0  0  0  0  0  0  0  0
   97.2242   17.0559   98.0970 N   0  0  0  0  0  0  0  0  0  0  0  0
  100.4390   15.8396   97.8163 N   0  0  0  0  0  0  0  0  0  0  0  0
  100.1856   16.3042  100.0825 N   0  0  0  0  0  0  0  0  0  0  0  0
   98.1323   17.2218  100.9289 O   0  0  0  0  0  0  0  0  0  0  0  0
   92.7588   15.9489   94.1687 O   0  5  0  0  0  0  0  0  0  0  0  0
   98.0914   10.5258   93.6715 O   0  5  0  0  0  0  0  0  0  0  0  0
   99.9533   14.2424   94.2719 O   0  0  0  0  0  0  0  0  0  0  0  0
   93.1230   15.4979   96.3175 O   0  5  0  0  0  0  0  0  0  0  0  0
   98.8565   11.4958   95.5343 O   0  5  0  0  0  0  0  0  0  0  0  0
   95.0262   15.5959   94.6910 O   0  0  0  0  0  0  0  0  0  0  0  0
   97.6585   16.3325   94.2138 O   0  0  0  0  0  0  0  0  0  0  0  0
   97.7890   12.8804   93.6788 O   0  0  0  0  0  0  0  0  0  0  0  0
  100.8719   15.8833   99.0491 C   0  0  0  0  0  0  0  0  0  0  0  0
   98.9446   16.7372   99.9054 C   0  0  0  0  0  0  0  0  0  0  0  0
   98.3989   16.7017   98.6023 C   0  0  0  0  0  0  0  0  0  0  0  0
   99.1766   16.2558   97.5622 C   0  0  0  0  0  0  0  0  0  0  0  0
   98.9116   14.6785   95.0623 C   0  0  2  0  0  0  0  0  0  0  0  0
   97.0981   14.9854   93.7259 C   0  0  1  0  0  0  0  0  0  0  0  0
   97.5554   14.0641   94.4326 C   0  0  1  0  0  0  0  0  0  0  0  0
   98.7659   15.9862   95.1692 C   0  0  2  0  0  0  0  0  0  0  0  0
   98.4054   16.3506   96.4784 N   0  0  0  0  0  0  0  0  0  0  0  0
   93.5628   15.1606   95.0091 P   0  0  2  0  0  0  0  0  0  0  0  0
   97.8236   11.5966   94.5324 P   0  0  1  0  0  0  0  0  0  0  0  0
   95.2297   11.4557   94.2602 C   0  0  0  0  0  0  0  0  0  0  0  0
   96.3909   11.3251   95.0959 O   0  0  0  0  0  0  0  0  0  0  0  0
   93.9544   11.5651   94.9841 C   0  0  1  0  0  0  0  0  0  0  0  0
   93.9686   10.4909   96.1795 O   0  0  0  0  0  0  0  0  0  0  0  0
   93.8697   12.6886   95.5410 C   0  0  1  0  0  0  0  0  0  0  0  0
   93.2914   13.6889   94.6712 O   0  0  0  0  0  0  0  0  0  0  0  0
   93.0658   12.4148   96.8030 C   0  0  1  0  0  0  0  0  0  0  0  0
   91.8307   12.4362   96.5461 O   0  0  0  0  0  0  0  0  0  0  0  0
   93.4601   10.9931   97.2037 C   0  0  2  0  0  0  0  0  0  0  0  0
   97.9901    9.7565   99.2974 N   0  0  0  0  0  0  0  0  0  0  0  0
   97.6498    9.6917   97.9834 C   0  0  0  0  0  0  0  0  0  0  0  0
   96.4209   10.0680   97.6506 N   0  0  0  0  0  0  0  0  0  0  0  0
   95.4748   10.4470   98.5362 C   0  0  0  0  0  0  0  0  0  0  0  0
   95.7905   10.5269   99.9095 C   0  0  0  0  0  0  0  0  0  0  0  0
   97.1247   10.1399  100.2551 C   0  0  0  0  0  0  0  0  0  0  0  0
   97.5253   10.1673  101.6235 N   0  0  0  0  0  0  0  0  0  0  0  0
   94.7319   10.9506  100.5060 N   0  0  0  0  0  0  0  0  0  0  0  0
   93.7891   11.1618   99.6041 C   0  0  0  0  0  0  0  0  0  0  0  0
   94.2007   10.8503   98.4273 N   0  0  0  0  0  0  0  0  0  0  0  0
  1 24  1  0  0  0  0
  1  4  2  0  0  0  0
  2 13  1  0  0  0  0
  2 21  1  0  0  0  0
  3 16  1  0  0  0  0
  4 18  1  0  0  0  0
  5 19  2  0  0  0  0
  5 16  1  0  0  0  0
  6 16  2  0  0  0  0
  6 17  1  0  0  0  0
  7 17  1  0  0  0  0
 11 25  2  0  0  0  0
 12 26  2  0  0  0  0
 13 25  1  0  0  0  0
 14 23  1  0  0  0  0
 15 26  1  0  0  0  0
 17 18  2  0  0  0  0
 18 19  1  0  0  0  0
 19 24  1  0  0  0  0
 20 10  1  6  0  0  0
 20 22  1  0  0  0  0
 20 23  1  0  0  0  0
 21 14  1  1  0  0  0
 21 22  1  0  0  0  0
 22 15  1  6  0  0  0
 23 24  1  1  0  0  0
 25  8  1  6  0  0  0
 25 32  1  0  0  0  0
 26  9  1  6  0  0  0
 26 28  1  0  0  0  0
 27 28  1  0  0  0  0
 29 27  1  1  0  0  0
 29 30  1  0  0  0  0
 29 31  1  0  0  0  0
 30 35  1  0  0  0  0
 31 33  1  0  0  0  0
 31 32  1  6  0  0  0
 33 34  1  6  0  0  0
 33 35  1  0  0  0  0
 35 45  1  1  0  0  0
 36 41  2  0  0  0  0
 36 37  1  0  0  0  0
 37 38  2  0  0  0  0
 38 39  1  0  0  0  0
 39 40  2  0  0  0  0
 39 45  1  0  0  0  0
 40 41  1  0  0  0  0
 40 43  1  0  0  0  0
 41 42  1  0  0  0  0
 43 44  2  0  0  0  0
 44 45  1  0  0  0  0
M  CHG  4   8  -1   9  -1  11  -1  12  -1
M  END
>  <CHROM.1>
3.73911770,12.61706792,96.56567729,13.45781130,96.63597141,0.29850865,-0.66161011
-0.75002711

>  <Name>
ligand

>  <RI>
0

>  <Rbt.Current_Directory>
/home/itssahil/PROJECTS/Mol_Feturizer/New_Systems/rnas/4YAZ

>  <Rbt.Executable>
rbdock ($Id: //depot/dev/client3/rdock/2013.1/src/exe/rbdock.cxx#4 $)

>  <Rbt.Library>
libRbt.so (2013.1, Build901 2013/11/27)

>  <Rbt.Parameter_File>
/export/apps/rDock/src/rDock_2013.1_src/data/scripts/dock_solv.prm

>  <Rbt.Receptor>
prm/pocket_docking_5.prm

>  <SCORE>
-40.3476

>  <SCORE.INTER>
-39.5308

>  <SCORE.INTER.CONST>
1

>  <SCORE.INTER.POLAR>
0

>  <SCORE.INTER.ROT>
2

>  <SCORE.INTER.SOLV>
39.7252

>  <SCORE.INTER.VDW>
-44.5289

>  <SCORE.INTER.norm>
-0.878462

>  <SCORE.INTRA>
-0.816852

>  <SCORE.INTRA.DIHEDRAL>
-0.0606155

>  <SCORE.INTRA.DIHEDRAL.0>
2.39103

>  <SCORE.INTRA.POLAR>
0

>  <SCORE.INTRA.POLAR.0>
0

>  <SCORE.INTRA.REPUL>
0

>  <SCORE.INTRA.REPUL.0>
0

>  <SCORE.INTRA.SOLV>
0.963389

>  <SCORE.INTRA.SOLV.lig_0>
-163.975

>  <SCORE.INTRA.VDW>
-1.26824

>  <SCORE.INTRA.VDW.0>
-1.49176

>  <SCORE.INTRA.norm>
-0.0181523

>  <SCORE.RESTR>
0

>  <SCORE.RESTR.CAVITY>
0

>  <SCORE.RESTR.norm>
0

>  <SCORE.SYSTEM>
0

>  <SCORE.SYSTEM.CONST>
0

>  <SCORE.SYSTEM.DIHEDRAL>
0

>  <SCORE.SYSTEM.SOLV>
0

>  <SCORE.SYSTEM.norm>
0

>  <SCORE.heavy>
45

>  <SCORE.norm>
-0.896614

>  <RMSD>
1.721

$$$$
ligand
 OpenBabel11021811513D
libRbt.so/2013.1/901 2013/11/27
 45 51  0  0  0  0  0  0  0  0999 V2000
   97.2721   16.8787   96.7782 C   0  0  0  0  0  0  0  0  0  0  0  0
   95.6126   14.8957   93.6457 C   0  0  0  0  0  0  0  0  0  0  0  0
  102.1721   15.3684   99.2505 N   0  0  0  0  0  0  0  0  0  0  0  0
   97.2258   17.0905   98.0535 N   0  0  0  0  0  0  0  0  0  0  0  0
  100.4098   15.7948   97.7777 N   0  0  0  0  0  0  0  0  0  0  0  0
  100.1578   16.2487  100.0462 N   0  0  0  0  0  0  0  0  0  0  0  0
   98.1246   17.2119  100.8905 O   0  0  0  0  0  0  0  0  0  0  0  0
   92.7426   15.9397   94.1466 O   0  5  0  0  0  0  0  0  0  0  0  0
   98.0971   10.5396   93.6326 O   0  5  0  0  0  0  0  0  0  0  0  0
   99.9449   14.2647   94.2238 O   0  0  0  0  0  0  0  0  0  0  0  0
   93.1169   15.4916   96.2943 O   0  5  0  0  0  0  0  0  0  0  0  0
   98.8648   11.5141   95.4919 O   0  5  0  0  0  0  0  0  0  0  0  0
   95.0135   15.5969   94.6605 O   0  0  0  0  0  0  0  0  0  0  0  0
   97.6407   16.3447   94.1730 O   0  0  0  0  0  0  0  0  0  0  0  0
   97.7844   12.8928   93.6396 O   0  0  0  0  0  0  0  0  0  0  0  0
  100.8380   15.8183   99.0128 C   0  0  0  0  0  0  0  0  0  0  0  0
   98.9291   16.7144   99.8669 C   0  0  0  0  0  0  0  0  0  0  0  0
   98.3887   16.7027   98.5612 C   0  0  0  0  0  0  0  0  0  0  0  0
   99.1596   16.2449   97.5212 C   0  0  0  0  0  0  0  0  0  0  0  0
   98.9043   14.6967   95.0178 C   0  0  2  0  0  0  0  0  0  0  0  0
   97.0844   14.9948   93.6880 C   0  0  1  0  0  0  0  0  0  0  0  0
   97.5485   14.0760   94.3936 C   0  0  1  0  0  0  0  0  0  0  0  0
   98.7533   16.0038   95.1244 C   0  0  2  0  0  0  0  0  0  0  0  0
   98.3961   16.3675   96.4347 N   0  0  0  0  0  0  0  0  0  0  0  0
   93.5532   15.1553   94.9844 P   0  0  2  0  0  0  0  0  0  0  0  0
   97.8278   11.6097   94.4938 P   0  0  1  0  0  0  0  0  0  0  0  0
   95.2336   11.4574   94.2315 C   0  0  0  0  0  0  0  0  0  0  0  0
   96.3985   11.3323   95.0629 O   0  0  0  0  0  0  0  0  0  0  0  0
   93.9605   11.5616   94.9601 C   0  0  1  0  0  0  0  0  0  0  0  0
   93.9839   10.4882   96.1561 O   0  0  0  0  0  0  0  0  0  0  0  0
   93.8730   12.6851   95.5167 C   0  0  1  0  0  0  0  0  0  0  0  0
   93.2870   13.6822   94.6484 O   0  0  0  0  0  0  0  0  0  0  0  0
   93.0750   12.4085   96.7819 C   0  0  1  0  0  0  0  0  0  0  0  0
   91.8389   12.4243   96.5296 O   0  0  0  0  0  0  0  0  0  0  0  0
   93.4771   10.9889   97.1819 C   0  0  2  0  0  0  0  0  0  0  0  0
   98.0049    9.7233   99.2631 N   0  0  0  0  0  0  0  0  0  0  0  0
   97.6565    9.6492   97.9516 C   0  0  0  0  0  0  0  0  0  0  0  0
   96.4300   10.0356   97.6218 N   0  0  0  0  0  0  0  0  0  0  0  0
   95.4931   10.4338   98.5088 C   0  0  0  0  0  0  0  0  0  0  0  0
   95.8173   10.5239   99.8794 C   0  0  0  0  0  0  0  0  0  0  0  0
   97.1490   10.1257  100.2215 C   0  0  0  0  0  0  0  0  0  0  0  0
   97.5576   10.1622  101.5874 N   0  0  0  0  0  0  0  0  0  0  0  0
   94.7668   10.9651  100.4774 N   0  0  0  0  0  0  0  0  0  0  0  0
   93.8212   11.1777   99.5787 C   0  0  0  0  0  0  0  0  0  0  0  0
   94.2228   10.8500   98.4028 N   0  0  0  0  0  0  0  0  0  0  0  0
  1 24  1  0  0  0  0
  1  4  2  0  0  0  0
  2 13  1  0  0  0  0
  2 21  1  0  0  0  0
  3 16  1  0  0  0  0
  4 18  1  0  0  0  0
  5 19  2  0  0  0  0
  5 16  1  0  0  0  0
  6 16  2  0  0  0  0
  6 17  1  0  0  0  0
  7 17  1  0  0  0  0
 11 25  2  0  0  0  0
 12 26  2  0  0  0  0
 13 25  1  0  0  0  0
 14 23  1  0  0  0  0
 15 26  1  0  0  0  0
 17 18  2  0  0  0  0
 18 19  1  0  0  0  0
 19 24  1  0  0  0  0
 20 10  1  6  0  0  0
 20 22  1  0  0  0  0
 20 23  1  0  0  0  0
 21 14  1  1  0  0  0
 21 22  1  0  0  0  0
 22 15  1  6  0  0  0
 23 24  1  1  0  0  0
 25  8  1  6  0  0  0
 25 32  1  0  0  0  0
 26  9  1  6  0  0  0
 26 28  1  0  0  0  0
 27 28  1  0  0  0  0
 29 27  1  1  0  0  0
 29 30  1  0  0  0  0
 29 31  1  0  0  0  0
 30 35  1  0  0  0  0
 31 33  1  0  0  0  0
 31 32  1  6  0  0  0
 33 34  1  6  0  0  0
 33 35  1  0  0  0  0
 35 45  1  1  0  0  0
 36 41  2  0  0  0  0
 36 37  1  0  0  0  0
 37 38  2  0  0  0  0
 38 39  1  0  0  0  0
 39 40  2  0  0  0  0
 39 45  1  0  0  0  0
 40 41  1  0  0  0  0
 40 43  1  0  0  0  0
 41 42  1  0  0  0  0
 43 44  2  0  0  0  0
 44 45  1  0  0  0  0
M  CHG  4   8  -1   9  -1  11  -1  12  -1
M  END
>  <CHROM.1>
1.90456365,11.58223382,96.56499489,13.45364763,96.60282948,0.30772055,-0.65919229
-0.74169237

>  <Name>
ligand

>  <RI>
0

>  <Rbt.Current_Directory>
/home/itssahil/PROJECTS/Mol_Feturizer/New_Systems/rnas/4YAZ

>  <Rbt.Executable>
rbdock ($Id: //depot/dev/client3/rdock/2013.1/src/exe/rbdock.cxx#4 $)

>  <Rbt.Library>
libRbt.so (2013.1, Build901 2013/11/27)

>  <Rbt.Parameter_File>
/export/apps/rDock/src/rDock_2013.1_src/data/scripts/dock_solv.prm

>  <Rbt.Receptor>
prm/pocket_docking_4.prm

>  <SCORE>
-40.3391

>  <SCORE.INTER>
-39.5678

>  <SCORE.INTER.CONST>
1

>  <SCORE.INTER.POLAR>
0

>  <SCORE.INTER.ROT>
2

>  <SCORE.INTER.SOLV>
39.3464

>  <SCORE.INTER.VDW>
-44.4273

>  <SCORE.INTER.norm>
-0.879284

>  <SCORE.INTRA>
-0.771304

>  <SCORE.INTRA.DIHEDRAL>
-0.0546883

>  <SCORE.INTRA.DIHEDRAL.0>
2.39103

>  <SCORE.INTRA.POLAR>
0

>  <SCORE.INTRA.POLAR.0>
0

>  <SCORE.INTRA.REPUL>
0

>  <SCORE.INTRA.REPUL.0>
0

>  <SCORE.INTRA.SOLV>
0.912958

>  <SCORE.INTRA.SOLV.lig_0>
-163.975

>  <SCORE.INTRA.VDW>
-1.20044

>  <SCORE.INTRA.VDW.0>
-1.49176

>  <SCORE.INTRA.norm>
-0.0171401

>  <SCORE.RESTR>
0

>  <SCORE.RESTR.CAVITY>
0

>  <SCORE.RESTR.norm>
0

>  <SCORE.SYSTEM>
0

>  <SCORE.SYSTEM.CONST>
0

>  <SCORE.SYSTEM.DIHEDRAL>
0

>  <SCORE.SYSTEM.SOLV>
0

>  <SCORE.SYSTEM.norm>
0

>  <SCORE.heavy>
45

>  <SCORE.norm>
-0.896424

>  <RMSD>
1.727

$$$$
ligand
 OpenBabel11021811513D
libRbt.so/2013.1/901 2013/11/27
 45 51  0  0  0  0  0  0  0  0999 V2000
   97.2716   16.8683   96.7712 C   0  0  0  0  0  0  0  0  0  0  0  0
   95.6146   14.8919   93.6409 C   0  0  0  0  0  0  0  0  0  0  0  0
  102.1972   15.4234   99.2316 N   0  0  0  0  0  0  0  0  0  0  0  0
   97.2277   17.0853   98.0457 N   0  0  0  0  0  0  0  0  0  0  0  0
  100.4248   15.8237   97.7636 N   0  0  0  0  0  0  0  0  0  0  0  0
  100.1763   16.2850  100.0311 N   0  0  0  0  0  0  0  0  0  0  0  0
   98.1358   17.2294  100.8787 O   0  0  0  0  0  0  0  0  0  0  0  0
   92.7449   15.9364   94.1422 O   0  5  0  0  0  0  0  0  0  0  0  0
   98.0993   10.5360   93.6325 O   0  5  0  0  0  0  0  0  0  0  0  0
   99.9473   14.2620   94.2168 O   0  0  0  0  0  0  0  0  0  0  0  0
   93.1207   15.4916   96.2903 O   0  5  0  0  0  0  0  0  0  0  0  0
   98.8683   11.5133   95.4898 O   0  5  0  0  0  0  0  0  0  0  0  0
   95.0161   15.5946   94.6551 O   0  0  0  0  0  0  0  0  0  0  0  0
   97.6429   16.3418   94.1646 O   0  0  0  0  0  0  0  0  0  0  0  0
   97.7865   12.8892   93.6362 O   0  0  0  0  0  0  0  0  0  0  0  0
  100.8573   15.8574   98.9970 C   0  0  0  0  0  0  0  0  0  0  0  0
   98.9418   16.7363   99.8544 C   0  0  0  0  0  0  0  0  0  0  0  0
   98.3967   16.7126   98.5508 C   0  0  0  0  0  0  0  0  0  0  0  0
   99.1688   16.2588   97.5099 C   0  0  0  0  0  0  0  0  0  0  0  0
   98.9072   14.6952   95.0109 C   0  0  2  0  0  0  0  0  0  0  0  0
   97.0864   14.9912   93.6820 C   0  0  1  0  0  0  0  0  0  0  0  0
   97.5510   14.0735   94.3886 C   0  0  1  0  0  0  0  0  0  0  0  0
   98.7562   16.0024   95.1157 C   0  0  2  0  0  0  0  0  0  0  0  0
   98.3999   16.3680   96.4258 N   0  0  0  0  0  0  0  0  0  0  0  0
   93.5561   15.1534   94.9806 P   0  0  2  0  0  0  0  0  0  0  0  0
   97.8306   11.6074   94.4923 P   0  0  1  0  0  0  0  0  0  0  0  0
   95.2362   11.4544   94.2320 C   0  0  0  0  0  0  0  0  0  0  0  0
   96.4017   11.3307   95.0628 O   0  0  0  0  0  0  0  0  0  0  0  0
   93.9636   11.5596   94.9613 C   0  0  1  0  0  0  0  0  0  0  0  0
   93.9880   10.4881   96.1589 O   0  0  0  0  0  0  0  0  0  0  0  0
   93.8764   12.6840   95.5163 C   0  0  1  0  0  0  0  0  0  0  0  0
   93.2898   13.6798   94.6470 O   0  0  0  0  0  0  0  0  0  0  0  0
   93.0793   12.4092   96.7825 C   0  0  1  0  0  0  0  0  0  0  0  0
   91.8431   12.4246   96.5310 O   0  0  0  0  0  0  0  0  0  0  0  0
   93.4818   10.9902   97.1843 C   0  0  2  0  0  0  0  0  0  0  0  0
   97.9794    9.6324   99.2729 N   0  0  0  0  0  0  0  0  0  0  0  0
   97.6233    9.5431   97.9644 C   0  0  0  0  0  0  0  0  0  0  0  0
   96.4073    9.9590   97.6317 N   0  0  0  0  0  0  0  0  0  0  0  0
   95.4863   10.4018   98.5142 C   0  0  0  0  0  0  0  0  0  0  0  0
   95.8189   10.5089   99.8816 C   0  0  0  0  0  0  0  0  0  0  0  0
   97.1399   10.0784  100.2265 C   0  0  0  0  0  0  0  0  0  0  0  0
   97.5553   10.1294  101.5899 N   0  0  0  0  0  0  0  0  0  0  0  0
   94.7844   10.9925  100.4748 N   0  0  0  0  0  0  0  0  0  0  0  0
   93.8417   11.2154   99.5756 C   0  0  0  0  0  0  0  0  0  0  0  0
   94.2284   10.8532   98.4049 N   0  0  0  0  0  0  0  0  0  0  0  0
  1 24  1  0  0  0  0
  1  4  2  0  0  0  0
  2 13  1  0  0  0  0
  2 21  1  0  0  0  0
  3 16  1  0  0  0  0
  4 18  1  0  0  0  0
  5 19  2  0  0  0  0
  5 16  1  0  0  0  0
  6 16  2  0  0  0  0
  6 17  1  0  0  0  0
  7 17  1  0  0  0  0
 11 25  2  0  0  0  0
 12 26  2  0  0  0  0
 13 25  1  0  0  0  0
 14 23  1  0  0  0  0
 15 26  1  0  0  0  0
 17 18  2  0  0  0  0
 18 19  1  0  0  0  0
 19 24  1  0  0  0  0
 20 10  1  6  0  0  0
 20 22  1  0  0  0  0
 20 23  1  0  0  0  0
 21 14  1  1  0  0  0
 21 22  1  0  0  0  0
 22 15  1  6  0  0  0
 23 24  1  1  0  0  0
 25  8  1  6  0  0  0
 25 32  1  0  0  0  0
 26  9  1  6  0  0  0
 26 28  1  0  0  0  0
 27 28  1  0  0  0  0
 29 27  1  1  0  0  0
 29 30  1  0  0  0  0
 29 31  1  0  0  0  0
 30 35  1  0  0  0  0
 31 33  1  0  0  0  0
 31 32  1  6  0  0  0
 33 34  1  6  0  0  0
 33 35  1  0  0  0  0
 35 45  1  1  0  0  0
 36 41  2  0  0  0  0
 36 37  1  0  0  0  0
 37 38  2  0  0  0  0
 38 39  1  0  0  0  0
 39 40  2  0  0  0  0
 39 45  1  0  0  0  0
 40 41  1  0  0  0  0
 40 43  1  0  0  0  0
 41 42  1  0  0  0  0
 43 44  2  0  0  0  0
 44 45  1  0  0  0  0
M  CHG  4   8  -1   9  -1  11  -1  12  -1
M  END
>  <CHROM.1>
2.58066827,9.59071302,96.56816739,13.45022202,96.59943989,0.33299515,-0.66028760
-0.73446389

>  <Name>
ligand

>  <RI>
0

>  <Rbt.Current_Directory>
/home/itssahil/PROJECTS/Mol_Feturizer/New_Systems/rnas/4YAZ

>  <Rbt.Executable>
rbdock ($Id: //depot/dev/client3/rdock/2013.1/src/exe/rbdock.cxx#4 $)

>  <Rbt.Library>
libRbt.so (2013.1, Build901 2013/11/27)

>  <Rbt.Parameter_File>
/export/apps/rDock/src/rDock_2013.1_src/data/scripts/dock_solv.prm

>  <Rbt.Receptor>
prm/pocket_docking_7.prm

>  <SCORE>
-40.2527

>  <SCORE.INTER>
-39.4754

>  <SCORE.INTER.CONST>
1

>  <SCORE.INTER.POLAR>
0

>  <SCORE.INTER.ROT>
2

>  <SCORE.INTER.SOLV>
39.4298

>  <SCORE.INTER.VDW>
-44.3936

>  <SCORE.INTER.norm>
-0.877232

>  <SCORE.INTRA>
-0.777235

>  <SCORE.INTRA.DIHEDRAL>
-0.0415802

>  <SCORE.INTRA.DIHEDRAL.0>
2.39103

>  <SCORE.INTRA.POLAR>
0

>  <SCORE.INTRA.POLAR.0>
0

>  <SCORE.INTRA.REPUL>
0

>  <SCORE.INTRA.REPUL.0>
0

>  <SCORE.INTRA.SOLV>
0.804946

>  <SCORE.INTRA.SOLV.lig_0>
-163.975

>  <SCORE.INTRA.VDW>
-1.15892

>  <SCORE.INTRA.VDW.0>
-1.49176

>  <SCORE.INTRA.norm>
-0.0172719

>  <SCORE.RESTR>
0

>  <SCORE.RESTR.CAVITY>
0

>  <SCORE.RESTR.norm>
0

>  <SCORE.SYSTEM>
0

>  <SCORE.SYSTEM.CONST>
0

>  <SCORE.SYSTEM.DIHEDRAL>
0

>  <SCORE.SYSTEM.SOLV>
0

>  <SCORE.SYSTEM.norm>
0

>  <SCORE.heavy>
45

>  <SCORE.norm>
-0.894504

>  <RMSD>
1.727

$$$$
ligand
 OpenBabel11021811513D
libRbt.so/2013.1/901 2013/11/27
 45 51  0  0  0  0  0  0  0  0999 V2000
   97.2660   16.8398   96.8050 C   0  0  0  0  0  0  0  0  0  0  0  0
   95.6174   14.8928   93.6606 C   0  0  0  0  0  0  0  0  0  0  0  0
  102.2038   15.4393   99.2665 N   0  0  0  0  0  0  0  0  0  0  0  0
   97.2201   17.0572   98.0793 N   0  0  0  0  0  0  0  0  0  0  0  0
  100.4281   15.8233   97.7982 N   0  0  0  0  0  0  0  0  0  0  0  0
  100.1755   16.2837  100.0654 N   0  0  0  0  0  0  0  0  0  0  0  0
   98.1267   17.2109  100.9123 O   0  0  0  0  0  0  0  0  0  0  0  0
   92.7502   15.9478   94.1546 O   0  5  0  0  0  0  0  0  0  0  0  0
   98.0840   10.5266   93.6485 O   0  5  0  0  0  0  0  0  0  0  0  0
   99.9453   14.2432   94.2505 O   0  0  0  0  0  0  0  0  0  0  0  0
   93.1164   15.4951   96.3027 O   0  5  0  0  0  0  0  0  0  0  0  0
   98.8503   11.4952   95.5115 O   0  5  0  0  0  0  0  0  0  0  0  0
   95.0181   15.5950   94.6747 O   0  0  0  0  0  0  0  0  0  0  0  0
   97.6498   16.3327   94.1959 O   0  0  0  0  0  0  0  0  0  0  0  0
   97.7809   12.8810   93.6580 O   0  0  0  0  0  0  0  0  0  0  0  0
  100.8603   15.8615   99.0316 C   0  0  0  0  0  0  0  0  0  0  0  0
   98.9371   16.7241   99.8883 C   0  0  0  0  0  0  0  0  0  0  0  0
   98.3923   16.6950   98.5847 C   0  0  0  0  0  0  0  0  0  0  0  0
   99.1684   16.2473   97.5441 C   0  0  0  0  0  0  0  0  0  0  0  0
   98.9042   14.6783   95.0420 C   0  0  2  0  0  0  0  0  0  0  0  0
   97.0894   14.9858   93.7074 C   0  0  1  0  0  0  0  0  0  0  0  0
   97.5476   14.0641   94.4130 C   0  0  1  0  0  0  0  0  0  0  0  0
   98.7582   15.9859   95.1501 C   0  0  2  0  0  0  0  0  0  0  0  0
   98.3987   16.3491   96.4599 N   0  0  0  0  0  0  0  0  0  0  0  0
   93.5551   15.1590   94.9937 P   0  0  2  0  0  0  0  0  0  0  0  0
   97.8166   11.5966   94.5105 P   0  0  1  0  0  0  0  0  0  0  0  0
   95.2225   11.4552   94.2403 C   0  0  0  0  0  0  0  0  0  0  0  0
   96.3844   11.3242   95.0750 O   0  0  0  0  0  0  0  0  0  0  0  0
   93.9478   11.5636   94.9653 C   0  0  1  0  0  0  0  0  0  0  0  0
   93.9633   10.4885   96.1598 O   0  0  0  0  0  0  0  0  0  0  0  0
   93.8632   12.6867   95.5233 C   0  0  1  0  0  0  0  0  0  0  0  0
   93.2839   13.6875   94.6547 O   0  0  0  0  0  0  0  0  0  0  0  0
   93.0604   12.4115   96.7857 C   0  0  1  0  0  0  0  0  0  0  0  0
   91.8251   12.4328   96.5298 O   0  0  0  0  0  0  0  0  0  0  0  0
   93.4554   10.9897   97.1849 C   0  0  2  0  0  0  0  0  0  0  0  0
   97.9801    9.7284   99.2755 N   0  0  0  0  0  0  0  0  0  0  0  0
   97.6370    9.6612   97.9623 C   0  0  0  0  0  0  0  0  0  0  0  0
   96.4103   10.0450   97.6302 N   0  0  0  0  0  0  0  0  0  0  0  0
   95.4685   10.4340   98.5160 C   0  0  0  0  0  0  0  0  0  0  0  0
   95.7870   10.5167   99.8885 C   0  0  0  0  0  0  0  0  0  0  0  0
   97.1190   10.1215  100.2332 C   0  0  0  0  0  0  0  0  0  0  0  0
   97.5222   10.1510  101.6009 N   0  0  0  0  0  0  0  0  0  0  0  0
   94.7325   10.9501  100.4851 N   0  0  0  0  0  0  0  0  0  0  0  0
   93.7897   11.1648   99.5841 C   0  0  0  0  0  0  0  0  0  0  0  0
   94.1970   10.8460   98.4077 N   0  0  0  0  0  0  0  0  0  0  0  0
  1 24  1  0  0  0  0
  1  4  2  0  0  0  0
  2 13  1  0  0  0  0
  2 21  1  0  0  0  0
  3 16  1  0  0  0  0
  4 18  1  0  0  0  0
  5 19  2  0  0  0  0
  5 16  1  0  0  0  0
  6 16  2  0  0  0  0
  6 17  1  0  0  0  0
  7 17  1  0  0  0  0
 11 25  2  0  0  0  0
 12 26  2  0  0  0  0
 13 25  1  0  0  0  0
 14 23  1  0  0  0  0
 15 26  1  0  0  0  0
 17 18  2  0  0  0  0
 18 19  1  0  0  0  0
 19 24  1  0  0  0  0
 20 10  1  6  0  0  0
 20 22  1  0  0  0  0
 20 23  1  0  0  0  0
 21 14  1  1  0  0  0
 21 22  1  0  0  0  0
 22 15  1  6  0  0  0
 23 24  1  1  0  0  0
 25  8  1  6  0  0  0
 25 32  1  0  0  0  0
 26  9  1  6  0  0  0
 26 28  1  0  0  0  0
 27 28  1  0  0  0  0
 29 27  1  1  0  0  0
 29 30  1  0  0  0  0
 29 31  1  0  0  0  0
 30 35  1  0  0  0  0
 31 33  1  0  0  0  0
 31 32  1  6  0  0  0
 33 34  1  6  0  0  0
 33 35  1  0  0  0  0
 35 45  1  1  0  0  0
 36 41  2  0  0  0  0
 36 37  1  0  0  0  0
 37 38  2  0  0  0  0
 38 39  1  0  0  0  0
 39 40  2  0  0  0  0
 39 45  1  0  0  0  0
 40 41  1  0  0  0  0
 40 43  1  0  0  0  0
 41 42  1  0  0  0  0
 43 44  2  0  0  0  0
 44 45  1  0  0  0  0
M  CHG  4   8  -1   9  -1  11  -1  12  -1
M  END
>  <CHROM.1>
3.37237998,12.11789758,96.55861243,13.45195358,96.61707167,0.30280317,-0.66072180
-0.74639534

>  <Name>
ligand

>  <RI>
0

>  <Rbt.Current_Directory>
/home/itssahil/PROJECTS/Mol_Feturizer/New_Systems/rnas/4YAZ

>  <Rbt.Executable>
rbdock ($Id: //depot/dev/client3/rdock/2013.1/src/exe/rbdock.cxx#4 $)

>  <Rbt.Library>
libRbt.so (2013.1, Build901 2013/11/27)

>  <Rbt.Parameter_File>
/export/apps/rDock/src/rDock_2013.1_src/data/scripts/dock_solv.prm

>  <Rbt.Receptor>
prm/pocket_docking_4.prm

>  <SCORE>
-40.3374

>  <SCORE.INTER>
-39.5261

>  <SCORE.INTER.CONST>
1

>  <SCORE.INTER.POLAR>
0

>  <SCORE.INTER.ROT>
2

>  <SCORE.INTER.SOLV>
39.4833

>  <SCORE.INTER.VDW>
-44.4451

>  <SCORE.INTER.norm>
-0.878357

>  <SCORE.INTRA>
-0.811304

>  <SCORE.INTRA.DIHEDRAL>
-0.0576343

>  <SCORE.INTRA.DIHEDRAL.0>
2.39103

>  <SCORE.INTRA.POLAR>
0

>  <SCORE.INTRA.POLAR.0>
0

>  <SCORE.INTRA.REPUL>
0

>  <SCORE.INTRA.REPUL.0>
0

>  <SCORE.INTRA.SOLV>
0.938547

>  <SCORE.INTRA.SOLV.lig_0>
-163.975

>  <SCORE.INTRA.VDW>
-1.25176

>  <SCORE.INTRA.VDW.0>
-1.49176

>  <SCORE.INTRA.norm>
-0.018029

>  <SCORE.RESTR>
0

>  <SCORE.RESTR.CAVITY>
0

>  <SCORE.RESTR.norm>
0

>  <SCORE.SYSTEM>
0

>  <SCORE.SYSTEM.CONST>
0

>  <SCORE.SYSTEM.DIHEDRAL>
0

>  <SCORE.SYSTEM.SOLV>
0

>  <SCORE.SYSTEM.norm>
0

>  <SCORE.heavy>
45

>  <SCORE.norm>
-0.896386

>  <RMSD>
1.728

$$$$
ligand
 OpenBabel11021811513D
libRbt.so/2013.1/901 2013/11/27
 45 51  0  0  0  0  0  0  0  0999 V2000
   97.2911   16.8029   96.7901 C   0  0  0  0  0  0  0  0  0  0  0  0
   95.6041   14.8776   93.6533 C   0  0  0  0  0  0  0  0  0  0  0  0
  102.2353   15.3587   99.2135 N   0  0  0  0  0  0  0  0  0  0  0  0
   97.2562   17.0183   98.0651 N   0  0  0  0  0  0  0  0  0  0  0  0
  100.4522   15.7595   97.7587 N   0  0  0  0  0  0  0  0  0  0  0  0
  100.2195   16.2177  100.0285 N   0  0  0  0  0  0  0  0  0  0  0  0
   98.1843   17.1596  100.8918 O   0  0  0  0  0  0  0  0  0  0  0  0
   92.7498   15.9565   94.1693 O   0  5  0  0  0  0  0  0  0  0  0  0
   98.0323   10.4900   93.6153 O   0  5  0  0  0  0  0  0  0  0  0  0
   99.9302   14.1890   94.2116 O   0  0  0  0  0  0  0  0  0  0  0  0
   93.1269   15.4963   96.3139 O   0  5  0  0  0  0  0  0  0  0  0  0
   98.8200   11.4482   95.4748 O   0  5  0  0  0  0  0  0  0  0  0  0
   95.0181   15.5828   94.6729 O   0  0  0  0  0  0  0  0  0  0  0  0
   97.6527   16.2986   94.1772 O   0  0  0  0  0  0  0  0  0  0  0  0
   97.7499   12.8470   93.6315 O   0  0  0  0  0  0  0  0  0  0  0  0
  100.8934   15.7920   98.9890 C   0  0  0  0  0  0  0  0  0  0  0  0
   98.9834   16.6683   99.8611 C   0  0  0  0  0  0  0  0  0  0  0  0
   98.4290   16.6459   98.5614 C   0  0  0  0  0  0  0  0  0  0  0  0
   99.1941   16.1939   97.5145 C   0  0  0  0  0  0  0  0  0  0  0  0
   98.8984   14.6316   95.0113 C   0  0  2  0  0  0  0  0  0  0  0  0
   97.0772   14.9576   93.6900 C   0  0  1  0  0  0  0  0  0  0  0  0
   97.5322   14.0305   94.3905 C   0  0  1  0  0  0  0  0  0  0  0  0
   98.7646   15.9402   95.1230 C   0  0  2  0  0  0  0  0  0  0  0  0
   98.4174   16.3039   96.4360 N   0  0  0  0  0  0  0  0  0  0  0  0
   93.5535   15.1590   95.0012 P   0  0  2  0  0  0  0  0  0  0  0  0
   97.7803   11.5606   94.4812 P   0  0  1  0  0  0  0  0  0  0  0  0
   95.1832   11.4424   94.2289 C   0  0  0  0  0  0  0  0  0  0  0  0
   96.3497   11.2995   95.0552 O   0  0  0  0  0  0  0  0  0  0  0  0
   93.9146   11.5604   94.9630 C   0  0  1  0  0  0  0  0  0  0  0  0
   93.9290   10.4827   96.1552 O   0  0  0  0  0  0  0  0  0  0  0  0
   93.8437   12.6830   95.5237 C   0  0  1  0  0  0  0  0  0  0  0  0
   93.2671   13.6906   94.6613 O   0  0  0  0  0  0  0  0  0  0  0  0
   93.0473   12.4123   96.7912 C   0  0  1  0  0  0  0  0  0  0  0  0
   91.8105   12.4449   96.5440 O   0  0  0  0  0  0  0  0  0  0  0  0
   93.4327   10.9862   97.1847 C   0  0  2  0  0  0  0  0  0  0  0  0
   97.9575    9.6715   99.2420 N   0  0  0  0  0  0  0  0  0  0  0  0
   97.6040    9.6087   97.9313 C   0  0  0  0  0  0  0  0  0  0  0  0
   96.3795   10.0069   97.6083 N   0  0  0  0  0  0  0  0  0  0  0  0
   95.4488   10.4067   98.5010 C   0  0  0  0  0  0  0  0  0  0  0  0
   95.7783   10.4854   99.8711 C   0  0  0  0  0  0  0  0  0  0  0  0
   97.1081   10.0745  100.2060 C   0  0  0  0  0  0  0  0  0  0  0  0
   97.5216   10.0989  101.5707 N   0  0  0  0  0  0  0  0  0  0  0  0
   94.7334   10.9310  100.4756 N   0  0  0  0  0  0  0  0  0  0  0  0
   93.7865   11.1569   99.5815 C   0  0  0  0  0  0  0  0  0  0  0  0
   94.1815   10.8336   98.4021 N   0  0  0  0  0  0  0  0  0  0  0  0
  1 24  1  0  0  0  0
  1  4  2  0  0  0  0
  2 13  1  0  0  0  0
  2 21  1  0  0  0  0
  3 16  1  0  0  0  0
  4 18  1  0  0  0  0
  5 19  2  0  0  0  0
  5 16  1  0  0  0  0
  6 16  2  0  0  0  0
  6 17  1  0  0  0  0
  7 17  1  0  0  0  0
 11 25  2  0  0  0  0
 12 26  2  0  0  0  0
 13 25  1  0  0  0  0
 14 23  1  0  0  0  0
 15 26  1  0  0  0  0
 17 18  2  0  0  0  0
 18 19  1  0  0  0  0
 19 24  1  0  0  0  0
 20 10  1  6  0  0  0
 20 22  1  0  0  0  0
 20 23  1  0  0  0  0
 21 14  1  1  0  0  0
 21 22  1  0  0  0  0
 22 15  1  6  0  0  0
 23 24  1  1  0  0  0
 25  8  1  6  0  0  0
 25 32  1  0  0  0  0
 26  9  1  6  0  0  0
 26 28  1  0  0  0  0
 27 28  1  0  0  0  0
 29 27  1  1  0  0  0
 29 30  1  0  0  0  0
 29 31  1  0  0  0  0
 30 35  1  0  0  0  0
 31 33  1  0  0  0  0
 31 32  1  6  0  0  0
 33 34  1  6  0  0  0
 33 35  1  0  0  0  0
 35 45  1  1  0  0  0
 36 41  2  0  0  0  0
 36 37  1  0  0  0  0
 37 38  2  0  0  0  0
 38 39  1  0  0  0  0
 39 40  2  0  0  0  0
 39 45  1  0  0  0  0
 40 41  1  0  0  0  0
 40 43  1  0  0  0  0
 41 42  1  0  0  0  0
 43 44  2  0  0  0  0
 44 45  1  0  0  0  0
M  CHG  4   8  -1   9  -1  11  -1  12  -1
M  END
>  <CHROM.1>
3.42070293,11.91566981,96.55310388,13.42200552,96.60021825,0.30301048,-0.64981242
-0.74478645

>  <Name>
ligand

>  <RI>
0

>  <Rbt.Current_Directory>
/home/itssahil/PROJECTS/Mol_Feturizer/New_Systems/rnas/4YAZ

>  <Rbt.Executable>
rbdock ($Id: //depot/dev/client3/rdock/2013.1/src/exe/rbdock.cxx#4 $)

>  <Rbt.Library>
libRbt.so (2013.1, Build901 2013/11/27)

>  <Rbt.Parameter_File>
/export/apps/rDock/src/rDock_2013.1_src/data/scripts/dock_solv.prm

>  <Rbt.Receptor>
prm/pocket_docking_5.prm

>  <SCORE>
-40.2848

>  <SCORE.INTER>
-39.4728

>  <SCORE.INTER.CONST>
1

>  <SCORE.INTER.POLAR>
0

>  <SCORE.INTER.ROT>
2

>  <SCORE.INTER.SOLV>
39.2161

>  <SCORE.INTER.VDW>
-44.3206

>  <SCORE.INTER.norm>
-0.877174

>  <SCORE.INTRA>
-0.811945

>  <SCORE.INTRA.DIHEDRAL>
-0.056358

>  <SCORE.INTRA.DIHEDRAL.0>
2.39103

>  <SCORE.INTRA.POLAR>
0

>  <SCORE.INTRA.POLAR.0>
0

>  <SCORE.INTRA.REPUL>
0

>  <SCORE.INTRA.REPUL.0>
0

>  <SCORE.INTRA.SOLV>
0.928071

>  <SCORE.INTRA.SOLV.lig_0>
-163.975

>  <SCORE.INTRA.VDW>
-1.2478

>  <SCORE.INTRA.VDW.0>
-1.49176

>  <SCORE.INTRA.norm>
-0.0180432

>  <SCORE.RESTR>
0

>  <SCORE.RESTR.CAVITY>
0

>  <SCORE.RESTR.norm>
0

>  <SCORE.SYSTEM>
0

>  <SCORE.SYSTEM.CONST>
0

>  <SCORE.SYSTEM.DIHEDRAL>
0

>  <SCORE.SYSTEM.SOLV>
0

>  <SCORE.SYSTEM.norm>
0

>  <SCORE.heavy>
45

>  <SCORE.norm>
-0.895218

>  <RMSD>
1.730

$$$$
ligand
 OpenBabel11021811513D
libRbt.so/2013.1/901 2013/11/27
 45 51  0  0  0  0  0  0  0  0999 V2000
   97.2573   16.8261   96.7754 C   0  0  0  0  0  0  0  0  0  0  0  0
   95.6024   14.8708   93.6391 C   0  0  0  0  0  0  0  0  0  0  0  0
  102.1968   15.4262   99.2341 N   0  0  0  0  0  0  0  0  0  0  0  0
   97.2135   17.0470   98.0492 N   0  0  0  0  0  0  0  0  0  0  0  0
  100.4196   15.8084   97.7671 N   0  0  0  0  0  0  0  0  0  0  0  0
  100.1705   16.2753  100.0333 N   0  0  0  0  0  0  0  0  0  0  0  0
   98.1241   17.2073  100.8805 O   0  0  0  0  0  0  0  0  0  0  0  0
   92.7368   15.9294   94.1344 O   0  5  0  0  0  0  0  0  0  0  0  0
   98.0657   10.5028   93.6359 O   0  5  0  0  0  0  0  0  0  0  0  0
   99.9307   14.2197   94.2244 O   0  0  0  0  0  0  0  0  0  0  0  0
   93.1058   15.4826   96.2832 O   0  5  0  0  0  0  0  0  0  0  0  0
   98.8355   11.4762   95.4949 O   0  5  0  0  0  0  0  0  0  0  0  0
   95.0052   15.5764   94.6521 O   0  0  0  0  0  0  0  0  0  0  0  0
   97.6367   16.3107   94.1673 O   0  0  0  0  0  0  0  0  0  0  0  0
   97.7644   12.8574   93.6390 O   0  0  0  0  0  0  0  0  0  0  0  0
  100.8534   15.8494   98.9998 C   0  0  0  0  0  0  0  0  0  0  0  0
   98.9325   16.7168   99.8568 C   0  0  0  0  0  0  0  0  0  0  0  0
   98.3859   16.6848   98.5540 C   0  0  0  0  0  0  0  0  0  0  0  0
   99.1600   16.2332   97.5136 C   0  0  0  0  0  0  0  0  0  0  0  0
   98.8911   14.6579   95.0163 C   0  0  2  0  0  0  0  0  0  0  0  0
   97.0746   14.9629   93.6835 C   0  0  1  0  0  0  0  0  0  0  0  0
   97.5331   14.0429   94.3910 C   0  0  1  0  0  0  0  0  0  0  0  0
   98.7462   15.9658   95.1209 C   0  0  2  0  0  0  0  0  0  0  0  0
   98.3889   16.3331   96.4301 N   0  0  0  0  0  0  0  0  0  0  0  0
   93.5423   15.1424   94.9745 P   0  0  2  0  0  0  0  0  0  0  0  0
   97.8004   11.5754   94.4951 P   0  0  1  0  0  0  0  0  0  0  0  0
   95.2058   11.4352   94.2293 C   0  0  0  0  0  0  0  0  0  0  0  0
   96.3689   11.3057   95.0626 O   0  0  0  0  0  0  0  0  0  0  0  0
   93.9322   11.5466   94.9559 C   0  0  1  0  0  0  0  0  0  0  0  0
   93.9487   10.4749   96.1534 O   0  0  0  0  0  0  0  0  0  0  0  0
   93.8493   12.6714   95.5107 C   0  0  1  0  0  0  0  0  0  0  0  0
   93.2695   13.6701   94.6402 O   0  0  0  0  0  0  0  0  0  0  0  0
   93.0482   12.4005   96.7751 C   0  0  1  0  0  0  0  0  0  0  0  0
   91.8126   12.4220   96.5210 O   0  0  0  0  0  0  0  0  0  0  0  0
   93.4428   10.9795   97.1778 C   0  0  2  0  0  0  0  0  0  0  0  0
   97.9687    9.7178   99.2655 N   0  0  0  0  0  0  0  0  0  0  0  0
   97.6234    9.6468   97.9531 C   0  0  0  0  0  0  0  0  0  0  0  0
   96.3968   10.0314   97.6216 N   0  0  0  0  0  0  0  0  0  0  0  0
   95.4570   10.4250   98.5076 C   0  0  0  0  0  0  0  0  0  0  0  0
   95.7779   10.5119   99.8792 C   0  0  0  0  0  0  0  0  0  0  0  0
   97.1097   10.1156  100.2232 C   0  0  0  0  0  0  0  0  0  0  0  0
   97.5152   10.1491  101.5901 N   0  0  0  0  0  0  0  0  0  0  0  0
   94.7251   10.9491  100.4761 N   0  0  0  0  0  0  0  0  0  0  0  0
   93.7811   11.1622   99.5758 C   0  0  0  0  0  0  0  0  0  0  0  0
   94.1861   10.8388   98.3999 N   0  0  0  0  0  0  0  0  0  0  0  0
  1 24  1  0  0  0  0
  1  4  2  0  0  0  0
  2 13  1  0  0  0  0
  2 21  1  0  0  0  0
  3 16  1  0  0  0  0
  4 18  1  0  0  0  0
  5 19  2  0  0  0  0
  5 16  1  0  0  0  0
  6 16  2  0  0  0  0
  6 17  1  0  0  0  0
  7 17  1  0  0  0  0
 11 25  2  0  0  0  0
 12 26  2  0  0  0  0
 13 25  1  0  0  0  0
 14 23  1  0  0  0  0
 15 26  1  0  0  0  0
 17 18  2  0  0  0  0
 18 19  1  0  0  0  0
 19 24  1  0  0  0  0
 20 10  1  6  0  0  0
 20 22  1  0  0  0  0
 20 23  1  0  0  0  0
 21 14  1  1  0  0  0
 21 22  1  0  0  0  0
 22 15  1  6  0  0  0
 23 24  1  1  0  0  0
 25  8  1  6  0  0  0
 25 32  1  0  0  0  0
 26  9  1  6  0  0  0
 26 28  1  0  0  0  0
 27 28  1  0  0  0  0
 29 27  1  1  0  0  0
 29 30  1  0  0  0  0
 29 31  1  0  0  0  0
 30 35  1  0  0  0  0
 31 33  1  0  0  0  0
 31 32  1  6  0  0  0
 33 34  1  6  0  0  0
 33 35  1  0  0  0  0
 35 45  1  1  0  0  0
 36 41  2  0  0  0  0
 36 37  1  0  0  0  0
 37 38  2  0  0  0  0
 38 39  1  0  0  0  0
 39 40  2  0  0  0  0
 39 45  1  0  0  0  0
 40 41  1  0  0  0  0
 40 43  1  0  0  0  0
 41 42  1  0  0  0  0
 43 44  2  0  0  0  0
 44 45  1  0  0  0  0
M  CHG  4   8  -1   9  -1  11  -1  12  -1
M  END
>  <CHROM.1>
3.34280670,12.05692465,96.54681641,13.43739541,96.59834971,0.30387548,-0.65908766
-0.74863179

>  <Name>
ligand

>  <RI>
0

>  <Rbt.Current_Directory>
/home/itssahil/PROJECTS/Mol_Feturizer/New_Systems/rnas/4YAZ

>  <Rbt.Executable>
rbdock ($Id: //depot/dev/client3/rdock/2013.1/src/exe/rbdock.cxx#4 $)

>  <Rbt.Library>
libRbt.so (2013.1, Build901 2013/11/27)

>  <Rbt.Parameter_File>
/export/apps/rDock/src/rDock_2013.1_src/data/scripts/dock_solv.prm

>  <Rbt.Receptor>
prm/pocket_docking_7.prm

>  <SCORE>
-40.2604

>  <SCORE.INTER>
-39.4496

>  <SCORE.INTER.CONST>
1

>  <SCORE.INTER.POLAR>
0

>  <SCORE.INTER.ROT>
2

>  <SCORE.INTER.SOLV>
39.0849

>  <SCORE.INTER.VDW>
-44.2614

>  <SCORE.INTER.norm>
-0.876658

>  <SCORE.INTRA>
-0.81083

>  <SCORE.INTRA.DIHEDRAL>
-0.0572627

>  <SCORE.INTRA.DIHEDRAL.0>
2.39103

>  <SCORE.INTRA.POLAR>
0

>  <SCORE.INTRA.POLAR.0>
0

>  <SCORE.INTRA.REPUL>
0

>  <SCORE.INTRA.REPUL.0>
0

>  <SCORE.INTRA.SOLV>
0.93546

>  <SCORE.INTRA.SOLV.lig_0>
-163.975

>  <SCORE.INTRA.VDW>
-1.24993

>  <SCORE.INTRA.VDW.0>
-1.49176

>  <SCORE.INTRA.norm>
-0.0180184

>  <SCORE.RESTR>
0

>  <SCORE.RESTR.CAVITY>
0

>  <SCORE.RESTR.norm>
0

>  <SCORE.SYSTEM>
0

>  <SCORE.SYSTEM.CONST>
0

>  <SCORE.SYSTEM.DIHEDRAL>
0

>  <SCORE.SYSTEM.SOLV>
0

>  <SCORE.SYSTEM.norm>
0

>  <SCORE.heavy>
45

>  <SCORE.norm>
-0.894676

>  <RMSD>
1.732

$$$$
ligand
 OpenBabel11021811513D
libRbt.so/2013.1/901 2013/11/27
 45 51  0  0  0  0  0  0  0  0999 V2000
   97.3040   16.9065   96.8270 C   0  0  0  0  0  0  0  0  0  0  0  0
   95.6552   14.9713   93.6678 C   0  0  0  0  0  0  0  0  0  0  0  0
  102.2190   15.4297   99.2897 N   0  0  0  0  0  0  0  0  0  0  0  0
   97.2558   17.1099   98.1035 N   0  0  0  0  0  0  0  0  0  0  0  0
  100.4525   15.8476   97.8196 N   0  0  0  0  0  0  0  0  0  0  0  0
  100.1962   16.2850  100.0910 N   0  0  0  0  0  0  0  0  0  0  0  0
   98.1536   17.2227  100.9412 O   0  0  0  0  0  0  0  0  0  0  0  0
   92.7863   16.0183   94.1690 O   0  5  0  0  0  0  0  0  0  0  0  0
   98.1279   10.6088   93.6210 O   0  5  0  0  0  0  0  0  0  0  0  0
   99.9837   14.3229   94.2544 O   0  0  0  0  0  0  0  0  0  0  0  0
   93.1521   15.5485   96.3135 O   0  5  0  0  0  0  0  0  0  0  0  0
   98.8919   11.5632   95.4923 O   0  5  0  0  0  0  0  0  0  0  0  0
   95.0545   15.6643   94.6873 O   0  0  0  0  0  0  0  0  0  0  0  0
   97.6854   16.4096   94.2159 O   0  0  0  0  0  0  0  0  0  0  0  0
   97.8215   12.9627   93.6497 O   0  0  0  0  0  0  0  0  0  0  0  0
  100.8805   15.8677   99.0549 C   0  0  0  0  0  0  0  0  0  0  0  0
   98.9629   16.7396   99.9146 C   0  0  0  0  0  0  0  0  0  0  0  0
   98.4225   16.7305   98.6088 C   0  0  0  0  0  0  0  0  0  0  0  0
   99.1979   16.2869   97.5660 C   0  0  0  0  0  0  0  0  0  0  0  0
   98.9416   14.7501   95.0490 C   0  0  2  0  0  0  0  0  0  0  0  0
   97.1271   15.0660   93.7161 C   0  0  1  0  0  0  0  0  0  0  0  0
   97.5862   14.1392   94.4142 C   0  0  1  0  0  0  0  0  0  0  0  0
   98.7938   16.0565   95.1678 C   0  0  2  0  0  0  0  0  0  0  0  0
   98.4331   16.4086   96.4803 N   0  0  0  0  0  0  0  0  0  0  0  0
   93.5919   15.2237   95.0020 P   0  0  2  0  0  0  0  0  0  0  0  0
   97.8586   11.6713   94.4916 P   0  0  1  0  0  0  0  0  0  0  0  0
   95.2648   11.5286   94.2191 C   0  0  0  0  0  0  0  0  0  0  0  0
   96.4265   11.3923   95.0532 O   0  0  0  0  0  0  0  0  0  0  0  0
   93.9896   11.6292   94.9443 C   0  0  1  0  0  0  0  0  0  0  0  0
   94.0060   10.5444   96.1300 O   0  0  0  0  0  0  0  0  0  0  0  0
   93.9032   12.7476   95.5114 C   0  0  1  0  0  0  0  0  0  0  0  0
   93.3229   13.7547   94.6508 O   0  0  0  0  0  0  0  0  0  0  0  0
   93.1001   12.4610   96.7712 C   0  0  1  0  0  0  0  0  0  0  0  0
   91.8650   12.4826   96.5149 O   0  0  0  0  0  0  0  0  0  0  0  0
   93.4970   11.0364   97.1588 C   0  0  2  0  0  0  0  0  0  0  0  0
   97.9757    9.6245   99.2522 N   0  0  0  0  0  0  0  0  0  0  0  0
   97.6234    9.5483   97.9419 C   0  0  0  0  0  0  0  0  0  0  0  0
   96.4121    9.9770   97.6083 N   0  0  0  0  0  0  0  0  0  0  0  0
   95.4919   10.4209   98.4910 C   0  0  0  0  0  0  0  0  0  0  0  0
   95.8206   10.5148   99.8603 C   0  0  0  0  0  0  0  0  0  0  0  0
   97.1367   10.0704  100.2063 C   0  0  0  0  0  0  0  0  0  0  0  0
   97.5478   10.1074  101.5714 N   0  0  0  0  0  0  0  0  0  0  0  0
   94.7882   11.0026  100.4536 N   0  0  0  0  0  0  0  0  0  0  0  0
   93.8506   11.2403   99.5530 C   0  0  0  0  0  0  0  0  0  0  0  0
   94.2382   10.8838   98.3808 N   0  0  0  0  0  0  0  0  0  0  0  0
  1 24  1  0  0  0  0
  1  4  2  0  0  0  0
  2 13  1  0  0  0  0
  2 21  1  0  0  0  0
  3 16  1  0  0  0  0
  4 18  1  0  0  0  0
  5 19  2  0  0  0  0
  5 16  1  0  0  0  0
  6 16  2  0  0  0  0
  6 17  1  0  0  0  0
  7 17  1  0  0  0  0
 11 25  2  0  0  0  0
 12 26  2  0  0  0  0
 13 25  1  0  0  0  0
 14 23  1  0  0  0  0
 15 26  1  0  0  0  0
 17 18  2  0  0  0  0
 18 19  1  0  0  0  0
 19 24  1  0  0  0  0
 20 10  1  6  0  0  0
 20 22  1  0  0  0  0
 20 23  1  0  0  0  0
 21 14  1  1  0  0  0
 21 22  1  0  0  0  0
 22 15  1  6  0  0  0
 23 24  1  1  0  0  0
 25  8  1  6  0  0  0
 25 32  1  0  0  0  0
 26  9  1  6  0  0  0
 26 28  1  0  0  0  0
 27 28  1  0  0  0  0
 29 27  1  1  0  0  0
 29 30  1  0  0  0  0
 29 31  1  0  0  0  0
 30 35  1  0  0  0  0
 31 33  1  0  0  0  0
 31 32  1  6  0  0  0
 33 34  1  6  0  0  0
 33 35  1  0  0  0  0
 35 45  1  1  0  0  0
 36 41  2  0  0  0  0
 36 37  1  0  0  0  0
 37 38  2  0  0  0  0
 38 39  1  0  0  0  0
 39 40  2  0  0  0  0
 39 45  1  0  0  0  0
 40 41  1  0  0  0  0
 40 43  1  0  0  0  0
 41 42  1  0  0  0  0
 43 44  2  0  0  0  0
 44 45  1  0  0  0  0
M  CHG  4   8  -1   9  -1  11  -1  12  -1
M  END
>  <CHROM.1>
2.68246140,9.20566081,96.59229518,13.49324447,96.61402394,0.33152653,-0.66175662
-0.72556212

>  <Name>
ligand

>  <RI>
0

>  <Rbt.Current_Directory>
/home/itssahil/PROJECTS/Mol_Feturizer/New_Systems/rnas/4YAZ

>  <Rbt.Executable>
rbdock ($Id: //depot/dev/client3/rdock/2013.1/src/exe/rbdock.cxx#4 $)

>  <Rbt.Library>
libRbt.so (2013.1, Build901 2013/11/27)

>  <Rbt.Parameter_File>
/export/apps/rDock/src/rDock_2013.1_src/data/scripts/dock_solv.prm

>  <Rbt.Receptor>
prm/pocket_docking_5.prm

>  <SCORE>
-40.2602

>  <SCORE.INTER>
-39.5007

>  <SCORE.INTER.CONST>
1

>  <SCORE.INTER.POLAR>
0

>  <SCORE.INTER.ROT>
2

>  <SCORE.INTER.SOLV>
40.3815

>  <SCORE.INTER.VDW>
-44.7276

>  <SCORE.INTER.norm>
-0.877793

>  <SCORE.INTRA>
-0.759531

>  <SCORE.INTRA.DIHEDRAL>
-0.0389853

>  <SCORE.INTRA.DIHEDRAL.0>
2.39103

>  <SCORE.INTRA.POLAR>
0

>  <SCORE.INTRA.POLAR.0>
0

>  <SCORE.INTRA.REPUL>
0

>  <SCORE.INTRA.REPUL.0>
0

>  <SCORE.INTRA.SOLV>
0.783363

>  <SCORE.INTRA.SOLV.lig_0>
-163.975

>  <SCORE.INTRA.VDW>
-1.13172

>  <SCORE.INTRA.VDW.0>
-1.49176

>  <SCORE.INTRA.norm>
-0.0168785

>  <SCORE.RESTR>
0

>  <SCORE.RESTR.CAVITY>
0

>  <SCORE.RESTR.norm>
0

>  <SCORE.SYSTEM>
0

>  <SCORE.SYSTEM.CONST>
0

>  <SCORE.SYSTEM.DIHEDRAL>
0

>  <SCORE.SYSTEM.SOLV>
0

>  <SCORE.SYSTEM.norm>
0

>  <SCORE.heavy>
45

>  <SCORE.norm>
-0.894671

>  <RMSD>
1.736

$$$$
ligand
 OpenBabel11021811513D
libRbt.so/2013.1/901 2013/11/27
 45 51  0  0  0  0  0  0  0  0999 V2000
   97.3058   16.7977   96.7571 C   0  0  0  0  0  0  0  0  0  0  0  0
   95.6440   14.8638   93.6130 C   0  0  0  0  0  0  0  0  0  0  0  0
  102.2349   15.3704   99.2207 N   0  0  0  0  0  0  0  0  0  0  0  0
   97.2613   17.0172   98.0311 N   0  0  0  0  0  0  0  0  0  0  0  0
  100.4616   15.7632   97.7518 N   0  0  0  0  0  0  0  0  0  0  0  0
  100.2118   16.2284  100.0183 N   0  0  0  0  0  0  0  0  0  0  0  0
   98.1687   17.1693  100.8639 O   0  0  0  0  0  0  0  0  0  0  0  0
   92.7853   15.9427   94.1043 O   0  5  0  0  0  0  0  0  0  0  0  0
   98.0746   10.4774   93.6060 O   0  5  0  0  0  0  0  0  0  0  0  0
   99.9660   14.1791   94.2060 O   0  0  0  0  0  0  0  0  0  0  0  0
   93.1464   15.4889   96.2531 O   0  5  0  0  0  0  0  0  0  0  0  0
   98.8477   11.4414   95.4686 O   0  5  0  0  0  0  0  0  0  0  0  0
   95.0499   15.5717   94.6261 O   0  0  0  0  0  0  0  0  0  0  0  0
   97.6878   16.2874   94.1483 O   0  0  0  0  0  0  0  0  0  0  0  0
   97.7909   12.8343   93.6133 O   0  0  0  0  0  0  0  0  0  0  0  0
  100.8940   15.8005   98.9851 C   0  0  0  0  0  0  0  0  0  0  0  0
   98.9761   16.6762   99.8406 C   0  0  0  0  0  0  0  0  0  0  0  0
   98.4312   16.6485   98.5370 C   0  0  0  0  0  0  0  0  0  0  0  0
   99.2045   16.1946   97.4971 C   0  0  0  0  0  0  0  0  0  0  0  0
   98.9280   14.6235   94.9966 C   0  0  2  0  0  0  0  0  0  0  0  0
   97.1167   14.9447   93.6606 C   0  0  1  0  0  0  0  0  0  0  0  0
   97.5669   14.0199   94.3672 C   0  0  1  0  0  0  0  0  0  0  0  0
   98.7928   15.9323   95.1035 C   0  0  2  0  0  0  0  0  0  0  0  0
   98.4354   16.2996   96.4127 N   0  0  0  0  0  0  0  0  0  0  0  0
   93.5832   15.1480   94.9446 P   0  0  2  0  0  0  0  0  0  0  0  0
   97.8155   11.5503   94.4669 P   0  0  1  0  0  0  0  0  0  0  0  0
   95.2205   11.4300   94.1954 C   0  0  0  0  0  0  0  0  0  0  0  0
   96.3808   11.2902   95.0308 O   0  0  0  0  0  0  0  0  0  0  0  0
   93.9463   11.5495   94.9195 C   0  0  1  0  0  0  0  0  0  0  0  0
   93.9522   10.4753   96.1149 O   0  0  0  0  0  0  0  0  0  0  0  0
   93.8706   12.6737   95.4765 C   0  0  1  0  0  0  0  0  0  0  0  0
   93.3001   13.6785   94.6067 O   0  0  0  0  0  0  0  0  0  0  0  0
   93.0648   12.4062   96.7386 C   0  0  1  0  0  0  0  0  0  0  0  0
   91.8299   12.4375   96.4820 O   0  0  0  0  0  0  0  0  0  0  0  0
   93.4480   10.9815   97.1392 C   0  0  2  0  0  0  0  0  0  0  0  0
   97.9734    9.7249   99.2310 N   0  0  0  0  0  0  0  0  0  0  0  0
   97.6333    9.6650   97.9166 C   0  0  0  0  0  0  0  0  0  0  0  0
   96.4057   10.0460   97.5845 N   0  0  0  0  0  0  0  0  0  0  0  0
   95.4605   10.4253   98.4709 C   0  0  0  0  0  0  0  0  0  0  0  0
   95.7759   10.5002   99.8445 C   0  0  0  0  0  0  0  0  0  0  0  0
   97.1087   10.1082  100.1894 C   0  0  0  0  0  0  0  0  0  0  0  0
   97.5090   10.1303  101.5581 N   0  0  0  0  0  0  0  0  0  0  0  0
   94.7184   10.9255  100.4418 N   0  0  0  0  0  0  0  0  0  0  0  0
   93.7765   11.1422   99.5402 C   0  0  0  0  0  0  0  0  0  0  0  0
   94.1876   10.8328   98.3626 N   0  0  0  0  0  0  0  0  0  0  0  0
  1 24  1  0  0  0  0
  1  4  2  0  0  0  0
  2 13  1  0  0  0  0
  2 21  1  0  0  0  0
  3 16  1  0  0  0  0
  4 18  1  0  0  0  0
  5 19  2  0  0  0  0
  5 16  1  0  0  0  0
  6 16  2  0  0  0  0
  6 17  1  0  0  0  0
  7 17  1  0  0  0  0
 11 25  2  0  0  0  0
 12 26  2  0  0  0  0
 13 25  1  0  0  0  0
 14 23  1  0  0  0  0
 15 26  1  0  0  0  0
 17 18  2  0  0  0  0
 18 19  1  0  0  0  0
 19 24  1  0  0  0  0
 20 10  1  6  0  0  0
 20 22  1  0  0  0  0
 20 23  1  0  0  0  0
 21 14  1  1  0  0  0
 21 22  1  0  0  0  0
 22 15  1  6  0  0  0
 23 24  1  1  0  0  0
 25  8  1  6  0  0  0
 25 32  1  0  0  0  0
 26  9  1  6  0  0  0
 26 28  1  0  0  0  0
 27 28  1  0  0  0  0
 29 27  1  1  0  0  0
 29 30  1  0  0  0  0
 29 31  1  0  0  0  0
 30 35  1  0  0  0  0
 31 33  1  0  0  0  0
 31 32  1  6  0  0  0
 33 34  1  6  0  0  0
 33 35  1  0  0  0  0
 35 45  1  1  0  0  0
 36 41  2  0  0  0  0
 36 37  1  0  0  0  0
 37 38  2  0  0  0  0
 38 39  1  0  0  0  0
 39 40  2  0  0  0  0
 39 45  1  0  0  0  0
 40 41  1  0  0  0  0
 40 43  1  0  0  0  0
 41 42  1  0  0  0  0
 43 44  2  0  0  0  0
 44 45  1  0  0  0  0
M  CHG  4   8  -1   9  -1  11  -1  12  -1
M  END
>  <CHROM.1>
3.49988483,12.94423297,96.57273092,13.42152728,96.57094198,0.28682290,-0.65555292
-0.75589093

>  <Name>
ligand

>  <RI>
0

>  <Rbt.Current_Directory>
/home/itssahil/PROJECTS/Mol_Feturizer/New_Systems/rnas/4YAZ

>  <Rbt.Executable>
rbdock ($Id: //depot/dev/client3/rdock/2013.1/src/exe/rbdock.cxx#4 $)

>  <Rbt.Library>
libRbt.so (2013.1, Build901 2013/11/27)

>  <Rbt.Parameter_File>
/export/apps/rDock/src/rDock_2013.1_src/data/scripts/dock_solv.prm

>  <Rbt.Receptor>
prm/pocket_docking_7.prm

>  <SCORE>
-40.2712

>  <SCORE.INTER>
-39.4582

>  <SCORE.INTER.CONST>
1

>  <SCORE.INTER.POLAR>
0

>  <SCORE.INTER.ROT>
2

>  <SCORE.INTER.SOLV>
39.2496

>  <SCORE.INTER.VDW>
-44.322

>  <SCORE.INTER.norm>
-0.87685

>  <SCORE.INTRA>
-0.812983

>  <SCORE.INTRA.DIHEDRAL>
-0.0626778

>  <SCORE.INTRA.DIHEDRAL.0>
2.39103

>  <SCORE.INTRA.POLAR>
0

>  <SCORE.INTRA.POLAR.0>
0

>  <SCORE.INTRA.REPUL>
0

>  <SCORE.INTRA.REPUL.0>
0

>  <SCORE.INTRA.SOLV>
0.980135

>  <SCORE.INTRA.SOLV.lig_0>
-163.975

>  <SCORE.INTRA.VDW>
-1.27171

>  <SCORE.INTRA.VDW.0>
-1.49176

>  <SCORE.INTRA.norm>
-0.0180663

>  <SCORE.RESTR>
0

>  <SCORE.RESTR.CAVITY>
0

>  <SCORE.RESTR.norm>
0

>  <SCORE.SYSTEM>
0

>  <SCORE.SYSTEM.CONST>
0

>  <SCORE.SYSTEM.DIHEDRAL>
0

>  <SCORE.SYSTEM.SOLV>
0

>  <SCORE.SYSTEM.norm>
0

>  <SCORE.heavy>
45

>  <SCORE.norm>
-0.894916

>  <RMSD>
1.740

$$$$
ligand
 OpenBabel11021811513D
libRbt.so/2013.1/901 2013/11/27
 45 51  0  0  0  0  0  0  0  0999 V2000
   97.2845   16.8784   96.8205 C   0  0  0  0  0  0  0  0  0  0  0  0
   95.6152   14.9667   93.6655 C   0  0  0  0  0  0  0  0  0  0  0  0
  102.2188   15.4263   99.2594 N   0  0  0  0  0  0  0  0  0  0  0  0
   97.2432   17.0864   98.0965 N   0  0  0  0  0  0  0  0  0  0  0  0
  100.4422   15.8332   97.7983 N   0  0  0  0  0  0  0  0  0  0  0  0
  100.1980   16.2783  100.0695 N   0  0  0  0  0  0  0  0  0  0  0  0
   98.1576   17.2128  100.9284 O   0  0  0  0  0  0  0  0  0  0  0  0
   92.7566   16.0376   94.1743 O   0  5  0  0  0  0  0  0  0  0  0  0
   98.0517   10.5838   93.6145 O   0  5  0  0  0  0  0  0  0  0  0  0
   99.9400   14.2829   94.2400 O   0  0  0  0  0  0  0  0  0  0  0  0
   93.1247   15.5662   96.3181 O   0  5  0  0  0  0  0  0  0  0  0  0
   98.8290   11.5331   95.4829 O   0  5  0  0  0  0  0  0  0  0  0  0
   95.0232   15.6652   94.6862 O   0  0  0  0  0  0  0  0  0  0  0  0
   97.6588   16.3885   94.2067 O   0  0  0  0  0  0  0  0  0  0  0  0
   97.7649   12.9402   93.6425 O   0  0  0  0  0  0  0  0  0  0  0  0
  100.8775   15.8592   99.0309 C   0  0  0  0  0  0  0  0  0  0  0  0
   98.9623   16.7283   99.8988 C   0  0  0  0  0  0  0  0  0  0  0  0
   98.4142   16.7126   98.5963 C   0  0  0  0  0  0  0  0  0  0  0  0
   99.1847   16.2675   97.5505 C   0  0  0  0  0  0  0  0  0  0  0  0
   98.9037   14.7192   95.0373 C   0  0  2  0  0  0  0  0  0  0  0  0
   97.0880   15.0492   93.7094 C   0  0  1  0  0  0  0  0  0  0  0  0
   97.5415   14.1191   94.4069 C   0  0  1  0  0  0  0  0  0  0  0  0
   98.7670   16.0269   95.1556 C   0  0  2  0  0  0  0  0  0  0  0  0
   98.4131   16.3827   96.4690 N   0  0  0  0  0  0  0  0  0  0  0  0
   93.5580   15.2369   95.0055 P   0  0  2  0  0  0  0  0  0  0  0  0
   97.7937   11.6491   94.4851 P   0  0  1  0  0  0  0  0  0  0  0  0
   95.1981   11.5276   94.2202 C   0  0  0  0  0  0  0  0  0  0  0  0
   96.3610   11.3823   95.0511 O   0  0  0  0  0  0  0  0  0  0  0  0
   93.9258   11.6392   94.9491 C   0  0  1  0  0  0  0  0  0  0  0  0
   93.9367   10.5550   96.1354 O   0  0  0  0  0  0  0  0  0  0  0  0
   93.8503   12.7586   95.5157 C   0  0  1  0  0  0  0  0  0  0  0  0
   93.2759   13.7699   94.6561 O   0  0  0  0  0  0  0  0  0  0  0  0
   93.0486   12.4795   96.7779 C   0  0  1  0  0  0  0  0  0  0  0  0
   91.8129   12.5112   96.5252 O   0  0  0  0  0  0  0  0  0  0  0  0
   93.4348   11.0520   97.1654 C   0  0  2  0  0  0  0  0  0  0  0  0
   97.9463    9.7152   99.2376 N   0  0  0  0  0  0  0  0  0  0  0  0
   97.5977    9.6564   97.9254 C   0  0  0  0  0  0  0  0  0  0  0  0
   96.3760   10.0601   97.5984 N   0  0  0  0  0  0  0  0  0  0  0  0
   95.4434   10.4619   98.4883 C   0  0  0  0  0  0  0  0  0  0  0  0
   95.7680   10.5365   99.8598 C   0  0  0  0  0  0  0  0  0  0  0  0
   97.0948   10.1197  100.1991 C   0  0  0  0  0  0  0  0  0  0  0  0
   97.5031   10.1398  101.5654 N   0  0  0  0  0  0  0  0  0  0  0  0
   94.7225   10.9851  100.4611 N   0  0  0  0  0  0  0  0  0  0  0  0
   93.7800   11.2165   99.5638 C   0  0  0  0  0  0  0  0  0  0  0  0
   94.1783   10.8940   98.3853 N   0  0  0  0  0  0  0  0  0  0  0  0
  1 24  1  0  0  0  0
  1  4  2  0  0  0  0
  2 13  1  0  0  0  0
  2 21  1  0  0  0  0
  3 16  1  0  0  0  0
  4 18  1  0  0  0  0
  5 19  2  0  0  0  0
  5 16  1  0  0  0  0
  6 16  2  0  0  0  0
  6 17  1  0  0  0  0
  7 17  1  0  0  0  0
 11 25  2  0  0  0  0
 12 26  2  0  0  0  0
 13 25  1  0  0  0  0
 14 23  1  0  0  0  0
 15 26  1  0  0  0  0
 17 18  2  0  0  0  0
 18 19  1  0  0  0  0
 19 24  1  0  0  0  0
 20 10  1  6  0  0  0
 20 22  1  0  0  0  0
 20 23  1  0  0  0  0
 21 14  1  1  0  0  0
 21 22  1  0  0  0  0
 22 15  1  6  0  0  0
 23 24  1  1  0  0  0
 25  8  1  6  0  0  0
 25 32  1  0  0  0  0
 26  9  1  6  0  0  0
 26 28  1  0  0  0  0
 27 28  1  0  0  0  0
 29 27  1  1  0  0  0
 29 30  1  0  0  0  0
 29 31  1  0  0  0  0
 30 35  1  0  0  0  0
 31 33  1  0  0  0  0
 31 32  1  6  0  0  0
 33 34  1  6  0  0  0
 33 35  1  0  0  0  0
 35 45  1  1  0  0  0
 36 41  2  0  0  0  0
 36 37  1  0  0  0  0
 37 38  2  0  0  0  0
 38 39  1  0  0  0  0
 39 40  2  0  0  0  0
 39 45  1  0  0  0  0
 40 41  1  0  0  0  0
 40 43  1  0  0  0  0
 41 42  1  0  0  0  0
 43 44  2  0  0  0  0
 44 45  1  0  0  0  0
M  CHG  4   8  -1   9  -1  11  -1  12  -1
M  END
>  <CHROM.1>
3.38163910,11.52302799,96.55284465,13.49492309,96.60882633,0.30467879,-0.65448846
-0.73892620

>  <Name>
ligand

>  <RI>
0

>  <Rbt.Current_Directory>
/home/itssahil/PROJECTS/Mol_Feturizer/New_Systems/rnas/4YAZ

>  <Rbt.Executable>
rbdock ($Id: //depot/dev/client3/rdock/2013.1/src/exe/rbdock.cxx#4 $)

>  <Rbt.Library>
libRbt.so (2013.1, Build901 2013/11/27)

>  <Rbt.Parameter_File>
/export/apps/rDock/src/rDock_2013.1_src/data/scripts/dock_solv.prm

>  <Rbt.Receptor>
prm/pocket_docking_4.prm

>  <SCORE>
-40.2663

>  <SCORE.INTER>
-39.4553

>  <SCORE.INTER.CONST>
1

>  <SCORE.INTER.POLAR>
0

>  <SCORE.INTER.ROT>
2

>  <SCORE.INTER.SOLV>
39.9724

>  <SCORE.INTER.VDW>
-44.561

>  <SCORE.INTER.norm>
-0.876784

>  <SCORE.INTRA>
-0.810995

>  <SCORE.INTRA.DIHEDRAL>
-0.0538963

>  <SCORE.INTRA.DIHEDRAL.0>
2.39103

>  <SCORE.INTRA.POLAR>
0

>  <SCORE.INTRA.POLAR.0>
0

>  <SCORE.INTRA.REPUL>
0

>  <SCORE.INTRA.REPUL.0>
0

>  <SCORE.INTRA.SOLV>
0.907725

>  <SCORE.INTRA.SOLV.lig_0>
-163.975

>  <SCORE.INTRA.VDW>
-1.23791

>  <SCORE.INTRA.VDW.0>
-1.49176

>  <SCORE.INTRA.norm>
-0.0180221

>  <SCORE.RESTR>
0

>  <SCORE.RESTR.CAVITY>
0

>  <SCORE.RESTR.norm>
0

>  <SCORE.SYSTEM>
0

>  <SCORE.SYSTEM.CONST>
0

>  <SCORE.SYSTEM.DIHEDRAL>
0

>  <SCORE.SYSTEM.SOLV>
0

>  <SCORE.SYSTEM.norm>
0

>  <SCORE.heavy>
45

>  <SCORE.norm>
-0.894806

>  <RMSD>
1.745

$$$$
ligand
 OpenBabel11021811513D
libRbt.so/2013.1/901 2013/11/27
 45 51  0  0  0  0  0  0  0  0999 V2000
   97.2678   16.8639   96.7755 C   0  0  0  0  0  0  0  0  0  0  0  0
   95.6237   14.9065   93.6332 C   0  0  0  0  0  0  0  0  0  0  0  0
  102.1744   15.4273   99.2784 N   0  0  0  0  0  0  0  0  0  0  0  0
   97.2153   17.0882   98.0484 N   0  0  0  0  0  0  0  0  0  0  0  0
  100.4128   15.8213   97.7959 N   0  0  0  0  0  0  0  0  0  0  0  0
  100.1490   16.2958  100.0588 N   0  0  0  0  0  0  0  0  0  0  0  0
   98.1038   17.2475  100.8868 O   0  0  0  0  0  0  0  0  0  0  0  0
   92.7610   15.9842   94.1034 O   0  5  0  0  0  0  0  0  0  0  0  0
   98.0600   10.5234   93.6619 O   0  5  0  0  0  0  0  0  0  0  0  0
   99.9433   14.2306   94.2533 O   0  0  0  0  0  0  0  0  0  0  0  0
   93.1109   15.5418   96.2564 O   0  5  0  0  0  0  0  0  0  0  0  0
   98.8216   11.4978   95.5238 O   0  5  0  0  0  0  0  0  0  0  0  0
   95.0231   15.6188   94.6394 O   0  0  0  0  0  0  0  0  0  0  0  0
   97.6627   16.3355   94.1724 O   0  0  0  0  0  0  0  0  0  0  0  0
   97.7732   12.8799   93.6556 O   0  0  0  0  0  0  0  0  0  0  0  0
  100.8367   15.8615   99.0320 C   0  0  0  0  0  0  0  0  0  0  0  0
   98.9163   16.7475   99.8709 C   0  0  0  0  0  0  0  0  0  0  0  0
   98.3803   16.7171   98.5637 C   0  0  0  0  0  0  0  0  0  0  0  0
   99.1591   16.2564   97.5309 C   0  0  0  0  0  0  0  0  0  0  0  0
   98.9004   14.6776   95.0359 C   0  0  2  0  0  0  0  0  0  0  0  0
   97.0960   14.9897   93.6885 C   0  0  1  0  0  0  0  0  0  0  0  0
   97.5435   14.0691   94.4022 C   0  0  1  0  0  0  0  0  0  0  0  0
   98.7629   15.9868   95.1354 C   0  0  2  0  0  0  0  0  0  0  0  0
   98.3979   16.3603   96.4408 N   0  0  0  0  0  0  0  0  0  0  0  0
   93.5552   15.1948   94.9520 P   0  0  2  0  0  0  0  0  0  0  0  0
   97.7948   11.6004   94.5159 P   0  0  1  0  0  0  0  0  0  0  0  0
   95.2015   11.4753   94.2307 C   0  0  0  0  0  0  0  0  0  0  0  0
   96.3574   11.3412   95.0733 O   0  0  0  0  0  0  0  0  0  0  0  0
   93.9231   11.5967   94.9473 C   0  0  1  0  0  0  0  0  0  0  0  0
   93.9239   10.5286   96.1482 O   0  0  0  0  0  0  0  0  0  0  0  0
   93.8430   12.7237   95.4981 C   0  0  1  0  0  0  0  0  0  0  0  0
   93.2759   13.7232   94.6201 O   0  0  0  0  0  0  0  0  0  0  0  0
   93.0306   12.4616   96.7572 C   0  0  1  0  0  0  0  0  0  0  0  0
   91.7971   12.4898   96.4936 O   0  0  0  0  0  0  0  0  0  0  0  0
   93.4134   11.0394   97.1671 C   0  0  2  0  0  0  0  0  0  0  0  0
   97.9178    9.7639   99.2925 N   0  0  0  0  0  0  0  0  0  0  0  0
   97.5826    9.6920   97.9775 C   0  0  0  0  0  0  0  0  0  0  0  0
   96.3601   10.0808   97.6358 N   0  0  0  0  0  0  0  0  0  0  0  0
   95.4150   10.4795   98.5137 C   0  0  0  0  0  0  0  0  0  0  0  0
   95.7254   10.5674   99.8876 C   0  0  0  0  0  0  0  0  0  0  0  0
   97.0530   10.1666  100.2427 C   0  0  0  0  0  0  0  0  0  0  0  0
   97.4478   10.2009  101.6127 N   0  0  0  0  0  0  0  0  0  0  0  0
   94.6696   11.0097  100.4755 N   0  0  0  0  0  0  0  0  0  0  0  0
   93.7336   11.2249   99.5675 C   0  0  0  0  0  0  0  0  0  0  0  0
   94.1465   10.8979   98.3953 N   0  0  0  0  0  0  0  0  0  0  0  0
  1 24  1  0  0  0  0
  1  4  2  0  0  0  0
  2 13  1  0  0  0  0
  2 21  1  0  0  0  0
  3 16  1  0  0  0  0
  4 18  1  0  0  0  0
  5 19  2  0  0  0  0
  5 16  1  0  0  0  0
  6 16  2  0  0  0  0
  6 17  1  0  0  0  0
  7 17  1  0  0  0  0
 11 25  2  0  0  0  0
 12 26  2  0  0  0  0
 13 25  1  0  0  0  0
 14 23  1  0  0  0  0
 15 26  1  0  0  0  0
 17 18  2  0  0  0  0
 18 19  1  0  0  0  0
 19 24  1  0  0  0  0
 20 10  1  6  0  0  0
 20 22  1  0  0  0  0
 20 23  1  0  0  0  0
 21 14  1  1  0  0  0
 21 22  1  0  0  0  0
 22 15  1  6  0  0  0
 23 24  1  1  0  0  0
 25  8  1  6  0  0  0
 25 32  1  0  0  0  0
 26  9  1  6  0  0  0
 26 28  1  0  0  0  0
 27 28  1  0  0  0  0
 29 27  1  1  0  0  0
 29 30  1  0  0  0  0
 29 31  1  0  0  0  0
 30 35  1  0  0  0  0
 31 33  1  0  0  0  0
 31 32  1  6  0  0  0
 33 34  1  6  0  0  0
 33 35  1  0  0  0  0
 35 45  1  1  0  0  0
 36 41  2  0  0  0  0
 36 37  1  0  0  0  0
 37 38  2  0  0  0  0
 38 39  1  0  0  0  0
 39 40  2  0  0  0  0
 39 45  1  0  0  0  0
 40 41  1  0  0  0  0
 40 43  1  0  0  0  0
 41 42  1  0  0  0  0
 43 44  2  0  0  0  0
 44 45  1  0  0  0  0
M  CHG  4   8  -1   9  -1  11  -1  12  -1
M  END
>  <CHROM.1>
3.18763278,12.21080866,96.53666863,13.47627073,96.60394330,0.28927367,-0.66012586
-0.75988206

>  <Name>
ligand

>  <RI>
0

>  <Rbt.Current_Directory>
/home/itssahil/PROJECTS/Mol_Feturizer/New_Systems/rnas/4YAZ

>  <Rbt.Executable>
rbdock ($Id: //depot/dev/client3/rdock/2013.1/src/exe/rbdock.cxx#4 $)

>  <Rbt.Library>
libRbt.so (2013.1, Build901 2013/11/27)

>  <Rbt.Parameter_File>
/export/apps/rDock/src/rDock_2013.1_src/data/scripts/dock_solv.prm

>  <Rbt.Receptor>
prm/pocket_docking_4.prm

>  <SCORE>
-40.261

>  <SCORE.INTER>
-39.4694

>  <SCORE.INTER.CONST>
1

>  <SCORE.INTER.POLAR>
0

>  <SCORE.INTER.ROT>
2

>  <SCORE.INTER.SOLV>
39.287

>  <SCORE.INTER.VDW>
-44.3419

>  <SCORE.INTER.norm>
-0.877098

>  <SCORE.INTRA>
-0.791586

>  <SCORE.INTRA.DIHEDRAL>
-0.0582638

>  <SCORE.INTRA.DIHEDRAL.0>
2.39103

>  <SCORE.INTRA.POLAR>
0

>  <SCORE.INTRA.POLAR.0>
0

>  <SCORE.INTRA.REPUL>
0

>  <SCORE.INTRA.REPUL.0>
0

>  <SCORE.INTRA.SOLV>
0.943573

>  <SCORE.INTRA.SOLV.lig_0>
-163.975

>  <SCORE.INTRA.VDW>
-1.23424

>  <SCORE.INTRA.VDW.0>
-1.49176

>  <SCORE.INTRA.norm>
-0.0175908

>  <SCORE.RESTR>
0

>  <SCORE.RESTR.CAVITY>
0

>  <SCORE.RESTR.norm>
0

>  <SCORE.SYSTEM>
0

>  <SCORE.SYSTEM.CONST>
0

>  <SCORE.SYSTEM.DIHEDRAL>
0

>  <SCORE.SYSTEM.SOLV>
0

>  <SCORE.SYSTEM.norm>
0

>  <SCORE.heavy>
45

>  <SCORE.norm>
-0.894689

>  <RMSD>
1.745

$$$$
ligand
 OpenBabel11021811513D
libRbt.so/2013.1/901 2013/11/27
 45 51  0  0  0  0  0  0  0  0999 V2000
   97.2688   16.8683   96.8175 C   0  0  0  0  0  0  0  0  0  0  0  0
   95.6017   14.9619   93.6614 C   0  0  0  0  0  0  0  0  0  0  0  0
  102.2082   15.4377   99.2585 N   0  0  0  0  0  0  0  0  0  0  0  0
   97.2271   17.0791   98.0931 N   0  0  0  0  0  0  0  0  0  0  0  0
  100.4300   15.8355   97.7970 N   0  0  0  0  0  0  0  0  0  0  0  0
  100.1849   16.2850  100.0672 N   0  0  0  0  0  0  0  0  0  0  0  0
   98.1416   17.2148  100.9244 O   0  0  0  0  0  0  0  0  0  0  0  0
   92.7444   16.0383   94.1660 O   0  5  0  0  0  0  0  0  0  0  0  0
   98.0304   10.5747   93.6172 O   0  5  0  0  0  0  0  0  0  0  0  0
   99.9245   14.2710   94.2415 O   0  0  0  0  0  0  0  0  0  0  0  0
   93.1092   15.5682   96.3106 O   0  5  0  0  0  0  0  0  0  0  0  0
   98.8073   11.5243   95.4855 O   0  5  0  0  0  0  0  0  0  0  0  0
   95.0098   15.6624   94.6808 O   0  0  0  0  0  0  0  0  0  0  0  0
   97.6472   16.3805   94.2037 O   0  0  0  0  0  0  0  0  0  0  0  0
   97.7478   12.9315   93.6427 O   0  0  0  0  0  0  0  0  0  0  0  0
  100.8655   15.8658   99.0293 C   0  0  0  0  0  0  0  0  0  0  0  0
   98.9476   16.7306   99.8957 C   0  0  0  0  0  0  0  0  0  0  0  0
   98.3993   16.7102   98.5934 C   0  0  0  0  0  0  0  0  0  0  0  0
   99.1711   16.2652   97.5484 C   0  0  0  0  0  0  0  0  0  0  0  0
   98.8882   14.7098   95.0372 C   0  0  2  0  0  0  0  0  0  0  0  0
   97.0746   15.0419   93.7070 C   0  0  1  0  0  0  0  0  0  0  0  0
   97.5256   14.1115   94.4058 C   0  0  1  0  0  0  0  0  0  0  0  0
   98.7536   16.0178   95.1542 C   0  0  2  0  0  0  0  0  0  0  0  0
   98.3988   16.3755   96.4668 N   0  0  0  0  0  0  0  0  0  0  0  0
   93.5434   15.2370   94.9987 P   0  0  2  0  0  0  0  0  0  0  0  0
   97.7733   11.6412   94.4865 P   0  0  1  0  0  0  0  0  0  0  0  0
   95.1778   11.5241   94.2187 C   0  0  0  0  0  0  0  0  0  0  0  0
   96.3395   11.3775   95.0510 O   0  0  0  0  0  0  0  0  0  0  0  0
   93.9049   11.6386   94.9460 C   0  0  1  0  0  0  0  0  0  0  0  0
   93.9125   10.5555   96.1333 O   0  0  0  0  0  0  0  0  0  0  0  0
   93.8307   12.7587   95.5115 C   0  0  1  0  0  0  0  0  0  0  0  0
   93.2591   13.7702   94.6504 O   0  0  0  0  0  0  0  0  0  0  0  0
   93.0271   12.4821   96.7731 C   0  0  1  0  0  0  0  0  0  0  0  0
   91.7917   12.5157   96.5189 O   0  0  0  0  0  0  0  0  0  0  0  0
   93.4103   11.0542   97.1623 C   0  0  2  0  0  0  0  0  0  0  0  0
   97.9326    9.7598   99.2376 N   0  0  0  0  0  0  0  0  0  0  0  0
   97.5888    9.7071   97.9239 C   0  0  0  0  0  0  0  0  0  0  0  0
   96.3629   10.0974   97.5964 N   0  0  0  0  0  0  0  0  0  0  0  0
   95.4225   10.4797   98.4867 C   0  0  0  0  0  0  0  0  0  0  0  0
   95.7419   10.5473   99.8597 C   0  0  0  0  0  0  0  0  0  0  0  0
   97.0730   10.1451  100.1997 C   0  0  0  0  0  0  0  0  0  0  0  0
   97.4769   10.1594  101.5674 N   0  0  0  0  0  0  0  0  0  0  0  0
   94.6888   10.9773  100.4614 N   0  0  0  0  0  0  0  0  0  0  0  0
   93.7461   11.2036   99.5631 C   0  0  0  0  0  0  0  0  0  0  0  0
   94.1521   10.8960   98.3832 N   0  0  0  0  0  0  0  0  0  0  0  0
  1 24  1  0  0  0  0
  1  4  2  0  0  0  0
  2 13  1  0  0  0  0
  2 21  1  0  0  0  0
  3 16  1  0  0  0  0
  4 18  1  0  0  0  0
  5 19  2  0  0  0  0
  5 16  1  0  0  0  0
  6 16  2  0  0  0  0
  6 17  1  0  0  0  0
  7 17  1  0  0  0  0
 11 25  2  0  0  0  0
 12 26  2  0  0  0  0
 13 25  1  0  0  0  0
 14 23  1  0  0  0  0
 15 26  1  0  0  0  0
 17 18  2  0  0  0  0
 18 19  1  0  0  0  0
 19 24  1  0  0  0  0
 20 10  1  6  0  0  0
 20 22  1  0  0  0  0
 20 23  1  0  0  0  0
 21 14  1  1  0  0  0
 21 22  1  0  0  0  0
 22 15  1  6  0  0  0
 23 24  1  1  0  0  0
 25  8  1  6  0  0  0
 25 32  1  0  0  0  0
 26  9  1  6  0  0  0
 26 28  1  0  0  0  0
 27 28  1  0  0  0  0
 29 27  1  1  0  0  0
 29 30  1  0  0  0  0
 29 31  1  0  0  0  0
 30 35  1  0  0  0  0
 31 33  1  0  0  0  0
 31 32  1  6  0  0  0
 33 34  1  6  0  0  0
 33 35  1  0  0  0  0
 35 45  1  1  0  0  0
 36 41  2  0  0  0  0
 36 37  1  0  0  0  0
 37 38  2  0  0  0  0
 38 39  1  0  0  0  0
 39 40  2  0  0  0  0
 39 45  1  0  0  0  0
 40 41  1  0  0  0  0
 40 43  1  0  0  0  0
 41 42  1  0  0  0  0
 43 44  2  0  0  0  0
 44 45  1  0  0  0  0
M  CHG  4   8  -1   9  -1  11  -1  12  -1
M  END
>  <CHROM.1>
3.69057330,12.52745586,96.53503743,13.49644902,96.60666957,0.29318307,-0.65436166
-0.74580945

>  <Name>
ligand

>  <RI>
0

>  <Rbt.Current_Directory>
/home/itssahil/PROJECTS/Mol_Feturizer/New_Systems/rnas/4YAZ

>  <Rbt.Executable>
rbdock ($Id: //depot/dev/client3/rdock/2013.1/src/exe/rbdock.cxx#4 $)

>  <Rbt.Library>
libRbt.so (2013.1, Build901 2013/11/27)

>  <Rbt.Parameter_File>
/export/apps/rDock/src/rDock_2013.1_src/data/scripts/dock_solv.prm

>  <Rbt.Receptor>
prm/pocket_docking_3.prm

>  <SCORE>
-40.2946

>  <SCORE.INTER>
-39.4784

>  <SCORE.INTER.CONST>
1

>  <SCORE.INTER.POLAR>
0

>  <SCORE.INTER.ROT>
2

>  <SCORE.INTER.SOLV>
39.7517

>  <SCORE.INTER.VDW>
-44.5029

>  <SCORE.INTER.norm>
-0.877299

>  <SCORE.INTRA>
-0.816151

>  <SCORE.INTRA.DIHEDRAL>
-0.0600789

>  <SCORE.INTRA.DIHEDRAL.0>
2.39103

>  <SCORE.INTRA.POLAR>
0

>  <SCORE.INTRA.POLAR.0>
0

>  <SCORE.INTRA.REPUL>
0

>  <SCORE.INTRA.REPUL.0>
0

>  <SCORE.INTRA.SOLV>
0.958936

>  <SCORE.INTRA.SOLV.lig_0>
-163.975

>  <SCORE.INTRA.VDW>
-1.26558

>  <SCORE.INTRA.VDW.0>
-1.49176

>  <SCORE.INTRA.norm>
-0.0181367

>  <SCORE.RESTR>
0

>  <SCORE.RESTR.CAVITY>
0

>  <SCORE.RESTR.norm>
0

>  <SCORE.SYSTEM>
0

>  <SCORE.SYSTEM.CONST>
0

>  <SCORE.SYSTEM.DIHEDRAL>
0

>  <SCORE.SYSTEM.SOLV>
0

>  <SCORE.SYSTEM.norm>
0

>  <SCORE.heavy>
45

>  <SCORE.norm>
-0.895435

>  <RMSD>
1.750

$$$$
ligand
 OpenBabel11021811513D
libRbt.so/2013.1/901 2013/11/27
 45 51  0  0  0  0  0  0  0  0999 V2000
   97.2758   16.8637   96.8198 C   0  0  0  0  0  0  0  0  0  0  0  0
   95.6079   14.9668   93.6592 C   0  0  0  0  0  0  0  0  0  0  0  0
  102.2166   15.4306   99.2565 N   0  0  0  0  0  0  0  0  0  0  0  0
   97.2344   17.0720   98.0958 N   0  0  0  0  0  0  0  0  0  0  0  0
  100.4378   15.8305   97.7963 N   0  0  0  0  0  0  0  0  0  0  0  0
  100.1932   16.2753  100.0674 N   0  0  0  0  0  0  0  0  0  0  0  0
   98.1498   17.2025  100.9271 O   0  0  0  0  0  0  0  0  0  0  0  0
   92.7513   16.0440   94.1662 O   0  5  0  0  0  0  0  0  0  0  0  0
   98.0337   10.5781   93.6050 O   0  5  0  0  0  0  0  0  0  0  0  0
   99.9303   14.2717   94.2377 O   0  0  0  0  0  0  0  0  0  0  0  0
   93.1158   15.5687   96.3097 O   0  5  0  0  0  0  0  0  0  0  0  0
   98.8112   11.5229   95.4755 O   0  5  0  0  0  0  0  0  0  0  0  0
   95.0165   15.6654   94.6802 O   0  0  0  0  0  0  0  0  0  0  0  0
   97.6543   16.3829   94.2047 O   0  0  0  0  0  0  0  0  0  0  0  0
   97.7526   12.9351   93.6358 O   0  0  0  0  0  0  0  0  0  0  0  0
  100.8736   15.8585   99.0286 C   0  0  0  0  0  0  0  0  0  0  0  0
   98.9557   16.7207   99.8972 C   0  0  0  0  0  0  0  0  0  0  0  0
   98.4070   16.7027   98.5951 C   0  0  0  0  0  0  0  0  0  0  0  0
   99.1786   16.2601   97.5490 C   0  0  0  0  0  0  0  0  0  0  0  0
   98.8942   14.7094   95.0344 C   0  0  2  0  0  0  0  0  0  0  0  0
   97.0808   15.0457   93.7049 C   0  0  1  0  0  0  0  0  0  0  0  0
   97.5313   14.1135   94.4016 C   0  0  1  0  0  0  0  0  0  0  0  0
   98.7606   16.0172   95.1544 C   0  0  2  0  0  0  0  0  0  0  0  0
   98.4060   16.3721   96.4678 N   0  0  0  0  0  0  0  0  0  0  0  0
   93.5498   15.2402   94.9972 P   0  0  2  0  0  0  0  0  0  0  0  0
   97.7773   11.6428   94.4768 P   0  0  1  0  0  0  0  0  0  0  0  0
   95.1817   11.5280   94.2087 C   0  0  0  0  0  0  0  0  0  0  0  0
   96.3434   11.3787   95.0407 O   0  0  0  0  0  0  0  0  0  0  0  0
   93.9089   11.6417   94.9363 C   0  0  1  0  0  0  0  0  0  0  0  0
   93.9158   10.5559   96.1211 O   0  0  0  0  0  0  0  0  0  0  0  0
   93.8355   12.7605   95.5043 C   0  0  1  0  0  0  0  0  0  0  0  0
   93.2645   13.7744   94.6455 O   0  0  0  0  0  0  0  0  0  0  0  0
   93.0316   12.4816   96.7653 C   0  0  1  0  0  0  0  0  0  0  0  0
   91.7963   12.5167   96.5112 O   0  0  0  0  0  0  0  0  0  0  0  0
   93.4139   11.0527   97.1512 C   0  0  2  0  0  0  0  0  0  0  0  0
   97.9461    9.7850   99.2217 N   0  0  0  0  0  0  0  0  0  0  0  0
   97.6046    9.7403   97.9071 C   0  0  0  0  0  0  0  0  0  0  0  0
   96.3753   10.1214   97.5812 N   0  0  0  0  0  0  0  0  0  0  0  0
   95.4299   10.4865   98.4734 C   0  0  0  0  0  0  0  0  0  0  0  0
   95.7468   10.5454   99.8475 C   0  0  0  0  0  0  0  0  0  0  0  0
   97.0814   10.1535  100.1858 C   0  0  0  0  0  0  0  0  0  0  0  0
   97.4833   10.1599  101.5542 N   0  0  0  0  0  0  0  0  0  0  0  0
   94.6887   10.9597  100.4513 N   0  0  0  0  0  0  0  0  0  0  0  0
   93.7450   11.1845   99.5537 C   0  0  0  0  0  0  0  0  0  0  0  0
   94.1556   10.8912   98.3718 N   0  0  0  0  0  0  0  0  0  0  0  0
  1 24  1  0  0  0  0
  1  4  2  0  0  0  0
  2 13  1  0  0  0  0
  2 21  1  0  0  0  0
  3 16  1  0  0  0  0
  4 18  1  0  0  0  0
  5 19  2  0  0  0  0
  5 16  1  0  0  0  0
  6 16  2  0  0  0  0
  6 17  1  0  0  0  0
  7 17  1  0  0  0  0
 11 25  2  0  0  0  0
 12 26  2  0  0  0  0
 13 25  1  0  0  0  0
 14 23  1  0  0  0  0
 15 26  1  0  0  0  0
 17 18  2  0  0  0  0
 18 19  1  0  0  0  0
 19 24  1  0  0  0  0
 20 10  1  6  0  0  0
 20 22  1  0  0  0  0
 20 23  1  0  0  0  0
 21 14  1  1  0  0  0
 21 22  1  0  0  0  0
 22 15  1  6  0  0  0
 23 24  1  1  0  0  0
 25  8  1  6  0  0  0
 25 32  1  0  0  0  0
 26  9  1  6  0  0  0
 26 28  1  0  0  0  0
 27 28  1  0  0  0  0
 29 27  1  1  0  0  0
 29 30  1  0  0  0  0
 29 31  1  0  0  0  0
 30 35  1  0  0  0  0
 31 33  1  0  0  0  0
 31 32  1  6  0  0  0
 33 34  1  6  0  0  0
 33 35  1  0  0  0  0
 35 45  1  1  0  0  0
 36 41  2  0  0  0  0
 36 37  1  0  0  0  0
 37 38  2  0  0  0  0
 38 39  1  0  0  0  0
 39 40  2  0  0  0  0
 39 45  1  0  0  0  0
 40 41  1  0  0  0  0
 40 43  1  0  0  0  0
 41 42  1  0  0  0  0
 43 44  2  0  0  0  0
 44 45  1  0  0  0  0
M  CHG  4   8  -1   9  -1  11  -1  12  -1
M  END
>  <CHROM.1>
3.75795591,13.24022564,96.54120017,13.49708289,96.60095963,0.28565490,-0.65383917
-0.74712987

>  <Name>
ligand

>  <RI>
0

>  <Rbt.Current_Directory>
/home/itssahil/PROJECTS/Mol_Feturizer/New_Systems/rnas/4YAZ

>  <Rbt.Executable>
rbdock ($Id: //depot/dev/client3/rdock/2013.1/src/exe/rbdock.cxx#4 $)

>  <Rbt.Library>
libRbt.so (2013.1, Build901 2013/11/27)

>  <Rbt.Parameter_File>
/export/apps/rDock/src/rDock_2013.1_src/data/scripts/dock_solv.prm

>  <Rbt.Receptor>
prm/pocket_docking_4.prm

>  <SCORE>
-40.3797

>  <SCORE.INTER>
-39.5632

>  <SCORE.INTER.CONST>
1

>  <SCORE.INTER.POLAR>
0

>  <SCORE.INTER.ROT>
2

>  <SCORE.INTER.SOLV>
39.8438

>  <SCORE.INTER.VDW>
-44.5901

>  <SCORE.INTER.norm>
-0.879182

>  <SCORE.INTRA>
-0.816526

>  <SCORE.INTRA.DIHEDRAL>
-0.0643922

>  <SCORE.INTRA.DIHEDRAL.0>
2.39103

>  <SCORE.INTRA.POLAR>
0

>  <SCORE.INTRA.POLAR.0>
0

>  <SCORE.INTRA.REPUL>
0

>  <SCORE.INTRA.REPUL.0>
0

>  <SCORE.INTRA.SOLV>
0.994429

>  <SCORE.INTRA.SOLV.lig_0>
-163.975

>  <SCORE.INTRA.VDW>
-1.28154

>  <SCORE.INTRA.VDW.0>
-1.49176

>  <SCORE.INTRA.norm>
-0.018145

>  <SCORE.RESTR>
0

>  <SCORE.RESTR.CAVITY>
0

>  <SCORE.RESTR.norm>
0

>  <SCORE.SYSTEM>
0

>  <SCORE.SYSTEM.CONST>
0

>  <SCORE.SYSTEM.DIHEDRAL>
0

>  <SCORE.SYSTEM.SOLV>
0

>  <SCORE.SYSTEM.norm>
0

>  <SCORE.heavy>
45

>  <SCORE.norm>
-0.897327

>  <RMSD>
1.752

$$$$
ligand
 OpenBabel11021811513D
libRbt.so/2013.1/901 2013/11/27
 45 51  0  0  0  0  0  0  0  0999 V2000
   97.2743   16.8563   96.8141 C   0  0  0  0  0  0  0  0  0  0  0  0
   95.6209   14.9554   93.6488 C   0  0  0  0  0  0  0  0  0  0  0  0
  102.2164   15.4441   99.2604 N   0  0  0  0  0  0  0  0  0  0  0  0
   97.2294   17.0640   98.0901 N   0  0  0  0  0  0  0  0  0  0  0  0
  100.4388   15.8367   97.7967 N   0  0  0  0  0  0  0  0  0  0  0  0
  100.1877   16.2797  100.0675 N   0  0  0  0  0  0  0  0  0  0  0  0
   98.1384   17.1975  100.9234 O   0  0  0  0  0  0  0  0  0  0  0  0
   92.7591   16.0215   94.1500 O   0  5  0  0  0  0  0  0  0  0  0  0
   98.0633   10.5759   93.5977 O   0  5  0  0  0  0  0  0  0  0  0  0
   99.9445   14.2763   94.2365 O   0  0  0  0  0  0  0  0  0  0  0  0
   93.1206   15.5465   96.2941 O   0  5  0  0  0  0  0  0  0  0  0  0
   98.8331   11.5227   95.4704 O   0  5  0  0  0  0  0  0  0  0  0  0
   95.0245   15.6512   94.6689 O   0  0  0  0  0  0  0  0  0  0  0  0
   97.6607   16.3789   94.1996 O   0  0  0  0  0  0  0  0  0  0  0  0
   97.7733   12.9318   93.6291 O   0  0  0  0  0  0  0  0  0  0  0  0
  100.8720   15.8662   99.0299 C   0  0  0  0  0  0  0  0  0  0  0  0
   98.9485   16.7197   99.8949 C   0  0  0  0  0  0  0  0  0  0  0  0
   98.4025   16.6996   98.5917 C   0  0  0  0  0  0  0  0  0  0  0  0
   99.1783   16.2608   97.5470 C   0  0  0  0  0  0  0  0  0  0  0  0
   98.9050   14.7097   95.0312 C   0  0  2  0  0  0  0  0  0  0  0  0
   97.0934   15.0398   93.6978 C   0  0  1  0  0  0  0  0  0  0  0  0
   97.5458   14.1090   94.3950 C   0  0  1  0  0  0  0  0  0  0  0  0
   98.7662   16.0170   95.1515 C   0  0  2  0  0  0  0  0  0  0  0  0
   98.4074   16.3698   96.4643 N   0  0  0  0  0  0  0  0  0  0  0  0
   93.5588   15.2204   94.9823 P   0  0  2  0  0  0  0  0  0  0  0  0
   97.8010   11.6392   94.4695 P   0  0  1  0  0  0  0  0  0  0  0  0
   95.2064   11.5147   94.1956 C   0  0  0  0  0  0  0  0  0  0  0  0
   96.3668   11.3694   95.0301 O   0  0  0  0  0  0  0  0  0  0  0  0
   93.9316   11.6233   94.9204 C   0  0  1  0  0  0  0  0  0  0  0  0
   93.9400   10.5368   96.1047 O   0  0  0  0  0  0  0  0  0  0  0  0
   93.8527   12.7415   95.4889 C   0  0  1  0  0  0  0  0  0  0  0  0
   93.2798   13.7536   94.6293 O   0  0  0  0  0  0  0  0  0  0  0  0
   93.0471   12.4589   96.7479 C   0  0  1  0  0  0  0  0  0  0  0  0
   91.8123   12.4894   96.4911 O   0  0  0  0  0  0  0  0  0  0  0  0
   93.4339   11.0312   97.1340 C   0  0  2  0  0  0  0  0  0  0  0  0
   97.9579    9.7521   99.2152 N   0  0  0  0  0  0  0  0  0  0  0  0
   97.6176    9.7030   97.9005 C   0  0  0  0  0  0  0  0  0  0  0  0
   96.3905   10.0882   97.5715 N   0  0  0  0  0  0  0  0  0  0  0  0
   95.4459   10.4618   98.4610 C   0  0  0  0  0  0  0  0  0  0  0  0
   95.7615   10.5255   99.8351 C   0  0  0  0  0  0  0  0  0  0  0  0
   97.0939   10.1290  100.1767 C   0  0  0  0  0  0  0  0  0  0  0  0
   97.4943   10.1398  101.5455 N   0  0  0  0  0  0  0  0  0  0  0  0
   94.7047   10.9474  100.4359 N   0  0  0  0  0  0  0  0  0  0  0  0
   93.7630   11.1725   99.5361 C   0  0  0  0  0  0  0  0  0  0  0  0
   94.1735   10.8719   98.3561 N   0  0  0  0  0  0  0  0  0  0  0  0
  1 24  1  0  0  0  0
  1  4  2  0  0  0  0
  2 13  1  0  0  0  0
  2 21  1  0  0  0  0
  3 16  1  0  0  0  0
  4 18  1  0  0  0  0
  5 19  2  0  0  0  0
  5 16  1  0  0  0  0
  6 16  2  0  0  0  0
  6 17  1  0  0  0  0
  7 17  1  0  0  0  0
 11 25  2  0  0  0  0
 12 26  2  0  0  0  0
 13 25  1  0  0  0  0
 14 23  1  0  0  0  0
 15 26  1  0  0  0  0
 17 18  2  0  0  0  0
 18 19  1  0  0  0  0
 19 24  1  0  0  0  0
 20 10  1  6  0  0  0
 20 22  1  0  0  0  0
 20 23  1  0  0  0  0
 21 14  1  1  0  0  0
 21 22  1  0  0  0  0
 22 15  1  6  0  0  0
 23 24  1  1  0  0  0
 25  8  1  6  0  0  0
 25 32  1  0  0  0  0
 26  9  1  6  0  0  0
 26 28  1  0  0  0  0
 27 28  1  0  0  0  0
 29 27  1  1  0  0  0
 29 30  1  0  0  0  0
 29 31  1  0  0  0  0
 30 35  1  0  0  0  0
 31 33  1  0  0  0  0
 31 32  1  6  0  0  0
 33 34  1  6  0  0  0
 33 35  1  0  0  0  0
 35 45  1  1  0  0  0
 36 41  2  0  0  0  0
 36 37  1  0  0  0  0
 37 38  2  0  0  0  0
 38 39  1  0  0  0  0
 39 40  2  0  0  0  0
 39 45  1  0  0  0  0
 40 41  1  0  0  0  0
 40 43  1  0  0  0  0
 41 42  1  0  0  0  0
 43 44  2  0  0  0  0
 44 45  1  0  0  0  0
M  CHG  4   8  -1   9  -1  11  -1  12  -1
M  END
>  <CHROM.1>
3.79729524,12.67340044,96.55263984,13.48573283,96.59190199,0.29323468,-0.65823239
-0.74305785

>  <Name>
ligand

>  <RI>
0

>  <Rbt.Current_Directory>
/home/itssahil/PROJECTS/Mol_Feturizer/New_Systems/rnas/4YAZ

>  <Rbt.Executable>
rbdock ($Id: //depot/dev/client3/rdock/2013.1/src/exe/rbdock.cxx#4 $)

>  <Rbt.Library>
libRbt.so (2013.1, Build901 2013/11/27)

>  <Rbt.Parameter_File>
/export/apps/rDock/src/rDock_2013.1_src/data/scripts/dock_solv.prm

>  <Rbt.Receptor>
prm/pocket_docking_8.prm

>  <SCORE>
-40.282

>  <SCORE.INTER>
-39.4643

>  <SCORE.INTER.CONST>
1

>  <SCORE.INTER.POLAR>
0

>  <SCORE.INTER.ROT>
2

>  <SCORE.INTER.SOLV>
39.8308

>  <SCORE.INTER.VDW>
-44.5198

>  <SCORE.INTER.norm>
-0.876985

>  <SCORE.INTRA>
-0.817704

>  <SCORE.INTRA.DIHEDRAL>
-0.0609442

>  <SCORE.INTRA.DIHEDRAL.0>
2.39103

>  <SCORE.INTRA.POLAR>
0

>  <SCORE.INTRA.POLAR.0>
0

>  <SCORE.INTRA.REPUL>
0

>  <SCORE.INTRA.REPUL.0>
0

>  <SCORE.INTRA.SOLV>
0.96614

>  <SCORE.INTRA.SOLV.lig_0>
-163.975

>  <SCORE.INTRA.VDW>
-1.2703

>  <SCORE.INTRA.VDW.0>
-1.49176

>  <SCORE.INTRA.norm>
-0.0181712

>  <SCORE.RESTR>
0

>  <SCORE.RESTR.CAVITY>
0

>  <SCORE.RESTR.norm>
0

>  <SCORE.SYSTEM>
0

>  <SCORE.SYSTEM.CONST>
0

>  <SCORE.SYSTEM.DIHEDRAL>
0

>  <SCORE.SYSTEM.SOLV>
0

>  <SCORE.SYSTEM.norm>
0

>  <SCORE.heavy>
45

>  <SCORE.norm>
-0.895156

>  <RMSD>
1.752

$$$$
ligand
 OpenBabel11021811513D
libRbt.so/2013.1/901 2013/11/27
 45 51  0  0  0  0  0  0  0  0999 V2000
   97.2791   16.8644   96.8147 C   0  0  0  0  0  0  0  0  0  0  0  0
   95.6032   14.9662   93.6545 C   0  0  0  0  0  0  0  0  0  0  0  0
  102.2122   15.3917   99.2434 N   0  0  0  0  0  0  0  0  0  0  0  0
   97.2394   17.0675   98.0916 N   0  0  0  0  0  0  0  0  0  0  0  0
  100.4352   15.8083   97.7856 N   0  0  0  0  0  0  0  0  0  0  0  0
  100.1941   16.2449  100.0587 N   0  0  0  0  0  0  0  0  0  0  0  0
   98.1565   17.1806  100.9231 O   0  0  0  0  0  0  0  0  0  0  0  0
   92.7467   16.0394   94.1705 O   0  5  0  0  0  0  0  0  0  0  0  0
   98.0331   10.5800   93.5845 O   0  5  0  0  0  0  0  0  0  0  0  0
   99.9276   14.2739   94.2217 O   0  0  0  0  0  0  0  0  0  0  0  0
   93.1164   15.5594   96.3120 O   0  5  0  0  0  0  0  0  0  0  0  0
   98.8139   11.5211   95.4555 O   0  5  0  0  0  0  0  0  0  0  0  0
   95.0134   15.6618   94.6785 O   0  0  0  0  0  0  0  0  0  0  0  0
   97.6495   16.3829   94.1988 O   0  0  0  0  0  0  0  0  0  0  0  0
   97.7499   12.9366   93.6215 O   0  0  0  0  0  0  0  0  0  0  0  0
  100.8717   15.8285   99.0178 C   0  0  0  0  0  0  0  0  0  0  0  0
   98.9592   16.6984   99.8909 C   0  0  0  0  0  0  0  0  0  0  0  0
   98.4099   16.6891   98.5888 C   0  0  0  0  0  0  0  0  0  0  0  0
   99.1785   16.2464   97.5406 C   0  0  0  0  0  0  0  0  0  0  0  0
   98.8928   14.7088   95.0218 C   0  0  2  0  0  0  0  0  0  0  0  0
   97.0762   15.0464   93.6972 C   0  0  1  0  0  0  0  0  0  0  0  0
   97.5290   14.1130   94.3906 C   0  0  1  0  0  0  0  0  0  0  0  0
   98.7582   16.0162   95.1452 C   0  0  2  0  0  0  0  0  0  0  0  0
   98.4062   16.3676   96.4602 N   0  0  0  0  0  0  0  0  0  0  0  0
   93.5478   15.2344   94.9977 P   0  0  2  0  0  0  0  0  0  0  0  0
   97.7777   11.6424   94.4594 P   0  0  1  0  0  0  0  0  0  0  0  0
   95.1816   11.5257   94.1968 C   0  0  0  0  0  0  0  0  0  0  0  0
   96.3452   11.3756   95.0258 O   0  0  0  0  0  0  0  0  0  0  0  0
   93.9103   11.6364   94.9275 C   0  0  1  0  0  0  0  0  0  0  0  0
   93.9209   10.5478   96.1097 O   0  0  0  0  0  0  0  0  0  0  0  0
   93.8371   12.7538   95.4984 C   0  0  1  0  0  0  0  0  0  0  0  0
   93.2632   13.7692   94.6432 O   0  0  0  0  0  0  0  0  0  0  0  0
   93.0363   12.4711   96.7604 C   0  0  1  0  0  0  0  0  0  0  0  0
   91.8004   12.5056   96.5092 O   0  0  0  0  0  0  0  0  0  0  0  0
   93.4208   11.0416   97.1421 C   0  0  2  0  0  0  0  0  0  0  0  0
   97.9513    9.7490   99.2007 N   0  0  0  0  0  0  0  0  0  0  0  0
   97.6053    9.7038   97.8873 C   0  0  0  0  0  0  0  0  0  0  0  0
   96.3775   10.0920   97.5646 N   0  0  0  0  0  0  0  0  0  0  0  0
   95.4374   10.4653   98.4590 C   0  0  0  0  0  0  0  0  0  0  0  0
   95.7591   10.5251   99.8319 C   0  0  0  0  0  0  0  0  0  0  0  0
   97.0922   10.1252  100.1669 C   0  0  0  0  0  0  0  0  0  0  0  0
   97.4985   10.1319  101.5339 N   0  0  0  0  0  0  0  0  0  0  0  0
   94.7056   10.9475  100.4383 N   0  0  0  0  0  0  0  0  0  0  0  0
   93.7605   11.1765   99.5432 C   0  0  0  0  0  0  0  0  0  0  0  0
   94.1654   10.8780   98.3606 N   0  0  0  0  0  0  0  0  0  0  0  0
  1 24  1  0  0  0  0
  1  4  2  0  0  0  0
  2 13  1  0  0  0  0
  2 21  1  0  0  0  0
  3 16  1  0  0  0  0
  4 18  1  0  0  0  0
  5 19  2  0  0  0  0
  5 16  1  0  0  0  0
  6 16  2  0  0  0  0
  6 17  1  0  0  0  0
  7 17  1  0  0  0  0
 11 25  2  0  0  0  0
 12 26  2  0  0  0  0
 13 25  1  0  0  0  0
 14 23  1  0  0  0  0
 15 26  1  0  0  0  0
 17 18  2  0  0  0  0
 18 19  1  0  0  0  0
 19 24  1  0  0  0  0
 20 10  1  6  0  0  0
 20 22  1  0  0  0  0
 20 23  1  0  0  0  0
 21 14  1  1  0  0  0
 21 22  1  0  0  0  0
 22 15  1  6  0  0  0
 23 24  1  1  0  0  0
 25  8  1  6  0  0  0
 25 32  1  0  0  0  0
 26  9  1  6  0  0  0
 26 28  1  0  0  0  0
 27 28  1  0  0  0  0
 29 27  1  1  0  0  0
 29 30  1  0  0  0  0
 29 31  1  0  0  0  0
 30 35  1  0  0  0  0
 31 33  1  0  0  0  0
 31 32  1  6  0  0  0
 33 34  1  6  0  0  0
 33 35  1  0  0  0  0
 35 45  1  1  0  0  0
 36 41  2  0  0  0  0
 36 37  1  0  0  0  0
 37 38  2  0  0  0  0
 38 39  1  0  0  0  0
 39 40  2  0  0  0  0
 39 45  1  0  0  0  0
 40 41  1  0  0  0  0
 40 43  1  0  0  0  0
 41 42  1  0  0  0  0
 43 44  2  0  0  0  0
 44 45  1  0  0  0  0
M  CHG  4   8  -1   9  -1  11  -1  12  -1
M  END
>  <CHROM.1>
3.33484858,12.73591938,96.54312259,13.48637584,96.59111049,0.29145559,-0.65229812
-0.74077522

>  <Name>
ligand

>  <RI>
0

>  <Rbt.Current_Directory>
/home/itssahil/PROJECTS/Mol_Feturizer/New_Systems/rnas/4YAZ

>  <Rbt.Executable>
rbdock ($Id: //depot/dev/client3/rdock/2013.1/src/exe/rbdock.cxx#4 $)

>  <Rbt.Library>
libRbt.so (2013.1, Build901 2013/11/27)

>  <Rbt.Parameter_File>
/export/apps/rDock/src/rDock_2013.1_src/data/scripts/dock_solv.prm

>  <Rbt.Receptor>
prm/pocket_docking_5.prm

>  <SCORE>
-40.3223

>  <SCORE.INTER>
-39.5116

>  <SCORE.INTER.CONST>
1

>  <SCORE.INTER.POLAR>
0

>  <SCORE.INTER.ROT>
2

>  <SCORE.INTER.SOLV>
39.7243

>  <SCORE.INTER.VDW>
-44.5158

>  <SCORE.INTER.norm>
-0.878036

>  <SCORE.INTRA>
-0.810637

>  <SCORE.INTRA.DIHEDRAL>
-0.0614561

>  <SCORE.INTRA.DIHEDRAL.0>
2.39103

>  <SCORE.INTRA.POLAR>
0

>  <SCORE.INTRA.POLAR.0>
0

>  <SCORE.INTRA.REPUL>
0

>  <SCORE.INTRA.REPUL.0>
0

>  <SCORE.INTRA.SOLV>
0.969958

>  <SCORE.INTRA.SOLV.lig_0>
-163.975

>  <SCORE.INTRA.VDW>
-1.26489

>  <SCORE.INTRA.VDW.0>
-1.49176

>  <SCORE.INTRA.norm>
-0.0180141

>  <SCORE.RESTR>
0

>  <SCORE.RESTR.CAVITY>
0

>  <SCORE.RESTR.norm>
0

>  <SCORE.SYSTEM>
0

>  <SCORE.SYSTEM.CONST>
0

>  <SCORE.SYSTEM.DIHEDRAL>
0

>  <SCORE.SYSTEM.SOLV>
0

>  <SCORE.SYSTEM.norm>
0

>  <SCORE.heavy>
45

>  <SCORE.norm>
-0.89605

>  <RMSD>
1.753

$$$$
ligand
 OpenBabel11021811513D
libRbt.so/2013.1/901 2013/11/27
 45 51  0  0  0  0  0  0  0  0999 V2000
   97.2779   16.8649   96.8187 C   0  0  0  0  0  0  0  0  0  0  0  0
   95.6065   14.9693   93.6591 C   0  0  0  0  0  0  0  0  0  0  0  0
  102.2137   15.4206   99.2589 N   0  0  0  0  0  0  0  0  0  0  0  0
   97.2364   17.0743   98.0945 N   0  0  0  0  0  0  0  0  0  0  0  0
  100.4366   15.8241   97.7975 N   0  0  0  0  0  0  0  0  0  0  0  0
  100.1922   16.2714  100.0682 N   0  0  0  0  0  0  0  0  0  0  0  0
   98.1508   17.2046  100.9262 O   0  0  0  0  0  0  0  0  0  0  0  0
   92.7524   16.0539   94.1640 O   0  5  0  0  0  0  0  0  0  0  0  0
   98.0215   10.5746   93.6095 O   0  5  0  0  0  0  0  0  0  0  0  0
   99.9270   14.2640   94.2399 O   0  0  0  0  0  0  0  0  0  0  0  0
   93.1148   15.5796   96.3081 O   0  5  0  0  0  0  0  0  0  0  0  0
   98.8006   11.5190   95.4796 O   0  5  0  0  0  0  0  0  0  0  0  0
   95.0164   15.6702   94.6793 O   0  0  0  0  0  0  0  0  0  0  0  0
   97.6562   16.3808   94.2043 O   0  0  0  0  0  0  0  0  0  0  0  0
   97.7463   12.9323   93.6383 O   0  0  0  0  0  0  0  0  0  0  0  0
  100.8720   15.8519   99.0300 C   0  0  0  0  0  0  0  0  0  0  0  0
   98.9559   16.7199   99.8971 C   0  0  0  0  0  0  0  0  0  0  0  0
   98.4078   16.7023   98.5946 C   0  0  0  0  0  0  0  0  0  0  0  0
   99.1787   16.2569   97.5493 C   0  0  0  0  0  0  0  0  0  0  0  0
   98.8916   14.7050   95.0359 C   0  0  2  0  0  0  0  0  0  0  0  0
   97.0796   15.0446   93.7053 C   0  0  1  0  0  0  0  0  0  0  0  0
   97.5275   14.1119   94.4030 C   0  0  1  0  0  0  0  0  0  0  0  0
   98.7611   16.0132   95.1547 C   0  0  2  0  0  0  0  0  0  0  0  0
   98.4069   16.3701   96.4677 N   0  0  0  0  0  0  0  0  0  0  0  0
   93.5486   15.2489   94.9960 P   0  0  2  0  0  0  0  0  0  0  0  0
   97.7674   11.6406   94.4803 P   0  0  1  0  0  0  0  0  0  0  0  0
   95.1717   11.5320   94.2113 C   0  0  0  0  0  0  0  0  0  0  0  0
   96.3326   11.3806   95.0438 O   0  0  0  0  0  0  0  0  0  0  0  0
   93.8988   11.6495   94.9382 C   0  0  1  0  0  0  0  0  0  0  0  0
   93.9026   10.5646   96.1240 O   0  0  0  0  0  0  0  0  0  0  0  0
   93.8279   12.7689   95.5053 C   0  0  1  0  0  0  0  0  0  0  0  0
   93.2598   13.7835   94.6454 O   0  0  0  0  0  0  0  0  0  0  0  0
   93.0229   12.4930   96.7662 C   0  0  1  0  0  0  0  0  0  0  0  0
   91.7878   12.5309   96.5115 O   0  0  0  0  0  0  0  0  0  0  0  0
   93.4015   11.0634   97.1535 C   0  0  2  0  0  0  0  0  0  0  0  0
   97.9273    9.7788   99.2272 N   0  0  0  0  0  0  0  0  0  0  0  0
   97.5857    9.7328   97.9127 C   0  0  0  0  0  0  0  0  0  0  0  0
   96.3583   10.1190   97.5859 N   0  0  0  0  0  0  0  0  0  0  0  0
   95.4146   10.4907   98.4771 C   0  0  0  0  0  0  0  0  0  0  0  0
   95.7317   10.5511   99.8511 C   0  0  0  0  0  0  0  0  0  0  0  0
   97.0643   10.1536  100.1905 C   0  0  0  0  0  0  0  0  0  0  0  0
   97.4661   10.1611  101.5589 N   0  0  0  0  0  0  0  0  0  0  0  0
   94.6755   10.9718  100.4539 N   0  0  0  0  0  0  0  0  0  0  0  0
   93.7329   11.1991   99.5556 C   0  0  0  0  0  0  0  0  0  0  0  0
   94.1423   10.9012   98.3745 N   0  0  0  0  0  0  0  0  0  0  0  0
  1 24  1  0  0  0  0
  1  4  2  0  0  0  0
  2 13  1  0  0  0  0
  2 21  1  0  0  0  0
  3 16  1  0  0  0  0
  4 18  1  0  0  0  0
  5 19  2  0  0  0  0
  5 16  1  0  0  0  0
  6 16  2  0  0  0  0
  6 17  1  0  0  0  0
  7 17  1  0  0  0  0
 11 25  2  0  0  0  0
 12 26  2  0  0  0  0
 13 25  1  0  0  0  0
 14 23  1  0  0  0  0
 15 26  1  0  0  0  0
 17 18  2  0  0  0  0
 18 19  1  0  0  0  0
 19 24  1  0  0  0  0
 20 10  1  6  0  0  0
 20 22  1  0  0  0  0
 20 23  1  0  0  0  0
 21 14  1  1  0  0  0
 21 22  1  0  0  0  0
 22 15  1  6  0  0  0
 23 24  1  1  0  0  0
 25  8  1  6  0  0  0
 25 32  1  0  0  0  0
 26  9  1  6  0  0  0
 26 28  1  0  0  0  0
 27 28  1  0  0  0  0
 29 27  1  1  0  0  0
 29 30  1  0  0  0  0
 29 31  1  0  0  0  0
 30 35  1  0  0  0  0
 31 33  1  0  0  0  0
 31 32  1  6  0  0  0
 33 34  1  6  0  0  0
 33 35  1  0  0  0  0
 35 45  1  1  0  0  0
 36 41  2  0  0  0  0
 36 37  1  0  0  0  0
 37 38  2  0  0  0  0
 38 39  1  0  0  0  0
 39 40  2  0  0  0  0
 39 45  1  0  0  0  0
 40 41  1  0  0  0  0
 40 43  1  0  0  0  0
 41 42  1  0  0  0  0
 43 44  2  0  0  0  0
 44 45  1  0  0  0  0
M  CHG  4   8  -1   9  -1  11  -1  12  -1
M  END
>  <CHROM.1>
3.74653251,13.08374206,96.53479045,13.49907766,96.60247085,0.28456157,-0.65249059
-0.74884307

>  <Name>
ligand

>  <RI>
0

>  <Rbt.Current_Directory>
/home/itssahil/PROJECTS/Mol_Feturizer/New_Systems/rnas/4YAZ

>  <Rbt.Executable>
rbdock ($Id: //depot/dev/client3/rdock/2013.1/src/exe/rbdock.cxx#4 $)

>  <Rbt.Library>
libRbt.so (2013.1, Build901 2013/11/27)

>  <Rbt.Parameter_File>
/export/apps/rDock/src/rDock_2013.1_src/data/scripts/dock_solv.prm

>  <Rbt.Receptor>
prm/pocket_docking_3.prm

>  <SCORE>
-40.3583

>  <SCORE.INTER>
-39.5418

>  <SCORE.INTER.CONST>
1

>  <SCORE.INTER.POLAR>
0

>  <SCORE.INTER.ROT>
2

>  <SCORE.INTER.SOLV>
39.7881

>  <SCORE.INTER.VDW>
-44.5572

>  <SCORE.INTER.norm>
-0.878706

>  <SCORE.INTRA>
-0.81657

>  <SCORE.INTRA.DIHEDRAL>
-0.063453

>  <SCORE.INTRA.DIHEDRAL.0>
2.39103

>  <SCORE.INTRA.POLAR>
0

>  <SCORE.INTRA.POLAR.0>
0

>  <SCORE.INTRA.REPUL>
0

>  <SCORE.INTRA.REPUL.0>
0

>  <SCORE.INTRA.SOLV>
0.986709

>  <SCORE.INTRA.SOLV.lig_0>
-163.975

>  <SCORE.INTRA.VDW>
-1.2782

>  <SCORE.INTRA.VDW.0>
-1.49176

>  <SCORE.INTRA.norm>
-0.018146

>  <SCORE.RESTR>
0

>  <SCORE.RESTR.CAVITY>
0

>  <SCORE.RESTR.norm>
0

>  <SCORE.SYSTEM>
0

>  <SCORE.SYSTEM.CONST>
0

>  <SCORE.SYSTEM.DIHEDRAL>
0

>  <SCORE.SYSTEM.SOLV>
0

>  <SCORE.SYSTEM.norm>
0

>  <SCORE.heavy>
45

>  <SCORE.norm>
-0.896852

>  <RMSD>
1.754

$$$$
ligand
 OpenBabel11021811513D
libRbt.so/2013.1/901 2013/11/27
 45 51  0  0  0  0  0  0  0  0999 V2000
   97.2763   16.8665   96.8114 C   0  0  0  0  0  0  0  0  0  0  0  0
   95.6022   14.9674   93.6516 C   0  0  0  0  0  0  0  0  0  0  0  0
  102.2100   15.4006   99.2432 N   0  0  0  0  0  0  0  0  0  0  0  0
   97.2361   17.0710   98.0880 N   0  0  0  0  0  0  0  0  0  0  0  0
  100.4331   15.8141   97.7844 N   0  0  0  0  0  0  0  0  0  0  0  0
  100.1909   16.2531  100.0569 N   0  0  0  0  0  0  0  0  0  0  0  0
   98.1524   17.1881  100.9197 O   0  0  0  0  0  0  0  0  0  0  0  0
   92.7457   16.0420   94.1649 O   0  5  0  0  0  0  0  0  0  0  0  0
   98.0306   10.5803   93.5867 O   0  5  0  0  0  0  0  0  0  0  0  0
   99.9259   14.2741   94.2220 O   0  0  0  0  0  0  0  0  0  0  0  0
   93.1140   15.5637   96.3071 O   0  5  0  0  0  0  0  0  0  0  0  0
   98.8106   11.5227   95.4574 O   0  5  0  0  0  0  0  0  0  0  0  0
   95.0119   15.6641   94.6747 O   0  0  0  0  0  0  0  0  0  0  0  0
   97.6486   16.3839   94.1960 O   0  0  0  0  0  0  0  0  0  0  0  0
   97.7481   12.9371   93.6216 O   0  0  0  0  0  0  0  0  0  0  0  0
  100.8692   15.8360   99.0167 C   0  0  0  0  0  0  0  0  0  0  0  0
   98.9557   16.7054   99.8882 C   0  0  0  0  0  0  0  0  0  0  0  0
   98.4068   16.6941   98.5861 C   0  0  0  0  0  0  0  0  0  0  0  0
   99.1761   16.2509   97.5386 C   0  0  0  0  0  0  0  0  0  0  0  0
   98.8909   14.7100   95.0211 C   0  0  2  0  0  0  0  0  0  0  0  0
   97.0751   15.0471   93.6951 C   0  0  1  0  0  0  0  0  0  0  0  0
   97.5272   14.1141   94.3896 C   0  0  1  0  0  0  0  0  0  0  0  0
   98.7566   16.0175   95.1433 C   0  0  2  0  0  0  0  0  0  0  0  0
   98.4040   16.3702   96.4578 N   0  0  0  0  0  0  0  0  0  0  0  0
   93.5461   15.2375   94.9934 P   0  0  2  0  0  0  0  0  0  0  0  0
   97.7750   11.6435   94.4605 P   0  0  1  0  0  0  0  0  0  0  0  0
   95.1790   11.5275   94.1965 C   0  0  0  0  0  0  0  0  0  0  0  0
   96.3421   11.3777   95.0264 O   0  0  0  0  0  0  0  0  0  0  0  0
   93.9073   11.6393   94.9264 C   0  0  1  0  0  0  0  0  0  0  0  0
   93.9168   10.5517   96.1095 O   0  0  0  0  0  0  0  0  0  0  0  0
   93.8341   12.7572   95.4963 C   0  0  1  0  0  0  0  0  0  0  0  0
   93.2611   13.7720   94.6399 O   0  0  0  0  0  0  0  0  0  0  0  0
   93.0325   12.4758   96.7581 C   0  0  1  0  0  0  0  0  0  0  0  0
   91.7968   12.5105   96.5061 O   0  0  0  0  0  0  0  0  0  0  0  0
   93.4163   11.0465   97.1412 C   0  0  2  0  0  0  0  0  0  0  0  0
   97.9476    9.7619   99.2032 N   0  0  0  0  0  0  0  0  0  0  0  0
   97.6028    9.7168   97.8894 C   0  0  0  0  0  0  0  0  0  0  0  0
   96.3745   10.1027   97.5658 N   0  0  0  0  0  0  0  0  0  0  0  0
   95.4328   10.4735   98.4596 C   0  0  0  0  0  0  0  0  0  0  0  0
   95.7531   10.5331   99.8329 C   0  0  0  0  0  0  0  0  0  0  0  0
   97.0867   10.1357  100.1688 C   0  0  0  0  0  0  0  0  0  0  0  0
   97.4918   10.1424  101.5362 N   0  0  0  0  0  0  0  0  0  0  0  0
   94.6983   10.9530  100.4385 N   0  0  0  0  0  0  0  0  0  0  0  0
   93.7535   11.1806   99.5427 C   0  0  0  0  0  0  0  0  0  0  0  0
   94.1601   10.8836   98.3603 N   0  0  0  0  0  0  0  0  0  0  0  0
  1 24  1  0  0  0  0
  1  4  2  0  0  0  0
  2 13  1  0  0  0  0
  2 21  1  0  0  0  0
  3 16  1  0  0  0  0
  4 18  1  0  0  0  0
  5 19  2  0  0  0  0
  5 16  1  0  0  0  0
  6 16  2  0  0  0  0
  6 17  1  0  0  0  0
  7 17  1  0  0  0  0
 11 25  2  0  0  0  0
 12 26  2  0  0  0  0
 13 25  1  0  0  0  0
 14 23  1  0  0  0  0
 15 26  1  0  0  0  0
 17 18  2  0  0  0  0
 18 19  1  0  0  0  0
 19 24  1  0  0  0  0
 20 10  1  6  0  0  0
 20 22  1  0  0  0  0
 20 23  1  0  0  0  0
 21 14  1  1  0  0  0
 21 22  1  0  0  0  0
 22 15  1  6  0  0  0
 23 24  1  1  0  0  0
 25  8  1  6  0  0  0
 25 32  1  0  0  0  0
 26  9  1  6  0  0  0
 26 28  1  0  0  0  0
 27 28  1  0  0  0  0
 29 27  1  1  0  0  0
 29 30  1  0  0  0  0
 29 31  1  0  0  0  0
 30 35  1  0  0  0  0
 31 33  1  0  0  0  0
 31 32  1  6  0  0  0
 33 34  1  6  0  0  0
 33 35  1  0  0  0  0
 35 45  1  1  0  0  0
 36 41  2  0  0  0  0
 36 37  1  0  0  0  0
 37 38  2  0  0  0  0
 38 39  1  0  0  0  0
 39 40  2  0  0  0  0
 39 45  1  0  0  0  0
 40 41  1  0  0  0  0
 40 43  1  0  0  0  0
 41 42  1  0  0  0  0
 43 44  2  0  0  0  0
 44 45  1  0  0  0  0
M  CHG  4   8  -1   9  -1  11  -1  12  -1
M  END
>  <CHROM.1>
3.40662347,12.89810595,96.54011433,13.49069115,96.58992612,0.28932177,-0.65257443
-0.74284791

>  <Name>
ligand

>  <RI>
0

>  <Rbt.Current_Directory>
/home/itssahil/PROJECTS/Mol_Feturizer/New_Systems/rnas/4YAZ

>  <Rbt.Executable>
rbdock ($Id: //depot/dev/client3/rdock/2013.1/src/exe/rbdock.cxx#4 $)

>  <Rbt.Library>
libRbt.so (2013.1, Build901 2013/11/27)

>  <Rbt.Parameter_File>
/export/apps/rDock/src/rDock_2013.1_src/data/scripts/dock_solv.prm

>  <Rbt.Receptor>
prm/pocket_docking_3.prm

>  <SCORE>
-40.3118

>  <SCORE.INTER>
-39.5002

>  <SCORE.INTER.CONST>
1

>  <SCORE.INTER.POLAR>
0

>  <SCORE.INTER.ROT>
2

>  <SCORE.INTER.SOLV>
39.7137

>  <SCORE.INTER.VDW>
-44.5047

>  <SCORE.INTER.norm>
-0.877783

>  <SCORE.INTRA>
-0.811605

>  <SCORE.INTRA.DIHEDRAL>
-0.0624239

>  <SCORE.INTRA.DIHEDRAL.0>
2.39103

>  <SCORE.INTRA.POLAR>
0

>  <SCORE.INTRA.POLAR.0>
0

>  <SCORE.INTRA.REPUL>
0

>  <SCORE.INTRA.REPUL.0>
0

>  <SCORE.INTRA.SOLV>
0.977971

>  <SCORE.INTRA.SOLV.lig_0>
-163.975

>  <SCORE.INTRA.VDW>
-1.26938

>  <SCORE.INTRA.VDW.0>
-1.49176

>  <SCORE.INTRA.norm>
-0.0180357

>  <SCORE.RESTR>
0

>  <SCORE.RESTR.CAVITY>
0

>  <SCORE.RESTR.norm>
0

>  <SCORE.SYSTEM>
0

>  <SCORE.SYSTEM.CONST>
0

>  <SCORE.SYSTEM.DIHEDRAL>
0

>  <SCORE.SYSTEM.SOLV>
0

>  <SCORE.SYSTEM.norm>
0

>  <SCORE.heavy>
45

>  <SCORE.norm>
-0.895819

>  <RMSD>
1.755

$$$$
ligand
 OpenBabel11021811513D
libRbt.so/2013.1/901 2013/11/27
 45 51  0  0  0  0  0  0  0  0999 V2000
   97.2783   16.8670   96.8229 C   0  0  0  0  0  0  0  0  0  0  0  0
   95.6081   14.9769   93.6596 C   0  0  0  0  0  0  0  0  0  0  0  0
  102.2107   15.4169   99.2665 N   0  0  0  0  0  0  0  0  0  0  0  0
   97.2358   17.0755   98.0988 N   0  0  0  0  0  0  0  0  0  0  0  0
  100.4353   15.8229   97.8038 N   0  0  0  0  0  0  0  0  0  0  0  0
  100.1891   16.2686  100.0746 N   0  0  0  0  0  0  0  0  0  0  0  0
   98.1477   17.2029  100.9314 O   0  0  0  0  0  0  0  0  0  0  0  0
   92.7548   16.0648   94.1625 O   0  5  0  0  0  0  0  0  0  0  0  0
   98.0175   10.5791   93.6087 O   0  5  0  0  0  0  0  0  0  0  0  0
   99.9270   14.2655   94.2445 O   0  0  0  0  0  0  0  0  0  0  0  0
   93.1143   15.5880   96.3065 O   0  5  0  0  0  0  0  0  0  0  0  0
   98.7957   11.5209   95.4805 O   0  5  0  0  0  0  0  0  0  0  0  0
   95.0177   15.6776   94.6798 O   0  0  0  0  0  0  0  0  0  0  0  0
   97.6590   16.3852   94.2083 O   0  0  0  0  0  0  0  0  0  0  0  0
   97.7452   12.9371   93.6393 O   0  0  0  0  0  0  0  0  0  0  0  0
  100.8695   15.8494   99.0367 C   0  0  0  0  0  0  0  0  0  0  0  0
   98.9533   16.7183   99.9027 C   0  0  0  0  0  0  0  0  0  0  0  0
   98.4064   16.7021   98.5997 C   0  0  0  0  0  0  0  0  0  0  0  0
   99.1780   16.2569   97.5547 C   0  0  0  0  0  0  0  0  0  0  0  0
   98.8914   14.7071   95.0397 C   0  0  2  0  0  0  0  0  0  0  0  0
   97.0812   15.0502   93.7075 C   0  0  1  0  0  0  0  0  0  0  0  0
   97.5271   14.1163   94.4049 C   0  0  1  0  0  0  0  0  0  0  0  0
   98.7624   16.0154   95.1596 C   0  0  2  0  0  0  0  0  0  0  0  0
   98.4073   16.3715   96.4725 N   0  0  0  0  0  0  0  0  0  0  0  0
   93.5491   15.2580   94.9946 P   0  0  2  0  0  0  0  0  0  0  0  0
   97.7638   11.6447   94.4802 P   0  0  1  0  0  0  0  0  0  0  0  0
   95.1682   11.5397   94.2082 C   0  0  0  0  0  0  0  0  0  0  0  0
   96.3280   11.3860   95.0419 O   0  0  0  0  0  0  0  0  0  0  0  0
   93.8947   11.6581   94.9340 C   0  0  1  0  0  0  0  0  0  0  0  0
   93.8958   10.5722   96.1187 O   0  0  0  0  0  0  0  0  0  0  0  0
   93.8247   12.7772   95.5020 C   0  0  1  0  0  0  0  0  0  0  0  0
   93.2588   13.7932   94.6424 O   0  0  0  0  0  0  0  0  0  0  0  0
   93.0179   12.5012   96.7617 C   0  0  1  0  0  0  0  0  0  0  0  0
   91.7831   12.5409   96.5058 O   0  0  0  0  0  0  0  0  0  0  0  0
   93.3942   11.0708   97.1481 C   0  0  2  0  0  0  0  0  0  0  0  0
   97.9314    9.8288   99.2232 N   0  0  0  0  0  0  0  0  0  0  0  0
   97.5945    9.7915   97.9071 C   0  0  0  0  0  0  0  0  0  0  0  0
   96.3628   10.1637   97.5803 N   0  0  0  0  0  0  0  0  0  0  0  0
   95.4112   10.5129   98.4723 C   0  0  0  0  0  0  0  0  0  0  0  0
   95.7231   10.5637   99.8478 C   0  0  0  0  0  0  0  0  0  0  0  0
   97.0602   10.1815  100.1874 C   0  0  0  0  0  0  0  0  0  0  0  0
   97.4577   10.1806  101.5571 N   0  0  0  0  0  0  0  0  0  0  0  0
   94.6593   10.9632  100.4515 N   0  0  0  0  0  0  0  0  0  0  0  0
   93.7164   11.1864   99.5526 C   0  0  0  0  0  0  0  0  0  0  0  0
   94.1335   10.9064   98.3698 N   0  0  0  0  0  0  0  0  0  0  0  0
  1 24  1  0  0  0  0
  1  4  2  0  0  0  0
  2 13  1  0  0  0  0
  2 21  1  0  0  0  0
  3 16  1  0  0  0  0
  4 18  1  0  0  0  0
  5 19  2  0  0  0  0
  5 16  1  0  0  0  0
  6 16  2  0  0  0  0
  6 17  1  0  0  0  0
  7 17  1  0  0  0  0
 11 25  2  0  0  0  0
 12 26  2  0  0  0  0
 13 25  1  0  0  0  0
 14 23  1  0  0  0  0
 15 26  1  0  0  0  0
 17 18  2  0  0  0  0
 18 19  1  0  0  0  0
 19 24  1  0  0  0  0
 20 10  1  6  0  0  0
 20 22  1  0  0  0  0
 20 23  1  0  0  0  0
 21 14  1  1  0  0  0
 21 22  1  0  0  0  0
 22 15  1  6  0  0  0
 23 24  1  1  0  0  0
 25  8  1  6  0  0  0
 25 32  1  0  0  0  0
 26  9  1  6  0  0  0
 26 28  1  0  0  0  0
 27 28  1  0  0  0  0
 29 27  1  1  0  0  0
 29 30  1  0  0  0  0
 29 31  1  0  0  0  0
 30 35  1  0  0  0  0
 31 33  1  0  0  0  0
 31 32  1  6  0  0  0
 33 34  1  6  0  0  0
 33 35  1  0  0  0  0
 35 45  1  1  0  0  0
 36 41  2  0  0  0  0
 36 37  1  0  0  0  0
 37 38  2  0  0  0  0
 38 39  1  0  0  0  0
 39 40  2  0  0  0  0
 39 45  1  0  0  0  0
 40 41  1  0  0  0  0
 40 43  1  0  0  0  0
 41 42  1  0  0  0  0
 43 44  2  0  0  0  0
 44 45  1  0  0  0  0
M  CHG  4   8  -1   9  -1  11  -1  12  -1
M  END
>  <CHROM.1>
3.77747144,14.12188176,96.53243696,13.50691625,96.60253277,0.27214935,-0.65217751
-0.75403537

>  <Name>
ligand

>  <RI>
0

>  <Rbt.Current_Directory>
/home/itssahil/PROJECTS/Mol_Feturizer/New_Systems/rnas/4YAZ

>  <Rbt.Executable>
rbdock ($Id: //depot/dev/client3/rdock/2013.1/src/exe/rbdock.cxx#4 $)

>  <Rbt.Library>
libRbt.so (2013.1, Build901 2013/11/27)

>  <Rbt.Parameter_File>
/export/apps/rDock/src/rDock_2013.1_src/data/scripts/dock_solv.prm

>  <Rbt.Receptor>
prm/pocket_docking_3.prm

>  <SCORE>
-40.3189

>  <SCORE.INTER>
-39.5042

>  <SCORE.INTER.CONST>
1

>  <SCORE.INTER.POLAR>
0

>  <SCORE.INTER.ROT>
2

>  <SCORE.INTER.SOLV>
39.831

>  <SCORE.INTER.VDW>
-44.5465

>  <SCORE.INTER.norm>
-0.877871

>  <SCORE.INTRA>
-0.814716

>  <SCORE.INTRA.DIHEDRAL>
-0.0696014

>  <SCORE.INTRA.DIHEDRAL.0>
2.39103

>  <SCORE.INTRA.POLAR>
0

>  <SCORE.INTRA.POLAR.0>
0

>  <SCORE.INTRA.REPUL>
0

>  <SCORE.INTRA.REPUL.0>
0

>  <SCORE.INTRA.SOLV>
1.03723

>  <SCORE.INTRA.SOLV.lig_0>
-163.975

>  <SCORE.INTRA.VDW>
-1.29853

>  <SCORE.INTRA.VDW.0>
-1.49176

>  <SCORE.INTRA.norm>
-0.0181048

>  <SCORE.RESTR>
0

>  <SCORE.RESTR.CAVITY>
0

>  <SCORE.RESTR.norm>
0

>  <SCORE.SYSTEM>
0

>  <SCORE.SYSTEM.CONST>
0

>  <SCORE.SYSTEM.DIHEDRAL>
0

>  <SCORE.SYSTEM.SOLV>
0

>  <SCORE.SYSTEM.norm>
0

>  <SCORE.heavy>
45

>  <SCORE.norm>
-0.895976

>  <RMSD>
1.757

$$$$
ligand
 OpenBabel11021811513D
libRbt.so/2013.1/901 2013/11/27
 45 51  0  0  0  0  0  0  0  0999 V2000
  100.6530   14.7825   96.9063 C   0  0  0  0  0  0  0  0  0  0  0  0
   95.9598   14.8112   94.3785 C   0  0  0  0  0  0  0  0  0  0  0  0
   96.0451   18.0037   97.7977 N   0  0  0  0  0  0  0  0  0  0  0  0
  100.5425   15.0871   98.1586 N   0  0  0  0  0  0  0  0  0  0  0  0
   97.7779   16.7199   96.9002 N   0  0  0  0  0  0  0  0  0  0  0  0
   97.7282   17.1615   99.1846 N   0  0  0  0  0  0  0  0  0  0  0  0
   99.4064   16.2603  100.6494 O   0  0  0  0  0  0  0  0  0  0  0  0
   93.6486   16.0801   95.9988 O   0  5  0  0  0  0  0  0  0  0  0  0
   97.4442   10.2763   92.8360 O   0  5  0  0  0  0  0  0  0  0  0  0
  100.0506   13.5353   93.3115 O   0  0  0  0  0  0  0  0  0  0  0  0
   94.5946   15.1523   97.7870 O   0  5  0  0  0  0  0  0  0  0  0  0
   98.9321   10.7390   94.4386 O   0  5  0  0  0  0  0  0  0  0  0  0
   95.8576   15.3558   95.6328 O   0  0  0  0  0  0  0  0  0  0  0  0
   98.2849   15.8528   94.3836 O   0  0  0  0  0  0  0  0  0  0  0  0
   97.5989   12.5969   93.3115 O   0  0  0  0  0  0  0  0  0  0  0  0
   97.2544   17.2639   97.9676 C   0  0  0  0  0  0  0  0  0  0  0  0
   98.8268   16.4494   99.3962 C   0  0  0  0  0  0  0  0  0  0  0  0
   99.4623   15.8468   98.2871 C   0  0  0  0  0  0  0  0  0  0  0  0
   98.9074   15.9875   97.0390 C   0  0  0  0  0  0  0  0  0  0  0  0
   99.4173   13.9200   94.4737 C   0  0  2  0  0  0  0  0  0  0  0  0
   97.3597   14.7139   93.9215 C   0  0  1  0  0  0  0  0  0  0  0  0
   97.8421   13.6177   94.2722 C   0  0  1  0  0  0  0  0  0  0  0  0
   99.5569   15.1848   94.8251 C   0  0  2  0  0  0  0  0  0  0  0  0
   99.7099   15.3103   96.2171 N   0  0  0  0  0  0  0  0  0  0  0  0
   94.5204   15.0435   96.3722 P   0  0  2  0  0  0  0  0  0  0  0  0
   97.6692   11.1693   93.8902 P   0  0  1  0  0  0  0  0  0  0  0  0
   95.1464   11.4016   94.5254 C   0  0  0  0  0  0  0  0  0  0  0  0
   96.4696   10.9614   94.8708 O   0  0  0  0  0  0  0  0  0  0  0  0
   94.2145   11.5111   95.6577 C   0  0  1  0  0  0  0  0  0  0  0  0
   94.4143   10.2185   96.5916 O   0  0  0  0  0  0  0  0  0  0  0  0
   94.5216   12.4964   96.3751 C   0  0  1  0  0  0  0  0  0  0  0  0
   93.8889   13.7176   95.9282 O   0  0  0  0  0  0  0  0  0  0  0  0
   94.1301   12.0654   97.7804 C   0  0  1  0  0  0  0  0  0  0  0  0
   92.9042   12.2883   97.9789 O   0  0  0  0  0  0  0  0  0  0  0  0
   94.3635   10.5546   97.7934 C   0  0  2  0  0  0  0  0  0  0  0  0
   96.2447   10.4574  102.5773 N   0  0  0  0  0  0  0  0  0  0  0  0
   95.1593   11.1468  102.1374 C   0  0  0  0  0  0  0  0  0  0  0  0
   94.8369   11.0268  100.8552 N   0  0  0  0  0  0  0  0  0  0  0  0
   95.5512   10.3196   99.9537 C   0  0  0  0  0  0  0  0  0  0  0  0
   96.6845    9.5902  100.3725 C   0  0  0  0  0  0  0  0  0  0  0  0
   97.0108    9.7089  101.7613 C   0  0  0  0  0  0  0  0  0  0  0  0
   98.1542    9.0242  102.2691 N   0  0  0  0  0  0  0  0  0  0  0  0
   97.1371    8.9843   99.3314 N   0  0  0  0  0  0  0  0  0  0  0  0
   96.3572    9.2641   98.3016 C   0  0  0  0  0  0  0  0  0  0  0  0
   95.4184   10.0727   98.6425 N   0  0  0  0  0  0  0  0  0  0  0  0
  1 24  1  0  0  0  0
  1  4  2  0  0  0  0
  2 13  1  0  0  0  0
  2 21  1  0  0  0  0
  3 16  1  0  0  0  0
  4 18  1  0  0  0  0
  5 19  2  0  0  0  0
  5 16  1  0  0  0  0
  6 16  2  0  0  0  0
  6 17  1  0  0  0  0
  7 17  1  0  0  0  0
 11 25  2  0  0  0  0
 12 26  2  0  0  0  0
 13 25  1  0  0  0  0
 14 23  1  0  0  0  0
 15 26  1  0  0  0  0
 17 18  2  0  0  0  0
 18 19  1  0  0  0  0
 19 24  1  0  0  0  0
 20 10  1  6  0  0  0
 20 22  1  0  0  0  0
 20 23  1  0  0  0  0
 21 14  1  1  0  0  0
 21 22  1  0  0  0  0
 22 15  1  6  0  0  0
 23 24  1  1  0  0  0
 25  8  1  6  0  0  0
 25 32  1  0  0  0  0
 26  9  1  6  0  0  0
 26 28  1  0  0  0  0
 27 28  1  0  0  0  0
 29 27  1  6  0  0  0
 29 30  1  0  0  0  0
 29 31  1  0  0  0  0
 30 35  1  0  0  0  0
 31 33  1  0  0  0  0
 31 32  1  6  0  0  0
 33 34  1  6  0  0  0
 33 35  1  0  0  0  0
 35 45  1  6  0  0  0
 36 41  2  0  0  0  0
 36 37  1  0  0  0  0
 37 38  2  0  0  0  0
 38 39  1  0  0  0  0
 39 40  2  0  0  0  0
 39 45  1  0  0  0  0
 40 41  1  0  0  0  0
 40 43  1  0  0  0  0
 41 42  1  0  0  0  0
 43 44  2  0  0  0  0
 44 45  1  0  0  0  0
M  CHG  4   8  -1   9  -1  11  -1  12  -1
M  END
>  <CHROM.1>
175.86057383,179.81598317,96.76485624,13.15878966,96.95058980,-0.52300437
1.18070203,1.38735653

>  <Name>
ligand

>  <RI>
0

>  <Rbt.Current_Directory>
/home/itssahil/PROJECTS/Mol_Feturizer/New_Systems/rnas/4YAZ

>  <Rbt.Executable>
rbdock ($Id: //depot/dev/client3/rdock/2013.1/src/exe/rbdock.cxx#4 $)

>  <Rbt.Library>
libRbt.so (2013.1, Build901 2013/11/27)

>  <Rbt.Parameter_File>
/export/apps/rDock/src/rDock_2013.1_src/data/scripts/dock_solv.prm

>  <Rbt.Receptor>
prm/pocket_docking_2.prm

>  <SCORE>
-10.1676

>  <SCORE.INTER>
-13.4767

>  <SCORE.INTER.CONST>
1

>  <SCORE.INTER.POLAR>
0

>  <SCORE.INTER.ROT>
2

>  <SCORE.INTER.SOLV>
47.0113

>  <SCORE.INTER.VDW>
-29.5882

>  <SCORE.INTER.norm>
-0.299482

>  <SCORE.INTRA>
2.09501

>  <SCORE.INTRA.DIHEDRAL>
-0.00723268

>  <SCORE.INTRA.DIHEDRAL.0>
2.39103

>  <SCORE.INTRA.POLAR>
0

>  <SCORE.INTRA.POLAR.0>
0

>  <SCORE.INTRA.REPUL>
0

>  <SCORE.INTRA.REPUL.0>
0

>  <SCORE.INTRA.SOLV>
6.97608

>  <SCORE.INTRA.SOLV.lig_0>
-163.975

>  <SCORE.INTRA.VDW>
-1.38941

>  <SCORE.INTRA.VDW.0>
-1.49176

>  <SCORE.INTRA.norm>
0.0465557

>  <SCORE.RESTR>
1.21407

>  <SCORE.RESTR.CAVITY>
1.21407

>  <SCORE.RESTR.norm>
0.0269794

>  <SCORE.SYSTEM>
0

>  <SCORE.SYSTEM.CONST>
0

>  <SCORE.SYSTEM.DIHEDRAL>
0

>  <SCORE.SYSTEM.SOLV>
0

>  <SCORE.SYSTEM.norm>
0

>  <SCORE.heavy>
45

>  <SCORE.norm>
-0.225947

>  <RMSD>
1.858

$$$$
ligand
 OpenBabel11021811513D
libRbt.so/2013.1/901 2013/11/27
 45 51  0  0  0  0  0  0  0  0999 V2000
  100.3129   15.0940   96.0188 C   0  0  0  0  0  0  0  0  0  0  0  0
   96.4401   12.2796   93.5388 C   0  0  0  0  0  0  0  0  0  0  0  0
   94.6834   15.7609   95.5025 N   0  0  0  0  0  0  0  0  0  0  0  0
   99.8385   15.7686   97.0153 N   0  0  0  0  0  0  0  0  0  0  0  0
   96.9417   15.2339   95.2221 N   0  0  0  0  0  0  0  0  0  0  0  0
   96.2594   16.4478   97.0867 N   0  0  0  0  0  0  0  0  0  0  0  0
   97.8419   17.1165   98.7669 O   0  0  0  0  0  0  0  0  0  0  0  0
   93.5658   13.1590   94.2757 O   0  5  0  0  0  0  0  0  0  0  0  0
   99.5021    8.3783   94.2813 O   0  5  0  0  0  0  0  0  0  0  0  0
  100.8541   12.2576   93.4078 O   0  0  0  0  0  0  0  0  0  0  0  0
   94.3412   13.4298   96.3442 O   0  5  0  0  0  0  0  0  0  0  0  0
  100.4067    9.9438   95.5956 O   0  5  0  0  0  0  0  0  0  0  0  0
   95.9151   13.2009   94.4083 O   0  0  0  0  0  0  0  0  0  0  0  0
   98.2916   14.0003   93.2199 O   0  0  0  0  0  0  0  0  0  0  0  0
   98.8528   10.5803   93.6773 O   0  0  0  0  0  0  0  0  0  0  0  0
   96.0358   15.8263   95.9555 C   0  0  0  0  0  0  0  0  0  0  0  0
   97.4945   16.4982   97.5672 C   0  0  0  0  0  0  0  0  0  0  0  0
   98.5324   15.8972   96.8198 C   0  0  0  0  0  0  0  0  0  0  0  0
   98.2269   15.2547   95.6454 C   0  0  0  0  0  0  0  0  0  0  0  0
   99.9022   12.8156   94.2341 C   0  0  2  0  0  0  0  0  0  0  0  0
   97.8689   12.5217   93.2603 C   0  0  1  0  0  0  0  0  0  0  0  0
   98.5698   11.9112   94.0930 C   0  0  1  0  0  0  0  0  0  0  0  0
   99.5802   14.0724   93.9905 C   0  0  2  0  0  0  0  0  0  0  0  0
   99.3882   14.7872   95.1859 N   0  0  0  0  0  0  0  0  0  0  0  0
   94.6064   12.7484   95.1258 P   0  0  2  0  0  0  0  0  0  0  0  0
   99.2204    9.6320   94.8364 P   0  0  1  0  0  0  0  0  0  0  0  0
   96.6684    9.1688   95.1449 C   0  0  0  0  0  0  0  0  0  0  0  0
   97.9571    9.4132   95.7310 O   0  0  0  0  0  0  0  0  0  0  0  0
   95.5273    9.3748   96.0493 C   0  0  1  0  0  0  0  0  0  0  0  0
   95.8994    8.7285   97.4729 O   0  0  0  0  0  0  0  0  0  0  0  0
   95.3663   10.6021   96.2676 C   0  0  1  0  0  0  0  0  0  0  0  0
   94.5089   11.2255   95.2839 O   0  0  0  0  0  0  0  0  0  0  0  0
   94.8308   10.6562   97.6904 C   0  0  1  0  0  0  0  0  0  0  0  0
   93.5815   10.4801   97.6927 O   0  0  0  0  0  0  0  0  0  0  0  0
   95.4957    9.4717   98.3918 C   0  0  2  0  0  0  0  0  0  0  0  0
   96.0875   11.0402  103.2522 N   0  0  0  0  0  0  0  0  0  0  0  0
   94.9213   10.9278  102.5637 C   0  0  0  0  0  0  0  0  0  0  0  0
   94.9899   10.4925  101.3114 N   0  0  0  0  0  0  0  0  0  0  0  0
   96.1419   10.2179  100.6631 C   0  0  0  0  0  0  0  0  0  0  0  0
   97.3733   10.3227  101.3447 C   0  0  0  0  0  0  0  0  0  0  0  0
   97.2864   10.7718  102.7012 C   0  0  0  0  0  0  0  0  0  0  0  0
   98.4833   10.9295  103.4606 N   0  0  0  0  0  0  0  0  0  0  0  0
   98.2863    9.9643  100.5118 N   0  0  0  0  0  0  0  0  0  0  0  0
   97.7132    9.6228   99.3707 C   0  0  0  0  0  0  0  0  0  0  0  0
   96.4397    9.7843   99.4296 N   0  0  0  0  0  0  0  0  0  0  0  0
  1 24  1  0  0  0  0
  1  4  2  0  0  0  0
  2 13  1  0  0  0  0
  2 21  1  0  0  0  0
  3 16  1  0  0  0  0
  4 18  1  0  0  0  0
  5 19  2  0  0  0  0
  5 16  1  0  0  0  0
  6 16  2  0  0  0  0
  6 17  1  0  0  0  0
  7 17  1  0  0  0  0
 11 25  2  0  0  0  0
 12 26  2  0  0  0  0
 13 25  1  0  0  0  0
 14 23  1  0  0  0  0
 15 26  1  0  0  0  0
 17 18  2  0  0  0  0
 18 19  1  0  0  0  0
 19 24  1  0  0  0  0
 20 10  1  6  0  0  0
 20 22  1  0  0  0  0
 20 23  1  0  0  0  0
 21 14  1  1  0  0  0
 21 22  1  0  0  0  0
 22 15  1  6  0  0  0
 23 24  1  1  0  0  0
 25  8  1  6  0  0  0
 25 32  1  0  0  0  0
 26  9  1  6  0  0  0
 26 28  1  0  0  0  0
 27 28  1  0  0  0  0
 29 27  1  6  0  0  0
 29 30  1  0  0  0  0
 29 31  1  0  0  0  0
 30 35  1  0  0  0  0
 31 33  1  0  0  0  0
 31 32  1  6  0  0  0
 33 34  1  6  0  0  0
 33 35  1  0  0  0  0
 35 45  1  6  0  0  0
 36 41  2  0  0  0  0
 36 37  1  0  0  0  0
 37 38  2  0  0  0  0
 38 39  1  0  0  0  0
 39 40  2  0  0  0  0
 39 45  1  0  0  0  0
 40 41  1  0  0  0  0
 40 43  1  0  0  0  0
 41 42  1  0  0  0  0
 43 44  2  0  0  0  0
 44 45  1  0  0  0  0
M  CHG  4   8  -1   9  -1  11  -1  12  -1
M  END
>  <CHROM.1>
-175.34520330,-159.55943562,97.11077263,12.08669630,96.67716890,0.64572398
1.25947760,-0.19648592

>  <Name>
ligand

>  <RI>
0

>  <Rbt.Current_Directory>
/home/itssahil/PROJECTS/Mol_Feturizer/New_Systems/rnas/4YAZ

>  <Rbt.Executable>
rbdock ($Id: //depot/dev/client3/rdock/2013.1/src/exe/rbdock.cxx#4 $)

>  <Rbt.Library>
libRbt.so (2013.1, Build901 2013/11/27)

>  <Rbt.Parameter_File>
/export/apps/rDock/src/rDock_2013.1_src/data/scripts/dock_solv.prm

>  <Rbt.Receptor>
prm/pocket_docking_3.prm

>  <SCORE>
-23.7814

>  <SCORE.INTER>
-28.9053

>  <SCORE.INTER.CONST>
1

>  <SCORE.INTER.POLAR>
0

>  <SCORE.INTER.ROT>
2

>  <SCORE.INTER.SOLV>
30.2119

>  <SCORE.INTER.VDW>
-34.2742

>  <SCORE.INTER.norm>
-0.64234

>  <SCORE.INTRA>
5.10034

>  <SCORE.INTRA.DIHEDRAL>
0.119086

>  <SCORE.INTRA.DIHEDRAL.0>
2.39103

>  <SCORE.INTRA.POLAR>
0

>  <SCORE.INTRA.POLAR.0>
0

>  <SCORE.INTRA.REPUL>
0

>  <SCORE.INTRA.REPUL.0>
0

>  <SCORE.INTRA.SOLV>
10.9154

>  <SCORE.INTRA.SOLV.lig_0>
-163.975

>  <SCORE.INTRA.VDW>
-0.416879

>  <SCORE.INTRA.VDW.0>
-1.49176

>  <SCORE.INTRA.norm>
0.113341

>  <SCORE.RESTR>
0.0235589

>  <SCORE.RESTR.CAVITY>
0.0235589

>  <SCORE.RESTR.norm>
0.000523532

>  <SCORE.SYSTEM>
0

>  <SCORE.SYSTEM.CONST>
0

>  <SCORE.SYSTEM.DIHEDRAL>
0

>  <SCORE.SYSTEM.SOLV>
0

>  <SCORE.SYSTEM.norm>
0

>  <SCORE.heavy>
45

>  <SCORE.norm>
-0.528476

>  <RMSD>
2.710

$$$$
ligand
 OpenBabel11021811513D
libRbt.so/2013.1/901 2013/11/27
 45 51  0  0  0  0  0  0  0  0999 V2000
   99.9146   13.9396   96.8083 C   0  0  0  0  0  0  0  0  0  0  0  0
   96.4025   12.1237   93.4100 C   0  0  0  0  0  0  0  0  0  0  0  0
   96.3396   17.3178   93.9428 N   0  0  0  0  0  0  0  0  0  0  0  0
   99.4948   14.9048   97.5603 N   0  0  0  0  0  0  0  0  0  0  0  0
   97.8453   15.6693   94.6299 N   0  0  0  0  0  0  0  0  0  0  0  0
   97.1856   17.3288   96.1222 N   0  0  0  0  0  0  0  0  0  0  0  0
   97.9858   17.3357   98.3880 O   0  0  0  0  0  0  0  0  0  0  0  0
   93.7764   13.7580   93.3087 O   0  5  0  0  0  0  0  0  0  0  0  0
   98.0449    7.7220   95.1637 O   0  5  0  0  0  0  0  0  0  0  0  0
  100.5491   11.0176   94.4507 O   0  0  0  0  0  0  0  0  0  0  0  0
   94.0766   14.0903   95.4888 O   0  5  0  0  0  0  0  0  0  0  0  0
   98.9911    9.1740   96.5753 O   0  5  0  0  0  0  0  0  0  0  0  0
   95.9491   13.2463   94.0541 O   0  0  0  0  0  0  0  0  0  0  0  0
   98.6657   13.2910   93.4903 O   0  0  0  0  0  0  0  0  0  0  0  0
   98.1696    9.9221   94.2808 O   0  0  0  0  0  0  0  0  0  0  0  0
   97.1768   16.7467   94.9487 C   0  0  0  0  0  0  0  0  0  0  0  0
   97.9166   16.8096   97.0993 C   0  0  0  0  0  0  0  0  0  0  0  0
   98.6839   15.6549   96.8252 C   0  0  0  0  0  0  0  0  0  0  0  0
   98.6221   15.0907   95.5749 C   0  0  0  0  0  0  0  0  0  0  0  0
   99.6109   11.8884   94.9618 C   0  0  2  0  0  0  0  0  0  0  0  0
   97.8678   11.9758   93.5049 C   0  0  1  0  0  0  0  0  0  0  0  0
   98.1600   11.3232   94.5276 C   0  0  1  0  0  0  0  0  0  0  0  0
   99.7031   13.1450   94.5681 C   0  0  2  0  0  0  0  0  0  0  0  0
   99.4277   14.0292   95.6260 N   0  0  0  0  0  0  0  0  0  0  0  0
   94.4349   13.2177   94.4261 P   0  0  2  0  0  0  0  0  0  0  0  0
   97.9825    9.0661   95.5497 P   0  0  1  0  0  0  0  0  0  0  0  0
   95.4027    9.2769   95.2003 C   0  0  0  0  0  0  0  0  0  0  0  0
   96.5304    9.2735   96.0903 O   0  0  0  0  0  0  0  0  0  0  0  0
   94.1754    9.8648   95.7574 C   0  0  1  0  0  0  0  0  0  0  0  0
   94.0094    9.3314   97.2644 O   0  0  0  0  0  0  0  0  0  0  0  0
   94.2993   11.1119   95.8527 C   0  0  1  0  0  0  0  0  0  0  0  0
   93.9005   11.7959   94.6424 O   0  0  0  0  0  0  0  0  0  0  0  0
   93.4727   11.4720   97.0778 C   0  0  1  0  0  0  0  0  0  0  0  0
   92.2588   11.6053   96.7606 O   0  0  0  0  0  0  0  0  0  0  0  0
   93.6100   10.2594   97.9986 C   0  0  2  0  0  0  0  0  0  0  0  0
   98.1478    9.8452  100.3800 N   0  0  0  0  0  0  0  0  0  0  0  0
   97.8455    9.4444   99.1171 C   0  0  0  0  0  0  0  0  0  0  0  0
   96.6061    9.6530   98.6894 N   0  0  0  0  0  0  0  0  0  0  0  0
   95.6176   10.1757   99.4461 C   0  0  0  0  0  0  0  0  0  0  0  0
   95.8929   10.6039  100.7625 C   0  0  0  0  0  0  0  0  0  0  0  0
   97.2376   10.3945  101.2064 C   0  0  0  0  0  0  0  0  0  0  0  0
   97.6008   10.7758  102.5318 N   0  0  0  0  0  0  0  0  0  0  0  0
   94.7970   11.0932  101.2266 N   0  0  0  0  0  0  0  0  0  0  0  0
   93.8671   11.0222  100.2900 C   0  0  0  0  0  0  0  0  0  0  0  0
   94.3258   10.4618   99.2284 N   0  0  0  0  0  0  0  0  0  0  0  0
  1 24  1  0  0  0  0
  1  4  2  0  0  0  0
  2 13  1  0  0  0  0
  2 21  1  0  0  0  0
  3 16  1  0  0  0  0
  4 18  1  0  0  0  0
  5 19  2  0  0  0  0
  5 16  1  0  0  0  0
  6 16  2  0  0  0  0
  6 17  1  0  0  0  0
  7 17  1  0  0  0  0
 11 25  2  0  0  0  0
 12 26  2  0  0  0  0
 13 25  1  0  0  0  0
 14 23  1  0  0  0  0
 15 26  1  0  0  0  0
 17 18  2  0  0  0  0
 18 19  1  0  0  0  0
 19 24  1  0  0  0  0
 20 10  1  6  0  0  0
 20 22  1  0  0  0  0
 20 23  1  0  0  0  0
 21 14  1  1  0  0  0
 21 22  1  0  0  0  0
 22 15  1  6  0  0  0
 23 24  1  1  0  0  0
 25  8  1  6  0  0  0
 25 32  1  0  0  0  0
 26  9  1  6  0  0  0
 26 28  1  0  0  0  0
 27 28  1  0  0  0  0
 29 27  1  1  0  0  0
 29 30  1  0  0  0  0
 29 31  1  0  0  0  0
 30 35  1  0  0  0  0
 31 33  1  0  0  0  0
 31 32  1  6  0  0  0
 33 34  1  6  0  0  0
 33 35  1  0  0  0  0
 35 45  1  1  0  0  0
 36 41  2  0  0  0  0
 36 37  1  0  0  0  0
 37 38  2  0  0  0  0
 38 39  1  0  0  0  0
 39 40  2  0  0  0  0
 39 45  1  0  0  0  0
 40 41  1  0  0  0  0
 40 43  1  0  0  0  0
 41 42  1  0  0  0  0
 43 44  2  0  0  0  0
 44 45  1  0  0  0  0
M  CHG  4   8  -1   9  -1  11  -1  12  -1
M  END
>  <CHROM.1>
162.58574279,28.48111951,96.67151343,12.07352937,96.38756135,-0.42037008
1.26690273,1.40849221

>  <Name>
ligand

>  <RI>
0

>  <Rbt.Current_Directory>
/home/itssahil/PROJECTS/Mol_Feturizer/New_Systems/rnas/4YAZ

>  <Rbt.Executable>
rbdock ($Id: //depot/dev/client3/rdock/2013.1/src/exe/rbdock.cxx#4 $)

>  <Rbt.Library>
libRbt.so (2013.1, Build901 2013/11/27)

>  <Rbt.Parameter_File>
/export/apps/rDock/src/rDock_2013.1_src/data/scripts/dock_solv.prm

>  <Rbt.Receptor>
prm/pocket_docking_6.prm

>  <SCORE>
-20.0543

>  <SCORE.INTER>
-19.7506

>  <SCORE.INTER.CONST>
1

>  <SCORE.INTER.POLAR>
0

>  <SCORE.INTER.ROT>
2

>  <SCORE.INTER.SOLV>
33.322

>  <SCORE.INTER.VDW>
-29.2077

>  <SCORE.INTER.norm>
-0.438902

>  <SCORE.INTRA>
-0.305643

>  <SCORE.INTRA.DIHEDRAL>
-0.120846

>  <SCORE.INTRA.DIHEDRAL.0>
2.39103

>  <SCORE.INTRA.POLAR>
0

>  <SCORE.INTRA.POLAR.0>
0

>  <SCORE.INTRA.REPUL>
0

>  <SCORE.INTRA.REPUL.0>
0

>  <SCORE.INTRA.SOLV>
2.5484

>  <SCORE.INTRA.SOLV.lig_0>
-163.975

>  <SCORE.INTRA.VDW>
-1.51942

>  <SCORE.INTRA.VDW.0>
-1.49176

>  <SCORE.INTRA.norm>
-0.00679207

>  <SCORE.RESTR>
0.00192306

>  <SCORE.RESTR.CAVITY>
0.00192306

>  <SCORE.RESTR.norm>
4.27346e-05

>  <SCORE.SYSTEM>
0

>  <SCORE.SYSTEM.CONST>
0

>  <SCORE.SYSTEM.DIHEDRAL>
0

>  <SCORE.SYSTEM.SOLV>
0

>  <SCORE.SYSTEM.norm>
0

>  <SCORE.heavy>
45

>  <SCORE.norm>
-0.445652

>  <RMSD>
3.102

$$$$
ligand
 OpenBabel11021811513D
libRbt.so/2013.1/901 2013/11/27
 45 51  0  0  0  0  0  0  0  0999 V2000
   99.6652   12.9705   94.9003 C   0  0  0  0  0  0  0  0  0  0  0  0
   95.0047   12.5703   92.8285 C   0  0  0  0  0  0  0  0  0  0  0  0
   96.7886   17.7886   93.9440 N   0  0  0  0  0  0  0  0  0  0  0  0
   99.7940   13.7860   95.8962 N   0  0  0  0  0  0  0  0  0  0  0  0
   97.7924   15.6827   93.8252 N   0  0  0  0  0  0  0  0  0  0  0  0
   98.1215   17.0174   95.7030 N   0  0  0  0  0  0  0  0  0  0  0  0
   99.4337   16.2323   97.5567 O   0  0  0  0  0  0  0  0  0  0  0  0
   92.9180   14.4895   94.0695 O   0  5  0  0  0  0  0  0  0  0  0  0
   96.2118    7.7049   92.9670 O   0  5  0  0  0  0  0  0  0  0  0  0
   98.9215   10.7408   91.9272 O   0  0  0  0  0  0  0  0  0  0  0  0
   94.0410   14.2358   95.9743 O   0  5  0  0  0  0  0  0  0  0  0  0
   97.8805    8.6373   94.1255 O   0  5  0  0  0  0  0  0  0  0  0  0
   95.0561   13.5469   93.7898 O   0  0  0  0  0  0  0  0  0  0  0  0
   97.3362   13.3944   92.2158 O   0  0  0  0  0  0  0  0  0  0  0  0
   96.4668   10.0220   92.5181 O   0  0  0  0  0  0  0  0  0  0  0  0
   97.6206   16.7791   94.5163 C   0  0  0  0  0  0  0  0  0  0  0  0
   98.8667   16.0915   96.2914 C   0  0  0  0  0  0  0  0  0  0  0  0
   99.1144   14.8857   95.5972 C   0  0  0  0  0  0  0  0  0  0  0  0
   98.5515   14.6977   94.3590 C   0  0  0  0  0  0  0  0  0  0  0  0
   98.4317   11.5677   92.9152 C   0  0  2  0  0  0  0  0  0  0  0  0
   96.3415   12.2244   92.3079 C   0  0  1  0  0  0  0  0  0  0  0  0
   96.8380   11.3095   92.9962 C   0  0  1  0  0  0  0  0  0  0  0  0
   98.6361   12.8614   92.7501 C   0  0  2  0  0  0  0  0  0  0  0  0
   98.9481   13.4851   93.9709 N   0  0  0  0  0  0  0  0  0  0  0  0
   93.8050   13.6142   94.7185 P   0  0  2  0  0  0  0  0  0  0  0  0
   96.5728    8.9099   93.5810 P   0  0  1  0  0  0  0  0  0  0  0  0
   94.1433    9.5159   94.3244 C   0  0  0  0  0  0  0  0  0  0  0  0
   95.4878    9.1550   94.6795 O   0  0  0  0  0  0  0  0  0  0  0  0
   93.3480   10.0950   95.4173 C   0  0  1  0  0  0  0  0  0  0  0  0
   93.6255    9.2319   96.7443 O   0  0  0  0  0  0  0  0  0  0  0  0
   93.7544   11.2554   95.6783 C   0  0  1  0  0  0  0  0  0  0  0  0
   93.1003   12.2597   94.8689 O   0  0  0  0  0  0  0  0  0  0  0  0
   93.5155   11.4019   97.1734 C   0  0  1  0  0  0  0  0  0  0  0  0
   92.3248   11.7574   97.3917 O   0  0  0  0  0  0  0  0  0  0  0  0
   93.7180    9.9927   97.7304 C   0  0  2  0  0  0  0  0  0  0  0  0
   95.6137   10.6629  102.4624 N   0  0  0  0  0  0  0  0  0  0  0  0
   94.4121   11.0902  101.9929 C   0  0  0  0  0  0  0  0  0  0  0  0
   94.1107   10.8029  100.7323 N   0  0  0  0  0  0  0  0  0  0  0  0
   94.9429   10.1739   99.8751 C   0  0  0  0  0  0  0  0  0  0  0  0
   96.1992    9.7150  100.3257 C   0  0  0  0  0  0  0  0  0  0  0  0
   96.5053   10.0107  101.6925 C   0  0  0  0  0  0  0  0  0  0  0  0
   97.7634    9.6050  102.2279 N   0  0  0  0  0  0  0  0  0  0  0  0
   96.7541    9.1228   99.3271 N   0  0  0  0  0  0  0  0  0  0  0  0
   95.9279    9.1591   98.2961 C   0  0  0  0  0  0  0  0  0  0  0  0
   94.8520    9.7968   98.5916 N   0  0  0  0  0  0  0  0  0  0  0  0
  1 24  1  0  0  0  0
  1  4  2  0  0  0  0
  2 13  1  0  0  0  0
  2 21  1  0  0  0  0
  3 16  1  0  0  0  0
  4 18  1  0  0  0  0
  5 19  2  0  0  0  0
  5 16  1  0  0  0  0
  6 16  2  0  0  0  0
  6 17  1  0  0  0  0
  7 17  1  0  0  0  0
 11 25  2  0  0  0  0
 12 26  2  0  0  0  0
 13 25  1  0  0  0  0
 14 23  1  0  0  0  0
 15 26  1  0  0  0  0
 17 18  2  0  0  0  0
 18 19  1  0  0  0  0
 19 24  1  0  0  0  0
 20 10  1  6  0  0  0
 20 22  1  0  0  0  0
 20 23  1  0  0  0  0
 21 14  1  1  0  0  0
 21 22  1  0  0  0  0
 22 15  1  6  0  0  0
 23 24  1  1  0  0  0
 25  8  1  6  0  0  0
 25 32  1  0  0  0  0
 26  9  1  6  0  0  0
 26 28  1  0  0  0  0
 27 28  1  0  0  0  0
 29 27  1  6  0  0  0
 29 30  1  0  0  0  0
 29 31  1  0  0  0  0
 30 35  1  0  0  0  0
 31 33  1  0  0  0  0
 31 32  1  6  0  0  0
 33 34  1  6  0  0  0
 33 35  1  0  0  0  0
 35 45  1  6  0  0  0
 36 41  2  0  0  0  0
 36 37  1  0  0  0  0
 37 38  2  0  0  0  0
 38 39  1  0  0  0  0
 39 40  2  0  0  0  0
 39 45  1  0  0  0  0
 40 41  1  0  0  0  0
 40 43  1  0  0  0  0
 41 42  1  0  0  0  0
 43 44  2  0  0  0  0
 44 45  1  0  0  0  0
M  CHG  4   8  -1   9  -1  11  -1  12  -1
M  END
>  <CHROM.1>
153.34650813,-157.63633971,96.10801825,11.94046366,95.72072629,-0.69350500
1.13169946,1.34083100

>  <Name>
ligand

>  <RI>
0

>  <Rbt.Current_Directory>
/home/itssahil/PROJECTS/Mol_Feturizer/New_Systems/rnas/4YAZ

>  <Rbt.Executable>
rbdock ($Id: //depot/dev/client3/rdock/2013.1/src/exe/rbdock.cxx#4 $)

>  <Rbt.Library>
libRbt.so (2013.1, Build901 2013/11/27)

>  <Rbt.Parameter_File>
/export/apps/rDock/src/rDock_2013.1_src/data/scripts/dock_solv.prm

>  <Rbt.Receptor>
prm/pocket_docking_6.prm

>  <SCORE>
-16.751

>  <SCORE.INTER>
-17.0694

>  <SCORE.INTER.CONST>
1

>  <SCORE.INTER.POLAR>
0

>  <SCORE.INTER.ROT>
2

>  <SCORE.INTER.SOLV>
31.6453

>  <SCORE.INTER.VDW>
-26.8613

>  <SCORE.INTER.norm>
-0.37932

>  <SCORE.INTRA>
0.12981

>  <SCORE.INTRA.DIHEDRAL>
0.133195

>  <SCORE.INTRA.DIHEDRAL.0>
2.39103

>  <SCORE.INTRA.POLAR>
0

>  <SCORE.INTRA.POLAR.0>
0

>  <SCORE.INTRA.REPUL>
0

>  <SCORE.INTRA.REPUL.0>
0

>  <SCORE.INTRA.SOLV>
0.00185962

>  <SCORE.INTRA.SOLV.lig_0>
-163.975

>  <SCORE.INTRA.VDW>
0.0622822

>  <SCORE.INTRA.VDW.0>
-1.49176

>  <SCORE.INTRA.norm>
0.00288466

>  <SCORE.RESTR>
0.188575

>  <SCORE.RESTR.CAVITY>
0.188575

>  <SCORE.RESTR.norm>
0.00419056

>  <SCORE.SYSTEM>
0

>  <SCORE.SYSTEM.CONST>
0

>  <SCORE.SYSTEM.DIHEDRAL>
0

>  <SCORE.SYSTEM.SOLV>
0

>  <SCORE.SYSTEM.norm>
0

>  <SCORE.heavy>
45

>  <SCORE.norm>
-0.372244

>  <RMSD>
3.120

$$$$
ligand
 OpenBabel11021811513D
libRbt.so/2013.1/901 2013/11/27
 45 51  0  0  0  0  0  0  0  0999 V2000
   96.1884   15.9167   93.4336 C   0  0  0  0  0  0  0  0  0  0  0  0
   92.8266   13.1128   92.3301 C   0  0  0  0  0  0  0  0  0  0  0  0
   99.8816   11.8196   94.8395 N   0  0  0  0  0  0  0  0  0  0  0  0
   96.7199   16.1560   94.5884 N   0  0  0  0  0  0  0  0  0  0  0  0
   98.2831   13.1807   93.8156 N   0  0  0  0  0  0  0  0  0  0  0  0
   99.1447   13.7709   95.8953 N   0  0  0  0  0  0  0  0  0  0  0  0
   98.4571   15.8011   96.9816 O   0  0  0  0  0  0  0  0  0  0  0  0
   90.6496   14.3421   94.1542 O   0  5  0  0  0  0  0  0  0  0  0  0
   95.0573    8.6863   91.5698 O   0  5  0  0  0  0  0  0  0  0  0  0
   96.8019   12.3700   90.5564 O   0  0  0  0  0  0  0  0  0  0  0  0
   92.1411   14.1669   95.7968 O   0  5  0  0  0  0  0  0  0  0  0  0
   96.6746    9.8636   92.5670 O   0  5  0  0  0  0  0  0  0  0  0  0
   92.8478   13.9688   93.4013 O   0  0  0  0  0  0  0  0  0  0  0  0
   94.7664   14.5263   91.4758 O   0  0  0  0  0  0  0  0  0  0  0  0
   94.7174   11.0312   91.4245 O   0  0  0  0  0  0  0  0  0  0  0  0
   99.0505   12.9805   94.8550 C   0  0  0  0  0  0  0  0  0  0  0  0
   98.4220   14.8822   95.9344 C   0  0  0  0  0  0  0  0  0  0  0  0
   97.5522   15.1576   94.8552 C   0  0  0  0  0  0  0  0  0  0  0  0
   97.5085   14.2901   93.7917 C   0  0  0  0  0  0  0  0  0  0  0  0
   96.3419   12.9500   91.7191 C   0  0  2  0  0  0  0  0  0  0  0  0
   94.0830   13.1504   91.5570 C   0  0  1  0  0  0  0  0  0  0  0  0
   94.8862   12.3135   92.0173 C   0  0  1  0  0  0  0  0  0  0  0  0
   96.2277   14.2651   91.7116 C   0  0  2  0  0  0  0  0  0  0  0  0
   96.6237   14.8153   92.9433 N   0  0  0  0  0  0  0  0  0  0  0  0
   91.8109   13.6403   94.5189 P   0  0  2  0  0  0  0  0  0  0  0  0
   95.2599    9.8723   92.2850 P   0  0  1  0  0  0  0  0  0  0  0  0
   92.9430    9.8033   93.4889 C   0  0  0  0  0  0  0  0  0  0  0  0
   94.3760    9.7376   93.5673 O   0  0  0  0  0  0  0  0  0  0  0  0
   92.2636   10.0605   94.7674 C   0  0  1  0  0  0  0  0  0  0  0  0
   92.9670    9.1556   95.8940 O   0  0  0  0  0  0  0  0  0  0  0  0
   92.4524   11.2508   95.1242 C   0  0  1  0  0  0  0  0  0  0  0  0
   91.4561   12.1491   94.5839 O   0  0  0  0  0  0  0  0  0  0  0  0
   92.4755   11.1809   96.6436 C   0  0  1  0  0  0  0  0  0  0  0  0
   91.2997   11.2187   97.0994 O   0  0  0  0  0  0  0  0  0  0  0  0
   93.0786    9.8103   96.9517 C   0  0  2  0  0  0  0  0  0  0  0  0
   95.6772   10.6606  101.3058 N   0  0  0  0  0  0  0  0  0  0  0  0
   94.3523   10.8702  101.0880 C   0  0  0  0  0  0  0  0  0  0  0  0
   93.8761   10.5753   99.8844 N   0  0  0  0  0  0  0  0  0  0  0  0
   94.6315   10.1442   98.8516 C   0  0  0  0  0  0  0  0  0  0  0  0
   96.0114    9.9145   99.0390 C   0  0  0  0  0  0  0  0  0  0  0  0
   96.5105   10.2149  100.3466 C   0  0  0  0  0  0  0  0  0  0  0  0
   97.8985   10.0349  100.6206 N   0  0  0  0  0  0  0  0  0  0  0  0
   96.4659    9.4724   97.9193 N   0  0  0  0  0  0  0  0  0  0  0  0
   95.4680    9.3883   97.0566 C   0  0  0  0  0  0  0  0  0  0  0  0
   94.3704    9.8015   97.5818 N   0  0  0  0  0  0  0  0  0  0  0  0
  1 24  1  0  0  0  0
  1  4  2  0  0  0  0
  2 13  1  0  0  0  0
  2 21  1  0  0  0  0
  3 16  1  0  0  0  0
  4 18  1  0  0  0  0
  5 19  2  0  0  0  0
  5 16  1  0  0  0  0
  6 16  2  0  0  0  0
  6 17  1  0  0  0  0
  7 17  1  0  0  0  0
 11 25  2  0  0  0  0
 12 26  2  0  0  0  0
 13 25  1  0  0  0  0
 14 23  1  0  0  0  0
 15 26  1  0  0  0  0
 17 18  2  0  0  0  0
 18 19  1  0  0  0  0
 19 24  1  0  0  0  0
 20 10  1  6  0  0  0
 20 22  1  0  0  0  0
 20 23  1  0  0  0  0
 21 14  1  1  0  0  0
 21 22  1  0  0  0  0
 22 15  1  6  0  0  0
 23 24  1  1  0  0  0
 25  8  1  6  0  0  0
 25 32  1  0  0  0  0
 26  9  1  6  0  0  0
 26 28  1  0  0  0  0
 27 28  1  0  0  0  0
 29 27  1  6  0  0  0
 29 30  1  0  0  0  0
 29 31  1  0  0  0  0
 30 35  1  0  0  0  0
 31 33  1  0  0  0  0
 31 32  1  1  0  0  0
 33 34  1  6  0  0  0
 33 35  1  0  0  0  0
 35 45  1  6  0  0  0
 36 41  2  0  0  0  0
 36 37  1  0  0  0  0
 37 38  2  0  0  0  0
 38 39  1  0  0  0  0
 39 40  2  0  0  0  0
 39 45  1  0  0  0  0
 40 41  1  0  0  0  0
 40 43  1  0  0  0  0
 41 42  1  0  0  0  0
 43 44  2  0  0  0  0
 44 45  1  0  0  0  0
M  CHG  4   8  -1   9  -1  11  -1  12  -1
M  END
>  <CHROM.1>
-36.53055279,-162.57524816,94.98868507,12.03304740,94.94957837,-1.51191734
0.40473343,1.94994013

>  <Name>
ligand

>  <RI>
0

>  <Rbt.Current_Directory>
/home/itssahil/PROJECTS/Mol_Feturizer/New_Systems/rnas/4YAZ

>  <Rbt.Executable>
rbdock ($Id: //depot/dev/client3/rdock/2013.1/src/exe/rbdock.cxx#4 $)

>  <Rbt.Library>
libRbt.so (2013.1, Build901 2013/11/27)

>  <Rbt.Parameter_File>
/export/apps/rDock/src/rDock_2013.1_src/data/scripts/dock_solv.prm

>  <Rbt.Receptor>
prm/pocket_docking_5.prm

>  <SCORE>
-23.0506

>  <SCORE.INTER>
-23.6066

>  <SCORE.INTER.CONST>
1

>  <SCORE.INTER.POLAR>
0

>  <SCORE.INTER.ROT>
2

>  <SCORE.INTER.SOLV>
24.0677

>  <SCORE.INTER.VDW>
-28.6936

>  <SCORE.INTER.norm>
-0.524591

>  <SCORE.INTRA>
0.555988

>  <SCORE.INTRA.DIHEDRAL>
0.10143

>  <SCORE.INTRA.DIHEDRAL.0>
2.39103

>  <SCORE.INTRA.POLAR>
0

>  <SCORE.INTRA.POLAR.0>
0

>  <SCORE.INTRA.REPUL>
0

>  <SCORE.INTRA.REPUL.0>
0

>  <SCORE.INTRA.SOLV>
0.324739

>  <SCORE.INTRA.SOLV.lig_0>
-163.975

>  <SCORE.INTRA.VDW>
0.342903

>  <SCORE.INTRA.VDW.0>
-1.49176

>  <SCORE.INTRA.norm>
0.0123553

>  <SCORE.RESTR>
0

>  <SCORE.RESTR.CAVITY>
0

>  <SCORE.RESTR.norm>
0

>  <SCORE.SYSTEM>
0

>  <SCORE.SYSTEM.CONST>
0

>  <SCORE.SYSTEM.DIHEDRAL>
0

>  <SCORE.SYSTEM.SOLV>
0

>  <SCORE.SYSTEM.norm>
0

>  <SCORE.heavy>
45

>  <SCORE.norm>
-0.512236

>  <RMSD>
3.504

$$$$
ligand
 OpenBabel11021811513D
libRbt.so/2013.1/901 2013/11/27
 45 51  0  0  0  0  0  0  0  0999 V2000
   96.6293   15.5699   93.1094 C   0  0  0  0  0  0  0  0  0  0  0  0
   93.1118   12.8476   92.1367 C   0  0  0  0  0  0  0  0  0  0  0  0
   99.8887   11.2737   94.9320 N   0  0  0  0  0  0  0  0  0  0  0  0
   97.1440   15.8437   94.2642 N   0  0  0  0  0  0  0  0  0  0  0  0
   98.4534   12.6938   93.7574 N   0  0  0  0  0  0  0  0  0  0  0  0
   99.2997   13.3535   95.8225 N   0  0  0  0  0  0  0  0  0  0  0  0
   98.7661   15.5095   96.7398 O   0  0  0  0  0  0  0  0  0  0  0  0
   90.9724   14.2796   93.8542 O   0  5  0  0  0  0  0  0  0  0  0  0
   95.1380    8.2851   91.6616 O   0  5  0  0  0  0  0  0  0  0  0  0
   97.0699   11.8191   90.4703 O   0  0  0  0  0  0  0  0  0  0  0  0
   92.4323   14.1282   95.5274 O   0  5  0  0  0  0  0  0  0  0  0  0
   96.7966    9.4399   92.6163 O   0  5  0  0  0  0  0  0  0  0  0  0
   93.1599   13.7612   93.1582 O   0  0  0  0  0  0  0  0  0  0  0  0
   95.1280   14.1175   91.2349 O   0  0  0  0  0  0  0  0  0  0  0  0
   94.9126   10.6313   91.3794 O   0  0  0  0  0  0  0  0  0  0  0  0
   99.1666   12.5017   94.8362 C   0  0  0  0  0  0  0  0  0  0  0  0
   98.6802   14.5243   95.7577 C   0  0  0  0  0  0  0  0  0  0  0  0
   97.8732   14.7974   94.6302 C   0  0  0  0  0  0  0  0  0  0  0  0
   97.7840   13.8628   93.6281 C   0  0  0  0  0  0  0  0  0  0  0  0
   96.6230   12.4853   91.5912 C   0  0  2  0  0  0  0  0  0  0  0  0
   94.3786   12.7821   91.3825 C   0  0  1  0  0  0  0  0  0  0  0  0
   95.1347   11.9359   91.9017 C   0  0  1  0  0  0  0  0  0  0  0  0
   96.5720   13.8017   91.5079 C   0  0  2  0  0  0  0  0  0  0  0  0
   96.9777   14.4019   92.7129 N   0  0  0  0  0  0  0  0  0  0  0  0
   92.0940   13.5460   94.2761 P   0  0  2  0  0  0  0  0  0  0  0  0
   95.3878    9.4991   92.3121 P   0  0  1  0  0  0  0  0  0  0  0  0
   93.0548    9.6076   93.4813 C   0  0  0  0  0  0  0  0  0  0  0  0
   94.4818    9.4791   93.5859 O   0  0  0  0  0  0  0  0  0  0  0  0
   92.3718    9.9688   94.7325 C   0  0  1  0  0  0  0  0  0  0  0  0
   93.0163    9.0974   95.9191 O   0  0  0  0  0  0  0  0  0  0  0  0
   92.6126   11.1672   95.0247 C   0  0  1  0  0  0  0  0  0  0  0  0
   91.6675   12.0792   94.4192 O   0  0  0  0  0  0  0  0  0  0  0  0
   92.6125   11.1829   96.5458 C   0  0  1  0  0  0  0  0  0  0  0  0
   91.4340   11.3017   96.9803 O   0  0  0  0  0  0  0  0  0  0  0  0
   93.1453    9.8052   96.9399 C   0  0  2  0  0  0  0  0  0  0  0  0
   95.7001   10.6494  101.3211 N   0  0  0  0  0  0  0  0  0  0  0  0
   94.3846   10.8905  101.0801 C   0  0  0  0  0  0  0  0  0  0  0  0
   93.9189   10.5909   99.8736 N   0  0  0  0  0  0  0  0  0  0  0  0
   94.6780   10.1255   98.8586 C   0  0  0  0  0  0  0  0  0  0  0  0
   96.0483    9.8624   99.0703 C   0  0  0  0  0  0  0  0  0  0  0  0
   96.5356   10.1683  100.3810 C   0  0  0  0  0  0  0  0  0  0  0  0
   97.9141    9.9559  100.6787 N   0  0  0  0  0  0  0  0  0  0  0  0
   96.5076    9.3925   97.9639 N   0  0  0  0  0  0  0  0  0  0  0  0
   95.5209    9.3223   97.0873 C   0  0  0  0  0  0  0  0  0  0  0  0
   94.4268    9.7716   97.5899 N   0  0  0  0  0  0  0  0  0  0  0  0
  1 24  1  0  0  0  0
  1  4  2  0  0  0  0
  2 13  1  0  0  0  0
  2 21  1  0  0  0  0
  3 16  1  0  0  0  0
  4 18  1  0  0  0  0
  5 19  2  0  0  0  0
  5 16  1  0  0  0  0
  6 16  2  0  0  0  0
  6 17  1  0  0  0  0
  7 17  1  0  0  0  0
 11 25  2  0  0  0  0
 12 26  2  0  0  0  0
 13 25  1  0  0  0  0
 14 23  1  0  0  0  0
 15 26  1  0  0  0  0
 17 18  2  0  0  0  0
 18 19  1  0  0  0  0
 19 24  1  0  0  0  0
 20 10  1  6  0  0  0
 20 22  1  0  0  0  0
 20 23  1  0  0  0  0
 21 14  1  1  0  0  0
 21 22  1  0  0  0  0
 22 15  1  6  0  0  0
 23 24  1  1  0  0  0
 25  8  1  6  0  0  0
 25 32  1  0  0  0  0
 26  9  1  6  0  0  0
 26 28  1  0  0  0  0
 27 28  1  0  0  0  0
 29 27  1  6  0  0  0
 29 30  1  0  0  0  0
 29 31  1  0  0  0  0
 30 35  1  0  0  0  0
 31 33  1  0  0  0  0
 31 32  1  6  0  0  0
 33 34  1  1  0  0  0
 33 35  1  0  0  0  0
 35 45  1  6  0  0  0
 36 41  2  0  0  0  0
 36 37  1  0  0  0  0
 37 38  2  0  0  0  0
 38 39  1  0  0  0  0
 39 40  2  0  0  0  0
 39 45  1  0  0  0  0
 40 41  1  0  0  0  0
 40 43  1  0  0  0  0
 41 42  1  0  0  0  0
 43 44  2  0  0  0  0
 44 45  1  0  0  0  0
M  CHG  4   8  -1   9  -1  11  -1  12  -1
M  END
>  <CHROM.1>
-39.34162214,-159.85754422,95.17173383,11.80178992,94.85652260,-1.49263250
0.36655441,1.89117208

>  <Name>
ligand

>  <RI>
0

>  <Rbt.Current_Directory>
/home/itssahil/PROJECTS/Mol_Feturizer/New_Systems/rnas/4YAZ

>  <Rbt.Executable>
rbdock ($Id: //depot/dev/client3/rdock/2013.1/src/exe/rbdock.cxx#4 $)

>  <Rbt.Library>
libRbt.so (2013.1, Build901 2013/11/27)

>  <Rbt.Parameter_File>
/export/apps/rDock/src/rDock_2013.1_src/data/scripts/dock_solv.prm

>  <Rbt.Receptor>
prm/pocket_docking_5.prm

>  <SCORE>
-23.072

>  <SCORE.INTER>
-23.8657

>  <SCORE.INTER.CONST>
1

>  <SCORE.INTER.POLAR>
0

>  <SCORE.INTER.ROT>
2

>  <SCORE.INTER.SOLV>
23.0613

>  <SCORE.INTER.VDW>
-28.5309

>  <SCORE.INTER.norm>
-0.530348

>  <SCORE.INTRA>
0.793688

>  <SCORE.INTRA.DIHEDRAL>
0.11435

>  <SCORE.INTRA.DIHEDRAL.0>
2.39103

>  <SCORE.INTRA.POLAR>
0

>  <SCORE.INTRA.POLAR.0>
0

>  <SCORE.INTRA.REPUL>
0

>  <SCORE.INTRA.REPUL.0>
0

>  <SCORE.INTRA.SOLV>
0.565241

>  <SCORE.INTRA.SOLV.lig_0>
-163.975

>  <SCORE.INTRA.VDW>
0.453893

>  <SCORE.INTRA.VDW.0>
-1.49176

>  <SCORE.INTRA.norm>
0.0176375

>  <SCORE.RESTR>
0

>  <SCORE.RESTR.CAVITY>
0

>  <SCORE.RESTR.norm>
0

>  <SCORE.SYSTEM>
0

>  <SCORE.SYSTEM.CONST>
0

>  <SCORE.SYSTEM.DIHEDRAL>
0

>  <SCORE.SYSTEM.SOLV>
0

>  <SCORE.SYSTEM.norm>
0

>  <SCORE.heavy>
45

>  <SCORE.norm>
-0.512711

>  <RMSD>
3.609

$$$$
ligand
 OpenBabel11021811513D
libRbt.so/2013.1/901 2013/11/27
 45 51  0  0  0  0  0  0  0  0999 V2000
   96.5874   15.4530   93.0222 C   0  0  0  0  0  0  0  0  0  0  0  0
   93.1322   12.6639   92.1128 C   0  0  0  0  0  0  0  0  0  0  0  0
  100.0086   11.3233   94.9314 N   0  0  0  0  0  0  0  0  0  0  0  0
   97.0996   15.7748   94.1656 N   0  0  0  0  0  0  0  0  0  0  0  0
   98.5164   12.6609   93.7310 N   0  0  0  0  0  0  0  0  0  0  0  0
   99.3521   13.4037   95.7720 N   0  0  0  0  0  0  0  0  0  0  0  0
   98.7485   15.5628   96.6370 O   0  0  0  0  0  0  0  0  0  0  0  0
   90.9659   14.1238   93.7722 O   0  5  0  0  0  0  0  0  0  0  0  0
   95.2206    8.1155   91.7992 O   0  5  0  0  0  0  0  0  0  0  0  0
   97.1113   11.6332   90.4989 O   0  0  0  0  0  0  0  0  0  0  0  0
   92.4196   14.0478   95.4558 O   0  5  0  0  0  0  0  0  0  0  0  0
   96.8592    9.3235   92.7220 O   0  5  0  0  0  0  0  0  0  0  0  0
   93.1633   13.6117   93.1034 O   0  0  0  0  0  0  0  0  0  0  0  0
   95.1357   13.9298   91.1778 O   0  0  0  0  0  0  0  0  0  0  0  0
   94.9656   10.4478   91.4378 O   0  0  0  0  0  0  0  0  0  0  0  0
   99.2428   12.5222   94.8092 C   0  0  0  0  0  0  0  0  0  0  0  0
   98.6912   14.5499   95.6815 C   0  0  0  0  0  0  0  0  0  0  0  0
   97.8678   14.7648   94.5532 C   0  0  0  0  0  0  0  0  0  0  0  0
   97.8052   13.8018   93.5764 C   0  0  0  0  0  0  0  0  0  0  0  0
   96.6504   12.3304   91.5950 C   0  0  2  0  0  0  0  0  0  0  0  0
   94.4033   12.5902   91.3668 C   0  0  1  0  0  0  0  0  0  0  0  0
   95.1680   11.7719   91.9172 C   0  0  1  0  0  0  0  0  0  0  0  0
   96.5824   13.6426   91.4675 C   0  0  2  0  0  0  0  0  0  0  0  0
   96.9744   14.2880   92.6535 N   0  0  0  0  0  0  0  0  0  0  0  0
   92.0950   13.4197   94.2232 P   0  0  2  0  0  0  0  0  0  0  0  0
   95.4513    9.3538   92.4099 P   0  0  1  0  0  0  0  0  0  0  0  0
   93.1114    9.4701   93.5647 C   0  0  0  0  0  0  0  0  0  0  0  0
   94.5395    9.3643   93.6797 O   0  0  0  0  0  0  0  0  0  0  0  0
   92.4177    9.8637   94.8001 C   0  0  1  0  0  0  0  0  0  0  0  0
   93.0680    9.0411   96.0180 O   0  0  0  0  0  0  0  0  0  0  0  0
   92.6413   11.0744   95.0532 C   0  0  1  0  0  0  0  0  0  0  0  0
   91.6872   11.9529   94.4134 O   0  0  0  0  0  0  0  0  0  0  0  0
   92.6337   11.1407   96.5729 C   0  0  1  0  0  0  0  0  0  0  0  0
   91.4517   11.2583   96.9980 O   0  0  0  0  0  0  0  0  0  0  0  0
   93.1827    9.7843   97.0152 C   0  0  2  0  0  0  0  0  0  0  0  0
   95.6863   10.6846  101.4147 N   0  0  0  0  0  0  0  0  0  0  0  0
   94.3645   10.8829  101.1686 C   0  0  0  0  0  0  0  0  0  0  0  0
   93.9151   10.5759   99.9578 N   0  0  0  0  0  0  0  0  0  0  0  0
   94.6944   10.1430   98.9437 C   0  0  0  0  0  0  0  0  0  0  0  0
   96.0718    9.9248   99.1606 C   0  0  0  0  0  0  0  0  0  0  0  0
   96.5421   10.2382  100.4759 C   0  0  0  0  0  0  0  0  0  0  0  0
   97.9255   10.0703  100.7792 N   0  0  0  0  0  0  0  0  0  0  0  0
   96.5520    9.4780   98.0536 N   0  0  0  0  0  0  0  0  0  0  0  0
   95.5725    9.3805   97.1715 C   0  0  0  0  0  0  0  0  0  0  0  0
   94.4615    9.7894   97.6714 N   0  0  0  0  0  0  0  0  0  0  0  0
  1 24  1  0  0  0  0
  1  4  2  0  0  0  0
  2 13  1  0  0  0  0
  2 21  1  0  0  0  0
  3 16  1  0  0  0  0
  4 18  1  0  0  0  0
  5 19  2  0  0  0  0
  5 16  1  0  0  0  0
  6 16  2  0  0  0  0
  6 17  1  0  0  0  0
  7 17  1  0  0  0  0
 11 25  2  0  0  0  0
 12 26  2  0  0  0  0
 13 25  1  0  0  0  0
 14 23  1  0  0  0  0
 15 26  1  0  0  0  0
 17 18  2  0  0  0  0
 18 19  1  0  0  0  0
 19 24  1  0  0  0  0
 20 10  1  6  0  0  0
 20 22  1  0  0  0  0
 20 23  1  0  0  0  0
 21 14  1  1  0  0  0
 21 22  1  0  0  0  0
 22 15  1  6  0  0  0
 23 24  1  1  0  0  0
 25  8  1  6  0  0  0
 25 32  1  0  0  0  0
 26  9  1  6  0  0  0
 26 28  1  0  0  0  0
 27 28  1  0  0  0  0
 29 27  1  6  0  0  0
 29 30  1  0  0  0  0
 29 31  1  0  0  0  0
 30 35  1  0  0  0  0
 31 33  1  0  0  0  0
 31 32  1  6  0  0  0
 33 34  1  1  0  0  0
 33 35  1  0  0  0  0
 35 45  1  6  0  0  0
 36 41  2  0  0  0  0
 36 37  1  0  0  0  0
 37 38  2  0  0  0  0
 38 39  1  0  0  0  0
 39 40  2  0  0  0  0
 39 45  1  0  0  0  0
 40 41  1  0  0  0  0
 40 43  1  0  0  0  0
 41 42  1  0  0  0  0
 43 44  2  0  0  0  0
 44 45  1  0  0  0  0
M  CHG  4   8  -1   9  -1  11  -1  12  -1
M  END
>  <CHROM.1>
-37.85617981,-157.28399752,95.19762380,11.73059345,94.87387050,-1.47968486
0.37439925,1.86561336

>  <Name>
ligand

>  <RI>
0

>  <Rbt.Current_Directory>
/home/itssahil/PROJECTS/Mol_Feturizer/New_Systems/rnas/4YAZ

>  <Rbt.Executable>
rbdock ($Id: //depot/dev/client3/rdock/2013.1/src/exe/rbdock.cxx#4 $)

>  <Rbt.Library>
libRbt.so (2013.1, Build901 2013/11/27)

>  <Rbt.Parameter_File>
/export/apps/rDock/src/rDock_2013.1_src/data/scripts/dock_solv.prm

>  <Rbt.Receptor>
prm/pocket_docking_6.prm

>  <SCORE>
-23.1179

>  <SCORE.INTER>
-23.7829

>  <SCORE.INTER.CONST>
1

>  <SCORE.INTER.POLAR>
0

>  <SCORE.INTER.ROT>
2

>  <SCORE.INTER.SOLV>
23.4165

>  <SCORE.INTER.VDW>
-28.5941

>  <SCORE.INTER.norm>
-0.528509

>  <SCORE.INTRA>
0.664995

>  <SCORE.INTRA.DIHEDRAL>
0.124047

>  <SCORE.INTRA.DIHEDRAL.0>
2.39103

>  <SCORE.INTRA.POLAR>
0

>  <SCORE.INTRA.POLAR.0>
0

>  <SCORE.INTRA.REPUL>
0

>  <SCORE.INTRA.REPUL.0>
0

>  <SCORE.INTRA.SOLV>
0.434544

>  <SCORE.INTRA.SOLV.lig_0>
-163.975

>  <SCORE.INTRA.VDW>
0.385699

>  <SCORE.INTRA.VDW.0>
-1.49176

>  <SCORE.INTRA.norm>
0.0147777

>  <SCORE.RESTR>
0

>  <SCORE.RESTR.CAVITY>
0

>  <SCORE.RESTR.norm>
0

>  <SCORE.SYSTEM>
0

>  <SCORE.SYSTEM.CONST>
0

>  <SCORE.SYSTEM.DIHEDRAL>
0

>  <SCORE.SYSTEM.SOLV>
0

>  <SCORE.SYSTEM.norm>
0

>  <SCORE.heavy>
45

>  <SCORE.norm>
-0.513731

>  <RMSD>
3.633

$$$$
ligand
 OpenBabel11021811513D
libRbt.so/2013.1/901 2013/11/27
 45 51  0  0  0  0  0  0  0  0999 V2000
  100.0746   14.1116   94.2981 C   0  0  0  0  0  0  0  0  0  0  0  0
   96.2345   11.3998   91.7986 C   0  0  0  0  0  0  0  0  0  0  0  0
   94.8204   15.7657   92.8625 N   0  0  0  0  0  0  0  0  0  0  0  0
   99.6077   14.9538   95.1618 N   0  0  0  0  0  0  0  0  0  0  0  0
   96.9455   14.8025   92.9749 N   0  0  0  0  0  0  0  0  0  0  0  0
   96.2615   16.2926   94.6263 N   0  0  0  0  0  0  0  0  0  0  0  0
   97.6916   16.8096   96.4869 O   0  0  0  0  0  0  0  0  0  0  0  0
   93.3827   12.5068   92.2665 O   0  5  0  0  0  0  0  0  0  0  0  0
   99.0120    7.4401   93.1230 O   0  5  0  0  0  0  0  0  0  0  0  0
  100.6398   11.1255   91.9363 O   0  0  0  0  0  0  0  0  0  0  0  0
   94.0599   12.9543   94.3389 O   0  5  0  0  0  0  0  0  0  0  0  0
   99.9365    9.0856   94.3205 O   0  5  0  0  0  0  0  0  0  0  0  0
   95.7196   12.4356   92.5351 O   0  0  0  0  0  0  0  0  0  0  0  0
   98.2007   12.9741   91.4156 O   0  0  0  0  0  0  0  0  0  0  0  0
   98.5298    9.5971   92.2568 O   0  0  0  0  0  0  0  0  0  0  0  0
   96.0810   15.6199   93.5169 C   0  0  0  0  0  0  0  0  0  0  0  0
   97.4014   16.1566   95.2904 C   0  0  0  0  0  0  0  0  0  0  0  0
   98.3942   15.3049   94.7558 C   0  0  0  0  0  0  0  0  0  0  0  0
   98.1362   14.6228   93.5923 C   0  0  0  0  0  0  0  0  0  0  0  0
   99.6800   11.8189   92.6417 C   0  0  2  0  0  0  0  0  0  0  0  0
   97.6883   11.5332   91.5830 C   0  0  1  0  0  0  0  0  0  0  0  0
   98.3052   10.9780   92.5150 C   0  0  1  0  0  0  0  0  0  0  0  0
   99.4476   13.0582   92.2507 C   0  0  2  0  0  0  0  0  0  0  0  0
   99.2346   13.9057   93.3521 N   0  0  0  0  0  0  0  0  0  0  0  0
   94.3492   12.1335   93.2156 P   0  0  2  0  0  0  0  0  0  0  0  0
   98.7765    8.7593   93.5277 P   0  0  1  0  0  0  0  0  0  0  0  0
   96.1884    8.4702   93.7284 C   0  0  0  0  0  0  0  0  0  0  0  0
   97.4558    8.7056   94.3625 O   0  0  0  0  0  0  0  0  0  0  0  0
   95.0144    8.8328   94.5363 C   0  0  1  0  0  0  0  0  0  0  0  0
   95.2694    8.3227   96.0389 O   0  0  0  0  0  0  0  0  0  0  0  0
   94.9158   10.0832   94.6166 C   0  0  1  0  0  0  0  0  0  0  0  0
   94.1519   10.6437   93.5240 O   0  0  0  0  0  0  0  0  0  0  0  0
   94.3083   10.3175   95.9914 C   0  0  1  0  0  0  0  0  0  0  0  0
   93.0524   10.2105   95.9368 O   0  0  0  0  0  0  0  0  0  0  0  0
   94.8619    9.1804   96.8502 C   0  0  2  0  0  0  0  0  0  0  0  0
   95.2646   10.9143  101.6737 N   0  0  0  0  0  0  0  0  0  0  0  0
   94.1232   10.7491  100.9549 C   0  0  0  0  0  0  0  0  0  0  0  0
   94.2411   10.2773   99.7196 N   0  0  0  0  0  0  0  0  0  0  0  0
   95.4191   10.0138   99.1147 C   0  0  0  0  0  0  0  0  0  0  0  0
   96.6261   10.1728   99.8288 C   0  0  0  0  0  0  0  0  0  0  0  0
   96.4863   10.6613  101.1671 C   0  0  0  0  0  0  0  0  0  0  0  0
   97.6550   10.8746  101.9562 N   0  0  0  0  0  0  0  0  0  0  0  0
   97.5730    9.8135   99.0351 N   0  0  0  0  0  0  0  0  0  0  0  0
   97.0440    9.4215   97.8890 C   0  0  0  0  0  0  0  0  0  0  0  0
   95.7655    9.5504   97.9050 N   0  0  0  0  0  0  0  0  0  0  0  0
  1 24  1  0  0  0  0
  1  4  2  0  0  0  0
  2 13  1  0  0  0  0
  2 21  1  0  0  0  0
  3 16  1  0  0  0  0
  4 18  1  0  0  0  0
  5 19  2  0  0  0  0
  5 16  1  0  0  0  0
  6 16  2  0  0  0  0
  6 17  1  0  0  0  0
  7 17  1  0  0  0  0
 11 25  2  0  0  0  0
 12 26  2  0  0  0  0
 13 25  1  0  0  0  0
 14 23  1  0  0  0  0
 15 26  1  0  0  0  0
 17 18  2  0  0  0  0
 18 19  1  0  0  0  0
 19 24  1  0  0  0  0
 20 10  1  6  0  0  0
 20 22  1  0  0  0  0
 20 23  1  0  0  0  0
 21 14  1  1  0  0  0
 21 22  1  0  0  0  0
 22 15  1  6  0  0  0
 23 24  1  1  0  0  0
 25  8  1  6  0  0  0
 25 32  1  0  0  0  0
 26  9  1  6  0  0  0
 26 28  1  0  0  0  0
 27 28  1  0  0  0  0
 29 27  1  6  0  0  0
 29 30  1  0  0  0  0
 29 31  1  0  0  0  0
 30 35  1  0  0  0  0
 31 33  1  0  0  0  0
 31 32  1  6  0  0  0
 33 34  1  6  0  0  0
 33 35  1  0  0  0  0
 35 45  1  6  0  0  0
 36 41  2  0  0  0  0
 36 37  1  0  0  0  0
 37 38  2  0  0  0  0
 38 39  1  0  0  0  0
 39 40  2  0  0  0  0
 39 45  1  0  0  0  0
 40 41  1  0  0  0  0
 40 43  1  0  0  0  0
 41 42  1  0  0  0  0
 43 44  2  0  0  0  0
 44 45  1  0  0  0  0
M  CHG  4   8  -1   9  -1  11  -1  12  -1
M  END
>  <CHROM.1>
175.02378431,-152.97531564,96.73706656,11.52332301,94.95572915,0.55168842
1.21644683,-0.13866335

>  <Name>
ligand

>  <RI>
0

>  <Rbt.Current_Directory>
/home/itssahil/PROJECTS/Mol_Feturizer/New_Systems/rnas/4YAZ

>  <Rbt.Executable>
rbdock ($Id: //depot/dev/client3/rdock/2013.1/src/exe/rbdock.cxx#4 $)

>  <Rbt.Library>
libRbt.so (2013.1, Build901 2013/11/27)

>  <Rbt.Parameter_File>
/export/apps/rDock/src/rDock_2013.1_src/data/scripts/dock_solv.prm

>  <Rbt.Receptor>
prm/pocket_docking_4.prm

>  <SCORE>
-24.5802

>  <SCORE.INTER>
-26.4366

>  <SCORE.INTER.CONST>
1

>  <SCORE.INTER.POLAR>
0

>  <SCORE.INTER.ROT>
2

>  <SCORE.INTER.SOLV>
22.5081

>  <SCORE.INTER.VDW>
-30.0604

>  <SCORE.INTER.norm>
-0.58748

>  <SCORE.INTRA>
1.85645

>  <SCORE.INTRA.DIHEDRAL>
0.142034

>  <SCORE.INTRA.DIHEDRAL.0>
2.39103

>  <SCORE.INTRA.POLAR>
0

>  <SCORE.INTRA.POLAR.0>
0

>  <SCORE.INTRA.REPUL>
0

>  <SCORE.INTRA.REPUL.0>
0

>  <SCORE.INTRA.SOLV>
6.54533

>  <SCORE.INTRA.SOLV.lig_0>
-163.975

>  <SCORE.INTRA.VDW>
-1.48723

>  <SCORE.INTRA.VDW.0>
-1.49176

>  <SCORE.INTRA.norm>
0.0412544

>  <SCORE.RESTR>
0

>  <SCORE.RESTR.CAVITY>
0

>  <SCORE.RESTR.norm>
0

>  <SCORE.SYSTEM>
0

>  <SCORE.SYSTEM.CONST>
0

>  <SCORE.SYSTEM.DIHEDRAL>
0

>  <SCORE.SYSTEM.SOLV>
0

>  <SCORE.SYSTEM.norm>
0

>  <SCORE.heavy>
45

>  <SCORE.norm>
-0.546226

>  <RMSD>
3.838

$$$$
ligand
 OpenBabel11021811513D
libRbt.so/2013.1/901 2013/11/27
 45 51  0  0  0  0  0  0  0  0999 V2000
  100.1036   14.0794   94.3288 C   0  0  0  0  0  0  0  0  0  0  0  0
   96.2804   11.3570   91.8185 C   0  0  0  0  0  0  0  0  0  0  0  0
   94.8595   15.7345   92.8580 N   0  0  0  0  0  0  0  0  0  0  0  0
   99.6321   14.9236   95.1880 N   0  0  0  0  0  0  0  0  0  0  0  0
   96.9832   14.7700   92.9852 N   0  0  0  0  0  0  0  0  0  0  0  0
   96.2902   16.2638   94.6296 N   0  0  0  0  0  0  0  0  0  0  0  0
   97.7093   16.7833   96.4979 O   0  0  0  0  0  0  0  0  0  0  0  0
   93.4245   12.4597   92.2721 O   0  5  0  0  0  0  0  0  0  0  0  0
   99.0599    7.4058   93.1638 O   0  5  0  0  0  0  0  0  0  0  0  0
  100.6856   11.0914   91.9748 O   0  0  0  0  0  0  0  0  0  0  0  0
   94.0924   12.9135   94.3461 O   0  5  0  0  0  0  0  0  0  0  0  0
   99.9764    9.0559   94.3610 O   0  5  0  0  0  0  0  0  0  0  0  0
   95.7604   12.3936   92.5504 O   0  0  0  0  0  0  0  0  0  0  0  0
   98.2450   12.9341   91.4397 O   0  0  0  0  0  0  0  0  0  0  0  0
   98.5771    9.5597   92.2904 O   0  0  0  0  0  0  0  0  0  0  0  0
   96.1160   15.5891   93.5204 C   0  0  0  0  0  0  0  0  0  0  0  0
   97.4259   16.1283   95.3009 C   0  0  0  0  0  0  0  0  0  0  0  0
   98.4214   15.2748   94.7740 C   0  0  0  0  0  0  0  0  0  0  0  0
   98.1700   14.5907   93.6102 C   0  0  0  0  0  0  0  0  0  0  0  0
   99.7215   11.7847   92.6746 C   0  0  2  0  0  0  0  0  0  0  0  0
   97.7348   11.4927   91.6085 C   0  0  1  0  0  0  0  0  0  0  0  0
   98.3488   10.9409   92.5443 C   0  0  1  0  0  0  0  0  0  0  0  0
   99.4884   13.0226   92.2796 C   0  0  2  0  0  0  0  0  0  0  0  0
   99.2693   13.8723   93.3781 N   0  0  0  0  0  0  0  0  0  0  0  0
   94.3878   12.0906   93.2259 P   0  0  2  0  0  0  0  0  0  0  0  0
   98.8202    8.7255   93.5643 P   0  0  1  0  0  0  0  0  0  0  0  0
   96.2318    8.4320   93.7551 C   0  0  0  0  0  0  0  0  0  0  0  0
   97.4962    8.6713   94.3938 O   0  0  0  0  0  0  0  0  0  0  0  0
   95.0539    8.7943   94.5574 C   0  0  1  0  0  0  0  0  0  0  0  0
   95.3037    8.2883   96.0622 O   0  0  0  0  0  0  0  0  0  0  0  0
   94.9526   10.0447   94.6342 C   0  0  1  0  0  0  0  0  0  0  0  0
   94.1921   10.6010   93.5371 O   0  0  0  0  0  0  0  0  0  0  0  0
   94.3391   10.2812   96.0060 C   0  0  1  0  0  0  0  0  0  0  0  0
   93.0836   10.1716   95.9465 O   0  0  0  0  0  0  0  0  0  0  0  0
   94.8913    9.1472   96.8698 C   0  0  2  0  0  0  0  0  0  0  0  0
   95.2713   10.9146  101.6829 N   0  0  0  0  0  0  0  0  0  0  0  0
   94.1336   10.7485  100.9584 C   0  0  0  0  0  0  0  0  0  0  0  0
   94.2573   10.2672   99.7273 N   0  0  0  0  0  0  0  0  0  0  0  0
   95.4379    9.9949   99.1315 C   0  0  0  0  0  0  0  0  0  0  0  0
   96.6411   10.1546   99.8518 C   0  0  0  0  0  0  0  0  0  0  0  0
   96.4951   10.6534  101.1857 C   0  0  0  0  0  0  0  0  0  0  0  0
   97.6597   10.8680  101.9803 N   0  0  0  0  0  0  0  0  0  0  0  0
   97.5914    9.7860   99.0665 N   0  0  0  0  0  0  0  0  0  0  0  0
   97.0679    9.3876   97.9201 C   0  0  0  0  0  0  0  0  0  0  0  0
   95.7898    9.5214   97.9274 N   0  0  0  0  0  0  0  0  0  0  0  0
  1 24  1  0  0  0  0
  1  4  2  0  0  0  0
  2 13  1  0  0  0  0
  2 21  1  0  0  0  0
  3 16  1  0  0  0  0
  4 18  1  0  0  0  0
  5 19  2  0  0  0  0
  5 16  1  0  0  0  0
  6 16  2  0  0  0  0
  6 17  1  0  0  0  0
  7 17  1  0  0  0  0
 11 25  2  0  0  0  0
 12 26  2  0  0  0  0
 13 25  1  0  0  0  0
 14 23  1  0  0  0  0
 15 26  1  0  0  0  0
 17 18  2  0  0  0  0
 18 19  1  0  0  0  0
 19 24  1  0  0  0  0
 20 10  1  6  0  0  0
 20 22  1  0  0  0  0
 20 23  1  0  0  0  0
 21 14  1  1  0  0  0
 21 22  1  0  0  0  0
 22 15  1  6  0  0  0
 23 24  1  1  0  0  0
 25  8  1  6  0  0  0
 25 32  1  0  0  0  0
 26  9  1  6  0  0  0
 26 28  1  0  0  0  0
 27 28  1  0  0  0  0
 29 27  1  6  0  0  0
 29 30  1  0  0  0  0
 29 31  1  0  0  0  0
 30 35  1  0  0  0  0
 31 33  1  0  0  0  0
 31 32  1  6  0  0  0
 33 34  1  6  0  0  0
 33 35  1  0  0  0  0
 35 45  1  6  0  0  0
 36 41  2  0  0  0  0
 36 37  1  0  0  0  0
 37 38  2  0  0  0  0
 38 39  1  0  0  0  0
 39 40  2  0  0  0  0
 39 45  1  0  0  0  0
 40 41  1  0  0  0  0
 40 43  1  0  0  0  0
 41 42  1  0  0  0  0
 43 44  2  0  0  0  0
 44 45  1  0  0  0  0
M  CHG  4   8  -1   9  -1  11  -1  12  -1
M  END
>  <CHROM.1>
174.83127934,-153.41829147,96.77013135,11.49153824,94.97618949,0.55385586
1.21225784,-0.14323073

>  <Name>
ligand

>  <RI>
0

>  <Rbt.Current_Directory>
/home/itssahil/PROJECTS/Mol_Feturizer/New_Systems/rnas/4YAZ

>  <Rbt.Executable>
rbdock ($Id: //depot/dev/client3/rdock/2013.1/src/exe/rbdock.cxx#4 $)

>  <Rbt.Library>
libRbt.so (2013.1, Build901 2013/11/27)

>  <Rbt.Parameter_File>
/export/apps/rDock/src/rDock_2013.1_src/data/scripts/dock_solv.prm

>  <Rbt.Receptor>
prm/pocket_docking_5.prm

>  <SCORE>
-24.6301

>  <SCORE.INTER>
-26.4544

>  <SCORE.INTER.CONST>
1

>  <SCORE.INTER.POLAR>
0

>  <SCORE.INTER.ROT>
2

>  <SCORE.INTER.SOLV>
22.3002

>  <SCORE.INTER.VDW>
-30.003

>  <SCORE.INTER.norm>
-0.587875

>  <SCORE.INTRA>
1.82427

>  <SCORE.INTRA.DIHEDRAL>
0.141195

>  <SCORE.INTRA.DIHEDRAL.0>
2.39103

>  <SCORE.INTRA.POLAR>
0

>  <SCORE.INTRA.POLAR.0>
0

>  <SCORE.INTRA.REPUL>
0

>  <SCORE.INTRA.REPUL.0>
0

>  <SCORE.INTRA.SOLV>
6.4585

>  <SCORE.INTRA.SOLV.lig_0>
-163.975

>  <SCORE.INTRA.VDW>
-1.47557

>  <SCORE.INTRA.VDW.0>
-1.49176

>  <SCORE.INTRA.norm>
0.0405394

>  <SCORE.RESTR>
0

>  <SCORE.RESTR.CAVITY>
0

>  <SCORE.RESTR.norm>
0

>  <SCORE.SYSTEM>
0

>  <SCORE.SYSTEM.CONST>
0

>  <SCORE.SYSTEM.DIHEDRAL>
0

>  <SCORE.SYSTEM.SOLV>
0

>  <SCORE.SYSTEM.norm>
0

>  <SCORE.heavy>
45

>  <SCORE.norm>
-0.547335

>  <RMSD>
3.843

$$$$
ligand
 OpenBabel11021811513D
libRbt.so/2013.1/901 2013/11/27
 45 51  0  0  0  0  0  0  0  0999 V2000
  100.0723   14.1088   94.2979 C   0  0  0  0  0  0  0  0  0  0  0  0
   96.2409   11.3893   91.7948 C   0  0  0  0  0  0  0  0  0  0  0  0
   94.8173   15.7556   92.8570 N   0  0  0  0  0  0  0  0  0  0  0  0
   99.6031   14.9497   95.1616 N   0  0  0  0  0  0  0  0  0  0  0  0
   96.9438   14.7957   92.9713 N   0  0  0  0  0  0  0  0  0  0  0  0
   96.2554   16.2836   94.6229 N   0  0  0  0  0  0  0  0  0  0  0  0
   97.6825   16.8016   96.4856 O   0  0  0  0  0  0  0  0  0  0  0  0
   93.3860   12.4887   92.2620 O   0  5  0  0  0  0  0  0  0  0  0  0
   99.0281    7.4362   93.1186 O   0  5  0  0  0  0  0  0  0  0  0  0
  100.6469   11.1263   91.9343 O   0  0  0  0  0  0  0  0  0  0  0  0
   94.0611   12.9369   94.3348 O   0  5  0  0  0  0  0  0  0  0  0  0
   99.9478    9.0835   94.3172 O   0  5  0  0  0  0  0  0  0  0  0  0
   95.7230   12.4234   92.5316 O   0  0  0  0  0  0  0  0  0  0  0  0
   98.2032   12.9689   91.4134 O   0  0  0  0  0  0  0  0  0  0  0  0
   98.5407    9.5923   92.2532 O   0  0  0  0  0  0  0  0  0  0  0  0
   96.0774   15.6114   93.5128 C   0  0  0  0  0  0  0  0  0  0  0  0
   97.3947   16.1490   95.2883 C   0  0  0  0  0  0  0  0  0  0  0  0
   98.3896   15.2991   94.7544 C   0  0  0  0  0  0  0  0  0  0  0  0
   98.1340   14.6175   93.5901 C   0  0  0  0  0  0  0  0  0  0  0  0
   99.6849   11.8169   92.6396 C   0  0  2  0  0  0  0  0  0  0  0  0
   97.6945   11.5266   91.5799 C   0  0  1  0  0  0  0  0  0  0  0  0
   98.3123   10.9725   92.5119 C   0  0  1  0  0  0  0  0  0  0  0  0
   99.4495   13.0558   92.2490 C   0  0  2  0  0  0  0  0  0  0  0  0
   99.2338   13.9022   93.3508 N   0  0  0  0  0  0  0  0  0  0  0  0
   94.3530   12.1175   93.2113 P   0  0  2  0  0  0  0  0  0  0  0  0
   98.7889    8.7545   93.5237 P   0  0  1  0  0  0  0  0  0  0  0  0
   96.2015    8.4587   93.7232 C   0  0  0  0  0  0  0  0  0  0  0  0
   97.4681    8.6971   94.3579 O   0  0  0  0  0  0  0  0  0  0  0  0
   95.0263    8.8179   94.5308 C   0  0  1  0  0  0  0  0  0  0  0  0
   95.2819    8.3078   96.0333 O   0  0  0  0  0  0  0  0  0  0  0  0
   94.9244   10.0680   94.6116 C   0  0  1  0  0  0  0  0  0  0  0  0
   94.1595   10.6269   93.5189 O   0  0  0  0  0  0  0  0  0  0  0  0
   94.3157   10.3001   95.9862 C   0  0  1  0  0  0  0  0  0  0  0  0
   93.0601   10.1898   95.9311 O   0  0  0  0  0  0  0  0  0  0  0  0
   94.8719    9.1640   96.8448 C   0  0  2  0  0  0  0  0  0  0  0  0
   95.2682   10.9138  101.6630 N   0  0  0  0  0  0  0  0  0  0  0  0
   94.1279   10.7484  100.9424 C   0  0  0  0  0  0  0  0  0  0  0  0
   94.2474   10.2721   99.7090 N   0  0  0  0  0  0  0  0  0  0  0  0
   95.4261   10.0041   99.1075 C   0  0  0  0  0  0  0  0  0  0  0  0
   96.6319   10.1632   99.8235 C   0  0  0  0  0  0  0  0  0  0  0  0
   96.4904   10.6566  101.1599 C   0  0  0  0  0  0  0  0  0  0  0  0
   97.6579   10.8703  101.9506 N   0  0  0  0  0  0  0  0  0  0  0  0
   97.5797    9.7992   99.0330 N   0  0  0  0  0  0  0  0  0  0  0  0
   97.0523    9.4043   97.8872 C   0  0  0  0  0  0  0  0  0  0  0  0
   95.7740    9.5358   97.9001 N   0  0  0  0  0  0  0  0  0  0  0  0
  1 24  1  0  0  0  0
  1  4  2  0  0  0  0
  2 13  1  0  0  0  0
  2 21  1  0  0  0  0
  3 16  1  0  0  0  0
  4 18  1  0  0  0  0
  5 19  2  0  0  0  0
  5 16  1  0  0  0  0
  6 16  2  0  0  0  0
  6 17  1  0  0  0  0
  7 17  1  0  0  0  0
 11 25  2  0  0  0  0
 12 26  2  0  0  0  0
 13 25  1  0  0  0  0
 14 23  1  0  0  0  0
 15 26  1  0  0  0  0
 17 18  2  0  0  0  0
 18 19  1  0  0  0  0
 19 24  1  0  0  0  0
 20 10  1  6  0  0  0
 20 22  1  0  0  0  0
 20 23  1  0  0  0  0
 21 14  1  1  0  0  0
 21 22  1  0  0  0  0
 22 15  1  6  0  0  0
 23 24  1  1  0  0  0
 25  8  1  6  0  0  0
 25 32  1  0  0  0  0
 26  9  1  6  0  0  0
 26 28  1  0  0  0  0
 27 28  1  0  0  0  0
 29 27  1  6  0  0  0
 29 30  1  0  0  0  0
 29 31  1  0  0  0  0
 30 35  1  0  0  0  0
 31 33  1  0  0  0  0
 31 32  1  6  0  0  0
 33 34  1  6  0  0  0
 33 35  1  0  0  0  0
 35 45  1  6  0  0  0
 36 41  2  0  0  0  0
 36 37  1  0  0  0  0
 37 38  2  0  0  0  0
 38 39  1  0  0  0  0
 39 40  2  0  0  0  0
 39 45  1  0  0  0  0
 40 41  1  0  0  0  0
 40 43  1  0  0  0  0
 41 42  1  0  0  0  0
 43 44  2  0  0  0  0
 44 45  1  0  0  0  0
M  CHG  4   8  -1   9  -1  11  -1  12  -1
M  END
>  <CHROM.1>
174.94844908,-153.33489198,96.74191997,11.51428809,94.95152960,0.55730274
1.21567890,-0.14404510

>  <Name>
ligand

>  <RI>
0

>  <Rbt.Current_Directory>
/home/itssahil/PROJECTS/Mol_Feturizer/New_Systems/rnas/4YAZ

>  <Rbt.Executable>
rbdock ($Id: //depot/dev/client3/rdock/2013.1/src/exe/rbdock.cxx#4 $)

>  <Rbt.Library>
libRbt.so (2013.1, Build901 2013/11/27)

>  <Rbt.Parameter_File>
/export/apps/rDock/src/rDock_2013.1_src/data/scripts/dock_solv.prm

>  <Rbt.Receptor>
prm/pocket_docking_4.prm

>  <SCORE>
-24.615

>  <SCORE.INTER>
-26.4595

>  <SCORE.INTER.CONST>
1

>  <SCORE.INTER.POLAR>
0

>  <SCORE.INTER.ROT>
2

>  <SCORE.INTER.SOLV>
22.5009

>  <SCORE.INTER.VDW>
-30.0733

>  <SCORE.INTER.norm>
-0.58799

>  <SCORE.INTRA>
1.84454

>  <SCORE.INTRA.DIHEDRAL>
0.141336

>  <SCORE.INTRA.DIHEDRAL.0>
2.39103

>  <SCORE.INTRA.POLAR>
0

>  <SCORE.INTRA.POLAR.0>
0

>  <SCORE.INTRA.REPUL>
0

>  <SCORE.INTRA.REPUL.0>
0

>  <SCORE.INTRA.SOLV>
6.51142

>  <SCORE.INTRA.SOLV.lig_0>
-163.975

>  <SCORE.INTRA.VDW>
-1.48183

>  <SCORE.INTRA.VDW.0>
-1.49176

>  <SCORE.INTRA.norm>
0.0409899

>  <SCORE.RESTR>
0

>  <SCORE.RESTR.CAVITY>
0

>  <SCORE.RESTR.norm>
0

>  <SCORE.SYSTEM>
0

>  <SCORE.SYSTEM.CONST>
0

>  <SCORE.SYSTEM.DIHEDRAL>
0

>  <SCORE.SYSTEM.SOLV>
0

>  <SCORE.SYSTEM.norm>
0

>  <SCORE.heavy>
45

>  <SCORE.norm>
-0.547

>  <RMSD>
3.845

$$$$
ligand
 OpenBabel11021811513D
libRbt.so/2013.1/901 2013/11/27
 45 51  0  0  0  0  0  0  0  0999 V2000
  100.0952   14.0677   94.2826 C   0  0  0  0  0  0  0  0  0  0  0  0
   96.2353   11.3618   91.8022 C   0  0  0  0  0  0  0  0  0  0  0  0
   94.8367   15.7203   92.8614 N   0  0  0  0  0  0  0  0  0  0  0  0
   99.6332   14.9150   95.1438 N   0  0  0  0  0  0  0  0  0  0  0  0
   96.9612   14.7552   92.9695 N   0  0  0  0  0  0  0  0  0  0  0  0
   96.2862   16.2550   94.6160 N   0  0  0  0  0  0  0  0  0  0  0  0
   97.7251   16.7801   96.4675 O   0  0  0  0  0  0  0  0  0  0  0  0
   93.3901   12.4867   92.2680 O   0  5  0  0  0  0  0  0  0  0  0  0
   98.9920    7.3926   93.1416 O   0  5  0  0  0  0  0  0  0  0  0  0
  100.6391   11.0634   91.9367 O   0  0  0  0  0  0  0  0  0  0  0  0
   94.0719   12.9397   94.3376 O   0  5  0  0  0  0  0  0  0  0  0  0
   99.9269    9.0382   94.3308 O   0  5  0  0  0  0  0  0  0  0  0  0
   95.7268   12.4037   92.5346 O   0  0  0  0  0  0  0  0  0  0  0  0
   98.2098   12.9233   91.4102 O   0  0  0  0  0  0  0  0  0  0  0  0
   98.5209    9.5483   92.2662 O   0  0  0  0  0  0  0  0  0  0  0  0
   96.1000   15.5766   93.5110 C   0  0  0  0  0  0  0  0  0  0  0  0
   97.4288   16.1212   95.2758 C   0  0  0  0  0  0  0  0  0  0  0  0
   98.4183   15.2654   94.7414 C   0  0  0  0  0  0  0  0  0  0  0  0
   98.1544   14.5775   93.5826 C   0  0  0  0  0  0  0  0  0  0  0  0
   99.6838   11.7654   92.6400 C   0  0  2  0  0  0  0  0  0  0  0  0
   97.6896   11.4861   91.5846 C   0  0  1  0  0  0  0  0  0  0  0  0
   98.3042   10.9316   92.5184 C   0  0  1  0  0  0  0  0  0  0  0  0
   99.4580   13.0041   92.2436 C   0  0  2  0  0  0  0  0  0  0  0  0
   99.2508   13.8577   93.3414 N   0  0  0  0  0  0  0  0  0  0  0  0
   94.3555   12.1123   93.2177 P   0  0  2  0  0  0  0  0  0  0  0  0
   98.7642    8.7148   93.5406 P   0  0  1  0  0  0  0  0  0  0  0  0
   96.1747    8.4411   93.7451 C   0  0  0  0  0  0  0  0  0  0  0  0
   97.4441    8.6723   94.3769 O   0  0  0  0  0  0  0  0  0  0  0  0
   95.0037    8.8139   94.5526 C   0  0  1  0  0  0  0  0  0  0  0  0
   95.2573    8.3091   96.0572 O   0  0  0  0  0  0  0  0  0  0  0  0
   94.9121   10.0652   94.6274 C   0  0  1  0  0  0  0  0  0  0  0  0
   94.1502   10.6250   93.5330 O   0  0  0  0  0  0  0  0  0  0  0  0
   94.3074   10.3091   96.0017 C   0  0  1  0  0  0  0  0  0  0  0  0
   93.0508   10.2088   95.9489 O   0  0  0  0  0  0  0  0  0  0  0  0
   94.8555    9.1727   96.8651 C   0  0  2  0  0  0  0  0  0  0  0  0
   95.2726   10.9189  101.6828 N   0  0  0  0  0  0  0  0  0  0  0  0
   94.1294   10.7559  100.9664 C   0  0  0  0  0  0  0  0  0  0  0  0
   94.2435   10.2801   99.7323 N   0  0  0  0  0  0  0  0  0  0  0  0
   95.4195   10.0105   99.1262 C   0  0  0  0  0  0  0  0  0  0  0  0
   96.6282   10.1671   99.8379 C   0  0  0  0  0  0  0  0  0  0  0  0
   96.4925   10.6600  101.1750 C   0  0  0  0  0  0  0  0  0  0  0  0
   97.6633   10.8712  101.9615 N   0  0  0  0  0  0  0  0  0  0  0  0
   97.5725    9.8020   99.0436 N   0  0  0  0  0  0  0  0  0  0  0  0
   97.0401    9.4087   97.8996 C   0  0  0  0  0  0  0  0  0  0  0  0
   95.7621    9.5424   97.9173 N   0  0  0  0  0  0  0  0  0  0  0  0
  1 24  1  0  0  0  0
  1  4  2  0  0  0  0
  2 13  1  0  0  0  0
  2 21  1  0  0  0  0
  3 16  1  0  0  0  0
  4 18  1  0  0  0  0
  5 19  2  0  0  0  0
  5 16  1  0  0  0  0
  6 16  2  0  0  0  0
  6 17  1  0  0  0  0
  7 17  1  0  0  0  0
 11 25  2  0  0  0  0
 12 26  2  0  0  0  0
 13 25  1  0  0  0  0
 14 23  1  0  0  0  0
 15 26  1  0  0  0  0
 17 18  2  0  0  0  0
 18 19  1  0  0  0  0
 19 24  1  0  0  0  0
 20 10  1  6  0  0  0
 20 22  1  0  0  0  0
 20 23  1  0  0  0  0
 21 14  1  1  0  0  0
 21 22  1  0  0  0  0
 22 15  1  6  0  0  0
 23 24  1  1  0  0  0
 25  8  1  6  0  0  0
 25 32  1  0  0  0  0
 26  9  1  6  0  0  0
 26 28  1  0  0  0  0
 27 28  1  0  0  0  0
 29 27  1  6  0  0  0
 29 30  1  0  0  0  0
 29 31  1  0  0  0  0
 30 35  1  0  0  0  0
 31 33  1  0  0  0  0
 31 32  1  6  0  0  0
 33 34  1  6  0  0  0
 33 35  1  0  0  0  0
 35 45  1  6  0  0  0
 36 41  2  0  0  0  0
 36 37  1  0  0  0  0
 37 38  2  0  0  0  0
 38 39  1  0  0  0  0
 39 40  2  0  0  0  0
 39 45  1  0  0  0  0
 40 41  1  0  0  0  0
 40 43  1  0  0  0  0
 41 42  1  0  0  0  0
 43 44  2  0  0  0  0
 44 45  1  0  0  0  0
M  CHG  4   8  -1   9  -1  11  -1  12  -1
M  END
>  <CHROM.1>
175.34659124,-152.82894052,96.74102588,11.49471879,94.95932816,0.53565813
1.21793346,-0.12960942

>  <Name>
ligand

>  <RI>
0

>  <Rbt.Current_Directory>
/home/itssahil/PROJECTS/Mol_Feturizer/New_Systems/rnas/4YAZ

>  <Rbt.Executable>
rbdock ($Id: //depot/dev/client3/rdock/2013.1/src/exe/rbdock.cxx#4 $)

>  <Rbt.Library>
libRbt.so (2013.1, Build901 2013/11/27)

>  <Rbt.Parameter_File>
/export/apps/rDock/src/rDock_2013.1_src/data/scripts/dock_solv.prm

>  <Rbt.Receptor>
prm/pocket_docking_5.prm

>  <SCORE>
-24.6085

>  <SCORE.INTER>
-26.5225

>  <SCORE.INTER.CONST>
1

>  <SCORE.INTER.POLAR>
0

>  <SCORE.INTER.ROT>
2

>  <SCORE.INTER.SOLV>
22.1614

>  <SCORE.INTER.VDW>
-30.0021

>  <SCORE.INTER.norm>
-0.589389

>  <SCORE.INTRA>
1.91394

>  <SCORE.INTRA.DIHEDRAL>
0.142223

>  <SCORE.INTRA.DIHEDRAL.0>
2.39103

>  <SCORE.INTRA.POLAR>
0

>  <SCORE.INTRA.POLAR.0>
0

>  <SCORE.INTRA.REPUL>
0

>  <SCORE.INTRA.REPUL.0>
0

>  <SCORE.INTRA.SOLV>
6.69205

>  <SCORE.INTRA.SOLV.lig_0>
-163.975

>  <SCORE.INTRA.VDW>
-1.5032

>  <SCORE.INTRA.VDW.0>
-1.49176

>  <SCORE.INTRA.norm>
0.042532

>  <SCORE.RESTR>
0

>  <SCORE.RESTR.CAVITY>
0

>  <SCORE.RESTR.norm>
0

>  <SCORE.SYSTEM>
0

>  <SCORE.SYSTEM.CONST>
0

>  <SCORE.SYSTEM.DIHEDRAL>
0

>  <SCORE.SYSTEM.SOLV>
0

>  <SCORE.SYSTEM.norm>
0

>  <SCORE.heavy>
45

>  <SCORE.norm>
-0.546857

>  <RMSD>
3.852

$$$$
ligand
 OpenBabel11021811513D
libRbt.so/2013.1/901 2013/11/27
 45 51  0  0  0  0  0  0  0  0999 V2000
   99.9259   13.9792   94.4484 C   0  0  0  0  0  0  0  0  0  0  0  0
   96.3771   11.0559   91.8536 C   0  0  0  0  0  0  0  0  0  0  0  0
   94.7981   15.6550   92.6315 N   0  0  0  0  0  0  0  0  0  0  0  0
   99.3961   14.8158   95.2807 N   0  0  0  0  0  0  0  0  0  0  0  0
   96.9072   14.6866   92.8972 N   0  0  0  0  0  0  0  0  0  0  0  0
   96.1020   16.1655   94.5036 N   0  0  0  0  0  0  0  0  0  0  0  0
   97.3877   16.6653   96.4712 O   0  0  0  0  0  0  0  0  0  0  0  0
   93.4449   11.9607   92.2554 O   0  5  0  0  0  0  0  0  0  0  0  0
   99.4021    7.3156   93.2705 O   0  5  0  0  0  0  0  0  0  0  0  0
  100.7871   11.0974   92.0790 O   0  0  0  0  0  0  0  0  0  0  0  0
   94.0471   12.4729   94.3359 O   0  5  0  0  0  0  0  0  0  0  0  0
  100.1831    9.0329   94.4692 O   0  5  0  0  0  0  0  0  0  0  0  0
   95.7751   12.0585   92.5697 O   0  0  0  0  0  0  0  0  0  0  0  0
   98.2336   12.7630   91.4931 O   0  0  0  0  0  0  0  0  0  0  0  0
   98.7851    9.4253   92.3738 O   0  0  0  0  0  0  0  0  0  0  0  0
   96.0053   15.5017   93.3784 C   0  0  0  0  0  0  0  0  0  0  0  0
   97.1881   16.0221   95.2510 C   0  0  0  0  0  0  0  0  0  0  0  0
   98.2174   15.1724   94.7867 C   0  0  0  0  0  0  0  0  0  0  0  0
   98.0474   14.4999   93.6017 C   0  0  0  0  0  0  0  0  0  0  0  0
   99.7664   11.7266   92.7589 C   0  0  2  0  0  0  0  0  0  0  0  0
   97.8217   11.2907   91.6648 C   0  0  1  0  0  0  0  0  0  0  0  0
   98.4577   10.7888   92.6139 C   0  0  1  0  0  0  0  0  0  0  0  0
   99.4544   12.9428   92.3512 C   0  0  2  0  0  0  0  0  0  0  0  0
   99.1597   13.7823   93.4399 N   0  0  0  0  0  0  0  0  0  0  0  0
   94.4164   11.6653   93.2265 P   0  0  2  0  0  0  0  0  0  0  0  0
   99.0653    8.6180   93.6574 P   0  0  1  0  0  0  0  0  0  0  0  0
   96.5008    8.1469   93.8109 C   0  0  0  0  0  0  0  0  0  0  0  0
   97.7354    8.4774   94.4670 O   0  0  0  0  0  0  0  0  0  0  0  0
   95.2882    8.4317   94.5925 C   0  0  1  0  0  0  0  0  0  0  0  0
   95.5487    7.9539   96.1047 O   0  0  0  0  0  0  0  0  0  0  0  0
   95.0993    9.6726   94.6585 C   0  0  1  0  0  0  0  0  0  0  0  0
   94.3194   10.1678   93.5458 O   0  0  0  0  0  0  0  0  0  0  0  0
   94.4494    9.8747   96.0189 C   0  0  1  0  0  0  0  0  0  0  0  0
   93.2056    9.6779   95.9411 O   0  0  0  0  0  0  0  0  0  0  0  0
   95.0651    8.7872   96.8994 C   0  0  2  0  0  0  0  0  0  0  0  0
   95.2512   10.9800  101.5460 N   0  0  0  0  0  0  0  0  0  0  0  0
   94.1486   10.7830  100.7764 C   0  0  0  0  0  0  0  0  0  0  0  0
   94.3204   10.1863   99.6031 N   0  0  0  0  0  0  0  0  0  0  0  0
   95.5205    9.8233   99.1022 C   0  0  0  0  0  0  0  0  0  0  0  0
   96.6884   10.0114   99.8718 C   0  0  0  0  0  0  0  0  0  0  0  0
   96.4895   10.6358  101.1445 C   0  0  0  0  0  0  0  0  0  0  0  0
   97.6171   10.8867  101.9810 N   0  0  0  0  0  0  0  0  0  0  0  0
   97.6654    9.5422   99.1782 N   0  0  0  0  0  0  0  0  0  0  0  0
   97.1898    9.0559   98.0449 C   0  0  0  0  0  0  0  0  0  0  0  0
   95.9189    9.2296   97.9678 N   0  0  0  0  0  0  0  0  0  0  0  0
  1 24  1  0  0  0  0
  1  4  2  0  0  0  0
  2 13  1  0  0  0  0
  2 21  1  0  0  0  0
  3 16  1  0  0  0  0
  4 18  1  0  0  0  0
  5 19  2  0  0  0  0
  5 16  1  0  0  0  0
  6 16  2  0  0  0  0
  6 17  1  0  0  0  0
  7 17  1  0  0  0  0
 11 25  2  0  0  0  0
 12 26  2  0  0  0  0
 13 25  1  0  0  0  0
 14 23  1  0  0  0  0
 15 26  1  0  0  0  0
 17 18  2  0  0  0  0
 18 19  1  0  0  0  0
 19 24  1  0  0  0  0
 20 10  1  6  0  0  0
 20 22  1  0  0  0  0
 20 23  1  0  0  0  0
 21 14  1  1  0  0  0
 21 22  1  0  0  0  0
 22 15  1  6  0  0  0
 23 24  1  1  0  0  0
 25  8  1  6  0  0  0
 25 32  1  0  0  0  0
 26  9  1  6  0  0  0
 26 28  1  0  0  0  0
 27 28  1  0  0  0  0
 29 27  1  6  0  0  0
 29 30  1  0  0  0  0
 29 31  1  0  0  0  0
 30 35  1  0  0  0  0
 31 33  1  0  0  0  0
 31 32  1  6  0  0  0
 33 34  1  6  0  0  0
 33 35  1  0  0  0  0
 35 45  1  1  0  0  0
 36 41  2  0  0  0  0
 36 37  1  0  0  0  0
 37 38  2  0  0  0  0
 38 39  1  0  0  0  0
 39 40  2  0  0  0  0
 39 45  1  0  0  0  0
 40 41  1  0  0  0  0
 40 43  1  0  0  0  0
 41 42  1  0  0  0  0
 43 44  2  0  0  0  0
 44 45  1  0  0  0  0
M  CHG  4   8  -1   9  -1  11  -1  12  -1
M  END
>  <CHROM.1>
169.65586232,-161.40131126,96.81735660,11.29504854,94.99157303,0.71221218
1.18867354,-0.28390287

>  <Name>
ligand

>  <RI>
0

>  <Rbt.Current_Directory>
/home/itssahil/PROJECTS/Mol_Feturizer/New_Systems/rnas/4YAZ

>  <Rbt.Executable>
rbdock ($Id: //depot/dev/client3/rdock/2013.1/src/exe/rbdock.cxx#4 $)

>  <Rbt.Library>
libRbt.so (2013.1, Build901 2013/11/27)

>  <Rbt.Parameter_File>
/export/apps/rDock/src/rDock_2013.1_src/data/scripts/dock_solv.prm

>  <Rbt.Receptor>
prm/pocket_docking_8.prm

>  <SCORE>
-24.5857

>  <SCORE.INTER>
-25.6117

>  <SCORE.INTER.CONST>
1

>  <SCORE.INTER.POLAR>
0

>  <SCORE.INTER.ROT>
2

>  <SCORE.INTER.SOLV>
22.6953

>  <SCORE.INTER.VDW>
-29.5729

>  <SCORE.INTER.norm>
-0.569149

>  <SCORE.INTRA>
1.02603

>  <SCORE.INTRA.DIHEDRAL>
0.115068

>  <SCORE.INTRA.DIHEDRAL.0>
2.39103

>  <SCORE.INTRA.POLAR>
0

>  <SCORE.INTRA.POLAR.0>
0

>  <SCORE.INTRA.REPUL>
0

>  <SCORE.INTRA.REPUL.0>
0

>  <SCORE.INTRA.SOLV>
4.11588

>  <SCORE.INTRA.SOLV.lig_0>
-163.975

>  <SCORE.INTRA.VDW>
-1.08944

>  <SCORE.INTRA.VDW.0>
-1.49176

>  <SCORE.INTRA.norm>
0.0228006

>  <SCORE.RESTR>
0

>  <SCORE.RESTR.CAVITY>
0

>  <SCORE.RESTR.norm>
0

>  <SCORE.SYSTEM>
0

>  <SCORE.SYSTEM.CONST>
0

>  <SCORE.SYSTEM.DIHEDRAL>
0

>  <SCORE.SYSTEM.SOLV>
0

>  <SCORE.SYSTEM.norm>
0

>  <SCORE.heavy>
45

>  <SCORE.norm>
-0.546349

>  <RMSD>
3.972

$$$$
ligand
 OpenBabel11021811513D
libRbt.so/2013.1/901 2013/11/27
 45 51  0  0  0  0  0  0  0  0999 V2000
  100.0497   14.0769   94.2852 C   0  0  0  0  0  0  0  0  0  0  0  0
   96.4236   11.1857   91.6909 C   0  0  0  0  0  0  0  0  0  0  0  0
   94.8277   15.5795   92.5895 N   0  0  0  0  0  0  0  0  0  0  0  0
   99.5218   14.9152   95.1170 N   0  0  0  0  0  0  0  0  0  0  0  0
   96.9691   14.6731   92.8109 N   0  0  0  0  0  0  0  0  0  0  0  0
   96.1710   16.1612   94.4123 N   0  0  0  0  0  0  0  0  0  0  0  0
   97.4993   16.7335   96.3313 O   0  0  0  0  0  0  0  0  0  0  0  0
   93.5130   12.1746   92.0484 O   0  5  0  0  0  0  0  0  0  0  0  0
   99.3222    7.3682   93.1652 O   0  5  0  0  0  0  0  0  0  0  0  0
  100.8296   11.1039   91.9768 O   0  0  0  0  0  0  0  0  0  0  0  0
   94.1009   12.6793   94.1348 O   0  5  0  0  0  0  0  0  0  0  0  0
  100.1350    9.0684   94.3672 O   0  5  0  0  0  0  0  0  0  0  0  0
   95.8405   12.2082   92.3944 O   0  0  0  0  0  0  0  0  0  0  0  0
   98.3323   12.8381   91.3487 O   0  0  0  0  0  0  0  0  0  0  0  0
   98.7773    9.4903   92.2511 O   0  0  0  0  0  0  0  0  0  0  0  0
   96.0597   15.4731   93.3032 C   0  0  0  0  0  0  0  0  0  0  0  0
   97.2819   16.0615   95.1299 C   0  0  0  0  0  0  0  0  0  0  0  0
   98.3200   15.2306   94.6514 C   0  0  0  0  0  0  0  0  0  0  0  0
   98.1340   14.5306   93.4848 C   0  0  0  0  0  0  0  0  0  0  0  0
   99.8179   11.7648   92.6398 C   0  0  2  0  0  0  0  0  0  0  0  0
   97.8768   11.3788   91.5210 C   0  0  1  0  0  0  0  0  0  0  0  0
   98.4853   10.8636   92.4809 C   0  0  1  0  0  0  0  0  0  0  0  0
   99.5460   12.9874   92.2227 C   0  0  2  0  0  0  0  0  0  0  0  0
   99.2603   13.8399   93.3037 N   0  0  0  0  0  0  0  0  0  0  0  0
   94.4624   11.8565   93.0341 P   0  0  2  0  0  0  0  0  0  0  0  0
   99.0171    8.6814   93.5419 P   0  0  1  0  0  0  0  0  0  0  0  0
   96.4384    8.2835   93.6621 C   0  0  0  0  0  0  0  0  0  0  0  0
   97.6728    8.5821   94.3337 O   0  0  0  0  0  0  0  0  0  0  0  0
   95.2238    8.6060   94.4256 C   0  0  1  0  0  0  0  0  0  0  0  0
   95.4501    8.1281   95.9433 O   0  0  0  0  0  0  0  0  0  0  0  0
   95.0692    9.8520   94.4838 C   0  0  1  0  0  0  0  0  0  0  0  0
   94.3188   10.3639   93.3584 O   0  0  0  0  0  0  0  0  0  0  0  0
   94.4067   10.0786   95.8342 C   0  0  1  0  0  0  0  0  0  0  0  0
   93.1590    9.9166   95.7402 O   0  0  0  0  0  0  0  0  0  0  0  0
   94.9795    8.9783   96.7278 C   0  0  2  0  0  0  0  0  0  0  0  0
   95.1485   10.9810  101.4601 N   0  0  0  0  0  0  0  0  0  0  0  0
   94.0443   10.7832  100.6929 C   0  0  0  0  0  0  0  0  0  0  0  0
   94.2215   10.2410   99.4942 N   0  0  0  0  0  0  0  0  0  0  0  0
   95.4266    9.9353   98.9676 C   0  0  0  0  0  0  0  0  0  0  0  0
   96.5964   10.1263   99.7339 C   0  0  0  0  0  0  0  0  0  0  0  0
   96.3922   10.6912  101.0333 C   0  0  0  0  0  0  0  0  0  0  0  0
   97.5205   10.9409  101.8692 N   0  0  0  0  0  0  0  0  0  0  0  0
   97.5796    9.7158   99.0124 N   0  0  0  0  0  0  0  0  0  0  0  0
   97.1069    9.2629   97.8642 C   0  0  0  0  0  0  0  0  0  0  0  0
   95.8307    9.4014   97.8059 N   0  0  0  0  0  0  0  0  0  0  0  0
  1 24  1  0  0  0  0
  1  4  2  0  0  0  0
  2 13  1  0  0  0  0
  2 21  1  0  0  0  0
  3 16  1  0  0  0  0
  4 18  1  0  0  0  0
  5 19  2  0  0  0  0
  5 16  1  0  0  0  0
  6 16  2  0  0  0  0
  6 17  1  0  0  0  0
  7 17  1  0  0  0  0
 11 25  2  0  0  0  0
 12 26  2  0  0  0  0
 13 25  1  0  0  0  0
 14 23  1  0  0  0  0
 15 26  1  0  0  0  0
 17 18  2  0  0  0  0
 18 19  1  0  0  0  0
 19 24  1  0  0  0  0
 20 10  1  6  0  0  0
 20 22  1  0  0  0  0
 20 23  1  0  0  0  0
 21 14  1  1  0  0  0
 21 22  1  0  0  0  0
 22 15  1  6  0  0  0
 23 24  1  1  0  0  0
 25  8  1  6  0  0  0
 25 32  1  0  0  0  0
 26  9  1  6  0  0  0
 26 28  1  0  0  0  0
 27 28  1  0  0  0  0
 29 27  1  6  0  0  0
 29 30  1  0  0  0  0
 29 31  1  0  0  0  0
 30 35  1  0  0  0  0
 31 33  1  0  0  0  0
 31 32  1  6  0  0  0
 33 34  1  6  0  0  0
 33 35  1  0  0  0  0
 35 45  1  1  0  0  0
 36 41  2  0  0  0  0
 36 37  1  0  0  0  0
 37 38  2  0  0  0  0
 38 39  1  0  0  0  0
 39 40  2  0  0  0  0
 39 45  1  0  0  0  0
 40 41  1  0  0  0  0
 40 43  1  0  0  0  0
 41 42  1  0  0  0  0
 43 44  2  0  0  0  0
 44 45  1  0  0  0  0
M  CHG  4   8  -1   9  -1  11  -1  12  -1
M  END
>  <CHROM.1>
173.75152911,-156.94832493,96.81731738,11.39390365,94.85140450,0.63592883
1.17708277,-0.23447404

>  <Name>
ligand

>  <RI>
0

>  <Rbt.Current_Directory>
/home/itssahil/PROJECTS/Mol_Feturizer/New_Systems/rnas/4YAZ

>  <Rbt.Executable>
rbdock ($Id: //depot/dev/client3/rdock/2013.1/src/exe/rbdock.cxx#4 $)

>  <Rbt.Library>
libRbt.so (2013.1, Build901 2013/11/27)

>  <Rbt.Parameter_File>
/export/apps/rDock/src/rDock_2013.1_src/data/scripts/dock_solv.prm

>  <Rbt.Receptor>
prm/pocket_docking_6.prm

>  <SCORE>
-24.5564

>  <SCORE.INTER>
-26.2243

>  <SCORE.INTER.CONST>
1

>  <SCORE.INTER.POLAR>
0

>  <SCORE.INTER.ROT>
2

>  <SCORE.INTER.SOLV>
22.5565

>  <SCORE.INTER.VDW>
-29.935

>  <SCORE.INTER.norm>
-0.582762

>  <SCORE.INTRA>
1.66793

>  <SCORE.INTRA.DIHEDRAL>
0.131917

>  <SCORE.INTRA.DIHEDRAL.0>
2.39103

>  <SCORE.INTRA.POLAR>
0

>  <SCORE.INTRA.POLAR.0>
0

>  <SCORE.INTRA.REPUL>
0

>  <SCORE.INTRA.REPUL.0>
0

>  <SCORE.INTRA.SOLV>
5.96766

>  <SCORE.INTRA.SOLV.lig_0>
-163.975

>  <SCORE.INTRA.VDW>
-1.38186

>  <SCORE.INTRA.VDW.0>
-1.49176

>  <SCORE.INTRA.norm>
0.0370651

>  <SCORE.RESTR>
0

>  <SCORE.RESTR.CAVITY>
0

>  <SCORE.RESTR.norm>
0

>  <SCORE.SYSTEM>
0

>  <SCORE.SYSTEM.CONST>
0

>  <SCORE.SYSTEM.DIHEDRAL>
0

>  <SCORE.SYSTEM.SOLV>
0

>  <SCORE.SYSTEM.norm>
0

>  <SCORE.heavy>
45

>  <SCORE.norm>
-0.545697

>  <RMSD>
3.997

$$$$
ligand
 OpenBabel11021811513D
libRbt.so/2013.1/901 2013/11/27
 45 51  0  0  0  0  0  0  0  0999 V2000
   98.0900   14.0374   93.4686 C   0  0  0  0  0  0  0  0  0  0  0  0
   93.0933   14.9077   94.5120 C   0  0  0  0  0  0  0  0  0  0  0  0
   96.5425   17.5945   97.6346 N   0  0  0  0  0  0  0  0  0  0  0  0
   98.8594   13.8981   94.4990 N   0  0  0  0  0  0  0  0  0  0  0  0
   96.7680   16.3881   95.6471 N   0  0  0  0  0  0  0  0  0  0  0  0
   98.2366   15.9993   97.4099 N   0  0  0  0  0  0  0  0  0  0  0  0
   99.9505   14.3237   97.2376 O   0  0  0  0  0  0  0  0  0  0  0  0
   92.4805   15.2794   97.5226 O   0  5  0  0  0  0  0  0  0  0  0  0
   92.5105   11.4355   90.9409 O   0  5  0  0  0  0  0  0  0  0  0  0
   95.4268   14.4543   90.7904 O   0  0  0  0  0  0  0  0  0  0  0  0
   94.1164   13.8137   97.8817 O   0  5  0  0  0  0  0  0  0  0  0  0
   94.7132   11.3628   91.3136 O   0  5  0  0  0  0  0  0  0  0  0  0
   93.8593   14.9216   95.6493 O   0  0  0  0  0  0  0  0  0  0  0  0
   95.1055   16.0430   93.4383 O   0  0  0  0  0  0  0  0  0  0  0  0
   93.3374   13.4024   91.9817 O   0  0  0  0  0  0  0  0  0  0  0  0
   97.2250   16.6156   96.8507 C   0  0  0  0  0  0  0  0  0  0  0  0
   98.8750   15.0533   96.7343 C   0  0  0  0  0  0  0  0  0  0  0  0
   98.4514   14.7644   95.4174 C   0  0  0  0  0  0  0  0  0  0  0  0
   97.3781   15.4430   94.8949 C   0  0  0  0  0  0  0  0  0  0  0  0
   95.6932   14.3156   92.1357 C   0  0  2  0  0  0  0  0  0  0  0  0
   93.8989   15.1001   93.2906 C   0  0  1  0  0  0  0  0  0  0  0  0
   94.2856   13.9936   92.8623 C   0  0  1  0  0  0  0  0  0  0  0  0
   96.2421   15.3566   92.7339 C   0  0  2  0  0  0  0  0  0  0  0  0
   97.2134   14.9514   93.6662 N   0  0  0  0  0  0  0  0  0  0  0  0
   93.1961   14.2488   96.8902 P   0  0  2  0  0  0  0  0  0  0  0  0
   93.4768   11.8720   91.8548 P   0  0  1  0  0  0  0  0  0  0  0  0
   91.9232   11.6496   93.9425 C   0  0  0  0  0  0  0  0  0  0  0  0
   93.0840   11.2135   93.2172 O   0  0  0  0  0  0  0  0  0  0  0  0
   91.8880   11.2460   95.3561 C   0  0  1  0  0  0  0  0  0  0  0  0
   92.3649    9.7139   95.4468 O   0  0  0  0  0  0  0  0  0  0  0  0
   92.7349   11.9024   96.0131 C   0  0  1  0  0  0  0  0  0  0  0  0
   92.1961   13.1494   96.5094 O   0  0  0  0  0  0  0  0  0  0  0  0
   93.1867   10.9381   97.0994 C   0  0  1  0  0  0  0  0  0  0  0  0
   92.3862   10.9736   98.0740 O   0  0  0  0  0  0  0  0  0  0  0  0
   93.1019    9.5599   96.4433 C   0  0  2  0  0  0  0  0  0  0  0  0
   97.7586    8.5121   98.3542 N   0  0  0  0  0  0  0  0  0  0  0  0
   96.8187    9.3342   98.8905 C   0  0  0  0  0  0  0  0  0  0  0  0
   95.6708    9.4601   98.2357 N   0  0  0  0  0  0  0  0  0  0  0  0
   95.4048    8.8778   97.0469 C   0  0  0  0  0  0  0  0  0  0  0  0
   96.3559    8.0171   96.4583 C   0  0  0  0  0  0  0  0  0  0  0  0
   97.5816    7.8711   97.1833 C   0  0  0  0  0  0  0  0  0  0  0  0
   98.6101    7.0383   96.6518 N   0  0  0  0  0  0  0  0  0  0  0  0
   95.8286    7.5752   95.3709 N   0  0  0  0  0  0  0  0  0  0  0  0
   94.6124    8.0785   95.2507 C   0  0  0  0  0  0  0  0  0  0  0  0
   94.3451    8.8723   96.2253 N   0  0  0  0  0  0  0  0  0  0  0  0
  1 24  1  0  0  0  0
  1  4  2  0  0  0  0
  2 13  1  0  0  0  0
  2 21  1  0  0  0  0
  3 16  1  0  0  0  0
  4 18  1  0  0  0  0
  5 19  2  0  0  0  0
  5 16  1  0  0  0  0
  6 16  2  0  0  0  0
  6 17  1  0  0  0  0
  7 17  1  0  0  0  0
 11 25  2  0  0  0  0
 12 26  2  0  0  0  0
 13 25  1  0  0  0  0
 14 23  1  0  0  0  0
 15 26  1  0  0  0  0
 17 18  2  0  0  0  0
 18 19  1  0  0  0  0
 19 24  1  0  0  0  0
 20 10  1  6  0  0  0
 20 22  1  0  0  0  0
 20 23  1  0  0  0  0
 21 14  1  1  0  0  0
 21 22  1  0  0  0  0
 22 15  1  6  0  0  0
 23 24  1  1  0  0  0
 25  8  1  1  0  0  0
 25 32  1  0  0  0  0
 26  9  1  6  0  0  0
 26 28  1  0  0  0  0
 27 28  1  0  0  0  0
 29 27  1  6  0  0  0
 29 30  1  0  0  0  0
 29 31  1  0  0  0  0
 30 35  1  0  0  0  0
 31 33  1  0  0  0  0
 31 32  1  1  0  0  0
 33 34  1  1  0  0  0
 33 35  1  0  0  0  0
 35 45  1  6  0  0  0
 36 41  2  0  0  0  0
 36 37  1  0  0  0  0
 37 38  2  0  0  0  0
 38 39  1  0  0  0  0
 39 40  2  0  0  0  0
 39 45  1  0  0  0  0
 40 41  1  0  0  0  0
 40 43  1  0  0  0  0
 41 42  1  0  0  0  0
 43 44  2  0  0  0  0
 44 45  1  0  0  0  0
M  CHG  4   8  -1   9  -1  11  -1  12  -1
M  END
>  <CHROM.1>
159.10241172,162.94049490,95.03370654,12.59120308,95.21873553,-1.37603523
0.71477443,2.73009910

>  <Name>
ligand

>  <RI>
0

>  <Rbt.Current_Directory>
/home/itssahil/PROJECTS/Mol_Feturizer/New_Systems/rnas/4YAZ

>  <Rbt.Executable>
rbdock ($Id: //depot/dev/client3/rdock/2013.1/src/exe/rbdock.cxx#4 $)

>  <Rbt.Library>
libRbt.so (2013.1, Build901 2013/11/27)

>  <Rbt.Parameter_File>
/export/apps/rDock/src/rDock_2013.1_src/data/scripts/dock_solv.prm

>  <Rbt.Receptor>
prm/pocket_docking_7.prm

>  <SCORE>
-13.287

>  <SCORE.INTER>
-13.2078

>  <SCORE.INTER.CONST>
1

>  <SCORE.INTER.POLAR>
0

>  <SCORE.INTER.ROT>
2

>  <SCORE.INTER.SOLV>
39.2767

>  <SCORE.INTER.VDW>
-26.8308

>  <SCORE.INTER.norm>
-0.293507

>  <SCORE.INTRA>
-0.0791558

>  <SCORE.INTRA.DIHEDRAL>
-0.102068

>  <SCORE.INTRA.DIHEDRAL.0>
2.39103

>  <SCORE.INTRA.POLAR>
0

>  <SCORE.INTRA.POLAR.0>
0

>  <SCORE.INTRA.REPUL>
0

>  <SCORE.INTRA.REPUL.0>
0

>  <SCORE.INTRA.SOLV>
0.0890585

>  <SCORE.INTRA.SOLV.lig_0>
-163.975

>  <SCORE.INTRA.VDW>
-0.0726512

>  <SCORE.INTRA.VDW.0>
-1.49176

>  <SCORE.INTRA.norm>
-0.00175902

>  <SCORE.RESTR>
0

>  <SCORE.RESTR.CAVITY>
0

>  <SCORE.RESTR.norm>
0

>  <SCORE.SYSTEM>
0

>  <SCORE.SYSTEM.CONST>
0

>  <SCORE.SYSTEM.DIHEDRAL>
0

>  <SCORE.SYSTEM.SOLV>
0

>  <SCORE.SYSTEM.norm>
0

>  <SCORE.heavy>
45

>  <SCORE.norm>
-0.295266

>  <RMSD>
4.077

$$$$
ligand
 OpenBabel11021811513D
libRbt.so/2013.1/901 2013/11/27
 45 51  0  0  0  0  0  0  0  0999 V2000
   96.5331   16.3563   94.1834 C   0  0  0  0  0  0  0  0  0  0  0  0
   92.5751   14.4367   94.2791 C   0  0  0  0  0  0  0  0  0  0  0  0
   99.8629   12.1197   92.3485 N   0  0  0  0  0  0  0  0  0  0  0  0
   97.5864   16.2471   94.9264 N   0  0  0  0  0  0  0  0  0  0  0  0
   98.1646   13.6868   92.6896 N   0  0  0  0  0  0  0  0  0  0  0  0
  100.0000   13.6395   94.1196 N   0  0  0  0  0  0  0  0  0  0  0  0
  100.2050   15.2264   95.9124 O   0  0  0  0  0  0  0  0  0  0  0  0
   91.7763   15.3926   97.1121 O   0  5  0  0  0  0  0  0  0  0  0  0
   93.1703   10.1330   91.7746 O   0  5  0  0  0  0  0  0  0  0  0  0
   95.0650   13.7247   90.7022 O   0  0  0  0  0  0  0  0  0  0  0  0
   93.7596   14.6231   97.7663 O   0  5  0  0  0  0  0  0  0  0  0  0
   95.2815   10.8133   92.0504 O   0  5  0  0  0  0  0  0  0  0  0  0
   93.2629   14.9754   95.3360 O   0  0  0  0  0  0  0  0  0  0  0  0
   94.1965   15.7884   92.8527 O   0  0  0  0  0  0  0  0  0  0  0  0
   93.3411   12.4578   92.2235 O   0  0  0  0  0  0  0  0  0  0  0  0
   99.3070   13.1999   93.0986 C   0  0  0  0  0  0  0  0  0  0  0  0
   99.5425   14.6680   94.8208 C   0  0  0  0  0  0  0  0  0  0  0  0
   98.3024   15.2361   94.4514 C   0  0  0  0  0  0  0  0  0  0  0  0
   97.6314   14.7314   93.3648 C   0  0  0  0  0  0  0  0  0  0  0  0
   95.3140   14.0310   92.0228 C   0  0  2  0  0  0  0  0  0  0  0  0
   93.3292   14.5281   93.0139 C   0  0  1  0  0  0  0  0  0  0  0  0
   94.0407   13.5126   92.8732 C   0  0  1  0  0  0  0  0  0  0  0  0
   95.5090   15.3067   92.3008 C   0  0  2  0  0  0  0  0  0  0  0  0
   96.5240   15.4669   93.2605 N   0  0  0  0  0  0  0  0  0  0  0  0
   92.7865   14.4899   96.7394 P   0  0  2  0  0  0  0  0  0  0  0  0
   93.9319   11.0598   92.4961 P   0  0  1  0  0  0  0  0  0  0  0  0
   92.4428   10.9493   94.6391 C   0  0  0  0  0  0  0  0  0  0  0  0
   93.7050   10.6992   94.0002 O   0  0  0  0  0  0  0  0  0  0  0  0
   92.4801   10.9416   96.1091 C   0  0  1  0  0  0  0  0  0  0  0  0
   93.3859    9.6989   96.5760 O   0  0  0  0  0  0  0  0  0  0  0  0
   93.0714   11.9674   96.5308 C   0  0  1  0  0  0  0  0  0  0  0  0
   92.1707   13.0851   96.7073 O   0  0  0  0  0  0  0  0  0  0  0  0
   93.7508   11.5017   97.8097 C   0  0  1  0  0  0  0  0  0  0  0  0
   92.9426   11.5559   98.7770 O   0  0  0  0  0  0  0  0  0  0  0  0
   94.1007   10.0377   97.5426 C   0  0  2  0  0  0  0  0  0  0  0  0
   97.5462    6.3749   96.4718 N   0  0  0  0  0  0  0  0  0  0  0  0
   96.1940    6.2437   96.5039 C   0  0  0  0  0  0  0  0  0  0  0  0
   95.4814    7.3248   96.7970 N   0  0  0  0  0  0  0  0  0  0  0  0
   96.0137    8.5214   97.1254 C   0  0  0  0  0  0  0  0  0  0  0  0
   97.4140    8.6967   97.1030 C   0  0  0  0  0  0  0  0  0  0  0  0
   98.1721    7.5306   96.7645 C   0  0  0  0  0  0  0  0  0  0  0  0
   99.5960    7.6087   96.7397 N   0  0  0  0  0  0  0  0  0  0  0  0
   97.6354    9.9267   97.4096 N   0  0  0  0  0  0  0  0  0  0  0  0
   96.4773   10.5349   97.5986 C   0  0  0  0  0  0  0  0  0  0  0  0
   95.4985    9.7147   97.4548 N   0  0  0  0  0  0  0  0  0  0  0  0
  1 24  1  0  0  0  0
  1  4  2  0  0  0  0
  2 13  1  0  0  0  0
  2 21  1  0  0  0  0
  3 16  1  0  0  0  0
  4 18  1  0  0  0  0
  5 19  2  0  0  0  0
  5 16  1  0  0  0  0
  6 16  2  0  0  0  0
  6 17  1  0  0  0  0
  7 17  1  0  0  0  0
 11 25  2  0  0  0  0
 12 26  2  0  0  0  0
 13 25  1  0  0  0  0
 14 23  1  0  0  0  0
 15 26  1  0  0  0  0
 17 18  2  0  0  0  0
 18 19  1  0  0  0  0
 19 24  1  0  0  0  0
 20 10  1  6  0  0  0
 20 22  1  0  0  0  0
 20 23  1  0  0  0  0
 21 14  1  1  0  0  0
 21 22  1  0  0  0  0
 22 15  1  6  0  0  0
 23 24  1  1  0  0  0
 25  8  1  1  0  0  0
 25 32  1  0  0  0  0
 26  9  1  6  0  0  0
 26 28  1  0  0  0  0
 27 28  1  0  0  0  0
 29 27  1  6  0  0  0
 29 30  1  0  0  0  0
 29 31  1  0  0  0  0
 30 35  1  0  0  0  0
 31 33  1  0  0  0  0
 31 32  1  1  0  0  0
 33 34  1  1  0  0  0
 33 35  1  0  0  0  0
 35 45  1  6  0  0  0
 36 41  2  0  0  0  0
 36 37  1  0  0  0  0
 37 38  2  0  0  0  0
 38 39  1  0  0  0  0
 39 40  2  0  0  0  0
 39 45  1  0  0  0  0
 40 41  1  0  0  0  0
 40 43  1  0  0  0  0
 41 42  1  0  0  0  0
 43 44  2  0  0  0  0
 44 45  1  0  0  0  0
M  CHG  4   8  -1   9  -1  11  -1  12  -1
M  END
>  <CHROM.1>
-27.99711182,-48.83421764,95.32207329,12.26594469,94.96631625,-1.65897797
-0.24933107,2.65600325

>  <Name>
ligand

>  <RI>
0

>  <Rbt.Current_Directory>
/home/itssahil/PROJECTS/Mol_Feturizer/New_Systems/rnas/4YAZ

>  <Rbt.Executable>
rbdock ($Id: //depot/dev/client3/rdock/2013.1/src/exe/rbdock.cxx#4 $)

>  <Rbt.Library>
libRbt.so (2013.1, Build901 2013/11/27)

>  <Rbt.Parameter_File>
/export/apps/rDock/src/rDock_2013.1_src/data/scripts/dock_solv.prm

>  <Rbt.Receptor>
prm/pocket_docking_5.prm

>  <SCORE>
-19.2965

>  <SCORE.INTER>
-19.8951

>  <SCORE.INTER.CONST>
1

>  <SCORE.INTER.POLAR>
0

>  <SCORE.INTER.ROT>
2

>  <SCORE.INTER.SOLV>
24.8359

>  <SCORE.INTER.VDW>
-26.4754

>  <SCORE.INTER.norm>
-0.442114

>  <SCORE.INTRA>
0.598594

>  <SCORE.INTRA.DIHEDRAL>
0.0651266

>  <SCORE.INTRA.DIHEDRAL.0>
2.39103

>  <SCORE.INTRA.POLAR>
0

>  <SCORE.INTRA.POLAR.0>
0

>  <SCORE.INTRA.REPUL>
0

>  <SCORE.INTRA.REPUL.0>
0

>  <SCORE.INTRA.SOLV>
0.0325061

>  <SCORE.INTRA.SOLV.lig_0>
-163.975

>  <SCORE.INTRA.VDW>
0.549778

>  <SCORE.INTRA.VDW.0>
-1.49176

>  <SCORE.INTRA.norm>
0.0133021

>  <SCORE.RESTR>
0

>  <SCORE.RESTR.CAVITY>
0

>  <SCORE.RESTR.norm>
0

>  <SCORE.SYSTEM>
0

>  <SCORE.SYSTEM.CONST>
0

>  <SCORE.SYSTEM.DIHEDRAL>
0

>  <SCORE.SYSTEM.SOLV>
0

>  <SCORE.SYSTEM.norm>
0

>  <SCORE.heavy>
45

>  <SCORE.norm>
-0.428811

>  <RMSD>
4.345

$$$$
ligand
 OpenBabel11021811513D
libRbt.so/2013.1/901 2013/11/27
 45 51  0  0  0  0  0  0  0  0999 V2000
   96.7545   15.3394   95.5946 C   0  0  0  0  0  0  0  0  0  0  0  0
   95.5661   11.5850   92.2494 C   0  0  0  0  0  0  0  0  0  0  0  0
   91.5437   15.0545   93.3210 N   0  0  0  0  0  0  0  0  0  0  0  0
   95.8526   15.6092   96.4817 N   0  0  0  0  0  0  0  0  0  0  0  0
   93.8429   15.0597   93.7336 N   0  0  0  0  0  0  0  0  0  0  0  0
   92.3571   15.5576   95.4542 N   0  0  0  0  0  0  0  0  0  0  0  0
   93.1539   16.0180   97.6740 O   0  0  0  0  0  0  0  0  0  0  0  0
   92.6797   10.5072   92.5405 O   0  5  0  0  0  0  0  0  0  0  0  0
  100.2530   10.1667   93.3309 O   0  5  0  0  0  0  0  0  0  0  0  0
   99.0945   14.1738   92.8399 O   0  0  0  0  0  0  0  0  0  0  0  0
   92.9092   10.9131   94.7168 O   0  5  0  0  0  0  0  0  0  0  0  0
   99.8904   11.7803   94.8345 O   0  5  0  0  0  0  0  0  0  0  0  0
   94.5037   11.9020   93.0564 O   0  0  0  0  0  0  0  0  0  0  0  0
   96.0379   14.0880   92.3036 O   0  0  0  0  0  0  0  0  0  0  0  0
   98.4833   11.6240   92.7143 O   0  0  0  0  0  0  0  0  0  0  0  0
   92.6412   15.2442   94.2145 C   0  0  0  0  0  0  0  0  0  0  0  0
   93.3428   15.7034   96.3295 C   0  0  0  0  0  0  0  0  0  0  0  0
   94.6723   15.5396   95.8795 C   0  0  0  0  0  0  0  0  0  0  0  0
   94.8989   15.2030   94.5677 C   0  0  0  0  0  0  0  0  0  0  0  0
   97.9160   13.9554   93.5206 C   0  0  2  0  0  0  0  0  0  0  0  0
   96.5844   12.6525   92.2174 C   0  0  1  0  0  0  0  0  0  0  0  0
   97.4164   12.4687   93.1292 C   0  0  1  0  0  0  0  0  0  0  0  0
   96.9336   14.8027   93.2763 C   0  0  2  0  0  0  0  0  0  0  0  0
   96.2239   15.1081   94.4510 N   0  0  0  0  0  0  0  0  0  0  0  0
   93.6594   10.6802   93.5327 P   0  0  2  0  0  0  0  0  0  0  0  0
   99.2182   10.9326   93.8804 P   0  0  1  0  0  0  0  0  0  0  0  0
   97.4383    9.0254   93.7501 C   0  0  0  0  0  0  0  0  0  0  0  0
   98.2508    9.9016   94.5477 O   0  0  0  0  0  0  0  0  0  0  0  0
   96.3121    8.4045   94.4633 C   0  0  1  0  0  0  0  0  0  0  0  0
   96.8410    7.9232   95.9026 O   0  0  0  0  0  0  0  0  0  0  0  0
   95.4253    9.2633   94.6996 C   0  0  1  0  0  0  0  0  0  0  0  0
   94.4777    9.3850   93.6139 O   0  0  0  0  0  0  0  0  0  0  0  0
   94.8146    8.8097   96.0169 C   0  0  1  0  0  0  0  0  0  0  0  0
   93.9290    7.9356   95.8085 O   0  0  0  0  0  0  0  0  0  0  0  0
   95.9762    8.1626   96.7713 C   0  0  2  0  0  0  0  0  0  0  0  0
   94.5997   11.1076  100.7546 N   0  0  0  0  0  0  0  0  0  0  0  0
   93.8147   10.7117   99.7183 C   0  0  0  0  0  0  0  0  0  0  0  0
   94.3691    9.9403   98.7910 N   0  0  0  0  0  0  0  0  0  0  0  0
   95.6702    9.5799   98.7790 C   0  0  0  0  0  0  0  0  0  0  0  0
   96.5169    9.9715   99.8380 C   0  0  0  0  0  0  0  0  0  0  0  0
   95.9039   10.7848  100.8439 C   0  0  0  0  0  0  0  0  0  0  0  0
   96.6899   11.2467  101.9407 N   0  0  0  0  0  0  0  0  0  0  0  0
   97.6720    9.4595   99.5938 N   0  0  0  0  0  0  0  0  0  0  0  0
   97.6012    8.7602   98.4745 C   0  0  0  0  0  0  0  0  0  0  0  0
   96.4256    8.8332   97.9605 N   0  0  0  0  0  0  0  0  0  0  0  0
  1 24  1  0  0  0  0
  1  4  2  0  0  0  0
  2 13  1  0  0  0  0
  2 21  1  0  0  0  0
  3 16  1  0  0  0  0
  4 18  1  0  0  0  0
  5 19  2  0  0  0  0
  5 16  1  0  0  0  0
  6 16  2  0  0  0  0
  6 17  1  0  0  0  0
  7 17  1  0  0  0  0
 11 25  2  0  0  0  0
 12 26  2  0  0  0  0
 13 25  1  0  0  0  0
 14 23  1  0  0  0  0
 15 26  1  0  0  0  0
 17 18  2  0  0  0  0
 18 19  1  0  0  0  0
 19 24  1  0  0  0  0
 20 10  1  6  0  0  0
 20 22  1  0  0  0  0
 20 23  1  0  0  0  0
 21 14  1  1  0  0  0
 21 22  1  0  0  0  0
 22 15  1  6  0  0  0
 23 24  1  1  0  0  0
 25  8  1  6  0  0  0
 25 32  1  0  0  0  0
 26  9  1  6  0  0  0
 26 28  1  0  0  0  0
 27 28  1  0  0  0  0
 29 27  1  6  0  0  0
 29 30  1  0  0  0  0
 29 31  1  0  0  0  0
 30 35  1  0  0  0  0
 31 33  1  0  0  0  0
 31 32  1  6  0  0  0
 33 34  1  6  0  0  0
 33 35  1  0  0  0  0
 35 45  1  1  0  0  0
 36 41  2  0  0  0  0
 36 37  1  0  0  0  0
 37 38  2  0  0  0  0
 38 39  1  0  0  0  0
 39 40  2  0  0  0  0
 39 45  1  0  0  0  0
 40 41  1  0  0  0  0
 40 43  1  0  0  0  0
 41 42  1  0  0  0  0
 43 44  2  0  0  0  0
 44 45  1  0  0  0  0
M  CHG  4   8  -1   9  -1  11  -1  12  -1
M  END
>  <CHROM.1>
158.04610531,155.48316353,95.82037764,11.70719318,95.32469961,1.84515444
0.84921427,-0.94127497

>  <Name>
ligand

>  <RI>
0

>  <Rbt.Current_Directory>
/home/itssahil/PROJECTS/Mol_Feturizer/New_Systems/rnas/4YAZ

>  <Rbt.Executable>
rbdock ($Id: //depot/dev/client3/rdock/2013.1/src/exe/rbdock.cxx#4 $)

>  <Rbt.Library>
libRbt.so (2013.1, Build901 2013/11/27)

>  <Rbt.Parameter_File>
/export/apps/rDock/src/rDock_2013.1_src/data/scripts/dock_solv.prm

>  <Rbt.Receptor>
prm/pocket_docking_6.prm

>  <SCORE>
-20.8055

>  <SCORE.INTER>
-20.7641

>  <SCORE.INTER.CONST>
1

>  <SCORE.INTER.POLAR>
0

>  <SCORE.INTER.ROT>
2

>  <SCORE.INTER.SOLV>
20.6812

>  <SCORE.INTER.VDW>
-25.6698

>  <SCORE.INTER.norm>
-0.461424

>  <SCORE.INTRA>
-0.0414081

>  <SCORE.INTRA.DIHEDRAL>
-0.120864

>  <SCORE.INTRA.DIHEDRAL.0>
2.39103

>  <SCORE.INTRA.POLAR>
0

>  <SCORE.INTRA.POLAR.0>
0

>  <SCORE.INTRA.REPUL>
0

>  <SCORE.INTRA.REPUL.0>
0

>  <SCORE.INTRA.SOLV>
0.0445696

>  <SCORE.INTRA.SOLV.lig_0>
-163.975

>  <SCORE.INTRA.VDW>
-0.00326108

>  <SCORE.INTRA.VDW.0>
-1.49176

>  <SCORE.INTRA.norm>
-0.000920179

>  <SCORE.RESTR>
0

>  <SCORE.RESTR.CAVITY>
0

>  <SCORE.RESTR.norm>
0

>  <SCORE.SYSTEM>
0

>  <SCORE.SYSTEM.CONST>
0

>  <SCORE.SYSTEM.DIHEDRAL>
0

>  <SCORE.SYSTEM.SOLV>
0

>  <SCORE.SYSTEM.norm>
0

>  <SCORE.heavy>
45

>  <SCORE.norm>
-0.462344

>  <RMSD>
4.365

$$$$
ligand
 OpenBabel11021811513D
libRbt.so/2013.1/901 2013/11/27
 45 51  0  0  0  0  0  0  0  0999 V2000
   95.9735   15.6987   96.2118 C   0  0  0  0  0  0  0  0  0  0  0  0
   95.0873   12.0371   92.6577 C   0  0  0  0  0  0  0  0  0  0  0  0
   90.7560   14.8639   94.0944 N   0  0  0  0  0  0  0  0  0  0  0  0
   95.0802   15.8013   97.1417 N   0  0  0  0  0  0  0  0  0  0  0  0
   93.0502   15.1447   94.4324 N   0  0  0  0  0  0  0  0  0  0  0  0
   91.5821   15.3526   96.2261 N   0  0  0  0  0  0  0  0  0  0  0  0
   92.4006   15.7923   98.4421 O   0  0  0  0  0  0  0  0  0  0  0  0
   92.3499   10.6250   92.9580 O   0  5  0  0  0  0  0  0  0  0  0  0
   99.9381   11.0881   93.5043 O   0  5  0  0  0  0  0  0  0  0  0  0
   98.3278   14.9628   93.3211 O   0  0  0  0  0  0  0  0  0  0  0  0
   92.6120   10.9130   95.1493 O   0  5  0  0  0  0  0  0  0  0  0  0
   99.4546   12.5504   95.1242 O   0  5  0  0  0  0  0  0  0  0  0  0
   94.0264   12.1799   93.5147 O   0  0  0  0  0  0  0  0  0  0  0  0
   95.2818   14.5685   92.8686 O   0  0  0  0  0  0  0  0  0  0  0  0
   97.9974   12.3738   93.0398 O   0  0  0  0  0  0  0  0  0  0  0  0
   91.8547   15.1458   94.9616 C   0  0  0  0  0  0  0  0  0  0  0  0
   92.5748   15.5776   97.0762 C   0  0  0  0  0  0  0  0  0  0  0  0
   93.8956   15.6118   96.5748 C   0  0  0  0  0  0  0  0  0  0  0  0
   94.1113   15.3785   95.2389 C   0  0  0  0  0  0  0  0  0  0  0  0
   97.2060   14.5698   94.0191 C   0  0  2  0  0  0  0  0  0  0  0  0
   95.9799   13.2122   92.6691 C   0  0  1  0  0  0  0  0  0  0  0  0
   96.8595   13.0647   93.5419 C   0  0  1  0  0  0  0  0  0  0  0  0
   96.1279   15.3152   93.8616 C   0  0  2  0  0  0  0  0  0  0  0  0
   95.4320   15.4625   95.0743 N   0  0  0  0  0  0  0  0  0  0  0  0
   93.3399   10.8428   93.9309 P   0  0  2  0  0  0  0  0  0  0  0  0
   98.8458   11.6957   94.1344 P   0  0  1  0  0  0  0  0  0  0  0  0
   97.2836    9.6129   93.9259 C   0  0  0  0  0  0  0  0  0  0  0  0
   98.0229   10.5216   94.7575 O   0  0  0  0  0  0  0  0  0  0  0  0
   96.2594    8.8246   94.6274 C   0  0  1  0  0  0  0  0  0  0  0  0
   96.8900    8.3140   96.0147 O   0  0  0  0  0  0  0  0  0  0  0  0
   95.2924    9.5612   94.9471 C   0  0  1  0  0  0  0  0  0  0  0  0
   94.2984    9.6453   93.9000 O   0  0  0  0  0  0  0  0  0  0  0  0
   94.7837    8.9578   96.2475 C   0  0  1  0  0  0  0  0  0  0  0  0
   93.9928    8.0049   96.0057 O   0  0  0  0  0  0  0  0  0  0  0  0
   96.0361    8.3982   96.9222 C   0  0  2  0  0  0  0  0  0  0  0  0
   94.5214   11.1247  101.0095 N   0  0  0  0  0  0  0  0  0  0  0  0
   93.7589   10.7410   99.9521 C   0  0  0  0  0  0  0  0  0  0  0  0
   94.3486   10.0296   98.9989 N   0  0  0  0  0  0  0  0  0  0  0  0
   95.6628    9.7204   98.9827 C   0  0  0  0  0  0  0  0  0  0  0  0
   96.4870   10.1012  100.0632 C   0  0  0  0  0  0  0  0  0  0  0  0
   95.8365   10.8490  101.0961 C   0  0  0  0  0  0  0  0  0  0  0  0
   96.5972   11.2960  102.2166 N   0  0  0  0  0  0  0  0  0  0  0  0
   97.6625    9.6442   99.8078 N   0  0  0  0  0  0  0  0  0  0  0  0
   97.6259    8.9885   98.6608 C   0  0  0  0  0  0  0  0  0  0  0  0
   96.4517    9.0369   98.1409 N   0  0  0  0  0  0  0  0  0  0  0  0
  1 24  1  0  0  0  0
  1  4  2  0  0  0  0
  2 13  1  0  0  0  0
  2 21  1  0  0  0  0
  3 16  1  0  0  0  0
  4 18  1  0  0  0  0
  5 19  2  0  0  0  0
  5 16  1  0  0  0  0
  6 16  2  0  0  0  0
  6 17  1  0  0  0  0
  7 17  1  0  0  0  0
 11 25  2  0  0  0  0
 12 26  2  0  0  0  0
 13 25  1  0  0  0  0
 14 23  1  0  0  0  0
 15 26  1  0  0  0  0
 17 18  2  0  0  0  0
 18 19  1  0  0  0  0
 19 24  1  0  0  0  0
 20 10  1  6  0  0  0
 20 22  1  0  0  0  0
 20 23  1  0  0  0  0
 21 14  1  1  0  0  0
 21 22  1  0  0  0  0
 22 15  1  6  0  0  0
 23 24  1  1  0  0  0
 25  8  1  6  0  0  0
 25 32  1  0  0  0  0
 26  9  1  6  0  0  0
 26 28  1  0  0  0  0
 27 28  1  0  0  0  0
 29 27  1  1  0  0  0
 29 30  1  0  0  0  0
 29 31  1  0  0  0  0
 30 35  1  0  0  0  0
 31 33  1  0  0  0  0
 31 32  1  6  0  0  0
 33 34  1  6  0  0  0
 33 35  1  0  0  0  0
 35 45  1  1  0  0  0
 36 41  2  0  0  0  0
 36 37  1  0  0  0  0
 37 38  2  0  0  0  0
 38 39  1  0  0  0  0
 39 40  2  0  0  0  0
 39 45  1  0  0  0  0
 40 41  1  0  0  0  0
 40 43  1  0  0  0  0
 41 42  1  0  0  0  0
 43 44  2  0  0  0  0
 44 45  1  0  0  0  0
M  CHG  4   8  -1   9  -1  11  -1  12  -1
M  END
>  <CHROM.1>
159.21119984,150.48526478,95.44048697,11.99932205,95.71697759,2.01372191
0.78239500,-0.98313164

>  <Name>
ligand

>  <RI>
0

>  <Rbt.Current_Directory>
/home/itssahil/PROJECTS/Mol_Feturizer/New_Systems/rnas/4YAZ

>  <Rbt.Executable>
rbdock ($Id: //depot/dev/client3/rdock/2013.1/src/exe/rbdock.cxx#4 $)

>  <Rbt.Library>
libRbt.so (2013.1, Build901 2013/11/27)

>  <Rbt.Parameter_File>
/export/apps/rDock/src/rDock_2013.1_src/data/scripts/dock_solv.prm

>  <Rbt.Receptor>
prm/pocket_docking_6.prm

>  <SCORE>
-22.4303

>  <SCORE.INTER>
-22.4087

>  <SCORE.INTER.CONST>
1

>  <SCORE.INTER.POLAR>
0

>  <SCORE.INTER.ROT>
2

>  <SCORE.INTER.SOLV>
20.8822

>  <SCORE.INTER.VDW>
-26.8332

>  <SCORE.INTER.norm>
-0.497971

>  <SCORE.INTRA>
-0.0215732

>  <SCORE.INTRA.DIHEDRAL>
-0.12239

>  <SCORE.INTRA.DIHEDRAL.0>
2.39103

>  <SCORE.INTRA.POLAR>
0

>  <SCORE.INTRA.POLAR.0>
0

>  <SCORE.INTRA.REPUL>
0

>  <SCORE.INTRA.REPUL.0>
0

>  <SCORE.INTRA.SOLV>
0.110037

>  <SCORE.INTRA.SOLV.lig_0>
-163.975

>  <SCORE.INTRA.VDW>
-0.0153969

>  <SCORE.INTRA.VDW.0>
-1.49176

>  <SCORE.INTRA.norm>
-0.000479405

>  <SCORE.RESTR>
0

>  <SCORE.RESTR.CAVITY>
0

>  <SCORE.RESTR.norm>
0

>  <SCORE.SYSTEM>
0

>  <SCORE.SYSTEM.CONST>
0

>  <SCORE.SYSTEM.DIHEDRAL>
0

>  <SCORE.SYSTEM.SOLV>
0

>  <SCORE.SYSTEM.norm>
0

>  <SCORE.heavy>
45

>  <SCORE.norm>
-0.498451

>  <RMSD>
4.378

$$$$
ligand
 OpenBabel11021811513D
libRbt.so/2013.1/901 2013/11/27
 45 51  0  0  0  0  0  0  0  0999 V2000
   99.0408   12.4623   92.6711 C   0  0  0  0  0  0  0  0  0  0  0  0
   93.9997   14.0967   92.7341 C   0  0  0  0  0  0  0  0  0  0  0  0
   97.0374   17.6025   94.0738 N   0  0  0  0  0  0  0  0  0  0  0  0
   99.7586   12.9937   93.6068 N   0  0  0  0  0  0  0  0  0  0  0  0
   97.4509   15.5100   93.1215 N   0  0  0  0  0  0  0  0  0  0  0  0
   98.8402   16.3084   94.8091 N   0  0  0  0  0  0  0  0  0  0  0  0
  100.6648   14.9795   95.6333 O   0  0  0  0  0  0  0  0  0  0  0  0
   93.4554   16.4733   94.6402 O   0  5  0  0  0  0  0  0  0  0  0  0
   93.0706    9.1756   92.4745 O   0  5  0  0  0  0  0  0  0  0  0  0
   96.2427   11.0492   90.4577 O   0  0  0  0  0  0  0  0  0  0  0  0
   94.9578   15.5386   95.9901 O   0  5  0  0  0  0  0  0  0  0  0  0
   95.2620    9.2187   92.9129 O   0  5  0  0  0  0  0  0  0  0  0  0
   94.7762   14.8306   93.5937 O   0  0  0  0  0  0  0  0  0  0  0  0
   96.0933   14.0381   91.2836 O   0  0  0  0  0  0  0  0  0  0  0  0
   94.0809   11.2543   91.9327 O   0  0  0  0  0  0  0  0  0  0  0  0
   97.8241   16.4140   93.9891 C   0  0  0  0  0  0  0  0  0  0  0  0
   99.5747   15.2043   94.7946 C   0  0  0  0  0  0  0  0  0  0  0  0
   99.2450   14.1888   93.8688 C   0  0  0  0  0  0  0  0  0  0  0  0
   98.1615   14.3610   93.0431 C   0  0  0  0  0  0  0  0  0  0  0  0
   96.5104   11.8511   91.5464 C   0  0  2  0  0  0  0  0  0  0  0  0
   94.8059   13.3409   91.7560 C   0  0  1  0  0  0  0  0  0  0  0  0
   95.0876   12.2175   92.2207 C   0  0  1  0  0  0  0  0  0  0  0  0
   97.1564   12.9757   91.3000 C   0  0  2  0  0  0  0  0  0  0  0  0
   98.0978   13.2505   92.3074 N   0  0  0  0  0  0  0  0  0  0  0  0
   94.0693   15.2413   94.9218 P   0  0  2  0  0  0  0  0  0  0  0  0
   94.0819   10.0481   92.8933 P   0  0  1  0  0  0  0  0  0  0  0  0
   92.5375   11.4299   94.4831 C   0  0  0  0  0  0  0  0  0  0  0  0
   93.6468   10.5328   94.3145 O   0  0  0  0  0  0  0  0  0  0  0  0
   92.4819   12.1085   95.7865 C   0  0  1  0  0  0  0  0  0  0  0  0
   92.8212   11.0257   96.9246 O   0  0  0  0  0  0  0  0  0  0  0  0
   93.3911   12.9731   95.8615 C   0  0  1  0  0  0  0  0  0  0  0  0
   92.9712   14.2560   95.3424 O   0  0  0  0  0  0  0  0  0  0  0  0
   93.7669   12.9858   97.3355 C   0  0  1  0  0  0  0  0  0  0  0  0
   92.9834   13.7372   97.9785 O   0  0  0  0  0  0  0  0  0  0  0  0
   93.5524   11.5435   97.7947 C   0  0  2  0  0  0  0  0  0  0  0  0
   96.9564    7.9686   96.3572 N   0  0  0  0  0  0  0  0  0  0  0  0
   95.8515    8.3694   95.6749 C   0  0  0  0  0  0  0  0  0  0  0  0
   95.1049    9.3199   96.2241 N   0  0  0  0  0  0  0  0  0  0  0  0
   95.3367    9.8637   97.4380 C   0  0  0  0  0  0  0  0  0  0  0  0
   96.4742    9.4732   98.1766 C   0  0  0  0  0  0  0  0  0  0  0  0
   97.2845    8.4636   97.5656 C   0  0  0  0  0  0  0  0  0  0  0  0
   98.4424    7.9908   98.2510 N   0  0  0  0  0  0  0  0  0  0  0  0
   96.4694   10.1730   99.2565 N   0  0  0  0  0  0  0  0  0  0  0  0
   95.4271   10.9854   99.2344 C   0  0  0  0  0  0  0  0  0  0  0  0
   94.7268   10.8058   98.1719 N   0  0  0  0  0  0  0  0  0  0  0  0
  1 24  1  0  0  0  0
  1  4  2  0  0  0  0
  2 13  1  0  0  0  0
  2 21  1  0  0  0  0
  3 16  1  0  0  0  0
  4 18  1  0  0  0  0
  5 19  2  0  0  0  0
  5 16  1  0  0  0  0
  6 16  2  0  0  0  0
  6 17  1  0  0  0  0
  7 17  1  0  0  0  0
 11 25  2  0  0  0  0
 12 26  2  0  0  0  0
 13 25  1  0  0  0  0
 14 23  1  0  0  0  0
 15 26  1  0  0  0  0
 17 18  2  0  0  0  0
 18 19  1  0  0  0  0
 19 24  1  0  0  0  0
 20 10  1  6  0  0  0
 20 22  1  0  0  0  0
 20 23  1  0  0  0  0
 21 14  1  1  0  0  0
 21 22  1  0  0  0  0
 22 15  1  6  0  0  0
 23 24  1  1  0  0  0
 25  8  1  6  0  0  0
 25 32  1  0  0  0  0
 26  9  1  6  0  0  0
 26 28  1  0  0  0  0
 27 28  1  0  0  0  0
 29 27  1  6  0  0  0
 29 30  1  0  0  0  0
 29 31  1  0  0  0  0
 30 35  1  0  0  0  0
 31 33  1  0  0  0  0
 31 32  1  1  0  0  0
 33 34  1  1  0  0  0
 33 35  1  0  0  0  0
 35 45  1  6  0  0  0
 36 41  2  0  0  0  0
 36 37  1  0  0  0  0
 37 38  2  0  0  0  0
 38 39  1  0  0  0  0
 39 40  2  0  0  0  0
 39 45  1  0  0  0  0
 40 41  1  0  0  0  0
 40 43  1  0  0  0  0
 41 42  1  0  0  0  0
 43 44  2  0  0  0  0
 44 45  1  0  0  0  0
M  CHG  4   8  -1   9  -1  11  -1  12  -1
M  END
>  <CHROM.1>
172.03189499,21.94224395,95.60356814,12.45217885,94.68255755,-0.97011808
0.93047717,2.06211024

>  <Name>
ligand

>  <RI>
0

>  <Rbt.Current_Directory>
/home/itssahil/PROJECTS/Mol_Feturizer/New_Systems/rnas/4YAZ

>  <Rbt.Executable>
rbdock ($Id: //depot/dev/client3/rdock/2013.1/src/exe/rbdock.cxx#4 $)

>  <Rbt.Library>
libRbt.so (2013.1, Build901 2013/11/27)

>  <Rbt.Parameter_File>
/export/apps/rDock/src/rDock_2013.1_src/data/scripts/dock_solv.prm

>  <Rbt.Receptor>
prm/pocket_docking_7.prm

>  <SCORE>
-15.619

>  <SCORE.INTER>
-16.5375

>  <SCORE.INTER.CONST>
1

>  <SCORE.INTER.POLAR>
0

>  <SCORE.INTER.ROT>
2

>  <SCORE.INTER.SOLV>
34.2479

>  <SCORE.INTER.VDW>
-27.3743

>  <SCORE.INTER.norm>
-0.367499

>  <SCORE.INTRA>
0.915933

>  <SCORE.INTRA.DIHEDRAL>
-0.10618

>  <SCORE.INTRA.DIHEDRAL.0>
2.39103

>  <SCORE.INTRA.POLAR>
0

>  <SCORE.INTRA.POLAR.0>
0

>  <SCORE.INTRA.REPUL>
0

>  <SCORE.INTRA.REPUL.0>
0

>  <SCORE.INTRA.SOLV>
6.63215

>  <SCORE.INTRA.SOLV.lig_0>
-163.975

>  <SCORE.INTRA.VDW>
-2.34705

>  <SCORE.INTRA.VDW.0>
-1.49176

>  <SCORE.INTRA.norm>
0.0203541

>  <SCORE.RESTR>
0.00250626

>  <SCORE.RESTR.CAVITY>
0.00250626

>  <SCORE.RESTR.norm>
5.56946e-05

>  <SCORE.SYSTEM>
0

>  <SCORE.SYSTEM.CONST>
0

>  <SCORE.SYSTEM.DIHEDRAL>
0

>  <SCORE.SYSTEM.SOLV>
0

>  <SCORE.SYSTEM.norm>
0

>  <SCORE.heavy>
45

>  <SCORE.norm>
-0.34709

>  <RMSD>
4.443

$$$$
ligand
 OpenBabel11021811513D
libRbt.so/2013.1/901 2013/11/27
 45 51  0  0  0  0  0  0  0  0999 V2000
   96.2940   15.8883   94.0551 C   0  0  0  0  0  0  0  0  0  0  0  0
   92.2627   14.4619   94.0988 C   0  0  0  0  0  0  0  0  0  0  0  0
   99.5963   12.1504   91.3117 N   0  0  0  0  0  0  0  0  0  0  0  0
   97.3843   15.6693   94.7159 N   0  0  0  0  0  0  0  0  0  0  0  0
   97.8921   13.5841   92.0165 N   0  0  0  0  0  0  0  0  0  0  0  0
   99.7965   13.3178   93.3273 N   0  0  0  0  0  0  0  0  0  0  0  0
  100.0645   14.5488   95.3735 O   0  0  0  0  0  0  0  0  0  0  0  0
   91.6576   15.3055   97.0142 O   0  5  0  0  0  0  0  0  0  0  0  0
   92.3599   10.2897   91.3184 O   0  5  0  0  0  0  0  0  0  0  0  0
   94.5476   13.7519   90.3871 O   0  0  0  0  0  0  0  0  0  0  0  0
   93.5806   14.3161   97.5397 O   0  5  0  0  0  0  0  0  0  0  0  0
   94.5344   10.7532   91.5482 O   0  5  0  0  0  0  0  0  0  0  0  0
   93.0350   14.8666   95.1572 O   0  0  0  0  0  0  0  0  0  0  0  0
   93.9540   15.7461   92.6912 O   0  0  0  0  0  0  0  0  0  0  0  0
   92.7657   12.5555   91.8986 O   0  0  0  0  0  0  0  0  0  0  0  0
   99.0609   13.0583   92.2749 C   0  0  0  0  0  0  0  0  0  0  0  0
   99.3579   14.1865   94.2282 C   0  0  0  0  0  0  0  0  0  0  0  0
   98.0921   14.7822   94.0283 C   0  0  0  0  0  0  0  0  0  0  0  0
   97.3763   14.4715   92.8984 C   0  0  0  0  0  0  0  0  0  0  0  0
   94.8705   13.9493   91.7125 C   0  0  2  0  0  0  0  0  0  0  0  0
   92.9774   14.5636   92.8116 C   0  0  1  0  0  0  0  0  0  0  0  0
   93.5843   13.4977   92.5814 C   0  0  1  0  0  0  0  0  0  0  0  0
   95.1949   15.1813   92.0584 C   0  0  2  0  0  0  0  0  0  0  0  0
   96.2534   15.1858   92.9838 N   0  0  0  0  0  0  0  0  0  0  0  0
   92.5640   14.3389   96.5472 P   0  0  2  0  0  0  0  0  0  0  0  0
   93.2306   11.0944   92.0625 P   0  0  1  0  0  0  0  0  0  0  0  0
   91.8135   10.9859   94.2539 C   0  0  0  0  0  0  0  0  0  0  0  0
   93.0232   10.6614   93.5502 O   0  0  0  0  0  0  0  0  0  0  0  0
   91.9012   10.8813   95.7180 C   0  0  1  0  0  0  0  0  0  0  0  0
   92.7011    9.5331   96.0723 O   0  0  0  0  0  0  0  0  0  0  0  0
   92.6014   11.8193   96.1761 C   0  0  1  0  0  0  0  0  0  0  0  0
   91.8173   13.0019   96.4559 O   0  0  0  0  0  0  0  0  0  0  0  0
   93.2779   11.2125   97.3960 C   0  0  1  0  0  0  0  0  0  0  0  0
   92.5127   11.2794   98.3969 O   0  0  0  0  0  0  0  0  0  0  0  0
   93.4780    9.7424   97.0275 C   0  0  2  0  0  0  0  0  0  0  0  0
   98.0748    9.2402   99.2749 N   0  0  0  0  0  0  0  0  0  0  0  0
   96.9664    9.8266   99.7986 C   0  0  0  0  0  0  0  0  0  0  0  0
   95.8711    9.8433   99.0486 N   0  0  0  0  0  0  0  0  0  0  0  0
   95.8074    9.3752   97.7837 C   0  0  0  0  0  0  0  0  0  0  0  0
   96.9379    8.7592   97.2055 C   0  0  0  0  0  0  0  0  0  0  0  0
   98.1073    8.7268   98.0305 C   0  0  0  0  0  0  0  0  0  0  0  0
   99.3042    8.1437   97.5195 N   0  0  0  0  0  0  0  0  0  0  0  0
   96.5852    8.3736   96.0295 N   0  0  0  0  0  0  0  0  0  0  0  0
   95.3141    8.6834   95.8418 C   0  0  0  0  0  0  0  0  0  0  0  0
   94.8350    9.2979   96.8637 N   0  0  0  0  0  0  0  0  0  0  0  0
  1 24  1  0  0  0  0
  1  4  2  0  0  0  0
  2 13  1  0  0  0  0
  2 21  1  0  0  0  0
  3 16  1  0  0  0  0
  4 18  1  0  0  0  0
  5 19  2  0  0  0  0
  5 16  1  0  0  0  0
  6 16  2  0  0  0  0
  6 17  1  0  0  0  0
  7 17  1  0  0  0  0
 11 25  2  0  0  0  0
 12 26  2  0  0  0  0
 13 25  1  0  0  0  0
 14 23  1  0  0  0  0
 15 26  1  0  0  0  0
 17 18  2  0  0  0  0
 18 19  1  0  0  0  0
 19 24  1  0  0  0  0
 20 10  1  6  0  0  0
 20 22  1  0  0  0  0
 20 23  1  0  0  0  0
 21 14  1  1  0  0  0
 21 22  1  0  0  0  0
 22 15  1  6  0  0  0
 23 24  1  1  0  0  0
 25  8  1  1  0  0  0
 25 32  1  0  0  0  0
 26  9  1  6  0  0  0
 26 28  1  0  0  0  0
 27 28  1  0  0  0  0
 29 27  1  6  0  0  0
 29 30  1  0  0  0  0
 29 31  1  0  0  0  0
 30 35  1  0  0  0  0
 31 33  1  0  0  0  0
 31 32  1  1  0  0  0
 33 34  1  1  0  0  0
 33 35  1  0  0  0  0
 35 45  1  6  0  0  0
 36 41  2  0  0  0  0
 36 37  1  0  0  0  0
 37 38  2  0  0  0  0
 38 39  1  0  0  0  0
 39 40  2  0  0  0  0
 39 45  1  0  0  0  0
 40 41  1  0  0  0  0
 40 43  1  0  0  0  0
 41 42  1  0  0  0  0
 43 44  2  0  0  0  0
 44 45  1  0  0  0  0
M  CHG  4   8  -1   9  -1  11  -1  12  -1
M  END
>  <CHROM.1>
-18.26250661,-177.05241594,94.95817167,12.29876248,94.80458313,-1.65135803
-0.06553262,2.28088818

>  <Name>
ligand

>  <RI>
0

>  <Rbt.Current_Directory>
/home/itssahil/PROJECTS/Mol_Feturizer/New_Systems/rnas/4YAZ

>  <Rbt.Executable>
rbdock ($Id: //depot/dev/client3/rdock/2013.1/src/exe/rbdock.cxx#4 $)

>  <Rbt.Library>
libRbt.so (2013.1, Build901 2013/11/27)

>  <Rbt.Parameter_File>
/export/apps/rDock/src/rDock_2013.1_src/data/scripts/dock_solv.prm

>  <Rbt.Receptor>
prm/pocket_docking_6.prm

>  <SCORE>
-18.783

>  <SCORE.INTER>
-18.9067

>  <SCORE.INTER.CONST>
1

>  <SCORE.INTER.POLAR>
0

>  <SCORE.INTER.ROT>
2

>  <SCORE.INTER.SOLV>
29.1272

>  <SCORE.INTER.VDW>
-27.2469

>  <SCORE.INTER.norm>
-0.420148

>  <SCORE.INTRA>
0.123681

>  <SCORE.INTRA.DIHEDRAL>
0.0095538

>  <SCORE.INTRA.DIHEDRAL.0>
2.39103

>  <SCORE.INTRA.POLAR>
0

>  <SCORE.INTRA.POLAR.0>
0

>  <SCORE.INTRA.REPUL>
0

>  <SCORE.INTRA.REPUL.0>
0

>  <SCORE.INTRA.SOLV>
0.00766683

>  <SCORE.INTRA.SOLV.lig_0>
-163.975

>  <SCORE.INTRA.VDW>
0.115071

>  <SCORE.INTRA.VDW.0>
-1.49176

>  <SCORE.INTRA.norm>
0.00274847

>  <SCORE.RESTR>
0

>  <SCORE.RESTR.CAVITY>
0

>  <SCORE.RESTR.norm>
0

>  <SCORE.SYSTEM>
0

>  <SCORE.SYSTEM.CONST>
0

>  <SCORE.SYSTEM.DIHEDRAL>
0

>  <SCORE.SYSTEM.SOLV>
0

>  <SCORE.SYSTEM.norm>
0

>  <SCORE.heavy>
45

>  <SCORE.norm>
-0.4174

>  <RMSD>
4.448

$$$$
ligand
 OpenBabel11021811513D
libRbt.so/2013.1/901 2013/11/27
 45 51  0  0  0  0  0  0  0  0999 V2000
   96.6580   15.4532   95.4925 C   0  0  0  0  0  0  0  0  0  0  0  0
   95.7594   11.6974   92.0457 C   0  0  0  0  0  0  0  0  0  0  0  0
   91.5762   14.9511   92.9772 N   0  0  0  0  0  0  0  0  0  0  0  0
   95.7047   15.6759   96.3379 N   0  0  0  0  0  0  0  0  0  0  0  0
   93.8513   15.0565   93.4965 N   0  0  0  0  0  0  0  0  0  0  0  0
   92.2665   15.4748   95.1485 N   0  0  0  0  0  0  0  0  0  0  0  0
   92.9380   15.9546   97.4053 O   0  0  0  0  0  0  0  0  0  0  0  0
   92.8991   10.5232   92.1784 O   0  5  0  0  0  0  0  0  0  0  0  0
  100.4313   10.4144   93.3400 O   0  5  0  0  0  0  0  0  0  0  0  0
   99.1676   14.3892   92.8456 O   0  0  0  0  0  0  0  0  0  0  0  0
   93.0076   10.9037   94.3686 O   0  5  0  0  0  0  0  0  0  0  0  0
   99.9422   11.9929   94.8451 O   0  5  0  0  0  0  0  0  0  0  0  0
   94.6487   11.9680   92.8030 O   0  0  0  0  0  0  0  0  0  0  0  0
   96.1455   14.2133   92.1568 O   0  0  0  0  0  0  0  0  0  0  0  0
   98.6473   11.8232   92.6557 O   0  0  0  0  0  0  0  0  0  0  0  0
   92.6215   15.1833   93.9217 C   0  0  0  0  0  0  0  0  0  0  0  0
   93.2029   15.6584   96.0695 C   0  0  0  0  0  0  0  0  0  0  0  0
   94.5579   15.5577   95.6811 C   0  0  0  0  0  0  0  0  0  0  0  0
   94.8599   15.2410   94.3795 C   0  0  0  0  0  0  0  0  0  0  0  0
   97.9647   14.1228   93.4638 C   0  0  2  0  0  0  0  0  0  0  0  0
   96.7425   12.7975   92.0787 C   0  0  1  0  0  0  0  0  0  0  0  0
   97.5341   12.6269   93.0282 C   0  0  1  0  0  0  0  0  0  0  0  0
   96.9682   14.9417   93.1823 C   0  0  2  0  0  0  0  0  0  0  0  0
   96.1919   15.2065   94.3242 N   0  0  0  0  0  0  0  0  0  0  0  0
   93.8225   10.7128   93.2203 P   0  0  2  0  0  0  0  0  0  0  0  0
   99.3461   11.1383   93.8476 P   0  0  1  0  0  0  0  0  0  0  0  0
   97.6384    9.1772   93.6034 C   0  0  0  0  0  0  0  0  0  0  0  0
   98.3813   10.0670   94.4520 O   0  0  0  0  0  0  0  0  0  0  0  0
   96.4994    8.5098   94.2513 C   0  0  1  0  0  0  0  0  0  0  0  0
   96.9722    8.0243   95.7086 O   0  0  0  0  0  0  0  0  0  0  0  0
   95.5743    9.3360   94.4546 C   0  0  1  0  0  0  0  0  0  0  0  0
   94.6779    9.4435   93.3248 O   0  0  0  0  0  0  0  0  0  0  0  0
   94.9146    8.8433   95.7337 C   0  0  1  0  0  0  0  0  0  0  0  0
   94.0695    7.9445   95.4698 O   0  0  0  0  0  0  0  0  0  0  0  0
   96.0582    8.2227   96.5363 C   0  0  2  0  0  0  0  0  0  0  0  0
   94.3884   11.0509  100.4919 N   0  0  0  0  0  0  0  0  0  0  0  0
   93.6682   10.6441   99.4137 C   0  0  0  0  0  0  0  0  0  0  0  0
   94.2936    9.9083   98.5027 N   0  0  0  0  0  0  0  0  0  0  0  0
   95.6062    9.5951   98.5475 C   0  0  0  0  0  0  0  0  0  0  0  0
   96.3871    9.9996   99.6514 C   0  0  0  0  0  0  0  0  0  0  0  0
   95.6979   10.7738  100.6387 C   0  0  0  0  0  0  0  0  0  0  0  0
   96.4140   11.2456  101.7783 N   0  0  0  0  0  0  0  0  0  0  0  0
   97.5703    9.5334   99.4551 N   0  0  0  0  0  0  0  0  0  0  0  0
   97.5781    8.8504   98.3236 C   0  0  0  0  0  0  0  0  0  0  0  0
   96.4262    8.8895   97.7552 N   0  0  0  0  0  0  0  0  0  0  0  0
  1 24  1  0  0  0  0
  1  4  2  0  0  0  0
  2 13  1  0  0  0  0
  2 21  1  0  0  0  0
  3 16  1  0  0  0  0
  4 18  1  0  0  0  0
  5 19  2  0  0  0  0
  5 16  1  0  0  0  0
  6 16  2  0  0  0  0
  6 17  1  0  0  0  0
  7 17  1  0  0  0  0
 11 25  2  0  0  0  0
 12 26  2  0  0  0  0
 13 25  1  0  0  0  0
 14 23  1  0  0  0  0
 15 26  1  0  0  0  0
 17 18  2  0  0  0  0
 18 19  1  0  0  0  0
 19 24  1  0  0  0  0
 20 10  1  6  0  0  0
 20 22  1  0  0  0  0
 20 23  1  0  0  0  0
 21 14  1  1  0  0  0
 21 22  1  0  0  0  0
 22 15  1  6  0  0  0
 23 24  1  1  0  0  0
 25  8  1  6  0  0  0
 25 32  1  0  0  0  0
 26  9  1  6  0  0  0
 26 28  1  0  0  0  0
 27 28  1  0  0  0  0
 29 27  1  1  0  0  0
 29 30  1  0  0  0  0
 29 31  1  0  0  0  0
 30 35  1  0  0  0  0
 31 33  1  0  0  0  0
 31 32  1  6  0  0  0
 33 34  1  6  0  0  0
 33 35  1  0  0  0  0
 35 45  1  1  0  0  0
 36 41  2  0  0  0  0
 36 37  1  0  0  0  0
 37 38  2  0  0  0  0
 38 39  1  0  0  0  0
 39 40  2  0  0  0  0
 39 45  1  0  0  0  0
 40 41  1  0  0  0  0
 40 43  1  0  0  0  0
 41 42  1  0  0  0  0
 43 44  2  0  0  0  0
 44 45  1  0  0  0  0
M  CHG  4   8  -1   9  -1  11  -1  12  -1
M  END
>  <CHROM.1>
158.91912708,155.74273627,95.85731820,11.77619807,95.13272118,1.80517800
0.79028776,-0.90566140

>  <Name>
ligand

>  <RI>
0

>  <Rbt.Current_Directory>
/home/itssahil/PROJECTS/Mol_Feturizer/New_Systems/rnas/4YAZ

>  <Rbt.Executable>
rbdock ($Id: //depot/dev/client3/rdock/2013.1/src/exe/rbdock.cxx#4 $)

>  <Rbt.Library>
libRbt.so (2013.1, Build901 2013/11/27)

>  <Rbt.Parameter_File>
/export/apps/rDock/src/rDock_2013.1_src/data/scripts/dock_solv.prm

>  <Rbt.Receptor>
prm/pocket_docking_4.prm

>  <SCORE>
-20.5896

>  <SCORE.INTER>
-20.5333

>  <SCORE.INTER.CONST>
1

>  <SCORE.INTER.POLAR>
0

>  <SCORE.INTER.ROT>
2

>  <SCORE.INTER.SOLV>
21.5999

>  <SCORE.INTER.VDW>
-25.8221

>  <SCORE.INTER.norm>
-0.456295

>  <SCORE.INTRA>
-0.0562869

>  <SCORE.INTRA.DIHEDRAL>
-0.120646

>  <SCORE.INTRA.DIHEDRAL.0>
2.39103

>  <SCORE.INTRA.POLAR>
0

>  <SCORE.INTRA.POLAR.0>
0

>  <SCORE.INTRA.REPUL>
0

>  <SCORE.INTRA.REPUL.0>
0

>  <SCORE.INTRA.SOLV>
0.0786722

>  <SCORE.INTRA.SOLV.lig_0>
-163.975

>  <SCORE.INTRA.VDW>
-0.0353002

>  <SCORE.INTRA.VDW.0>
-1.49176

>  <SCORE.INTRA.norm>
-0.00125082

>  <SCORE.RESTR>
0

>  <SCORE.RESTR.CAVITY>
0

>  <SCORE.RESTR.norm>
0

>  <SCORE.SYSTEM>
0

>  <SCORE.SYSTEM.CONST>
0

>  <SCORE.SYSTEM.DIHEDRAL>
0

>  <SCORE.SYSTEM.SOLV>
0

>  <SCORE.SYSTEM.norm>
0

>  <SCORE.heavy>
45

>  <SCORE.norm>
-0.457546

>  <RMSD>
4.485

$$$$
ligand
 OpenBabel11021811513D
libRbt.so/2013.1/901 2013/11/27
 45 51  0  0  0  0  0  0  0  0999 V2000
   94.5522   14.7140   96.4680 C   0  0  0  0  0  0  0  0  0  0  0  0
   94.5964   12.0773   92.9350 C   0  0  0  0  0  0  0  0  0  0  0  0
   90.4077   18.3449   95.0386 N   0  0  0  0  0  0  0  0  0  0  0  0
   93.7372   14.8909   97.4569 N   0  0  0  0  0  0  0  0  0  0  0  0
   92.2942   16.9694   95.1138 N   0  0  0  0  0  0  0  0  0  0  0  0
   90.9266   17.1615   96.9869 N   0  0  0  0  0  0  0  0  0  0  0  0
   91.3938   15.9121   98.9856 O   0  0  0  0  0  0  0  0  0  0  0  0
   92.2482   10.0817   93.2195 O   0  5  0  0  0  0  0  0  0  0  0  0
   99.5509   12.2114   93.6988 O   0  5  0  0  0  0  0  0  0  0  0  0
   97.1147   15.6324   93.6564 O   0  0  0  0  0  0  0  0  0  0  0  0
   92.4780   10.3580   95.4159 O   0  5  0  0  0  0  0  0  0  0  0  0
   98.7822   13.4818   95.3696 O   0  5  0  0  0  0  0  0  0  0  0  0
   93.5456   11.9550   93.8075 O   0  0  0  0  0  0  0  0  0  0  0  0
   94.2257   14.5812   93.2244 O   0  0  0  0  0  0  0  0  0  0  0  0
   97.3646   13.0442   93.2964 O   0  0  0  0  0  0  0  0  0  0  0  0
   91.2616   17.4520   95.7543 C   0  0  0  0  0  0  0  0  0  0  0  0
   91.6674   16.3047   97.6767 C   0  0  0  0  0  0  0  0  0  0  0  0
   92.8131   15.7554   97.0580 C   0  0  0  0  0  0  0  0  0  0  0  0
   93.1020   16.0968   95.7597 C   0  0  0  0  0  0  0  0  0  0  0  0
   96.1212   14.9791   94.3535 C   0  0  2  0  0  0  0  0  0  0  0  0
   95.2048   13.4213   92.9742 C   0  0  1  0  0  0  0  0  0  0  0  0
   96.1104   13.4489   93.8324 C   0  0  1  0  0  0  0  0  0  0  0  0
   94.9015   15.4691   94.2314 C   0  0  2  0  0  0  0  0  0  0  0  0
   94.2117   15.4226   95.4557 N   0  0  0  0  0  0  0  0  0  0  0  0
   93.1817   10.4871   94.1882 P   0  0  2  0  0  0  0  0  0  0  0  0
   98.3619   12.5415   94.3596 P   0  0  1  0  0  0  0  0  0  0  0  0
   97.2996   10.1693   94.1017 C   0  0  0  0  0  0  0  0  0  0  0  0
   97.8323   11.1960   94.9538 O   0  0  0  0  0  0  0  0  0  0  0  0
   96.4893    9.1525   94.7887 C   0  0  1  0  0  0  0  0  0  0  0  0
   97.2421    8.7561   96.1522 O   0  0  0  0  0  0  0  0  0  0  0  0
   95.3883    9.6452   95.1421 C   0  0  1  0  0  0  0  0  0  0  0  0
   94.3823    9.5352   94.1089 O   0  0  0  0  0  0  0  0  0  0  0  0
   95.0497    8.9064   96.4280 C   0  0  1  0  0  0  0  0  0  0  0  0
   94.4869    7.8084   96.1644 O   0  0  0  0  0  0  0  0  0  0  0  0
   96.4070    8.6214   97.0711 C   0  0  2  0  0  0  0  0  0  0  0  0
   94.4122   11.1959  101.0494 N   0  0  0  0  0  0  0  0  0  0  0  0
   93.7494   10.7356   99.9559 C   0  0  0  0  0  0  0  0  0  0  0  0
   94.4571   10.0834   99.0414 N   0  0  0  0  0  0  0  0  0  0  0  0
   95.7944    9.9059   99.0978 C   0  0  0  0  0  0  0  0  0  0  0  0
   96.5175   10.3696  100.2177 C   0  0  0  0  0  0  0  0  0  0  0  0
   95.7416   11.0521  101.2083 C   0  0  0  0  0  0  0  0  0  0  0  0
   96.3928   11.5755  102.3641 N   0  0  0  0  0  0  0  0  0  0  0  0
   97.7444   10.0307  100.0290 N   0  0  0  0  0  0  0  0  0  0  0  0
   97.8347    9.3713   98.8871 C   0  0  0  0  0  0  0  0  0  0  0  0
   96.6912    9.3017   98.3049 N   0  0  0  0  0  0  0  0  0  0  0  0
  1 24  1  0  0  0  0
  1  4  2  0  0  0  0
  2 13  1  0  0  0  0
  2 21  1  0  0  0  0
  3 16  1  0  0  0  0
  4 18  1  0  0  0  0
  5 19  2  0  0  0  0
  5 16  1  0  0  0  0
  6 16  2  0  0  0  0
  6 17  1  0  0  0  0
  7 17  1  0  0  0  0
 11 25  2  0  0  0  0
 12 26  2  0  0  0  0
 13 25  1  0  0  0  0
 14 23  1  0  0  0  0
 15 26  1  0  0  0  0
 17 18  2  0  0  0  0
 18 19  1  0  0  0  0
 19 24  1  0  0  0  0
 20 10  1  6  0  0  0
 20 22  1  0  0  0  0
 20 23  1  0  0  0  0
 21 14  1  1  0  0  0
 21 22  1  0  0  0  0
 22 15  1  6  0  0  0
 23 24  1  1  0  0  0
 25  8  1  6  0  0  0
 25 32  1  0  0  0  0
 26  9  1  6  0  0  0
 26 28  1  0  0  0  0
 27 28  1  0  0  0  0
 29 27  1  1  0  0  0
 29 30  1  0  0  0  0
 29 31  1  0  0  0  0
 30 35  1  0  0  0  0
 31 33  1  0  0  0  0
 31 32  1  6  0  0  0
 33 34  1  6  0  0  0
 33 35  1  0  0  0  0
 35 45  1  1  0  0  0
 36 41  2  0  0  0  0
 36 37  1  0  0  0  0
 37 38  2  0  0  0  0
 38 39  1  0  0  0  0
 39 40  2  0  0  0  0
 39 45  1  0  0  0  0
 40 41  1  0  0  0  0
 40 43  1  0  0  0  0
 41 42  1  0  0  0  0
 43 44  2  0  0  0  0
 44 45  1  0  0  0  0
M  CHG  4   8  -1   9  -1  11  -1  12  -1
M  END
>  <CHROM.1>
99.32687059,142.03981838,95.04941277,12.36612103,96.00900572,2.50096232,0.90245558
-1.08180271

>  <Name>
ligand

>  <RI>
0

>  <Rbt.Current_Directory>
/home/itssahil/PROJECTS/Mol_Feturizer/New_Systems/rnas/4YAZ

>  <Rbt.Executable>
rbdock ($Id: //depot/dev/client3/rdock/2013.1/src/exe/rbdock.cxx#4 $)

>  <Rbt.Library>
libRbt.so (2013.1, Build901 2013/11/27)

>  <Rbt.Parameter_File>
/export/apps/rDock/src/rDock_2013.1_src/data/scripts/dock_solv.prm

>  <Rbt.Receptor>
prm/pocket_docking_8.prm

>  <SCORE>
-22.2532

>  <SCORE.INTER>
-23.5045

>  <SCORE.INTER.CONST>
1

>  <SCORE.INTER.POLAR>
0

>  <SCORE.INTER.ROT>
2

>  <SCORE.INTER.SOLV>
24.1266

>  <SCORE.INTER.VDW>
-28.6452

>  <SCORE.INTER.norm>
-0.522322

>  <SCORE.INTRA>
1.25128

>  <SCORE.INTRA.DIHEDRAL>
-0.11353

>  <SCORE.INTRA.DIHEDRAL.0>
2.39103

>  <SCORE.INTRA.POLAR>
0

>  <SCORE.INTRA.POLAR.0>
0

>  <SCORE.INTRA.REPUL>
0

>  <SCORE.INTRA.REPUL.0>
0

>  <SCORE.INTRA.SOLV>
0.0147054

>  <SCORE.INTRA.SOLV.lig_0>
-163.975

>  <SCORE.INTRA.VDW>
1.30069

>  <SCORE.INTRA.VDW.0>
-1.49176

>  <SCORE.INTRA.norm>
0.0278062

>  <SCORE.RESTR>
0

>  <SCORE.RESTR.CAVITY>
0

>  <SCORE.RESTR.norm>
0

>  <SCORE.SYSTEM>
0

>  <SCORE.SYSTEM.CONST>
0

>  <SCORE.SYSTEM.DIHEDRAL>
0

>  <SCORE.SYSTEM.SOLV>
0

>  <SCORE.SYSTEM.norm>
0

>  <SCORE.heavy>
45

>  <SCORE.norm>
-0.494515

>  <RMSD>
4.740

$$$$
ligand
 OpenBabel11021811513D
libRbt.so/2013.1/901 2013/11/27
 45 51  0  0  0  0  0  0  0  0999 V2000
   96.3098   16.0783   93.5926 C   0  0  0  0  0  0  0  0  0  0  0  0
   92.3798   14.2396   94.2317 C   0  0  0  0  0  0  0  0  0  0  0  0
   99.4474   11.7319   91.6775 N   0  0  0  0  0  0  0  0  0  0  0  0
   97.4368   16.0140   94.2242 N   0  0  0  0  0  0  0  0  0  0  0  0
   97.7868   13.3193   92.1007 N   0  0  0  0  0  0  0  0  0  0  0  0
   99.7646   13.3583   93.3266 N   0  0  0  0  0  0  0  0  0  0  0  0
  100.1512   15.0530   94.9859 O   0  0  0  0  0  0  0  0  0  0  0  0
   91.8876   15.4188   97.0503 O   0  5  0  0  0  0  0  0  0  0  0  0
   92.6831    9.7505   92.0173 O   0  5  0  0  0  0  0  0  0  0  0  0
   94.4777   13.2232   90.4811 O   0  0  0  0  0  0  0  0  0  0  0  0
   93.9235   14.6730   97.5525 O   0  5  0  0  0  0  0  0  0  0  0  0
   94.8158   10.4197   92.0193 O   0  5  0  0  0  0  0  0  0  0  0  0
   93.1777   14.8471   95.1670 O   0  0  0  0  0  0  0  0  0  0  0  0
   93.8516   15.4562   92.5451 O   0  0  0  0  0  0  0  0  0  0  0  0
   92.9144   12.1000   92.2659 O   0  0  0  0  0  0  0  0  0  0  0  0
   98.9689   12.8572   92.4146 C   0  0  0  0  0  0  0  0  0  0  0  0
   99.3790   14.4289   94.0078 C   0  0  0  0  0  0  0  0  0  0  0  0
   98.1035   14.9746   93.7387 C   0  0  0  0  0  0  0  0  0  0  0  0
   97.3231   14.4044   92.7633 C   0  0  0  0  0  0  0  0  0  0  0  0
   94.8653   13.6252   91.7413 C   0  0  2  0  0  0  0  0  0  0  0  0
   92.9981   14.2241   92.8918 C   0  0  1  0  0  0  0  0  0  0  0  0
   93.6847   13.1909   92.7565 C   0  0  1  0  0  0  0  0  0  0  0  0
   95.0962   14.9154   91.8987 C   0  0  2  0  0  0  0  0  0  0  0  0
   96.2069   15.1334   92.7327 N   0  0  0  0  0  0  0  0  0  0  0  0
   92.8476   14.4762   96.6454 P   0  0  2  0  0  0  0  0  0  0  0  0
   93.5217   10.7183   92.5824 P   0  0  1  0  0  0  0  0  0  0  0  0
   92.2642   10.7918   94.8704 C   0  0  0  0  0  0  0  0  0  0  0  0
   93.4511   10.4760   94.1252 O   0  0  0  0  0  0  0  0  0  0  0  0
   92.4549   10.8950   96.3249 C   0  0  1  0  0  0  0  0  0  0  0  0
   93.3968    9.6785   96.7894 O   0  0  0  0  0  0  0  0  0  0  0  0
   93.0934   11.9414   96.6028 C   0  0  1  0  0  0  0  0  0  0  0  0
   92.2231   13.0819   96.7853 O   0  0  0  0  0  0  0  0  0  0  0  0
   93.8998   11.5643   97.8363 C   0  0  1  0  0  0  0  0  0  0  0  0
   93.1976   11.7031   98.8752 O   0  0  0  0  0  0  0  0  0  0  0  0
   94.2108   10.0795   97.6477 C   0  0  2  0  0  0  0  0  0  0  0  0
   97.4827    6.3590   96.2740 N   0  0  0  0  0  0  0  0  0  0  0  0
   96.1358    6.2529   96.4201 C   0  0  0  0  0  0  0  0  0  0  0  0
   95.4713    7.3455   96.7769 N   0  0  0  0  0  0  0  0  0  0  0  0
   96.0523    8.5300   97.0637 C   0  0  0  0  0  0  0  0  0  0  0  0
   97.4487    8.6793   96.9235 C   0  0  0  0  0  0  0  0  0  0  0  0
   98.1531    7.5012   96.5173 C   0  0  0  0  0  0  0  0  0  0  0  0
   99.5709    7.5527   96.3722 N   0  0  0  0  0  0  0  0  0  0  0  0
   97.7188    9.9032   97.2152 N   0  0  0  0  0  0  0  0  0  0  0  0
   96.5926   10.5319   97.5041 C   0  0  0  0  0  0  0  0  0  0  0  0
   95.5897    9.7309   97.4405 N   0  0  0  0  0  0  0  0  0  0  0  0
  1 24  1  0  0  0  0
  1  4  2  0  0  0  0
  2 13  1  0  0  0  0
  2 21  1  0  0  0  0
  3 16  1  0  0  0  0
  4 18  1  0  0  0  0
  5 19  2  0  0  0  0
  5 16  1  0  0  0  0
  6 16  2  0  0  0  0
  6 17  1  0  0  0  0
  7 17  1  0  0  0  0
 11 25  2  0  0  0  0
 12 26  2  0  0  0  0
 13 25  1  0  0  0  0
 14 23  1  0  0  0  0
 15 26  1  0  0  0  0
 17 18  2  0  0  0  0
 18 19  1  0  0  0  0
 19 24  1  0  0  0  0
 20 10  1  6  0  0  0
 20 22  1  0  0  0  0
 20 23  1  0  0  0  0
 21 14  1  1  0  0  0
 21 22  1  0  0  0  0
 22 15  1  6  0  0  0
 23 24  1  1  0  0  0
 25  8  1  1  0  0  0
 25 32  1  0  0  0  0
 26  9  1  6  0  0  0
 26 28  1  0  0  0  0
 27 28  1  0  0  0  0
 29 27  1  6  0  0  0
 29 30  1  0  0  0  0
 29 31  1  0  0  0  0
 30 35  1  0  0  0  0
 31 33  1  0  0  0  0
 31 32  1  1  0  0  0
 33 34  1  1  0  0  0
 33 35  1  0  0  0  0
 35 45  1  6  0  0  0
 36 41  2  0  0  0  0
 36 37  1  0  0  0  0
 37 38  2  0  0  0  0
 38 39  1  0  0  0  0
 39 40  2  0  0  0  0
 39 45  1  0  0  0  0
 40 41  1  0  0  0  0
 40 43  1  0  0  0  0
 41 42  1  0  0  0  0
 43 44  2  0  0  0  0
 44 45  1  0  0  0  0
M  CHG  4   8  -1   9  -1  11  -1  12  -1
M  END
>  <CHROM.1>
-26.89473665,-44.01411467,95.17107966,12.09711770,94.77262587,-1.69219644
-0.35500375,2.57784017

>  <Name>
ligand

>  <RI>
0

>  <Rbt.Current_Directory>
/home/itssahil/PROJECTS/Mol_Feturizer/New_Systems/rnas/4YAZ

>  <Rbt.Executable>
rbdock ($Id: //depot/dev/client3/rdock/2013.1/src/exe/rbdock.cxx#4 $)

>  <Rbt.Library>
libRbt.so (2013.1, Build901 2013/11/27)

>  <Rbt.Parameter_File>
/export/apps/rDock/src/rDock_2013.1_src/data/scripts/dock_solv.prm

>  <Rbt.Receptor>
prm/pocket_docking_7.prm

>  <SCORE>
-19.2719

>  <SCORE.INTER>
-19.842

>  <SCORE.INTER.CONST>
1

>  <SCORE.INTER.POLAR>
0

>  <SCORE.INTER.ROT>
2

>  <SCORE.INTER.SOLV>
22.7173

>  <SCORE.INTER.VDW>
-25.7337

>  <SCORE.INTER.norm>
-0.440932

>  <SCORE.INTRA>
0.570033

>  <SCORE.INTRA.DIHEDRAL>
0.0937121

>  <SCORE.INTRA.DIHEDRAL.0>
2.39103

>  <SCORE.INTRA.POLAR>
0

>  <SCORE.INTRA.POLAR.0>
0

>  <SCORE.INTRA.REPUL>
0

>  <SCORE.INTRA.REPUL.0>
0

>  <SCORE.INTRA.SOLV>
0.0353747

>  <SCORE.INTRA.SOLV.lig_0>
-163.975

>  <SCORE.INTRA.VDW>
0.50549

>  <SCORE.INTRA.VDW.0>
-1.49176

>  <SCORE.INTRA.norm>
0.0126674

>  <SCORE.RESTR>
0

>  <SCORE.RESTR.CAVITY>
0

>  <SCORE.RESTR.norm>
0

>  <SCORE.SYSTEM>
0

>  <SCORE.SYSTEM.CONST>
0

>  <SCORE.SYSTEM.DIHEDRAL>
0

>  <SCORE.SYSTEM.SOLV>
0

>  <SCORE.SYSTEM.norm>
0

>  <SCORE.heavy>
45

>  <SCORE.norm>
-0.428265

>  <RMSD>
4.748

$$$$
ligand
 OpenBabel11021811513D
libRbt.so/2013.1/901 2013/11/27
 45 51  0  0  0  0  0  0  0  0999 V2000
   96.2302   16.0975   93.4943 C   0  0  0  0  0  0  0  0  0  0  0  0
   92.3577   14.2045   94.2251 C   0  0  0  0  0  0  0  0  0  0  0  0
   99.4526   11.8461   91.5081 N   0  0  0  0  0  0  0  0  0  0  0  0
   97.3729   16.0677   94.0999 N   0  0  0  0  0  0  0  0  0  0  0  0
   97.7551   13.3832   91.9691 N   0  0  0  0  0  0  0  0  0  0  0  0
   99.7583   13.4825   93.1494 N   0  0  0  0  0  0  0  0  0  0  0  0
  100.1317   15.1893   94.7993 O   0  0  0  0  0  0  0  0  0  0  0  0
   91.8980   15.4162   97.0354 O   0  5  0  0  0  0  0  0  0  0  0  0
   92.7053    9.6892   92.0711 O   0  5  0  0  0  0  0  0  0  0  0  0
   94.4008   13.1724   90.4487 O   0  0  0  0  0  0  0  0  0  0  0  0
   93.9577   14.7175   97.5077 O   0  5  0  0  0  0  0  0  0  0  0  0
   94.8241   10.3994   92.0208 O   0  5  0  0  0  0  0  0  0  0  0  0
   93.1618   14.8412   95.1352 O   0  0  0  0  0  0  0  0  0  0  0  0
   93.7718   15.4237   92.4918 O   0  0  0  0  0  0  0  0  0  0  0  0
   92.8953   12.0462   92.2806 O   0  0  0  0  0  0  0  0  0  0  0  0
   98.9574   12.9571   92.2559 C   0  0  0  0  0  0  0  0  0  0  0  0
   99.3564   14.5416   93.8392 C   0  0  0  0  0  0  0  0  0  0  0  0
   98.0593   15.0484   93.5993 C   0  0  0  0  0  0  0  0  0  0  0  0
   97.2743   14.4542   92.6421 C   0  0  0  0  0  0  0  0  0  0  0  0
   94.8052   13.6008   91.6948 C   0  0  2  0  0  0  0  0  0  0  0  0
   92.9496   14.1807   92.8735 C   0  0  1  0  0  0  0  0  0  0  0  0
   93.6535   13.1591   92.7397 C   0  0  1  0  0  0  0  0  0  0  0  0
   95.0138   14.8974   91.8286 C   0  0  2  0  0  0  0  0  0  0  0  0
   96.1362   15.1494   92.6370 N   0  0  0  0  0  0  0  0  0  0  0  0
   92.8682   14.4863   96.6252 P   0  0  2  0  0  0  0  0  0  0  0  0
   93.5357   10.6814   92.6051 P   0  0  1  0  0  0  0  0  0  0  0  0
   92.3223   10.7650   94.9165 C   0  0  0  0  0  0  0  0  0  0  0  0
   93.5002   10.4611   94.1524 O   0  0  0  0  0  0  0  0  0  0  0  0
   92.5396   10.8938   96.3652 C   0  0  1  0  0  0  0  0  0  0  0  0
   93.5141    9.7029   96.8286 O   0  0  0  0  0  0  0  0  0  0  0  0
   93.1628   11.9564   96.6149 C   0  0  1  0  0  0  0  0  0  0  0  0
   92.2740   13.0825   96.7981 O   0  0  0  0  0  0  0  0  0  0  0  0
   94.0006   11.6136   97.8375 C   0  0  1  0  0  0  0  0  0  0  0  0
   93.3163   11.7544   98.8881 O   0  0  0  0  0  0  0  0  0  0  0  0
   94.3368   10.1323   97.6645 C   0  0  2  0  0  0  0  0  0  0  0  0
   98.5078   11.1166   94.8240 N   0  0  0  0  0  0  0  0  0  0  0  0
   97.2639   11.6394   94.6619 C   0  0  0  0  0  0  0  0  0  0  0  0
   96.3230   11.2555   95.5161 N   0  0  0  0  0  0  0  0  0  0  0  0
   96.5067   10.3370   96.4885 C   0  0  0  0  0  0  0  0  0  0  0  0
   97.7844    9.7717   96.6881 C   0  0  0  0  0  0  0  0  0  0  0  0
   98.7970   10.2088   95.7755 C   0  0  0  0  0  0  0  0  0  0  0  0
  100.1139    9.6728   95.8876 N   0  0  0  0  0  0  0  0  0  0  0  0
   97.6810    8.9748   97.6931 N   0  0  0  0  0  0  0  0  0  0  0  0
   96.4407    9.0193   98.1476 C   0  0  0  0  0  0  0  0  0  0  0  0
   95.7180    9.8074   97.4349 N   0  0  0  0  0  0  0  0  0  0  0  0
  1 24  1  0  0  0  0
  1  4  2  0  0  0  0
  2 13  1  0  0  0  0
  2 21  1  0  0  0  0
  3 16  1  0  0  0  0
  4 18  1  0  0  0  0
  5 19  2  0  0  0  0
  5 16  1  0  0  0  0
  6 16  2  0  0  0  0
  6 17  1  0  0  0  0
  7 17  1  0  0  0  0
 11 25  2  0  0  0  0
 12 26  2  0  0  0  0
 13 25  1  0  0  0  0
 14 23  1  0  0  0  0
 15 26  1  0  0  0  0
 17 18  2  0  0  0  0
 18 19  1  0  0  0  0
 19 24  1  0  0  0  0
 20 10  1  6  0  0  0
 20 22  1  0  0  0  0
 20 23  1  0  0  0  0
 21 14  1  1  0  0  0
 21 22  1  0  0  0  0
 22 15  1  6  0  0  0
 23 24  1  1  0  0  0
 25  8  1  1  0  0  0
 25 32  1  0  0  0  0
 26  9  1  6  0  0  0
 26 28  1  0  0  0  0
 27 28  1  0  0  0  0
 29 27  1  6  0  0  0
 29 30  1  0  0  0  0
 29 31  1  0  0  0  0
 30 35  1  0  0  0  0
 31 33  1  0  0  0  0
 31 32  1  1  0  0  0
 33 34  1  1  0  0  0
 33 35  1  0  0  0  0
 35 45  1  6  0  0  0
 36 41  2  0  0  0  0
 36 37  1  0  0  0  0
 37 38  2  0  0  0  0
 38 39  1  0  0  0  0
 39 40  2  0  0  0  0
 39 45  1  0  0  0  0
 40 41  1  0  0  0  0
 40 43  1  0  0  0  0
 41 42  1  0  0  0  0
 43 44  2  0  0  0  0
 44 45  1  0  0  0  0
M  CHG  4   8  -1   9  -1  11  -1  12  -1
M  END
>  <CHROM.1>
-25.85234696,72.85470114,95.27090963,12.49124045,94.63395322,0.61288126,0.20851388
-0.82595986

>  <Name>
ligand

>  <RI>
0

>  <Rbt.Current_Directory>
/home/itssahil/PROJECTS/Mol_Feturizer/New_Systems/rnas/4YAZ

>  <Rbt.Executable>
rbdock ($Id: //depot/dev/client3/rdock/2013.1/src/exe/rbdock.cxx#4 $)

>  <Rbt.Library>
libRbt.so (2013.1, Build901 2013/11/27)

>  <Rbt.Parameter_File>
/export/apps/rDock/src/rDock_2013.1_src/data/scripts/dock_solv.prm

>  <Rbt.Receptor>
prm/pocket_docking_5.prm

>  <SCORE>
-20.1903

>  <SCORE.INTER>
-18.135

>  <SCORE.INTER.CONST>
1

>  <SCORE.INTER.POLAR>
0

>  <SCORE.INTER.ROT>
2

>  <SCORE.INTER.SOLV>
27

>  <SCORE.INTER.VDW>
-26.0233

>  <SCORE.INTER.norm>
-0.403

>  <SCORE.INTRA>
-2.05531

>  <SCORE.INTRA.DIHEDRAL>
0.0757715

>  <SCORE.INTRA.DIHEDRAL.0>
2.39103

>  <SCORE.INTRA.POLAR>
0

>  <SCORE.INTRA.POLAR.0>
0

>  <SCORE.INTRA.REPUL>
0

>  <SCORE.INTRA.REPUL.0>
0

>  <SCORE.INTRA.SOLV>
0.946583

>  <SCORE.INTRA.SOLV.lig_0>
-163.975

>  <SCORE.INTRA.VDW>
-2.56649

>  <SCORE.INTRA.VDW.0>
-1.49176

>  <SCORE.INTRA.norm>
-0.0456736

>  <SCORE.RESTR>
0

>  <SCORE.RESTR.CAVITY>
0

>  <SCORE.RESTR.norm>
0

>  <SCORE.SYSTEM>
0

>  <SCORE.SYSTEM.CONST>
0

>  <SCORE.SYSTEM.DIHEDRAL>
0

>  <SCORE.SYSTEM.SOLV>
0

>  <SCORE.SYSTEM.norm>
0

>  <SCORE.heavy>
45

>  <SCORE.norm>
-0.448674

>  <RMSD>
4.821

$$$$
ligand
 OpenBabel11021811513D
libRbt.so/2013.1/901 2013/11/27
 45 51  0  0  0  0  0  0  0  0999 V2000
   97.2728   13.3277   91.5732 C   0  0  0  0  0  0  0  0  0  0  0  0
   93.3476   11.6717   91.5598 C   0  0  0  0  0  0  0  0  0  0  0  0
  101.0314    9.5183   93.5134 N   0  0  0  0  0  0  0  0  0  0  0  0
   98.0783   13.8727   92.4261 N   0  0  0  0  0  0  0  0  0  0  0  0
   99.2872   10.6430   92.4414 N   0  0  0  0  0  0  0  0  0  0  0  0
  100.6515   11.7850   93.9415 N   0  0  0  0  0  0  0  0  0  0  0  0
  100.3299   14.1296   94.3588 O   0  0  0  0  0  0  0  0  0  0  0  0
   91.9192   14.2421   92.5243 O   0  5  0  0  0  0  0  0  0  0  0  0
   93.9727    6.9198   93.0351 O   0  5  0  0  0  0  0  0  0  0  0  0
   96.6267    8.9225   90.4689 O   0  0  0  0  0  0  0  0  0  0  0  0
   93.4843   14.3378   94.1038 O   0  5  0  0  0  0  0  0  0  0  0  0
   95.9918    7.8002   93.4147 O   0  5  0  0  0  0  0  0  0  0  0  0
   93.7740   12.8557   92.1046 O   0  0  0  0  0  0  0  0  0  0  0  0
   95.5010   11.8036   90.2047 O   0  0  0  0  0  0  0  0  0  0  0  0
   94.3622    8.9072   91.7966 O   0  0  0  0  0  0  0  0  0  0  0  0
  100.2758   10.7099   93.2944 C   0  0  0  0  0  0  0  0  0  0  0  0
  100.0047   12.9248   93.7382 C   0  0  0  0  0  0  0  0  0  0  0  0
   98.9102   12.9274   92.8443 C   0  0  0  0  0  0  0  0  0  0  0  0
   98.5747   11.7663   92.1926 C   0  0  0  0  0  0  0  0  0  0  0  0
   96.5264   10.0812   91.2087 C   0  0  2  0  0  0  0  0  0  0  0  0
   94.4408   10.9321   90.8997 C   0  0  1  0  0  0  0  0  0  0  0  0
   94.9972   10.1782   91.7240 C   0  0  1  0  0  0  0  0  0  0  0  0
   96.8265   11.2035   90.5817 C   0  0  2  0  0  0  0  0  0  0  0  0
   97.5317   12.0814   91.4236 N   0  0  0  0  0  0  0  0  0  0  0  0
   92.8423   13.4367   93.2122 P   0  0  2  0  0  0  0  0  0  0  0  0
   94.6258    8.1551   93.1167 P   0  0  1  0  0  0  0  0  0  0  0  0
   92.5809    9.4192   94.1380 C   0  0  0  0  0  0  0  0  0  0  0  0
   93.9198    8.9192   94.2837 O   0  0  0  0  0  0  0  0  0  0  0  0
   92.1888   10.4369   95.1244 C   0  0  1  0  0  0  0  0  0  0  0  0
   92.7176    9.9610   96.5655 O   0  0  0  0  0  0  0  0  0  0  0  0
   92.7832   11.5187   94.8872 C   0  0  1  0  0  0  0  0  0  0  0  0
   92.0535   12.3521   93.9574 O   0  0  0  0  0  0  0  0  0  0  0  0
   92.9824   12.1388   96.2619 C   0  0  1  0  0  0  0  0  0  0  0  0
   91.9470   12.7705   96.6092 O   0  0  0  0  0  0  0  0  0  0  0  0
   93.1647   10.9422   97.1957 C   0  0  2  0  0  0  0  0  0  0  0  0
   95.7610   10.4656  101.6078 N   0  0  0  0  0  0  0  0  0  0  0  0
   94.4270   10.6796  101.4610 C   0  0  0  0  0  0  0  0  0  0  0  0
   93.9537   10.7645  100.2235 N   0  0  0  0  0  0  0  0  0  0  0  0
   94.7178   10.7161   99.1114 C   0  0  0  0  0  0  0  0  0  0  0  0
   96.1072   10.4951   99.2233 C   0  0  0  0  0  0  0  0  0  0  0  0
   96.6041   10.3832  100.5611 C   0  0  0  0  0  0  0  0  0  0  0  0
   98.0003   10.1819  100.7709 N   0  0  0  0  0  0  0  0  0  0  0  0
   96.5704   10.4517   98.0235 N   0  0  0  0  0  0  0  0  0  0  0  0
   95.5700   10.6064   97.1736 C   0  0  0  0  0  0  0  0  0  0  0  0
   94.4607   10.7856   97.7972 N   0  0  0  0  0  0  0  0  0  0  0  0
  1 24  1  0  0  0  0
  1  4  2  0  0  0  0
  2 13  1  0  0  0  0
  2 21  1  0  0  0  0
  3 16  1  0  0  0  0
  4 18  1  0  0  0  0
  5 19  2  0  0  0  0
  5 16  1  0  0  0  0
  6 16  2  0  0  0  0
  6 17  1  0  0  0  0
  7 17  1  0  0  0  0
 11 25  2  0  0  0  0
 12 26  2  0  0  0  0
 13 25  1  0  0  0  0
 14 23  1  0  0  0  0
 15 26  1  0  0  0  0
 17 18  2  0  0  0  0
 18 19  1  0  0  0  0
 19 24  1  0  0  0  0
 20 10  1  6  0  0  0
 20 22  1  0  0  0  0
 20 23  1  0  0  0  0
 21 14  1  1  0  0  0
 21 22  1  0  0  0  0
 22 15  1  6  0  0  0
 23 24  1  1  0  0  0
 25  8  1  6  0  0  0
 25 32  1  0  0  0  0
 26  9  1  6  0  0  0
 26 28  1  0  0  0  0
 27 28  1  0  0  0  0
 29 27  1  6  0  0  0
 29 30  1  0  0  0  0
 29 31  1  0  0  0  0
 30 35  1  0  0  0  0
 31 33  1  0  0  0  0
 31 32  1  6  0  0  0
 33 34  1  1  0  0  0
 33 35  1  0  0  0  0
 35 45  1  6  0  0  0
 36 41  2  0  0  0  0
 36 37  1  0  0  0  0
 37 38  2  0  0  0  0
 38 39  1  0  0  0  0
 39 40  2  0  0  0  0
 39 45  1  0  0  0  0
 40 41  1  0  0  0  0
 40 43  1  0  0  0  0
 41 42  1  0  0  0  0
 43 44  2  0  0  0  0
 44 45  1  0  0  0  0
M  CHG  4   8  -1   9  -1  11  -1  12  -1
M  END
>  <CHROM.1>
-16.92586242,-110.96583333,95.41570819,11.06663283,94.43787584,-1.29228555
0.00276099,1.65439083

>  <Name>
ligand

>  <RI>
0

>  <Rbt.Current_Directory>
/home/itssahil/PROJECTS/Mol_Feturizer/New_Systems/rnas/4YAZ

>  <Rbt.Executable>
rbdock ($Id: //depot/dev/client3/rdock/2013.1/src/exe/rbdock.cxx#4 $)

>  <Rbt.Library>
libRbt.so (2013.1, Build901 2013/11/27)

>  <Rbt.Parameter_File>
/export/apps/rDock/src/rDock_2013.1_src/data/scripts/dock_solv.prm

>  <Rbt.Receptor>
prm/pocket_docking_5.prm

>  <SCORE>
-23.0315

>  <SCORE.INTER>
-22.9588

>  <SCORE.INTER.CONST>
1

>  <SCORE.INTER.POLAR>
0

>  <SCORE.INTER.ROT>
2

>  <SCORE.INTER.SOLV>
20.3831

>  <SCORE.INTER.VDW>
-27.0335

>  <SCORE.INTER.norm>
-0.510195

>  <SCORE.INTRA>
-0.0759799

>  <SCORE.INTRA.DIHEDRAL>
-0.0428341

>  <SCORE.INTRA.DIHEDRAL.0>
2.39103

>  <SCORE.INTRA.POLAR>
0

>  <SCORE.INTRA.POLAR.0>
0

>  <SCORE.INTRA.REPUL>
0

>  <SCORE.INTRA.REPUL.0>
0

>  <SCORE.INTRA.SOLV>
-0.0261842

>  <SCORE.INTRA.SOLV.lig_0>
-163.975

>  <SCORE.INTRA.VDW>
-0.0414708

>  <SCORE.INTRA.VDW.0>
-1.49176

>  <SCORE.INTRA.norm>
-0.00168844

>  <SCORE.RESTR>
0.00326038

>  <SCORE.RESTR.CAVITY>
0.00326038

>  <SCORE.RESTR.norm>
7.24529e-05

>  <SCORE.SYSTEM>
0

>  <SCORE.SYSTEM.CONST>
0

>  <SCORE.SYSTEM.DIHEDRAL>
0

>  <SCORE.SYSTEM.SOLV>
0

>  <SCORE.SYSTEM.norm>
0

>  <SCORE.heavy>
45

>  <SCORE.norm>
-0.511811

>  <RMSD>
4.876

$$$$
ligand
 OpenBabel11021811513D
libRbt.so/2013.1/901 2013/11/27
 45 51  0  0  0  0  0  0  0  0999 V2000
   97.2428   13.0195   91.3807 C   0  0  0  0  0  0  0  0  0  0  0  0
   93.2999   11.2717   91.5689 C   0  0  0  0  0  0  0  0  0  0  0  0
  100.8393    9.2520   93.6773 N   0  0  0  0  0  0  0  0  0  0  0  0
   98.0401   13.5994   92.2182 N   0  0  0  0  0  0  0  0  0  0  0  0
   99.1569   10.3474   92.4832 N   0  0  0  0  0  0  0  0  0  0  0  0
  100.5120   11.5516   93.9424 N   0  0  0  0  0  0  0  0  0  0  0  0
  100.2455   13.9265   94.1932 O   0  0  0  0  0  0  0  0  0  0  0  0
   91.8427   13.8385   92.4993 O   0  5  0  0  0  0  0  0  0  0  0  0
   94.0553    6.5741   93.1531 O   0  5  0  0  0  0  0  0  0  0  0  0
   96.6076    8.5591   90.4725 O   0  0  0  0  0  0  0  0  0  0  0  0
   93.4420   14.0070   94.0379 O   0  5  0  0  0  0  0  0  0  0  0  0
   96.0645    7.5038   93.4611 O   0  5  0  0  0  0  0  0  0  0  0  0
   93.7148   12.4780   92.0720 O   0  0  0  0  0  0  0  0  0  0  0  0
   95.4179   11.4095   90.1597 O   0  0  0  0  0  0  0  0  0  0  0  0
   94.3755    8.5349   91.8539 O   0  0  0  0  0  0  0  0  0  0  0  0
  100.1237   10.4455   93.3578 C   0  0  0  0  0  0  0  0  0  0  0  0
   99.9032   12.6917   93.6452 C   0  0  0  0  0  0  0  0  0  0  0  0
   98.8336   12.6629   92.7221 C   0  0  0  0  0  0  0  0  0  0  0  0
   98.4832   11.4697   92.1398 C   0  0  0  0  0  0  0  0  0  0  0  0
   96.5011    9.7350   91.1837 C   0  0  2  0  0  0  0  0  0  0  0  0
   94.3921   10.5362   90.9025 C   0  0  1  0  0  0  0  0  0  0  0  0
   94.9828    9.8158   91.7327 C   0  0  1  0  0  0  0  0  0  0  0  0
   96.7637   10.8458   90.5205 C   0  0  2  0  0  0  0  0  0  0  0  0
   97.4705   11.7595   91.3220 N   0  0  0  0  0  0  0  0  0  0  0  0
   92.7977   13.0699   93.1859 P   0  0  2  0  0  0  0  0  0  0  0  0
   94.6850    7.8238   93.1866 P   0  0  1  0  0  0  0  0  0  0  0  0
   92.6394    9.0743   94.2230 C   0  0  0  0  0  0  0  0  0  0  0  0
   93.9912    8.6047   94.3497 O   0  0  0  0  0  0  0  0  0  0  0  0
   92.2500   10.1102   95.1913 C   0  0  1  0  0  0  0  0  0  0  0  0
   92.8218    9.6834   96.6314 O   0  0  0  0  0  0  0  0  0  0  0  0
   92.8166   11.1967   94.9117 C   0  0  1  0  0  0  0  0  0  0  0  0
   92.0487   11.9905   93.9780 O   0  0  0  0  0  0  0  0  0  0  0  0
   93.0353   11.8571   96.2645 C   0  0  1  0  0  0  0  0  0  0  0  0
   91.9957   12.4775   96.6197 O   0  0  0  0  0  0  0  0  0  0  0  0
   93.2636   10.6897   97.2247 C   0  0  2  0  0  0  0  0  0  0  0  0
   95.9718   10.3871  101.5846 N   0  0  0  0  0  0  0  0  0  0  0  0
   94.6308   10.5715  101.4640 C   0  0  0  0  0  0  0  0  0  0  0  0
   94.1269   10.6125  100.2365 N   0  0  0  0  0  0  0  0  0  0  0  0
   94.8654   10.5473   99.1080 C   0  0  0  0  0  0  0  0  0  0  0  0
   96.2612   10.3558   99.1925 C   0  0  0  0  0  0  0  0  0  0  0  0
   96.7915   10.2911  100.5206 C   0  0  0  0  0  0  0  0  0  0  0  0
   98.1959   10.1223  100.7023 N   0  0  0  0  0  0  0  0  0  0  0  0
   96.6967   10.2873   97.9836 N   0  0  0  0  0  0  0  0  0  0  0  0
   95.6738   10.3990   97.1541 C   0  0  0  0  0  0  0  0  0  0  0  0
   94.5762   10.5747   97.7990 N   0  0  0  0  0  0  0  0  0  0  0  0
  1 24  1  0  0  0  0
  1  4  2  0  0  0  0
  2 13  1  0  0  0  0
  2 21  1  0  0  0  0
  3 16  1  0  0  0  0
  4 18  1  0  0  0  0
  5 19  2  0  0  0  0
  5 16  1  0  0  0  0
  6 16  2  0  0  0  0
  6 17  1  0  0  0  0
  7 17  1  0  0  0  0
 11 25  2  0  0  0  0
 12 26  2  0  0  0  0
 13 25  1  0  0  0  0
 14 23  1  0  0  0  0
 15 26  1  0  0  0  0
 17 18  2  0  0  0  0
 18 19  1  0  0  0  0
 19 24  1  0  0  0  0
 20 10  1  6  0  0  0
 20 22  1  0  0  0  0
 20 23  1  0  0  0  0
 21 14  1  1  0  0  0
 21 22  1  0  0  0  0
 22 15  1  6  0  0  0
 23 24  1  1  0  0  0
 25  8  1  6  0  0  0
 25 32  1  0  0  0  0
 26  9  1  6  0  0  0
 26 28  1  0  0  0  0
 27 28  1  0  0  0  0
 29 27  1  6  0  0  0
 29 30  1  0  0  0  0
 29 31  1  0  0  0  0
 30 35  1  0  0  0  0
 31 33  1  0  0  0  0
 31 32  1  6  0  0  0
 33 34  1  1  0  0  0
 33 35  1  0  0  0  0
 35 45  1  6  0  0  0
 36 41  2  0  0  0  0
 36 37  1  0  0  0  0
 37 38  2  0  0  0  0
 38 39  1  0  0  0  0
 39 40  2  0  0  0  0
 39 45  1  0  0  0  0
 40 41  1  0  0  0  0
 40 43  1  0  0  0  0
 41 42  1  0  0  0  0
 43 44  2  0  0  0  0
 44 45  1  0  0  0  0
M  CHG  4   8  -1   9  -1  11  -1  12  -1
M  END
>  <CHROM.1>
-21.54848576,-111.05987691,95.43081004,10.78028596,94.43067146,-1.35586888
0.01752493,1.62886303

>  <Name>
ligand

>  <RI>
0

>  <Rbt.Current_Directory>
/home/itssahil/PROJECTS/Mol_Feturizer/New_Systems/rnas/4YAZ

>  <Rbt.Executable>
rbdock ($Id: //depot/dev/client3/rdock/2013.1/src/exe/rbdock.cxx#4 $)

>  <Rbt.Library>
libRbt.so (2013.1, Build901 2013/11/27)

>  <Rbt.Parameter_File>
/export/apps/rDock/src/rDock_2013.1_src/data/scripts/dock_solv.prm

>  <Rbt.Receptor>
prm/pocket_docking_6.prm

>  <SCORE>
-23.5056

>  <SCORE.INTER>
-23.4932

>  <SCORE.INTER.CONST>
1

>  <SCORE.INTER.POLAR>
0

>  <SCORE.INTER.ROT>
2

>  <SCORE.INTER.SOLV>
18.8458

>  <SCORE.INTER.VDW>
-26.8774

>  <SCORE.INTER.norm>
-0.522072

>  <SCORE.INTRA>
-0.0123133

>  <SCORE.INTRA.DIHEDRAL>
-0.0429109

>  <SCORE.INTRA.DIHEDRAL.0>
2.39103

>  <SCORE.INTRA.POLAR>
0

>  <SCORE.INTRA.POLAR.0>
0

>  <SCORE.INTRA.REPUL>
0

>  <SCORE.INTRA.REPUL.0>
0

>  <SCORE.INTRA.SOLV>
-0.0206993

>  <SCORE.INTRA.SOLV.lig_0>
-163.975

>  <SCORE.INTRA.VDW>
0.0194918

>  <SCORE.INTRA.VDW.0>
-1.49176

>  <SCORE.INTRA.norm>
-0.000273629

>  <SCORE.RESTR>
0

>  <SCORE.RESTR.CAVITY>
0

>  <SCORE.RESTR.norm>
0

>  <SCORE.SYSTEM>
0

>  <SCORE.SYSTEM.CONST>
0

>  <SCORE.SYSTEM.DIHEDRAL>
0

>  <SCORE.SYSTEM.SOLV>
0

>  <SCORE.SYSTEM.norm>
0

>  <SCORE.heavy>
45

>  <SCORE.norm>
-0.522346

>  <RMSD>
5.039

$$$$
ligand
 OpenBabel11021811513D
libRbt.so/2013.1/901 2013/11/27
 45 51  0  0  0  0  0  0  0  0999 V2000
   97.2138   13.0212   91.4048 C   0  0  0  0  0  0  0  0  0  0  0  0
   93.2997   11.2815   91.5012 C   0  0  0  0  0  0  0  0  0  0  0  0
  100.9461    9.2933   93.5438 N   0  0  0  0  0  0  0  0  0  0  0  0
   98.0099   13.6006   92.2436 N   0  0  0  0  0  0  0  0  0  0  0  0
   99.2154   10.3736   92.4062 N   0  0  0  0  0  0  0  0  0  0  0  0
  100.5636   11.5759   93.8735 N   0  0  0  0  0  0  0  0  0  0  0  0
  100.2395   13.9359   94.1899 O   0  0  0  0  0  0  0  0  0  0  0  0
   91.8306   13.8459   92.4195 O   0  5  0  0  0  0  0  0  0  0  0  0
   94.0342    6.5796   93.0826 O   0  5  0  0  0  0  0  0  0  0  0  0
   96.6212    8.5715   90.4407 O   0  0  0  0  0  0  0  0  0  0  0  0
   93.4098   14.0102   93.9791 O   0  5  0  0  0  0  0  0  0  0  0  0
   96.0392    7.5083   93.4192 O   0  5  0  0  0  0  0  0  0  0  0  0
   93.7081   12.4864   92.0129 O   0  0  0  0  0  0  0  0  0  0  0  0
   95.4358   11.4228   90.1200 O   0  0  0  0  0  0  0  0  0  0  0  0
   94.3713    8.5438   91.7929 O   0  0  0  0  0  0  0  0  0  0  0  0
  100.1942   10.4751   93.2670 C   0  0  0  0  0  0  0  0  0  0  0  0
   99.9202   12.7067   93.6159 C   0  0  0  0  0  0  0  0  0  0  0  0
   98.8360   12.6729   92.7101 C   0  0  0  0  0  0  0  0  0  0  0  0
   98.5069   11.4860   92.1031 C   0  0  0  0  0  0  0  0  0  0  0  0
   96.5055    9.7455   91.1536 C   0  0  2  0  0  0  0  0  0  0  0  0
   94.4004   10.5477   90.8471 C   0  0  1  0  0  0  0  0  0  0  0  0
   94.9802    9.8249   91.6830 C   0  0  1  0  0  0  0  0  0  0  0  0
   96.7768   10.8580   90.4968 C   0  0  2  0  0  0  0  0  0  0  0  0
   97.4732   11.7696   91.3098 N   0  0  0  0  0  0  0  0  0  0  0  0
   92.7766   13.0755   93.1164 P   0  0  2  0  0  0  0  0  0  0  0  0
   94.6634    7.8291   93.1277 P   0  0  1  0  0  0  0  0  0  0  0  0
   92.6047    9.0771   94.1407 C   0  0  0  0  0  0  0  0  0  0  0  0
   93.9547    8.6071   94.2837 O   0  0  0  0  0  0  0  0  0  0  0  0
   92.2027   10.1104   95.1066 C   0  0  1  0  0  0  0  0  0  0  0  0
   92.7557    9.6798   96.5529 O   0  0  0  0  0  0  0  0  0  0  0  0
   92.7730   11.1976   94.8373 C   0  0  1  0  0  0  0  0  0  0  0  0
   92.0173   11.9939   93.8958 O   0  0  0  0  0  0  0  0  0  0  0  0
   92.9741   11.8545   96.1945 C   0  0  1  0  0  0  0  0  0  0  0  0
   91.9300   12.4740   96.5378 O   0  0  0  0  0  0  0  0  0  0  0  0
   93.1899   10.6845   97.1545 C   0  0  2  0  0  0  0  0  0  0  0  0
   95.8435   10.3997  101.5490 N   0  0  0  0  0  0  0  0  0  0  0  0
   94.5049   10.5889  101.4109 C   0  0  0  0  0  0  0  0  0  0  0  0
   94.0162   10.6238  100.1770 N   0  0  0  0  0  0  0  0  0  0  0  0
   94.7681   10.5479   99.0581 C   0  0  0  0  0  0  0  0  0  0  0  0
   96.1619   10.3512   99.1609 C   0  0  0  0  0  0  0  0  0  0  0  0
   96.6756   10.2931  100.4958 C   0  0  0  0  0  0  0  0  0  0  0  0
   98.0771   10.1196  100.6956 N   0  0  0  0  0  0  0  0  0  0  0  0
   96.6118   10.2728   97.9579 N   0  0  0  0  0  0  0  0  0  0  0  0
   95.5995   10.3833   97.1152 C   0  0  0  0  0  0  0  0  0  0  0  0
   94.4949   10.5678   97.7455 N   0  0  0  0  0  0  0  0  0  0  0  0
  1 24  1  0  0  0  0
  1  4  2  0  0  0  0
  2 13  1  0  0  0  0
  2 21  1  0  0  0  0
  3 16  1  0  0  0  0
  4 18  1  0  0  0  0
  5 19  2  0  0  0  0
  5 16  1  0  0  0  0
  6 16  2  0  0  0  0
  6 17  1  0  0  0  0
  7 17  1  0  0  0  0
 11 25  2  0  0  0  0
 12 26  2  0  0  0  0
 13 25  1  0  0  0  0
 14 23  1  0  0  0  0
 15 26  1  0  0  0  0
 17 18  2  0  0  0  0
 18 19  1  0  0  0  0
 19 24  1  0  0  0  0
 20 10  1  6  0  0  0
 20 22  1  0  0  0  0
 20 23  1  0  0  0  0
 21 14  1  1  0  0  0
 21 22  1  0  0  0  0
 22 15  1  6  0  0  0
 23 24  1  1  0  0  0
 25  8  1  6  0  0  0
 25 32  1  0  0  0  0
 26  9  1  6  0  0  0
 26 28  1  0  0  0  0
 27 28  1  0  0  0  0
 29 27  1  6  0  0  0
 29 30  1  0  0  0  0
 29 31  1  0  0  0  0
 30 35  1  0  0  0  0
 31 33  1  0  0  0  0
 31 32  1  6  0  0  0
 33 34  1  1  0  0  0
 33 35  1  0  0  0  0
 35 45  1  6  0  0  0
 36 41  2  0  0  0  0
 36 37  1  0  0  0  0
 37 38  2  0  0  0  0
 38 39  1  0  0  0  0
 39 40  2  0  0  0  0
 39 45  1  0  0  0  0
 40 41  1  0  0  0  0
 40 43  1  0  0  0  0
 41 42  1  0  0  0  0
 43 44  2  0  0  0  0
 44 45  1  0  0  0  0
M  CHG  4   8  -1   9  -1  11  -1  12  -1
M  END
>  <CHROM.1>
-18.91698304,-111.64505428,95.40259492,10.78700223,94.37856702,-1.32145569
0.02053513,1.62799173

>  <Name>
ligand

>  <RI>
0

>  <Rbt.Current_Directory>
/home/itssahil/PROJECTS/Mol_Feturizer/New_Systems/rnas/4YAZ

>  <Rbt.Executable>
rbdock ($Id: //depot/dev/client3/rdock/2013.1/src/exe/rbdock.cxx#4 $)

>  <Rbt.Library>
libRbt.so (2013.1, Build901 2013/11/27)

>  <Rbt.Parameter_File>
/export/apps/rDock/src/rDock_2013.1_src/data/scripts/dock_solv.prm

>  <Rbt.Receptor>
prm/pocket_docking_7.prm

>  <SCORE>
-23.5632

>  <SCORE.INTER>
-23.5355

>  <SCORE.INTER.CONST>
1

>  <SCORE.INTER.POLAR>
0

>  <SCORE.INTER.ROT>
2

>  <SCORE.INTER.SOLV>
19.0718

>  <SCORE.INTER.VDW>
-26.9809

>  <SCORE.INTER.norm>
-0.52301

>  <SCORE.INTRA>
-0.0277868

>  <SCORE.INTRA.DIHEDRAL>
-0.0385834

>  <SCORE.INTRA.DIHEDRAL.0>
2.39103

>  <SCORE.INTRA.POLAR>
0

>  <SCORE.INTRA.POLAR.0>
0

>  <SCORE.INTRA.REPUL>
0

>  <SCORE.INTRA.REPUL.0>
0

>  <SCORE.INTRA.SOLV>
-0.0239223

>  <SCORE.INTRA.SOLV.lig_0>
-163.975

>  <SCORE.INTRA.VDW>
0.00346598

>  <SCORE.INTRA.VDW.0>
-1.49176

>  <SCORE.INTRA.norm>
-0.000617485

>  <SCORE.RESTR>
0

>  <SCORE.RESTR.CAVITY>
0

>  <SCORE.RESTR.norm>
0

>  <SCORE.SYSTEM>
0

>  <SCORE.SYSTEM.CONST>
0

>  <SCORE.SYSTEM.DIHEDRAL>
0

>  <SCORE.SYSTEM.SOLV>
0

>  <SCORE.SYSTEM.norm>
0

>  <SCORE.heavy>
45

>  <SCORE.norm>
-0.523628

>  <RMSD>
5.062

$$$$
ligand
 OpenBabel11021811523D
libRbt.so/2013.1/901 2013/11/27
 45 51  0  0  0  0  0  0  0  0999 V2000
   97.2254   12.9977   91.3923 C   0  0  0  0  0  0  0  0  0  0  0  0
   93.3101   11.2584   91.4843 C   0  0  0  0  0  0  0  0  0  0  0  0
  100.9500    9.2666   93.5392 N   0  0  0  0  0  0  0  0  0  0  0  0
   98.0204   13.5765   92.2327 N   0  0  0  0  0  0  0  0  0  0  0  0
   99.2226   10.3484   92.3980 N   0  0  0  0  0  0  0  0  0  0  0  0
  100.5689   11.5497   93.8678 N   0  0  0  0  0  0  0  0  0  0  0  0
  100.2464   13.9099   94.1834 O   0  0  0  0  0  0  0  0  0  0  0  0
   91.8404   13.8226   92.4022 O   0  5  0  0  0  0  0  0  0  0  0  0
   94.0419    6.5555   93.0640 O   0  5  0  0  0  0  0  0  0  0  0  0
   96.6323    8.5484   90.4262 O   0  0  0  0  0  0  0  0  0  0  0  0
   93.4178   13.9858   93.9638 O   0  5  0  0  0  0  0  0  0  0  0  0
   96.0467    7.4837   93.4034 O   0  5  0  0  0  0  0  0  0  0  0  0
   93.7181   12.4629   91.9971 O   0  0  0  0  0  0  0  0  0  0  0  0
   95.4478   11.4001   90.1056 O   0  0  0  0  0  0  0  0  0  0  0  0
   94.3809    8.5204   91.7757 O   0  0  0  0  0  0  0  0  0  0  0  0
  100.1998   10.4491   93.2608 C   0  0  0  0  0  0  0  0  0  0  0  0
   99.9271   12.6810   93.6089 C   0  0  0  0  0  0  0  0  0  0  0  0
   98.8447   12.6481   92.7009 C   0  0  0  0  0  0  0  0  0  0  0  0
   98.5157   11.4614   92.0934 C   0  0  0  0  0  0  0  0  0  0  0  0
   96.5160    9.7221   91.1396 C   0  0  2  0  0  0  0  0  0  0  0  0
   94.4114   10.5248   90.8311 C   0  0  1  0  0  0  0  0  0  0  0  0
   94.9901    9.8015   91.6673 C   0  0  1  0  0  0  0  0  0  0  0  0
   96.7882   10.8349   90.4837 C   0  0  2  0  0  0  0  0  0  0  0  0
   97.4838   11.7459   91.2980 N   0  0  0  0  0  0  0  0  0  0  0  0
   92.7854   13.0516   93.0998 P   0  0  2  0  0  0  0  0  0  0  0  0
   94.6713    7.8049   93.1104 P   0  0  1  0  0  0  0  0  0  0  0  0
   92.6116    9.0527   94.1217 C   0  0  0  0  0  0  0  0  0  0  0  0
   93.9613    8.5824   94.2661 O   0  0  0  0  0  0  0  0  0  0  0  0
   92.2087   10.0856   95.0878 C   0  0  1  0  0  0  0  0  0  0  0  0
   92.7600    9.6541   96.5344 O   0  0  0  0  0  0  0  0  0  0  0  0
   92.7795   11.1728   94.8197 C   0  0  1  0  0  0  0  0  0  0  0  0
   92.0250   11.9698   93.8778 O   0  0  0  0  0  0  0  0  0  0  0  0
   92.9792   11.8289   96.1775 C   0  0  1  0  0  0  0  0  0  0  0  0
   91.9348   12.4484   96.5199 O   0  0  0  0  0  0  0  0  0  0  0  0
   93.1936   10.6584   97.1371 C   0  0  2  0  0  0  0  0  0  0  0  0
   95.8454   10.4100  101.5349 N   0  0  0  0  0  0  0  0  0  0  0  0
   94.5079   10.6052  101.3944 C   0  0  0  0  0  0  0  0  0  0  0  0
   94.0195   10.6284  100.1602 N   0  0  0  0  0  0  0  0  0  0  0  0
   94.7709   10.5351   99.0423 C   0  0  0  0  0  0  0  0  0  0  0  0
   96.1636   10.3316   99.1475 C   0  0  0  0  0  0  0  0  0  0  0  0
   96.6770   10.2863  100.4830 C   0  0  0  0  0  0  0  0  0  0  0  0
   98.0774   10.1071  100.6851 N   0  0  0  0  0  0  0  0  0  0  0  0
   96.6130   10.2365   97.9456 N   0  0  0  0  0  0  0  0  0  0  0  0
   95.6014   10.3429   97.1016 C   0  0  0  0  0  0  0  0  0  0  0  0
   94.4979   10.5412   97.7295 N   0  0  0  0  0  0  0  0  0  0  0  0
  1 24  1  0  0  0  0
  1  4  2  0  0  0  0
  2 13  1  0  0  0  0
  2 21  1  0  0  0  0
  3 16  1  0  0  0  0
  4 18  1  0  0  0  0
  5 19  2  0  0  0  0
  5 16  1  0  0  0  0
  6 16  2  0  0  0  0
  6 17  1  0  0  0  0
  7 17  1  0  0  0  0
 11 25  2  0  0  0  0
 12 26  2  0  0  0  0
 13 25  1  0  0  0  0
 14 23  1  0  0  0  0
 15 26  1  0  0  0  0
 17 18  2  0  0  0  0
 18 19  1  0  0  0  0
 19 24  1  0  0  0  0
 20 10  1  6  0  0  0
 20 22  1  0  0  0  0
 20 23  1  0  0  0  0
 21 14  1  1  0  0  0
 21 22  1  0  0  0  0
 22 15  1  6  0  0  0
 23 24  1  1  0  0  0
 25  8  1  6  0  0  0
 25 32  1  0  0  0  0
 26  9  1  6  0  0  0
 26 28  1  0  0  0  0
 27 28  1  0  0  0  0
 29 27  1  6  0  0  0
 29 30  1  0  0  0  0
 29 31  1  0  0  0  0
 30 35  1  0  0  0  0
 31 33  1  0  0  0  0
 31 32  1  6  0  0  0
 33 34  1  1  0  0  0
 33 35  1  0  0  0  0
 35 45  1  6  0  0  0
 36 41  2  0  0  0  0
 36 37  1  0  0  0  0
 37 38  2  0  0  0  0
 38 39  1  0  0  0  0
 39 40  2  0  0  0  0
 39 45  1  0  0  0  0
 40 41  1  0  0  0  0
 40 43  1  0  0  0  0
 41 42  1  0  0  0  0
 43 44  2  0  0  0  0
 44 45  1  0  0  0  0
M  CHG  4   8  -1   9  -1  11  -1  12  -1
M  END
>  <CHROM.1>
-18.99147622,-112.42061504,95.40951365,10.76496180,94.36419629,-1.32136235
0.02116792,1.62503063

>  <Name>
ligand

>  <RI>
0

>  <Rbt.Current_Directory>
/home/itssahil/PROJECTS/Mol_Feturizer/New_Systems/rnas/4YAZ

>  <Rbt.Executable>
rbdock ($Id: //depot/dev/client3/rdock/2013.1/src/exe/rbdock.cxx#4 $)

>  <Rbt.Library>
libRbt.so (2013.1, Build901 2013/11/27)

>  <Rbt.Parameter_File>
/export/apps/rDock/src/rDock_2013.1_src/data/scripts/dock_solv.prm

>  <Rbt.Receptor>
prm/pocket_docking_8.prm

>  <SCORE>
-23.5984

>  <SCORE.INTER>
-23.5718

>  <SCORE.INTER.CONST>
1

>  <SCORE.INTER.POLAR>
0

>  <SCORE.INTER.ROT>
2

>  <SCORE.INTER.SOLV>
19.0019

>  <SCORE.INTER.VDW>
-26.9818

>  <SCORE.INTER.norm>
-0.523818

>  <SCORE.INTRA>
-0.0265942

>  <SCORE.INTRA.DIHEDRAL>
-0.0332892

>  <SCORE.INTRA.DIHEDRAL.0>
2.39103

>  <SCORE.INTRA.POLAR>
0

>  <SCORE.INTRA.POLAR.0>
0

>  <SCORE.INTRA.REPUL>
0

>  <SCORE.INTRA.REPUL.0>
0

>  <SCORE.INTRA.SOLV>
-0.0240419

>  <SCORE.INTRA.SOLV.lig_0>
-163.975

>  <SCORE.INTRA.VDW>
0.0020713

>  <SCORE.INTRA.VDW.0>
-1.49176

>  <SCORE.INTRA.norm>
-0.000590983

>  <SCORE.RESTR>
0

>  <SCORE.RESTR.CAVITY>
0

>  <SCORE.RESTR.norm>
0

>  <SCORE.SYSTEM>
0

>  <SCORE.SYSTEM.CONST>
0

>  <SCORE.SYSTEM.DIHEDRAL>
0

>  <SCORE.SYSTEM.SOLV>
0

>  <SCORE.SYSTEM.norm>
0

>  <SCORE.heavy>
45

>  <SCORE.norm>
-0.524409

>  <RMSD>
5.078

$$$$
ligand
 OpenBabel11021811513D
libRbt.so/2013.1/901 2013/11/27
 45 51  0  0  0  0  0  0  0  0999 V2000
   98.9052   11.1725   92.5077 C   0  0  0  0  0  0  0  0  0  0  0  0
   93.6357   10.6912   91.9701 C   0  0  0  0  0  0  0  0  0  0  0  0
   94.9839   15.2273   91.7428 N   0  0  0  0  0  0  0  0  0  0  0  0
   99.2484   12.2617   93.1152 N   0  0  0  0  0  0  0  0  0  0  0  0
   96.2597   13.2707   91.7215 N   0  0  0  0  0  0  0  0  0  0  0  0
   97.0247   15.1386   92.8796 N   0  0  0  0  0  0  0  0  0  0  0  0
   99.0870   15.0642   94.1109 O   0  0  0  0  0  0  0  0  0  0  0  0
   92.0460   13.2562   92.6565 O   0  5  0  0  0  0  0  0  0  0  0  0
   94.4753    6.1396   93.9005 O   0  5  0  0  0  0  0  0  0  0  0  0
   97.0858    8.0402   91.2148 O   0  0  0  0  0  0  0  0  0  0  0  0
   93.5608   13.5859   94.2534 O   0  5  0  0  0  0  0  0  0  0  0  0
   96.4334    7.1632   94.2389 O   0  5  0  0  0  0  0  0  0  0  0  0
   93.9831   11.9427   92.4098 O   0  0  0  0  0  0  0  0  0  0  0  0
   95.8144   10.8167   90.6554 O   0  0  0  0  0  0  0  0  0  0  0  0
   94.7906    8.0218   92.4886 O   0  0  0  0  0  0  0  0  0  0  0  0
   96.1572   14.5097   92.1262 C   0  0  0  0  0  0  0  0  0  0  0  0
   98.1098   14.4985   93.2940 C   0  0  0  0  0  0  0  0  0  0  0  0
   98.3010   13.1607   92.8807 C   0  0  0  0  0  0  0  0  0  0  0  0
   97.3475   12.5588   92.0971 C   0  0  0  0  0  0  0  0  0  0  0  0
   96.9035    9.2553   91.8395 C   0  0  2  0  0  0  0  0  0  0  0  0
   94.7843    9.9556   91.4066 C   0  0  1  0  0  0  0  0  0  0  0  0
   95.3581    9.3141   92.3101 C   0  0  1  0  0  0  0  0  0  0  0  0
   97.1596   10.3294   91.1160 C   0  0  2  0  0  0  0  0  0  0  0  0
   97.7939   11.3199   91.8863 N   0  0  0  0  0  0  0  0  0  0  0  0
   92.9922   12.5712   93.4372 P   0  0  2  0  0  0  0  0  0  0  0  0
   95.0587    7.4119   93.8793 P   0  0  1  0  0  0  0  0  0  0  0  0
   92.9224    8.6490   94.7323 C   0  0  0  0  0  0  0  0  0  0  0  0
   94.2818    8.2404   94.9534 O   0  0  0  0  0  0  0  0  0  0  0  0
   92.4499    9.7306   95.6094 C   0  0  1  0  0  0  0  0  0  0  0  0
   92.9647    9.4212   97.1001 O   0  0  0  0  0  0  0  0  0  0  0  0
   92.9914   10.8172   95.2841 C   0  0  1  0  0  0  0  0  0  0  0  0
   92.2432   11.5182   94.2642 O   0  0  0  0  0  0  0  0  0  0  0  0
   93.1202   11.5727   96.5981 C   0  0  1  0  0  0  0  0  0  0  0  0
   92.0434   12.1750   96.8617 O   0  0  0  0  0  0  0  0  0  0  0  0
   93.3414   10.4803   97.6444 C   0  0  2  0  0  0  0  0  0  0  0  0
   95.8418   10.5932  102.1354 N   0  0  0  0  0  0  0  0  0  0  0  0
   94.5032   10.7220  101.9393 C   0  0  0  0  0  0  0  0  0  0  0  0
   94.0588   10.6551  100.6901 N   0  0  0  0  0  0  0  0  0  0  0  0
   94.8531   10.5322   99.6052 C   0  0  0  0  0  0  0  0  0  0  0  0
   96.2484   10.3956   99.7685 C   0  0  0  0  0  0  0  0  0  0  0  0
   96.7150   10.4473  101.1208 C   0  0  0  0  0  0  0  0  0  0  0  0
   98.1134   10.3407  101.3796 N   0  0  0  0  0  0  0  0  0  0  0  0
   96.7442   10.2533   98.5897 N   0  0  0  0  0  0  0  0  0  0  0  0
   95.7600   10.2682   97.7076 C   0  0  0  0  0  0  0  0  0  0  0  0
   94.6274   10.4531   98.2858 N   0  0  0  0  0  0  0  0  0  0  0  0
  1 24  1  0  0  0  0
  1  4  2  0  0  0  0
  2 13  1  0  0  0  0
  2 21  1  0  0  0  0
  3 16  1  0  0  0  0
  4 18  1  0  0  0  0
  5 19  2  0  0  0  0
  5 16  1  0  0  0  0
  6 16  2  0  0  0  0
  6 17  1  0  0  0  0
  7 17  1  0  0  0  0
 11 25  2  0  0  0  0
 12 26  2  0  0  0  0
 13 25  1  0  0  0  0
 14 23  1  0  0  0  0
 15 26  1  0  0  0  0
 17 18  2  0  0  0  0
 18 19  1  0  0  0  0
 19 24  1  0  0  0  0
 20 10  1  6  0  0  0
 20 22  1  0  0  0  0
 20 23  1  0  0  0  0
 21 14  1  1  0  0  0
 21 22  1  0  0  0  0
 22 15  1  6  0  0  0
 23 24  1  1  0  0  0
 25  8  1  6  0  0  0
 25 32  1  0  0  0  0
 26  9  1  6  0  0  0
 26 28  1  0  0  0  0
 27 28  1  0  0  0  0
 29 27  1  6  0  0  0
 29 30  1  0  0  0  0
 29 31  1  0  0  0  0
 30 35  1  0  0  0  0
 31 33  1  0  0  0  0
 31 32  1  6  0  0  0
 33 34  1  1  0  0  0
 33 35  1  0  0  0  0
 35 45  1  6  0  0  0
 36 41  2  0  0  0  0
 36 37  1  0  0  0  0
 37 38  2  0  0  0  0
 38 39  1  0  0  0  0
 39 40  2  0  0  0  0
 39 45  1  0  0  0  0
 40 41  1  0  0  0  0
 40 43  1  0  0  0  0
 41 42  1  0  0  0  0
 43 44  2  0  0  0  0
 44 45  1  0  0  0  0
M  CHG  4   8  -1   9  -1  11  -1  12  -1
M  END
>  <CHROM.1>
174.33036475,-111.57184763,95.22719241,10.88784312,94.75913816,-1.23007461
1.13525189,1.45855157

>  <Name>
ligand

>  <RI>
0

>  <Rbt.Current_Directory>
/home/itssahil/PROJECTS/Mol_Feturizer/New_Systems/rnas/4YAZ

>  <Rbt.Executable>
rbdock ($Id: //depot/dev/client3/rdock/2013.1/src/exe/rbdock.cxx#4 $)

>  <Rbt.Library>
libRbt.so (2013.1, Build901 2013/11/27)

>  <Rbt.Parameter_File>
/export/apps/rDock/src/rDock_2013.1_src/data/scripts/dock_solv.prm

>  <Rbt.Receptor>
prm/pocket_docking_5.prm

>  <SCORE>
-19.7696

>  <SCORE.INTER>
-21.4087

>  <SCORE.INTER.CONST>
1

>  <SCORE.INTER.POLAR>
0

>  <SCORE.INTER.ROT>
2

>  <SCORE.INTER.SOLV>
21.6073

>  <SCORE.INTER.VDW>
-26.4082

>  <SCORE.INTER.norm>
-0.475749

>  <SCORE.INTRA>
1.63912

>  <SCORE.INTRA.DIHEDRAL>
-0.0329615

>  <SCORE.INTRA.DIHEDRAL.0>
2.39103

>  <SCORE.INTRA.POLAR>
0

>  <SCORE.INTRA.POLAR.0>
0

>  <SCORE.INTRA.REPUL>
0

>  <SCORE.INTRA.REPUL.0>
0

>  <SCORE.INTRA.SOLV>
6.23018

>  <SCORE.INTRA.SOLV.lig_0>
-163.975

>  <SCORE.INTRA.VDW>
-1.45949

>  <SCORE.INTRA.VDW.0>
-1.49176

>  <SCORE.INTRA.norm>
0.0364248

>  <SCORE.RESTR>
0

>  <SCORE.RESTR.CAVITY>
0

>  <SCORE.RESTR.norm>
0

>  <SCORE.SYSTEM>
0

>  <SCORE.SYSTEM.CONST>
0

>  <SCORE.SYSTEM.DIHEDRAL>
0

>  <SCORE.SYSTEM.SOLV>
0

>  <SCORE.SYSTEM.norm>
0

>  <SCORE.heavy>
45

>  <SCORE.norm>
-0.439324

>  <RMSD>
5.142

$$$$
ligand
 OpenBabel11021811523D
libRbt.so/2013.1/901 2013/11/27
 45 51  0  0  0  0  0  0  0  0999 V2000
   96.2887   15.2913   94.7301 C   0  0  0  0  0  0  0  0  0  0  0  0
   95.7883   11.5488   91.1925 C   0  0  0  0  0  0  0  0  0  0  0  0
   91.5924   14.9141   91.5355 N   0  0  0  0  0  0  0  0  0  0  0  0
   95.2335   15.5392   95.4362 N   0  0  0  0  0  0  0  0  0  0  0  0
   93.7757   14.9628   92.3645 N   0  0  0  0  0  0  0  0  0  0  0  0
   91.9888   15.4232   93.7825 N   0  0  0  0  0  0  0  0  0  0  0  0
   92.3538   15.8890   96.1115 O   0  0  0  0  0  0  0  0  0  0  0  0
   92.9112   10.4393   90.9307 O   0  5  0  0  0  0  0  0  0  0  0  0
  100.2076   10.1660   93.1176 O   0  5  0  0  0  0  0  0  0  0  0  0
   99.1140   14.1663   92.4532 O   0  0  0  0  0  0  0  0  0  0  0  0
   92.7260   10.8244   93.1149 O   0  5  0  0  0  0  0  0  0  0  0  0
   99.5520   11.7600   94.5408 O   0  5  0  0  0  0  0  0  0  0  0  0
   94.5904   11.8467   91.7897 O   0  0  0  0  0  0  0  0  0  0  0  0
   96.2122   14.0557   91.3551 O   0  0  0  0  0  0  0  0  0  0  0  0
   98.5670   11.6120   92.1940 O   0  0  0  0  0  0  0  0  0  0  0  0
   92.5025   15.1212   92.6160 C   0  0  0  0  0  0  0  0  0  0  0  0
   92.7932   15.5844   94.8245 C   0  0  0  0  0  0  0  0  0  0  0  0
   94.1859   15.4490   94.6269 C   0  0  0  0  0  0  0  0  0  0  0  0
   94.6570   15.1230   93.3789 C   0  0  0  0  0  0  0  0  0  0  0  0
   97.8319   13.9290   92.9001 C   0  0  2  0  0  0  0  0  0  0  0  0
   96.7821   12.6268   91.3602 C   0  0  1  0  0  0  0  0  0  0  0  0
   97.4315   12.4416   92.4096 C   0  0  1  0  0  0  0  0  0  0  0  0
   96.9023   14.7690   92.4840 C   0  0  2  0  0  0  0  0  0  0  0  0
   95.9825   15.0549   93.5082 N   0  0  0  0  0  0  0  0  0  0  0  0
   93.6865   10.6116   92.0897 P   0  0  2  0  0  0  0  0  0  0  0  0
   99.0795   10.9157   93.4708 P   0  0  1  0  0  0  0  0  0  0  0  0
   97.3777    8.9924   92.9945 C   0  0  0  0  0  0  0  0  0  0  0  0
   98.0169    9.8681   93.9370 O   0  0  0  0  0  0  0  0  0  0  0  0
   96.1457    8.3528   93.4797 C   0  0  1  0  0  0  0  0  0  0  0  0
   96.4025    7.8616   94.9882 O   0  0  0  0  0  0  0  0  0  0  0  0
   95.2203    9.2001   93.5536 C   0  0  1  0  0  0  0  0  0  0  0  0
   94.4905    9.3238   92.3112 O   0  0  0  0  0  0  0  0  0  0  0  0
   94.3800    8.7266   94.7298 C   0  0  1  0  0  0  0  0  0  0  0  0
   93.5591    7.8460   94.3524 O   0  0  0  0  0  0  0  0  0  0  0  0
   95.3880    8.0832   95.6822 C   0  0  2  0  0  0  0  0  0  0  0  0
   93.2682   11.0003   99.3471 N   0  0  0  0  0  0  0  0  0  0  0  0
   92.6972   10.6114   98.1767 C   0  0  0  0  0  0  0  0  0  0  0  0
   93.4205    9.8465   97.3678 N   0  0  0  0  0  0  0  0  0  0  0  0
   94.7003    9.4865   97.6034 C   0  0  0  0  0  0  0  0  0  0  0  0
   95.3274    9.8710   98.8079 C   0  0  0  0  0  0  0  0  0  0  0  0
   94.5315   10.6772   99.6829 C   0  0  0  0  0  0  0  0  0  0  0  0
   95.0917   11.1316  100.9132 N   0  0  0  0  0  0  0  0  0  0  0  0
   96.5086    9.3609   98.7865 N   0  0  0  0  0  0  0  0  0  0  0  0
   96.6550    8.6693   97.6697 C   0  0  0  0  0  0  0  0  0  0  0  0
   95.5999    8.7456   96.9401 N   0  0  0  0  0  0  0  0  0  0  0  0
  1 24  1  0  0  0  0
  1  4  2  0  0  0  0
  2 13  1  0  0  0  0
  2 21  1  0  0  0  0
  3 16  1  0  0  0  0
  4 18  1  0  0  0  0
  5 19  2  0  0  0  0
  5 16  1  0  0  0  0
  6 16  2  0  0  0  0
  6 17  1  0  0  0  0
  7 17  1  0  0  0  0
 11 25  2  0  0  0  0
 12 26  2  0  0  0  0
 13 25  1  0  0  0  0
 14 23  1  0  0  0  0
 15 26  1  0  0  0  0
 17 18  2  0  0  0  0
 18 19  1  0  0  0  0
 19 24  1  0  0  0  0
 20 10  1  6  0  0  0
 20 22  1  0  0  0  0
 20 23  1  0  0  0  0
 21 14  1  1  0  0  0
 21 22  1  0  0  0  0
 22 15  1  6  0  0  0
 23 24  1  1  0  0  0
 25  8  1  6  0  0  0
 25 32  1  0  0  0  0
 26  9  1  6  0  0  0
 26 28  1  0  0  0  0
 27 28  1  0  0  0  0
 29 27  1  1  0  0  0
 29 30  1  0  0  0  0
 29 31  1  0  0  0  0
 30 35  1  0  0  0  0
 31 33  1  0  0  0  0
 31 32  1  6  0  0  0
 33 34  1  6  0  0  0
 33 35  1  0  0  0  0
 35 45  1  1  0  0  0
 36 41  2  0  0  0  0
 36 37  1  0  0  0  0
 37 38  2  0  0  0  0
 38 39  1  0  0  0  0
 39 40  2  0  0  0  0
 39 45  1  0  0  0  0
 40 41  1  0  0  0  0
 40 43  1  0  0  0  0
 41 42  1  0  0  0  0
 43 44  2  0  0  0  0
 44 45  1  0  0  0  0
M  CHG  4   8  -1   9  -1  11  -1  12  -1
M  END
>  <CHROM.1>
158.71639600,154.80921949,95.46352561,11.63974546,94.26166521,1.65218165
0.71866223,-0.79698585

>  <Name>
ligand

>  <RI>
0

>  <Rbt.Current_Directory>
/home/itssahil/PROJECTS/Mol_Feturizer/New_Systems/rnas/4YAZ

>  <Rbt.Executable>
rbdock ($Id: //depot/dev/client3/rdock/2013.1/src/exe/rbdock.cxx#4 $)

>  <Rbt.Library>
libRbt.so (2013.1, Build901 2013/11/27)

>  <Rbt.Parameter_File>
/export/apps/rDock/src/rDock_2013.1_src/data/scripts/dock_solv.prm

>  <Rbt.Receptor>
prm/pocket_docking_8.prm

>  <SCORE>
-20.6688

>  <SCORE.INTER>
-20.6244

>  <SCORE.INTER.CONST>
1

>  <SCORE.INTER.POLAR>
0

>  <SCORE.INTER.ROT>
2

>  <SCORE.INTER.SOLV>
17.4279

>  <SCORE.INTER.VDW>
-24.4922

>  <SCORE.INTER.norm>
-0.458319

>  <SCORE.INTRA>
-0.0444366

>  <SCORE.INTRA.DIHEDRAL>
-0.121676

>  <SCORE.INTRA.DIHEDRAL.0>
2.39103

>  <SCORE.INTRA.POLAR>
0

>  <SCORE.INTRA.POLAR.0>
0

>  <SCORE.INTRA.REPUL>
0

>  <SCORE.INTRA.REPUL.0>
0

>  <SCORE.INTRA.SOLV>
0.0678019

>  <SCORE.INTRA.SOLV.lig_0>
-163.975

>  <SCORE.INTRA.VDW>
-0.0174997

>  <SCORE.INTRA.VDW.0>
-1.49176

>  <SCORE.INTRA.norm>
-0.00098748

>  <SCORE.RESTR>
0

>  <SCORE.RESTR.CAVITY>
0

>  <SCORE.RESTR.norm>
0

>  <SCORE.SYSTEM>
0

>  <SCORE.SYSTEM.CONST>
0

>  <SCORE.SYSTEM.DIHEDRAL>
0

>  <SCORE.SYSTEM.SOLV>
0

>  <SCORE.SYSTEM.norm>
0

>  <SCORE.heavy>
45

>  <SCORE.norm>
-0.459307

>  <RMSD>
5.161

$$$$
ligand
 OpenBabel11021811513D
libRbt.so/2013.1/901 2013/11/27
 45 51  0  0  0  0  0  0  0  0999 V2000
   93.6375   14.5412   95.4503 C   0  0  0  0  0  0  0  0  0  0  0  0
   95.6093   13.0193   92.2370 C   0  0  0  0  0  0  0  0  0  0  0  0
   90.3750   19.1973   95.1665 N   0  0  0  0  0  0  0  0  0  0  0  0
   92.6245   14.4398   96.2483 N   0  0  0  0  0  0  0  0  0  0  0  0
   92.0319   17.5685   94.9245 N   0  0  0  0  0  0  0  0  0  0  0  0
   90.2679   17.2146   96.4007 N   0  0  0  0  0  0  0  0  0  0  0  0
   90.0917   15.1627   97.6389 O   0  0  0  0  0  0  0  0  0  0  0  0
   93.9024   10.5377   91.5256 O   0  5  0  0  0  0  0  0  0  0  0  0
   99.9094   14.0983   94.5807 O   0  5  0  0  0  0  0  0  0  0  0  0
   96.7654   16.8443   94.1166 O   0  0  0  0  0  0  0  0  0  0  0  0
   93.4079   10.4443   93.6936 O   0  5  0  0  0  0  0  0  0  0  0  0
   98.3817   14.8343   96.0370 O   0  5  0  0  0  0  0  0  0  0  0  0
   94.4247   12.5081   92.7017 O   0  0  0  0  0  0  0  0  0  0  0  0
   94.5147   15.2810   92.6578 O   0  0  0  0  0  0  0  0  0  0  0  0
   97.7918   14.4884   93.5810 O   0  0  0  0  0  0  0  0  0  0  0  0
   90.9275   17.9300   95.5236 C   0  0  0  0  0  0  0  0  0  0  0  0
   90.7216   16.0133   96.7322 C   0  0  0  0  0  0  0  0  0  0  0  0
   91.9227   15.5607   96.1409 C   0  0  0  0  0  0  0  0  0  0  0  0
   92.5594   16.3584   95.2224 C   0  0  0  0  0  0  0  0  0  0  0  0
   95.8262   15.8700   94.3780 C   0  0  2  0  0  0  0  0  0  0  0  0
   95.7975   14.4329   92.6165 C   0  0  1  0  0  0  0  0  0  0  0  0
   96.3760   14.4995   93.7202 C   0  0  1  0  0  0  0  0  0  0  0  0
   94.6086   16.0929   93.9193 C   0  0  2  0  0  0  0  0  0  0  0  0
   93.6345   15.6683   94.8400 N   0  0  0  0  0  0  0  0  0  0  0  0
   94.3736   10.9515   92.7830 P   0  0  2  0  0  0  0  0  0  0  0  0
   98.5375   14.0292   94.8503 P   0  0  1  0  0  0  0  0  0  0  0  0
   98.2701   11.5716   94.0071 C   0  0  0  0  0  0  0  0  0  0  0  0
   98.2399   12.5135   95.0914 O   0  0  0  0  0  0  0  0  0  0  0  0
   97.5996   10.2915   94.2794 C   0  0  1  0  0  0  0  0  0  0  0  0
   98.0057    9.8243   95.7626 O   0  0  0  0  0  0  0  0  0  0  0  0
   96.3536   10.4546   94.3063 C   0  0  1  0  0  0  0  0  0  0  0  0
   95.7553   10.3197   92.9966 O   0  0  0  0  0  0  0  0  0  0  0  0
   95.8701    9.4333   95.3247 C   0  0  1  0  0  0  0  0  0  0  0  0
   95.7224    8.3069   94.7759 O   0  0  0  0  0  0  0  0  0  0  0  0
   97.0095    9.3402   96.3397 C   0  0  2  0  0  0  0  0  0  0  0  0
   93.3604   10.8973   99.6098 N   0  0  0  0  0  0  0  0  0  0  0  0
   93.1990   10.5540   98.3048 C   0  0  0  0  0  0  0  0  0  0  0  0
   94.2791   10.1694   97.6355 N   0  0  0  0  0  0  0  0  0  0  0  0
   95.5284   10.1592   98.1476 C   0  0  0  0  0  0  0  0  0  0  0  0
   95.7360   10.5090   99.4990 C   0  0  0  0  0  0  0  0  0  0  0  0
   94.5618   10.9012  100.2178 C   0  0  0  0  0  0  0  0  0  0  0  0
   94.6801   11.2937  101.5838 N   0  0  0  0  0  0  0  0  0  0  0  0
   96.9951   10.3701   99.7254 N   0  0  0  0  0  0  0  0  0  0  0  0
   97.5823    9.9385   98.6228 C   0  0  0  0  0  0  0  0  0  0  0  0
   96.7336    9.8246   97.6645 N   0  0  0  0  0  0  0  0  0  0  0  0
  1 24  1  0  0  0  0
  1  4  2  0  0  0  0
  2 13  1  0  0  0  0
  2 21  1  0  0  0  0
  3 16  1  0  0  0  0
  4 18  1  0  0  0  0
  5 19  2  0  0  0  0
  5 16  1  0  0  0  0
  6 16  2  0  0  0  0
  6 17  1  0  0  0  0
  7 17  1  0  0  0  0
 11 25  2  0  0  0  0
 12 26  2  0  0  0  0
 13 25  1  0  0  0  0
 14 23  1  0  0  0  0
 15 26  1  0  0  0  0
 17 18  2  0  0  0  0
 18 19  1  0  0  0  0
 19 24  1  0  0  0  0
 20 10  1  6  0  0  0
 20 22  1  0  0  0  0
 20 23  1  0  0  0  0
 21 14  1  1  0  0  0
 21 22  1  0  0  0  0
 22 15  1  6  0  0  0
 23 24  1  1  0  0  0
 25  8  1  6  0  0  0
 25 32  1  0  0  0  0
 26  9  1  6  0  0  0
 26 28  1  0  0  0  0
 27 28  1  0  0  0  0
 29 27  1  1  0  0  0
 29 30  1  0  0  0  0
 29 31  1  0  0  0  0
 30 35  1  0  0  0  0
 31 33  1  0  0  0  0
 31 32  1  6  0  0  0
 33 34  1  6  0  0  0
 33 35  1  0  0  0  0
 35 45  1  1  0  0  0
 36 41  2  0  0  0  0
 36 37  1  0  0  0  0
 37 38  2  0  0  0  0
 38 39  1  0  0  0  0
 39 40  2  0  0  0  0
 39 45  1  0  0  0  0
 40 41  1  0  0  0  0
 40 43  1  0  0  0  0
 41 42  1  0  0  0  0
 43 44  2  0  0  0  0
 44 45  1  0  0  0  0
M  CHG  4   8  -1   9  -1  11  -1  12  -1
M  END
>  <CHROM.1>
69.19188871,136.33743583,95.12699732,12.94455044,95.40750967,2.41737946,0.69485317
-0.79034648

>  <Name>
ligand

>  <RI>
0

>  <Rbt.Current_Directory>
/home/itssahil/PROJECTS/Mol_Feturizer/New_Systems/rnas/4YAZ

>  <Rbt.Executable>
rbdock ($Id: //depot/dev/client3/rdock/2013.1/src/exe/rbdock.cxx#4 $)

>  <Rbt.Library>
libRbt.so (2013.1, Build901 2013/11/27)

>  <Rbt.Parameter_File>
/export/apps/rDock/src/rDock_2013.1_src/data/scripts/dock_solv.prm

>  <Rbt.Receptor>
prm/pocket_docking_6.prm

>  <SCORE>
-20.9258

>  <SCORE.INTER>
-21.0604

>  <SCORE.INTER.CONST>
1

>  <SCORE.INTER.POLAR>
0

>  <SCORE.INTER.ROT>
2

>  <SCORE.INTER.SOLV>
26.342

>  <SCORE.INTER.VDW>
-27.7542

>  <SCORE.INTER.norm>
-0.468008

>  <SCORE.INTRA>
0.134531

>  <SCORE.INTRA.DIHEDRAL>
-0.0855761

>  <SCORE.INTRA.DIHEDRAL.0>
2.39103

>  <SCORE.INTRA.POLAR>
0

>  <SCORE.INTRA.POLAR.0>
0

>  <SCORE.INTRA.REPUL>
0

>  <SCORE.INTRA.REPUL.0>
0

>  <SCORE.INTRA.SOLV>
0.0160803

>  <SCORE.INTRA.SOLV.lig_0>
-163.975

>  <SCORE.INTRA.VDW>
0.169279

>  <SCORE.INTRA.VDW.0>
-1.49176

>  <SCORE.INTRA.norm>
0.00298959

>  <SCORE.RESTR>
0

>  <SCORE.RESTR.CAVITY>
0

>  <SCORE.RESTR.norm>
0

>  <SCORE.SYSTEM>
0

>  <SCORE.SYSTEM.CONST>
0

>  <SCORE.SYSTEM.DIHEDRAL>
0

>  <SCORE.SYSTEM.SOLV>
0

>  <SCORE.SYSTEM.norm>
0

>  <SCORE.heavy>
45

>  <SCORE.norm>
-0.465019

>  <RMSD>
5.378

$$$$
ligand
 OpenBabel11021811513D
libRbt.so/2013.1/901 2013/11/27
 45 51  0  0  0  0  0  0  0  0999 V2000
   97.1496   12.5742   91.8225 C   0  0  0  0  0  0  0  0  0  0  0  0
   93.0413   12.5629   92.2806 C   0  0  0  0  0  0  0  0  0  0  0  0
   99.9896    7.6858   92.4868 N   0  0  0  0  0  0  0  0  0  0  0  0
   98.2537   12.7701   92.4673 N   0  0  0  0  0  0  0  0  0  0  0  0
   98.4457    9.3623   91.9747 N   0  0  0  0  0  0  0  0  0  0  0  0
  100.3921    9.8961   93.1334 N   0  0  0  0  0  0  0  0  0  0  0  0
  100.8687   12.1666   93.7592 O   0  0  0  0  0  0  0  0  0  0  0  0
   92.8589   15.4871   93.2771 O   0  5  0  0  0  0  0  0  0  0  0  0
   92.0350    7.9388   93.9401 O   0  5  0  0  0  0  0  0  0  0  0  0
   94.8258    8.7626   90.9114 O   0  0  0  0  0  0  0  0  0  0  0  0
   94.5642   14.9786   94.6138 O   0  5  0  0  0  0  0  0  0  0  0  0
   94.2695    7.9776   93.9798 O   0  5  0  0  0  0  0  0  0  0  0  0
   93.9622   13.4938   92.6875 O   0  0  0  0  0  0  0  0  0  0  0  0
   94.8503   11.8545   90.6325 O   0  0  0  0  0  0  0  0  0  0  0  0
   92.9553    9.6212   92.5409 O   0  0  0  0  0  0  0  0  0  0  0  0
   99.5816    9.0529   92.5434 C   0  0  0  0  0  0  0  0  0  0  0  0
  100.0738   11.1829   93.1739 C   0  0  0  0  0  0  0  0  0  0  0  0
   98.8501   11.5920   92.5975 C   0  0  0  0  0  0  0  0  0  0  0  0
   98.0511   10.6567   91.9874 C   0  0  0  0  0  0  0  0  0  0  0  0
   95.2861    9.8729   91.5861 C   0  0  2  0  0  0  0  0  0  0  0  0
   93.6581   11.4585   91.5205 C   0  0  1  0  0  0  0  0  0  0  0  0
   94.0057   10.5509   92.3032 C   0  0  1  0  0  0  0  0  0  0  0  0
   95.8900   10.7924   90.8564 C   0  0  2  0  0  0  0  0  0  0  0  0
   96.9947   11.3344   91.5366 N   0  0  0  0  0  0  0  0  0  0  0  0
   93.5008   14.3907   93.8771 P   0  0  2  0  0  0  0  0  0  0  0  0
   93.1119    8.8290   93.8545 P   0  0  1  0  0  0  0  0  0  0  0  0
   91.8803   10.7838   95.0728 C   0  0  0  0  0  0  0  0  0  0  0  0
   92.9350    9.8084   95.0601 O   0  0  0  0  0  0  0  0  0  0  0  0
   92.0585   11.8765   96.0405 C   0  0  1  0  0  0  0  0  0  0  0  0
   92.5802   11.2377   97.4199 O   0  0  0  0  0  0  0  0  0  0  0  0
   92.9750   12.6466   95.6573 C   0  0  1  0  0  0  0  0  0  0  0  0
   92.4832   13.6940   94.7897 O   0  0  0  0  0  0  0  0  0  0  0  0
   93.6013   13.1462   96.9504 C   0  0  1  0  0  0  0  0  0  0  0  0
   92.9486   14.1279   97.3999 O   0  0  0  0  0  0  0  0  0  0  0  0
   93.4563   11.9736   97.9206 C   0  0  2  0  0  0  0  0  0  0  0  0
   96.0951   10.1076  101.9192 N   0  0  0  0  0  0  0  0  0  0  0  0
   94.8998   10.7532  101.9556 C   0  0  0  0  0  0  0  0  0  0  0  0
   94.3833   11.1496  100.7987 N   0  0  0  0  0  0  0  0  0  0  0  0
   94.9960   11.0097   99.6037 C   0  0  0  0  0  0  0  0  0  0  0  0
   96.2383   10.3444   99.5254 C   0  0  0  0  0  0  0  0  0  0  0  0
   96.7762    9.9017  100.7760 C   0  0  0  0  0  0  0  0  0  0  0  0
   98.0392    9.2397  100.7956 N   0  0  0  0  0  0  0  0  0  0  0  0
   96.5627   10.3168   98.2805 N   0  0  0  0  0  0  0  0  0  0  0  0
   95.6049   10.8948   97.5766 C   0  0  0  0  0  0  0  0  0  0  0  0
   94.6714   11.3329   98.3435 N   0  0  0  0  0  0  0  0  0  0  0  0
  1 24  1  0  0  0  0
  1  4  2  0  0  0  0
  2 13  1  0  0  0  0
  2 21  1  0  0  0  0
  3 16  1  0  0  0  0
  4 18  1  0  0  0  0
  5 19  2  0  0  0  0
  5 16  1  0  0  0  0
  6 16  2  0  0  0  0
  6 17  1  0  0  0  0
  7 17  1  0  0  0  0
 11 25  2  0  0  0  0
 12 26  2  0  0  0  0
 13 25  1  0  0  0  0
 14 23  1  0  0  0  0
 15 26  1  0  0  0  0
 17 18  2  0  0  0  0
 18 19  1  0  0  0  0
 19 24  1  0  0  0  0
 20 10  1  6  0  0  0
 20 22  1  0  0  0  0
 20 23  1  0  0  0  0
 21 14  1  1  0  0  0
 21 22  1  0  0  0  0
 22 15  1  6  0  0  0
 23 24  1  1  0  0  0
 25  8  1  6  0  0  0
 25 32  1  0  0  0  0
 26  9  1  1  0  0  0
 26 28  1  0  0  0  0
 27 28  1  0  0  0  0
 29 27  1  6  0  0  0
 29 30  1  0  0  0  0
 29 31  1  0  0  0  0
 30 35  1  0  0  0  0
 31 33  1  0  0  0  0
 31 32  1  1  0  0  0
 33 34  1  1  0  0  0
 33 35  1  0  0  0  0
 35 45  1  6  0  0  0
 36 41  2  0  0  0  0
 36 37  1  0  0  0  0
 37 38  2  0  0  0  0
 38 39  1  0  0  0  0
 39 40  2  0  0  0  0
 39 45  1  0  0  0  0
 40 41  1  0  0  0  0
 40 43  1  0  0  0  0
 41 42  1  0  0  0  0
 43 44  2  0  0  0  0
 44 45  1  0  0  0  0
M  CHG  4   8  -1   9  -1  11  -1  12  -1
M  END
>  <CHROM.1>
-5.63523988,-101.22463176,95.15192230,11.18642913,94.81698544,-1.30630729
-0.39710343,1.64039405

>  <Name>
ligand

>  <RI>
0

>  <Rbt.Current_Directory>
/home/itssahil/PROJECTS/Mol_Feturizer/New_Systems/rnas/4YAZ

>  <Rbt.Executable>
rbdock ($Id: //depot/dev/client3/rdock/2013.1/src/exe/rbdock.cxx#4 $)

>  <Rbt.Library>
libRbt.so (2013.1, Build901 2013/11/27)

>  <Rbt.Parameter_File>
/export/apps/rDock/src/rDock_2013.1_src/data/scripts/dock_solv.prm

>  <Rbt.Receptor>
prm/pocket_docking_6.prm

>  <SCORE>
-21.3137

>  <SCORE.INTER>
-21.0453

>  <SCORE.INTER.CONST>
1

>  <SCORE.INTER.POLAR>
0

>  <SCORE.INTER.ROT>
2

>  <SCORE.INTER.SOLV>
22.8555

>  <SCORE.INTER.VDW>
-26.582

>  <SCORE.INTER.norm>
-0.467673

>  <SCORE.INTRA>
-0.268441

>  <SCORE.INTRA.DIHEDRAL>
-0.0967244

>  <SCORE.INTRA.DIHEDRAL.0>
2.39103

>  <SCORE.INTRA.POLAR>
0

>  <SCORE.INTRA.POLAR.0>
0

>  <SCORE.INTRA.REPUL>
0

>  <SCORE.INTRA.REPUL.0>
0

>  <SCORE.INTRA.SOLV>
-0.0353787

>  <SCORE.INTRA.SOLV.lig_0>
-163.975

>  <SCORE.INTRA.VDW>
-0.202389

>  <SCORE.INTRA.VDW.0>
-1.49176

>  <SCORE.INTRA.norm>
-0.00596535

>  <SCORE.RESTR>
0

>  <SCORE.RESTR.CAVITY>
0

>  <SCORE.RESTR.norm>
0

>  <SCORE.SYSTEM>
0

>  <SCORE.SYSTEM.CONST>
0

>  <SCORE.SYSTEM.DIHEDRAL>
0

>  <SCORE.SYSTEM.SOLV>
0

>  <SCORE.SYSTEM.norm>
0

>  <SCORE.heavy>
45

>  <SCORE.norm>
-0.473638

>  <RMSD>
5.413

$$$$
ligand
 OpenBabel11021811513D
libRbt.so/2013.1/901 2013/11/27
 45 51  0  0  0  0  0  0  0  0999 V2000
   92.7304   14.0976   93.0028 C   0  0  0  0  0  0  0  0  0  0  0  0
   96.7187   12.9302   92.0514 C   0  0  0  0  0  0  0  0  0  0  0  0
   92.6514   17.0692   97.8573 N   0  0  0  0  0  0  0  0  0  0  0  0
   91.7742   13.6907   93.7731 N   0  0  0  0  0  0  0  0  0  0  0  0
   93.1319   16.1615   95.7593 N   0  0  0  0  0  0  0  0  0  0  0  0
   91.3612   15.3138   97.0091 N   0  0  0  0  0  0  0  0  0  0  0  0
   89.9751   13.5524   96.1428 O   0  0  0  0  0  0  0  0  0  0  0  0
   95.9853   10.0987   91.0404 O   0  5  0  0  0  0  0  0  0  0  0  0
   99.5441   15.0551   95.6081 O   0  5  0  0  0  0  0  0  0  0  0  0
   96.2339   16.9393   93.8383 O   0  0  0  0  0  0  0  0  0  0  0  0
   94.7894    9.9065   92.9076 O   0  5  0  0  0  0  0  0  0  0  0  0
   97.4752   15.4062   96.3778 O   0  5  0  0  0  0  0  0  0  0  0  0
   95.5954   12.1477   92.1302 O   0  0  0  0  0  0  0  0  0  0  0  0
   95.0637   14.8571   91.8550 O   0  0  0  0  0  0  0  0  0  0  0  0
   97.8891   14.9032   93.9130 O   0  0  0  0  0  0  0  0  0  0  0  0
   92.3737   16.1240   96.8238 C   0  0  0  0  0  0  0  0  0  0  0  0
   91.0407   14.4466   96.0583 C   0  0  0  0  0  0  0  0  0  0  0  0
   91.8273   14.4133   94.8847 C   0  0  0  0  0  0  0  0  0  0  0  0
   92.8701   15.2967   94.7518 C   0  0  0  0  0  0  0  0  0  0  0  0
   95.5102   15.7663   93.8550 C   0  0  2  0  0  0  0  0  0  0  0  0
   96.4344   14.3502   92.3354 C   0  0  1  0  0  0  0  0  0  0  0  0
   96.5529   14.5671   93.5586 C   0  0  1  0  0  0  0  0  0  0  0  0
   94.5177   15.6787   92.9891 C   0  0  2  0  0  0  0  0  0  0  0  0
   93.4039   15.0362   93.5579 N   0  0  0  0  0  0  0  0  0  0  0  0
   95.8732   10.6272   92.3374 P   0  0  2  0  0  0  0  0  0  0  0  0
   98.2198   14.6532   95.3983 P   0  0  1  0  0  0  0  0  0  0  0  0
   98.8334   12.1977   94.7533 C   0  0  0  0  0  0  0  0  0  0  0  0
   98.2080   13.1132   95.6669 O   0  0  0  0  0  0  0  0  0  0  0  0
   98.4189   10.7946   94.9013 C   0  0  1  0  0  0  0  0  0  0  0  0
   98.3675   10.4552   96.4713 O   0  0  0  0  0  0  0  0  0  0  0  0
   97.2421   10.6465   94.4853 C   0  0  1  0  0  0  0  0  0  0  0  0
   97.1942   10.3565   93.0693 O   0  0  0  0  0  0  0  0  0  0  0  0
   96.6741    9.5471   95.3700 C   0  0  1  0  0  0  0  0  0  0  0  0
   96.9901    8.4139   94.9140 O   0  0  0  0  0  0  0  0  0  0  0  0
   97.3690    9.7463   96.7170 C   0  0  2  0  0  0  0  0  0  0  0  0
   96.9754   10.1101  101.8305 N   0  0  0  0  0  0  0  0  0  0  0  0
   97.9895    9.5438  101.1249 C   0  0  0  0  0  0  0  0  0  0  0  0
   97.8982    9.5627   99.8006 N   0  0  0  0  0  0  0  0  0  0  0  0
   96.8396   10.0481   99.1174 C   0  0  0  0  0  0  0  0  0  0  0  0
   95.7673   10.6442   99.8151 C   0  0  0  0  0  0  0  0  0  0  0  0
   95.8857   10.6381  101.2416 C   0  0  0  0  0  0  0  0  0  0  0  0
   94.8376   11.1989  102.0298 N   0  0  0  0  0  0  0  0  0  0  0  0
   94.9319   11.0528   98.9257 N   0  0  0  0  0  0  0  0  0  0  0  0
   95.4149   10.7759   97.7269 C   0  0  0  0  0  0  0  0  0  0  0  0
   96.5393   10.1602   97.8153 N   0  0  0  0  0  0  0  0  0  0  0  0
  1 24  1  0  0  0  0
  1  4  2  0  0  0  0
  2 13  1  0  0  0  0
  2 21  1  0  0  0  0
  3 16  1  0  0  0  0
  4 18  1  0  0  0  0
  5 19  2  0  0  0  0
  5 16  1  0  0  0  0
  6 16  2  0  0  0  0
  6 17  1  0  0  0  0
  7 17  1  0  0  0  0
 11 25  2  0  0  0  0
 12 26  2  0  0  0  0
 13 25  1  0  0  0  0
 14 23  1  0  0  0  0
 15 26  1  0  0  0  0
 17 18  2  0  0  0  0
 18 19  1  0  0  0  0
 19 24  1  0  0  0  0
 20 10  1  6  0  0  0
 20 22  1  0  0  0  0
 20 23  1  0  0  0  0
 21 14  1  1  0  0  0
 21 22  1  0  0  0  0
 22 15  1  6  0  0  0
 23 24  1  1  0  0  0
 25  8  1  6  0  0  0
 25 32  1  0  0  0  0
 26  9  1  1  0  0  0
 26 28  1  0  0  0  0
 27 28  1  0  0  0  0
 29 27  1  1  0  0  0
 29 30  1  0  0  0  0
 29 31  1  0  0  0  0
 30 35  1  0  0  0  0
 31 33  1  0  0  0  0
 31 32  1  6  0  0  0
 33 34  1  6  0  0  0
 33 35  1  0  0  0  0
 35 45  1  1  0  0  0
 36 41  2  0  0  0  0
 36 37  1  0  0  0  0
 37 38  2  0  0  0  0
 38 39  1  0  0  0  0
 39 40  2  0  0  0  0
 39 45  1  0  0  0  0
 40 41  1  0  0  0  0
 40 43  1  0  0  0  0
 41 42  1  0  0  0  0
 43 44  2  0  0  0  0
 44 45  1  0  0  0  0
M  CHG  4   8  -1   9  -1  11  -1  12  -1
M  END
>  <CHROM.1>
-17.17316843,-73.56370436,95.73231964,12.71348482,95.49023837,2.10841861
0.76343568,-1.25221124

>  <Name>
ligand

>  <RI>
0

>  <Rbt.Current_Directory>
/home/itssahil/PROJECTS/Mol_Feturizer/New_Systems/rnas/4YAZ

>  <Rbt.Executable>
rbdock ($Id: //depot/dev/client3/rdock/2013.1/src/exe/rbdock.cxx#4 $)

>  <Rbt.Library>
libRbt.so (2013.1, Build901 2013/11/27)

>  <Rbt.Parameter_File>
/export/apps/rDock/src/rDock_2013.1_src/data/scripts/dock_solv.prm

>  <Rbt.Receptor>
prm/pocket_docking_5.prm

>  <SCORE>
-22.9366

>  <SCORE.INTER>
-23.1435

>  <SCORE.INTER.CONST>
1

>  <SCORE.INTER.POLAR>
0

>  <SCORE.INTER.ROT>
2

>  <SCORE.INTER.SOLV>
30.2512

>  <SCORE.INTER.VDW>
-30.4461

>  <SCORE.INTER.norm>
-0.5143

>  <SCORE.INTRA>
0.206919

>  <SCORE.INTRA.DIHEDRAL>
-0.0959987

>  <SCORE.INTRA.DIHEDRAL.0>
2.39103

>  <SCORE.INTRA.POLAR>
0

>  <SCORE.INTRA.POLAR.0>
0

>  <SCORE.INTRA.REPUL>
0

>  <SCORE.INTRA.REPUL.0>
0

>  <SCORE.INTRA.SOLV>
0.00124443

>  <SCORE.INTRA.SOLV.lig_0>
-163.975

>  <SCORE.INTRA.VDW>
0.254296

>  <SCORE.INTRA.VDW.0>
-1.49176

>  <SCORE.INTRA.norm>
0.0045982

>  <SCORE.RESTR>
0

>  <SCORE.RESTR.CAVITY>
0

>  <SCORE.RESTR.norm>
0

>  <SCORE.SYSTEM>
0

>  <SCORE.SYSTEM.CONST>
0

>  <SCORE.SYSTEM.DIHEDRAL>
0

>  <SCORE.SYSTEM.SOLV>
0

>  <SCORE.SYSTEM.norm>
0

>  <SCORE.heavy>
45

>  <SCORE.norm>
-0.509702

>  <RMSD>
5.448

$$$$
ligand
 OpenBabel11021811523D
libRbt.so/2013.1/901 2013/11/27
 45 51  0  0  0  0  0  0  0  0999 V2000
   95.3561   15.6017   94.5151 C   0  0  0  0  0  0  0  0  0  0  0  0
   96.3128   11.5748   91.4219 C   0  0  0  0  0  0  0  0  0  0  0  0
   91.8713   14.4162   90.1730 N   0  0  0  0  0  0  0  0  0  0  0  0
   94.1206   15.7639   94.8622 N   0  0  0  0  0  0  0  0  0  0  0  0
   93.6973   14.7963   91.5793 N   0  0  0  0  0  0  0  0  0  0  0  0
   91.5354   15.1265   92.3748 N   0  0  0  0  0  0  0  0  0  0  0  0
   91.1498   15.7957   94.6503 O   0  0  0  0  0  0  0  0  0  0  0  0
   93.7726   10.0738   90.4879 O   0  5  0  0  0  0  0  0  0  0  0  0
  100.0939   10.9482   94.6559 O   0  5  0  0  0  0  0  0  0  0  0  0
   98.8273   14.7029   93.2639 O   0  0  0  0  0  0  0  0  0  0  0  0
   92.9158   10.5988   92.4738 O   0  5  0  0  0  0  0  0  0  0  0  0
   98.8855   12.5457   95.6479 O   0  5  0  0  0  0  0  0  0  0  0  0
   94.9680   11.7552   91.6203 O   0  0  0  0  0  0  0  0  0  0  0  0
   96.4034   14.1208   91.4134 O   0  0  0  0  0  0  0  0  0  0  0  0
   98.6530   12.0861   93.1511 O   0  0  0  0  0  0  0  0  0  0  0  0
   92.3974   14.8108   91.4404 C   0  0  0  0  0  0  0  0  0  0  0  0
   91.9769   15.4597   93.5802 C   0  0  0  0  0  0  0  0  0  0  0  0
   93.3723   15.4867   93.8021 C   0  0  0  0  0  0  0  0  0  0  0  0
   94.2201   15.1362   92.7804 C   0  0  0  0  0  0  0  0  0  0  0  0
   97.5030   14.3318   93.3557 C   0  0  2  0  0  0  0  0  0  0  0  0
   97.0943   12.7856   91.7398 C   0  0  1  0  0  0  0  0  0  0  0  0
   97.4233   12.7707   92.9435 C   0  0  1  0  0  0  0  0  0  0  0  0
   96.6530   15.0052   92.6029 C   0  0  2  0  0  0  0  0  0  0  0  0
   95.4486   15.2442   93.2878 N   0  0  0  0  0  0  0  0  0  0  0  0
   94.1515   10.4375   91.7911 P   0  0  2  0  0  0  0  0  0  0  0  0
   98.8393   11.5655   94.5906 P   0  0  1  0  0  0  0  0  0  0  0  0
   97.5648    9.4010   93.8747 C   0  0  0  0  0  0  0  0  0  0  0  0
   97.8034   10.4247   94.8540 O   0  0  0  0  0  0  0  0  0  0  0  0
   96.3193    8.6421   94.0625 C   0  0  1  0  0  0  0  0  0  0  0  0
   96.1730    8.3080   95.6277 O   0  0  0  0  0  0  0  0  0  0  0  0
   95.3289    9.3613   93.7769 C   0  0  1  0  0  0  0  0  0  0  0  0
   94.9865    9.2898   92.3737 O   0  0  0  0  0  0  0  0  0  0  0  0
   94.2356    8.8723   94.7148 C   0  0  1  0  0  0  0  0  0  0  0  0
   93.6591    7.8633   94.2234 O   0  0  0  0  0  0  0  0  0  0  0  0
   94.9822    8.4451   95.9786 C   0  0  2  0  0  0  0  0  0  0  0  0
   96.9819   10.1722  100.3891 N   0  0  0  0  0  0  0  0  0  0  0  0
   97.5662    9.3265   99.5001 C   0  0  0  0  0  0  0  0  0  0  0  0
   96.8750    9.0104   98.4116 N   0  0  0  0  0  0  0  0  0  0  0  0
   95.6129    9.4219   98.1652 C   0  0  0  0  0  0  0  0  0  0  0  0
   94.9728   10.3008   99.0649 C   0  0  0  0  0  0  0  0  0  0  0  0
   95.7349   10.6528  100.2244 C   0  0  0  0  0  0  0  0  0  0  0  0
   95.1586   11.5186  101.2002 N   0  0  0  0  0  0  0  0  0  0  0  0
   93.8151   10.5588   98.5659 N   0  0  0  0  0  0  0  0  0  0  0  0
   93.6961    9.9245   97.4125 C   0  0  0  0  0  0  0  0  0  0  0  0
   94.7449    9.2254   97.1622 N   0  0  0  0  0  0  0  0  0  0  0  0
  1 24  1  0  0  0  0
  1  4  2  0  0  0  0
  2 13  1  0  0  0  0
  2 21  1  0  0  0  0
  3 16  1  0  0  0  0
  4 18  1  0  0  0  0
  5 19  2  0  0  0  0
  5 16  1  0  0  0  0
  6 16  2  0  0  0  0
  6 17  1  0  0  0  0
  7 17  1  0  0  0  0
 11 25  2  0  0  0  0
 12 26  2  0  0  0  0
 13 25  1  0  0  0  0
 14 23  1  0  0  0  0
 15 26  1  0  0  0  0
 17 18  2  0  0  0  0
 18 19  1  0  0  0  0
 19 24  1  0  0  0  0
 20 10  1  6  0  0  0
 20 22  1  0  0  0  0
 20 23  1  0  0  0  0
 21 14  1  1  0  0  0
 21 22  1  0  0  0  0
 22 15  1  6  0  0  0
 23 24  1  1  0  0  0
 25  8  1  6  0  0  0
 25 32  1  0  0  0  0
 26  9  1  1  0  0  0
 26 28  1  0  0  0  0
 27 28  1  0  0  0  0
 29 27  1  1  0  0  0
 29 30  1  0  0  0  0
 29 31  1  0  0  0  0
 30 35  1  0  0  0  0
 31 33  1  0  0  0  0
 31 32  1  6  0  0  0
 33 34  1  6  0  0  0
 33 35  1  0  0  0  0
 35 45  1  1  0  0  0
 36 41  2  0  0  0  0
 36 37  1  0  0  0  0
 37 38  2  0  0  0  0
 38 39  1  0  0  0  0
 39 40  2  0  0  0  0
 39 45  1  0  0  0  0
 40 41  1  0  0  0  0
 40 43  1  0  0  0  0
 41 42  1  0  0  0  0
 43 44  2  0  0  0  0
 44 45  1  0  0  0  0
M  CHG  4   8  -1   9  -1  11  -1  12  -1
M  END
>  <CHROM.1>
158.05725440,-25.01196620,95.51655839,11.78233087,94.38126749,1.92120279
0.51133744,-1.08251641

>  <Name>
ligand

>  <RI>
0

>  <Rbt.Current_Directory>
/home/itssahil/PROJECTS/Mol_Feturizer/New_Systems/rnas/4YAZ

>  <Rbt.Executable>
rbdock ($Id: //depot/dev/client3/rdock/2013.1/src/exe/rbdock.cxx#4 $)

>  <Rbt.Library>
libRbt.so (2013.1, Build901 2013/11/27)

>  <Rbt.Parameter_File>
/export/apps/rDock/src/rDock_2013.1_src/data/scripts/dock_solv.prm

>  <Rbt.Receptor>
prm/pocket_docking_8.prm

>  <SCORE>
-20.7584

>  <SCORE.INTER>
-20.8347

>  <SCORE.INTER.CONST>
1

>  <SCORE.INTER.POLAR>
0

>  <SCORE.INTER.ROT>
2

>  <SCORE.INTER.SOLV>
22.7917

>  <SCORE.INTER.VDW>
-26.4204

>  <SCORE.INTER.norm>
-0.462994

>  <SCORE.INTRA>
0.0763687

>  <SCORE.INTRA.DIHEDRAL>
0.149289

>  <SCORE.INTRA.DIHEDRAL.0>
2.39103

>  <SCORE.INTRA.POLAR>
0

>  <SCORE.INTRA.POLAR.0>
0

>  <SCORE.INTRA.REPUL>
0

>  <SCORE.INTRA.REPUL.0>
0

>  <SCORE.INTRA.SOLV>
0.0560202

>  <SCORE.INTRA.SOLV.lig_0>
-163.975

>  <SCORE.INTRA.VDW>
-0.0262861

>  <SCORE.INTRA.VDW.0>
-1.49176

>  <SCORE.INTRA.norm>
0.00169708

>  <SCORE.RESTR>
0

>  <SCORE.RESTR.CAVITY>
0

>  <SCORE.RESTR.norm>
0

>  <SCORE.SYSTEM>
0

>  <SCORE.SYSTEM.CONST>
0

>  <SCORE.SYSTEM.DIHEDRAL>
0

>  <SCORE.SYSTEM.SOLV>
0

>  <SCORE.SYSTEM.norm>
0

>  <SCORE.heavy>
45

>  <SCORE.norm>
-0.461297

>  <RMSD>
5.505

$$$$
ligand
 OpenBabel11021811513D
libRbt.so/2013.1/901 2013/11/27
 45 51  0  0  0  0  0  0  0  0999 V2000
   93.8454   15.6292   96.0293 C   0  0  0  0  0  0  0  0  0  0  0  0
   95.9204   13.0372   92.2150 C   0  0  0  0  0  0  0  0  0  0  0  0
   90.1535   14.0292   92.0027 N   0  0  0  0  0  0  0  0  0  0  0  0
   92.7601   15.1676   96.5606 N   0  0  0  0  0  0  0  0  0  0  0  0
   91.9748   14.8427   93.2183 N   0  0  0  0  0  0  0  0  0  0  0  0
   90.1023   14.0355   94.3400 N   0  0  0  0  0  0  0  0  0  0  0  0
   90.0396   13.9685   96.7412 O   0  0  0  0  0  0  0  0  0  0  0  0
   94.2982   10.5308   91.4001 O   0  5  0  0  0  0  0  0  0  0  0  0
  100.0848   14.1740   94.7671 O   0  5  0  0  0  0  0  0  0  0  0  0
   96.9117   16.8633   94.1846 O   0  0  0  0  0  0  0  0  0  0  0  0
   93.7056   10.4041   93.5417 O   0  5  0  0  0  0  0  0  0  0  0  0
   98.4769   14.8642   96.1579 O   0  5  0  0  0  0  0  0  0  0  0  0
   94.7259   12.4980   92.6189 O   0  0  0  0  0  0  0  0  0  0  0  0
   94.7626   15.2725   92.6069 O   0  0  0  0  0  0  0  0  0  0  0  0
   98.0085   14.5337   93.6738 O   0  0  0  0  0  0  0  0  0  0  0  0
   90.7733   14.3285   93.2537 C   0  0  0  0  0  0  0  0  0  0  0  0
   90.6551   14.2579   95.5248 C   0  0  0  0  0  0  0  0  0  0  0  0
   91.9458   14.8317   95.5683 C   0  0  0  0  0  0  0  0  0  0  0  0
   92.5966   15.1068   94.3909 C   0  0  0  0  0  0  0  0  0  0  0  0
   95.9809   15.8680   94.3922 C   0  0  2  0  0  0  0  0  0  0  0  0
   96.0626   14.4500   92.6169 C   0  0  1  0  0  0  0  0  0  0  0  0
   96.5878   14.5157   93.7470 C   0  0  1  0  0  0  0  0  0  0  0  0
   94.7817   16.0722   93.8795 C   0  0  2  0  0  0  0  0  0  0  0  0
   93.7746   15.6188   94.7496 N   0  0  0  0  0  0  0  0  0  0  0  0
   94.7022   10.9399   92.6821 P   0  0  2  0  0  0  0  0  0  0  0  0
   98.7036   14.0753   94.9718 P   0  0  1  0  0  0  0  0  0  0  0  0
   98.5246   11.6223   94.0925 C   0  0  0  0  0  0  0  0  0  0  0  0
   98.4254   12.5516   95.1836 O   0  0  0  0  0  0  0  0  0  0  0  0
   97.8678   10.3265   94.3205 C   0  0  1  0  0  0  0  0  0  0  0  0
   98.2139    9.8511   95.8162 O   0  0  0  0  0  0  0  0  0  0  0  0
   96.6189   10.4650   94.2910 C   0  0  1  0  0  0  0  0  0  0  0  0
   96.0848   10.3328   92.9535 O   0  0  0  0  0  0  0  0  0  0  0  0
   96.1092    9.4235   95.2755 C   0  0  1  0  0  0  0  0  0  0  0  0
   96.0096    8.3005   94.7092 O   0  0  0  0  0  0  0  0  0  0  0  0
   97.2019    9.3415   96.3415 C   0  0  2  0  0  0  0  0  0  0  0  0
   93.3752   10.7954   99.4522 N   0  0  0  0  0  0  0  0  0  0  0  0
   93.2816   10.4639   98.1376 C   0  0  0  0  0  0  0  0  0  0  0  0
   94.3988   10.1065   97.5159 N   0  0  0  0  0  0  0  0  0  0  0  0
   95.6227   10.1133   98.0860 C   0  0  0  0  0  0  0  0  0  0  0  0
   95.7603   10.4516   99.4493 C   0  0  0  0  0  0  0  0  0  0  0  0
   94.5466   10.8143  100.1161 C   0  0  0  0  0  0  0  0  0  0  0  0
   94.5934   11.1936  101.4901 N   0  0  0  0  0  0  0  0  0  0  0  0
   97.0097   10.3331   99.7332 N   0  0  0  0  0  0  0  0  0  0  0  0
   97.6559    9.9245   98.6550 C   0  0  0  0  0  0  0  0  0  0  0  0
   96.8553    9.8059   97.6568 N   0  0  0  0  0  0  0  0  0  0  0  0
  1 24  1  0  0  0  0
  1  4  2  0  0  0  0
  2 13  1  0  0  0  0
  2 21  1  0  0  0  0
  3 16  1  0  0  0  0
  4 18  1  0  0  0  0
  5 19  2  0  0  0  0
  5 16  1  0  0  0  0
  6 16  2  0  0  0  0
  6 17  1  0  0  0  0
  7 17  1  0  0  0  0
 11 25  2  0  0  0  0
 12 26  2  0  0  0  0
 13 25  1  0  0  0  0
 14 23  1  0  0  0  0
 15 26  1  0  0  0  0
 17 18  2  0  0  0  0
 18 19  1  0  0  0  0
 19 24  1  0  0  0  0
 20 10  1  6  0  0  0
 20 22  1  0  0  0  0
 20 23  1  0  0  0  0
 21 14  1  1  0  0  0
 21 22  1  0  0  0  0
 22 15  1  6  0  0  0
 23 24  1  1  0  0  0
 25  8  1  6  0  0  0
 25 32  1  0  0  0  0
 26  9  1  6  0  0  0
 26 28  1  0  0  0  0
 27 28  1  0  0  0  0
 29 27  1  1  0  0  0
 29 30  1  0  0  0  0
 29 31  1  0  0  0  0
 30 35  1  0  0  0  0
 31 33  1  0  0  0  0
 31 32  1  6  0  0  0
 33 34  1  6  0  0  0
 33 35  1  0  0  0  0
 35 45  1  1  0  0  0
 36 41  2  0  0  0  0
 36 37  1  0  0  0  0
 37 38  2  0  0  0  0
 38 39  1  0  0  0  0
 39 40  2  0  0  0  0
 39 45  1  0  0  0  0
 40 41  1  0  0  0  0
 40 43  1  0  0  0  0
 41 42  1  0  0  0  0
 43 44  2  0  0  0  0
 44 45  1  0  0  0  0
M  CHG  4   8  -1   9  -1  11  -1  12  -1
M  END
>  <CHROM.1>
148.20344916,136.25668800,95.27125880,12.57867004,95.15593514,2.24250102
0.23060047,-0.87532669

>  <Name>
ligand

>  <RI>
0

>  <Rbt.Current_Directory>
/home/itssahil/PROJECTS/Mol_Feturizer/New_Systems/rnas/4YAZ

>  <Rbt.Executable>
rbdock ($Id: //depot/dev/client3/rdock/2013.1/src/exe/rbdock.cxx#4 $)

>  <Rbt.Library>
libRbt.so (2013.1, Build901 2013/11/27)

>  <Rbt.Parameter_File>
/export/apps/rDock/src/rDock_2013.1_src/data/scripts/dock_solv.prm

>  <Rbt.Receptor>
prm/pocket_docking_4.prm

>  <SCORE>
-17.9247

>  <SCORE.INTER>
-19.0715

>  <SCORE.INTER.CONST>
1

>  <SCORE.INTER.POLAR>
0

>  <SCORE.INTER.ROT>
2

>  <SCORE.INTER.SOLV>
26.1775

>  <SCORE.INTER.VDW>
-26.3735

>  <SCORE.INTER.norm>
-0.423811

>  <SCORE.INTRA>
0.604948

>  <SCORE.INTRA.DIHEDRAL>
-0.0771674

>  <SCORE.INTRA.DIHEDRAL.0>
2.39103

>  <SCORE.INTRA.POLAR>
0

>  <SCORE.INTRA.POLAR.0>
0

>  <SCORE.INTRA.REPUL>
0

>  <SCORE.INTRA.REPUL.0>
0

>  <SCORE.INTRA.SOLV>
0.0810165

>  <SCORE.INTRA.SOLV.lig_0>
-163.975

>  <SCORE.INTRA.VDW>
0.603023

>  <SCORE.INTRA.VDW.0>
-1.49176

>  <SCORE.INTRA.norm>
0.0134433

>  <SCORE.RESTR>
0.541903

>  <SCORE.RESTR.CAVITY>
0.541903

>  <SCORE.RESTR.norm>
0.0120423

>  <SCORE.SYSTEM>
0

>  <SCORE.SYSTEM.CONST>
0

>  <SCORE.SYSTEM.DIHEDRAL>
0

>  <SCORE.SYSTEM.SOLV>
0

>  <SCORE.SYSTEM.norm>
0

>  <SCORE.heavy>
45

>  <SCORE.norm>
-0.398326

>  <RMSD>
5.598

$$$$
ligand
 OpenBabel11021811513D
libRbt.so/2013.1/901 2013/11/27
 45 51  0  0  0  0  0  0  0  0999 V2000
   93.1840   13.9519   93.5854 C   0  0  0  0  0  0  0  0  0  0  0  0
   96.6956   12.9068   92.1250 C   0  0  0  0  0  0  0  0  0  0  0  0
   91.2675   18.6710   96.1271 N   0  0  0  0  0  0  0  0  0  0  0  0
   92.1119   13.7028   94.2649 N   0  0  0  0  0  0  0  0  0  0  0  0
   92.4645   17.0706   94.9180 N   0  0  0  0  0  0  0  0  0  0  0  0
   90.5443   16.4485   96.0761 N   0  0  0  0  0  0  0  0  0  0  0  0
   89.7364   14.1868   95.9953 O   0  0  0  0  0  0  0  0  0  0  0  0
   95.8009   10.1067   91.1574 O   0  5  0  0  0  0  0  0  0  0  0  0
   99.7093   14.9187   95.5917 O   0  5  0  0  0  0  0  0  0  0  0  0
   96.4503   16.9480   93.8884 O   0  0  0  0  0  0  0  0  0  0  0  0
   94.6446    9.9868   93.0553 O   0  5  0  0  0  0  0  0  0  0  0  0
   97.6798   15.3756   96.4095 O   0  5  0  0  0  0  0  0  0  0  0  0
   95.5381   12.1804   92.2386 O   0  0  0  0  0  0  0  0  0  0  0  0
   95.1312   14.9103   91.9530 O   0  0  0  0  0  0  0  0  0  0  0  0
   98.0066   14.8346   93.9397 O   0  0  0  0  0  0  0  0  0  0  0  0
   91.4413   17.3223   95.6918 C   0  0  0  0  0  0  0  0  0  0  0  0
   90.6422   15.1922   95.6624 C   0  0  0  0  0  0  0  0  0  0  0  0
   91.7344   14.8382   94.8385 C   0  0  0  0  0  0  0  0  0  0  0  0
   92.6343   15.8063   94.4663 C   0  0  0  0  0  0  0  0  0  0  0  0
   95.6715   15.8117   93.9333 C   0  0  2  0  0  0  0  0  0  0  0  0
   96.4875   14.3410   92.4036 C   0  0  1  0  0  0  0  0  0  0  0  0
   96.6471   14.5611   93.6216 C   0  0  1  0  0  0  0  0  0  0  0  0
   94.6543   15.7659   93.0931 C   0  0  2  0  0  0  0  0  0  0  0  0
   93.5256   15.1825   93.6950 N   0  0  0  0  0  0  0  0  0  0  0  0
   95.7473   10.6497   92.4521 P   0  0  2  0  0  0  0  0  0  0  0  0
   98.3622   14.5800   95.4184 P   0  0  1  0  0  0  0  0  0  0  0  0
   98.8399   12.0928   94.7799 C   0  0  0  0  0  0  0  0  0  0  0  0
   98.2828   13.0445   95.7007 O   0  0  0  0  0  0  0  0  0  0  0  0
   98.3620   10.7127   94.9503 C   0  0  1  0  0  0  0  0  0  0  0  0
   98.3339   10.3880   96.5241 O   0  0  0  0  0  0  0  0  0  0  0  0
   97.1693   10.6187   94.5651 C   0  0  1  0  0  0  0  0  0  0  0  0
   97.0717   10.3208   93.1532 O   0  0  0  0  0  0  0  0  0  0  0  0
   96.5713    9.5549   95.4732 C   0  0  1  0  0  0  0  0  0  0  0  0
   96.8206    8.4044   95.0194 O   0  0  0  0  0  0  0  0  0  0  0  0
   97.3089    9.7303   96.8007 C   0  0  2  0  0  0  0  0  0  0  0  0
   96.9447    9.9373  101.9250 N   0  0  0  0  0  0  0  0  0  0  0  0
   97.8903    9.2880  101.1963 C   0  0  0  0  0  0  0  0  0  0  0  0
   97.8055    9.3686   99.8739 N   0  0  0  0  0  0  0  0  0  0  0  0
   96.8102    9.9964   99.2118 C   0  0  0  0  0  0  0  0  0  0  0  0
   95.8101   10.6822   99.9339 C   0  0  0  0  0  0  0  0  0  0  0  0
   95.9231   10.6074  101.3590 C   0  0  0  0  0  0  0  0  0  0  0  0
   94.9428   11.2518  102.1701 N   0  0  0  0  0  0  0  0  0  0  0  0
   95.0286   11.2167   99.0625 N   0  0  0  0  0  0  0  0  0  0  0  0
   95.4806   10.9338   97.8530 C   0  0  0  0  0  0  0  0  0  0  0  0
   96.5281   10.1922   97.9156 N   0  0  0  0  0  0  0  0  0  0  0  0
  1 24  1  0  0  0  0
  1  4  2  0  0  0  0
  2 13  1  0  0  0  0
  2 21  1  0  0  0  0
  3 16  1  0  0  0  0
  4 18  1  0  0  0  0
  5 19  2  0  0  0  0
  5 16  1  0  0  0  0
  6 16  2  0  0  0  0
  6 17  1  0  0  0  0
  7 17  1  0  0  0  0
 11 25  2  0  0  0  0
 12 26  2  0  0  0  0
 13 25  1  0  0  0  0
 14 23  1  0  0  0  0
 15 26  1  0  0  0  0
 17 18  2  0  0  0  0
 18 19  1  0  0  0  0
 19 24  1  0  0  0  0
 20 10  1  6  0  0  0
 20 22  1  0  0  0  0
 20 23  1  0  0  0  0
 21 14  1  1  0  0  0
 21 22  1  0  0  0  0
 22 15  1  6  0  0  0
 23 24  1  1  0  0  0
 25  8  1  6  0  0  0
 25 32  1  0  0  0  0
 26  9  1  1  0  0  0
 26 28  1  0  0  0  0
 27 28  1  0  0  0  0
 29 27  1  1  0  0  0
 29 30  1  0  0  0  0
 29 31  1  0  0  0  0
 30 35  1  0  0  0  0
 31 33  1  0  0  0  0
 31 32  1  6  0  0  0
 33 34  1  6  0  0  0
 33 35  1  0  0  0  0
 35 45  1  1  0  0  0
 36 41  2  0  0  0  0
 36 37  1  0  0  0  0
 37 38  2  0  0  0  0
 38 39  1  0  0  0  0
 39 40  2  0  0  0  0
 39 45  1  0  0  0  0
 40 41  1  0  0  0  0
 40 43  1  0  0  0  0
 41 42  1  0  0  0  0
 43 44  2  0  0  0  0
 44 45  1  0  0  0  0
M  CHG  4   8  -1   9  -1  11  -1  12  -1
M  END
>  <CHROM.1>
19.39832752,-78.37448112,95.66213907,12.84300516,95.46487268,2.30520545,0.74847590
-1.20704435

>  <Name>
ligand

>  <RI>
0

>  <Rbt.Current_Directory>
/home/itssahil/PROJECTS/Mol_Feturizer/New_Systems/rnas/4YAZ

>  <Rbt.Executable>
rbdock ($Id: //depot/dev/client3/rdock/2013.1/src/exe/rbdock.cxx#4 $)

>  <Rbt.Library>
libRbt.so (2013.1, Build901 2013/11/27)

>  <Rbt.Parameter_File>
/export/apps/rDock/src/rDock_2013.1_src/data/scripts/dock_solv.prm

>  <Rbt.Receptor>
prm/pocket_docking_5.prm

>  <SCORE>
-24.3705

>  <SCORE.INTER>
-23.9798

>  <SCORE.INTER.CONST>
1

>  <SCORE.INTER.POLAR>
0

>  <SCORE.INTER.ROT>
2

>  <SCORE.INTER.SOLV>
27.9199

>  <SCORE.INTER.VDW>
-30.2265

>  <SCORE.INTER.norm>
-0.532885

>  <SCORE.INTRA>
-0.390721

>  <SCORE.INTRA.DIHEDRAL>
-0.106977

>  <SCORE.INTRA.DIHEDRAL.0>
2.39103

>  <SCORE.INTRA.POLAR>
0

>  <SCORE.INTRA.POLAR.0>
0

>  <SCORE.INTRA.REPUL>
0

>  <SCORE.INTRA.REPUL.0>
0

>  <SCORE.INTRA.SOLV>
-0.0382226

>  <SCORE.INTRA.SOLV.lig_0>
-163.975

>  <SCORE.INTRA.VDW>
-0.318121

>  <SCORE.INTRA.VDW.0>
-1.49176

>  <SCORE.INTRA.norm>
-0.00868269

>  <SCORE.RESTR>
0

>  <SCORE.RESTR.CAVITY>
0

>  <SCORE.RESTR.norm>
0

>  <SCORE.SYSTEM>
0

>  <SCORE.SYSTEM.CONST>
0

>  <SCORE.SYSTEM.DIHEDRAL>
0

>  <SCORE.SYSTEM.SOLV>
0

>  <SCORE.SYSTEM.norm>
0

>  <SCORE.heavy>
45

>  <SCORE.norm>
-0.541568

>  <RMSD>
5.611

$$$$
ligand
 OpenBabel11021811523D
libRbt.so/2013.1/901 2013/11/27
 45 51  0  0  0  0  0  0  0  0999 V2000
   93.9326   14.1197   94.6007 C   0  0  0  0  0  0  0  0  0  0  0  0
   96.8439   13.4258   92.0286 C   0  0  0  0  0  0  0  0  0  0  0  0
   90.5836   18.6309   95.5155 N   0  0  0  0  0  0  0  0  0  0  0  0
   92.8686   13.7757   95.2510 N   0  0  0  0  0  0  0  0  0  0  0  0
   92.2933   17.1588   94.9102 N   0  0  0  0  0  0  0  0  0  0  0  0
   90.4390   16.3645   96.0704 N   0  0  0  0  0  0  0  0  0  0  0  0
   90.2269   14.0308   96.6029 O   0  0  0  0  0  0  0  0  0  0  0  0
   95.8146   10.7762   90.8049 O   0  5  0  0  0  0  0  0  0  0  0  0
  100.3428   14.9808   95.2671 O   0  5  0  0  0  0  0  0  0  0  0  0
   96.8652   17.1629   94.3812 O   0  0  0  0  0  0  0  0  0  0  0  0
   94.9558   10.3574   92.8150 O   0  5  0  0  0  0  0  0  0  0  0  0
   98.4588   15.2697   96.4346 O   0  5  0  0  0  0  0  0  0  0  0  0
   95.7165   12.6653   92.2049 O   0  0  0  0  0  0  0  0  0  0  0  0
   95.2712   15.3981   92.3855 O   0  0  0  0  0  0  0  0  0  0  0  0
   98.4118   15.0991   93.8914 O   0  0  0  0  0  0  0  0  0  0  0  0
   91.1408   17.3163   95.5070 C   0  0  0  0  0  0  0  0  0  0  0  0
   90.8978   15.1203   96.0505 C   0  0  0  0  0  0  0  0  0  0  0  0
   92.1485   14.8739   95.4404 C   0  0  0  0  0  0  0  0  0  0  0  0
   92.8284   15.9168   94.8611 C   0  0  0  0  0  0  0  0  0  0  0  0
   96.1020   16.0152   94.3742 C   0  0  2  0  0  0  0  0  0  0  0  0
   96.6798   14.7997   92.5419 C   0  0  1  0  0  0  0  0  0  0  0  0
   97.0201   14.8446   93.7416 C   0  0  1  0  0  0  0  0  0  0  0  0
   94.9704   16.0690   93.6965 C   0  0  2  0  0  0  0  0  0  0  0  0
   93.9447   15.3799   94.3671 N   0  0  0  0  0  0  0  0  0  0  0  0
   95.9555   11.1248   92.1587 P   0  0  2  0  0  0  0  0  0  0  0  0
   98.9850   14.6411   95.2477 P   0  0  1  0  0  0  0  0  0  0  0  0
   99.3619   12.2837   94.1882 C   0  0  0  0  0  0  0  0  0  0  0  0
   98.9490   13.0795   95.3107 O   0  0  0  0  0  0  0  0  0  0  0  0
   98.9150   10.8832   94.2238 C   0  0  1  0  0  0  0  0  0  0  0  0
   99.1231   10.3337   95.7196 O   0  0  0  0  0  0  0  0  0  0  0  0
   97.6781   10.8197   94.0100 C   0  0  1  0  0  0  0  0  0  0  0  0
   97.3700   10.7271   92.6000 O   0  0  0  0  0  0  0  0  0  0  0  0
   97.2231    9.6227   94.8311 C   0  0  1  0  0  0  0  0  0  0  0  0
   97.4017    8.5558   94.1819 O   0  0  0  0  0  0  0  0  0  0  0  0
   98.1512    9.6204   96.0458 C   0  0  2  0  0  0  0  0  0  0  0  0
   94.1701   11.7983   98.4629 N   0  0  0  0  0  0  0  0  0  0  0  0
   94.4271   11.8144   97.1285 C   0  0  0  0  0  0  0  0  0  0  0  0
   95.5136   11.1786   96.7072 N   0  0  0  0  0  0  0  0  0  0  0  0
   96.4068   10.5762   97.5211 C   0  0  0  0  0  0  0  0  0  0  0  0
   96.1744   10.5385   98.9127 C   0  0  0  0  0  0  0  0  0  0  0  0
   94.9888   11.2082   99.3543 C   0  0  0  0  0  0  0  0  0  0  0  0
   94.6854   11.2410  100.7474 N   0  0  0  0  0  0  0  0  0  0  0  0
   97.1473    9.8738   99.4300 N   0  0  0  0  0  0  0  0  0  0  0  0
   97.9550    9.4760   98.4623 C   0  0  0  0  0  0  0  0  0  0  0  0
   97.5463    9.8988   97.3196 N   0  0  0  0  0  0  0  0  0  0  0  0
  1 24  1  0  0  0  0
  1  4  2  0  0  0  0
  2 13  1  0  0  0  0
  2 21  1  0  0  0  0
  3 16  1  0  0  0  0
  4 18  1  0  0  0  0
  5 19  2  0  0  0  0
  5 16  1  0  0  0  0
  6 16  2  0  0  0  0
  6 17  1  0  0  0  0
  7 17  1  0  0  0  0
 11 25  2  0  0  0  0
 12 26  2  0  0  0  0
 13 25  1  0  0  0  0
 14 23  1  0  0  0  0
 15 26  1  0  0  0  0
 17 18  2  0  0  0  0
 18 19  1  0  0  0  0
 19 24  1  0  0  0  0
 20 10  1  6  0  0  0
 20 22  1  0  0  0  0
 20 23  1  0  0  0  0
 21 14  1  1  0  0  0
 21 22  1  0  0  0  0
 22 15  1  6  0  0  0
 23 24  1  1  0  0  0
 25  8  1  6  0  0  0
 25 32  1  0  0  0  0
 26  9  1  6  0  0  0
 26 28  1  0  0  0  0
 27 28  1  0  0  0  0
 29 27  1  1  0  0  0
 29 30  1  0  0  0  0
 29 31  1  0  0  0  0
 30 35  1  0  0  0  0
 31 33  1  0  0  0  0
 31 32  1  6  0  0  0
 33 34  1  6  0  0  0
 33 35  1  0  0  0  0
 35 45  1  1  0  0  0
 36 41  2  0  0  0  0
 36 37  1  0  0  0  0
 37 38  2  0  0  0  0
 38 39  1  0  0  0  0
 39 40  2  0  0  0  0
 39 45  1  0  0  0  0
 40 41  1  0  0  0  0
 40 43  1  0  0  0  0
 41 42  1  0  0  0  0
 43 44  2  0  0  0  0
 44 45  1  0  0  0  0
M  CHG  4   8  -1   9  -1  11  -1  12  -1
M  END
>  <CHROM.1>
51.73403896,101.82917351,95.87545329,13.07274002,95.09125202,2.61108802,0.58800838
-0.80477438

>  <Name>
ligand

>  <RI>
0

>  <Rbt.Current_Directory>
/home/itssahil/PROJECTS/Mol_Feturizer/New_Systems/rnas/4YAZ

>  <Rbt.Executable>
rbdock ($Id: //depot/dev/client3/rdock/2013.1/src/exe/rbdock.cxx#4 $)

>  <Rbt.Library>
libRbt.so (2013.1, Build901 2013/11/27)

>  <Rbt.Parameter_File>
/export/apps/rDock/src/rDock_2013.1_src/data/scripts/dock_solv.prm

>  <Rbt.Receptor>
prm/pocket_docking_8.prm

>  <SCORE>
-20.7385

>  <SCORE.INTER>
-19.5812

>  <SCORE.INTER.CONST>
1

>  <SCORE.INTER.POLAR>
0

>  <SCORE.INTER.ROT>
2

>  <SCORE.INTER.SOLV>
31.8065

>  <SCORE.INTER.VDW>
-28.5897

>  <SCORE.INTER.norm>
-0.435139

>  <SCORE.INTRA>
-1.15727

>  <SCORE.INTRA.DIHEDRAL>
0.131136

>  <SCORE.INTRA.DIHEDRAL.0>
2.39103

>  <SCORE.INTRA.POLAR>
0

>  <SCORE.INTRA.POLAR.0>
0

>  <SCORE.INTRA.REPUL>
0

>  <SCORE.INTRA.REPUL.0>
0

>  <SCORE.INTRA.SOLV>
0.0145632

>  <SCORE.INTRA.SOLV.lig_0>
-163.975

>  <SCORE.INTRA.VDW>
-1.23012

>  <SCORE.INTRA.VDW.0>
-1.49176

>  <SCORE.INTRA.norm>
-0.0257171

>  <SCORE.RESTR>
0

>  <SCORE.RESTR.CAVITY>
0

>  <SCORE.RESTR.norm>
0

>  <SCORE.SYSTEM>
0

>  <SCORE.SYSTEM.CONST>
0

>  <SCORE.SYSTEM.DIHEDRAL>
0

>  <SCORE.SYSTEM.SOLV>
0

>  <SCORE.SYSTEM.norm>
0

>  <SCORE.heavy>
45

>  <SCORE.norm>
-0.460856

>  <RMSD>
5.695

$$$$
ligand
 OpenBabel11021811513D
libRbt.so/2013.1/901 2013/11/27
 45 51  0  0  0  0  0  0  0  0999 V2000
   96.9794   13.1921   91.5762 C   0  0  0  0  0  0  0  0  0  0  0  0
   92.9099   12.4797   93.2553 C   0  0  0  0  0  0  0  0  0  0  0  0
   99.2150    8.0476   92.5454 N   0  0  0  0  0  0  0  0  0  0  0  0
   98.1338   13.2954   92.1506 N   0  0  0  0  0  0  0  0  0  0  0  0
   97.8679    9.8626   91.9558 N   0  0  0  0  0  0  0  0  0  0  0  0
   99.9278   10.2326   92.9735 N   0  0  0  0  0  0  0  0  0  0  0  0
  100.7206   12.4658   93.3720 O   0  0  0  0  0  0  0  0  0  0  0  0
   92.8112   14.9631   95.0993 O   0  5  0  0  0  0  0  0  0  0  0  0
   92.5246    7.4926   93.6145 O   0  5  0  0  0  0  0  0  0  0  0  0
   94.5285    9.4470   90.4833 O   0  0  0  0  0  0  0  0  0  0  0  0
   94.7938   14.2923   95.8561 O   0  5  0  0  0  0  0  0  0  0  0  0
   94.7074    7.7692   93.2207 O   0  5  0  0  0  0  0  0  0  0  0  0
   93.8518   13.3549   93.7321 O   0  0  0  0  0  0  0  0  0  0  0  0
   94.3395   12.4740   91.1465 O   0  0  0  0  0  0  0  0  0  0  0  0
   93.0276    9.5943   92.6319 O   0  0  0  0  0  0  0  0  0  0  0  0
   98.9860    9.4562   92.4981 C   0  0  0  0  0  0  0  0  0  0  0  0
   99.7767   11.5488   92.9133 C   0  0  0  0  0  0  0  0  0  0  0  0
   98.5838   12.0646   92.3583 C   0  0  0  0  0  0  0  0  0  0  0  0
   97.6405   11.1939   91.8708 C   0  0  0  0  0  0  0  0  0  0  0  0
   95.0726   10.3657   91.3551 C   0  0  2  0  0  0  0  0  0  0  0  0
   93.3954   11.7119   92.0923 C   0  0  1  0  0  0  0  0  0  0  0  0
   93.9522   10.6650   92.4812 C   0  0  1  0  0  0  0  0  0  0  0  0
   95.4536   11.5157   90.8307 C   0  0  2  0  0  0  0  0  0  0  0  0
   96.6541   11.9637   91.4093 N   0  0  0  0  0  0  0  0  0  0  0  0
   93.6232   13.8212   95.2027 P   0  0  2  0  0  0  0  0  0  0  0  0
   93.5107    8.4857   93.5887 P   0  0  1  0  0  0  0  0  0  0  0  0
   92.4870    9.8652   95.5562 C   0  0  0  0  0  0  0  0  0  0  0  0
   93.5587    9.0580   95.0427 O   0  0  0  0  0  0  0  0  0  0  0  0
   92.8223   10.6525   96.7520 C   0  0  1  0  0  0  0  0  0  0  0  0
   93.6682    9.7126   97.7440 O   0  0  0  0  0  0  0  0  0  0  0  0
   93.5920   11.5974   96.4443 C   0  0  1  0  0  0  0  0  0  0  0  0
   92.8692   12.7852   96.0466 O   0  0  0  0  0  0  0  0  0  0  0  0
   94.4650   11.7780   97.6769 C   0  0  1  0  0  0  0  0  0  0  0  0
   93.8815   12.5128   98.5203 O   0  0  0  0  0  0  0  0  0  0  0  0
   94.5967   10.3704   98.2587 C   0  0  2  0  0  0  0  0  0  0  0  0
   97.4392    6.4877   96.4480 N   0  0  0  0  0  0  0  0  0  0  0  0
   96.1005    6.6643   96.2945 C   0  0  0  0  0  0  0  0  0  0  0  0
   95.5601    7.7477   96.8393 N   0  0  0  0  0  0  0  0  0  0  0  0
   96.2401    8.6447   97.5848 C   0  0  0  0  0  0  0  0  0  0  0  0
   97.6317    8.4953   97.7666 C   0  0  0  0  0  0  0  0  0  0  0  0
   98.2083    7.3356   97.1568 C   0  0  0  0  0  0  0  0  0  0  0  0
   99.6053    7.0911   97.3079 N   0  0  0  0  0  0  0  0  0  0  0  0
   98.0206    9.5005   98.4696 N   0  0  0  0  0  0  0  0  0  0  0  0
   96.9795   10.2755   98.7193 C   0  0  0  0  0  0  0  0  0  0  0  0
   95.9053    9.7770   98.2203 N   0  0  0  0  0  0  0  0  0  0  0  0
  1 24  1  0  0  0  0
  1  4  2  0  0  0  0
  2 13  1  0  0  0  0
  2 21  1  0  0  0  0
  3 16  1  0  0  0  0
  4 18  1  0  0  0  0
  5 19  2  0  0  0  0
  5 16  1  0  0  0  0
  6 16  2  0  0  0  0
  6 17  1  0  0  0  0
  7 17  1  0  0  0  0
 11 25  2  0  0  0  0
 12 26  2  0  0  0  0
 13 25  1  0  0  0  0
 14 23  1  0  0  0  0
 15 26  1  0  0  0  0
 17 18  2  0  0  0  0
 18 19  1  0  0  0  0
 19 24  1  0  0  0  0
 20 10  1  6  0  0  0
 20 22  1  0  0  0  0
 20 23  1  0  0  0  0
 21 14  1  1  0  0  0
 21 22  1  0  0  0  0
 22 15  1  6  0  0  0
 23 24  1  1  0  0  0
 25  8  1  6  0  0  0
 25 32  1  0  0  0  0
 26  9  1  1  0  0  0
 26 28  1  0  0  0  0
 27 28  1  0  0  0  0
 29 27  1  6  0  0  0
 29 30  1  0  0  0  0
 29 31  1  0  0  0  0
 30 35  1  0  0  0  0
 31 33  1  0  0  0  0
 31 32  1  1  0  0  0
 33 34  1  1  0  0  0
 33 35  1  0  0  0  0
 35 45  1  6  0  0  0
 36 41  2  0  0  0  0
 36 37  1  0  0  0  0
 37 38  2  0  0  0  0
 38 39  1  0  0  0  0
 39 40  2  0  0  0  0
 39 45  1  0  0  0  0
 40 41  1  0  0  0  0
 40 43  1  0  0  0  0
 41 42  1  0  0  0  0
 43 44  2  0  0  0  0
 44 45  1  0  0  0  0
M  CHG  4   8  -1   9  -1  11  -1  12  -1
M  END
>  <CHROM.1>
-32.47289163,6.20846964,95.49404894,10.56508560,94.57403971,-1.76682739,-0.53455091
2.06522969

>  <Name>
ligand

>  <RI>
0

>  <Rbt.Current_Directory>
/home/itssahil/PROJECTS/Mol_Feturizer/New_Systems/rnas/4YAZ

>  <Rbt.Executable>
rbdock ($Id: //depot/dev/client3/rdock/2013.1/src/exe/rbdock.cxx#4 $)

>  <Rbt.Library>
libRbt.so (2013.1, Build901 2013/11/27)

>  <Rbt.Parameter_File>
/export/apps/rDock/src/rDock_2013.1_src/data/scripts/dock_solv.prm

>  <Rbt.Receptor>
prm/pocket_docking_5.prm

>  <SCORE>
-15.7164

>  <SCORE.INTER>
-15.5236

>  <SCORE.INTER.CONST>
1

>  <SCORE.INTER.POLAR>
0

>  <SCORE.INTER.ROT>
2

>  <SCORE.INTER.SOLV>
14.1845

>  <SCORE.INTER.VDW>
-20.0106

>  <SCORE.INTER.norm>
-0.344968

>  <SCORE.INTRA>
-0.192831

>  <SCORE.INTRA.DIHEDRAL>
-0.0246163

>  <SCORE.INTRA.DIHEDRAL.0>
2.39103

>  <SCORE.INTRA.POLAR>
0

>  <SCORE.INTRA.POLAR.0>
0

>  <SCORE.INTRA.REPUL>
0

>  <SCORE.INTRA.REPUL.0>
0

>  <SCORE.INTRA.SOLV>
0.717842

>  <SCORE.INTRA.SOLV.lig_0>
-163.975

>  <SCORE.INTRA.VDW>
-0.539444

>  <SCORE.INTRA.VDW.0>
-1.49176

>  <SCORE.INTRA.norm>
-0.00428513

>  <SCORE.RESTR>
0

>  <SCORE.RESTR.CAVITY>
0

>  <SCORE.RESTR.norm>
0

>  <SCORE.SYSTEM>
0

>  <SCORE.SYSTEM.CONST>
0

>  <SCORE.SYSTEM.DIHEDRAL>
0

>  <SCORE.SYSTEM.SOLV>
0

>  <SCORE.SYSTEM.norm>
0

>  <SCORE.heavy>
45

>  <SCORE.norm>
-0.349254

>  <RMSD>
5.696

$$$$
ligand
 OpenBabel11021811513D
libRbt.so/2013.1/901 2013/11/27
 45 51  0  0  0  0  0  0  0  0999 V2000
   97.9038   10.4622   92.9467 C   0  0  0  0  0  0  0  0  0  0  0  0
   93.7263   10.6811   93.2501 C   0  0  0  0  0  0  0  0  0  0  0  0
  100.2285    5.8895   95.4143 N   0  0  0  0  0  0  0  0  0  0  0  0
   98.9656   10.7895   93.6090 N   0  0  0  0  0  0  0  0  0  0  0  0
   98.8884    7.4001   94.2400 N   0  0  0  0  0  0  0  0  0  0  0  0
  100.7754    8.1621   95.3690 N   0  0  0  0  0  0  0  0  0  0  0  0
  101.4030   10.4804   95.2927 O   0  0  0  0  0  0  0  0  0  0  0  0
   93.6078   13.7646   93.4857 O   0  5  0  0  0  0  0  0  0  0  0  0
   92.4668    6.6381   95.9363 O   0  5  0  0  0  0  0  0  0  0  0  0
   95.4284    6.6168   92.9583 O   0  0  0  0  0  0  0  0  0  0  0  0
   95.2268   13.5600   94.9991 O   0  5  0  0  0  0  0  0  0  0  0  0
   94.6968    6.6294   96.0895 O   0  5  0  0  0  0  0  0  0  0  0  0
   94.6615   11.6604   93.4664 O   0  0  0  0  0  0  0  0  0  0  0  0
   95.5837    9.5419   91.9299 O   0  0  0  0  0  0  0  0  0  0  0  0
   93.5162    7.8984   94.2200 O   0  0  0  0  0  0  0  0  0  0  0  0
   99.9422    7.2235   94.9934 C   0  0  0  0  0  0  0  0  0  0  0  0
  100.5723    9.4097   94.9676 C   0  0  0  0  0  0  0  0  0  0  0  0
   99.4409    9.6831   94.1662 C   0  0  0  0  0  0  0  0  0  0  0  0
   98.6124    8.6504   93.8021 C   0  0  0  0  0  0  0  0  0  0  0  0
   95.8978    7.8476   93.3640 C   0  0  2  0  0  0  0  0  0  0  0  0
   94.3362    9.4080   92.8202 C   0  0  1  0  0  0  0  0  0  0  0  0
   94.6113    8.7138   93.8200 C   0  0  1  0  0  0  0  0  0  0  0  0
   96.5704    8.5426   92.4654 C   0  0  2  0  0  0  0  0  0  0  0  0
   97.6612    9.2081   93.0520 N   0  0  0  0  0  0  0  0  0  0  0  0
   94.1782   12.8350   94.3714 P   0  0  2  0  0  0  0  0  0  0  0  0
   93.5796    7.4521   95.6947 P   0  0  1  0  0  0  0  0  0  0  0  0
   92.3664    9.6777   96.3247 C   0  0  0  0  0  0  0  0  0  0  0  0
   93.3827    8.7034   96.6108 O   0  0  0  0  0  0  0  0  0  0  0  0
   92.5396   10.9711   97.0026 C   0  0  1  0  0  0  0  0  0  0  0  0
   92.9702   10.6805   98.5235 O   0  0  0  0  0  0  0  0  0  0  0  0
   93.5020   11.5993   96.4936 C   0  0  1  0  0  0  0  0  0  0  0  0
   93.0924   12.4114   95.3692 O   0  0  0  0  0  0  0  0  0  0  0  0
   94.0843   12.3874   97.6571 C   0  0  1  0  0  0  0  0  0  0  0  0
   93.4487   13.4658   97.8145 O   0  0  0  0  0  0  0  0  0  0  0  0
   93.8487   11.4953   98.8760 C   0  0  2  0  0  0  0  0  0  0  0  0
   96.0846   10.3252  103.3555 N   0  0  0  0  0  0  0  0  0  0  0  0
   94.8911   10.9491  103.1737 C   0  0  0  0  0  0  0  0  0  0  0  0
   94.4900   11.1499  101.9242 N   0  0  0  0  0  0  0  0  0  0  0  0
   95.2169   10.8335  100.8312 C   0  0  0  0  0  0  0  0  0  0  0  0
   96.4613   10.1843  100.9796 C   0  0  0  0  0  0  0  0  0  0  0  0
   96.8744    9.9528  102.3305 C   0  0  0  0  0  0  0  0  0  0  0  0
   98.1299    9.3226  102.5765 N   0  0  0  0  0  0  0  0  0  0  0  0
   96.9060    9.9662   99.7919 N   0  0  0  0  0  0  0  0  0  0  0  0
   96.0213   10.4105   98.9162 C   0  0  0  0  0  0  0  0  0  0  0  0
   95.0170   10.9489   99.5103 N   0  0  0  0  0  0  0  0  0  0  0  0
  1 24  1  0  0  0  0
  1  4  2  0  0  0  0
  2 13  1  0  0  0  0
  2 21  1  0  0  0  0
  3 16  1  0  0  0  0
  4 18  1  0  0  0  0
  5 19  2  0  0  0  0
  5 16  1  0  0  0  0
  6 16  2  0  0  0  0
  6 17  1  0  0  0  0
  7 17  1  0  0  0  0
 11 25  2  0  0  0  0
 12 26  2  0  0  0  0
 13 25  1  0  0  0  0
 14 23  1  0  0  0  0
 15 26  1  0  0  0  0
 17 18  2  0  0  0  0
 18 19  1  0  0  0  0
 19 24  1  0  0  0  0
 20 10  1  6  0  0  0
 20 22  1  0  0  0  0
 20 23  1  0  0  0  0
 21 14  1  1  0  0  0
 21 22  1  0  0  0  0
 22 15  1  6  0  0  0
 23 24  1  1  0  0  0
 25  8  1  6  0  0  0
 25 32  1  0  0  0  0
 26  9  1  1  0  0  0
 26 28  1  0  0  0  0
 27 28  1  0  0  0  0
 29 27  1  6  0  0  0
 29 30  1  0  0  0  0
 29 31  1  0  0  0  0
 30 35  1  0  0  0  0
 31 33  1  0  0  0  0
 31 32  1  6  0  0  0
 33 34  1  1  0  0  0
 33 35  1  0  0  0  0
 35 45  1  6  0  0  0
 36 41  2  0  0  0  0
 36 37  1  0  0  0  0
 37 38  2  0  0  0  0
 38 39  1  0  0  0  0
 39 40  2  0  0  0  0
 39 45  1  0  0  0  0
 40 41  1  0  0  0  0
 40 43  1  0  0  0  0
 41 42  1  0  0  0  0
 43 44  2  0  0  0  0
 44 45  1  0  0  0  0
M  CHG  4   8  -1   9  -1  11  -1  12  -1
M  END
>  <CHROM.1>
-11.25213092,-94.98682380,95.63299956,9.90429729,96.18570145,-1.27831051
-0.44908796,1.44540351

>  <Name>
ligand

>  <RI>
0

>  <Rbt.Current_Directory>
/home/itssahil/PROJECTS/Mol_Feturizer/New_Systems/rnas/4YAZ

>  <Rbt.Executable>
rbdock ($Id: //depot/dev/client3/rdock/2013.1/src/exe/rbdock.cxx#4 $)

>  <Rbt.Library>
libRbt.so (2013.1, Build901 2013/11/27)

>  <Rbt.Parameter_File>
/export/apps/rDock/src/rDock_2013.1_src/data/scripts/dock_solv.prm

>  <Rbt.Receptor>
prm/pocket_docking_6.prm

>  <SCORE>
-21.8494

>  <SCORE.INTER>
-21.7505

>  <SCORE.INTER.CONST>
1

>  <SCORE.INTER.POLAR>
0

>  <SCORE.INTER.ROT>
2

>  <SCORE.INTER.SOLV>
27.4408

>  <SCORE.INTER.VDW>
-28.5806

>  <SCORE.INTER.norm>
-0.483344

>  <SCORE.INTRA>
-0.0990847

>  <SCORE.INTRA.DIHEDRAL>
-0.121112

>  <SCORE.INTRA.DIHEDRAL.0>
2.39103

>  <SCORE.INTRA.POLAR>
0

>  <SCORE.INTRA.POLAR.0>
0

>  <SCORE.INTRA.REPUL>
0

>  <SCORE.INTRA.REPUL.0>
0

>  <SCORE.INTRA.SOLV>
-0.0204771

>  <SCORE.INTRA.SOLV.lig_0>
-163.975

>  <SCORE.INTRA.VDW>
-0.0282904

>  <SCORE.INTRA.VDW.0>
-1.49176

>  <SCORE.INTRA.norm>
-0.00220188

>  <SCORE.RESTR>
0.000179972

>  <SCORE.RESTR.CAVITY>
0.000179972

>  <SCORE.RESTR.norm>
3.99938e-06

>  <SCORE.SYSTEM>
0

>  <SCORE.SYSTEM.CONST>
0

>  <SCORE.SYSTEM.DIHEDRAL>
0

>  <SCORE.SYSTEM.SOLV>
0

>  <SCORE.SYSTEM.norm>
0

>  <SCORE.heavy>
45

>  <SCORE.norm>
-0.485542

>  <RMSD>
5.714

$$$$
ligand
 OpenBabel11021811513D
libRbt.so/2013.1/901 2013/11/27
 45 51  0  0  0  0  0  0  0  0999 V2000
   93.7481   15.4936   95.9144 C   0  0  0  0  0  0  0  0  0  0  0  0
   96.5934   13.3029   92.1990 C   0  0  0  0  0  0  0  0  0  0  0  0
   91.2334   12.8592   91.5395 N   0  0  0  0  0  0  0  0  0  0  0  0
   92.7261   14.8105   96.3174 N   0  0  0  0  0  0  0  0  0  0  0  0
   92.5945   14.1450   92.9362 N   0  0  0  0  0  0  0  0  0  0  0  0
   90.8004   12.9659   93.8344 N   0  0  0  0  0  0  0  0  0  0  0  0
   90.3627   13.0019   96.1969 O   0  0  0  0  0  0  0  0  0  0  0  0
   95.4197   10.6537   91.1119 O   0  5  0  0  0  0  0  0  0  0  0  0
  100.3177   14.8378   95.1859 O   0  5  0  0  0  0  0  0  0  0  0  0
   96.8579   17.0989   94.4398 O   0  0  0  0  0  0  0  0  0  0  0  0
   94.6678   10.3145   93.1791 O   0  5  0  0  0  0  0  0  0  0  0  0
   98.5138   15.2140   96.4511 O   0  5  0  0  0  0  0  0  0  0  0  0
   95.4571   12.5815   92.4612 O   0  0  0  0  0  0  0  0  0  0  0  0
   95.1008   15.3303   92.5897 O   0  0  0  0  0  0  0  0  0  0  0  0
   98.3140   14.9773   93.9206 O   0  0  0  0  0  0  0  0  0  0  0  0
   91.5544   13.3589   92.8380 C   0  0  0  0  0  0  0  0  0  0  0  0
   91.0856   13.3719   95.0643 C   0  0  0  0  0  0  0  0  0  0  0  0
   92.1847   14.2409   95.2483 C   0  0  0  0  0  0  0  0  0  0  0  0
   92.9384   14.6074   94.1606 C   0  0  0  0  0  0  0  0  0  0  0  0
   96.0632   15.9748   94.5092 C   0  0  2  0  0  0  0  0  0  0  0  0
   96.4986   14.6942   92.6818 C   0  0  1  0  0  0  0  0  0  0  0  0
   96.9093   14.7608   93.8583 C   0  0  1  0  0  0  0  0  0  0  0  0
   94.8961   16.0445   93.8963 C   0  0  2  0  0  0  0  0  0  0  0  0
   93.8920   15.4046   94.6439 N   0  0  0  0  0  0  0  0  0  0  0  0
   95.6491   11.0338   92.4449 P   0  0  2  0  0  0  0  0  0  0  0  0
   98.9520   14.5386   95.2541 P   0  0  1  0  0  0  0  0  0  0  0  0
   99.1994   12.1435   94.2419 C   0  0  0  0  0  0  0  0  0  0  0  0
   98.8753   12.9810   95.3633 O   0  0  0  0  0  0  0  0  0  0  0  0
   98.7158   10.7585   94.3427 C   0  0  1  0  0  0  0  0  0  0  0  0
   98.9949   10.2430   95.8391 O   0  0  0  0  0  0  0  0  0  0  0  0
   97.4672   10.7265   94.2022 C   0  0  1  0  0  0  0  0  0  0  0  0
   97.0750   10.6058   92.8154 O   0  0  0  0  0  0  0  0  0  0  0  0
   97.0269    9.5660   95.0816 C   0  0  1  0  0  0  0  0  0  0  0  0
   97.1370    8.4773   94.4536 O   0  0  0  0  0  0  0  0  0  0  0  0
   98.0237    9.5682   96.2406 C   0  0  2  0  0  0  0  0  0  0  0  0
   94.1533   11.7553   98.8233 N   0  0  0  0  0  0  0  0  0  0  0  0
   94.3135   11.7050   97.4748 C   0  0  0  0  0  0  0  0  0  0  0  0
   95.3884   11.0800   97.0094 N   0  0  0  0  0  0  0  0  0  0  0  0
   96.3574   10.5511   97.7867 C   0  0  0  0  0  0  0  0  0  0  0  0
   96.2265   10.5837   99.1916 C   0  0  0  0  0  0  0  0  0  0  0  0
   95.0533   11.2407   99.6825 C   0  0  0  0  0  0  0  0  0  0  0  0
   94.8492   11.3415  101.0904 N   0  0  0  0  0  0  0  0  0  0  0  0
   97.2560    9.9785   99.6709 N   0  0  0  0  0  0  0  0  0  0  0  0
   98.0057    9.5523   98.6692 C   0  0  0  0  0  0  0  0  0  0  0  0
   97.5022    9.8984   97.5387 N   0  0  0  0  0  0  0  0  0  0  0  0
  1 24  1  0  0  0  0
  1  4  2  0  0  0  0
  2 13  1  0  0  0  0
  2 21  1  0  0  0  0
  3 16  1  0  0  0  0
  4 18  1  0  0  0  0
  5 19  2  0  0  0  0
  5 16  1  0  0  0  0
  6 16  2  0  0  0  0
  6 17  1  0  0  0  0
  7 17  1  0  0  0  0
 11 25  2  0  0  0  0
 12 26  2  0  0  0  0
 13 25  1  0  0  0  0
 14 23  1  0  0  0  0
 15 26  1  0  0  0  0
 17 18  2  0  0  0  0
 18 19  1  0  0  0  0
 19 24  1  0  0  0  0
 20 10  1  6  0  0  0
 20 22  1  0  0  0  0
 20 23  1  0  0  0  0
 21 14  1  1  0  0  0
 21 22  1  0  0  0  0
 22 15  1  6  0  0  0
 23 24  1  1  0  0  0
 25  8  1  6  0  0  0
 25 32  1  0  0  0  0
 26  9  1  6  0  0  0
 26 28  1  0  0  0  0
 27 28  1  0  0  0  0
 29 27  1  1  0  0  0
 29 30  1  0  0  0  0
 29 31  1  0  0  0  0
 30 35  1  0  0  0  0
 31 33  1  0  0  0  0
 31 32  1  6  0  0  0
 33 34  1  6  0  0  0
 33 35  1  0  0  0  0
 35 45  1  1  0  0  0
 36 41  2  0  0  0  0
 36 37  1  0  0  0  0
 37 38  2  0  0  0  0
 38 39  1  0  0  0  0
 39 40  2  0  0  0  0
 39 45  1  0  0  0  0
 40 41  1  0  0  0  0
 40 43  1  0  0  0  0
 41 42  1  0  0  0  0
 43 44  2  0  0  0  0
 44 45  1  0  0  0  0
M  CHG  4   8  -1   9  -1  11  -1  12  -1
M  END
>  <CHROM.1>
158.05481647,105.76725647,95.82036948,12.64814947,95.02368484,2.37002520
0.10707379,-0.91760325

>  <Name>
ligand

>  <RI>
0

>  <Rbt.Current_Directory>
/home/itssahil/PROJECTS/Mol_Feturizer/New_Systems/rnas/4YAZ

>  <Rbt.Executable>
rbdock ($Id: //depot/dev/client3/rdock/2013.1/src/exe/rbdock.cxx#4 $)

>  <Rbt.Library>
libRbt.so (2013.1, Build901 2013/11/27)

>  <Rbt.Parameter_File>
/export/apps/rDock/src/rDock_2013.1_src/data/scripts/dock_solv.prm

>  <Rbt.Receptor>
prm/pocket_docking_8.prm

>  <SCORE>
-19.6923

>  <SCORE.INTER>
-18.994

>  <SCORE.INTER.CONST>
1

>  <SCORE.INTER.POLAR>
0

>  <SCORE.INTER.ROT>
2

>  <SCORE.INTER.SOLV>
29.185

>  <SCORE.INTER.VDW>
-27.3243

>  <SCORE.INTER.norm>
-0.422088

>  <SCORE.INTRA>
-0.698345

>  <SCORE.INTRA.DIHEDRAL>
0.117829

>  <SCORE.INTRA.DIHEDRAL.0>
2.39103

>  <SCORE.INTRA.POLAR>
0

>  <SCORE.INTRA.POLAR.0>
0

>  <SCORE.INTRA.REPUL>
0

>  <SCORE.INTRA.REPUL.0>
0

>  <SCORE.INTRA.SOLV>
0.0965893

>  <SCORE.INTRA.SOLV.lig_0>
-163.975

>  <SCORE.INTRA.VDW>
-0.805555

>  <SCORE.INTRA.VDW.0>
-1.49176

>  <SCORE.INTRA.norm>
-0.0155188

>  <SCORE.RESTR>
0

>  <SCORE.RESTR.CAVITY>
0

>  <SCORE.RESTR.norm>
0

>  <SCORE.SYSTEM>
0

>  <SCORE.SYSTEM.CONST>
0

>  <SCORE.SYSTEM.DIHEDRAL>
0

>  <SCORE.SYSTEM.SOLV>
0

>  <SCORE.SYSTEM.norm>
0

>  <SCORE.heavy>
45

>  <SCORE.norm>
-0.437607

>  <RMSD>
5.725

$$$$
ligand
 OpenBabel11021811513D
libRbt.so/2013.1/901 2013/11/27
 45 51  0  0  0  0  0  0  0  0999 V2000
   93.7479   13.7941   94.0707 C   0  0  0  0  0  0  0  0  0  0  0  0
   96.9232   13.1723   91.8787 C   0  0  0  0  0  0  0  0  0  0  0  0
   90.8735   18.3306   95.9577 N   0  0  0  0  0  0  0  0  0  0  0  0
   92.7165   13.4282   94.7604 N   0  0  0  0  0  0  0  0  0  0  0  0
   92.3987   16.8549   94.9817 N   0  0  0  0  0  0  0  0  0  0  0  0
   90.5870   16.0211   96.1811 N   0  0  0  0  0  0  0  0  0  0  0  0
   90.2262   13.6536   96.3786 O   0  0  0  0  0  0  0  0  0  0  0  0
   96.0649   10.4363   90.7145 O   0  5  0  0  0  0  0  0  0  0  0  0
  100.2127   15.0008   95.1929 O   0  5  0  0  0  0  0  0  0  0  0  0
   96.6802   16.9870   94.0900 O   0  0  0  0  0  0  0  0  0  0  0  0
   95.1438   10.0494   92.7033 O   0  5  0  0  0  0  0  0  0  0  0  0
   98.2712   15.2431   96.2736 O   0  5  0  0  0  0  0  0  0  0  0  0
   95.8248   12.3671   92.0385 O   0  0  0  0  0  0  0  0  0  0  0  0
   95.2503   15.0810   92.0998 O   0  0  0  0  0  0  0  0  0  0  0  0
   98.3366   14.9810   93.7386 O   0  0  0  0  0  0  0  0  0  0  0  0
   91.3166   16.9977   95.7015 C   0  0  0  0  0  0  0  0  0  0  0  0
   90.9375   14.7663   95.9333 C   0  0  0  0  0  0  0  0  0  0  0  0
   92.1085   14.5311   95.1780 C   0  0  0  0  0  0  0  0  0  0  0  0
   92.8226   15.6014   94.6984 C   0  0  0  0  0  0  0  0  0  0  0  0
   95.9701   15.8056   94.0956 C   0  0  2  0  0  0  0  0  0  0  0  0
   96.6767   14.5543   92.3338 C   0  0  1  0  0  0  0  0  0  0  0  0
   96.9650   14.6573   93.5436 C   0  0  1  0  0  0  0  0  0  0  0  0
   94.8661   15.7831   93.3721 C   0  0  2  0  0  0  0  0  0  0  0  0
   93.8455   15.0713   94.0268 N   0  0  0  0  0  0  0  0  0  0  0  0
   96.1342   10.8387   92.0589 P   0  0  2  0  0  0  0  0  0  0  0  0
   98.8735   14.5982   95.1325 P   0  0  1  0  0  0  0  0  0  0  0  0
   99.3989   12.2248   94.1769 C   0  0  0  0  0  0  0  0  0  0  0  0
   98.9049   13.0398   95.2520 O   0  0  0  0  0  0  0  0  0  0  0  0
   99.0142   10.8072   94.2467 C   0  0  1  0  0  0  0  0  0  0  0  0
   99.1850   10.3210   95.7690 O   0  0  0  0  0  0  0  0  0  0  0  0
   97.7912   10.6791   93.9868 C   0  0  1  0  0  0  0  0  0  0  0  0
   97.5458   10.5227   92.5701 O   0  0  0  0  0  0  0  0  0  0  0  0
   97.3569    9.4920   94.8331 C   0  0  1  0  0  0  0  0  0  0  0  0
   97.6097    8.4122   94.2315 O   0  0  0  0  0  0  0  0  0  0  0  0
   98.2334    9.5755   96.0828 C   0  0  2  0  0  0  0  0  0  0  0  0
   94.1200   11.7563   98.2642 N   0  0  0  0  0  0  0  0  0  0  0  0
   94.4414   11.7514   96.9438 C   0  0  0  0  0  0  0  0  0  0  0  0
   95.5529   11.1190   96.5872 N   0  0  0  0  0  0  0  0  0  0  0  0
   96.4108   10.5399   97.4542 C   0  0  0  0  0  0  0  0  0  0  0  0
   96.1113   10.5245   98.8334 C   0  0  0  0  0  0  0  0  0  0  0  0
   94.8997   11.1901   99.2048 C   0  0  0  0  0  0  0  0  0  0  0  0
   94.5286   11.2445  100.5808 N   0  0  0  0  0  0  0  0  0  0  0  0
   97.0638    9.8787   99.4092 N   0  0  0  0  0  0  0  0  0  0  0  0
   97.9212    9.4719   98.4892 C   0  0  0  0  0  0  0  0  0  0  0  0
   97.5648    9.8703   97.3206 N   0  0  0  0  0  0  0  0  0  0  0  0
  1 24  1  0  0  0  0
  1  4  2  0  0  0  0
  2 13  1  0  0  0  0
  2 21  1  0  0  0  0
  3 16  1  0  0  0  0
  4 18  1  0  0  0  0
  5 19  2  0  0  0  0
  5 16  1  0  0  0  0
  6 16  2  0  0  0  0
  6 17  1  0  0  0  0
  7 17  1  0  0  0  0
 11 25  2  0  0  0  0
 12 26  2  0  0  0  0
 13 25  1  0  0  0  0
 14 23  1  0  0  0  0
 15 26  1  0  0  0  0
 17 18  2  0  0  0  0
 18 19  1  0  0  0  0
 19 24  1  0  0  0  0
 20 10  1  6  0  0  0
 20 22  1  0  0  0  0
 20 23  1  0  0  0  0
 21 14  1  1  0  0  0
 21 22  1  0  0  0  0
 22 15  1  6  0  0  0
 23 24  1  1  0  0  0
 25  8  1  6  0  0  0
 25 32  1  0  0  0  0
 26  9  1  1  0  0  0
 26 28  1  0  0  0  0
 27 28  1  0  0  0  0
 29 27  1  1  0  0  0
 29 30  1  0  0  0  0
 29 31  1  0  0  0  0
 30 35  1  0  0  0  0
 31 33  1  0  0  0  0
 31 32  1  6  0  0  0
 33 34  1  6  0  0  0
 33 35  1  0  0  0  0
 35 45  1  1  0  0  0
 36 41  2  0  0  0  0
 36 37  1  0  0  0  0
 37 38  2  0  0  0  0
 38 39  1  0  0  0  0
 39 40  2  0  0  0  0
 39 45  1  0  0  0  0
 40 41  1  0  0  0  0
 40 43  1  0  0  0  0
 41 42  1  0  0  0  0
 43 44  2  0  0  0  0
 44 45  1  0  0  0  0
M  CHG  4   8  -1   9  -1  11  -1  12  -1
M  END
>  <CHROM.1>
36.84289603,99.45920962,95.89004864,12.89923212,94.98213327,-2.67525171,-0.60638923
2.29680985

>  <Name>
ligand

>  <RI>
0

>  <Rbt.Current_Directory>
/home/itssahil/PROJECTS/Mol_Feturizer/New_Systems/rnas/4YAZ

>  <Rbt.Executable>
rbdock ($Id: //depot/dev/client3/rdock/2013.1/src/exe/rbdock.cxx#4 $)

>  <Rbt.Library>
libRbt.so (2013.1, Build901 2013/11/27)

>  <Rbt.Parameter_File>
/export/apps/rDock/src/rDock_2013.1_src/data/scripts/dock_solv.prm

>  <Rbt.Receptor>
prm/pocket_docking_6.prm

>  <SCORE>
-20.7588

>  <SCORE.INTER>
-19.3641

>  <SCORE.INTER.CONST>
1

>  <SCORE.INTER.POLAR>
0

>  <SCORE.INTER.ROT>
2

>  <SCORE.INTER.SOLV>
31.3309

>  <SCORE.INTER.VDW>
-28.2863

>  <SCORE.INTER.norm>
-0.430313

>  <SCORE.INTRA>
-1.39469

>  <SCORE.INTRA.DIHEDRAL>
0.14119

>  <SCORE.INTRA.DIHEDRAL.0>
2.39103

>  <SCORE.INTRA.POLAR>
0

>  <SCORE.INTRA.POLAR.0>
0

>  <SCORE.INTRA.REPUL>
0

>  <SCORE.INTRA.REPUL.0>
0

>  <SCORE.INTRA.SOLV>
-0.00377268

>  <SCORE.INTRA.SOLV.lig_0>
-163.975

>  <SCORE.INTRA.VDW>
-1.46339

>  <SCORE.INTRA.VDW.0>
-1.49176

>  <SCORE.INTRA.norm>
-0.030993

>  <SCORE.RESTR>
0

>  <SCORE.RESTR.CAVITY>
0

>  <SCORE.RESTR.norm>
0

>  <SCORE.SYSTEM>
0

>  <SCORE.SYSTEM.CONST>
0

>  <SCORE.SYSTEM.DIHEDRAL>
0

>  <SCORE.SYSTEM.SOLV>
0

>  <SCORE.SYSTEM.norm>
0

>  <SCORE.heavy>
45

>  <SCORE.norm>
-0.461306

>  <RMSD>
5.775

$$$$
ligand
 OpenBabel11021811513D
libRbt.so/2013.1/901 2013/11/27
 45 51  0  0  0  0  0  0  0  0999 V2000
   93.8717   13.8585   94.3132 C   0  0  0  0  0  0  0  0  0  0  0  0
   96.9537   13.2762   91.9590 C   0  0  0  0  0  0  0  0  0  0  0  0
   90.5825   18.3218   95.6030 N   0  0  0  0  0  0  0  0  0  0  0  0
   92.8205   13.4795   94.9648 N   0  0  0  0  0  0  0  0  0  0  0  0
   92.2653   16.8815   94.8613 N   0  0  0  0  0  0  0  0  0  0  0  0
   90.4321   16.0247   96.0107 N   0  0  0  0  0  0  0  0  0  0  0  0
   90.2133   13.6624   96.3932 O   0  0  0  0  0  0  0  0  0  0  0  0
   96.0902   10.5616   90.7495 O   0  5  0  0  0  0  0  0  0  0  0  0
  100.2637   15.0459   95.2847 O   0  5  0  0  0  0  0  0  0  0  0  0
   96.7219   17.0485   94.2430 O   0  0  0  0  0  0  0  0  0  0  0  0
   95.1829   10.1365   92.7368 O   0  5  0  0  0  0  0  0  0  0  0  0
   98.3293   15.2658   96.3828 O   0  5  0  0  0  0  0  0  0  0  0  0
   95.8572   12.4670   92.1110 O   0  0  0  0  0  0  0  0  0  0  0  0
   95.2805   15.1786   92.2271 O   0  0  0  0  0  0  0  0  0  0  0  0
   98.3778   15.0513   93.8429 O   0  0  0  0  0  0  0  0  0  0  0  0
   91.1284   17.0069   95.4946 C   0  0  0  0  0  0  0  0  0  0  0  0
   90.8801   14.7815   95.8979 C   0  0  0  0  0  0  0  0  0  0  0  0
   92.1141   14.5676   95.2432 C   0  0  0  0  0  0  0  0  0  0  0  0
   92.7888   15.6419   94.7178 C   0  0  0  0  0  0  0  0  0  0  0  0
   96.0130   15.8665   94.2312 C   0  0  2  0  0  0  0  0  0  0  0  0
   96.7089   14.6492   92.4415 C   0  0  1  0  0  0  0  0  0  0  0  0
   97.0052   14.7298   93.6511 C   0  0  1  0  0  0  0  0  0  0  0  0
   94.9042   15.8563   93.5149 C   0  0  2  0  0  0  0  0  0  0  0  0
   93.8888   15.1313   94.1630 N   0  0  0  0  0  0  0  0  0  0  0  0
   96.1682   10.9388   92.1007 P   0  0  2  0  0  0  0  0  0  0  0  0
   98.9245   14.6430   95.2258 P   0  0  1  0  0  0  0  0  0  0  0  0
   99.4457   12.2885   94.2224 C   0  0  0  0  0  0  0  0  0  0  0  0
   98.9582   13.0826   95.3158 O   0  0  0  0  0  0  0  0  0  0  0  0
   99.0629   10.8695   94.2682 C   0  0  1  0  0  0  0  0  0  0  0  0
   99.2444   10.3550   95.7799 O   0  0  0  0  0  0  0  0  0  0  0  0
   97.8382   10.7449   94.0141 C   0  0  1  0  0  0  0  0  0  0  0  0
   97.5835   10.6148   92.5965 O   0  0  0  0  0  0  0  0  0  0  0  0
   97.4108    9.5417   94.8409 C   0  0  1  0  0  0  0  0  0  0  0  0
   97.6606    8.4737   94.2175 O   0  0  0  0  0  0  0  0  0  0  0  0
   98.2956    9.6027   96.0861 C   0  0  2  0  0  0  0  0  0  0  0  0
   94.1833   11.7170   98.3338 N   0  0  0  0  0  0  0  0  0  0  0  0
   94.4936   11.7344   97.0109 C   0  0  0  0  0  0  0  0  0  0  0  0
   95.6071   11.1165   96.6357 N   0  0  0  0  0  0  0  0  0  0  0  0
   96.4768   10.5316   97.4868 C   0  0  0  0  0  0  0  0  0  0  0  0
   96.1891   10.4932   98.8680 C   0  0  0  0  0  0  0  0  0  0  0  0
   94.9753   11.1433   99.2594 C   0  0  0  0  0  0  0  0  0  0  0  0
   94.6153   11.1741  100.6390 N   0  0  0  0  0  0  0  0  0  0  0  0
   97.1516    9.8467   99.4262 N   0  0  0  0  0  0  0  0  0  0  0  0
   98.0045    9.4606   98.4931 C   0  0  0  0  0  0  0  0  0  0  0  0
   97.6351    9.8735   97.3336 N   0  0  0  0  0  0  0  0  0  0  0  0
  1 24  1  0  0  0  0
  1  4  2  0  0  0  0
  2 13  1  0  0  0  0
  2 21  1  0  0  0  0
  3 16  1  0  0  0  0
  4 18  1  0  0  0  0
  5 19  2  0  0  0  0
  5 16  1  0  0  0  0
  6 16  2  0  0  0  0
  6 17  1  0  0  0  0
  7 17  1  0  0  0  0
 11 25  2  0  0  0  0
 12 26  2  0  0  0  0
 13 25  1  0  0  0  0
 14 23  1  0  0  0  0
 15 26  1  0  0  0  0
 17 18  2  0  0  0  0
 18 19  1  0  0  0  0
 19 24  1  0  0  0  0
 20 10  1  6  0  0  0
 20 22  1  0  0  0  0
 20 23  1  0  0  0  0
 21 14  1  1  0  0  0
 21 22  1  0  0  0  0
 22 15  1  6  0  0  0
 23 24  1  1  0  0  0
 25  8  1  6  0  0  0
 25 32  1  0  0  0  0
 26  9  1  1  0  0  0
 26 28  1  0  0  0  0
 27 28  1  0  0  0  0
 29 27  1  1  0  0  0
 29 30  1  0  0  0  0
 29 31  1  0  0  0  0
 30 35  1  0  0  0  0
 31 33  1  0  0  0  0
 31 32  1  6  0  0  0
 33 34  1  6  0  0  0
 33 35  1  0  0  0  0
 35 45  1  1  0  0  0
 36 41  2  0  0  0  0
 36 37  1  0  0  0  0
 37 38  2  0  0  0  0
 38 39  1  0  0  0  0
 39 40  2  0  0  0  0
 39 45  1  0  0  0  0
 40 41  1  0  0  0  0
 40 43  1  0  0  0  0
 41 42  1  0  0  0  0
 43 44  2  0  0  0  0
 44 45  1  0  0  0  0
M  CHG  4   8  -1   9  -1  11  -1  12  -1
M  END
>  <CHROM.1>
45.15885041,99.92973577,95.91734703,12.94076487,95.02496840,-2.64852640,-0.56864369
2.31049901

>  <Name>
ligand

>  <RI>
0

>  <Rbt.Current_Directory>
/home/itssahil/PROJECTS/Mol_Feturizer/New_Systems/rnas/4YAZ

>  <Rbt.Executable>
rbdock ($Id: //depot/dev/client3/rdock/2013.1/src/exe/rbdock.cxx#4 $)

>  <Rbt.Library>
libRbt.so (2013.1, Build901 2013/11/27)

>  <Rbt.Parameter_File>
/export/apps/rDock/src/rDock_2013.1_src/data/scripts/dock_solv.prm

>  <Rbt.Receptor>
prm/pocket_docking_5.prm

>  <SCORE>
-21.1553

>  <SCORE.INTER>
-19.8206

>  <SCORE.INTER.CONST>
1

>  <SCORE.INTER.POLAR>
0

>  <SCORE.INTER.ROT>
2

>  <SCORE.INTER.SOLV>
31.4268

>  <SCORE.INTER.VDW>
-28.6227

>  <SCORE.INTER.norm>
-0.440458

>  <SCORE.INTRA>
-1.33462

>  <SCORE.INTRA.DIHEDRAL>
0.138617

>  <SCORE.INTRA.DIHEDRAL.0>
2.39103

>  <SCORE.INTRA.POLAR>
0

>  <SCORE.INTRA.POLAR.0>
0

>  <SCORE.INTRA.REPUL>
0

>  <SCORE.INTRA.REPUL.0>
0

>  <SCORE.INTRA.SOLV>
8.2915e-05

>  <SCORE.INTRA.SOLV.lig_0>
-163.975

>  <SCORE.INTRA.VDW>
-1.40397

>  <SCORE.INTRA.VDW.0>
-1.49176

>  <SCORE.INTRA.norm>
-0.0296583

>  <SCORE.RESTR>
0

>  <SCORE.RESTR.CAVITY>
0

>  <SCORE.RESTR.norm>
0

>  <SCORE.SYSTEM>
0

>  <SCORE.SYSTEM.CONST>
0

>  <SCORE.SYSTEM.DIHEDRAL>
0

>  <SCORE.SYSTEM.SOLV>
0

>  <SCORE.SYSTEM.norm>
0

>  <SCORE.heavy>
45

>  <SCORE.norm>
-0.470117

>  <RMSD>
5.791

$$$$
ligand
 OpenBabel11021811513D
libRbt.so/2013.1/901 2013/11/27
 45 51  0  0  0  0  0  0  0  0999 V2000
   93.4731   15.7434   95.0002 C   0  0  0  0  0  0  0  0  0  0  0  0
   96.8430   12.9722   92.2145 C   0  0  0  0  0  0  0  0  0  0  0  0
   91.7338   12.6262   90.5662 N   0  0  0  0  0  0  0  0  0  0  0  0
   92.3509   15.1570   95.2649 N   0  0  0  0  0  0  0  0  0  0  0  0
   92.8621   14.0426   92.0416 N   0  0  0  0  0  0  0  0  0  0  0  0
   90.8549   13.0588   92.6889 N   0  0  0  0  0  0  0  0  0  0  0  0
   89.9535   13.4308   94.8851 O   0  0  0  0  0  0  0  0  0  0  0  0
   95.7283   10.2614   91.2211 O   0  5  0  0  0  0  0  0  0  0  0  0
  100.0075   14.7048   95.6976 O   0  5  0  0  0  0  0  0  0  0  0  0
   96.9201   17.0030   94.0164 O   0  0  0  0  0  0  0  0  0  0  0  0
   94.5663   10.2157   93.1188 O   0  5  0  0  0  0  0  0  0  0  0  0
   98.0209   15.3138   96.5215 O   0  5  0  0  0  0  0  0  0  0  0  0
   95.6313   12.3390   92.3222 O   0  0  0  0  0  0  0  0  0  0  0  0
   95.4428   15.0952   92.0629 O   0  0  0  0  0  0  0  0  0  0  0  0
   98.3033   14.7722   94.0463 O   0  0  0  0  0  0  0  0  0  0  0  0
   91.8168   13.2866   91.8293 C   0  0  0  0  0  0  0  0  0  0  0  0
   90.9110   13.6183   93.8900 C   0  0  0  0  0  0  0  0  0  0  0  0
   92.0019   14.4661   94.1872 C   0  0  0  0  0  0  0  0  0  0  0  0
   92.9802   14.6552   93.2425 C   0  0  0  0  0  0  0  0  0  0  0  0
   96.0533   15.9319   94.0513 C   0  0  2  0  0  0  0  0  0  0  0  0
   96.7496   14.4156   92.5069 C   0  0  1  0  0  0  0  0  0  0  0  0
   96.9264   14.6107   93.7268 C   0  0  1  0  0  0  0  0  0  0  0  0
   95.0356   15.9751   93.2115 C   0  0  2  0  0  0  0  0  0  0  0  0
   93.8641   15.4776   93.8088 N   0  0  0  0  0  0  0  0  0  0  0  0
   95.7181   10.7946   92.5209 P   0  0  2  0  0  0  0  0  0  0  0  0
   98.6377   14.4760   95.5222 P   0  0  1  0  0  0  0  0  0  0  0  0
   98.9160   11.9649   94.8596 C   0  0  0  0  0  0  0  0  0  0  0  0
   98.4365   12.9490   95.7900 O   0  0  0  0  0  0  0  0  0  0  0  0
   98.3298   10.6255   95.0174 C   0  0  1  0  0  0  0  0  0  0  0  0
   98.2762   10.2891   96.5880 O   0  0  0  0  0  0  0  0  0  0  0  0
   97.1334   10.6304   94.6323 C   0  0  1  0  0  0  0  0  0  0  0  0
   97.0122   10.3547   93.2178 O   0  0  0  0  0  0  0  0  0  0  0  0
   96.4528    9.6089   95.5307 C   0  0  1  0  0  0  0  0  0  0  0  0
   96.6098    8.4466   95.0658 O   0  0  0  0  0  0  0  0  0  0  0  0
   97.2021    9.7124   96.8593 C   0  0  2  0  0  0  0  0  0  0  0  0
   96.9135    9.9821  101.9855 N   0  0  0  0  0  0  0  0  0  0  0  0
   97.8145    9.2778  101.2514 C   0  0  0  0  0  0  0  0  0  0  0  0
   97.7175    9.3514   99.9294 N   0  0  0  0  0  0  0  0  0  0  0  0
   96.7484   10.0250   99.2737 C   0  0  0  0  0  0  0  0  0  0  0  0
   95.7947   10.7686  100.0014 C   0  0  0  0  0  0  0  0  0  0  0  0
   95.9214   10.7002  101.4256 C   0  0  0  0  0  0  0  0  0  0  0  0
   94.9866   11.4022  102.2425 N   0  0  0  0  0  0  0  0  0  0  0  0
   95.0315   11.3360   99.1345 N   0  0  0  0  0  0  0  0  0  0  0  0
   95.4528   11.0195   97.9224 C   0  0  0  0  0  0  0  0  0  0  0  0
   96.4607   10.2243   97.9792 N   0  0  0  0  0  0  0  0  0  0  0  0
  1 24  1  0  0  0  0
  1  4  2  0  0  0  0
  2 13  1  0  0  0  0
  2 21  1  0  0  0  0
  3 16  1  0  0  0  0
  4 18  1  0  0  0  0
  5 19  2  0  0  0  0
  5 16  1  0  0  0  0
  6 16  2  0  0  0  0
  6 17  1  0  0  0  0
  7 17  1  0  0  0  0
 11 25  2  0  0  0  0
 12 26  2  0  0  0  0
 13 25  1  0  0  0  0
 14 23  1  0  0  0  0
 15 26  1  0  0  0  0
 17 18  2  0  0  0  0
 18 19  1  0  0  0  0
 19 24  1  0  0  0  0
 20 10  1  6  0  0  0
 20 22  1  0  0  0  0
 20 23  1  0  0  0  0
 21 14  1  1  0  0  0
 21 22  1  0  0  0  0
 22 15  1  6  0  0  0
 23 24  1  1  0  0  0
 25  8  1  6  0  0  0
 25 32  1  0  0  0  0
 26  9  1  1  0  0  0
 26 28  1  0  0  0  0
 27 28  1  0  0  0  0
 29 27  1  1  0  0  0
 29 30  1  0  0  0  0
 29 31  1  0  0  0  0
 30 35  1  0  0  0  0
 31 33  1  0  0  0  0
 31 32  1  6  0  0  0
 33 34  1  6  0  0  0
 33 35  1  0  0  0  0
 35 45  1  1  0  0  0
 36 41  2  0  0  0  0
 36 37  1  0  0  0  0
 37 38  2  0  0  0  0
 38 39  1  0  0  0  0
 39 40  2  0  0  0  0
 39 45  1  0  0  0  0
 40 41  1  0  0  0  0
 40 43  1  0  0  0  0
 41 42  1  0  0  0  0
 43 44  2  0  0  0  0
 44 45  1  0  0  0  0
M  CHG  4   8  -1   9  -1  11  -1  12  -1
M  END
>  <CHROM.1>
158.94437834,-76.38261331,95.79822545,12.53002022,95.16405674,1.99268713
-0.11130975,-1.02772320

>  <Name>
ligand

>  <RI>
0

>  <Rbt.Current_Directory>
/home/itssahil/PROJECTS/Mol_Feturizer/New_Systems/rnas/4YAZ

>  <Rbt.Executable>
rbdock ($Id: //depot/dev/client3/rdock/2013.1/src/exe/rbdock.cxx#4 $)

>  <Rbt.Library>
libRbt.so (2013.1, Build901 2013/11/27)

>  <Rbt.Parameter_File>
/export/apps/rDock/src/rDock_2013.1_src/data/scripts/dock_solv.prm

>  <Rbt.Receptor>
prm/pocket_docking_7.prm

>  <SCORE>
-23.2561

>  <SCORE.INTER>
-23.2159

>  <SCORE.INTER.CONST>
1

>  <SCORE.INTER.POLAR>
0

>  <SCORE.INTER.ROT>
2

>  <SCORE.INTER.SOLV>
26.4148

>  <SCORE.INTER.VDW>
-29.2155

>  <SCORE.INTER.norm>
-0.515908

>  <SCORE.INTRA>
-0.0402417

>  <SCORE.INTRA.DIHEDRAL>
-0.0994001

>  <SCORE.INTRA.DIHEDRAL.0>
2.39103

>  <SCORE.INTRA.POLAR>
0

>  <SCORE.INTRA.POLAR.0>
0

>  <SCORE.INTRA.REPUL>
0

>  <SCORE.INTRA.REPUL.0>
0

>  <SCORE.INTRA.SOLV>
0.0556026

>  <SCORE.INTRA.SOLV.lig_0>
-163.975

>  <SCORE.INTRA.VDW>
-0.018343

>  <SCORE.INTRA.VDW.0>
-1.49176

>  <SCORE.INTRA.norm>
-0.000894259

>  <SCORE.RESTR>
0

>  <SCORE.RESTR.CAVITY>
0

>  <SCORE.RESTR.norm>
0

>  <SCORE.SYSTEM>
0

>  <SCORE.SYSTEM.CONST>
0

>  <SCORE.SYSTEM.DIHEDRAL>
0

>  <SCORE.SYSTEM.SOLV>
0

>  <SCORE.SYSTEM.norm>
0

>  <SCORE.heavy>
45

>  <SCORE.norm>
-0.516803

>  <RMSD>
5.792

$$$$
ligand
 OpenBabel11021811513D
libRbt.so/2013.1/901 2013/11/27
 45 51  0  0  0  0  0  0  0  0999 V2000
   93.7385   15.4530   95.7559 C   0  0  0  0  0  0  0  0  0  0  0  0
   96.7486   13.3699   92.1076 C   0  0  0  0  0  0  0  0  0  0  0  0
   91.4275   12.8836   91.2325 N   0  0  0  0  0  0  0  0  0  0  0  0
   92.7093   14.7512   96.1042 N   0  0  0  0  0  0  0  0  0  0  0  0
   92.7181   14.1544   92.7077 N   0  0  0  0  0  0  0  0  0  0  0  0
   90.9035   12.9383   93.5102 N   0  0  0  0  0  0  0  0  0  0  0  0
   90.3728   12.9210   95.8538 O   0  0  0  0  0  0  0  0  0  0  0  0
   95.6453   10.7340   90.9192 O   0  5  0  0  0  0  0  0  0  0  0  0
  100.3389   14.8747   95.2689 O   0  5  0  0  0  0  0  0  0  0  0  0
   96.8871   17.1184   94.4379 O   0  0  0  0  0  0  0  0  0  0  0  0
   94.8179   10.3426   92.9479 O   0  5  0  0  0  0  0  0  0  0  0  0
   98.4838   15.2059   96.4709 O   0  5  0  0  0  0  0  0  0  0  0  0
   95.6106   12.6321   92.3100 O   0  0  0  0  0  0  0  0  0  0  0  0
   95.2211   15.3739   92.4835 O   0  0  0  0  0  0  0  0  0  0  0  0
   98.3841   15.0227   93.9301 O   0  0  0  0  0  0  0  0  0  0  0  0
   91.6916   13.3597   92.5525 C   0  0  0  0  0  0  0  0  0  0  0  0
   91.1355   13.3217   94.7584 C   0  0  0  0  0  0  0  0  0  0  0  0
   92.2167   14.1982   95.0033 C   0  0  0  0  0  0  0  0  0  0  0  0
   93.0084   14.5949   93.9538 C   0  0  0  0  0  0  0  0  0  0  0  0
   96.1021   15.9855   94.4523 C   0  0  2  0  0  0  0  0  0  0  0  0
   96.6208   14.7494   92.6161 C   0  0  1  0  0  0  0  0  0  0  0  0
   96.9851   14.7942   93.8088 C   0  0  1  0  0  0  0  0  0  0  0  0
   94.9588   16.0575   93.7962 C   0  0  2  0  0  0  0  0  0  0  0  0
   93.9333   15.3918   94.4905 N   0  0  0  0  0  0  0  0  0  0  0  0
   95.8191   11.0871   92.2680 P   0  0  2  0  0  0  0  0  0  0  0  0
   98.9748   14.5611   95.2777 P   0  0  1  0  0  0  0  0  0  0  0  0
   99.2859   12.1912   94.2247 C   0  0  0  0  0  0  0  0  0  0  0  0
   98.9101   13.0008   95.3503 O   0  0  0  0  0  0  0  0  0  0  0  0
   98.8131   10.7997   94.2768 C   0  0  1  0  0  0  0  0  0  0  0  0
   99.0397   10.2543   95.7715 O   0  0  0  0  0  0  0  0  0  0  0  0
   97.5712   10.7589   94.0874 C   0  0  1  0  0  0  0  0  0  0  0  0
   97.2341   10.6647   92.6842 O   0  0  0  0  0  0  0  0  0  0  0  0
   97.1095    9.5753   94.9239 C   0  0  1  0  0  0  0  0  0  0  0  0
   97.2550    8.5016   94.2775 O   0  0  0  0  0  0  0  0  0  0  0  0
   98.0608    9.5616   96.1205 C   0  0  2  0  0  0  0  0  0  0  0  0
   94.1587   11.8102   98.6009 N   0  0  0  0  0  0  0  0  0  0  0  0
   94.3879   11.8117   97.2614 C   0  0  0  0  0  0  0  0  0  0  0  0
   95.4573   11.1586   96.8230 N   0  0  0  0  0  0  0  0  0  0  0  0
   96.3597   10.5519   97.6234 C   0  0  0  0  0  0  0  0  0  0  0  0
   96.1561   10.5289   99.0198 C   0  0  0  0  0  0  0  0  0  0  0  0
   94.9884   11.2173   99.4802 C   0  0  0  0  0  0  0  0  0  0  0  0
   94.7147   11.2657  100.8790 N   0  0  0  0  0  0  0  0  0  0  0  0
   97.1312    9.8563   99.5225 N   0  0  0  0  0  0  0  0  0  0  0  0
   97.9134    9.4402   98.5417 C   0  0  0  0  0  0  0  0  0  0  0  0
   97.4862    9.8584   97.4042 N   0  0  0  0  0  0  0  0  0  0  0  0
  1 24  1  0  0  0  0
  1  4  2  0  0  0  0
  2 13  1  0  0  0  0
  2 21  1  0  0  0  0
  3 16  1  0  0  0  0
  4 18  1  0  0  0  0
  5 19  2  0  0  0  0
  5 16  1  0  0  0  0
  6 16  2  0  0  0  0
  6 17  1  0  0  0  0
  7 17  1  0  0  0  0
 11 25  2  0  0  0  0
 12 26  2  0  0  0  0
 13 25  1  0  0  0  0
 14 23  1  0  0  0  0
 15 26  1  0  0  0  0
 17 18  2  0  0  0  0
 18 19  1  0  0  0  0
 19 24  1  0  0  0  0
 20 10  1  6  0  0  0
 20 22  1  0  0  0  0
 20 23  1  0  0  0  0
 21 14  1  1  0  0  0
 21 22  1  0  0  0  0
 22 15  1  6  0  0  0
 23 24  1  1  0  0  0
 25  8  1  6  0  0  0
 25 32  1  0  0  0  0
 26  9  1  6  0  0  0
 26 28  1  0  0  0  0
 27 28  1  0  0  0  0
 29 27  1  1  0  0  0
 29 30  1  0  0  0  0
 29 31  1  0  0  0  0
 30 35  1  0  0  0  0
 31 33  1  0  0  0  0
 31 32  1  6  0  0  0
 33 34  1  6  0  0  0
 33 35  1  0  0  0  0
 35 45  1  1  0  0  0
 36 41  2  0  0  0  0
 36 37  1  0  0  0  0
 37 38  2  0  0  0  0
 38 39  1  0  0  0  0
 39 40  2  0  0  0  0
 39 45  1  0  0  0  0
 40 41  1  0  0  0  0
 40 43  1  0  0  0  0
 41 42  1  0  0  0  0
 43 44  2  0  0  0  0
 44 45  1  0  0  0  0
M  CHG  4   8  -1   9  -1  11  -1  12  -1
M  END
>  <CHROM.1>
158.14938405,102.25283292,95.88094878,12.65805925,94.88565235,2.35354912
0.08444409,-0.90691974

>  <Name>
ligand

>  <RI>
0

>  <Rbt.Current_Directory>
/home/itssahil/PROJECTS/Mol_Feturizer/New_Systems/rnas/4YAZ

>  <Rbt.Executable>
rbdock ($Id: //depot/dev/client3/rdock/2013.1/src/exe/rbdock.cxx#4 $)

>  <Rbt.Library>
libRbt.so (2013.1, Build901 2013/11/27)

>  <Rbt.Parameter_File>
/export/apps/rDock/src/rDock_2013.1_src/data/scripts/dock_solv.prm

>  <Rbt.Receptor>
prm/pocket_docking_7.prm

>  <SCORE>
-19.7626

>  <SCORE.INTER>
-18.9367

>  <SCORE.INTER.CONST>
1

>  <SCORE.INTER.POLAR>
0

>  <SCORE.INTER.ROT>
2

>  <SCORE.INTER.SOLV>
29.7577

>  <SCORE.INTER.VDW>
-27.477

>  <SCORE.INTER.norm>
-0.420815

>  <SCORE.INTRA>
-0.825867

>  <SCORE.INTRA.DIHEDRAL>
0.132337

>  <SCORE.INTRA.DIHEDRAL.0>
2.39103

>  <SCORE.INTRA.POLAR>
0

>  <SCORE.INTRA.POLAR.0>
0

>  <SCORE.INTRA.REPUL>
0

>  <SCORE.INTRA.REPUL.0>
0

>  <SCORE.INTRA.SOLV>
0.0755406

>  <SCORE.INTRA.SOLV.lig_0>
-163.975

>  <SCORE.INTRA.VDW>
-0.929806

>  <SCORE.INTRA.VDW.0>
-1.49176

>  <SCORE.INTRA.norm>
-0.0183526

>  <SCORE.RESTR>
0

>  <SCORE.RESTR.CAVITY>
0

>  <SCORE.RESTR.norm>
0

>  <SCORE.SYSTEM>
0

>  <SCORE.SYSTEM.CONST>
0

>  <SCORE.SYSTEM.DIHEDRAL>
0

>  <SCORE.SYSTEM.SOLV>
0

>  <SCORE.SYSTEM.norm>
0

>  <SCORE.heavy>
45

>  <SCORE.norm>
-0.439168

>  <RMSD>
5.804

$$$$
ligand
 OpenBabel11021811513D
libRbt.so/2013.1/901 2013/11/27
 45 51  0  0  0  0  0  0  0  0999 V2000
   93.8301   13.8412   94.3180 C   0  0  0  0  0  0  0  0  0  0  0  0
   96.8890   13.2576   91.9309 C   0  0  0  0  0  0  0  0  0  0  0  0
   90.5260   18.3004   95.5831 N   0  0  0  0  0  0  0  0  0  0  0  0
   92.7807   13.4623   94.9724 N   0  0  0  0  0  0  0  0  0  0  0  0
   92.2135   16.8617   94.8490 N   0  0  0  0  0  0  0  0  0  0  0  0
   90.3840   16.0053   96.0047 N   0  0  0  0  0  0  0  0  0  0  0  0
   90.1737   13.6447   96.4014 O   0  0  0  0  0  0  0  0  0  0  0  0
   96.0121   10.5478   90.7203 O   0  5  0  0  0  0  0  0  0  0  0  0
  100.2247   15.0123   95.2388 O   0  5  0  0  0  0  0  0  0  0  0  0
   96.6800   17.0245   94.2260 O   0  0  0  0  0  0  0  0  0  0  0  0
   95.1173   10.1194   92.7126 O   0  5  0  0  0  0  0  0  0  0  0  0
   98.2982   15.2332   96.3504 O   0  5  0  0  0  0  0  0  0  0  0  0
   95.7919   12.4501   92.0882 O   0  0  0  0  0  0  0  0  0  0  0  0
   95.2214   15.1626   92.2150 O   0  0  0  0  0  0  0  0  0  0  0  0
   98.3292   15.0251   93.8097 O   0  0  0  0  0  0  0  0  0  0  0  0
   91.0765   16.9869   95.4822 C   0  0  0  0  0  0  0  0  0  0  0  0
   90.8362   14.7631   95.8990 C   0  0  0  0  0  0  0  0  0  0  0  0
   92.0706   14.5495   95.2448 C   0  0  0  0  0  0  0  0  0  0  0  0
   92.7412   15.6231   94.7126 C   0  0  0  0  0  0  0  0  0  0  0  0
   95.9687   15.8439   94.2159 C   0  0  2  0  0  0  0  0  0  0  0  0
   96.6502   14.6298   92.4185 C   0  0  1  0  0  0  0  0  0  0  0  0
   96.9548   14.7067   93.6263 C   0  0  1  0  0  0  0  0  0  0  0  0
   94.8551   15.8377   93.5070 C   0  0  2  0  0  0  0  0  0  0  0  0
   93.8426   15.1131   94.1601 N   0  0  0  0  0  0  0  0  0  0  0  0
   96.0999   10.9213   92.0719 P   0  0  2  0  0  0  0  0  0  0  0  0
   98.8843   14.6122   95.1878 P   0  0  1  0  0  0  0  0  0  0  0  0
   99.3943   12.2592   94.1750 C   0  0  0  0  0  0  0  0  0  0  0  0
   98.9156   13.0516   95.2736 O   0  0  0  0  0  0  0  0  0  0  0  0
   99.0089   10.8408   94.2198 C   0  0  1  0  0  0  0  0  0  0  0  0
   99.1995   10.3222   95.7289 O   0  0  0  0  0  0  0  0  0  0  0  0
   97.7823   10.7193   93.9736 C   0  0  1  0  0  0  0  0  0  0  0  0
   97.5178   10.5933   92.5574 O   0  0  0  0  0  0  0  0  0  0  0  0
   97.3581    9.5149   94.8002 C   0  0  1  0  0  0  0  0  0  0  0  0
   97.6016    8.4479   94.1724 O   0  0  0  0  0  0  0  0  0  0  0  0
   98.2514    9.5709   96.0395 C   0  0  2  0  0  0  0  0  0  0  0  0
   94.2478   11.8379   98.3345 N   0  0  0  0  0  0  0  0  0  0  0  0
   94.5658   11.8779   97.0138 C   0  0  0  0  0  0  0  0  0  0  0  0
   95.6461   11.2118   96.6244 N   0  0  0  0  0  0  0  0  0  0  0  0
   96.4782   10.5552   97.4608 C   0  0  0  0  0  0  0  0  0  0  0  0
   96.1813   10.4912   98.8391 C   0  0  0  0  0  0  0  0  0  0  0  0
   95.0025   11.1944   99.2453 C   0  0  0  0  0  0  0  0  0  0  0  0
   94.6372   11.2035  100.6238 N   0  0  0  0  0  0  0  0  0  0  0  0
   97.1042    9.7768   99.3811 N   0  0  0  0  0  0  0  0  0  0  0  0
   97.9399    9.3730   98.4400 C   0  0  0  0  0  0  0  0  0  0  0  0
   97.5998    9.8399   97.2921 N   0  0  0  0  0  0  0  0  0  0  0  0
  1 24  1  0  0  0  0
  1  4  2  0  0  0  0
  2 13  1  0  0  0  0
  2 21  1  0  0  0  0
  3 16  1  0  0  0  0
  4 18  1  0  0  0  0
  5 19  2  0  0  0  0
  5 16  1  0  0  0  0
  6 16  2  0  0  0  0
  6 17  1  0  0  0  0
  7 17  1  0  0  0  0
 11 25  2  0  0  0  0
 12 26  2  0  0  0  0
 13 25  1  0  0  0  0
 14 23  1  0  0  0  0
 15 26  1  0  0  0  0
 17 18  2  0  0  0  0
 18 19  1  0  0  0  0
 19 24  1  0  0  0  0
 20 10  1  6  0  0  0
 20 22  1  0  0  0  0
 20 23  1  0  0  0  0
 21 14  1  1  0  0  0
 21 22  1  0  0  0  0
 22 15  1  6  0  0  0
 23 24  1  1  0  0  0
 25  8  1  6  0  0  0
 25 32  1  0  0  0  0
 26  9  1  6  0  0  0
 26 28  1  0  0  0  0
 27 28  1  0  0  0  0
 29 27  1  1  0  0  0
 29 30  1  0  0  0  0
 29 31  1  0  0  0  0
 30 35  1  0  0  0  0
 31 33  1  0  0  0  0
 31 32  1  6  0  0  0
 33 34  1  6  0  0  0
 33 35  1  0  0  0  0
 35 45  1  1  0  0  0
 36 41  2  0  0  0  0
 36 37  1  0  0  0  0
 37 38  2  0  0  0  0
 38 39  1  0  0  0  0
 39 40  2  0  0  0  0
 39 45  1  0  0  0  0
 40 41  1  0  0  0  0
 40 43  1  0  0  0  0
 41 42  1  0  0  0  0
 43 44  2  0  0  0  0
 44 45  1  0  0  0  0
M  CHG  4   8  -1   9  -1  11  -1  12  -1
M  END
>  <CHROM.1>
45.83641378,96.47273339,95.87747959,12.92779644,95.00062683,-2.66263196,-0.57930581
2.29278094

>  <Name>
ligand

>  <RI>
0

>  <Rbt.Current_Directory>
/home/itssahil/PROJECTS/Mol_Feturizer/New_Systems/rnas/4YAZ

>  <Rbt.Executable>
rbdock ($Id: //depot/dev/client3/rdock/2013.1/src/exe/rbdock.cxx#4 $)

>  <Rbt.Library>
libRbt.so (2013.1, Build901 2013/11/27)

>  <Rbt.Parameter_File>
/export/apps/rDock/src/rDock_2013.1_src/data/scripts/dock_solv.prm

>  <Rbt.Receptor>
prm/pocket_docking_5.prm

>  <SCORE>
-21.2088

>  <SCORE.INTER>
-19.7315

>  <SCORE.INTER.CONST>
1

>  <SCORE.INTER.POLAR>
0

>  <SCORE.INTER.ROT>
2

>  <SCORE.INTER.SOLV>
30.7604

>  <SCORE.INTER.VDW>
-28.3412

>  <SCORE.INTER.norm>
-0.438478

>  <SCORE.INTRA>
-1.47723

>  <SCORE.INTRA.DIHEDRAL>
0.146061

>  <SCORE.INTRA.DIHEDRAL.0>
2.39103

>  <SCORE.INTRA.POLAR>
0

>  <SCORE.INTRA.POLAR.0>
0

>  <SCORE.INTRA.REPUL>
0

>  <SCORE.INTRA.REPUL.0>
0

>  <SCORE.INTRA.SOLV>
-0.0288667

>  <SCORE.INTRA.SOLV.lig_0>
-163.975

>  <SCORE.INTRA.VDW>
-1.53583

>  <SCORE.INTRA.VDW.0>
-1.49176

>  <SCORE.INTRA.norm>
-0.0328274

>  <SCORE.RESTR>
0

>  <SCORE.RESTR.CAVITY>
0

>  <SCORE.RESTR.norm>
0

>  <SCORE.SYSTEM>
0

>  <SCORE.SYSTEM.CONST>
0

>  <SCORE.SYSTEM.DIHEDRAL>
0

>  <SCORE.SYSTEM.SOLV>
0

>  <SCORE.SYSTEM.norm>
0

>  <SCORE.heavy>
45

>  <SCORE.norm>
-0.471306

>  <RMSD>
5.806

$$$$
ligand
 OpenBabel11021811523D
libRbt.so/2013.1/901 2013/11/27
 45 51  0  0  0  0  0  0  0  0999 V2000
   96.8882   12.9053   91.4291 C   0  0  0  0  0  0  0  0  0  0  0  0
   92.8686   12.1569   93.2396 C   0  0  0  0  0  0  0  0  0  0  0  0
   99.2624    7.8858   92.6826 N   0  0  0  0  0  0  0  0  0  0  0  0
   98.0476   13.0716   91.9781 N   0  0  0  0  0  0  0  0  0  0  0  0
   97.8632    9.6280   92.0019 N   0  0  0  0  0  0  0  0  0  0  0  0
   99.9273   10.1095   92.9627 N   0  0  0  0  0  0  0  0  0  0  0  0
  100.6706   12.3814   93.2090 O   0  0  0  0  0  0  0  0  0  0  0  0
   92.7292   14.7247   94.9614 O   0  5  0  0  0  0  0  0  0  0  0  0
   92.6434    7.1846   93.8504 O   0  5  0  0  0  0  0  0  0  0  0  0
   94.5261    9.0400   90.5865 O   0  0  0  0  0  0  0  0  0  0  0  0
   94.7455   14.1513   95.7090 O   0  5  0  0  0  0  0  0  0  0  0  0
   94.8088    7.5060   93.3985 O   0  5  0  0  0  0  0  0  0  0  0  0
   93.7922   13.0823   93.6534 O   0  0  0  0  0  0  0  0  0  0  0  0
   94.2571   12.0892   91.1045 O   0  0  0  0  0  0  0  0  0  0  0  0
   93.0628    9.2489   92.7559 O   0  0  0  0  0  0  0  0  0  0  0  0
   98.9982    9.2828   92.5512 C   0  0  0  0  0  0  0  0  0  0  0  0
   99.7431   11.4154   92.8229 C   0  0  0  0  0  0  0  0  0  0  0  0
   98.5304   11.8671   92.2552 C   0  0  0  0  0  0  0  0  0  0  0  0
   97.6020   10.9456   91.8375 C   0  0  0  0  0  0  0  0  0  0  0  0
   95.0584   10.0165   91.4009 C   0  0  2  0  0  0  0  0  0  0  0  0
   93.3550   11.3472   92.1057 C   0  0  1  0  0  0  0  0  0  0  0  0
   93.9511   10.3379   92.5339 C   0  0  1  0  0  0  0  0  0  0  0  0
   95.3937   11.1499   90.8130 C   0  0  2  0  0  0  0  0  0  0  0  0
   96.5908   11.6615   91.3441 N   0  0  0  0  0  0  0  0  0  0  0  0
   93.5776   13.6139   95.1038 P   0  0  2  0  0  0  0  0  0  0  0  0
   93.5980    8.2040   93.7556 P   0  0  1  0  0  0  0  0  0  0  0  0
   92.5703    9.6483   95.6740 C   0  0  0  0  0  0  0  0  0  0  0  0
   93.6563    8.8488   95.1786 O   0  0  0  0  0  0  0  0  0  0  0  0
   92.9042   10.5036   96.8226 C   0  0  1  0  0  0  0  0  0  0  0  0
   93.7974    9.6395   97.8417 O   0  0  0  0  0  0  0  0  0  0  0  0
   93.6385   11.4544   96.4532 C   0  0  1  0  0  0  0  0  0  0  0  0
   92.8721   12.5991   96.0128 O   0  0  0  0  0  0  0  0  0  0  0  0
   94.5290   11.7217   97.6571 C   0  0  1  0  0  0  0  0  0  0  0  0
   93.9395   12.4798   98.4754 O   0  0  0  0  0  0  0  0  0  0  0  0
   94.7150   10.3493   98.3043 C   0  0  2  0  0  0  0  0  0  0  0  0
   97.8302    6.9616   96.0123 N   0  0  0  0  0  0  0  0  0  0  0  0
   96.5054    7.1485   95.7736 C   0  0  0  0  0  0  0  0  0  0  0  0
   95.8843    8.0889   96.4753 N   0  0  0  0  0  0  0  0  0  0  0  0
   96.4663    8.8215   97.4487 C   0  0  0  0  0  0  0  0  0  0  0  0
   97.8403    8.6561   97.7255 C   0  0  0  0  0  0  0  0  0  0  0  0
   98.5057    7.6550   96.9482 C   0  0  0  0  0  0  0  0  0  0  0  0
   99.8908    7.4030   97.1760 N   0  0  0  0  0  0  0  0  0  0  0  0
   98.1328    9.4996   98.6523 N   0  0  0  0  0  0  0  0  0  0  0  0
   97.0492   10.1926   98.9565 C   0  0  0  0  0  0  0  0  0  0  0  0
   96.0401    9.7937   98.2680 N   0  0  0  0  0  0  0  0  0  0  0  0
  1 24  1  0  0  0  0
  1  4  2  0  0  0  0
  2 13  1  0  0  0  0
  2 21  1  0  0  0  0
  3 16  1  0  0  0  0
  4 18  1  0  0  0  0
  5 19  2  0  0  0  0
  5 16  1  0  0  0  0
  6 16  2  0  0  0  0
  6 17  1  0  0  0  0
  7 17  1  0  0  0  0
 11 25  2  0  0  0  0
 12 26  2  0  0  0  0
 13 25  1  0  0  0  0
 14 23  1  0  0  0  0
 15 26  1  0  0  0  0
 17 18  2  0  0  0  0
 18 19  1  0  0  0  0
 19 24  1  0  0  0  0
 20 10  1  6  0  0  0
 20 22  1  0  0  0  0
 20 23  1  0  0  0  0
 21 14  1  1  0  0  0
 21 22  1  0  0  0  0
 22 15  1  6  0  0  0
 23 24  1  1  0  0  0
 25  8  1  6  0  0  0
 25 32  1  0  0  0  0
 26  9  1  1  0  0  0
 26 28  1  0  0  0  0
 27 28  1  0  0  0  0
 29 27  1  6  0  0  0
 29 30  1  0  0  0  0
 29 31  1  0  0  0  0
 30 35  1  0  0  0  0
 31 33  1  0  0  0  0
 31 32  1  1  0  0  0
 33 34  1  1  0  0  0
 33 35  1  0  0  0  0
 35 45  1  6  0  0  0
 36 41  2  0  0  0  0
 36 37  1  0  0  0  0
 37 38  2  0  0  0  0
 38 39  1  0  0  0  0
 39 40  2  0  0  0  0
 39 45  1  0  0  0  0
 40 41  1  0  0  0  0
 40 43  1  0  0  0  0
 41 42  1  0  0  0  0
 43 44  2  0  0  0  0
 44 45  1  0  0  0  0
M  CHG  4   8  -1   9  -1  11  -1  12  -1
M  END
>  <CHROM.1>
-33.36443264,22.24480616,95.54828371,10.42710816,94.55463766,0.44545977,0.49508662
-1.20718728

>  <Name>
ligand

>  <RI>
0

>  <Rbt.Current_Directory>
/home/itssahil/PROJECTS/Mol_Feturizer/New_Systems/rnas/4YAZ

>  <Rbt.Executable>
rbdock ($Id: //depot/dev/client3/rdock/2013.1/src/exe/rbdock.cxx#4 $)

>  <Rbt.Library>
libRbt.so (2013.1, Build901 2013/11/27)

>  <Rbt.Parameter_File>
/export/apps/rDock/src/rDock_2013.1_src/data/scripts/dock_solv.prm

>  <Rbt.Receptor>
prm/pocket_docking_8.prm

>  <SCORE>
-15.5489

>  <SCORE.INTER>
-15.3036

>  <SCORE.INTER.CONST>
1

>  <SCORE.INTER.POLAR>
0

>  <SCORE.INTER.ROT>
2

>  <SCORE.INTER.SOLV>
12.6029

>  <SCORE.INTER.VDW>
-19.3367

>  <SCORE.INTER.norm>
-0.340079

>  <SCORE.INTRA>
-0.245348

>  <SCORE.INTRA.DIHEDRAL>
-0.11484

>  <SCORE.INTRA.DIHEDRAL.0>
2.39103

>  <SCORE.INTRA.POLAR>
0

>  <SCORE.INTRA.POLAR.0>
0

>  <SCORE.INTRA.REPUL>
0

>  <SCORE.INTRA.REPUL.0>
0

>  <SCORE.INTRA.SOLV>
1.77567

>  <SCORE.INTRA.SOLV.lig_0>
-163.975

>  <SCORE.INTRA.VDW>
-1.07576

>  <SCORE.INTRA.VDW.0>
-1.49176

>  <SCORE.INTRA.norm>
-0.00545218

>  <SCORE.RESTR>
0

>  <SCORE.RESTR.CAVITY>
0

>  <SCORE.RESTR.norm>
0

>  <SCORE.SYSTEM>
0

>  <SCORE.SYSTEM.CONST>
0

>  <SCORE.SYSTEM.DIHEDRAL>
0

>  <SCORE.SYSTEM.SOLV>
0

>  <SCORE.SYSTEM.norm>
0

>  <SCORE.heavy>
45

>  <SCORE.norm>
-0.345531

>  <RMSD>
5.827

$$$$
ligand
 OpenBabel11021811513D
libRbt.so/2013.1/901 2013/11/27
 45 51  0  0  0  0  0  0  0  0999 V2000
   93.7015   15.4355   95.7066 C   0  0  0  0  0  0  0  0  0  0  0  0
   96.7040   13.3364   92.0489 C   0  0  0  0  0  0  0  0  0  0  0  0
   91.4195   12.7695   91.2246 N   0  0  0  0  0  0  0  0  0  0  0  0
   92.6808   14.7270   96.0663 N   0  0  0  0  0  0  0  0  0  0  0  0
   92.6955   14.0780   92.6793 N   0  0  0  0  0  0  0  0  0  0  0  0
   90.8956   12.8531   93.5015 N   0  0  0  0  0  0  0  0  0  0  0  0
   90.3660   12.8657   95.8454 O   0  0  0  0  0  0  0  0  0  0  0  0
   95.6043   10.6895   90.8817 O   0  5  0  0  0  0  0  0  0  0  0  0
  100.3100   14.8735   95.1765 O   0  5  0  0  0  0  0  0  0  0  0  0
   96.8418   17.0971   94.3596 O   0  0  0  0  0  0  0  0  0  0  0  0
   94.7935   10.3044   92.9183 O   0  5  0  0  0  0  0  0  0  0  0  0
   98.4621   15.2021   96.3904 O   0  5  0  0  0  0  0  0  0  0  0  0
   95.5709   12.5943   92.2633 O   0  0  0  0  0  0  0  0  0  0  0  0
   95.1699   15.3351   92.4261 O   0  0  0  0  0  0  0  0  0  0  0  0
   98.3449   15.0058   93.8513 O   0  0  0  0  0  0  0  0  0  0  0  0
   91.6783   13.2690   92.5369 C   0  0  0  0  0  0  0  0  0  0  0  0
   91.1235   13.2585   94.7435 C   0  0  0  0  0  0  0  0  0  0  0  0
   92.1944   14.1513   94.9742 C   0  0  0  0  0  0  0  0  0  0  0  0
   92.9810   14.5411   93.9184 C   0  0  0  0  0  0  0  0  0  0  0  0
   96.0622   15.9606   94.3853 C   0  0  2  0  0  0  0  0  0  0  0  0
   96.5734   14.7177   92.5515 C   0  0  1  0  0  0  0  0  0  0  0  0
   96.9461   14.7702   93.7413 C   0  0  1  0  0  0  0  0  0  0  0  0
   94.9139   16.0240   93.7372 C   0  0  2  0  0  0  0  0  0  0  0  0
   93.8965   15.3571   94.4422 N   0  0  0  0  0  0  0  0  0  0  0  0
   95.7863   11.0501   92.2274 P   0  0  2  0  0  0  0  0  0  0  0  0
   98.9474   14.5536   95.1968 P   0  0  1  0  0  0  0  0  0  0  0  0
   99.2619   12.1799   94.1533 C   0  0  0  0  0  0  0  0  0  0  0  0
   98.8906   12.9934   95.2777 O   0  0  0  0  0  0  0  0  0  0  0  0
   98.7960   10.7866   94.2158 C   0  0  1  0  0  0  0  0  0  0  0  0
   99.0360   10.2497   95.7115 O   0  0  0  0  0  0  0  0  0  0  0  0
   97.5531   10.7391   94.0356 C   0  0  1  0  0  0  0  0  0  0  0  0
   97.2062   10.6363   92.6353 O   0  0  0  0  0  0  0  0  0  0  0  0
   97.1029    9.5575   94.8813 C   0  0  1  0  0  0  0  0  0  0  0  0
   97.2487    8.4814   94.2392 O   0  0  0  0  0  0  0  0  0  0  0  0
   98.0629    9.5543   96.0711 C   0  0  2  0  0  0  0  0  0  0  0  0
   94.1896   11.8320   98.5696 N   0  0  0  0  0  0  0  0  0  0  0  0
   94.4129   11.8326   97.2291 C   0  0  0  0  0  0  0  0  0  0  0  0
   95.4753   11.1714   96.7858 N   0  0  0  0  0  0  0  0  0  0  0  0
   96.3763   10.5570   97.5819 C   0  0  0  0  0  0  0  0  0  0  0  0
   96.1785   10.5348   98.9791 C   0  0  0  0  0  0  0  0  0  0  0  0
   95.0184   11.2321   99.4450 C   0  0  0  0  0  0  0  0  0  0  0  0
   94.7511   11.2818  100.8450 N   0  0  0  0  0  0  0  0  0  0  0  0
   97.1504    9.8542   99.4772 N   0  0  0  0  0  0  0  0  0  0  0  0
   97.9251    9.4325   98.4928 C   0  0  0  0  0  0  0  0  0  0  0  0
   97.4963    9.8548   97.3574 N   0  0  0  0  0  0  0  0  0  0  0  0
  1 24  1  0  0  0  0
  1  4  2  0  0  0  0
  2 13  1  0  0  0  0
  2 21  1  0  0  0  0
  3 16  1  0  0  0  0
  4 18  1  0  0  0  0
  5 19  2  0  0  0  0
  5 16  1  0  0  0  0
  6 16  2  0  0  0  0
  6 17  1  0  0  0  0
  7 17  1  0  0  0  0
 11 25  2  0  0  0  0
 12 26  2  0  0  0  0
 13 25  1  0  0  0  0
 14 23  1  0  0  0  0
 15 26  1  0  0  0  0
 17 18  2  0  0  0  0
 18 19  1  0  0  0  0
 19 24  1  0  0  0  0
 20 10  1  6  0  0  0
 20 22  1  0  0  0  0
 20 23  1  0  0  0  0
 21 14  1  1  0  0  0
 21 22  1  0  0  0  0
 22 15  1  6  0  0  0
 23 24  1  1  0  0  0
 25  8  1  6  0  0  0
 25 32  1  0  0  0  0
 26  9  1  6  0  0  0
 26 28  1  0  0  0  0
 27 28  1  0  0  0  0
 29 27  1  1  0  0  0
 29 30  1  0  0  0  0
 29 31  1  0  0  0  0
 30 35  1  0  0  0  0
 31 33  1  0  0  0  0
 31 32  1  6  0  0  0
 33 34  1  6  0  0  0
 33 35  1  0  0  0  0
 35 45  1  1  0  0  0
 36 41  2  0  0  0  0
 36 37  1  0  0  0  0
 37 38  2  0  0  0  0
 38 39  1  0  0  0  0
 39 40  2  0  0  0  0
 39 45  1  0  0  0  0
 40 41  1  0  0  0  0
 40 43  1  0  0  0  0
 41 42  1  0  0  0  0
 43 44  2  0  0  0  0
 44 45  1  0  0  0  0
M  CHG  4   8  -1   9  -1  11  -1  12  -1
M  END
>  <CHROM.1>
158.97425259,101.44774405,95.86405191,12.63359406,94.83738001,2.36043714
0.08487586,-0.91494813

>  <Name>
ligand

>  <RI>
0

>  <Rbt.Current_Directory>
/home/itssahil/PROJECTS/Mol_Feturizer/New_Systems/rnas/4YAZ

>  <Rbt.Executable>
rbdock ($Id: //depot/dev/client3/rdock/2013.1/src/exe/rbdock.cxx#4 $)

>  <Rbt.Library>
libRbt.so (2013.1, Build901 2013/11/27)

>  <Rbt.Parameter_File>
/export/apps/rDock/src/rDock_2013.1_src/data/scripts/dock_solv.prm

>  <Rbt.Receptor>
prm/pocket_docking_6.prm

>  <SCORE>
-19.6572

>  <SCORE.INTER>
-18.779

>  <SCORE.INTER.CONST>
1

>  <SCORE.INTER.POLAR>
0

>  <SCORE.INTER.ROT>
2

>  <SCORE.INTER.SOLV>
29.3945

>  <SCORE.INTER.VDW>
-27.2508

>  <SCORE.INTER.norm>
-0.417311

>  <SCORE.INTRA>
-0.87819

>  <SCORE.INTRA.DIHEDRAL>
0.135013

>  <SCORE.INTRA.DIHEDRAL.0>
2.39103

>  <SCORE.INTRA.POLAR>
0

>  <SCORE.INTRA.POLAR.0>
0

>  <SCORE.INTRA.REPUL>
0

>  <SCORE.INTRA.REPUL.0>
0

>  <SCORE.INTRA.SOLV>
0.107104

>  <SCORE.INTRA.SOLV.lig_0>
-163.975

>  <SCORE.INTRA.VDW>
-0.999248

>  <SCORE.INTRA.VDW.0>
-1.49176

>  <SCORE.INTRA.norm>
-0.0195153

>  <SCORE.RESTR>
0

>  <SCORE.RESTR.CAVITY>
0

>  <SCORE.RESTR.norm>
0

>  <SCORE.SYSTEM>
0

>  <SCORE.SYSTEM.CONST>
0

>  <SCORE.SYSTEM.DIHEDRAL>
0

>  <SCORE.SYSTEM.SOLV>
0

>  <SCORE.SYSTEM.norm>
0

>  <SCORE.heavy>
45

>  <SCORE.norm>
-0.436827

>  <RMSD>
5.829

$$$$
ligand
 OpenBabel11021811513D
libRbt.so/2013.1/901 2013/11/27
 45 51  0  0  0  0  0  0  0  0999 V2000
   93.8410   13.7846   94.2199 C   0  0  0  0  0  0  0  0  0  0  0  0
   96.9622   13.2305   91.9170 C   0  0  0  0  0  0  0  0  0  0  0  0
   90.5565   18.2297   95.5823 N   0  0  0  0  0  0  0  0  0  0  0  0
   92.7920   13.3966   94.8696 N   0  0  0  0  0  0  0  0  0  0  0  0
   92.2367   16.7998   94.8152 N   0  0  0  0  0  0  0  0  0  0  0  0
   90.4073   15.9272   95.9587 N   0  0  0  0  0  0  0  0  0  0  0  0
   90.1895   13.5599   96.3091 O   0  0  0  0  0  0  0  0  0  0  0  0
   96.1391   10.5028   90.7089 O   0  5  0  0  0  0  0  0  0  0  0  0
  100.2228   15.0467   95.2664 O   0  5  0  0  0  0  0  0  0  0  0  0
   96.6691   17.0074   94.1863 O   0  0  0  0  0  0  0  0  0  0  0  0
   95.2185   10.0743   92.6893 O   0  5  0  0  0  0  0  0  0  0  0  0
   98.2763   15.2492   96.3464 O   0  5  0  0  0  0  0  0  0  0  0  0
   95.8732   12.4099   92.0619 O   0  0  0  0  0  0  0  0  0  0  0  0
   95.2662   15.1155   92.1638 O   0  0  0  0  0  0  0  0  0  0  0  0
   98.3500   15.0270   93.8077 O   0  0  0  0  0  0  0  0  0  0  0  0
   91.1019   16.9164   95.4539 C   0  0  0  0  0  0  0  0  0  0  0  0
   90.8548   14.6857   95.8272 C   0  0  0  0  0  0  0  0  0  0  0  0
   92.0865   14.4808   95.1655 C   0  0  0  0  0  0  0  0  0  0  0  0
   92.7596   15.5623   94.6528 C   0  0  0  0  0  0  0  0  0  0  0  0
   95.9732   15.8178   94.1721 C   0  0  2  0  0  0  0  0  0  0  0  0
   96.6983   14.6023   92.3928 C   0  0  1  0  0  0  0  0  0  0  0  0
   96.9828   14.6900   93.6047 C   0  0  1  0  0  0  0  0  0  0  0  0
   94.8710   15.7933   93.4459 C   0  0  2  0  0  0  0  0  0  0  0  0
   93.8577   15.0594   94.0872 N   0  0  0  0  0  0  0  0  0  0  0  0
   96.2008   10.8851   92.0594 P   0  0  2  0  0  0  0  0  0  0  0  0
   98.8886   14.6291   95.1968 P   0  0  1  0  0  0  0  0  0  0  0  0
   99.4443   12.2772   94.2060 C   0  0  0  0  0  0  0  0  0  0  0  0
   98.9384   13.0695   95.2923 O   0  0  0  0  0  0  0  0  0  0  0  0
   99.0764   10.8542   94.2531 C   0  0  1  0  0  0  0  0  0  0  0  0
   99.2498   10.3466   95.7681 O   0  0  0  0  0  0  0  0  0  0  0  0
   97.8555   10.7156   93.9884 C   0  0  1  0  0  0  0  0  0  0  0  0
   97.6150   10.5781   92.5690 O   0  0  0  0  0  0  0  0  0  0  0  0
   97.4337    9.5105   94.8154 C   0  0  1  0  0  0  0  0  0  0  0  0
   97.7006    8.4432   94.1978 O   0  0  0  0  0  0  0  0  0  0  0  0
   98.3065    9.5851   96.0682 C   0  0  2  0  0  0  0  0  0  0  0  0
   94.2307   11.8002   98.2851 N   0  0  0  0  0  0  0  0  0  0  0  0
   94.5674   11.8350   96.9690 C   0  0  0  0  0  0  0  0  0  0  0  0
   95.6648   11.1848   96.6010 N   0  0  0  0  0  0  0  0  0  0  0  0
   96.4957   10.5497   97.4550 C   0  0  0  0  0  0  0  0  0  0  0  0
   96.1796   10.4917   98.8293 C   0  0  0  0  0  0  0  0  0  0  0  0
   94.9829   11.1775   99.2122 C   0  0  0  0  0  0  0  0  0  0  0  0
   94.5971   11.1914  100.5852 N   0  0  0  0  0  0  0  0  0  0  0  0
   97.1066    9.7980   99.3907 N   0  0  0  0  0  0  0  0  0  0  0  0
   97.9630    9.4012   98.4655 C   0  0  0  0  0  0  0  0  0  0  0  0
   97.6319    9.8528   97.3088 N   0  0  0  0  0  0  0  0  0  0  0  0
  1 24  1  0  0  0  0
  1  4  2  0  0  0  0
  2 13  1  0  0  0  0
  2 21  1  0  0  0  0
  3 16  1  0  0  0  0
  4 18  1  0  0  0  0
  5 19  2  0  0  0  0
  5 16  1  0  0  0  0
  6 16  2  0  0  0  0
  6 17  1  0  0  0  0
  7 17  1  0  0  0  0
 11 25  2  0  0  0  0
 12 26  2  0  0  0  0
 13 25  1  0  0  0  0
 14 23  1  0  0  0  0
 15 26  1  0  0  0  0
 17 18  2  0  0  0  0
 18 19  1  0  0  0  0
 19 24  1  0  0  0  0
 20 10  1  6  0  0  0
 20 22  1  0  0  0  0
 20 23  1  0  0  0  0
 21 14  1  1  0  0  0
 21 22  1  0  0  0  0
 22 15  1  6  0  0  0
 23 24  1  1  0  0  0
 25  8  1  6  0  0  0
 25 32  1  0  0  0  0
 26  9  1  1  0  0  0
 26 28  1  0  0  0  0
 27 28  1  0  0  0  0
 29 27  1  1  0  0  0
 29 30  1  0  0  0  0
 29 31  1  0  0  0  0
 30 35  1  0  0  0  0
 31 33  1  0  0  0  0
 31 32  1  6  0  0  0
 33 34  1  6  0  0  0
 33 35  1  0  0  0  0
 35 45  1  1  0  0  0
 36 41  2  0  0  0  0
 36 37  1  0  0  0  0
 37 38  2  0  0  0  0
 38 39  1  0  0  0  0
 39 40  2  0  0  0  0
 39 45  1  0  0  0  0
 40 41  1  0  0  0  0
 40 43  1  0  0  0  0
 41 42  1  0  0  0  0
 43 44  2  0  0  0  0
 44 45  1  0  0  0  0
M  CHG  4   8  -1   9  -1  11  -1  12  -1
M  END
>  <CHROM.1>
43.79767521,96.78100770,95.91144587,12.90528430,94.98198627,-2.66523093,-0.56864985
2.29173563

>  <Name>
ligand

>  <RI>
0

>  <Rbt.Current_Directory>
/home/itssahil/PROJECTS/Mol_Feturizer/New_Systems/rnas/4YAZ

>  <Rbt.Executable>
rbdock ($Id: //depot/dev/client3/rdock/2013.1/src/exe/rbdock.cxx#4 $)

>  <Rbt.Library>
libRbt.so (2013.1, Build901 2013/11/27)

>  <Rbt.Parameter_File>
/export/apps/rDock/src/rDock_2013.1_src/data/scripts/dock_solv.prm

>  <Rbt.Receptor>
prm/pocket_docking_7.prm

>  <SCORE>
-21.231

>  <SCORE.INTER>
-19.7609

>  <SCORE.INTER.CONST>
1

>  <SCORE.INTER.POLAR>
0

>  <SCORE.INTER.ROT>
2

>  <SCORE.INTER.SOLV>
31.1311

>  <SCORE.INTER.VDW>
-28.4843

>  <SCORE.INTER.norm>
-0.439131

>  <SCORE.INTRA>
-1.47005

>  <SCORE.INTRA.DIHEDRAL>
0.145968

>  <SCORE.INTRA.DIHEDRAL.0>
2.39103

>  <SCORE.INTRA.POLAR>
0

>  <SCORE.INTRA.POLAR.0>
0

>  <SCORE.INTRA.REPUL>
0

>  <SCORE.INTRA.REPUL.0>
0

>  <SCORE.INTRA.SOLV>
-0.0261826

>  <SCORE.INTRA.SOLV.lig_0>
-163.975

>  <SCORE.INTRA.VDW>
-1.52994

>  <SCORE.INTRA.VDW.0>
-1.49176

>  <SCORE.INTRA.norm>
-0.0326678

>  <SCORE.RESTR>
0

>  <SCORE.RESTR.CAVITY>
0

>  <SCORE.RESTR.norm>
0

>  <SCORE.SYSTEM>
0

>  <SCORE.SYSTEM.CONST>
0

>  <SCORE.SYSTEM.DIHEDRAL>
0

>  <SCORE.SYSTEM.SOLV>
0

>  <SCORE.SYSTEM.norm>
0

>  <SCORE.heavy>
45

>  <SCORE.norm>
-0.471799

>  <RMSD>
5.832

$$$$
ligand
 OpenBabel11021811513D
libRbt.so/2013.1/901 2013/11/27
 45 51  0  0  0  0  0  0  0  0999 V2000
   96.9113   13.1950   91.2696 C   0  0  0  0  0  0  0  0  0  0  0  0
   92.7670   13.0728   92.9426 C   0  0  0  0  0  0  0  0  0  0  0  0
   98.4316    7.8570   92.5338 N   0  0  0  0  0  0  0  0  0  0  0  0
   98.0638   13.1740   91.8566 N   0  0  0  0  0  0  0  0  0  0  0  0
   97.3442    9.8014   91.8315 N   0  0  0  0  0  0  0  0  0  0  0  0
   99.4255    9.9474   92.8622 N   0  0  0  0  0  0  0  0  0  0  0  0
  100.5053   12.0734   93.1601 O   0  0  0  0  0  0  0  0  0  0  0  0
   92.9737   15.6191   94.6893 O   0  5  0  0  0  0  0  0  0  0  0  0
   91.7478    8.1930   93.4874 O   0  5  0  0  0  0  0  0  0  0  0  0
   94.0038    9.7527   90.3066 O   0  0  0  0  0  0  0  0  0  0  0  0
   94.8499   14.7322   95.4934 O   0  5  0  0  0  0  0  0  0  0  0  0
   93.9504    8.1745   93.1079 O   0  5  0  0  0  0  0  0  0  0  0  0
   93.8096   13.8393   93.3963 O   0  0  0  0  0  0  0  0  0  0  0  0
   94.1975   12.8029   90.8518 O   0  0  0  0  0  0  0  0  0  0  0  0
   92.5203   10.1735   92.4310 O   0  0  0  0  0  0  0  0  0  0  0  0
   98.3929    9.2791   92.4116 C   0  0  0  0  0  0  0  0  0  0  0  0
   99.4518   11.2670   92.7331 C   0  0  0  0  0  0  0  0  0  0  0  0
   98.3436   11.9069   92.1336 C   0  0  0  0  0  0  0  0  0  0  0  0
   97.2972   11.1448   91.6755 C   0  0  0  0  0  0  0  0  0  0  0  0
   94.6550   10.6283   91.1488 C   0  0  2  0  0  0  0  0  0  0  0  0
   93.1581   12.2045   91.8152 C   0  0  1  0  0  0  0  0  0  0  0  0
   93.5747   11.1115   92.2501 C   0  0  1  0  0  0  0  0  0  0  0  0
   95.1825   11.6992   90.5852 C   0  0  2  0  0  0  0  0  0  0  0  0
   96.4266   12.0135   91.1598 N   0  0  0  0  0  0  0  0  0  0  0  0
   93.6330   14.3882   94.8453 P   0  0  2  0  0  0  0  0  0  0  0  0
   92.8525    9.0511   93.4348 P   0  0  1  0  0  0  0  0  0  0  0  0
   92.0003   10.6255   95.3367 C   0  0  0  0  0  0  0  0  0  0  0  0
   92.9638    9.6693   94.8664 O   0  0  0  0  0  0  0  0  0  0  0  0
   92.4256   11.4102   96.5053 C   0  0  1  0  0  0  0  0  0  0  0  0
   93.1387   10.4102   97.5418 O   0  0  0  0  0  0  0  0  0  0  0  0
   93.3112   12.2369   96.1704 C   0  0  1  0  0  0  0  0  0  0  0  0
   92.7480   13.4903   95.7196 O   0  0  0  0  0  0  0  0  0  0  0  0
   94.1924   12.3534   97.4049 C   0  0  1  0  0  0  0  0  0  0  0  0
   93.7018   13.1889   98.2131 O   0  0  0  0  0  0  0  0  0  0  0  0
   94.1402   10.9645   98.0414 C   0  0  2  0  0  0  0  0  0  0  0  0
   96.4894    6.7050   96.3764 N   0  0  0  0  0  0  0  0  0  0  0  0
   95.1865    7.0463   96.1954 C   0  0  0  0  0  0  0  0  0  0  0  0
   94.7810    8.2037   96.7039 N   0  0  0  0  0  0  0  0  0  0  0  0
   95.5593    9.0265   97.4389 C   0  0  0  0  0  0  0  0  0  0  0  0
   96.9178    8.7063   97.6485 C   0  0  0  0  0  0  0  0  0  0  0  0
   97.3503    7.4669   97.0775 C   0  0  0  0  0  0  0  0  0  0  0  0
   98.7024    7.0508   97.2587 N   0  0  0  0  0  0  0  0  0  0  0  0
   97.4218    9.6722   98.3332 N   0  0  0  0  0  0  0  0  0  0  0  0
   96.4846   10.5797   98.5455 C   0  0  0  0  0  0  0  0  0  0  0  0
   95.3627   10.2086   98.0404 N   0  0  0  0  0  0  0  0  0  0  0  0
  1 24  1  0  0  0  0
  1  4  2  0  0  0  0
  2 13  1  0  0  0  0
  2 21  1  0  0  0  0
  3 16  1  0  0  0  0
  4 18  1  0  0  0  0
  5 19  2  0  0  0  0
  5 16  1  0  0  0  0
  6 16  2  0  0  0  0
  6 17  1  0  0  0  0
  7 17  1  0  0  0  0
 11 25  2  0  0  0  0
 12 26  2  0  0  0  0
 13 25  1  0  0  0  0
 14 23  1  0  0  0  0
 15 26  1  0  0  0  0
 17 18  2  0  0  0  0
 18 19  1  0  0  0  0
 19 24  1  0  0  0  0
 20 10  1  6  0  0  0
 20 22  1  0  0  0  0
 20 23  1  0  0  0  0
 21 14  1  1  0  0  0
 21 22  1  0  0  0  0
 22 15  1  6  0  0  0
 23 24  1  1  0  0  0
 25  8  1  6  0  0  0
 25 32  1  0  0  0  0
 26  9  1  1  0  0  0
 26 28  1  0  0  0  0
 27 28  1  0  0  0  0
 29 27  1  6  0  0  0
 29 30  1  0  0  0  0
 29 31  1  0  0  0  0
 30 35  1  0  0  0  0
 31 33  1  0  0  0  0
 31 32  1  1  0  0  0
 33 34  1  1  0  0  0
 33 35  1  0  0  0  0
 35 45  1  6  0  0  0
 36 41  2  0  0  0  0
 36 37  1  0  0  0  0
 37 38  2  0  0  0  0
 38 39  1  0  0  0  0
 39 40  2  0  0  0  0
 39 45  1  0  0  0  0
 40 41  1  0  0  0  0
 40 43  1  0  0  0  0
 41 42  1  0  0  0  0
 43 44  2  0  0  0  0
 44 45  1  0  0  0  0
M  CHG  4   8  -1   9  -1  11  -1  12  -1
M  END
>  <CHROM.1>
-33.31470796,7.06100803,95.07712407,10.90092284,94.36372970,-1.72690936,-0.64150534
2.06897910

>  <Name>
ligand

>  <RI>
0

>  <Rbt.Current_Directory>
/home/itssahil/PROJECTS/Mol_Feturizer/New_Systems/rnas/4YAZ

>  <Rbt.Executable>
rbdock ($Id: //depot/dev/client3/rdock/2013.1/src/exe/rbdock.cxx#4 $)

>  <Rbt.Library>
libRbt.so (2013.1, Build901 2013/11/27)

>  <Rbt.Parameter_File>
/export/apps/rDock/src/rDock_2013.1_src/data/scripts/dock_solv.prm

>  <Rbt.Receptor>
prm/pocket_docking_7.prm

>  <SCORE>
-15.3734

>  <SCORE.INTER>
-15.2012

>  <SCORE.INTER.CONST>
1

>  <SCORE.INTER.POLAR>
0

>  <SCORE.INTER.ROT>
2

>  <SCORE.INTER.SOLV>
15.0254

>  <SCORE.INTER.VDW>
-20.0759

>  <SCORE.INTER.norm>
-0.337803

>  <SCORE.INTRA>
-0.172262

>  <SCORE.INTRA.DIHEDRAL>
-0.030525

>  <SCORE.INTRA.DIHEDRAL.0>
2.39103

>  <SCORE.INTRA.POLAR>
0

>  <SCORE.INTRA.POLAR.0>
0

>  <SCORE.INTRA.REPUL>
0

>  <SCORE.INTRA.REPUL.0>
0

>  <SCORE.INTRA.SOLV>
0.78278

>  <SCORE.INTRA.SOLV.lig_0>
-163.975

>  <SCORE.INTRA.VDW>
-0.548389

>  <SCORE.INTRA.VDW.0>
-1.49176

>  <SCORE.INTRA.norm>
-0.00382804

>  <SCORE.RESTR>
0

>  <SCORE.RESTR.CAVITY>
0

>  <SCORE.RESTR.norm>
0

>  <SCORE.SYSTEM>
0

>  <SCORE.SYSTEM.CONST>
0

>  <SCORE.SYSTEM.DIHEDRAL>
0

>  <SCORE.SYSTEM.SOLV>
0

>  <SCORE.SYSTEM.norm>
0

>  <SCORE.heavy>
45

>  <SCORE.norm>
-0.341631

>  <RMSD>
5.861

$$$$
ligand
 OpenBabel11021811523D
libRbt.so/2013.1/901 2013/11/27
 45 51  0  0  0  0  0  0  0  0999 V2000
   97.7939   10.5943   93.7199 C   0  0  0  0  0  0  0  0  0  0  0  0
   94.2649   11.7691   92.4937 C   0  0  0  0  0  0  0  0  0  0  0  0
  101.6850    6.8572   91.9043 N   0  0  0  0  0  0  0  0  0  0  0  0
   98.8952   10.7196   94.3868 N   0  0  0  0  0  0  0  0  0  0  0  0
   99.7657    8.1359   92.2750 N   0  0  0  0  0  0  0  0  0  0  0  0
  101.6686    8.5048   93.5629 N   0  0  0  0  0  0  0  0  0  0  0  0
  101.7086   10.2313   95.2337 O   0  0  0  0  0  0  0  0  0  0  0  0
   94.5718   14.7853   93.1147 O   0  5  0  0  0  0  0  0  0  0  0  0
   91.8637    7.7634   94.3205 O   0  5  0  0  0  0  0  0  0  0  0  0
   95.3490    7.5180   91.9897 O   0  0  0  0  0  0  0  0  0  0  0  0
   95.7836   14.1464   94.8687 O   0  5  0  0  0  0  0  0  0  0  0  0
   93.9828    7.3450   94.8955 O   0  5  0  0  0  0  0  0  0  0  0  0
   95.2717   12.5407   93.0149 O   0  0  0  0  0  0  0  0  0  0  0  0
   96.1631   10.4578   91.4129 O   0  0  0  0  0  0  0  0  0  0  0  0
   93.4321    8.9843   93.0223 O   0  0  0  0  0  0  0  0  0  0  0  0
  100.9989    7.8804   92.6261 C   0  0  0  0  0  0  0  0  0  0  0  0
  101.0851    9.4902   94.2317 C   0  0  0  0  0  0  0  0  0  0  0  0
   99.7442    9.8118   93.9224 C   0  0  0  0  0  0  0  0  0  0  0  0
   99.1033    9.1223   92.9228 C   0  0  0  0  0  0  0  0  0  0  0  0
   95.9045    8.5992   92.6395 C   0  0  2  0  0  0  0  0  0  0  0  0
   94.7502   10.4579   92.0214 C   0  0  1  0  0  0  0  0  0  0  0  0
   94.6984    9.6290   92.9529 C   0  0  1  0  0  0  0  0  0  0  0  0
   96.8498    9.2509   91.9882 C   0  0  2  0  0  0  0  0  0  0  0  0
   97.8806    9.6506   92.8570 N   0  0  0  0  0  0  0  0  0  0  0  0
   94.7933   13.6852   93.9601 P   0  0  2  0  0  0  0  0  0  0  0  0
   93.1134    8.3878   94.4082 P   0  0  1  0  0  0  0  0  0  0  0  0
   92.1491   10.7182   95.0875 C   0  0  0  0  0  0  0  0  0  0  0  0
   92.9208    9.5557   95.4294 O   0  0  0  0  0  0  0  0  0  0  0  0
   92.3705   11.8857   95.9537 C   0  0  1  0  0  0  0  0  0  0  0  0
   92.4204   11.3721   97.4757 O   0  0  0  0  0  0  0  0  0  0  0  0
   93.5031   12.3816   95.7276 C   0  0  1  0  0  0  0  0  0  0  0  0
   93.4695   13.3623   94.6652 O   0  0  0  0  0  0  0  0  0  0  0  0
   93.9398   12.9332   97.0763 C   0  0  1  0  0  0  0  0  0  0  0  0
   93.4577   14.0857   97.2526 O   0  0  0  0  0  0  0  0  0  0  0  0
   93.3185   11.9789   98.0963 C   0  0  2  0  0  0  0  0  0  0  0  0
   97.8744    9.5964   98.1310 N   0  0  0  0  0  0  0  0  0  0  0  0
   97.3014   10.2538   97.0888 C   0  0  0  0  0  0  0  0  0  0  0  0
   96.1138   10.8102   97.2951 N   0  0  0  0  0  0  0  0  0  0  0  0
   95.4162   10.7103   98.4468 C   0  0  0  0  0  0  0  0  0  0  0  0
   95.9783   10.0357   99.5518 C   0  0  0  0  0  0  0  0  0  0  0  0
   97.2684    9.4581   99.3255 C   0  0  0  0  0  0  0  0  0  0  0  0
   97.9033    8.7372  100.3797 N   0  0  0  0  0  0  0  0  0  0  0  0
   95.1280   10.1322  100.5128 N   0  0  0  0  0  0  0  0  0  0  0  0
   94.0897   10.8355  100.0954 C   0  0  0  0  0  0  0  0  0  0  0  0
   94.2288   11.1735   98.8634 N   0  0  0  0  0  0  0  0  0  0  0  0
  1 24  1  0  0  0  0
  1  4  2  0  0  0  0
  2 13  1  0  0  0  0
  2 21  1  0  0  0  0
  3 16  1  0  0  0  0
  4 18  1  0  0  0  0
  5 19  2  0  0  0  0
  5 16  1  0  0  0  0
  6 16  2  0  0  0  0
  6 17  1  0  0  0  0
  7 17  1  0  0  0  0
 11 25  2  0  0  0  0
 12 26  2  0  0  0  0
 13 25  1  0  0  0  0
 14 23  1  0  0  0  0
 15 26  1  0  0  0  0
 17 18  2  0  0  0  0
 18 19  1  0  0  0  0
 19 24  1  0  0  0  0
 20 10  1  6  0  0  0
 20 22  1  0  0  0  0
 20 23  1  0  0  0  0
 21 14  1  1  0  0  0
 21 22  1  0  0  0  0
 22 15  1  6  0  0  0
 23 24  1  1  0  0  0
 25  8  1  6  0  0  0
 25 32  1  0  0  0  0
 26  9  1  6  0  0  0
 26 28  1  0  0  0  0
 27 28  1  0  0  0  0
 29 27  1  6  0  0  0
 29 30  1  0  0  0  0
 29 31  1  0  0  0  0
 30 35  1  0  0  0  0
 31 33  1  0  0  0  0
 31 32  1  6  0  0  0
 33 34  1  1  0  0  0
 33 35  1  0  0  0  0
 35 45  1  6  0  0  0
 36 41  2  0  0  0  0
 36 37  1  0  0  0  0
 37 38  2  0  0  0  0
 38 39  1  0  0  0  0
 39 40  2  0  0  0  0
 39 45  1  0  0  0  0
 40 41  1  0  0  0  0
 40 43  1  0  0  0  0
 41 42  1  0  0  0  0
 43 44  2  0  0  0  0
 44 45  1  0  0  0  0
M  CHG  4   8  -1   9  -1  11  -1  12  -1
M  END
>  <CHROM.1>
42.96478169,94.01633753,95.80372513,10.43001110,95.03359679,0.53850896,0.38137220
-1.66986855

>  <Name>
ligand

>  <RI>
0

>  <Rbt.Current_Directory>
/home/itssahil/PROJECTS/Mol_Feturizer/New_Systems/rnas/4YAZ

>  <Rbt.Executable>
rbdock ($Id: //depot/dev/client3/rdock/2013.1/src/exe/rbdock.cxx#4 $)

>  <Rbt.Library>
libRbt.so (2013.1, Build901 2013/11/27)

>  <Rbt.Parameter_File>
/export/apps/rDock/src/rDock_2013.1_src/data/scripts/dock_solv.prm

>  <Rbt.Receptor>
prm/pocket_docking_8.prm

>  <SCORE>
-18.124

>  <SCORE.INTER>
-16.5356

>  <SCORE.INTER.CONST>
1

>  <SCORE.INTER.POLAR>
0

>  <SCORE.INTER.ROT>
2

>  <SCORE.INTER.SOLV>
24.6934

>  <SCORE.INTER.VDW>
-24.1882

>  <SCORE.INTER.norm>
-0.367458

>  <SCORE.INTRA>
-1.58835

>  <SCORE.INTRA.DIHEDRAL>
0.149373

>  <SCORE.INTRA.DIHEDRAL.0>
2.39103

>  <SCORE.INTRA.POLAR>
0

>  <SCORE.INTRA.POLAR.0>
0

>  <SCORE.INTRA.REPUL>
0

>  <SCORE.INTRA.REPUL.0>
0

>  <SCORE.INTRA.SOLV>
-0.0300475

>  <SCORE.INTRA.SOLV.lig_0>
-163.975

>  <SCORE.INTRA.VDW>
-1.64801

>  <SCORE.INTRA.VDW.0>
-1.49176

>  <SCORE.INTRA.norm>
-0.0352967

>  <SCORE.RESTR>
0

>  <SCORE.RESTR.CAVITY>
0

>  <SCORE.RESTR.norm>
0

>  <SCORE.SYSTEM>
0

>  <SCORE.SYSTEM.CONST>
0

>  <SCORE.SYSTEM.DIHEDRAL>
0

>  <SCORE.SYSTEM.SOLV>
0

>  <SCORE.SYSTEM.norm>
0

>  <SCORE.heavy>
45

>  <SCORE.norm>
-0.402754

>  <RMSD>
5.864

$$$$
ligand
 OpenBabel11021811513D
libRbt.so/2013.1/901 2013/11/27
 45 51  0  0  0  0  0  0  0  0999 V2000
   97.8354   10.0748   93.9482 C   0  0  0  0  0  0  0  0  0  0  0  0
   94.0082   10.5160   93.2925 C   0  0  0  0  0  0  0  0  0  0  0  0
  101.8572    6.3203   92.4881 N   0  0  0  0  0  0  0  0  0  0  0  0
   98.9814   10.4164   94.4415 N   0  0  0  0  0  0  0  0  0  0  0  0
   99.8736    7.5102   92.8133 N   0  0  0  0  0  0  0  0  0  0  0  0
  101.8531    8.2778   93.7662 N   0  0  0  0  0  0  0  0  0  0  0  0
  101.8988   10.3189   95.0336 O   0  0  0  0  0  0  0  0  0  0  0  0
   93.9294   13.6010   93.5257 O   0  5  0  0  0  0  0  0  0  0  0  0
   92.5473    6.4935   95.9065 O   0  5  0  0  0  0  0  0  0  0  0  0
   95.6549    6.4239   93.0820 O   0  0  0  0  0  0  0  0  0  0  0  0
   95.4662   13.3687   95.1187 O   0  5  0  0  0  0  0  0  0  0  0  0
   94.7662    6.4475   96.1723 O   0  5  0  0  0  0  0  0  0  0  0  0
   94.9475   11.4794   93.5570 O   0  0  0  0  0  0  0  0  0  0  0  0
   95.9108    9.3465   92.0664 O   0  0  0  0  0  0  0  0  0  0  0  0
   93.7030    7.7368   94.2470 O   0  0  0  0  0  0  0  0  0  0  0  0
  101.1542    7.4227   93.0617 C   0  0  0  0  0  0  0  0  0  0  0  0
  101.2500    9.3394   94.2840 C   0  0  0  0  0  0  0  0  0  0  0  0
   99.8607    9.4926   94.0754 C   0  0  0  0  0  0  0  0  0  0  0  0
   99.1902    8.5627   93.3196 C   0  0  0  0  0  0  0  0  0  0  0  0
   96.1237    7.6465   93.5124 C   0  0  2  0  0  0  0  0  0  0  0  0
   94.6178    9.2330   92.8923 C   0  0  1  0  0  0  0  0  0  0  0  0
   94.8304    8.5339   93.9039 C   0  0  1  0  0  0  0  0  0  0  0  0
   96.8523    8.3305   92.6499 C   0  0  2  0  0  0  0  0  0  0  0  0
   97.9230    8.9774   93.2917 N   0  0  0  0  0  0  0  0  0  0  0  0
   94.4388   12.6615   94.4379 P   0  0  2  0  0  0  0  0  0  0  0  0
   93.6843    7.2889   95.7225 P   0  0  1  0  0  0  0  0  0  0  0  0
   92.4782    9.5343   96.2931 C   0  0  0  0  0  0  0  0  0  0  0  0
   93.4623    8.5430   96.6291 O   0  0  0  0  0  0  0  0  0  0  0  0
   92.6384   10.8243   96.9806 C   0  0  1  0  0  0  0  0  0  0  0  0
   92.9866   10.5259   98.5209 O   0  0  0  0  0  0  0  0  0  0  0  0
   93.6356   11.4365   96.5216 C   0  0  1  0  0  0  0  0  0  0  0  0
   93.2970   12.2558   95.3790 O   0  0  0  0  0  0  0  0  0  0  0  0
   94.1715   12.2142   97.7141 C   0  0  1  0  0  0  0  0  0  0  0  0
   93.5468   13.3031   97.8405 O   0  0  0  0  0  0  0  0  0  0  0  0
   93.8597   11.3257   98.9184 C   0  0  2  0  0  0  0  0  0  0  0  0
   96.0229   10.4663  103.5027 N   0  0  0  0  0  0  0  0  0  0  0  0
   94.8811   11.1593  103.2524 C   0  0  0  0  0  0  0  0  0  0  0  0
   94.4897   11.2571  101.9876 N   0  0  0  0  0  0  0  0  0  0  0  0
   95.1831   10.7699  100.9365 C   0  0  0  0  0  0  0  0  0  0  0  0
   96.3735   10.0442  101.1563 C   0  0  0  0  0  0  0  0  0  0  0  0
   96.7750    9.9260  102.5252 C   0  0  0  0  0  0  0  0  0  0  0  0
   97.9786    9.2286  102.8401 N   0  0  0  0  0  0  0  0  0  0  0  0
   96.7927    9.6668   99.9998 N   0  0  0  0  0  0  0  0  0  0  0  0
   95.9406   10.0837   99.0795 C   0  0  0  0  0  0  0  0  0  0  0  0
   94.9852   10.7596   99.6103 N   0  0  0  0  0  0  0  0  0  0  0  0
  1 24  1  0  0  0  0
  1  4  2  0  0  0  0
  2 13  1  0  0  0  0
  2 21  1  0  0  0  0
  3 16  1  0  0  0  0
  4 18  1  0  0  0  0
  5 19  2  0  0  0  0
  5 16  1  0  0  0  0
  6 16  2  0  0  0  0
  6 17  1  0  0  0  0
  7 17  1  0  0  0  0
 11 25  2  0  0  0  0
 12 26  2  0  0  0  0
 13 25  1  0  0  0  0
 14 23  1  0  0  0  0
 15 26  1  0  0  0  0
 17 18  2  0  0  0  0
 18 19  1  0  0  0  0
 19 24  1  0  0  0  0
 20 10  1  6  0  0  0
 20 22  1  0  0  0  0
 20 23  1  0  0  0  0
 21 14  1  1  0  0  0
 21 22  1  0  0  0  0
 22 15  1  6  0  0  0
 23 24  1  1  0  0  0
 25  8  1  6  0  0  0
 25 32  1  0  0  0  0
 26  9  1  1  0  0  0
 26 28  1  0  0  0  0
 27 28  1  0  0  0  0
 29 27  1  6  0  0  0
 29 30  1  0  0  0  0
 29 31  1  0  0  0  0
 30 35  1  0  0  0  0
 31 33  1  0  0  0  0
 31 32  1  6  0  0  0
 33 34  1  1  0  0  0
 33 35  1  0  0  0  0
 35 45  1  6  0  0  0
 36 41  2  0  0  0  0
 36 37  1  0  0  0  0
 37 38  2  0  0  0  0
 38 39  1  0  0  0  0
 39 40  2  0  0  0  0
 39 45  1  0  0  0  0
 40 41  1  0  0  0  0
 40 43  1  0  0  0  0
 41 42  1  0  0  0  0
 43 44  2  0  0  0  0
 44 45  1  0  0  0  0
M  CHG  4   8  -1   9  -1  11  -1  12  -1
M  END
>  <CHROM.1>
36.13788096,-102.70757305,95.87014914,9.77879723,96.09790443,-1.05874983
-0.30143922,1.42073658

>  <Name>
ligand

>  <RI>
0

>  <Rbt.Current_Directory>
/home/itssahil/PROJECTS/Mol_Feturizer/New_Systems/rnas/4YAZ

>  <Rbt.Executable>
rbdock ($Id: //depot/dev/client3/rdock/2013.1/src/exe/rbdock.cxx#4 $)

>  <Rbt.Library>
libRbt.so (2013.1, Build901 2013/11/27)

>  <Rbt.Parameter_File>
/export/apps/rDock/src/rDock_2013.1_src/data/scripts/dock_solv.prm

>  <Rbt.Receptor>
prm/pocket_docking_8.prm

>  <SCORE>
-22.5374

>  <SCORE.INTER>
-21.8616

>  <SCORE.INTER.CONST>
1

>  <SCORE.INTER.POLAR>
0

>  <SCORE.INTER.ROT>
2

>  <SCORE.INTER.SOLV>
28.8808

>  <SCORE.INTER.VDW>
-29.1346

>  <SCORE.INTER.norm>
-0.485813

>  <SCORE.INTRA>
-0.675823

>  <SCORE.INTRA.DIHEDRAL>
-0.0828044

>  <SCORE.INTRA.DIHEDRAL.0>
2.39103

>  <SCORE.INTRA.POLAR>
0

>  <SCORE.INTRA.POLAR.0>
0

>  <SCORE.INTRA.REPUL>
0

>  <SCORE.INTRA.REPUL.0>
0

>  <SCORE.INTRA.SOLV>
-0.0580922

>  <SCORE.INTRA.SOLV.lig_0>
-163.975

>  <SCORE.INTRA.VDW>
-0.605374

>  <SCORE.INTRA.VDW.0>
-1.49176

>  <SCORE.INTRA.norm>
-0.0150183

>  <SCORE.RESTR>
0

>  <SCORE.RESTR.CAVITY>
0

>  <SCORE.RESTR.norm>
0

>  <SCORE.SYSTEM>
0

>  <SCORE.SYSTEM.CONST>
0

>  <SCORE.SYSTEM.DIHEDRAL>
0

>  <SCORE.SYSTEM.SOLV>
0

>  <SCORE.SYSTEM.norm>
0

>  <SCORE.heavy>
45

>  <SCORE.norm>
-0.500831

>  <RMSD>
5.869

$$$$
ligand
 OpenBabel11021811513D
libRbt.so/2013.1/901 2013/11/27
 45 51  0  0  0  0  0  0  0  0999 V2000
   96.2578   13.1643   91.1252 C   0  0  0  0  0  0  0  0  0  0  0  0
   91.7223   11.8155   93.5471 C   0  0  0  0  0  0  0  0  0  0  0  0
   92.9465   16.3012   94.5307 N   0  0  0  0  0  0  0  0  0  0  0  0
   96.9689   13.9932   91.8184 N   0  0  0  0  0  0  0  0  0  0  0  0
   93.8189   14.8054   92.9630 N   0  0  0  0  0  0  0  0  0  0  0  0
   95.2488   16.2201   94.1332 N   0  0  0  0  0  0  0  0  0  0  0  0
   97.6260   16.1211   93.7962 O   0  0  0  0  0  0  0  0  0  0  0  0
   91.0450   13.5335   96.0305 O   0  5  0  0  0  0  0  0  0  0  0  0
   93.2611    7.1635   92.4799 O   0  5  0  0  0  0  0  0  0  0  0  0
   93.8272   10.4418   89.9162 O   0  0  0  0  0  0  0  0  0  0  0  0
   93.2351   13.5538   96.4261 O   0  5  0  0  0  0  0  0  0  0  0  0
   95.0853    8.3765   92.0357 O   0  5  0  0  0  0  0  0  0  0  0  0
   92.3457   12.8534   94.1909 O   0  0  0  0  0  0  0  0  0  0  0  0
   92.6612   12.8859   91.4344 O   0  0  0  0  0  0  0  0  0  0  0  0
   92.7782    9.4585   92.1125 O   0  0  0  0  0  0  0  0  0  0  0  0
   94.0632   15.7529   93.8301 C   0  0  0  0  0  0  0  0  0  0  0  0
   96.3192   15.7119   93.5374 C   0  0  0  0  0  0  0  0  0  0  0  0
   96.1337   14.6968   92.5720 C   0  0  0  0  0  0  0  0  0  0  0  0
   94.8633   14.2474   92.3079 C   0  0  0  0  0  0  0  0  0  0  0  0
   94.1405   11.2646   90.9768 C   0  0  2  0  0  0  0  0  0  0  0  0
   92.2436   11.6080   92.1821 C   0  0  1  0  0  0  0  0  0  0  0  0
   93.2042   10.8121   92.2145 C   0  0  1  0  0  0  0  0  0  0  0  0
   93.9751   12.5597   90.7813 C   0  0  2  0  0  0  0  0  0  0  0  0
   95.0093   13.2990   91.3819 N   0  0  0  0  0  0  0  0  0  0  0  0
   92.2236   12.8238   95.7454 P   0  0  2  0  0  0  0  0  0  0  0  0
   93.7937    8.4433   92.6746 P   0  0  1  0  0  0  0  0  0  0  0  0
   92.6974    8.7845   95.0206 C   0  0  0  0  0  0  0  0  0  0  0  0
   93.8826    8.6222   94.2250 O   0  0  0  0  0  0  0  0  0  0  0  0
   92.9247    9.3304   96.3669 C   0  0  1  0  0  0  0  0  0  0  0  0
   94.2160    8.6012   96.9865 O   0  0  0  0  0  0  0  0  0  0  0  0
   93.2278   10.5479   96.2931 C   0  0  1  0  0  0  0  0  0  0  0  0
   92.0623   11.4041   96.3041 O   0  0  0  0  0  0  0  0  0  0  0  0
   94.1753   10.7636   97.4634 C   0  0  1  0  0  0  0  0  0  0  0  0
   93.5205   10.9789   98.5202 O   0  0  0  0  0  0  0  0  0  0  0  0
   94.9135    9.4324   97.6049 C   0  0  2  0  0  0  0  0  0  0  0  0
   98.5341   10.9076   94.2658 N   0  0  0  0  0  0  0  0  0  0  0  0
   97.1891   11.0475   94.1309 C   0  0  0  0  0  0  0  0  0  0  0  0
   96.4255   10.6023   95.1215 N   0  0  0  0  0  0  0  0  0  0  0  0
   96.8936    9.9665   96.2168 C   0  0  0  0  0  0  0  0  0  0  0  0
   98.2843    9.8024   96.3925 C   0  0  0  0  0  0  0  0  0  0  0  0
   99.0999   10.3054   95.3289 C   0  0  0  0  0  0  0  0  0  0  0  0
  100.5165   10.1625   95.4103 N   0  0  0  0  0  0  0  0  0  0  0  0
   98.4448    9.2132   97.5252 N   0  0  0  0  0  0  0  0  0  0  0  0
   97.2597    9.0191   98.0773 C   0  0  0  0  0  0  0  0  0  0  0  0
   96.3200    9.4407   97.3088 N   0  0  0  0  0  0  0  0  0  0  0  0
  1 24  1  0  0  0  0
  1  4  2  0  0  0  0
  2 13  1  0  0  0  0
  2 21  1  0  0  0  0
  3 16  1  0  0  0  0
  4 18  1  0  0  0  0
  5 19  2  0  0  0  0
  5 16  1  0  0  0  0
  6 16  2  0  0  0  0
  6 17  1  0  0  0  0
  7 17  1  0  0  0  0
 11 25  2  0  0  0  0
 12 26  2  0  0  0  0
 13 25  1  0  0  0  0
 14 23  1  0  0  0  0
 15 26  1  0  0  0  0
 17 18  2  0  0  0  0
 18 19  1  0  0  0  0
 19 24  1  0  0  0  0
 20 10  1  6  0  0  0
 20 22  1  0  0  0  0
 20 23  1  0  0  0  0
 21 14  1  1  0  0  0
 21 22  1  0  0  0  0
 22 15  1  6  0  0  0
 23 24  1  1  0  0  0
 25  8  1  1  0  0  0
 25 32  1  0  0  0  0
 26  9  1  6  0  0  0
 26 28  1  0  0  0  0
 27 28  1  0  0  0  0
 29 27  1  6  0  0  0
 29 30  1  0  0  0  0
 29 31  1  0  0  0  0
 30 35  1  0  0  0  0
 31 33  1  0  0  0  0
 31 32  1  1  0  0  0
 33 34  1  1  0  0  0
 33 35  1  0  0  0  0
 35 45  1  6  0  0  0
 36 41  2  0  0  0  0
 36 37  1  0  0  0  0
 37 38  2  0  0  0  0
 38 39  1  0  0  0  0
 39 40  2  0  0  0  0
 39 45  1  0  0  0  0
 40 41  1  0  0  0  0
 40 43  1  0  0  0  0
 41 42  1  0  0  0  0
 43 44  2  0  0  0  0
 44 45  1  0  0  0  0
M  CHG  4   8  -1   9  -1  11  -1  12  -1
M  END
>  <CHROM.1>
173.94667269,76.61874641,94.60332171,11.49181320,94.28616688,-1.88942117
0.48783633,2.69196472

>  <Name>
ligand

>  <RI>
0

>  <Rbt.Current_Directory>
/home/itssahil/PROJECTS/Mol_Feturizer/New_Systems/rnas/4YAZ

>  <Rbt.Executable>
rbdock ($Id: //depot/dev/client3/rdock/2013.1/src/exe/rbdock.cxx#4 $)

>  <Rbt.Library>
libRbt.so (2013.1, Build901 2013/11/27)

>  <Rbt.Parameter_File>
/export/apps/rDock/src/rDock_2013.1_src/data/scripts/dock_solv.prm

>  <Rbt.Receptor>
prm/pocket_docking_7.prm

>  <SCORE>
-13.5262

>  <SCORE.INTER>
-13.6964

>  <SCORE.INTER.CONST>
1

>  <SCORE.INTER.POLAR>
0

>  <SCORE.INTER.ROT>
2

>  <SCORE.INTER.SOLV>
19.6779

>  <SCORE.INTER.VDW>
-20.6236

>  <SCORE.INTER.norm>
-0.304364

>  <SCORE.INTRA>
0.170188

>  <SCORE.INTRA.DIHEDRAL>
0.104125

>  <SCORE.INTRA.DIHEDRAL.0>
2.39103

>  <SCORE.INTRA.POLAR>
0

>  <SCORE.INTRA.POLAR.0>
0

>  <SCORE.INTRA.REPUL>
0

>  <SCORE.INTRA.REPUL.0>
0

>  <SCORE.INTRA.SOLV>
6.18947

>  <SCORE.INTRA.SOLV.lig_0>
-163.975

>  <SCORE.INTRA.VDW>
-2.97661

>  <SCORE.INTRA.VDW.0>
-1.49176

>  <SCORE.INTRA.norm>
0.00378195

>  <SCORE.RESTR>
0

>  <SCORE.RESTR.CAVITY>
0

>  <SCORE.RESTR.norm>
0

>  <SCORE.SYSTEM>
0

>  <SCORE.SYSTEM.CONST>
0

>  <SCORE.SYSTEM.DIHEDRAL>
0

>  <SCORE.SYSTEM.SOLV>
0

>  <SCORE.SYSTEM.norm>
0

>  <SCORE.heavy>
45

>  <SCORE.norm>
-0.300582

>  <RMSD>
5.903

$$$$
ligand
 OpenBabel11021811513D
libRbt.so/2013.1/901 2013/11/27
 45 51  0  0  0  0  0  0  0  0999 V2000
   96.0525   14.9356   92.1101 C   0  0  0  0  0  0  0  0  0  0  0  0
   92.0748   14.7736   94.0331 C   0  0  0  0  0  0  0  0  0  0  0  0
   96.5841    9.5647   90.3007 N   0  0  0  0  0  0  0  0  0  0  0  0
   97.2044   14.4516   92.4450 N   0  0  0  0  0  0  0  0  0  0  0  0
   95.8565   11.7215   90.8255 N   0  0  0  0  0  0  0  0  0  0  0  0
   97.9704   11.0176   91.4976 N   0  0  0  0  0  0  0  0  0  0  0  0
   99.4464   12.5044   92.6747 O   0  0  0  0  0  0  0  0  0  0  0  0
   92.8917   16.1314   96.6914 O   0  5  0  0  0  0  0  0  0  0  0  0
   90.0598   10.4591   92.4605 O   0  5  0  0  0  0  0  0  0  0  0  0
   92.4653   12.9142   90.0467 O   0  0  0  0  0  0  0  0  0  0  0  0
   94.5664   14.6667   96.7495 O   0  5  0  0  0  0  0  0  0  0  0  0
   92.1903   10.2453   91.8192 O   0  5  0  0  0  0  0  0  0  0  0  0
   93.2747   15.0491   94.6371 O   0  0  0  0  0  0  0  0  0  0  0  0
   93.3281   15.2727   91.8719 O   0  0  0  0  0  0  0  0  0  0  0  0
   91.1938   12.5394   92.3125 O   0  0  0  0  0  0  0  0  0  0  0  0
   96.8111   10.8328   90.9165 C   0  0  0  0  0  0  0  0  0  0  0  0
   98.2414   12.1938   92.0472 C   0  0  0  0  0  0  0  0  0  0  0  0
   97.2500   13.2001   92.0067 C   0  0  0  0  0  0  0  0  0  0  0  0
   96.0589   12.9420   91.3740 C   0  0  0  0  0  0  0  0  0  0  0  0
   93.3222   13.1695   91.0957 C   0  0  2  0  0  0  0  0  0  0  0  0
   92.2250   14.4805   92.5946 C   0  0  1  0  0  0  0  0  0  0  0  0
   92.4159   13.2581   92.4314 C   0  0  1  0  0  0  0  0  0  0  0  0
   94.0428   14.2720   91.0076 C   0  0  2  0  0  0  0  0  0  0  0  0
   95.3478   14.0643   91.4880 N   0  0  0  0  0  0  0  0  0  0  0  0
   93.2787   14.8783   96.1873 P   0  0  2  0  0  0  0  0  0  0  0  0
   91.3192   11.0400   92.6500 P   0  0  1  0  0  0  0  0  0  0  0  0
   90.9013   11.6624   95.1521 C   0  0  0  0  0  0  0  0  0  0  0  0
   91.6183   10.8885   94.1770 O   0  0  0  0  0  0  0  0  0  0  0  0
   91.5318   11.7247   96.4791 C   0  0  1  0  0  0  0  0  0  0  0  0
   92.0564   10.2514   96.8490 O   0  0  0  0  0  0  0  0  0  0  0  0
   92.5591   12.4475   96.4348 C   0  0  1  0  0  0  0  0  0  0  0  0
   92.2587   13.8416   96.6757 O   0  0  0  0  0  0  0  0  0  0  0  0
   93.4944   11.8218   97.4583 C   0  0  1  0  0  0  0  0  0  0  0  0
   93.2270   12.2525   98.6136 O   0  0  0  0  0  0  0  0  0  0  0  0
   93.1727   10.3282   97.4038 C   0  0  2  0  0  0  0  0  0  0  0  0
   97.8360    8.3408   98.2632 N   0  0  0  0  0  0  0  0  0  0  0  0
   97.1819    9.2558   99.0259 C   0  0  0  0  0  0  0  0  0  0  0  0
   95.9732    9.6329   98.6268 N   0  0  0  0  0  0  0  0  0  0  0  0
   95.3839    9.2161   97.4857 C   0  0  0  0  0  0  0  0  0  0  0  0
   96.0319    8.2661   96.6674 C   0  0  0  0  0  0  0  0  0  0  0  0
   97.3252    7.8498   97.1181 C   0  0  0  0  0  0  0  0  0  0  0  0
   98.0638    6.9089   96.3414 N   0  0  0  0  0  0  0  0  0  0  0  0
   95.2356    8.0217   95.6866 N   0  0  0  0  0  0  0  0  0  0  0  0
   94.1317    8.7311   95.8456 C   0  0  0  0  0  0  0  0  0  0  0  0
   94.2045    9.4647   96.8981 N   0  0  0  0  0  0  0  0  0  0  0  0
  1 24  1  0  0  0  0
  1  4  2  0  0  0  0
  2 13  1  0  0  0  0
  2 21  1  0  0  0  0
  3 16  1  0  0  0  0
  4 18  1  0  0  0  0
  5 19  2  0  0  0  0
  5 16  1  0  0  0  0
  6 16  2  0  0  0  0
  6 17  1  0  0  0  0
  7 17  1  0  0  0  0
 11 25  2  0  0  0  0
 12 26  2  0  0  0  0
 13 25  1  0  0  0  0
 14 23  1  0  0  0  0
 15 26  1  0  0  0  0
 17 18  2  0  0  0  0
 18 19  1  0  0  0  0
 19 24  1  0  0  0  0
 20 10  1  6  0  0  0
 20 22  1  0  0  0  0
 20 23  1  0  0  0  0
 21 14  1  1  0  0  0
 21 22  1  0  0  0  0
 22 15  1  6  0  0  0
 23 24  1  1  0  0  0
 25  8  1  1  0  0  0
 25 32  1  0  0  0  0
 26  9  1  6  0  0  0
 26 28  1  0  0  0  0
 27 28  1  0  0  0  0
 29 27  1  6  0  0  0
 29 30  1  0  0  0  0
 29 31  1  0  0  0  0
 30 35  1  0  0  0  0
 31 33  1  0  0  0  0
 31 32  1  1  0  0  0
 33 34  1  1  0  0  0
 33 35  1  0  0  0  0
 35 45  1  6  0  0  0
 36 41  2  0  0  0  0
 36 37  1  0  0  0  0
 37 38  2  0  0  0  0
 38 39  1  0  0  0  0
 39 40  2  0  0  0  0
 39 45  1  0  0  0  0
 40 41  1  0  0  0  0
 40 43  1  0  0  0  0
 41 42  1  0  0  0  0
 43 44  2  0  0  0  0
 44 45  1  0  0  0  0
M  CHG  4   8  -1   9  -1  11  -1  12  -1
M  END
>  <CHROM.1>
-29.59013140,-167.50024460,94.18580079,11.93197764,94.34137023,-1.93197620
-0.55028770,2.05544393

>  <Name>
ligand

>  <RI>
0

>  <Rbt.Current_Directory>
/home/itssahil/PROJECTS/Mol_Feturizer/New_Systems/rnas/4YAZ

>  <Rbt.Executable>
rbdock ($Id: //depot/dev/client3/rdock/2013.1/src/exe/rbdock.cxx#4 $)

>  <Rbt.Library>
libRbt.so (2013.1, Build901 2013/11/27)

>  <Rbt.Parameter_File>
/export/apps/rDock/src/rDock_2013.1_src/data/scripts/dock_solv.prm

>  <Rbt.Receptor>
prm/pocket_docking_8.prm

>  <SCORE>
-20.0165

>  <SCORE.INTER>
-20.2946

>  <SCORE.INTER.CONST>
1

>  <SCORE.INTER.POLAR>
0

>  <SCORE.INTER.ROT>
2

>  <SCORE.INTER.SOLV>
18.812

>  <SCORE.INTER.VDW>
-24.7337

>  <SCORE.INTER.norm>
-0.450991

>  <SCORE.INTRA>
0.278082

>  <SCORE.INTRA.DIHEDRAL>
0.0734679

>  <SCORE.INTRA.DIHEDRAL.0>
2.39103

>  <SCORE.INTRA.POLAR>
0

>  <SCORE.INTRA.POLAR.0>
0

>  <SCORE.INTRA.REPUL>
0

>  <SCORE.INTRA.REPUL.0>
0

>  <SCORE.INTRA.SOLV>
0.0213663

>  <SCORE.INTRA.SOLV.lig_0>
-163.975

>  <SCORE.INTRA.VDW>
0.230665

>  <SCORE.INTRA.VDW.0>
-1.49176

>  <SCORE.INTRA.norm>
0.00617961

>  <SCORE.RESTR>
0

>  <SCORE.RESTR.CAVITY>
0

>  <SCORE.RESTR.norm>
0

>  <SCORE.SYSTEM>
0

>  <SCORE.SYSTEM.CONST>
0

>  <SCORE.SYSTEM.DIHEDRAL>
0

>  <SCORE.SYSTEM.SOLV>
0

>  <SCORE.SYSTEM.norm>
0

>  <SCORE.heavy>
45

>  <SCORE.norm>
-0.444812

>  <RMSD>
5.992

$$$$
ligand
 OpenBabel11021811523D
libRbt.so/2013.1/901 2013/11/27
 45 51  0  0  0  0  0  0  0  0999 V2000
   96.1540   12.4825   90.9991 C   0  0  0  0  0  0  0  0  0  0  0  0
   92.5033   14.9093   93.8201 C   0  0  0  0  0  0  0  0  0  0  0  0
   97.2370   17.0930   94.1573 N   0  0  0  0  0  0  0  0  0  0  0  0
   97.3085   12.3828   91.5740 N   0  0  0  0  0  0  0  0  0  0  0  0
   96.3298   15.4805   92.7313 N   0  0  0  0  0  0  0  0  0  0  0  0
   98.4203   15.1311   93.6924 N   0  0  0  0  0  0  0  0  0  0  0  0
   99.6375   13.0992   93.2869 O   0  0  0  0  0  0  0  0  0  0  0  0
   93.5565   16.1563   96.4494 O   0  5  0  0  0  0  0  0  0  0  0  0
   89.7670   10.9772   92.3371 O   0  5  0  0  0  0  0  0  0  0  0  0
   92.5458   12.9350   89.8702 O   0  0  0  0  0  0  0  0  0  0  0  0
   94.9544   14.4265   96.5326 O   0  5  0  0  0  0  0  0  0  0  0  0
   91.8254   10.3875   91.6954 O   0  5  0  0  0  0  0  0  0  0  0  0
   93.7361   14.9854   94.4159 O   0  0  0  0  0  0  0  0  0  0  0  0
   93.8118   15.1440   91.6467 O   0  0  0  0  0  0  0  0  0  0  0  0
   91.2414   12.8279   92.1458 O   0  0  0  0  0  0  0  0  0  0  0  0
   97.3383   15.8390   93.4821 C   0  0  0  0  0  0  0  0  0  0  0  0
   98.5399   13.9413   93.1187 C   0  0  0  0  0  0  0  0  0  0  0  0
   97.4983   13.4930   92.2754 C   0  0  0  0  0  0  0  0  0  0  0  0
   96.3876   14.2823   92.1050 C   0  0  0  0  0  0  0  0  0  0  0  0
   93.4396   13.0588   90.9121 C   0  0  2  0  0  0  0  0  0  0  0  0
   92.5929   14.5674   92.3873 C   0  0  1  0  0  0  0  0  0  0  0  0
   92.5696   13.3275   92.2478 C   0  0  1  0  0  0  0  0  0  0  0  0
   94.3388   14.0188   90.8007 C   0  0  2  0  0  0  0  0  0  0  0  0
   95.5912   13.5987   91.2823 N   0  0  0  0  0  0  0  0  0  0  0  0
   93.7192   14.8460   95.9691 P   0  0  2  0  0  0  0  0  0  0  0  0
   91.1086   11.3360   92.5124 P   0  0  1  0  0  0  0  0  0  0  0  0
   90.8180   12.0685   95.0026 C   0  0  0  0  0  0  0  0  0  0  0  0
   91.3857   11.1642   94.0414 O   0  0  0  0  0  0  0  0  0  0  0  0
   91.4572   12.0465   96.3268 C   0  0  1  0  0  0  0  0  0  0  0  0
   91.7225   10.5121   96.7244 O   0  0  0  0  0  0  0  0  0  0  0  0
   92.5933   12.5806   96.2661 C   0  0  1  0  0  0  0  0  0  0  0  0
   92.5387   14.0099   96.4801 O   0  0  0  0  0  0  0  0  0  0  0  0
   93.4126   11.8227   97.2996 C   0  0  1  0  0  0  0  0  0  0  0  0
   93.2298   12.3149   98.4468 O   0  0  0  0  0  0  0  0  0  0  0  0
   92.8384   10.4061   97.2751 C   0  0  2  0  0  0  0  0  0  0  0  0
   93.0725    5.6743   95.2777 N   0  0  0  0  0  0  0  0  0  0  0  0
   91.9613    6.3286   95.7067 C   0  0  0  0  0  0  0  0  0  0  0  0
   92.1211    7.5567   96.1850 N   0  0  0  0  0  0  0  0  0  0  0  0
   93.3165    8.1674   96.3304 C   0  0  0  0  0  0  0  0  0  0  0  0
   94.4930    7.5199   95.8962 C   0  0  0  0  0  0  0  0  0  0  0  0
   94.3072    6.2049   95.3620 C   0  0  0  0  0  0  0  0  0  0  0  0
   95.4439    5.4659   94.9196 N   0  0  0  0  0  0  0  0  0  0  0  0
   95.4633    8.3372   96.1117 N   0  0  0  0  0  0  0  0  0  0  0  0
   94.9758    9.4529   96.6261 C   0  0  0  0  0  0  0  0  0  0  0  0
   93.7033    9.3684   96.7843 N   0  0  0  0  0  0  0  0  0  0  0  0
  1 24  1  0  0  0  0
  1  4  2  0  0  0  0
  2 13  1  0  0  0  0
  2 21  1  0  0  0  0
  3 16  1  0  0  0  0
  4 18  1  0  0  0  0
  5 19  2  0  0  0  0
  5 16  1  0  0  0  0
  6 16  2  0  0  0  0
  6 17  1  0  0  0  0
  7 17  1  0  0  0  0
 11 25  2  0  0  0  0
 12 26  2  0  0  0  0
 13 25  1  0  0  0  0
 14 23  1  0  0  0  0
 15 26  1  0  0  0  0
 17 18  2  0  0  0  0
 18 19  1  0  0  0  0
 19 24  1  0  0  0  0
 20 10  1  6  0  0  0
 20 22  1  0  0  0  0
 20 23  1  0  0  0  0
 21 14  1  1  0  0  0
 21 22  1  0  0  0  0
 22 15  1  6  0  0  0
 23 24  1  1  0  0  0
 25  8  1  1  0  0  0
 25 32  1  0  0  0  0
 26  9  1  6  0  0  0
 26 28  1  0  0  0  0
 27 28  1  0  0  0  0
 29 27  1  6  0  0  0
 29 30  1  0  0  0  0
 29 31  1  0  0  0  0
 30 35  1  0  0  0  0
 31 33  1  0  0  0  0
 31 32  1  1  0  0  0
 33 34  1  1  0  0  0
 33 35  1  0  0  0  0
 35 45  1  6  0  0  0
 36 41  2  0  0  0  0
 36 37  1  0  0  0  0
 37 38  2  0  0  0  0
 38 39  1  0  0  0  0
 39 40  2  0  0  0  0
 39 45  1  0  0  0  0
 40 41  1  0  0  0  0
 40 43  1  0  0  0  0
 41 42  1  0  0  0  0
 43 44  2  0  0  0  0
 44 45  1  0  0  0  0
M  CHG  4   8  -1   9  -1  11  -1  12  -1
M  END
>  <CHROM.1>
162.53172923,-34.57384056,93.87158597,12.15981407,94.21171649,-1.17403571
0.18110340,2.66829433

>  <Name>
ligand

>  <RI>
0

>  <Rbt.Current_Directory>
/home/itssahil/PROJECTS/Mol_Feturizer/New_Systems/rnas/4YAZ

>  <Rbt.Executable>
rbdock ($Id: //depot/dev/client3/rdock/2013.1/src/exe/rbdock.cxx#4 $)

>  <Rbt.Library>
libRbt.so (2013.1, Build901 2013/11/27)

>  <Rbt.Parameter_File>
/export/apps/rDock/src/rDock_2013.1_src/data/scripts/dock_solv.prm

>  <Rbt.Receptor>
prm/pocket_docking_8.prm

>  <SCORE>
-18.9526

>  <SCORE.INTER>
-19.2886

>  <SCORE.INTER.CONST>
1

>  <SCORE.INTER.POLAR>
0

>  <SCORE.INTER.ROT>
2

>  <SCORE.INTER.SOLV>
23.3549

>  <SCORE.INTER.VDW>
-25.5774

>  <SCORE.INTER.norm>
-0.428635

>  <SCORE.INTRA>
0.335965

>  <SCORE.INTRA.DIHEDRAL>
0.141411

>  <SCORE.INTRA.DIHEDRAL.0>
2.39103

>  <SCORE.INTRA.POLAR>
0

>  <SCORE.INTRA.POLAR.0>
0

>  <SCORE.INTRA.REPUL>
0

>  <SCORE.INTRA.REPUL.0>
0

>  <SCORE.INTRA.SOLV>
0.920116

>  <SCORE.INTRA.SOLV.lig_0>
-163.975

>  <SCORE.INTRA.VDW>
-0.194799

>  <SCORE.INTRA.VDW.0>
-1.49176

>  <SCORE.INTRA.norm>
0.00746589

>  <SCORE.RESTR>
0

>  <SCORE.RESTR.CAVITY>
0

>  <SCORE.RESTR.norm>
0

>  <SCORE.SYSTEM>
0

>  <SCORE.SYSTEM.CONST>
0

>  <SCORE.SYSTEM.DIHEDRAL>
0

>  <SCORE.SYSTEM.SOLV>
0

>  <SCORE.SYSTEM.norm>
0

>  <SCORE.heavy>
45

>  <SCORE.norm>
-0.421169

>  <RMSD>
6.027

$$$$
ligand
 OpenBabel11021811513D
libRbt.so/2013.1/901 2013/11/27
 45 51  0  0  0  0  0  0  0  0999 V2000
   95.8552   14.0834   91.1298 C   0  0  0  0  0  0  0  0  0  0  0  0
   91.8977   14.3494   93.0136 C   0  0  0  0  0  0  0  0  0  0  0  0
   96.8400    8.4769   91.1055 N   0  0  0  0  0  0  0  0  0  0  0  0
   97.0389   13.8245   91.5827 N   0  0  0  0  0  0  0  0  0  0  0  0
   95.9344   10.6231   90.9318 N   0  0  0  0  0  0  0  0  0  0  0  0
   98.0911   10.3405   91.7592 N   0  0  0  0  0  0  0  0  0  0  0  0
   99.4289   12.2370   92.3821 O   0  0  0  0  0  0  0  0  0  0  0  0
   92.6013   16.6061   95.0111 O   0  5  0  0  0  0  0  0  0  0  0  0
   90.1893    9.6353   93.0916 O   0  5  0  0  0  0  0  0  0  0  0  0
   92.4426   11.2363   89.9294 O   0  0  0  0  0  0  0  0  0  0  0  0
   94.3701   15.3686   95.5527 O   0  5  0  0  0  0  0  0  0  0  0  0
   92.3341    9.3497   92.5312 O   0  5  0  0  0  0  0  0  0  0  0  0
   93.0718   14.8978   93.4623 O   0  0  0  0  0  0  0  0  0  0  0  0
   93.1310   14.1373   90.7945 O   0  0  0  0  0  0  0  0  0  0  0  0
   91.1820   11.6000   92.2031 O   0  0  0  0  0  0  0  0  0  0  0  0
   96.9568    9.8887   91.2846 C   0  0  0  0  0  0  0  0  0  0  0  0
   98.2599   11.6480   91.9039 C   0  0  0  0  0  0  0  0  0  0  0  0
   97.1906   12.5065   91.5625 C   0  0  0  0  0  0  0  0  0  0  0  0
   96.0312   11.9665   91.0626 C   0  0  0  0  0  0  0  0  0  0  0  0
   93.2724   11.8999   90.8074 C   0  0  2  0  0  0  0  0  0  0  0  0
   92.0783   13.5794   91.7677 C   0  0  1  0  0  0  0  0  0  0  0  0
   92.3521   12.3931   92.0415 C   0  0  1  0  0  0  0  0  0  0  0  0
   93.9180   12.9456   90.3255 C   0  0  2  0  0  0  0  0  0  0  0  0
   95.2302   13.0063   90.8266 N   0  0  0  0  0  0  0  0  0  0  0  0
   93.0754   15.2840   94.9733 P   0  0  2  0  0  0  0  0  0  0  0  0
   91.4053   10.3269   93.0440 P   0  0  1  0  0  0  0  0  0  0  0  0
   90.9275   11.7610   95.1741 C   0  0  0  0  0  0  0  0  0  0  0  0
   91.7023   10.7423   94.5216 O   0  0  0  0  0  0  0  0  0  0  0  0
   91.5422   12.3274   96.3839 C   0  0  1  0  0  0  0  0  0  0  0  0
   92.1619   11.1162   97.2393 O   0  0  0  0  0  0  0  0  0  0  0  0
   92.5190   13.0542   96.0714 C   0  0  1  0  0  0  0  0  0  0  0  0
   92.1238   14.4209   95.8118 O   0  0  0  0  0  0  0  0  0  0  0  0
   93.4864   12.8913   97.2339 C   0  0  1  0  0  0  0  0  0  0  0  0
   93.1819   13.6824   98.1683 O   0  0  0  0  0  0  0  0  0  0  0  0
   93.2663   11.4564   97.7132 C   0  0  2  0  0  0  0  0  0  0  0  0
   97.5551    9.4972   99.7630 N   0  0  0  0  0  0  0  0  0  0  0  0
   96.7759   10.4831  100.2803 C   0  0  0  0  0  0  0  0  0  0  0  0
   95.6993   10.8380   99.5892 N   0  0  0  0  0  0  0  0  0  0  0  0
   95.3674   10.3298   98.3832 C   0  0  0  0  0  0  0  0  0  0  0  0
   96.1520    9.3042   97.8134 C   0  0  0  0  0  0  0  0  0  0  0  0
   97.2983    8.9138   98.5769 C   0  0  0  0  0  0  0  0  0  0  0  0
   98.1621    7.8999   98.0673 N   0  0  0  0  0  0  0  0  0  0  0  0
   95.5879    8.9842   96.7021 N   0  0  0  0  0  0  0  0  0  0  0  0
   94.4991    9.7177   96.5489 C   0  0  0  0  0  0  0  0  0  0  0  0
   94.3576   10.5398   97.5264 N   0  0  0  0  0  0  0  0  0  0  0  0
  1 24  1  0  0  0  0
  1  4  2  0  0  0  0
  2 13  1  0  0  0  0
  2 21  1  0  0  0  0
  3 16  1  0  0  0  0
  4 18  1  0  0  0  0
  5 19  2  0  0  0  0
  5 16  1  0  0  0  0
  6 16  2  0  0  0  0
  6 17  1  0  0  0  0
  7 17  1  0  0  0  0
 11 25  2  0  0  0  0
 12 26  2  0  0  0  0
 13 25  1  0  0  0  0
 14 23  1  0  0  0  0
 15 26  1  0  0  0  0
 17 18  2  0  0  0  0
 18 19  1  0  0  0  0
 19 24  1  0  0  0  0
 20 10  1  6  0  0  0
 20 22  1  0  0  0  0
 20 23  1  0  0  0  0
 21 14  1  1  0  0  0
 21 22  1  0  0  0  0
 22 15  1  6  0  0  0
 23 24  1  1  0  0  0
 25  8  1  1  0  0  0
 25 32  1  0  0  0  0
 26  9  1  1  0  0  0
 26 28  1  0  0  0  0
 27 28  1  0  0  0  0
 29 27  1  6  0  0  0
 29 30  1  0  0  0  0
 29 31  1  0  0  0  0
 30 35  1  0  0  0  0
 31 33  1  0  0  0  0
 31 32  1  1  0  0  0
 33 34  1  1  0  0  0
 33 35  1  0  0  0  0
 35 45  1  6  0  0  0
 36 41  2  0  0  0  0
 36 37  1  0  0  0  0
 37 38  2  0  0  0  0
 38 39  1  0  0  0  0
 39 40  2  0  0  0  0
 39 45  1  0  0  0  0
 40 41  1  0  0  0  0
 40 43  1  0  0  0  0
 41 42  1  0  0  0  0
 43 44  2  0  0  0  0
 44 45  1  0  0  0  0
M  CHG  4   8  -1   9  -1  11  -1  12  -1
M  END
>  <CHROM.1>
-27.31199415,-146.38627928,94.15798466,11.88747737,94.30119356,-1.86870424
-0.54190442,1.73605383

>  <Name>
ligand

>  <RI>
0

>  <Rbt.Current_Directory>
/home/itssahil/PROJECTS/Mol_Feturizer/New_Systems/rnas/4YAZ

>  <Rbt.Executable>
rbdock ($Id: //depot/dev/client3/rdock/2013.1/src/exe/rbdock.cxx#4 $)

>  <Rbt.Library>
libRbt.so (2013.1, Build901 2013/11/27)

>  <Rbt.Parameter_File>
/export/apps/rDock/src/rDock_2013.1_src/data/scripts/dock_solv.prm

>  <Rbt.Receptor>
prm/pocket_docking_7.prm

>  <SCORE>
-19.8663

>  <SCORE.INTER>
-20.0332

>  <SCORE.INTER.CONST>
1

>  <SCORE.INTER.POLAR>
0

>  <SCORE.INTER.ROT>
2

>  <SCORE.INTER.SOLV>
21.6086

>  <SCORE.INTER.VDW>
-25.4916

>  <SCORE.INTER.norm>
-0.445182

>  <SCORE.INTRA>
0.166884

>  <SCORE.INTRA.DIHEDRAL>
0.139983

>  <SCORE.INTRA.DIHEDRAL.0>
2.39103

>  <SCORE.INTRA.POLAR>
0

>  <SCORE.INTRA.POLAR.0>
0

>  <SCORE.INTRA.REPUL>
0

>  <SCORE.INTRA.REPUL.0>
0

>  <SCORE.INTRA.SOLV>
-0.0148696

>  <SCORE.INTRA.SOLV.lig_0>
-163.975

>  <SCORE.INTRA.VDW>
0.104327

>  <SCORE.INTRA.VDW.0>
-1.49176

>  <SCORE.INTRA.norm>
0.00370853

>  <SCORE.RESTR>
0

>  <SCORE.RESTR.CAVITY>
0

>  <SCORE.RESTR.norm>
0

>  <SCORE.SYSTEM>
0

>  <SCORE.SYSTEM.CONST>
0

>  <SCORE.SYSTEM.DIHEDRAL>
0

>  <SCORE.SYSTEM.SOLV>
0

>  <SCORE.SYSTEM.norm>
0

>  <SCORE.heavy>
45

>  <SCORE.norm>
-0.441473

>  <RMSD>
6.082

$$$$
ligand
 OpenBabel11021811513D
libRbt.so/2013.1/901 2013/11/27
 45 51  0  0  0  0  0  0  0  0999 V2000
   91.5847   12.8383   94.7987 C   0  0  0  0  0  0  0  0  0  0  0  0
   94.6832   11.9872   92.5698 C   0  0  0  0  0  0  0  0  0  0  0  0
   88.7426   17.5524   96.2488 N   0  0  0  0  0  0  0  0  0  0  0  0
   90.6857   12.5747   95.6906 N   0  0  0  0  0  0  0  0  0  0  0  0
   90.1987   15.9703   95.3360 N   0  0  0  0  0  0  0  0  0  0  0  0
   88.6292   15.3175   96.9254 N   0  0  0  0  0  0  0  0  0  0  0  0
   88.4419   13.0184   97.5986 O   0  0  0  0  0  0  0  0  0  0  0  0
   94.0516    8.9781   92.2176 O   0  5  0  0  0  0  0  0  0  0  0  0
   98.0069   14.8945   94.9464 O   0  5  0  0  0  0  0  0  0  0  0  0
   94.1883   16.2033   93.7864 O   0  0  0  0  0  0  0  0  0  0  0  0
   93.3522    9.0326   94.3298 O   0  5  0  0  0  0  0  0  0  0  0  0
   96.1484   15.2293   96.1422 O   0  5  0  0  0  0  0  0  0  0  0  0
   93.7025   11.1539   93.0435 O   0  0  0  0  0  0  0  0  0  0  0  0
   92.8256   13.7293   92.4978 O   0  0  0  0  0  0  0  0  0  0  0  0
   96.0298   14.3327   93.7587 O   0  0  0  0  0  0  0  0  0  0  0  0
   89.2235   16.2101   96.1731 C   0  0  0  0  0  0  0  0  0  0  0  0
   89.0150   14.0504   96.8579 C   0  0  0  0  0  0  0  0  0  0  0  0
   90.0785   13.7161   95.9894 C   0  0  0  0  0  0  0  0  0  0  0  0
   90.6520   14.7003   95.2226 C   0  0  0  0  0  0  0  0  0  0  0  0
   93.6224   15.0037   94.1613 C   0  0  2  0  0  0  0  0  0  0  0  0
   94.3179   13.4115   92.6949 C   0  0  1  0  0  0  0  0  0  0  0  0
   94.6932   13.8470   93.8024 C   0  0  1  0  0  0  0  0  0  0  0  0
   92.4714   14.6965   93.5925 C   0  0  2  0  0  0  0  0  0  0  0  0
   91.5987   14.0872   94.5111 N   0  0  0  0  0  0  0  0  0  0  0  0
   94.1870    9.7164   93.4053 P   0  0  2  0  0  0  0  0  0  0  0  0
   96.7228   14.3704   95.1356 P   0  0  1  0  0  0  0  0  0  0  0  0
   97.4365   11.8889   94.7419 C   0  0  0  0  0  0  0  0  0  0  0  0
   96.9440   12.9043   95.6310 O   0  0  0  0  0  0  0  0  0  0  0  0
   97.2253   10.5079   95.2008 C   0  0  1  0  0  0  0  0  0  0  0  0
   97.5788   10.4460   96.7674 O   0  0  0  0  0  0  0  0  0  0  0  0
   96.0078   10.2073   95.1175 C   0  0  1  0  0  0  0  0  0  0  0  0
   95.6637    9.6712   93.8191 O   0  0  0  0  0  0  0  0  0  0  0  0
   95.7864    9.2428   96.2728 C   0  0  1  0  0  0  0  0  0  0  0  0
   96.1106    8.0723   95.9315 O   0  0  0  0  0  0  0  0  0  0  0  0
   96.7495    9.7230   97.3585 C   0  0  2  0  0  0  0  0  0  0  0  0
   97.0716   10.0433  102.4798 N   0  0  0  0  0  0  0  0  0  0  0  0
   97.8621    9.3092  101.6534 C   0  0  0  0  0  0  0  0  0  0  0  0
   97.6124    9.3742  100.3511 N   0  0  0  0  0  0  0  0  0  0  0  0
   96.5904   10.0678   99.8057 C   0  0  0  0  0  0  0  0  0  0  0  0
   95.7480   10.8425  100.6316 C   0  0  0  0  0  0  0  0  0  0  0  0
   96.0393   10.7827  102.0319 C   0  0  0  0  0  0  0  0  0  0  0  0
   95.2249   11.5161  102.9445 N   0  0  0  0  0  0  0  0  0  0  0  0
   94.9030   11.4227   99.8537 N   0  0  0  0  0  0  0  0  0  0  0  0
   95.1709   11.0849   98.6042 C   0  0  0  0  0  0  0  0  0  0  0  0
   96.1580   10.2638   98.5517 N   0  0  0  0  0  0  0  0  0  0  0  0
  1 24  1  0  0  0  0
  1  4  2  0  0  0  0
  2 13  1  0  0  0  0
  2 21  1  0  0  0  0
  3 16  1  0  0  0  0
  4 18  1  0  0  0  0
  5 19  2  0  0  0  0
  5 16  1  0  0  0  0
  6 16  2  0  0  0  0
  6 17  1  0  0  0  0
  7 17  1  0  0  0  0
 11 25  2  0  0  0  0
 12 26  2  0  0  0  0
 13 25  1  0  0  0  0
 14 23  1  0  0  0  0
 15 26  1  0  0  0  0
 17 18  2  0  0  0  0
 18 19  1  0  0  0  0
 19 24  1  0  0  0  0
 20 10  1  6  0  0  0
 20 22  1  0  0  0  0
 20 23  1  0  0  0  0
 21 14  1  1  0  0  0
 21 22  1  0  0  0  0
 22 15  1  6  0  0  0
 23 24  1  1  0  0  0
 25  8  1  6  0  0  0
 25 32  1  0  0  0  0
 26  9  1  6  0  0  0
 26 28  1  0  0  0  0
 27 28  1  0  0  0  0
 29 27  1  1  0  0  0
 29 30  1  0  0  0  0
 29 31  1  0  0  0  0
 30 35  1  0  0  0  0
 31 33  1  0  0  0  0
 31 32  1  6  0  0  0
 33 34  1  6  0  0  0
 33 35  1  0  0  0  0
 35 45  1  1  0  0  0
 36 41  2  0  0  0  0
 36 37  1  0  0  0  0
 37 38  2  0  0  0  0
 38 39  1  0  0  0  0
 39 40  2  0  0  0  0
 39 45  1  0  0  0  0
 40 41  1  0  0  0  0
 40 43  1  0  0  0  0
 41 42  1  0  0  0  0
 43 44  2  0  0  0  0
 44 45  1  0  0  0  0
M  CHG  4   8  -1   9  -1  11  -1  12  -1
M  END
>  <CHROM.1>
30.95095000,-93.89984472,94.32479618,12.29134678,96.00174829,2.54852025,0.61688634
-1.44390486

>  <Name>
ligand

>  <RI>
0

>  <Rbt.Current_Directory>
/home/itssahil/PROJECTS/Mol_Feturizer/New_Systems/rnas/4YAZ

>  <Rbt.Executable>
rbdock ($Id: //depot/dev/client3/rdock/2013.1/src/exe/rbdock.cxx#4 $)

>  <Rbt.Library>
libRbt.so (2013.1, Build901 2013/11/27)

>  <Rbt.Parameter_File>
/export/apps/rDock/src/rDock_2013.1_src/data/scripts/dock_solv.prm

>  <Rbt.Receptor>
prm/pocket_docking_7.prm

>  <SCORE>
-21.3452

>  <SCORE.INTER>
-20.7397

>  <SCORE.INTER.CONST>
1

>  <SCORE.INTER.POLAR>
0

>  <SCORE.INTER.ROT>
2

>  <SCORE.INTER.SOLV>
20.5577

>  <SCORE.INTER.VDW>
-25.6124

>  <SCORE.INTER.norm>
-0.460882

>  <SCORE.INTRA>
-0.605538

>  <SCORE.INTRA.DIHEDRAL>
-0.115326

>  <SCORE.INTRA.DIHEDRAL.0>
2.39103

>  <SCORE.INTRA.POLAR>
0

>  <SCORE.INTRA.POLAR.0>
0

>  <SCORE.INTRA.REPUL>
0

>  <SCORE.INTRA.REPUL.0>
0

>  <SCORE.INTRA.SOLV>
-0.0493428

>  <SCORE.INTRA.SOLV.lig_0>
-163.975

>  <SCORE.INTRA.VDW>
-0.523204

>  <SCORE.INTRA.VDW.0>
-1.49176

>  <SCORE.INTRA.norm>
-0.0134564

>  <SCORE.RESTR>
0

>  <SCORE.RESTR.CAVITY>
0

>  <SCORE.RESTR.norm>
0

>  <SCORE.SYSTEM>
0

>  <SCORE.SYSTEM.CONST>
0

>  <SCORE.SYSTEM.DIHEDRAL>
0

>  <SCORE.SYSTEM.SOLV>
0

>  <SCORE.SYSTEM.norm>
0

>  <SCORE.heavy>
45

>  <SCORE.norm>
-0.474338

>  <RMSD>
6.289

$$$$
ligand
 OpenBabel11021811513D
libRbt.so/2013.1/901 2013/11/27
 45 51  0  0  0  0  0  0  0  0999 V2000
   92.0062   13.7472   96.0864 C   0  0  0  0  0  0  0  0  0  0  0  0
   94.5855   15.0697   92.4544 C   0  0  0  0  0  0  0  0  0  0  0  0
   96.4225   10.6314   97.8726 N   0  0  0  0  0  0  0  0  0  0  0  0
   91.6336   12.5388   96.3587 N   0  0  0  0  0  0  0  0  0  0  0  0
   94.9982   12.3033   97.0773 N   0  0  0  0  0  0  0  0  0  0  0  0
   94.1542   10.1821   97.5287 N   0  0  0  0  0  0  0  0  0  0  0  0
   91.8167    9.7016   97.2467 O   0  0  0  0  0  0  0  0  0  0  0  0
   92.7898   13.9896   90.1771 O   0  5  0  0  0  0  0  0  0  0  0  0
   99.3108   14.6202   94.0725 O   0  5  0  0  0  0  0  0  0  0  0  0
   96.1125   15.7756   96.5374 O   0  0  0  0  0  0  0  0  0  0  0  0
   92.8363   12.0489   91.2657 O   0  5  0  0  0  0  0  0  0  0  0  0
   98.1719   13.4816   95.6225 O   0  5  0  0  0  0  0  0  0  0  0  0
   93.5556   14.1663   92.3954 O   0  0  0  0  0  0  0  0  0  0  0  0
   93.5960   15.6778   94.7220 O   0  0  0  0  0  0  0  0  0  0  0  0
   97.0093   15.1981   94.1388 O   0  0  0  0  0  0  0  0  0  0  0  0
   95.1243   11.0597   97.4607 C   0  0  0  0  0  0  0  0  0  0  0  0
   92.9235   10.5469   97.1953 C   0  0  0  0  0  0  0  0  0  0  0  0
   92.7113   11.8715   96.7508 C   0  0  0  0  0  0  0  0  0  0  0  0
   93.7718   12.7429   96.7114 C   0  0  0  0  0  0  0  0  0  0  0  0
   95.2774   14.8487   95.9515 C   0  0  2  0  0  0  0  0  0  0  0  0
   94.8416   15.5395   93.8298 C   0  0  1  0  0  0  0  0  0  0  0  0
   95.6693   14.7880   94.3844 C   0  0  1  0  0  0  0  0  0  0  0  0
   93.9821   15.0846   96.0480 C   0  0  2  0  0  0  0  0  0  0  0  0
   93.2657   13.8957   96.2718 N   0  0  0  0  0  0  0  0  0  0  0  0
   93.5460   13.2711   91.1184 P   0  0  2  0  0  0  0  0  0  0  0  0
   98.0461   14.0699   94.3114 P   0  0  1  0  0  0  0  0  0  0  0  0
   97.6145   13.4172   91.8194 C   0  0  0  0  0  0  0  0  0  0  0  0
   97.8356   13.0119   93.1799 O   0  0  0  0  0  0  0  0  0  0  0  0
   97.0467   12.3779   90.9477 C   0  0  1  0  0  0  0  0  0  0  0  0
   97.8060   10.9969   91.2626 O   0  0  0  0  0  0  0  0  0  0  0  0
   95.8423   12.1763   91.2453 C   0  0  1  0  0  0  0  0  0  0  0  0
   94.9464   13.0573   90.5293 O   0  0  0  0  0  0  0  0  0  0  0  0
   95.6333   10.6979   90.9542 C   0  0  1  0  0  0  0  0  0  0  0  0
   95.3718   10.5273   89.7318 O   0  0  0  0  0  0  0  0  0  0  0  0
   96.9857   10.0551   91.2622 C   0  0  2  0  0  0  0  0  0  0  0  0
   99.1523    9.0833   95.8224 N   0  0  0  0  0  0  0  0  0  0  0  0
   99.4632   10.0913   94.9656 C   0  0  0  0  0  0  0  0  0  0  0  0
   98.7715   10.1684   93.8352 N   0  0  0  0  0  0  0  0  0  0  0  0
   97.8298    9.2778   93.4568 C   0  0  0  0  0  0  0  0  0  0  0  0
   97.4793    8.2175   94.3198 C   0  0  0  0  0  0  0  0  0  0  0  0
   98.2159    8.1562   95.5457 C   0  0  0  0  0  0  0  0  0  0  0  0
   97.9447    7.1038   96.4692 N   0  0  0  0  0  0  0  0  0  0  0  0
   96.5401    7.5616   93.7337 N   0  0  0  0  0  0  0  0  0  0  0  0
   96.2647    8.1477   92.5814 C   0  0  0  0  0  0  0  0  0  0  0  0
   97.0326    9.1591   92.3851 N   0  0  0  0  0  0  0  0  0  0  0  0
  1 24  1  0  0  0  0
  1  4  2  0  0  0  0
  2 13  1  0  0  0  0
  2 21  1  0  0  0  0
  3 16  1  0  0  0  0
  4 18  1  0  0  0  0
  5 19  2  0  0  0  0
  5 16  1  0  0  0  0
  6 16  2  0  0  0  0
  6 17  1  0  0  0  0
  7 17  1  0  0  0  0
 11 25  2  0  0  0  0
 12 26  2  0  0  0  0
 13 25  1  0  0  0  0
 14 23  1  0  0  0  0
 15 26  1  0  0  0  0
 17 18  2  0  0  0  0
 18 19  1  0  0  0  0
 19 24  1  0  0  0  0
 20 10  1  1  0  0  0
 20 22  1  0  0  0  0
 20 23  1  0  0  0  0
 21 14  1  1  0  0  0
 21 22  1  0  0  0  0
 22 15  1  1  0  0  0
 23 24  1  6  0  0  0
 25  8  1  6  0  0  0
 25 32  1  0  0  0  0
 26  9  1  6  0  0  0
 26 28  1  0  0  0  0
 27 28  1  0  0  0  0
 29 27  1  1  0  0  0
 29 30  1  0  0  0  0
 29 31  1  0  0  0  0
 30 35  1  0  0  0  0
 31 33  1  0  0  0  0
 31 32  1  6  0  0  0
 33 34  1  6  0  0  0
 33 35  1  0  0  0  0
 35 45  1  1  0  0  0
 36 41  2  0  0  0  0
 36 37  1  0  0  0  0
 37 38  2  0  0  0  0
 38 39  1  0  0  0  0
 39 40  2  0  0  0  0
 39 45  1  0  0  0  0
 40 41  1  0  0  0  0
 40 43  1  0  0  0  0
 41 42  1  0  0  0  0
 43 44  2  0  0  0  0
 44 45  1  0  0  0  0
M  CHG  4   8  -1   9  -1  11  -1  12  -1
M  END
>  <CHROM.1>
-46.16361083,3.33253772,95.68826679,12.17186202,94.02768464,2.77971129,0.88721978
-1.13438062

>  <Name>
ligand

>  <RI>
0

>  <Rbt.Current_Directory>
/home/itssahil/PROJECTS/Mol_Feturizer/New_Systems/rnas/4YAZ

>  <Rbt.Executable>
rbdock ($Id: //depot/dev/client3/rdock/2013.1/src/exe/rbdock.cxx#4 $)

>  <Rbt.Library>
libRbt.so (2013.1, Build901 2013/11/27)

>  <Rbt.Parameter_File>
/export/apps/rDock/src/rDock_2013.1_src/data/scripts/dock_solv.prm

>  <Rbt.Receptor>
prm/pocket_docking_6.prm

>  <SCORE>
-10.8693

>  <SCORE.INTER>
-11.7528

>  <SCORE.INTER.CONST>
1

>  <SCORE.INTER.POLAR>
0

>  <SCORE.INTER.ROT>
2

>  <SCORE.INTER.SOLV>
24.018

>  <SCORE.INTER.VDW>
-20.7745

>  <SCORE.INTER.norm>
-0.261173

>  <SCORE.INTRA>
0.883517

>  <SCORE.INTRA.DIHEDRAL>
-0.00244306

>  <SCORE.INTRA.DIHEDRAL.0>
2.39103

>  <SCORE.INTRA.POLAR>
0

>  <SCORE.INTRA.POLAR.0>
0

>  <SCORE.INTRA.REPUL>
0

>  <SCORE.INTRA.REPUL.0>
0

>  <SCORE.INTRA.SOLV>
2.60775

>  <SCORE.INTRA.SOLV.lig_0>
-163.975

>  <SCORE.INTRA.VDW>
-0.419137

>  <SCORE.INTRA.VDW.0>
-1.49176

>  <SCORE.INTRA.norm>
0.0196337

>  <SCORE.RESTR>
0

>  <SCORE.RESTR.CAVITY>
0

>  <SCORE.RESTR.norm>
0

>  <SCORE.SYSTEM>
0

>  <SCORE.SYSTEM.CONST>
0

>  <SCORE.SYSTEM.DIHEDRAL>
0

>  <SCORE.SYSTEM.SOLV>
0

>  <SCORE.SYSTEM.norm>
0

>  <SCORE.heavy>
45

>  <SCORE.norm>
-0.241539

>  <RMSD>
6.293

$$$$
ligand
 OpenBabel11021811513D
libRbt.so/2013.1/901 2013/11/27
 45 51  0  0  0  0  0  0  0  0999 V2000
   98.6276   11.6953   93.9129 C   0  0  0  0  0  0  0  0  0  0  0  0
   96.4517   14.5609   92.2701 C   0  0  0  0  0  0  0  0  0  0  0  0
   99.8950    6.4078   92.2280 N   0  0  0  0  0  0  0  0  0  0  0  0
   98.9513   10.9576   94.9249 N   0  0  0  0  0  0  0  0  0  0  0  0
   99.2638    8.6517   92.3797 N   0  0  0  0  0  0  0  0  0  0  0  0
   99.8283    7.4754   94.3067 N   0  0  0  0  0  0  0  0  0  0  0  0
   99.8314    8.5569   96.4526 O   0  0  0  0  0  0  0  0  0  0  0  0
   96.7880   16.5641   94.6050 O   0  5  0  0  0  0  0  0  0  0  0  0
   92.8298   11.8335   90.1274 O   0  5  0  0  0  0  0  0  0  0  0  0
   96.9114   10.8735   89.8842 O   0  0  0  0  0  0  0  0  0  0  0  0
   96.5268   14.8091   95.9486 O   0  5  0  0  0  0  0  0  0  0  0  0
   94.0320   10.2731   91.1838 O   0  5  0  0  0  0  0  0  0  0  0  0
   97.0254   14.4926   93.5138 O   0  0  0  0  0  0  0  0  0  0  0  0
   98.3679   13.0338   91.5724 O   0  0  0  0  0  0  0  0  0  0  0  0
   95.0357   12.5508   90.6323 O   0  0  0  0  0  0  0  0  0  0  0  0
   99.6383    7.5717   93.0142 C   0  0  0  0  0  0  0  0  0  0  0  0
   99.6419    8.5424   95.0720 C   0  0  0  0  0  0  0  0  0  0  0  0
   99.2164    9.7433   94.4604 C   0  0  0  0  0  0  0  0  0  0  0  0
   99.0441    9.7770   93.0985 C   0  0  0  0  0  0  0  0  0  0  0  0
   97.1088   11.2157   91.2048 C   0  0  2  0  0  0  0  0  0  0  0  0
   96.9059   13.4732   91.3822 C   0  0  1  0  0  0  0  0  0  0  0  0
   96.1547   12.4848   91.5085 C   0  0  1  0  0  0  0  0  0  0  0  0
   98.3435   11.5311   91.5493 C   0  0  2  0  0  0  0  0  0  0  0  0
   98.6599   11.0237   92.8217 N   0  0  0  0  0  0  0  0  0  0  0  0
   96.2561   15.2639   94.6299 P   0  0  2  0  0  0  0  0  0  0  0  0
   93.8352   11.6992   91.0920 P   0  0  1  0  0  0  0  0  0  0  0  0
   93.0491   13.7422   92.5168 C   0  0  0  0  0  0  0  0  0  0  0  0
   93.2420   12.3237   92.3966 O   0  0  0  0  0  0  0  0  0  0  0  0
   92.8698   14.2288   93.8928 C   0  0  1  0  0  0  0  0  0  0  0  0
   91.8809   13.2152   94.6527 O   0  0  0  0  0  0  0  0  0  0  0  0
   93.9592   14.1688   94.5167 C   0  0  1  0  0  0  0  0  0  0  0  0
   94.7506   15.3682   94.3536 O   0  0  0  0  0  0  0  0  0  0  0  0
   93.5465   13.8804   95.9522 C   0  0  1  0  0  0  0  0  0  0  0  0
   93.2528   14.9546   96.5452 O   0  0  0  0  0  0  0  0  0  0  0  0
   92.2829   13.0300   95.8206 C   0  0  2  0  0  0  0  0  0  0  0  0
   92.1513    8.0941   94.3874 N   0  0  0  0  0  0  0  0  0  0  0  0
   91.9330    9.1815   93.6021 C   0  0  0  0  0  0  0  0  0  0  0  0
   92.0236   10.3765   94.1733 N   0  0  0  0  0  0  0  0  0  0  0  0
   92.2539   10.5761   95.4886 C   0  0  0  0  0  0  0  0  0  0  0  0
   92.4856    9.4716   96.3362 C   0  0  0  0  0  0  0  0  0  0  0  0
   92.4072    8.1886   95.7060 C   0  0  0  0  0  0  0  0  0  0  0  0
   92.6050    7.0142   96.4906 N   0  0  0  0  0  0  0  0  0  0  0  0
   92.7176    9.9498   97.5081 N   0  0  0  0  0  0  0  0  0  0  0  0
   92.6700   11.2693   97.4481 C   0  0  0  0  0  0  0  0  0  0  0  0
   92.3759   11.6651   96.2614 N   0  0  0  0  0  0  0  0  0  0  0  0
  1 24  1  0  0  0  0
  1  4  2  0  0  0  0
  2 13  1  0  0  0  0
  2 21  1  0  0  0  0
  3 16  1  0  0  0  0
  4 18  1  0  0  0  0
  5 19  2  0  0  0  0
  5 16  1  0  0  0  0
  6 16  2  0  0  0  0
  6 17  1  0  0  0  0
  7 17  1  0  0  0  0
 11 25  2  0  0  0  0
 12 26  2  0  0  0  0
 13 25  1  0  0  0  0
 14 23  1  0  0  0  0
 15 26  1  0  0  0  0
 17 18  2  0  0  0  0
 18 19  1  0  0  0  0
 19 24  1  0  0  0  0
 20 10  1  6  0  0  0
 20 22  1  0  0  0  0
 20 23  1  0  0  0  0
 21 14  1  1  0  0  0
 21 22  1  0  0  0  0
 22 15  1  6  0  0  0
 23 24  1  1  0  0  0
 25  8  1  6  0  0  0
 25 32  1  0  0  0  0
 26  9  1  6  0  0  0
 26 28  1  0  0  0  0
 27 28  1  0  0  0  0
 29 27  1  6  0  0  0
 29 30  1  0  0  0  0
 29 31  1  0  0  0  0
 30 35  1  0  0  0  0
 31 33  1  0  0  0  0
 31 32  1  1  0  0  0
 33 34  1  1  0  0  0
 33 35  1  0  0  0  0
 35 45  1  6  0  0  0
 36 41  2  0  0  0  0
 36 37  1  0  0  0  0
 37 38  2  0  0  0  0
 38 39  1  0  0  0  0
 39 40  2  0  0  0  0
 39 45  1  0  0  0  0
 40 41  1  0  0  0  0
 40 43  1  0  0  0  0
 41 42  1  0  0  0  0
 43 44  2  0  0  0  0
 44 45  1  0  0  0  0
M  CHG  4   8  -1   9  -1  11  -1  12  -1
M  END
>  <CHROM.1>
17.06963574,9.96415938,95.47172309,11.66241077,93.72284718,-0.44450651,0.37917595
-0.22176464

>  <Name>
ligand

>  <RI>
0

>  <Rbt.Current_Directory>
/home/itssahil/PROJECTS/Mol_Feturizer/New_Systems/rnas/4YAZ

>  <Rbt.Executable>
rbdock ($Id: //depot/dev/client3/rdock/2013.1/src/exe/rbdock.cxx#4 $)

>  <Rbt.Library>
libRbt.so (2013.1, Build901 2013/11/27)

>  <Rbt.Parameter_File>
/export/apps/rDock/src/rDock_2013.1_src/data/scripts/dock_solv.prm

>  <Rbt.Receptor>
prm/pocket_docking_6.prm

>  <SCORE>
-12.3855

>  <SCORE.INTER>
-11.4119

>  <SCORE.INTER.CONST>
1

>  <SCORE.INTER.POLAR>
0

>  <SCORE.INTER.ROT>
2

>  <SCORE.INTER.SOLV>
22.4052

>  <SCORE.INTER.VDW>
-20.0097

>  <SCORE.INTER.norm>
-0.253598

>  <SCORE.INTRA>
-0.973558

>  <SCORE.INTRA.DIHEDRAL>
-0.0405416

>  <SCORE.INTRA.DIHEDRAL.0>
2.39103

>  <SCORE.INTRA.POLAR>
0

>  <SCORE.INTRA.POLAR.0>
0

>  <SCORE.INTRA.REPUL>
0

>  <SCORE.INTRA.REPUL.0>
0

>  <SCORE.INTRA.SOLV>
0.820211

>  <SCORE.INTRA.SOLV.lig_0>
-163.975

>  <SCORE.INTRA.VDW>
-1.36339

>  <SCORE.INTRA.VDW.0>
-1.49176

>  <SCORE.INTRA.norm>
-0.0216346

>  <SCORE.RESTR>
0

>  <SCORE.RESTR.CAVITY>
0

>  <SCORE.RESTR.norm>
0

>  <SCORE.SYSTEM>
0

>  <SCORE.SYSTEM.CONST>
0

>  <SCORE.SYSTEM.DIHEDRAL>
0

>  <SCORE.SYSTEM.SOLV>
0

>  <SCORE.SYSTEM.norm>
0

>  <SCORE.heavy>
45

>  <SCORE.norm>
-0.275232

>  <RMSD>
6.367

$$$$
ligand
 OpenBabel11021811513D
libRbt.so/2013.1/901 2013/11/27
 45 51  0  0  0  0  0  0  0  0999 V2000
   93.5736   14.7093   96.6555 C   0  0  0  0  0  0  0  0  0  0  0  0
   95.5345   14.8444   92.1809 C   0  0  0  0  0  0  0  0  0  0  0  0
   96.5046    9.8475   96.2364 N   0  0  0  0  0  0  0  0  0  0  0  0
   92.8477   13.7039   97.0237 N   0  0  0  0  0  0  0  0  0  0  0  0
   95.7659   12.0632   96.1960 N   0  0  0  0  0  0  0  0  0  0  0  0
   94.3264   10.3760   96.9011 N   0  0  0  0  0  0  0  0  0  0  0  0
   92.1017   10.8892   97.6505 O   0  0  0  0  0  0  0  0  0  0  0  0
   93.0354   14.4158   90.4066 O   0  5  0  0  0  0  0  0  0  0  0  0
  100.0453   12.7789   92.9117 O   0  5  0  0  0  0  0  0  0  0  0  0
   98.0438   15.0696   95.8077 O   0  0  0  0  0  0  0  0  0  0  0  0
   92.6419   12.6178   91.6578 O   0  5  0  0  0  0  0  0  0  0  0  0
   98.9423   12.1664   94.7568 O   0  5  0  0  0  0  0  0  0  0  0  0
   94.2692   14.3680   92.4100 O   0  0  0  0  0  0  0  0  0  0  0  0
   95.3222   15.8286   94.5212 O   0  0  0  0  0  0  0  0  0  0  0  0
   98.1539   14.1436   93.3538 O   0  0  0  0  0  0  0  0  0  0  0  0
   95.4741   10.8134   96.4456 C   0  0  0  0  0  0  0  0  0  0  0  0
   93.3533   11.2422   97.1493 C   0  0  0  0  0  0  0  0  0  0  0  0
   93.5868   12.6106   96.8850 C   0  0  0  0  0  0  0  0  0  0  0  0
   94.8164   13.0021   96.4156 C   0  0  0  0  0  0  0  0  0  0  0  0
   96.8363   14.4871   95.4877 C   0  0  2  0  0  0  0  0  0  0  0  0
   96.2234   15.2292   93.4280 C   0  0  1  0  0  0  0  0  0  0  0  0
   96.8398   14.2470   93.8891 C   0  0  1  0  0  0  0  0  0  0  0  0
   95.7537   15.1734   95.8034 C   0  0  2  0  0  0  0  0  0  0  0  0
   94.7371   14.3262   96.2783 N   0  0  0  0  0  0  0  0  0  0  0  0
   93.6802   13.5006   91.2555 P   0  0  2  0  0  0  0  0  0  0  0  0
   98.7504   12.7243   93.4405 P   0  0  1  0  0  0  0  0  0  0  0  0
   97.6001   12.2007   91.1547 C   0  0  0  0  0  0  0  0  0  0  0  0
   97.9526   11.7809   92.4826 O   0  0  0  0  0  0  0  0  0  0  0  0
   96.5374   11.4097   90.5164 C   0  0  1  0  0  0  0  0  0  0  0  0
   96.8234    9.8577   90.8202 O   0  0  0  0  0  0  0  0  0  0  0  0
   95.4301   11.6606   91.0556 C   0  0  1  0  0  0  0  0  0  0  0  0
   94.7615   12.7838   90.4367 O   0  0  0  0  0  0  0  0  0  0  0  0
   94.6681   10.3475   90.9610 C   0  0  1  0  0  0  0  0  0  0  0  0
   94.1097   10.2480   89.8340 O   0  0  0  0  0  0  0  0  0  0  0  0
   95.7491    9.2721   91.0708 C   0  0  2  0  0  0  0  0  0  0  0  0
   93.6087    5.1870   93.3434 N   0  0  0  0  0  0  0  0  0  0  0  0
   93.2749    5.7241   92.1405 C   0  0  0  0  0  0  0  0  0  0  0  0
   93.9637    6.7825   91.7309 N   0  0  0  0  0  0  0  0  0  0  0  0
   94.9244    7.3930   92.4571 C   0  0  0  0  0  0  0  0  0  0  0  0
   95.2990    6.8646   93.7110 C   0  0  0  0  0  0  0  0  0  0  0  0
   94.5651    5.7105   94.1336 C   0  0  0  0  0  0  0  0  0  0  0  0
   94.8604    5.1222   95.3988 N   0  0  0  0  0  0  0  0  0  0  0  0
   96.2519    7.6078   94.1533 N   0  0  0  0  0  0  0  0  0  0  0  0
   96.5132    8.5448   93.2584 C   0  0  0  0  0  0  0  0  0  0  0  0
   95.7229    8.4500   92.2495 N   0  0  0  0  0  0  0  0  0  0  0  0
  1 24  1  0  0  0  0
  1  4  2  0  0  0  0
  2 13  1  0  0  0  0
  2 21  1  0  0  0  0
  3 16  1  0  0  0  0
  4 18  1  0  0  0  0
  5 19  2  0  0  0  0
  5 16  1  0  0  0  0
  6 16  2  0  0  0  0
  6 17  1  0  0  0  0
  7 17  1  0  0  0  0
 11 25  2  0  0  0  0
 12 26  2  0  0  0  0
 13 25  1  0  0  0  0
 14 23  1  0  0  0  0
 15 26  1  0  0  0  0
 17 18  2  0  0  0  0
 18 19  1  0  0  0  0
 19 24  1  0  0  0  0
 20 10  1  6  0  0  0
 20 22  1  0  0  0  0
 20 23  1  0  0  0  0
 21 14  1  1  0  0  0
 21 22  1  0  0  0  0
 22 15  1  6  0  0  0
 23 24  1  6  0  0  0
 25  8  1  6  0  0  0
 25 32  1  0  0  0  0
 26  9  1  6  0  0  0
 26 28  1  0  0  0  0
 27 28  1  0  0  0  0
 29 27  1  1  0  0  0
 29 30  1  0  0  0  0
 29 31  1  0  0  0  0
 30 35  1  0  0  0  0
 31 33  1  0  0  0  0
 31 32  1  6  0  0  0
 33 34  1  6  0  0  0
 33 35  1  0  0  0  0
 35 45  1  1  0  0  0
 36 41  2  0  0  0  0
 36 37  1  0  0  0  0
 37 38  2  0  0  0  0
 38 39  1  0  0  0  0
 39 40  2  0  0  0  0
 39 45  1  0  0  0  0
 40 41  1  0  0  0  0
 40 43  1  0  0  0  0
 41 42  1  0  0  0  0
 43 44  2  0  0  0  0
 44 45  1  0  0  0  0
M  CHG  4   8  -1   9  -1  11  -1  12  -1
M  END
>  <CHROM.1>
-63.94074160,-153.91619479,95.49507784,11.56232378,93.56207786,0.97858870
1.25471700,0.74354900

>  <Name>
ligand

>  <RI>
0

>  <Rbt.Current_Directory>
/home/itssahil/PROJECTS/Mol_Feturizer/New_Systems/rnas/4YAZ

>  <Rbt.Executable>
rbdock ($Id: //depot/dev/client3/rdock/2013.1/src/exe/rbdock.cxx#4 $)

>  <Rbt.Library>
libRbt.so (2013.1, Build901 2013/11/27)

>  <Rbt.Parameter_File>
/export/apps/rDock/src/rDock_2013.1_src/data/scripts/dock_solv.prm

>  <Rbt.Receptor>
prm/pocket_docking_7.prm

>  <SCORE>
-11.4948

>  <SCORE.INTER>
-13.2217

>  <SCORE.INTER.CONST>
1

>  <SCORE.INTER.POLAR>
0

>  <SCORE.INTER.ROT>
2

>  <SCORE.INTER.SOLV>
17.0793

>  <SCORE.INTER.VDW>
-19.4409

>  <SCORE.INTER.norm>
-0.293816

>  <SCORE.INTRA>
1.72691

>  <SCORE.INTRA.DIHEDRAL>
0.139768

>  <SCORE.INTRA.DIHEDRAL.0>
2.39103

>  <SCORE.INTRA.POLAR>
0

>  <SCORE.INTRA.POLAR.0>
0

>  <SCORE.INTRA.REPUL>
0

>  <SCORE.INTRA.REPUL.0>
0

>  <SCORE.INTRA.SOLV>
3.34426

>  <SCORE.INTRA.SOLV.lig_0>
-163.975

>  <SCORE.INTRA.VDW>
-0.0151088

>  <SCORE.INTRA.VDW.0>
-1.49176

>  <SCORE.INTRA.norm>
0.0383757

>  <SCORE.RESTR>
0

>  <SCORE.RESTR.CAVITY>
0

>  <SCORE.RESTR.norm>
0

>  <SCORE.SYSTEM>
0

>  <SCORE.SYSTEM.CONST>
0

>  <SCORE.SYSTEM.DIHEDRAL>
0

>  <SCORE.SYSTEM.SOLV>
0

>  <SCORE.SYSTEM.norm>
0

>  <SCORE.heavy>
45

>  <SCORE.norm>
-0.25544

>  <RMSD>
6.379

$$$$
ligand
 OpenBabel11021811513D
libRbt.so/2013.1/901 2013/11/27
 45 51  0  0  0  0  0  0  0  0999 V2000
   99.9304    9.9611   94.7414 C   0  0  0  0  0  0  0  0  0  0  0  0
   99.0879   13.4386   92.3183 C   0  0  0  0  0  0  0  0  0  0  0  0
   95.0653    7.0337   95.1468 N   0  0  0  0  0  0  0  0  0  0  0  0
   99.7067    9.6123   95.9668 N   0  0  0  0  0  0  0  0  0  0  0  0
   96.9158    8.2747   94.4454 N   0  0  0  0  0  0  0  0  0  0  0  0
   96.6773    7.7226   96.6936 N   0  0  0  0  0  0  0  0  0  0  0  0
   98.3456    8.3599   98.3014 O   0  0  0  0  0  0  0  0  0  0  0  0
  100.6377   15.4565   94.0801 O   0  5  0  0  0  0  0  0  0  0  0  0
   94.4272   12.7151   90.6146 O   0  5  0  0  0  0  0  0  0  0  0  0
   97.2563    9.6370   91.0168 O   0  0  0  0  0  0  0  0  0  0  0  0
   99.5344   14.5721   95.7988 O   0  5  0  0  0  0  0  0  0  0  0  0
   94.6247   11.0995   92.1466 O   0  5  0  0  0  0  0  0  0  0  0  0
   99.6081   13.3987   93.5865 O   0  0  0  0  0  0  0  0  0  0  0  0
   99.7778   10.9880   92.2230 O   0  0  0  0  0  0  0  0  0  0  0  0
   96.6868   12.1973   91.1258 O   0  0  0  0  0  0  0  0  0  0  0  0
   96.2794    7.7231   95.4455 C   0  0  0  0  0  0  0  0  0  0  0  0
   97.8203    8.3154   97.0113 C   0  0  0  0  0  0  0  0  0  0  0  0
   98.5559    8.9522   95.9863 C   0  0  0  0  0  0  0  0  0  0  0  0
   98.0851    8.9077   94.6971 C   0  0  0  0  0  0  0  0  0  0  0  0
   97.6985   10.1497   92.2174 C   0  0  2  0  0  0  0  0  0  0  0  0
   98.7991   12.0922   91.7877 C   0  0  1  0  0  0  0  0  0  0  0  0
   97.6353   11.7601   92.0920 C   0  0  1  0  0  0  0  0  0  0  0  0
   98.9195    9.8084   92.5852 C   0  0  2  0  0  0  0  0  0  0  0  0
   98.9843    9.5714   93.9695 N   0  0  0  0  0  0  0  0  0  0  0  0
   99.4752   14.7299   94.3879 P   0  0  2  0  0  0  0  0  0  0  0  0
   95.2494   12.3103   91.6726 P   0  0  1  0  0  0  0  0  0  0  0  0
   95.8312   14.7376   92.4419 C   0  0  0  0  0  0  0  0  0  0  0  0
   95.1932   13.4786   92.7098 O   0  0  0  0  0  0  0  0  0  0  0  0
   96.0457   15.5872   93.6228 C   0  0  1  0  0  0  0  0  0  0  0  0
   94.7134   15.5352   94.5202 O   0  0  0  0  0  0  0  0  0  0  0  0
   96.9561   15.1039   94.3421 C   0  0  1  0  0  0  0  0  0  0  0  0
   98.2681   15.5706   93.9519 O   0  0  0  0  0  0  0  0  0  0  0  0
   96.5498   15.4863   95.7572 C   0  0  1  0  0  0  0  0  0  0  0  0
   96.9442   16.6548   96.0231 O   0  0  0  0  0  0  0  0  0  0  0  0
   95.0214   15.4776   95.7292 C   0  0  2  0  0  0  0  0  0  0  0  0
   94.9051   10.4876   96.9620 N   0  0  0  0  0  0  0  0  0  0  0  0
   95.7082   11.0863   96.0436 C   0  0  0  0  0  0  0  0  0  0  0  0
   95.5824   12.3981   95.8838 N   0  0  0  0  0  0  0  0  0  0  0  0
   94.6697   13.1590   96.5249 C   0  0  0  0  0  0  0  0  0  0  0  0
   93.8181   12.5733   97.4861 C   0  0  0  0  0  0  0  0  0  0  0  0
   93.9769   11.1622   97.6665 C   0  0  0  0  0  0  0  0  0  0  0  0
   93.1423   10.4814   98.6014 N   0  0  0  0  0  0  0  0  0  0  0  0
   93.0934   13.5237   97.9629 N   0  0  0  0  0  0  0  0  0  0  0  0
   93.4459   14.6599   97.3869 C   0  0  0  0  0  0  0  0  0  0  0  0
   94.3680   14.4655   96.5132 N   0  0  0  0  0  0  0  0  0  0  0  0
  1 24  1  0  0  0  0
  1  4  2  0  0  0  0
  2 13  1  0  0  0  0
  2 21  1  0  0  0  0
  3 16  1  0  0  0  0
  4 18  1  0  0  0  0
  5 19  2  0  0  0  0
  5 16  1  0  0  0  0
  6 16  2  0  0  0  0
  6 17  1  0  0  0  0
  7 17  1  0  0  0  0
 11 25  2  0  0  0  0
 12 26  2  0  0  0  0
 13 25  1  0  0  0  0
 14 23  1  0  0  0  0
 15 26  1  0  0  0  0
 17 18  2  0  0  0  0
 18 19  1  0  0  0  0
 19 24  1  0  0  0  0
 20 10  1  6  0  0  0
 20 22  1  0  0  0  0
 20 23  1  0  0  0  0
 21 14  1  1  0  0  0
 21 22  1  0  0  0  0
 22 15  1  6  0  0  0
 23 24  1  1  0  0  0
 25  8  1  6  0  0  0
 25 32  1  0  0  0  0
 26  9  1  6  0  0  0
 26 28  1  0  0  0  0
 27 28  1  0  0  0  0
 29 27  1  6  0  0  0
 29 30  1  0  0  0  0
 29 31  1  0  0  0  0
 30 35  1  0  0  0  0
 31 33  1  0  0  0  0
 31 32  1  6  0  0  0
 33 34  1  6  0  0  0
 33 35  1  0  0  0  0
 35 45  1  6  0  0  0
 36 41  2  0  0  0  0
 36 37  1  0  0  0  0
 37 38  2  0  0  0  0
 38 39  1  0  0  0  0
 39 40  2  0  0  0  0
 39 45  1  0  0  0  0
 40 41  1  0  0  0  0
 40 43  1  0  0  0  0
 41 42  1  0  0  0  0
 43 44  2  0  0  0  0
 44 45  1  0  0  0  0
M  CHG  4   8  -1   9  -1  11  -1  12  -1
M  END
>  <CHROM.1>
-21.89094906,77.60826479,96.82222813,12.15448496,94.50735365,-1.49638184
0.81576915,-0.25266904

>  <Name>
ligand

>  <RI>
0

>  <Rbt.Current_Directory>
/home/itssahil/PROJECTS/Mol_Feturizer/New_Systems/rnas/4YAZ

>  <Rbt.Executable>
rbdock ($Id: //depot/dev/client3/rdock/2013.1/src/exe/rbdock.cxx#4 $)

>  <Rbt.Library>
libRbt.so (2013.1, Build901 2013/11/27)

>  <Rbt.Parameter_File>
/export/apps/rDock/src/rDock_2013.1_src/data/scripts/dock_solv.prm

>  <Rbt.Receptor>
prm/pocket_docking_6.prm

>  <SCORE>
-15.8242

>  <SCORE.INTER>
-13.5187

>  <SCORE.INTER.CONST>
1

>  <SCORE.INTER.POLAR>
0

>  <SCORE.INTER.ROT>
2

>  <SCORE.INTER.SOLV>
35.3941

>  <SCORE.INTER.VDW>
-25.7438

>  <SCORE.INTER.norm>
-0.300416

>  <SCORE.INTRA>
-2.31035

>  <SCORE.INTRA.DIHEDRAL>
0.102534

>  <SCORE.INTRA.DIHEDRAL.0>
2.39103

>  <SCORE.INTRA.POLAR>
0

>  <SCORE.INTRA.POLAR.0>
0

>  <SCORE.INTRA.REPUL>
0

>  <SCORE.INTRA.REPUL.0>
0

>  <SCORE.INTRA.SOLV>
0.151292

>  <SCORE.INTRA.SOLV.lig_0>
-163.975

>  <SCORE.INTRA.VDW>
-2.43727

>  <SCORE.INTRA.VDW.0>
-1.49176

>  <SCORE.INTRA.norm>
-0.0513412

>  <SCORE.RESTR>
0.00483422

>  <SCORE.RESTR.CAVITY>
0.00483422

>  <SCORE.RESTR.norm>
0.000107427

>  <SCORE.SYSTEM>
0

>  <SCORE.SYSTEM.CONST>
0

>  <SCORE.SYSTEM.DIHEDRAL>
0

>  <SCORE.SYSTEM.SOLV>
0

>  <SCORE.SYSTEM.norm>
0

>  <SCORE.heavy>
45

>  <SCORE.norm>
-0.35165

>  <RMSD>
6.485

$$$$
ligand
 OpenBabel11021811513D
libRbt.so/2013.1/901 2013/11/27
 45 51  0  0  0  0  0  0  0  0999 V2000
   95.7294   10.8809   97.0349 C   0  0  0  0  0  0  0  0  0  0  0  0
   99.0999   12.2847   94.6255 C   0  0  0  0  0  0  0  0  0  0  0  0
   98.2871    8.6507  101.6052 N   0  0  0  0  0  0  0  0  0  0  0  0
   95.1457   11.2700   98.1217 N   0  0  0  0  0  0  0  0  0  0  0  0
   97.6113    9.2604   99.4539 N   0  0  0  0  0  0  0  0  0  0  0  0
   96.4506   10.0655  101.3034 N   0  0  0  0  0  0  0  0  0  0  0  0
   94.5973   11.5712  101.0338 O   0  0  0  0  0  0  0  0  0  0  0  0
   99.9738   15.0224   95.7738 O   0  5  0  0  0  0  0  0  0  0  0  0
   96.3489   10.4828   90.8396 O   0  5  0  0  0  0  0  0  0  0  0  0
   97.1169    8.3470   94.3735 O   0  0  0  0  0  0  0  0  0  0  0  0
   97.8643   15.2428   96.4480 O   0  5  0  0  0  0  0  0  0  0  0  0
   95.0482   10.0631   92.6083 O   0  5  0  0  0  0  0  0  0  0  0  0
   98.7526   13.0111   95.7356 O   0  0  0  0  0  0  0  0  0  0  0  0
   98.7878   10.2677   96.1504 O   0  0  0  0  0  0  0  0  0  0  0  0
   97.5499   10.4670   92.8872 O   0  0  0  0  0  0  0  0  0  0  0  0
   97.3958    9.3547  100.7400 C   0  0  0  0  0  0  0  0  0  0  0  0
   95.6247   10.7689  100.5406 C   0  0  0  0  0  0  0  0  0  0  0  0
   95.7821   10.7016   99.1378 C   0  0  0  0  0  0  0  0  0  0  0  0
   96.7996    9.9430   98.6135 C   0  0  0  0  0  0  0  0  0  0  0  0
   96.9481    9.4805   95.1394 C   0  0  2  0  0  0  0  0  0  0  0  0
   98.7040   10.8673   94.7361 C   0  0  1  0  0  0  0  0  0  0  0  0
   97.5492   10.7162   94.2879 C   0  0  1  0  0  0  0  0  0  0  0  0
   97.5232    9.4749   96.3276 C   0  0  2  0  0  0  0  0  0  0  0  0
   96.7016   10.0858   97.2912 N   0  0  0  0  0  0  0  0  0  0  0  0
   98.6766   14.5522   95.5087 P   0  0  2  0  0  0  0  0  0  0  0  0
   96.2141   10.8052   92.1950 P   0  0  1  0  0  0  0  0  0  0  0  0
   97.0792   13.2551   91.9266 C   0  0  0  0  0  0  0  0  0  0  0  0
   96.0030   12.3537   92.2322 O   0  0  0  0  0  0  0  0  0  0  0  0
   96.8733   14.6404   92.3747 C   0  0  1  0  0  0  0  0  0  0  0  0
   95.3576   15.0522   92.0339 O   0  0  0  0  0  0  0  0  0  0  0  0
   96.9678   14.7074   93.6262 C   0  0  1  0  0  0  0  0  0  0  0  0
   98.3295   14.9257   94.0617 O   0  0  0  0  0  0  0  0  0  0  0  0
   96.0012   15.8175   94.0100 C   0  0  1  0  0  0  0  0  0  0  0  0
   96.5618   16.9420   93.8960 O   0  0  0  0  0  0  0  0  0  0  0  0
   94.8802   15.7197   92.9753 C   0  0  2  0  0  0  0  0  0  0  0  0
   91.9590   14.9776   97.1407 N   0  0  0  0  0  0  0  0  0  0  0  0
   93.2708   15.3314   97.1122 C   0  0  0  0  0  0  0  0  0  0  0  0
   93.8385   15.4799   95.9214 N   0  0  0  0  0  0  0  0  0  0  0  0
   93.2171   15.2409   94.7468 C   0  0  0  0  0  0  0  0  0  0  0  0
   91.8549   14.8719   94.7355 C   0  0  0  0  0  0  0  0  0  0  0  0
   91.2463   14.7358   96.0241 C   0  0  0  0  0  0  0  0  0  0  0  0
   89.8779   14.3434   96.1100 N   0  0  0  0  0  0  0  0  0  0  0  0
   91.5162   14.7537   93.4997 N   0  0  0  0  0  0  0  0  0  0  0  0
   92.5592   15.0437   92.7414 C   0  0  0  0  0  0  0  0  0  0  0  0
   93.5885   15.3171   93.4606 N   0  0  0  0  0  0  0  0  0  0  0  0
  1 24  1  0  0  0  0
  1  4  2  0  0  0  0
  2 13  1  0  0  0  0
  2 21  1  0  0  0  0
  3 16  1  0  0  0  0
  4 18  1  0  0  0  0
  5 19  2  0  0  0  0
  5 16  1  0  0  0  0
  6 16  2  0  0  0  0
  6 17  1  0  0  0  0
  7 17  1  0  0  0  0
 11 25  2  0  0  0  0
 12 26  2  0  0  0  0
 13 25  1  0  0  0  0
 14 23  1  0  0  0  0
 15 26  1  0  0  0  0
 17 18  2  0  0  0  0
 18 19  1  0  0  0  0
 19 24  1  0  0  0  0
 20 10  1  6  0  0  0
 20 22  1  0  0  0  0
 20 23  1  0  0  0  0
 21 14  1  1  0  0  0
 21 22  1  0  0  0  0
 22 15  1  6  0  0  0
 23 24  1  1  0  0  0
 25  8  1  1  0  0  0
 25 32  1  0  0  0  0
 26  9  1  6  0  0  0
 26 28  1  0  0  0  0
 27 28  1  0  0  0  0
 29 27  1  1  0  0  0
 29 30  1  0  0  0  0
 29 31  1  0  0  0  0
 30 35  1  0  0  0  0
 31 33  1  0  0  0  0
 31 32  1  6  0  0  0
 33 34  1  6  0  0  0
 33 35  1  0  0  0  0
 35 45  1  1  0  0  0
 36 41  2  0  0  0  0
 36 37  1  0  0  0  0
 37 38  2  0  0  0  0
 38 39  1  0  0  0  0
 39 40  2  0  0  0  0
 39 45  1  0  0  0  0
 40 41  1  0  0  0  0
 40 43  1  0  0  0  0
 41 42  1  0  0  0  0
 43 44  2  0  0  0  0
 44 45  1  0  0  0  0
M  CHG  4   8  -1   9  -1  11  -1  12  -1
M  END
>  <CHROM.1>
96.71119030,137.72080449,96.09801985,12.60342799,95.41823422,1.14411548,-0.67233126
2.00270743

>  <Name>
ligand

>  <RI>
0

>  <Rbt.Current_Directory>
/home/itssahil/PROJECTS/Mol_Feturizer/New_Systems/rnas/4YAZ

>  <Rbt.Executable>
rbdock ($Id: //depot/dev/client3/rdock/2013.1/src/exe/rbdock.cxx#4 $)

>  <Rbt.Library>
libRbt.so (2013.1, Build901 2013/11/27)

>  <Rbt.Parameter_File>
/export/apps/rDock/src/rDock_2013.1_src/data/scripts/dock_solv.prm

>  <Rbt.Receptor>
prm/pocket_docking_4.prm

>  <SCORE>
-18.7447

>  <SCORE.INTER>
-19.9629

>  <SCORE.INTER.CONST>
1

>  <SCORE.INTER.POLAR>
0

>  <SCORE.INTER.ROT>
2

>  <SCORE.INTER.SOLV>
38.2715

>  <SCORE.INTER.VDW>
-30.9991

>  <SCORE.INTER.norm>
-0.44362

>  <SCORE.INTRA>
1.14833

>  <SCORE.INTRA.DIHEDRAL>
-0.0952233

>  <SCORE.INTRA.DIHEDRAL.0>
2.39103

>  <SCORE.INTRA.POLAR>
0

>  <SCORE.INTRA.POLAR.0>
0

>  <SCORE.INTRA.REPUL>
0

>  <SCORE.INTRA.REPUL.0>
0

>  <SCORE.INTRA.SOLV>
0.0297537

>  <SCORE.INTRA.SOLV.lig_0>
-163.975

>  <SCORE.INTRA.VDW>
1.18106

>  <SCORE.INTRA.VDW.0>
-1.49176

>  <SCORE.INTRA.norm>
0.0255184

>  <SCORE.RESTR>
0.0698826

>  <SCORE.RESTR.CAVITY>
0.0698826

>  <SCORE.RESTR.norm>
0.00155295

>  <SCORE.SYSTEM>
0

>  <SCORE.SYSTEM.CONST>
0

>  <SCORE.SYSTEM.DIHEDRAL>
0

>  <SCORE.SYSTEM.SOLV>
0

>  <SCORE.SYSTEM.norm>
0

>  <SCORE.heavy>
45

>  <SCORE.norm>
-0.416548

>  <RMSD>
6.680

$$$$
ligand
 OpenBabel11021811513D
libRbt.so/2013.1/901 2013/11/27
 45 51  0  0  0  0  0  0  0  0999 V2000
   95.7127   10.8829   97.0370 C   0  0  0  0  0  0  0  0  0  0  0  0
   99.0907   12.3018   94.6426 C   0  0  0  0  0  0  0  0  0  0  0  0
   98.2719    8.6423  101.6014 N   0  0  0  0  0  0  0  0  0  0  0  0
   95.1274   11.2671   98.1247 N   0  0  0  0  0  0  0  0  0  0  0  0
   97.5963    9.2580   99.4518 N   0  0  0  0  0  0  0  0  0  0  0  0
   96.4326   10.0543  101.3032 N   0  0  0  0  0  0  0  0  0  0  0  0
   94.5764   11.5571  101.0374 O   0  0  0  0  0  0  0  0  0  0  0  0
   99.9627   15.0331   95.8074 O   0  5  0  0  0  0  0  0  0  0  0  0
   96.3475   10.5208   90.8412 O   0  5  0  0  0  0  0  0  0  0  0  0
   97.1076    8.3659   94.3652 O   0  0  0  0  0  0  0  0  0  0  0  0
   97.8517   15.2502   96.4784 O   0  5  0  0  0  0  0  0  0  0  0  0
   95.0430   10.0918   92.6048 O   0  5  0  0  0  0  0  0  0  0  0  0
   98.7412   13.0222   95.7558 O   0  0  0  0  0  0  0  0  0  0  0  0
   98.7750   10.2767   96.1559 O   0  0  0  0  0  0  0  0  0  0  0  0
   97.5441   10.4938   92.8912 O   0  0  0  0  0  0  0  0  0  0  0  0
   97.3797    9.3475  100.7380 C   0  0  0  0  0  0  0  0  0  0  0  0
   95.6057   10.7586  100.5422 C   0  0  0  0  0  0  0  0  0  0  0  0
   95.7643   10.6965   99.1393 C   0  0  0  0  0  0  0  0  0  0  0  0
   96.7837    9.9419   98.6131 C   0  0  0  0  0  0  0  0  0  0  0  0
   96.9374    9.4953   95.1367 C   0  0  2  0  0  0  0  0  0  0  0  0
   98.6943   10.8839   94.7447 C   0  0  1  0  0  0  0  0  0  0  0  0
   97.5405   10.7354   94.2932 C   0  0  1  0  0  0  0  0  0  0  0  0
   97.5099    9.4831   96.3262 C   0  0  2  0  0  0  0  0  0  0  0  0
   96.6863   10.0890   97.2913 N   0  0  0  0  0  0  0  0  0  0  0  0
   98.6659   14.5646   95.5371 P   0  0  2  0  0  0  0  0  0  0  0  0
   96.2099   10.8359   92.1980 P   0  0  1  0  0  0  0  0  0  0  0  0
   97.0759   13.2870   91.9447 C   0  0  0  0  0  0  0  0  0  0  0  0
   95.9989   12.3843   92.2431 O   0  0  0  0  0  0  0  0  0  0  0  0
   96.8693   14.6700   92.3998 C   0  0  1  0  0  0  0  0  0  0  0  0
   95.3544   15.0839   92.0579 O   0  0  0  0  0  0  0  0  0  0  0  0
   96.9612   14.7302   93.6518 C   0  0  1  0  0  0  0  0  0  0  0  0
   98.3220   14.9459   94.0914 O   0  0  0  0  0  0  0  0  0  0  0  0
   95.9940   15.8384   94.0395 C   0  0  1  0  0  0  0  0  0  0  0  0
   96.5549   16.9634   93.9328 O   0  0  0  0  0  0  0  0  0  0  0  0
   94.8751   15.7464   93.0019 C   0  0  2  0  0  0  0  0  0  0  0  0
   91.9440   14.9851   97.1568 N   0  0  0  0  0  0  0  0  0  0  0  0
   93.2558   15.3392   97.1331 C   0  0  0  0  0  0  0  0  0  0  0  0
   93.8264   15.4931   95.9444 N   0  0  0  0  0  0  0  0  0  0  0  0
   93.2078   15.2594   94.7672 C   0  0  0  0  0  0  0  0  0  0  0  0
   91.8457   14.8902   94.7510 C   0  0  0  0  0  0  0  0  0  0  0  0
   91.2341   14.7482   96.0374 C   0  0  0  0  0  0  0  0  0  0  0  0
   89.8655   14.3552   96.1183 N   0  0  0  0  0  0  0  0  0  0  0  0
   91.5100   14.7776   93.5139 N   0  0  0  0  0  0  0  0  0  0  0  0
   92.5548   15.0711   92.7594 C   0  0  0  0  0  0  0  0  0  0  0  0
   93.5823   15.3415   93.4822 N   0  0  0  0  0  0  0  0  0  0  0  0
  1 24  1  0  0  0  0
  1  4  2  0  0  0  0
  2 13  1  0  0  0  0
  2 21  1  0  0  0  0
  3 16  1  0  0  0  0
  4 18  1  0  0  0  0
  5 19  2  0  0  0  0
  5 16  1  0  0  0  0
  6 16  2  0  0  0  0
  6 17  1  0  0  0  0
  7 17  1  0  0  0  0
 11 25  2  0  0  0  0
 12 26  2  0  0  0  0
 13 25  1  0  0  0  0
 14 23  1  0  0  0  0
 15 26  1  0  0  0  0
 17 18  2  0  0  0  0
 18 19  1  0  0  0  0
 19 24  1  0  0  0  0
 20 10  1  6  0  0  0
 20 22  1  0  0  0  0
 20 23  1  0  0  0  0
 21 14  1  1  0  0  0
 21 22  1  0  0  0  0
 22 15  1  6  0  0  0
 23 24  1  1  0  0  0
 25  8  1  1  0  0  0
 25 32  1  0  0  0  0
 26  9  1  6  0  0  0
 26 28  1  0  0  0  0
 27 28  1  0  0  0  0
 29 27  1  1  0  0  0
 29 30  1  0  0  0  0
 29 31  1  0  0  0  0
 30 35  1  0  0  0  0
 31 33  1  0  0  0  0
 31 32  1  6  0  0  0
 33 34  1  6  0  0  0
 33 35  1  0  0  0  0
 35 45  1  1  0  0  0
 36 41  2  0  0  0  0
 36 37  1  0  0  0  0
 37 38  2  0  0  0  0
 38 39  1  0  0  0  0
 39 40  2  0  0  0  0
 39 45  1  0  0  0  0
 40 41  1  0  0  0  0
 40 43  1  0  0  0  0
 41 42  1  0  0  0  0
 43 44  2  0  0  0  0
 44 45  1  0  0  0  0
M  CHG  4   8  -1   9  -1  11  -1  12  -1
M  END
>  <CHROM.1>
96.90030446,137.77588691,96.08776688,12.61779669,95.43063625,1.14515567,-0.67184232
2.00822060

>  <Name>
ligand

>  <RI>
0

>  <Rbt.Current_Directory>
/home/itssahil/PROJECTS/Mol_Feturizer/New_Systems/rnas/4YAZ

>  <Rbt.Executable>
rbdock ($Id: //depot/dev/client3/rdock/2013.1/src/exe/rbdock.cxx#4 $)

>  <Rbt.Library>
libRbt.so (2013.1, Build901 2013/11/27)

>  <Rbt.Parameter_File>
/export/apps/rDock/src/rDock_2013.1_src/data/scripts/dock_solv.prm

>  <Rbt.Receptor>
prm/pocket_docking_4.prm

>  <SCORE>
-18.7482

>  <SCORE.INTER>
-19.9624

>  <SCORE.INTER.CONST>
1

>  <SCORE.INTER.POLAR>
0

>  <SCORE.INTER.ROT>
2

>  <SCORE.INTER.SOLV>
38.4238

>  <SCORE.INTER.VDW>
-31.0495

>  <SCORE.INTER.norm>
-0.443609

>  <SCORE.INTRA>
1.15393

>  <SCORE.INTRA.DIHEDRAL>
-0.0954757

>  <SCORE.INTRA.DIHEDRAL.0>
2.39103

>  <SCORE.INTRA.POLAR>
0

>  <SCORE.INTRA.POLAR.0>
0

>  <SCORE.INTRA.REPUL>
0

>  <SCORE.INTRA.REPUL.0>
0

>  <SCORE.INTRA.SOLV>
0.0294305

>  <SCORE.INTRA.SOLV.lig_0>
-163.975

>  <SCORE.INTRA.VDW>
1.18695

>  <SCORE.INTRA.VDW.0>
-1.49176

>  <SCORE.INTRA.norm>
0.0256428

>  <SCORE.RESTR>
0.060295

>  <SCORE.RESTR.CAVITY>
0.060295

>  <SCORE.RESTR.norm>
0.00133989

>  <SCORE.SYSTEM>
0

>  <SCORE.SYSTEM.CONST>
0

>  <SCORE.SYSTEM.DIHEDRAL>
0

>  <SCORE.SYSTEM.SOLV>
0

>  <SCORE.SYSTEM.norm>
0

>  <SCORE.heavy>
45

>  <SCORE.norm>
-0.416626

>  <RMSD>
6.681

$$$$
ligand
 OpenBabel11021811513D
libRbt.so/2013.1/901 2013/11/27
 45 51  0  0  0  0  0  0  0  0999 V2000
   99.2926   10.3001   94.8735 C   0  0  0  0  0  0  0  0  0  0  0  0
   99.0389   13.3840   92.3848 C   0  0  0  0  0  0  0  0  0  0  0  0
   96.9180    5.1308   94.6635 N   0  0  0  0  0  0  0  0  0  0  0  0
   99.1722    9.8029   96.0616 N   0  0  0  0  0  0  0  0  0  0  0  0
   97.8092    7.2398   94.2001 N   0  0  0  0  0  0  0  0  0  0  0  0
   97.6794    6.4965   96.4016 N   0  0  0  0  0  0  0  0  0  0  0  0
   98.5093    7.8468   98.2077 O   0  0  0  0  0  0  0  0  0  0  0  0
  100.6006   15.3473   94.1970 O   0  5  0  0  0  0  0  0  0  0  0  0
   94.3944   12.7819   90.5919 O   0  5  0  0  0  0  0  0  0  0  0  0
   97.1487    9.6384   91.0068 O   0  0  0  0  0  0  0  0  0  0  0  0
   99.4483   14.4676   95.8857 O   0  5  0  0  0  0  0  0  0  0  0  0
   94.5299   11.1449   92.1079 O   0  5  0  0  0  0  0  0  0  0  0  0
   99.5356   13.3182   93.6612 O   0  0  0  0  0  0  0  0  0  0  0  0
   99.6772   10.9201   92.2725 O   0  0  0  0  0  0  0  0  0  0  0  0
   96.6329   12.2090   91.1361 O   0  0  0  0  0  0  0  0  0  0  0  0
   97.4901    6.3596   95.1126 C   0  0  0  0  0  0  0  0  0  0  0  0
   98.2456    7.6043   96.8609 C   0  0  0  0  0  0  0  0  0  0  0  0
   98.6006    8.6121   95.9360 C   0  0  0  0  0  0  0  0  0  0  0  0
   98.3814    8.4000   94.5972 C   0  0  0  0  0  0  0  0  0  0  0  0
   97.5807   10.1275   92.2208 C   0  0  2  0  0  0  0  0  0  0  0  0
   98.7304   12.0503   91.8333 C   0  0  1  0  0  0  0  0  0  0  0  0
   97.5545   11.7403   92.1134 C   0  0  1  0  0  0  0  0  0  0  0  0
   98.7874    9.7554   92.6057 C   0  0  2  0  0  0  0  0  0  0  0  0
   98.8226    9.5013   93.9881 N   0  0  0  0  0  0  0  0  0  0  0  0
   99.4174   14.6428   94.4759 P   0  0  2  0  0  0  0  0  0  0  0  0
   95.1889   12.3471   91.6591 P   0  0  1  0  0  0  0  0  0  0  0  0
   95.8093   14.7522   92.4671 C   0  0  0  0  0  0  0  0  0  0  0  0
   95.1396   13.5044   92.7089 O   0  0  0  0  0  0  0  0  0  0  0  0
   96.0212   15.5834   93.6615 C   0  0  1  0  0  0  0  0  0  0  0  0
   94.6726   15.5501   94.5349 O   0  0  0  0  0  0  0  0  0  0  0  0
   96.9082   15.0721   94.3907 C   0  0  1  0  0  0  0  0  0  0  0  0
   98.2367   15.5145   94.0290 O   0  0  0  0  0  0  0  0  0  0  0  0
   96.4854   15.4470   95.8030 C   0  0  1  0  0  0  0  0  0  0  0  0
   96.9002   16.6036   96.0895 O   0  0  0  0  0  0  0  0  0  0  0  0
   94.9578   15.4721   95.7483 C   0  0  2  0  0  0  0  0  0  0  0  0
   93.9569   10.4499   96.2067 N   0  0  0  0  0  0  0  0  0  0  0  0
   94.6643   11.0576   95.2182 C   0  0  0  0  0  0  0  0  0  0  0  0
   94.8135   12.3746   95.2937 N   0  0  0  0  0  0  0  0  0  0  0  0
   94.2569   13.1501   96.2486 C   0  0  0  0  0  0  0  0  0  0  0  0
   93.5155   12.5556   97.2920 C   0  0  0  0  0  0  0  0  0  0  0  0
   93.3790   11.1328   97.2131 C   0  0  0  0  0  0  0  0  0  0  0  0
   92.6262   10.4488   98.2128 N   0  0  0  0  0  0  0  0  0  0  0  0
   93.1465   13.5107   98.0714 N   0  0  0  0  0  0  0  0  0  0  0  0
   93.6220   14.6517   97.6034 C   0  0  0  0  0  0  0  0  0  0  0  0
   94.2691   14.4655   96.5088 N   0  0  0  0  0  0  0  0  0  0  0  0
  1 24  1  0  0  0  0
  1  4  2  0  0  0  0
  2 13  1  0  0  0  0
  2 21  1  0  0  0  0
  3 16  1  0  0  0  0
  4 18  1  0  0  0  0
  5 19  2  0  0  0  0
  5 16  1  0  0  0  0
  6 16  2  0  0  0  0
  6 17  1  0  0  0  0
  7 17  1  0  0  0  0
 11 25  2  0  0  0  0
 12 26  2  0  0  0  0
 13 25  1  0  0  0  0
 14 23  1  0  0  0  0
 15 26  1  0  0  0  0
 17 18  2  0  0  0  0
 18 19  1  0  0  0  0
 19 24  1  0  0  0  0
 20 10  1  6  0  0  0
 20 22  1  0  0  0  0
 20 23  1  0  0  0  0
 21 14  1  1  0  0  0
 21 22  1  0  0  0  0
 22 15  1  6  0  0  0
 23 24  1  1  0  0  0
 25  8  1  6  0  0  0
 25 32  1  0  0  0  0
 26  9  1  6  0  0  0
 26 28  1  0  0  0  0
 27 28  1  0  0  0  0
 29 27  1  6  0  0  0
 29 30  1  0  0  0  0
 29 31  1  0  0  0  0
 30 35  1  0  0  0  0
 31 33  1  0  0  0  0
 31 32  1  6  0  0  0
 33 34  1  6  0  0  0
 33 35  1  0  0  0  0
 35 45  1  6  0  0  0
 36 41  2  0  0  0  0
 36 37  1  0  0  0  0
 37 38  2  0  0  0  0
 38 39  1  0  0  0  0
 39 40  2  0  0  0  0
 39 45  1  0  0  0  0
 40 41  1  0  0  0  0
 40 43  1  0  0  0  0
 41 42  1  0  0  0  0
 43 44  2  0  0  0  0
 44 45  1  0  0  0  0
M  CHG  4   8  -1   9  -1  11  -1  12  -1
M  END
>  <CHROM.1>
14.23625956,57.03621168,96.79020885,11.99098682,94.43500570,-1.25369092,0.72955307
-0.25825349

>  <Name>
ligand

>  <RI>
0

>  <Rbt.Current_Directory>
/home/itssahil/PROJECTS/Mol_Feturizer/New_Systems/rnas/4YAZ

>  <Rbt.Executable>
rbdock ($Id: //depot/dev/client3/rdock/2013.1/src/exe/rbdock.cxx#4 $)

>  <Rbt.Library>
libRbt.so (2013.1, Build901 2013/11/27)

>  <Rbt.Parameter_File>
/export/apps/rDock/src/rDock_2013.1_src/data/scripts/dock_solv.prm

>  <Rbt.Receptor>
prm/pocket_docking_8.prm

>  <SCORE>
-13.3124

>  <SCORE.INTER>
-11.7391

>  <SCORE.INTER.CONST>
1

>  <SCORE.INTER.POLAR>
0

>  <SCORE.INTER.ROT>
2

>  <SCORE.INTER.SOLV>
35.3015

>  <SCORE.INTER.VDW>
-24.5266

>  <SCORE.INTER.norm>
-0.26087

>  <SCORE.INTRA>
-1.57388

>  <SCORE.INTRA.DIHEDRAL>
-0.0241543

>  <SCORE.INTRA.DIHEDRAL.0>
2.39103

>  <SCORE.INTRA.POLAR>
0

>  <SCORE.INTRA.POLAR.0>
0

>  <SCORE.INTRA.REPUL>
0

>  <SCORE.INTRA.REPUL.0>
0

>  <SCORE.INTRA.SOLV>
1.15146

>  <SCORE.INTRA.SOLV.lig_0>
-163.975

>  <SCORE.INTRA.VDW>
-2.13753

>  <SCORE.INTRA.VDW.0>
-1.49176

>  <SCORE.INTRA.norm>
-0.034975

>  <SCORE.RESTR>
0.000587293

>  <SCORE.RESTR.CAVITY>
0.000587293

>  <SCORE.RESTR.norm>
1.3051e-05

>  <SCORE.SYSTEM>
0

>  <SCORE.SYSTEM.CONST>
0

>  <SCORE.SYSTEM.DIHEDRAL>
0

>  <SCORE.SYSTEM.SOLV>
0

>  <SCORE.SYSTEM.norm>
0

>  <SCORE.heavy>
45

>  <SCORE.norm>
-0.295832

>  <RMSD>
6.686

$$$$
ligand
 OpenBabel11021811523D
libRbt.so/2013.1/901 2013/11/27
 45 51  0  0  0  0  0  0  0  0999 V2000
   94.7182   11.5616   90.0284 C   0  0  0  0  0  0  0  0  0  0  0  0
   95.8430    8.1256   92.6602 C   0  0  0  0  0  0  0  0  0  0  0  0
   96.6682   15.7597   93.3415 N   0  0  0  0  0  0  0  0  0  0  0  0
   93.8224   12.4833   90.1743 N   0  0  0  0  0  0  0  0  0  0  0  0
   96.3613   13.8074   92.0963 N   0  0  0  0  0  0  0  0  0  0  0  0
   94.6424   15.3694   92.2418 N   0  0  0  0  0  0  0  0  0  0  0  0
   92.5697   15.0314   91.0740 O   0  0  0  0  0  0  0  0  0  0  0  0
   93.0750    6.7421   92.7044 O   0  5  0  0  0  0  0  0  0  0  0  0
   99.1662   10.0261   95.8994 O   0  5  0  0  0  0  0  0  0  0  0  0
   98.9250   11.1880   91.8705 O   0  0  0  0  0  0  0  0  0  0  0  0
   92.2554    8.7365   93.2561 O   0  5  0  0  0  0  0  0  0  0  0  0
   98.3225   11.8681   94.9551 O   0  5  0  0  0  0  0  0  0  0  0  0
   94.5720    8.5183   92.3271 O   0  0  0  0  0  0  0  0  0  0  0  0
   96.5447    9.5816   90.6908 O   0  0  0  0  0  0  0  0  0  0  0  0
   98.1323    9.6007   93.8052 O   0  0  0  0  0  0  0  0  0  0  0  0
   95.8432   14.9288   92.5245 C   0  0  0  0  0  0  0  0  0  0  0  0
   93.8556   14.6504   91.4526 C   0  0  0  0  0  0  0  0  0  0  0  0
   94.3386   13.4147   90.9660 C   0  0  0  0  0  0  0  0  0  0  0  0
   95.6109   13.0163   91.2948 C   0  0  0  0  0  0  0  0  0  0  0  0
   97.5473   11.1736   91.9101 C   0  0  2  0  0  0  0  0  0  0  0  0
   96.8732    9.0089   92.0803 C   0  0  1  0  0  0  0  0  0  0  0  0
   97.1180    9.9448   92.8687 C   0  0  1  0  0  0  0  0  0  0  0  0
   96.9301   11.0332   90.7516 C   0  0  2  0  0  0  0  0  0  0  0  0
   95.7808   11.8407   90.6886 N   0  0  0  0  0  0  0  0  0  0  0  0
   93.4536    7.9726   93.2671 P   0  0  2  0  0  0  0  0  0  0  0  0
   98.1033   10.4490   95.0926 P   0  0  1  0  0  0  0  0  0  0  0  0
   96.3889    8.7386   96.0712 C   0  0  0  0  0  0  0  0  0  0  0  0
   96.8095   10.1014   95.8984 O   0  0  0  0  0  0  0  0  0  0  0  0
   94.9885    8.5704   96.4871 C   0  0  1  0  0  0  0  0  0  0  0  0
   94.6748    9.6598   97.6262 O   0  0  0  0  0  0  0  0  0  0  0  0
   94.2190    8.8486   95.5331 C   0  0  1  0  0  0  0  0  0  0  0  0
   93.9520    7.7023   94.6927 O   0  0  0  0  0  0  0  0  0  0  0  0
   92.9872    9.4298   96.2105 C   0  0  1  0  0  0  0  0  0  0  0  0
   92.2143    8.5031   96.5788 O   0  0  0  0  0  0  0  0  0  0  0  0
   93.5338   10.1365   97.4511 C   0  0  2  0  0  0  0  0  0  0  0  0
   91.1248   14.2393   95.5021 N   0  0  0  0  0  0  0  0  0  0  0  0
   90.9710   12.9428   95.1248 C   0  0  0  0  0  0  0  0  0  0  0  0
   91.6886   12.0294   95.7676 N   0  0  0  0  0  0  0  0  0  0  0  0
   92.6017   12.3117   96.7213 C   0  0  0  0  0  0  0  0  0  0  0  0
   92.7897   13.6463   97.1402 C   0  0  0  0  0  0  0  0  0  0  0  0
   91.9953   14.6209   96.4559 C   0  0  0  0  0  0  0  0  0  0  0  0
   92.1359   15.9984   96.7977 N   0  0  0  0  0  0  0  0  0  0  0  0
   93.6729   13.6171   98.0756 N   0  0  0  0  0  0  0  0  0  0  0  0
   94.0315   12.3624   98.2854 C   0  0  0  0  0  0  0  0  0  0  0  0
   93.4227   11.5693   97.4781 N   0  0  0  0  0  0  0  0  0  0  0  0
  1 24  1  0  0  0  0
  1  4  2  0  0  0  0
  2 13  1  0  0  0  0
  2 21  1  0  0  0  0
  3 16  1  0  0  0  0
  4 18  1  0  0  0  0
  5 19  2  0  0  0  0
  5 16  1  0  0  0  0
  6 16  2  0  0  0  0
  6 17  1  0  0  0  0
  7 17  1  0  0  0  0
 11 25  2  0  0  0  0
 12 26  2  0  0  0  0
 13 25  1  0  0  0  0
 14 23  1  0  0  0  0
 15 26  1  0  0  0  0
 17 18  2  0  0  0  0
 18 19  1  0  0  0  0
 19 24  1  0  0  0  0
 20 10  1  6  0  0  0
 20 22  1  0  0  0  0
 20 23  1  0  0  0  0
 21 14  1  6  0  0  0
 21 22  1  0  0  0  0
 22 15  1  1  0  0  0
 23 24  1  1  0  0  0
 25  8  1  6  0  0  0
 25 32  1  0  0  0  0
 26  9  1  1  0  0  0
 26 28  1  0  0  0  0
 27 28  1  0  0  0  0
 29 27  1  6  0  0  0
 29 30  1  0  0  0  0
 29 31  1  0  0  0  0
 30 35  1  0  0  0  0
 31 33  1  0  0  0  0
 31 32  1  1  0  0  0
 33 34  1  1  0  0  0
 33 35  1  0  0  0  0
 35 45  1  6  0  0  0
 36 41  2  0  0  0  0
 36 37  1  0  0  0  0
 37 38  2  0  0  0  0
 38 39  1  0  0  0  0
 39 40  2  0  0  0  0
 39 45  1  0  0  0  0
 40 41  1  0  0  0  0
 40 43  1  0  0  0  0
 41 42  1  0  0  0  0
 43 44  2  0  0  0  0
 44 45  1  0  0  0  0
M  CHG  4   8  -1   9  -1  11  -1  12  -1
M  END
>  <CHROM.1>
-33.37913047,144.18244249,94.88664123,11.14025525,94.08834775,-0.11051532
0.87588525,-0.53400367

>  <Name>
ligand

>  <RI>
0

>  <Rbt.Current_Directory>
/home/itssahil/PROJECTS/Mol_Feturizer/New_Systems/rnas/4YAZ

>  <Rbt.Executable>
rbdock ($Id: //depot/dev/client3/rdock/2013.1/src/exe/rbdock.cxx#4 $)

>  <Rbt.Library>
libRbt.so (2013.1, Build901 2013/11/27)

>  <Rbt.Parameter_File>
/export/apps/rDock/src/rDock_2013.1_src/data/scripts/dock_solv.prm

>  <Rbt.Receptor>
prm/pocket_docking_8.prm

>  <SCORE>
-14.6942

>  <SCORE.INTER>
-15.1647

>  <SCORE.INTER.CONST>
1

>  <SCORE.INTER.POLAR>
0

>  <SCORE.INTER.ROT>
2

>  <SCORE.INTER.SOLV>
18.0553

>  <SCORE.INTER.VDW>
-21.0616

>  <SCORE.INTER.norm>
-0.336994

>  <SCORE.INTRA>
0.470493

>  <SCORE.INTRA.DIHEDRAL>
-0.121157

>  <SCORE.INTRA.DIHEDRAL.0>
2.39103

>  <SCORE.INTRA.POLAR>
0

>  <SCORE.INTRA.POLAR.0>
0

>  <SCORE.INTRA.REPUL>
0

>  <SCORE.INTRA.REPUL.0>
0

>  <SCORE.INTRA.SOLV>
0.117596

>  <SCORE.INTRA.SOLV.lig_0>
-163.975

>  <SCORE.INTRA.VDW>
0.472273

>  <SCORE.INTRA.VDW.0>
-1.49176

>  <SCORE.INTRA.norm>
0.0104554

>  <SCORE.RESTR>
0

>  <SCORE.RESTR.CAVITY>
0

>  <SCORE.RESTR.norm>
0

>  <SCORE.SYSTEM>
0

>  <SCORE.SYSTEM.CONST>
0

>  <SCORE.SYSTEM.DIHEDRAL>
0

>  <SCORE.SYSTEM.SOLV>
0

>  <SCORE.SYSTEM.norm>
0

>  <SCORE.heavy>
45

>  <SCORE.norm>
-0.326538

>  <RMSD>
6.702

$$$$
ligand
 OpenBabel11021811513D
libRbt.so/2013.1/901 2013/11/27
 45 51  0  0  0  0  0  0  0  0999 V2000
   94.8093   11.7769   99.6241 C   0  0  0  0  0  0  0  0  0  0  0  0
   95.3944   11.0901   94.4078 C   0  0  0  0  0  0  0  0  0  0  0  0
   97.3582    7.4465   96.9494 N   0  0  0  0  0  0  0  0  0  0  0  0
   95.8147   11.3420  100.3120 N   0  0  0  0  0  0  0  0  0  0  0  0
   95.9614    9.1959   97.6165 N   0  0  0  0  0  0  0  0  0  0  0  0
   97.7371    8.5502   98.9752 N   0  0  0  0  0  0  0  0  0  0  0  0
   98.1943    9.7025  101.0338 O   0  0  0  0  0  0  0  0  0  0  0  0
   97.8043    9.3156   93.6197 O   0  5  0  0  0  0  0  0  0  0  0  0
   94.0609   15.9225   94.2753 O   0  5  0  0  0  0  0  0  0  0  0  0
   92.4177   13.1330   96.9508 O   0  0  0  0  0  0  0  0  0  0  0  0
   98.8592   10.2445   95.3453 O   0  5  0  0  0  0  0  0  0  0  0  0
   94.4267   15.5945   96.4558 O   0  5  0  0  0  0  0  0  0  0  0  0
   96.3719   10.4364   95.1132 O   0  0  0  0  0  0  0  0  0  0  0  0
   93.9013   10.4672   96.3759 O   0  0  0  0  0  0  0  0  0  0  0  0
   93.9699   13.6324   94.8936 O   0  0  0  0  0  0  0  0  0  0  0  0
   96.9924    8.4445   97.9027 C   0  0  0  0  0  0  0  0  0  0  0  0
   97.4596    9.4902   99.8687 C   0  0  0  0  0  0  0  0  0  0  0  0
   96.3463   10.3297   99.6388 C   0  0  0  0  0  0  0  0  0  0  0  0
   95.6127   10.1698   98.4891 C   0  0  0  0  0  0  0  0  0  0  0  0
   93.6501   12.5522   97.1604 C   0  0  2  0  0  0  0  0  0  0  0  0
   94.2455   11.4635   95.2554 C   0  0  1  0  0  0  0  0  0  0  0  0
   94.4352   12.5943   95.7480 C   0  0  1  0  0  0  0  0  0  0  0  0
   93.6432   11.3061   97.5960 C   0  0  2  0  0  0  0  0  0  0  0  0
   94.6558   11.0966   98.5487 N   0  0  0  0  0  0  0  0  0  0  0  0
   97.7806   10.4531   94.4441 P   0  0  2  0  0  0  0  0  0  0  0  0
   94.6330   14.9992   95.1582 P   0  0  1  0  0  0  0  0  0  0  0  0
   96.5426   14.2857   93.5253 C   0  0  0  0  0  0  0  0  0  0  0  0
   96.1401   14.9176   94.7511 O   0  0  0  0  0  0  0  0  0  0  0  0
   97.9666   13.9263   93.4519 C   0  0  1  0  0  0  0  0  0  0  0  0
   98.8194   15.1541   94.0419 O   0  0  0  0  0  0  0  0  0  0  0  0
   98.2055   12.9537   94.2114 C   0  0  1  0  0  0  0  0  0  0  0  0
   98.0031   11.6821   93.5530 O   0  0  0  0  0  0  0  0  0  0  0  0
   99.6314   13.1958   94.6828 C   0  0  1  0  0  0  0  0  0  0  0  0
  100.4523   12.7499   93.8348 O   0  0  0  0  0  0  0  0  0  0  0  0
   99.7599   14.7181   94.7385 C   0  0  2  0  0  0  0  0  0  0  0  0
   97.4453   17.2539   98.5656 N   0  0  0  0  0  0  0  0  0  0  0  0
   96.9076   16.9142   97.3646 C   0  0  0  0  0  0  0  0  0  0  0  0
   97.6803   16.2484   96.5149 N   0  0  0  0  0  0  0  0  0  0  0  0
   98.9766   15.9459   96.7414 C   0  0  0  0  0  0  0  0  0  0  0  0
   99.5704   16.2820   97.9769 C   0  0  0  0  0  0  0  0  0  0  0  0
   98.7221   16.9805   98.8945 C   0  0  0  0  0  0  0  0  0  0  0  0
   99.2449   17.3807  100.1596 N   0  0  0  0  0  0  0  0  0  0  0  0
  100.7789   15.8421   97.9357 N   0  0  0  0  0  0  0  0  0  0  0  0
  100.9742   15.2377   96.7766 C   0  0  0  0  0  0  0  0  0  0  0  0
   99.9227   15.3040   96.0408 N   0  0  0  0  0  0  0  0  0  0  0  0
  1 24  1  0  0  0  0
  1  4  2  0  0  0  0
  2 13  1  0  0  0  0
  2 21  1  0  0  0  0
  3 16  1  0  0  0  0
  4 18  1  0  0  0  0
  5 19  2  0  0  0  0
  5 16  1  0  0  0  0
  6 16  2  0  0  0  0
  6 17  1  0  0  0  0
  7 17  1  0  0  0  0
 11 25  2  0  0  0  0
 12 26  2  0  0  0  0
 13 25  1  0  0  0  0
 14 23  1  0  0  0  0
 15 26  1  0  0  0  0
 17 18  2  0  0  0  0
 18 19  1  0  0  0  0
 19 24  1  0  0  0  0
 20 10  1  6  0  0  0
 20 22  1  0  0  0  0
 20 23  1  0  0  0  0
 21 14  1  1  0  0  0
 21 22  1  0  0  0  0
 22 15  1  6  0  0  0
 23 24  1  1  0  0  0
 25  8  1  6  0  0  0
 25 32  1  0  0  0  0
 26  9  1  6  0  0  0
 26 28  1  0  0  0  0
 27 28  1  0  0  0  0
 29 27  1  1  0  0  0
 29 30  1  0  0  0  0
 29 31  1  0  0  0  0
 30 35  1  0  0  0  0
 31 33  1  0  0  0  0
 31 32  1  6  0  0  0
 33 34  1  6  0  0  0
 33 35  1  0  0  0  0
 35 45  1  1  0  0  0
 36 41  2  0  0  0  0
 36 37  1  0  0  0  0
 37 38  2  0  0  0  0
 38 39  1  0  0  0  0
 39 40  2  0  0  0  0
 39 45  1  0  0  0  0
 40 41  1  0  0  0  0
 40 43  1  0  0  0  0
 41 42  1  0  0  0  0
 43 44  2  0  0  0  0
 44 45  1  0  0  0  0
M  CHG  4   8  -1   9  -1  11  -1  12  -1
M  END
>  <CHROM.1>
171.31318210,21.79325662,96.86641625,12.81103165,96.39234606,-1.95224915
-0.46809837,-0.36071844

>  <Name>
ligand

>  <RI>
0

>  <Rbt.Current_Directory>
/home/itssahil/PROJECTS/Mol_Feturizer/New_Systems/rnas/4YAZ

>  <Rbt.Executable>
rbdock ($Id: //depot/dev/client3/rdock/2013.1/src/exe/rbdock.cxx#4 $)

>  <Rbt.Library>
libRbt.so (2013.1, Build901 2013/11/27)

>  <Rbt.Parameter_File>
/export/apps/rDock/src/rDock_2013.1_src/data/scripts/dock_solv.prm

>  <Rbt.Receptor>
prm/pocket_docking_3.prm

>  <SCORE>
-29.8283

>  <SCORE.INTER>
-30.6282

>  <SCORE.INTER.CONST>
1

>  <SCORE.INTER.POLAR>
0

>  <SCORE.INTER.ROT>
2

>  <SCORE.INTER.SOLV>
33.435

>  <SCORE.INTER.VDW>
-36.4971

>  <SCORE.INTER.norm>
-0.680626

>  <SCORE.INTRA>
0.798967

>  <SCORE.INTRA.DIHEDRAL>
-0.105442

>  <SCORE.INTRA.DIHEDRAL.0>
2.39103

>  <SCORE.INTRA.POLAR>
0

>  <SCORE.INTRA.POLAR.0>
0

>  <SCORE.INTRA.REPUL>
0

>  <SCORE.INTRA.REPUL.0>
0

>  <SCORE.INTRA.SOLV>
6.30358

>  <SCORE.INTRA.SOLV.lig_0>
-163.975

>  <SCORE.INTRA.VDW>
-2.3001

>  <SCORE.INTRA.VDW.0>
-1.49176

>  <SCORE.INTRA.norm>
0.0177548

>  <SCORE.RESTR>
0.000878019

>  <SCORE.RESTR.CAVITY>
0.000878019

>  <SCORE.RESTR.norm>
1.95115e-05

>  <SCORE.SYSTEM>
0

>  <SCORE.SYSTEM.CONST>
0

>  <SCORE.SYSTEM.DIHEDRAL>
0

>  <SCORE.SYSTEM.SOLV>
0

>  <SCORE.SYSTEM.norm>
0

>  <SCORE.heavy>
45

>  <SCORE.norm>
-0.662852

>  <RMSD>
6.732

$$$$
ligand
 OpenBabel11021811513D
libRbt.so/2013.1/901 2013/11/27
 45 51  0  0  0  0  0  0  0  0999 V2000
   94.8283   11.6227   99.4798 C   0  0  0  0  0  0  0  0  0  0  0  0
   95.4330   11.1536   94.2486 C   0  0  0  0  0  0  0  0  0  0  0  0
   97.3578    7.3671   96.6702 N   0  0  0  0  0  0  0  0  0  0  0  0
   95.8290   11.1590  100.1556 N   0  0  0  0  0  0  0  0  0  0  0  0
   95.9701    9.1023   97.3910 N   0  0  0  0  0  0  0  0  0  0  0  0
   97.7377    8.4007   98.7324 N   0  0  0  0  0  0  0  0  0  0  0  0
   98.1961    9.4813  100.8292 O   0  0  0  0  0  0  0  0  0  0  0  0
   97.8525    9.4220   93.3971 O   0  5  0  0  0  0  0  0  0  0  0  0
   94.0846   15.9832   94.3175 O   0  5  0  0  0  0  0  0  0  0  0  0
   92.4371   13.0760   96.8619 O   0  0  0  0  0  0  0  0  0  0  0  0
   98.8958   10.2788   95.1665 O   0  5  0  0  0  0  0  0  0  0  0  0
   94.4405   15.5626   96.4838 O   0  5  0  0  0  0  0  0  0  0  0  0
   96.4091   10.4730   94.9301 O   0  0  0  0  0  0  0  0  0  0  0  0
   93.9321   10.4419   96.1803 O   0  0  0  0  0  0  0  0  0  0  0  0
   93.9979   13.6683   94.8361 O   0  0  0  0  0  0  0  0  0  0  0  0
   96.9954    8.3353   97.6550 C   0  0  0  0  0  0  0  0  0  0  0  0
   97.4635    9.3124   99.6557 C   0  0  0  0  0  0  0  0  0  0  0  0
   96.3562   10.1661   99.4507 C   0  0  0  0  0  0  0  0  0  0  0  0
   95.6249   10.0489   98.2944 C   0  0  0  0  0  0  0  0  0  0  0  0
   93.6702   12.4905   97.0526 C   0  0  2  0  0  0  0  0  0  0  0  0
   94.2787   11.4867   95.1055 C   0  0  1  0  0  0  0  0  0  0  0  0
   94.4623   12.5957   95.6474 C   0  0  1  0  0  0  0  0  0  0  0  0
   93.6652   11.2267   97.4341 C   0  0  2  0  0  0  0  0  0  0  0  0
   94.6736   10.9794   98.3821 N   0  0  0  0  0  0  0  0  0  0  0  0
   97.8210   10.5228   94.2696 P   0  0  2  0  0  0  0  0  0  0  0  0
   94.6552   15.0244   95.1628 P   0  0  1  0  0  0  0  0  0  0  0  0
   96.5753   14.3877   93.5104 C   0  0  0  0  0  0  0  0  0  0  0  0
   96.1646   14.9650   94.7603 O   0  0  0  0  0  0  0  0  0  0  0  0
   98.0008   14.0361   93.4290 C   0  0  1  0  0  0  0  0  0  0  0  0
   98.8466   15.2399   94.0757 O   0  0  0  0  0  0  0  0  0  0  0  0
   98.2390   13.0324   94.1471 C   0  0  1  0  0  0  0  0  0  0  0  0
   98.0440   11.7897   93.4335 O   0  0  0  0  0  0  0  0  0  0  0  0
   99.6617   13.2582   94.6358 C   0  0  1  0  0  0  0  0  0  0  0  0
  100.4883   12.8518   93.7736 O   0  0  0  0  0  0  0  0  0  0  0  0
   99.7850   14.7771   94.7576 C   0  0  2  0  0  0  0  0  0  0  0  0
   97.4997   17.3123   98.6026 N   0  0  0  0  0  0  0  0  0  0  0  0
   96.9823   17.0471   97.3743 C   0  0  0  0  0  0  0  0  0  0  0  0
   97.7420   16.3662   96.5247 N   0  0  0  0  0  0  0  0  0  0  0  0
   99.0102   15.9793   96.7793 C   0  0  0  0  0  0  0  0  0  0  0  0
   99.5822   16.2365   98.0437 C   0  0  0  0  0  0  0  0  0  0  0  0
   98.7469   16.9520   98.9600 C   0  0  0  0  0  0  0  0  0  0  0  0
   99.2509   17.2763  100.2541 N   0  0  0  0  0  0  0  0  0  0  0  0
  100.7636   15.7270   98.0233 N   0  0  0  0  0  0  0  0  0  0  0  0
  100.9608   15.1525   96.8493 C   0  0  0  0  0  0  0  0  0  0  0  0
   99.9394   15.3068   96.0849 N   0  0  0  0  0  0  0  0  0  0  0  0
  1 24  1  0  0  0  0
  1  4  2  0  0  0  0
  2 13  1  0  0  0  0
  2 21  1  0  0  0  0
  3 16  1  0  0  0  0
  4 18  1  0  0  0  0
  5 19  2  0  0  0  0
  5 16  1  0  0  0  0
  6 16  2  0  0  0  0
  6 17  1  0  0  0  0
  7 17  1  0  0  0  0
 11 25  2  0  0  0  0
 12 26  2  0  0  0  0
 13 25  1  0  0  0  0
 14 23  1  0  0  0  0
 15 26  1  0  0  0  0
 17 18  2  0  0  0  0
 18 19  1  0  0  0  0
 19 24  1  0  0  0  0
 20 10  1  6  0  0  0
 20 22  1  0  0  0  0
 20 23  1  0  0  0  0
 21 14  1  1  0  0  0
 21 22  1  0  0  0  0
 22 15  1  6  0  0  0
 23 24  1  1  0  0  0
 25  8  1  6  0  0  0
 25 32  1  0  0  0  0
 26  9  1  6  0  0  0
 26 28  1  0  0  0  0
 27 28  1  0  0  0  0
 29 27  1  1  0  0  0
 29 30  1  0  0  0  0
 29 31  1  0  0  0  0
 30 35  1  0  0  0  0
 31 33  1  0  0  0  0
 31 32  1  6  0  0  0
 33 34  1  6  0  0  0
 33 35  1  0  0  0  0
 35 45  1  1  0  0  0
 36 41  2  0  0  0  0
 36 37  1  0  0  0  0
 37 38  2  0  0  0  0
 38 39  1  0  0  0  0
 39 40  2  0  0  0  0
 39 45  1  0  0  0  0
 40 41  1  0  0  0  0
 40 43  1  0  0  0  0
 41 42  1  0  0  0  0
 43 44  2  0  0  0  0
 44 45  1  0  0  0  0
M  CHG  4   8  -1   9  -1  11  -1  12  -1
M  END
>  <CHROM.1>
170.51353182,17.89656351,96.89091185,12.80251197,96.30907728,-1.94199012
-0.45548579,-0.30369657

>  <Name>
ligand

>  <RI>
0

>  <Rbt.Current_Directory>
/home/itssahil/PROJECTS/Mol_Feturizer/New_Systems/rnas/4YAZ

>  <Rbt.Executable>
rbdock ($Id: //depot/dev/client3/rdock/2013.1/src/exe/rbdock.cxx#4 $)

>  <Rbt.Library>
libRbt.so (2013.1, Build901 2013/11/27)

>  <Rbt.Parameter_File>
/export/apps/rDock/src/rDock_2013.1_src/data/scripts/dock_solv.prm

>  <Rbt.Receptor>
prm/pocket_docking_6.prm

>  <SCORE>
-30.4982

>  <SCORE.INTER>
-31.1394

>  <SCORE.INTER.CONST>
1

>  <SCORE.INTER.POLAR>
0

>  <SCORE.INTER.ROT>
2

>  <SCORE.INTER.SOLV>
32.6572

>  <SCORE.INTER.VDW>
-36.5787

>  <SCORE.INTER.norm>
-0.691988

>  <SCORE.INTRA>
0.641238

>  <SCORE.INTRA.DIHEDRAL>
-0.088397

>  <SCORE.INTRA.DIHEDRAL.0>
2.39103

>  <SCORE.INTRA.POLAR>
0

>  <SCORE.INTRA.POLAR.0>
0

>  <SCORE.INTRA.REPUL>
0

>  <SCORE.INTRA.REPUL.0>
0

>  <SCORE.INTRA.SOLV>
5.76302

>  <SCORE.INTRA.SOLV.lig_0>
-163.975

>  <SCORE.INTRA.VDW>
-2.19607

>  <SCORE.INTRA.VDW.0>
-1.49176

>  <SCORE.INTRA.norm>
0.0142497

>  <SCORE.RESTR>
0

>  <SCORE.RESTR.CAVITY>
0

>  <SCORE.RESTR.norm>
0

>  <SCORE.SYSTEM>
0

>  <SCORE.SYSTEM.CONST>
0

>  <SCORE.SYSTEM.DIHEDRAL>
0

>  <SCORE.SYSTEM.SOLV>
0

>  <SCORE.SYSTEM.norm>
0

>  <SCORE.heavy>
45

>  <SCORE.norm>
-0.677738

>  <RMSD>
6.767

$$$$
ligand
 OpenBabel11021811513D
libRbt.so/2013.1/901 2013/11/27
 45 51  0  0  0  0  0  0  0  0999 V2000
   94.8400   11.6647   99.4053 C   0  0  0  0  0  0  0  0  0  0  0  0
   95.4111   11.2450   94.1843 C   0  0  0  0  0  0  0  0  0  0  0  0
   97.2386    7.3155   96.6243 N   0  0  0  0  0  0  0  0  0  0  0  0
   95.8347   11.1839  100.0781 N   0  0  0  0  0  0  0  0  0  0  0  0
   95.9007    9.0929   97.3365 N   0  0  0  0  0  0  0  0  0  0  0  0
   97.6618    8.3628   98.6711 N   0  0  0  0  0  0  0  0  0  0  0  0
   98.1651    9.4555  100.7513 O   0  0  0  0  0  0  0  0  0  0  0  0
   97.8273    9.5235   93.3035 O   0  5  0  0  0  0  0  0  0  0  0  0
   94.0671   16.0743   94.3243 O   0  5  0  0  0  0  0  0  0  0  0  0
   92.4222   13.1328   96.8306 O   0  0  0  0  0  0  0  0  0  0  0  0
   98.8749   10.3543   95.0827 O   0  5  0  0  0  0  0  0  0  0  0  0
   94.4271   15.6228   96.4837 O   0  5  0  0  0  0  0  0  0  0  0  0
   96.3879   10.5540   94.8542 O   0  0  0  0  0  0  0  0  0  0  0  0
   93.9134   10.5074   96.1087 O   0  0  0  0  0  0  0  0  0  0  0  0
   93.9795   13.7524   94.8103 O   0  0  0  0  0  0  0  0  0  0  0  0
   96.9089    8.3036   97.6008 C   0  0  0  0  0  0  0  0  0  0  0  0
   97.4184    9.2915   99.5860 C   0  0  0  0  0  0  0  0  0  0  0  0
   96.3309   10.1702   99.3804 C   0  0  0  0  0  0  0  0  0  0  0  0
   95.5870   10.0581   98.2316 C   0  0  0  0  0  0  0  0  0  0  0  0
   93.6552   12.5436   97.0105 C   0  0  2  0  0  0  0  0  0  0  0  0
   94.2588   11.5669   95.0482 C   0  0  1  0  0  0  0  0  0  0  0  0
   94.4445   12.6680   95.6053 C   0  0  1  0  0  0  0  0  0  0  0  0
   93.6498   11.2745   97.3741 C   0  0  2  0  0  0  0  0  0  0  0  0
   94.6599   11.0130   98.3164 N   0  0  0  0  0  0  0  0  0  0  0  0
   97.7985   10.6119   94.1915 P   0  0  2  0  0  0  0  0  0  0  0  0
   94.6386   15.1032   95.1548 P   0  0  1  0  0  0  0  0  0  0  0  0
   96.5548   14.4882   93.4897 C   0  0  0  0  0  0  0  0  0  0  0  0
   96.1472   15.0481   94.7484 O   0  0  0  0  0  0  0  0  0  0  0  0
   97.9798   14.1365   93.4003 C   0  0  1  0  0  0  0  0  0  0  0  0
   98.8280   15.3303   94.0623 O   0  0  0  0  0  0  0  0  0  0  0  0
   98.2186   13.1226   94.1037 C   0  0  1  0  0  0  0  0  0  0  0  0
   98.0210   11.8903   93.3730 O   0  0  0  0  0  0  0  0  0  0  0  0
   99.6425   13.3402   94.5926 C   0  0  1  0  0  0  0  0  0  0  0  0
  100.4669   12.9454   93.7231 O   0  0  0  0  0  0  0  0  0  0  0  0
   99.7674   14.8571   94.7357 C   0  0  2  0  0  0  0  0  0  0  0  0
   97.4910   17.3366   98.6222 N   0  0  0  0  0  0  0  0  0  0  0  0
   96.9707   17.0888   97.3914 C   0  0  0  0  0  0  0  0  0  0  0  0
   97.7283   16.4203   96.5304 N   0  0  0  0  0  0  0  0  0  0  0  0
   98.9973   16.0302   96.7763 C   0  0  0  0  0  0  0  0  0  0  0  0
   99.5723   16.2694   98.0428 C   0  0  0  0  0  0  0  0  0  0  0  0
   98.7392   16.9716   98.9713 C   0  0  0  0  0  0  0  0  0  0  0  0
   99.2462   17.2775  100.2687 N   0  0  0  0  0  0  0  0  0  0  0  0
  100.7538   15.7605   98.0122 N   0  0  0  0  0  0  0  0  0  0  0  0
  100.9482   15.2029   96.8297 C   0  0  0  0  0  0  0  0  0  0  0  0
   99.9249   15.3679   96.0700 N   0  0  0  0  0  0  0  0  0  0  0  0
  1 24  1  0  0  0  0
  1  4  2  0  0  0  0
  2 13  1  0  0  0  0
  2 21  1  0  0  0  0
  3 16  1  0  0  0  0
  4 18  1  0  0  0  0
  5 19  2  0  0  0  0
  5 16  1  0  0  0  0
  6 16  2  0  0  0  0
  6 17  1  0  0  0  0
  7 17  1  0  0  0  0
 11 25  2  0  0  0  0
 12 26  2  0  0  0  0
 13 25  1  0  0  0  0
 14 23  1  0  0  0  0
 15 26  1  0  0  0  0
 17 18  2  0  0  0  0
 18 19  1  0  0  0  0
 19 24  1  0  0  0  0
 20 10  1  6  0  0  0
 20 22  1  0  0  0  0
 20 23  1  0  0  0  0
 21 14  1  1  0  0  0
 21 22  1  0  0  0  0
 22 15  1  6  0  0  0
 23 24  1  1  0  0  0
 25  8  1  6  0  0  0
 25 32  1  0  0  0  0
 26  9  1  6  0  0  0
 26 28  1  0  0  0  0
 27 28  1  0  0  0  0
 29 27  1  1  0  0  0
 29 30  1  0  0  0  0
 29 31  1  0  0  0  0
 30 35  1  0  0  0  0
 31 33  1  0  0  0  0
 31 32  1  6  0  0  0
 33 34  1  6  0  0  0
 33 35  1  0  0  0  0
 35 45  1  1  0  0  0
 36 41  2  0  0  0  0
 36 37  1  0  0  0  0
 37 38  2  0  0  0  0
 38 39  1  0  0  0  0
 39 40  2  0  0  0  0
 39 45  1  0  0  0  0
 40 41  1  0  0  0  0
 40 43  1  0  0  0  0
 41 42  1  0  0  0  0
 43 44  2  0  0  0  0
 44 45  1  0  0  0  0
M  CHG  4   8  -1   9  -1  11  -1  12  -1
M  END
>  <CHROM.1>
168.46529753,17.96532465,96.86782738,12.85589018,96.27027679,-1.96610106
-0.56173833,-0.34754606

>  <Name>
ligand

>  <RI>
0

>  <Rbt.Current_Directory>
/home/itssahil/PROJECTS/Mol_Feturizer/New_Systems/rnas/4YAZ

>  <Rbt.Executable>
rbdock ($Id: //depot/dev/client3/rdock/2013.1/src/exe/rbdock.cxx#4 $)

>  <Rbt.Library>
libRbt.so (2013.1, Build901 2013/11/27)

>  <Rbt.Parameter_File>
/export/apps/rDock/src/rDock_2013.1_src/data/scripts/dock_solv.prm

>  <Rbt.Receptor>
prm/pocket_docking_5.prm

>  <SCORE>
-30.2943

>  <SCORE.INTER>
-30.6299

>  <SCORE.INTER.CONST>
1

>  <SCORE.INTER.POLAR>
0

>  <SCORE.INTER.ROT>
2

>  <SCORE.INTER.SOLV>
32.9929

>  <SCORE.INTER.VDW>
-36.3509

>  <SCORE.INTER.norm>
-0.680665

>  <SCORE.INTRA>
0.335655

>  <SCORE.INTRA.DIHEDRAL>
-0.0882327

>  <SCORE.INTRA.DIHEDRAL.0>
2.39103

>  <SCORE.INTRA.POLAR>
0

>  <SCORE.INTRA.POLAR.0>
0

>  <SCORE.INTRA.REPUL>
0

>  <SCORE.INTRA.REPUL.0>
0

>  <SCORE.INTRA.SOLV>
4.82732

>  <SCORE.INTRA.SOLV.lig_0>
-163.975

>  <SCORE.INTRA.VDW>
-2.03389

>  <SCORE.INTRA.VDW.0>
-1.49176

>  <SCORE.INTRA.norm>
0.007459

>  <SCORE.RESTR>
0

>  <SCORE.RESTR.CAVITY>
0

>  <SCORE.RESTR.norm>
0

>  <SCORE.SYSTEM>
0

>  <SCORE.SYSTEM.CONST>
0

>  <SCORE.SYSTEM.DIHEDRAL>
0

>  <SCORE.SYSTEM.SOLV>
0

>  <SCORE.SYSTEM.norm>
0

>  <SCORE.heavy>
45

>  <SCORE.norm>
-0.673206

>  <RMSD>
6.782

$$$$
ligand
 OpenBabel11021811513D
libRbt.so/2013.1/901 2013/11/27
 45 51  0  0  0  0  0  0  0  0999 V2000
   94.7902   11.6554   99.3831 C   0  0  0  0  0  0  0  0  0  0  0  0
   95.3459   11.2112   94.1583 C   0  0  0  0  0  0  0  0  0  0  0  0
   97.1914    7.3121   96.5951 N   0  0  0  0  0  0  0  0  0  0  0  0
   95.7873   11.1763  100.0535 N   0  0  0  0  0  0  0  0  0  0  0  0
   95.8515    9.0866   97.3109 N   0  0  0  0  0  0  0  0  0  0  0  0
   97.6170    8.3594   98.6414 N   0  0  0  0  0  0  0  0  0  0  0  0
   98.1227    9.4522  100.7209 O   0  0  0  0  0  0  0  0  0  0  0  0
   97.7531    9.4769   93.2779 O   0  5  0  0  0  0  0  0  0  0  0  0
   94.0186   16.0457   94.2774 O   0  5  0  0  0  0  0  0  0  0  0  0
   92.3730   13.1232   96.8054 O   0  0  0  0  0  0  0  0  0  0  0  0
   98.8099   10.3137   95.0488 O   0  5  0  0  0  0  0  0  0  0  0  0
   94.3850   15.6045   96.4378 O   0  5  0  0  0  0  0  0  0  0  0  0
   96.3228   10.5205   94.8283 O   0  0  0  0  0  0  0  0  0  0  0  0
   93.8528   10.4889   96.0921 O   0  0  0  0  0  0  0  0  0  0  0  0
   93.9249   13.7267   94.7761 O   0  0  0  0  0  0  0  0  0  0  0  0
   96.8619    8.2992   97.5727 C   0  0  0  0  0  0  0  0  0  0  0  0
   97.3737    9.2872   99.5572 C   0  0  0  0  0  0  0  0  0  0  0  0
   96.2840   10.1639   99.3543 C   0  0  0  0  0  0  0  0  0  0  0  0
   95.5379   10.0508   98.2071 C   0  0  0  0  0  0  0  0  0  0  0  0
   93.6047   12.5307   96.9840 C   0  0  2  0  0  0  0  0  0  0  0  0
   94.1978   11.5416   95.0247 C   0  0  1  0  0  0  0  0  0  0  0  0
   94.3893   12.6450   95.5752 C   0  0  1  0  0  0  0  0  0  0  0  0
   93.5964   11.2637   97.3543 C   0  0  2  0  0  0  0  0  0  0  0  0
   94.6091   11.0038   98.2943 N   0  0  0  0  0  0  0  0  0  0  0  0
   97.7312   10.5701   94.1602 P   0  0  2  0  0  0  0  0  0  0  0  0
   94.5899   15.0771   95.1109 P   0  0  1  0  0  0  0  0  0  0  0  0
   96.4978   14.4468   93.4422 C   0  0  0  0  0  0  0  0  0  0  0  0
   96.0968   15.0148   94.6994 O   0  0  0  0  0  0  0  0  0  0  0  0
   97.9213   14.0898   93.3495 C   0  0  1  0  0  0  0  0  0  0  0  0
   98.7760   15.2843   94.0020 O   0  0  0  0  0  0  0  0  0  0  0  0
   98.1593   13.0789   94.0574 C   0  0  1  0  0  0  0  0  0  0  0  0
   97.9549   11.8434   93.3340 O   0  0  0  0  0  0  0  0  0  0  0  0
   99.5857   13.2943   94.5400 C   0  0  1  0  0  0  0  0  0  0  0  0
  100.4056   12.8920   93.6695 O   0  0  0  0  0  0  0  0  0  0  0  0
   99.7162   14.8115   94.6745 C   0  0  2  0  0  0  0  0  0  0  0  0
   97.4577   17.3064   98.5615 N   0  0  0  0  0  0  0  0  0  0  0  0
   96.9310   17.0520   97.3349 C   0  0  0  0  0  0  0  0  0  0  0  0
   97.6849   16.3804   96.4728 N   0  0  0  0  0  0  0  0  0  0  0  0
   98.9557   15.9932   96.7137 C   0  0  0  0  0  0  0  0  0  0  0  0
   99.5374   16.2393   97.9758 C   0  0  0  0  0  0  0  0  0  0  0  0
   98.7083   16.9447   98.9055 C   0  0  0  0  0  0  0  0  0  0  0  0
   99.2221   17.2575  100.1986 N   0  0  0  0  0  0  0  0  0  0  0  0
  100.7194   15.7319   97.9411 N   0  0  0  0  0  0  0  0  0  0  0  0
  100.9081   15.1690   96.7603 C   0  0  0  0  0  0  0  0  0  0  0  0
   99.8804   15.3288   96.0054 N   0  0  0  0  0  0  0  0  0  0  0  0
  1 24  1  0  0  0  0
  1  4  2  0  0  0  0
  2 13  1  0  0  0  0
  2 21  1  0  0  0  0
  3 16  1  0  0  0  0
  4 18  1  0  0  0  0
  5 19  2  0  0  0  0
  5 16  1  0  0  0  0
  6 16  2  0  0  0  0
  6 17  1  0  0  0  0
  7 17  1  0  0  0  0
 11 25  2  0  0  0  0
 12 26  2  0  0  0  0
 13 25  1  0  0  0  0
 14 23  1  0  0  0  0
 15 26  1  0  0  0  0
 17 18  2  0  0  0  0
 18 19  1  0  0  0  0
 19 24  1  0  0  0  0
 20 10  1  6  0  0  0
 20 22  1  0  0  0  0
 20 23  1  0  0  0  0
 21 14  1  1  0  0  0
 21 22  1  0  0  0  0
 22 15  1  6  0  0  0
 23 24  1  1  0  0  0
 25  8  1  6  0  0  0
 25 32  1  0  0  0  0
 26  9  1  6  0  0  0
 26 28  1  0  0  0  0
 27 28  1  0  0  0  0
 29 27  1  1  0  0  0
 29 30  1  0  0  0  0
 29 31  1  0  0  0  0
 30 35  1  0  0  0  0
 31 33  1  0  0  0  0
 31 32  1  6  0  0  0
 33 34  1  6  0  0  0
 33 35  1  0  0  0  0
 35 45  1  1  0  0  0
 36 41  2  0  0  0  0
 36 37  1  0  0  0  0
 37 38  2  0  0  0  0
 38 39  1  0  0  0  0
 39 40  2  0  0  0  0
 39 45  1  0  0  0  0
 40 41  1  0  0  0  0
 40 43  1  0  0  0  0
 41 42  1  0  0  0  0
 43 44  2  0  0  0  0
 44 45  1  0  0  0  0
M  CHG  4   8  -1   9  -1  11  -1  12  -1
M  END
>  <CHROM.1>
168.92276047,18.25907399,96.81682168,12.82883432,96.22954228,-1.96360839
-0.53700651,-0.34306206

>  <Name>
ligand

>  <RI>
0

>  <Rbt.Current_Directory>
/home/itssahil/PROJECTS/Mol_Feturizer/New_Systems/rnas/4YAZ

>  <Rbt.Executable>
rbdock ($Id: //depot/dev/client3/rdock/2013.1/src/exe/rbdock.cxx#4 $)

>  <Rbt.Library>
libRbt.so (2013.1, Build901 2013/11/27)

>  <Rbt.Parameter_File>
/export/apps/rDock/src/rDock_2013.1_src/data/scripts/dock_solv.prm

>  <Rbt.Receptor>
prm/pocket_docking_6.prm

>  <SCORE>
-30.2543

>  <SCORE.INTER>
-30.6658

>  <SCORE.INTER.CONST>
1

>  <SCORE.INTER.POLAR>
0

>  <SCORE.INTER.ROT>
2

>  <SCORE.INTER.SOLV>
32.2012

>  <SCORE.INTER.VDW>
-36.1109

>  <SCORE.INTER.norm>
-0.681462

>  <SCORE.INTRA>
0.411508

>  <SCORE.INTRA.DIHEDRAL>
-0.0897598

>  <SCORE.INTRA.DIHEDRAL.0>
2.39103

>  <SCORE.INTRA.POLAR>
0

>  <SCORE.INTRA.POLAR.0>
0

>  <SCORE.INTRA.REPUL>
0

>  <SCORE.INTRA.REPUL.0>
0

>  <SCORE.INTRA.SOLV>
5.04808

>  <SCORE.INTRA.SOLV.lig_0>
-163.975

>  <SCORE.INTRA.VDW>
-2.06765

>  <SCORE.INTRA.VDW.0>
-1.49176

>  <SCORE.INTRA.norm>
0.00914461

>  <SCORE.RESTR>
0

>  <SCORE.RESTR.CAVITY>
0

>  <SCORE.RESTR.norm>
0

>  <SCORE.SYSTEM>
0

>  <SCORE.SYSTEM.CONST>
0

>  <SCORE.SYSTEM.DIHEDRAL>
0

>  <SCORE.SYSTEM.SOLV>
0

>  <SCORE.SYSTEM.norm>
0

>  <SCORE.heavy>
45

>  <SCORE.norm>
-0.672317

>  <RMSD>
6.786

$$$$
ligand
 OpenBabel11021811513D
libRbt.so/2013.1/901 2013/11/27
 45 51  0  0  0  0  0  0  0  0999 V2000
   94.7739   11.6843   99.3862 C   0  0  0  0  0  0  0  0  0  0  0  0
   95.2987   11.2317   94.1607 C   0  0  0  0  0  0  0  0  0  0  0  0
   97.1391    7.3209   96.5988 N   0  0  0  0  0  0  0  0  0  0  0  0
   95.7728   11.2030  100.0524 N   0  0  0  0  0  0  0  0  0  0  0  0
   95.8114    9.1038   97.3166 N   0  0  0  0  0  0  0  0  0  0  0  0
   97.5815    8.3732   98.6390 N   0  0  0  0  0  0  0  0  0  0  0  0
   98.1044    9.4708  100.7118 O   0  0  0  0  0  0  0  0  0  0  0  0
   97.6973    9.4911   93.2692 O   0  5  0  0  0  0  0  0  0  0  0  0
   93.9828   16.0692   94.2822 O   0  5  0  0  0  0  0  0  0  0  0  0
   92.3441   13.1528   96.8217 O   0  0  0  0  0  0  0  0  0  0  0  0
   98.7654   10.3273   95.0337 O   0  5  0  0  0  0  0  0  0  0  0  0
   94.3597   15.6293   96.4410 O   0  5  0  0  0  0  0  0  0  0  0  0
   96.2776   10.5394   94.8262 O   0  0  0  0  0  0  0  0  0  0  0  0
   93.8143   10.5145   96.1031 O   0  0  0  0  0  0  0  0  0  0  0  0
   93.8866   13.7509   94.7836 O   0  0  0  0  0  0  0  0  0  0  0  0
   96.8198    8.3128   97.5750 C   0  0  0  0  0  0  0  0  0  0  0  0
   97.3478    9.3052   99.5531 C   0  0  0  0  0  0  0  0  0  0  0  0
   96.2608   10.1860   99.3537 C   0  0  0  0  0  0  0  0  0  0  0  0
   95.5074   10.0724   98.2113 C   0  0  0  0  0  0  0  0  0  0  0  0
   93.5754   12.5578   96.9943 C   0  0  2  0  0  0  0  0  0  0  0  0
   94.1560   11.5655   95.0329 C   0  0  1  0  0  0  0  0  0  0  0  0
   94.3528   12.6690   95.5813 C   0  0  1  0  0  0  0  0  0  0  0  0
   93.5663   11.2911   97.3659 C   0  0  2  0  0  0  0  0  0  0  0  0
   94.5834   11.0298   98.3008 N   0  0  0  0  0  0  0  0  0  0  0  0
   97.6825   10.5853   94.1506 P   0  0  2  0  0  0  0  0  0  0  0  0
   94.5563   15.1001   95.1136 P   0  0  1  0  0  0  0  0  0  0  0  0
   96.4540   14.4640   93.4354 C   0  0  0  0  0  0  0  0  0  0  0  0
   96.0609   15.0341   94.6941 O   0  0  0  0  0  0  0  0  0  0  0  0
   97.8762   14.1038   93.3355 C   0  0  1  0  0  0  0  0  0  0  0  0
   98.7370   15.2970   93.9822 O   0  0  0  0  0  0  0  0  0  0  0  0
   98.1156   13.0930   94.0431 C   0  0  1  0  0  0  0  0  0  0  0  0
   97.9047   11.8572   93.3220 O   0  0  0  0  0  0  0  0  0  0  0  0
   99.5451   13.3057   94.5179 C   0  0  1  0  0  0  0  0  0  0  0  0
  100.3595   12.9007   93.6435 O   0  0  0  0  0  0  0  0  0  0  0  0
   99.6797   14.8227   94.6502 C   0  0  2  0  0  0  0  0  0  0  0  0
   97.4451   17.3201   98.5495 N   0  0  0  0  0  0  0  0  0  0  0  0
   96.9109   17.0648   97.3263 C   0  0  0  0  0  0  0  0  0  0  0  0
   97.6594   16.3928   96.4601 N   0  0  0  0  0  0  0  0  0  0  0  0
   98.9318   16.0058   96.6933 C   0  0  0  0  0  0  0  0  0  0  0  0
   99.5212   16.2527   97.9517 C   0  0  0  0  0  0  0  0  0  0  0  0
   98.6979   16.9587   98.8859 C   0  0  0  0  0  0  0  0  0  0  0  0
   99.2196   17.2724  100.1757 N   0  0  0  0  0  0  0  0  0  0  0  0
  100.7030   15.7453   97.9100 N   0  0  0  0  0  0  0  0  0  0  0  0
  100.8844   15.1816   96.7283 C   0  0  0  0  0  0  0  0  0  0  0  0
   99.8521   15.3409   95.9798 N   0  0  0  0  0  0  0  0  0  0  0  0
  1 24  1  0  0  0  0
  1  4  2  0  0  0  0
  2 13  1  0  0  0  0
  2 21  1  0  0  0  0
  3 16  1  0  0  0  0
  4 18  1  0  0  0  0
  5 19  2  0  0  0  0
  5 16  1  0  0  0  0
  6 16  2  0  0  0  0
  6 17  1  0  0  0  0
  7 17  1  0  0  0  0
 11 25  2  0  0  0  0
 12 26  2  0  0  0  0
 13 25  1  0  0  0  0
 14 23  1  0  0  0  0
 15 26  1  0  0  0  0
 17 18  2  0  0  0  0
 18 19  1  0  0  0  0
 19 24  1  0  0  0  0
 20 10  1  6  0  0  0
 20 22  1  0  0  0  0
 20 23  1  0  0  0  0
 21 14  1  1  0  0  0
 21 22  1  0  0  0  0
 22 15  1  6  0  0  0
 23 24  1  1  0  0  0
 25  8  1  6  0  0  0
 25 32  1  0  0  0  0
 26  9  1  6  0  0  0
 26 28  1  0  0  0  0
 27 28  1  0  0  0  0
 29 27  1  1  0  0  0
 29 30  1  0  0  0  0
 29 31  1  0  0  0  0
 30 35  1  0  0  0  0
 31 33  1  0  0  0  0
 31 32  1  6  0  0  0
 33 34  1  6  0  0  0
 33 35  1  0  0  0  0
 35 45  1  1  0  0  0
 36 41  2  0  0  0  0
 36 37  1  0  0  0  0
 37 38  2  0  0  0  0
 38 39  1  0  0  0  0
 39 40  2  0  0  0  0
 39 45  1  0  0  0  0
 40 41  1  0  0  0  0
 40 43  1  0  0  0  0
 41 42  1  0  0  0  0
 43 44  2  0  0  0  0
 44 45  1  0  0  0  0
M  CHG  4   8  -1   9  -1  11  -1  12  -1
M  END
>  <CHROM.1>
168.73029315,18.40004398,96.78337529,12.84684305,96.22326821,-1.96716627
-0.54374519,-0.35128413

>  <Name>
ligand

>  <RI>
0

>  <Rbt.Current_Directory>
/home/itssahil/PROJECTS/Mol_Feturizer/New_Systems/rnas/4YAZ

>  <Rbt.Executable>
rbdock ($Id: //depot/dev/client3/rdock/2013.1/src/exe/rbdock.cxx#4 $)

>  <Rbt.Library>
libRbt.so (2013.1, Build901 2013/11/27)

>  <Rbt.Parameter_File>
/export/apps/rDock/src/rDock_2013.1_src/data/scripts/dock_solv.prm

>  <Rbt.Receptor>
prm/pocket_docking_4.prm

>  <SCORE>
-30.1029

>  <SCORE.INTER>
-30.4885

>  <SCORE.INTER.CONST>
1

>  <SCORE.INTER.POLAR>
0

>  <SCORE.INTER.ROT>
2

>  <SCORE.INTER.SOLV>
32.1667

>  <SCORE.INTER.VDW>
-35.9812

>  <SCORE.INTER.norm>
-0.677522

>  <SCORE.INTRA>
0.382433

>  <SCORE.INTRA.DIHEDRAL>
-0.090386

>  <SCORE.INTRA.DIHEDRAL.0>
2.39103

>  <SCORE.INTRA.POLAR>
0

>  <SCORE.INTRA.POLAR.0>
0

>  <SCORE.INTRA.REPUL>
0

>  <SCORE.INTRA.REPUL.0>
0

>  <SCORE.INTRA.SOLV>
4.96458

>  <SCORE.INTRA.SOLV.lig_0>
-163.975

>  <SCORE.INTRA.VDW>
-2.05466

>  <SCORE.INTRA.VDW.0>
-1.49176

>  <SCORE.INTRA.norm>
0.0084985

>  <SCORE.RESTR>
0.0031455

>  <SCORE.RESTR.CAVITY>
0.0031455

>  <SCORE.RESTR.norm>
6.99e-05

>  <SCORE.SYSTEM>
0

>  <SCORE.SYSTEM.CONST>
0

>  <SCORE.SYSTEM.DIHEDRAL>
0

>  <SCORE.SYSTEM.SOLV>
0

>  <SCORE.SYSTEM.norm>
0

>  <SCORE.heavy>
45

>  <SCORE.norm>
-0.668953

>  <RMSD>
6.787

$$$$
ligand
 OpenBabel11021811513D
libRbt.so/2013.1/901 2013/11/27
 45 51  0  0  0  0  0  0  0  0999 V2000
   94.8396   11.6524   99.3643 C   0  0  0  0  0  0  0  0  0  0  0  0
   95.4028   11.2209   94.1491 C   0  0  0  0  0  0  0  0  0  0  0  0
   97.1958    7.2595   96.6158 N   0  0  0  0  0  0  0  0  0  0  0  0
   95.8317   11.1690  100.0392 N   0  0  0  0  0  0  0  0  0  0  0  0
   95.8743    9.0542   97.3155 N   0  0  0  0  0  0  0  0  0  0  0  0
   97.6321    8.3208   98.6527 N   0  0  0  0  0  0  0  0  0  0  0  0
   98.1490    9.4270  100.7224 O   0  0  0  0  0  0  0  0  0  0  0  0
   97.8171    9.4960   93.2695 O   0  5  0  0  0  0  0  0  0  0  0  0
   94.0642   16.0518   94.2855 O   0  5  0  0  0  0  0  0  0  0  0  0
   92.4162   13.1140   96.7942 O   0  0  0  0  0  0  0  0  0  0  0  0
   98.8658   10.3271   95.0480 O   0  5  0  0  0  0  0  0  0  0  0  0
   94.4238   15.6016   96.4451 O   0  5  0  0  0  0  0  0  0  0  0  0
   96.3790   10.5293   94.8194 O   0  0  0  0  0  0  0  0  0  0  0  0
   93.9045   10.4864   96.0743 O   0  0  0  0  0  0  0  0  0  0  0  0
   93.9740   13.7303   94.7732 O   0  0  0  0  0  0  0  0  0  0  0  0
   96.8765    8.2588   97.5845 C   0  0  0  0  0  0  0  0  0  0  0  0
   97.3984    9.2593   99.5601 C   0  0  0  0  0  0  0  0  0  0  0  0
   96.3179   10.1453   99.3492 C   0  0  0  0  0  0  0  0  0  0  0  0
   95.5706   10.0296   98.2030 C   0  0  0  0  0  0  0  0  0  0  0  0
   93.6486   12.5236   96.9745 C   0  0  2  0  0  0  0  0  0  0  0  0
   94.2510   11.5447   95.0129 C   0  0  1  0  0  0  0  0  0  0  0  0
   94.4379   12.6461   95.5691 C   0  0  1  0  0  0  0  0  0  0  0  0
   93.6418   11.2548   97.3391 C   0  0  2  0  0  0  0  0  0  0  0  0
   94.6518   10.9929   98.2815 N   0  0  0  0  0  0  0  0  0  0  0  0
   97.7896   10.5852   94.1566 P   0  0  2  0  0  0  0  0  0  0  0  0
   94.6347   15.0806   95.1166 P   0  0  1  0  0  0  0  0  0  0  0  0
   96.5500   14.4623   93.4519 C   0  0  0  0  0  0  0  0  0  0  0  0
   96.1431   15.0236   94.7102 O   0  0  0  0  0  0  0  0  0  0  0  0
   97.9746   14.1090   93.3627 C   0  0  1  0  0  0  0  0  0  0  0  0
   98.8242   15.3024   94.0236 O   0  0  0  0  0  0  0  0  0  0  0  0
   98.2123   13.0953   94.0668 C   0  0  1  0  0  0  0  0  0  0  0  0
   98.0134   11.8627   93.3371 O   0  0  0  0  0  0  0  0  0  0  0  0
   99.6365   13.3118   94.5555 C   0  0  1  0  0  0  0  0  0  0  0  0
  100.4605   12.9154   93.6861 O   0  0  0  0  0  0  0  0  0  0  0  0
   99.7631   14.8287   94.6974 C   0  0  2  0  0  0  0  0  0  0  0  0
   97.4878   17.3084   98.5843 N   0  0  0  0  0  0  0  0  0  0  0  0
   96.9667   17.0595   97.3541 C   0  0  0  0  0  0  0  0  0  0  0  0
   97.7242   16.3911   96.4928 N   0  0  0  0  0  0  0  0  0  0  0  0
   98.9937   16.0022   96.7379 C   0  0  0  0  0  0  0  0  0  0  0  0
   99.5696   16.2426   98.0038 C   0  0  0  0  0  0  0  0  0  0  0  0
   98.7366   16.9446   98.9326 C   0  0  0  0  0  0  0  0  0  0  0  0
   99.2445   17.2517  100.2294 N   0  0  0  0  0  0  0  0  0  0  0  0
  100.7515   15.7347   97.9725 N   0  0  0  0  0  0  0  0  0  0  0  0
  100.9454   15.1767   96.7901 C   0  0  0  0  0  0  0  0  0  0  0  0
   99.9213   15.3403   96.0312 N   0  0  0  0  0  0  0  0  0  0  0  0
  1 24  1  0  0  0  0
  1  4  2  0  0  0  0
  2 13  1  0  0  0  0
  2 21  1  0  0  0  0
  3 16  1  0  0  0  0
  4 18  1  0  0  0  0
  5 19  2  0  0  0  0
  5 16  1  0  0  0  0
  6 16  2  0  0  0  0
  6 17  1  0  0  0  0
  7 17  1  0  0  0  0
 11 25  2  0  0  0  0
 12 26  2  0  0  0  0
 13 25  1  0  0  0  0
 14 23  1  0  0  0  0
 15 26  1  0  0  0  0
 17 18  2  0  0  0  0
 18 19  1  0  0  0  0
 19 24  1  0  0  0  0
 20 10  1  6  0  0  0
 20 22  1  0  0  0  0
 20 23  1  0  0  0  0
 21 14  1  1  0  0  0
 21 22  1  0  0  0  0
 22 15  1  6  0  0  0
 23 24  1  1  0  0  0
 25  8  1  6  0  0  0
 25 32  1  0  0  0  0
 26  9  1  6  0  0  0
 26 28  1  0  0  0  0
 27 28  1  0  0  0  0
 29 27  1  1  0  0  0
 29 30  1  0  0  0  0
 29 31  1  0  0  0  0
 30 35  1  0  0  0  0
 31 33  1  0  0  0  0
 31 32  1  6  0  0  0
 33 34  1  6  0  0  0
 33 35  1  0  0  0  0
 35 45  1  1  0  0  0
 36 41  2  0  0  0  0
 36 37  1  0  0  0  0
 37 38  2  0  0  0  0
 38 39  1  0  0  0  0
 39 40  2  0  0  0  0
 39 45  1  0  0  0  0
 40 41  1  0  0  0  0
 40 43  1  0  0  0  0
 41 42  1  0  0  0  0
 43 44  2  0  0  0  0
 44 45  1  0  0  0  0
M  CHG  4   8  -1   9  -1  11  -1  12  -1
M  END
>  <CHROM.1>
167.84267947,18.08479184,96.85929787,12.82927431,96.23551305,-1.97709420
-0.59642065,-0.36946228

>  <Name>
ligand

>  <RI>
0

>  <Rbt.Current_Directory>
/home/itssahil/PROJECTS/Mol_Feturizer/New_Systems/rnas/4YAZ

>  <Rbt.Executable>
rbdock ($Id: //depot/dev/client3/rdock/2013.1/src/exe/rbdock.cxx#4 $)

>  <Rbt.Library>
libRbt.so (2013.1, Build901 2013/11/27)

>  <Rbt.Parameter_File>
/export/apps/rDock/src/rDock_2013.1_src/data/scripts/dock_solv.prm

>  <Rbt.Receptor>
prm/pocket_docking_6.prm

>  <SCORE>
-30.1694

>  <SCORE.INTER>
-30.4381

>  <SCORE.INTER.CONST>
1

>  <SCORE.INTER.POLAR>
0

>  <SCORE.INTER.ROT>
2

>  <SCORE.INTER.SOLV>
32.742

>  <SCORE.INTER.VDW>
-36.1394

>  <SCORE.INTER.norm>
-0.676402

>  <SCORE.INTRA>
0.268683

>  <SCORE.INTRA.DIHEDRAL>
-0.0886673

>  <SCORE.INTRA.DIHEDRAL.0>
2.39103

>  <SCORE.INTRA.POLAR>
0

>  <SCORE.INTRA.POLAR.0>
0

>  <SCORE.INTRA.REPUL>
0

>  <SCORE.INTRA.REPUL.0>
0

>  <SCORE.INTRA.SOLV>
4.5498

>  <SCORE.INTRA.SOLV.lig_0>
-163.975

>  <SCORE.INTRA.VDW>
-1.96189

>  <SCORE.INTRA.VDW.0>
-1.49176

>  <SCORE.INTRA.norm>
0.00597073

>  <SCORE.RESTR>
0

>  <SCORE.RESTR.CAVITY>
0

>  <SCORE.RESTR.norm>
0

>  <SCORE.SYSTEM>
0

>  <SCORE.SYSTEM.CONST>
0

>  <SCORE.SYSTEM.DIHEDRAL>
0

>  <SCORE.SYSTEM.SOLV>
0

>  <SCORE.SYSTEM.norm>
0

>  <SCORE.heavy>
45

>  <SCORE.norm>
-0.670431

>  <RMSD>
6.791

$$$$
ligand
 OpenBabel11021811513D
libRbt.so/2013.1/901 2013/11/27
 45 51  0  0  0  0  0  0  0  0999 V2000
   94.7805   11.6362   99.3533 C   0  0  0  0  0  0  0  0  0  0  0  0
   95.3805   11.2411   94.1319 C   0  0  0  0  0  0  0  0  0  0  0  0
   97.1839    7.3003   96.5557 N   0  0  0  0  0  0  0  0  0  0  0  0
   95.7697   11.1477  100.0287 N   0  0  0  0  0  0  0  0  0  0  0  0
   95.8467    9.0764   97.2725 N   0  0  0  0  0  0  0  0  0  0  0  0
   97.5975    8.3316   98.6125 N   0  0  0  0  0  0  0  0  0  0  0  0
   98.0911    9.4078  100.7036 O   0  0  0  0  0  0  0  0  0  0  0  0
   97.7928    9.5117   93.2560 O   0  5  0  0  0  0  0  0  0  0  0  0
   94.0600   16.0764   94.2880 O   0  5  0  0  0  0  0  0  0  0  0  0
   92.3865   13.1312   96.7709 O   0  0  0  0  0  0  0  0  0  0  0  0
   98.8347   10.3286   95.0450 O   0  5  0  0  0  0  0  0  0  0  0  0
   94.4058   15.6127   96.4471 O   0  5  0  0  0  0  0  0  0  0  0  0
   96.3501   10.5419   94.8037 O   0  0  0  0  0  0  0  0  0  0  0  0
   93.8685   10.5017   96.0444 O   0  0  0  0  0  0  0  0  0  0  0  0
   93.9580   13.7526   94.7622 O   0  0  0  0  0  0  0  0  0  0  0  0
   96.8510    8.2823   97.5372 C   0  0  0  0  0  0  0  0  0  0  0  0
   97.3511    9.2544   99.5326 C   0  0  0  0  0  0  0  0  0  0  0  0
   96.2673   10.1377   99.3267 C   0  0  0  0  0  0  0  0  0  0  0  0
   95.5302   10.0360   98.1726 C   0  0  0  0  0  0  0  0  0  0  0  0
   93.6155   12.5348   96.9547 C   0  0  2  0  0  0  0  0  0  0  0  0
   94.2250   11.5647   94.9910 C   0  0  1  0  0  0  0  0  0  0  0  0
   94.4132   12.6621   95.5545 C   0  0  1  0  0  0  0  0  0  0  0  0
   93.6017   11.2641   97.3121 C   0  0  2  0  0  0  0  0  0  0  0  0
   94.6053   10.9929   98.2586 N   0  0  0  0  0  0  0  0  0  0  0  0
   97.7646   10.5959   94.1492 P   0  0  2  0  0  0  0  0  0  0  0  0
   94.6220   15.0984   95.1169 P   0  0  1  0  0  0  0  0  0  0  0  0
   96.5442   14.4819   93.4594 C   0  0  0  0  0  0  0  0  0  0  0  0
   96.1325   15.0377   94.7185 O   0  0  0  0  0  0  0  0  0  0  0  0
   97.9679   14.1234   93.3762 C   0  0  1  0  0  0  0  0  0  0  0  0
   98.8185   15.3097   94.0486 O   0  0  0  0  0  0  0  0  0  0  0  0
   98.1977   13.1049   94.0759 C   0  0  1  0  0  0  0  0  0  0  0  0
   97.9980   11.8771   93.3381 O   0  0  0  0  0  0  0  0  0  0  0  0
   99.6200   13.3129   94.5737 C   0  0  1  0  0  0  0  0  0  0  0  0
  100.4472   12.9181   93.7068 O   0  0  0  0  0  0  0  0  0  0  0  0
   99.7517   14.8284   94.7249 C   0  0  2  0  0  0  0  0  0  0  0  0
   97.4840   17.3468   98.5913 N   0  0  0  0  0  0  0  0  0  0  0  0
   96.9731   17.1139   97.3538 C   0  0  0  0  0  0  0  0  0  0  0  0
   97.7262   16.4313   96.4997 N   0  0  0  0  0  0  0  0  0  0  0  0
   98.9832   16.0126   96.7596 C   0  0  0  0  0  0  0  0  0  0  0  0
   99.5482   16.2356   98.0336 C   0  0  0  0  0  0  0  0  0  0  0  0
   98.7196   16.9534   98.9542 C   0  0  0  0  0  0  0  0  0  0  0  0
   99.2177   17.2445  100.2585 N   0  0  0  0  0  0  0  0  0  0  0  0
  100.7185   15.7008   98.0156 N   0  0  0  0  0  0  0  0  0  0  0  0
  100.9147   15.1424   96.8338 C   0  0  0  0  0  0  0  0  0  0  0  0
   99.9045   15.3319   96.0624 N   0  0  0  0  0  0  0  0  0  0  0  0
  1 24  1  0  0  0  0
  1  4  2  0  0  0  0
  2 13  1  0  0  0  0
  2 21  1  0  0  0  0
  3 16  1  0  0  0  0
  4 18  1  0  0  0  0
  5 19  2  0  0  0  0
  5 16  1  0  0  0  0
  6 16  2  0  0  0  0
  6 17  1  0  0  0  0
  7 17  1  0  0  0  0
 11 25  2  0  0  0  0
 12 26  2  0  0  0  0
 13 25  1  0  0  0  0
 14 23  1  0  0  0  0
 15 26  1  0  0  0  0
 17 18  2  0  0  0  0
 18 19  1  0  0  0  0
 19 24  1  0  0  0  0
 20 10  1  6  0  0  0
 20 22  1  0  0  0  0
 20 23  1  0  0  0  0
 21 14  1  1  0  0  0
 21 22  1  0  0  0  0
 22 15  1  6  0  0  0
 23 24  1  1  0  0  0
 25  8  1  6  0  0  0
 25 32  1  0  0  0  0
 26  9  1  6  0  0  0
 26 28  1  0  0  0  0
 27 28  1  0  0  0  0
 29 27  1  1  0  0  0
 29 30  1  0  0  0  0
 29 31  1  0  0  0  0
 30 35  1  0  0  0  0
 31 33  1  0  0  0  0
 31 32  1  6  0  0  0
 33 34  1  6  0  0  0
 33 35  1  0  0  0  0
 35 45  1  1  0  0  0
 36 41  2  0  0  0  0
 36 37  1  0  0  0  0
 37 38  2  0  0  0  0
 38 39  1  0  0  0  0
 39 40  2  0  0  0  0
 39 45  1  0  0  0  0
 40 41  1  0  0  0  0
 40 43  1  0  0  0  0
 41 42  1  0  0  0  0
 43 44  2  0  0  0  0
 44 45  1  0  0  0  0
M  CHG  4   8  -1   9  -1  11  -1  12  -1
M  END
>  <CHROM.1>
168.65366316,16.91842266,96.83561493,12.83874786,96.23167425,-1.96653924
-0.54066492,-0.33193027

>  <Name>
ligand

>  <RI>
0

>  <Rbt.Current_Directory>
/home/itssahil/PROJECTS/Mol_Feturizer/New_Systems/rnas/4YAZ

>  <Rbt.Executable>
rbdock ($Id: //depot/dev/client3/rdock/2013.1/src/exe/rbdock.cxx#4 $)

>  <Rbt.Library>
libRbt.so (2013.1, Build901 2013/11/27)

>  <Rbt.Parameter_File>
/export/apps/rDock/src/rDock_2013.1_src/data/scripts/dock_solv.prm

>  <Rbt.Receptor>
prm/pocket_docking_8.prm

>  <SCORE>
-30.3346

>  <SCORE.INTER>
-30.7169

>  <SCORE.INTER.CONST>
1

>  <SCORE.INTER.POLAR>
0

>  <SCORE.INTER.ROT>
2

>  <SCORE.INTER.SOLV>
32.374

>  <SCORE.INTER.VDW>
-36.2026

>  <SCORE.INTER.norm>
-0.682597

>  <SCORE.INTRA>
0.382256

>  <SCORE.INTRA.DIHEDRAL>
-0.0830317

>  <SCORE.INTRA.DIHEDRAL.0>
2.39103

>  <SCORE.INTRA.POLAR>
0

>  <SCORE.INTRA.POLAR.0>
0

>  <SCORE.INTRA.REPUL>
0

>  <SCORE.INTRA.REPUL.0>
0

>  <SCORE.INTRA.SOLV>
4.86877

>  <SCORE.INTRA.SOLV.lig_0>
-163.975

>  <SCORE.INTRA.VDW>
-2.01061

>  <SCORE.INTRA.VDW.0>
-1.49176

>  <SCORE.INTRA.norm>
0.00849458

>  <SCORE.RESTR>
0

>  <SCORE.RESTR.CAVITY>
0

>  <SCORE.RESTR.norm>
0

>  <SCORE.SYSTEM>
0

>  <SCORE.SYSTEM.CONST>
0

>  <SCORE.SYSTEM.DIHEDRAL>
0

>  <SCORE.SYSTEM.SOLV>
0

>  <SCORE.SYSTEM.norm>
0

>  <SCORE.heavy>
45

>  <SCORE.norm>
-0.674102

>  <RMSD>
6.792

$$$$
ligand
 OpenBabel11021811513D
libRbt.so/2013.1/901 2013/11/27
 45 51  0  0  0  0  0  0  0  0999 V2000
   93.8603   11.3294   99.6640 C   0  0  0  0  0  0  0  0  0  0  0  0
   95.2599   10.9534   94.5758 C   0  0  0  0  0  0  0  0  0  0  0  0
   97.7644    7.8653   97.3922 N   0  0  0  0  0  0  0  0  0  0  0  0
   94.8482   11.1550  100.4806 N   0  0  0  0  0  0  0  0  0  0  0  0
   95.8884    9.1787   97.8529 N   0  0  0  0  0  0  0  0  0  0  0  0
   97.5830    8.9855   99.4361 N   0  0  0  0  0  0  0  0  0  0  0  0
   97.4599   10.1723  101.5220 O   0  0  0  0  0  0  0  0  0  0  0  0
   98.1330    9.8972   94.1205 O   0  5  0  0  0  0  0  0  0  0  0  0
   92.7242   15.2662   94.2325 O   0  5  0  0  0  0  0  0  0  0  0  0
   91.5513   12.0729   96.6957 O   0  0  0  0  0  0  0  0  0  0  0  0
   98.6770   11.0252   95.9604 O   0  5  0  0  0  0  0  0  0  0  0  0
   92.8839   14.9886   96.4446 O   0  5  0  0  0  0  0  0  0  0  0  0
   96.2778   10.5616   95.4070 O   0  0  0  0  0  0  0  0  0  0  0  0
   93.7475    9.9077   96.3392 O   0  0  0  0  0  0  0  0  0  0  0  0
   93.1643   13.0174   94.8525 O   0  0  0  0  0  0  0  0  0  0  0  0
   97.0339    8.7138   98.2783 C   0  0  0  0  0  0  0  0  0  0  0  0
   96.9598    9.8022  100.2750 C   0  0  0  0  0  0  0  0  0  0  0  0
   95.7054   10.3296   99.8937 C   0  0  0  0  0  0  0  0  0  0  0  0
   95.1909   10.0099   98.6614 C   0  0  0  0  0  0  0  0  0  0  0  0
   92.8564   11.8316   97.0676 C   0  0  2  0  0  0  0  0  0  0  0  0
   93.9553   10.9887   95.2646 C   0  0  1  0  0  0  0  0  0  0  0  0
   93.7752   12.1162   95.7683 C   0  0  1  0  0  0  0  0  0  0  0  0
   93.1241   10.6166   97.5089 C   0  0  2  0  0  0  0  0  0  0  0  0
   94.0266   10.6559   98.5862 N   0  0  0  0  0  0  0  0  0  0  0  0
   97.7050   10.9662   94.9256 P   0  0  2  0  0  0  0  0  0  0  0  0
   93.4032   14.5030   95.1895 P   0  0  1  0  0  0  0  0  0  0  0  0
   95.6247   14.3607   93.8232 C   0  0  0  0  0  0  0  0  0  0  0  0
   94.9173   14.8318   94.9814 O   0  0  0  0  0  0  0  0  0  0  0  0
   97.0904   14.3908   93.9375 C   0  0  1  0  0  0  0  0  0  0  0  0
   97.5062   15.7838   94.6228 O   0  0  0  0  0  0  0  0  0  0  0  0
   97.4796   13.4957   94.7295 C   0  0  1  0  0  0  0  0  0  0  0  0
   97.7059   12.2335   94.0608 O   0  0  0  0  0  0  0  0  0  0  0  0
   98.7190   14.0920   95.3793 C   0  0  1  0  0  0  0  0  0  0  0  0
   99.7292   13.9005   94.6483 O   0  0  0  0  0  0  0  0  0  0  0  0
   98.4322   15.5924   95.4387 C   0  0  2  0  0  0  0  0  0  0  0  0
  100.4845   16.1260  100.1225 N   0  0  0  0  0  0  0  0  0  0  0  0
  100.9689   15.3790   99.0958 C   0  0  0  0  0  0  0  0  0  0  0  0
  100.2843   15.3854   97.9584 N   0  0  0  0  0  0  0  0  0  0  0  0
   99.1122   16.0312   97.7793 C   0  0  0  0  0  0  0  0  0  0  0  0
   98.5773   16.8175   98.8221 C   0  0  0  0  0  0  0  0  0  0  0  0
   99.3345   16.8212  100.0369 C   0  0  0  0  0  0  0  0  0  0  0  0
   98.8573   17.5704  101.1527 N   0  0  0  0  0  0  0  0  0  0  0  0
   97.4954   17.3450   98.3670 N   0  0  0  0  0  0  0  0  0  0  0  0
   97.3293   16.9640   97.1124 C   0  0  0  0  0  0  0  0  0  0  0  0
   98.2677   16.1659   96.7464 N   0  0  0  0  0  0  0  0  0  0  0  0
  1 24  1  0  0  0  0
  1  4  2  0  0  0  0
  2 13  1  0  0  0  0
  2 21  1  0  0  0  0
  3 16  1  0  0  0  0
  4 18  1  0  0  0  0
  5 19  2  0  0  0  0
  5 16  1  0  0  0  0
  6 16  2  0  0  0  0
  6 17  1  0  0  0  0
  7 17  1  0  0  0  0
 11 25  2  0  0  0  0
 12 26  2  0  0  0  0
 13 25  1  0  0  0  0
 14 23  1  0  0  0  0
 15 26  1  0  0  0  0
 17 18  2  0  0  0  0
 18 19  1  0  0  0  0
 19 24  1  0  0  0  0
 20 10  1  6  0  0  0
 20 22  1  0  0  0  0
 20 23  1  0  0  0  0
 21 14  1  1  0  0  0
 21 22  1  0  0  0  0
 22 15  1  6  0  0  0
 23 24  1  1  0  0  0
 25  8  1  6  0  0  0
 25 32  1  0  0  0  0
 26  9  1  6  0  0  0
 26 28  1  0  0  0  0
 27 28  1  0  0  0  0
 29 27  1  1  0  0  0
 29 30  1  0  0  0  0
 29 31  1  0  0  0  0
 30 35  1  0  0  0  0
 31 33  1  0  0  0  0
 31 32  1  6  0  0  0
 33 34  1  6  0  0  0
 33 35  1  0  0  0  0
 35 45  1  1  0  0  0
 36 41  2  0  0  0  0
 36 37  1  0  0  0  0
 37 38  2  0  0  0  0
 38 39  1  0  0  0  0
 39 40  2  0  0  0  0
 39 45  1  0  0  0  0
 40 41  1  0  0  0  0
 40 43  1  0  0  0  0
 41 42  1  0  0  0  0
 43 44  2  0  0  0  0
 44 45  1  0  0  0  0
M  CHG  4   8  -1   9  -1  11  -1  12  -1
M  END
>  <CHROM.1>
170.93387714,177.00705517,96.38208939,12.86341778,96.81040928,-2.45197857
-0.68122280,-0.50569168

>  <Name>
ligand

>  <RI>
0

>  <Rbt.Current_Directory>
/home/itssahil/PROJECTS/Mol_Feturizer/New_Systems/rnas/4YAZ

>  <Rbt.Executable>
rbdock ($Id: //depot/dev/client3/rdock/2013.1/src/exe/rbdock.cxx#4 $)

>  <Rbt.Library>
libRbt.so (2013.1, Build901 2013/11/27)

>  <Rbt.Parameter_File>
/export/apps/rDock/src/rDock_2013.1_src/data/scripts/dock_solv.prm

>  <Rbt.Receptor>
prm/pocket_docking_2.prm

>  <SCORE>
-36.6818

>  <SCORE.INTER>
-39.5685

>  <SCORE.INTER.CONST>
1

>  <SCORE.INTER.POLAR>
0

>  <SCORE.INTER.ROT>
2

>  <SCORE.INTER.SOLV>
27.1864

>  <SCORE.INTER.VDW>
-40.3745

>  <SCORE.INTER.norm>
-0.8793

>  <SCORE.INTRA>
1.28138

>  <SCORE.INTRA.DIHEDRAL>
-0.0256028

>  <SCORE.INTRA.DIHEDRAL.0>
2.39103

>  <SCORE.INTRA.POLAR>
0

>  <SCORE.INTRA.POLAR.0>
0

>  <SCORE.INTRA.REPUL>
0

>  <SCORE.INTRA.REPUL.0>
0

>  <SCORE.INTRA.SOLV>
4.7298

>  <SCORE.INTRA.SOLV.lig_0>
-163.975

>  <SCORE.INTRA.VDW>
-1.07072

>  <SCORE.INTRA.VDW.0>
-1.49176

>  <SCORE.INTRA.norm>
0.0284751

>  <SCORE.RESTR>
1.6053

>  <SCORE.RESTR.CAVITY>
1.6053

>  <SCORE.RESTR.norm>
0.0356734

>  <SCORE.SYSTEM>
0

>  <SCORE.SYSTEM.CONST>
0

>  <SCORE.SYSTEM.DIHEDRAL>
0

>  <SCORE.SYSTEM.SOLV>
0

>  <SCORE.SYSTEM.norm>
0

>  <SCORE.heavy>
45

>  <SCORE.norm>
-0.815152

>  <RMSD>
6.797

$$$$
ligand
 OpenBabel11021811513D
libRbt.so/2013.1/901 2013/11/27
 45 51  0  0  0  0  0  0  0  0999 V2000
   93.8753   11.3371   99.6528 C   0  0  0  0  0  0  0  0  0  0  0  0
   95.2534   10.9780   94.5641 C   0  0  0  0  0  0  0  0  0  0  0  0
   97.7508    7.8396   97.3833 N   0  0  0  0  0  0  0  0  0  0  0  0
   94.8644   11.1596  100.4672 N   0  0  0  0  0  0  0  0  0  0  0  0
   95.8845    9.1665   97.8442 N   0  0  0  0  0  0  0  0  0  0  0  0
   97.5824    8.9688   99.4233 N   0  0  0  0  0  0  0  0  0  0  0  0
   97.4729   10.1643  101.5049 O   0  0  0  0  0  0  0  0  0  0  0  0
   98.1287    9.9340   94.0949 O   0  5  0  0  0  0  0  0  0  0  0  0
   92.7013   15.2832   94.2481 O   0  5  0  0  0  0  0  0  0  0  0  0
   91.5478   12.0749   96.7009 O   0  0  0  0  0  0  0  0  0  0  0  0
   98.6747   11.0557   95.9380 O   0  5  0  0  0  0  0  0  0  0  0  0
   92.8693   14.9964   96.4585 O   0  5  0  0  0  0  0  0  0  0  0  0
   96.2754   10.5861   95.3903 O   0  0  0  0  0  0  0  0  0  0  0  0
   93.7504    9.9191   96.3278 O   0  0  0  0  0  0  0  0  0  0  0  0
   93.1514   13.0332   94.8567 O   0  0  0  0  0  0  0  0  0  0  0  0
   97.0283    8.6961   98.2681 C   0  0  0  0  0  0  0  0  0  0  0  0
   96.9669    9.7926  100.2607 C   0  0  0  0  0  0  0  0  0  0  0  0
   95.7147   10.3265   99.8810 C   0  0  0  0  0  0  0  0  0  0  0  0
   95.1946   10.0053   98.6515 C   0  0  0  0  0  0  0  0  0  0  0  0
   92.8550   11.8366   97.0676 C   0  0  2  0  0  0  0  0  0  0  0  0
   93.9509   11.0056   95.2573 C   0  0  1  0  0  0  0  0  0  0  0  0
   93.7684   12.1301   95.7666 C   0  0  1  0  0  0  0  0  0  0  0  0
   93.1283   10.6206   97.5026 C   0  0  2  0  0  0  0  0  0  0  0  0
   94.0342   10.6584   98.5771 N   0  0  0  0  0  0  0  0  0  0  0  0
   97.6995   10.9979   94.9061 P   0  0  2  0  0  0  0  0  0  0  0  0
   93.3861   14.5182   95.1995 P   0  0  1  0  0  0  0  0  0  0  0  0
   95.6037   14.3898   93.8254 C   0  0  0  0  0  0  0  0  0  0  0  0
   94.8984   14.8533   94.9880 O   0  0  0  0  0  0  0  0  0  0  0  0
   97.0696   14.4246   93.9351 C   0  0  1  0  0  0  0  0  0  0  0  0
   97.4827   15.8160   94.6252 O   0  0  0  0  0  0  0  0  0  0  0  0
   97.4646   13.5274   94.7218 C   0  0  1  0  0  0  0  0  0  0  0  0
   97.6931   12.2689   94.0469 O   0  0  0  0  0  0  0  0  0  0  0  0
   98.7039   14.1252   95.3703 C   0  0  1  0  0  0  0  0  0  0  0  0
   99.7125   13.9406   94.6351 O   0  0  0  0  0  0  0  0  0  0  0  0
   98.4121   15.6244   95.4373 C   0  0  2  0  0  0  0  0  0  0  0  0
  100.4547   16.1049  100.1310 N   0  0  0  0  0  0  0  0  0  0  0  0
  100.9339   15.3588   99.1012 C   0  0  0  0  0  0  0  0  0  0  0  0
  100.2532   15.3803   97.9617 N   0  0  0  0  0  0  0  0  0  0  0  0
   99.0892   16.0406   97.7828 C   0  0  0  0  0  0  0  0  0  0  0  0
   98.5599   16.8265   98.8288 C   0  0  0  0  0  0  0  0  0  0  0  0
   99.3130   16.8138  100.0461 C   0  0  0  0  0  0  0  0  0  0  0  0
   98.8408   17.5614  101.1650 N   0  0  0  0  0  0  0  0  0  0  0  0
   97.4856   17.3692   98.3735 N   0  0  0  0  0  0  0  0  0  0  0  0
   97.3194   16.9980   97.1159 C   0  0  0  0  0  0  0  0  0  0  0  0
   98.2498   16.1915   96.7480 N   0  0  0  0  0  0  0  0  0  0  0  0
  1 24  1  0  0  0  0
  1  4  2  0  0  0  0
  2 13  1  0  0  0  0
  2 21  1  0  0  0  0
  3 16  1  0  0  0  0
  4 18  1  0  0  0  0
  5 19  2  0  0  0  0
  5 16  1  0  0  0  0
  6 16  2  0  0  0  0
  6 17  1  0  0  0  0
  7 17  1  0  0  0  0
 11 25  2  0  0  0  0
 12 26  2  0  0  0  0
 13 25  1  0  0  0  0
 14 23  1  0  0  0  0
 15 26  1  0  0  0  0
 17 18  2  0  0  0  0
 18 19  1  0  0  0  0
 19 24  1  0  0  0  0
 20 10  1  6  0  0  0
 20 22  1  0  0  0  0
 20 23  1  0  0  0  0
 21 14  1  1  0  0  0
 21 22  1  0  0  0  0
 22 15  1  6  0  0  0
 23 24  1  1  0  0  0
 25  8  1  6  0  0  0
 25 32  1  0  0  0  0
 26  9  1  6  0  0  0
 26 28  1  0  0  0  0
 27 28  1  0  0  0  0
 29 27  1  1  0  0  0
 29 30  1  0  0  0  0
 29 31  1  0  0  0  0
 30 35  1  0  0  0  0
 31 33  1  0  0  0  0
 31 32  1  6  0  0  0
 33 34  1  6  0  0  0
 33 35  1  0  0  0  0
 35 45  1  1  0  0  0
 36 41  2  0  0  0  0
 36 37  1  0  0  0  0
 37 38  2  0  0  0  0
 38 39  1  0  0  0  0
 39 40  2  0  0  0  0
 39 45  1  0  0  0  0
 40 41  1  0  0  0  0
 40 43  1  0  0  0  0
 41 42  1  0  0  0  0
 43 44  2  0  0  0  0
 44 45  1  0  0  0  0
M  CHG  4   8  -1   9  -1  11  -1  12  -1
M  END
>  <CHROM.1>
170.19445182,176.06149767,96.37251768,12.87580904,96.80633446,-2.43974471
-0.68210426,-0.49933490

>  <Name>
ligand

>  <RI>
0

>  <Rbt.Current_Directory>
/home/itssahil/PROJECTS/Mol_Feturizer/New_Systems/rnas/4YAZ

>  <Rbt.Executable>
rbdock ($Id: //depot/dev/client3/rdock/2013.1/src/exe/rbdock.cxx#4 $)

>  <Rbt.Library>
libRbt.so (2013.1, Build901 2013/11/27)

>  <Rbt.Parameter_File>
/export/apps/rDock/src/rDock_2013.1_src/data/scripts/dock_solv.prm

>  <Rbt.Receptor>
prm/pocket_docking_2.prm

>  <SCORE>
-36.7085

>  <SCORE.INTER>
-39.4921

>  <SCORE.INTER.CONST>
1

>  <SCORE.INTER.POLAR>
0

>  <SCORE.INTER.ROT>
2

>  <SCORE.INTER.SOLV>
27.233

>  <SCORE.INTER.VDW>
-40.3391

>  <SCORE.INTER.norm>
-0.877602

>  <SCORE.INTRA>
1.16693

>  <SCORE.INTRA.DIHEDRAL>
-0.0318862

>  <SCORE.INTRA.DIHEDRAL.0>
2.39103

>  <SCORE.INTRA.POLAR>
0

>  <SCORE.INTRA.POLAR.0>
0

>  <SCORE.INTRA.REPUL>
0

>  <SCORE.INTRA.REPUL.0>
0

>  <SCORE.INTRA.SOLV>
4.39492

>  <SCORE.INTRA.SOLV.lig_0>
-163.975

>  <SCORE.INTRA.VDW>
-1.01459

>  <SCORE.INTRA.VDW.0>
-1.49176

>  <SCORE.INTRA.norm>
0.0259318

>  <SCORE.RESTR>
1.61664

>  <SCORE.RESTR.CAVITY>
1.61664

>  <SCORE.RESTR.norm>
0.0359252

>  <SCORE.SYSTEM>
0

>  <SCORE.SYSTEM.CONST>
0

>  <SCORE.SYSTEM.DIHEDRAL>
0

>  <SCORE.SYSTEM.SOLV>
0

>  <SCORE.SYSTEM.norm>
0

>  <SCORE.heavy>
45

>  <SCORE.norm>
-0.815745

>  <RMSD>
6.797

$$$$
ligand
 OpenBabel11021811513D
libRbt.so/2013.1/901 2013/11/27
 45 51  0  0  0  0  0  0  0  0999 V2000
   93.8610   11.3430   99.6593 C   0  0  0  0  0  0  0  0  0  0  0  0
   95.2508   10.9773   94.5723 C   0  0  0  0  0  0  0  0  0  0  0  0
   97.7313    7.8392   97.3907 N   0  0  0  0  0  0  0  0  0  0  0  0
   94.8478   11.1608  100.4755 N   0  0  0  0  0  0  0  0  0  0  0  0
   95.8679    9.1706   97.8504 N   0  0  0  0  0  0  0  0  0  0  0  0
   97.5617    8.9644   99.4329 N   0  0  0  0  0  0  0  0  0  0  0  0
   97.4510   10.1557  101.5169 O   0  0  0  0  0  0  0  0  0  0  0  0
   98.1209    9.9161   94.1100 O   0  5  0  0  0  0  0  0  0  0  0  0
   92.7250   15.2975   94.2489 O   0  5  0  0  0  0  0  0  0  0  0  0
   91.5467   12.0969   96.7001 O   0  0  0  0  0  0  0  0  0  0  0  0
   98.6692   11.0352   95.9541 O   0  5  0  0  0  0  0  0  0  0  0  0
   92.8861   15.0104   96.4598 O   0  5  0  0  0  0  0  0  0  0  0  0
   96.2684   10.5796   95.4009 O   0  0  0  0  0  0  0  0  0  0  0  0
   93.7374    9.9279   96.3327 O   0  0  0  0  0  0  0  0  0  0  0  0
   93.1603   13.0450   94.8593 O   0  0  0  0  0  0  0  0  0  0  0  0
   97.0093    8.6959   98.2758 C   0  0  0  0  0  0  0  0  0  0  0  0
   96.9467    9.7882  100.2707 C   0  0  0  0  0  0  0  0  0  0  0  0
   95.6969   10.3265   99.8894 C   0  0  0  0  0  0  0  0  0  0  0  0
   95.1786   10.0097   98.6580 C   0  0  0  0  0  0  0  0  0  0  0  0
   92.8516   11.8510   97.0699 C   0  0  2  0  0  0  0  0  0  0  0  0
   93.9468   11.0129   95.2623 C   0  0  1  0  0  0  0  0  0  0  0  0
   93.7699   12.1386   95.7709 C   0  0  1  0  0  0  0  0  0  0  0  0
   93.1167   10.6335   97.5059 C   0  0  2  0  0  0  0  0  0  0  0  0
   94.0204   10.6663   98.5825 N   0  0  0  0  0  0  0  0  0  0  0  0
   97.6962   10.9828   94.9199 P   0  0  2  0  0  0  0  0  0  0  0  0
   93.4031   14.5287   95.2022 P   0  0  1  0  0  0  0  0  0  0  0  0
   95.6230   14.3867   93.8333 C   0  0  0  0  0  0  0  0  0  0  0  0
   94.9178   14.8547   94.9941 O   0  0  0  0  0  0  0  0  0  0  0  0
   97.0889   14.4128   93.9464 C   0  0  1  0  0  0  0  0  0  0  0  0
   97.5086   15.8020   94.6370 O   0  0  0  0  0  0  0  0  0  0  0  0
   97.4766   13.5136   94.7343 C   0  0  1  0  0  0  0  0  0  0  0  0
   97.6993   12.2536   94.0603 O   0  0  0  0  0  0  0  0  0  0  0  0
   98.7180   14.1042   95.3855 C   0  0  1  0  0  0  0  0  0  0  0  0
   99.7272   13.9133   94.6527 O   0  0  0  0  0  0  0  0  0  0  0  0
   98.4349   15.6051   95.4513 C   0  0  2  0  0  0  0  0  0  0  0  0
  100.4950   16.1186  100.1339 N   0  0  0  0  0  0  0  0  0  0  0  0
  100.9771   15.3751   99.1036 C   0  0  0  0  0  0  0  0  0  0  0  0
  100.2907   15.3866   97.9673 N   0  0  0  0  0  0  0  0  0  0  0  0
   99.1189   16.0342   97.7925 C   0  0  0  0  0  0  0  0  0  0  0  0
   98.5863   16.8168   98.8392 C   0  0  0  0  0  0  0  0  0  0  0  0
   99.3454   16.8151  100.0529 C   0  0  0  0  0  0  0  0  0  0  0  0
   98.8707   17.5604  101.1723 N   0  0  0  0  0  0  0  0  0  0  0  0
   97.5042   17.3470   98.3879 N   0  0  0  0  0  0  0  0  0  0  0  0
   97.3359   16.9711   97.1320 C   0  0  0  0  0  0  0  0  0  0  0  0
   98.2730   16.1736   96.7614 N   0  0  0  0  0  0  0  0  0  0  0  0
  1 24  1  0  0  0  0
  1  4  2  0  0  0  0
  2 13  1  0  0  0  0
  2 21  1  0  0  0  0
  3 16  1  0  0  0  0
  4 18  1  0  0  0  0
  5 19  2  0  0  0  0
  5 16  1  0  0  0  0
  6 16  2  0  0  0  0
  6 17  1  0  0  0  0
  7 17  1  0  0  0  0
 11 25  2  0  0  0  0
 12 26  2  0  0  0  0
 13 25  1  0  0  0  0
 14 23  1  0  0  0  0
 15 26  1  0  0  0  0
 17 18  2  0  0  0  0
 18 19  1  0  0  0  0
 19 24  1  0  0  0  0
 20 10  1  6  0  0  0
 20 22  1  0  0  0  0
 20 23  1  0  0  0  0
 21 14  1  1  0  0  0
 21 22  1  0  0  0  0
 22 15  1  6  0  0  0
 23 24  1  1  0  0  0
 25  8  1  6  0  0  0
 25 32  1  0  0  0  0
 26  9  1  6  0  0  0
 26 28  1  0  0  0  0
 27 28  1  0  0  0  0
 29 27  1  1  0  0  0
 29 30  1  0  0  0  0
 29 31  1  0  0  0  0
 30 35  1  0  0  0  0
 31 33  1  0  0  0  0
 31 32  1  6  0  0  0
 33 34  1  6  0  0  0
 33 35  1  0  0  0  0
 35 45  1  1  0  0  0
 36 41  2  0  0  0  0
 36 37  1  0  0  0  0
 37 38  2  0  0  0  0
 38 39  1  0  0  0  0
 39 40  2  0  0  0  0
 39 45  1  0  0  0  0
 40 41  1  0  0  0  0
 40 43  1  0  0  0  0
 41 42  1  0  0  0  0
 43 44  2  0  0  0  0
 44 45  1  0  0  0  0
M  CHG  4   8  -1   9  -1  11  -1  12  -1
M  END
>  <CHROM.1>
170.42035742,177.10205810,96.37835427,12.87352368,96.81470267,-2.44975929
-0.67972473,-0.50349942

>  <Name>
ligand

>  <RI>
0

>  <Rbt.Current_Directory>
/home/itssahil/PROJECTS/Mol_Feturizer/New_Systems/rnas/4YAZ

>  <Rbt.Executable>
rbdock ($Id: //depot/dev/client3/rdock/2013.1/src/exe/rbdock.cxx#4 $)

>  <Rbt.Library>
libRbt.so (2013.1, Build901 2013/11/27)

>  <Rbt.Parameter_File>
/export/apps/rDock/src/rDock_2013.1_src/data/scripts/dock_solv.prm

>  <Rbt.Receptor>
prm/pocket_docking_2.prm

>  <SCORE>
-36.6382

>  <SCORE.INTER>
-39.431

>  <SCORE.INTER.CONST>
1

>  <SCORE.INTER.POLAR>
0

>  <SCORE.INTER.ROT>
2

>  <SCORE.INTER.SOLV>
27.3484

>  <SCORE.INTER.VDW>
-40.3368

>  <SCORE.INTER.norm>
-0.876244

>  <SCORE.INTRA>
1.20019

>  <SCORE.INTRA.DIHEDRAL>
-0.0248176

>  <SCORE.INTRA.DIHEDRAL.0>
2.39103

>  <SCORE.INTRA.POLAR>
0

>  <SCORE.INTRA.POLAR.0>
0

>  <SCORE.INTRA.REPUL>
0

>  <SCORE.INTRA.REPUL.0>
0

>  <SCORE.INTRA.SOLV>
4.49666

>  <SCORE.INTRA.SOLV.lig_0>
-163.975

>  <SCORE.INTRA.VDW>
-1.03573

>  <SCORE.INTRA.VDW.0>
-1.49176

>  <SCORE.INTRA.norm>
0.0266709

>  <SCORE.RESTR>
1.59261

>  <SCORE.RESTR.CAVITY>
1.59261

>  <SCORE.RESTR.norm>
0.0353913

>  <SCORE.SYSTEM>
0

>  <SCORE.SYSTEM.CONST>
0

>  <SCORE.SYSTEM.DIHEDRAL>
0

>  <SCORE.SYSTEM.SOLV>
0

>  <SCORE.SYSTEM.norm>
0

>  <SCORE.heavy>
45

>  <SCORE.norm>
-0.814181

>  <RMSD>
6.800

$$$$
ligand
 OpenBabel11021811513D
libRbt.so/2013.1/901 2013/11/27
 45 51  0  0  0  0  0  0  0  0999 V2000
   93.8717   11.3245   99.6587 C   0  0  0  0  0  0  0  0  0  0  0  0
   95.2703   10.9797   94.5709 C   0  0  0  0  0  0  0  0  0  0  0  0
   97.7682    7.8573   97.3785 N   0  0  0  0  0  0  0  0  0  0  0  0
   94.8589   11.1454  100.4751 N   0  0  0  0  0  0  0  0  0  0  0  0
   95.8952    9.1739   97.8422 N   0  0  0  0  0  0  0  0  0  0  0  0
   97.5888    8.9722   99.4255 N   0  0  0  0  0  0  0  0  0  0  0  0
   97.4679   10.1533  101.5147 O   0  0  0  0  0  0  0  0  0  0  0  0
   98.1455    9.9322   94.1093 O   0  5  0  0  0  0  0  0  0  0  0  0
   92.7260   15.2896   94.2552 O   0  5  0  0  0  0  0  0  0  0  0  0
   91.5591   12.0780   96.6973 O   0  0  0  0  0  0  0  0  0  0  0  0
   98.6869   11.0492   95.9567 O   0  5  0  0  0  0  0  0  0  0  0  0
   92.8860   14.9980   96.4655 O   0  5  0  0  0  0  0  0  0  0  0  0
   96.2888   10.5845   95.3997 O   0  0  0  0  0  0  0  0  0  0  0  0
   93.7595    9.9196   96.3272 O   0  0  0  0  0  0  0  0  0  0  0  0
   93.1705   13.0377   94.8606 O   0  0  0  0  0  0  0  0  0  0  0  0
   97.0395    8.7051   98.2667 C   0  0  0  0  0  0  0  0  0  0  0  0
   96.9673    9.7880  100.2664 C   0  0  0  0  0  0  0  0  0  0  0  0
   95.7143   10.3195   99.8862 C   0  0  0  0  0  0  0  0  0  0  0  0
   95.1994   10.0046   98.6528 C   0  0  0  0  0  0  0  0  0  0  0  0
   92.8646   11.8369   97.0679 C   0  0  2  0  0  0  0  0  0  0  0  0
   93.9654   11.0080   95.2596 C   0  0  1  0  0  0  0  0  0  0  0  0
   93.7830   12.1317   95.7707 C   0  0  1  0  0  0  0  0  0  0  0  0
   93.1345   10.6196   97.5013 C   0  0  2  0  0  0  0  0  0  0  0  0
   94.0368   10.6537   98.5790 N   0  0  0  0  0  0  0  0  0  0  0  0
   97.7152   10.9950   94.9213 P   0  0  2  0  0  0  0  0  0  0  0  0
   93.4064   14.5216   95.2073 P   0  0  1  0  0  0  0  0  0  0  0  0
   95.6284   14.3925   93.8406 C   0  0  0  0  0  0  0  0  0  0  0  0
   94.9199   14.8547   95.0017 O   0  0  0  0  0  0  0  0  0  0  0  0
   97.0941   14.4248   93.9554 C   0  0  1  0  0  0  0  0  0  0  0  0
   97.5070   15.8141   94.6498 O   0  0  0  0  0  0  0  0  0  0  0  0
   97.4849   13.5253   94.7416 C   0  0  1  0  0  0  0  0  0  0  0  0
   97.7138   12.2679   94.0648 O   0  0  0  0  0  0  0  0  0  0  0  0
   98.7229   14.1198   95.3956 C   0  0  1  0  0  0  0  0  0  0  0  0
   99.7337   13.9351   94.6635 O   0  0  0  0  0  0  0  0  0  0  0  0
   98.4332   15.6193   95.4647 C   0  0  2  0  0  0  0  0  0  0  0  0
  100.5143   16.1816  100.1323 N   0  0  0  0  0  0  0  0  0  0  0  0
  101.0065   15.4497   99.0985 C   0  0  0  0  0  0  0  0  0  0  0  0
  100.3118   15.4449   97.9672 N   0  0  0  0  0  0  0  0  0  0  0  0
   99.1238   16.0646   97.8009 C   0  0  0  0  0  0  0  0  0  0  0  0
   98.5804   16.8345   98.8515 C   0  0  0  0  0  0  0  0  0  0  0  0
   99.3481   16.8508  100.0597 C   0  0  0  0  0  0  0  0  0  0  0  0
   98.8640   17.5847  101.1826 N   0  0  0  0  0  0  0  0  0  0  0  0
   97.4828   17.3389   98.4081 N   0  0  0  0  0  0  0  0  0  0  0  0
   97.3144   16.9590   97.1534 C   0  0  0  0  0  0  0  0  0  0  0  0
   98.2674   16.1839   96.7760 N   0  0  0  0  0  0  0  0  0  0  0  0
  1 24  1  0  0  0  0
  1  4  2  0  0  0  0
  2 13  1  0  0  0  0
  2 21  1  0  0  0  0
  3 16  1  0  0  0  0
  4 18  1  0  0  0  0
  5 19  2  0  0  0  0
  5 16  1  0  0  0  0
  6 16  2  0  0  0  0
  6 17  1  0  0  0  0
  7 17  1  0  0  0  0
 11 25  2  0  0  0  0
 12 26  2  0  0  0  0
 13 25  1  0  0  0  0
 14 23  1  0  0  0  0
 15 26  1  0  0  0  0
 17 18  2  0  0  0  0
 18 19  1  0  0  0  0
 19 24  1  0  0  0  0
 20 10  1  6  0  0  0
 20 22  1  0  0  0  0
 20 23  1  0  0  0  0
 21 14  1  1  0  0  0
 21 22  1  0  0  0  0
 22 15  1  6  0  0  0
 23 24  1  1  0  0  0
 25  8  1  6  0  0  0
 25 32  1  0  0  0  0
 26  9  1  6  0  0  0
 26 28  1  0  0  0  0
 27 28  1  0  0  0  0
 29 27  1  1  0  0  0
 29 30  1  0  0  0  0
 29 31  1  0  0  0  0
 30 35  1  0  0  0  0
 31 33  1  0  0  0  0
 31 32  1  6  0  0  0
 33 34  1  6  0  0  0
 33 35  1  0  0  0  0
 35 45  1  1  0  0  0
 36 41  2  0  0  0  0
 36 37  1  0  0  0  0
 37 38  2  0  0  0  0
 38 39  1  0  0  0  0
 39 40  2  0  0  0  0
 39 45  1  0  0  0  0
 40 41  1  0  0  0  0
 40 43  1  0  0  0  0
 41 42  1  0  0  0  0
 43 44  2  0  0  0  0
 44 45  1  0  0  0  0
M  CHG  4   8  -1   9  -1  11  -1  12  -1
M  END
>  <CHROM.1>
170.60349822,178.31271955,96.38967011,12.88025520,96.81730286,-2.44670253
-0.68111729,-0.49703991

>  <Name>
ligand

>  <RI>
0

>  <Rbt.Current_Directory>
/home/itssahil/PROJECTS/Mol_Feturizer/New_Systems/rnas/4YAZ

>  <Rbt.Executable>
rbdock ($Id: //depot/dev/client3/rdock/2013.1/src/exe/rbdock.cxx#4 $)

>  <Rbt.Library>
libRbt.so (2013.1, Build901 2013/11/27)

>  <Rbt.Parameter_File>
/export/apps/rDock/src/rDock_2013.1_src/data/scripts/dock_solv.prm

>  <Rbt.Receptor>
prm/pocket_docking_2.prm

>  <SCORE>
-36.73

>  <SCORE.INTER>
-39.5696

>  <SCORE.INTER.CONST>
1

>  <SCORE.INTER.POLAR>
0

>  <SCORE.INTER.ROT>
2

>  <SCORE.INTER.SOLV>
27.2968

>  <SCORE.INTER.VDW>
-40.412

>  <SCORE.INTER.norm>
-0.879324

>  <SCORE.INTRA>
1.22642

>  <SCORE.INTRA.DIHEDRAL>
-0.0164395

>  <SCORE.INTRA.DIHEDRAL.0>
2.39103

>  <SCORE.INTRA.POLAR>
0

>  <SCORE.INTRA.POLAR.0>
0

>  <SCORE.INTRA.REPUL>
0

>  <SCORE.INTRA.REPUL.0>
0

>  <SCORE.INTRA.SOLV>
4.57846

>  <SCORE.INTRA.SOLV.lig_0>
-163.975

>  <SCORE.INTRA.VDW>
-1.0546

>  <SCORE.INTRA.VDW.0>
-1.49176

>  <SCORE.INTRA.norm>
0.0272537

>  <SCORE.RESTR>
1.61318

>  <SCORE.RESTR.CAVITY>
1.61318

>  <SCORE.RESTR.norm>
0.0358485

>  <SCORE.SYSTEM>
0

>  <SCORE.SYSTEM.CONST>
0

>  <SCORE.SYSTEM.DIHEDRAL>
0

>  <SCORE.SYSTEM.SOLV>
0

>  <SCORE.SYSTEM.norm>
0

>  <SCORE.heavy>
45

>  <SCORE.norm>
-0.816222

>  <RMSD>
6.803

$$$$
ligand
 OpenBabel11021811513D
libRbt.so/2013.1/901 2013/11/27
 45 51  0  0  0  0  0  0  0  0999 V2000
   96.4737   10.2484   98.2322 C   0  0  0  0  0  0  0  0  0  0  0  0
   95.6045   11.0832   94.4776 C   0  0  0  0  0  0  0  0  0  0  0  0
   93.9547   11.4742  103.1875 N   0  0  0  0  0  0  0  0  0  0  0  0
   97.3114   10.1370   99.2116 N   0  0  0  0  0  0  0  0  0  0  0  0
   94.4915   11.1060  100.9441 N   0  0  0  0  0  0  0  0  0  0  0  0
   96.1240   10.8471  102.5824 N   0  0  0  0  0  0  0  0  0  0  0  0
   98.3475   10.1430  102.0041 O   0  0  0  0  0  0  0  0  0  0  0  0
   98.0165    9.5714   93.2635 O   0  5  0  0  0  0  0  0  0  0  0  0
   93.9764   15.7978   94.9964 O   0  5  0  0  0  0  0  0  0  0  0  0
   92.8049   12.6466   97.5139 O   0  0  0  0  0  0  0  0  0  0  0  0
   99.1953   10.3969   94.9613 O   0  5  0  0  0  0  0  0  0  0  0  0
   94.5965   15.2816   97.0809 O   0  5  0  0  0  0  0  0  0  0  0  0
   96.6905   10.4336   95.0060 O   0  0  0  0  0  0  0  0  0  0  0  0
   94.3747   10.1632   96.5104 O   0  0  0  0  0  0  0  0  0  0  0  0
   94.0911   13.4569   95.3738 O   0  0  0  0  0  0  0  0  0  0  0  0
   94.9101   11.1344  102.1824 C   0  0  0  0  0  0  0  0  0  0  0  0
   97.0342   10.4860  101.6880 C   0  0  0  0  0  0  0  0  0  0  0  0
   96.6620   10.4513  100.3252 C   0  0  0  0  0  0  0  0  0  0  0  0
   95.3697   10.7567   99.9756 C   0  0  0  0  0  0  0  0  0  0  0  0
   94.0855   12.1369   97.5337 C   0  0  2  0  0  0  0  0  0  0  0  0
   94.5343   11.2879   95.4729 C   0  0  1  0  0  0  0  0  0  0  0  0
   94.7082   12.3748   96.0610 C   0  0  1  0  0  0  0  0  0  0  0  0
   94.2010   10.8563   97.8328 C   0  0  2  0  0  0  0  0  0  0  0  0
   95.3220   10.6257   98.6494 N   0  0  0  0  0  0  0  0  0  0  0  0
   98.0144   10.6168   94.2022 P   0  0  2  0  0  0  0  0  0  0  0  0
   94.6957   14.8343   95.7131 P   0  0  1  0  0  0  0  0  0  0  0  0
   96.4556   14.4241   93.8273 C   0  0  0  0  0  0  0  0  0  0  0  0
   96.1517   14.9008   95.1480 O   0  0  0  0  0  0  0  0  0  0  0  0
   97.8821   14.1757   93.5711 C   0  0  1  0  0  0  0  0  0  0  0  0
   98.7187   15.3963   94.1981 O   0  0  0  0  0  0  0  0  0  0  0  0
   98.2603   13.1520   94.1946 C   0  0  1  0  0  0  0  0  0  0  0  0
   98.0643   11.9409   93.4288 O   0  0  0  0  0  0  0  0  0  0  0  0
   99.7119   13.4467   94.5410 C   0  0  1  0  0  0  0  0  0  0  0  0
  100.4609   13.1467   93.5710 O   0  0  0  0  0  0  0  0  0  0  0  0
   99.7540   14.9612   94.7448 C   0  0  2  0  0  0  0  0  0  0  0  0
   97.7930   17.2429   98.9140 N   0  0  0  0  0  0  0  0  0  0  0  0
   97.1682   17.0301   97.7261 C   0  0  0  0  0  0  0  0  0  0  0  0
   97.8571   16.4111   96.7749 N   0  0  0  0  0  0  0  0  0  0  0  0
   99.1501   16.0398   96.8907 C   0  0  0  0  0  0  0  0  0  0  0  0
   99.8327   16.2439   98.1090 C   0  0  0  0  0  0  0  0  0  0  0  0
   99.0741   16.8924   99.1352 C   0  0  0  0  0  0  0  0  0  0  0  0
   99.6907   17.1605  100.3930 N   0  0  0  0  0  0  0  0  0  0  0  0
  101.0158   15.7624   97.9526 N   0  0  0  0  0  0  0  0  0  0  0  0
  101.1127   15.2540   96.7364 C   0  0  0  0  0  0  0  0  0  0  0  0
  100.0221   15.4249   96.0786 N   0  0  0  0  0  0  0  0  0  0  0  0
  1 24  1  0  0  0  0
  1  4  2  0  0  0  0
  2 13  1  0  0  0  0
  2 21  1  0  0  0  0
  3 16  1  0  0  0  0
  4 18  1  0  0  0  0
  5 19  2  0  0  0  0
  5 16  1  0  0  0  0
  6 16  2  0  0  0  0
  6 17  1  0  0  0  0
  7 17  1  0  0  0  0
 11 25  2  0  0  0  0
 12 26  2  0  0  0  0
 13 25  1  0  0  0  0
 14 23  1  0  0  0  0
 15 26  1  0  0  0  0
 17 18  2  0  0  0  0
 18 19  1  0  0  0  0
 19 24  1  0  0  0  0
 20 10  1  6  0  0  0
 20 22  1  0  0  0  0
 20 23  1  0  0  0  0
 21 14  1  1  0  0  0
 21 22  1  0  0  0  0
 22 15  1  6  0  0  0
 23 24  1  1  0  0  0
 25  8  1  6  0  0  0
 25 32  1  0  0  0  0
 26  9  1  6  0  0  0
 26 28  1  0  0  0  0
 27 28  1  0  0  0  0
 29 27  1  1  0  0  0
 29 30  1  0  0  0  0
 29 31  1  0  0  0  0
 30 35  1  0  0  0  0
 31 33  1  0  0  0  0
 31 32  1  6  0  0  0
 33 34  1  6  0  0  0
 33 35  1  0  0  0  0
 35 45  1  1  0  0  0
 36 41  2  0  0  0  0
 36 37  1  0  0  0  0
 37 38  2  0  0  0  0
 38 39  1  0  0  0  0
 39 40  2  0  0  0  0
 39 45  1  0  0  0  0
 40 41  1  0  0  0  0
 40 43  1  0  0  0  0
 41 42  1  0  0  0  0
 43 44  2  0  0  0  0
 44 45  1  0  0  0  0
M  CHG  4   8  -1   9  -1  11  -1  12  -1
M  END
>  <CHROM.1>
19.59595351,15.08675905,96.90803710,13.00721893,96.92101497,2.45896280,0.96227148
1.34610195

>  <Name>
ligand

>  <RI>
0

>  <Rbt.Current_Directory>
/home/itssahil/PROJECTS/Mol_Feturizer/New_Systems/rnas/4YAZ

>  <Rbt.Executable>
rbdock ($Id: //depot/dev/client3/rdock/2013.1/src/exe/rbdock.cxx#4 $)

>  <Rbt.Library>
libRbt.so (2013.1, Build901 2013/11/27)

>  <Rbt.Parameter_File>
/export/apps/rDock/src/rDock_2013.1_src/data/scripts/dock_solv.prm

>  <Rbt.Receptor>
prm/pocket_docking_3.prm

>  <SCORE>
-34.147

>  <SCORE.INTER>
-33.1711

>  <SCORE.INTER.CONST>
1

>  <SCORE.INTER.POLAR>
0

>  <SCORE.INTER.ROT>
2

>  <SCORE.INTER.SOLV>
42.4046

>  <SCORE.INTER.VDW>
-41.1822

>  <SCORE.INTER.norm>
-0.737135

>  <SCORE.INTRA>
-0.975985

>  <SCORE.INTRA.DIHEDRAL>
-0.0715317

>  <SCORE.INTRA.DIHEDRAL.0>
2.39103

>  <SCORE.INTRA.POLAR>
0

>  <SCORE.INTRA.POLAR.0>
0

>  <SCORE.INTRA.REPUL>
0

>  <SCORE.INTRA.REPUL.0>
0

>  <SCORE.INTRA.SOLV>
1.07862

>  <SCORE.INTRA.SOLV.lig_0>
-163.975

>  <SCORE.INTRA.VDW>
-1.47953

>  <SCORE.INTRA.VDW.0>
-1.49176

>  <SCORE.INTRA.norm>
-0.0216886

>  <SCORE.RESTR>
0

>  <SCORE.RESTR.CAVITY>
0

>  <SCORE.RESTR.norm>
0

>  <SCORE.SYSTEM>
0

>  <SCORE.SYSTEM.CONST>
0

>  <SCORE.SYSTEM.DIHEDRAL>
0

>  <SCORE.SYSTEM.SOLV>
0

>  <SCORE.SYSTEM.norm>
0

>  <SCORE.heavy>
45

>  <SCORE.norm>
-0.758823

>  <RMSD>
6.816

$$$$
ligand
 OpenBabel11021811513D
libRbt.so/2013.1/901 2013/11/27
 45 51  0  0  0  0  0  0  0  0999 V2000
   94.2161   11.2349   99.4364 C   0  0  0  0  0  0  0  0  0  0  0  0
   95.5063   11.1303   94.3497 C   0  0  0  0  0  0  0  0  0  0  0  0
   97.9437    7.6326   97.0844 N   0  0  0  0  0  0  0  0  0  0  0  0
   95.2069   11.0132  100.2380 N   0  0  0  0  0  0  0  0  0  0  0  0
   96.1296    9.0179   97.5809 N   0  0  0  0  0  0  0  0  0  0  0  0
   97.8359    8.7422   99.1393 N   0  0  0  0  0  0  0  0  0  0  0  0
   97.7897    9.9155  101.2359 O   0  0  0  0  0  0  0  0  0  0  0  0
   98.3932   10.1652   93.7912 O   0  5  0  0  0  0  0  0  0  0  0  0
   92.8779   15.4008   94.3047 O   0  5  0  0  0  0  0  0  0  0  0  0
   91.8081   12.0399   96.5850 O   0  0  0  0  0  0  0  0  0  0  0  0
   98.9417   11.1910   95.6887 O   0  5  0  0  0  0  0  0  0  0  0  0
   93.0768   14.9932   96.4935 O   0  5  0  0  0  0  0  0  0  0  0  0
   96.5445   10.7107   95.1413 O   0  0  0  0  0  0  0  0  0  0  0  0
   94.0424    9.9476   96.0670 O   0  0  0  0  0  0  0  0  0  0  0  0
   93.3733   13.1285   94.7805 O   0  0  0  0  0  0  0  0  0  0  0  0
   97.2607    8.5029   97.9870 C   0  0  0  0  0  0  0  0  0  0  0  0
   97.2581    9.5767   99.9929 C   0  0  0  0  0  0  0  0  0  0  0  0
   96.0215   10.1583   99.6330 C   0  0  0  0  0  0  0  0  0  0  0  0
   95.4777    9.8704   98.4054 C   0  0  0  0  0  0  0  0  0  0  0  0
   93.1233   11.8044   96.9234 C   0  0  2  0  0  0  0  0  0  0  0  0
   94.2118   11.0960   95.0574 C   0  0  1  0  0  0  0  0  0  0  0  0
   94.0163   12.1867   95.6313 C   0  0  1  0  0  0  0  0  0  0  0  0
   93.4224   10.5709   97.2862 C   0  0  2  0  0  0  0  0  0  0  0  0
   94.3402   10.5642   98.3513 N   0  0  0  0  0  0  0  0  0  0  0  0
   97.9556   11.1740   94.6657 P   0  0  2  0  0  0  0  0  0  0  0  0
   93.5868   14.5957   95.2040 P   0  0  1  0  0  0  0  0  0  0  0  0
   95.7898   14.5839   93.8009 C   0  0  0  0  0  0  0  0  0  0  0  0
   95.0906   14.9688   94.9954 O   0  0  0  0  0  0  0  0  0  0  0  0
   97.2562   14.6383   93.8966 C   0  0  1  0  0  0  0  0  0  0  0  0
   97.6537   15.9958   94.6596 O   0  0  0  0  0  0  0  0  0  0  0  0
   97.6755   13.7054   94.6271 C   0  0  1  0  0  0  0  0  0  0  0  0
   97.9175   12.4911   93.8798 O   0  0  0  0  0  0  0  0  0  0  0  0
   98.9121   14.2876   95.2948 C   0  0  1  0  0  0  0  0  0  0  0  0
   99.9150   14.1623   94.5395 O   0  0  0  0  0  0  0  0  0  0  0  0
   98.5957   15.7752   95.4494 C   0  0  2  0  0  0  0  0  0  0  0  0
  100.7490   16.1494  100.1032 N   0  0  0  0  0  0  0  0  0  0  0  0
  101.2413   15.4875   99.0233 C   0  0  0  0  0  0  0  0  0  0  0  0
  100.5256   15.5226   97.9057 N   0  0  0  0  0  0  0  0  0  0  0  0
   99.3180   16.1160   97.7936 C   0  0  0  0  0  0  0  0  0  0  0  0
   98.7737   16.8135   98.8932 C   0  0  0  0  0  0  0  0  0  0  0  0
   99.5635   16.7879  100.0868 C   0  0  0  0  0  0  0  0  0  0  0  0
   99.0808   17.4473  101.2556 N   0  0  0  0  0  0  0  0  0  0  0  0
   97.6544   17.3091   98.4966 N   0  0  0  0  0  0  0  0  0  0  0  0
   97.4726   16.9913   97.2266 C   0  0  0  0  0  0  0  0  0  0  0  0
   98.4393   16.2648   96.7917 N   0  0  0  0  0  0  0  0  0  0  0  0
  1 24  1  0  0  0  0
  1  4  2  0  0  0  0
  2 13  1  0  0  0  0
  2 21  1  0  0  0  0
  3 16  1  0  0  0  0
  4 18  1  0  0  0  0
  5 19  2  0  0  0  0
  5 16  1  0  0  0  0
  6 16  2  0  0  0  0
  6 17  1  0  0  0  0
  7 17  1  0  0  0  0
 11 25  2  0  0  0  0
 12 26  2  0  0  0  0
 13 25  1  0  0  0  0
 14 23  1  0  0  0  0
 15 26  1  0  0  0  0
 17 18  2  0  0  0  0
 18 19  1  0  0  0  0
 19 24  1  0  0  0  0
 20 10  1  6  0  0  0
 20 22  1  0  0  0  0
 20 23  1  0  0  0  0
 21 14  1  1  0  0  0
 21 22  1  0  0  0  0
 22 15  1  6  0  0  0
 23 24  1  1  0  0  0
 25  8  1  6  0  0  0
 25 32  1  0  0  0  0
 26  9  1  6  0  0  0
 26 28  1  0  0  0  0
 27 28  1  0  0  0  0
 29 27  1  1  0  0  0
 29 30  1  0  0  0  0
 29 31  1  0  0  0  0
 30 35  1  0  0  0  0
 31 33  1  0  0  0  0
 31 32  1  6  0  0  0
 33 34  1  6  0  0  0
 33 35  1  0  0  0  0
 35 45  1  1  0  0  0
 36 41  2  0  0  0  0
 36 37  1  0  0  0  0
 37 38  2  0  0  0  0
 38 39  1  0  0  0  0
 39 40  2  0  0  0  0
 39 45  1  0  0  0  0
 40 41  1  0  0  0  0
 40 43  1  0  0  0  0
 41 42  1  0  0  0  0
 43 44  2  0  0  0  0
 44 45  1  0  0  0  0
M  CHG  4   8  -1   9  -1  11  -1  12  -1
M  END
>  <CHROM.1>
166.27152821,178.87788710,96.61407548,12.91128098,96.68876817,-2.38246023
-0.68127851,-0.43099712

>  <Name>
ligand

>  <RI>
0

>  <Rbt.Current_Directory>
/home/itssahil/PROJECTS/Mol_Feturizer/New_Systems/rnas/4YAZ

>  <Rbt.Executable>
rbdock ($Id: //depot/dev/client3/rdock/2013.1/src/exe/rbdock.cxx#4 $)

>  <Rbt.Library>
libRbt.so (2013.1, Build901 2013/11/27)

>  <Rbt.Parameter_File>
/export/apps/rDock/src/rDock_2013.1_src/data/scripts/dock_solv.prm

>  <Rbt.Receptor>
prm/pocket_docking_4.prm

>  <SCORE>
-39.7909

>  <SCORE.INTER>
-40.393

>  <SCORE.INTER.CONST>
1

>  <SCORE.INTER.POLAR>
0

>  <SCORE.INTER.ROT>
2

>  <SCORE.INTER.SOLV>
27.6641

>  <SCORE.INTER.VDW>
-41.0834

>  <SCORE.INTER.norm>
-0.897623

>  <SCORE.INTRA>
0.602086

>  <SCORE.INTRA.DIHEDRAL>
-0.0114479

>  <SCORE.INTRA.DIHEDRAL.0>
2.39103

>  <SCORE.INTRA.POLAR>
0

>  <SCORE.INTRA.POLAR.0>
0

>  <SCORE.INTRA.REPUL>
0

>  <SCORE.INTRA.REPUL.0>
0

>  <SCORE.INTRA.SOLV>
2.59579

>  <SCORE.INTRA.SOLV.lig_0>
-163.975

>  <SCORE.INTRA.VDW>
-0.690085

>  <SCORE.INTRA.VDW.0>
-1.49176

>  <SCORE.INTRA.norm>
0.0133797

>  <SCORE.RESTR>
0

>  <SCORE.RESTR.CAVITY>
0

>  <SCORE.RESTR.norm>
0

>  <SCORE.SYSTEM>
0

>  <SCORE.SYSTEM.CONST>
0

>  <SCORE.SYSTEM.DIHEDRAL>
0

>  <SCORE.SYSTEM.SOLV>
0

>  <SCORE.SYSTEM.norm>
0

>  <SCORE.heavy>
45

>  <SCORE.norm>
-0.884243

>  <RMSD>
6.823

$$$$
ligand
 OpenBabel11021811513D
libRbt.so/2013.1/901 2013/11/27
 45 51  0  0  0  0  0  0  0  0999 V2000
   96.4664   10.2457   98.2048 C   0  0  0  0  0  0  0  0  0  0  0  0
   95.6218   11.0532   94.4399 C   0  0  0  0  0  0  0  0  0  0  0  0
   93.8837   11.4389  103.1352 N   0  0  0  0  0  0  0  0  0  0  0  0
   97.2958   10.1447   99.1923 N   0  0  0  0  0  0  0  0  0  0  0  0
   94.4470   11.0779  100.8971 N   0  0  0  0  0  0  0  0  0  0  0  0
   96.0665   10.8391  102.5513 N   0  0  0  0  0  0  0  0  0  0  0  0
   98.3043   10.1631  101.9948 O   0  0  0  0  0  0  0  0  0  0  0  0
   98.0593    9.5605   93.2532 O   0  5  0  0  0  0  0  0  0  0  0  0
   93.9433   15.7537   94.9262 O   0  5  0  0  0  0  0  0  0  0  0  0
   92.7798   12.6005   97.4448 O   0  0  0  0  0  0  0  0  0  0  0  0
   99.2145   10.4037   94.9585 O   0  5  0  0  0  0  0  0  0  0  0  0
   94.5495   15.2512   97.0181 O   0  5  0  0  0  0  0  0  0  0  0  0
   96.7092   10.4163   94.9805 O   0  0  0  0  0  0  0  0  0  0  0  0
   94.3826   10.1289   96.4649 O   0  0  0  0  0  0  0  0  0  0  0  0
   94.0774   13.4154   95.3134 O   0  0  0  0  0  0  0  0  0  0  0  0
   94.8531   11.1113  102.1394 C   0  0  0  0  0  0  0  0  0  0  0  0
   96.9899   10.4897  101.6659 C   0  0  0  0  0  0  0  0  0  0  0  0
   96.6316   10.4505  100.2995 C   0  0  0  0  0  0  0  0  0  0  0  0
   95.3390   10.7398   99.9373 C   0  0  0  0  0  0  0  0  0  0  0  0
   94.0650   12.1034   97.4781 C   0  0  2  0  0  0  0  0  0  0  0  0
   94.5407   11.2512   95.4247 C   0  0  1  0  0  0  0  0  0  0  0  0
   94.6987   12.3418   96.0102 C   0  0  1  0  0  0  0  0  0  0  0  0
   94.1902   10.8251   97.7830 C   0  0  2  0  0  0  0  0  0  0  0  0
   95.3060   10.6084   98.6106 N   0  0  0  0  0  0  0  0  0  0  0  0
   98.0384   10.6093   94.1879 P   0  0  2  0  0  0  0  0  0  0  0  0
   94.6654   14.7999   95.6530 P   0  0  1  0  0  0  0  0  0  0  0  0
   96.4462   14.3998   93.7846 C   0  0  0  0  0  0  0  0  0  0  0  0
   96.1258   14.8785   95.1007 O   0  0  0  0  0  0  0  0  0  0  0  0
   97.8774   14.1645   93.5423 C   0  0  1  0  0  0  0  0  0  0  0  0
   98.6964   15.3955   94.1722 O   0  0  0  0  0  0  0  0  0  0  0  0
   98.2598   13.1468   94.1730 C   0  0  1  0  0  0  0  0  0  0  0  0
   98.0825   11.9310   93.4101 O   0  0  0  0  0  0  0  0  0  0  0  0
   99.7053   13.4569   94.5313 C   0  0  1  0  0  0  0  0  0  0  0  0
  100.4659   13.1607   93.5693 O   0  0  0  0  0  0  0  0  0  0  0  0
   99.7308   14.9725   94.7298 C   0  0  2  0  0  0  0  0  0  0  0  0
   97.7222   17.2909   98.8559 N   0  0  0  0  0  0  0  0  0  0  0  0
   97.1132   17.0732   97.6607 C   0  0  0  0  0  0  0  0  0  0  0  0
   97.8125   16.4447   96.7234 N   0  0  0  0  0  0  0  0  0  0  0  0
   99.1019   16.0681   96.8598 C   0  0  0  0  0  0  0  0  0  0  0  0
   99.7683   16.2769   98.0863 C   0  0  0  0  0  0  0  0  0  0  0  0
   98.9984   16.9358   99.0975 C   0  0  0  0  0  0  0  0  0  0  0  0
   99.5984   17.2092  100.3620 N   0  0  0  0  0  0  0  0  0  0  0  0
  100.9511   15.7889   97.9498 N   0  0  0  0  0  0  0  0  0  0  0  0
  101.0627   15.2720   96.7385 C   0  0  0  0  0  0  0  0  0  0  0  0
   99.9823   15.4437   96.0642 N   0  0  0  0  0  0  0  0  0  0  0  0
  1 24  1  0  0  0  0
  1  4  2  0  0  0  0
  2 13  1  0  0  0  0
  2 21  1  0  0  0  0
  3 16  1  0  0  0  0
  4 18  1  0  0  0  0
  5 19  2  0  0  0  0
  5 16  1  0  0  0  0
  6 16  2  0  0  0  0
  6 17  1  0  0  0  0
  7 17  1  0  0  0  0
 11 25  2  0  0  0  0
 12 26  2  0  0  0  0
 13 25  1  0  0  0  0
 14 23  1  0  0  0  0
 15 26  1  0  0  0  0
 17 18  2  0  0  0  0
 18 19  1  0  0  0  0
 19 24  1  0  0  0  0
 20 10  1  6  0  0  0
 20 22  1  0  0  0  0
 20 23  1  0  0  0  0
 21 14  1  1  0  0  0
 21 22  1  0  0  0  0
 22 15  1  6  0  0  0
 23 24  1  1  0  0  0
 25  8  1  6  0  0  0
 25 32  1  0  0  0  0
 26  9  1  6  0  0  0
 26 28  1  0  0  0  0
 27 28  1  0  0  0  0
 29 27  1  1  0  0  0
 29 30  1  0  0  0  0
 29 31  1  0  0  0  0
 30 35  1  0  0  0  0
 31 33  1  0  0  0  0
 31 32  1  6  0  0  0
 33 34  1  6  0  0  0
 33 35  1  0  0  0  0
 35 45  1  1  0  0  0
 36 41  2  0  0  0  0
 36 37  1  0  0  0  0
 37 38  2  0  0  0  0
 38 39  1  0  0  0  0
 39 40  2  0  0  0  0
 39 45  1  0  0  0  0
 40 41  1  0  0  0  0
 40 43  1  0  0  0  0
 41 42  1  0  0  0  0
 43 44  2  0  0  0  0
 44 45  1  0  0  0  0
M  CHG  4   8  -1   9  -1  11  -1  12  -1
M  END
>  <CHROM.1>
19.87305707,14.19079653,96.88484115,13.00060972,96.88651567,2.48656372,0.97285563
1.32407722

>  <Name>
ligand

>  <RI>
0

>  <Rbt.Current_Directory>
/home/itssahil/PROJECTS/Mol_Feturizer/New_Systems/rnas/4YAZ

>  <Rbt.Executable>
rbdock ($Id: //depot/dev/client3/rdock/2013.1/src/exe/rbdock.cxx#4 $)

>  <Rbt.Library>
libRbt.so (2013.1, Build901 2013/11/27)

>  <Rbt.Parameter_File>
/export/apps/rDock/src/rDock_2013.1_src/data/scripts/dock_solv.prm

>  <Rbt.Receptor>
prm/pocket_docking_6.prm

>  <SCORE>
-34.3134

>  <SCORE.INTER>
-33.3312

>  <SCORE.INTER.CONST>
1

>  <SCORE.INTER.POLAR>
0

>  <SCORE.INTER.ROT>
2

>  <SCORE.INTER.SOLV>
42.0028

>  <SCORE.INTER.VDW>
-41.155

>  <SCORE.INTER.norm>
-0.740693

>  <SCORE.INTRA>
-0.982238

>  <SCORE.INTRA.DIHEDRAL>
-0.0663802

>  <SCORE.INTRA.DIHEDRAL.0>
2.39103

>  <SCORE.INTRA.POLAR>
0

>  <SCORE.INTRA.POLAR.0>
0

>  <SCORE.INTRA.REPUL>
0

>  <SCORE.INTRA.REPUL.0>
0

>  <SCORE.INTRA.SOLV>
1.03651

>  <SCORE.INTRA.SOLV.lig_0>
-163.975

>  <SCORE.INTRA.VDW>
-1.4673

>  <SCORE.INTRA.VDW.0>
-1.49176

>  <SCORE.INTRA.norm>
-0.0218275

>  <SCORE.RESTR>
0

>  <SCORE.RESTR.CAVITY>
0

>  <SCORE.RESTR.norm>
0

>  <SCORE.SYSTEM>
0

>  <SCORE.SYSTEM.CONST>
0

>  <SCORE.SYSTEM.DIHEDRAL>
0

>  <SCORE.SYSTEM.SOLV>
0

>  <SCORE.SYSTEM.norm>
0

>  <SCORE.heavy>
45

>  <SCORE.norm>
-0.76252

>  <RMSD>
6.828

$$$$
ligand
 OpenBabel11021811513D
libRbt.so/2013.1/901 2013/11/27
 45 51  0  0  0  0  0  0  0  0999 V2000
   94.2524   11.2673   99.4362 C   0  0  0  0  0  0  0  0  0  0  0  0
   95.4923   11.2879   94.3398 C   0  0  0  0  0  0  0  0  0  0  0  0
   97.9504    7.7063   96.9772 N   0  0  0  0  0  0  0  0  0  0  0  0
   95.2501   11.0276  100.2239 N   0  0  0  0  0  0  0  0  0  0  0  0
   96.1440    9.0848   97.5185 N   0  0  0  0  0  0  0  0  0  0  0  0
   97.8641    8.7743   99.0550 N   0  0  0  0  0  0  0  0  0  0  0  0
   97.8398    9.9050  101.1752 O   0  0  0  0  0  0  0  0  0  0  0  0
   98.3770   10.3468   93.7311 O   0  5  0  0  0  0  0  0  0  0  0  0
   92.8500   15.5492   94.4252 O   0  5  0  0  0  0  0  0  0  0  0  0
   91.8120   12.1290   96.6308 O   0  0  0  0  0  0  0  0  0  0  0  0
   98.9398   11.3270   95.6483 O   0  5  0  0  0  0  0  0  0  0  0  0
   93.0704   15.0880   96.6012 O   0  5  0  0  0  0  0  0  0  0  0  0
   96.5391   10.8523   95.1112 O   0  0  0  0  0  0  0  0  0  0  0  0
   94.0481   10.0579   96.0405 O   0  0  0  0  0  0  0  0  0  0  0  0
   93.3570   13.2674   94.8398 O   0  0  0  0  0  0  0  0  0  0  0  0
   97.2776    8.5595   97.9035 C   0  0  0  0  0  0  0  0  0  0  0  0
   97.2960    9.5924   99.9307 C   0  0  0  0  0  0  0  0  0  0  0  0
   96.0573   10.1836   99.5941 C   0  0  0  0  0  0  0  0  0  0  0  0
   95.5016    9.9216   98.3661 C   0  0  0  0  0  0  0  0  0  0  0  0
   93.1311   11.8897   96.9513 C   0  0  2  0  0  0  0  0  0  0  0  0
   94.2045   11.2315   95.0582 C   0  0  1  0  0  0  0  0  0  0  0  0
   94.0108   12.3070   95.6609 C   0  0  1  0  0  0  0  0  0  0  0  0
   93.4375   10.6486   97.2804 C   0  0  2  0  0  0  0  0  0  0  0  0
   94.3650   10.6185   98.3366 N   0  0  0  0  0  0  0  0  0  0  0  0
   97.9443   11.3321   94.6344 P   0  0  2  0  0  0  0  0  0  0  0  0
   93.5698   14.7244   95.2976 P   0  0  1  0  0  0  0  0  0  0  0  0
   95.7597   14.7550   93.8745 C   0  0  0  0  0  0  0  0  0  0  0  0
   95.0703   15.1077   95.0846 O   0  0  0  0  0  0  0  0  0  0  0  0
   97.2268   14.8120   93.9581 C   0  0  1  0  0  0  0  0  0  0  0  0
   97.6270   16.1514   94.7509 O   0  0  0  0  0  0  0  0  0  0  0  0
   97.6558   13.8627   94.6613 C   0  0  1  0  0  0  0  0  0  0  0  0
   97.8947   12.6681   93.8818 O   0  0  0  0  0  0  0  0  0  0  0  0
   98.8967   14.4323   95.3319 C   0  0  1  0  0  0  0  0  0  0  0  0
   99.8928   14.3293   94.5646 O   0  0  0  0  0  0  0  0  0  0  0  0
   98.5769   15.9145   95.5263 C   0  0  2  0  0  0  0  0  0  0  0  0
  100.8151   16.2747  100.1410 N   0  0  0  0  0  0  0  0  0  0  0  0
  101.3085   15.6543   99.0371 C   0  0  0  0  0  0  0  0  0  0  0  0
  100.5679   15.6852   97.9358 N   0  0  0  0  0  0  0  0  0  0  0  0
   99.3366   16.2343   97.8616 C   0  0  0  0  0  0  0  0  0  0  0  0
   98.7905   16.8878   98.9870 C   0  0  0  0  0  0  0  0  0  0  0  0
   99.6064   16.8677  100.1631 C   0  0  0  0  0  0  0  0  0  0  0  0
   99.1247   17.4841  101.3555 N   0  0  0  0  0  0  0  0  0  0  0  0
   97.6449   17.3484   98.6247 N   0  0  0  0  0  0  0  0  0  0  0  0
   97.4477   17.0502   97.3522 C   0  0  0  0  0  0  0  0  0  0  0  0
   98.4314   16.3701   96.8818 N   0  0  0  0  0  0  0  0  0  0  0  0
  1 24  1  0  0  0  0
  1  4  2  0  0  0  0
  2 13  1  0  0  0  0
  2 21  1  0  0  0  0
  3 16  1  0  0  0  0
  4 18  1  0  0  0  0
  5 19  2  0  0  0  0
  5 16  1  0  0  0  0
  6 16  2  0  0  0  0
  6 17  1  0  0  0  0
  7 17  1  0  0  0  0
 11 25  2  0  0  0  0
 12 26  2  0  0  0  0
 13 25  1  0  0  0  0
 14 23  1  0  0  0  0
 15 26  1  0  0  0  0
 17 18  2  0  0  0  0
 18 19  1  0  0  0  0
 19 24  1  0  0  0  0
 20 10  1  6  0  0  0
 20 22  1  0  0  0  0
 20 23  1  0  0  0  0
 21 14  1  1  0  0  0
 21 22  1  0  0  0  0
 22 15  1  6  0  0  0
 23 24  1  1  0  0  0
 25  8  1  6  0  0  0
 25 32  1  0  0  0  0
 26  9  1  6  0  0  0
 26 28  1  0  0  0  0
 27 28  1  0  0  0  0
 29 27  1  1  0  0  0
 29 30  1  0  0  0  0
 29 31  1  0  0  0  0
 30 35  1  0  0  0  0
 31 33  1  0  0  0  0
 31 32  1  6  0  0  0
 33 34  1  6  0  0  0
 33 35  1  0  0  0  0
 35 45  1  1  0  0  0
 36 41  2  0  0  0  0
 36 37  1  0  0  0  0
 37 38  2  0  0  0  0
 38 39  1  0  0  0  0
 39 40  2  0  0  0  0
 39 45  1  0  0  0  0
 40 41  1  0  0  0  0
 40 43  1  0  0  0  0
 41 42  1  0  0  0  0
 43 44  2  0  0  0  0
 44 45  1  0  0  0  0
M  CHG  4   8  -1   9  -1  11  -1  12  -1
M  END
>  <CHROM.1>
165.86769366,-179.01030250,96.61806695,13.01962954,96.71095249,-2.37100089
-0.67243850,-0.40001750

>  <Name>
ligand

>  <RI>
0

>  <Rbt.Current_Directory>
/home/itssahil/PROJECTS/Mol_Feturizer/New_Systems/rnas/4YAZ

>  <Rbt.Executable>
rbdock ($Id: //depot/dev/client3/rdock/2013.1/src/exe/rbdock.cxx#4 $)

>  <Rbt.Library>
libRbt.so (2013.1, Build901 2013/11/27)

>  <Rbt.Parameter_File>
/export/apps/rDock/src/rDock_2013.1_src/data/scripts/dock_solv.prm

>  <Rbt.Receptor>
prm/pocket_docking_4.prm

>  <SCORE>
-39.9595

>  <SCORE.INTER>
-40.4917

>  <SCORE.INTER.CONST>
1

>  <SCORE.INTER.POLAR>
0

>  <SCORE.INTER.ROT>
2

>  <SCORE.INTER.SOLV>
28.0029

>  <SCORE.INTER.VDW>
-41.2621

>  <SCORE.INTER.norm>
-0.899815

>  <SCORE.INTRA>
0.532161

>  <SCORE.INTRA.DIHEDRAL>
0.0036424

>  <SCORE.INTRA.DIHEDRAL.0>
2.39103

>  <SCORE.INTRA.POLAR>
0

>  <SCORE.INTRA.POLAR.0>
0

>  <SCORE.INTRA.REPUL>
0

>  <SCORE.INTRA.REPUL.0>
0

>  <SCORE.INTRA.SOLV>
2.40637

>  <SCORE.INTRA.SOLV.lig_0>
-163.975

>  <SCORE.INTRA.VDW>
-0.672846

>  <SCORE.INTRA.VDW.0>
-1.49176

>  <SCORE.INTRA.norm>
0.0118258

>  <SCORE.RESTR>
0

>  <SCORE.RESTR.CAVITY>
0

>  <SCORE.RESTR.norm>
0

>  <SCORE.SYSTEM>
0

>  <SCORE.SYSTEM.CONST>
0

>  <SCORE.SYSTEM.DIHEDRAL>
0

>  <SCORE.SYSTEM.SOLV>
0

>  <SCORE.SYSTEM.norm>
0

>  <SCORE.heavy>
45

>  <SCORE.norm>
-0.887989

>  <RMSD>
6.829

$$$$
ligand
 OpenBabel11021811523D
libRbt.so/2013.1/901 2013/11/27
 45 51  0  0  0  0  0  0  0  0999 V2000
   96.4687   10.2150   98.2621 C   0  0  0  0  0  0  0  0  0  0  0  0
   95.6145   11.0260   94.4973 C   0  0  0  0  0  0  0  0  0  0  0  0
   93.9156   11.4706  103.1925 N   0  0  0  0  0  0  0  0  0  0  0  0
   97.3022   10.1194   99.2467 N   0  0  0  0  0  0  0  0  0  0  0  0
   94.4665   11.0845  100.9555 N   0  0  0  0  0  0  0  0  0  0  0  0
   96.0925   10.8536  102.6044 N   0  0  0  0  0  0  0  0  0  0  0  0
   98.3240   10.1603  102.0441 O   0  0  0  0  0  0  0  0  0  0  0  0
   98.0497    9.5335   93.3056 O   0  5  0  0  0  0  0  0  0  0  0  0
   93.9335   15.7258   94.9811 O   0  5  0  0  0  0  0  0  0  0  0  0
   92.7806   12.5758   97.5086 O   0  0  0  0  0  0  0  0  0  0  0  0
   99.2094   10.3805   95.0059 O   0  5  0  0  0  0  0  0  0  0  0  0
   94.5466   15.2273   97.0720 O   0  5  0  0  0  0  0  0  0  0  0  0
   96.7042   10.3909   95.0356 O   0  0  0  0  0  0  0  0  0  0  0  0
   94.3825   10.1039   96.5277 O   0  0  0  0  0  0  0  0  0  0  0  0
   94.0708   13.3883   95.3718 O   0  0  0  0  0  0  0  0  0  0  0  0
   94.8786   11.1280  102.1955 C   0  0  0  0  0  0  0  0  0  0  0  0
   97.0099   10.4905  101.7182 C   0  0  0  0  0  0  0  0  0  0  0  0
   96.6449   10.4397  100.3539 C   0  0  0  0  0  0  0  0  0  0  0  0
   95.3521   10.7322   99.9949 C   0  0  0  0  0  0  0  0  0  0  0  0
   94.0663   12.0798   97.5387 C   0  0  2  0  0  0  0  0  0  0  0  0
   94.5364   11.2247   95.4852 C   0  0  1  0  0  0  0  0  0  0  0  0
   94.6952   12.3164   96.0684 C   0  0  1  0  0  0  0  0  0  0  0  0
   94.1936   10.8022   97.8453 C   0  0  2  0  0  0  0  0  0  0  0  0
   95.3121   10.5878   98.6698 N   0  0  0  0  0  0  0  0  0  0  0  0
   98.0308   10.5838   94.2386 P   0  0  2  0  0  0  0  0  0  0  0  0
   94.6586   14.7738   95.7073 P   0  0  1  0  0  0  0  0  0  0  0  0
   96.4340   14.3723   93.8340 C   0  0  0  0  0  0  0  0  0  0  0  0
   96.1172   14.8528   95.1503 O   0  0  0  0  0  0  0  0  0  0  0  0
   97.8646   14.1378   93.5876 C   0  0  1  0  0  0  0  0  0  0  0  0
   98.6845   15.3705   94.2130 O   0  0  0  0  0  0  0  0  0  0  0  0
   98.2499   13.1214   94.2188 C   0  0  1  0  0  0  0  0  0  0  0  0
   98.0713   11.9042   93.4585 O   0  0  0  0  0  0  0  0  0  0  0  0
   99.6962   13.4334   94.5722 C   0  0  1  0  0  0  0  0  0  0  0  0
  100.4541   13.1363   93.6082 O   0  0  0  0  0  0  0  0  0  0  0  0
   99.7210   14.9493   94.7680 C   0  0  2  0  0  0  0  0  0  0  0  0
   97.7403   17.3262   98.8743 N   0  0  0  0  0  0  0  0  0  0  0  0
   97.1318   17.1133   97.6780 C   0  0  0  0  0  0  0  0  0  0  0  0
   97.8228   16.4671   96.7467 N   0  0  0  0  0  0  0  0  0  0  0  0
   99.1046   16.0676   96.8899 C   0  0  0  0  0  0  0  0  0  0  0  0
   99.7702   16.2708   98.1177 C   0  0  0  0  0  0  0  0  0  0  0  0
   99.0089   16.9490   99.1225 C   0  0  0  0  0  0  0  0  0  0  0  0
   99.6092   17.2181  100.3879 N   0  0  0  0  0  0  0  0  0  0  0  0
  100.9443   15.7604   97.9883 N   0  0  0  0  0  0  0  0  0  0  0  0
  101.0508   15.2350   96.7801 C   0  0  0  0  0  0  0  0  0  0  0  0
   99.9762   15.4229   96.1009 N   0  0  0  0  0  0  0  0  0  0  0  0
  1 24  1  0  0  0  0
  1  4  2  0  0  0  0
  2 13  1  0  0  0  0
  2 21  1  0  0  0  0
  3 16  1  0  0  0  0
  4 18  1  0  0  0  0
  5 19  2  0  0  0  0
  5 16  1  0  0  0  0
  6 16  2  0  0  0  0
  6 17  1  0  0  0  0
  7 17  1  0  0  0  0
 11 25  2  0  0  0  0
 12 26  2  0  0  0  0
 13 25  1  0  0  0  0
 14 23  1  0  0  0  0
 15 26  1  0  0  0  0
 17 18  2  0  0  0  0
 18 19  1  0  0  0  0
 19 24  1  0  0  0  0
 20 10  1  6  0  0  0
 20 22  1  0  0  0  0
 20 23  1  0  0  0  0
 21 14  1  1  0  0  0
 21 22  1  0  0  0  0
 22 15  1  6  0  0  0
 23 24  1  1  0  0  0
 25  8  1  6  0  0  0
 25 32  1  0  0  0  0
 26  9  1  6  0  0  0
 26 28  1  0  0  0  0
 27 28  1  0  0  0  0
 29 27  1  1  0  0  0
 29 30  1  0  0  0  0
 29 31  1  0  0  0  0
 30 35  1  0  0  0  0
 31 33  1  0  0  0  0
 31 32  1  6  0  0  0
 33 34  1  6  0  0  0
 33 35  1  0  0  0  0
 35 45  1  1  0  0  0
 36 41  2  0  0  0  0
 36 37  1  0  0  0  0
 37 38  2  0  0  0  0
 38 39  1  0  0  0  0
 39 40  2  0  0  0  0
 39 45  1  0  0  0  0
 40 41  1  0  0  0  0
 40 43  1  0  0  0  0
 41 42  1  0  0  0  0
 43 44  2  0  0  0  0
 44 45  1  0  0  0  0
M  CHG  4   8  -1   9  -1  11  -1  12  -1
M  END
>  <CHROM.1>
19.27616566,13.00384675,96.88557897,12.98582860,96.93476982,2.48994252,0.97739604
1.32019186

>  <Name>
ligand

>  <RI>
0

>  <Rbt.Current_Directory>
/home/itssahil/PROJECTS/Mol_Feturizer/New_Systems/rnas/4YAZ

>  <Rbt.Executable>
rbdock ($Id: //depot/dev/client3/rdock/2013.1/src/exe/rbdock.cxx#4 $)

>  <Rbt.Library>
libRbt.so (2013.1, Build901 2013/11/27)

>  <Rbt.Parameter_File>
/export/apps/rDock/src/rDock_2013.1_src/data/scripts/dock_solv.prm

>  <Rbt.Receptor>
prm/pocket_docking_8.prm

>  <SCORE>
-34.2269

>  <SCORE.INTER>
-33.247

>  <SCORE.INTER.CONST>
1

>  <SCORE.INTER.POLAR>
0

>  <SCORE.INTER.ROT>
2

>  <SCORE.INTER.SOLV>
42.0634

>  <SCORE.INTER.VDW>
-41.1192

>  <SCORE.INTER.norm>
-0.738823

>  <SCORE.INTRA>
-0.979885

>  <SCORE.INTRA.DIHEDRAL>
-0.0594274

>  <SCORE.INTRA.DIHEDRAL.0>
2.39103

>  <SCORE.INTRA.POLAR>
0

>  <SCORE.INTRA.POLAR.0>
0

>  <SCORE.INTRA.REPUL>
0

>  <SCORE.INTRA.REPUL.0>
0

>  <SCORE.INTRA.SOLV>
0.978773

>  <SCORE.INTRA.SOLV.lig_0>
-163.975

>  <SCORE.INTRA.VDW>
-1.43956

>  <SCORE.INTRA.VDW.0>
-1.49176

>  <SCORE.INTRA.norm>
-0.0217752

>  <SCORE.RESTR>
0

>  <SCORE.RESTR.CAVITY>
0

>  <SCORE.RESTR.norm>
0

>  <SCORE.SYSTEM>
0

>  <SCORE.SYSTEM.CONST>
0

>  <SCORE.SYSTEM.DIHEDRAL>
0

>  <SCORE.SYSTEM.SOLV>
0

>  <SCORE.SYSTEM.norm>
0

>  <SCORE.heavy>
45

>  <SCORE.norm>
-0.760598

>  <RMSD>
6.829

$$$$
ligand
 OpenBabel11021811513D
libRbt.so/2013.1/901 2013/11/27
 45 51  0  0  0  0  0  0  0  0999 V2000
   96.4633   10.2239   98.2087 C   0  0  0  0  0  0  0  0  0  0  0  0
   95.6258   11.0364   94.4418 C   0  0  0  0  0  0  0  0  0  0  0  0
   93.8764   11.4405  103.1312 N   0  0  0  0  0  0  0  0  0  0  0  0
   97.2915   10.1262   99.1975 N   0  0  0  0  0  0  0  0  0  0  0  0
   94.4419   11.0695  100.8953 N   0  0  0  0  0  0  0  0  0  0  0  0
   96.0593   10.8361  102.5523 N   0  0  0  0  0  0  0  0  0  0  0  0
   98.2970   10.1554  102.0010 O   0  0  0  0  0  0  0  0  0  0  0  0
   98.0691    9.5498   93.2595 O   0  5  0  0  0  0  0  0  0  0  0  0
   93.9354   15.7327   94.9263 O   0  5  0  0  0  0  0  0  0  0  0  0
   92.7743   12.5760   97.4416 O   0  0  0  0  0  0  0  0  0  0  0  0
   99.2190   10.3951   94.9673 O   0  5  0  0  0  0  0  0  0  0  0  0
   94.5386   15.2310   97.0192 O   0  5  0  0  0  0  0  0  0  0  0  0
   96.7137   10.4018   94.9843 O   0  0  0  0  0  0  0  0  0  0  0  0
   94.3848   10.1085   96.4641 O   0  0  0  0  0  0  0  0  0  0  0  0
   94.0742   13.3946   95.3130 O   0  0  0  0  0  0  0  0  0  0  0  0
   94.8467   11.1077  102.1379 C   0  0  0  0  0  0  0  0  0  0  0  0
   96.9833   10.4819  101.6693 C   0  0  0  0  0  0  0  0  0  0  0  0
   96.6264   10.4374  100.3027 C   0  0  0  0  0  0  0  0  0  0  0  0
   95.3346   10.7264   99.9379 C   0  0  0  0  0  0  0  0  0  0  0  0
   94.0606   12.0819   97.4773 C   0  0  2  0  0  0  0  0  0  0  0  0
   94.5423   11.2315   95.4245 C   0  0  1  0  0  0  0  0  0  0  0  0
   94.6966   12.3223   96.0107 C   0  0  1  0  0  0  0  0  0  0  0  0
   94.1882   10.8038   97.7820 C   0  0  2  0  0  0  0  0  0  0  0  0
   95.3028   10.5895   98.6118 N   0  0  0  0  0  0  0  0  0  0  0  0
   98.0440   10.5982   94.1945 P   0  0  2  0  0  0  0  0  0  0  0  0
   94.6582   14.7804   95.6542 P   0  0  1  0  0  0  0  0  0  0  0  0
   96.4437   14.3851   93.7892 C   0  0  0  0  0  0  0  0  0  0  0  0
   96.1195   14.8626   95.1048 O   0  0  0  0  0  0  0  0  0  0  0  0
   97.8759   14.1532   93.5496 C   0  0  1  0  0  0  0  0  0  0  0  0
   98.6907   15.3859   94.1815 O   0  0  0  0  0  0  0  0  0  0  0  0
   98.2595   13.1362   94.1807 C   0  0  1  0  0  0  0  0  0  0  0  0
   98.0865   11.9202   93.4171 O   0  0  0  0  0  0  0  0  0  0  0  0
   99.7035   13.4495   94.5421 C   0  0  1  0  0  0  0  0  0  0  0  0
  100.4667   13.1555   93.5814 O   0  0  0  0  0  0  0  0  0  0  0  0
   99.7250   14.9651   94.7410 C   0  0  2  0  0  0  0  0  0  0  0  0
   97.7098   17.2995   98.8549 N   0  0  0  0  0  0  0  0  0  0  0  0
   97.1053   17.0838   97.6570 C   0  0  0  0  0  0  0  0  0  0  0  0
   97.8055   16.4503   96.7238 N   0  0  0  0  0  0  0  0  0  0  0  0
   99.0921   16.0667   96.8668 C   0  0  0  0  0  0  0  0  0  0  0  0
   99.7538   16.2733   98.0962 C   0  0  0  0  0  0  0  0  0  0  0  0
   98.9828   16.9376   99.1029 C   0  0  0  0  0  0  0  0  0  0  0  0
   99.5784   17.2092  100.3700 N   0  0  0  0  0  0  0  0  0  0  0  0
  100.9345   15.7785   97.9659 N   0  0  0  0  0  0  0  0  0  0  0  0
  101.0490   15.2596   96.7557 C   0  0  0  0  0  0  0  0  0  0  0  0
   99.9728   15.4365   96.0761 N   0  0  0  0  0  0  0  0  0  0  0  0
  1 24  1  0  0  0  0
  1  4  2  0  0  0  0
  2 13  1  0  0  0  0
  2 21  1  0  0  0  0
  3 16  1  0  0  0  0
  4 18  1  0  0  0  0
  5 19  2  0  0  0  0
  5 16  1  0  0  0  0
  6 16  2  0  0  0  0
  6 17  1  0  0  0  0
  7 17  1  0  0  0  0
 11 25  2  0  0  0  0
 12 26  2  0  0  0  0
 13 25  1  0  0  0  0
 14 23  1  0  0  0  0
 15 26  1  0  0  0  0
 17 18  2  0  0  0  0
 18 19  1  0  0  0  0
 19 24  1  0  0  0  0
 20 10  1  6  0  0  0
 20 22  1  0  0  0  0
 20 23  1  0  0  0  0
 21 14  1  1  0  0  0
 21 22  1  0  0  0  0
 22 15  1  6  0  0  0
 23 24  1  1  0  0  0
 25  8  1  6  0  0  0
 25 32  1  0  0  0  0
 26  9  1  6  0  0  0
 26 28  1  0  0  0  0
 27 28  1  0  0  0  0
 29 27  1  1  0  0  0
 29 30  1  0  0  0  0
 29 31  1  0  0  0  0
 30 35  1  0  0  0  0
 31 33  1  0  0  0  0
 31 32  1  6  0  0  0
 33 34  1  6  0  0  0
 33 35  1  0  0  0  0
 35 45  1  1  0  0  0
 36 41  2  0  0  0  0
 36 37  1  0  0  0  0
 37 38  2  0  0  0  0
 38 39  1  0  0  0  0
 39 40  2  0  0  0  0
 39 45  1  0  0  0  0
 40 41  1  0  0  0  0
 40 43  1  0  0  0  0
 41 42  1  0  0  0  0
 43 44  2  0  0  0  0
 44 45  1  0  0  0  0
M  CHG  4   8  -1   9  -1  11  -1  12  -1
M  END
>  <CHROM.1>
19.54549293,13.70360979,96.88043976,12.98935827,96.89063763,2.49422076,0.97574684
1.31777296

>  <Name>
ligand

>  <RI>
0

>  <Rbt.Current_Directory>
/home/itssahil/PROJECTS/Mol_Feturizer/New_Systems/rnas/4YAZ

>  <Rbt.Executable>
rbdock ($Id: //depot/dev/client3/rdock/2013.1/src/exe/rbdock.cxx#4 $)

>  <Rbt.Library>
libRbt.so (2013.1, Build901 2013/11/27)

>  <Rbt.Parameter_File>
/export/apps/rDock/src/rDock_2013.1_src/data/scripts/dock_solv.prm

>  <Rbt.Receptor>
prm/pocket_docking_3.prm

>  <SCORE>
-34.3149

>  <SCORE.INTER>
-33.3339

>  <SCORE.INTER.CONST>
1

>  <SCORE.INTER.POLAR>
0

>  <SCORE.INTER.ROT>
2

>  <SCORE.INTER.SOLV>
41.8612

>  <SCORE.INTER.VDW>
-41.1097

>  <SCORE.INTER.norm>
-0.740754

>  <SCORE.INTRA>
-0.980949

>  <SCORE.INTRA.DIHEDRAL>
-0.0635739

>  <SCORE.INTRA.DIHEDRAL.0>
2.39103

>  <SCORE.INTRA.POLAR>
0

>  <SCORE.INTRA.POLAR.0>
0

>  <SCORE.INTRA.REPUL>
0

>  <SCORE.INTRA.REPUL.0>
0

>  <SCORE.INTRA.SOLV>
1.01309

>  <SCORE.INTRA.SOLV.lig_0>
-163.975

>  <SCORE.INTRA.VDW>
-1.45571

>  <SCORE.INTRA.VDW.0>
-1.49176

>  <SCORE.INTRA.norm>
-0.0217989

>  <SCORE.RESTR>
0

>  <SCORE.RESTR.CAVITY>
0

>  <SCORE.RESTR.norm>
0

>  <SCORE.SYSTEM>
0

>  <SCORE.SYSTEM.CONST>
0

>  <SCORE.SYSTEM.DIHEDRAL>
0

>  <SCORE.SYSTEM.SOLV>
0

>  <SCORE.SYSTEM.norm>
0

>  <SCORE.heavy>
45

>  <SCORE.norm>
-0.762553

>  <RMSD>
6.830

$$$$
ligand
 OpenBabel11021811513D
libRbt.so/2013.1/901 2013/11/27
 45 51  0  0  0  0  0  0  0  0999 V2000
   96.4762   10.2175   98.2103 C   0  0  0  0  0  0  0  0  0  0  0  0
   95.6382   11.0117   94.4403 C   0  0  0  0  0  0  0  0  0  0  0  0
   93.8819   11.4351  103.1286 N   0  0  0  0  0  0  0  0  0  0  0  0
   97.3039   10.1241   99.1999 N   0  0  0  0  0  0  0  0  0  0  0  0
   94.4502   11.0618  100.8939 N   0  0  0  0  0  0  0  0  0  0  0  0
   96.0670   10.8362  102.5524 N   0  0  0  0  0  0  0  0  0  0  0  0
   98.3072   10.1614  102.0041 O   0  0  0  0  0  0  0  0  0  0  0  0
   98.0842    9.5243   93.2646 O   0  5  0  0  0  0  0  0  0  0  0  0
   93.9404   15.7073   94.9061 O   0  5  0  0  0  0  0  0  0  0  0  0
   92.7832   12.5585   97.4331 O   0  0  0  0  0  0  0  0  0  0  0  0
   99.2321   10.3779   94.9696 O   0  5  0  0  0  0  0  0  0  0  0  0
   94.5436   15.2145   97.0012 O   0  5  0  0  0  0  0  0  0  0  0  0
   96.7268   10.3808   94.9857 O   0  0  0  0  0  0  0  0  0  0  0  0
   94.3978   10.0896   96.4656 O   0  0  0  0  0  0  0  0  0  0  0  0
   94.0826   13.3709   95.3019 O   0  0  0  0  0  0  0  0  0  0  0  0
   94.8539   11.1035  102.1367 C   0  0  0  0  0  0  0  0  0  0  0  0
   96.9928   10.4833  101.6708 C   0  0  0  0  0  0  0  0  0  0  0  0
   96.6371   10.4352  100.3040 C   0  0  0  0  0  0  0  0  0  0  0  0
   95.3446   10.7197   99.9377 C   0  0  0  0  0  0  0  0  0  0  0  0
   94.0702   12.0664   97.4711 C   0  0  2  0  0  0  0  0  0  0  0  0
   94.5540   11.2089   95.4219 C   0  0  1  0  0  0  0  0  0  0  0  0
   94.7064   12.3022   96.0039 C   0  0  1  0  0  0  0  0  0  0  0  0
   94.1996   10.7897   97.7809 C   0  0  2  0  0  0  0  0  0  0  0  0
   95.3143   10.5803   98.6118 N   0  0  0  0  0  0  0  0  0  0  0  0
   98.0571   10.5763   94.1955 P   0  0  2  0  0  0  0  0  0  0  0  0
   94.6645   14.7588   95.6380 P   0  0  1  0  0  0  0  0  0  0  0  0
   96.4512   14.3591   93.7752 C   0  0  0  0  0  0  0  0  0  0  0  0
   96.1258   14.8412   95.0888 O   0  0  0  0  0  0  0  0  0  0  0  0
   97.8838   14.1285   93.5370 C   0  0  1  0  0  0  0  0  0  0  0  0
   98.6966   15.3649   94.1645 O   0  0  0  0  0  0  0  0  0  0  0  0
   98.2687   13.1145   94.1721 C   0  0  1  0  0  0  0  0  0  0  0  0
   98.0979   11.8954   93.4131 O   0  0  0  0  0  0  0  0  0  0  0  0
   99.7121   13.4314   94.5328 C   0  0  1  0  0  0  0  0  0  0  0  0
  100.4762   13.1348   93.5736 O   0  0  0  0  0  0  0  0  0  0  0  0
   99.7313   14.9478   94.7260 C   0  0  2  0  0  0  0  0  0  0  0  0
   97.7057   17.2782   98.8370 N   0  0  0  0  0  0  0  0  0  0  0  0
   97.1008   17.0547   97.6408 C   0  0  0  0  0  0  0  0  0  0  0  0
   97.8041   16.4239   96.7081 N   0  0  0  0  0  0  0  0  0  0  0  0
   99.0938   16.0504   96.8499 C   0  0  0  0  0  0  0  0  0  0  0  0
   99.7561   16.2653   98.0775 C   0  0  0  0  0  0  0  0  0  0  0  0
   98.9819   16.9265   99.0838 C   0  0  0  0  0  0  0  0  0  0  0  0
   99.5776   17.2060  100.3491 N   0  0  0  0  0  0  0  0  0  0  0  0
  100.9403   15.7791   97.9465 N   0  0  0  0  0  0  0  0  0  0  0  0
  101.0565   15.2577   96.7375 C   0  0  0  0  0  0  0  0  0  0  0  0
   99.9779   15.4246   96.0593 N   0  0  0  0  0  0  0  0  0  0  0  0
  1 24  1  0  0  0  0
  1  4  2  0  0  0  0
  2 13  1  0  0  0  0
  2 21  1  0  0  0  0
  3 16  1  0  0  0  0
  4 18  1  0  0  0  0
  5 19  2  0  0  0  0
  5 16  1  0  0  0  0
  6 16  2  0  0  0  0
  6 17  1  0  0  0  0
  7 17  1  0  0  0  0
 11 25  2  0  0  0  0
 12 26  2  0  0  0  0
 13 25  1  0  0  0  0
 14 23  1  0  0  0  0
 15 26  1  0  0  0  0
 17 18  2  0  0  0  0
 18 19  1  0  0  0  0
 19 24  1  0  0  0  0
 20 10  1  6  0  0  0
 20 22  1  0  0  0  0
 20 23  1  0  0  0  0
 21 14  1  1  0  0  0
 21 22  1  0  0  0  0
 22 15  1  6  0  0  0
 23 24  1  1  0  0  0
 25  8  1  6  0  0  0
 25 32  1  0  0  0  0
 26  9  1  6  0  0  0
 26 28  1  0  0  0  0
 27 28  1  0  0  0  0
 29 27  1  1  0  0  0
 29 30  1  0  0  0  0
 29 31  1  0  0  0  0
 30 35  1  0  0  0  0
 31 33  1  0  0  0  0
 31 32  1  6  0  0  0
 33 34  1  6  0  0  0
 33 35  1  0  0  0  0
 35 45  1  1  0  0  0
 36 41  2  0  0  0  0
 36 37  1  0  0  0  0
 37 38  2  0  0  0  0
 38 39  1  0  0  0  0
 39 40  2  0  0  0  0
 39 45  1  0  0  0  0
 40 41  1  0  0  0  0
 40 43  1  0  0  0  0
 41 42  1  0  0  0  0
 43 44  2  0  0  0  0
 44 45  1  0  0  0  0
M  CHG  4   8  -1   9  -1  11  -1  12  -1
M  END
>  <CHROM.1>
19.69271301,14.07429151,96.88831731,12.97387720,96.88271190,2.49282161,0.97615719
1.31472196

>  <Name>
ligand

>  <RI>
0

>  <Rbt.Current_Directory>
/home/itssahil/PROJECTS/Mol_Feturizer/New_Systems/rnas/4YAZ

>  <Rbt.Executable>
rbdock ($Id: //depot/dev/client3/rdock/2013.1/src/exe/rbdock.cxx#4 $)

>  <Rbt.Library>
libRbt.so (2013.1, Build901 2013/11/27)

>  <Rbt.Parameter_File>
/export/apps/rDock/src/rDock_2013.1_src/data/scripts/dock_solv.prm

>  <Rbt.Receptor>
prm/pocket_docking_5.prm

>  <SCORE>
-34.4157

>  <SCORE.INTER>
-33.4345

>  <SCORE.INTER.CONST>
1

>  <SCORE.INTER.POLAR>
0

>  <SCORE.INTER.ROT>
2

>  <SCORE.INTER.SOLV>
41.6861

>  <SCORE.INTER.VDW>
-41.1184

>  <SCORE.INTER.norm>
-0.74299

>  <SCORE.INTRA>
-0.981134

>  <SCORE.INTRA.DIHEDRAL>
-0.0657285

>  <SCORE.INTRA.DIHEDRAL.0>
2.39103

>  <SCORE.INTRA.POLAR>
0

>  <SCORE.INTRA.POLAR.0>
0

>  <SCORE.INTRA.REPUL>
0

>  <SCORE.INTRA.REPUL.0>
0

>  <SCORE.INTRA.SOLV>
1.03096

>  <SCORE.INTRA.SOLV.lig_0>
-163.975

>  <SCORE.INTRA.VDW>
-1.46375

>  <SCORE.INTRA.VDW.0>
-1.49176

>  <SCORE.INTRA.norm>
-0.021803

>  <SCORE.RESTR>
0

>  <SCORE.RESTR.CAVITY>
0

>  <SCORE.RESTR.norm>
0

>  <SCORE.SYSTEM>
0

>  <SCORE.SYSTEM.CONST>
0

>  <SCORE.SYSTEM.DIHEDRAL>
0

>  <SCORE.SYSTEM.SOLV>
0

>  <SCORE.SYSTEM.norm>
0

>  <SCORE.heavy>
45

>  <SCORE.norm>
-0.764793

>  <RMSD>
6.830

$$$$
ligand
 OpenBabel11021811513D
libRbt.so/2013.1/901 2013/11/27
 45 51  0  0  0  0  0  0  0  0999 V2000
   96.4756   10.2164   98.2144 C   0  0  0  0  0  0  0  0  0  0  0  0
   95.6401   11.0049   94.4427 C   0  0  0  0  0  0  0  0  0  0  0  0
   93.8779   11.4403  103.1295 N   0  0  0  0  0  0  0  0  0  0  0  0
   97.3027   10.1242   99.2047 N   0  0  0  0  0  0  0  0  0  0  0  0
   94.4477   11.0641  100.8956 N   0  0  0  0  0  0  0  0  0  0  0  0
   96.0634   10.8407  102.5555 N   0  0  0  0  0  0  0  0  0  0  0  0
   98.3040   10.1651  102.0096 O   0  0  0  0  0  0  0  0  0  0  0  0
   98.0866    9.5153   93.2708 O   0  5  0  0  0  0  0  0  0  0  0  0
   93.9429   15.7015   94.9005 O   0  5  0  0  0  0  0  0  0  0  0  0
   92.7834   12.5567   97.4315 O   0  0  0  0  0  0  0  0  0  0  0  0
   99.2336   10.3713   94.9753 O   0  5  0  0  0  0  0  0  0  0  0  0
   94.5447   15.2117   96.9968 O   0  5  0  0  0  0  0  0  0  0  0  0
   96.7282   10.3747   94.9898 O   0  0  0  0  0  0  0  0  0  0  0  0
   94.3982   10.0861   96.4687 O   0  0  0  0  0  0  0  0  0  0  0  0
   94.0844   13.3657   95.2998 O   0  0  0  0  0  0  0  0  0  0  0  0
   94.8506   11.1074  102.1386 C   0  0  0  0  0  0  0  0  0  0  0  0
   96.9898   10.4866  101.6750 C   0  0  0  0  0  0  0  0  0  0  0  0
   96.6350   10.4368  100.3080 C   0  0  0  0  0  0  0  0  0  0  0  0
   95.3428   10.7208   99.9405 C   0  0  0  0  0  0  0  0  0  0  0  0
   94.0703   12.0645   97.4710 C   0  0  2  0  0  0  0  0  0  0  0  0
   94.5553   11.2038   95.4233 C   0  0  1  0  0  0  0  0  0  0  0  0
   94.7076   12.2979   96.0039 C   0  0  1  0  0  0  0  0  0  0  0  0
   94.1993   10.7882   97.7827 C   0  0  2  0  0  0  0  0  0  0  0  0
   95.3134   10.5798   98.6147 N   0  0  0  0  0  0  0  0  0  0  0  0
   98.0591   10.5687   94.2002 P   0  0  2  0  0  0  0  0  0  0  0  0
   94.6663   14.7540   95.6342 P   0  0  1  0  0  0  0  0  0  0  0  0
   96.4542   14.3512   93.7732 C   0  0  0  0  0  0  0  0  0  0  0  0
   96.1280   14.8353   95.0859 O   0  0  0  0  0  0  0  0  0  0  0  0
   97.8869   14.1200   93.5363 C   0  0  1  0  0  0  0  0  0  0  0  0
   98.6995   15.3571   94.1625 O   0  0  0  0  0  0  0  0  0  0  0  0
   98.2712   13.1068   94.1732 C   0  0  1  0  0  0  0  0  0  0  0  0
   98.1006   11.8866   93.4159 O   0  0  0  0  0  0  0  0  0  0  0  0
   99.7144   13.4240   94.5343 C   0  0  1  0  0  0  0  0  0  0  0  0
  100.4790   13.1259   93.5760 O   0  0  0  0  0  0  0  0  0  0  0  0
   99.7338   14.9407   94.7252 C   0  0  2  0  0  0  0  0  0  0  0  0
   97.7063   17.2784   98.8312 N   0  0  0  0  0  0  0  0  0  0  0  0
   97.1021   17.0534   97.6349 C   0  0  0  0  0  0  0  0  0  0  0  0
   97.8058   16.4208   96.7037 N   0  0  0  0  0  0  0  0  0  0  0  0
   99.0952   16.0469   96.8470 C   0  0  0  0  0  0  0  0  0  0  0  0
   99.7567   16.2633   98.0748 C   0  0  0  0  0  0  0  0  0  0  0  0
   98.9821   16.9265   99.0795 C   0  0  0  0  0  0  0  0  0  0  0  0
   99.5769   17.2076  100.3448 N   0  0  0  0  0  0  0  0  0  0  0  0
  100.9407   15.7763   97.9454 N   0  0  0  0  0  0  0  0  0  0  0  0
  101.0576   15.2530   96.7373 C   0  0  0  0  0  0  0  0  0  0  0  0
   99.9795   15.4195   96.0580 N   0  0  0  0  0  0  0  0  0  0  0  0
  1 24  1  0  0  0  0
  1  4  2  0  0  0  0
  2 13  1  0  0  0  0
  2 21  1  0  0  0  0
  3 16  1  0  0  0  0
  4 18  1  0  0  0  0
  5 19  2  0  0  0  0
  5 16  1  0  0  0  0
  6 16  2  0  0  0  0
  6 17  1  0  0  0  0
  7 17  1  0  0  0  0
 11 25  2  0  0  0  0
 12 26  2  0  0  0  0
 13 25  1  0  0  0  0
 14 23  1  0  0  0  0
 15 26  1  0  0  0  0
 17 18  2  0  0  0  0
 18 19  1  0  0  0  0
 19 24  1  0  0  0  0
 20 10  1  6  0  0  0
 20 22  1  0  0  0  0
 20 23  1  0  0  0  0
 21 14  1  1  0  0  0
 21 22  1  0  0  0  0
 22 15  1  6  0  0  0
 23 24  1  1  0  0  0
 25  8  1  6  0  0  0
 25 32  1  0  0  0  0
 26  9  1  6  0  0  0
 26 28  1  0  0  0  0
 27 28  1  0  0  0  0
 29 27  1  1  0  0  0
 29 30  1  0  0  0  0
 29 31  1  0  0  0  0
 30 35  1  0  0  0  0
 31 33  1  0  0  0  0
 31 32  1  6  0  0  0
 33 34  1  6  0  0  0
 33 35  1  0  0  0  0
 35 45  1  1  0  0  0
 36 41  2  0  0  0  0
 36 37  1  0  0  0  0
 37 38  2  0  0  0  0
 38 39  1  0  0  0  0
 39 40  2  0  0  0  0
 39 45  1  0  0  0  0
 40 41  1  0  0  0  0
 40 43  1  0  0  0  0
 41 42  1  0  0  0  0
 43 44  2  0  0  0  0
 44 45  1  0  0  0  0
M  CHG  4   8  -1   9  -1  11  -1  12  -1
M  END
>  <CHROM.1>
19.70893809,14.05507436,96.88901859,12.97047598,96.88306210,2.49405171,0.97589383
1.31237802

>  <Name>
ligand

>  <RI>
0

>  <Rbt.Current_Directory>
/home/itssahil/PROJECTS/Mol_Feturizer/New_Systems/rnas/4YAZ

>  <Rbt.Executable>
rbdock ($Id: //depot/dev/client3/rdock/2013.1/src/exe/rbdock.cxx#4 $)

>  <Rbt.Library>
libRbt.so (2013.1, Build901 2013/11/27)

>  <Rbt.Parameter_File>
/export/apps/rDock/src/rDock_2013.1_src/data/scripts/dock_solv.prm

>  <Rbt.Receptor>
prm/pocket_docking_5.prm

>  <SCORE>
-34.418

>  <SCORE.INTER>
-33.4366

>  <SCORE.INTER.CONST>
1

>  <SCORE.INTER.POLAR>
0

>  <SCORE.INTER.ROT>
2

>  <SCORE.INTER.SOLV>
41.6792

>  <SCORE.INTER.VDW>
-41.1175

>  <SCORE.INTER.norm>
-0.743036

>  <SCORE.INTRA>
-0.981331

>  <SCORE.INTRA.DIHEDRAL>
-0.065614

>  <SCORE.INTRA.DIHEDRAL.0>
2.39103

>  <SCORE.INTRA.POLAR>
0

>  <SCORE.INTRA.POLAR.0>
0

>  <SCORE.INTRA.REPUL>
0

>  <SCORE.INTRA.REPUL.0>
0

>  <SCORE.INTRA.SOLV>
1.03003

>  <SCORE.INTRA.SOLV.lig_0>
-163.975

>  <SCORE.INTRA.VDW>
-1.46354

>  <SCORE.INTRA.VDW.0>
-1.49176

>  <SCORE.INTRA.norm>
-0.0218073

>  <SCORE.RESTR>
0

>  <SCORE.RESTR.CAVITY>
0

>  <SCORE.RESTR.norm>
0

>  <SCORE.SYSTEM>
0

>  <SCORE.SYSTEM.CONST>
0

>  <SCORE.SYSTEM.DIHEDRAL>
0

>  <SCORE.SYSTEM.SOLV>
0

>  <SCORE.SYSTEM.norm>
0

>  <SCORE.heavy>
45

>  <SCORE.norm>
-0.764844

>  <RMSD>
6.831

$$$$
ligand
 OpenBabel11021811513D
libRbt.so/2013.1/901 2013/11/27
 45 51  0  0  0  0  0  0  0  0999 V2000
   96.5019   10.1685   98.2363 C   0  0  0  0  0  0  0  0  0  0  0  0
   95.6509   10.9449   94.4622 C   0  0  0  0  0  0  0  0  0  0  0  0
   93.9232   11.4538  103.1456 N   0  0  0  0  0  0  0  0  0  0  0  0
   97.3338   10.0927   99.2240 N   0  0  0  0  0  0  0  0  0  0  0  0
   94.4838   11.0479  100.9146 N   0  0  0  0  0  0  0  0  0  0  0  0
   96.1078   10.8526  102.5700 N   0  0  0  0  0  0  0  0  0  0  0  0
   98.3478   10.1760  102.0233 O   0  0  0  0  0  0  0  0  0  0  0  0
   98.1094    9.4757   93.2895 O   0  5  0  0  0  0  0  0  0  0  0  0
   93.9066   15.6256   94.9052 O   0  5  0  0  0  0  0  0  0  0  0  0
   92.7869   12.4796   97.4526 O   0  0  0  0  0  0  0  0  0  0  0  0
   99.2523   10.3506   94.9871 O   0  5  0  0  0  0  0  0  0  0  0  0
   94.5193   15.1509   97.0017 O   0  5  0  0  0  0  0  0  0  0  0  0
   96.7471   10.3282   95.0087 O   0  0  0  0  0  0  0  0  0  0  0  0
   94.4244   10.0219   96.4955 O   0  0  0  0  0  0  0  0  0  0  0  0
   94.0733   13.2931   95.3138 O   0  0  0  0  0  0  0  0  0  0  0  0
   94.8923   11.1099  102.1551 C   0  0  0  0  0  0  0  0  0  0  0  0
   97.0312   10.4889  101.6903 C   0  0  0  0  0  0  0  0  0  0  0  0
   96.6703   10.4188  100.3258 C   0  0  0  0  0  0  0  0  0  0  0  0
   95.3756   10.6938   99.9603 C   0  0  0  0  0  0  0  0  0  0  0  0
   94.0789   12.0009   97.4905 C   0  0  2  0  0  0  0  0  0  0  0  0
   94.5669   11.1367   95.4450 C   0  0  1  0  0  0  0  0  0  0  0  0
   94.7095   12.2348   96.0205 C   0  0  1  0  0  0  0  0  0  0  0  0
   94.2220   10.7274   97.8072 C   0  0  2  0  0  0  0  0  0  0  0  0
   95.3405   10.5340   98.6368 N   0  0  0  0  0  0  0  0  0  0  0  0
   98.0736   10.5327   94.2146 P   0  0  2  0  0  0  0  0  0  0  0  0
   94.6418   14.6887   95.6407 P   0  0  1  0  0  0  0  0  0  0  0  0
   96.4285   14.2966   93.7763 C   0  0  0  0  0  0  0  0  0  0  0  0
   96.1011   14.7828   95.0879 O   0  0  0  0  0  0  0  0  0  0  0  0
   97.8628   14.0791   93.5363 C   0  0  1  0  0  0  0  0  0  0  0  0
   98.6643   15.3272   94.1549 O   0  0  0  0  0  0  0  0  0  0  0  0
   98.2594   13.0727   94.1763 C   0  0  1  0  0  0  0  0  0  0  0  0
   98.0993   11.8476   93.4246 O   0  0  0  0  0  0  0  0  0  0  0  0
   99.7003   13.4063   94.5319 C   0  0  1  0  0  0  0  0  0  0  0  0
  100.4652   13.1120   93.5727 O   0  0  0  0  0  0  0  0  0  0  0  0
   99.7045   14.9239   94.7164 C   0  0  2  0  0  0  0  0  0  0  0  0
   97.6688   17.2721   98.8123 N   0  0  0  0  0  0  0  0  0  0  0  0
   97.0647   17.0377   97.6178 C   0  0  0  0  0  0  0  0  0  0  0  0
   97.7707   16.4041   96.6892 N   0  0  0  0  0  0  0  0  0  0  0  0
   99.0623   16.0376   96.8331 C   0  0  0  0  0  0  0  0  0  0  0  0
   99.7238   16.2639   98.0591 C   0  0  0  0  0  0  0  0  0  0  0  0
   98.9467   16.9281   99.0611 C   0  0  0  0  0  0  0  0  0  0  0  0
   99.5413   17.2189  100.3244 N   0  0  0  0  0  0  0  0  0  0  0  0
  100.9102   15.7824   97.9310 N   0  0  0  0  0  0  0  0  0  0  0  0
  101.0287   15.2535   96.7255 C   0  0  0  0  0  0  0  0  0  0  0  0
   99.9491   15.4108   96.0465 N   0  0  0  0  0  0  0  0  0  0  0  0
  1 24  1  0  0  0  0
  1  4  2  0  0  0  0
  2 13  1  0  0  0  0
  2 21  1  0  0  0  0
  3 16  1  0  0  0  0
  4 18  1  0  0  0  0
  5 19  2  0  0  0  0
  5 16  1  0  0  0  0
  6 16  2  0  0  0  0
  6 17  1  0  0  0  0
  7 17  1  0  0  0  0
 11 25  2  0  0  0  0
 12 26  2  0  0  0  0
 13 25  1  0  0  0  0
 14 23  1  0  0  0  0
 15 26  1  0  0  0  0
 17 18  2  0  0  0  0
 18 19  1  0  0  0  0
 19 24  1  0  0  0  0
 20 10  1  6  0  0  0
 20 22  1  0  0  0  0
 20 23  1  0  0  0  0
 21 14  1  1  0  0  0
 21 22  1  0  0  0  0
 22 15  1  6  0  0  0
 23 24  1  1  0  0  0
 25  8  1  6  0  0  0
 25 32  1  0  0  0  0
 26  9  1  6  0  0  0
 26 28  1  0  0  0  0
 27 28  1  0  0  0  0
 29 27  1  1  0  0  0
 29 30  1  0  0  0  0
 29 31  1  0  0  0  0
 30 35  1  0  0  0  0
 31 33  1  0  0  0  0
 31 32  1  6  0  0  0
 33 34  1  6  0  0  0
 33 35  1  0  0  0  0
 35 45  1  1  0  0  0
 36 41  2  0  0  0  0
 36 37  1  0  0  0  0
 37 38  2  0  0  0  0
 38 39  1  0  0  0  0
 39 40  2  0  0  0  0
 39 45  1  0  0  0  0
 40 41  1  0  0  0  0
 40 43  1  0  0  0  0
 41 42  1  0  0  0  0
 43 44  2  0  0  0  0
 44 45  1  0  0  0  0
M  CHG  4   8  -1   9  -1  11  -1  12  -1
M  END
>  <CHROM.1>
18.99595983,13.73898306,96.88765134,12.93835248,96.88972455,2.49479207,0.98669660
1.30451363

>  <Name>
ligand

>  <RI>
0

>  <Rbt.Current_Directory>
/home/itssahil/PROJECTS/Mol_Feturizer/New_Systems/rnas/4YAZ

>  <Rbt.Executable>
rbdock ($Id: //depot/dev/client3/rdock/2013.1/src/exe/rbdock.cxx#4 $)

>  <Rbt.Library>
libRbt.so (2013.1, Build901 2013/11/27)

>  <Rbt.Parameter_File>
/export/apps/rDock/src/rDock_2013.1_src/data/scripts/dock_solv.prm

>  <Rbt.Receptor>
prm/pocket_docking_6.prm

>  <SCORE>
-34.2866

>  <SCORE.INTER>
-33.3104

>  <SCORE.INTER.CONST>
1

>  <SCORE.INTER.POLAR>
0

>  <SCORE.INTER.ROT>
2

>  <SCORE.INTER.SOLV>
41.0945

>  <SCORE.INTER.VDW>
-40.8384

>  <SCORE.INTER.norm>
-0.740231

>  <SCORE.INTRA>
-0.976173

>  <SCORE.INTRA.DIHEDRAL>
-0.0638658

>  <SCORE.INTRA.DIHEDRAL.0>
2.39103

>  <SCORE.INTRA.POLAR>
0

>  <SCORE.INTRA.POLAR.0>
0

>  <SCORE.INTRA.REPUL>
0

>  <SCORE.INTRA.REPUL.0>
0

>  <SCORE.INTRA.SOLV>
1.01489

>  <SCORE.INTRA.SOLV.lig_0>
-163.975

>  <SCORE.INTRA.VDW>
-1.45169

>  <SCORE.INTRA.VDW.0>
-1.49176

>  <SCORE.INTRA.norm>
-0.0216927

>  <SCORE.RESTR>
0

>  <SCORE.RESTR.CAVITY>
0

>  <SCORE.RESTR.norm>
0

>  <SCORE.SYSTEM>
0

>  <SCORE.SYSTEM.CONST>
0

>  <SCORE.SYSTEM.DIHEDRAL>
0

>  <SCORE.SYSTEM.SOLV>
0

>  <SCORE.SYSTEM.norm>
0

>  <SCORE.heavy>
45

>  <SCORE.norm>
-0.761923

>  <RMSD>
6.831

$$$$
ligand
 OpenBabel11021811513D
libRbt.so/2013.1/901 2013/11/27
 45 51  0  0  0  0  0  0  0  0999 V2000
   96.2746   10.2940   97.8789 C   0  0  0  0  0  0  0  0  0  0  0  0
   95.2738   11.2851   94.1932 C   0  0  0  0  0  0  0  0  0  0  0  0
   93.9525   11.3731  102.9628 N   0  0  0  0  0  0  0  0  0  0  0  0
   97.1479   10.1467   98.8217 N   0  0  0  0  0  0  0  0  0  0  0  0
   94.4018   11.0745  100.6901 N   0  0  0  0  0  0  0  0  0  0  0  0
   96.0933   10.7541  102.2561 N   0  0  0  0  0  0  0  0  0  0  0  0
   98.2887   10.0571  101.5716 O   0  0  0  0  0  0  0  0  0  0  0  0
   97.6378    9.8219   92.8339 O   0  5  0  0  0  0  0  0  0  0  0  0
   93.6732   15.9760   94.9559 O   0  5  0  0  0  0  0  0  0  0  0  0
   92.5887   12.7284   97.3882 O   0  0  0  0  0  0  0  0  0  0  0  0
   98.8786   10.5796   94.5190 O   0  5  0  0  0  0  0  0  0  0  0  0
   94.3676   15.3780   96.9946 O   0  5  0  0  0  0  0  0  0  0  0  0
   96.3772   10.6151   94.6559 O   0  0  0  0  0  0  0  0  0  0  0  0
   94.1170   10.2861   96.2315 O   0  0  0  0  0  0  0  0  0  0  0  0
   93.7978   13.6221   95.2364 O   0  0  0  0  0  0  0  0  0  0  0  0
   94.8671   11.0607  101.9118 C   0  0  0  0  0  0  0  0  0  0  0  0
   96.9667   10.4172  101.3167 C   0  0  0  0  0  0  0  0  0  0  0  0
   96.5431   10.4284   99.9686 C   0  0  0  0  0  0  0  0  0  0  0  0
   95.2406   10.7518   99.6783 C   0  0  0  0  0  0  0  0  0  0  0  0
   93.8682   12.2180   97.3415 C   0  0  2  0  0  0  0  0  0  0  0  0
   94.2407   11.4508   95.2340 C   0  0  1  0  0  0  0  0  0  0  0  0
   94.4376   12.5136   95.8577 C   0  0  1  0  0  0  0  0  0  0  0  0
   93.9924   10.9267   97.5856 C   0  0  2  0  0  0  0  0  0  0  0  0
   95.1420   10.6638   98.3513 N   0  0  0  0  0  0  0  0  0  0  0  0
   97.6714   10.8295   93.8124 P   0  0  2  0  0  0  0  0  0  0  0  0
   94.4164   14.9849   95.6075 P   0  0  1  0  0  0  0  0  0  0  0  0
   96.1062   14.6489   93.6444 C   0  0  0  0  0  0  0  0  0  0  0  0
   95.8511   15.0734   94.9930 O   0  0  0  0  0  0  0  0  0  0  0  0
   97.5221   14.4106   93.3271 C   0  0  1  0  0  0  0  0  0  0  0  0
   98.3829   15.6054   93.9709 O   0  0  0  0  0  0  0  0  0  0  0  0
   97.9210   13.3630   93.8956 C   0  0  1  0  0  0  0  0  0  0  0  0
   97.6954   12.1830   93.0905 O   0  0  0  0  0  0  0  0  0  0  0  0
   99.3846   13.6435   94.2005 C   0  0  1  0  0  0  0  0  0  0  0  0
  100.0975   13.3819   93.1929 O   0  0  0  0  0  0  0  0  0  0  0  0
   99.4365   15.1489   94.4620 C   0  0  2  0  0  0  0  0  0  0  0  0
   97.6548   17.3433   98.7567 N   0  0  0  0  0  0  0  0  0  0  0  0
   96.9926   17.1883   97.5802 C   0  0  0  0  0  0  0  0  0  0  0  0
   97.6376   16.5825   96.5905 N   0  0  0  0  0  0  0  0  0  0  0  0
   98.9218   16.1712   96.6581 C   0  0  0  0  0  0  0  0  0  0  0  0
   99.6424   16.3148   97.8631 C   0  0  0  0  0  0  0  0  0  0  0  0
   98.9307   16.9495   98.9307 C   0  0  0  0  0  0  0  0  0  0  0  0
   99.5882   17.1576  100.1791 N   0  0  0  0  0  0  0  0  0  0  0  0
  100.8063   15.8057   97.6583 N   0  0  0  0  0  0  0  0  0  0  0  0
  100.8559   15.3360   96.4239 C   0  0  0  0  0  0  0  0  0  0  0  0
   99.7535   15.5596   95.8024 N   0  0  0  0  0  0  0  0  0  0  0  0
  1 24  1  0  0  0  0
  1  4  2  0  0  0  0
  2 13  1  0  0  0  0
  2 21  1  0  0  0  0
  3 16  1  0  0  0  0
  4 18  1  0  0  0  0
  5 19  2  0  0  0  0
  5 16  1  0  0  0  0
  6 16  2  0  0  0  0
  6 17  1  0  0  0  0
  7 17  1  0  0  0  0
 11 25  2  0  0  0  0
 12 26  2  0  0  0  0
 13 25  1  0  0  0  0
 14 23  1  0  0  0  0
 15 26  1  0  0  0  0
 17 18  2  0  0  0  0
 18 19  1  0  0  0  0
 19 24  1  0  0  0  0
 20 10  1  6  0  0  0
 20 22  1  0  0  0  0
 20 23  1  0  0  0  0
 21 14  1  1  0  0  0
 21 22  1  0  0  0  0
 22 15  1  6  0  0  0
 23 24  1  1  0  0  0
 25  8  1  6  0  0  0
 25 32  1  0  0  0  0
 26  9  1  6  0  0  0
 26 28  1  0  0  0  0
 27 28  1  0  0  0  0
 29 27  1  1  0  0  0
 29 30  1  0  0  0  0
 29 31  1  0  0  0  0
 30 35  1  0  0  0  0
 31 33  1  0  0  0  0
 31 32  1  6  0  0  0
 33 34  1  6  0  0  0
 33 35  1  0  0  0  0
 35 45  1  1  0  0  0
 36 41  2  0  0  0  0
 36 37  1  0  0  0  0
 37 38  2  0  0  0  0
 38 39  1  0  0  0  0
 39 40  2  0  0  0  0
 39 45  1  0  0  0  0
 40 41  1  0  0  0  0
 40 43  1  0  0  0  0
 41 42  1  0  0  0  0
 43 44  2  0  0  0  0
 44 45  1  0  0  0  0
M  CHG  4   8  -1   9  -1  11  -1  12  -1
M  END
>  <CHROM.1>
19.08059889,13.37778078,96.67057095,13.12006047,96.65904208,2.40828149,0.97296274
1.42992302

>  <Name>
ligand

>  <RI>
0

>  <Rbt.Current_Directory>
/home/itssahil/PROJECTS/Mol_Feturizer/New_Systems/rnas/4YAZ

>  <Rbt.Executable>
rbdock ($Id: //depot/dev/client3/rdock/2013.1/src/exe/rbdock.cxx#4 $)

>  <Rbt.Library>
libRbt.so (2013.1, Build901 2013/11/27)

>  <Rbt.Parameter_File>
/export/apps/rDock/src/rDock_2013.1_src/data/scripts/dock_solv.prm

>  <Rbt.Receptor>
prm/pocket_docking_2.prm

>  <SCORE>
-31.4043

>  <SCORE.INTER>
-31.1212

>  <SCORE.INTER.CONST>
1

>  <SCORE.INTER.POLAR>
0

>  <SCORE.INTER.ROT>
2

>  <SCORE.INTER.SOLV>
40.5128

>  <SCORE.INTER.VDW>
-39.1851

>  <SCORE.INTER.norm>
-0.691581

>  <SCORE.INTRA>
-0.977669

>  <SCORE.INTRA.DIHEDRAL>
-0.061707

>  <SCORE.INTRA.DIHEDRAL.0>
2.39103

>  <SCORE.INTRA.POLAR>
0

>  <SCORE.INTRA.POLAR.0>
0

>  <SCORE.INTRA.REPUL>
0

>  <SCORE.INTRA.REPUL.0>
0

>  <SCORE.INTRA.SOLV>
0.997274

>  <SCORE.INTRA.SOLV.lig_0>
-163.975

>  <SCORE.INTRA.VDW>
-1.44545

>  <SCORE.INTRA.VDW.0>
-1.49176

>  <SCORE.INTRA.norm>
-0.021726

>  <SCORE.RESTR>
0.694555

>  <SCORE.RESTR.CAVITY>
0.694555

>  <SCORE.RESTR.norm>
0.0154346

>  <SCORE.SYSTEM>
0

>  <SCORE.SYSTEM.CONST>
0

>  <SCORE.SYSTEM.DIHEDRAL>
0

>  <SCORE.SYSTEM.SOLV>
0

>  <SCORE.SYSTEM.norm>
0

>  <SCORE.heavy>
45

>  <SCORE.norm>
-0.697873

>  <RMSD>
6.832

$$$$
ligand
 OpenBabel11021811513D
libRbt.so/2013.1/901 2013/11/27
 45 51  0  0  0  0  0  0  0  0999 V2000
   96.4777   10.1728   98.2320 C   0  0  0  0  0  0  0  0  0  0  0  0
   95.6373   10.9614   94.4576 C   0  0  0  0  0  0  0  0  0  0  0  0
   93.9004   11.4726  103.1383 N   0  0  0  0  0  0  0  0  0  0  0  0
   97.3078   10.0915   99.2208 N   0  0  0  0  0  0  0  0  0  0  0  0
   94.4615   11.0639  100.9079 N   0  0  0  0  0  0  0  0  0  0  0  0
   96.0820   10.8580  102.5654 N   0  0  0  0  0  0  0  0  0  0  0  0
   98.3185   10.1676  102.0215 O   0  0  0  0  0  0  0  0  0  0  0  0
   98.0899    9.4812   93.2865 O   0  5  0  0  0  0  0  0  0  0  0  0
   93.9170   15.6505   94.9054 O   0  5  0  0  0  0  0  0  0  0  0  0
   92.7767   12.5065   97.4459 O   0  0  0  0  0  0  0  0  0  0  0  0
   99.2347   10.3473   94.9872 O   0  5  0  0  0  0  0  0  0  0  0  0
   94.5239   15.1693   97.0021 O   0  5  0  0  0  0  0  0  0  0  0  0
   96.7293   10.3381   95.0049 O   0  0  0  0  0  0  0  0  0  0  0  0
   94.4027   10.0416   96.4875 O   0  0  0  0  0  0  0  0  0  0  0  0
   94.0708   13.3165   95.3105 O   0  0  0  0  0  0  0  0  0  0  0  0
   94.8687   11.1229  102.1489 C   0  0  0  0  0  0  0  0  0  0  0  0
   97.0043   10.4888  101.6869 C   0  0  0  0  0  0  0  0  0  0  0  0
   96.6448   10.4214  100.3218 C   0  0  0  0  0  0  0  0  0  0  0  0
   95.3523   10.7046   99.9547 C   0  0  0  0  0  0  0  0  0  0  0  0
   94.0661   12.0209   97.4851 C   0  0  2  0  0  0  0  0  0  0  0  0
   94.5528   11.1574   95.4390 C   0  0  1  0  0  0  0  0  0  0  0  0
   94.7003   12.2538   96.0165 C   0  0  1  0  0  0  0  0  0  0  0  0
   94.2019   10.7461   97.8000 C   0  0  2  0  0  0  0  0  0  0  0  0
   95.3181   10.5454   98.6311 N   0  0  0  0  0  0  0  0  0  0  0  0
   98.0582   10.5368   94.2132 P   0  0  2  0  0  0  0  0  0  0  0  0
   94.6461   14.7086   95.6406 P   0  0  1  0  0  0  0  0  0  0  0  0
   96.4337   14.3100   93.7784 C   0  0  0  0  0  0  0  0  0  0  0  0
   96.1067   14.7958   95.0903 O   0  0  0  0  0  0  0  0  0  0  0  0
   97.8673   14.0854   93.5403 C   0  0  1  0  0  0  0  0  0  0  0  0
   98.6744   15.3282   94.1622 O   0  0  0  0  0  0  0  0  0  0  0  0
   98.2575   13.0759   94.1793 C   0  0  1  0  0  0  0  0  0  0  0  0
   98.0921   11.8528   93.4254 O   0  0  0  0  0  0  0  0  0  0  0  0
   99.6995   13.4013   94.5378 C   0  0  1  0  0  0  0  0  0  0  0  0
  100.4644   13.1045   93.5793 O   0  0  0  0  0  0  0  0  0  0  0  0
   99.7114   14.9185   94.7248 C   0  0  2  0  0  0  0  0  0  0  0  0
   97.6907   17.2994   98.8091 N   0  0  0  0  0  0  0  0  0  0  0  0
   97.0894   17.0741   97.6115 C   0  0  0  0  0  0  0  0  0  0  0  0
   97.7905   16.4293   96.6868 N   0  0  0  0  0  0  0  0  0  0  0  0
   99.0753   16.0428   96.8377 C   0  0  0  0  0  0  0  0  0  0  0  0
   99.7337   16.2591   98.0672 C   0  0  0  0  0  0  0  0  0  0  0  0
   98.9617   16.9357   99.0649 C   0  0  0  0  0  0  0  0  0  0  0  0
   99.5540   17.2176  100.3312 N   0  0  0  0  0  0  0  0  0  0  0  0
  100.9132   15.7592   97.9455 N   0  0  0  0  0  0  0  0  0  0  0  0
  101.0299   15.2281   96.7408 C   0  0  0  0  0  0  0  0  0  0  0  0
   99.9565   15.4020   96.0560 N   0  0  0  0  0  0  0  0  0  0  0  0
  1 24  1  0  0  0  0
  1  4  2  0  0  0  0
  2 13  1  0  0  0  0
  2 21  1  0  0  0  0
  3 16  1  0  0  0  0
  4 18  1  0  0  0  0
  5 19  2  0  0  0  0
  5 16  1  0  0  0  0
  6 16  2  0  0  0  0
  6 17  1  0  0  0  0
  7 17  1  0  0  0  0
 11 25  2  0  0  0  0
 12 26  2  0  0  0  0
 13 25  1  0  0  0  0
 14 23  1  0  0  0  0
 15 26  1  0  0  0  0
 17 18  2  0  0  0  0
 18 19  1  0  0  0  0
 19 24  1  0  0  0  0
 20 10  1  6  0  0  0
 20 22  1  0  0  0  0
 20 23  1  0  0  0  0
 21 14  1  1  0  0  0
 21 22  1  0  0  0  0
 22 15  1  6  0  0  0
 23 24  1  1  0  0  0
 25  8  1  6  0  0  0
 25 32  1  0  0  0  0
 26  9  1  6  0  0  0
 26 28  1  0  0  0  0
 27 28  1  0  0  0  0
 29 27  1  1  0  0  0
 29 30  1  0  0  0  0
 29 31  1  0  0  0  0
 30 35  1  0  0  0  0
 31 33  1  0  0  0  0
 31 32  1  6  0  0  0
 33 34  1  6  0  0  0
 33 35  1  0  0  0  0
 35 45  1  1  0  0  0
 36 41  2  0  0  0  0
 36 37  1  0  0  0  0
 37 38  2  0  0  0  0
 38 39  1  0  0  0  0
 39 40  2  0  0  0  0
 39 45  1  0  0  0  0
 40 41  1  0  0  0  0
 40 43  1  0  0  0  0
 41 42  1  0  0  0  0
 43 44  2  0  0  0  0
 44 45  1  0  0  0  0
M  CHG  4   8  -1   9  -1  11  -1  12  -1
M  END
>  <CHROM.1>
18.90340105,13.10209406,96.88148242,12.94711581,96.88934245,2.50021657,0.98301449
1.30328248

>  <Name>
ligand

>  <RI>
0

>  <Rbt.Current_Directory>
/home/itssahil/PROJECTS/Mol_Feturizer/New_Systems/rnas/4YAZ

>  <Rbt.Executable>
rbdock ($Id: //depot/dev/client3/rdock/2013.1/src/exe/rbdock.cxx#4 $)

>  <Rbt.Library>
libRbt.so (2013.1, Build901 2013/11/27)

>  <Rbt.Parameter_File>
/export/apps/rDock/src/rDock_2013.1_src/data/scripts/dock_solv.prm

>  <Rbt.Receptor>
prm/pocket_docking_8.prm

>  <SCORE>
-34.3043

>  <SCORE.INTER>
-33.3277

>  <SCORE.INTER.CONST>
1

>  <SCORE.INTER.POLAR>
0

>  <SCORE.INTER.ROT>
2

>  <SCORE.INTER.SOLV>
41.291

>  <SCORE.INTER.VDW>
-40.9155

>  <SCORE.INTER.norm>
-0.740616

>  <SCORE.INTRA>
-0.976553

>  <SCORE.INTRA.DIHEDRAL>
-0.0600784

>  <SCORE.INTRA.DIHEDRAL.0>
2.39103

>  <SCORE.INTRA.POLAR>
0

>  <SCORE.INTRA.POLAR.0>
0

>  <SCORE.INTRA.REPUL>
0

>  <SCORE.INTRA.REPUL.0>
0

>  <SCORE.INTRA.SOLV>
0.98371

>  <SCORE.INTRA.SOLV.lig_0>
-163.975

>  <SCORE.INTRA.VDW>
-1.43837

>  <SCORE.INTRA.VDW.0>
-1.49176

>  <SCORE.INTRA.norm>
-0.0217012

>  <SCORE.RESTR>
0

>  <SCORE.RESTR.CAVITY>
0

>  <SCORE.RESTR.norm>
0

>  <SCORE.SYSTEM>
0

>  <SCORE.SYSTEM.CONST>
0

>  <SCORE.SYSTEM.DIHEDRAL>
0

>  <SCORE.SYSTEM.SOLV>
0

>  <SCORE.SYSTEM.norm>
0

>  <SCORE.heavy>
45

>  <SCORE.norm>
-0.762317

>  <RMSD>
6.833

$$$$
ligand
 OpenBabel11021811513D
libRbt.so/2013.1/901 2013/11/27
 45 51  0  0  0  0  0  0  0  0999 V2000
   94.2379   11.2610   99.4248 C   0  0  0  0  0  0  0  0  0  0  0  0
   95.5081   11.2704   94.3334 C   0  0  0  0  0  0  0  0  0  0  0  0
   97.9549    7.7066   96.9847 N   0  0  0  0  0  0  0  0  0  0  0  0
   95.2316   11.0224  100.2179 N   0  0  0  0  0  0  0  0  0  0  0  0
   96.1434    9.0821   97.5166 N   0  0  0  0  0  0  0  0  0  0  0  0
   97.8553    8.7734   99.0625 N   0  0  0  0  0  0  0  0  0  0  0  0
   97.8175    9.9031  101.1831 O   0  0  0  0  0  0  0  0  0  0  0  0
   98.3943   10.3226   93.7427 O   0  5  0  0  0  0  0  0  0  0  0  0
   92.8731   15.5367   94.3939 O   0  5  0  0  0  0  0  0  0  0  0  0
   91.8168   12.1238   96.6021 O   0  0  0  0  0  0  0  0  0  0  0  0
   98.9483   11.3064   95.6607 O   0  5  0  0  0  0  0  0  0  0  0  0
   93.0807   15.0804   96.5722 O   0  5  0  0  0  0  0  0  0  0  0  0
   96.5498   10.8348   95.1116 O   0  0  0  0  0  0  0  0  0  0  0  0
   94.0523   10.0472   96.0290 O   0  0  0  0  0  0  0  0  0  0  0  0
   93.3737   13.2550   94.8168 O   0  0  0  0  0  0  0  0  0  0  0  0
   97.2757    8.5583   97.9077 C   0  0  0  0  0  0  0  0  0  0  0  0
   97.2812    9.5903   99.9354 C   0  0  0  0  0  0  0  0  0  0  0  0
   96.0435   10.1798   99.5923 C   0  0  0  0  0  0  0  0  0  0  0  0
   95.4950    9.9175   98.3610 C   0  0  0  0  0  0  0  0  0  0  0  0
   93.1336   11.8829   96.9303 C   0  0  2  0  0  0  0  0  0  0  0  0
   94.2162   11.2182   95.0448 C   0  0  1  0  0  0  0  0  0  0  0  0
   94.0212   12.2954   95.6438 C   0  0  1  0  0  0  0  0  0  0  0  0
   93.4359   10.6420   97.2642 C   0  0  2  0  0  0  0  0  0  0  0  0
   94.3576   10.6128   98.3255 N   0  0  0  0  0  0  0  0  0  0  0  0
   97.9584   11.3109   94.6413 P   0  0  2  0  0  0  0  0  0  0  0  0
   93.5866   14.7128   95.2723 P   0  0  1  0  0  0  0  0  0  0  0  0
   95.7844   14.7359   93.8611 C   0  0  0  0  0  0  0  0  0  0  0  0
   95.0890   15.0928   95.0665 O   0  0  0  0  0  0  0  0  0  0  0  0
   97.2510   14.7904   93.9526 C   0  0  1  0  0  0  0  0  0  0  0  0
   97.6493   16.1311   94.7444 O   0  0  0  0  0  0  0  0  0  0  0  0
   97.6744   13.8420   94.6605 C   0  0  1  0  0  0  0  0  0  0  0  0
   97.9154   12.6452   93.8852 O   0  0  0  0  0  0  0  0  0  0  0  0
   98.9127   14.4110   95.3365 C   0  0  1  0  0  0  0  0  0  0  0  0
   99.9128   14.3043   94.5749 O   0  0  0  0  0  0  0  0  0  0  0  0
   98.5946   15.8943   95.5256 C   0  0  2  0  0  0  0  0  0  0  0  0
  100.8353   16.3257  100.1329 N   0  0  0  0  0  0  0  0  0  0  0  0
  101.3394   15.7106   99.0309 C   0  0  0  0  0  0  0  0  0  0  0  0
  100.5956   15.7200   97.9313 N   0  0  0  0  0  0  0  0  0  0  0  0
   99.3527   16.2420   97.8574 C   0  0  0  0  0  0  0  0  0  0  0  0
   98.7952   16.8893   98.9809 C   0  0  0  0  0  0  0  0  0  0  0  0
   99.6142   16.8927  100.1550 C   0  0  0  0  0  0  0  0  0  0  0  0
   99.1221   17.5045  101.3456 N   0  0  0  0  0  0  0  0  0  0  0  0
   97.6391   17.3233   98.6191 N   0  0  0  0  0  0  0  0  0  0  0  0
   97.4454   17.0145   97.3486 C   0  0  0  0  0  0  0  0  0  0  0  0
   98.4424   16.3534   96.8791 N   0  0  0  0  0  0  0  0  0  0  0  0
  1 24  1  0  0  0  0
  1  4  2  0  0  0  0
  2 13  1  0  0  0  0
  2 21  1  0  0  0  0
  3 16  1  0  0  0  0
  4 18  1  0  0  0  0
  5 19  2  0  0  0  0
  5 16  1  0  0  0  0
  6 16  2  0  0  0  0
  6 17  1  0  0  0  0
  7 17  1  0  0  0  0
 11 25  2  0  0  0  0
 12 26  2  0  0  0  0
 13 25  1  0  0  0  0
 14 23  1  0  0  0  0
 15 26  1  0  0  0  0
 17 18  2  0  0  0  0
 18 19  1  0  0  0  0
 19 24  1  0  0  0  0
 20 10  1  6  0  0  0
 20 22  1  0  0  0  0
 20 23  1  0  0  0  0
 21 14  1  1  0  0  0
 21 22  1  0  0  0  0
 22 15  1  6  0  0  0
 23 24  1  1  0  0  0
 25  8  1  6  0  0  0
 25 32  1  0  0  0  0
 26  9  1  6  0  0  0
 26 28  1  0  0  0  0
 27 28  1  0  0  0  0
 29 27  1  1  0  0  0
 29 30  1  0  0  0  0
 29 31  1  0  0  0  0
 30 35  1  0  0  0  0
 31 33  1  0  0  0  0
 31 32  1  6  0  0  0
 33 34  1  6  0  0  0
 33 35  1  0  0  0  0
 35 45  1  1  0  0  0
 36 41  2  0  0  0  0
 36 37  1  0  0  0  0
 37 38  2  0  0  0  0
 38 39  1  0  0  0  0
 39 40  2  0  0  0  0
 39 45  1  0  0  0  0
 40 41  1  0  0  0  0
 40 43  1  0  0  0  0
 41 42  1  0  0  0  0
 43 44  2  0  0  0  0
 44 45  1  0  0  0  0
M  CHG  4   8  -1   9  -1  11  -1  12  -1
M  END
>  <CHROM.1>
166.11917090,-177.59008714,96.62658395,13.01193216,96.70441660,-2.37728972
-0.67496546,-0.40383495

>  <Name>
ligand

>  <RI>
0

>  <Rbt.Current_Directory>
/home/itssahil/PROJECTS/Mol_Feturizer/New_Systems/rnas/4YAZ

>  <Rbt.Executable>
rbdock ($Id: //depot/dev/client3/rdock/2013.1/src/exe/rbdock.cxx#4 $)

>  <Rbt.Library>
libRbt.so (2013.1, Build901 2013/11/27)

>  <Rbt.Parameter_File>
/export/apps/rDock/src/rDock_2013.1_src/data/scripts/dock_solv.prm

>  <Rbt.Receptor>
prm/pocket_docking_7.prm

>  <SCORE>
-39.9341

>  <SCORE.INTER>
-40.5046

>  <SCORE.INTER.CONST>
1

>  <SCORE.INTER.POLAR>
0

>  <SCORE.INTER.ROT>
2

>  <SCORE.INTER.SOLV>
27.9459

>  <SCORE.INTER.VDW>
-41.2517

>  <SCORE.INTER.norm>
-0.900103

>  <SCORE.INTRA>
0.570518

>  <SCORE.INTRA.DIHEDRAL>
0.0137522

>  <SCORE.INTRA.DIHEDRAL.0>
2.39103

>  <SCORE.INTRA.POLAR>
0

>  <SCORE.INTRA.POLAR.0>
0

>  <SCORE.INTRA.REPUL>
0

>  <SCORE.INTRA.REPUL.0>
0

>  <SCORE.INTRA.SOLV>
2.52102

>  <SCORE.INTRA.SOLV.lig_0>
-163.975

>  <SCORE.INTRA.VDW>
-0.69687

>  <SCORE.INTRA.VDW.0>
-1.49176

>  <SCORE.INTRA.norm>
0.0126782

>  <SCORE.RESTR>
0

>  <SCORE.RESTR.CAVITY>
0

>  <SCORE.RESTR.norm>
0

>  <SCORE.SYSTEM>
0

>  <SCORE.SYSTEM.CONST>
0

>  <SCORE.SYSTEM.DIHEDRAL>
0

>  <SCORE.SYSTEM.SOLV>
0

>  <SCORE.SYSTEM.norm>
0

>  <SCORE.heavy>
45

>  <SCORE.norm>
-0.887425

>  <RMSD>
6.834

$$$$
ligand
 OpenBabel11021811513D
libRbt.so/2013.1/901 2013/11/27
 45 51  0  0  0  0  0  0  0  0999 V2000
   94.0596   11.3178   99.3937 C   0  0  0  0  0  0  0  0  0  0  0  0
   95.3819   11.2137   94.3079 C   0  0  0  0  0  0  0  0  0  0  0  0
   97.7564    7.6994   97.0179 N   0  0  0  0  0  0  0  0  0  0  0  0
   95.0431   11.0742  100.1979 N   0  0  0  0  0  0  0  0  0  0  0  0
   95.9565    9.1006   97.5215 N   0  0  0  0  0  0  0  0  0  0  0  0
   97.6505    8.7849   99.0857 N   0  0  0  0  0  0  0  0  0  0  0  0
   97.6066    9.9329  101.1963 O   0  0  0  0  0  0  0  0  0  0  0  0
   98.2497   10.1867   93.7613 O   0  5  0  0  0  0  0  0  0  0  0  0
   92.8492   15.5417   94.2650 O   0  5  0  0  0  0  0  0  0  0  0  0
   91.6926   12.1970   96.5267 O   0  0  0  0  0  0  0  0  0  0  0  0
   98.8105   11.1931   95.6655 O   0  5  0  0  0  0  0  0  0  0  0  0
   93.0271   15.1218   96.4532 O   0  5  0  0  0  0  0  0  0  0  0  0
   96.4061   10.7682   95.1035 O   0  0  0  0  0  0  0  0  0  0  0  0
   93.8828   10.0576   96.0128 O   0  0  0  0  0  0  0  0  0  0  0  0
   93.2915   13.2572   94.7348 O   0  0  0  0  0  0  0  0  0  0  0  0
   97.0789    8.5668   97.9274 C   0  0  0  0  0  0  0  0  0  0  0  0
   97.0781    9.6158   99.9464 C   0  0  0  0  0  0  0  0  0  0  0  0
   95.8506   10.2169   99.5869 C   0  0  0  0  0  0  0  0  0  0  0  0
   95.3104    9.9507   98.3528 C   0  0  0  0  0  0  0  0  0  0  0  0
   93.0005   11.9312   96.8714 C   0  0  2  0  0  0  0  0  0  0  0  0
   94.0831   11.2055   95.0085 C   0  0  1  0  0  0  0  0  0  0  0  0
   93.9087   12.2982   95.5854 C   0  0  1  0  0  0  0  0  0  0  0  0
   93.2701   10.6900   97.2310 C   0  0  2  0  0  0  0  0  0  0  0  0
   94.1817   10.6590   98.3010 N   0  0  0  0  0  0  0  0  0  0  0  0
   97.8298   11.2018   94.6372 P   0  0  2  0  0  0  0  0  0  0  0  0
   93.5352   14.7178   95.1650 P   0  0  1  0  0  0  0  0  0  0  0  0
   95.7450   14.6621   93.7737 C   0  0  0  0  0  0  0  0  0  0  0  0
   95.0480   15.0581   94.9658 O   0  0  0  0  0  0  0  0  0  0  0  0
   97.2117   14.6836   93.8774 C   0  0  1  0  0  0  0  0  0  0  0  0
   97.6351   16.0291   94.6476 O   0  0  0  0  0  0  0  0  0  0  0  0
   97.6062   13.7389   94.6066 C   0  0  1  0  0  0  0  0  0  0  0  0
   97.8252   12.5223   93.8561 O   0  0  0  0  0  0  0  0  0  0  0  0
   98.8518   14.2910   95.2832 C   0  0  1  0  0  0  0  0  0  0  0  0
   99.8557   14.1463   94.5328 O   0  0  0  0  0  0  0  0  0  0  0  0
   98.5676   15.7847   95.4417 C   0  0  2  0  0  0  0  0  0  0  0  0
  100.7612   16.2120  100.0720 N   0  0  0  0  0  0  0  0  0  0  0  0
  101.2563   15.5593   98.9878 C   0  0  0  0  0  0  0  0  0  0  0  0
  100.5283   15.5774   97.8778 N   0  0  0  0  0  0  0  0  0  0  0  0
   99.3070   16.1444   97.7777 C   0  0  0  0  0  0  0  0  0  0  0  0
   98.7594   16.8316   98.8821 C   0  0  0  0  0  0  0  0  0  0  0  0
   99.5621   16.8247  100.0674 C   0  0  0  0  0  0  0  0  0  0  0  0
   99.0775   17.4753  101.2404 N   0  0  0  0  0  0  0  0  0  0  0  0
   97.6255   17.3023   98.4968 N   0  0  0  0  0  0  0  0  0  0  0  0
   97.4373   16.9789   97.2291 C   0  0  0  0  0  0  0  0  0  0  0  0
   98.4148   16.2728   96.7850 N   0  0  0  0  0  0  0  0  0  0  0  0
  1 24  1  0  0  0  0
  1  4  2  0  0  0  0
  2 13  1  0  0  0  0
  2 21  1  0  0  0  0
  3 16  1  0  0  0  0
  4 18  1  0  0  0  0
  5 19  2  0  0  0  0
  5 16  1  0  0  0  0
  6 16  2  0  0  0  0
  6 17  1  0  0  0  0
  7 17  1  0  0  0  0
 11 25  2  0  0  0  0
 12 26  2  0  0  0  0
 13 25  1  0  0  0  0
 14 23  1  0  0  0  0
 15 26  1  0  0  0  0
 17 18  2  0  0  0  0
 18 19  1  0  0  0  0
 19 24  1  0  0  0  0
 20 10  1  6  0  0  0
 20 22  1  0  0  0  0
 20 23  1  0  0  0  0
 21 14  1  1  0  0  0
 21 22  1  0  0  0  0
 22 15  1  6  0  0  0
 23 24  1  1  0  0  0
 25  8  1  6  0  0  0
 25 32  1  0  0  0  0
 26  9  1  6  0  0  0
 26 28  1  0  0  0  0
 27 28  1  0  0  0  0
 29 27  1  1  0  0  0
 29 30  1  0  0  0  0
 29 31  1  0  0  0  0
 30 35  1  0  0  0  0
 31 33  1  0  0  0  0
 31 32  1  6  0  0  0
 33 34  1  6  0  0  0
 33 35  1  0  0  0  0
 35 45  1  1  0  0  0
 36 41  2  0  0  0  0
 36 37  1  0  0  0  0
 37 38  2  0  0  0  0
 38 39  1  0  0  0  0
 39 40  2  0  0  0  0
 39 45  1  0  0  0  0
 40 41  1  0  0  0  0
 40 43  1  0  0  0  0
 41 42  1  0  0  0  0
 43 44  2  0  0  0  0
 44 45  1  0  0  0  0
M  CHG  4   8  -1   9  -1  11  -1  12  -1
M  END
>  <CHROM.1>
167.02766031,-178.43519789,96.52248387,12.97341010,96.65503831,-2.41642554
-0.67285359,-0.44146068

>  <Name>
ligand

>  <RI>
0

>  <Rbt.Current_Directory>
/home/itssahil/PROJECTS/Mol_Feturizer/New_Systems/rnas/4YAZ

>  <Rbt.Executable>
rbdock ($Id: //depot/dev/client3/rdock/2013.1/src/exe/rbdock.cxx#4 $)

>  <Rbt.Library>
libRbt.so (2013.1, Build901 2013/11/27)

>  <Rbt.Parameter_File>
/export/apps/rDock/src/rDock_2013.1_src/data/scripts/dock_solv.prm

>  <Rbt.Receptor>
prm/pocket_docking_4.prm

>  <SCORE>
-39.8197

>  <SCORE.INTER>
-40.5385

>  <SCORE.INTER.CONST>
1

>  <SCORE.INTER.POLAR>
0

>  <SCORE.INTER.ROT>
2

>  <SCORE.INTER.SOLV>
27.0634

>  <SCORE.INTER.VDW>
-40.9801

>  <SCORE.INTER.norm>
-0.900855

>  <SCORE.INTRA>
0.718826

>  <SCORE.INTRA.DIHEDRAL>
0.00750288

>  <SCORE.INTRA.DIHEDRAL.0>
2.39103

>  <SCORE.INTRA.POLAR>
0

>  <SCORE.INTRA.POLAR.0>
0

>  <SCORE.INTRA.REPUL>
0

>  <SCORE.INTRA.REPUL.0>
0

>  <SCORE.INTRA.SOLV>
2.94053

>  <SCORE.INTRA.SOLV.lig_0>
-163.975

>  <SCORE.INTRA.VDW>
-0.75519

>  <SCORE.INTRA.VDW.0>
-1.49176

>  <SCORE.INTRA.norm>
0.0159739

>  <SCORE.RESTR>
0

>  <SCORE.RESTR.CAVITY>
0

>  <SCORE.RESTR.norm>
0

>  <SCORE.SYSTEM>
0

>  <SCORE.SYSTEM.CONST>
0

>  <SCORE.SYSTEM.DIHEDRAL>
0

>  <SCORE.SYSTEM.SOLV>
0

>  <SCORE.SYSTEM.norm>
0

>  <SCORE.heavy>
45

>  <SCORE.norm>
-0.884881

>  <RMSD>
6.835

$$$$
ligand
 OpenBabel11021811513D
libRbt.so/2013.1/901 2013/11/27
 45 51  0  0  0  0  0  0  0  0999 V2000
   96.4890   10.2174   98.2187 C   0  0  0  0  0  0  0  0  0  0  0  0
   95.6366   11.0189   94.4567 C   0  0  0  0  0  0  0  0  0  0  0  0
   93.8876   11.3339  103.1572 N   0  0  0  0  0  0  0  0  0  0  0  0
   97.3183   10.1158   99.2062 N   0  0  0  0  0  0  0  0  0  0  0  0
   94.4575   11.0010  100.9165 N   0  0  0  0  0  0  0  0  0  0  0  0
   96.0776   10.7639  102.5703 N   0  0  0  0  0  0  0  0  0  0  0  0
   98.3233   10.1179  102.0100 O   0  0  0  0  0  0  0  0  0  0  0  0
   98.0818    9.5419   93.2663 O   0  5  0  0  0  0  0  0  0  0  0  0
   93.9331   15.7092   94.9537 O   0  5  0  0  0  0  0  0  0  0  0  0
   92.7871   12.5444   97.4657 O   0  0  0  0  0  0  0  0  0  0  0  0
   99.2329   10.3876   94.9731 O   0  5  0  0  0  0  0  0  0  0  0  0
   94.5425   15.2055   97.0444 O   0  5  0  0  0  0  0  0  0  0  0  0
   96.7276   10.3866   94.9957 O   0  0  0  0  0  0  0  0  0  0  0  0
   94.4029   10.0835   96.4800 O   0  0  0  0  0  0  0  0  0  0  0  0
   94.0798   13.3709   95.3357 O   0  0  0  0  0  0  0  0  0  0  0  0
   94.8618   11.0267  102.1596 C   0  0  0  0  0  0  0  0  0  0  0  0
   97.0058   10.4332  101.6827 C   0  0  0  0  0  0  0  0  0  0  0  0
   96.6495   10.4035  100.3155 C   0  0  0  0  0  0  0  0  0  0  0  0
   95.3543   10.6821   99.9545 C   0  0  0  0  0  0  0  0  0  0  0  0
   94.0750   12.0541   97.4976 C   0  0  2  0  0  0  0  0  0  0  0  0
   94.5547   11.2090   95.4422 C   0  0  1  0  0  0  0  0  0  0  0  0
   94.7070   12.2992   96.0301 C   0  0  1  0  0  0  0  0  0  0  0  0
   94.2071   10.7758   97.7997 C   0  0  2  0  0  0  0  0  0  0  0  0
   95.3242   10.5633   98.6266 N   0  0  0  0  0  0  0  0  0  0  0  0
   98.0556   10.5885   94.2033 P   0  0  2  0  0  0  0  0  0  0  0  0
   94.6605   14.7577   95.6782 P   0  0  1  0  0  0  0  0  0  0  0  0
   96.4430   14.3713   93.8086 C   0  0  0  0  0  0  0  0  0  0  0  0
   96.1203   14.8454   95.1258 O   0  0  0  0  0  0  0  0  0  0  0  0
   97.8753   14.1442   93.5654 C   0  0  1  0  0  0  0  0  0  0  0  0
   98.6879   15.3782   94.1978 O   0  0  0  0  0  0  0  0  0  0  0  0
   98.2634   13.1271   94.1938 C   0  0  1  0  0  0  0  0  0  0  0  0
   98.0924   11.9121   93.4283 O   0  0  0  0  0  0  0  0  0  0  0  0
   99.7072   13.4442   94.5525 C   0  0  1  0  0  0  0  0  0  0  0  0
  100.4692   13.1542   93.5896 O   0  0  0  0  0  0  0  0  0  0  0  0
   99.7246   14.9595   94.7542 C   0  0  2  0  0  0  0  0  0  0  0  0
   97.7173   17.2986   98.8692 N   0  0  0  0  0  0  0  0  0  0  0  0
   97.1122   17.0858   97.6712 C   0  0  0  0  0  0  0  0  0  0  0  0
   97.8102   16.4504   96.7377 N   0  0  0  0  0  0  0  0  0  0  0  0
   99.0954   16.0620   96.8806 C   0  0  0  0  0  0  0  0  0  0  0  0
   99.7577   16.2655   98.1102 C   0  0  0  0  0  0  0  0  0  0  0  0
   98.9890   16.9319   99.1172 C   0  0  0  0  0  0  0  0  0  0  0  0
   99.5853   17.2006  100.3846 N   0  0  0  0  0  0  0  0  0  0  0  0
  100.9366   15.7665   97.9797 N   0  0  0  0  0  0  0  0  0  0  0  0
  101.0494   15.2479   96.7693 C   0  0  0  0  0  0  0  0  0  0  0  0
   99.9740   15.4291   96.0896 N   0  0  0  0  0  0  0  0  0  0  0  0
  1 24  1  0  0  0  0
  1  4  2  0  0  0  0
  2 13  1  0  0  0  0
  2 21  1  0  0  0  0
  3 16  1  0  0  0  0
  4 18  1  0  0  0  0
  5 19  2  0  0  0  0
  5 16  1  0  0  0  0
  6 16  2  0  0  0  0
  6 17  1  0  0  0  0
  7 17  1  0  0  0  0
 11 25  2  0  0  0  0
 12 26  2  0  0  0  0
 13 25  1  0  0  0  0
 14 23  1  0  0  0  0
 15 26  1  0  0  0  0
 17 18  2  0  0  0  0
 18 19  1  0  0  0  0
 19 24  1  0  0  0  0
 20 10  1  6  0  0  0
 20 22  1  0  0  0  0
 20 23  1  0  0  0  0
 21 14  1  1  0  0  0
 21 22  1  0  0  0  0
 22 15  1  6  0  0  0
 23 24  1  1  0  0  0
 25  8  1  6  0  0  0
 25 32  1  0  0  0  0
 26  9  1  6  0  0  0
 26 28  1  0  0  0  0
 27 28  1  0  0  0  0
 29 27  1  1  0  0  0
 29 30  1  0  0  0  0
 29 31  1  0  0  0  0
 30 35  1  0  0  0  0
 31 33  1  0  0  0  0
 31 32  1  6  0  0  0
 33 34  1  6  0  0  0
 33 35  1  0  0  0  0
 35 45  1  1  0  0  0
 36 41  2  0  0  0  0
 36 37  1  0  0  0  0
 37 38  2  0  0  0  0
 38 39  1  0  0  0  0
 39 40  2  0  0  0  0
 39 45  1  0  0  0  0
 40 41  1  0  0  0  0
 40 43  1  0  0  0  0
 41 42  1  0  0  0  0
 43 44  2  0  0  0  0
 44 45  1  0  0  0  0
M  CHG  4   8  -1   9  -1  11  -1  12  -1
M  END
>  <CHROM.1>
20.42116687,13.29427864,96.88997214,12.96801466,96.90632516,2.49731000,0.98158241
1.32344793

>  <Name>
ligand

>  <RI>
0

>  <Rbt.Current_Directory>
/home/itssahil/PROJECTS/Mol_Feturizer/New_Systems/rnas/4YAZ

>  <Rbt.Executable>
rbdock ($Id: //depot/dev/client3/rdock/2013.1/src/exe/rbdock.cxx#4 $)

>  <Rbt.Library>
libRbt.so (2013.1, Build901 2013/11/27)

>  <Rbt.Parameter_File>
/export/apps/rDock/src/rDock_2013.1_src/data/scripts/dock_solv.prm

>  <Rbt.Receptor>
prm/pocket_docking_8.prm

>  <SCORE>
-34.2419

>  <SCORE.INTER>
-33.2529

>  <SCORE.INTER.CONST>
1

>  <SCORE.INTER.POLAR>
0

>  <SCORE.INTER.ROT>
2

>  <SCORE.INTER.SOLV>
41.761

>  <SCORE.INTER.VDW>
-41.0223

>  <SCORE.INTER.norm>
-0.738954

>  <SCORE.INTRA>
-0.988925

>  <SCORE.INTRA.DIHEDRAL>
-0.0610129

>  <SCORE.INTRA.DIHEDRAL.0>
2.39103

>  <SCORE.INTRA.POLAR>
0

>  <SCORE.INTRA.POLAR.0>
0

>  <SCORE.INTRA.REPUL>
0

>  <SCORE.INTRA.REPUL.0>
0

>  <SCORE.INTRA.SOLV>
0.992957

>  <SCORE.INTRA.SOLV.lig_0>
-163.975

>  <SCORE.INTRA.VDW>
-1.4549

>  <SCORE.INTRA.VDW.0>
-1.49176

>  <SCORE.INTRA.norm>
-0.0219761

>  <SCORE.RESTR>
0

>  <SCORE.RESTR.CAVITY>
0

>  <SCORE.RESTR.norm>
0

>  <SCORE.SYSTEM>
0

>  <SCORE.SYSTEM.CONST>
0

>  <SCORE.SYSTEM.DIHEDRAL>
0

>  <SCORE.SYSTEM.SOLV>
0

>  <SCORE.SYSTEM.norm>
0

>  <SCORE.heavy>
45

>  <SCORE.norm>
-0.760931

>  <RMSD>
6.837

$$$$
ligand
 OpenBabel11021811513D
libRbt.so/2013.1/901 2013/11/27
 45 51  0  0  0  0  0  0  0  0999 V2000
   96.4829   10.1569   98.2367 C   0  0  0  0  0  0  0  0  0  0  0  0
   95.6336   10.9091   94.4585 C   0  0  0  0  0  0  0  0  0  0  0  0
   93.8898   11.4366  103.1399 N   0  0  0  0  0  0  0  0  0  0  0  0
   97.3134   10.0862   99.2258 N   0  0  0  0  0  0  0  0  0  0  0  0
   94.4562   11.0304  100.9104 N   0  0  0  0  0  0  0  0  0  0  0  0
   96.0782   10.8446  102.5688 N   0  0  0  0  0  0  0  0  0  0  0  0
   98.3222   10.1776  102.0268 O   0  0  0  0  0  0  0  0  0  0  0  0
   98.0962    9.4391   93.2957 O   0  5  0  0  0  0  0  0  0  0  0  0
   93.8797   15.5885   94.8771 O   0  5  0  0  0  0  0  0  0  0  0  0
   92.7631   12.4527   97.4383 O   0  0  0  0  0  0  0  0  0  0  0  0
   99.2355   10.3244   94.9903 O   0  5  0  0  0  0  0  0  0  0  0  0
   94.4910   15.1251   96.9765 O   0  5  0  0  0  0  0  0  0  0  0  0
   96.7303   10.2972   95.0092 O   0  0  0  0  0  0  0  0  0  0  0  0
   94.4065    9.9935   96.4948 O   0  0  0  0  0  0  0  0  0  0  0  0
   94.0505   13.2583   95.2971 O   0  0  0  0  0  0  0  0  0  0  0  0
   94.8622   11.0958  102.1514 C   0  0  0  0  0  0  0  0  0  0  0  0
   97.0047   10.4840  101.6912 C   0  0  0  0  0  0  0  0  0  0  0  0
   96.6465   10.4106  100.3261 C   0  0  0  0  0  0  0  0  0  0  0  0
   95.3512   10.6793   99.9580 C   0  0  0  0  0  0  0  0  0  0  0  0
   94.0560   11.9766   97.4799 C   0  0  2  0  0  0  0  0  0  0  0  0
   94.5481   11.1036   95.4392 C   0  0  1  0  0  0  0  0  0  0  0  0
   94.6879   12.2047   96.0096 C   0  0  1  0  0  0  0  0  0  0  0  0
   94.2012   10.7049   97.8029 C   0  0  2  0  0  0  0  0  0  0  0  0
   95.3191   10.5176   98.6347 N   0  0  0  0  0  0  0  0  0  0  0  0
   98.0573   10.5004   94.2156 P   0  0  2  0  0  0  0  0  0  0  0  0
   94.6159   14.6566   95.6180 P   0  0  1  0  0  0  0  0  0  0  0  0
   96.4054   14.2590   93.7574 C   0  0  0  0  0  0  0  0  0  0  0  0
   96.0756   14.7508   95.0663 O   0  0  0  0  0  0  0  0  0  0  0  0
   97.8405   14.0431   93.5201 C   0  0  1  0  0  0  0  0  0  0  0  0
   98.6389   15.2957   94.1336 O   0  0  0  0  0  0  0  0  0  0  0  0
   98.2383   13.0406   94.1653 C   0  0  1  0  0  0  0  0  0  0  0  0
   98.0814   11.8116   93.4193 O   0  0  0  0  0  0  0  0  0  0  0  0
   99.6781   13.3787   94.5210 C   0  0  1  0  0  0  0  0  0  0  0  0
  100.4447   13.0813   93.5641 O   0  0  0  0  0  0  0  0  0  0  0  0
   99.6792   14.8971   94.6983 C   0  0  2  0  0  0  0  0  0  0  0  0
   97.6444   17.2935   98.7666 N   0  0  0  0  0  0  0  0  0  0  0  0
   97.0445   17.0568   97.5704 C   0  0  0  0  0  0  0  0  0  0  0  0
   97.7494   16.4098   96.6501 N   0  0  0  0  0  0  0  0  0  0  0  0
   99.0364   16.0318   96.8036 C   0  0  0  0  0  0  0  0  0  0  0  0
   99.6935   16.2601   98.0317 C   0  0  0  0  0  0  0  0  0  0  0  0
   98.9175   16.9388   99.0248 C   0  0  0  0  0  0  0  0  0  0  0  0
   99.5081   17.2326  100.2893 N   0  0  0  0  0  0  0  0  0  0  0  0
  100.8758   15.7661   97.9134 N   0  0  0  0  0  0  0  0  0  0  0  0
  100.9956   15.2277   96.7123 C   0  0  0  0  0  0  0  0  0  0  0  0
   99.9213   15.3908   96.0262 N   0  0  0  0  0  0  0  0  0  0  0  0
  1 24  1  0  0  0  0
  1  4  2  0  0  0  0
  2 13  1  0  0  0  0
  2 21  1  0  0  0  0
  3 16  1  0  0  0  0
  4 18  1  0  0  0  0
  5 19  2  0  0  0  0
  5 16  1  0  0  0  0
  6 16  2  0  0  0  0
  6 17  1  0  0  0  0
  7 17  1  0  0  0  0
 11 25  2  0  0  0  0
 12 26  2  0  0  0  0
 13 25  1  0  0  0  0
 14 23  1  0  0  0  0
 15 26  1  0  0  0  0
 17 18  2  0  0  0  0
 18 19  1  0  0  0  0
 19 24  1  0  0  0  0
 20 10  1  6  0  0  0
 20 22  1  0  0  0  0
 20 23  1  0  0  0  0
 21 14  1  1  0  0  0
 21 22  1  0  0  0  0
 22 15  1  6  0  0  0
 23 24  1  1  0  0  0
 25  8  1  6  0  0  0
 25 32  1  0  0  0  0
 26  9  1  6  0  0  0
 26 28  1  0  0  0  0
 27 28  1  0  0  0  0
 29 27  1  1  0  0  0
 29 30  1  0  0  0  0
 29 31  1  0  0  0  0
 30 35  1  0  0  0  0
 31 33  1  0  0  0  0
 31 32  1  6  0  0  0
 33 34  1  6  0  0  0
 33 35  1  0  0  0  0
 35 45  1  1  0  0  0
 36 41  2  0  0  0  0
 36 37  1  0  0  0  0
 37 38  2  0  0  0  0
 38 39  1  0  0  0  0
 39 40  2  0  0  0  0
 39 45  1  0  0  0  0
 40 41  1  0  0  0  0
 40 43  1  0  0  0  0
 41 42  1  0  0  0  0
 43 44  2  0  0  0  0
 44 45  1  0  0  0  0
M  CHG  4   8  -1   9  -1  11  -1  12  -1
M  END
>  <CHROM.1>
19.25182093,13.01382093,96.86404730,12.91779278,96.87694749,2.50450177,0.99077964
1.29558690

>  <Name>
ligand

>  <RI>
0

>  <Rbt.Current_Directory>
/home/itssahil/PROJECTS/Mol_Feturizer/New_Systems/rnas/4YAZ

>  <Rbt.Executable>
rbdock ($Id: //depot/dev/client3/rdock/2013.1/src/exe/rbdock.cxx#4 $)

>  <Rbt.Library>
libRbt.so (2013.1, Build901 2013/11/27)

>  <Rbt.Parameter_File>
/export/apps/rDock/src/rDock_2013.1_src/data/scripts/dock_solv.prm

>  <Rbt.Receptor>
prm/pocket_docking_4.prm

>  <SCORE>
-34.1008

>  <SCORE.INTER>
-33.1521

>  <SCORE.INTER.CONST>
1

>  <SCORE.INTER.POLAR>
0

>  <SCORE.INTER.ROT>
2

>  <SCORE.INTER.SOLV>
40.7123

>  <SCORE.INTER.VDW>
-40.6055

>  <SCORE.INTER.norm>
-0.736714

>  <SCORE.INTRA>
-0.979666

>  <SCORE.INTRA.DIHEDRAL>
-0.0594914

>  <SCORE.INTRA.DIHEDRAL.0>
2.39103

>  <SCORE.INTRA.POLAR>
0

>  <SCORE.INTRA.POLAR.0>
0

>  <SCORE.INTRA.REPUL>
0

>  <SCORE.INTRA.REPUL.0>
0

>  <SCORE.INTRA.SOLV>
0.979272

>  <SCORE.INTRA.SOLV.lig_0>
-163.975

>  <SCORE.INTRA.VDW>
-1.43956

>  <SCORE.INTRA.VDW.0>
-1.49176

>  <SCORE.INTRA.norm>
-0.0217704

>  <SCORE.RESTR>
0.031038

>  <SCORE.RESTR.CAVITY>
0.031038

>  <SCORE.RESTR.norm>
0.000689733

>  <SCORE.SYSTEM>
0

>  <SCORE.SYSTEM.CONST>
0

>  <SCORE.SYSTEM.DIHEDRAL>
0

>  <SCORE.SYSTEM.SOLV>
0

>  <SCORE.SYSTEM.norm>
0

>  <SCORE.heavy>
45

>  <SCORE.norm>
-0.757795

>  <RMSD>
6.838

$$$$
ligand
 OpenBabel11021811513D
libRbt.so/2013.1/901 2013/11/27
 45 51  0  0  0  0  0  0  0  0999 V2000
   94.2242   11.2536   99.4440 C   0  0  0  0  0  0  0  0  0  0  0  0
   95.4104   11.2230   94.3353 C   0  0  0  0  0  0  0  0  0  0  0  0
   97.8722    7.6459   96.9784 N   0  0  0  0  0  0  0  0  0  0  0  0
   95.2285   11.0142  100.2233 N   0  0  0  0  0  0  0  0  0  0  0  0
   96.0809    9.0413   97.5263 N   0  0  0  0  0  0  0  0  0  0  0  0
   97.8148    8.7328   99.0474 N   0  0  0  0  0  0  0  0  0  0  0  0
   97.8204    9.8825  101.1576 O   0  0  0  0  0  0  0  0  0  0  0  0
   98.2826   10.2589   93.7045 O   0  5  0  0  0  0  0  0  0  0  0  0
   92.7953   15.5013   94.4121 O   0  5  0  0  0  0  0  0  0  0  0  0
   91.7595   12.1063   96.6573 O   0  0  0  0  0  0  0  0  0  0  0  0
   98.8715   11.2516   95.6074 O   0  5  0  0  0  0  0  0  0  0  0  0
   93.0357   15.0571   96.5895 O   0  5  0  0  0  0  0  0  0  0  0  0
   96.4624   10.7874   95.0994 O   0  0  0  0  0  0  0  0  0  0  0  0
   93.9765   10.0164   96.0613 O   0  0  0  0  0  0  0  0  0  0  0  0
   93.2926   13.2200   94.8407 O   0  0  0  0  0  0  0  0  0  0  0  0
   97.2149    8.5118   97.9041 C   0  0  0  0  0  0  0  0  0  0  0  0
   97.2615    9.5625   99.9216 C   0  0  0  0  0  0  0  0  0  0  0  0
   96.0233   10.1591   99.5928 C   0  0  0  0  0  0  0  0  0  0  0  0
   95.4530    9.8900   98.3730 C   0  0  0  0  0  0  0  0  0  0  0  0
   93.0804   11.8615   96.9660 C   0  0  2  0  0  0  0  0  0  0  0  0
   94.1298   11.1808   95.0676 C   0  0  1  0  0  0  0  0  0  0  0  0
   93.9491   12.2625   95.6631 C   0  0  1  0  0  0  0  0  0  0  0  0
   93.3825   10.6213   97.3025 C   0  0  2  0  0  0  0  0  0  0  0  0
   94.3209   10.5944   98.3491 N   0  0  0  0  0  0  0  0  0  0  0  0
   97.8655   11.2545   94.6039 P   0  0  2  0  0  0  0  0  0  0  0  0
   93.5191   14.6795   95.2840 P   0  0  1  0  0  0  0  0  0  0  0  0
   95.6942   14.6844   93.8379 C   0  0  0  0  0  0  0  0  0  0  0  0
   95.0197   15.0515   95.0520 O   0  0  0  0  0  0  0  0  0  0  0  0
   97.1623   14.7329   93.9057 C   0  0  1  0  0  0  0  0  0  0  0  0
   97.5791   16.0765   94.6829 O   0  0  0  0  0  0  0  0  0  0  0  0
   97.5929   13.7869   94.6124 C   0  0  1  0  0  0  0  0  0  0  0  0
   97.8162   12.5844   93.8406 O   0  0  0  0  0  0  0  0  0  0  0  0
   98.8442   14.3544   95.2652 C   0  0  1  0  0  0  0  0  0  0  0  0
   99.8316   14.2387   94.4884 O   0  0  0  0  0  0  0  0  0  0  0  0
   98.5356   15.8402   95.4504 C   0  0  2  0  0  0  0  0  0  0  0  0
  100.8169   16.2087  100.0432 N   0  0  0  0  0  0  0  0  0  0  0  0
  101.2934   15.5738   98.9402 C   0  0  0  0  0  0  0  0  0  0  0  0
  100.5439   15.6051   97.8449 N   0  0  0  0  0  0  0  0  0  0  0  0
   99.3189   16.1687   97.7767 C   0  0  0  0  0  0  0  0  0  0  0  0
   98.7902   16.8376   98.9014 C   0  0  0  0  0  0  0  0  0  0  0  0
   99.6158   16.8166  100.0707 C   0  0  0  0  0  0  0  0  0  0  0  0
   99.1517   17.4481  101.2623 N   0  0  0  0  0  0  0  0  0  0  0  0
   97.6473   17.3094   98.5450 N   0  0  0  0  0  0  0  0  0  0  0  0
   97.4358   17.0037   97.2766 C   0  0  0  0  0  0  0  0  0  0  0  0
   98.4071   16.3080   96.8034 N   0  0  0  0  0  0  0  0  0  0  0  0
  1 24  1  0  0  0  0
  1  4  2  0  0  0  0
  2 13  1  0  0  0  0
  2 21  1  0  0  0  0
  3 16  1  0  0  0  0
  4 18  1  0  0  0  0
  5 19  2  0  0  0  0
  5 16  1  0  0  0  0
  6 16  2  0  0  0  0
  6 17  1  0  0  0  0
  7 17  1  0  0  0  0
 11 25  2  0  0  0  0
 12 26  2  0  0  0  0
 13 25  1  0  0  0  0
 14 23  1  0  0  0  0
 15 26  1  0  0  0  0
 17 18  2  0  0  0  0
 18 19  1  0  0  0  0
 19 24  1  0  0  0  0
 20 10  1  6  0  0  0
 20 22  1  0  0  0  0
 20 23  1  0  0  0  0
 21 14  1  1  0  0  0
 21 22  1  0  0  0  0
 22 15  1  6  0  0  0
 23 24  1  1  0  0  0
 25  8  1  6  0  0  0
 25 32  1  0  0  0  0
 26  9  1  6  0  0  0
 26 28  1  0  0  0  0
 27 28  1  0  0  0  0
 29 27  1  1  0  0  0
 29 30  1  0  0  0  0
 29 31  1  0  0  0  0
 30 35  1  0  0  0  0
 31 33  1  0  0  0  0
 31 32  1  6  0  0  0
 33 34  1  6  0  0  0
 33 35  1  0  0  0  0
 35 45  1  1  0  0  0
 36 41  2  0  0  0  0
 36 37  1  0  0  0  0
 37 38  2  0  0  0  0
 38 39  1  0  0  0  0
 39 40  2  0  0  0  0
 39 45  1  0  0  0  0
 40 41  1  0  0  0  0
 40 43  1  0  0  0  0
 41 42  1  0  0  0  0
 43 44  2  0  0  0  0
 44 45  1  0  0  0  0
M  CHG  4   8  -1   9  -1  11  -1  12  -1
M  END
>  <CHROM.1>
165.82567230,-179.37760350,96.57086105,12.96614409,96.68031113,-2.37273632
-0.66083856,-0.41006073

>  <Name>
ligand

>  <RI>
0

>  <Rbt.Current_Directory>
/home/itssahil/PROJECTS/Mol_Feturizer/New_Systems/rnas/4YAZ

>  <Rbt.Executable>
rbdock ($Id: //depot/dev/client3/rdock/2013.1/src/exe/rbdock.cxx#4 $)

>  <Rbt.Library>
libRbt.so (2013.1, Build901 2013/11/27)

>  <Rbt.Parameter_File>
/export/apps/rDock/src/rDock_2013.1_src/data/scripts/dock_solv.prm

>  <Rbt.Receptor>
prm/pocket_docking_5.prm

>  <SCORE>
-39.9145

>  <SCORE.INTER>
-40.4405

>  <SCORE.INTER.CONST>
1

>  <SCORE.INTER.POLAR>
0

>  <SCORE.INTER.ROT>
2

>  <SCORE.INTER.SOLV>
27.4633

>  <SCORE.INTER.VDW>
-41.0481

>  <SCORE.INTER.norm>
-0.898678

>  <SCORE.INTRA>
0.525992

>  <SCORE.INTRA.DIHEDRAL>
0.00102863

>  <SCORE.INTRA.DIHEDRAL.0>
2.39103

>  <SCORE.INTRA.POLAR>
0

>  <SCORE.INTRA.POLAR.0>
0

>  <SCORE.INTRA.REPUL>
0

>  <SCORE.INTRA.REPUL.0>
0

>  <SCORE.INTRA.SOLV>
2.38734

>  <SCORE.INTRA.SOLV.lig_0>
-163.975

>  <SCORE.INTRA.VDW>
-0.668192

>  <SCORE.INTRA.VDW.0>
-1.49176

>  <SCORE.INTRA.norm>
0.0116887

>  <SCORE.RESTR>
0

>  <SCORE.RESTR.CAVITY>
0

>  <SCORE.RESTR.norm>
0

>  <SCORE.SYSTEM>
0

>  <SCORE.SYSTEM.CONST>
0

>  <SCORE.SYSTEM.DIHEDRAL>
0

>  <SCORE.SYSTEM.SOLV>
0

>  <SCORE.SYSTEM.norm>
0

>  <SCORE.heavy>
45

>  <SCORE.norm>
-0.886989

>  <RMSD>
6.839

$$$$
ligand
 OpenBabel11021811513D
libRbt.so/2013.1/901 2013/11/27
 45 51  0  0  0  0  0  0  0  0999 V2000
   94.2652   11.2939   99.4509 C   0  0  0  0  0  0  0  0  0  0  0  0
   95.4864   11.2711   94.3522 C   0  0  0  0  0  0  0  0  0  0  0  0
   97.9343    7.6878   97.0143 N   0  0  0  0  0  0  0  0  0  0  0  0
   95.2642   11.0561  100.2376 N   0  0  0  0  0  0  0  0  0  0  0  0
   96.1377    9.0819   97.5483 N   0  0  0  0  0  0  0  0  0  0  0  0
   97.8611    8.7764   99.0820 N   0  0  0  0  0  0  0  0  0  0  0  0
   97.8505    9.9277  101.1911 O   0  0  0  0  0  0  0  0  0  0  0  0
   98.3663   10.3172   93.7408 O   0  5  0  0  0  0  0  0  0  0  0  0
   92.8568   15.5406   94.4155 O   0  5  0  0  0  0  0  0  0  0  0  0
   91.8162   12.1394   96.6491 O   0  0  0  0  0  0  0  0  0  0  0  0
   98.9383   11.3095   95.6491 O   0  5  0  0  0  0  0  0  0  0  0  0
   93.0830   15.0945   96.5940 O   0  5  0  0  0  0  0  0  0  0  0  0
   96.5344   10.8380   95.1233 O   0  0  0  0  0  0  0  0  0  0  0  0
   94.0443   10.0576   96.0664 O   0  0  0  0  0  0  0  0  0  0  0  0
   93.3585   13.2604   94.8448 O   0  0  0  0  0  0  0  0  0  0  0  0
   97.2696    8.5538   97.9346 C   0  0  0  0  0  0  0  0  0  0  0  0
   97.3007    9.6063   99.9515 C   0  0  0  0  0  0  0  0  0  0  0  0
   96.0643   10.2013   99.6134 C   0  0  0  0  0  0  0  0  0  0  0  0
   95.5030    9.9306   98.3898 C   0  0  0  0  0  0  0  0  0  0  0  0
   93.1356   11.8986   96.9669 C   0  0  2  0  0  0  0  0  0  0  0  0
   94.2008   11.2237   95.0752 C   0  0  1  0  0  0  0  0  0  0  0  0
   94.0123   12.3040   95.6707 C   0  0  1  0  0  0  0  0  0  0  0  0
   93.4394   10.6590   97.3040 C   0  0  2  0  0  0  0  0  0  0  0  0
   94.3704   10.6338   98.3573 N   0  0  0  0  0  0  0  0  0  0  0  0
   97.9395   11.3102   94.6384 P   0  0  2  0  0  0  0  0  0  0  0  0
   93.5770   14.7201   95.2914 P   0  0  1  0  0  0  0  0  0  0  0  0
   95.7624   14.7339   93.8610 C   0  0  0  0  0  0  0  0  0  0  0  0
   95.0780   15.0973   95.0707 O   0  0  0  0  0  0  0  0  0  0  0  0
   97.2298   14.7873   93.9393 C   0  0  1  0  0  0  0  0  0  0  0  0
   97.6366   16.1312   94.7212 O   0  0  0  0  0  0  0  0  0  0  0  0
   97.6584   13.8418   94.6480 C   0  0  1  0  0  0  0  0  0  0  0  0
   97.8913   12.6410   93.8764 O   0  0  0  0  0  0  0  0  0  0  0  0
   98.9032   14.4125   95.3104 C   0  0  1  0  0  0  0  0  0  0  0  0
   99.8965   14.3011   94.5406 O   0  0  0  0  0  0  0  0  0  0  0  0
   98.5884   15.8971   95.4952 C   0  0  2  0  0  0  0  0  0  0  0  0
  100.8704   16.3491  100.0802 N   0  0  0  0  0  0  0  0  0  0  0  0
  101.3642   15.7283   98.9767 C   0  0  0  0  0  0  0  0  0  0  0  0
  100.6107   15.7329   97.8837 N   0  0  0  0  0  0  0  0  0  0  0  0
   99.3675   16.2555   97.8185 C   0  0  0  0  0  0  0  0  0  0  0  0
   98.8205   16.9085   98.9438 C   0  0  0  0  0  0  0  0  0  0  0  0
   99.6499   16.9170  100.1105 C   0  0  0  0  0  0  0  0  0  0  0  0
   99.1688   17.5349  101.3024 N   0  0  0  0  0  0  0  0  0  0  0  0
   97.6615   17.3416   98.5901 N   0  0  0  0  0  0  0  0  0  0  0  0
   97.4563   17.0269   97.3230 C   0  0  0  0  0  0  0  0  0  0  0  0
   98.4486   16.3628   96.8478 N   0  0  0  0  0  0  0  0  0  0  0  0
  1 24  1  0  0  0  0
  1  4  2  0  0  0  0
  2 13  1  0  0  0  0
  2 21  1  0  0  0  0
  3 16  1  0  0  0  0
  4 18  1  0  0  0  0
  5 19  2  0  0  0  0
  5 16  1  0  0  0  0
  6 16  2  0  0  0  0
  6 17  1  0  0  0  0
  7 17  1  0  0  0  0
 11 25  2  0  0  0  0
 12 26  2  0  0  0  0
 13 25  1  0  0  0  0
 14 23  1  0  0  0  0
 15 26  1  0  0  0  0
 17 18  2  0  0  0  0
 18 19  1  0  0  0  0
 19 24  1  0  0  0  0
 20 10  1  6  0  0  0
 20 22  1  0  0  0  0
 20 23  1  0  0  0  0
 21 14  1  1  0  0  0
 21 22  1  0  0  0  0
 22 15  1  6  0  0  0
 23 24  1  1  0  0  0
 25  8  1  6  0  0  0
 25 32  1  0  0  0  0
 26  9  1  6  0  0  0
 26 28  1  0  0  0  0
 27 28  1  0  0  0  0
 29 27  1  1  0  0  0
 29 30  1  0  0  0  0
 29 31  1  0  0  0  0
 30 35  1  0  0  0  0
 31 33  1  0  0  0  0
 31 32  1  6  0  0  0
 33 34  1  6  0  0  0
 33 35  1  0  0  0  0
 35 45  1  1  0  0  0
 36 41  2  0  0  0  0
 36 37  1  0  0  0  0
 37 38  2  0  0  0  0
 38 39  1  0  0  0  0
 39 40  2  0  0  0  0
 39 45  1  0  0  0  0
 40 41  1  0  0  0  0
 40 43  1  0  0  0  0
 41 42  1  0  0  0  0
 43 44  2  0  0  0  0
 44 45  1  0  0  0  0
M  CHG  4   8  -1   9  -1  11  -1  12  -1
M  END
>  <CHROM.1>
165.64904060,-177.56283076,96.62642857,13.02072487,96.70599682,-2.37095624
-0.66712809,-0.40775789

>  <Name>
ligand

>  <RI>
0

>  <Rbt.Current_Directory>
/home/itssahil/PROJECTS/Mol_Feturizer/New_Systems/rnas/4YAZ

>  <Rbt.Executable>
rbdock ($Id: //depot/dev/client3/rdock/2013.1/src/exe/rbdock.cxx#4 $)

>  <Rbt.Library>
libRbt.so (2013.1, Build901 2013/11/27)

>  <Rbt.Parameter_File>
/export/apps/rDock/src/rDock_2013.1_src/data/scripts/dock_solv.prm

>  <Rbt.Receptor>
prm/pocket_docking_3.prm

>  <SCORE>
-39.9485

>  <SCORE.INTER>
-40.4422

>  <SCORE.INTER.CONST>
1

>  <SCORE.INTER.POLAR>
0

>  <SCORE.INTER.ROT>
2

>  <SCORE.INTER.SOLV>
28.2373

>  <SCORE.INTER.VDW>
-41.3072

>  <SCORE.INTER.norm>
-0.898715

>  <SCORE.INTRA>
0.493661

>  <SCORE.INTRA.DIHEDRAL>
0.014047

>  <SCORE.INTRA.DIHEDRAL.0>
2.39103

>  <SCORE.INTRA.POLAR>
0

>  <SCORE.INTRA.POLAR.0>
0

>  <SCORE.INTRA.REPUL>
0

>  <SCORE.INTRA.REPUL.0>
0

>  <SCORE.INTRA.SOLV>
2.30307

>  <SCORE.INTRA.SOLV.lig_0>
-163.975

>  <SCORE.INTRA.VDW>
-0.664895

>  <SCORE.INTRA.VDW.0>
-1.49176

>  <SCORE.INTRA.norm>
0.0109702

>  <SCORE.RESTR>
0

>  <SCORE.RESTR.CAVITY>
0

>  <SCORE.RESTR.norm>
0

>  <SCORE.SYSTEM>
0

>  <SCORE.SYSTEM.CONST>
0

>  <SCORE.SYSTEM.DIHEDRAL>
0

>  <SCORE.SYSTEM.SOLV>
0

>  <SCORE.SYSTEM.norm>
0

>  <SCORE.heavy>
45

>  <SCORE.norm>
-0.887745

>  <RMSD>
6.840

$$$$
ligand
 OpenBabel11021811513D
libRbt.so/2013.1/901 2013/11/27
 45 51  0  0  0  0  0  0  0  0999 V2000
   94.1288   11.3141   99.3702 C   0  0  0  0  0  0  0  0  0  0  0  0
   95.4012   11.2696   94.2813 C   0  0  0  0  0  0  0  0  0  0  0  0
   97.7828    7.6732   96.9628 N   0  0  0  0  0  0  0  0  0  0  0  0
   95.1175   11.0643  100.1660 N   0  0  0  0  0  0  0  0  0  0  0  0
   95.9960    9.0855   97.4817 N   0  0  0  0  0  0  0  0  0  0  0  0
   97.7011    8.7589   99.0316 N   0  0  0  0  0  0  0  0  0  0  0  0
   97.6822    9.9067  101.1427 O   0  0  0  0  0  0  0  0  0  0  0  0
   98.2728   10.2734   93.6991 O   0  5  0  0  0  0  0  0  0  0  0  0
   92.8330   15.5768   94.3131 O   0  5  0  0  0  0  0  0  0  0  0  0
   91.7219   12.1945   96.5415 O   0  0  0  0  0  0  0  0  0  0  0  0
   98.8406   11.2603   95.6114 O   0  5  0  0  0  0  0  0  0  0  0  0
   93.0318   15.1308   96.4944 O   0  5  0  0  0  0  0  0  0  0  0  0
   96.4354   10.8227   95.0631 O   0  0  0  0  0  0  0  0  0  0  0  0
   93.9253   10.0798   95.9832 O   0  0  0  0  0  0  0  0  0  0  0  0
   93.2976   13.2903   94.7505 O   0  0  0  0  0  0  0  0  0  0  0  0
   97.1184    8.5447   97.8781 C   0  0  0  0  0  0  0  0  0  0  0  0
   97.1411    9.5933   99.8971 C   0  0  0  0  0  0  0  0  0  0  0  0
   95.9145   10.2020   99.5481 C   0  0  0  0  0  0  0  0  0  0  0  0
   95.3623    9.9395   98.3186 C   0  0  0  0  0  0  0  0  0  0  0  0
   93.0346   11.9351   96.8723 C   0  0  2  0  0  0  0  0  0  0  0  0
   94.1081   11.2419   94.9919 C   0  0  1  0  0  0  0  0  0  0  0  0
   93.9295   12.3258   95.5840 C   0  0  1  0  0  0  0  0  0  0  0  0
   93.3172   10.6918   97.2141 C   0  0  2  0  0  0  0  0  0  0  0  0
   94.2376   10.6548   98.2764 N   0  0  0  0  0  0  0  0  0  0  0  0
   97.8517   11.2739   94.5911 P   0  0  2  0  0  0  0  0  0  0  0  0
   93.5328   14.7473   95.1972 P   0  0  1  0  0  0  0  0  0  0  0  0
   95.7318   14.7274   93.7879 C   0  0  0  0  0  0  0  0  0  0  0  0
   95.0411   15.1025   94.9904 O   0  0  0  0  0  0  0  0  0  0  0  0
   97.1991   14.7597   93.8803 C   0  0  1  0  0  0  0  0  0  0  0  0
   97.6176   16.0988   94.6641 O   0  0  0  0  0  0  0  0  0  0  0  0
   97.6071   13.8092   94.5943 C   0  0  1  0  0  0  0  0  0  0  0  0
   97.8300   12.6040   93.8267 O   0  0  0  0  0  0  0  0  0  0  0  0
   98.8535   14.3630   95.2680 C   0  0  1  0  0  0  0  0  0  0  0  0
   99.8525   14.2361   94.5079 O   0  0  0  0  0  0  0  0  0  0  0  0
   98.5584   15.8522   95.4476 C   0  0  2  0  0  0  0  0  0  0  0  0
  100.7807   16.2287  100.0686 N   0  0  0  0  0  0  0  0  0  0  0  0
  101.2715   15.5924   98.9728 C   0  0  0  0  0  0  0  0  0  0  0  0
  100.5360   15.6217   97.8679 N   0  0  0  0  0  0  0  0  0  0  0  0
   99.3117   16.1846   97.7832 C   0  0  0  0  0  0  0  0  0  0  0  0
   98.7685   16.8550   98.9001 C   0  0  0  0  0  0  0  0  0  0  0  0
   99.5790   16.8362  100.0799 C   0  0  0  0  0  0  0  0  0  0  0  0
   99.0994   17.4693  101.2644 N   0  0  0  0  0  0  0  0  0  0  0  0
   97.6300   17.3257   98.5283 N   0  0  0  0  0  0  0  0  0  0  0  0
   97.4349   17.0181   97.2578 C   0  0  0  0  0  0  0  0  0  0  0  0
   98.4124   16.3221   96.7981 N   0  0  0  0  0  0  0  0  0  0  0  0
  1 24  1  0  0  0  0
  1  4  2  0  0  0  0
  2 13  1  0  0  0  0
  2 21  1  0  0  0  0
  3 16  1  0  0  0  0
  4 18  1  0  0  0  0
  5 19  2  0  0  0  0
  5 16  1  0  0  0  0
  6 16  2  0  0  0  0
  6 17  1  0  0  0  0
  7 17  1  0  0  0  0
 11 25  2  0  0  0  0
 12 26  2  0  0  0  0
 13 25  1  0  0  0  0
 14 23  1  0  0  0  0
 15 26  1  0  0  0  0
 17 18  2  0  0  0  0
 18 19  1  0  0  0  0
 19 24  1  0  0  0  0
 20 10  1  6  0  0  0
 20 22  1  0  0  0  0
 20 23  1  0  0  0  0
 21 14  1  1  0  0  0
 21 22  1  0  0  0  0
 22 15  1  6  0  0  0
 23 24  1  1  0  0  0
 25  8  1  6  0  0  0
 25 32  1  0  0  0  0
 26  9  1  6  0  0  0
 26 28  1  0  0  0  0
 27 28  1  0  0  0  0
 29 27  1  1  0  0  0
 29 30  1  0  0  0  0
 29 31  1  0  0  0  0
 30 35  1  0  0  0  0
 31 33  1  0  0  0  0
 31 32  1  6  0  0  0
 33 34  1  6  0  0  0
 33 35  1  0  0  0  0
 35 45  1  1  0  0  0
 36 41  2  0  0  0  0
 36 37  1  0  0  0  0
 37 38  2  0  0  0  0
 38 39  1  0  0  0  0
 39 40  2  0  0  0  0
 39 45  1  0  0  0  0
 40 41  1  0  0  0  0
 40 43  1  0  0  0  0
 41 42  1  0  0  0  0
 43 44  2  0  0  0  0
 44 45  1  0  0  0  0
M  CHG  4   8  -1   9  -1  11  -1  12  -1
M  END
>  <CHROM.1>
165.93450424,-178.67331548,96.54282486,13.00366376,96.64404330,-2.39499110
-0.67081368,-0.42292744

>  <Name>
ligand

>  <RI>
0

>  <Rbt.Current_Directory>
/home/itssahil/PROJECTS/Mol_Feturizer/New_Systems/rnas/4YAZ

>  <Rbt.Executable>
rbdock ($Id: //depot/dev/client3/rdock/2013.1/src/exe/rbdock.cxx#4 $)

>  <Rbt.Library>
libRbt.so (2013.1, Build901 2013/11/27)

>  <Rbt.Parameter_File>
/export/apps/rDock/src/rDock_2013.1_src/data/scripts/dock_solv.prm

>  <Rbt.Receptor>
prm/pocket_docking_5.prm

>  <SCORE>
-39.9182

>  <SCORE.INTER>
-40.4607

>  <SCORE.INTER.CONST>
1

>  <SCORE.INTER.POLAR>
0

>  <SCORE.INTER.ROT>
2

>  <SCORE.INTER.SOLV>
27.2419

>  <SCORE.INTER.VDW>
-40.9878

>  <SCORE.INTER.norm>
-0.899126

>  <SCORE.INTRA>
0.542436

>  <SCORE.INTRA.DIHEDRAL>
0.00603738

>  <SCORE.INTRA.DIHEDRAL.0>
2.39103

>  <SCORE.INTRA.POLAR>
0

>  <SCORE.INTRA.POLAR.0>
0

>  <SCORE.INTRA.REPUL>
0

>  <SCORE.INTRA.REPUL.0>
0

>  <SCORE.INTRA.SOLV>
2.43692

>  <SCORE.INTRA.SOLV.lig_0>
-163.975

>  <SCORE.INTRA.VDW>
-0.67904

>  <SCORE.INTRA.VDW.0>
-1.49176

>  <SCORE.INTRA.norm>
0.0120541

>  <SCORE.RESTR>
0

>  <SCORE.RESTR.CAVITY>
0

>  <SCORE.RESTR.norm>
0

>  <SCORE.SYSTEM>
0

>  <SCORE.SYSTEM.CONST>
0

>  <SCORE.SYSTEM.DIHEDRAL>
0

>  <SCORE.SYSTEM.SOLV>
0

>  <SCORE.SYSTEM.norm>
0

>  <SCORE.heavy>
45

>  <SCORE.norm>
-0.887072

>  <RMSD>
6.840

$$$$
ligand
 OpenBabel11021811513D
libRbt.so/2013.1/901 2013/11/27
 45 51  0  0  0  0  0  0  0  0999 V2000
   94.0901   11.3149   99.3155 C   0  0  0  0  0  0  0  0  0  0  0  0
   95.3598   11.2574   94.2291 C   0  0  0  0  0  0  0  0  0  0  0  0
   97.7195    7.6390   96.9243 N   0  0  0  0  0  0  0  0  0  0  0  0
   95.0772   11.0621  100.1125 N   0  0  0  0  0  0  0  0  0  0  0  0
   95.9422    9.0654   97.4371 N   0  0  0  0  0  0  0  0  0  0  0  0
   97.6453    8.7345   98.9882 N   0  0  0  0  0  0  0  0  0  0  0  0
   97.6343    9.8919  101.0941 O   0  0  0  0  0  0  0  0  0  0  0  0
   98.2287   10.2528   93.6480 O   0  5  0  0  0  0  0  0  0  0  0  0
   92.8031   15.5714   94.2562 O   0  5  0  0  0  0  0  0  0  0  0  0
   91.6829   12.1945   96.4881 O   0  0  0  0  0  0  0  0  0  0  0  0
   98.7991   11.2403   95.5593 O   0  5  0  0  0  0  0  0  0  0  0  0
   93.0006   15.1273   96.4379 O   0  5  0  0  0  0  0  0  0  0  0  0
   96.3927   10.8085   95.0113 O   0  0  0  0  0  0  0  0  0  0  0  0
   93.8806   10.0733   95.9322 O   0  0  0  0  0  0  0  0  0  0  0  0
   93.2616   13.2841   94.6960 O   0  0  0  0  0  0  0  0  0  0  0  0
   97.0610    8.5189   97.8357 C   0  0  0  0  0  0  0  0  0  0  0  0
   97.0910    9.5764   99.8500 C   0  0  0  0  0  0  0  0  0  0  0  0
   95.8684   10.1918   99.4983 C   0  0  0  0  0  0  0  0  0  0  0  0
   95.3143    9.9274   98.2701 C   0  0  0  0  0  0  0  0  0  0  0  0
   92.9949   11.9320   96.8193 C   0  0  2  0  0  0  0  0  0  0  0  0
   94.0666   11.2339   94.9397 C   0  0  1  0  0  0  0  0  0  0  0  0
   93.8908   12.3189   95.5306 C   0  0  1  0  0  0  0  0  0  0  0  0
   93.2742   10.6882   97.1624 C   0  0  2  0  0  0  0  0  0  0  0  0
   94.1944   10.6500   98.2247 N   0  0  0  0  0  0  0  0  0  0  0  0
   97.8102   11.2554   94.5389 P   0  0  2  0  0  0  0  0  0  0  0  0
   93.5007   14.7410   95.1411 P   0  0  1  0  0  0  0  0  0  0  0  0
   95.6997   14.7137   93.7319 C   0  0  0  0  0  0  0  0  0  0  0  0
   95.0099   15.0920   94.9340 O   0  0  0  0  0  0  0  0  0  0  0  0
   97.1670   14.7422   93.8244 C   0  0  1  0  0  0  0  0  0  0  0  0
   97.5891   16.0811   94.6068 O   0  0  0  0  0  0  0  0  0  0  0  0
   97.5725   13.7914   94.5395 C   0  0  1  0  0  0  0  0  0  0  0  0
   97.7922   12.5847   93.7732 O   0  0  0  0  0  0  0  0  0  0  0  0
   98.8203   14.3426   95.2125 C   0  0  1  0  0  0  0  0  0  0  0  0
   99.8190   14.2121   94.4526 O   0  0  0  0  0  0  0  0  0  0  0  0
   98.5292   15.8328   95.3906 C   0  0  2  0  0  0  0  0  0  0  0  0
  100.7136   16.1270  100.0355 N   0  0  0  0  0  0  0  0  0  0  0  0
  101.1949   15.4771   98.9434 C   0  0  0  0  0  0  0  0  0  0  0  0
  100.4725   15.5328   97.8309 N   0  0  0  0  0  0  0  0  0  0  0  0
   99.2683   16.1357   97.7347 C   0  0  0  0  0  0  0  0  0  0  0  0
   98.7355   16.8212   98.8474 C   0  0  0  0  0  0  0  0  0  0  0  0
   99.5325   16.7735  100.0356 C   0  0  0  0  0  0  0  0  0  0  0  0
   99.0614   17.4196  101.2165 N   0  0  0  0  0  0  0  0  0  0  0  0
   97.6171   17.3298   98.4648 N   0  0  0  0  0  0  0  0  0  0  0  0
   97.4253   17.0312   97.1916 C   0  0  0  0  0  0  0  0  0  0  0  0
   98.3844   16.3044   96.7406 N   0  0  0  0  0  0  0  0  0  0  0  0
  1 24  1  0  0  0  0
  1  4  2  0  0  0  0
  2 13  1  0  0  0  0
  2 21  1  0  0  0  0
  3 16  1  0  0  0  0
  4 18  1  0  0  0  0
  5 19  2  0  0  0  0
  5 16  1  0  0  0  0
  6 16  2  0  0  0  0
  6 17  1  0  0  0  0
  7 17  1  0  0  0  0
 11 25  2  0  0  0  0
 12 26  2  0  0  0  0
 13 25  1  0  0  0  0
 14 23  1  0  0  0  0
 15 26  1  0  0  0  0
 17 18  2  0  0  0  0
 18 19  1  0  0  0  0
 19 24  1  0  0  0  0
 20 10  1  6  0  0  0
 20 22  1  0  0  0  0
 20 23  1  0  0  0  0
 21 14  1  1  0  0  0
 21 22  1  0  0  0  0
 22 15  1  6  0  0  0
 23 24  1  1  0  0  0
 25  8  1  6  0  0  0
 25 32  1  0  0  0  0
 26  9  1  6  0  0  0
 26 28  1  0  0  0  0
 27 28  1  0  0  0  0
 29 27  1  1  0  0  0
 29 30  1  0  0  0  0
 29 31  1  0  0  0  0
 30 35  1  0  0  0  0
 31 33  1  0  0  0  0
 31 32  1  6  0  0  0
 33 34  1  6  0  0  0
 33 35  1  0  0  0  0
 35 45  1  1  0  0  0
 36 41  2  0  0  0  0
 36 37  1  0  0  0  0
 37 38  2  0  0  0  0
 38 39  1  0  0  0  0
 39 40  2  0  0  0  0
 39 45  1  0  0  0  0
 40 41  1  0  0  0  0
 40 43  1  0  0  0  0
 41 42  1  0  0  0  0
 43 44  2  0  0  0  0
 44 45  1  0  0  0  0
M  CHG  4   8  -1   9  -1  11  -1  12  -1
M  END
>  <CHROM.1>
165.63290871,179.49113875,96.50228520,12.98329030,96.59258041,-2.39600832
-0.67211979,-0.42811749

>  <Name>
ligand

>  <RI>
0

>  <Rbt.Current_Directory>
/home/itssahil/PROJECTS/Mol_Feturizer/New_Systems/rnas/4YAZ

>  <Rbt.Executable>
rbdock ($Id: //depot/dev/client3/rdock/2013.1/src/exe/rbdock.cxx#4 $)

>  <Rbt.Library>
libRbt.so (2013.1, Build901 2013/11/27)

>  <Rbt.Parameter_File>
/export/apps/rDock/src/rDock_2013.1_src/data/scripts/dock_solv.prm

>  <Rbt.Receptor>
prm/pocket_docking_7.prm

>  <SCORE>
-39.8437

>  <SCORE.INTER>
-40.3403

>  <SCORE.INTER.CONST>
1

>  <SCORE.INTER.POLAR>
0

>  <SCORE.INTER.ROT>
2

>  <SCORE.INTER.SOLV>
26.6618

>  <SCORE.INTER.VDW>
-40.7141

>  <SCORE.INTER.norm>
-0.896451

>  <SCORE.INTRA>
0.49663

>  <SCORE.INTRA.DIHEDRAL>
-0.00697719

>  <SCORE.INTRA.DIHEDRAL.0>
2.39103

>  <SCORE.INTRA.POLAR>
0

>  <SCORE.INTRA.POLAR.0>
0

>  <SCORE.INTRA.REPUL>
0

>  <SCORE.INTRA.REPUL.0>
0

>  <SCORE.INTRA.SOLV>
2.29923

>  <SCORE.INTRA.SOLV.lig_0>
-163.975

>  <SCORE.INTRA.VDW>
-0.649496

>  <SCORE.INTRA.VDW.0>
-1.49176

>  <SCORE.INTRA.norm>
0.0110362

>  <SCORE.RESTR>
0

>  <SCORE.RESTR.CAVITY>
0

>  <SCORE.RESTR.norm>
0

>  <SCORE.SYSTEM>
0

>  <SCORE.SYSTEM.CONST>
0

>  <SCORE.SYSTEM.DIHEDRAL>
0

>  <SCORE.SYSTEM.SOLV>
0

>  <SCORE.SYSTEM.norm>
0

>  <SCORE.heavy>
45

>  <SCORE.norm>
-0.885415

>  <RMSD>
6.840

$$$$
ligand
 OpenBabel11021811513D
libRbt.so/2013.1/901 2013/11/27
 45 51  0  0  0  0  0  0  0  0999 V2000
   94.1064   11.3100   99.3600 C   0  0  0  0  0  0  0  0  0  0  0  0
   95.4023   11.2653   94.2744 C   0  0  0  0  0  0  0  0  0  0  0  0
   97.7924    7.6955   96.9618 N   0  0  0  0  0  0  0  0  0  0  0  0
   95.0931   11.0648  100.1596 N   0  0  0  0  0  0  0  0  0  0  0  0
   95.9950    9.0961   97.4756 N   0  0  0  0  0  0  0  0  0  0  0  0
   97.6954    8.7771   99.0321 N   0  0  0  0  0  0  0  0  0  0  0  0
   97.6606    9.9210  101.1451 O   0  0  0  0  0  0  0  0  0  0  0  0
   98.2786   10.2750   93.7054 O   0  5  0  0  0  0  0  0  0  0  0  0
   92.8238   15.5663   94.2896 O   0  5  0  0  0  0  0  0  0  0  0  0
   91.7116   12.1845   96.5181 O   0  0  0  0  0  0  0  0  0  0  0  0
   98.8362   11.2660   95.6186 O   0  5  0  0  0  0  0  0  0  0  0  0
   93.0146   15.1239   96.4722 O   0  5  0  0  0  0  0  0  0  0  0  0
   96.4343   10.8219   95.0610 O   0  0  0  0  0  0  0  0  0  0  0  0
   93.9222   10.0743   95.9719 O   0  0  0  0  0  0  0  0  0  0  0  0
   93.2920   13.2815   94.7321 O   0  0  0  0  0  0  0  0  0  0  0  0
   97.1189    8.5613   97.8758 C   0  0  0  0  0  0  0  0  0  0  0  0
   97.1267    9.6065   99.8968 C   0  0  0  0  0  0  0  0  0  0  0  0
   95.8979   10.2084   99.5436 C   0  0  0  0  0  0  0  0  0  0  0  0
   95.3525    9.9447   98.3113 C   0  0  0  0  0  0  0  0  0  0  0  0
   93.0235   11.9288   96.8547 C   0  0  2  0  0  0  0  0  0  0  0  0
   94.1064   11.2355   94.9797 C   0  0  1  0  0  0  0  0  0  0  0  0
   93.9227   12.3198   95.5696 C   0  0  1  0  0  0  0  0  0  0  0  0
   93.3077   10.6866   97.1994 C   0  0  2  0  0  0  0  0  0  0  0  0
   94.2237   10.6534   98.2655 N   0  0  0  0  0  0  0  0  0  0  0  0
   97.8515   11.2758   94.5942 P   0  0  2  0  0  0  0  0  0  0  0  0
   93.5219   14.7398   95.1777 P   0  0  1  0  0  0  0  0  0  0  0  0
   95.7267   14.7231   93.7774 C   0  0  0  0  0  0  0  0  0  0  0  0
   95.0302   15.0983   94.9766 O   0  0  0  0  0  0  0  0  0  0  0  0
   97.1935   14.7590   93.8758 C   0  0  1  0  0  0  0  0  0  0  0  0
   97.6057   16.1003   94.6595 O   0  0  0  0  0  0  0  0  0  0  0  0
   97.6009   13.8106   94.5929 C   0  0  1  0  0  0  0  0  0  0  0  0
   97.8298   12.6048   93.8279 O   0  0  0  0  0  0  0  0  0  0  0  0
   98.8432   14.3683   95.2709 C   0  0  1  0  0  0  0  0  0  0  0  0
   99.8456   14.2426   94.5151 O   0  0  0  0  0  0  0  0  0  0  0  0
   98.5438   15.8570   95.4472 C   0  0  2  0  0  0  0  0  0  0  0  0
  100.7582   16.2726  100.0687 N   0  0  0  0  0  0  0  0  0  0  0  0
  101.2575   15.6395   98.9747 C   0  0  0  0  0  0  0  0  0  0  0  0
  100.5225   15.6571   97.8693 N   0  0  0  0  0  0  0  0  0  0  0  0
   99.2914   16.2046   97.7824 C   0  0  0  0  0  0  0  0  0  0  0  0
   98.7392   16.8710   98.8973 C   0  0  0  0  0  0  0  0  0  0  0  0
   99.5491   16.8652  100.0776 C   0  0  0  0  0  0  0  0  0  0  0  0
   99.0610   17.4952  101.2602 N   0  0  0  0  0  0  0  0  0  0  0  0
   97.5952   17.3267   98.5236 N   0  0  0  0  0  0  0  0  0  0  0  0
   97.4047   17.0134   97.2538 C   0  0  0  0  0  0  0  0  0  0  0  0
   98.3911   16.3284   96.7964 N   0  0  0  0  0  0  0  0  0  0  0  0
  1 24  1  0  0  0  0
  1  4  2  0  0  0  0
  2 13  1  0  0  0  0
  2 21  1  0  0  0  0
  3 16  1  0  0  0  0
  4 18  1  0  0  0  0
  5 19  2  0  0  0  0
  5 16  1  0  0  0  0
  6 16  2  0  0  0  0
  6 17  1  0  0  0  0
  7 17  1  0  0  0  0
 11 25  2  0  0  0  0
 12 26  2  0  0  0  0
 13 25  1  0  0  0  0
 14 23  1  0  0  0  0
 15 26  1  0  0  0  0
 17 18  2  0  0  0  0
 18 19  1  0  0  0  0
 19 24  1  0  0  0  0
 20 10  1  6  0  0  0
 20 22  1  0  0  0  0
 20 23  1  0  0  0  0
 21 14  1  1  0  0  0
 21 22  1  0  0  0  0
 22 15  1  6  0  0  0
 23 24  1  1  0  0  0
 25  8  1  6  0  0  0
 25 32  1  0  0  0  0
 26  9  1  6  0  0  0
 26 28  1  0  0  0  0
 27 28  1  0  0  0  0
 29 27  1  1  0  0  0
 29 30  1  0  0  0  0
 29 31  1  0  0  0  0
 30 35  1  0  0  0  0
 31 33  1  0  0  0  0
 31 32  1  6  0  0  0
 33 34  1  6  0  0  0
 33 35  1  0  0  0  0
 35 45  1  1  0  0  0
 36 41  2  0  0  0  0
 36 37  1  0  0  0  0
 37 38  2  0  0  0  0
 38 39  1  0  0  0  0
 39 40  2  0  0  0  0
 39 45  1  0  0  0  0
 40 41  1  0  0  0  0
 40 43  1  0  0  0  0
 41 42  1  0  0  0  0
 43 44  2  0  0  0  0
 44 45  1  0  0  0  0
M  CHG  4   8  -1   9  -1  11  -1  12  -1
M  END
>  <CHROM.1>
166.21157141,-178.06521570,96.53170173,13.00863647,96.63810498,-2.39614097
-0.67454176,-0.42283195

>  <Name>
ligand

>  <RI>
0

>  <Rbt.Current_Directory>
/home/itssahil/PROJECTS/Mol_Feturizer/New_Systems/rnas/4YAZ

>  <Rbt.Executable>
rbdock ($Id: //depot/dev/client3/rdock/2013.1/src/exe/rbdock.cxx#4 $)

>  <Rbt.Library>
libRbt.so (2013.1, Build901 2013/11/27)

>  <Rbt.Parameter_File>
/export/apps/rDock/src/rDock_2013.1_src/data/scripts/dock_solv.prm

>  <Rbt.Receptor>
prm/pocket_docking_3.prm

>  <SCORE>
-39.9335

>  <SCORE.INTER>
-40.5199

>  <SCORE.INTER.CONST>
1

>  <SCORE.INTER.POLAR>
0

>  <SCORE.INTER.ROT>
2

>  <SCORE.INTER.SOLV>
27.0521

>  <SCORE.INTER.VDW>
-40.964

>  <SCORE.INTER.norm>
-0.900443

>  <SCORE.INTRA>
0.586421

>  <SCORE.INTRA.DIHEDRAL>
0.0103302

>  <SCORE.INTRA.DIHEDRAL.0>
2.39103

>  <SCORE.INTRA.POLAR>
0

>  <SCORE.INTRA.POLAR.0>
0

>  <SCORE.INTRA.REPUL>
0

>  <SCORE.INTRA.REPUL.0>
0

>  <SCORE.INTRA.SOLV>
2.56435

>  <SCORE.INTRA.SOLV.lig_0>
-163.975

>  <SCORE.INTRA.VDW>
-0.700921

>  <SCORE.INTRA.VDW.0>
-1.49176

>  <SCORE.INTRA.norm>
0.0130316

>  <SCORE.RESTR>
0

>  <SCORE.RESTR.CAVITY>
0

>  <SCORE.RESTR.norm>
0

>  <SCORE.SYSTEM>
0

>  <SCORE.SYSTEM.CONST>
0

>  <SCORE.SYSTEM.DIHEDRAL>
0

>  <SCORE.SYSTEM.SOLV>
0

>  <SCORE.SYSTEM.norm>
0

>  <SCORE.heavy>
45

>  <SCORE.norm>
-0.887411

>  <RMSD>
6.841

$$$$
ligand
 OpenBabel11021811513D
libRbt.so/2013.1/901 2013/11/27
 45 51  0  0  0  0  0  0  0  0999 V2000
   94.2410   11.2779   99.4130 C   0  0  0  0  0  0  0  0  0  0  0  0
   95.5091   11.2805   94.3300 C   0  0  0  0  0  0  0  0  0  0  0  0
   97.9055    7.6466   97.0070 N   0  0  0  0  0  0  0  0  0  0  0  0
   95.2302   11.0310  100.2090 N   0  0  0  0  0  0  0  0  0  0  0  0
   96.1147    9.0540   97.5254 N   0  0  0  0  0  0  0  0  0  0  0  0
   97.8205    8.7327   99.0755 N   0  0  0  0  0  0  0  0  0  0  0  0
   97.7981    9.8810  101.1863 O   0  0  0  0  0  0  0  0  0  0  0  0
   98.3932   10.3251   93.7411 O   0  5  0  0  0  0  0  0  0  0  0  0
   92.8870   15.5546   94.3957 O   0  5  0  0  0  0  0  0  0  0  0  0
   91.8176   12.1406   96.5958 O   0  0  0  0  0  0  0  0  0  0  0  0
   98.9478   11.3035   95.6617 O   0  5  0  0  0  0  0  0  0  0  0  0
   93.0905   15.0935   96.5733 O   0  5  0  0  0  0  0  0  0  0  0  0
   96.5485   10.8402   95.1086 O   0  0  0  0  0  0  0  0  0  0  0  0
   94.0476   10.0584   96.0215 O   0  0  0  0  0  0  0  0  0  0  0  0
   93.3801   13.2706   94.8147 O   0  0  0  0  0  0  0  0  0  0  0  0
   97.2386    8.5165   97.9220 C   0  0  0  0  0  0  0  0  0  0  0  0
   97.2581    9.5657   99.9408 C   0  0  0  0  0  0  0  0  0  0  0  0
   96.0298   10.1709   99.5914 C   0  0  0  0  0  0  0  0  0  0  0  0
   95.4784    9.9064   98.3619 C   0  0  0  0  0  0  0  0  0  0  0  0
   93.1333   11.8951   96.9252 C   0  0  2  0  0  0  0  0  0  0  0  0
   94.2162   11.2308   95.0398 C   0  0  1  0  0  0  0  0  0  0  0  0
   94.0237   12.3074   95.6406 C   0  0  1  0  0  0  0  0  0  0  0  0
   93.4314   10.6526   97.2570 C   0  0  2  0  0  0  0  0  0  0  0  0
   94.3517   10.6186   98.3194 N   0  0  0  0  0  0  0  0  0  0  0  0
   97.9592   11.3130   94.6410 P   0  0  2  0  0  0  0  0  0  0  0  0
   93.5968   14.7268   95.2733 P   0  0  1  0  0  0  0  0  0  0  0  0
   95.7965   14.7460   93.8649 C   0  0  0  0  0  0  0  0  0  0  0  0
   95.1006   15.1026   95.0701 O   0  0  0  0  0  0  0  0  0  0  0  0
   97.2631   14.7960   93.9583 C   0  0  1  0  0  0  0  0  0  0  0  0
   97.6645   16.1338   94.7532 O   0  0  0  0  0  0  0  0  0  0  0  0
   97.6828   13.8449   94.6648 C   0  0  1  0  0  0  0  0  0  0  0  0
   97.9212   12.6489   93.8875 O   0  0  0  0  0  0  0  0  0  0  0  0
   98.9219   14.4088   95.3435 C   0  0  1  0  0  0  0  0  0  0  0  0
   99.9227   14.3006   94.5830 O   0  0  0  0  0  0  0  0  0  0  0  0
   98.6081   15.8927   95.5351 C   0  0  2  0  0  0  0  0  0  0  0  0
  100.8544   16.3329  100.1389 N   0  0  0  0  0  0  0  0  0  0  0  0
  101.3601   15.7218   99.0354 C   0  0  0  0  0  0  0  0  0  0  0  0
  100.6144   15.7279   97.9371 N   0  0  0  0  0  0  0  0  0  0  0  0
   99.3683   16.2427   97.8659 C   0  0  0  0  0  0  0  0  0  0  0  0
   98.8090   16.8855   98.9910 C   0  0  0  0  0  0  0  0  0  0  0  0
   99.6300   16.8927  100.1637 C   0  0  0  0  0  0  0  0  0  0  0  0
   99.1364   17.5005  101.3557 N   0  0  0  0  0  0  0  0  0  0  0  0
   97.6497   17.3131   98.6316 N   0  0  0  0  0  0  0  0  0  0  0  0
   97.4556   17.0044   97.3612 C   0  0  0  0  0  0  0  0  0  0  0  0
   98.4556   16.3496   96.8894 N   0  0  0  0  0  0  0  0  0  0  0  0
  1 24  1  0  0  0  0
  1  4  2  0  0  0  0
  2 13  1  0  0  0  0
  2 21  1  0  0  0  0
  3 16  1  0  0  0  0
  4 18  1  0  0  0  0
  5 19  2  0  0  0  0
  5 16  1  0  0  0  0
  6 16  2  0  0  0  0
  6 17  1  0  0  0  0
  7 17  1  0  0  0  0
 11 25  2  0  0  0  0
 12 26  2  0  0  0  0
 13 25  1  0  0  0  0
 14 23  1  0  0  0  0
 15 26  1  0  0  0  0
 17 18  2  0  0  0  0
 18 19  1  0  0  0  0
 19 24  1  0  0  0  0
 20 10  1  6  0  0  0
 20 22  1  0  0  0  0
 20 23  1  0  0  0  0
 21 14  1  1  0  0  0
 21 22  1  0  0  0  0
 22 15  1  6  0  0  0
 23 24  1  1  0  0  0
 25  8  1  6  0  0  0
 25 32  1  0  0  0  0
 26  9  1  6  0  0  0
 26 28  1  0  0  0  0
 27 28  1  0  0  0  0
 29 27  1  1  0  0  0
 29 30  1  0  0  0  0
 29 31  1  0  0  0  0
 30 35  1  0  0  0  0
 31 33  1  0  0  0  0
 31 32  1  6  0  0  0
 33 34  1  6  0  0  0
 33 35  1  0  0  0  0
 35 45  1  1  0  0  0
 36 41  2  0  0  0  0
 36 37  1  0  0  0  0
 37 38  2  0  0  0  0
 38 39  1  0  0  0  0
 39 40  2  0  0  0  0
 39 45  1  0  0  0  0
 40 41  1  0  0  0  0
 40 43  1  0  0  0  0
 41 42  1  0  0  0  0
 43 44  2  0  0  0  0
 44 45  1  0  0  0  0
M  CHG  4   8  -1   9  -1  11  -1  12  -1
M  END
>  <CHROM.1>
165.19693621,-177.04784531,96.62816565,13.01205199,96.70732045,-2.37505760
-0.67575636,-0.40632747

>  <Name>
ligand

>  <RI>
0

>  <Rbt.Current_Directory>
/home/itssahil/PROJECTS/Mol_Feturizer/New_Systems/rnas/4YAZ

>  <Rbt.Executable>
rbdock ($Id: //depot/dev/client3/rdock/2013.1/src/exe/rbdock.cxx#4 $)

>  <Rbt.Library>
libRbt.so (2013.1, Build901 2013/11/27)

>  <Rbt.Parameter_File>
/export/apps/rDock/src/rDock_2013.1_src/data/scripts/dock_solv.prm

>  <Rbt.Receptor>
prm/pocket_docking_4.prm

>  <SCORE>
-39.9342

>  <SCORE.INTER>
-40.3517

>  <SCORE.INTER.CONST>
1

>  <SCORE.INTER.POLAR>
0

>  <SCORE.INTER.ROT>
2

>  <SCORE.INTER.SOLV>
28.24

>  <SCORE.INTER.VDW>
-41.2478

>  <SCORE.INTER.norm>
-0.896705

>  <SCORE.INTRA>
0.417483

>  <SCORE.INTRA.DIHEDRAL>
0.0178273

>  <SCORE.INTRA.DIHEDRAL.0>
2.39103

>  <SCORE.INTRA.POLAR>
0

>  <SCORE.INTRA.POLAR.0>
0

>  <SCORE.INTRA.REPUL>
0

>  <SCORE.INTRA.REPUL.0>
0

>  <SCORE.INTRA.SOLV>
2.09195

>  <SCORE.INTRA.SOLV.lig_0>
-163.975

>  <SCORE.INTRA.VDW>
-0.637405

>  <SCORE.INTRA.VDW.0>
-1.49176

>  <SCORE.INTRA.norm>
0.0092774

>  <SCORE.RESTR>
0

>  <SCORE.RESTR.CAVITY>
0

>  <SCORE.RESTR.norm>
0

>  <SCORE.SYSTEM>
0

>  <SCORE.SYSTEM.CONST>
0

>  <SCORE.SYSTEM.DIHEDRAL>
0

>  <SCORE.SYSTEM.SOLV>
0

>  <SCORE.SYSTEM.norm>
0

>  <SCORE.heavy>
45

>  <SCORE.norm>
-0.887427

>  <RMSD>
6.841

$$$$
ligand
 OpenBabel11021811513D
libRbt.so/2013.1/901 2013/11/27
 45 51  0  0  0  0  0  0  0  0999 V2000
   94.2524   11.2805   99.4244 C   0  0  0  0  0  0  0  0  0  0  0  0
   95.4917   11.2801   94.3357 C   0  0  0  0  0  0  0  0  0  0  0  0
   97.8981    7.6390   97.0054 N   0  0  0  0  0  0  0  0  0  0  0  0
   95.2456   11.0337  100.2155 N   0  0  0  0  0  0  0  0  0  0  0  0
   96.1123    9.0501   97.5309 N   0  0  0  0  0  0  0  0  0  0  0  0
   97.8261    8.7292   99.0723 N   0  0  0  0  0  0  0  0  0  0  0  0
   97.8170    9.8815  101.1809 O   0  0  0  0  0  0  0  0  0  0  0  0
   98.3729   10.3254   93.7315 O   0  5  0  0  0  0  0  0  0  0  0  0
   92.8686   15.5534   94.4143 O   0  5  0  0  0  0  0  0  0  0  0  0
   91.8122   12.1396   96.6212 O   0  0  0  0  0  0  0  0  0  0  0  0
   98.9376   11.3046   95.6488 O   0  5  0  0  0  0  0  0  0  0  0  0
   93.0841   15.0929   96.5910 O   0  5  0  0  0  0  0  0  0  0  0  0
   96.5354   10.8403   95.1088 O   0  0  0  0  0  0  0  0  0  0  0  0
   94.0397   10.0580   96.0354 O   0  0  0  0  0  0  0  0  0  0  0  0
   93.3647   13.2697   94.8313 O   0  0  0  0  0  0  0  0  0  0  0  0
   97.2375    8.5116   97.9224 C   0  0  0  0  0  0  0  0  0  0  0  0
   97.2697    9.5646   99.9390 C   0  0  0  0  0  0  0  0  0  0  0  0
   96.0404   10.1711   99.5952 C   0  0  0  0  0  0  0  0  0  0  0  0
   95.4819    9.9051   98.3693 C   0  0  0  0  0  0  0  0  0  0  0  0
   93.1298   11.8946   96.9436 C   0  0  2  0  0  0  0  0  0  0  0  0
   94.2027   11.2301   95.0525 C   0  0  1  0  0  0  0  0  0  0  0  0
   94.0131   12.3069   95.6540 C   0  0  1  0  0  0  0  0  0  0  0  0
   93.4301   10.6524   97.2741 C   0  0  2  0  0  0  0  0  0  0  0  0
   94.3561   10.6189   98.3315 N   0  0  0  0  0  0  0  0  0  0  0  0
   97.9434   11.3134   94.6335 P   0  0  2  0  0  0  0  0  0  0  0  0
   93.5835   14.7261   95.2883 P   0  0  1  0  0  0  0  0  0  0  0  0
   95.7754   14.7456   93.8681 C   0  0  0  0  0  0  0  0  0  0  0  0
   95.0860   15.1023   95.0770 O   0  0  0  0  0  0  0  0  0  0  0  0
   97.2426   14.7960   93.9535 C   0  0  1  0  0  0  0  0  0  0  0  0
   97.6478   16.1343   94.7459 O   0  0  0  0  0  0  0  0  0  0  0  0
   97.6664   13.8453   94.6580 C   0  0  1  0  0  0  0  0  0  0  0  0
   97.9009   12.6491   93.8798 O   0  0  0  0  0  0  0  0  0  0  0  0
   98.9089   14.4098   95.3299 C   0  0  1  0  0  0  0  0  0  0  0  0
   99.9056   14.3017   94.5639 O   0  0  0  0  0  0  0  0  0  0  0  0
   98.5957   15.8936   95.5228 C   0  0  2  0  0  0  0  0  0  0  0  0
  100.8538   16.3041  100.1235 N   0  0  0  0  0  0  0  0  0  0  0  0
  101.3509   15.6885   99.0186 C   0  0  0  0  0  0  0  0  0  0  0  0
  100.6037   15.7040   97.9215 N   0  0  0  0  0  0  0  0  0  0  0  0
   99.3633   16.2328   97.8527 C   0  0  0  0  0  0  0  0  0  0  0  0
   98.8129   16.8808   98.9793 C   0  0  0  0  0  0  0  0  0  0  0  0
   99.6357   16.8775  100.1507 C   0  0  0  0  0  0  0  0  0  0  0  0
   99.1508   17.4896  101.3441 N   0  0  0  0  0  0  0  0  0  0  0  0
   97.6580   17.3216   98.6221 N   0  0  0  0  0  0  0  0  0  0  0  0
   97.4585   17.0164   97.3517 C   0  0  0  0  0  0  0  0  0  0  0  0
   98.4504   16.3509   96.8777 N   0  0  0  0  0  0  0  0  0  0  0  0
  1 24  1  0  0  0  0
  1  4  2  0  0  0  0
  2 13  1  0  0  0  0
  2 21  1  0  0  0  0
  3 16  1  0  0  0  0
  4 18  1  0  0  0  0
  5 19  2  0  0  0  0
  5 16  1  0  0  0  0
  6 16  2  0  0  0  0
  6 17  1  0  0  0  0
  7 17  1  0  0  0  0
 11 25  2  0  0  0  0
 12 26  2  0  0  0  0
 13 25  1  0  0  0  0
 14 23  1  0  0  0  0
 15 26  1  0  0  0  0
 17 18  2  0  0  0  0
 18 19  1  0  0  0  0
 19 24  1  0  0  0  0
 20 10  1  6  0  0  0
 20 22  1  0  0  0  0
 20 23  1  0  0  0  0
 21 14  1  1  0  0  0
 21 22  1  0  0  0  0
 22 15  1  6  0  0  0
 23 24  1  1  0  0  0
 25  8  1  6  0  0  0
 25 32  1  0  0  0  0
 26  9  1  6  0  0  0
 26 28  1  0  0  0  0
 27 28  1  0  0  0  0
 29 27  1  1  0  0  0
 29 30  1  0  0  0  0
 29 31  1  0  0  0  0
 30 35  1  0  0  0  0
 31 33  1  0  0  0  0
 31 32  1  6  0  0  0
 33 34  1  6  0  0  0
 33 35  1  0  0  0  0
 35 45  1  1  0  0  0
 36 41  2  0  0  0  0
 36 37  1  0  0  0  0
 37 38  2  0  0  0  0
 38 39  1  0  0  0  0
 39 40  2  0  0  0  0
 39 45  1  0  0  0  0
 40 41  1  0  0  0  0
 40 43  1  0  0  0  0
 41 42  1  0  0  0  0
 43 44  2  0  0  0  0
 44 45  1  0  0  0  0
M  CHG  4   8  -1   9  -1  11  -1  12  -1
M  END
>  <CHROM.1>
165.05500561,-177.74830575,96.62172674,13.00961661,96.70750727,-2.37119860
-0.67179664,-0.40554574

>  <Name>
ligand

>  <RI>
0

>  <Rbt.Current_Directory>
/home/itssahil/PROJECTS/Mol_Feturizer/New_Systems/rnas/4YAZ

>  <Rbt.Executable>
rbdock ($Id: //depot/dev/client3/rdock/2013.1/src/exe/rbdock.cxx#4 $)

>  <Rbt.Library>
libRbt.so (2013.1, Build901 2013/11/27)

>  <Rbt.Parameter_File>
/export/apps/rDock/src/rDock_2013.1_src/data/scripts/dock_solv.prm

>  <Rbt.Receptor>
prm/pocket_docking_6.prm

>  <SCORE>
-39.9877

>  <SCORE.INTER>
-40.4017

>  <SCORE.INTER.CONST>
1

>  <SCORE.INTER.POLAR>
0

>  <SCORE.INTER.ROT>
2

>  <SCORE.INTER.SOLV>
28.2421

>  <SCORE.INTER.VDW>
-41.2818

>  <SCORE.INTER.norm>
-0.897814

>  <SCORE.INTRA>
0.413974

>  <SCORE.INTRA.DIHEDRAL>
0.0128416

>  <SCORE.INTRA.DIHEDRAL.0>
2.39103

>  <SCORE.INTRA.POLAR>
0

>  <SCORE.INTRA.POLAR.0>
0

>  <SCORE.INTRA.REPUL>
0

>  <SCORE.INTRA.REPUL.0>
0

>  <SCORE.INTRA.SOLV>
2.02662

>  <SCORE.INTRA.SOLV.lig_0>
-163.975

>  <SCORE.INTRA.VDW>
-0.605756

>  <SCORE.INTRA.VDW.0>
-1.49176

>  <SCORE.INTRA.norm>
0.00919941

>  <SCORE.RESTR>
0

>  <SCORE.RESTR.CAVITY>
0

>  <SCORE.RESTR.norm>
0

>  <SCORE.SYSTEM>
0

>  <SCORE.SYSTEM.CONST>
0

>  <SCORE.SYSTEM.DIHEDRAL>
0

>  <SCORE.SYSTEM.SOLV>
0

>  <SCORE.SYSTEM.norm>
0

>  <SCORE.heavy>
45

>  <SCORE.norm>
-0.888615

>  <RMSD>
6.841

$$$$
ligand
 OpenBabel11021811513D
libRbt.so/2013.1/901 2013/11/27
 45 51  0  0  0  0  0  0  0  0999 V2000
   94.1464   11.3017   99.3942 C   0  0  0  0  0  0  0  0  0  0  0  0
   95.4150   11.2152   94.3046 C   0  0  0  0  0  0  0  0  0  0  0  0
   97.7974    7.6410   97.0124 N   0  0  0  0  0  0  0  0  0  0  0  0
   95.1356   11.0578  100.1912 N   0  0  0  0  0  0  0  0  0  0  0  0
   96.0115    9.0578   97.5218 N   0  0  0  0  0  0  0  0  0  0  0  0
   97.7176    8.7429   99.0728 N   0  0  0  0  0  0  0  0  0  0  0  0
   97.7007    9.9071  101.1749 O   0  0  0  0  0  0  0  0  0  0  0  0
   98.2854   10.2121   93.7283 O   0  5  0  0  0  0  0  0  0  0  0  0
   92.8499   15.5242   94.3033 O   0  5  0  0  0  0  0  0  0  0  0  0
   91.7382   12.1610   96.5600 O   0  0  0  0  0  0  0  0  0  0  0  0
   98.8554   11.2142   95.6320 O   0  5  0  0  0  0  0  0  0  0  0  0
   93.0501   15.0960   96.4879 O   0  5  0  0  0  0  0  0  0  0  0  0
   96.4495   10.7739   95.0892 O   0  0  0  0  0  0  0  0  0  0  0  0
   93.9396   10.0403   96.0174 O   0  0  0  0  0  0  0  0  0  0  0  0
   93.3132   13.2410   94.7590 O   0  0  0  0  0  0  0  0  0  0  0  0
   97.1340    8.5198   97.9215 C   0  0  0  0  0  0  0  0  0  0  0  0
   97.1586    9.5841   99.9323 C   0  0  0  0  0  0  0  0  0  0  0  0
   95.9319   10.1905   99.5794 C   0  0  0  0  0  0  0  0  0  0  0  0
   95.3786    9.9185   98.3524 C   0  0  0  0  0  0  0  0  0  0  0  0
   93.0509   11.9035   96.8920 C   0  0  2  0  0  0  0  0  0  0  0  0
   94.1225   11.1942   95.0165 C   0  0  1  0  0  0  0  0  0  0  0  0
   93.9451   12.2830   95.5998 C   0  0  1  0  0  0  0  0  0  0  0  0
   93.3330   10.6628   97.2437 C   0  0  2  0  0  0  0  0  0  0  0  0
   94.2541   10.6339   98.3055 N   0  0  0  0  0  0  0  0  0  0  0  0
   97.8657   11.2202   94.6124 P   0  0  2  0  0  0  0  0  0  0  0  0
   93.5498   14.7015   95.1935 P   0  0  1  0  0  0  0  0  0  0  0  0
   95.7477   14.6685   93.7827 C   0  0  0  0  0  0  0  0  0  0  0  0
   95.0582   15.0540   94.9827 O   0  0  0  0  0  0  0  0  0  0  0  0
   97.2150   14.7005   93.8737 C   0  0  1  0  0  0  0  0  0  0  0  0
   97.6352   16.0457   94.6462 O   0  0  0  0  0  0  0  0  0  0  0  0
   97.6230   13.7556   94.5952 C   0  0  1  0  0  0  0  0  0  0  0  0
   97.8444   12.5440   93.8373 O   0  0  0  0  0  0  0  0  0  0  0  0
   98.8703   14.3140   95.2633 C   0  0  1  0  0  0  0  0  0  0  0  0
   99.8686   14.1801   94.5035 O   0  0  0  0  0  0  0  0  0  0  0  0
   98.5764   15.8049   95.4309 C   0  0  2  0  0  0  0  0  0  0  0  0
  100.8084   16.2304  100.0430 N   0  0  0  0  0  0  0  0  0  0  0  0
  101.2991   15.5865   98.9515 C   0  0  0  0  0  0  0  0  0  0  0  0
  100.5608   15.6033   97.8482 N   0  0  0  0  0  0  0  0  0  0  0  0
   99.3341   16.1606   97.7617 C   0  0  0  0  0  0  0  0  0  0  0  0
   98.7908   16.8384   98.8741 C   0  0  0  0  0  0  0  0  0  0  0  0
   99.6043   16.8331  100.0520 C   0  0  0  0  0  0  0  0  0  0  0  0
   99.1251   17.4745  101.2322 N   0  0  0  0  0  0  0  0  0  0  0  0
   97.6496   17.3013   98.5011 N   0  0  0  0  0  0  0  0  0  0  0  0
   97.4526   16.9818   97.2338 C   0  0  0  0  0  0  0  0  0  0  0  0
   98.4318   16.2858   96.7777 N   0  0  0  0  0  0  0  0  0  0  0  0
  1 24  1  0  0  0  0
  1  4  2  0  0  0  0
  2 13  1  0  0  0  0
  2 21  1  0  0  0  0
  3 16  1  0  0  0  0
  4 18  1  0  0  0  0
  5 19  2  0  0  0  0
  5 16  1  0  0  0  0
  6 16  2  0  0  0  0
  6 17  1  0  0  0  0
  7 17  1  0  0  0  0
 11 25  2  0  0  0  0
 12 26  2  0  0  0  0
 13 25  1  0  0  0  0
 14 23  1  0  0  0  0
 15 26  1  0  0  0  0
 17 18  2  0  0  0  0
 18 19  1  0  0  0  0
 19 24  1  0  0  0  0
 20 10  1  6  0  0  0
 20 22  1  0  0  0  0
 20 23  1  0  0  0  0
 21 14  1  1  0  0  0
 21 22  1  0  0  0  0
 22 15  1  6  0  0  0
 23 24  1  1  0  0  0
 25  8  1  6  0  0  0
 25 32  1  0  0  0  0
 26  9  1  6  0  0  0
 26 28  1  0  0  0  0
 27 28  1  0  0  0  0
 29 27  1  1  0  0  0
 29 30  1  0  0  0  0
 29 31  1  0  0  0  0
 30 35  1  0  0  0  0
 31 33  1  0  0  0  0
 31 32  1  6  0  0  0
 33 34  1  6  0  0  0
 33 35  1  0  0  0  0
 35 45  1  1  0  0  0
 36 41  2  0  0  0  0
 36 37  1  0  0  0  0
 37 38  2  0  0  0  0
 38 39  1  0  0  0  0
 39 40  2  0  0  0  0
 39 45  1  0  0  0  0
 40 41  1  0  0  0  0
 40 43  1  0  0  0  0
 41 42  1  0  0  0  0
 43 44  2  0  0  0  0
 44 45  1  0  0  0  0
M  CHG  4   8  -1   9  -1  11  -1  12  -1
M  END
>  <CHROM.1>
165.96672559,-178.38335620,96.56023978,12.96874407,96.65183318,-2.39556499
-0.66946197,-0.43105187

>  <Name>
ligand

>  <RI>
0

>  <Rbt.Current_Directory>
/home/itssahil/PROJECTS/Mol_Feturizer/New_Systems/rnas/4YAZ

>  <Rbt.Executable>
rbdock ($Id: //depot/dev/client3/rdock/2013.1/src/exe/rbdock.cxx#4 $)

>  <Rbt.Library>
libRbt.so (2013.1, Build901 2013/11/27)

>  <Rbt.Parameter_File>
/export/apps/rDock/src/rDock_2013.1_src/data/scripts/dock_solv.prm

>  <Rbt.Receptor>
prm/pocket_docking_3.prm

>  <SCORE>
-39.9836

>  <SCORE.INTER>
-40.5308

>  <SCORE.INTER.CONST>
1

>  <SCORE.INTER.POLAR>
0

>  <SCORE.INTER.ROT>
2

>  <SCORE.INTER.SOLV>
27.3647

>  <SCORE.INTER.VDW>
-41.0754

>  <SCORE.INTER.norm>
-0.900684

>  <SCORE.INTRA>
0.54715

>  <SCORE.INTRA.DIHEDRAL>
0.00810514

>  <SCORE.INTRA.DIHEDRAL.0>
2.39103

>  <SCORE.INTRA.POLAR>
0

>  <SCORE.INTRA.POLAR.0>
0

>  <SCORE.INTRA.REPUL>
0

>  <SCORE.INTRA.REPUL.0>
0

>  <SCORE.INTRA.SOLV>
2.45148

>  <SCORE.INTRA.SOLV.lig_0>
-163.975

>  <SCORE.INTRA.VDW>
-0.682641

>  <SCORE.INTRA.VDW.0>
-1.49176

>  <SCORE.INTRA.norm>
0.0121589

>  <SCORE.RESTR>
0

>  <SCORE.RESTR.CAVITY>
0

>  <SCORE.RESTR.norm>
0

>  <SCORE.SYSTEM>
0

>  <SCORE.SYSTEM.CONST>
0

>  <SCORE.SYSTEM.DIHEDRAL>
0

>  <SCORE.SYSTEM.SOLV>
0

>  <SCORE.SYSTEM.norm>
0

>  <SCORE.heavy>
45

>  <SCORE.norm>
-0.888525

>  <RMSD>
6.842

$$$$
ligand
 OpenBabel11021811513D
libRbt.so/2013.1/901 2013/11/27
 45 51  0  0  0  0  0  0  0  0999 V2000
   94.1528   11.3334   99.3540 C   0  0  0  0  0  0  0  0  0  0  0  0
   95.4387   11.2683   94.2749 C   0  0  0  0  0  0  0  0  0  0  0  0
   97.7845    7.6392   96.9946 N   0  0  0  0  0  0  0  0  0  0  0  0
   95.1365   11.0829  100.1558 N   0  0  0  0  0  0  0  0  0  0  0  0
   96.0078    9.0713   97.4937 N   0  0  0  0  0  0  0  0  0  0  0  0
   97.7047    8.7453   99.0526 N   0  0  0  0  0  0  0  0  0  0  0  0
   97.6880    9.9134  101.1526 O   0  0  0  0  0  0  0  0  0  0  0  0
   98.3125   10.2707   93.7060 O   0  5  0  0  0  0  0  0  0  0  0  0
   92.8703   15.5754   94.2869 O   0  5  0  0  0  0  0  0  0  0  0  0
   91.7508   12.1983   96.5189 O   0  0  0  0  0  0  0  0  0  0  0  0
   98.8730   11.2621   95.6181 O   0  5  0  0  0  0  0  0  0  0  0  0
   93.0608   15.1346   96.4699 O   0  5  0  0  0  0  0  0  0  0  0  0
   96.4699   10.8232   95.0617 O   0  0  0  0  0  0  0  0  0  0  0  0
   93.9563   10.0824   95.9740 O   0  0  0  0  0  0  0  0  0  0  0  0
   93.3333   13.2899   94.7314 O   0  0  0  0  0  0  0  0  0  0  0  0
   97.1242    8.5249   97.8992 C   0  0  0  0  0  0  0  0  0  0  0  0
   97.1487    9.5926   99.9082 C   0  0  0  0  0  0  0  0  0  0  0  0
   95.9284   10.2082   99.5489 C   0  0  0  0  0  0  0  0  0  0  0  0
   95.3783    9.9385   98.3201 C   0  0  0  0  0  0  0  0  0  0  0  0
   93.0622   11.9398   96.8554 C   0  0  2  0  0  0  0  0  0  0  0  0
   94.1429   11.2422   94.9807 C   0  0  1  0  0  0  0  0  0  0  0  0
   93.9620   12.3274   95.5696 C   0  0  1  0  0  0  0  0  0  0  0  0
   93.3436   10.6972   97.2011 C   0  0  2  0  0  0  0  0  0  0  0  0
   94.2598   10.6628   98.2670 N   0  0  0  0  0  0  0  0  0  0  0  0
   97.8880   11.2733   94.5940 P   0  0  2  0  0  0  0  0  0  0  0  0
   93.5668   14.7480   95.1756 P   0  0  1  0  0  0  0  0  0  0  0  0
   95.7712   14.7249   93.7747 C   0  0  0  0  0  0  0  0  0  0  0  0
   95.0759   15.1028   94.9737 O   0  0  0  0  0  0  0  0  0  0  0  0
   97.2380   14.7574   93.8726 C   0  0  1  0  0  0  0  0  0  0  0  0
   97.6536   16.0984   94.6549 O   0  0  0  0  0  0  0  0  0  0  0  0
   97.6434   13.8086   94.5905 C   0  0  1  0  0  0  0  0  0  0  0  0
   97.8692   12.6016   93.8265 O   0  0  0  0  0  0  0  0  0  0  0  0
   98.8872   14.3640   95.2675 C   0  0  1  0  0  0  0  0  0  0  0  0
   99.8891   14.2353   94.5116 O   0  0  0  0  0  0  0  0  0  0  0  0
   98.5914   15.8536   95.4426 C   0  0  2  0  0  0  0  0  0  0  0  0
  100.7985   16.2466  100.0695 N   0  0  0  0  0  0  0  0  0  0  0  0
  101.2940   15.6085   98.9768 C   0  0  0  0  0  0  0  0  0  0  0  0
  100.5620   15.6335   97.8695 N   0  0  0  0  0  0  0  0  0  0  0  0
   99.3367   16.1936   97.7796 C   0  0  0  0  0  0  0  0  0  0  0  0
   98.7886   16.8657   98.8931 C   0  0  0  0  0  0  0  0  0  0  0  0
   99.5956   16.8516  100.0754 C   0  0  0  0  0  0  0  0  0  0  0  0
   99.1110   17.4867  101.2569 N   0  0  0  0  0  0  0  0  0  0  0  0
   97.6504   17.3331   98.5167 N   0  0  0  0  0  0  0  0  0  0  0  0
   97.4598   17.0217   97.2463 C   0  0  0  0  0  0  0  0  0  0  0  0
   98.4402   16.3266   96.7914 N   0  0  0  0  0  0  0  0  0  0  0  0
  1 24  1  0  0  0  0
  1  4  2  0  0  0  0
  2 13  1  0  0  0  0
  2 21  1  0  0  0  0
  3 16  1  0  0  0  0
  4 18  1  0  0  0  0
  5 19  2  0  0  0  0
  5 16  1  0  0  0  0
  6 16  2  0  0  0  0
  6 17  1  0  0  0  0
  7 17  1  0  0  0  0
 11 25  2  0  0  0  0
 12 26  2  0  0  0  0
 13 25  1  0  0  0  0
 14 23  1  0  0  0  0
 15 26  1  0  0  0  0
 17 18  2  0  0  0  0
 18 19  1  0  0  0  0
 19 24  1  0  0  0  0
 20 10  1  6  0  0  0
 20 22  1  0  0  0  0
 20 23  1  0  0  0  0
 21 14  1  1  0  0  0
 21 22  1  0  0  0  0
 22 15  1  6  0  0  0
 23 24  1  1  0  0  0
 25  8  1  6  0  0  0
 25 32  1  0  0  0  0
 26  9  1  6  0  0  0
 26 28  1  0  0  0  0
 27 28  1  0  0  0  0
 29 27  1  1  0  0  0
 29 30  1  0  0  0  0
 29 31  1  0  0  0  0
 30 35  1  0  0  0  0
 31 33  1  0  0  0  0
 31 32  1  6  0  0  0
 33 34  1  6  0  0  0
 33 35  1  0  0  0  0
 35 45  1  1  0  0  0
 36 41  2  0  0  0  0
 36 37  1  0  0  0  0
 37 38  2  0  0  0  0
 38 39  1  0  0  0  0
 39 40  2  0  0  0  0
 39 45  1  0  0  0  0
 40 41  1  0  0  0  0
 40 43  1  0  0  0  0
 41 42  1  0  0  0  0
 43 44  2  0  0  0  0
 44 45  1  0  0  0  0
M  CHG  4   8  -1   9  -1  11  -1  12  -1
M  END
>  <CHROM.1>
165.29968436,-178.54614439,96.56970055,13.00565128,96.63926001,-2.39258323
-0.67507755,-0.42795505

>  <Name>
ligand

>  <RI>
0

>  <Rbt.Current_Directory>
/home/itssahil/PROJECTS/Mol_Feturizer/New_Systems/rnas/4YAZ

>  <Rbt.Executable>
rbdock ($Id: //depot/dev/client3/rdock/2013.1/src/exe/rbdock.cxx#4 $)

>  <Rbt.Library>
libRbt.so (2013.1, Build901 2013/11/27)

>  <Rbt.Parameter_File>
/export/apps/rDock/src/rDock_2013.1_src/data/scripts/dock_solv.prm

>  <Rbt.Receptor>
prm/pocket_docking_5.prm

>  <SCORE>
-39.8865

>  <SCORE.INTER>
-40.3424

>  <SCORE.INTER.CONST>
1

>  <SCORE.INTER.POLAR>
0

>  <SCORE.INTER.ROT>
2

>  <SCORE.INTER.SOLV>
27.5709

>  <SCORE.INTER.VDW>
-41.0186

>  <SCORE.INTER.norm>
-0.896499

>  <SCORE.INTRA>
0.455942

>  <SCORE.INTRA.DIHEDRAL>
0.00707995

>  <SCORE.INTRA.DIHEDRAL.0>
2.39103

>  <SCORE.INTRA.POLAR>
0

>  <SCORE.INTRA.POLAR.0>
0

>  <SCORE.INTRA.REPUL>
0

>  <SCORE.INTRA.REPUL.0>
0

>  <SCORE.INTRA.SOLV>
2.14178

>  <SCORE.INTRA.SOLV.lig_0>
-163.975

>  <SCORE.INTRA.VDW>
-0.618486

>  <SCORE.INTRA.VDW.0>
-1.49176

>  <SCORE.INTRA.norm>
0.010132

>  <SCORE.RESTR>
0

>  <SCORE.RESTR.CAVITY>
0

>  <SCORE.RESTR.norm>
0

>  <SCORE.SYSTEM>
0

>  <SCORE.SYSTEM.CONST>
0

>  <SCORE.SYSTEM.DIHEDRAL>
0

>  <SCORE.SYSTEM.SOLV>
0

>  <SCORE.SYSTEM.norm>
0

>  <SCORE.heavy>
45

>  <SCORE.norm>
-0.886366

>  <RMSD>
6.842

$$$$
ligand
 OpenBabel11021811513D
libRbt.so/2013.1/901 2013/11/27
 45 51  0  0  0  0  0  0  0  0999 V2000
   94.1229   11.3252   99.3592 C   0  0  0  0  0  0  0  0  0  0  0  0
   95.4187   11.2700   94.2808 C   0  0  0  0  0  0  0  0  0  0  0  0
   97.7809    7.6590   96.9969 N   0  0  0  0  0  0  0  0  0  0  0  0
   95.1068   11.0789  100.1620 N   0  0  0  0  0  0  0  0  0  0  0  0
   95.9947    9.0790   97.4965 N   0  0  0  0  0  0  0  0  0  0  0  0
   97.6909    8.7596   99.0575 N   0  0  0  0  0  0  0  0  0  0  0  0
   97.6637    9.9225  101.1602 O   0  0  0  0  0  0  0  0  0  0  0  0
   98.2972   10.2838   93.7160 O   0  5  0  0  0  0  0  0  0  0  0  0
   92.8336   15.5671   94.2909 O   0  5  0  0  0  0  0  0  0  0  0  0
   91.7236   12.1846   96.5194 O   0  0  0  0  0  0  0  0  0  0  0  0
   98.8508   11.2764   95.6295 O   0  5  0  0  0  0  0  0  0  0  0  0
   93.0223   15.1259   96.4739 O   0  5  0  0  0  0  0  0  0  0  0  0
   96.4503   10.8284   95.0690 O   0  0  0  0  0  0  0  0  0  0  0  0
   93.9381   10.0775   95.9770 O   0  0  0  0  0  0  0  0  0  0  0  0
   93.3047   13.2832   94.7350 O   0  0  0  0  0  0  0  0  0  0  0  0
   97.1138    8.5384   97.9025 C   0  0  0  0  0  0  0  0  0  0  0  0
   97.1284    9.6014   99.9142 C   0  0  0  0  0  0  0  0  0  0  0  0
   95.9050   10.2104   99.5544 C   0  0  0  0  0  0  0  0  0  0  0  0
   95.3586    9.9403   98.3239 C   0  0  0  0  0  0  0  0  0  0  0  0
   93.0355   11.9310   96.8578 C   0  0  2  0  0  0  0  0  0  0  0  0
   94.1219   11.2385   94.9845 C   0  0  1  0  0  0  0  0  0  0  0  0
   93.9358   12.3228   95.5737 C   0  0  1  0  0  0  0  0  0  0  0  0
   93.3211   10.6893   97.2034 C   0  0  2  0  0  0  0  0  0  0  0  0
   94.2358   10.6579   98.2707 N   0  0  0  0  0  0  0  0  0  0  0  0
   97.8674   11.2843   94.6039 P   0  0  2  0  0  0  0  0  0  0  0  0
   93.5319   14.7420   95.1802 P   0  0  1  0  0  0  0  0  0  0  0  0
   95.7385   14.7281   93.7829 C   0  0  0  0  0  0  0  0  0  0  0  0
   95.0399   15.1027   94.9810 O   0  0  0  0  0  0  0  0  0  0  0  0
   97.2051   14.7662   93.8831 C   0  0  1  0  0  0  0  0  0  0  0  0
   97.6142   16.1084   94.6667 O   0  0  0  0  0  0  0  0  0  0  0  0
   97.6130   13.8187   94.6012 C   0  0  1  0  0  0  0  0  0  0  0  0
   97.8447   12.6129   93.8370 O   0  0  0  0  0  0  0  0  0  0  0  0
   98.8536   14.3785   95.2805 C   0  0  1  0  0  0  0  0  0  0  0  0
   99.8571   14.2540   94.5261 O   0  0  0  0  0  0  0  0  0  0  0  0
   98.5517   15.8669   95.4558 C   0  0  2  0  0  0  0  0  0  0  0  0
  100.7573   16.2826  100.0815 N   0  0  0  0  0  0  0  0  0  0  0  0
  101.2585   15.6492   98.9886 C   0  0  0  0  0  0  0  0  0  0  0  0
  100.5257   15.6667   97.8818 N   0  0  0  0  0  0  0  0  0  0  0  0
   99.2949   16.2147   97.7924 C   0  0  0  0  0  0  0  0  0  0  0  0
   98.7407   16.8815   98.9060 C   0  0  0  0  0  0  0  0  0  0  0  0
   99.5484   16.8756  100.0879 C   0  0  0  0  0  0  0  0  0  0  0  0
   99.0582   17.5061  101.2695 N   0  0  0  0  0  0  0  0  0  0  0  0
   97.5977   17.3375   98.5301 N   0  0  0  0  0  0  0  0  0  0  0  0
   97.4096   17.0241   97.2599 C   0  0  0  0  0  0  0  0  0  0  0  0
   98.3966   16.3386   96.8046 N   0  0  0  0  0  0  0  0  0  0  0  0
  1 24  1  0  0  0  0
  1  4  2  0  0  0  0
  2 13  1  0  0  0  0
  2 21  1  0  0  0  0
  3 16  1  0  0  0  0
  4 18  1  0  0  0  0
  5 19  2  0  0  0  0
  5 16  1  0  0  0  0
  6 16  2  0  0  0  0
  6 17  1  0  0  0  0
  7 17  1  0  0  0  0
 11 25  2  0  0  0  0
 12 26  2  0  0  0  0
 13 25  1  0  0  0  0
 14 23  1  0  0  0  0
 15 26  1  0  0  0  0
 17 18  2  0  0  0  0
 18 19  1  0  0  0  0
 19 24  1  0  0  0  0
 20 10  1  6  0  0  0
 20 22  1  0  0  0  0
 20 23  1  0  0  0  0
 21 14  1  1  0  0  0
 21 22  1  0  0  0  0
 22 15  1  6  0  0  0
 23 24  1  1  0  0  0
 25  8  1  6  0  0  0
 25 32  1  0  0  0  0
 26  9  1  6  0  0  0
 26 28  1  0  0  0  0
 27 28  1  0  0  0  0
 29 27  1  1  0  0  0
 29 30  1  0  0  0  0
 29 31  1  0  0  0  0
 30 35  1  0  0  0  0
 31 33  1  0  0  0  0
 31 32  1  6  0  0  0
 33 34  1  6  0  0  0
 33 35  1  0  0  0  0
 35 45  1  1  0  0  0
 36 41  2  0  0  0  0
 36 37  1  0  0  0  0
 37 38  2  0  0  0  0
 38 39  1  0  0  0  0
 39 40  2  0  0  0  0
 39 45  1  0  0  0  0
 40 41  1  0  0  0  0
 40 43  1  0  0  0  0
 41 42  1  0  0  0  0
 43 44  2  0  0  0  0
 44 45  1  0  0  0  0
M  CHG  4   8  -1   9  -1  11  -1  12  -1
M  END
>  <CHROM.1>
165.46830529,-178.17851340,96.54015969,13.01249704,96.64706160,-2.39000168
-0.67751360,-0.42445754

>  <Name>
ligand

>  <RI>
0

>  <Rbt.Current_Directory>
/home/itssahil/PROJECTS/Mol_Feturizer/New_Systems/rnas/4YAZ

>  <Rbt.Executable>
rbdock ($Id: //depot/dev/client3/rdock/2013.1/src/exe/rbdock.cxx#4 $)

>  <Rbt.Library>
libRbt.so (2013.1, Build901 2013/11/27)

>  <Rbt.Parameter_File>
/export/apps/rDock/src/rDock_2013.1_src/data/scripts/dock_solv.prm

>  <Rbt.Receptor>
prm/pocket_docking_3.prm

>  <SCORE>
-39.9474

>  <SCORE.INTER>
-40.4305

>  <SCORE.INTER.CONST>
1

>  <SCORE.INTER.POLAR>
0

>  <SCORE.INTER.ROT>
2

>  <SCORE.INTER.SOLV>
27.345

>  <SCORE.INTER.VDW>
-41.002

>  <SCORE.INTER.norm>
-0.898454

>  <SCORE.INTRA>
0.483056

>  <SCORE.INTRA.DIHEDRAL>
0.00967622

>  <SCORE.INTRA.DIHEDRAL.0>
2.39103

>  <SCORE.INTRA.POLAR>
0

>  <SCORE.INTRA.POLAR.0>
0

>  <SCORE.INTRA.REPUL>
0

>  <SCORE.INTRA.REPUL.0>
0

>  <SCORE.INTRA.SOLV>
2.21983

>  <SCORE.INTRA.SOLV.lig_0>
-163.975

>  <SCORE.INTRA.VDW>
-0.631696

>  <SCORE.INTRA.VDW.0>
-1.49176

>  <SCORE.INTRA.norm>
0.0107346

>  <SCORE.RESTR>
0

>  <SCORE.RESTR.CAVITY>
0

>  <SCORE.RESTR.norm>
0

>  <SCORE.SYSTEM>
0

>  <SCORE.SYSTEM.CONST>
0

>  <SCORE.SYSTEM.DIHEDRAL>
0

>  <SCORE.SYSTEM.SOLV>
0

>  <SCORE.SYSTEM.norm>
0

>  <SCORE.heavy>
45

>  <SCORE.norm>
-0.88772

>  <RMSD>
6.843

$$$$
ligand
 OpenBabel11021811513D
libRbt.so/2013.1/901 2013/11/27
 45 51  0  0  0  0  0  0  0  0999 V2000
   94.0264   11.3677   99.3697 C   0  0  0  0  0  0  0  0  0  0  0  0
   95.3438   11.2664   94.2823 C   0  0  0  0  0  0  0  0  0  0  0  0
   97.7092    7.7418   96.9837 N   0  0  0  0  0  0  0  0  0  0  0  0
   95.0098   11.1195  100.1725 N   0  0  0  0  0  0  0  0  0  0  0  0
   95.9143    9.1478   97.4916 N   0  0  0  0  0  0  0  0  0  0  0  0
   97.6087    8.8238   99.0536 N   0  0  0  0  0  0  0  0  0  0  0  0
   97.5705    9.9679  101.1664 O   0  0  0  0  0  0  0  0  0  0  0  0
   98.2072   10.2292   93.7315 O   0  5  0  0  0  0  0  0  0  0  0  0
   92.8276   15.6040   94.2478 O   0  5  0  0  0  0  0  0  0  0  0  0
   91.6604   12.2606   96.5059 O   0  0  0  0  0  0  0  0  0  0  0  0
   98.7736   11.2308   95.6366 O   0  5  0  0  0  0  0  0  0  0  0  0
   93.0059   15.1803   96.4352 O   0  5  0  0  0  0  0  0  0  0  0  0
   96.3671   10.8159   95.0762 O   0  0  0  0  0  0  0  0  0  0  0  0
   93.8419   10.1135   95.9869 O   0  0  0  0  0  0  0  0  0  0  0  0
   93.2615   13.3172   94.7140 O   0  0  0  0  0  0  0  0  0  0  0  0
   97.0353    8.6097   97.8955 C   0  0  0  0  0  0  0  0  0  0  0  0
   97.0398    9.6549   99.9164 C   0  0  0  0  0  0  0  0  0  0  0  0
   95.8140   10.2606   99.5592 C   0  0  0  0  0  0  0  0  0  0  0  0
   95.2717    9.9985   98.3251 C   0  0  0  0  0  0  0  0  0  0  0  0
   92.9676   11.9893   96.8489 C   0  0  2  0  0  0  0  0  0  0  0  0
   94.0456   11.2622   94.9840 C   0  0  1  0  0  0  0  0  0  0  0  0
   93.8760   12.3547   95.5627 C   0  0  1  0  0  0  0  0  0  0  0  0
   93.2328   10.7466   97.2066 C   0  0  2  0  0  0  0  0  0  0  0  0
   94.1453   10.7106   98.2757 N   0  0  0  0  0  0  0  0  0  0  0  0
   97.7920   11.2447   94.6092 P   0  0  2  0  0  0  0  0  0  0  0  0
   93.5112   14.7762   95.1460 P   0  0  1  0  0  0  0  0  0  0  0  0
   95.7195   14.7141   93.7525 C   0  0  0  0  0  0  0  0  0  0  0  0
   95.0251   15.1110   94.9459 O   0  0  0  0  0  0  0  0  0  0  0  0
   97.1864   14.7299   93.8549 C   0  0  1  0  0  0  0  0  0  0  0  0
   97.6156   16.0727   94.6266 O   0  0  0  0  0  0  0  0  0  0  0  0
   97.5780   13.7827   94.5824 C   0  0  1  0  0  0  0  0  0  0  0  0
   97.7916   12.5663   93.8299 O   0  0  0  0  0  0  0  0  0  0  0  0
   98.8263   14.3291   95.2586 C   0  0  1  0  0  0  0  0  0  0  0  0
   99.8289   14.1816   94.5070 O   0  0  0  0  0  0  0  0  0  0  0  0
   98.5479   15.8237   95.4195 C   0  0  2  0  0  0  0  0  0  0  0  0
  100.7731   16.2929  100.0306 N   0  0  0  0  0  0  0  0  0  0  0  0
  101.2701   15.6476   98.9428 C   0  0  0  0  0  0  0  0  0  0  0  0
  100.5325   15.6521   97.8390 N   0  0  0  0  0  0  0  0  0  0  0  0
   99.3009   16.1982   97.7488 C   0  0  0  0  0  0  0  0  0  0  0  0
   98.7511   16.8771   98.8572 C   0  0  0  0  0  0  0  0  0  0  0  0
   99.5638   16.8851  100.0356 C   0  0  0  0  0  0  0  0  0  0  0  0
   99.0782   17.5285  101.2122 N   0  0  0  0  0  0  0  0  0  0  0  0
   97.6061   17.3281   98.4811 N   0  0  0  0  0  0  0  0  0  0  0  0
   97.4127   17.0002   97.2154 C   0  0  0  0  0  0  0  0  0  0  0  0
   98.3982   16.3104   96.7636 N   0  0  0  0  0  0  0  0  0  0  0  0
  1 24  1  0  0  0  0
  1  4  2  0  0  0  0
  2 13  1  0  0  0  0
  2 21  1  0  0  0  0
  3 16  1  0  0  0  0
  4 18  1  0  0  0  0
  5 19  2  0  0  0  0
  5 16  1  0  0  0  0
  6 16  2  0  0  0  0
  6 17  1  0  0  0  0
  7 17  1  0  0  0  0
 11 25  2  0  0  0  0
 12 26  2  0  0  0  0
 13 25  1  0  0  0  0
 14 23  1  0  0  0  0
 15 26  1  0  0  0  0
 17 18  2  0  0  0  0
 18 19  1  0  0  0  0
 19 24  1  0  0  0  0
 20 10  1  6  0  0  0
 20 22  1  0  0  0  0
 20 23  1  0  0  0  0
 21 14  1  1  0  0  0
 21 22  1  0  0  0  0
 22 15  1  6  0  0  0
 23 24  1  1  0  0  0
 25  8  1  6  0  0  0
 25 32  1  0  0  0  0
 26  9  1  6  0  0  0
 26 28  1  0  0  0  0
 27 28  1  0  0  0  0
 29 27  1  1  0  0  0
 29 30  1  0  0  0  0
 29 31  1  0  0  0  0
 30 35  1  0  0  0  0
 31 33  1  0  0  0  0
 31 32  1  6  0  0  0
 33 34  1  6  0  0  0
 33 35  1  0  0  0  0
 35 45  1  1  0  0  0
 36 41  2  0  0  0  0
 36 37  1  0  0  0  0
 37 38  2  0  0  0  0
 38 39  1  0  0  0  0
 39 40  2  0  0  0  0
 39 45  1  0  0  0  0
 40 41  1  0  0  0  0
 40 43  1  0  0  0  0
 41 42  1  0  0  0  0
 43 44  2  0  0  0  0
 44 45  1  0  0  0  0
M  CHG  4   8  -1   9  -1  11  -1  12  -1
M  END
>  <CHROM.1>
167.06867904,-177.16009256,96.49526986,13.02302409,96.62927328,-2.41992706
-0.66907138,-0.44132257

>  <Name>
ligand

>  <RI>
0

>  <Rbt.Current_Directory>
/home/itssahil/PROJECTS/Mol_Feturizer/New_Systems/rnas/4YAZ

>  <Rbt.Executable>
rbdock ($Id: //depot/dev/client3/rdock/2013.1/src/exe/rbdock.cxx#4 $)

>  <Rbt.Library>
libRbt.so (2013.1, Build901 2013/11/27)

>  <Rbt.Parameter_File>
/export/apps/rDock/src/rDock_2013.1_src/data/scripts/dock_solv.prm

>  <Rbt.Receptor>
prm/pocket_docking_4.prm

>  <SCORE>
-39.8619

>  <SCORE.INTER>
-40.585

>  <SCORE.INTER.CONST>
1

>  <SCORE.INTER.POLAR>
0

>  <SCORE.INTER.ROT>
2

>  <SCORE.INTER.SOLV>
26.9708

>  <SCORE.INTER.VDW>
-40.9802

>  <SCORE.INTER.norm>
-0.901888

>  <SCORE.INTRA>
0.723043

>  <SCORE.INTRA.DIHEDRAL>
0.0166228

>  <SCORE.INTRA.DIHEDRAL.0>
2.39103

>  <SCORE.INTRA.POLAR>
0

>  <SCORE.INTRA.POLAR.0>
0

>  <SCORE.INTRA.REPUL>
0

>  <SCORE.INTRA.REPUL.0>
0

>  <SCORE.INTRA.SOLV>
2.9577

>  <SCORE.INTRA.SOLV.lig_0>
-163.975

>  <SCORE.INTRA.VDW>
-0.764117

>  <SCORE.INTRA.VDW.0>
-1.49176

>  <SCORE.INTRA.norm>
0.0160676

>  <SCORE.RESTR>
0

>  <SCORE.RESTR.CAVITY>
0

>  <SCORE.RESTR.norm>
0

>  <SCORE.SYSTEM>
0

>  <SCORE.SYSTEM.CONST>
0

>  <SCORE.SYSTEM.DIHEDRAL>
0

>  <SCORE.SYSTEM.SOLV>
0

>  <SCORE.SYSTEM.norm>
0

>  <SCORE.heavy>
45

>  <SCORE.norm>
-0.88582

>  <RMSD>
6.843

$$$$
ligand
 OpenBabel11021811513D
libRbt.so/2013.1/901 2013/11/27
 45 51  0  0  0  0  0  0  0  0999 V2000
   94.0875   11.3188   99.3197 C   0  0  0  0  0  0  0  0  0  0  0  0
   95.4143   11.2587   94.2494 C   0  0  0  0  0  0  0  0  0  0  0  0
   97.7498    7.6417   96.9808 N   0  0  0  0  0  0  0  0  0  0  0  0
   95.0658   11.0699  100.1285 N   0  0  0  0  0  0  0  0  0  0  0  0
   95.9645    9.0668   97.4691 N   0  0  0  0  0  0  0  0  0  0  0  0
   97.6502    8.7431   99.0405 N   0  0  0  0  0  0  0  0  0  0  0  0
   97.6133    9.9066  101.1427 O   0  0  0  0  0  0  0  0  0  0  0  0
   98.2935   10.2645   93.7025 O   0  5  0  0  0  0  0  0  0  0  0  0
   92.8410   15.5629   94.2426 O   0  5  0  0  0  0  0  0  0  0  0  0
   91.7081   12.1840   96.4650 O   0  0  0  0  0  0  0  0  0  0  0  0
   98.8381   11.2560   95.6191 O   0  5  0  0  0  0  0  0  0  0  0  0
   93.0151   15.1217   96.4269 O   0  5  0  0  0  0  0  0  0  0  0  0
   96.4399   10.8145   95.0440 O   0  0  0  0  0  0  0  0  0  0  0  0
   93.9201   10.0707   95.9367 O   0  0  0  0  0  0  0  0  0  0  0  0
   93.3031   13.2778   94.6901 O   0  0  0  0  0  0  0  0  0  0  0  0
   97.0796    8.5232   97.8821 C   0  0  0  0  0  0  0  0  0  0  0  0
   97.0848    9.5867   99.8935 C   0  0  0  0  0  0  0  0  0  0  0  0
   95.8653   10.1990   99.5261 C   0  0  0  0  0  0  0  0  0  0  0  0
   95.3257    9.9301   98.2923 C   0  0  0  0  0  0  0  0  0  0  0  0
   93.0172   11.9268   96.8116 C   0  0  2  0  0  0  0  0  0  0  0  0
   94.1131   11.2310   94.9451 C   0  0  1  0  0  0  0  0  0  0  0  0
   93.9264   12.3159   95.5329 C   0  0  1  0  0  0  0  0  0  0  0  0
   93.2972   10.6845   97.1592 C   0  0  2  0  0  0  0  0  0  0  0  0
   94.2053   10.6508   98.2321 N   0  0  0  0  0  0  0  0  0  0  0  0
   97.8610   11.2664   94.5875 P   0  0  2  0  0  0  0  0  0  0  0  0
   93.5316   14.7361   95.1364 P   0  0  1  0  0  0  0  0  0  0  0  0
   95.7467   14.7158   93.7526 C   0  0  0  0  0  0  0  0  0  0  0  0
   95.0417   15.0926   94.9463 O   0  0  0  0  0  0  0  0  0  0  0  0
   97.2127   14.7499   93.8619 C   0  0  1  0  0  0  0  0  0  0  0  0
   97.6207   16.0912   94.6477 O   0  0  0  0  0  0  0  0  0  0  0  0
   97.6136   13.8014   94.5826 C   0  0  1  0  0  0  0  0  0  0  0  0
   97.8467   12.5948   93.8202 O   0  0  0  0  0  0  0  0  0  0  0  0
   98.8515   14.3581   95.2694 C   0  0  1  0  0  0  0  0  0  0  0  0
   99.8593   14.2306   94.5212 O   0  0  0  0  0  0  0  0  0  0  0  0
   98.5527   15.8473   95.4425 C   0  0  2  0  0  0  0  0  0  0  0  0
  100.7246   16.2438  100.0858 N   0  0  0  0  0  0  0  0  0  0  0  0
  101.2294   15.6068   98.9967 C   0  0  0  0  0  0  0  0  0  0  0  0
  100.5056   15.6306   97.8841 N   0  0  0  0  0  0  0  0  0  0  0  0
   99.2800   16.1883   97.7851 C   0  0  0  0  0  0  0  0  0  0  0  0
   98.7223   16.8591   98.8946 C   0  0  0  0  0  0  0  0  0  0  0  0
   99.5204   16.8464  100.0829 C   0  0  0  0  0  0  0  0  0  0  0  0
   99.0258   17.4804  101.2608 N   0  0  0  0  0  0  0  0  0  0  0  0
   97.5859   17.3244   98.5098 N   0  0  0  0  0  0  0  0  0  0  0  0
   97.4054   17.0129   97.2380 C   0  0  0  0  0  0  0  0  0  0  0  0
   98.3906   16.3197   96.7903 N   0  0  0  0  0  0  0  0  0  0  0  0
  1 24  1  0  0  0  0
  1  4  2  0  0  0  0
  2 13  1  0  0  0  0
  2 21  1  0  0  0  0
  3 16  1  0  0  0  0
  4 18  1  0  0  0  0
  5 19  2  0  0  0  0
  5 16  1  0  0  0  0
  6 16  2  0  0  0  0
  6 17  1  0  0  0  0
  7 17  1  0  0  0  0
 11 25  2  0  0  0  0
 12 26  2  0  0  0  0
 13 25  1  0  0  0  0
 14 23  1  0  0  0  0
 15 26  1  0  0  0  0
 17 18  2  0  0  0  0
 18 19  1  0  0  0  0
 19 24  1  0  0  0  0
 20 10  1  6  0  0  0
 20 22  1  0  0  0  0
 20 23  1  0  0  0  0
 21 14  1  1  0  0  0
 21 22  1  0  0  0  0
 22 15  1  6  0  0  0
 23 24  1  1  0  0  0
 25  8  1  6  0  0  0
 25 32  1  0  0  0  0
 26  9  1  6  0  0  0
 26 28  1  0  0  0  0
 27 28  1  0  0  0  0
 29 27  1  1  0  0  0
 29 30  1  0  0  0  0
 29 31  1  0  0  0  0
 30 35  1  0  0  0  0
 31 33  1  0  0  0  0
 31 32  1  6  0  0  0
 33 34  1  6  0  0  0
 33 35  1  0  0  0  0
 35 45  1  1  0  0  0
 36 41  2  0  0  0  0
 36 37  1  0  0  0  0
 37 38  2  0  0  0  0
 38 39  1  0  0  0  0
 39 40  2  0  0  0  0
 39 45  1  0  0  0  0
 40 41  1  0  0  0  0
 40 43  1  0  0  0  0
 41 42  1  0  0  0  0
 43 44  2  0  0  0  0
 44 45  1  0  0  0  0
M  CHG  4   8  -1   9  -1  11  -1  12  -1
M  END
>  <CHROM.1>
165.46520690,-178.49648714,96.52554400,12.99757463,96.62242901,-2.39651831
-0.68228541,-0.42901214

>  <Name>
ligand

>  <RI>
0

>  <Rbt.Current_Directory>
/home/itssahil/PROJECTS/Mol_Feturizer/New_Systems/rnas/4YAZ

>  <Rbt.Executable>
rbdock ($Id: //depot/dev/client3/rdock/2013.1/src/exe/rbdock.cxx#4 $)

>  <Rbt.Library>
libRbt.so (2013.1, Build901 2013/11/27)

>  <Rbt.Parameter_File>
/export/apps/rDock/src/rDock_2013.1_src/data/scripts/dock_solv.prm

>  <Rbt.Receptor>
prm/pocket_docking_4.prm

>  <SCORE>
-39.8446

>  <SCORE.INTER>
-40.3277

>  <SCORE.INTER.CONST>
1

>  <SCORE.INTER.POLAR>
0

>  <SCORE.INTER.ROT>
2

>  <SCORE.INTER.SOLV>
27.0537

>  <SCORE.INTER.VDW>
-40.8364

>  <SCORE.INTER.norm>
-0.896171

>  <SCORE.INTRA>
0.483139

>  <SCORE.INTRA.DIHEDRAL>
0.00740101

>  <SCORE.INTRA.DIHEDRAL.0>
2.39103

>  <SCORE.INTRA.POLAR>
0

>  <SCORE.INTRA.POLAR.0>
0

>  <SCORE.INTRA.REPUL>
0

>  <SCORE.INTRA.REPUL.0>
0

>  <SCORE.INTRA.SOLV>
2.21879

>  <SCORE.INTRA.SOLV.lig_0>
-163.975

>  <SCORE.INTRA.VDW>
-0.629956

>  <SCORE.INTRA.VDW.0>
-1.49176

>  <SCORE.INTRA.norm>
0.0107364

>  <SCORE.RESTR>
0

>  <SCORE.RESTR.CAVITY>
0

>  <SCORE.RESTR.norm>
0

>  <SCORE.SYSTEM>
0

>  <SCORE.SYSTEM.CONST>
0

>  <SCORE.SYSTEM.DIHEDRAL>
0

>  <SCORE.SYSTEM.SOLV>
0

>  <SCORE.SYSTEM.norm>
0

>  <SCORE.heavy>
45

>  <SCORE.norm>
-0.885435

>  <RMSD>
6.843

$$$$
ligand
 OpenBabel11021811513D
libRbt.so/2013.1/901 2013/11/27
 45 51  0  0  0  0  0  0  0  0999 V2000
   94.2300   11.2679   99.3757 C   0  0  0  0  0  0  0  0  0  0  0  0
   95.3925   11.2887   94.2860 C   0  0  0  0  0  0  0  0  0  0  0  0
   97.7523    7.5113   96.9497 N   0  0  0  0  0  0  0  0  0  0  0  0
   95.2269   11.0044  100.1567 N   0  0  0  0  0  0  0  0  0  0  0  0
   96.0091    8.9721   97.4827 N   0  0  0  0  0  0  0  0  0  0  0  0
   97.7342    8.6243   99.0056 N   0  0  0  0  0  0  0  0  0  0  0  0
   97.7811    9.7983  101.1017 O   0  0  0  0  0  0  0  0  0  0  0  0
   98.2638   10.3328   93.6384 O   0  5  0  0  0  0  0  0  0  0  0  0
   92.7814   15.5674   94.4362 O   0  5  0  0  0  0  0  0  0  0  0  0
   91.7428   12.1356   96.6234 O   0  0  0  0  0  0  0  0  0  0  0  0
   98.8538   11.2924   95.5578 O   0  5  0  0  0  0  0  0  0  0  0  0
   93.0217   15.0859   96.6057 O   0  5  0  0  0  0  0  0  0  0  0  0
   96.4443   10.8391   95.0424 O   0  0  0  0  0  0  0  0  0  0  0  0
   93.9578   10.0541   95.9914 O   0  0  0  0  0  0  0  0  0  0  0  0
   93.2767   13.2787   94.8257 O   0  0  0  0  0  0  0  0  0  0  0  0
   97.1255    8.4097   97.8656 C   0  0  0  0  0  0  0  0  0  0  0  0
   97.2100    9.4824   99.8703 C   0  0  0  0  0  0  0  0  0  0  0  0
   95.9919   10.1158   99.5356 C   0  0  0  0  0  0  0  0  0  0  0  0
   95.4111    9.8513   98.3198 C   0  0  0  0  0  0  0  0  0  0  0  0
   93.0635   11.8844   96.9276 C   0  0  2  0  0  0  0  0  0  0  0  0
   94.1120   11.2351   95.0176 C   0  0  1  0  0  0  0  0  0  0  0  0
   93.9324   12.3066   95.6315 C   0  0  1  0  0  0  0  0  0  0  0  0
   93.3645   10.6383   97.2428 C   0  0  2  0  0  0  0  0  0  0  0  0
   94.3031   10.5926   98.2887 N   0  0  0  0  0  0  0  0  0  0  0  0
   97.8477   11.3133   94.5547 P   0  0  2  0  0  0  0  0  0  0  0  0
   93.5046   14.7302   95.2938 P   0  0  1  0  0  0  0  0  0  0  0  0
   95.6794   14.7577   93.8476 C   0  0  0  0  0  0  0  0  0  0  0  0
   95.0054   15.1047   95.0680 O   0  0  0  0  0  0  0  0  0  0  0  0
   97.1476   14.8038   93.9160 C   0  0  1  0  0  0  0  0  0  0  0  0
   97.5657   16.1335   94.7159 O   0  0  0  0  0  0  0  0  0  0  0  0
   97.5774   13.8454   94.6064 C   0  0  1  0  0  0  0  0  0  0  0  0
   97.7995   12.6561   93.8142 O   0  0  0  0  0  0  0  0  0  0  0  0
   98.8293   14.4006   95.2686 C   0  0  1  0  0  0  0  0  0  0  0  0
   99.8165   14.2972   94.4898 O   0  0  0  0  0  0  0  0  0  0  0  0
   98.5222   15.8832   95.4791 C   0  0  2  0  0  0  0  0  0  0  0  0
  100.7595   16.0757  100.1042 N   0  0  0  0  0  0  0  0  0  0  0  0
  101.2260   15.4462   98.9938 C   0  0  0  0  0  0  0  0  0  0  0  0
  100.4914   15.5269   97.8909 N   0  0  0  0  0  0  0  0  0  0  0  0
   99.2885   16.1360   97.8204 C   0  0  0  0  0  0  0  0  0  0  0  0
   98.7708   16.8009   98.9526 C   0  0  0  0  0  0  0  0  0  0  0  0
   99.5809   16.7263  100.1306 C   0  0  0  0  0  0  0  0  0  0  0  0
   99.1255   17.3501  101.3295 N   0  0  0  0  0  0  0  0  0  0  0  0
   97.6502   17.3211   98.5930 N   0  0  0  0  0  0  0  0  0  0  0  0
   97.4431   17.0490   97.3163 C   0  0  0  0  0  0  0  0  0  0  0  0
   98.3943   16.3281   96.8399 N   0  0  0  0  0  0  0  0  0  0  0  0
  1 24  1  0  0  0  0
  1  4  2  0  0  0  0
  2 13  1  0  0  0  0
  2 21  1  0  0  0  0
  3 16  1  0  0  0  0
  4 18  1  0  0  0  0
  5 19  2  0  0  0  0
  5 16  1  0  0  0  0
  6 16  2  0  0  0  0
  6 17  1  0  0  0  0
  7 17  1  0  0  0  0
 11 25  2  0  0  0  0
 12 26  2  0  0  0  0
 13 25  1  0  0  0  0
 14 23  1  0  0  0  0
 15 26  1  0  0  0  0
 17 18  2  0  0  0  0
 18 19  1  0  0  0  0
 19 24  1  0  0  0  0
 20 10  1  6  0  0  0
 20 22  1  0  0  0  0
 20 23  1  0  0  0  0
 21 14  1  1  0  0  0
 21 22  1  0  0  0  0
 22 15  1  6  0  0  0
 23 24  1  1  0  0  0
 25  8  1  6  0  0  0
 25 32  1  0  0  0  0
 26  9  1  6  0  0  0
 26 28  1  0  0  0  0
 27 28  1  0  0  0  0
 29 27  1  1  0  0  0
 29 30  1  0  0  0  0
 29 31  1  0  0  0  0
 30 35  1  0  0  0  0
 31 33  1  0  0  0  0
 31 32  1  6  0  0  0
 33 34  1  6  0  0  0
 33 35  1  0  0  0  0
 35 45  1  1  0  0  0
 36 41  2  0  0  0  0
 36 37  1  0  0  0  0
 37 38  2  0  0  0  0
 38 39  1  0  0  0  0
 39 40  2  0  0  0  0
 39 45  1  0  0  0  0
 40 41  1  0  0  0  0
 40 43  1  0  0  0  0
 41 42  1  0  0  0  0
 43 44  2  0  0  0  0
 44 45  1  0  0  0  0
M  CHG  4   8  -1   9  -1  11  -1  12  -1
M  END
>  <CHROM.1>
163.33174838,178.47300813,96.54486566,12.97270679,96.66797086,-2.35548153
-0.66645387,-0.40157031

>  <Name>
ligand

>  <RI>
0

>  <Rbt.Current_Directory>
/home/itssahil/PROJECTS/Mol_Feturizer/New_Systems/rnas/4YAZ

>  <Rbt.Executable>
rbdock ($Id: //depot/dev/client3/rdock/2013.1/src/exe/rbdock.cxx#4 $)

>  <Rbt.Library>
libRbt.so (2013.1, Build901 2013/11/27)

>  <Rbt.Parameter_File>
/export/apps/rDock/src/rDock_2013.1_src/data/scripts/dock_solv.prm

>  <Rbt.Receptor>
prm/pocket_docking_7.prm

>  <SCORE>
-39.9479

>  <SCORE.INTER>
-40.1257

>  <SCORE.INTER.CONST>
1

>  <SCORE.INTER.POLAR>
0

>  <SCORE.INTER.ROT>
2

>  <SCORE.INTER.SOLV>
27.6829

>  <SCORE.INTER.VDW>
-40.9114

>  <SCORE.INTER.norm>
-0.891682

>  <SCORE.INTRA>
0.177773

>  <SCORE.INTRA.DIHEDRAL>
-0.0137069

>  <SCORE.INTRA.DIHEDRAL.0>
2.39103

>  <SCORE.INTRA.POLAR>
0

>  <SCORE.INTRA.POLAR.0>
0

>  <SCORE.INTRA.REPUL>
0

>  <SCORE.INTRA.REPUL.0>
0

>  <SCORE.INTRA.SOLV>
1.24721

>  <SCORE.INTRA.SOLV.lig_0>
-163.975

>  <SCORE.INTRA.VDW>
-0.43898

>  <SCORE.INTRA.VDW.0>
-1.49176

>  <SCORE.INTRA.norm>
0.00395051

>  <SCORE.RESTR>
0

>  <SCORE.RESTR.CAVITY>
0

>  <SCORE.RESTR.norm>
0

>  <SCORE.SYSTEM>
0

>  <SCORE.SYSTEM.CONST>
0

>  <SCORE.SYSTEM.DIHEDRAL>
0

>  <SCORE.SYSTEM.SOLV>
0

>  <SCORE.SYSTEM.norm>
0

>  <SCORE.heavy>
45

>  <SCORE.norm>
-0.887731

>  <RMSD>
6.843

$$$$
ligand
 OpenBabel11021811513D
libRbt.so/2013.1/901 2013/11/27
 45 51  0  0  0  0  0  0  0  0999 V2000
   94.2343   11.3074   99.3991 C   0  0  0  0  0  0  0  0  0  0  0  0
   95.5014   11.3118   94.3216 C   0  0  0  0  0  0  0  0  0  0  0  0
   97.8540    7.6222   97.0075 N   0  0  0  0  0  0  0  0  0  0  0  0
   95.2199   11.0507  100.1966 N   0  0  0  0  0  0  0  0  0  0  0  0
   96.0808    9.0538   97.5201 N   0  0  0  0  0  0  0  0  0  0  0  0
   97.7815    8.7161   99.0723 N   0  0  0  0  0  0  0  0  0  0  0  0
   97.7725    9.8716  101.1792 O   0  0  0  0  0  0  0  0  0  0  0  0
   98.3811   10.3436   93.7320 O   0  5  0  0  0  0  0  0  0  0  0  0
   92.9011   15.5991   94.3986 O   0  5  0  0  0  0  0  0  0  0  0  0
   91.8124   12.1835   96.5870 O   0  0  0  0  0  0  0  0  0  0  0  0
   98.9391   11.3130   95.6562 O   0  5  0  0  0  0  0  0  0  0  0  0
   93.1004   15.1299   96.5749 O   0  5  0  0  0  0  0  0  0  0  0  0
   96.5379   10.8637   95.0996 O   0  0  0  0  0  0  0  0  0  0  0  0
   94.0322   10.0918   96.0079 O   0  0  0  0  0  0  0  0  0  0  0  0
   93.3822   13.3112   94.8108 O   0  0  0  0  0  0  0  0  0  0  0  0
   97.1975    8.5034   97.9192 C   0  0  0  0  0  0  0  0  0  0  0  0
   97.2292    9.5590   99.9345 C   0  0  0  0  0  0  0  0  0  0  0  0
   96.0088   10.1785   99.5823 C   0  0  0  0  0  0  0  0  0  0  0  0
   95.4549    9.9169   98.3534 C   0  0  0  0  0  0  0  0  0  0  0  0
   93.1266   11.9302   96.9167 C   0  0  2  0  0  0  0  0  0  0  0  0
   94.2077   11.2664   95.0300 C   0  0  1  0  0  0  0  0  0  0  0  0
   94.0202   12.3422   95.6342 C   0  0  1  0  0  0  0  0  0  0  0  0
   93.4181   10.6852   97.2448 C   0  0  2  0  0  0  0  0  0  0  0  0
   94.3373   10.6431   98.3078 N   0  0  0  0  0  0  0  0  0  0  0  0
   97.9514   11.3308   94.6347 P   0  0  2  0  0  0  0  0  0  0  0  0
   93.6060   14.7648   95.2742 P   0  0  1  0  0  0  0  0  0  0  0  0
   95.8069   14.7773   93.8678 C   0  0  0  0  0  0  0  0  0  0  0  0
   95.1119   15.1336   95.0735 O   0  0  0  0  0  0  0  0  0  0  0  0
   97.2737   14.8195   93.9625 C   0  0  1  0  0  0  0  0  0  0  0  0
   97.6812   16.1527   94.7621 O   0  0  0  0  0  0  0  0  0  0  0  0
   97.6879   13.8640   94.6664 C   0  0  1  0  0  0  0  0  0  0  0  0
   97.9208   12.6693   93.8855 O   0  0  0  0  0  0  0  0  0  0  0  0
   98.9293   14.4195   95.3479 C   0  0  1  0  0  0  0  0  0  0  0  0
   99.9302   14.3085   94.5879 O   0  0  0  0  0  0  0  0  0  0  0  0
   98.6229   15.9043   95.5440 C   0  0  2  0  0  0  0  0  0  0  0  0
  100.8694   16.3230  100.1497 N   0  0  0  0  0  0  0  0  0  0  0  0
  101.3733   15.7135   99.0445 C   0  0  0  0  0  0  0  0  0  0  0  0
  100.6279   15.7254   97.9460 N   0  0  0  0  0  0  0  0  0  0  0  0
   99.3836   16.2447   97.8760 C   0  0  0  0  0  0  0  0  0  0  0  0
   98.8262   16.8861   99.0029 C   0  0  0  0  0  0  0  0  0  0  0  0
   99.6469   16.8869  100.1758 C   0  0  0  0  0  0  0  0  0  0  0  0
   99.1550   17.4927  101.3695 N   0  0  0  0  0  0  0  0  0  0  0  0
   97.6685   17.3187   98.6445 N   0  0  0  0  0  0  0  0  0  0  0  0
   97.4737   17.0144   97.3731 C   0  0  0  0  0  0  0  0  0  0  0  0
   98.4716   16.3577   96.8995 N   0  0  0  0  0  0  0  0  0  0  0  0
  1 24  1  0  0  0  0
  1  4  2  0  0  0  0
  2 13  1  0  0  0  0
  2 21  1  0  0  0  0
  3 16  1  0  0  0  0
  4 18  1  0  0  0  0
  5 19  2  0  0  0  0
  5 16  1  0  0  0  0
  6 16  2  0  0  0  0
  6 17  1  0  0  0  0
  7 17  1  0  0  0  0
 11 25  2  0  0  0  0
 12 26  2  0  0  0  0
 13 25  1  0  0  0  0
 14 23  1  0  0  0  0
 15 26  1  0  0  0  0
 17 18  2  0  0  0  0
 18 19  1  0  0  0  0
 19 24  1  0  0  0  0
 20 10  1  6  0  0  0
 20 22  1  0  0  0  0
 20 23  1  0  0  0  0
 21 14  1  1  0  0  0
 21 22  1  0  0  0  0
 22 15  1  6  0  0  0
 23 24  1  1  0  0  0
 25  8  1  6  0  0  0
 25 32  1  0  0  0  0
 26  9  1  6  0  0  0
 26 28  1  0  0  0  0
 27 28  1  0  0  0  0
 29 27  1  1  0  0  0
 29 30  1  0  0  0  0
 29 31  1  0  0  0  0
 30 35  1  0  0  0  0
 31 33  1  0  0  0  0
 31 32  1  6  0  0  0
 33 34  1  6  0  0  0
 33 35  1  0  0  0  0
 35 45  1  1  0  0  0
 36 41  2  0  0  0  0
 36 37  1  0  0  0  0
 37 38  2  0  0  0  0
 38 39  1  0  0  0  0
 39 40  2  0  0  0  0
 39 45  1  0  0  0  0
 40 41  1  0  0  0  0
 40 43  1  0  0  0  0
 41 42  1  0  0  0  0
 43 44  2  0  0  0  0
 44 45  1  0  0  0  0
M  CHG  4   8  -1   9  -1  11  -1  12  -1
M  END
>  <CHROM.1>
164.62594358,-176.94547470,96.62584652,13.02806824,96.70647183,-2.37772148
-0.67527486,-0.40856236

>  <Name>
ligand

>  <RI>
0

>  <Rbt.Current_Directory>
/home/itssahil/PROJECTS/Mol_Feturizer/New_Systems/rnas/4YAZ

>  <Rbt.Executable>
rbdock ($Id: //depot/dev/client3/rdock/2013.1/src/exe/rbdock.cxx#4 $)

>  <Rbt.Library>
libRbt.so (2013.1, Build901 2013/11/27)

>  <Rbt.Parameter_File>
/export/apps/rDock/src/rDock_2013.1_src/data/scripts/dock_solv.prm

>  <Rbt.Receptor>
prm/pocket_docking_5.prm

>  <SCORE>
-39.9665

>  <SCORE.INTER>
-40.3062

>  <SCORE.INTER.CONST>
1

>  <SCORE.INTER.POLAR>
0

>  <SCORE.INTER.ROT>
2

>  <SCORE.INTER.SOLV>
28.4894

>  <SCORE.INTER.VDW>
-41.3006

>  <SCORE.INTER.norm>
-0.895693

>  <SCORE.INTRA>
0.339745

>  <SCORE.INTRA.DIHEDRAL>
0.0186751

>  <SCORE.INTRA.DIHEDRAL.0>
2.39103

>  <SCORE.INTRA.POLAR>
0

>  <SCORE.INTRA.POLAR.0>
0

>  <SCORE.INTRA.REPUL>
0

>  <SCORE.INTRA.REPUL.0>
0

>  <SCORE.INTRA.SOLV>
1.82482

>  <SCORE.INTRA.SOLV.lig_0>
-163.975

>  <SCORE.INTRA.VDW>
-0.582002

>  <SCORE.INTRA.VDW.0>
-1.49176

>  <SCORE.INTRA.norm>
0.0075499

>  <SCORE.RESTR>
0

>  <SCORE.RESTR.CAVITY>
0

>  <SCORE.RESTR.norm>
0

>  <SCORE.SYSTEM>
0

>  <SCORE.SYSTEM.CONST>
0

>  <SCORE.SYSTEM.DIHEDRAL>
0

>  <SCORE.SYSTEM.SOLV>
0

>  <SCORE.SYSTEM.norm>
0

>  <SCORE.heavy>
45

>  <SCORE.norm>
-0.888144

>  <RMSD>
6.844

$$$$
ligand
 OpenBabel11021811513D
libRbt.so/2013.1/901 2013/11/27
 45 51  0  0  0  0  0  0  0  0999 V2000
   96.4894   10.2548   98.2016 C   0  0  0  0  0  0  0  0  0  0  0  0
   95.6376   11.0117   94.4370 C   0  0  0  0  0  0  0  0  0  0  0  0
   93.8420   11.2442  103.1428 N   0  0  0  0  0  0  0  0  0  0  0  0
   97.3143   10.1485   99.1923 N   0  0  0  0  0  0  0  0  0  0  0  0
   94.4302   10.9596  100.9002 N   0  0  0  0  0  0  0  0  0  0  0  0
   96.0439   10.7181  102.5595 N   0  0  0  0  0  0  0  0  0  0  0  0
   98.3026   10.1165  102.0019 O   0  0  0  0  0  0  0  0  0  0  0  0
   98.0833    9.5264   93.2579 O   0  5  0  0  0  0  0  0  0  0  0  0
   93.9387   15.7062   94.9092 O   0  5  0  0  0  0  0  0  0  0  0  0
   92.7844   12.5544   97.4337 O   0  0  0  0  0  0  0  0  0  0  0  0
   99.2322   10.3785   94.9629 O   0  5  0  0  0  0  0  0  0  0  0  0
   94.5437   15.2114   97.0033 O   0  5  0  0  0  0  0  0  0  0  0  0
   96.7269   10.3806   94.9809 O   0  0  0  0  0  0  0  0  0  0  0  0
   94.3991   10.0871   96.4624 O   0  0  0  0  0  0  0  0  0  0  0  0
   94.0820   13.3695   95.3023 O   0  0  0  0  0  0  0  0  0  0  0  0
   94.8267   10.9696  102.1460 C   0  0  0  0  0  0  0  0  0  0  0  0
   96.9824   10.4174  101.6720 C   0  0  0  0  0  0  0  0  0  0  0  0
   96.6347   10.4064  100.3023 C   0  0  0  0  0  0  0  0  0  0  0  0
   95.3375   10.6715   99.9383 C   0  0  0  0  0  0  0  0  0  0  0  0
   94.0716   12.0627   97.4702 C   0  0  2  0  0  0  0  0  0  0  0  0
   94.5542   11.2076   95.4196 C   0  0  1  0  0  0  0  0  0  0  0  0
   94.7067   12.3003   96.0027 C   0  0  1  0  0  0  0  0  0  0  0  0
   94.2017   10.7857   97.7785 C   0  0  2  0  0  0  0  0  0  0  0  0
   95.3171   10.5758   98.6084 N   0  0  0  0  0  0  0  0  0  0  0  0
   98.0565   10.5773   94.1900 P   0  0  2  0  0  0  0  0  0  0  0  0
   94.6636   14.7572   95.6395 P   0  0  1  0  0  0  0  0  0  0  0  0
   96.4491   14.3601   93.7749 C   0  0  0  0  0  0  0  0  0  0  0  0
   96.1246   14.8407   95.0893 O   0  0  0  0  0  0  0  0  0  0  0  0
   97.8816   14.1302   93.5354 C   0  0  1  0  0  0  0  0  0  0  0  0
   98.6944   15.3661   94.1636 O   0  0  0  0  0  0  0  0  0  0  0  0
   98.2673   13.1156   94.1692 C   0  0  1  0  0  0  0  0  0  0  0  0
   98.0963   11.8973   93.4090 O   0  0  0  0  0  0  0  0  0  0  0  0
   99.7109   13.4326   94.5291 C   0  0  1  0  0  0  0  0  0  0  0  0
  100.4743   13.1373   93.5690 O   0  0  0  0  0  0  0  0  0  0  0  0
   99.7297   14.9488   94.7238 C   0  0  2  0  0  0  0  0  0  0  0  0
   97.7081   17.2794   98.8367 N   0  0  0  0  0  0  0  0  0  0  0  0
   97.1027   17.0577   97.6404 C   0  0  0  0  0  0  0  0  0  0  0  0
   97.8050   16.4265   96.7072 N   0  0  0  0  0  0  0  0  0  0  0  0
   99.0942   16.0509   96.8486 C   0  0  0  0  0  0  0  0  0  0  0  0
   99.7569   16.2639   98.0763 C   0  0  0  0  0  0  0  0  0  0  0  0
   98.9838   16.9256   99.0832 C   0  0  0  0  0  0  0  0  0  0  0  0
   99.5800   17.2032  100.3486 N   0  0  0  0  0  0  0  0  0  0  0  0
  100.9403   15.7759   97.9448 N   0  0  0  0  0  0  0  0  0  0  0  0
  101.0556   15.2552   96.7355 C   0  0  0  0  0  0  0  0  0  0  0  0
   99.9771   15.4243   96.0575 N   0  0  0  0  0  0  0  0  0  0  0  0
  1 24  1  0  0  0  0
  1  4  2  0  0  0  0
  2 13  1  0  0  0  0
  2 21  1  0  0  0  0
  3 16  1  0  0  0  0
  4 18  1  0  0  0  0
  5 19  2  0  0  0  0
  5 16  1  0  0  0  0
  6 16  2  0  0  0  0
  6 17  1  0  0  0  0
  7 17  1  0  0  0  0
 11 25  2  0  0  0  0
 12 26  2  0  0  0  0
 13 25  1  0  0  0  0
 14 23  1  0  0  0  0
 15 26  1  0  0  0  0
 17 18  2  0  0  0  0
 18 19  1  0  0  0  0
 19 24  1  0  0  0  0
 20 10  1  6  0  0  0
 20 22  1  0  0  0  0
 20 23  1  0  0  0  0
 21 14  1  1  0  0  0
 21 22  1  0  0  0  0
 22 15  1  6  0  0  0
 23 24  1  1  0  0  0
 25  8  1  6  0  0  0
 25 32  1  0  0  0  0
 26  9  1  6  0  0  0
 26 28  1  0  0  0  0
 27 28  1  0  0  0  0
 29 27  1  1  0  0  0
 29 30  1  0  0  0  0
 29 31  1  0  0  0  0
 30 35  1  0  0  0  0
 31 33  1  0  0  0  0
 31 32  1  6  0  0  0
 33 34  1  6  0  0  0
 33 35  1  0  0  0  0
 35 45  1  1  0  0  0
 36 41  2  0  0  0  0
 36 37  1  0  0  0  0
 37 38  2  0  0  0  0
 38 39  1  0  0  0  0
 39 40  2  0  0  0  0
 39 45  1  0  0  0  0
 40 41  1  0  0  0  0
 40 43  1  0  0  0  0
 41 42  1  0  0  0  0
 43 44  2  0  0  0  0
 44 45  1  0  0  0  0
M  CHG  4   8  -1   9  -1  11  -1  12  -1
M  END
>  <CHROM.1>
22.02423551,13.95871487,96.88595488,12.95986925,96.88162781,2.49836804,0.98002204
1.32506058

>  <Name>
ligand

>  <RI>
0

>  <Rbt.Current_Directory>
/home/itssahil/PROJECTS/Mol_Feturizer/New_Systems/rnas/4YAZ

>  <Rbt.Executable>
rbdock ($Id: //depot/dev/client3/rdock/2013.1/src/exe/rbdock.cxx#4 $)

>  <Rbt.Library>
libRbt.so (2013.1, Build901 2013/11/27)

>  <Rbt.Parameter_File>
/export/apps/rDock/src/rDock_2013.1_src/data/scripts/dock_solv.prm

>  <Rbt.Receptor>
prm/pocket_docking_5.prm

>  <SCORE>
-34.3024

>  <SCORE.INTER>
-33.303

>  <SCORE.INTER.CONST>
1

>  <SCORE.INTER.POLAR>
0

>  <SCORE.INTER.ROT>
2

>  <SCORE.INTER.SOLV>
41.7354

>  <SCORE.INTER.VDW>
-41.0471

>  <SCORE.INTER.norm>
-0.740066

>  <SCORE.INTRA>
-0.999471

>  <SCORE.INTRA.DIHEDRAL>
-0.0647494

>  <SCORE.INTRA.DIHEDRAL.0>
2.39103

>  <SCORE.INTRA.POLAR>
0

>  <SCORE.INTRA.POLAR.0>
0

>  <SCORE.INTRA.REPUL>
0

>  <SCORE.INTRA.REPUL.0>
0

>  <SCORE.INTRA.SOLV>
1.02504

>  <SCORE.INTRA.SOLV.lig_0>
-163.975

>  <SCORE.INTRA.VDW>
-1.47962

>  <SCORE.INTRA.VDW.0>
-1.49176

>  <SCORE.INTRA.norm>
-0.0222105

>  <SCORE.RESTR>
0

>  <SCORE.RESTR.CAVITY>
0

>  <SCORE.RESTR.norm>
0

>  <SCORE.SYSTEM>
0

>  <SCORE.SYSTEM.CONST>
0

>  <SCORE.SYSTEM.DIHEDRAL>
0

>  <SCORE.SYSTEM.SOLV>
0

>  <SCORE.SYSTEM.norm>
0

>  <SCORE.heavy>
45

>  <SCORE.norm>
-0.762277

>  <RMSD>
6.844

$$$$
ligand
 OpenBabel11021811513D
libRbt.so/2013.1/901 2013/11/27
 45 51  0  0  0  0  0  0  0  0999 V2000
   96.4962   10.1106   98.1771 C   0  0  0  0  0  0  0  0  0  0  0  0
   95.6661   10.9322   94.4065 C   0  0  0  0  0  0  0  0  0  0  0  0
   93.8924   11.3601  103.0824 N   0  0  0  0  0  0  0  0  0  0  0  0
   97.3230   10.0276   99.1684 N   0  0  0  0  0  0  0  0  0  0  0  0
   94.4644   10.9704  100.8514 N   0  0  0  0  0  0  0  0  0  0  0  0
   96.0800   10.7631  102.5136 N   0  0  0  0  0  0  0  0  0  0  0  0
   98.3228   10.0906  101.9734 O   0  0  0  0  0  0  0  0  0  0  0  0
   98.1359    9.4838   93.2317 O   0  5  0  0  0  0  0  0  0  0  0  0
   93.9048   15.6023   94.8921 O   0  5  0  0  0  0  0  0  0  0  0  0
   92.7801   12.4244   97.3973 O   0  0  0  0  0  0  0  0  0  0  0  0
   99.2662   10.3429   94.9456 O   0  5  0  0  0  0  0  0  0  0  0  0
   94.5068   15.1058   96.9867 O   0  5  0  0  0  0  0  0  0  0  0  0
   96.7610   10.3127   94.9524 O   0  0  0  0  0  0  0  0  0  0  0  0
   94.4307    9.9825   96.4220 O   0  0  0  0  0  0  0  0  0  0  0  0
   94.0764   13.2658   95.2754 O   0  0  0  0  0  0  0  0  0  0  0  0
   94.8665   11.0233  102.0943 C   0  0  0  0  0  0  0  0  0  0  0  0
   97.0079   10.4059  101.6360 C   0  0  0  0  0  0  0  0  0  0  0  0
   96.6539   10.3457  100.2692 C   0  0  0  0  0  0  0  0  0  0  0  0
   95.3611   10.6233   99.8991 C   0  0  0  0  0  0  0  0  0  0  0  0
   94.0733   11.9491   97.4373 C   0  0  2  0  0  0  0  0  0  0  0  0
   94.5759   11.1096   95.3851 C   0  0  1  0  0  0  0  0  0  0  0  0
   94.7117   12.2015   95.9738 C   0  0  1  0  0  0  0  0  0  0  0  0
   94.2185   10.6725   97.7404 C   0  0  2  0  0  0  0  0  0  0  0  0
   95.3327   10.4731   98.5743 N   0  0  0  0  0  0  0  0  0  0  0  0
   98.0915   10.5301   94.1684 P   0  0  2  0  0  0  0  0  0  0  0  0
   94.6387   14.6594   95.6214 P   0  0  1  0  0  0  0  0  0  0  0  0
   96.4373   14.2938   93.7631 C   0  0  0  0  0  0  0  0  0  0  0  0
   96.1008   14.7641   95.0782 O   0  0  0  0  0  0  0  0  0  0  0  0
   97.8737   14.0834   93.5290 C   0  0  1  0  0  0  0  0  0  0  0  0
   98.6678   15.3268   94.1664 O   0  0  0  0  0  0  0  0  0  0  0  0
   98.2697   13.0710   94.1599 C   0  0  1  0  0  0  0  0  0  0  0  0
   98.1177   11.8540   93.3935 O   0  0  0  0  0  0  0  0  0  0  0  0
   99.7074   13.4049   94.5277 C   0  0  1  0  0  0  0  0  0  0  0  0
  100.4788   13.1238   93.5697 O   0  0  0  0  0  0  0  0  0  0  0  0
   99.7059   14.9203   94.7294 C   0  0  2  0  0  0  0  0  0  0  0  0
   97.6688   17.3074   98.8020 N   0  0  0  0  0  0  0  0  0  0  0  0
   97.0793   17.0974   97.5957 C   0  0  0  0  0  0  0  0  0  0  0  0
   97.7825   16.4476   96.6761 N   0  0  0  0  0  0  0  0  0  0  0  0
   99.0597   16.0419   96.8406 C   0  0  0  0  0  0  0  0  0  0  0  0
   99.7058   16.2420   98.0794 C   0  0  0  0  0  0  0  0  0  0  0  0
   98.9312   16.9241   99.0713 C   0  0  0  0  0  0  0  0  0  0  0  0
   99.5117   17.1905  100.3464 N   0  0  0  0  0  0  0  0  0  0  0  0
  100.8794   15.7258   97.9695 N   0  0  0  0  0  0  0  0  0  0  0  0
  101.0034   15.1998   96.7633 C   0  0  0  0  0  0  0  0  0  0  0  0
   99.9412   15.3928   96.0662 N   0  0  0  0  0  0  0  0  0  0  0  0
  1 24  1  0  0  0  0
  1  4  2  0  0  0  0
  2 13  1  0  0  0  0
  2 21  1  0  0  0  0
  3 16  1  0  0  0  0
  4 18  1  0  0  0  0
  5 19  2  0  0  0  0
  5 16  1  0  0  0  0
  6 16  2  0  0  0  0
  6 17  1  0  0  0  0
  7 17  1  0  0  0  0
 11 25  2  0  0  0  0
 12 26  2  0  0  0  0
 13 25  1  0  0  0  0
 14 23  1  0  0  0  0
 15 26  1  0  0  0  0
 17 18  2  0  0  0  0
 18 19  1  0  0  0  0
 19 24  1  0  0  0  0
 20 10  1  6  0  0  0
 20 22  1  0  0  0  0
 20 23  1  0  0  0  0
 21 14  1  1  0  0  0
 21 22  1  0  0  0  0
 22 15  1  6  0  0  0
 23 24  1  1  0  0  0
 25  8  1  6  0  0  0
 25 32  1  0  0  0  0
 26  9  1  6  0  0  0
 26 28  1  0  0  0  0
 27 28  1  0  0  0  0
 29 27  1  1  0  0  0
 29 30  1  0  0  0  0
 29 31  1  0  0  0  0
 30 35  1  0  0  0  0
 31 33  1  0  0  0  0
 31 32  1  6  0  0  0
 33 34  1  6  0  0  0
 33 35  1  0  0  0  0
 35 45  1  1  0  0  0
 36 41  2  0  0  0  0
 36 37  1  0  0  0  0
 37 38  2  0  0  0  0
 38 39  1  0  0  0  0
 39 40  2  0  0  0  0
 39 45  1  0  0  0  0
 40 41  1  0  0  0  0
 40 43  1  0  0  0  0
 41 42  1  0  0  0  0
 43 44  2  0  0  0  0
 44 45  1  0  0  0  0
M  CHG  4   8  -1   9  -1  11  -1  12  -1
M  END
>  <CHROM.1>
18.70504583,11.70276382,96.88512613,12.91045120,96.86050031,2.52313388,0.99377268
1.29778146

>  <Name>
ligand

>  <RI>
0

>  <Rbt.Current_Directory>
/home/itssahil/PROJECTS/Mol_Feturizer/New_Systems/rnas/4YAZ

>  <Rbt.Executable>
rbdock ($Id: //depot/dev/client3/rdock/2013.1/src/exe/rbdock.cxx#4 $)

>  <Rbt.Library>
libRbt.so (2013.1, Build901 2013/11/27)

>  <Rbt.Parameter_File>
/export/apps/rDock/src/rDock_2013.1_src/data/scripts/dock_solv.prm

>  <Rbt.Receptor>
prm/pocket_docking_7.prm

>  <SCORE>
-34.1769

>  <SCORE.INTER>
-33.2019

>  <SCORE.INTER.CONST>
1

>  <SCORE.INTER.POLAR>
0

>  <SCORE.INTER.ROT>
2

>  <SCORE.INTER.SOLV>
40.6785

>  <SCORE.INTER.VDW>
-40.6275

>  <SCORE.INTER.norm>
-0.737821

>  <SCORE.INTRA>
-0.974998

>  <SCORE.INTRA.DIHEDRAL>
-0.051475

>  <SCORE.INTRA.DIHEDRAL.0>
2.39103

>  <SCORE.INTRA.POLAR>
0

>  <SCORE.INTRA.POLAR.0>
0

>  <SCORE.INTRA.REPUL>
0

>  <SCORE.INTRA.REPUL.0>
0

>  <SCORE.INTRA.SOLV>
0.912688

>  <SCORE.INTRA.SOLV.lig_0>
-163.975

>  <SCORE.INTRA.VDW>
-1.4056

>  <SCORE.INTRA.VDW.0>
-1.49176

>  <SCORE.INTRA.norm>
-0.0216666

>  <SCORE.RESTR>
0

>  <SCORE.RESTR.CAVITY>
0

>  <SCORE.RESTR.norm>
0

>  <SCORE.SYSTEM>
0

>  <SCORE.SYSTEM.CONST>
0

>  <SCORE.SYSTEM.DIHEDRAL>
0

>  <SCORE.SYSTEM.SOLV>
0

>  <SCORE.SYSTEM.norm>
0

>  <SCORE.heavy>
45

>  <SCORE.norm>
-0.759488

>  <RMSD>
6.844

$$$$
ligand
 OpenBabel11021811513D
libRbt.so/2013.1/901 2013/11/27
 45 51  0  0  0  0  0  0  0  0999 V2000
   96.2376   10.0786   97.6836 C   0  0  0  0  0  0  0  0  0  0  0  0
   95.1595   11.1923   94.0362 C   0  0  0  0  0  0  0  0  0  0  0  0
   94.0864   11.3199  102.8056 N   0  0  0  0  0  0  0  0  0  0  0  0
   97.1383    9.9466   98.6027 N   0  0  0  0  0  0  0  0  0  0  0  0
   94.4616   10.9554  100.5290 N   0  0  0  0  0  0  0  0  0  0  0  0
   96.1974   10.6579  102.0502 N   0  0  0  0  0  0  0  0  0  0  0  0
   98.3631    9.9178  101.3176 O   0  0  0  0  0  0  0  0  0  0  0  0
   97.5261    9.8116   92.5972 O   0  5  0  0  0  0  0  0  0  0  0  0
   93.4757   15.8290   94.9384 O   0  5  0  0  0  0  0  0  0  0  0  0
   92.5091   12.5042   97.3157 O   0  0  0  0  0  0  0  0  0  0  0  0
   98.7842   10.5575   94.2748 O   0  5  0  0  0  0  0  0  0  0  0  0
   94.2234   15.1999   96.9488 O   0  5  0  0  0  0  0  0  0  0  0  0
   96.2858   10.5359   94.4615 O   0  0  0  0  0  0  0  0  0  0  0  0
   94.0651   10.1224   96.0730 O   0  0  0  0  0  0  0  0  0  0  0  0
   93.6556   13.4725   95.1619 O   0  0  0  0  0  0  0  0  0  0  0  0
   94.9645   10.9691  101.7358 C   0  0  0  0  0  0  0  0  0  0  0  0
   97.0376   10.2859  101.0939 C   0  0  0  0  0  0  0  0  0  0  0  0
   96.5725   10.2658   99.7596 C   0  0  0  0  0  0  0  0  0  0  0  0
   95.2650   10.5962   99.5010 C   0  0  0  0  0  0  0  0  0  0  0  0
   93.7979   12.0228   97.2321 C   0  0  2  0  0  0  0  0  0  0  0  0
   94.1442   11.3118   95.1005 C   0  0  1  0  0  0  0  0  0  0  0  0
   94.3311   12.3642   95.7447 C   0  0  1  0  0  0  0  0  0  0  0  0
   93.9543   10.7292   97.4437 C   0  0  2  0  0  0  0  0  0  0  0  0
   95.1242   10.4739   98.1805 N   0  0  0  0  0  0  0  0  0  0  0  0
   97.5580   10.7973   93.5981 P   0  0  2  0  0  0  0  0  0  0  0  0
   94.2526   14.8395   95.5523 P   0  0  1  0  0  0  0  0  0  0  0  0
   95.9094   14.5848   93.5492 C   0  0  0  0  0  0  0  0  0  0  0  0
   95.6725   14.9729   94.9120 O   0  0  0  0  0  0  0  0  0  0  0  0
   97.3234   14.3844   93.1988 C   0  0  1  0  0  0  0  0  0  0  0  0
   98.1715   15.5825   93.8531 O   0  0  0  0  0  0  0  0  0  0  0  0
   97.7556   13.3330   93.7350 C   0  0  1  0  0  0  0  0  0  0  0  0
   97.5389   12.1670   92.9073 O   0  0  0  0  0  0  0  0  0  0  0  0
   99.2189   13.6381   94.0176 C   0  0  1  0  0  0  0  0  0  0  0  0
   99.9167   13.4148   92.9905 O   0  0  0  0  0  0  0  0  0  0  0  0
   99.2441   15.1378   94.3129 C   0  0  2  0  0  0  0  0  0  0  0  0
   97.5390   17.3125   98.6485 N   0  0  0  0  0  0  0  0  0  0  0  0
   96.8652   17.1862   97.4751 C   0  0  0  0  0  0  0  0  0  0  0  0
   97.4904   16.5802   96.4729 N   0  0  0  0  0  0  0  0  0  0  0  0
   98.7665   16.1420   96.5256 C   0  0  0  0  0  0  0  0  0  0  0  0
   99.4986   16.2554   97.7269 C   0  0  0  0  0  0  0  0  0  0  0  0
   98.8078   16.8907   98.8078 C   0  0  0  0  0  0  0  0  0  0  0  0
   99.4785   17.0692  100.0537 N   0  0  0  0  0  0  0  0  0  0  0  0
  100.6504   15.7254   97.5068 N   0  0  0  0  0  0  0  0  0  0  0  0
  100.6813   15.2707   96.2662 C   0  0  0  0  0  0  0  0  0  0  0  0
   99.5793   15.5247   95.6560 N   0  0  0  0  0  0  0  0  0  0  0  0
  1 24  1  0  0  0  0
  1  4  2  0  0  0  0
  2 13  1  0  0  0  0
  2 21  1  0  0  0  0
  3 16  1  0  0  0  0
  4 18  1  0  0  0  0
  5 19  2  0  0  0  0
  5 16  1  0  0  0  0
  6 16  2  0  0  0  0
  6 17  1  0  0  0  0
  7 17  1  0  0  0  0
 11 25  2  0  0  0  0
 12 26  2  0  0  0  0
 13 25  1  0  0  0  0
 14 23  1  0  0  0  0
 15 26  1  0  0  0  0
 17 18  2  0  0  0  0
 18 19  1  0  0  0  0
 19 24  1  0  0  0  0
 20 10  1  6  0  0  0
 20 22  1  0  0  0  0
 20 23  1  0  0  0  0
 21 14  1  1  0  0  0
 21 22  1  0  0  0  0
 22 15  1  6  0  0  0
 23 24  1  1  0  0  0
 25  8  1  6  0  0  0
 25 32  1  0  0  0  0
 26  9  1  6  0  0  0
 26 28  1  0  0  0  0
 27 28  1  0  0  0  0
 29 27  1  1  0  0  0
 29 30  1  0  0  0  0
 29 31  1  0  0  0  0
 30 35  1  0  0  0  0
 31 33  1  0  0  0  0
 31 32  1  6  0  0  0
 33 34  1  6  0  0  0
 33 35  1  0  0  0  0
 35 45  1  1  0  0  0
 36 41  2  0  0  0  0
 36 37  1  0  0  0  0
 37 38  2  0  0  0  0
 38 39  1  0  0  0  0
 39 40  2  0  0  0  0
 39 45  1  0  0  0  0
 40 41  1  0  0  0  0
 40 43  1  0  0  0  0
 41 42  1  0  0  0  0
 43 44  2  0  0  0  0
 44 45  1  0  0  0  0
M  CHG  4   8  -1   9  -1  11  -1  12  -1
M  END
>  <CHROM.1>
15.61344184,10.81460047,96.57395917,13.02759478,96.51093049,2.39028642,1.00113104
1.45866349

>  <Name>
ligand

>  <RI>
0

>  <Rbt.Current_Directory>
/home/itssahil/PROJECTS/Mol_Feturizer/New_Systems/rnas/4YAZ

>  <Rbt.Executable>
rbdock ($Id: //depot/dev/client3/rdock/2013.1/src/exe/rbdock.cxx#4 $)

>  <Rbt.Library>
libRbt.so (2013.1, Build901 2013/11/27)

>  <Rbt.Parameter_File>
/export/apps/rDock/src/rDock_2013.1_src/data/scripts/dock_solv.prm

>  <Rbt.Receptor>
prm/pocket_docking_2.prm

>  <SCORE>
-31.3589

>  <SCORE.INTER>
-31.0648

>  <SCORE.INTER.CONST>
1

>  <SCORE.INTER.POLAR>
0

>  <SCORE.INTER.ROT>
2

>  <SCORE.INTER.SOLV>
37.5709

>  <SCORE.INTER.VDW>
-38.1669

>  <SCORE.INTER.norm>
-0.69033

>  <SCORE.INTRA>
-0.961736

>  <SCORE.INTRA.DIHEDRAL>
-0.0463569

>  <SCORE.INTRA.DIHEDRAL.0>
2.39103

>  <SCORE.INTRA.POLAR>
0

>  <SCORE.INTRA.POLAR.0>
0

>  <SCORE.INTRA.REPUL>
0

>  <SCORE.INTRA.REPUL.0>
0

>  <SCORE.INTRA.SOLV>
0.866431

>  <SCORE.INTRA.SOLV.lig_0>
-163.975

>  <SCORE.INTRA.VDW>
-1.37177

>  <SCORE.INTRA.VDW.0>
-1.49176

>  <SCORE.INTRA.norm>
-0.0213719

>  <SCORE.RESTR>
0.667654

>  <SCORE.RESTR.CAVITY>
0.667654

>  <SCORE.RESTR.norm>
0.0148368

>  <SCORE.SYSTEM>
0

>  <SCORE.SYSTEM.CONST>
0

>  <SCORE.SYSTEM.DIHEDRAL>
0

>  <SCORE.SYSTEM.SOLV>
0

>  <SCORE.SYSTEM.norm>
0

>  <SCORE.heavy>
45

>  <SCORE.norm>
-0.696865

>  <RMSD>
6.845

$$$$
ligand
 OpenBabel11021811513D
libRbt.so/2013.1/901 2013/11/27
 45 51  0  0  0  0  0  0  0  0999 V2000
   94.1676   11.3068   99.3607 C   0  0  0  0  0  0  0  0  0  0  0  0
   95.4255   11.2141   94.2775 C   0  0  0  0  0  0  0  0  0  0  0  0
   97.7822    7.5886   97.0127 N   0  0  0  0  0  0  0  0  0  0  0  0
   95.1551   11.0615  100.1594 N   0  0  0  0  0  0  0  0  0  0  0  0
   96.0100    9.0271   97.5093 N   0  0  0  0  0  0  0  0  0  0  0  0
   97.7144    8.7116   99.0621 N   0  0  0  0  0  0  0  0  0  0  0  0
   97.7102    9.8967  101.1525 O   0  0  0  0  0  0  0  0  0  0  0  0
   98.2984   10.2192   93.6992 O   0  5  0  0  0  0  0  0  0  0  0  0
   92.8485   15.5161   94.2800 O   0  5  0  0  0  0  0  0  0  0  0  0
   91.7471   12.1485   96.5353 O   0  0  0  0  0  0  0  0  0  0  0  0
   98.8665   11.2218   95.6033 O   0  5  0  0  0  0  0  0  0  0  0  0
   93.0509   15.0871   96.4643 O   0  5  0  0  0  0  0  0  0  0  0  0
   96.4615   10.7752   95.0614 O   0  0  0  0  0  0  0  0  0  0  0  0
   93.9541   10.0341   95.9903 O   0  0  0  0  0  0  0  0  0  0  0  0
   93.3183   13.2339   94.7341 O   0  0  0  0  0  0  0  0  0  0  0  0
   97.1278    8.4826   97.9135 C   0  0  0  0  0  0  0  0  0  0  0  0
   97.1640    9.5665   99.9136 C   0  0  0  0  0  0  0  0  0  0  0  0
   95.9427   10.1808   99.5556 C   0  0  0  0  0  0  0  0  0  0  0  0
   95.3859    9.9019   98.3318 C   0  0  0  0  0  0  0  0  0  0  0  0
   93.0607   11.8944   96.8665 C   0  0  2  0  0  0  0  0  0  0  0  0
   94.1333   11.1891   94.9900 C   0  0  1  0  0  0  0  0  0  0  0  0
   93.9532   12.2771   95.5741 C   0  0  1  0  0  0  0  0  0  0  0  0
   93.3464   10.6542   97.2173 C   0  0  2  0  0  0  0  0  0  0  0  0
   94.2681   10.6272   98.2786 N   0  0  0  0  0  0  0  0  0  0  0  0
   97.8763   11.2256   94.5842 P   0  0  2  0  0  0  0  0  0  0  0  0
   93.5511   14.6947   95.1694 P   0  0  1  0  0  0  0  0  0  0  0  0
   95.7484   14.6686   93.7575 C   0  0  0  0  0  0  0  0  0  0  0  0
   95.0584   15.0515   94.9580 O   0  0  0  0  0  0  0  0  0  0  0  0
   97.2157   14.7046   93.8478 C   0  0  1  0  0  0  0  0  0  0  0  0
   97.6325   16.0505   94.6209 O   0  0  0  0  0  0  0  0  0  0  0  0
   97.6266   13.7604   94.5685 C   0  0  1  0  0  0  0  0  0  0  0  0
   97.8510   12.5498   93.8098 O   0  0  0  0  0  0  0  0  0  0  0  0
   98.8727   14.3219   95.2364 C   0  0  1  0  0  0  0  0  0  0  0  0
   99.8710   14.1912   94.4760 O   0  0  0  0  0  0  0  0  0  0  0  0
   98.5748   15.8118   95.4051 C   0  0  2  0  0  0  0  0  0  0  0  0
  100.7906   16.2030  100.0279 N   0  0  0  0  0  0  0  0  0  0  0  0
  101.2790   15.5560   98.9373 C   0  0  0  0  0  0  0  0  0  0  0  0
  100.5460   15.5833   97.8308 N   0  0  0  0  0  0  0  0  0  0  0  0
   99.3259   16.1543   97.7399 C   0  0  0  0  0  0  0  0  0  0  0  0
   98.7852   16.8358   98.8513 C   0  0  0  0  0  0  0  0  0  0  0  0
   99.5933   16.8191  100.0328 C   0  0  0  0  0  0  0  0  0  0  0  0
   99.1159   17.4633  101.2122 N   0  0  0  0  0  0  0  0  0  0  0  0
   97.6509   17.3121   98.4742 N   0  0  0  0  0  0  0  0  0  0  0  0
   97.4560   16.9975   97.2054 C   0  0  0  0  0  0  0  0  0  0  0  0
   98.4295   16.2915   96.7522 N   0  0  0  0  0  0  0  0  0  0  0  0
  1 24  1  0  0  0  0
  1  4  2  0  0  0  0
  2 13  1  0  0  0  0
  2 21  1  0  0  0  0
  3 16  1  0  0  0  0
  4 18  1  0  0  0  0
  5 19  2  0  0  0  0
  5 16  1  0  0  0  0
  6 16  2  0  0  0  0
  6 17  1  0  0  0  0
  7 17  1  0  0  0  0
 11 25  2  0  0  0  0
 12 26  2  0  0  0  0
 13 25  1  0  0  0  0
 14 23  1  0  0  0  0
 15 26  1  0  0  0  0
 17 18  2  0  0  0  0
 18 19  1  0  0  0  0
 19 24  1  0  0  0  0
 20 10  1  6  0  0  0
 20 22  1  0  0  0  0
 20 23  1  0  0  0  0
 21 14  1  1  0  0  0
 21 22  1  0  0  0  0
 22 15  1  6  0  0  0
 23 24  1  1  0  0  0
 25  8  1  6  0  0  0
 25 32  1  0  0  0  0
 26  9  1  6  0  0  0
 26 28  1  0  0  0  0
 27 28  1  0  0  0  0
 29 27  1  1  0  0  0
 29 30  1  0  0  0  0
 29 31  1  0  0  0  0
 30 35  1  0  0  0  0
 31 33  1  0  0  0  0
 31 32  1  6  0  0  0
 33 34  1  6  0  0  0
 33 35  1  0  0  0  0
 35 45  1  1  0  0  0
 36 41  2  0  0  0  0
 36 37  1  0  0  0  0
 37 38  2  0  0  0  0
 38 39  1  0  0  0  0
 39 40  2  0  0  0  0
 39 45  1  0  0  0  0
 40 41  1  0  0  0  0
 40 43  1  0  0  0  0
 41 42  1  0  0  0  0
 43 44  2  0  0  0  0
 44 45  1  0  0  0  0
M  CHG  4   8  -1   9  -1  11  -1  12  -1
M  END
>  <CHROM.1>
165.04692521,-179.23113757,96.56321532,12.96268897,96.62825877,-2.38584353
-0.67236735,-0.43122731

>  <Name>
ligand

>  <RI>
0

>  <Rbt.Current_Directory>
/home/itssahil/PROJECTS/Mol_Feturizer/New_Systems/rnas/4YAZ

>  <Rbt.Executable>
rbdock ($Id: //depot/dev/client3/rdock/2013.1/src/exe/rbdock.cxx#4 $)

>  <Rbt.Library>
libRbt.so (2013.1, Build901 2013/11/27)

>  <Rbt.Parameter_File>
/export/apps/rDock/src/rDock_2013.1_src/data/scripts/dock_solv.prm

>  <Rbt.Receptor>
prm/pocket_docking_7.prm

>  <SCORE>
-39.8867

>  <SCORE.INTER>
-40.3021

>  <SCORE.INTER.CONST>
1

>  <SCORE.INTER.POLAR>
0

>  <SCORE.INTER.ROT>
2

>  <SCORE.INTER.SOLV>
27.3649

>  <SCORE.INTER.VDW>
-40.923

>  <SCORE.INTER.norm>
-0.895603

>  <SCORE.INTRA>
0.415414

>  <SCORE.INTRA.DIHEDRAL>
0.00223551

>  <SCORE.INTRA.DIHEDRAL.0>
2.39103

>  <SCORE.INTRA.POLAR>
0

>  <SCORE.INTRA.POLAR.0>
0

>  <SCORE.INTRA.REPUL>
0

>  <SCORE.INTRA.REPUL.0>
0

>  <SCORE.INTRA.SOLV>
2.02471

>  <SCORE.INTRA.SOLV.lig_0>
-163.975

>  <SCORE.INTRA.VDW>
-0.598061

>  <SCORE.INTRA.VDW.0>
-1.49176

>  <SCORE.INTRA.norm>
0.00923142

>  <SCORE.RESTR>
0

>  <SCORE.RESTR.CAVITY>
0

>  <SCORE.RESTR.norm>
0

>  <SCORE.SYSTEM>
0

>  <SCORE.SYSTEM.CONST>
0

>  <SCORE.SYSTEM.DIHEDRAL>
0

>  <SCORE.SYSTEM.SOLV>
0

>  <SCORE.SYSTEM.norm>
0

>  <SCORE.heavy>
45

>  <SCORE.norm>
-0.886371

>  <RMSD>
6.845

$$$$
ligand
 OpenBabel11021811513D
libRbt.so/2013.1/901 2013/11/27
 45 51  0  0  0  0  0  0  0  0999 V2000
   96.2133   10.1419   97.6561 C   0  0  0  0  0  0  0  0  0  0  0  0
   95.1274   11.2394   94.0122 C   0  0  0  0  0  0  0  0  0  0  0  0
   94.0619   11.3147  102.7941 N   0  0  0  0  0  0  0  0  0  0  0  0
   97.1140    9.9980   98.5733 N   0  0  0  0  0  0  0  0  0  0  0  0
   94.4371   10.9804  100.5129 N   0  0  0  0  0  0  0  0  0  0  0  0
   96.1731   10.6634  102.0300 N   0  0  0  0  0  0  0  0  0  0  0  0
   98.3389    9.9337  101.2875 O   0  0  0  0  0  0  0  0  0  0  0  0
   97.4760    9.8338   92.5681 O   0  5  0  0  0  0  0  0  0  0  0  0
   93.4901   15.8935   94.9103 O   0  5  0  0  0  0  0  0  0  0  0  0
   92.5007   12.5829   97.2980 O   0  0  0  0  0  0  0  0  0  0  0  0
   98.7468   10.5714   94.2398 O   0  5  0  0  0  0  0  0  0  0  0  0
   94.2388   15.2618   96.9194 O   0  5  0  0  0  0  0  0  0  0  0  0
   96.2490   10.5735   94.4351 O   0  0  0  0  0  0  0  0  0  0  0  0
   94.0301   10.1842   96.0551 O   0  0  0  0  0  0  0  0  0  0  0  0
   93.6487   13.5359   95.1382 O   0  0  0  0  0  0  0  0  0  0  0  0
   94.9400   10.9783  101.7197 C   0  0  0  0  0  0  0  0  0  0  0  0
   97.0134   10.3044  101.0688 C   0  0  0  0  0  0  0  0  0  0  0  0
   96.5481   10.3017   99.7344 C   0  0  0  0  0  0  0  0  0  0  0  0
   95.2405   10.6351   99.4801 C   0  0  0  0  0  0  0  0  0  0  0  0
   93.7847   12.0894   97.2110 C   0  0  2  0  0  0  0  0  0  0  0  0
   94.1170   11.3707   95.0798 C   0  0  1  0  0  0  0  0  0  0  0  0
   94.3158   12.4227   95.7210 C   0  0  1  0  0  0  0  0  0  0  0  0
   93.9297   10.7948   97.4249 C   0  0  2  0  0  0  0  0  0  0  0  0
   95.0998   10.5302   98.1582 N   0  0  0  0  0  0  0  0  0  0  0  0
   97.5205   10.8211   93.5667 P   0  0  2  0  0  0  0  0  0  0  0  0
   94.2598   14.8982   95.5237 P   0  0  1  0  0  0  0  0  0  0  0  0
   95.9072   14.6238   93.5154 C   0  0  0  0  0  0  0  0  0  0  0  0
   95.6787   15.0170   94.8782 O   0  0  0  0  0  0  0  0  0  0  0  0
   97.3180   14.4094   93.1606 C   0  0  1  0  0  0  0  0  0  0  0  0
   98.1795   15.6010   93.8094 O   0  0  0  0  0  0  0  0  0  0  0  0
   97.7423   13.3552   93.6975 C   0  0  1  0  0  0  0  0  0  0  0  0
   97.5118   12.1896   92.8731 O   0  0  0  0  0  0  0  0  0  0  0  0
   99.2093   13.6472   93.9744 C   0  0  1  0  0  0  0  0  0  0  0  0
   99.9015   13.4153   92.9454 O   0  0  0  0  0  0  0  0  0  0  0  0
   99.2496   15.1473   94.2664 C   0  0  2  0  0  0  0  0  0  0  0  0
   97.5628   17.2955   98.6223 N   0  0  0  0  0  0  0  0  0  0  0  0
   96.8799   17.1659   97.4546 C   0  0  0  0  0  0  0  0  0  0  0  0
   97.5018   16.5682   96.4454 N   0  0  0  0  0  0  0  0  0  0  0  0
   98.7822   16.1416   96.4858 C   0  0  0  0  0  0  0  0  0  0  0  0
   99.5238   16.2586   97.6809 C   0  0  0  0  0  0  0  0  0  0  0  0
   98.8368   16.8848   98.7695 C   0  0  0  0  0  0  0  0  0  0  0  0
   99.5167   17.0664  100.0100 N   0  0  0  0  0  0  0  0  0  0  0  0
  100.6784   15.7398   97.4494 N   0  0  0  0  0  0  0  0  0  0  0  0
  100.7026   15.2885   96.2074 C   0  0  0  0  0  0  0  0  0  0  0  0
   99.5929   15.5339   95.6075 N   0  0  0  0  0  0  0  0  0  0  0  0
  1 24  1  0  0  0  0
  1  4  2  0  0  0  0
  2 13  1  0  0  0  0
  2 21  1  0  0  0  0
  3 16  1  0  0  0  0
  4 18  1  0  0  0  0
  5 19  2  0  0  0  0
  5 16  1  0  0  0  0
  6 16  2  0  0  0  0
  6 17  1  0  0  0  0
  7 17  1  0  0  0  0
 11 25  2  0  0  0  0
 12 26  2  0  0  0  0
 13 25  1  0  0  0  0
 14 23  1  0  0  0  0
 15 26  1  0  0  0  0
 17 18  2  0  0  0  0
 18 19  1  0  0  0  0
 19 24  1  0  0  0  0
 20 10  1  6  0  0  0
 20 22  1  0  0  0  0
 20 23  1  0  0  0  0
 21 14  1  1  0  0  0
 21 22  1  0  0  0  0
 22 15  1  6  0  0  0
 23 24  1  1  0  0  0
 25  8  1  6  0  0  0
 25 32  1  0  0  0  0
 26  9  1  6  0  0  0
 26 28  1  0  0  0  0
 27 28  1  0  0  0  0
 29 27  1  1  0  0  0
 29 30  1  0  0  0  0
 29 31  1  0  0  0  0
 30 35  1  0  0  0  0
 31 33  1  0  0  0  0
 31 32  1  6  0  0  0
 33 34  1  6  0  0  0
 33 35  1  0  0  0  0
 35 45  1  1  0  0  0
 36 41  2  0  0  0  0
 36 37  1  0  0  0  0
 37 38  2  0  0  0  0
 38 39  1  0  0  0  0
 39 40  2  0  0  0  0
 39 45  1  0  0  0  0
 40 41  1  0  0  0  0
 40 43  1  0  0  0  0
 41 42  1  0  0  0  0
 43 44  2  0  0  0  0
 44 45  1  0  0  0  0
M  CHG  4   8  -1   9  -1  11  -1  12  -1
M  END
>  <CHROM.1>
16.66954191,11.94776711,96.56460089,13.05723642,96.48030353,2.37526840,0.98975653
1.47013086

>  <Name>
ligand

>  <RI>
0

>  <Rbt.Current_Directory>
/home/itssahil/PROJECTS/Mol_Feturizer/New_Systems/rnas/4YAZ

>  <Rbt.Executable>
rbdock ($Id: //depot/dev/client3/rdock/2013.1/src/exe/rbdock.cxx#4 $)

>  <Rbt.Library>
libRbt.so (2013.1, Build901 2013/11/27)

>  <Rbt.Parameter_File>
/export/apps/rDock/src/rDock_2013.1_src/data/scripts/dock_solv.prm

>  <Rbt.Receptor>
prm/pocket_docking_2.prm

>  <SCORE>
-31.2853

>  <SCORE.INTER>
-30.9884

>  <SCORE.INTER.CONST>
1

>  <SCORE.INTER.POLAR>
0

>  <SCORE.INTER.ROT>
2

>  <SCORE.INTER.SOLV>
37.96

>  <SCORE.INTER.VDW>
-38.2456

>  <SCORE.INTER.norm>
-0.688632

>  <SCORE.INTRA>
-0.973542

>  <SCORE.INTRA.DIHEDRAL>
-0.0533604

>  <SCORE.INTRA.DIHEDRAL.0>
2.39103

>  <SCORE.INTRA.POLAR>
0

>  <SCORE.INTRA.POLAR.0>
0

>  <SCORE.INTRA.REPUL>
0

>  <SCORE.INTRA.REPUL.0>
0

>  <SCORE.INTRA.SOLV>
0.925724

>  <SCORE.INTRA.SOLV.lig_0>
-163.975

>  <SCORE.INTRA.VDW>
-1.40972

>  <SCORE.INTRA.VDW.0>
-1.49176

>  <SCORE.INTRA.norm>
-0.0216343

>  <SCORE.RESTR>
0.676729

>  <SCORE.RESTR.CAVITY>
0.676729

>  <SCORE.RESTR.norm>
0.0150384

>  <SCORE.SYSTEM>
0

>  <SCORE.SYSTEM.CONST>
0

>  <SCORE.SYSTEM.DIHEDRAL>
0

>  <SCORE.SYSTEM.SOLV>
0

>  <SCORE.SYSTEM.norm>
0

>  <SCORE.heavy>
45

>  <SCORE.norm>
-0.695228

>  <RMSD>
6.846

$$$$
ligand
 OpenBabel11021811513D
libRbt.so/2013.1/901 2013/11/27
 45 51  0  0  0  0  0  0  0  0999 V2000
   94.2851   11.3181   99.3937 C   0  0  0  0  0  0  0  0  0  0  0  0
   95.5151   11.2998   94.3184 C   0  0  0  0  0  0  0  0  0  0  0  0
   97.8647    7.5683   97.0425 N   0  0  0  0  0  0  0  0  0  0  0  0
   95.2735   11.0676  100.1897 N   0  0  0  0  0  0  0  0  0  0  0  0
   96.1047    9.0208   97.5416 N   0  0  0  0  0  0  0  0  0  0  0  0
   97.8120    8.6965   99.0894 N   0  0  0  0  0  0  0  0  0  0  0  0
   97.8233    9.8864  101.1771 O   0  0  0  0  0  0  0  0  0  0  0  0
   98.3993   10.3524   93.7170 O   0  5  0  0  0  0  0  0  0  0  0  0
   92.8813   15.5665   94.3949 O   0  5  0  0  0  0  0  0  0  0  0  0
   91.8311   12.1498   96.6002 O   0  0  0  0  0  0  0  0  0  0  0  0
   98.9595   11.3327   95.6350 O   0  5  0  0  0  0  0  0  0  0  0  0
   93.0956   15.1063   96.5716 O   0  5  0  0  0  0  0  0  0  0  0  0
   96.5592   10.8626   95.0926 O   0  0  0  0  0  0  0  0  0  0  0  0
   94.0644   10.0738   96.0165 O   0  0  0  0  0  0  0  0  0  0  0  0
   93.3826   13.2840   94.8121 O   0  0  0  0  0  0  0  0  0  0  0  0
   97.2198    8.4690   97.9433 C   0  0  0  0  0  0  0  0  0  0  0  0
   97.2706    9.5573   99.9407 C   0  0  0  0  0  0  0  0  0  0  0  0
   96.0527   10.1797   99.5854 C   0  0  0  0  0  0  0  0  0  0  0  0
   95.4897    9.9020   98.3641 C   0  0  0  0  0  0  0  0  0  0  0  0
   93.1490   11.9081   96.9239 C   0  0  2  0  0  0  0  0  0  0  0  0
   94.2255   11.2465   95.0338 C   0  0  1  0  0  0  0  0  0  0  0  0
   94.0326   12.3228   95.6353 C   0  0  1  0  0  0  0  0  0  0  0  0
   93.4520   10.6666   97.2546 C   0  0  2  0  0  0  0  0  0  0  0  0
   94.3771   10.6353   98.3129 N   0  0  0  0  0  0  0  0  0  0  0  0
   97.9665   11.3392   94.6187 P   0  0  2  0  0  0  0  0  0  0  0  0
   93.5973   14.7409   95.2695 P   0  0  1  0  0  0  0  0  0  0  0  0
   95.7907   14.7661   93.8515 C   0  0  0  0  0  0  0  0  0  0  0  0
   95.0991   15.1209   95.0597 O   0  0  0  0  0  0  0  0  0  0  0  0
   97.2576   14.8201   93.9385 C   0  0  1  0  0  0  0  0  0  0  0  0
   97.6587   16.1593   94.7314 O   0  0  0  0  0  0  0  0  0  0  0  0
   97.6830   13.8704   94.6433 C   0  0  1  0  0  0  0  0  0  0  0  0
   97.9213   12.6749   93.8652 O   0  0  0  0  0  0  0  0  0  0  0  0
   98.9235   14.4379   95.3165 C   0  0  1  0  0  0  0  0  0  0  0  0
   99.9212   14.3324   94.5516 O   0  0  0  0  0  0  0  0  0  0  0  0
   98.6063   15.9209   95.5092 C   0  0  2  0  0  0  0  0  0  0  0  0
  100.8446   16.3031  100.1221 N   0  0  0  0  0  0  0  0  0  0  0  0
  101.3415   15.6843   99.0189 C   0  0  0  0  0  0  0  0  0  0  0  0
  100.6000   15.7085   97.9179 N   0  0  0  0  0  0  0  0  0  0  0  0
   99.3652   16.2494   97.8436 C   0  0  0  0  0  0  0  0  0  0  0  0
   98.8153   16.9010   98.9683 C   0  0  0  0  0  0  0  0  0  0  0  0
   99.6320   16.8882  100.1439 C   0  0  0  0  0  0  0  0  0  0  0  0
   99.1469   17.5033  101.3356 N   0  0  0  0  0  0  0  0  0  0  0  0
   97.6665   17.3535   98.6058 N   0  0  0  0  0  0  0  0  0  0  0  0
   97.4706   17.0520   97.3339 C   0  0  0  0  0  0  0  0  0  0  0  0
   98.4585   16.3777   96.8640 N   0  0  0  0  0  0  0  0  0  0  0  0
  1 24  1  0  0  0  0
  1  4  2  0  0  0  0
  2 13  1  0  0  0  0
  2 21  1  0  0  0  0
  3 16  1  0  0  0  0
  4 18  1  0  0  0  0
  5 19  2  0  0  0  0
  5 16  1  0  0  0  0
  6 16  2  0  0  0  0
  6 17  1  0  0  0  0
  7 17  1  0  0  0  0
 11 25  2  0  0  0  0
 12 26  2  0  0  0  0
 13 25  1  0  0  0  0
 14 23  1  0  0  0  0
 15 26  1  0  0  0  0
 17 18  2  0  0  0  0
 18 19  1  0  0  0  0
 19 24  1  0  0  0  0
 20 10  1  6  0  0  0
 20 22  1  0  0  0  0
 20 23  1  0  0  0  0
 21 14  1  1  0  0  0
 21 22  1  0  0  0  0
 22 15  1  6  0  0  0
 23 24  1  1  0  0  0
 25  8  1  6  0  0  0
 25 32  1  0  0  0  0
 26  9  1  6  0  0  0
 26 28  1  0  0  0  0
 27 28  1  0  0  0  0
 29 27  1  1  0  0  0
 29 30  1  0  0  0  0
 29 31  1  0  0  0  0
 30 35  1  0  0  0  0
 31 33  1  0  0  0  0
 31 32  1  6  0  0  0
 33 34  1  6  0  0  0
 33 35  1  0  0  0  0
 35 45  1  1  0  0  0
 36 41  2  0  0  0  0
 36 37  1  0  0  0  0
 37 38  2  0  0  0  0
 38 39  1  0  0  0  0
 39 40  2  0  0  0  0
 39 45  1  0  0  0  0
 40 41  1  0  0  0  0
 40 43  1  0  0  0  0
 41 42  1  0  0  0  0
 43 44  2  0  0  0  0
 44 45  1  0  0  0  0
M  CHG  4   8  -1   9  -1  11  -1  12  -1
M  END
>  <CHROM.1>
163.48214817,-178.48647765,96.63302008,13.02279404,96.69594044,-2.35845911
-0.67688254,-0.40866150

>  <Name>
ligand

>  <RI>
0

>  <Rbt.Current_Directory>
/home/itssahil/PROJECTS/Mol_Feturizer/New_Systems/rnas/4YAZ

>  <Rbt.Executable>
rbdock ($Id: //depot/dev/client3/rdock/2013.1/src/exe/rbdock.cxx#4 $)

>  <Rbt.Library>
libRbt.so (2013.1, Build901 2013/11/27)

>  <Rbt.Parameter_File>
/export/apps/rDock/src/rDock_2013.1_src/data/scripts/dock_solv.prm

>  <Rbt.Receptor>
prm/pocket_docking_5.prm

>  <SCORE>
-39.9199

>  <SCORE.INTER>
-40.1158

>  <SCORE.INTER.CONST>
1

>  <SCORE.INTER.POLAR>
0

>  <SCORE.INTER.ROT>
2

>  <SCORE.INTER.SOLV>
28.6319

>  <SCORE.INTER.VDW>
-41.2212

>  <SCORE.INTER.norm>
-0.891462

>  <SCORE.INTRA>
0.19585

>  <SCORE.INTRA.DIHEDRAL>
0.00786364

>  <SCORE.INTRA.DIHEDRAL.0>
2.39103

>  <SCORE.INTRA.POLAR>
0

>  <SCORE.INTRA.POLAR.0>
0

>  <SCORE.INTRA.REPUL>
0

>  <SCORE.INTRA.REPUL.0>
0

>  <SCORE.INTRA.SOLV>
1.31111

>  <SCORE.INTRA.SOLV.lig_0>
-163.975

>  <SCORE.INTRA.VDW>
-0.463638

>  <SCORE.INTRA.VDW.0>
-1.49176

>  <SCORE.INTRA.norm>
0.00435222

>  <SCORE.RESTR>
0

>  <SCORE.RESTR.CAVITY>
0

>  <SCORE.RESTR.norm>
0

>  <SCORE.SYSTEM>
0

>  <SCORE.SYSTEM.CONST>
0

>  <SCORE.SYSTEM.DIHEDRAL>
0

>  <SCORE.SYSTEM.SOLV>
0

>  <SCORE.SYSTEM.norm>
0

>  <SCORE.heavy>
45

>  <SCORE.norm>
-0.887109

>  <RMSD>
6.846

$$$$
ligand
 OpenBabel11021811513D
libRbt.so/2013.1/901 2013/11/27
 45 51  0  0  0  0  0  0  0  0999 V2000
   94.1445   11.3062   99.3576 C   0  0  0  0  0  0  0  0  0  0  0  0
   95.4037   11.2681   94.2733 C   0  0  0  0  0  0  0  0  0  0  0  0
   97.7594    7.6158   96.9668 N   0  0  0  0  0  0  0  0  0  0  0  0
   95.1319   11.0516  100.1535 N   0  0  0  0  0  0  0  0  0  0  0  0
   95.9872    9.0484   97.4799 N   0  0  0  0  0  0  0  0  0  0  0  0
   97.6914    8.7147   99.0292 N   0  0  0  0  0  0  0  0  0  0  0  0
   97.6868    9.8752  101.1333 O   0  0  0  0  0  0  0  0  0  0  0  0
   98.2756   10.2765   93.6846 O   0  5  0  0  0  0  0  0  0  0  0  0
   92.8313   15.5726   94.3218 O   0  5  0  0  0  0  0  0  0  0  0  0
   91.7261   12.1820   96.5405 O   0  0  0  0  0  0  0  0  0  0  0  0
   98.8446   11.2579   95.5994 O   0  5  0  0  0  0  0  0  0  0  0  0
   93.0330   15.1198   96.5013 O   0  5  0  0  0  0  0  0  0  0  0  0
   96.4392   10.8196   95.0524 O   0  0  0  0  0  0  0  0  0  0  0  0
   93.9309   10.0713   95.9730 O   0  0  0  0  0  0  0  0  0  0  0  0
   93.2987   13.2851   94.7513 O   0  0  0  0  0  0  0  0  0  0  0  0
   97.1049    8.4991   97.8779 C   0  0  0  0  0  0  0  0  0  0  0  0
   97.1408    9.5595   99.8905 C   0  0  0  0  0  0  0  0  0  0  0  0
   95.9196   10.1780   99.5396 C   0  0  0  0  0  0  0  0  0  0  0  0
   95.3630    9.9134   98.3125 C   0  0  0  0  0  0  0  0  0  0  0  0
   93.0394   11.9230   96.8691 C   0  0  2  0  0  0  0  0  0  0  0  0
   94.1115   11.2368   94.9852 C   0  0  1  0  0  0  0  0  0  0  0  0
   93.9324   12.3186   95.5810 C   0  0  1  0  0  0  0  0  0  0  0  0
   93.3236   10.6788   97.2065 C   0  0  2  0  0  0  0  0  0  0  0  0
   94.2452   10.6394   98.2677 N   0  0  0  0  0  0  0  0  0  0  0  0
   97.8545   11.2737   94.5803 P   0  0  2  0  0  0  0  0  0  0  0  0
   93.5330   14.7409   95.2024 P   0  0  1  0  0  0  0  0  0  0  0  0
   95.7304   14.7277   93.7905 C   0  0  0  0  0  0  0  0  0  0  0  0
   95.0407   15.0983   94.9950 O   0  0  0  0  0  0  0  0  0  0  0  0
   97.1977   14.7611   93.8814 C   0  0  1  0  0  0  0  0  0  0  0  0
   97.6158   16.0982   94.6690 O   0  0  0  0  0  0  0  0  0  0  0  0
   97.6075   13.8088   94.5920 C   0  0  1  0  0  0  0  0  0  0  0  0
   97.8307   12.6062   93.8203 O   0  0  0  0  0  0  0  0  0  0  0  0
   98.8541   14.3617   95.2660 C   0  0  1  0  0  0  0  0  0  0  0  0
   99.8524   14.2381   94.5044 O   0  0  0  0  0  0  0  0  0  0  0  0
   98.5578   15.8500   95.4507 C   0  0  2  0  0  0  0  0  0  0  0  0
  100.7941   16.2347  100.0643 N   0  0  0  0  0  0  0  0  0  0  0  0
  101.2862   15.6052   98.9650 C   0  0  0  0  0  0  0  0  0  0  0  0
  100.5464   15.6309   97.8630 N   0  0  0  0  0  0  0  0  0  0  0  0
   99.3170   16.1834   97.7842 C   0  0  0  0  0  0  0  0  0  0  0  0
   98.7722   16.8464   98.9048 C   0  0  0  0  0  0  0  0  0  0  0  0
   99.5873   16.8318  100.0814 C   0  0  0  0  0  0  0  0  0  0  0  0
   99.1067   17.4579  101.2693 N   0  0  0  0  0  0  0  0  0  0  0  0
   97.6283   17.3082   98.5384 N   0  0  0  0  0  0  0  0  0  0  0  0
   97.4310   17.0018   97.2679 C   0  0  0  0  0  0  0  0  0  0  0  0
   98.4128   16.3154   96.8029 N   0  0  0  0  0  0  0  0  0  0  0  0
  1 24  1  0  0  0  0
  1  4  2  0  0  0  0
  2 13  1  0  0  0  0
  2 21  1  0  0  0  0
  3 16  1  0  0  0  0
  4 18  1  0  0  0  0
  5 19  2  0  0  0  0
  5 16  1  0  0  0  0
  6 16  2  0  0  0  0
  6 17  1  0  0  0  0
  7 17  1  0  0  0  0
 11 25  2  0  0  0  0
 12 26  2  0  0  0  0
 13 25  1  0  0  0  0
 14 23  1  0  0  0  0
 15 26  1  0  0  0  0
 17 18  2  0  0  0  0
 18 19  1  0  0  0  0
 19 24  1  0  0  0  0
 20 10  1  6  0  0  0
 20 22  1  0  0  0  0
 20 23  1  0  0  0  0
 21 14  1  1  0  0  0
 21 22  1  0  0  0  0
 22 15  1  6  0  0  0
 23 24  1  1  0  0  0
 25  8  1  6  0  0  0
 25 32  1  0  0  0  0
 26  9  1  6  0  0  0
 26 28  1  0  0  0  0
 27 28  1  0  0  0  0
 29 27  1  1  0  0  0
 29 30  1  0  0  0  0
 29 31  1  0  0  0  0
 30 35  1  0  0  0  0
 31 33  1  0  0  0  0
 31 32  1  6  0  0  0
 33 34  1  6  0  0  0
 33 35  1  0  0  0  0
 35 45  1  1  0  0  0
 36 41  2  0  0  0  0
 36 37  1  0  0  0  0
 37 38  2  0  0  0  0
 38 39  1  0  0  0  0
 39 40  2  0  0  0  0
 39 45  1  0  0  0  0
 40 41  1  0  0  0  0
 40 43  1  0  0  0  0
 41 42  1  0  0  0  0
 43 44  2  0  0  0  0
 44 45  1  0  0  0  0
M  CHG  4   8  -1   9  -1  11  -1  12  -1
M  END
>  <CHROM.1>
165.12740760,-178.20807013,96.54474451,12.99395092,96.64158853,-2.38763718
-0.67088774,-0.42027309

>  <Name>
ligand

>  <RI>
0

>  <Rbt.Current_Directory>
/home/itssahil/PROJECTS/Mol_Feturizer/New_Systems/rnas/4YAZ

>  <Rbt.Executable>
rbdock ($Id: //depot/dev/client3/rdock/2013.1/src/exe/rbdock.cxx#4 $)

>  <Rbt.Library>
libRbt.so (2013.1, Build901 2013/11/27)

>  <Rbt.Parameter_File>
/export/apps/rDock/src/rDock_2013.1_src/data/scripts/dock_solv.prm

>  <Rbt.Receptor>
prm/pocket_docking_3.prm

>  <SCORE>
-39.9641

>  <SCORE.INTER>
-40.3909

>  <SCORE.INTER.CONST>
1

>  <SCORE.INTER.POLAR>
0

>  <SCORE.INTER.ROT>
2

>  <SCORE.INTER.SOLV>
27.3279

>  <SCORE.INTER.VDW>
-40.9699

>  <SCORE.INTER.norm>
-0.897576

>  <SCORE.INTRA>
0.426823

>  <SCORE.INTRA.DIHEDRAL>
0.00953485

>  <SCORE.INTRA.DIHEDRAL.0>
2.39103

>  <SCORE.INTRA.POLAR>
0

>  <SCORE.INTRA.POLAR.0>
0

>  <SCORE.INTRA.REPUL>
0

>  <SCORE.INTRA.REPUL.0>
0

>  <SCORE.INTRA.SOLV>
2.06101

>  <SCORE.INTRA.SOLV.lig_0>
-163.975

>  <SCORE.INTRA.VDW>
-0.608448

>  <SCORE.INTRA.VDW.0>
-1.49176

>  <SCORE.INTRA.norm>
0.00948496

>  <SCORE.RESTR>
0

>  <SCORE.RESTR.CAVITY>
0

>  <SCORE.RESTR.norm>
0

>  <SCORE.SYSTEM>
0

>  <SCORE.SYSTEM.CONST>
0

>  <SCORE.SYSTEM.DIHEDRAL>
0

>  <SCORE.SYSTEM.SOLV>
0

>  <SCORE.SYSTEM.norm>
0

>  <SCORE.heavy>
45

>  <SCORE.norm>
-0.888091

>  <RMSD>
6.847

$$$$
ligand
 OpenBabel11021811513D
libRbt.so/2013.1/901 2013/11/27
 45 51  0  0  0  0  0  0  0  0999 V2000
   96.1735   10.0834   97.6814 C   0  0  0  0  0  0  0  0  0  0  0  0
   95.1216   11.1837   94.0245 C   0  0  0  0  0  0  0  0  0  0  0  0
   94.0002   11.3346  102.7916 N   0  0  0  0  0  0  0  0  0  0  0  0
   97.0678    9.9447   98.6057 N   0  0  0  0  0  0  0  0  0  0  0  0
   94.3865   10.9696  100.5170 N   0  0  0  0  0  0  0  0  0  0  0  0
   96.1113   10.6592  102.0482 N   0  0  0  0  0  0  0  0  0  0  0  0
   98.2762    9.9053  101.3277 O   0  0  0  0  0  0  0  0  0  0  0  0
   97.4806    9.7720   92.6033 O   0  5  0  0  0  0  0  0  0  0  0  0
   93.4815   15.8417   94.8968 O   0  5  0  0  0  0  0  0  0  0  0  0
   92.4697   12.5385   97.2853 O   0  0  0  0  0  0  0  0  0  0  0  0
   98.7385   10.5129   94.2832 O   0  5  0  0  0  0  0  0  0  0  0  0
   94.2133   15.2147   96.9136 O   0  5  0  0  0  0  0  0  0  0  0  0
   96.2392   10.5178   94.4583 O   0  0  0  0  0  0  0  0  0  0  0  0
   94.0069   10.1350   96.0613 O   0  0  0  0  0  0  0  0  0  0  0  0
   93.6361   13.4846   95.1323 O   0  0  0  0  0  0  0  0  0  0  0  0
   94.8823   10.9789  101.7267 C   0  0  0  0  0  0  0  0  0  0  0  0
   96.9546   10.2825  101.0965 C   0  0  0  0  0  0  0  0  0  0  0  0
   96.4972   10.2666   99.7595 C   0  0  0  0  0  0  0  0  0  0  0  0
   95.1935   10.6059   99.4934 C   0  0  0  0  0  0  0  0  0  0  0  0
   93.7539   12.0435   97.2100 C   0  0  2  0  0  0  0  0  0  0  0  0
   94.1028   11.3188   95.0835 C   0  0  1  0  0  0  0  0  0  0  0  0
   94.2974   12.3723   95.7235 C   0  0  1  0  0  0  0  0  0  0  0  0
   93.8960   10.7494   97.4286 C   0  0  2  0  0  0  0  0  0  0  0  0
   95.0598   10.4857   98.1720 N   0  0  0  0  0  0  0  0  0  0  0  0
   97.5180   10.7620   93.5996 P   0  0  2  0  0  0  0  0  0  0  0  0
   94.2453   14.8473   95.5190 P   0  0  1  0  0  0  0  0  0  0  0  0
   95.9086   14.5660   93.5249 C   0  0  0  0  0  0  0  0  0  0  0  0
   95.6695   14.9630   94.8847 O   0  0  0  0  0  0  0  0  0  0  0  0
   97.3221   14.3494   93.1821 C   0  0  1  0  0  0  0  0  0  0  0  0
   98.1794   15.5419   93.8347 O   0  0  0  0  0  0  0  0  0  0  0  0
   97.7411   13.2962   93.7253 C   0  0  1  0  0  0  0  0  0  0  0  0
   97.5162   12.1286   92.9022 O   0  0  0  0  0  0  0  0  0  0  0  0
   99.2060   13.5876   94.0133 C   0  0  1  0  0  0  0  0  0  0  0  0
   99.9063   13.3523   92.9906 O   0  0  0  0  0  0  0  0  0  0  0  0
   99.2453   15.0884   94.3015 C   0  0  2  0  0  0  0  0  0  0  0  0
   97.5390   17.2910   98.6226 N   0  0  0  0  0  0  0  0  0  0  0  0
   96.8686   17.1645   97.4473 C   0  0  0  0  0  0  0  0  0  0  0  0
   97.4934   16.5506   96.4497 N   0  0  0  0  0  0  0  0  0  0  0  0
   98.7663   16.1043   96.5087 C   0  0  0  0  0  0  0  0  0  0  0  0
   99.4949   16.2176   97.7121 C   0  0  0  0  0  0  0  0  0  0  0  0
   98.8044   16.8615   98.7881 C   0  0  0  0  0  0  0  0  0  0  0  0
   99.4718   17.0405  100.0357 N   0  0  0  0  0  0  0  0  0  0  0  0
  100.6440   15.6792   97.4983 N   0  0  0  0  0  0  0  0  0  0  0  0
  100.6764   15.2195   96.2595 C   0  0  0  0  0  0  0  0  0  0  0  0
   99.5782   15.4783   95.6443 N   0  0  0  0  0  0  0  0  0  0  0  0
  1 24  1  0  0  0  0
  1  4  2  0  0  0  0
  2 13  1  0  0  0  0
  2 21  1  0  0  0  0
  3 16  1  0  0  0  0
  4 18  1  0  0  0  0
  5 19  2  0  0  0  0
  5 16  1  0  0  0  0
  6 16  2  0  0  0  0
  6 17  1  0  0  0  0
  7 17  1  0  0  0  0
 11 25  2  0  0  0  0
 12 26  2  0  0  0  0
 13 25  1  0  0  0  0
 14 23  1  0  0  0  0
 15 26  1  0  0  0  0
 17 18  2  0  0  0  0
 18 19  1  0  0  0  0
 19 24  1  0  0  0  0
 20 10  1  6  0  0  0
 20 22  1  0  0  0  0
 20 23  1  0  0  0  0
 21 14  1  1  0  0  0
 21 22  1  0  0  0  0
 22 15  1  6  0  0  0
 23 24  1  1  0  0  0
 25  8  1  6  0  0  0
 25 32  1  0  0  0  0
 26  9  1  6  0  0  0
 26 28  1  0  0  0  0
 27 28  1  0  0  0  0
 29 27  1  1  0  0  0
 29 30  1  0  0  0  0
 29 31  1  0  0  0  0
 30 35  1  0  0  0  0
 31 33  1  0  0  0  0
 31 32  1  6  0  0  0
 33 34  1  6  0  0  0
 33 35  1  0  0  0  0
 35 45  1  1  0  0  0
 36 41  2  0  0  0  0
 36 37  1  0  0  0  0
 37 38  2  0  0  0  0
 38 39  1  0  0  0  0
 39 40  2  0  0  0  0
 39 45  1  0  0  0  0
 40 41  1  0  0  0  0
 40 43  1  0  0  0  0
 41 42  1  0  0  0  0
 43 44  2  0  0  0  0
 44 45  1  0  0  0  0
M  CHG  4   8  -1   9  -1  11  -1  12  -1
M  END
>  <CHROM.1>
16.00497572,11.04429776,96.54255994,13.01348980,96.49766773,2.39559456,0.99007660
1.45055259

>  <Name>
ligand

>  <RI>
0

>  <Rbt.Current_Directory>
/home/itssahil/PROJECTS/Mol_Feturizer/New_Systems/rnas/4YAZ

>  <Rbt.Executable>
rbdock ($Id: //depot/dev/client3/rdock/2013.1/src/exe/rbdock.cxx#4 $)

>  <Rbt.Library>
libRbt.so (2013.1, Build901 2013/11/27)

>  <Rbt.Parameter_File>
/export/apps/rDock/src/rDock_2013.1_src/data/scripts/dock_solv.prm

>  <Rbt.Receptor>
prm/pocket_docking_2.prm

>  <SCORE>
-31.2412

>  <SCORE.INTER>
-30.9199

>  <SCORE.INTER.CONST>
1

>  <SCORE.INTER.POLAR>
0

>  <SCORE.INTER.ROT>
2

>  <SCORE.INTER.SOLV>
37.728

>  <SCORE.INTER.VDW>
-38.1226

>  <SCORE.INTER.norm>
-0.68711

>  <SCORE.INTRA>
-0.966056

>  <SCORE.INTRA.DIHEDRAL>
-0.0477593

>  <SCORE.INTRA.DIHEDRAL.0>
2.39103

>  <SCORE.INTRA.POLAR>
0

>  <SCORE.INTRA.POLAR.0>
0

>  <SCORE.INTRA.REPUL>
0

>  <SCORE.INTRA.REPUL.0>
0

>  <SCORE.INTRA.SOLV>
0.878565

>  <SCORE.INTRA.SOLV.lig_0>
-163.975

>  <SCORE.INTRA.VDW>
-1.38146

>  <SCORE.INTRA.VDW.0>
-1.49176

>  <SCORE.INTRA.norm>
-0.0214679

>  <SCORE.RESTR>
0.644829

>  <SCORE.RESTR.CAVITY>
0.644829

>  <SCORE.RESTR.norm>
0.0143295

>  <SCORE.SYSTEM>
0

>  <SCORE.SYSTEM.CONST>
0

>  <SCORE.SYSTEM.DIHEDRAL>
0

>  <SCORE.SYSTEM.SOLV>
0

>  <SCORE.SYSTEM.norm>
0

>  <SCORE.heavy>
45

>  <SCORE.norm>
-0.694248

>  <RMSD>
6.848

$$$$
ligand
 OpenBabel11021811513D
libRbt.so/2013.1/901 2013/11/27
 45 51  0  0  0  0  0  0  0  0999 V2000
   94.1860   11.3494   99.3513 C   0  0  0  0  0  0  0  0  0  0  0  0
   95.4254   11.2402   94.2687 C   0  0  0  0  0  0  0  0  0  0  0  0
   97.7762    7.5959   97.0222 N   0  0  0  0  0  0  0  0  0  0  0  0
   95.1747   11.1059  100.1490 N   0  0  0  0  0  0  0  0  0  0  0  0
   96.0122    9.0466   97.5126 N   0  0  0  0  0  0  0  0  0  0  0  0
   97.7197    8.7353   99.0628 N   0  0  0  0  0  0  0  0  0  0  0  0
   97.7272    9.9369  101.1439 O   0  0  0  0  0  0  0  0  0  0  0  0
   98.2983   10.2487   93.6848 O   0  5  0  0  0  0  0  0  0  0  0  0
   92.8414   15.5379   94.2681 O   0  5  0  0  0  0  0  0  0  0  0  0
   91.7518   12.1739   96.5344 O   0  0  0  0  0  0  0  0  0  0  0  0
   98.8701   11.2568   95.5848 O   0  5  0  0  0  0  0  0  0  0  0  0
   93.0505   15.1145   96.4528 O   0  5  0  0  0  0  0  0  0  0  0  0
   96.4644   10.8049   95.0507 O   0  0  0  0  0  0  0  0  0  0  0  0
   93.9608   10.0619   95.9883 O   0  0  0  0  0  0  0  0  0  0  0  0
   93.3162   13.2576   94.7263 O   0  0  0  0  0  0  0  0  0  0  0  0
   97.1286    8.5000   97.9178 C   0  0  0  0  0  0  0  0  0  0  0  0
   97.1758    9.5995   99.9092 C   0  0  0  0  0  0  0  0  0  0  0  0
   95.9564   10.2167   99.5499 C   0  0  0  0  0  0  0  0  0  0  0  0
   95.3946    9.9307   98.3300 C   0  0  0  0  0  0  0  0  0  0  0  0
   93.0668   11.9227   96.8625 C   0  0  2  0  0  0  0  0  0  0  0  0
   94.1353   11.2148   94.9848 C   0  0  1  0  0  0  0  0  0  0  0  0
   93.9550   12.3039   95.5668 C   0  0  1  0  0  0  0  0  0  0  0  0
   93.3554   10.6839   97.2155 C   0  0  2  0  0  0  0  0  0  0  0  0
   94.2801   10.6609   98.2743 N   0  0  0  0  0  0  0  0  0  0  0  0
   97.8771   11.2566   94.5685 P   0  0  2  0  0  0  0  0  0  0  0  0
   93.5478   14.7199   95.1575 P   0  0  1  0  0  0  0  0  0  0  0  0
   95.7412   14.6941   93.7396 C   0  0  0  0  0  0  0  0  0  0  0  0
   95.0539   15.0786   94.9411 O   0  0  0  0  0  0  0  0  0  0  0  0
   97.2087   14.7327   93.8257 C   0  0  1  0  0  0  0  0  0  0  0  0
   97.6254   16.0811   94.5945 O   0  0  0  0  0  0  0  0  0  0  0  0
   97.6231   13.7909   94.5476 C   0  0  1  0  0  0  0  0  0  0  0  0
   97.8474   12.5789   93.7911 O   0  0  0  0  0  0  0  0  0  0  0  0
   98.8701   14.3559   95.2106 C   0  0  1  0  0  0  0  0  0  0  0  0
   99.8665   14.2251   94.4478 O   0  0  0  0  0  0  0  0  0  0  0  0
   98.5702   15.8458   95.3766 C   0  0  2  0  0  0  0  0  0  0  0  0
  100.7907   16.2352   99.9974 N   0  0  0  0  0  0  0  0  0  0  0  0
  101.2756   15.5842   98.9076 C   0  0  0  0  0  0  0  0  0  0  0  0
  100.5419   15.6128   97.8015 N   0  0  0  0  0  0  0  0  0  0  0  0
   99.3243   16.1889   97.7104 C   0  0  0  0  0  0  0  0  0  0  0  0
   98.7873   16.8747   98.8209 C   0  0  0  0  0  0  0  0  0  0  0  0
   99.5961   16.8565  100.0019 C   0  0  0  0  0  0  0  0  0  0  0  0
   99.1222   17.5049  101.1805 N   0  0  0  0  0  0  0  0  0  0  0  0
   97.6548   17.3554   98.4437 N   0  0  0  0  0  0  0  0  0  0  0  0
   97.4578   17.0394   97.1756 C   0  0  0  0  0  0  0  0  0  0  0  0
   98.4279   16.3285   96.7230 N   0  0  0  0  0  0  0  0  0  0  0  0
  1 24  1  0  0  0  0
  1  4  2  0  0  0  0
  2 13  1  0  0  0  0
  2 21  1  0  0  0  0
  3 16  1  0  0  0  0
  4 18  1  0  0  0  0
  5 19  2  0  0  0  0
  5 16  1  0  0  0  0
  6 16  2  0  0  0  0
  6 17  1  0  0  0  0
  7 17  1  0  0  0  0
 11 25  2  0  0  0  0
 12 26  2  0  0  0  0
 13 25  1  0  0  0  0
 14 23  1  0  0  0  0
 15 26  1  0  0  0  0
 17 18  2  0  0  0  0
 18 19  1  0  0  0  0
 19 24  1  0  0  0  0
 20 10  1  6  0  0  0
 20 22  1  0  0  0  0
 20 23  1  0  0  0  0
 21 14  1  1  0  0  0
 21 22  1  0  0  0  0
 22 15  1  6  0  0  0
 23 24  1  1  0  0  0
 25  8  1  6  0  0  0
 25 32  1  0  0  0  0
 26  9  1  6  0  0  0
 26 28  1  0  0  0  0
 27 28  1  0  0  0  0
 29 27  1  1  0  0  0
 29 30  1  0  0  0  0
 29 31  1  0  0  0  0
 30 35  1  0  0  0  0
 31 33  1  0  0  0  0
 31 32  1  6  0  0  0
 33 34  1  6  0  0  0
 33 35  1  0  0  0  0
 35 45  1  1  0  0  0
 36 41  2  0  0  0  0
 36 37  1  0  0  0  0
 37 38  2  0  0  0  0
 38 39  1  0  0  0  0
 39 40  2  0  0  0  0
 39 45  1  0  0  0  0
 40 41  1  0  0  0  0
 40 43  1  0  0  0  0
 41 42  1  0  0  0  0
 43 44  2  0  0  0  0
 44 45  1  0  0  0  0
M  CHG  4   8  -1   9  -1  11  -1  12  -1
M  END
>  <CHROM.1>
164.56454686,-179.59959189,96.56490362,12.99301347,96.61362140,-2.37909389
-0.67163495,-0.43299237

>  <Name>
ligand

>  <RI>
0

>  <Rbt.Current_Directory>
/home/itssahil/PROJECTS/Mol_Feturizer/New_Systems/rnas/4YAZ

>  <Rbt.Executable>
rbdock ($Id: //depot/dev/client3/rdock/2013.1/src/exe/rbdock.cxx#4 $)

>  <Rbt.Library>
libRbt.so (2013.1, Build901 2013/11/27)

>  <Rbt.Parameter_File>
/export/apps/rDock/src/rDock_2013.1_src/data/scripts/dock_solv.prm

>  <Rbt.Receptor>
prm/pocket_docking_5.prm

>  <SCORE>
-39.8677

>  <SCORE.INTER>
-40.2208

>  <SCORE.INTER.CONST>
1

>  <SCORE.INTER.POLAR>
0

>  <SCORE.INTER.ROT>
2

>  <SCORE.INTER.SOLV>
27.5379

>  <SCORE.INTER.VDW>
-40.9265

>  <SCORE.INTER.norm>
-0.893796

>  <SCORE.INTRA>
0.353139

>  <SCORE.INTRA.DIHEDRAL>
-0.000296036

>  <SCORE.INTRA.DIHEDRAL.0>
2.39103

>  <SCORE.INTRA.POLAR>
0

>  <SCORE.INTRA.POLAR.0>
0

>  <SCORE.INTRA.REPUL>
0

>  <SCORE.INTRA.REPUL.0>
0

>  <SCORE.INTRA.SOLV>
1.7994

>  <SCORE.INTRA.SOLV.lig_0>
-163.975

>  <SCORE.INTRA.VDW>
-0.546413

>  <SCORE.INTRA.VDW.0>
-1.49176

>  <SCORE.INTRA.norm>
0.00784752

>  <SCORE.RESTR>
0

>  <SCORE.RESTR.CAVITY>
0

>  <SCORE.RESTR.norm>
0

>  <SCORE.SYSTEM>
0

>  <SCORE.SYSTEM.CONST>
0

>  <SCORE.SYSTEM.DIHEDRAL>
0

>  <SCORE.SYSTEM.SOLV>
0

>  <SCORE.SYSTEM.norm>
0

>  <SCORE.heavy>
45

>  <SCORE.norm>
-0.885949

>  <RMSD>
6.848

$$$$
ligand
 OpenBabel11021811513D
libRbt.so/2013.1/901 2013/11/27
 45 51  0  0  0  0  0  0  0  0999 V2000
   96.5396   10.0134   98.3044 C   0  0  0  0  0  0  0  0  0  0  0  0
   95.6812   10.7349   94.5140 C   0  0  0  0  0  0  0  0  0  0  0  0
   93.9623   11.4526  103.1715 N   0  0  0  0  0  0  0  0  0  0  0  0
   97.3743    9.9789   99.2920 N   0  0  0  0  0  0  0  0  0  0  0  0
   94.5210   10.9721  100.9549 N   0  0  0  0  0  0  0  0  0  0  0  0
   96.1501   10.8478  102.6121 N   0  0  0  0  0  0  0  0  0  0  0  0
   98.3939   10.1690  102.0841 O   0  0  0  0  0  0  0  0  0  0  0  0
   98.1722    9.3014   93.3662 O   0  5  0  0  0  0  0  0  0  0  0  0
   93.8343   15.3827   94.8811 O   0  5  0  0  0  0  0  0  0  0  0  0
   92.7817   12.2542   97.4781 O   0  0  0  0  0  0  0  0  0  0  0  0
   99.2943   10.2283   95.0501 O   0  5  0  0  0  0  0  0  0  0  0  0
   94.4555   14.9553   96.9852 O   0  5  0  0  0  0  0  0  0  0  0  0
   96.7901   10.1513   95.0709 O   0  0  0  0  0  0  0  0  0  0  0  0
   94.4735    9.8179   96.5613 O   0  0  0  0  0  0  0  0  0  0  0  0
   94.0518   13.0613   95.3272 O   0  0  0  0  0  0  0  0  0  0  0  0
   94.9317   11.0810  102.1913 C   0  0  0  0  0  0  0  0  0  0  0  0
   97.0742   10.4600  101.7435 C   0  0  0  0  0  0  0  0  0  0  0  0
   96.7108   10.3389  100.3832 C   0  0  0  0  0  0  0  0  0  0  0  0
   95.4132   10.5911  100.0115 C   0  0  0  0  0  0  0  0  0  0  0  0
   94.0839   11.8046   97.5243 C   0  0  2  0  0  0  0  0  0  0  0  0
   94.5925   10.9186   95.4932 C   0  0  1  0  0  0  0  0  0  0  0  0
   94.7105   12.0287   96.0510 C   0  0  1  0  0  0  0  0  0  0  0  0
   94.2546   10.5397   97.8614 C   0  0  2  0  0  0  0  0  0  0  0  0
   95.3764   10.3842   98.6946 N   0  0  0  0  0  0  0  0  0  0  0  0
   98.1126   10.3720   94.2742 P   0  0  2  0  0  0  0  0  0  0  0  0
   94.5893   14.4741   95.6319 P   0  0  1  0  0  0  0  0  0  0  0  0
   96.3857   14.0914   93.7749 C   0  0  0  0  0  0  0  0  0  0  0  0
   96.0466   14.5913   95.0783 O   0  0  0  0  0  0  0  0  0  0  0  0
   97.8247   13.9016   93.5390 C   0  0  1  0  0  0  0  0  0  0  0  0
   98.5981   15.1768   94.1380 O   0  0  0  0  0  0  0  0  0  0  0  0
   98.2427   12.9145   94.1953 C   0  0  1  0  0  0  0  0  0  0  0  0
   98.1101   11.6743   93.4633 O   0  0  0  0  0  0  0  0  0  0  0  0
   99.6756   13.2853   94.5462 C   0  0  1  0  0  0  0  0  0  0  0  0
  100.4476   12.9926   93.5922 O   0  0  0  0  0  0  0  0  0  0  0  0
   99.6464   14.8054   94.7064 C   0  0  2  0  0  0  0  0  0  0  0  0
   97.6001   17.3127   98.7014 N   0  0  0  0  0  0  0  0  0  0  0  0
   97.0126   17.0652   97.5013 C   0  0  0  0  0  0  0  0  0  0  0  0
   97.7181   16.3887   96.6029 N   0  0  0  0  0  0  0  0  0  0  0  0
   98.9956   15.9900   96.7816 C   0  0  0  0  0  0  0  0  0  0  0  0
   99.6396   16.2286   98.0145 C   0  0  0  0  0  0  0  0  0  0  0  0
   98.8626   16.9395   98.9841 C   0  0  0  0  0  0  0  0  0  0  0  0
   99.4409   17.2454  100.2514 N   0  0  0  0  0  0  0  0  0  0  0  0
  100.8140   15.7109   97.9221 N   0  0  0  0  0  0  0  0  0  0  0  0
  100.9405   15.1485   96.7327 C   0  0  0  0  0  0  0  0  0  0  0  0
   99.8791   15.3188   96.0286 N   0  0  0  0  0  0  0  0  0  0  0  0
  1 24  1  0  0  0  0
  1  4  2  0  0  0  0
  2 13  1  0  0  0  0
  2 21  1  0  0  0  0
  3 16  1  0  0  0  0
  4 18  1  0  0  0  0
  5 19  2  0  0  0  0
  5 16  1  0  0  0  0
  6 16  2  0  0  0  0
  6 17  1  0  0  0  0
  7 17  1  0  0  0  0
 11 25  2  0  0  0  0
 12 26  2  0  0  0  0
 13 25  1  0  0  0  0
 14 23  1  0  0  0  0
 15 26  1  0  0  0  0
 17 18  2  0  0  0  0
 18 19  1  0  0  0  0
 19 24  1  0  0  0  0
 20 10  1  6  0  0  0
 20 22  1  0  0  0  0
 20 23  1  0  0  0  0
 21 14  1  1  0  0  0
 21 22  1  0  0  0  0
 22 15  1  6  0  0  0
 23 24  1  1  0  0  0
 25  8  1  6  0  0  0
 25 32  1  0  0  0  0
 26  9  1  6  0  0  0
 26 28  1  0  0  0  0
 27 28  1  0  0  0  0
 29 27  1  1  0  0  0
 29 30  1  0  0  0  0
 29 31  1  0  0  0  0
 30 35  1  0  0  0  0
 31 33  1  0  0  0  0
 31 32  1  6  0  0  0
 33 34  1  6  0  0  0
 33 35  1  0  0  0  0
 35 45  1  1  0  0  0
 36 41  2  0  0  0  0
 36 37  1  0  0  0  0
 37 38  2  0  0  0  0
 38 39  1  0  0  0  0
 39 40  2  0  0  0  0
 39 45  1  0  0  0  0
 40 41  1  0  0  0  0
 40 43  1  0  0  0  0
 41 42  1  0  0  0  0
 43 44  2  0  0  0  0
 44 45  1  0  0  0  0
M  CHG  4   8  -1   9  -1  11  -1  12  -1
M  END
>  <CHROM.1>
17.60037479,10.62108038,96.87688226,12.81177735,96.90398242,2.53104057,1.01489429
1.26187653

>  <Name>
ligand

>  <RI>
0

>  <Rbt.Current_Directory>
/home/itssahil/PROJECTS/Mol_Feturizer/New_Systems/rnas/4YAZ

>  <Rbt.Executable>
rbdock ($Id: //depot/dev/client3/rdock/2013.1/src/exe/rbdock.cxx#4 $)

>  <Rbt.Library>
libRbt.so (2013.1, Build901 2013/11/27)

>  <Rbt.Parameter_File>
/export/apps/rDock/src/rDock_2013.1_src/data/scripts/dock_solv.prm

>  <Rbt.Receptor>
prm/pocket_docking_4.prm

>  <SCORE>
-34.1056

>  <SCORE.INTER>
-33.1254

>  <SCORE.INTER.CONST>
1

>  <SCORE.INTER.POLAR>
0

>  <SCORE.INTER.ROT>
2

>  <SCORE.INTER.SOLV>
39.4418

>  <SCORE.INTER.VDW>
-40.1642

>  <SCORE.INTER.norm>
-0.736119

>  <SCORE.INTRA>
-0.98019

>  <SCORE.INTRA.DIHEDRAL>
-0.0447413

>  <SCORE.INTRA.DIHEDRAL.0>
2.39103

>  <SCORE.INTRA.POLAR>
0

>  <SCORE.INTRA.POLAR.0>
0

>  <SCORE.INTRA.REPUL>
0

>  <SCORE.INTRA.REPUL.0>
0

>  <SCORE.INTRA.SOLV>
0.855726

>  <SCORE.INTRA.SOLV.lig_0>
-163.975

>  <SCORE.INTRA.VDW>
-1.38568

>  <SCORE.INTRA.VDW.0>
-1.49176

>  <SCORE.INTRA.norm>
-0.021782

>  <SCORE.RESTR>
0

>  <SCORE.RESTR.CAVITY>
0

>  <SCORE.RESTR.norm>
0

>  <SCORE.SYSTEM>
0

>  <SCORE.SYSTEM.CONST>
0

>  <SCORE.SYSTEM.DIHEDRAL>
0

>  <SCORE.SYSTEM.SOLV>
0

>  <SCORE.SYSTEM.norm>
0

>  <SCORE.heavy>
45

>  <SCORE.norm>
-0.757901

>  <RMSD>
6.849

$$$$
ligand
 OpenBabel11021811513D
libRbt.so/2013.1/901 2013/11/27
 45 51  0  0  0  0  0  0  0  0999 V2000
   94.2103   11.3279   99.3773 C   0  0  0  0  0  0  0  0  0  0  0  0
   95.4186   11.2864   94.2917 C   0  0  0  0  0  0  0  0  0  0  0  0
   97.7828    7.5857   97.0031 N   0  0  0  0  0  0  0  0  0  0  0  0
   95.2029   11.0774  100.1680 N   0  0  0  0  0  0  0  0  0  0  0  0
   96.0235    9.0353   97.5129 N   0  0  0  0  0  0  0  0  0  0  0  0
   97.7388    8.7111   99.0518 N   0  0  0  0  0  0  0  0  0  0  0  0
   97.7591    9.8982  101.1410 O   0  0  0  0  0  0  0  0  0  0  0  0
   98.2943   10.3203   93.6798 O   0  5  0  0  0  0  0  0  0  0  0  0
   92.8088   15.5680   94.3620 O   0  5  0  0  0  0  0  0  0  0  0  0
   91.7513   12.1674   96.5886 O   0  0  0  0  0  0  0  0  0  0  0  0
   98.8699   11.3063   95.5903 O   0  5  0  0  0  0  0  0  0  0  0  0
   93.0320   15.1166   96.5398 O   0  5  0  0  0  0  0  0  0  0  0  0
   96.4642   10.8469   95.0624 O   0  0  0  0  0  0  0  0  0  0  0  0
   93.9700   10.0764   96.0029 O   0  0  0  0  0  0  0  0  0  0  0  0
   93.2997   13.2847   94.7872 O   0  0  0  0  0  0  0  0  0  0  0  0
   97.1413    8.4845   97.9083 C   0  0  0  0  0  0  0  0  0  0  0  0
   97.2007    9.5701   99.9070 C   0  0  0  0  0  0  0  0  0  0  0  0
   95.9802   10.1914   99.5586 C   0  0  0  0  0  0  0  0  0  0  0  0
   95.4115    9.9146   98.3397 C   0  0  0  0  0  0  0  0  0  0  0  0
   93.0694   11.9199   96.9066 C   0  0  2  0  0  0  0  0  0  0  0  0
   94.1324   11.2436   95.0140 C   0  0  1  0  0  0  0  0  0  0  0  0
   93.9486   12.3237   95.6115 C   0  0  1  0  0  0  0  0  0  0  0  0
   93.3673   10.6782   97.2414 C   0  0  2  0  0  0  0  0  0  0  0  0
   94.2977   10.6466   98.2951 N   0  0  0  0  0  0  0  0  0  0  0  0
   97.8716   11.3136   94.5791 P   0  0  2  0  0  0  0  0  0  0  0  0
   93.5248   14.7424   95.2368 P   0  0  1  0  0  0  0  0  0  0  0  0
   95.7109   14.7489   93.8074 C   0  0  0  0  0  0  0  0  0  0  0  0
   95.0276   15.1131   95.0175 O   0  0  0  0  0  0  0  0  0  0  0  0
   97.1785   14.7952   93.8865 C   0  0  1  0  0  0  0  0  0  0  0  0
   97.5911   16.1358   94.6711 O   0  0  0  0  0  0  0  0  0  0  0  0
   97.6024   13.8464   94.5935 C   0  0  1  0  0  0  0  0  0  0  0  0
   97.8300   12.6460   93.8197 O   0  0  0  0  0  0  0  0  0  0  0  0
   98.8494   14.4101   95.2576 C   0  0  1  0  0  0  0  0  0  0  0  0
   99.8426   14.2955   94.4880 O   0  0  0  0  0  0  0  0  0  0  0  0
   98.5415   15.8957   95.4451 C   0  0  2  0  0  0  0  0  0  0  0  0
  100.7890   16.2486  100.0558 N   0  0  0  0  0  0  0  0  0  0  0  0
  101.2732   15.6168   98.9543 C   0  0  0  0  0  0  0  0  0  0  0  0
  100.5319   15.6520   97.8536 N   0  0  0  0  0  0  0  0  0  0  0  0
   99.3077   16.2166   97.7781 C   0  0  0  0  0  0  0  0  0  0  0  0
   98.7712   16.8824   98.9010 C   0  0  0  0  0  0  0  0  0  0  0  0
   99.5881   16.8573  100.0763 C   0  0  0  0  0  0  0  0  0  0  0  0
   99.1156   17.4855  101.2663 N   0  0  0  0  0  0  0  0  0  0  0  0
   97.6313   17.3560   98.5376 N   0  0  0  0  0  0  0  0  0  0  0  0
   97.4289   17.0544   97.2667 C   0  0  0  0  0  0  0  0  0  0  0  0
   98.4032   16.3595   96.7985 N   0  0  0  0  0  0  0  0  0  0  0  0
  1 24  1  0  0  0  0
  1  4  2  0  0  0  0
  2 13  1  0  0  0  0
  2 21  1  0  0  0  0
  3 16  1  0  0  0  0
  4 18  1  0  0  0  0
  5 19  2  0  0  0  0
  5 16  1  0  0  0  0
  6 16  2  0  0  0  0
  6 17  1  0  0  0  0
  7 17  1  0  0  0  0
 11 25  2  0  0  0  0
 12 26  2  0  0  0  0
 13 25  1  0  0  0  0
 14 23  1  0  0  0  0
 15 26  1  0  0  0  0
 17 18  2  0  0  0  0
 18 19  1  0  0  0  0
 19 24  1  0  0  0  0
 20 10  1  6  0  0  0
 20 22  1  0  0  0  0
 20 23  1  0  0  0  0
 21 14  1  1  0  0  0
 21 22  1  0  0  0  0
 22 15  1  6  0  0  0
 23 24  1  1  0  0  0
 25  8  1  6  0  0  0
 25 32  1  0  0  0  0
 26  9  1  6  0  0  0
 26 28  1  0  0  0  0
 27 28  1  0  0  0  0
 29 27  1  1  0  0  0
 29 30  1  0  0  0  0
 29 31  1  0  0  0  0
 30 35  1  0  0  0  0
 31 33  1  0  0  0  0
 31 32  1  6  0  0  0
 33 34  1  6  0  0  0
 33 35  1  0  0  0  0
 35 45  1  1  0  0  0
 36 41  2  0  0  0  0
 36 37  1  0  0  0  0
 37 38  2  0  0  0  0
 38 39  1  0  0  0  0
 39 40  2  0  0  0  0
 39 45  1  0  0  0  0
 40 41  1  0  0  0  0
 40 43  1  0  0  0  0
 41 42  1  0  0  0  0
 43 44  2  0  0  0  0
 44 45  1  0  0  0  0
M  CHG  4   8  -1   9  -1  11  -1  12  -1
M  END
>  <CHROM.1>
164.00175302,-179.33455872,96.55859780,13.01320376,96.65508528,-2.36559227
-0.66996442,-0.41485215

>  <Name>
ligand

>  <RI>
0

>  <Rbt.Current_Directory>
/home/itssahil/PROJECTS/Mol_Feturizer/New_Systems/rnas/4YAZ

>  <Rbt.Executable>
rbdock ($Id: //depot/dev/client3/rdock/2013.1/src/exe/rbdock.cxx#4 $)

>  <Rbt.Library>
libRbt.so (2013.1, Build901 2013/11/27)

>  <Rbt.Parameter_File>
/export/apps/rDock/src/rDock_2013.1_src/data/scripts/dock_solv.prm

>  <Rbt.Receptor>
prm/pocket_docking_4.prm

>  <SCORE>
-39.8267

>  <SCORE.INTER>
-40.0896

>  <SCORE.INTER.CONST>
1

>  <SCORE.INTER.POLAR>
0

>  <SCORE.INTER.ROT>
2

>  <SCORE.INTER.SOLV>
27.7839

>  <SCORE.INTER.VDW>
-40.921

>  <SCORE.INTER.norm>
-0.89088

>  <SCORE.INTRA>
0.26291

>  <SCORE.INTRA.DIHEDRAL>
0.00170402

>  <SCORE.INTRA.DIHEDRAL.0>
2.39103

>  <SCORE.INTRA.POLAR>
0

>  <SCORE.INTRA.POLAR.0>
0

>  <SCORE.INTRA.REPUL>
0

>  <SCORE.INTRA.REPUL.0>
0

>  <SCORE.INTRA.SOLV>
1.545

>  <SCORE.INTRA.SOLV.lig_0>
-163.975

>  <SCORE.INTRA.VDW>
-0.510444

>  <SCORE.INTRA.VDW.0>
-1.49176

>  <SCORE.INTRA.norm>
0.00584245

>  <SCORE.RESTR>
0

>  <SCORE.RESTR.CAVITY>
0

>  <SCORE.RESTR.norm>
0

>  <SCORE.SYSTEM>
0

>  <SCORE.SYSTEM.CONST>
0

>  <SCORE.SYSTEM.DIHEDRAL>
0

>  <SCORE.SYSTEM.SOLV>
0

>  <SCORE.SYSTEM.norm>
0

>  <SCORE.heavy>
45

>  <SCORE.norm>
-0.885038

>  <RMSD>
6.849

$$$$
ligand
 OpenBabel11021811513D
libRbt.so/2013.1/901 2013/11/27
 45 51  0  0  0  0  0  0  0  0999 V2000
   96.1821   10.0723   97.6497 C   0  0  0  0  0  0  0  0  0  0  0  0
   95.1209   11.1929   93.9995 C   0  0  0  0  0  0  0  0  0  0  0  0
   94.0235   11.3241  102.7660 N   0  0  0  0  0  0  0  0  0  0  0  0
   97.0792    9.9346   98.5713 N   0  0  0  0  0  0  0  0  0  0  0  0
   94.4031   10.9583  100.4904 N   0  0  0  0  0  0  0  0  0  0  0  0
   96.1327   10.6499  102.0164 N   0  0  0  0  0  0  0  0  0  0  0  0
   98.2960    9.8973  101.2897 O   0  0  0  0  0  0  0  0  0  0  0  0
   97.4831    9.7982   92.5670 O   0  5  0  0  0  0  0  0  0  0  0  0
   93.4628   15.8395   94.8980 O   0  5  0  0  0  0  0  0  0  0  0  0
   92.4692   12.5202   97.2718 O   0  0  0  0  0  0  0  0  0  0  0  0
   98.7410   10.5361   94.2483 O   0  5  0  0  0  0  0  0  0  0  0  0
   94.2009   15.2055   96.9103 O   0  5  0  0  0  0  0  0  0  0  0  0
   96.2420   10.5296   94.4279 O   0  0  0  0  0  0  0  0  0  0  0  0
   94.0143   10.1293   96.0330 O   0  0  0  0  0  0  0  0  0  0  0  0
   93.6277   13.4819   95.1215 O   0  0  0  0  0  0  0  0  0  0  0  0
   94.9025   10.9685  101.6986 C   0  0  0  0  0  0  0  0  0  0  0  0
   96.9735   10.2734  101.0624 C   0  0  0  0  0  0  0  0  0  0  0  0
   96.5120   10.2566   99.7268 C   0  0  0  0  0  0  0  0  0  0  0  0
   95.2073   10.5948   99.4645 C   0  0  0  0  0  0  0  0  0  0  0  0
   93.7554   12.0310   97.1917 C   0  0  2  0  0  0  0  0  0  0  0  0
   94.1034   11.3184   95.0610 C   0  0  1  0  0  0  0  0  0  0  0  0
   94.2948   12.3695   95.7059 C   0  0  1  0  0  0  0  0  0  0  0  0
   93.9033   10.7364   97.4035 C   0  0  2  0  0  0  0  0  0  0  0  0
   95.0696   10.4739   98.1436 N   0  0  0  0  0  0  0  0  0  0  0  0
   97.5182   10.7834   93.5681 P   0  0  2  0  0  0  0  0  0  0  0  0
   94.2319   14.8453   95.5139 P   0  0  1  0  0  0  0  0  0  0  0  0
   95.8927   14.5809   93.5154 C   0  0  0  0  0  0  0  0  0  0  0  0
   95.6544   14.9702   94.8776 O   0  0  0  0  0  0  0  0  0  0  0  0
   97.3065   14.3720   93.1689 C   0  0  1  0  0  0  0  0  0  0  0  0
   98.1599   15.5649   93.8259 O   0  0  0  0  0  0  0  0  0  0  0  0
   97.7308   13.3179   93.7061 C   0  0  1  0  0  0  0  0  0  0  0  0
   97.5093   12.1534   92.8776 O   0  0  0  0  0  0  0  0  0  0  0  0
   99.1951   13.6140   93.9929 C   0  0  1  0  0  0  0  0  0  0  0  0
   99.8945   13.3868   92.9677 O   0  0  0  0  0  0  0  0  0  0  0  0
   99.2286   15.1135   94.2886 C   0  0  2  0  0  0  0  0  0  0  0  0
   97.5251   17.2995   98.6191 N   0  0  0  0  0  0  0  0  0  0  0  0
   96.8540   17.1778   97.4437 C   0  0  0  0  0  0  0  0  0  0  0  0
   97.4781   16.5677   96.4434 N   0  0  0  0  0  0  0  0  0  0  0  0
   98.7510   16.1209   96.4999 C   0  0  0  0  0  0  0  0  0  0  0  0
   99.4803   16.2293   97.7034 C   0  0  0  0  0  0  0  0  0  0  0  0
   98.7905   16.8692   98.7823 C   0  0  0  0  0  0  0  0  0  0  0  0
   99.4586   17.0431  100.0303 N   0  0  0  0  0  0  0  0  0  0  0  0
  100.6291   15.6916   97.4868 N   0  0  0  0  0  0  0  0  0  0  0  0
  100.6607   15.2367   96.2462 C   0  0  0  0  0  0  0  0  0  0  0  0
   99.5623   15.4981   95.6327 N   0  0  0  0  0  0  0  0  0  0  0  0
  1 24  1  0  0  0  0
  1  4  2  0  0  0  0
  2 13  1  0  0  0  0
  2 21  1  0  0  0  0
  3 16  1  0  0  0  0
  4 18  1  0  0  0  0
  5 19  2  0  0  0  0
  5 16  1  0  0  0  0
  6 16  2  0  0  0  0
  6 17  1  0  0  0  0
  7 17  1  0  0  0  0
 11 25  2  0  0  0  0
 12 26  2  0  0  0  0
 13 25  1  0  0  0  0
 14 23  1  0  0  0  0
 15 26  1  0  0  0  0
 17 18  2  0  0  0  0
 18 19  1  0  0  0  0
 19 24  1  0  0  0  0
 20 10  1  6  0  0  0
 20 22  1  0  0  0  0
 20 23  1  0  0  0  0
 21 14  1  1  0  0  0
 21 22  1  0  0  0  0
 22 15  1  6  0  0  0
 23 24  1  1  0  0  0
 25  8  1  6  0  0  0
 25 32  1  0  0  0  0
 26  9  1  6  0  0  0
 26 28  1  0  0  0  0
 27 28  1  0  0  0  0
 29 27  1  1  0  0  0
 29 30  1  0  0  0  0
 29 31  1  0  0  0  0
 30 35  1  0  0  0  0
 31 33  1  0  0  0  0
 31 32  1  6  0  0  0
 33 34  1  6  0  0  0
 33 35  1  0  0  0  0
 35 45  1  1  0  0  0
 36 41  2  0  0  0  0
 36 37  1  0  0  0  0
 37 38  2  0  0  0  0
 38 39  1  0  0  0  0
 39 40  2  0  0  0  0
 39 45  1  0  0  0  0
 40 41  1  0  0  0  0
 40 43  1  0  0  0  0
 41 42  1  0  0  0  0
 43 44  2  0  0  0  0
 44 45  1  0  0  0  0
M  CHG  4   8  -1   9  -1  11  -1  12  -1
M  END
>  <CHROM.1>
15.62866122,10.77340789,96.53949554,13.01918313,96.47860339,2.39456682,0.99492278
1.45554115

>  <Name>
ligand

>  <RI>
0

>  <Rbt.Current_Directory>
/home/itssahil/PROJECTS/Mol_Feturizer/New_Systems/rnas/4YAZ

>  <Rbt.Executable>
rbdock ($Id: //depot/dev/client3/rdock/2013.1/src/exe/rbdock.cxx#4 $)

>  <Rbt.Library>
libRbt.so (2013.1, Build901 2013/11/27)

>  <Rbt.Parameter_File>
/export/apps/rDock/src/rDock_2013.1_src/data/scripts/dock_solv.prm

>  <Rbt.Receptor>
prm/pocket_docking_2.prm

>  <SCORE>
-31.373

>  <SCORE.INTER>
-31.0718

>  <SCORE.INTER.CONST>
1

>  <SCORE.INTER.POLAR>
0

>  <SCORE.INTER.ROT>
2

>  <SCORE.INTER.SOLV>
37.538

>  <SCORE.INTER.VDW>
-38.1605

>  <SCORE.INTER.norm>
-0.690485

>  <SCORE.INTRA>
-0.961798

>  <SCORE.INTRA.DIHEDRAL>
-0.046088

>  <SCORE.INTRA.DIHEDRAL.0>
2.39103

>  <SCORE.INTRA.POLAR>
0

>  <SCORE.INTRA.POLAR.0>
0

>  <SCORE.INTRA.REPUL>
0

>  <SCORE.INTRA.REPUL.0>
0

>  <SCORE.INTRA.SOLV>
0.86423

>  <SCORE.INTRA.SOLV.lig_0>
-163.975

>  <SCORE.INTRA.VDW>
-1.37087

>  <SCORE.INTRA.VDW.0>
-1.49176

>  <SCORE.INTRA.norm>
-0.0213733

>  <SCORE.RESTR>
0.66057

>  <SCORE.RESTR.CAVITY>
0.66057

>  <SCORE.RESTR.norm>
0.0146793

>  <SCORE.SYSTEM>
0

>  <SCORE.SYSTEM.CONST>
0

>  <SCORE.SYSTEM.DIHEDRAL>
0

>  <SCORE.SYSTEM.SOLV>
0

>  <SCORE.SYSTEM.norm>
0

>  <SCORE.heavy>
45

>  <SCORE.norm>
-0.697179

>  <RMSD>
6.850

$$$$
ligand
 OpenBabel11021811513D
libRbt.so/2013.1/901 2013/11/27
 45 51  0  0  0  0  0  0  0  0999 V2000
   94.2468   11.3230   99.4177 C   0  0  0  0  0  0  0  0  0  0  0  0
   95.4889   11.2997   94.3414 C   0  0  0  0  0  0  0  0  0  0  0  0
   97.8264    7.5784   97.0579 N   0  0  0  0  0  0  0  0  0  0  0  0
   95.2335   11.0680  100.2144 N   0  0  0  0  0  0  0  0  0  0  0  0
   96.0672    9.0310   97.5596 N   0  0  0  0  0  0  0  0  0  0  0  0
   97.7712    8.6984   99.1092 N   0  0  0  0  0  0  0  0  0  0  0  0
   97.7801    9.8799  101.2017 O   0  0  0  0  0  0  0  0  0  0  0  0
   98.3680   10.3338   93.7453 O   0  5  0  0  0  0  0  0  0  0  0  0
   92.8820   15.5831   94.4114 O   0  5  0  0  0  0  0  0  0  0  0  0
   91.8066   12.1742   96.6166 O   0  0  0  0  0  0  0  0  0  0  0  0
   98.9313   11.3115   95.6637 O   0  5  0  0  0  0  0  0  0  0  0  0
   93.0898   15.1226   96.5888 O   0  5  0  0  0  0  0  0  0  0  0  0
   96.5289   10.8563   95.1174 O   0  0  0  0  0  0  0  0  0  0  0  0
   94.0277   10.0838   96.0376 O   0  0  0  0  0  0  0  0  0  0  0  0
   93.3682   13.2977   94.8305 O   0  0  0  0  0  0  0  0  0  0  0  0
   97.1809    8.4763   97.9611 C   0  0  0  0  0  0  0  0  0  0  0  0
   97.2293    9.5565   99.9630 C   0  0  0  0  0  0  0  0  0  0  0  0
   96.0127   10.1817   99.6080 C   0  0  0  0  0  0  0  0  0  0  0  0
   95.4517    9.9096   98.3845 C   0  0  0  0  0  0  0  0  0  0  0  0
   93.1223   11.9243   96.9426 C   0  0  2  0  0  0  0  0  0  0  0  0
   94.1978   11.2550   95.0546 C   0  0  1  0  0  0  0  0  0  0  0  0
   94.0107   12.3328   95.6553 C   0  0  1  0  0  0  0  0  0  0  0  0
   93.4170   10.6810   97.2744 C   0  0  2  0  0  0  0  0  0  0  0  0
   94.3400   10.6444   98.3343 N   0  0  0  0  0  0  0  0  0  0  0  0
   97.9399   11.3238   94.6457 P   0  0  2  0  0  0  0  0  0  0  0  0
   93.5913   14.7534   95.2876 P   0  0  1  0  0  0  0  0  0  0  0  0
   95.7872   14.7640   93.8733 C   0  0  0  0  0  0  0  0  0  0  0  0
   95.0959   15.1238   95.0802 O   0  0  0  0  0  0  0  0  0  0  0  0
   97.2543   14.8088   93.9627 C   0  0  1  0  0  0  0  0  0  0  0  0
   97.6626   16.1458   94.7557 O   0  0  0  0  0  0  0  0  0  0  0  0
   97.6726   13.8567   94.6687 C   0  0  1  0  0  0  0  0  0  0  0  0
   97.9045   12.6593   93.8915 O   0  0  0  0  0  0  0  0  0  0  0  0
   98.9154   14.4167   95.3437 C   0  0  1  0  0  0  0  0  0  0  0  0
   99.9138   14.3045   94.5805 O   0  0  0  0  0  0  0  0  0  0  0  0
   98.6073   15.9018   95.5352 C   0  0  2  0  0  0  0  0  0  0  0  0
  100.8677   16.3371  100.1325 N   0  0  0  0  0  0  0  0  0  0  0  0
  101.3683   15.7235   99.0281 C   0  0  0  0  0  0  0  0  0  0  0  0
  100.6196   15.7315   97.9318 N   0  0  0  0  0  0  0  0  0  0  0  0
   99.3751   16.2506   97.8637 C   0  0  0  0  0  0  0  0  0  0  0  0
   98.8211   16.8961   98.9899 C   0  0  0  0  0  0  0  0  0  0  0  0
   99.6453   16.9011  100.1603 C   0  0  0  0  0  0  0  0  0  0  0  0
   99.1571   17.5114  101.3533 N   0  0  0  0  0  0  0  0  0  0  0  0
   97.6624   17.3275   98.6334 N   0  0  0  0  0  0  0  0  0  0  0  0
   97.4637   17.0186   97.3637 C   0  0  0  0  0  0  0  0  0  0  0  0
   98.4602   16.3601   96.8895 N   0  0  0  0  0  0  0  0  0  0  0  0
  1 24  1  0  0  0  0
  1  4  2  0  0  0  0
  2 13  1  0  0  0  0
  2 21  1  0  0  0  0
  3 16  1  0  0  0  0
  4 18  1  0  0  0  0
  5 19  2  0  0  0  0
  5 16  1  0  0  0  0
  6 16  2  0  0  0  0
  6 17  1  0  0  0  0
  7 17  1  0  0  0  0
 11 25  2  0  0  0  0
 12 26  2  0  0  0  0
 13 25  1  0  0  0  0
 14 23  1  0  0  0  0
 15 26  1  0  0  0  0
 17 18  2  0  0  0  0
 18 19  1  0  0  0  0
 19 24  1  0  0  0  0
 20 10  1  6  0  0  0
 20 22  1  0  0  0  0
 20 23  1  0  0  0  0
 21 14  1  1  0  0  0
 21 22  1  0  0  0  0
 22 15  1  6  0  0  0
 23 24  1  1  0  0  0
 25  8  1  6  0  0  0
 25 32  1  0  0  0  0
 26  9  1  6  0  0  0
 26 28  1  0  0  0  0
 27 28  1  0  0  0  0
 29 27  1  1  0  0  0
 29 30  1  0  0  0  0
 29 31  1  0  0  0  0
 30 35  1  0  0  0  0
 31 33  1  0  0  0  0
 31 32  1  6  0  0  0
 33 34  1  6  0  0  0
 33 35  1  0  0  0  0
 35 45  1  1  0  0  0
 36 41  2  0  0  0  0
 36 37  1  0  0  0  0
 37 38  2  0  0  0  0
 38 39  1  0  0  0  0
 39 40  2  0  0  0  0
 39 45  1  0  0  0  0
 40 41  1  0  0  0  0
 40 43  1  0  0  0  0
 41 42  1  0  0  0  0
 43 44  2  0  0  0  0
 44 45  1  0  0  0  0
M  CHG  4   8  -1   9  -1  11  -1  12  -1
M  END
>  <CHROM.1>
163.87582895,-177.04484720,96.61683846,13.02344895,96.71753061,-2.36925021
-0.67388490,-0.41218998

>  <Name>
ligand

>  <RI>
0

>  <Rbt.Current_Directory>
/home/itssahil/PROJECTS/Mol_Feturizer/New_Systems/rnas/4YAZ

>  <Rbt.Executable>
rbdock ($Id: //depot/dev/client3/rdock/2013.1/src/exe/rbdock.cxx#4 $)

>  <Rbt.Library>
libRbt.so (2013.1, Build901 2013/11/27)

>  <Rbt.Parameter_File>
/export/apps/rDock/src/rDock_2013.1_src/data/scripts/dock_solv.prm

>  <Rbt.Receptor>
prm/pocket_docking_5.prm

>  <SCORE>
-39.9157

>  <SCORE.INTER>
-40.1358

>  <SCORE.INTER.CONST>
1

>  <SCORE.INTER.POLAR>
0

>  <SCORE.INTER.ROT>
2

>  <SCORE.INTER.SOLV>
28.6939

>  <SCORE.INTER.VDW>
-41.2552

>  <SCORE.INTER.norm>
-0.891906

>  <SCORE.INTRA>
0.220071

>  <SCORE.INTRA.DIHEDRAL>
0.0181102

>  <SCORE.INTRA.DIHEDRAL.0>
2.39103

>  <SCORE.INTRA.POLAR>
0

>  <SCORE.INTRA.POLAR.0>
0

>  <SCORE.INTRA.REPUL>
0

>  <SCORE.INTRA.REPUL.0>
0

>  <SCORE.INTRA.SOLV>
1.48576

>  <SCORE.INTRA.SOLV.lig_0>
-163.975

>  <SCORE.INTRA.VDW>
-0.531862

>  <SCORE.INTRA.VDW.0>
-1.49176

>  <SCORE.INTRA.norm>
0.00489047

>  <SCORE.RESTR>
0

>  <SCORE.RESTR.CAVITY>
0

>  <SCORE.RESTR.norm>
0

>  <SCORE.SYSTEM>
0

>  <SCORE.SYSTEM.CONST>
0

>  <SCORE.SYSTEM.DIHEDRAL>
0

>  <SCORE.SYSTEM.SOLV>
0

>  <SCORE.SYSTEM.norm>
0

>  <SCORE.heavy>
45

>  <SCORE.norm>
-0.887016

>  <RMSD>
6.850

$$$$
ligand
 OpenBabel11021811513D
libRbt.so/2013.1/901 2013/11/27
 45 51  0  0  0  0  0  0  0  0999 V2000
   94.1159   11.3027   99.3443 C   0  0  0  0  0  0  0  0  0  0  0  0
   95.3545   11.2703   94.2517 C   0  0  0  0  0  0  0  0  0  0  0  0
   97.7126    7.6180   96.9172 N   0  0  0  0  0  0  0  0  0  0  0  0
   95.1063   11.0417  100.1344 N   0  0  0  0  0  0  0  0  0  0  0  0
   95.9456    9.0514   97.4460 N   0  0  0  0  0  0  0  0  0  0  0  0
   97.6559    8.7057   98.9859 N   0  0  0  0  0  0  0  0  0  0  0  0
   97.6630    9.8546  101.0964 O   0  0  0  0  0  0  0  0  0  0  0  0
   98.2174   10.2617   93.6480 O   0  5  0  0  0  0  0  0  0  0  0  0
   92.8096   15.5908   94.3197 O   0  5  0  0  0  0  0  0  0  0  0  0
   91.6932   12.2033   96.5375 O   0  0  0  0  0  0  0  0  0  0  0  0
   98.8013   11.2360   95.5620 O   0  5  0  0  0  0  0  0  0  0  0  0
   93.0185   15.1329   96.4975 O   0  5  0  0  0  0  0  0  0  0  0  0
   96.3907   10.8139   95.0253 O   0  0  0  0  0  0  0  0  0  0  0  0
   93.8820   10.0798   95.9561 O   0  0  0  0  0  0  0  0  0  0  0  0
   93.2645   13.2997   94.7430 O   0  0  0  0  0  0  0  0  0  0  0  0
   97.0639    8.4977   97.8360 C   0  0  0  0  0  0  0  0  0  0  0  0
   97.1109    9.5469   99.8543 C   0  0  0  0  0  0  0  0  0  0  0  0
   95.8895   10.1698   99.5122 C   0  0  0  0  0  0  0  0  0  0  0  0
   95.3269    9.9132   98.2862 C   0  0  0  0  0  0  0  0  0  0  0  0
   93.0063   11.9354   96.8595 C   0  0  2  0  0  0  0  0  0  0  0  0
   94.0654   11.2459   94.9696 C   0  0  1  0  0  0  0  0  0  0  0  0
   93.8959   12.3277   95.5681 C   0  0  1  0  0  0  0  0  0  0  0  0
   93.2843   10.6888   97.1935 C   0  0  2  0  0  0  0  0  0  0  0  0
   94.2104   10.6416   98.2502 N   0  0  0  0  0  0  0  0  0  0  0  0
   97.8067   11.2600   94.5474 P   0  0  2  0  0  0  0  0  0  0  0  0
   93.5101   14.7532   95.1956 P   0  0  1  0  0  0  0  0  0  0  0  0
   95.7009   14.7287   93.7737 C   0  0  0  0  0  0  0  0  0  0  0  0
   95.0190   15.1015   94.9820 O   0  0  0  0  0  0  0  0  0  0  0  0
   97.1687   14.7527   93.8578 C   0  0  1  0  0  0  0  0  0  0  0  0
   97.5989   16.0857   94.6459 O   0  0  0  0  0  0  0  0  0  0  0  0
   97.5758   13.7965   94.5648 C   0  0  1  0  0  0  0  0  0  0  0  0
   97.7878   12.5940   93.7899 O   0  0  0  0  0  0  0  0  0  0  0  0
   98.8289   14.3403   95.2340 C   0  0  1  0  0  0  0  0  0  0  0  0
   99.8229   14.2118   94.4676 O   0  0  0  0  0  0  0  0  0  0  0  0
   98.5428   15.8301   95.4228 C   0  0  2  0  0  0  0  0  0  0  0  0
  100.8008   16.1881  100.0279 N   0  0  0  0  0  0  0  0  0  0  0  0
  101.2835   15.5569   98.9255 C   0  0  0  0  0  0  0  0  0  0  0  0
  100.5395   15.5906   97.8265 N   0  0  0  0  0  0  0  0  0  0  0  0
   99.3141   16.1529   97.7539 C   0  0  0  0  0  0  0  0  0  0  0  0
   98.7791   16.8179   98.8779 C   0  0  0  0  0  0  0  0  0  0  0  0
   99.5989   16.7946  100.0512 C   0  0  0  0  0  0  0  0  0  0  0  0
   99.1281   17.4221  101.2422 N   0  0  0  0  0  0  0  0  0  0  0  0
   97.6374   17.2894   98.5171 N   0  0  0  0  0  0  0  0  0  0  0  0
   97.4326   16.9871   97.2468 C   0  0  0  0  0  0  0  0  0  0  0  0
   98.4070   16.2939   96.7764 N   0  0  0  0  0  0  0  0  0  0  0  0
  1 24  1  0  0  0  0
  1  4  2  0  0  0  0
  2 13  1  0  0  0  0
  2 21  1  0  0  0  0
  3 16  1  0  0  0  0
  4 18  1  0  0  0  0
  5 19  2  0  0  0  0
  5 16  1  0  0  0  0
  6 16  2  0  0  0  0
  6 17  1  0  0  0  0
  7 17  1  0  0  0  0
 11 25  2  0  0  0  0
 12 26  2  0  0  0  0
 13 25  1  0  0  0  0
 14 23  1  0  0  0  0
 15 26  1  0  0  0  0
 17 18  2  0  0  0  0
 18 19  1  0  0  0  0
 19 24  1  0  0  0  0
 20 10  1  6  0  0  0
 20 22  1  0  0  0  0
 20 23  1  0  0  0  0
 21 14  1  1  0  0  0
 21 22  1  0  0  0  0
 22 15  1  6  0  0  0
 23 24  1  1  0  0  0
 25  8  1  6  0  0  0
 25 32  1  0  0  0  0
 26  9  1  6  0  0  0
 26 28  1  0  0  0  0
 27 28  1  0  0  0  0
 29 27  1  1  0  0  0
 29 30  1  0  0  0  0
 29 31  1  0  0  0  0
 30 35  1  0  0  0  0
 31 33  1  0  0  0  0
 31 32  1  6  0  0  0
 33 34  1  6  0  0  0
 33 35  1  0  0  0  0
 35 45  1  1  0  0  0
 36 41  2  0  0  0  0
 36 37  1  0  0  0  0
 37 38  2  0  0  0  0
 38 39  1  0  0  0  0
 39 40  2  0  0  0  0
 39 45  1  0  0  0  0
 40 41  1  0  0  0  0
 40 43  1  0  0  0  0
 41 42  1  0  0  0  0
 43 44  2  0  0  0  0
 44 45  1  0  0  0  0
M  CHG  4   8  -1   9  -1  11  -1  12  -1
M  END
>  <CHROM.1>
165.44960052,-178.30143575,96.51806987,12.98562706,96.61719117,-2.39479219
-0.66373599,-0.42079251

>  <Name>
ligand

>  <RI>
0

>  <Rbt.Current_Directory>
/home/itssahil/PROJECTS/Mol_Feturizer/New_Systems/rnas/4YAZ

>  <Rbt.Executable>
rbdock ($Id: //depot/dev/client3/rdock/2013.1/src/exe/rbdock.cxx#4 $)

>  <Rbt.Library>
libRbt.so (2013.1, Build901 2013/11/27)

>  <Rbt.Parameter_File>
/export/apps/rDock/src/rDock_2013.1_src/data/scripts/dock_solv.prm

>  <Rbt.Receptor>
prm/pocket_docking_7.prm

>  <SCORE>
-39.9034

>  <SCORE.INTER>
-40.3836

>  <SCORE.INTER.CONST>
1

>  <SCORE.INTER.POLAR>
0

>  <SCORE.INTER.ROT>
2

>  <SCORE.INTER.SOLV>
26.9539

>  <SCORE.INTER.VDW>
-40.8403

>  <SCORE.INTER.norm>
-0.897413

>  <SCORE.INTRA>
0.480205

>  <SCORE.INTRA.DIHEDRAL>
0.00880017

>  <SCORE.INTRA.DIHEDRAL.0>
2.39103

>  <SCORE.INTRA.POLAR>
0

>  <SCORE.INTRA.POLAR.0>
0

>  <SCORE.INTRA.REPUL>
0

>  <SCORE.INTRA.REPUL.0>
0

>  <SCORE.INTRA.SOLV>
2.21128

>  <SCORE.INTRA.SOLV.lig_0>
-163.975

>  <SCORE.INTRA.VDW>
-0.629835

>  <SCORE.INTRA.VDW.0>
-1.49176

>  <SCORE.INTRA.norm>
0.0106712

>  <SCORE.RESTR>
0

>  <SCORE.RESTR.CAVITY>
0

>  <SCORE.RESTR.norm>
0

>  <SCORE.SYSTEM>
0

>  <SCORE.SYSTEM.CONST>
0

>  <SCORE.SYSTEM.DIHEDRAL>
0

>  <SCORE.SYSTEM.SOLV>
0

>  <SCORE.SYSTEM.norm>
0

>  <SCORE.heavy>
45

>  <SCORE.norm>
-0.886742

>  <RMSD>
6.850

$$$$
ligand
 OpenBabel11021811523D
libRbt.so/2013.1/901 2013/11/27
 45 51  0  0  0  0  0  0  0  0999 V2000
   94.0974   11.3181   99.2963 C   0  0  0  0  0  0  0  0  0  0  0  0
   95.3625   11.2589   94.2166 C   0  0  0  0  0  0  0  0  0  0  0  0
   97.6953    7.5922   96.9350 N   0  0  0  0  0  0  0  0  0  0  0  0
   95.0822   11.0631  100.0954 N   0  0  0  0  0  0  0  0  0  0  0  0
   95.9303    9.0379   97.4361 N   0  0  0  0  0  0  0  0  0  0  0  0
   97.6302    8.7047   98.9901 N   0  0  0  0  0  0  0  0  0  0  0  0
   97.6289    9.8787  101.0868 O   0  0  0  0  0  0  0  0  0  0  0  0
   98.2338   10.2611   93.6358 O   0  5  0  0  0  0  0  0  0  0  0  0
   92.7968   15.5676   94.2481 O   0  5  0  0  0  0  0  0  0  0  0  0
   91.6824   12.1853   96.4748 O   0  0  0  0  0  0  0  0  0  0  0  0
   98.8010   11.2472   95.5487 O   0  5  0  0  0  0  0  0  0  0  0  0
   92.9940   15.1209   96.4293 O   0  5  0  0  0  0  0  0  0  0  0  0
   96.3959   10.8111   94.9989 O   0  0  0  0  0  0  0  0  0  0  0  0
   93.8848   10.0695   95.9173 O   0  0  0  0  0  0  0  0  0  0  0  0
   93.2598   13.2806   94.6852 O   0  0  0  0  0  0  0  0  0  0  0  0
   97.0443    8.4850   97.8393 C   0  0  0  0  0  0  0  0  0  0  0  0
   97.0831    9.5581   99.8452 C   0  0  0  0  0  0  0  0  0  0  0  0
   95.8659   10.1812   99.4884 C   0  0  0  0  0  0  0  0  0  0  0  0
   95.3097    9.9118   98.2621 C   0  0  0  0  0  0  0  0  0  0  0  0
   92.9947   11.9251   96.8064 C   0  0  2  0  0  0  0  0  0  0  0  0
   94.0689   11.2318   94.9265 C   0  0  1  0  0  0  0  0  0  0  0  0
   93.8906   12.3156   95.5188 C   0  0  1  0  0  0  0  0  0  0  0  0
   93.2764   10.6815   97.1480 C   0  0  2  0  0  0  0  0  0  0  0  0
   94.1961   10.6437   98.2108 N   0  0  0  0  0  0  0  0  0  0  0  0
   97.8127   11.2617   94.5278 P   0  0  2  0  0  0  0  0  0  0  0  0
   93.4956   14.7374   95.1323 P   0  0  1  0  0  0  0  0  0  0  0  0
   95.6954   14.7166   93.7243 C   0  0  0  0  0  0  0  0  0  0  0  0
   95.0042   15.0918   94.9266 O   0  0  0  0  0  0  0  0  0  0  0  0
   97.1626   14.7480   93.8176 C   0  0  1  0  0  0  0  0  0  0  0  0
   97.5815   16.0867   94.6021 O   0  0  0  0  0  0  0  0  0  0  0  0
   97.5697   13.7971   94.5317 C   0  0  1  0  0  0  0  0  0  0  0  0
   97.7923   12.5920   93.7639 O   0  0  0  0  0  0  0  0  0  0  0  0
   98.8160   14.3500   95.2062 C   0  0  1  0  0  0  0  0  0  0  0  0
   99.8154   14.2227   94.4467 O   0  0  0  0  0  0  0  0  0  0  0  0
   98.5217   15.8393   95.3861 C   0  0  2  0  0  0  0  0  0  0  0  0
  100.7224   16.1722  100.0208 N   0  0  0  0  0  0  0  0  0  0  0  0
  101.2095   15.5303   98.9265 C   0  0  0  0  0  0  0  0  0  0  0  0
  100.4812   15.5733   97.8174 N   0  0  0  0  0  0  0  0  0  0  0  0
   99.2664   16.1555   97.7267 C   0  0  0  0  0  0  0  0  0  0  0  0
   98.7271   16.8322   98.8417 C   0  0  0  0  0  0  0  0  0  0  0  0
   99.5303   16.7985  100.0261 C   0  0  0  0  0  0  0  0  0  0  0  0
   99.0538   17.4368  101.2091 N   0  0  0  0  0  0  0  0  0  0  0  0
   97.5984   17.3215   98.4642 N   0  0  0  0  0  0  0  0  0  0  0  0
   97.4059   17.0193   97.1920 C   0  0  0  0  0  0  0  0  0  0  0  0
   98.3751   16.3089   96.7366 N   0  0  0  0  0  0  0  0  0  0  0  0
  1 24  1  0  0  0  0
  1  4  2  0  0  0  0
  2 13  1  0  0  0  0
  2 21  1  0  0  0  0
  3 16  1  0  0  0  0
  4 18  1  0  0  0  0
  5 19  2  0  0  0  0
  5 16  1  0  0  0  0
  6 16  2  0  0  0  0
  6 17  1  0  0  0  0
  7 17  1  0  0  0  0
 11 25  2  0  0  0  0
 12 26  2  0  0  0  0
 13 25  1  0  0  0  0
 14 23  1  0  0  0  0
 15 26  1  0  0  0  0
 17 18  2  0  0  0  0
 18 19  1  0  0  0  0
 19 24  1  0  0  0  0
 20 10  1  6  0  0  0
 20 22  1  0  0  0  0
 20 23  1  0  0  0  0
 21 14  1  1  0  0  0
 21 22  1  0  0  0  0
 22 15  1  6  0  0  0
 23 24  1  1  0  0  0
 25  8  1  6  0  0  0
 25 32  1  0  0  0  0
 26  9  1  6  0  0  0
 26 28  1  0  0  0  0
 27 28  1  0  0  0  0
 29 27  1  1  0  0  0
 29 30  1  0  0  0  0
 29 31  1  0  0  0  0
 30 35  1  0  0  0  0
 31 33  1  0  0  0  0
 31 32  1  6  0  0  0
 33 34  1  6  0  0  0
 33 35  1  0  0  0  0
 35 45  1  1  0  0  0
 36 41  2  0  0  0  0
 36 37  1  0  0  0  0
 37 38  2  0  0  0  0
 38 39  1  0  0  0  0
 39 40  2  0  0  0  0
 39 45  1  0  0  0  0
 40 41  1  0  0  0  0
 40 43  1  0  0  0  0
 41 42  1  0  0  0  0
 43 44  2  0  0  0  0
 44 45  1  0  0  0  0
M  CHG  4   8  -1   9  -1  11  -1  12  -1
M  END
>  <CHROM.1>
164.82127158,-179.59516971,96.49920971,12.98384312,96.58399000,-2.38830346
-0.67367333,-0.42674079

>  <Name>
ligand

>  <RI>
0

>  <Rbt.Current_Directory>
/home/itssahil/PROJECTS/Mol_Feturizer/New_Systems/rnas/4YAZ

>  <Rbt.Executable>
rbdock ($Id: //depot/dev/client3/rdock/2013.1/src/exe/rbdock.cxx#4 $)

>  <Rbt.Library>
libRbt.so (2013.1, Build901 2013/11/27)

>  <Rbt.Parameter_File>
/export/apps/rDock/src/rDock_2013.1_src/data/scripts/dock_solv.prm

>  <Rbt.Receptor>
prm/pocket_docking_8.prm

>  <SCORE>
-39.9428

>  <SCORE.INTER>
-40.339

>  <SCORE.INTER.CONST>
1

>  <SCORE.INTER.POLAR>
0

>  <SCORE.INTER.ROT>
2

>  <SCORE.INTER.SOLV>
26.7257

>  <SCORE.INTER.VDW>
-40.7345

>  <SCORE.INTER.norm>
-0.896421

>  <SCORE.INTRA>
0.396152

>  <SCORE.INTRA.DIHEDRAL>
-0.000315764

>  <SCORE.INTRA.DIHEDRAL.0>
2.39103

>  <SCORE.INTRA.POLAR>
0

>  <SCORE.INTRA.POLAR.0>
0

>  <SCORE.INTRA.REPUL>
0

>  <SCORE.INTRA.REPUL.0>
0

>  <SCORE.INTRA.SOLV>
1.91967

>  <SCORE.INTRA.SOLV.lig_0>
-163.975

>  <SCORE.INTRA.VDW>
-0.563523

>  <SCORE.INTRA.VDW.0>
-1.49176

>  <SCORE.INTRA.norm>
0.00880338

>  <SCORE.RESTR>
0

>  <SCORE.RESTR.CAVITY>
0

>  <SCORE.RESTR.norm>
0

>  <SCORE.SYSTEM>
0

>  <SCORE.SYSTEM.CONST>
0

>  <SCORE.SYSTEM.DIHEDRAL>
0

>  <SCORE.SYSTEM.SOLV>
0

>  <SCORE.SYSTEM.norm>
0

>  <SCORE.heavy>
45

>  <SCORE.norm>
-0.887618

>  <RMSD>
6.850

$$$$
ligand
 OpenBabel11021811513D
libRbt.so/2013.1/901 2013/11/27
 45 51  0  0  0  0  0  0  0  0999 V2000
   96.5102   10.0407   98.3398 C   0  0  0  0  0  0  0  0  0  0  0  0
   95.6826   10.8103   94.5530 C   0  0  0  0  0  0  0  0  0  0  0  0
   93.9023   11.4207  103.2079 N   0  0  0  0  0  0  0  0  0  0  0  0
   97.3372    9.9884   99.3331 N   0  0  0  0  0  0  0  0  0  0  0  0
   94.4757   10.9698  100.9888 N   0  0  0  0  0  0  0  0  0  0  0  0
   96.0917   10.8145  102.6562 N   0  0  0  0  0  0  0  0  0  0  0  0
   98.3366   10.1337  102.1351 O   0  0  0  0  0  0  0  0  0  0  0  0
   98.1733    9.3759   93.4056 O   0  5  0  0  0  0  0  0  0  0  0  0
   93.8607   15.4644   94.9633 O   0  5  0  0  0  0  0  0  0  0  0  0
   92.7709   12.3110   97.5145 O   0  0  0  0  0  0  0  0  0  0  0  0
   99.2887   10.2755   95.1086 O   0  5  0  0  0  0  0  0  0  0  0  0
   94.4642   15.0077   97.0665 O   0  5  0  0  0  0  0  0  0  0  0  0
   96.7840   10.2133   95.1106 O   0  0  0  0  0  0  0  0  0  0  0  0
   94.4548    9.8759   96.5803 O   0  0  0  0  0  0  0  0  0  0  0  0
   94.0612   13.1364   95.3827 O   0  0  0  0  0  0  0  0  0  0  0  0
   94.8775   11.0591  102.2297 C   0  0  0  0  0  0  0  0  0  0  0  0
   97.0207   10.4354  101.7890 C   0  0  0  0  0  0  0  0  0  0  0  0
   96.6671   10.3355  100.4244 C   0  0  0  0  0  0  0  0  0  0  0  0
   95.3734   10.5986  100.0467 C   0  0  0  0  0  0  0  0  0  0  0  0
   94.0700   11.8530   97.5645 C   0  0  2  0  0  0  0  0  0  0  0  0
   94.5880   10.9887   95.5265 C   0  0  1  0  0  0  0  0  0  0  0  0
   94.7085   12.0912   96.0987 C   0  0  1  0  0  0  0  0  0  0  0  0
   94.2308   10.5832   97.8875 C   0  0  2  0  0  0  0  0  0  0  0  0
   95.3456   10.4109   98.7267 N   0  0  0  0  0  0  0  0  0  0  0  0
   98.1134   10.4357   94.3261 P   0  0  2  0  0  0  0  0  0  0  0  0
   94.6049   14.5422   95.7085 P   0  0  1  0  0  0  0  0  0  0  0  0
   96.4123   14.1712   93.8597 C   0  0  0  0  0  0  0  0  0  0  0  0
   96.0668   14.6573   95.1668 O   0  0  0  0  0  0  0  0  0  0  0  0
   97.8518   13.9757   93.6319 C   0  0  1  0  0  0  0  0  0  0  0  0
   98.6284   15.2388   94.2518 O   0  0  0  0  0  0  0  0  0  0  0  0
   98.2592   12.9782   94.2791 C   0  0  1  0  0  0  0  0  0  0  0  0
   98.1245   11.7478   93.5311 O   0  0  0  0  0  0  0  0  0  0  0  0
   99.6917   13.3361   94.6447 C   0  0  1  0  0  0  0  0  0  0  0  0
  100.4688   13.0503   93.6927 O   0  0  0  0  0  0  0  0  0  0  0  0
   99.6703   14.8542   94.8231 C   0  0  2  0  0  0  0  0  0  0  0  0
   97.6277   17.3726   98.8130 N   0  0  0  0  0  0  0  0  0  0  0  0
   97.0513   17.1497   97.6027 C   0  0  0  0  0  0  0  0  0  0  0  0
   97.7532   16.4650   96.7078 N   0  0  0  0  0  0  0  0  0  0  0  0
   99.0185   16.0350   96.9001 C   0  0  0  0  0  0  0  0  0  0  0  0
   99.6508   16.2474   98.1440 C   0  0  0  0  0  0  0  0  0  0  0  0
   98.8771   16.9675   99.1094 C   0  0  0  0  0  0  0  0  0  0  0  0
   99.4447   17.2485  100.3873 N   0  0  0  0  0  0  0  0  0  0  0  0
  100.8140   15.7033   98.0628 N   0  0  0  0  0  0  0  0  0  0  0  0
  100.9439   15.1489   96.8700 C   0  0  0  0  0  0  0  0  0  0  0  0
   99.8966   15.3502   96.1531 N   0  0  0  0  0  0  0  0  0  0  0  0
  1 24  1  0  0  0  0
  1  4  2  0  0  0  0
  2 13  1  0  0  0  0
  2 21  1  0  0  0  0
  3 16  1  0  0  0  0
  4 18  1  0  0  0  0
  5 19  2  0  0  0  0
  5 16  1  0  0  0  0
  6 16  2  0  0  0  0
  6 17  1  0  0  0  0
  7 17  1  0  0  0  0
 11 25  2  0  0  0  0
 12 26  2  0  0  0  0
 13 25  1  0  0  0  0
 14 23  1  0  0  0  0
 15 26  1  0  0  0  0
 17 18  2  0  0  0  0
 18 19  1  0  0  0  0
 19 24  1  0  0  0  0
 20 10  1  6  0  0  0
 20 22  1  0  0  0  0
 20 23  1  0  0  0  0
 21 14  1  1  0  0  0
 21 22  1  0  0  0  0
 22 15  1  6  0  0  0
 23 24  1  1  0  0  0
 25  8  1  6  0  0  0
 25 32  1  0  0  0  0
 26  9  1  6  0  0  0
 26 28  1  0  0  0  0
 27 28  1  0  0  0  0
 29 27  1  1  0  0  0
 29 30  1  0  0  0  0
 29 31  1  0  0  0  0
 30 35  1  0  0  0  0
 31 33  1  0  0  0  0
 31 32  1  6  0  0  0
 33 34  1  6  0  0  0
 33 35  1  0  0  0  0
 35 45  1  1  0  0  0
 36 41  2  0  0  0  0
 36 37  1  0  0  0  0
 37 38  2  0  0  0  0
 38 39  1  0  0  0  0
 39 40  2  0  0  0  0
 39 45  1  0  0  0  0
 40 41  1  0  0  0  0
 40 43  1  0  0  0  0
 41 42  1  0  0  0  0
 43 44  2  0  0  0  0
 44 45  1  0  0  0  0
M  CHG  4   8  -1   9  -1  11  -1  12  -1
M  END
>  <CHROM.1>
17.76538517,9.54740475,96.87434876,12.85369180,96.97502436,2.55021602,1.01009604
1.26311795

>  <Name>
ligand

>  <RI>
0

>  <Rbt.Current_Directory>
/home/itssahil/PROJECTS/Mol_Feturizer/New_Systems/rnas/4YAZ

>  <Rbt.Executable>
rbdock ($Id: //depot/dev/client3/rdock/2013.1/src/exe/rbdock.cxx#4 $)

>  <Rbt.Library>
libRbt.so (2013.1, Build901 2013/11/27)

>  <Rbt.Parameter_File>
/export/apps/rDock/src/rDock_2013.1_src/data/scripts/dock_solv.prm

>  <Rbt.Receptor>
prm/pocket_docking_5.prm

>  <SCORE>
-34.2413

>  <SCORE.INTER>
-33.2627

>  <SCORE.INTER.CONST>
1

>  <SCORE.INTER.POLAR>
0

>  <SCORE.INTER.ROT>
2

>  <SCORE.INTER.SOLV>
40.5309

>  <SCORE.INTER.VDW>
-40.6188

>  <SCORE.INTER.norm>
-0.739171

>  <SCORE.INTRA>
-0.978589

>  <SCORE.INTRA.DIHEDRAL>
-0.0376643

>  <SCORE.INTRA.DIHEDRAL.0>
2.39103

>  <SCORE.INTRA.POLAR>
0

>  <SCORE.INTRA.POLAR.0>
0

>  <SCORE.INTRA.REPUL>
0

>  <SCORE.INTRA.REPUL.0>
0

>  <SCORE.INTRA.SOLV>
0.797132

>  <SCORE.INTRA.SOLV.lig_0>
-163.975

>  <SCORE.INTRA.VDW>
-1.35832

>  <SCORE.INTRA.VDW.0>
-1.49176

>  <SCORE.INTRA.norm>
-0.0217464

>  <SCORE.RESTR>
0

>  <SCORE.RESTR.CAVITY>
0

>  <SCORE.RESTR.norm>
0

>  <SCORE.SYSTEM>
0

>  <SCORE.SYSTEM.CONST>
0

>  <SCORE.SYSTEM.DIHEDRAL>
0

>  <SCORE.SYSTEM.SOLV>
0

>  <SCORE.SYSTEM.norm>
0

>  <SCORE.heavy>
45

>  <SCORE.norm>
-0.760917

>  <RMSD>
6.851

$$$$
ligand
 OpenBabel11021811513D
libRbt.so/2013.1/901 2013/11/27
 45 51  0  0  0  0  0  0  0  0999 V2000
   94.0927   11.3212   99.3070 C   0  0  0  0  0  0  0  0  0  0  0  0
   95.3697   11.2653   94.2265 C   0  0  0  0  0  0  0  0  0  0  0  0
   97.7011    7.6124   96.9348 N   0  0  0  0  0  0  0  0  0  0  0  0
   95.0763   11.0640  100.1067 N   0  0  0  0  0  0  0  0  0  0  0  0
   95.9328    9.0528   97.4394 N   0  0  0  0  0  0  0  0  0  0  0  0
   97.6304    8.7150   98.9951 N   0  0  0  0  0  0  0  0  0  0  0  0
   97.6231    9.8791  101.0973 O   0  0  0  0  0  0  0  0  0  0  0  0
   98.2387   10.2583   93.6502 O   0  5  0  0  0  0  0  0  0  0  0  0
   92.8182   15.5824   94.2557 O   0  5  0  0  0  0  0  0  0  0  0  0
   91.6888   12.2028   96.4790 O   0  0  0  0  0  0  0  0  0  0  0  0
   98.8059   11.2416   95.5645 O   0  5  0  0  0  0  0  0  0  0  0  0
   93.0102   15.1341   96.4371 O   0  5  0  0  0  0  0  0  0  0  0  0
   96.4003   10.8138   95.0104 O   0  0  0  0  0  0  0  0  0  0  0  0
   93.8852   10.0800   95.9242 O   0  0  0  0  0  0  0  0  0  0  0  0
   93.2729   13.2938   94.6925 O   0  0  0  0  0  0  0  0  0  0  0  0
   97.0470    8.4998   97.8421 C   0  0  0  0  0  0  0  0  0  0  0  0
   97.0802    9.5635   99.8531 C   0  0  0  0  0  0  0  0  0  0  0  0
   95.8627   10.1862   99.4970 C   0  0  0  0  0  0  0  0  0  0  0  0
   95.3092    9.9218   98.2684 C   0  0  0  0  0  0  0  0  0  0  0  0
   92.9997   11.9381   96.8127 C   0  0  2  0  0  0  0  0  0  0  0  0
   94.0749   11.2421   94.9342 C   0  0  1  0  0  0  0  0  0  0  0  0
   93.8991   12.3263   95.5267 C   0  0  1  0  0  0  0  0  0  0  0  0
   93.2768   10.6934   97.1541 C   0  0  2  0  0  0  0  0  0  0  0  0
   94.1945   10.6521   98.2185 N   0  0  0  0  0  0  0  0  0  0  0  0
   97.8194   11.2598   94.5419 P   0  0  2  0  0  0  0  0  0  0  0  0
   93.5128   14.7495   95.1408 P   0  0  1  0  0  0  0  0  0  0  0  0
   95.7149   14.7221   93.7365 C   0  0  0  0  0  0  0  0  0  0  0  0
   95.0229   15.0991   94.9377 O   0  0  0  0  0  0  0  0  0  0  0  0
   97.1820   14.7486   93.8323 C   0  0  1  0  0  0  0  0  0  0  0  0
   97.6040   16.0856   94.6181 O   0  0  0  0  0  0  0  0  0  0  0  0
   97.5848   13.7961   94.5466 C   0  0  1  0  0  0  0  0  0  0  0  0
   97.8047   12.5905   93.7786 O   0  0  0  0  0  0  0  0  0  0  0  0
   98.8317   14.3445   95.2235 C   0  0  1  0  0  0  0  0  0  0  0  0
   99.8320   14.2142   94.4656 O   0  0  0  0  0  0  0  0  0  0  0  0
   98.5420   15.8347   95.4035 C   0  0  2  0  0  0  0  0  0  0  0  0
  100.7622   16.2148  100.0253 N   0  0  0  0  0  0  0  0  0  0  0  0
  101.2545   15.5795   98.9295 C   0  0  0  0  0  0  0  0  0  0  0  0
  100.5194   15.6076   97.8244 N   0  0  0  0  0  0  0  0  0  0  0  0
   99.2940   16.1683   97.7394 C   0  0  0  0  0  0  0  0  0  0  0  0
   98.7492   16.8374   98.8562 C   0  0  0  0  0  0  0  0  0  0  0  0
   99.5594   16.8200  100.0362 C   0  0  0  0  0  0  0  0  0  0  0  0
   99.0783   17.4520  101.2207 N   0  0  0  0  0  0  0  0  0  0  0  0
   97.6100   17.3061   98.4842 N   0  0  0  0  0  0  0  0  0  0  0  0
   97.4157   16.9982   97.2136 C   0  0  0  0  0  0  0  0  0  0  0  0
   98.3947   16.3041   96.7541 N   0  0  0  0  0  0  0  0  0  0  0  0
  1 24  1  0  0  0  0
  1  4  2  0  0  0  0
  2 13  1  0  0  0  0
  2 21  1  0  0  0  0
  3 16  1  0  0  0  0
  4 18  1  0  0  0  0
  5 19  2  0  0  0  0
  5 16  1  0  0  0  0
  6 16  2  0  0  0  0
  6 17  1  0  0  0  0
  7 17  1  0  0  0  0
 11 25  2  0  0  0  0
 12 26  2  0  0  0  0
 13 25  1  0  0  0  0
 14 23  1  0  0  0  0
 15 26  1  0  0  0  0
 17 18  2  0  0  0  0
 18 19  1  0  0  0  0
 19 24  1  0  0  0  0
 20 10  1  6  0  0  0
 20 22  1  0  0  0  0
 20 23  1  0  0  0  0
 21 14  1  1  0  0  0
 21 22  1  0  0  0  0
 22 15  1  6  0  0  0
 23 24  1  1  0  0  0
 25  8  1  6  0  0  0
 25 32  1  0  0  0  0
 26  9  1  6  0  0  0
 26 28  1  0  0  0  0
 27 28  1  0  0  0  0
 29 27  1  1  0  0  0
 29 30  1  0  0  0  0
 29 31  1  0  0  0  0
 30 35  1  0  0  0  0
 31 33  1  0  0  0  0
 31 32  1  6  0  0  0
 33 34  1  6  0  0  0
 33 35  1  0  0  0  0
 35 45  1  1  0  0  0
 36 41  2  0  0  0  0
 36 37  1  0  0  0  0
 37 38  2  0  0  0  0
 38 39  1  0  0  0  0
 39 40  2  0  0  0  0
 39 45  1  0  0  0  0
 40 41  1  0  0  0  0
 40 43  1  0  0  0  0
 41 42  1  0  0  0  0
 43 44  2  0  0  0  0
 44 45  1  0  0  0  0
M  CHG  4   8  -1   9  -1  11  -1  12  -1
M  END
>  <CHROM.1>
165.19564398,-178.32106757,96.51107721,12.99131803,96.59450540,-2.39558749
-0.67200255,-0.42728497

>  <Name>
ligand

>  <RI>
0

>  <Rbt.Current_Directory>
/home/itssahil/PROJECTS/Mol_Feturizer/New_Systems/rnas/4YAZ

>  <Rbt.Executable>
rbdock ($Id: //depot/dev/client3/rdock/2013.1/src/exe/rbdock.cxx#4 $)

>  <Rbt.Library>
libRbt.so (2013.1, Build901 2013/11/27)

>  <Rbt.Parameter_File>
/export/apps/rDock/src/rDock_2013.1_src/data/scripts/dock_solv.prm

>  <Rbt.Receptor>
prm/pocket_docking_3.prm

>  <SCORE>
-39.9109

>  <SCORE.INTER>
-40.3493

>  <SCORE.INTER.CONST>
1

>  <SCORE.INTER.POLAR>
0

>  <SCORE.INTER.ROT>
2

>  <SCORE.INTER.SOLV>
26.8485

>  <SCORE.INTER.VDW>
-40.7824

>  <SCORE.INTER.norm>
-0.89665

>  <SCORE.INTRA>
0.438327

>  <SCORE.INTRA.DIHEDRAL>
0.00871203

>  <SCORE.INTRA.DIHEDRAL.0>
2.39103

>  <SCORE.INTRA.POLAR>
0

>  <SCORE.INTRA.POLAR.0>
0

>  <SCORE.INTRA.REPUL>
0

>  <SCORE.INTRA.REPUL.0>
0

>  <SCORE.INTRA.SOLV>
2.09299

>  <SCORE.INTRA.SOLV.lig_0>
-163.975

>  <SCORE.INTRA.VDW>
-0.612522

>  <SCORE.INTRA.VDW.0>
-1.49176

>  <SCORE.INTRA.norm>
0.0097406

>  <SCORE.RESTR>
0

>  <SCORE.RESTR.CAVITY>
0

>  <SCORE.RESTR.norm>
0

>  <SCORE.SYSTEM>
0

>  <SCORE.SYSTEM.CONST>
0

>  <SCORE.SYSTEM.DIHEDRAL>
0

>  <SCORE.SYSTEM.SOLV>
0

>  <SCORE.SYSTEM.norm>
0

>  <SCORE.heavy>
45

>  <SCORE.norm>
-0.88691

>  <RMSD>
6.852

$$$$
ligand
 OpenBabel11021811513D
libRbt.so/2013.1/901 2013/11/27
 45 51  0  0  0  0  0  0  0  0999 V2000
   94.1521   11.2999   99.3031 C   0  0  0  0  0  0  0  0  0  0  0  0
   95.3826   11.2657   94.2131 C   0  0  0  0  0  0  0  0  0  0  0  0
   97.7504    7.6043   96.8951 N   0  0  0  0  0  0  0  0  0  0  0  0
   95.1436   11.0449  100.0937 N   0  0  0  0  0  0  0  0  0  0  0  0
   95.9823    9.0390   97.4169 N   0  0  0  0  0  0  0  0  0  0  0  0
   97.6946    8.7047   98.9571 N   0  0  0  0  0  0  0  0  0  0  0  0
   97.7026    9.8667  101.0604 O   0  0  0  0  0  0  0  0  0  0  0  0
   98.2522   10.2773   93.6080 O   0  5  0  0  0  0  0  0  0  0  0  0
   92.8067   15.5678   94.2795 O   0  5  0  0  0  0  0  0  0  0  0  0
   91.7164   12.1742   96.5009 O   0  0  0  0  0  0  0  0  0  0  0  0
   98.8306   11.2574   95.5207 O   0  5  0  0  0  0  0  0  0  0  0  0
   93.0205   15.1132   96.4575 O   0  5  0  0  0  0  0  0  0  0  0  0
   96.4227   10.8175   94.9862 O   0  0  0  0  0  0  0  0  0  0  0  0
   93.9200   10.0661   95.9196 O   0  0  0  0  0  0  0  0  0  0  0  0
   93.2784   13.2804   94.7044 O   0  0  0  0  0  0  0  0  0  0  0  0
   97.1016    8.4889   97.8091 C   0  0  0  0  0  0  0  0  0  0  0  0
   97.1496    9.5507   99.8208 C   0  0  0  0  0  0  0  0  0  0  0  0
   95.9271   10.1701   99.4761 C   0  0  0  0  0  0  0  0  0  0  0  0
   95.3635    9.9052   98.2523 C   0  0  0  0  0  0  0  0  0  0  0  0
   93.0317   11.9160   96.8222 C   0  0  2  0  0  0  0  0  0  0  0  0
   94.0942   11.2327   94.9320 C   0  0  1  0  0  0  0  0  0  0  0  0
   93.9174   12.3137   95.5297 C   0  0  1  0  0  0  0  0  0  0  0  0
   93.3189   10.6718   97.1570 C   0  0  2  0  0  0  0  0  0  0  0  0
   94.2462   10.6322   98.2130 N   0  0  0  0  0  0  0  0  0  0  0  0
   97.8350   11.2733   94.5069 P   0  0  2  0  0  0  0  0  0  0  0  0
   93.5138   14.7360   95.1555 P   0  0  1  0  0  0  0  0  0  0  0  0
   95.7036   14.7261   93.7319 C   0  0  0  0  0  0  0  0  0  0  0  0
   95.0200   15.0950   94.9404 O   0  0  0  0  0  0  0  0  0  0  0  0
   97.1713   14.7608   93.8148 C   0  0  1  0  0  0  0  0  0  0  0  0
   97.5925   16.0975   94.6015 O   0  0  0  0  0  0  0  0  0  0  0  0
   97.5858   13.8082   94.5223 C   0  0  1  0  0  0  0  0  0  0  0  0
   97.8059   12.6065   93.7483 O   0  0  0  0  0  0  0  0  0  0  0  0
   98.8355   14.3615   95.1901 C   0  0  1  0  0  0  0  0  0  0  0  0
   99.8298   14.2396   94.4230 O   0  0  0  0  0  0  0  0  0  0  0  0
   98.5388   15.8494   95.3778 C   0  0  2  0  0  0  0  0  0  0  0  0
  100.7832   16.1950   99.9905 N   0  0  0  0  0  0  0  0  0  0  0  0
  101.2666   15.5620   98.8894 C   0  0  0  0  0  0  0  0  0  0  0  0
  100.5263   15.5995   97.7880 N   0  0  0  0  0  0  0  0  0  0  0  0
   99.3039   16.1677   97.7115 C   0  0  0  0  0  0  0  0  0  0  0  0
   98.7683   16.8348   98.8340 C   0  0  0  0  0  0  0  0  0  0  0  0
   99.5841   16.8072  100.0100 C   0  0  0  0  0  0  0  0  0  0  0  0
   99.1123   17.4365  101.1998 N   0  0  0  0  0  0  0  0  0  0  0  0
   97.6301   17.3119   98.4697 N   0  0  0  0  0  0  0  0  0  0  0  0
   97.4280   17.0110   97.1986 C   0  0  0  0  0  0  0  0  0  0  0  0
   98.4007   16.3134   96.7312 N   0  0  0  0  0  0  0  0  0  0  0  0
  1 24  1  0  0  0  0
  1  4  2  0  0  0  0
  2 13  1  0  0  0  0
  2 21  1  0  0  0  0
  3 16  1  0  0  0  0
  4 18  1  0  0  0  0
  5 19  2  0  0  0  0
  5 16  1  0  0  0  0
  6 16  2  0  0  0  0
  6 17  1  0  0  0  0
  7 17  1  0  0  0  0
 11 25  2  0  0  0  0
 12 26  2  0  0  0  0
 13 25  1  0  0  0  0
 14 23  1  0  0  0  0
 15 26  1  0  0  0  0
 17 18  2  0  0  0  0
 18 19  1  0  0  0  0
 19 24  1  0  0  0  0
 20 10  1  6  0  0  0
 20 22  1  0  0  0  0
 20 23  1  0  0  0  0
 21 14  1  1  0  0  0
 21 22  1  0  0  0  0
 22 15  1  6  0  0  0
 23 24  1  1  0  0  0
 25  8  1  6  0  0  0
 25 32  1  0  0  0  0
 26  9  1  6  0  0  0
 26 28  1  0  0  0  0
 27 28  1  0  0  0  0
 29 27  1  1  0  0  0
 29 30  1  0  0  0  0
 29 31  1  0  0  0  0
 30 35  1  0  0  0  0
 31 33  1  0  0  0  0
 31 32  1  6  0  0  0
 33 34  1  6  0  0  0
 33 35  1  0  0  0  0
 35 45  1  1  0  0  0
 36 41  2  0  0  0  0
 36 37  1  0  0  0  0
 37 38  2  0  0  0  0
 38 39  1  0  0  0  0
 39 40  2  0  0  0  0
 39 45  1  0  0  0  0
 40 41  1  0  0  0  0
 40 43  1  0  0  0  0
 41 42  1  0  0  0  0
 43 44  2  0  0  0  0
 44 45  1  0  0  0  0
M  CHG  4   8  -1   9  -1  11  -1  12  -1
M  END
>  <CHROM.1>
164.98540919,-179.02946503,96.53324220,12.98694127,96.57801660,-2.38288609
-0.66736721,-0.41792926

>  <Name>
ligand

>  <RI>
0

>  <Rbt.Current_Directory>
/home/itssahil/PROJECTS/Mol_Feturizer/New_Systems/rnas/4YAZ

>  <Rbt.Executable>
rbdock ($Id: //depot/dev/client3/rdock/2013.1/src/exe/rbdock.cxx#4 $)

>  <Rbt.Library>
libRbt.so (2013.1, Build901 2013/11/27)

>  <Rbt.Parameter_File>
/export/apps/rDock/src/rDock_2013.1_src/data/scripts/dock_solv.prm

>  <Rbt.Receptor>
prm/pocket_docking_5.prm

>  <SCORE>
-40.0022

>  <SCORE.INTER>
-40.407

>  <SCORE.INTER.CONST>
1

>  <SCORE.INTER.POLAR>
0

>  <SCORE.INTER.ROT>
2

>  <SCORE.INTER.SOLV>
26.7677

>  <SCORE.INTER.VDW>
-40.7939

>  <SCORE.INTER.norm>
-0.897934

>  <SCORE.INTRA>
0.404823

>  <SCORE.INTRA.DIHEDRAL>
0.00368838

>  <SCORE.INTRA.DIHEDRAL.0>
2.39103

>  <SCORE.INTRA.POLAR>
0

>  <SCORE.INTRA.POLAR.0>
0

>  <SCORE.INTRA.REPUL>
0

>  <SCORE.INTRA.REPUL.0>
0

>  <SCORE.INTRA.SOLV>
1.99573

>  <SCORE.INTRA.SOLV.lig_0>
-163.975

>  <SCORE.INTRA.VDW>
-0.594884

>  <SCORE.INTRA.VDW.0>
-1.49176

>  <SCORE.INTRA.norm>
0.00899607

>  <SCORE.RESTR>
0

>  <SCORE.RESTR.CAVITY>
0

>  <SCORE.RESTR.norm>
0

>  <SCORE.SYSTEM>
0

>  <SCORE.SYSTEM.CONST>
0

>  <SCORE.SYSTEM.DIHEDRAL>
0

>  <SCORE.SYSTEM.SOLV>
0

>  <SCORE.SYSTEM.norm>
0

>  <SCORE.heavy>
45

>  <SCORE.norm>
-0.888938

>  <RMSD>
6.852

$$$$
ligand
 OpenBabel11021811513D
libRbt.so/2013.1/901 2013/11/27
 45 51  0  0  0  0  0  0  0  0999 V2000
   94.1673   11.3225   99.3173 C   0  0  0  0  0  0  0  0  0  0  0  0
   95.3893   11.2630   94.2302 C   0  0  0  0  0  0  0  0  0  0  0  0
   97.7403    7.5830   96.9397 N   0  0  0  0  0  0  0  0  0  0  0  0
   95.1580   11.0687  100.1093 N   0  0  0  0  0  0  0  0  0  0  0  0
   95.9816    9.0332   97.4501 N   0  0  0  0  0  0  0  0  0  0  0  0
   97.6935    8.7025   98.9915 N   0  0  0  0  0  0  0  0  0  0  0  0
   97.7109    9.8836  101.0842 O   0  0  0  0  0  0  0  0  0  0  0  0
   98.2584   10.2725   93.6265 O   0  5  0  0  0  0  0  0  0  0  0  0
   92.8131   15.5652   94.2827 O   0  5  0  0  0  0  0  0  0  0  0  0
   91.7249   12.1798   96.5176 O   0  0  0  0  0  0  0  0  0  0  0  0
   98.8383   11.2597   95.5350 O   0  5  0  0  0  0  0  0  0  0  0  0
   93.0288   15.1187   96.4622 O   0  5  0  0  0  0  0  0  0  0  0  0
   96.4300   10.8177   95.0041 O   0  0  0  0  0  0  0  0  0  0  0  0
   93.9281   10.0696   95.9423 O   0  0  0  0  0  0  0  0  0  0  0  0
   93.2853   13.2794   94.7157 O   0  0  0  0  0  0  0  0  0  0  0  0
   97.0980    8.4799   97.8462 C   0  0  0  0  0  0  0  0  0  0  0  0
   97.1546    9.5597   99.8481 C   0  0  0  0  0  0  0  0  0  0  0  0
   95.9355   10.1834   99.4990 C   0  0  0  0  0  0  0  0  0  0  0  0
   95.3690    9.9108   98.2782 C   0  0  0  0  0  0  0  0  0  0  0  0
   93.0405   11.9229   96.8388 C   0  0  2  0  0  0  0  0  0  0  0  0
   94.1015   11.2326   94.9502 C   0  0  1  0  0  0  0  0  0  0  0  0
   93.9251   12.3158   95.5441 C   0  0  1  0  0  0  0  0  0  0  0  0
   93.3280   10.6799   97.1779 C   0  0  2  0  0  0  0  0  0  0  0  0
   94.2561   10.6443   98.2334 N   0  0  0  0  0  0  0  0  0  0  0  0
   97.8419   11.2718   94.5220 P   0  0  2  0  0  0  0  0  0  0  0  0
   93.5210   14.7367   95.1613 P   0  0  1  0  0  0  0  0  0  0  0  0
   95.7097   14.7216   93.7359 C   0  0  0  0  0  0  0  0  0  0  0  0
   95.0271   15.0949   94.9436 O   0  0  0  0  0  0  0  0  0  0  0  0
   97.1775   14.7567   93.8175 C   0  0  1  0  0  0  0  0  0  0  0  0
   97.5992   16.0963   94.5989 O   0  0  0  0  0  0  0  0  0  0  0  0
   97.5926   13.8067   94.5282 C   0  0  1  0  0  0  0  0  0  0  0  0
   97.8122   12.6022   93.7584 O   0  0  0  0  0  0  0  0  0  0  0  0
   98.8428   14.3626   95.1929 C   0  0  1  0  0  0  0  0  0  0  0  0
   99.8365   14.2379   94.4255 O   0  0  0  0  0  0  0  0  0  0  0  0
   98.5462   15.8512   95.3753 C   0  0  2  0  0  0  0  0  0  0  0  0
  100.7822   16.1878   99.9928 N   0  0  0  0  0  0  0  0  0  0  0  0
  101.2622   15.5471   98.8947 C   0  0  0  0  0  0  0  0  0  0  0  0
  100.5251   15.5888   97.7913 N   0  0  0  0  0  0  0  0  0  0  0  0
   99.3084   16.1684   97.7101 C   0  0  0  0  0  0  0  0  0  0  0  0
   98.7765   16.8438   98.8295 C   0  0  0  0  0  0  0  0  0  0  0  0
   99.5890   16.8115  100.0076 C   0  0  0  0  0  0  0  0  0  0  0  0
   99.1203   17.4486  101.1944 N   0  0  0  0  0  0  0  0  0  0  0  0
   97.6438   17.3308   98.4609 N   0  0  0  0  0  0  0  0  0  0  0  0
   97.4421   17.0284   97.1902 C   0  0  0  0  0  0  0  0  0  0  0  0
   98.4092   16.3201   96.7271 N   0  0  0  0  0  0  0  0  0  0  0  0
  1 24  1  0  0  0  0
  1  4  2  0  0  0  0
  2 13  1  0  0  0  0
  2 21  1  0  0  0  0
  3 16  1  0  0  0  0
  4 18  1  0  0  0  0
  5 19  2  0  0  0  0
  5 16  1  0  0  0  0
  6 16  2  0  0  0  0
  6 17  1  0  0  0  0
  7 17  1  0  0  0  0
 11 25  2  0  0  0  0
 12 26  2  0  0  0  0
 13 25  1  0  0  0  0
 14 23  1  0  0  0  0
 15 26  1  0  0  0  0
 17 18  2  0  0  0  0
 18 19  1  0  0  0  0
 19 24  1  0  0  0  0
 20 10  1  6  0  0  0
 20 22  1  0  0  0  0
 20 23  1  0  0  0  0
 21 14  1  1  0  0  0
 21 22  1  0  0  0  0
 22 15  1  6  0  0  0
 23 24  1  1  0  0  0
 25  8  1  6  0  0  0
 25 32  1  0  0  0  0
 26  9  1  6  0  0  0
 26 28  1  0  0  0  0
 27 28  1  0  0  0  0
 29 27  1  1  0  0  0
 29 30  1  0  0  0  0
 29 31  1  0  0  0  0
 30 35  1  0  0  0  0
 31 33  1  0  0  0  0
 31 32  1  6  0  0  0
 33 34  1  6  0  0  0
 33 35  1  0  0  0  0
 35 45  1  1  0  0  0
 36 41  2  0  0  0  0
 36 37  1  0  0  0  0
 37 38  2  0  0  0  0
 38 39  1  0  0  0  0
 39 40  2  0  0  0  0
 39 45  1  0  0  0  0
 40 41  1  0  0  0  0
 40 43  1  0  0  0  0
 41 42  1  0  0  0  0
 43 44  2  0  0  0  0
 44 45  1  0  0  0  0
M  CHG  4   8  -1   9  -1  11  -1  12  -1
M  END
>  <CHROM.1>
164.51252833,-179.61918759,96.53955298,12.98908882,96.58949622,-2.37909865
-0.66796149,-0.42299993

>  <Name>
ligand

>  <RI>
0

>  <Rbt.Current_Directory>
/home/itssahil/PROJECTS/Mol_Feturizer/New_Systems/rnas/4YAZ

>  <Rbt.Executable>
rbdock ($Id: //depot/dev/client3/rdock/2013.1/src/exe/rbdock.cxx#4 $)

>  <Rbt.Library>
libRbt.so (2013.1, Build901 2013/11/27)

>  <Rbt.Parameter_File>
/export/apps/rDock/src/rDock_2013.1_src/data/scripts/dock_solv.prm

>  <Rbt.Receptor>
prm/pocket_docking_6.prm

>  <SCORE>
-39.9855

>  <SCORE.INTER>
-40.3299

>  <SCORE.INTER.CONST>
1

>  <SCORE.INTER.POLAR>
0

>  <SCORE.INTER.ROT>
2

>  <SCORE.INTER.SOLV>
27.0655

>  <SCORE.INTER.VDW>
-40.8418

>  <SCORE.INTER.norm>
-0.896221

>  <SCORE.INTRA>
0.344436

>  <SCORE.INTRA.DIHEDRAL>
-0.000425398

>  <SCORE.INTRA.DIHEDRAL.0>
2.39103

>  <SCORE.INTRA.POLAR>
0

>  <SCORE.INTRA.POLAR.0>
0

>  <SCORE.INTRA.REPUL>
0

>  <SCORE.INTRA.REPUL.0>
0

>  <SCORE.INTRA.SOLV>
1.77502

>  <SCORE.INTRA.SOLV.lig_0>
-163.975

>  <SCORE.INTRA.VDW>
-0.542861

>  <SCORE.INTRA.VDW.0>
-1.49176

>  <SCORE.INTRA.norm>
0.00765413

>  <SCORE.RESTR>
0

>  <SCORE.RESTR.CAVITY>
0

>  <SCORE.RESTR.norm>
0

>  <SCORE.SYSTEM>
0

>  <SCORE.SYSTEM.CONST>
0

>  <SCORE.SYSTEM.DIHEDRAL>
0

>  <SCORE.SYSTEM.SOLV>
0

>  <SCORE.SYSTEM.norm>
0

>  <SCORE.heavy>
45

>  <SCORE.norm>
-0.888566

>  <RMSD>
6.852

$$$$
ligand
 OpenBabel11021811523D
libRbt.so/2013.1/901 2013/11/27
 45 51  0  0  0  0  0  0  0  0999 V2000
   94.2403   11.2983   99.4260 C   0  0  0  0  0  0  0  0  0  0  0  0
   95.4644   11.2514   94.3311 C   0  0  0  0  0  0  0  0  0  0  0  0
   97.8541    7.6231   97.0101 N   0  0  0  0  0  0  0  0  0  0  0  0
   95.2345   11.0482  100.2149 N   0  0  0  0  0  0  0  0  0  0  0  0
   96.0793    9.0480   97.5356 N   0  0  0  0  0  0  0  0  0  0  0  0
   97.7960    8.7222   99.0726 N   0  0  0  0  0  0  0  0  0  0  0  0
   97.8015    9.8833  101.1765 O   0  0  0  0  0  0  0  0  0  0  0  0
   98.3335   10.2627   93.7242 O   0  5  0  0  0  0  0  0  0  0  0  0
   92.8856   15.5519   94.3869 O   0  5  0  0  0  0  0  0  0  0  0  0
   91.8019   12.1657   96.6227 O   0  0  0  0  0  0  0  0  0  0  0  0
   98.9149   11.2502   95.6322 O   0  5  0  0  0  0  0  0  0  0  0  0
   93.1039   15.1054   96.5661 O   0  5  0  0  0  0  0  0  0  0  0  0
   96.5063   10.8067   95.1039 O   0  0  0  0  0  0  0  0  0  0  0  0
   94.0059   10.0569   96.0448 O   0  0  0  0  0  0  0  0  0  0  0  0
   93.3597   13.2664   94.8192 O   0  0  0  0  0  0  0  0  0  0  0  0
   97.2022    8.5038   97.9256 C   0  0  0  0  0  0  0  0  0  0  0  0
   97.2480    9.5649   99.9378 C   0  0  0  0  0  0  0  0  0  0  0  0
   96.0216   10.1779   99.5955 C   0  0  0  0  0  0  0  0  0  0  0  0
   95.4573    9.9106   98.3725 C   0  0  0  0  0  0  0  0  0  0  0  0
   93.1180   11.9095   96.9424 C   0  0  2  0  0  0  0  0  0  0  0  0
   94.1774   11.2200   95.0526 C   0  0  1  0  0  0  0  0  0  0  0  0
   94.0010   12.3031   95.6468 C   0  0  1  0  0  0  0  0  0  0  0  0
   93.4067   10.6667   97.2811 C   0  0  2  0  0  0  0  0  0  0  0  0
   94.3361   10.6316   98.3356 N   0  0  0  0  0  0  0  0  0  0  0  0
   97.9174   11.2617   94.6203 P   0  0  2  0  0  0  0  0  0  0  0  0
   93.5950   14.7238   95.2646 P   0  0  1  0  0  0  0  0  0  0  0  0
   95.7821   14.7102   93.8368 C   0  0  0  0  0  0  0  0  0  0  0  0
   95.1006   15.0830   95.0453 O   0  0  0  0  0  0  0  0  0  0  0  0
   97.2499   14.7462   93.9168 C   0  0  1  0  0  0  0  0  0  0  0  0
   97.6717   16.0860   94.6978 O   0  0  0  0  0  0  0  0  0  0  0  0
   97.6664   13.7964   94.6269 C   0  0  1  0  0  0  0  0  0  0  0  0
   97.8859   12.5921   93.8568 O   0  0  0  0  0  0  0  0  0  0  0  0
   98.9170   14.3531   95.2903 C   0  0  1  0  0  0  0  0  0  0  0  0
   99.9099   14.2290   94.5218 O   0  0  0  0  0  0  0  0  0  0  0  0
   98.6197   15.8414   95.4732 C   0  0  2  0  0  0  0  0  0  0  0  0
  100.9257   16.3301  100.0425 N   0  0  0  0  0  0  0  0  0  0  0  0
  101.4185   15.7105   98.9379 C   0  0  0  0  0  0  0  0  0  0  0  0
  100.6583   15.7043   97.8496 N   0  0  0  0  0  0  0  0  0  0  0  0
   99.4097   16.2148   97.7904 C   0  0  0  0  0  0  0  0  0  0  0  0
   98.8635   16.8662   98.9170 C   0  0  0  0  0  0  0  0  0  0  0  0
   99.7000   16.8864  100.0785 C   0  0  0  0  0  0  0  0  0  0  0  0
   99.2204   17.5035  101.2715 N   0  0  0  0  0  0  0  0  0  0  0  0
   97.6982   17.2871   98.5692 N   0  0  0  0  0  0  0  0  0  0  0  0
   97.4882   16.9662   97.3044 C   0  0  0  0  0  0  0  0  0  0  0  0
   98.4838   16.3102   96.8252 N   0  0  0  0  0  0  0  0  0  0  0  0
  1 24  1  0  0  0  0
  1  4  2  0  0  0  0
  2 13  1  0  0  0  0
  2 21  1  0  0  0  0
  3 16  1  0  0  0  0
  4 18  1  0  0  0  0
  5 19  2  0  0  0  0
  5 16  1  0  0  0  0
  6 16  2  0  0  0  0
  6 17  1  0  0  0  0
  7 17  1  0  0  0  0
 11 25  2  0  0  0  0
 12 26  2  0  0  0  0
 13 25  1  0  0  0  0
 14 23  1  0  0  0  0
 15 26  1  0  0  0  0
 17 18  2  0  0  0  0
 18 19  1  0  0  0  0
 19 24  1  0  0  0  0
 20 10  1  6  0  0  0
 20 22  1  0  0  0  0
 20 23  1  0  0  0  0
 21 14  1  1  0  0  0
 21 22  1  0  0  0  0
 22 15  1  6  0  0  0
 23 24  1  1  0  0  0
 25  8  1  6  0  0  0
 25 32  1  0  0  0  0
 26  9  1  6  0  0  0
 26 28  1  0  0  0  0
 27 28  1  0  0  0  0
 29 27  1  1  0  0  0
 29 30  1  0  0  0  0
 29 31  1  0  0  0  0
 30 35  1  0  0  0  0
 31 33  1  0  0  0  0
 31 32  1  6  0  0  0
 33 34  1  6  0  0  0
 33 35  1  0  0  0  0
 35 45  1  1  0  0  0
 36 41  2  0  0  0  0
 36 37  1  0  0  0  0
 37 38  2  0  0  0  0
 38 39  1  0  0  0  0
 39 40  2  0  0  0  0
 39 45  1  0  0  0  0
 40 41  1  0  0  0  0
 40 43  1  0  0  0  0
 41 42  1  0  0  0  0
 43 44  2  0  0  0  0
 44 45  1  0  0  0  0
M  CHG  4   8  -1   9  -1  11  -1  12  -1
M  END
>  <CHROM.1>
165.34064062,-176.25673394,96.62318954,12.99316052,96.68383588,-2.38279774
-0.66269634,-0.41748435

>  <Name>
ligand

>  <RI>
0

>  <Rbt.Current_Directory>
/home/itssahil/PROJECTS/Mol_Feturizer/New_Systems/rnas/4YAZ

>  <Rbt.Executable>
rbdock ($Id: //depot/dev/client3/rdock/2013.1/src/exe/rbdock.cxx#4 $)

>  <Rbt.Library>
libRbt.so (2013.1, Build901 2013/11/27)

>  <Rbt.Parameter_File>
/export/apps/rDock/src/rDock_2013.1_src/data/scripts/dock_solv.prm

>  <Rbt.Receptor>
prm/pocket_docking_8.prm

>  <SCORE>
-39.8639

>  <SCORE.INTER>
-40.3034

>  <SCORE.INTER.CONST>
1

>  <SCORE.INTER.POLAR>
0

>  <SCORE.INTER.ROT>
2

>  <SCORE.INTER.SOLV>
28.2155

>  <SCORE.INTER.VDW>
-41.2074

>  <SCORE.INTER.norm>
-0.895631

>  <SCORE.INTRA>
0.439555

>  <SCORE.INTRA.DIHEDRAL>
0.0234529

>  <SCORE.INTRA.DIHEDRAL.0>
2.39103

>  <SCORE.INTRA.POLAR>
0

>  <SCORE.INTRA.POLAR.0>
0

>  <SCORE.INTRA.REPUL>
0

>  <SCORE.INTRA.REPUL.0>
0

>  <SCORE.INTRA.SOLV>
2.15789

>  <SCORE.INTRA.SOLV.lig_0>
-163.975

>  <SCORE.INTRA.VDW>
-0.651114

>  <SCORE.INTRA.VDW.0>
-1.49176

>  <SCORE.INTRA.norm>
0.0097679

>  <SCORE.RESTR>
0

>  <SCORE.RESTR.CAVITY>
0

>  <SCORE.RESTR.norm>
0

>  <SCORE.SYSTEM>
0

>  <SCORE.SYSTEM.CONST>
0

>  <SCORE.SYSTEM.DIHEDRAL>
0

>  <SCORE.SYSTEM.SOLV>
0

>  <SCORE.SYSTEM.norm>
0

>  <SCORE.heavy>
45

>  <SCORE.norm>
-0.885863

>  <RMSD>
6.852

$$$$
ligand
 OpenBabel11021811513D
libRbt.so/2013.1/901 2013/11/27
 45 51  0  0  0  0  0  0  0  0999 V2000
   94.1648   11.3379   99.3269 C   0  0  0  0  0  0  0  0  0  0  0  0
   95.3939   11.2657   94.2398 C   0  0  0  0  0  0  0  0  0  0  0  0
   97.7384    7.5959   96.9542 N   0  0  0  0  0  0  0  0  0  0  0  0
   95.1544   11.0836  100.1201 N   0  0  0  0  0  0  0  0  0  0  0  0
   95.9800    9.0472   97.4622 N   0  0  0  0  0  0  0  0  0  0  0  0
   97.6898    8.7158   99.0057 N   0  0  0  0  0  0  0  0  0  0  0  0
   97.7054    9.8973  101.0982 O   0  0  0  0  0  0  0  0  0  0  0  0
   98.2607   10.2652   93.6415 O   0  5  0  0  0  0  0  0  0  0  0  0
   92.8305   15.5756   94.2797 O   0  5  0  0  0  0  0  0  0  0  0  0
   91.7297   12.1986   96.5211 O   0  0  0  0  0  0  0  0  0  0  0  0
   98.8415   11.2551   95.5484 O   0  5  0  0  0  0  0  0  0  0  0  0
   93.0424   15.1335   96.4605 O   0  5  0  0  0  0  0  0  0  0  0  0
   96.4324   10.8190   95.0159 O   0  0  0  0  0  0  0  0  0  0  0  0
   93.9273   10.0805   95.9531 O   0  0  0  0  0  0  0  0  0  0  0  0
   93.2954   13.2894   94.7184 O   0  0  0  0  0  0  0  0  0  0  0  0
   97.0955    8.4933   97.8598 C   0  0  0  0  0  0  0  0  0  0  0  0
   97.1504    9.5734   99.8615 C   0  0  0  0  0  0  0  0  0  0  0  0
   95.9321   10.1978   99.5108 C   0  0  0  0  0  0  0  0  0  0  0  0
   95.3669    9.9254   98.2894 C   0  0  0  0  0  0  0  0  0  0  0  0
   93.0442   11.9385   96.8443 C   0  0  2  0  0  0  0  0  0  0  0  0
   94.1052   11.2407   94.9585 C   0  0  1  0  0  0  0  0  0  0  0  0
   93.9314   12.3258   95.5497 C   0  0  1  0  0  0  0  0  0  0  0  0
   93.3276   10.6954   97.1866 C   0  0  2  0  0  0  0  0  0  0  0  0
   94.2545   10.6594   98.2432 N   0  0  0  0  0  0  0  0  0  0  0  0
   97.8462   11.2678   94.5343 P   0  0  2  0  0  0  0  0  0  0  0  0
   93.5350   14.7470   95.1609 P   0  0  1  0  0  0  0  0  0  0  0  0
   95.7251   14.7222   93.7380 C   0  0  0  0  0  0  0  0  0  0  0  0
   95.0423   15.1002   94.9441 O   0  0  0  0  0  0  0  0  0  0  0  0
   97.1929   14.7530   93.8212 C   0  0  1  0  0  0  0  0  0  0  0  0
   97.6178   16.0932   94.5999 O   0  0  0  0  0  0  0  0  0  0  0  0
   97.6044   13.8034   94.5344 C   0  0  1  0  0  0  0  0  0  0  0  0
   97.8212   12.5965   93.7677 O   0  0  0  0  0  0  0  0  0  0  0  0
   98.8556   14.3571   95.1993 C   0  0  1  0  0  0  0  0  0  0  0  0
   99.8497   14.2277   94.4332 O   0  0  0  0  0  0  0  0  0  0  0  0
   98.5632   15.8470   95.3780 C   0  0  2  0  0  0  0  0  0  0  0  0
  100.8085   16.2162   99.9884 N   0  0  0  0  0  0  0  0  0  0  0  0
  101.2906   15.5755   98.8912 C   0  0  0  0  0  0  0  0  0  0  0  0
  100.5503   15.6078   97.7896 N   0  0  0  0  0  0  0  0  0  0  0  0
   99.3290   16.1779   97.7097 C   0  0  0  0  0  0  0  0  0  0  0  0
   98.7948   16.8530   98.8282 C   0  0  0  0  0  0  0  0  0  0  0  0
   99.6106   16.8309  100.0043 C   0  0  0  0  0  0  0  0  0  0  0  0
   99.1401   17.4683  101.1902 N   0  0  0  0  0  0  0  0  0  0  0  0
   97.6575   17.3300   98.4609 N   0  0  0  0  0  0  0  0  0  0  0  0
   97.4548   17.0218   97.1917 C   0  0  0  0  0  0  0  0  0  0  0  0
   98.4261   16.3194   96.7285 N   0  0  0  0  0  0  0  0  0  0  0  0
  1 24  1  0  0  0  0
  1  4  2  0  0  0  0
  2 13  1  0  0  0  0
  2 21  1  0  0  0  0
  3 16  1  0  0  0  0
  4 18  1  0  0  0  0
  5 19  2  0  0  0  0
  5 16  1  0  0  0  0
  6 16  2  0  0  0  0
  6 17  1  0  0  0  0
  7 17  1  0  0  0  0
 11 25  2  0  0  0  0
 12 26  2  0  0  0  0
 13 25  1  0  0  0  0
 14 23  1  0  0  0  0
 15 26  1  0  0  0  0
 17 18  2  0  0  0  0
 18 19  1  0  0  0  0
 19 24  1  0  0  0  0
 20 10  1  6  0  0  0
 20 22  1  0  0  0  0
 20 23  1  0  0  0  0
 21 14  1  1  0  0  0
 21 22  1  0  0  0  0
 22 15  1  6  0  0  0
 23 24  1  1  0  0  0
 25  8  1  6  0  0  0
 25 32  1  0  0  0  0
 26  9  1  6  0  0  0
 26 28  1  0  0  0  0
 27 28  1  0  0  0  0
 29 27  1  1  0  0  0
 29 30  1  0  0  0  0
 29 31  1  0  0  0  0
 30 35  1  0  0  0  0
 31 33  1  0  0  0  0
 31 32  1  6  0  0  0
 33 34  1  6  0  0  0
 33 35  1  0  0  0  0
 35 45  1  1  0  0  0
 36 41  2  0  0  0  0
 36 37  1  0  0  0  0
 37 38  2  0  0  0  0
 38 39  1  0  0  0  0
 39 40  2  0  0  0  0
 39 45  1  0  0  0  0
 40 41  1  0  0  0  0
 40 43  1  0  0  0  0
 41 42  1  0  0  0  0
 43 44  2  0  0  0  0
 44 45  1  0  0  0  0
M  CHG  4   8  -1   9  -1  11  -1  12  -1
M  END
>  <CHROM.1>
164.69485115,-178.97149315,96.54818680,12.99665843,96.59534465,-2.38444821
-0.66679286,-0.42681244

>  <Name>
ligand

>  <RI>
0

>  <Rbt.Current_Directory>
/home/itssahil/PROJECTS/Mol_Feturizer/New_Systems/rnas/4YAZ

>  <Rbt.Executable>
rbdock ($Id: //depot/dev/client3/rdock/2013.1/src/exe/rbdock.cxx#4 $)

>  <Rbt.Library>
libRbt.so (2013.1, Build901 2013/11/27)

>  <Rbt.Parameter_File>
/export/apps/rDock/src/rDock_2013.1_src/data/scripts/dock_solv.prm

>  <Rbt.Receptor>
prm/pocket_docking_3.prm

>  <SCORE>
-39.9163

>  <SCORE.INTER>
-40.2901

>  <SCORE.INTER.CONST>
1

>  <SCORE.INTER.POLAR>
0

>  <SCORE.INTER.ROT>
2

>  <SCORE.INTER.SOLV>
27.2205

>  <SCORE.INTER.VDW>
-40.8669

>  <SCORE.INTER.norm>
-0.895336

>  <SCORE.INTRA>
0.373797

>  <SCORE.INTRA.DIHEDRAL>
0.00416108

>  <SCORE.INTRA.DIHEDRAL.0>
2.39103

>  <SCORE.INTRA.POLAR>
0

>  <SCORE.INTRA.POLAR.0>
0

>  <SCORE.INTRA.REPUL>
0

>  <SCORE.INTRA.REPUL.0>
0

>  <SCORE.INTRA.SOLV>
1.8597

>  <SCORE.INTRA.SOLV.lig_0>
-163.975

>  <SCORE.INTRA.VDW>
-0.558136

>  <SCORE.INTRA.VDW.0>
-1.49176

>  <SCORE.INTRA.norm>
0.00830659

>  <SCORE.RESTR>
0

>  <SCORE.RESTR.CAVITY>
0

>  <SCORE.RESTR.norm>
0

>  <SCORE.SYSTEM>
0

>  <SCORE.SYSTEM.CONST>
0

>  <SCORE.SYSTEM.DIHEDRAL>
0

>  <SCORE.SYSTEM.SOLV>
0

>  <SCORE.SYSTEM.norm>
0

>  <SCORE.heavy>
45

>  <SCORE.norm>
-0.887029

>  <RMSD>
6.853

$$$$
ligand
 OpenBabel11021811513D
libRbt.so/2013.1/901 2013/11/27
 45 51  0  0  0  0  0  0  0  0999 V2000
   94.1541   11.3026   99.3418 C   0  0  0  0  0  0  0  0  0  0  0  0
   95.4147   11.2716   94.2638 C   0  0  0  0  0  0  0  0  0  0  0  0
   97.7526    7.5823   96.9725 N   0  0  0  0  0  0  0  0  0  0  0  0
   95.1393   11.0468  100.1400 N   0  0  0  0  0  0  0  0  0  0  0  0
   95.9872    9.0264   97.4769 N   0  0  0  0  0  0  0  0  0  0  0  0
   97.6880    8.6913   99.0295 N   0  0  0  0  0  0  0  0  0  0  0  0
   97.6871    9.8619  101.1282 O   0  0  0  0  0  0  0  0  0  0  0  0
   98.2904   10.2901   93.6769 O   0  5  0  0  0  0  0  0  0  0  0  0
   92.8293   15.5682   94.3187 O   0  5  0  0  0  0  0  0  0  0  0  0
   91.7312   12.1692   96.5280 O   0  0  0  0  0  0  0  0  0  0  0  0
   98.8538   11.2687   95.5948 O   0  5  0  0  0  0  0  0  0  0  0  0
   93.0293   15.1110   96.4975 O   0  5  0  0  0  0  0  0  0  0  0  0
   96.4505   10.8245   95.0434 O   0  0  0  0  0  0  0  0  0  0  0  0
   93.9431   10.0665   95.9587 O   0  0  0  0  0  0  0  0  0  0  0  0
   93.3030   13.2812   94.7436 O   0  0  0  0  0  0  0  0  0  0  0  0
   97.1016    8.4733   97.8786 C   0  0  0  0  0  0  0  0  0  0  0  0
   97.1408    9.5431   99.8863 C   0  0  0  0  0  0  0  0  0  0  0  0
   95.9232   10.1662   99.5311 C   0  0  0  0  0  0  0  0  0  0  0  0
   95.3665    9.8987   98.3047 C   0  0  0  0  0  0  0  0  0  0  0  0
   93.0448   11.9133   96.8578 C   0  0  2  0  0  0  0  0  0  0  0  0
   94.1216   11.2348   94.9739 C   0  0  1  0  0  0  0  0  0  0  0  0
   93.9385   12.3147   95.5720 C   0  0  1  0  0  0  0  0  0  0  0  0
   93.3324   10.6692   97.1928 C   0  0  2  0  0  0  0  0  0  0  0  0
   94.2526   10.6301   98.2551 N   0  0  0  0  0  0  0  0  0  0  0  0
   97.8651   11.2840   94.5743 P   0  0  2  0  0  0  0  0  0  0  0  0
   93.5322   14.7367   95.1984 P   0  0  1  0  0  0  0  0  0  0  0  0
   95.7317   14.7334   93.7896 C   0  0  0  0  0  0  0  0  0  0  0  0
   95.0392   15.0991   94.9940 O   0  0  0  0  0  0  0  0  0  0  0  0
   97.1987   14.7710   93.8826 C   0  0  1  0  0  0  0  0  0  0  0  0
   97.6117   16.1075   94.6739 O   0  0  0  0  0  0  0  0  0  0  0  0
   97.6104   13.8182   94.5915 C   0  0  1  0  0  0  0  0  0  0  0  0
   97.8383   12.6182   93.8173 O   0  0  0  0  0  0  0  0  0  0  0  0
   98.8544   14.3733   95.2685 C   0  0  1  0  0  0  0  0  0  0  0  0
   99.8541   14.2545   94.5081 O   0  0  0  0  0  0  0  0  0  0  0  0
   98.5533   15.8603   95.4563 C   0  0  2  0  0  0  0  0  0  0  0  0
  100.7928   16.2659  100.0665 N   0  0  0  0  0  0  0  0  0  0  0  0
  101.2906   15.6439   98.9656 C   0  0  0  0  0  0  0  0  0  0  0  0
  100.5486   15.6620   97.8649 N   0  0  0  0  0  0  0  0  0  0  0  0
   99.3125   16.1997   97.7890 C   0  0  0  0  0  0  0  0  0  0  0  0
   98.7616   16.8546   98.9114 C   0  0  0  0  0  0  0  0  0  0  0  0
   99.5789   16.8483  100.0866 C   0  0  0  0  0  0  0  0  0  0  0  0
   99.0928   17.4670  101.2761 N   0  0  0  0  0  0  0  0  0  0  0  0
   97.6116   17.3030   98.5476 N   0  0  0  0  0  0  0  0  0  0  0  0
   97.4158   16.9959   97.2770 C   0  0  0  0  0  0  0  0  0  0  0  0
   98.4051   16.3221   96.8093 N   0  0  0  0  0  0  0  0  0  0  0  0
  1 24  1  0  0  0  0
  1  4  2  0  0  0  0
  2 13  1  0  0  0  0
  2 21  1  0  0  0  0
  3 16  1  0  0  0  0
  4 18  1  0  0  0  0
  5 19  2  0  0  0  0
  5 16  1  0  0  0  0
  6 16  2  0  0  0  0
  6 17  1  0  0  0  0
  7 17  1  0  0  0  0
 11 25  2  0  0  0  0
 12 26  2  0  0  0  0
 13 25  1  0  0  0  0
 14 23  1  0  0  0  0
 15 26  1  0  0  0  0
 17 18  2  0  0  0  0
 18 19  1  0  0  0  0
 19 24  1  0  0  0  0
 20 10  1  6  0  0  0
 20 22  1  0  0  0  0
 20 23  1  0  0  0  0
 21 14  1  1  0  0  0
 21 22  1  0  0  0  0
 22 15  1  6  0  0  0
 23 24  1  1  0  0  0
 25  8  1  6  0  0  0
 25 32  1  0  0  0  0
 26  9  1  6  0  0  0
 26 28  1  0  0  0  0
 27 28  1  0  0  0  0
 29 27  1  1  0  0  0
 29 30  1  0  0  0  0
 29 31  1  0  0  0  0
 30 35  1  0  0  0  0
 31 33  1  0  0  0  0
 31 32  1  6  0  0  0
 33 34  1  6  0  0  0
 33 35  1  0  0  0  0
 35 45  1  1  0  0  0
 36 41  2  0  0  0  0
 36 37  1  0  0  0  0
 37 38  2  0  0  0  0
 38 39  1  0  0  0  0
 39 40  2  0  0  0  0
 39 45  1  0  0  0  0
 40 41  1  0  0  0  0
 40 43  1  0  0  0  0
 41 42  1  0  0  0  0
 43 44  2  0  0  0  0
 44 45  1  0  0  0  0
M  CHG  4   8  -1   9  -1  11  -1  12  -1
M  END
>  <CHROM.1>
164.50789941,-177.65374951,96.54632093,12.99480468,96.63855863,-2.38062347
-0.67376444,-0.41739369

>  <Name>
ligand

>  <RI>
0

>  <Rbt.Current_Directory>
/home/itssahil/PROJECTS/Mol_Feturizer/New_Systems/rnas/4YAZ

>  <Rbt.Executable>
rbdock ($Id: //depot/dev/client3/rdock/2013.1/src/exe/rbdock.cxx#4 $)

>  <Rbt.Library>
libRbt.so (2013.1, Build901 2013/11/27)

>  <Rbt.Parameter_File>
/export/apps/rDock/src/rDock_2013.1_src/data/scripts/dock_solv.prm

>  <Rbt.Receptor>
prm/pocket_docking_4.prm

>  <SCORE>
-39.9572

>  <SCORE.INTER>
-40.2972

>  <SCORE.INTER.CONST>
1

>  <SCORE.INTER.POLAR>
0

>  <SCORE.INTER.ROT>
2

>  <SCORE.INTER.SOLV>
27.3927

>  <SCORE.INTER.VDW>
-40.929

>  <SCORE.INTER.norm>
-0.895493

>  <SCORE.INTRA>
0.339957

>  <SCORE.INTRA.DIHEDRAL>
0.0136284

>  <SCORE.INTRA.DIHEDRAL.0>
2.39103

>  <SCORE.INTRA.POLAR>
0

>  <SCORE.INTRA.POLAR.0>
0

>  <SCORE.INTRA.REPUL>
0

>  <SCORE.INTRA.REPUL.0>
0

>  <SCORE.INTRA.SOLV>
1.77038

>  <SCORE.INTRA.SOLV.lig_0>
-163.975

>  <SCORE.INTRA.VDW>
-0.552047

>  <SCORE.INTRA.VDW.0>
-1.49176

>  <SCORE.INTRA.norm>
0.00755461

>  <SCORE.RESTR>
0

>  <SCORE.RESTR.CAVITY>
0

>  <SCORE.RESTR.norm>
0

>  <SCORE.SYSTEM>
0

>  <SCORE.SYSTEM.CONST>
0

>  <SCORE.SYSTEM.DIHEDRAL>
0

>  <SCORE.SYSTEM.SOLV>
0

>  <SCORE.SYSTEM.norm>
0

>  <SCORE.heavy>
45

>  <SCORE.norm>
-0.887938

>  <RMSD>
6.853

$$$$
ligand
 OpenBabel11021811513D
libRbt.so/2013.1/901 2013/11/27
 45 51  0  0  0  0  0  0  0  0999 V2000
   94.2591   11.3251   99.4087 C   0  0  0  0  0  0  0  0  0  0  0  0
   95.5017   11.3212   94.3338 C   0  0  0  0  0  0  0  0  0  0  0  0
   97.8225    7.5726   97.0372 N   0  0  0  0  0  0  0  0  0  0  0  0
   95.2443   11.0630  100.2049 N   0  0  0  0  0  0  0  0  0  0  0  0
   96.0696    9.0313   97.5433 N   0  0  0  0  0  0  0  0  0  0  0  0
   97.7717    8.6858   99.0923 N   0  0  0  0  0  0  0  0  0  0  0  0
   97.7853    9.8601  101.1888 O   0  0  0  0  0  0  0  0  0  0  0  0
   98.3782   10.3500   93.7339 O   0  5  0  0  0  0  0  0  0  0  0  0
   92.9070   15.6116   94.4236 O   0  5  0  0  0  0  0  0  0  0  0  0
   91.8211   12.1951   96.6120 O   0  0  0  0  0  0  0  0  0  0  0  0
   98.9436   11.3167   95.6573 O   0  5  0  0  0  0  0  0  0  0  0  0
   93.1127   15.1399   96.5988 O   0  5  0  0  0  0  0  0  0  0  0  0
   96.5401   10.8710   95.1080 O   0  0  0  0  0  0  0  0  0  0  0  0
   94.0364   10.1012   96.0236 O   0  0  0  0  0  0  0  0  0  0  0  0
   93.3865   13.3227   94.8319 O   0  0  0  0  0  0  0  0  0  0  0  0
   97.1808    8.4703   97.9433 C   0  0  0  0  0  0  0  0  0  0  0  0
   97.2334    9.5434   99.9489 C   0  0  0  0  0  0  0  0  0  0  0  0
   96.0198   10.1752   99.5956 C   0  0  0  0  0  0  0  0  0  0  0  0
   95.4579    9.9098   98.3711 C   0  0  0  0  0  0  0  0  0  0  0  0
   93.1360   11.9399   96.9372 C   0  0  2  0  0  0  0  0  0  0  0  0
   94.2102   11.2767   95.0464 C   0  0  1  0  0  0  0  0  0  0  0  0
   94.0259   12.3520   95.6522 C   0  0  1  0  0  0  0  0  0  0  0  0
   93.4269   10.6942   97.2630 C   0  0  2  0  0  0  0  0  0  0  0  0
   94.3495   10.6498   98.3231 N   0  0  0  0  0  0  0  0  0  0  0  0
   97.9527   11.3368   94.6390 P   0  0  2  0  0  0  0  0  0  0  0  0
   93.6136   14.7756   95.2961 P   0  0  1  0  0  0  0  0  0  0  0  0
   95.8100   14.7868   93.8826 C   0  0  0  0  0  0  0  0  0  0  0  0
   95.1193   15.1427   95.0909 O   0  0  0  0  0  0  0  0  0  0  0  0
   97.2772   14.8270   93.9727 C   0  0  1  0  0  0  0  0  0  0  0  0
   97.6889   16.1589   94.7722 O   0  0  0  0  0  0  0  0  0  0  0  0
   97.6925   13.8703   94.6742 C   0  0  1  0  0  0  0  0  0  0  0  0
   97.9213   12.6761   93.8913 O   0  0  0  0  0  0  0  0  0  0  0  0
   98.9367   14.4235   95.3523 C   0  0  1  0  0  0  0  0  0  0  0  0
   99.9350   14.3121   94.5889 O   0  0  0  0  0  0  0  0  0  0  0  0
   98.6328   15.9085   95.5509 C   0  0  2  0  0  0  0  0  0  0  0  0
  100.9091   16.3560  100.1391 N   0  0  0  0  0  0  0  0  0  0  0  0
  101.4118   15.7520   99.0304 C   0  0  0  0  0  0  0  0  0  0  0  0
  100.6580   15.7545   97.9376 N   0  0  0  0  0  0  0  0  0  0  0  0
   99.4071   16.2590   97.8769 C   0  0  0  0  0  0  0  0  0  0  0  0
   98.8507   16.8942   99.0078 C   0  0  0  0  0  0  0  0  0  0  0  0
   99.6802   16.9053  100.1744 C   0  0  0  0  0  0  0  0  0  0  0  0
   99.1903   17.5058  101.3716 N   0  0  0  0  0  0  0  0  0  0  0  0
   97.6852   17.3128   98.6580 N   0  0  0  0  0  0  0  0  0  0  0  0
   97.4844   17.0057   97.3883 C   0  0  0  0  0  0  0  0  0  0  0  0
   98.4864   16.3607   96.9074 N   0  0  0  0  0  0  0  0  0  0  0  0
  1 24  1  0  0  0  0
  1  4  2  0  0  0  0
  2 13  1  0  0  0  0
  2 21  1  0  0  0  0
  3 16  1  0  0  0  0
  4 18  1  0  0  0  0
  5 19  2  0  0  0  0
  5 16  1  0  0  0  0
  6 16  2  0  0  0  0
  6 17  1  0  0  0  0
  7 17  1  0  0  0  0
 11 25  2  0  0  0  0
 12 26  2  0  0  0  0
 13 25  1  0  0  0  0
 14 23  1  0  0  0  0
 15 26  1  0  0  0  0
 17 18  2  0  0  0  0
 18 19  1  0  0  0  0
 19 24  1  0  0  0  0
 20 10  1  6  0  0  0
 20 22  1  0  0  0  0
 20 23  1  0  0  0  0
 21 14  1  1  0  0  0
 21 22  1  0  0  0  0
 22 15  1  6  0  0  0
 23 24  1  1  0  0  0
 25  8  1  6  0  0  0
 25 32  1  0  0  0  0
 26  9  1  6  0  0  0
 26 28  1  0  0  0  0
 27 28  1  0  0  0  0
 29 27  1  1  0  0  0
 29 30  1  0  0  0  0
 29 31  1  0  0  0  0
 30 35  1  0  0  0  0
 31 33  1  0  0  0  0
 31 32  1  6  0  0  0
 33 34  1  6  0  0  0
 33 35  1  0  0  0  0
 35 45  1  1  0  0  0
 36 41  2  0  0  0  0
 36 37  1  0  0  0  0
 37 38  2  0  0  0  0
 38 39  1  0  0  0  0
 39 40  2  0  0  0  0
 39 45  1  0  0  0  0
 40 41  1  0  0  0  0
 40 43  1  0  0  0  0
 41 42  1  0  0  0  0
 43 44  2  0  0  0  0
 44 45  1  0  0  0  0
M  CHG  4   8  -1   9  -1  11  -1  12  -1
M  END
>  <CHROM.1>
163.75055514,-176.14709877,96.63449346,13.03283051,96.71795997,-2.37174873
-0.67244732,-0.40924678

>  <Name>
ligand

>  <RI>
0

>  <Rbt.Current_Directory>
/home/itssahil/PROJECTS/Mol_Feturizer/New_Systems/rnas/4YAZ

>  <Rbt.Executable>
rbdock ($Id: //depot/dev/client3/rdock/2013.1/src/exe/rbdock.cxx#4 $)

>  <Rbt.Library>
libRbt.so (2013.1, Build901 2013/11/27)

>  <Rbt.Parameter_File>
/export/apps/rDock/src/rDock_2013.1_src/data/scripts/dock_solv.prm

>  <Rbt.Receptor>
prm/pocket_docking_5.prm

>  <SCORE>
-39.8835

>  <SCORE.INTER>
-40.0819

>  <SCORE.INTER.CONST>
1

>  <SCORE.INTER.POLAR>
0

>  <SCORE.INTER.ROT>
2

>  <SCORE.INTER.SOLV>
28.8992

>  <SCORE.INTER.VDW>
-41.2877

>  <SCORE.INTER.norm>
-0.890709

>  <SCORE.INTRA>
0.19838

>  <SCORE.INTRA.DIHEDRAL>
0.0245502

>  <SCORE.INTRA.DIHEDRAL.0>
2.39103

>  <SCORE.INTRA.POLAR>
0

>  <SCORE.INTRA.POLAR.0>
0

>  <SCORE.INTRA.REPUL>
0

>  <SCORE.INTRA.REPUL.0>
0

>  <SCORE.INTRA.SOLV>
1.42846

>  <SCORE.INTRA.SOLV.lig_0>
-163.975

>  <SCORE.INTRA.VDW>
-0.528126

>  <SCORE.INTRA.VDW.0>
-1.49176

>  <SCORE.INTRA.norm>
0.00440843

>  <SCORE.RESTR>
0

>  <SCORE.RESTR.CAVITY>
0

>  <SCORE.RESTR.norm>
0

>  <SCORE.SYSTEM>
0

>  <SCORE.SYSTEM.CONST>
0

>  <SCORE.SYSTEM.DIHEDRAL>
0

>  <SCORE.SYSTEM.SOLV>
0

>  <SCORE.SYSTEM.norm>
0

>  <SCORE.heavy>
45

>  <SCORE.norm>
-0.8863

>  <RMSD>
6.853

$$$$
ligand
 OpenBabel11021811513D
libRbt.so/2013.1/901 2013/11/27
 45 51  0  0  0  0  0  0  0  0999 V2000
   94.1080   11.3204   99.3228 C   0  0  0  0  0  0  0  0  0  0  0  0
   95.4142   11.2639   94.2519 C   0  0  0  0  0  0  0  0  0  0  0  0
   97.7389    7.6122   96.9842 N   0  0  0  0  0  0  0  0  0  0  0  0
   95.0874   11.0680  100.1292 N   0  0  0  0  0  0  0  0  0  0  0  0
   95.9644    9.0503   97.4736 N   0  0  0  0  0  0  0  0  0  0  0  0
   97.6533    8.7212   99.0405 N   0  0  0  0  0  0  0  0  0  0  0  0
   97.6308    9.8921  101.1388 O   0  0  0  0  0  0  0  0  0  0  0  0
   98.2917   10.2708   93.6938 O   0  5  0  0  0  0  0  0  0  0  0  0
   92.8410   15.5681   94.2618 O   0  5  0  0  0  0  0  0  0  0  0  0
   91.7150   12.1847   96.4810 O   0  0  0  0  0  0  0  0  0  0  0  0
   98.8423   11.2585   95.6108 O   0  5  0  0  0  0  0  0  0  0  0  0
   93.0219   15.1225   96.4446 O   0  5  0  0  0  0  0  0  0  0  0  0
   96.4423   10.8181   95.0423 O   0  0  0  0  0  0  0  0  0  0  0  0
   93.9254   10.0725   95.9414 O   0  0  0  0  0  0  0  0  0  0  0  0
   93.3045   13.2821   94.7033 O   0  0  0  0  0  0  0  0  0  0  0  0
   97.0773    8.5011   97.8847 C   0  0  0  0  0  0  0  0  0  0  0  0
   97.0961    9.5712   99.8925 C   0  0  0  0  0  0  0  0  0  0  0  0
   95.8793   10.1901   99.5270 C   0  0  0  0  0  0  0  0  0  0  0  0
   95.3338    9.9204   98.2960 C   0  0  0  0  0  0  0  0  0  0  0  0
   93.0252   11.9269   96.8229 C   0  0  2  0  0  0  0  0  0  0  0  0
   94.1153   11.2347   94.9516 C   0  0  1  0  0  0  0  0  0  0  0  0
   93.9304   12.3185   95.5421 C   0  0  1  0  0  0  0  0  0  0  0  0
   93.3064   10.6838   97.1671 C   0  0  2  0  0  0  0  0  0  0  0  0
   94.2178   10.6480   98.2371 N   0  0  0  0  0  0  0  0  0  0  0  0
   97.8620   11.2709   94.5822 P   0  0  2  0  0  0  0  0  0  0  0  0
   93.5343   14.7395   95.1517 P   0  0  1  0  0  0  0  0  0  0  0  0
   95.7451   14.7220   93.7609 C   0  0  0  0  0  0  0  0  0  0  0  0
   95.0439   15.0964   94.9576 O   0  0  0  0  0  0  0  0  0  0  0  0
   97.2114   14.7559   93.8657 C   0  0  1  0  0  0  0  0  0  0  0  0
   97.6219   16.0956   94.6528 O   0  0  0  0  0  0  0  0  0  0  0  0
   97.6146   13.8060   94.5832 C   0  0  1  0  0  0  0  0  0  0  0  0
   97.8453   12.6009   93.8176 O   0  0  0  0  0  0  0  0  0  0  0  0
   98.8546   14.3612   95.2672 C   0  0  1  0  0  0  0  0  0  0  0  0
   99.8601   14.2353   94.5156 O   0  0  0  0  0  0  0  0  0  0  0  0
   98.5564   15.8501   95.4442 C   0  0  2  0  0  0  0  0  0  0  0  0
  100.7715   16.3033  100.0618 N   0  0  0  0  0  0  0  0  0  0  0  0
  101.2789   15.6775   98.9674 C   0  0  0  0  0  0  0  0  0  0  0  0
  100.5419   15.6828   97.8632 N   0  0  0  0  0  0  0  0  0  0  0  0
   99.3022   16.2108   97.7780 C   0  0  0  0  0  0  0  0  0  0  0  0
   98.7414   16.8691   98.8934 C   0  0  0  0  0  0  0  0  0  0  0  0
   99.5532   16.8768  100.0724 C   0  0  0  0  0  0  0  0  0  0  0  0
   99.0572   17.4998  101.2555 N   0  0  0  0  0  0  0  0  0  0  0  0
   97.5898   17.3066   98.5214 N   0  0  0  0  0  0  0  0  0  0  0  0
   97.4022   16.9896   97.2520 C   0  0  0  0  0  0  0  0  0  0  0  0
   98.3985   16.3199   96.7934 N   0  0  0  0  0  0  0  0  0  0  0  0
  1 24  1  0  0  0  0
  1  4  2  0  0  0  0
  2 13  1  0  0  0  0
  2 21  1  0  0  0  0
  3 16  1  0  0  0  0
  4 18  1  0  0  0  0
  5 19  2  0  0  0  0
  5 16  1  0  0  0  0
  6 16  2  0  0  0  0
  6 17  1  0  0  0  0
  7 17  1  0  0  0  0
 11 25  2  0  0  0  0
 12 26  2  0  0  0  0
 13 25  1  0  0  0  0
 14 23  1  0  0  0  0
 15 26  1  0  0  0  0
 17 18  2  0  0  0  0
 18 19  1  0  0  0  0
 19 24  1  0  0  0  0
 20 10  1  6  0  0  0
 20 22  1  0  0  0  0
 20 23  1  0  0  0  0
 21 14  1  1  0  0  0
 21 22  1  0  0  0  0
 22 15  1  6  0  0  0
 23 24  1  1  0  0  0
 25  8  1  6  0  0  0
 25 32  1  0  0  0  0
 26  9  1  6  0  0  0
 26 28  1  0  0  0  0
 27 28  1  0  0  0  0
 29 27  1  1  0  0  0
 29 30  1  0  0  0  0
 29 31  1  0  0  0  0
 30 35  1  0  0  0  0
 31 33  1  0  0  0  0
 31 32  1  6  0  0  0
 33 34  1  6  0  0  0
 33 35  1  0  0  0  0
 35 45  1  1  0  0  0
 36 41  2  0  0  0  0
 36 37  1  0  0  0  0
 37 38  2  0  0  0  0
 38 39  1  0  0  0  0
 39 40  2  0  0  0  0
 39 45  1  0  0  0  0
 40 41  1  0  0  0  0
 40 43  1  0  0  0  0
 41 42  1  0  0  0  0
 43 44  2  0  0  0  0
 44 45  1  0  0  0  0
M  CHG  4   8  -1   9  -1  11  -1  12  -1
M  END
>  <CHROM.1>
164.98732890,-177.02929075,96.53371542,13.00120968,96.62433925,-2.39125199
-0.67869554,-0.42603598

>  <Name>
ligand

>  <RI>
0

>  <Rbt.Current_Directory>
/home/itssahil/PROJECTS/Mol_Feturizer/New_Systems/rnas/4YAZ

>  <Rbt.Executable>
rbdock ($Id: //depot/dev/client3/rdock/2013.1/src/exe/rbdock.cxx#4 $)

>  <Rbt.Library>
libRbt.so (2013.1, Build901 2013/11/27)

>  <Rbt.Parameter_File>
/export/apps/rDock/src/rDock_2013.1_src/data/scripts/dock_solv.prm

>  <Rbt.Receptor>
prm/pocket_docking_5.prm

>  <SCORE>
-39.918

>  <SCORE.INTER>
-40.3007

>  <SCORE.INTER.CONST>
1

>  <SCORE.INTER.POLAR>
0

>  <SCORE.INTER.ROT>
2

>  <SCORE.INTER.SOLV>
27.2208

>  <SCORE.INTER.VDW>
-40.8741

>  <SCORE.INTER.norm>
-0.895571

>  <SCORE.INTRA>
0.382711

>  <SCORE.INTRA.DIHEDRAL>
0.0180028

>  <SCORE.INTRA.DIHEDRAL.0>
2.39103

>  <SCORE.INTRA.POLAR>
0

>  <SCORE.INTRA.POLAR.0>
0

>  <SCORE.INTRA.REPUL>
0

>  <SCORE.INTRA.REPUL.0>
0

>  <SCORE.INTRA.SOLV>
1.99407

>  <SCORE.INTRA.SOLV.lig_0>
-163.975

>  <SCORE.INTRA.VDW>
-0.623324

>  <SCORE.INTRA.VDW.0>
-1.49176

>  <SCORE.INTRA.norm>
0.0085047

>  <SCORE.RESTR>
0

>  <SCORE.RESTR.CAVITY>
0

>  <SCORE.RESTR.norm>
0

>  <SCORE.SYSTEM>
0

>  <SCORE.SYSTEM.CONST>
0

>  <SCORE.SYSTEM.DIHEDRAL>
0

>  <SCORE.SYSTEM.SOLV>
0

>  <SCORE.SYSTEM.norm>
0

>  <SCORE.heavy>
45

>  <SCORE.norm>
-0.887066

>  <RMSD>
6.853

$$$$
ligand
 OpenBabel11021811513D
libRbt.so/2013.1/901 2013/11/27
 45 51  0  0  0  0  0  0  0  0999 V2000
   94.1159   11.2939   99.3097 C   0  0  0  0  0  0  0  0  0  0  0  0
   95.3731   11.2523   94.2250 C   0  0  0  0  0  0  0  0  0  0  0  0
   97.7065    7.5824   96.9149 N   0  0  0  0  0  0  0  0  0  0  0  0
   95.1019   11.0324  100.1051 N   0  0  0  0  0  0  0  0  0  0  0  0
   95.9436    9.0258   97.4297 N   0  0  0  0  0  0  0  0  0  0  0  0
   97.6461    8.6801   98.9781 N   0  0  0  0  0  0  0  0  0  0  0  0
   97.6496    9.8390  101.0832 O   0  0  0  0  0  0  0  0  0  0  0  0
   98.2386   10.2433   93.6346 O   0  5  0  0  0  0  0  0  0  0  0  0
   92.8277   15.5727   94.2782 O   0  5  0  0  0  0  0  0  0  0  0  0
   91.7020   12.1871   96.4942 O   0  0  0  0  0  0  0  0  0  0  0  0
   98.8143   11.2194   95.5501 O   0  5  0  0  0  0  0  0  0  0  0  0
   93.0272   15.1168   96.4573 O   0  5  0  0  0  0  0  0  0  0  0  0
   96.4061   10.7967   95.0035 O   0  0  0  0  0  0  0  0  0  0  0  0
   93.8934   10.0632   95.9242 O   0  0  0  0  0  0  0  0  0  0  0  0
   93.2809   13.2820   94.7056 O   0  0  0  0  0  0  0  0  0  0  0  0
   97.0579    8.4692   97.8268 C   0  0  0  0  0  0  0  0  0  0  0  0
   97.1012    9.5278   99.8403 C   0  0  0  0  0  0  0  0  0  0  0  0
   95.8838   10.1543   99.4903 C   0  0  0  0  0  0  0  0  0  0  0  0
   95.3251    9.8942   98.2632 C   0  0  0  0  0  0  0  0  0  0  0  0
   93.0138   11.9196   96.8222 C   0  0  2  0  0  0  0  0  0  0  0  0
   94.0810   11.2285   94.9374 C   0  0  1  0  0  0  0  0  0  0  0  0
   93.9089   12.3108   95.5342 C   0  0  1  0  0  0  0  0  0  0  0  0
   93.2903   10.6734   97.1585 C   0  0  2  0  0  0  0  0  0  0  0  0
   94.2120   10.6273   98.2192 N   0  0  0  0  0  0  0  0  0  0  0  0
   97.8240   11.2424   94.5313 P   0  0  2  0  0  0  0  0  0  0  0  0
   93.5244   14.7359   95.1578 P   0  0  1  0  0  0  0  0  0  0  0  0
   95.7213   14.7102   93.7453 C   0  0  0  0  0  0  0  0  0  0  0  0
   95.0343   15.0841   94.9503 O   0  0  0  0  0  0  0  0  0  0  0  0
   97.1888   14.7344   93.8357 C   0  0  1  0  0  0  0  0  0  0  0  0
   97.6155   16.0682   94.6244 O   0  0  0  0  0  0  0  0  0  0  0  0
   97.5928   13.7789   94.5453 C   0  0  1  0  0  0  0  0  0  0  0  0
   97.8083   12.5757   93.7724 O   0  0  0  0  0  0  0  0  0  0  0  0
   98.8431   14.3234   95.2194 C   0  0  1  0  0  0  0  0  0  0  0  0
   99.8403   14.1943   94.4573 O   0  0  0  0  0  0  0  0  0  0  0  0
   98.5561   15.8134   95.4055 C   0  0  2  0  0  0  0  0  0  0  0  0
  100.7933   16.1736  100.0206 N   0  0  0  0  0  0  0  0  0  0  0  0
  101.2805   15.5411   98.9209 C   0  0  0  0  0  0  0  0  0  0  0  0
  100.5415   15.5743   97.8185 N   0  0  0  0  0  0  0  0  0  0  0  0
   99.3169   16.1376   97.7398 C   0  0  0  0  0  0  0  0  0  0  0  0
   98.7773   16.8039   98.8608 C   0  0  0  0  0  0  0  0  0  0  0  0
   99.5917   16.7810  100.0379 C   0  0  0  0  0  0  0  0  0  0  0  0
   99.1159   17.4099  101.2262 N   0  0  0  0  0  0  0  0  0  0  0  0
   97.6377   17.2760   98.4944 N   0  0  0  0  0  0  0  0  0  0  0  0
   97.4384   16.9728   97.2235 C   0  0  0  0  0  0  0  0  0  0  0  0
   98.4145   16.2785   96.7581 N   0  0  0  0  0  0  0  0  0  0  0  0
  1 24  1  0  0  0  0
  1  4  2  0  0  0  0
  2 13  1  0  0  0  0
  2 21  1  0  0  0  0
  3 16  1  0  0  0  0
  4 18  1  0  0  0  0
  5 19  2  0  0  0  0
  5 16  1  0  0  0  0
  6 16  2  0  0  0  0
  6 17  1  0  0  0  0
  7 17  1  0  0  0  0
 11 25  2  0  0  0  0
 12 26  2  0  0  0  0
 13 25  1  0  0  0  0
 14 23  1  0  0  0  0
 15 26  1  0  0  0  0
 17 18  2  0  0  0  0
 18 19  1  0  0  0  0
 19 24  1  0  0  0  0
 20 10  1  6  0  0  0
 20 22  1  0  0  0  0
 20 23  1  0  0  0  0
 21 14  1  1  0  0  0
 21 22  1  0  0  0  0
 22 15  1  6  0  0  0
 23 24  1  1  0  0  0
 25  8  1  6  0  0  0
 25 32  1  0  0  0  0
 26  9  1  6  0  0  0
 26 28  1  0  0  0  0
 27 28  1  0  0  0  0
 29 27  1  1  0  0  0
 29 30  1  0  0  0  0
 29 31  1  0  0  0  0
 30 35  1  0  0  0  0
 31 33  1  0  0  0  0
 31 32  1  6  0  0  0
 33 34  1  6  0  0  0
 33 35  1  0  0  0  0
 35 45  1  1  0  0  0
 36 41  2  0  0  0  0
 36 37  1  0  0  0  0
 37 38  2  0  0  0  0
 38 39  1  0  0  0  0
 39 40  2  0  0  0  0
 39 45  1  0  0  0  0
 40 41  1  0  0  0  0
 40 43  1  0  0  0  0
 41 42  1  0  0  0  0
 43 44  2  0  0  0  0
 44 45  1  0  0  0  0
M  CHG  4   8  -1   9  -1  11  -1  12  -1
M  END
>  <CHROM.1>
165.11849186,-178.35360094,96.52542381,12.96834627,96.59469061,-2.39469015
-0.66819743,-0.42392539

>  <Name>
ligand

>  <RI>
0

>  <Rbt.Current_Directory>
/home/itssahil/PROJECTS/Mol_Feturizer/New_Systems/rnas/4YAZ

>  <Rbt.Executable>
rbdock ($Id: //depot/dev/client3/rdock/2013.1/src/exe/rbdock.cxx#4 $)

>  <Rbt.Library>
libRbt.so (2013.1, Build901 2013/11/27)

>  <Rbt.Parameter_File>
/export/apps/rDock/src/rDock_2013.1_src/data/scripts/dock_solv.prm

>  <Rbt.Receptor>
prm/pocket_docking_6.prm

>  <SCORE>
-39.8878

>  <SCORE.INTER>
-40.3134

>  <SCORE.INTER.CONST>
1

>  <SCORE.INTER.POLAR>
0

>  <SCORE.INTER.ROT>
2

>  <SCORE.INTER.SOLV>
26.8273

>  <SCORE.INTER.VDW>
-40.7514

>  <SCORE.INTER.norm>
-0.895854

>  <SCORE.INTRA>
0.425618

>  <SCORE.INTRA.DIHEDRAL>
0.00849495

>  <SCORE.INTRA.DIHEDRAL.0>
2.39103

>  <SCORE.INTRA.POLAR>
0

>  <SCORE.INTRA.POLAR.0>
0

>  <SCORE.INTRA.REPUL>
0

>  <SCORE.INTRA.REPUL.0>
0

>  <SCORE.INTRA.SOLV>
2.05703

>  <SCORE.INTRA.SOLV.lig_0>
-163.975

>  <SCORE.INTRA.VDW>
-0.607145

>  <SCORE.INTRA.VDW.0>
-1.49176

>  <SCORE.INTRA.norm>
0.00945818

>  <SCORE.RESTR>
0

>  <SCORE.RESTR.CAVITY>
0

>  <SCORE.RESTR.norm>
0

>  <SCORE.SYSTEM>
0

>  <SCORE.SYSTEM.CONST>
0

>  <SCORE.SYSTEM.DIHEDRAL>
0

>  <SCORE.SYSTEM.SOLV>
0

>  <SCORE.SYSTEM.norm>
0

>  <SCORE.heavy>
45

>  <SCORE.norm>
-0.886396

>  <RMSD>
6.853

$$$$
ligand
 OpenBabel11021811513D
libRbt.so/2013.1/901 2013/11/27
 45 51  0  0  0  0  0  0  0  0999 V2000
   94.1534   11.3070   99.3081 C   0  0  0  0  0  0  0  0  0  0  0  0
   95.3865   11.2959   94.2253 C   0  0  0  0  0  0  0  0  0  0  0  0
   97.7407    7.5913   96.9147 N   0  0  0  0  0  0  0  0  0  0  0  0
   95.1428   11.0502  100.1008 N   0  0  0  0  0  0  0  0  0  0  0  0
   95.9775    9.0341   97.4303 N   0  0  0  0  0  0  0  0  0  0  0  0
   97.6864    8.6972   98.9737 N   0  0  0  0  0  0  0  0  0  0  0  0
   97.6960    9.8646  101.0740 O   0  0  0  0  0  0  0  0  0  0  0  0
   98.2619   10.3249   93.6201 O   0  5  0  0  0  0  0  0  0  0  0  0
   92.7890   15.5848   94.3094 O   0  5  0  0  0  0  0  0  0  0  0  0
   91.7119   12.1743   96.5115 O   0  0  0  0  0  0  0  0  0  0  0  0
   98.8322   11.2979   95.5387 O   0  5  0  0  0  0  0  0  0  0  0  0
   93.0014   15.1200   96.4855 O   0  5  0  0  0  0  0  0  0  0  0  0
   96.4274   10.8489   94.9979 O   0  0  0  0  0  0  0  0  0  0  0  0
   93.9270   10.0802   95.9231 O   0  0  0  0  0  0  0  0  0  0  0  0
   93.2714   13.2975   94.7233 O   0  0  0  0  0  0  0  0  0  0  0  0
   97.0941    8.4808   97.8255 C   0  0  0  0  0  0  0  0  0  0  0  0
   97.1434    9.5475   99.8345 C   0  0  0  0  0  0  0  0  0  0  0  0
   95.9238   10.1708   99.4866 C   0  0  0  0  0  0  0  0  0  0  0  0
   95.3609    9.9049   98.2627 C   0  0  0  0  0  0  0  0  0  0  0  0
   93.0279   11.9210   96.8337 C   0  0  2  0  0  0  0  0  0  0  0  0
   94.0971   11.2527   94.9418 C   0  0  1  0  0  0  0  0  0  0  0  0
   93.9139   12.3298   95.5448 C   0  0  1  0  0  0  0  0  0  0  0  0
   93.3207   10.6765   97.1625 C   0  0  2  0  0  0  0  0  0  0  0  0
   94.2464   10.6361   98.2200 N   0  0  0  0  0  0  0  0  0  0  0  0
   97.8383   11.3142   94.5233 P   0  0  2  0  0  0  0  0  0  0  0  0
   93.4988   14.7520   95.1824 P   0  0  1  0  0  0  0  0  0  0  0  0
   95.6910   14.7603   93.7625 C   0  0  0  0  0  0  0  0  0  0  0  0
   95.0036   15.1195   94.9717 O   0  0  0  0  0  0  0  0  0  0  0  0
   97.1584   14.8018   93.8481 C   0  0  1  0  0  0  0  0  0  0  0  0
   97.5716   16.1365   94.6424 O   0  0  0  0  0  0  0  0  0  0  0  0
   97.5764   13.8476   94.5514 C   0  0  1  0  0  0  0  0  0  0  0  0
   97.8039   12.6511   93.7715 O   0  0  0  0  0  0  0  0  0  0  0  0
   98.8223   14.4037   95.2242 C   0  0  1  0  0  0  0  0  0  0  0  0
   99.8184   14.2907   94.4582 O   0  0  0  0  0  0  0  0  0  0  0  0
   98.5179   15.8891   95.4190 C   0  0  2  0  0  0  0  0  0  0  0  0
  100.7557   16.2289  100.0354 N   0  0  0  0  0  0  0  0  0  0  0  0
  101.2447   15.6048   98.9316 C   0  0  0  0  0  0  0  0  0  0  0  0
  100.5051   15.6423   97.8298 N   0  0  0  0  0  0  0  0  0  0  0  0
   99.2786   16.2016   97.7550 C   0  0  0  0  0  0  0  0  0  0  0  0
   98.7371   16.8593   98.8803 C   0  0  0  0  0  0  0  0  0  0  0  0
   99.5520   16.8320  100.0569 C   0  0  0  0  0  0  0  0  0  0  0  0
   99.0746   17.4519  101.2492 N   0  0  0  0  0  0  0  0  0  0  0  0
   97.5956   17.3296   98.5173 N   0  0  0  0  0  0  0  0  0  0  0  0
   97.3969   17.0335   97.2445 C   0  0  0  0  0  0  0  0  0  0  0  0
   98.3752   16.3454   96.7746 N   0  0  0  0  0  0  0  0  0  0  0  0
  1 24  1  0  0  0  0
  1  4  2  0  0  0  0
  2 13  1  0  0  0  0
  2 21  1  0  0  0  0
  3 16  1  0  0  0  0
  4 18  1  0  0  0  0
  5 19  2  0  0  0  0
  5 16  1  0  0  0  0
  6 16  2  0  0  0  0
  6 17  1  0  0  0  0
  7 17  1  0  0  0  0
 11 25  2  0  0  0  0
 12 26  2  0  0  0  0
 13 25  1  0  0  0  0
 14 23  1  0  0  0  0
 15 26  1  0  0  0  0
 17 18  2  0  0  0  0
 18 19  1  0  0  0  0
 19 24  1  0  0  0  0
 20 10  1  6  0  0  0
 20 22  1  0  0  0  0
 20 23  1  0  0  0  0
 21 14  1  1  0  0  0
 21 22  1  0  0  0  0
 22 15  1  6  0  0  0
 23 24  1  1  0  0  0
 25  8  1  6  0  0  0
 25 32  1  0  0  0  0
 26  9  1  6  0  0  0
 26 28  1  0  0  0  0
 27 28  1  0  0  0  0
 29 27  1  1  0  0  0
 29 30  1  0  0  0  0
 29 31  1  0  0  0  0
 30 35  1  0  0  0  0
 31 33  1  0  0  0  0
 31 32  1  6  0  0  0
 33 34  1  6  0  0  0
 33 35  1  0  0  0  0
 35 45  1  1  0  0  0
 36 41  2  0  0  0  0
 36 37  1  0  0  0  0
 37 38  2  0  0  0  0
 38 39  1  0  0  0  0
 39 40  2  0  0  0  0
 39 45  1  0  0  0  0
 40 41  1  0  0  0  0
 40 43  1  0  0  0  0
 41 42  1  0  0  0  0
 43 44  2  0  0  0  0
 44 45  1  0  0  0  0
M  CHG  4   8  -1   9  -1  11  -1  12  -1
M  END
>  <CHROM.1>
164.31192660,-178.87816023,96.52286447,13.00834370,96.60240652,-2.37339507
-0.67178118,-0.41134645

>  <Name>
ligand

>  <RI>
0

>  <Rbt.Current_Directory>
/home/itssahil/PROJECTS/Mol_Feturizer/New_Systems/rnas/4YAZ

>  <Rbt.Executable>
rbdock ($Id: //depot/dev/client3/rdock/2013.1/src/exe/rbdock.cxx#4 $)

>  <Rbt.Library>
libRbt.so (2013.1, Build901 2013/11/27)

>  <Rbt.Parameter_File>
/export/apps/rDock/src/rDock_2013.1_src/data/scripts/dock_solv.prm

>  <Rbt.Receptor>
prm/pocket_docking_6.prm

>  <SCORE>
-39.9027

>  <SCORE.INTER>
-40.2135

>  <SCORE.INTER.CONST>
1

>  <SCORE.INTER.POLAR>
0

>  <SCORE.INTER.ROT>
2

>  <SCORE.INTER.SOLV>
26.9975

>  <SCORE.INTER.VDW>
-40.7415

>  <SCORE.INTER.norm>
-0.893634

>  <SCORE.INTRA>
0.310775

>  <SCORE.INTRA.DIHEDRAL>
0.00490382

>  <SCORE.INTRA.DIHEDRAL.0>
2.39103

>  <SCORE.INTRA.POLAR>
0

>  <SCORE.INTRA.POLAR.0>
0

>  <SCORE.INTRA.REPUL>
0

>  <SCORE.INTRA.REPUL.0>
0

>  <SCORE.INTRA.SOLV>
1.68297

>  <SCORE.INTRA.SOLV.lig_0>
-163.975

>  <SCORE.INTRA.VDW>
-0.533161

>  <SCORE.INTRA.VDW.0>
-1.49176

>  <SCORE.INTRA.norm>
0.00690612

>  <SCORE.RESTR>
0

>  <SCORE.RESTR.CAVITY>
0

>  <SCORE.RESTR.norm>
0

>  <SCORE.SYSTEM>
0

>  <SCORE.SYSTEM.CONST>
0

>  <SCORE.SYSTEM.DIHEDRAL>
0

>  <SCORE.SYSTEM.SOLV>
0

>  <SCORE.SYSTEM.norm>
0

>  <SCORE.heavy>
45

>  <SCORE.norm>
-0.886728

>  <RMSD>
6.853

$$$$
ligand
 OpenBabel11021811513D
libRbt.so/2013.1/901 2013/11/27
 45 51  0  0  0  0  0  0  0  0999 V2000
   96.5218    9.9273   98.2952 C   0  0  0  0  0  0  0  0  0  0  0  0
   95.6835   10.7479   94.5102 C   0  0  0  0  0  0  0  0  0  0  0  0
   93.9675   11.4456  103.1505 N   0  0  0  0  0  0  0  0  0  0  0  0
   97.3559    9.8878   99.2831 N   0  0  0  0  0  0  0  0  0  0  0  0
   94.5185   10.9386  100.9378 N   0  0  0  0  0  0  0  0  0  0  0  0
   96.1456   10.8023  102.5961 N   0  0  0  0  0  0  0  0  0  0  0  0
   98.3786   10.0844  102.0736 O   0  0  0  0  0  0  0  0  0  0  0  0
   98.1847    9.3459   93.3458 O   0  5  0  0  0  0  0  0  0  0  0  0
   93.8161   15.3807   94.9554 O   0  5  0  0  0  0  0  0  0  0  0  0
   92.7667   12.2008   97.4905 O   0  0  0  0  0  0  0  0  0  0  0  0
   99.2966   10.2462   95.0506 O   0  5  0  0  0  0  0  0  0  0  0  0
   94.4312   14.9172   97.0537 O   0  5  0  0  0  0  0  0  0  0  0  0
   96.7928   10.1587   95.0604 O   0  0  0  0  0  0  0  0  0  0  0  0
   94.4719    9.7886   96.5356 O   0  0  0  0  0  0  0  0  0  0  0  0
   94.0415   13.0524   95.3596 O   0  0  0  0  0  0  0  0  0  0  0  0
   94.9310   11.0511  102.1734 C   0  0  0  0  0  0  0  0  0  0  0  0
   97.0636   10.3932  101.7307 C   0  0  0  0  0  0  0  0  0  0  0  0
   96.6982   10.2668  100.3714 C   0  0  0  0  0  0  0  0  0  0  0  0
   95.4047   10.5362   99.9976 C   0  0  0  0  0  0  0  0  0  0  0  0
   94.0705   11.7557   97.5334 C   0  0  2  0  0  0  0  0  0  0  0  0
   94.5904   10.9092   95.4883 C   0  0  1  0  0  0  0  0  0  0  0  0
   94.7017   12.0093   96.0669 C   0  0  1  0  0  0  0  0  0  0  0  0
   94.2452   10.4855   97.8479 C   0  0  2  0  0  0  0  0  0  0  0  0
   95.3645   10.3193   98.6824 N   0  0  0  0  0  0  0  0  0  0  0  0
   98.1172   10.3993   94.2730 P   0  0  2  0  0  0  0  0  0  0  0  0
   94.5720   14.4615   95.6923 P   0  0  1  0  0  0  0  0  0  0  0  0
   96.3769   14.1203   93.8354 C   0  0  0  0  0  0  0  0  0  0  0  0
   96.0309   14.5947   95.1465 O   0  0  0  0  0  0  0  0  0  0  0  0
   97.8175   13.9407   93.6016 C   0  0  1  0  0  0  0  0  0  0  0  0
   98.5835   15.2077   94.2268 O   0  0  0  0  0  0  0  0  0  0  0  0
   98.2371   12.9434   94.2412 C   0  0  1  0  0  0  0  0  0  0  0  0
   98.1124   11.7164   93.4861 O   0  0  0  0  0  0  0  0  0  0  0  0
   99.6672   13.3135   94.6044 C   0  0  1  0  0  0  0  0  0  0  0  0
  100.4439   13.0414   93.6481 O   0  0  0  0  0  0  0  0  0  0  0  0
   99.6311   14.8302   94.7923 C   0  0  2  0  0  0  0  0  0  0  0  0
   97.6049   17.3776   98.7723 N   0  0  0  0  0  0  0  0  0  0  0  0
   97.0331   17.1664   97.5577 C   0  0  0  0  0  0  0  0  0  0  0  0
   97.7292   16.4710   96.6665 N   0  0  0  0  0  0  0  0  0  0  0  0
   98.9856   16.0189   96.8667 C   0  0  0  0  0  0  0  0  0  0  0  0
   99.6129   16.2186   98.1152 C   0  0  0  0  0  0  0  0  0  0  0  0
   98.8452   16.9505   99.0765 C   0  0  0  0  0  0  0  0  0  0  0  0
   99.4088   17.2197  100.3586 N   0  0  0  0  0  0  0  0  0  0  0  0
  100.7671   15.6546   98.0410 N   0  0  0  0  0  0  0  0  0  0  0  0
  100.8956   15.0998   96.8483 C   0  0  0  0  0  0  0  0  0  0  0  0
   99.8568   15.3202   96.1246 N   0  0  0  0  0  0  0  0  0  0  0  0
  1 24  1  0  0  0  0
  1  4  2  0  0  0  0
  2 13  1  0  0  0  0
  2 21  1  0  0  0  0
  3 16  1  0  0  0  0
  4 18  1  0  0  0  0
  5 19  2  0  0  0  0
  5 16  1  0  0  0  0
  6 16  2  0  0  0  0
  6 17  1  0  0  0  0
  7 17  1  0  0  0  0
 11 25  2  0  0  0  0
 12 26  2  0  0  0  0
 13 25  1  0  0  0  0
 14 23  1  0  0  0  0
 15 26  1  0  0  0  0
 17 18  2  0  0  0  0
 18 19  1  0  0  0  0
 19 24  1  0  0  0  0
 20 10  1  6  0  0  0
 20 22  1  0  0  0  0
 20 23  1  0  0  0  0
 21 14  1  1  0  0  0
 21 22  1  0  0  0  0
 22 15  1  6  0  0  0
 23 24  1  1  0  0  0
 25  8  1  6  0  0  0
 25 32  1  0  0  0  0
 26  9  1  6  0  0  0
 26 28  1  0  0  0  0
 27 28  1  0  0  0  0
 29 27  1  1  0  0  0
 29 30  1  0  0  0  0
 29 31  1  0  0  0  0
 30 35  1  0  0  0  0
 31 33  1  0  0  0  0
 31 32  1  6  0  0  0
 33 34  1  6  0  0  0
 33 35  1  0  0  0  0
 35 45  1  1  0  0  0
 36 41  2  0  0  0  0
 36 37  1  0  0  0  0
 37 38  2  0  0  0  0
 38 39  1  0  0  0  0
 39 40  2  0  0  0  0
 39 45  1  0  0  0  0
 40 41  1  0  0  0  0
 40 43  1  0  0  0  0
 41 42  1  0  0  0  0
 43 44  2  0  0  0  0
 44 45  1  0  0  0  0
M  CHG  4   8  -1   9  -1  11  -1  12  -1
M  END
>  <CHROM.1>
15.70127642,7.85453525,96.86756847,12.80479169,96.93670503,2.56060074,1.02248396
1.25729556

>  <Name>
ligand

>  <RI>
0

>  <Rbt.Current_Directory>
/home/itssahil/PROJECTS/Mol_Feturizer/New_Systems/rnas/4YAZ

>  <Rbt.Executable>
rbdock ($Id: //depot/dev/client3/rdock/2013.1/src/exe/rbdock.cxx#4 $)

>  <Rbt.Library>
libRbt.so (2013.1, Build901 2013/11/27)

>  <Rbt.Parameter_File>
/export/apps/rDock/src/rDock_2013.1_src/data/scripts/dock_solv.prm

>  <Rbt.Receptor>
prm/pocket_docking_3.prm

>  <SCORE>
-34.3149

>  <SCORE.INTER>
-33.3803

>  <SCORE.INTER.CONST>
1

>  <SCORE.INTER.POLAR>
0

>  <SCORE.INTER.ROT>
2

>  <SCORE.INTER.SOLV>
39.4597

>  <SCORE.INTER.VDW>
-40.3401

>  <SCORE.INTER.norm>
-0.741784

>  <SCORE.INTRA>
-0.934611

>  <SCORE.INTRA.DIHEDRAL>
-0.0266067

>  <SCORE.INTRA.DIHEDRAL.0>
2.39103

>  <SCORE.INTRA.POLAR>
0

>  <SCORE.INTRA.POLAR.0>
0

>  <SCORE.INTRA.REPUL>
0

>  <SCORE.INTRA.REPUL.0>
0

>  <SCORE.INTRA.SOLV>
0.701365

>  <SCORE.INTRA.SOLV.lig_0>
-163.975

>  <SCORE.INTRA.VDW>
-1.27199

>  <SCORE.INTRA.VDW.0>
-1.49176

>  <SCORE.INTRA.norm>
-0.0207691

>  <SCORE.RESTR>
0

>  <SCORE.RESTR.CAVITY>
0

>  <SCORE.RESTR.norm>
0

>  <SCORE.SYSTEM>
0

>  <SCORE.SYSTEM.CONST>
0

>  <SCORE.SYSTEM.DIHEDRAL>
0

>  <SCORE.SYSTEM.SOLV>
0

>  <SCORE.SYSTEM.norm>
0

>  <SCORE.heavy>
45

>  <SCORE.norm>
-0.762553

>  <RMSD>
6.854

$$$$
ligand
 OpenBabel11021811513D
libRbt.so/2013.1/901 2013/11/27
 45 51  0  0  0  0  0  0  0  0999 V2000
   94.1627   11.3195   99.3094 C   0  0  0  0  0  0  0  0  0  0  0  0
   95.3947   11.2635   94.2254 C   0  0  0  0  0  0  0  0  0  0  0  0
   97.7358    7.5754   96.9393 N   0  0  0  0  0  0  0  0  0  0  0  0
   95.1514   11.0644  100.1034 N   0  0  0  0  0  0  0  0  0  0  0  0
   95.9780    9.0278   97.4460 N   0  0  0  0  0  0  0  0  0  0  0  0
   97.6862    8.6950   98.9910 N   0  0  0  0  0  0  0  0  0  0  0  0
   97.7007    9.8761  101.0836 O   0  0  0  0  0  0  0  0  0  0  0  0
   98.2649   10.2731   93.6269 O   0  5  0  0  0  0  0  0  0  0  0  0
   92.8191   15.5661   94.2766 O   0  5  0  0  0  0  0  0  0  0  0  0
   91.7255   12.1787   96.5060 O   0  0  0  0  0  0  0  0  0  0  0  0
   98.8409   11.2584   95.5376 O   0  5  0  0  0  0  0  0  0  0  0  0
   93.0300   15.1174   96.4562 O   0  5  0  0  0  0  0  0  0  0  0  0
   96.4337   10.8173   95.0012 O   0  0  0  0  0  0  0  0  0  0  0  0
   93.9297   10.0687   95.9333 O   0  0  0  0  0  0  0  0  0  0  0  0
   93.2900   13.2798   94.7084 O   0  0  0  0  0  0  0  0  0  0  0  0
   97.0928    8.4731   97.8445 C   0  0  0  0  0  0  0  0  0  0  0  0
   97.1466    9.5529   99.8464 C   0  0  0  0  0  0  0  0  0  0  0  0
   95.9290   10.1782   99.4947 C   0  0  0  0  0  0  0  0  0  0  0  0
   95.3647    9.9063   98.2728 C   0  0  0  0  0  0  0  0  0  0  0  0
   93.0404   11.9212   96.8297 C   0  0  2  0  0  0  0  0  0  0  0  0
   94.1054   11.2326   94.9427 C   0  0  1  0  0  0  0  0  0  0  0  0
   93.9279   12.3153   95.5373 C   0  0  1  0  0  0  0  0  0  0  0  0
   93.3270   10.6779   97.1682 C   0  0  2  0  0  0  0  0  0  0  0  0
   94.2529   10.6411   98.2256 N   0  0  0  0  0  0  0  0  0  0  0  0
   97.8467   11.2717   94.5225 P   0  0  2  0  0  0  0  0  0  0  0  0
   93.5250   14.7366   95.1559 P   0  0  1  0  0  0  0  0  0  0  0  0
   95.7166   14.7225   93.7351 C   0  0  0  0  0  0  0  0  0  0  0  0
   95.0315   15.0948   94.9418 O   0  0  0  0  0  0  0  0  0  0  0  0
   97.1843   14.7573   93.8199 C   0  0  1  0  0  0  0  0  0  0  0  0
   97.6045   16.0961   94.6034 O   0  0  0  0  0  0  0  0  0  0  0  0
   97.5977   13.8066   94.5306 C   0  0  1  0  0  0  0  0  0  0  0  0
   97.8187   12.6028   93.7601 O   0  0  0  0  0  0  0  0  0  0  0  0
   98.8466   14.3616   95.1985 C   0  0  1  0  0  0  0  0  0  0  0  0
   99.8419   14.2375   94.4330 O   0  0  0  0  0  0  0  0  0  0  0  0
   98.5499   15.8500   95.3817 C   0  0  2  0  0  0  0  0  0  0  0  0
  100.7870   16.2056   99.9972 N   0  0  0  0  0  0  0  0  0  0  0  0
  101.2715   15.5691   98.8986 C   0  0  0  0  0  0  0  0  0  0  0  0
  100.5331   15.6045   97.7959 N   0  0  0  0  0  0  0  0  0  0  0  0
   99.3114   16.1737   97.7158 C   0  0  0  0  0  0  0  0  0  0  0  0
   98.7747   16.8444   98.8357 C   0  0  0  0  0  0  0  0  0  0  0  0
   99.5885   16.8190  100.0131 C   0  0  0  0  0  0  0  0  0  0  0  0
   99.1154   17.4520  101.2004 N   0  0  0  0  0  0  0  0  0  0  0  0
   97.6376   17.3217   98.4682 N   0  0  0  0  0  0  0  0  0  0  0  0
   97.4373   17.0177   97.1976 C   0  0  0  0  0  0  0  0  0  0  0  0
   98.4100   16.3177   96.7336 N   0  0  0  0  0  0  0  0  0  0  0  0
  1 24  1  0  0  0  0
  1  4  2  0  0  0  0
  2 13  1  0  0  0  0
  2 21  1  0  0  0  0
  3 16  1  0  0  0  0
  4 18  1  0  0  0  0
  5 19  2  0  0  0  0
  5 16  1  0  0  0  0
  6 16  2  0  0  0  0
  6 17  1  0  0  0  0
  7 17  1  0  0  0  0
 11 25  2  0  0  0  0
 12 26  2  0  0  0  0
 13 25  1  0  0  0  0
 14 23  1  0  0  0  0
 15 26  1  0  0  0  0
 17 18  2  0  0  0  0
 18 19  1  0  0  0  0
 19 24  1  0  0  0  0
 20 10  1  6  0  0  0
 20 22  1  0  0  0  0
 20 23  1  0  0  0  0
 21 14  1  1  0  0  0
 21 22  1  0  0  0  0
 22 15  1  6  0  0  0
 23 24  1  1  0  0  0
 25  8  1  6  0  0  0
 25 32  1  0  0  0  0
 26  9  1  6  0  0  0
 26 28  1  0  0  0  0
 27 28  1  0  0  0  0
 29 27  1  1  0  0  0
 29 30  1  0  0  0  0
 29 31  1  0  0  0  0
 30 35  1  0  0  0  0
 31 33  1  0  0  0  0
 31 32  1  6  0  0  0
 33 34  1  6  0  0  0
 33 35  1  0  0  0  0
 35 45  1  1  0  0  0
 36 41  2  0  0  0  0
 36 37  1  0  0  0  0
 37 38  2  0  0  0  0
 38 39  1  0  0  0  0
 39 40  2  0  0  0  0
 39 45  1  0  0  0  0
 40 41  1  0  0  0  0
 40 43  1  0  0  0  0
 41 42  1  0  0  0  0
 43 44  2  0  0  0  0
 44 45  1  0  0  0  0
M  CHG  4   8  -1   9  -1  11  -1  12  -1
M  END
>  <CHROM.1>
164.42736050,-179.08758670,96.54073128,12.98863615,96.58848861,-2.37989011
-0.66941286,-0.42267053

>  <Name>
ligand

>  <RI>
0

>  <Rbt.Current_Directory>
/home/itssahil/PROJECTS/Mol_Feturizer/New_Systems/rnas/4YAZ

>  <Rbt.Executable>
rbdock ($Id: //depot/dev/client3/rdock/2013.1/src/exe/rbdock.cxx#4 $)

>  <Rbt.Library>
libRbt.so (2013.1, Build901 2013/11/27)

>  <Rbt.Parameter_File>
/export/apps/rDock/src/rDock_2013.1_src/data/scripts/dock_solv.prm

>  <Rbt.Receptor>
prm/pocket_docking_4.prm

>  <SCORE>
-40.0052

>  <SCORE.INTER>
-40.3344

>  <SCORE.INTER.CONST>
1

>  <SCORE.INTER.POLAR>
0

>  <SCORE.INTER.ROT>
2

>  <SCORE.INTER.SOLV>
27.0696

>  <SCORE.INTER.VDW>
-40.8462

>  <SCORE.INTER.norm>
-0.896321

>  <SCORE.INTRA>
0.329243

>  <SCORE.INTRA.DIHEDRAL>
0.00338463

>  <SCORE.INTRA.DIHEDRAL.0>
2.39103

>  <SCORE.INTRA.POLAR>
0

>  <SCORE.INTRA.POLAR.0>
0

>  <SCORE.INTRA.REPUL>
0

>  <SCORE.INTRA.REPUL.0>
0

>  <SCORE.INTRA.SOLV>
1.7347

>  <SCORE.INTRA.SOLV.lig_0>
-163.975

>  <SCORE.INTRA.VDW>
-0.539797

>  <SCORE.INTRA.VDW.0>
-1.49176

>  <SCORE.INTRA.norm>
0.0073165

>  <SCORE.RESTR>
0

>  <SCORE.RESTR.CAVITY>
0

>  <SCORE.RESTR.norm>
0

>  <SCORE.SYSTEM>
0

>  <SCORE.SYSTEM.CONST>
0

>  <SCORE.SYSTEM.DIHEDRAL>
0

>  <SCORE.SYSTEM.SOLV>
0

>  <SCORE.SYSTEM.norm>
0

>  <SCORE.heavy>
45

>  <SCORE.norm>
-0.889004

>  <RMSD>
6.854

$$$$
ligand
 OpenBabel11021811513D
libRbt.so/2013.1/901 2013/11/27
 45 51  0  0  0  0  0  0  0  0999 V2000
   94.1835   11.3034   99.3130 C   0  0  0  0  0  0  0  0  0  0  0  0
   95.3904   11.2655   94.2271 C   0  0  0  0  0  0  0  0  0  0  0  0
   97.7213    7.5354   96.9276 N   0  0  0  0  0  0  0  0  0  0  0  0
   95.1740   11.0417  100.1027 N   0  0  0  0  0  0  0  0  0  0  0  0
   95.9754    8.9996   97.4418 N   0  0  0  0  0  0  0  0  0  0  0  0
   97.6880    8.6554   98.9794 N   0  0  0  0  0  0  0  0  0  0  0  0
   97.7195    9.8365  101.0719 O   0  0  0  0  0  0  0  0  0  0  0  0
   98.2572   10.2752   93.6118 O   0  5  0  0  0  0  0  0  0  0  0  0
   92.8195   15.5703   94.3102 O   0  5  0  0  0  0  0  0  0  0  0  0
   91.7317   12.1731   96.5273 O   0  0  0  0  0  0  0  0  0  0  0  0
   98.8420   11.2504   95.5250 O   0  5  0  0  0  0  0  0  0  0  0  0
   93.0389   15.1107   96.4866 O   0  5  0  0  0  0  0  0  0  0  0  0
   96.4322   10.8144   94.9963 O   0  0  0  0  0  0  0  0  0  0  0  0
   93.9313   10.0637   95.9351 O   0  0  0  0  0  0  0  0  0  0  0  0
   93.2898   13.2814   94.7287 O   0  0  0  0  0  0  0  0  0  0  0  0
   97.0882    8.4375   97.8355 C   0  0  0  0  0  0  0  0  0  0  0  0
   97.1579    9.5169   99.8371 C   0  0  0  0  0  0  0  0  0  0  0  0
   95.9430   10.1503   99.4907 C   0  0  0  0  0  0  0  0  0  0  0  0
   95.3716    9.8822   98.2712 C   0  0  0  0  0  0  0  0  0  0  0  0
   93.0476   11.9127   96.8443 C   0  0  2  0  0  0  0  0  0  0  0  0
   94.1040   11.2323   94.9496 C   0  0  1  0  0  0  0  0  0  0  0  0
   93.9301   12.3122   95.5502 C   0  0  1  0  0  0  0  0  0  0  0  0
   93.3343   10.6674   97.1755 C   0  0  2  0  0  0  0  0  0  0  0  0
   94.2645   10.6244   98.2289 N   0  0  0  0  0  0  0  0  0  0  0  0
   97.8437   11.2697   94.5140 P   0  0  2  0  0  0  0  0  0  0  0  0
   93.5281   14.7358   95.1824 P   0  0  1  0  0  0  0  0  0  0  0  0
   95.7139   14.7266   93.7526 C   0  0  0  0  0  0  0  0  0  0  0  0
   95.0342   15.0935   94.9639 O   0  0  0  0  0  0  0  0  0  0  0  0
   97.1819   14.7594   93.8315 C   0  0  1  0  0  0  0  0  0  0  0  0
   97.6068   16.0939   94.6199 O   0  0  0  0  0  0  0  0  0  0  0  0
   97.5973   13.8048   94.5357 C   0  0  1  0  0  0  0  0  0  0  0  0
   97.8139   12.6046   93.7584 O   0  0  0  0  0  0  0  0  0  0  0  0
   98.8495   14.3553   95.2012 C   0  0  1  0  0  0  0  0  0  0  0  0
   99.8415   14.2339   94.4310 O   0  0  0  0  0  0  0  0  0  0  0  0
   98.5551   15.8431   95.3930 C   0  0  2  0  0  0  0  0  0  0  0  0
  100.8004   16.1491  100.0081 N   0  0  0  0  0  0  0  0  0  0  0  0
  101.2774   15.5143   98.9052 C   0  0  0  0  0  0  0  0  0  0  0  0
  100.5382   15.5635   97.8035 N   0  0  0  0  0  0  0  0  0  0  0  0
   99.3222   16.1454   97.7282 C   0  0  0  0  0  0  0  0  0  0  0  0
   98.7934   16.8148   98.8525 C   0  0  0  0  0  0  0  0  0  0  0  0
   99.6081   16.7745  100.0289 C   0  0  0  0  0  0  0  0  0  0  0  0
   99.1426   17.4051  101.2203 N   0  0  0  0  0  0  0  0  0  0  0  0
   97.6607   17.3056   98.4890 N   0  0  0  0  0  0  0  0  0  0  0  0
   97.4561   17.0111   97.2169 C   0  0  0  0  0  0  0  0  0  0  0  0
   98.4213   16.3042   96.7478 N   0  0  0  0  0  0  0  0  0  0  0  0
  1 24  1  0  0  0  0
  1  4  2  0  0  0  0
  2 13  1  0  0  0  0
  2 21  1  0  0  0  0
  3 16  1  0  0  0  0
  4 18  1  0  0  0  0
  5 19  2  0  0  0  0
  5 16  1  0  0  0  0
  6 16  2  0  0  0  0
  6 17  1  0  0  0  0
  7 17  1  0  0  0  0
 11 25  2  0  0  0  0
 12 26  2  0  0  0  0
 13 25  1  0  0  0  0
 14 23  1  0  0  0  0
 15 26  1  0  0  0  0
 17 18  2  0  0  0  0
 18 19  1  0  0  0  0
 19 24  1  0  0  0  0
 20 10  1  6  0  0  0
 20 22  1  0  0  0  0
 20 23  1  0  0  0  0
 21 14  1  1  0  0  0
 21 22  1  0  0  0  0
 22 15  1  6  0  0  0
 23 24  1  1  0  0  0
 25  8  1  6  0  0  0
 25 32  1  0  0  0  0
 26  9  1  6  0  0  0
 26 28  1  0  0  0  0
 27 28  1  0  0  0  0
 29 27  1  1  0  0  0
 29 30  1  0  0  0  0
 29 31  1  0  0  0  0
 30 35  1  0  0  0  0
 31 33  1  0  0  0  0
 31 32  1  6  0  0  0
 33 34  1  6  0  0  0
 33 35  1  0  0  0  0
 35 45  1  1  0  0  0
 36 41  2  0  0  0  0
 36 37  1  0  0  0  0
 37 38  2  0  0  0  0
 38 39  1  0  0  0  0
 39 40  2  0  0  0  0
 39 45  1  0  0  0  0
 40 41  1  0  0  0  0
 40 43  1  0  0  0  0
 41 42  1  0  0  0  0
 43 44  2  0  0  0  0
 44 45  1  0  0  0  0
M  CHG  4   8  -1   9  -1  11  -1  12  -1
M  END
>  <CHROM.1>
163.99480924,-179.63401724,96.54596627,12.97407534,96.59546800,-2.37590573
-0.66644145,-0.41869511

>  <Name>
ligand

>  <RI>
0

>  <Rbt.Current_Directory>
/home/itssahil/PROJECTS/Mol_Feturizer/New_Systems/rnas/4YAZ

>  <Rbt.Executable>
rbdock ($Id: //depot/dev/client3/rdock/2013.1/src/exe/rbdock.cxx#4 $)

>  <Rbt.Library>
libRbt.so (2013.1, Build901 2013/11/27)

>  <Rbt.Parameter_File>
/export/apps/rDock/src/rDock_2013.1_src/data/scripts/dock_solv.prm

>  <Rbt.Receptor>
prm/pocket_docking_7.prm

>  <SCORE>
-39.9141

>  <SCORE.INTER>
-40.1765

>  <SCORE.INTER.CONST>
1

>  <SCORE.INTER.POLAR>
0

>  <SCORE.INTER.ROT>
2

>  <SCORE.INTER.SOLV>
27.1592

>  <SCORE.INTER.VDW>
-40.7707

>  <SCORE.INTER.norm>
-0.892812

>  <SCORE.INTRA>
0.262393

>  <SCORE.INTRA.DIHEDRAL>
-0.000430195

>  <SCORE.INTRA.DIHEDRAL.0>
2.39103

>  <SCORE.INTRA.POLAR>
0

>  <SCORE.INTRA.POLAR.0>
0

>  <SCORE.INTRA.REPUL>
0

>  <SCORE.INTRA.REPUL.0>
0

>  <SCORE.INTRA.SOLV>
1.54227

>  <SCORE.INTRA.SOLV.lig_0>
-163.975

>  <SCORE.INTRA.VDW>
-0.508525

>  <SCORE.INTRA.VDW.0>
-1.49176

>  <SCORE.INTRA.norm>
0.00583095

>  <SCORE.RESTR>
0

>  <SCORE.RESTR.CAVITY>
0

>  <SCORE.RESTR.norm>
0

>  <SCORE.SYSTEM>
0

>  <SCORE.SYSTEM.CONST>
0

>  <SCORE.SYSTEM.DIHEDRAL>
0

>  <SCORE.SYSTEM.SOLV>
0

>  <SCORE.SYSTEM.norm>
0

>  <SCORE.heavy>
45

>  <SCORE.norm>
-0.886981

>  <RMSD>
6.854

$$$$
ligand
 OpenBabel11021811513D
libRbt.so/2013.1/901 2013/11/27
 45 51  0  0  0  0  0  0  0  0999 V2000
   94.1967   11.3287   99.3039 C   0  0  0  0  0  0  0  0  0  0  0  0
   95.4219   11.2730   94.2241 C   0  0  0  0  0  0  0  0  0  0  0  0
   97.7551    7.5576   96.9544 N   0  0  0  0  0  0  0  0  0  0  0  0
   95.1850   11.0748  100.0990 N   0  0  0  0  0  0  0  0  0  0  0  0
   96.0027    9.0194   97.4534 N   0  0  0  0  0  0  0  0  0  0  0  0
   97.7106    8.6898   98.9994 N   0  0  0  0  0  0  0  0  0  0  0  0
   97.7306    9.8834  101.0849 O   0  0  0  0  0  0  0  0  0  0  0  0
   98.2959   10.2945   93.6240 O   0  5  0  0  0  0  0  0  0  0  0  0
   92.8290   15.5651   94.2788 O   0  5  0  0  0  0  0  0  0  0  0  0
   91.7498   12.1720   96.5063 O   0  0  0  0  0  0  0  0  0  0  0  0
   98.8685   11.2809   95.5351 O   0  5  0  0  0  0  0  0  0  0  0  0
   93.0424   15.1160   96.4580 O   0  5  0  0  0  0  0  0  0  0  0  0
   96.4629   10.8305   94.9992 O   0  0  0  0  0  0  0  0  0  0  0  0
   93.9622   10.0712   95.9317 O   0  0  0  0  0  0  0  0  0  0  0  0
   93.3092   13.2804   94.7090 O   0  0  0  0  0  0  0  0  0  0  0  0
   97.1158    8.4631   97.8545 C   0  0  0  0  0  0  0  0  0  0  0  0
   97.1746    9.5547   99.8499 C   0  0  0  0  0  0  0  0  0  0  0  0
   95.9591   10.1822   99.4952 C   0  0  0  0  0  0  0  0  0  0  0  0
   95.3931    9.9050   98.2752 C   0  0  0  0  0  0  0  0  0  0  0  0
   93.0658   11.9196   96.8295 C   0  0  2  0  0  0  0  0  0  0  0  0
   94.1329   11.2364   94.9418 C   0  0  1  0  0  0  0  0  0  0  0  0
   93.9513   12.3180   95.5370 C   0  0  1  0  0  0  0  0  0  0  0  0
   93.3575   10.6772   97.1671 C   0  0  2  0  0  0  0  0  0  0  0  0
   94.2839   10.6435   98.2242 N   0  0  0  0  0  0  0  0  0  0  0  0
   97.8739   11.2908   94.5203 P   0  0  2  0  0  0  0  0  0  0  0  0
   93.5385   14.7379   95.1573 P   0  0  1  0  0  0  0  0  0  0  0  0
   95.7297   14.7336   93.7359 C   0  0  0  0  0  0  0  0  0  0  0  0
   95.0436   15.1023   94.9429 O   0  0  0  0  0  0  0  0  0  0  0  0
   97.1973   14.7742   93.8202 C   0  0  1  0  0  0  0  0  0  0  0  0
   97.6124   16.1142   94.6044 O   0  0  0  0  0  0  0  0  0  0  0  0
   97.6148   13.8247   94.5301 C   0  0  1  0  0  0  0  0  0  0  0  0
   97.8404   12.6223   93.7588 O   0  0  0  0  0  0  0  0  0  0  0  0
   98.8616   14.3843   95.1980 C   0  0  1  0  0  0  0  0  0  0  0  0
   99.8571   14.2647   94.4322 O   0  0  0  0  0  0  0  0  0  0  0  0
   98.5589   15.8714   95.3822 C   0  0  2  0  0  0  0  0  0  0  0  0
  100.7915   16.2229  100.0003 N   0  0  0  0  0  0  0  0  0  0  0  0
  101.2773   15.5876   98.9015 C   0  0  0  0  0  0  0  0  0  0  0  0
  100.5399   15.6240   97.7981 N   0  0  0  0  0  0  0  0  0  0  0  0
   99.3181   16.1929   97.7175 C   0  0  0  0  0  0  0  0  0  0  0  0
   98.7801   16.8623   98.8375 C   0  0  0  0  0  0  0  0  0  0  0  0
   99.5928   16.8360  100.0156 C   0  0  0  0  0  0  0  0  0  0  0  0
   99.1184   17.4676  101.2031 N   0  0  0  0  0  0  0  0  0  0  0  0
   97.6433   17.3397   98.4693 N   0  0  0  0  0  0  0  0  0  0  0  0
   97.4443   17.0369   97.1982 C   0  0  0  0  0  0  0  0  0  0  0  0
   98.4177   16.3377   96.7345 N   0  0  0  0  0  0  0  0  0  0  0  0
  1 24  1  0  0  0  0
  1  4  2  0  0  0  0
  2 13  1  0  0  0  0
  2 21  1  0  0  0  0
  3 16  1  0  0  0  0
  4 18  1  0  0  0  0
  5 19  2  0  0  0  0
  5 16  1  0  0  0  0
  6 16  2  0  0  0  0
  6 17  1  0  0  0  0
  7 17  1  0  0  0  0
 11 25  2  0  0  0  0
 12 26  2  0  0  0  0
 13 25  1  0  0  0  0
 14 23  1  0  0  0  0
 15 26  1  0  0  0  0
 17 18  2  0  0  0  0
 18 19  1  0  0  0  0
 19 24  1  0  0  0  0
 20 10  1  6  0  0  0
 20 22  1  0  0  0  0
 20 23  1  0  0  0  0
 21 14  1  1  0  0  0
 21 22  1  0  0  0  0
 22 15  1  6  0  0  0
 23 24  1  1  0  0  0
 25  8  1  6  0  0  0
 25 32  1  0  0  0  0
 26  9  1  6  0  0  0
 26 28  1  0  0  0  0
 27 28  1  0  0  0  0
 29 27  1  1  0  0  0
 29 30  1  0  0  0  0
 29 31  1  0  0  0  0
 30 35  1  0  0  0  0
 31 33  1  0  0  0  0
 31 32  1  6  0  0  0
 33 34  1  6  0  0  0
 33 35  1  0  0  0  0
 35 45  1  1  0  0  0
 36 41  2  0  0  0  0
 36 37  1  0  0  0  0
 37 38  2  0  0  0  0
 38 39  1  0  0  0  0
 39 40  2  0  0  0  0
 39 45  1  0  0  0  0
 40 41  1  0  0  0  0
 40 43  1  0  0  0  0
 41 42  1  0  0  0  0
 43 44  2  0  0  0  0
 44 45  1  0  0  0  0
M  CHG  4   8  -1   9  -1  11  -1  12  -1
M  END
>  <CHROM.1>
163.84940188,-179.31501656,96.55977731,12.99807777,96.58943912,-2.37112196
-0.67187331,-0.42075097

>  <Name>
ligand

>  <RI>
0

>  <Rbt.Current_Directory>
/home/itssahil/PROJECTS/Mol_Feturizer/New_Systems/rnas/4YAZ

>  <Rbt.Executable>
rbdock ($Id: //depot/dev/client3/rdock/2013.1/src/exe/rbdock.cxx#4 $)

>  <Rbt.Library>
libRbt.so (2013.1, Build901 2013/11/27)

>  <Rbt.Parameter_File>
/export/apps/rDock/src/rDock_2013.1_src/data/scripts/dock_solv.prm

>  <Rbt.Receptor>
prm/pocket_docking_3.prm

>  <SCORE>
-39.9574

>  <SCORE.INTER>
-40.1963

>  <SCORE.INTER.CONST>
1

>  <SCORE.INTER.POLAR>
0

>  <SCORE.INTER.ROT>
2

>  <SCORE.INTER.SOLV>
27.3232

>  <SCORE.INTER.VDW>
-40.8386

>  <SCORE.INTER.norm>
-0.893251

>  <SCORE.INTRA>
0.23884

>  <SCORE.INTRA.DIHEDRAL>
0.00187262

>  <SCORE.INTRA.DIHEDRAL.0>
2.39103

>  <SCORE.INTRA.POLAR>
0

>  <SCORE.INTRA.POLAR.0>
0

>  <SCORE.INTRA.REPUL>
0

>  <SCORE.INTRA.REPUL.0>
0

>  <SCORE.INTRA.SOLV>
1.47681

>  <SCORE.INTRA.SOLV.lig_0>
-163.975

>  <SCORE.INTRA.VDW>
-0.500502

>  <SCORE.INTRA.VDW.0>
-1.49176

>  <SCORE.INTRA.norm>
0.00530755

>  <SCORE.RESTR>
0

>  <SCORE.RESTR.CAVITY>
0

>  <SCORE.RESTR.norm>
0

>  <SCORE.SYSTEM>
0

>  <SCORE.SYSTEM.CONST>
0

>  <SCORE.SYSTEM.DIHEDRAL>
0

>  <SCORE.SYSTEM.SOLV>
0

>  <SCORE.SYSTEM.norm>
0

>  <SCORE.heavy>
45

>  <SCORE.norm>
-0.887943

>  <RMSD>
6.855

$$$$
ligand
 OpenBabel11021811513D
libRbt.so/2013.1/901 2013/11/27
 45 51  0  0  0  0  0  0  0  0999 V2000
   94.1348   11.2864   99.3044 C   0  0  0  0  0  0  0  0  0  0  0  0
   95.3843   11.2144   94.2183 C   0  0  0  0  0  0  0  0  0  0  0  0
   97.7371    7.5727   96.9306 N   0  0  0  0  0  0  0  0  0  0  0  0
   95.1232   11.0347  100.1001 N   0  0  0  0  0  0  0  0  0  0  0  0
   95.9690    9.0125   97.4378 N   0  0  0  0  0  0  0  0  0  0  0  0
   97.6753    8.6849   98.9860 N   0  0  0  0  0  0  0  0  0  0  0  0
   97.6773    9.8589  101.0827 O   0  0  0  0  0  0  0  0  0  0  0  0
   98.2532   10.2136   93.6304 O   0  5  0  0  0  0  0  0  0  0  0  0
   92.8202   15.5240   94.2451 O   0  5  0  0  0  0  0  0  0  0  0  0
   91.7126   12.1493   96.4867 O   0  0  0  0  0  0  0  0  0  0  0  0
   98.8276   11.2057   95.5381 O   0  5  0  0  0  0  0  0  0  0  0  0
   93.0251   15.0843   96.4271 O   0  5  0  0  0  0  0  0  0  0  0  0
   96.4204   10.7687   94.9983 O   0  0  0  0  0  0  0  0  0  0  0  0
   93.9123   10.0309   95.9281 O   0  0  0  0  0  0  0  0  0  0  0  0
   93.2840   13.2383   94.6879 O   0  0  0  0  0  0  0  0  0  0  0  0
   97.0862    8.4633   97.8372 C   0  0  0  0  0  0  0  0  0  0  0  0
   97.1283    9.5365   99.8429 C   0  0  0  0  0  0  0  0  0  0  0  0
   95.9078   10.1554   99.4903 C   0  0  0  0  0  0  0  0  0  0  0  0
   95.3482    9.8843   98.2660 C   0  0  0  0  0  0  0  0  0  0  0  0
   93.0260   11.8897   96.8144 C   0  0  2  0  0  0  0  0  0  0  0  0
   94.0933   11.1900   94.9328 C   0  0  1  0  0  0  0  0  0  0  0  0
   93.9174   12.2757   95.5223 C   0  0  1  0  0  0  0  0  0  0  0  0
   93.3085   10.6470   97.1590 C   0  0  2  0  0  0  0  0  0  0  0  0
   94.2320   10.6124   98.2186 N   0  0  0  0  0  0  0  0  0  0  0  0
   97.8357   11.2172   94.5207 P   0  0  2  0  0  0  0  0  0  0  0  0
   93.5219   14.6964   95.1295 P   0  0  1  0  0  0  0  0  0  0  0  0
   95.7167   14.6703   93.7137 C   0  0  0  0  0  0  0  0  0  0  0  0
   95.0299   15.0496   94.9172 O   0  0  0  0  0  0  0  0  0  0  0  0
   97.1842   14.7015   93.8017 C   0  0  1  0  0  0  0  0  0  0  0  0
   97.6064   16.0425   94.5803 O   0  0  0  0  0  0  0  0  0  0  0  0
   97.5935   13.7527   94.5173 C   0  0  1  0  0  0  0  0  0  0  0  0
   97.8130   12.5450   93.7526 O   0  0  0  0  0  0  0  0  0  0  0  0
   98.8424   14.3073   95.1856 C   0  0  1  0  0  0  0  0  0  0  0  0
   99.8390   14.1772   94.4229 O   0  0  0  0  0  0  0  0  0  0  0  0
   98.5493   15.7973   95.3617 C   0  0  2  0  0  0  0  0  0  0  0  0
  100.7887   16.1921   99.9729 N   0  0  0  0  0  0  0  0  0  0  0  0
  101.2763   15.5530   98.8772 C   0  0  0  0  0  0  0  0  0  0  0  0
  100.5366   15.5777   97.7751 N   0  0  0  0  0  0  0  0  0  0  0  0
   99.3110   16.1384   97.6933 C   0  0  0  0  0  0  0  0  0  0  0  0
   98.7710   16.8114   98.8102 C   0  0  0  0  0  0  0  0  0  0  0  0
   99.5862   16.7977   99.9868 C   0  0  0  0  0  0  0  0  0  0  0  0
   99.1102   17.4338  101.1712 N   0  0  0  0  0  0  0  0  0  0  0  0
   97.6304   17.2792   98.4413 N   0  0  0  0  0  0  0  0  0  0  0  0
   97.4309   16.9672   97.1726 C   0  0  0  0  0  0  0  0  0  0  0  0
   98.4077   16.2712   96.7113 N   0  0  0  0  0  0  0  0  0  0  0  0
  1 24  1  0  0  0  0
  1  4  2  0  0  0  0
  2 13  1  0  0  0  0
  2 21  1  0  0  0  0
  3 16  1  0  0  0  0
  4 18  1  0  0  0  0
  5 19  2  0  0  0  0
  5 16  1  0  0  0  0
  6 16  2  0  0  0  0
  6 17  1  0  0  0  0
  7 17  1  0  0  0  0
 11 25  2  0  0  0  0
 12 26  2  0  0  0  0
 13 25  1  0  0  0  0
 14 23  1  0  0  0  0
 15 26  1  0  0  0  0
 17 18  2  0  0  0  0
 18 19  1  0  0  0  0
 19 24  1  0  0  0  0
 20 10  1  6  0  0  0
 20 22  1  0  0  0  0
 20 23  1  0  0  0  0
 21 14  1  1  0  0  0
 21 22  1  0  0  0  0
 22 15  1  6  0  0  0
 23 24  1  1  0  0  0
 25  8  1  6  0  0  0
 25 32  1  0  0  0  0
 26  9  1  6  0  0  0
 26 28  1  0  0  0  0
 27 28  1  0  0  0  0
 29 27  1  1  0  0  0
 29 30  1  0  0  0  0
 29 31  1  0  0  0  0
 30 35  1  0  0  0  0
 31 33  1  0  0  0  0
 31 32  1  6  0  0  0
 33 34  1  6  0  0  0
 33 35  1  0  0  0  0
 35 45  1  1  0  0  0
 36 41  2  0  0  0  0
 36 37  1  0  0  0  0
 37 38  2  0  0  0  0
 38 39  1  0  0  0  0
 39 40  2  0  0  0  0
 39 45  1  0  0  0  0
 40 41  1  0  0  0  0
 40 43  1  0  0  0  0
 41 42  1  0  0  0  0
 43 44  2  0  0  0  0
 44 45  1  0  0  0  0
M  CHG  4   8  -1   9  -1  11  -1  12  -1
M  END
>  <CHROM.1>
165.10453448,-178.52003408,96.53250249,12.95132067,96.57423399,-2.38877820
-0.66874292,-0.42747955

>  <Name>
ligand

>  <RI>
0

>  <Rbt.Current_Directory>
/home/itssahil/PROJECTS/Mol_Feturizer/New_Systems/rnas/4YAZ

>  <Rbt.Executable>
rbdock ($Id: //depot/dev/client3/rdock/2013.1/src/exe/rbdock.cxx#4 $)

>  <Rbt.Library>
libRbt.so (2013.1, Build901 2013/11/27)

>  <Rbt.Parameter_File>
/export/apps/rDock/src/rDock_2013.1_src/data/scripts/dock_solv.prm

>  <Rbt.Receptor>
prm/pocket_docking_3.prm

>  <SCORE>
-39.8754

>  <SCORE.INTER>
-40.299

>  <SCORE.INTER.CONST>
1

>  <SCORE.INTER.POLAR>
0

>  <SCORE.INTER.ROT>
2

>  <SCORE.INTER.SOLV>
26.685

>  <SCORE.INTER.VDW>
-40.6943

>  <SCORE.INTER.norm>
-0.895533

>  <SCORE.INTRA>
0.423617

>  <SCORE.INTRA.DIHEDRAL>
0.00730677

>  <SCORE.INTRA.DIHEDRAL.0>
2.39103

>  <SCORE.INTRA.POLAR>
0

>  <SCORE.INTRA.POLAR.0>
0

>  <SCORE.INTRA.REPUL>
0

>  <SCORE.INTRA.REPUL.0>
0

>  <SCORE.INTRA.SOLV>
2.05073

>  <SCORE.INTRA.SOLV.lig_0>
-163.975

>  <SCORE.INTRA.VDW>
-0.605399

>  <SCORE.INTRA.VDW.0>
-1.49176

>  <SCORE.INTRA.norm>
0.00941372

>  <SCORE.RESTR>
0

>  <SCORE.RESTR.CAVITY>
0

>  <SCORE.RESTR.norm>
0

>  <SCORE.SYSTEM>
0

>  <SCORE.SYSTEM.CONST>
0

>  <SCORE.SYSTEM.DIHEDRAL>
0

>  <SCORE.SYSTEM.SOLV>
0

>  <SCORE.SYSTEM.norm>
0

>  <SCORE.heavy>
45

>  <SCORE.norm>
-0.886119

>  <RMSD>
6.855

$$$$
ligand
 OpenBabel11021811513D
libRbt.so/2013.1/901 2013/11/27
 45 51  0  0  0  0  0  0  0  0999 V2000
   94.2073   11.3375   99.3903 C   0  0  0  0  0  0  0  0  0  0  0  0
   95.4080   11.3105   94.3024 C   0  0  0  0  0  0  0  0  0  0  0  0
   97.7560    7.5874   96.9930 N   0  0  0  0  0  0  0  0  0  0  0  0
   95.1998   11.0780  100.1783 N   0  0  0  0  0  0  0  0  0  0  0  0
   96.0053    9.0441   97.5124 N   0  0  0  0  0  0  0  0  0  0  0  0
   97.7212    8.7033   99.0471 N   0  0  0  0  0  0  0  0  0  0  0  0
   97.7511    9.8804  101.1418 O   0  0  0  0  0  0  0  0  0  0  0  0
   98.2769   10.3295   93.6820 O   0  5  0  0  0  0  0  0  0  0  0  0
   92.8244   15.6075   94.3945 O   0  5  0  0  0  0  0  0  0  0  0  0
   91.7497   12.2042   96.6086 O   0  0  0  0  0  0  0  0  0  0  0  0
   98.8615   11.3040   95.5956 O   0  5  0  0  0  0  0  0  0  0  0  0
   93.0482   15.1458   96.5700 O   0  5  0  0  0  0  0  0  0  0  0  0
   96.4522   10.8615   95.0696 O   0  0  0  0  0  0  0  0  0  0  0  0
   93.9548   10.1022   96.0108 O   0  0  0  0  0  0  0  0  0  0  0  0
   93.3021   13.3195   94.8094 O   0  0  0  0  0  0  0  0  0  0  0  0
   97.1207    8.4853   97.9035 C   0  0  0  0  0  0  0  0  0  0  0  0
   97.1890    9.5611   99.9071 C   0  0  0  0  0  0  0  0  0  0  0  0
   95.9713   10.1907   99.5635 C   0  0  0  0  0  0  0  0  0  0  0  0
   95.3993    9.9227   98.3443 C   0  0  0  0  0  0  0  0  0  0  0  0
   93.0668   11.9473   96.9235 C   0  0  2  0  0  0  0  0  0  0  0  0
   94.1228   11.2725   95.0265 C   0  0  1  0  0  0  0  0  0  0  0  0
   93.9464   12.3512   95.6287 C   0  0  1  0  0  0  0  0  0  0  0  0
   93.3577   10.7025   97.2527 C   0  0  2  0  0  0  0  0  0  0  0  0
   94.2894   10.6610   98.3048 N   0  0  0  0  0  0  0  0  0  0  0  0
   97.8617   11.3216   94.5860 P   0  0  2  0  0  0  0  0  0  0  0  0
   93.5367   14.7740   95.2646 P   0  0  1  0  0  0  0  0  0  0  0  0
   95.7206   14.7731   93.8319 C   0  0  0  0  0  0  0  0  0  0  0  0
   95.0414   15.1365   95.0445 O   0  0  0  0  0  0  0  0  0  0  0  0
   97.1886   14.8102   93.9089 C   0  0  1  0  0  0  0  0  0  0  0  0
   97.6106   16.1450   94.6984 O   0  0  0  0  0  0  0  0  0  0  0  0
   97.6078   13.8559   94.6113 C   0  0  1  0  0  0  0  0  0  0  0  0
   97.8269   12.6574   93.8322 O   0  0  0  0  0  0  0  0  0  0  0  0
   98.8593   14.4093   95.2758 C   0  0  1  0  0  0  0  0  0  0  0  0
   99.8505   14.2919   94.5042 O   0  0  0  0  0  0  0  0  0  0  0  0
   98.5606   15.8960   95.4699 C   0  0  2  0  0  0  0  0  0  0  0  0
  100.8503   16.2911  100.0563 N   0  0  0  0  0  0  0  0  0  0  0  0
  101.3358   15.6712   98.9488 C   0  0  0  0  0  0  0  0  0  0  0  0
  100.5819   15.6919   97.8562 N   0  0  0  0  0  0  0  0  0  0  0  0
   99.3452   16.2302   97.7949 C   0  0  0  0  0  0  0  0  0  0  0  0
   98.8069   16.8830   98.9246 C   0  0  0  0  0  0  0  0  0  0  0  0
   99.6369   16.8739  100.0908 C   0  0  0  0  0  0  0  0  0  0  0  0
   99.1641   17.4903  101.2869 N   0  0  0  0  0  0  0  0  0  0  0  0
   97.6532   17.3326   98.5743 N   0  0  0  0  0  0  0  0  0  0  0  0
   97.4435   17.0283   97.3053 C   0  0  0  0  0  0  0  0  0  0  0  0
   98.4273   16.3550   96.8255 N   0  0  0  0  0  0  0  0  0  0  0  0
  1 24  1  0  0  0  0
  1  4  2  0  0  0  0
  2 13  1  0  0  0  0
  2 21  1  0  0  0  0
  3 16  1  0  0  0  0
  4 18  1  0  0  0  0
  5 19  2  0  0  0  0
  5 16  1  0  0  0  0
  6 16  2  0  0  0  0
  6 17  1  0  0  0  0
  7 17  1  0  0  0  0
 11 25  2  0  0  0  0
 12 26  2  0  0  0  0
 13 25  1  0  0  0  0
 14 23  1  0  0  0  0
 15 26  1  0  0  0  0
 17 18  2  0  0  0  0
 18 19  1  0  0  0  0
 19 24  1  0  0  0  0
 20 10  1  6  0  0  0
 20 22  1  0  0  0  0
 20 23  1  0  0  0  0
 21 14  1  1  0  0  0
 21 22  1  0  0  0  0
 22 15  1  6  0  0  0
 23 24  1  1  0  0  0
 25  8  1  6  0  0  0
 25 32  1  0  0  0  0
 26  9  1  6  0  0  0
 26 28  1  0  0  0  0
 27 28  1  0  0  0  0
 29 27  1  1  0  0  0
 29 30  1  0  0  0  0
 29 31  1  0  0  0  0
 30 35  1  0  0  0  0
 31 33  1  0  0  0  0
 31 32  1  6  0  0  0
 33 34  1  6  0  0  0
 33 35  1  0  0  0  0
 35 45  1  1  0  0  0
 36 41  2  0  0  0  0
 36 37  1  0  0  0  0
 37 38  2  0  0  0  0
 38 39  1  0  0  0  0
 39 40  2  0  0  0  0
 39 45  1  0  0  0  0
 40 41  1  0  0  0  0
 40 43  1  0  0  0  0
 41 42  1  0  0  0  0
 43 44  2  0  0  0  0
 44 45  1  0  0  0  0
M  CHG  4   8  -1   9  -1  11  -1  12  -1
M  END
>  <CHROM.1>
164.05169508,-177.66371363,96.56468590,13.02661268,96.66920415,-2.37229254
-0.66435882,-0.41324443

>  <Name>
ligand

>  <RI>
0

>  <Rbt.Current_Directory>
/home/itssahil/PROJECTS/Mol_Feturizer/New_Systems/rnas/4YAZ

>  <Rbt.Executable>
rbdock ($Id: //depot/dev/client3/rdock/2013.1/src/exe/rbdock.cxx#4 $)

>  <Rbt.Library>
libRbt.so (2013.1, Build901 2013/11/27)

>  <Rbt.Parameter_File>
/export/apps/rDock/src/rDock_2013.1_src/data/scripts/dock_solv.prm

>  <Rbt.Receptor>
prm/pocket_docking_4.prm

>  <SCORE>
-39.8407

>  <SCORE.INTER>
-40.1083

>  <SCORE.INTER.CONST>
1

>  <SCORE.INTER.POLAR>
0

>  <SCORE.INTER.ROT>
2

>  <SCORE.INTER.SOLV>
28.0337

>  <SCORE.INTER.VDW>
-41.0168

>  <SCORE.INTER.norm>
-0.891296

>  <SCORE.INTRA>
0.267641

>  <SCORE.INTRA.DIHEDRAL>
0.0136461

>  <SCORE.INTRA.DIHEDRAL.0>
2.39103

>  <SCORE.INTRA.POLAR>
0

>  <SCORE.INTRA.POLAR.0>
0

>  <SCORE.INTRA.REPUL>
0

>  <SCORE.INTRA.REPUL.0>
0

>  <SCORE.INTRA.SOLV>
1.56523

>  <SCORE.INTRA.SOLV.lig_0>
-163.975

>  <SCORE.INTRA.VDW>
-0.521796

>  <SCORE.INTRA.VDW.0>
-1.49176

>  <SCORE.INTRA.norm>
0.00594757

>  <SCORE.RESTR>
0

>  <SCORE.RESTR.CAVITY>
0

>  <SCORE.RESTR.norm>
0

>  <SCORE.SYSTEM>
0

>  <SCORE.SYSTEM.CONST>
0

>  <SCORE.SYSTEM.DIHEDRAL>
0

>  <SCORE.SYSTEM.SOLV>
0

>  <SCORE.SYSTEM.norm>
0

>  <SCORE.heavy>
45

>  <SCORE.norm>
-0.885348

>  <RMSD>
6.855

$$$$
ligand
 OpenBabel11021811513D
libRbt.so/2013.1/901 2013/11/27
 45 51  0  0  0  0  0  0  0  0999 V2000
   94.1727   11.3181   99.3126 C   0  0  0  0  0  0  0  0  0  0  0  0
   95.4228   11.2334   94.2395 C   0  0  0  0  0  0  0  0  0  0  0  0
   97.7142    7.5104   96.9971 N   0  0  0  0  0  0  0  0  0  0  0  0
   95.1550   11.0602  100.1137 N   0  0  0  0  0  0  0  0  0  0  0  0
   95.9705    8.9874   97.4810 N   0  0  0  0  0  0  0  0  0  0  0  0
   97.6680    8.6515   99.0370 N   0  0  0  0  0  0  0  0  0  0  0  0
   97.6865    9.8538  101.1175 O   0  0  0  0  0  0  0  0  0  0  0  0
   98.2927   10.2318   93.6578 O   0  5  0  0  0  0  0  0  0  0  0  0
   92.8608   15.5442   94.2644 O   0  5  0  0  0  0  0  0  0  0  0  0
   91.7459   12.1677   96.4996 O   0  0  0  0  0  0  0  0  0  0  0  0
   98.8628   11.2216   95.5680 O   0  5  0  0  0  0  0  0  0  0  0  0
   93.0600   15.1021   96.4464 O   0  5  0  0  0  0  0  0  0  0  0  0
   96.4567   10.7864   95.0217 O   0  0  0  0  0  0  0  0  0  0  0  0
   93.9459   10.0488   95.9444 O   0  0  0  0  0  0  0  0  0  0  0  0
   93.3223   13.2579   94.7059 O   0  0  0  0  0  0  0  0  0  0  0  0
   97.0773    8.4245   97.8901 C   0  0  0  0  0  0  0  0  0  0  0  0
   97.1343    9.5240   99.8811 C   0  0  0  0  0  0  0  0  0  0  0  0
   95.9254   10.1592   99.5176 C   0  0  0  0  0  0  0  0  0  0  0  0
   95.3635    9.8811   98.2959 C   0  0  0  0  0  0  0  0  0  0  0  0
   93.0584   11.9071   96.8304 C   0  0  2  0  0  0  0  0  0  0  0  0
   94.1300   11.2089   94.9508 C   0  0  1  0  0  0  0  0  0  0  0  0
   93.9532   12.2941   95.5409 C   0  0  1  0  0  0  0  0  0  0  0  0
   93.3394   10.6640   97.1744 C   0  0  2  0  0  0  0  0  0  0  0  0
   94.2601   10.6278   98.2363 N   0  0  0  0  0  0  0  0  0  0  0  0
   97.8734   11.2347   94.5482 P   0  0  2  0  0  0  0  0  0  0  0  0
   93.5599   14.7154   95.1497 P   0  0  1  0  0  0  0  0  0  0  0  0
   95.7582   14.6897   93.7394 C   0  0  0  0  0  0  0  0  0  0  0  0
   95.0686   15.0681   94.9416 O   0  0  0  0  0  0  0  0  0  0  0  0
   97.2255   14.7200   93.8311 C   0  0  1  0  0  0  0  0  0  0  0  0
   97.6464   16.0601   94.6122 O   0  0  0  0  0  0  0  0  0  0  0  0
   97.6325   13.7703   94.5468 C   0  0  1  0  0  0  0  0  0  0  0  0
   97.8533   12.5633   93.7813 O   0  0  0  0  0  0  0  0  0  0  0  0
   98.8800   14.3236   95.2188 C   0  0  1  0  0  0  0  0  0  0  0  0
   99.8785   14.1938   94.4585 O   0  0  0  0  0  0  0  0  0  0  0  0
   98.5872   15.8136   95.3957 C   0  0  2  0  0  0  0  0  0  0  0  0
  100.8025   16.1747  100.0213 N   0  0  0  0  0  0  0  0  0  0  0  0
  101.2899   15.5328   98.9272 C   0  0  0  0  0  0  0  0  0  0  0  0
  100.5572   15.5677   97.8207 N   0  0  0  0  0  0  0  0  0  0  0  0
   99.3383   16.1416   97.7327 C   0  0  0  0  0  0  0  0  0  0  0  0
   98.7987   16.8181   98.8476 C   0  0  0  0  0  0  0  0  0  0  0  0
   99.6064   16.7931  100.0292 C   0  0  0  0  0  0  0  0  0  0  0  0
   99.1300   17.4318  101.2121 N   0  0  0  0  0  0  0  0  0  0  0  0
   97.6654   17.2988   98.4729 N   0  0  0  0  0  0  0  0  0  0  0  0
   97.4702   16.9915   97.2023 C   0  0  0  0  0  0  0  0  0  0  0  0
   98.4424   16.2862   96.7454 N   0  0  0  0  0  0  0  0  0  0  0  0
  1 24  1  0  0  0  0
  1  4  2  0  0  0  0
  2 13  1  0  0  0  0
  2 21  1  0  0  0  0
  3 16  1  0  0  0  0
  4 18  1  0  0  0  0
  5 19  2  0  0  0  0
  5 16  1  0  0  0  0
  6 16  2  0  0  0  0
  6 17  1  0  0  0  0
  7 17  1  0  0  0  0
 11 25  2  0  0  0  0
 12 26  2  0  0  0  0
 13 25  1  0  0  0  0
 14 23  1  0  0  0  0
 15 26  1  0  0  0  0
 17 18  2  0  0  0  0
 18 19  1  0  0  0  0
 19 24  1  0  0  0  0
 20 10  1  6  0  0  0
 20 22  1  0  0  0  0
 20 23  1  0  0  0  0
 21 14  1  1  0  0  0
 21 22  1  0  0  0  0
 22 15  1  6  0  0  0
 23 24  1  1  0  0  0
 25  8  1  6  0  0  0
 25 32  1  0  0  0  0
 26  9  1  6  0  0  0
 26 28  1  0  0  0  0
 27 28  1  0  0  0  0
 29 27  1  1  0  0  0
 29 30  1  0  0  0  0
 29 31  1  0  0  0  0
 30 35  1  0  0  0  0
 31 33  1  0  0  0  0
 31 32  1  6  0  0  0
 33 34  1  6  0  0  0
 33 35  1  0  0  0  0
 35 45  1  1  0  0  0
 36 41  2  0  0  0  0
 36 37  1  0  0  0  0
 37 38  2  0  0  0  0
 38 39  1  0  0  0  0
 39 40  2  0  0  0  0
 39 45  1  0  0  0  0
 40 41  1  0  0  0  0
 40 43  1  0  0  0  0
 41 42  1  0  0  0  0
 43 44  2  0  0  0  0
 44 45  1  0  0  0  0
M  CHG  4   8  -1   9  -1  11  -1  12  -1
M  END
>  <CHROM.1>
163.82232723,-179.14138526,96.56140723,12.95995214,96.60379962,-2.38205932
-0.67336499,-0.43150652

>  <Name>
ligand

>  <RI>
0

>  <Rbt.Current_Directory>
/home/itssahil/PROJECTS/Mol_Feturizer/New_Systems/rnas/4YAZ

>  <Rbt.Executable>
rbdock ($Id: //depot/dev/client3/rdock/2013.1/src/exe/rbdock.cxx#4 $)

>  <Rbt.Library>
libRbt.so (2013.1, Build901 2013/11/27)

>  <Rbt.Parameter_File>
/export/apps/rDock/src/rDock_2013.1_src/data/scripts/dock_solv.prm

>  <Rbt.Receptor>
prm/pocket_docking_6.prm

>  <SCORE>
-39.8961

>  <SCORE.INTER>
-40.1304

>  <SCORE.INTER.CONST>
1

>  <SCORE.INTER.POLAR>
0

>  <SCORE.INTER.ROT>
2

>  <SCORE.INTER.SOLV>
27.414

>  <SCORE.INTER.VDW>
-40.8249

>  <SCORE.INTER.norm>
-0.891786

>  <SCORE.INTRA>
0.234231

>  <SCORE.INTRA.DIHEDRAL>
0.00311741

>  <SCORE.INTRA.DIHEDRAL.0>
2.39103

>  <SCORE.INTRA.POLAR>
0

>  <SCORE.INTRA.POLAR.0>
0

>  <SCORE.INTRA.REPUL>
0

>  <SCORE.INTRA.REPUL.0>
0

>  <SCORE.INTRA.SOLV>
1.46447

>  <SCORE.INTRA.SOLV.lig_0>
-163.975

>  <SCORE.INTRA.VDW>
-0.499565

>  <SCORE.INTRA.VDW.0>
-1.49176

>  <SCORE.INTRA.norm>
0.00520513

>  <SCORE.RESTR>
0

>  <SCORE.RESTR.CAVITY>
0

>  <SCORE.RESTR.norm>
0

>  <SCORE.SYSTEM>
0

>  <SCORE.SYSTEM.CONST>
0

>  <SCORE.SYSTEM.DIHEDRAL>
0

>  <SCORE.SYSTEM.SOLV>
0

>  <SCORE.SYSTEM.norm>
0

>  <SCORE.heavy>
45

>  <SCORE.norm>
-0.886581

>  <RMSD>
6.855

$$$$
ligand
 OpenBabel11021811513D
libRbt.so/2013.1/901 2013/11/27
 45 51  0  0  0  0  0  0  0  0999 V2000
   94.1750   11.3204   99.3132 C   0  0  0  0  0  0  0  0  0  0  0  0
   95.3863   11.2672   94.2269 C   0  0  0  0  0  0  0  0  0  0  0  0
   97.7343    7.5659   96.9388 N   0  0  0  0  0  0  0  0  0  0  0  0
   95.1664   11.0659  100.1042 N   0  0  0  0  0  0  0  0  0  0  0  0
   95.9803    9.0219   97.4486 N   0  0  0  0  0  0  0  0  0  0  0  0
   97.6938    8.6904   98.9880 N   0  0  0  0  0  0  0  0  0  0  0  0
   97.7177    9.8765  101.0777 O   0  0  0  0  0  0  0  0  0  0  0  0
   98.2565   10.2835   93.6173 O   0  5  0  0  0  0  0  0  0  0  0  0
   92.8015   15.5641   94.2906 O   0  5  0  0  0  0  0  0  0  0  0  0
   91.7234   12.1727   96.5214 O   0  0  0  0  0  0  0  0  0  0  0  0
   98.8372   11.2686   95.5267 O   0  5  0  0  0  0  0  0  0  0  0  0
   93.0213   15.1143   96.4690 O   0  5  0  0  0  0  0  0  0  0  0  0
   96.4290   10.8227   94.9986 O   0  0  0  0  0  0  0  0  0  0  0  0
   93.9301   10.0679   95.9392 O   0  0  0  0  0  0  0  0  0  0  0  0
   93.2790   13.2785   94.7190 O   0  0  0  0  0  0  0  0  0  0  0  0
   97.0958    8.4666   97.8442 C   0  0  0  0  0  0  0  0  0  0  0  0
   97.1585    9.5511   99.8433 C   0  0  0  0  0  0  0  0  0  0  0  0
   95.9405   10.1772   99.4947 C   0  0  0  0  0  0  0  0  0  0  0  0
   95.3713    9.9031   98.2755 C   0  0  0  0  0  0  0  0  0  0  0  0
   93.0400   11.9179   96.8401 C   0  0  2  0  0  0  0  0  0  0  0  0
   94.0996   11.2329   94.9489 C   0  0  1  0  0  0  0  0  0  0  0  0
   93.9219   12.3148   95.5448 C   0  0  1  0  0  0  0  0  0  0  0  0
   93.3305   10.6749   97.1767 C   0  0  2  0  0  0  0  0  0  0  0  0
   94.2603   10.6394   98.2308 N   0  0  0  0  0  0  0  0  0  0  0  0
   97.8393   11.2805   94.5152 P   0  0  2  0  0  0  0  0  0  0  0  0
   93.5124   14.7355   95.1667 P   0  0  1  0  0  0  0  0  0  0  0  0
   95.6989   14.7273   93.7380 C   0  0  0  0  0  0  0  0  0  0  0  0
   95.0174   15.0971   94.9474 O   0  0  0  0  0  0  0  0  0  0  0  0
   97.1668   14.7651   93.8176 C   0  0  1  0  0  0  0  0  0  0  0  0
   97.5870   16.1043   94.6006 O   0  0  0  0  0  0  0  0  0  0  0  0
   97.5849   13.8148   94.5260 C   0  0  1  0  0  0  0  0  0  0  0  0
   97.8057   12.6121   93.7539 O   0  0  0  0  0  0  0  0  0  0  0  0
   98.8350   14.3721   95.1898 C   0  0  1  0  0  0  0  0  0  0  0  0
   99.8277   14.2507   94.4207 O   0  0  0  0  0  0  0  0  0  0  0  0
   98.5356   15.8598   95.3752 C   0  0  2  0  0  0  0  0  0  0  0  0
  100.7829   16.2042   99.9867 N   0  0  0  0  0  0  0  0  0  0  0  0
  101.2636   15.5678   98.8863 C   0  0  0  0  0  0  0  0  0  0  0  0
  100.5231   15.6064   97.7851 N   0  0  0  0  0  0  0  0  0  0  0  0
   99.3026   16.1787   97.7082 C   0  0  0  0  0  0  0  0  0  0  0  0
   98.7698   16.8494   98.8300 C   0  0  0  0  0  0  0  0  0  0  0  0
   99.5859   16.8206  100.0057 C   0  0  0  0  0  0  0  0  0  0  0  0
   99.1168   17.4533  101.1947 N   0  0  0  0  0  0  0  0  0  0  0  0
   97.6332   17.3299   98.4653 N   0  0  0  0  0  0  0  0  0  0  0  0
   97.4296   17.0279   97.1948 C   0  0  0  0  0  0  0  0  0  0  0  0
   98.3996   16.3261   96.7280 N   0  0  0  0  0  0  0  0  0  0  0  0
  1 24  1  0  0  0  0
  1  4  2  0  0  0  0
  2 13  1  0  0  0  0
  2 21  1  0  0  0  0
  3 16  1  0  0  0  0
  4 18  1  0  0  0  0
  5 19  2  0  0  0  0
  5 16  1  0  0  0  0
  6 16  2  0  0  0  0
  6 17  1  0  0  0  0
  7 17  1  0  0  0  0
 11 25  2  0  0  0  0
 12 26  2  0  0  0  0
 13 25  1  0  0  0  0
 14 23  1  0  0  0  0
 15 26  1  0  0  0  0
 17 18  2  0  0  0  0
 18 19  1  0  0  0  0
 19 24  1  0  0  0  0
 20 10  1  6  0  0  0
 20 22  1  0  0  0  0
 20 23  1  0  0  0  0
 21 14  1  1  0  0  0
 21 22  1  0  0  0  0
 22 15  1  6  0  0  0
 23 24  1  1  0  0  0
 25  8  1  6  0  0  0
 25 32  1  0  0  0  0
 26  9  1  6  0  0  0
 26 28  1  0  0  0  0
 27 28  1  0  0  0  0
 29 27  1  1  0  0  0
 29 30  1  0  0  0  0
 29 31  1  0  0  0  0
 30 35  1  0  0  0  0
 31 33  1  0  0  0  0
 31 32  1  6  0  0  0
 33 34  1  6  0  0  0
 33 35  1  0  0  0  0
 35 45  1  1  0  0  0
 36 41  2  0  0  0  0
 36 37  1  0  0  0  0
 37 38  2  0  0  0  0
 38 39  1  0  0  0  0
 39 40  2  0  0  0  0
 39 45  1  0  0  0  0
 40 41  1  0  0  0  0
 40 43  1  0  0  0  0
 41 42  1  0  0  0  0
 43 44  2  0  0  0  0
 44 45  1  0  0  0  0
M  CHG  4   8  -1   9  -1  11  -1  12  -1
M  END
>  <CHROM.1>
164.15819711,-179.37036883,96.53591371,12.99100764,96.58806271,-2.37361951
-0.66771089,-0.42013079

>  <Name>
ligand

>  <RI>
0

>  <Rbt.Current_Directory>
/home/itssahil/PROJECTS/Mol_Feturizer/New_Systems/rnas/4YAZ

>  <Rbt.Executable>
rbdock ($Id: //depot/dev/client3/rdock/2013.1/src/exe/rbdock.cxx#4 $)

>  <Rbt.Library>
libRbt.so (2013.1, Build901 2013/11/27)

>  <Rbt.Parameter_File>
/export/apps/rDock/src/rDock_2013.1_src/data/scripts/dock_solv.prm

>  <Rbt.Receptor>
prm/pocket_docking_7.prm

>  <SCORE>
-40.0049

>  <SCORE.INTER>
-40.2925

>  <SCORE.INTER.CONST>
1

>  <SCORE.INTER.POLAR>
0

>  <SCORE.INTER.ROT>
2

>  <SCORE.INTER.SOLV>
27.0759

>  <SCORE.INTER.VDW>
-40.8203

>  <SCORE.INTER.norm>
-0.895389

>  <SCORE.INTRA>
0.287592

>  <SCORE.INTRA.DIHEDRAL>
0.0014183

>  <SCORE.INTRA.DIHEDRAL.0>
2.39103

>  <SCORE.INTRA.POLAR>
0

>  <SCORE.INTRA.POLAR.0>
0

>  <SCORE.INTRA.REPUL>
0

>  <SCORE.INTRA.REPUL.0>
0

>  <SCORE.INTRA.SOLV>
1.61496

>  <SCORE.INTRA.SOLV.lig_0>
-163.975

>  <SCORE.INTRA.VDW>
-0.520599

>  <SCORE.INTRA.VDW.0>
-1.49176

>  <SCORE.INTRA.norm>
0.00639093

>  <SCORE.RESTR>
0

>  <SCORE.RESTR.CAVITY>
0

>  <SCORE.RESTR.norm>
0

>  <SCORE.SYSTEM>
0

>  <SCORE.SYSTEM.CONST>
0

>  <SCORE.SYSTEM.DIHEDRAL>
0

>  <SCORE.SYSTEM.SOLV>
0

>  <SCORE.SYSTEM.norm>
0

>  <SCORE.heavy>
45

>  <SCORE.norm>
-0.888998

>  <RMSD>
6.855

$$$$
ligand
 OpenBabel11021811513D
libRbt.so/2013.1/901 2013/11/27
 45 51  0  0  0  0  0  0  0  0999 V2000
   96.5218    9.9573   98.3109 C   0  0  0  0  0  0  0  0  0  0  0  0
   95.6872   10.7600   94.5233 C   0  0  0  0  0  0  0  0  0  0  0  0
   93.9468   11.4490  103.1634 N   0  0  0  0  0  0  0  0  0  0  0  0
   97.3536    9.9199   99.3008 N   0  0  0  0  0  0  0  0  0  0  0  0
   94.5063   10.9507  100.9509 N   0  0  0  0  0  0  0  0  0  0  0  0
   96.1299   10.8191  102.6130 N   0  0  0  0  0  0  0  0  0  0  0  0
   98.3681   10.1150  102.0944 O   0  0  0  0  0  0  0  0  0  0  0  0
   98.1928    9.3590   93.3671 O   0  5  0  0  0  0  0  0  0  0  0  0
   93.8114   15.3909   94.9529 O   0  5  0  0  0  0  0  0  0  0  0  0
   92.7627   12.2159   97.4945 O   0  0  0  0  0  0  0  0  0  0  0  0
   99.3002   10.2657   95.0716 O   0  5  0  0  0  0  0  0  0  0  0  0
   94.4235   14.9339   97.0536 O   0  5  0  0  0  0  0  0  0  0  0  0
   96.7965   10.1741   95.0772 O   0  0  0  0  0  0  0  0  0  0  0  0
   94.4736    9.8040   96.5491 O   0  0  0  0  0  0  0  0  0  0  0  0
   94.0399   13.0640   95.3637 O   0  0  0  0  0  0  0  0  0  0  0  0
   94.9149   11.0623  102.1878 C   0  0  0  0  0  0  0  0  0  0  0  0
   97.0523   10.4174  101.7489 C   0  0  0  0  0  0  0  0  0  0  0  0
   96.6911   10.2925  100.3884 C   0  0  0  0  0  0  0  0  0  0  0  0
   95.3970   10.5556  100.0119 C   0  0  0  0  0  0  0  0  0  0  0  0
   94.0672   11.7731   97.5410 C   0  0  2  0  0  0  0  0  0  0  0  0
   94.5921   10.9221   95.4991 C   0  0  1  0  0  0  0  0  0  0  0  0
   94.7005   12.0239   96.0750 C   0  0  1  0  0  0  0  0  0  0  0  0
   94.2433   10.5041   97.8592 C   0  0  2  0  0  0  0  0  0  0  0  0
   95.3614   10.3419   98.6961 N   0  0  0  0  0  0  0  0  0  0  0  0
   98.1220   10.4149   94.2914 P   0  0  2  0  0  0  0  0  0  0  0  0
   94.5675   14.4749   95.6937 P   0  0  1  0  0  0  0  0  0  0  0  0
   96.3762   14.1317   93.8409 C   0  0  0  0  0  0  0  0  0  0  0  0
   96.0271   14.6091   95.1501 O   0  0  0  0  0  0  0  0  0  0  0  0
   97.8176   13.9539   93.6102 C   0  0  1  0  0  0  0  0  0  0  0  0
   98.5803   15.2239   94.2334 O   0  0  0  0  0  0  0  0  0  0  0  0
   98.2377   12.9590   94.2532 C   0  0  1  0  0  0  0  0  0  0  0  0
   98.1164   11.7298   93.5010 O   0  0  0  0  0  0  0  0  0  0  0  0
   99.6665   13.3325   94.6179 C   0  0  1  0  0  0  0  0  0  0  0  0
  100.4454   13.0592   93.6638 O   0  0  0  0  0  0  0  0  0  0  0  0
   99.6275   14.8496   94.8018 C   0  0  2  0  0  0  0  0  0  0  0  0
   97.5909   17.4063   98.7704 N   0  0  0  0  0  0  0  0  0  0  0  0
   97.0218   17.1913   97.5552 C   0  0  0  0  0  0  0  0  0  0  0  0
   97.7204   16.4940   96.6673 N   0  0  0  0  0  0  0  0  0  0  0  0
   98.9767   16.0435   96.8715 C   0  0  0  0  0  0  0  0  0  0  0  0
   99.6012   16.2472   98.1207 C   0  0  0  0  0  0  0  0  0  0  0  0
   98.8309   16.9812   99.0784 C   0  0  0  0  0  0  0  0  0  0  0  0
   99.3916   17.2544  100.3609 N   0  0  0  0  0  0  0  0  0  0  0  0
  100.7560   15.6840   98.0506 N   0  0  0  0  0  0  0  0  0  0  0  0
  100.8875   15.1259   96.8596 C   0  0  0  0  0  0  0  0  0  0  0  0
   99.8500   15.3435   96.1331 N   0  0  0  0  0  0  0  0  0  0  0  0
  1 24  1  0  0  0  0
  1  4  2  0  0  0  0
  2 13  1  0  0  0  0
  2 21  1  0  0  0  0
  3 16  1  0  0  0  0
  4 18  1  0  0  0  0
  5 19  2  0  0  0  0
  5 16  1  0  0  0  0
  6 16  2  0  0  0  0
  6 17  1  0  0  0  0
  7 17  1  0  0  0  0
 11 25  2  0  0  0  0
 12 26  2  0  0  0  0
 13 25  1  0  0  0  0
 14 23  1  0  0  0  0
 15 26  1  0  0  0  0
 17 18  2  0  0  0  0
 18 19  1  0  0  0  0
 19 24  1  0  0  0  0
 20 10  1  6  0  0  0
 20 22  1  0  0  0  0
 20 23  1  0  0  0  0
 21 14  1  1  0  0  0
 21 22  1  0  0  0  0
 22 15  1  6  0  0  0
 23 24  1  1  0  0  0
 25  8  1  6  0  0  0
 25 32  1  0  0  0  0
 26  9  1  6  0  0  0
 26 28  1  0  0  0  0
 27 28  1  0  0  0  0
 29 27  1  1  0  0  0
 29 30  1  0  0  0  0
 29 31  1  0  0  0  0
 30 35  1  0  0  0  0
 31 33  1  0  0  0  0
 31 32  1  6  0  0  0
 33 34  1  6  0  0  0
 33 35  1  0  0  0  0
 35 45  1  1  0  0  0
 36 41  2  0  0  0  0
 36 37  1  0  0  0  0
 37 38  2  0  0  0  0
 38 39  1  0  0  0  0
 39 40  2  0  0  0  0
 39 45  1  0  0  0  0
 40 41  1  0  0  0  0
 40 43  1  0  0  0  0
 41 42  1  0  0  0  0
 43 44  2  0  0  0  0
 44 45  1  0  0  0  0
M  CHG  4   8  -1   9  -1  11  -1  12  -1
M  END
>  <CHROM.1>
16.07617036,7.80318698,96.86304935,12.82349372,96.94680738,2.56608382,1.02406951
1.25212133

>  <Name>
ligand

>  <RI>
0

>  <Rbt.Current_Directory>
/home/itssahil/PROJECTS/Mol_Feturizer/New_Systems/rnas/4YAZ

>  <Rbt.Executable>
rbdock ($Id: //depot/dev/client3/rdock/2013.1/src/exe/rbdock.cxx#4 $)

>  <Rbt.Library>
libRbt.so (2013.1, Build901 2013/11/27)

>  <Rbt.Parameter_File>
/export/apps/rDock/src/rDock_2013.1_src/data/scripts/dock_solv.prm

>  <Rbt.Receptor>
prm/pocket_docking_3.prm

>  <SCORE>
-34.2822

>  <SCORE.INTER>
-33.3441

>  <SCORE.INTER.CONST>
1

>  <SCORE.INTER.POLAR>
0

>  <SCORE.INTER.ROT>
2

>  <SCORE.INTER.SOLV>
39.6979

>  <SCORE.INTER.VDW>
-40.3954

>  <SCORE.INTER.norm>
-0.740981

>  <SCORE.INTRA>
-0.938075

>  <SCORE.INTRA.DIHEDRAL>
-0.0261829

>  <SCORE.INTRA.DIHEDRAL.0>
2.39103

>  <SCORE.INTRA.POLAR>
0

>  <SCORE.INTRA.POLAR.0>
0

>  <SCORE.INTRA.REPUL>
0

>  <SCORE.INTRA.REPUL.0>
0

>  <SCORE.INTRA.SOLV>
0.69831

>  <SCORE.INTRA.SOLV.lig_0>
-163.975

>  <SCORE.INTRA.VDW>
-1.27414

>  <SCORE.INTRA.VDW.0>
-1.49176

>  <SCORE.INTRA.norm>
-0.0208461

>  <SCORE.RESTR>
0

>  <SCORE.RESTR.CAVITY>
0

>  <SCORE.RESTR.norm>
0

>  <SCORE.SYSTEM>
0

>  <SCORE.SYSTEM.CONST>
0

>  <SCORE.SYSTEM.DIHEDRAL>
0

>  <SCORE.SYSTEM.SOLV>
0

>  <SCORE.SYSTEM.norm>
0

>  <SCORE.heavy>
45

>  <SCORE.norm>
-0.761827

>  <RMSD>
6.856

$$$$
ligand
 OpenBabel11021811513D
libRbt.so/2013.1/901 2013/11/27
 45 51  0  0  0  0  0  0  0  0999 V2000
   96.5134    9.9335   98.3025 C   0  0  0  0  0  0  0  0  0  0  0  0
   95.6514   10.7177   94.5170 C   0  0  0  0  0  0  0  0  0  0  0  0
   93.9720   11.4498  103.1652 N   0  0  0  0  0  0  0  0  0  0  0  0
   97.3523    9.9020   99.2867 N   0  0  0  0  0  0  0  0  0  0  0  0
   94.5160   10.9398  100.9515 N   0  0  0  0  0  0  0  0  0  0  0  0
   96.1515   10.8185  102.6026 N   0  0  0  0  0  0  0  0  0  0  0  0
   98.3865   10.1131  102.0719 O   0  0  0  0  0  0  0  0  0  0  0  0
   98.1505    9.3141   93.3499 O   0  5  0  0  0  0  0  0  0  0  0  0
   93.7731   15.3483   94.9375 O   0  5  0  0  0  0  0  0  0  0  0  0
   92.7461   12.1845   97.5017 O   0  0  0  0  0  0  0  0  0  0  0  0
   99.2687   10.2302   95.0421 O   0  5  0  0  0  0  0  0  0  0  0  0
   94.4005   14.9023   97.0359 O   0  5  0  0  0  0  0  0  0  0  0  0
   96.7652   10.1357   95.0658 O   0  0  0  0  0  0  0  0  0  0  0  0
   94.4532    9.7701   96.5559 O   0  0  0  0  0  0  0  0  0  0  0  0
   94.0073   13.0237   95.3579 O   0  0  0  0  0  0  0  0  0  0  0  0
   94.9334   11.0585  102.1848 C   0  0  0  0  0  0  0  0  0  0  0  0
   97.0680   10.4127  101.7341 C   0  0  0  0  0  0  0  0  0  0  0  0
   96.6972   10.2801  100.3769 C   0  0  0  0  0  0  0  0  0  0  0  0
   95.4003   10.5403  100.0083 C   0  0  0  0  0  0  0  0  0  0  0  0
   94.0514   11.7434   97.5411 C   0  0  2  0  0  0  0  0  0  0  0  0
   94.5630   10.8832   95.4997 C   0  0  1  0  0  0  0  0  0  0  0  0
   94.6741   11.9879   96.0695 C   0  0  1  0  0  0  0  0  0  0  0  0
   94.2314   10.4762   97.8642 C   0  0  2  0  0  0  0  0  0  0  0  0
   95.3555   10.3194   98.6939 N   0  0  0  0  0  0  0  0  0  0  0  0
   98.0848   10.3742   94.2696 P   0  0  2  0  0  0  0  0  0  0  0  0
   94.5355   14.4368   95.6773 P   0  0  1  0  0  0  0  0  0  0  0  0
   96.3315   14.0869   93.8135 C   0  0  0  0  0  0  0  0  0  0  0  0
   95.9911   14.5701   95.1228 O   0  0  0  0  0  0  0  0  0  0  0  0
   97.7715   13.9096   93.5734 C   0  0  1  0  0  0  0  0  0  0  0  0
   98.5370   15.1835   94.1851 O   0  0  0  0  0  0  0  0  0  0  0  0
   98.1973   12.9183   94.2183 C   0  0  1  0  0  0  0  0  0  0  0  0
   98.0721   11.6853   93.4730 O   0  0  0  0  0  0  0  0  0  0  0  0
   99.6282   13.2952   94.5711 C   0  0  1  0  0  0  0  0  0  0  0  0
  100.4006   13.0182   93.6128 O   0  0  0  0  0  0  0  0  0  0  0  0
   99.5887   14.8132   94.7479 C   0  0  2  0  0  0  0  0  0  0  0  0
   97.5732   17.3771   98.7226 N   0  0  0  0  0  0  0  0  0  0  0  0
   96.9950   17.1543   97.5132 C   0  0  0  0  0  0  0  0  0  0  0  0
   97.6894   16.4565   96.6225 N   0  0  0  0  0  0  0  0  0  0  0  0
   98.9495   16.0128   96.8180 C   0  0  0  0  0  0  0  0  0  0  0  0
   99.5834   16.2247   98.0611 C   0  0  0  0  0  0  0  0  0  0  0  0
   98.8177   16.9591   99.0221 C   0  0  0  0  0  0  0  0  0  0  0  0
   99.3878   17.2404  100.2987 N   0  0  0  0  0  0  0  0  0  0  0  0
  100.7403   15.6666   97.9836 N   0  0  0  0  0  0  0  0  0  0  0  0
  100.8644   15.1042   96.7940 C   0  0  0  0  0  0  0  0  0  0  0  0
   99.8199   15.3137   96.0753 N   0  0  0  0  0  0  0  0  0  0  0  0
  1 24  1  0  0  0  0
  1  4  2  0  0  0  0
  2 13  1  0  0  0  0
  2 21  1  0  0  0  0
  3 16  1  0  0  0  0
  4 18  1  0  0  0  0
  5 19  2  0  0  0  0
  5 16  1  0  0  0  0
  6 16  2  0  0  0  0
  6 17  1  0  0  0  0
  7 17  1  0  0  0  0
 11 25  2  0  0  0  0
 12 26  2  0  0  0  0
 13 25  1  0  0  0  0
 14 23  1  0  0  0  0
 15 26  1  0  0  0  0
 17 18  2  0  0  0  0
 18 19  1  0  0  0  0
 19 24  1  0  0  0  0
 20 10  1  6  0  0  0
 20 22  1  0  0  0  0
 20 23  1  0  0  0  0
 21 14  1  1  0  0  0
 21 22  1  0  0  0  0
 22 15  1  6  0  0  0
 23 24  1  1  0  0  0
 25  8  1  6  0  0  0
 25 32  1  0  0  0  0
 26  9  1  6  0  0  0
 26 28  1  0  0  0  0
 27 28  1  0  0  0  0
 29 27  1  1  0  0  0
 29 30  1  0  0  0  0
 29 31  1  0  0  0  0
 30 35  1  0  0  0  0
 31 33  1  0  0  0  0
 31 32  1  6  0  0  0
 33 34  1  6  0  0  0
 33 35  1  0  0  0  0
 35 45  1  1  0  0  0
 36 41  2  0  0  0  0
 36 37  1  0  0  0  0
 37 38  2  0  0  0  0
 38 39  1  0  0  0  0
 39 40  2  0  0  0  0
 39 45  1  0  0  0  0
 40 41  1  0  0  0  0
 40 43  1  0  0  0  0
 41 42  1  0  0  0  0
 43 44  2  0  0  0  0
 44 45  1  0  0  0  0
M  CHG  4   8  -1   9  -1  11  -1  12  -1
M  END
>  <CHROM.1>
16.03168492,8.02197695,96.84158840,12.79369769,96.92244257,2.55184601,1.02679860
1.25820731

>  <Name>
ligand

>  <RI>
0

>  <Rbt.Current_Directory>
/home/itssahil/PROJECTS/Mol_Feturizer/New_Systems/rnas/4YAZ

>  <Rbt.Executable>
rbdock ($Id: //depot/dev/client3/rdock/2013.1/src/exe/rbdock.cxx#4 $)

>  <Rbt.Library>
libRbt.so (2013.1, Build901 2013/11/27)

>  <Rbt.Parameter_File>
/export/apps/rDock/src/rDock_2013.1_src/data/scripts/dock_solv.prm

>  <Rbt.Receptor>
prm/pocket_docking_4.prm

>  <SCORE>
-34.1756

>  <SCORE.INTER>
-33.2371

>  <SCORE.INTER.CONST>
1

>  <SCORE.INTER.POLAR>
0

>  <SCORE.INTER.ROT>
2

>  <SCORE.INTER.SOLV>
39.0199

>  <SCORE.INTER.VDW>
-40.098

>  <SCORE.INTER.norm>
-0.738601

>  <SCORE.INTRA>
-0.938574

>  <SCORE.INTRA.DIHEDRAL>
-0.0276895

>  <SCORE.INTRA.DIHEDRAL.0>
2.39103

>  <SCORE.INTRA.POLAR>
0

>  <SCORE.INTRA.POLAR.0>
0

>  <SCORE.INTRA.REPUL>
0

>  <SCORE.INTRA.REPUL.0>
0

>  <SCORE.INTRA.SOLV>
0.711015

>  <SCORE.INTRA.SOLV.lig_0>
-163.975

>  <SCORE.INTRA.VDW>
-1.28024

>  <SCORE.INTRA.VDW.0>
-1.49176

>  <SCORE.INTRA.norm>
-0.0208572

>  <SCORE.RESTR>
0

>  <SCORE.RESTR.CAVITY>
0

>  <SCORE.RESTR.norm>
0

>  <SCORE.SYSTEM>
0

>  <SCORE.SYSTEM.CONST>
0

>  <SCORE.SYSTEM.DIHEDRAL>
0

>  <SCORE.SYSTEM.SOLV>
0

>  <SCORE.SYSTEM.norm>
0

>  <SCORE.heavy>
45

>  <SCORE.norm>
-0.759459

>  <RMSD>
6.856

$$$$
ligand
 OpenBabel11021811513D
libRbt.so/2013.1/901 2013/11/27
 45 51  0  0  0  0  0  0  0  0999 V2000
   94.1579   11.3100   99.2929 C   0  0  0  0  0  0  0  0  0  0  0  0
   95.3962   11.2622   94.2113 C   0  0  0  0  0  0  0  0  0  0  0  0
   97.7322    7.5655   96.9253 N   0  0  0  0  0  0  0  0  0  0  0  0
   95.1454   11.0538  100.0882 N   0  0  0  0  0  0  0  0  0  0  0  0
   95.9744    9.0186   97.4305 N   0  0  0  0  0  0  0  0  0  0  0  0
   97.6803    8.6837   98.9776 N   0  0  0  0  0  0  0  0  0  0  0  0
   97.6927    9.8635  101.0710 O   0  0  0  0  0  0  0  0  0  0  0  0
   98.2679   10.2746   93.6151 O   0  5  0  0  0  0  0  0  0  0  0  0
   92.8179   15.5631   94.2662 O   0  5  0  0  0  0  0  0  0  0  0  0
   91.7233   12.1713   96.4883 O   0  0  0  0  0  0  0  0  0  0  0  0
   98.8406   11.2570   95.5283 O   0  5  0  0  0  0  0  0  0  0  0  0
   93.0260   15.1109   96.4453 O   0  5  0  0  0  0  0  0  0  0  0  0
   96.4344   10.8153   94.9878 O   0  0  0  0  0  0  0  0  0  0  0  0
   93.9295   10.0636   95.9151 O   0  0  0  0  0  0  0  0  0  0  0  0
   93.2896   13.2764   94.6948 O   0  0  0  0  0  0  0  0  0  0  0  0
   97.0884    8.4629   97.8301 C   0  0  0  0  0  0  0  0  0  0  0  0
   97.1400    9.5414   99.8328 C   0  0  0  0  0  0  0  0  0  0  0  0
   95.9233   10.1676   99.4799 C   0  0  0  0  0  0  0  0  0  0  0  0
   95.3606    9.8968   98.2570 C   0  0  0  0  0  0  0  0  0  0  0  0
   93.0379   11.9141   96.8134 C   0  0  2  0  0  0  0  0  0  0  0  0
   94.1059   11.2293   94.9268 C   0  0  1  0  0  0  0  0  0  0  0  0
   93.9269   12.3109   95.5229 C   0  0  1  0  0  0  0  0  0  0  0  0
   93.3248   10.6703   97.1502 C   0  0  2  0  0  0  0  0  0  0  0  0
   94.2492   10.6323   98.2089 N   0  0  0  0  0  0  0  0  0  0  0  0
   97.8478   11.2714   94.5118 P   0  0  2  0  0  0  0  0  0  0  0  0
   93.5230   14.7326   95.1451 P   0  0  1  0  0  0  0  0  0  0  0  0
   95.7167   14.7223   93.7274 C   0  0  0  0  0  0  0  0  0  0  0  0
   95.0297   15.0921   94.9337 O   0  0  0  0  0  0  0  0  0  0  0  0
   97.1842   14.7578   93.8143 C   0  0  1  0  0  0  0  0  0  0  0  0
   97.6025   16.0955   94.6007 O   0  0  0  0  0  0  0  0  0  0  0  0
   97.5972   13.8061   94.5239 C   0  0  1  0  0  0  0  0  0  0  0  0
   97.8201   12.6038   93.7517 O   0  0  0  0  0  0  0  0  0  0  0  0
   98.8449   14.3608   95.1945 C   0  0  1  0  0  0  0  0  0  0  0  0
   99.8412   14.2386   94.4302 O   0  0  0  0  0  0  0  0  0  0  0  0
   98.5469   15.8487   95.3798 C   0  0  2  0  0  0  0  0  0  0  0  0
  100.7823   16.2086   99.9959 N   0  0  0  0  0  0  0  0  0  0  0  0
  101.2697   15.5758   98.8964 C   0  0  0  0  0  0  0  0  0  0  0  0
  100.5312   15.6092   97.7937 N   0  0  0  0  0  0  0  0  0  0  0  0
   99.3069   16.1729   97.7144 C   0  0  0  0  0  0  0  0  0  0  0  0
   98.7671   16.8397   98.8351 C   0  0  0  0  0  0  0  0  0  0  0  0
   99.5809   16.8165  100.0125 C   0  0  0  0  0  0  0  0  0  0  0  0
   99.1050   17.4458  101.2006 N   0  0  0  0  0  0  0  0  0  0  0  0
   97.6278   17.3122   98.4682 N   0  0  0  0  0  0  0  0  0  0  0  0
   97.4289   17.0089   97.1972 C   0  0  0  0  0  0  0  0  0  0  0  0
   98.4049   16.3140   96.7323 N   0  0  0  0  0  0  0  0  0  0  0  0
  1 24  1  0  0  0  0
  1  4  2  0  0  0  0
  2 13  1  0  0  0  0
  2 21  1  0  0  0  0
  3 16  1  0  0  0  0
  4 18  1  0  0  0  0
  5 19  2  0  0  0  0
  5 16  1  0  0  0  0
  6 16  2  0  0  0  0
  6 17  1  0  0  0  0
  7 17  1  0  0  0  0
 11 25  2  0  0  0  0
 12 26  2  0  0  0  0
 13 25  1  0  0  0  0
 14 23  1  0  0  0  0
 15 26  1  0  0  0  0
 17 18  2  0  0  0  0
 18 19  1  0  0  0  0
 19 24  1  0  0  0  0
 20 10  1  6  0  0  0
 20 22  1  0  0  0  0
 20 23  1  0  0  0  0
 21 14  1  1  0  0  0
 21 22  1  0  0  0  0
 22 15  1  6  0  0  0
 23 24  1  1  0  0  0
 25  8  1  6  0  0  0
 25 32  1  0  0  0  0
 26  9  1  6  0  0  0
 26 28  1  0  0  0  0
 27 28  1  0  0  0  0
 29 27  1  1  0  0  0
 29 30  1  0  0  0  0
 29 31  1  0  0  0  0
 30 35  1  0  0  0  0
 31 33  1  0  0  0  0
 31 32  1  6  0  0  0
 33 34  1  6  0  0  0
 33 35  1  0  0  0  0
 35 45  1  1  0  0  0
 36 41  2  0  0  0  0
 36 37  1  0  0  0  0
 37 38  2  0  0  0  0
 38 39  1  0  0  0  0
 39 40  2  0  0  0  0
 39 45  1  0  0  0  0
 40 41  1  0  0  0  0
 40 43  1  0  0  0  0
 41 42  1  0  0  0  0
 43 44  2  0  0  0  0
 44 45  1  0  0  0  0
M  CHG  4   8  -1   9  -1  11  -1  12  -1
M  END
>  <CHROM.1>
164.33735639,-178.84461758,96.53797249,12.98451950,96.57888202,-2.37931628
-0.67083070,-0.42103198

>  <Name>
ligand

>  <RI>
0

>  <Rbt.Current_Directory>
/home/itssahil/PROJECTS/Mol_Feturizer/New_Systems/rnas/4YAZ

>  <Rbt.Executable>
rbdock ($Id: //depot/dev/client3/rdock/2013.1/src/exe/rbdock.cxx#4 $)

>  <Rbt.Library>
libRbt.so (2013.1, Build901 2013/11/27)

>  <Rbt.Parameter_File>
/export/apps/rDock/src/rDock_2013.1_src/data/scripts/dock_solv.prm

>  <Rbt.Receptor>
prm/pocket_docking_5.prm

>  <SCORE>
-39.9998

>  <SCORE.INTER>
-40.3145

>  <SCORE.INTER.CONST>
1

>  <SCORE.INTER.POLAR>
0

>  <SCORE.INTER.ROT>
2

>  <SCORE.INTER.SOLV>
26.9548

>  <SCORE.INTER.VDW>
-40.7946

>  <SCORE.INTER.norm>
-0.895878

>  <SCORE.INTRA>
0.314696

>  <SCORE.INTRA.DIHEDRAL>
0.00513863

>  <SCORE.INTRA.DIHEDRAL.0>
2.39103

>  <SCORE.INTRA.POLAR>
0

>  <SCORE.INTRA.POLAR.0>
0

>  <SCORE.INTRA.REPUL>
0

>  <SCORE.INTRA.REPUL.0>
0

>  <SCORE.INTRA.SOLV>
1.69427

>  <SCORE.INTRA.SOLV.lig_0>
-163.975

>  <SCORE.INTRA.VDW>
-0.535008

>  <SCORE.INTRA.VDW.0>
-1.49176

>  <SCORE.INTRA.norm>
0.00699324

>  <SCORE.RESTR>
0

>  <SCORE.RESTR.CAVITY>
0

>  <SCORE.RESTR.norm>
0

>  <SCORE.SYSTEM>
0

>  <SCORE.SYSTEM.CONST>
0

>  <SCORE.SYSTEM.DIHEDRAL>
0

>  <SCORE.SYSTEM.SOLV>
0

>  <SCORE.SYSTEM.norm>
0

>  <SCORE.heavy>
45

>  <SCORE.norm>
-0.888885

>  <RMSD>
6.856

$$$$
ligand
 OpenBabel11021811513D
libRbt.so/2013.1/901 2013/11/27
 45 51  0  0  0  0  0  0  0  0999 V2000
   96.5200    9.9644   98.3003 C   0  0  0  0  0  0  0  0  0  0  0  0
   95.6689   10.7392   94.5148 C   0  0  0  0  0  0  0  0  0  0  0  0
   93.9498   11.4148  103.1680 N   0  0  0  0  0  0  0  0  0  0  0  0
   97.3544    9.9253   99.2880 N   0  0  0  0  0  0  0  0  0  0  0  0
   94.5062   10.9323  100.9512 N   0  0  0  0  0  0  0  0  0  0  0  0
   96.1346   10.7990  102.6084 N   0  0  0  0  0  0  0  0  0  0  0  0
   98.3750   10.1090  102.0801 O   0  0  0  0  0  0  0  0  0  0  0  0
   98.1659    9.3259   93.3550 O   0  5  0  0  0  0  0  0  0  0  0  0
   93.8078   15.3773   94.9308 O   0  5  0  0  0  0  0  0  0  0  0  0
   92.7604   12.2169   97.4910 O   0  0  0  0  0  0  0  0  0  0  0  0
   99.2826   10.2372   95.0508 O   0  5  0  0  0  0  0  0  0  0  0  0
   94.4271   14.9281   97.0310 O   0  5  0  0  0  0  0  0  0  0  0  0
   96.7787   10.1527   95.0668 O   0  0  0  0  0  0  0  0  0  0  0  0
   94.4607    9.7959   96.5498 O   0  0  0  0  0  0  0  0  0  0  0  0
   94.0314   13.0516   95.3513 O   0  0  0  0  0  0  0  0  0  0  0  0
   94.9174   11.0386  102.1877 C   0  0  0  0  0  0  0  0  0  0  0  0
   97.0568   10.4069  101.7397 C   0  0  0  0  0  0  0  0  0  0  0  0
   96.6928   10.2882  100.3793 C   0  0  0  0  0  0  0  0  0  0  0  0
   95.3965   10.5472  100.0076 C   0  0  0  0  0  0  0  0  0  0  0  0
   94.0638   11.7706   97.5343 C   0  0  2  0  0  0  0  0  0  0  0  0
   94.5781   10.9088   95.4942 C   0  0  1  0  0  0  0  0  0  0  0  0
   94.6920   12.0129   96.0646 C   0  0  1  0  0  0  0  0  0  0  0  0
   94.2377   10.5025   97.8575 C   0  0  2  0  0  0  0  0  0  0  0  0
   95.3586   10.3410   98.6907 N   0  0  0  0  0  0  0  0  0  0  0  0
   98.1017   10.3861   94.2747 P   0  0  2  0  0  0  0  0  0  0  0  0
   94.5643   14.4625   95.6727 P   0  0  1  0  0  0  0  0  0  0  0  0
   96.3646   14.1058   93.8143 C   0  0  0  0  0  0  0  0  0  0  0  0
   96.0221   14.5901   95.1227 O   0  0  0  0  0  0  0  0  0  0  0  0
   97.8045   13.9229   93.5786 C   0  0  1  0  0  0  0  0  0  0  0  0
   98.5733   15.1935   94.1929 O   0  0  0  0  0  0  0  0  0  0  0  0
   98.2244   12.9298   94.2244 C   0  0  1  0  0  0  0  0  0  0  0  0
   98.0966   11.6974   93.4784 O   0  0  0  0  0  0  0  0  0  0  0  0
   99.6557   13.3008   94.5817 C   0  0  1  0  0  0  0  0  0  0  0  0
  100.4300   13.0209   93.6257 O   0  0  0  0  0  0  0  0  0  0  0  0
   99.6218   14.8189   94.7588 C   0  0  2  0  0  0  0  0  0  0  0  0
   97.5988   17.3755   98.7344 N   0  0  0  0  0  0  0  0  0  0  0  0
   97.0221   17.1533   97.5241 C   0  0  0  0  0  0  0  0  0  0  0  0
   97.7184   16.4576   96.6333 N   0  0  0  0  0  0  0  0  0  0  0  0
   98.9789   16.0152   96.8297 C   0  0  0  0  0  0  0  0  0  0  0  0
   99.6112   16.2264   98.0736 C   0  0  0  0  0  0  0  0  0  0  0  0
   98.8435   16.9587   99.0347 C   0  0  0  0  0  0  0  0  0  0  0  0
   99.4119   17.2392  100.3123 N   0  0  0  0  0  0  0  0  0  0  0  0
  100.7689   15.6699   97.9967 N   0  0  0  0  0  0  0  0  0  0  0  0
  100.8950   15.1090   96.8066 C   0  0  0  0  0  0  0  0  0  0  0  0
   99.8510   15.3181   96.0870 N   0  0  0  0  0  0  0  0  0  0  0  0
  1 24  1  0  0  0  0
  1  4  2  0  0  0  0
  2 13  1  0  0  0  0
  2 21  1  0  0  0  0
  3 16  1  0  0  0  0
  4 18  1  0  0  0  0
  5 19  2  0  0  0  0
  5 16  1  0  0  0  0
  6 16  2  0  0  0  0
  6 17  1  0  0  0  0
  7 17  1  0  0  0  0
 11 25  2  0  0  0  0
 12 26  2  0  0  0  0
 13 25  1  0  0  0  0
 14 23  1  0  0  0  0
 15 26  1  0  0  0  0
 17 18  2  0  0  0  0
 18 19  1  0  0  0  0
 19 24  1  0  0  0  0
 20 10  1  6  0  0  0
 20 22  1  0  0  0  0
 20 23  1  0  0  0  0
 21 14  1  1  0  0  0
 21 22  1  0  0  0  0
 22 15  1  6  0  0  0
 23 24  1  1  0  0  0
 25  8  1  6  0  0  0
 25 32  1  0  0  0  0
 26  9  1  6  0  0  0
 26 28  1  0  0  0  0
 27 28  1  0  0  0  0
 29 27  1  1  0  0  0
 29 30  1  0  0  0  0
 29 31  1  0  0  0  0
 30 35  1  0  0  0  0
 31 33  1  0  0  0  0
 31 32  1  6  0  0  0
 33 34  1  6  0  0  0
 33 35  1  0  0  0  0
 35 45  1  1  0  0  0
 36 41  2  0  0  0  0
 36 37  1  0  0  0  0
 37 38  2  0  0  0  0
 38 39  1  0  0  0  0
 39 40  2  0  0  0  0
 39 45  1  0  0  0  0
 40 41  1  0  0  0  0
 40 43  1  0  0  0  0
 41 42  1  0  0  0  0
 43 44  2  0  0  0  0
 44 45  1  0  0  0  0
M  CHG  4   8  -1   9  -1  11  -1  12  -1
M  END
>  <CHROM.1>
16.82638926,8.34996949,96.85847926,12.80459236,96.92561626,2.55377101,1.02218871
1.25941294

>  <Name>
ligand

>  <RI>
0

>  <Rbt.Current_Directory>
/home/itssahil/PROJECTS/Mol_Feturizer/New_Systems/rnas/4YAZ

>  <Rbt.Executable>
rbdock ($Id: //depot/dev/client3/rdock/2013.1/src/exe/rbdock.cxx#4 $)

>  <Rbt.Library>
libRbt.so (2013.1, Build901 2013/11/27)

>  <Rbt.Parameter_File>
/export/apps/rDock/src/rDock_2013.1_src/data/scripts/dock_solv.prm

>  <Rbt.Receptor>
prm/pocket_docking_6.prm

>  <SCORE>
-34.275

>  <SCORE.INTER>
-33.3274

>  <SCORE.INTER.CONST>
1

>  <SCORE.INTER.POLAR>
0

>  <SCORE.INTER.ROT>
2

>  <SCORE.INTER.SOLV>
39.3846

>  <SCORE.INTER.VDW>
-40.2798

>  <SCORE.INTER.norm>
-0.740609

>  <SCORE.INTRA>
-0.947553

>  <SCORE.INTRA.DIHEDRAL>
-0.0297782

>  <SCORE.INTRA.DIHEDRAL.0>
2.39103

>  <SCORE.INTRA.POLAR>
0

>  <SCORE.INTRA.POLAR.0>
0

>  <SCORE.INTRA.REPUL>
0

>  <SCORE.INTRA.REPUL.0>
0

>  <SCORE.INTRA.SOLV>
0.729767

>  <SCORE.INTRA.SOLV.lig_0>
-163.975

>  <SCORE.INTRA.VDW>
-1.29755

>  <SCORE.INTRA.VDW.0>
-1.49176

>  <SCORE.INTRA.norm>
-0.0210567

>  <SCORE.RESTR>
0

>  <SCORE.RESTR.CAVITY>
0

>  <SCORE.RESTR.norm>
0

>  <SCORE.SYSTEM>
0

>  <SCORE.SYSTEM.CONST>
0

>  <SCORE.SYSTEM.DIHEDRAL>
0

>  <SCORE.SYSTEM.SOLV>
0

>  <SCORE.SYSTEM.norm>
0

>  <SCORE.heavy>
45

>  <SCORE.norm>
-0.761666

>  <RMSD>
6.857

$$$$
ligand
 OpenBabel11021811513D
libRbt.so/2013.1/901 2013/11/27
 45 51  0  0  0  0  0  0  0  0999 V2000
   94.2159   11.3154   99.3424 C   0  0  0  0  0  0  0  0  0  0  0  0
   95.4123   11.2710   94.2611 C   0  0  0  0  0  0  0  0  0  0  0  0
   97.7534    7.5265   96.9901 N   0  0  0  0  0  0  0  0  0  0  0  0
   95.2075   11.0622  100.1336 N   0  0  0  0  0  0  0  0  0  0  0  0
   96.0071    8.9945   97.4919 N   0  0  0  0  0  0  0  0  0  0  0  0
   97.7218    8.6666   99.0308 N   0  0  0  0  0  0  0  0  0  0  0  0
   97.7549    9.8682  101.1116 O   0  0  0  0  0  0  0  0  0  0  0  0
   98.2881   10.3078   93.6451 O   0  5  0  0  0  0  0  0  0  0  0  0
   92.7994   15.5505   94.3390 O   0  5  0  0  0  0  0  0  0  0  0  0
   91.7468   12.1466   96.5629 O   0  0  0  0  0  0  0  0  0  0  0  0
   98.8650   11.2921   95.5561 O   0  5  0  0  0  0  0  0  0  0  0  0
   93.0251   15.0969   96.5160 O   0  5  0  0  0  0  0  0  0  0  0  0
   96.4591   10.8315   95.0303 O   0  0  0  0  0  0  0  0  0  0  0  0
   93.9665   10.0579   95.9725 O   0  0  0  0  0  0  0  0  0  0  0  0
   93.2925   13.2671   94.7611 O   0  0  0  0  0  0  0  0  0  0  0  0
   97.1208    8.4370   97.8898 C   0  0  0  0  0  0  0  0  0  0  0  0
   97.1921    9.5361   99.8806 C   0  0  0  0  0  0  0  0  0  0  0  0
   95.9764   10.1653   99.5294 C   0  0  0  0  0  0  0  0  0  0  0  0
   95.4038    9.8848   98.3133 C   0  0  0  0  0  0  0  0  0  0  0  0
   93.0655   11.8997   96.8792 C   0  0  2  0  0  0  0  0  0  0  0  0
   94.1270   11.2264   94.9848 C   0  0  1  0  0  0  0  0  0  0  0  0
   93.9430   12.3057   95.5837 C   0  0  1  0  0  0  0  0  0  0  0  0
   93.3647   10.6579   97.2123 C   0  0  2  0  0  0  0  0  0  0  0  0
   94.2961   10.6259   98.2650 N   0  0  0  0  0  0  0  0  0  0  0  0
   97.8657   11.2998   94.5460 P   0  0  2  0  0  0  0  0  0  0  0  0
   93.5169   14.7245   95.2121 P   0  0  1  0  0  0  0  0  0  0  0  0
   95.7015   14.7343   93.7804 C   0  0  0  0  0  0  0  0  0  0  0  0
   95.0192   15.0966   94.9916 O   0  0  0  0  0  0  0  0  0  0  0  0
   97.1691   14.7816   93.8580 C   0  0  1  0  0  0  0  0  0  0  0  0
   97.5816   16.1216   94.6437 O   0  0  0  0  0  0  0  0  0  0  0  0
   97.5945   13.8323   94.5635 C   0  0  1  0  0  0  0  0  0  0  0  0
   97.8222   12.6330   93.7881 O   0  0  0  0  0  0  0  0  0  0  0  0
   98.8418   14.3962   95.2269 C   0  0  1  0  0  0  0  0  0  0  0  0
   99.8342   14.2833   94.4562 O   0  0  0  0  0  0  0  0  0  0  0  0
   98.5329   15.8814   95.4164 C   0  0  2  0  0  0  0  0  0  0  0  0
  100.7906   16.2436  100.0214 N   0  0  0  0  0  0  0  0  0  0  0  0
  101.2753   15.6151   98.9183 C   0  0  0  0  0  0  0  0  0  0  0  0
  100.5309   15.6470   97.8195 N   0  0  0  0  0  0  0  0  0  0  0  0
   99.3035   16.2050   97.7476 C   0  0  0  0  0  0  0  0  0  0  0  0
   98.7664   16.8671   98.8723 C   0  0  0  0  0  0  0  0  0  0  0  0
   99.5865   16.8457  100.0454 C   0  0  0  0  0  0  0  0  0  0  0  0
   99.1137   17.4705  101.2371 N   0  0  0  0  0  0  0  0  0  0  0  0
   97.6230   17.3348   98.5122 N   0  0  0  0  0  0  0  0  0  0  0  0
   97.4189   17.0329   97.2417 C   0  0  0  0  0  0  0  0  0  0  0  0
   98.3957   16.3436   96.7705 N   0  0  0  0  0  0  0  0  0  0  0  0
  1 24  1  0  0  0  0
  1  4  2  0  0  0  0
  2 13  1  0  0  0  0
  2 21  1  0  0  0  0
  3 16  1  0  0  0  0
  4 18  1  0  0  0  0
  5 19  2  0  0  0  0
  5 16  1  0  0  0  0
  6 16  2  0  0  0  0
  6 17  1  0  0  0  0
  7 17  1  0  0  0  0
 11 25  2  0  0  0  0
 12 26  2  0  0  0  0
 13 25  1  0  0  0  0
 14 23  1  0  0  0  0
 15 26  1  0  0  0  0
 17 18  2  0  0  0  0
 18 19  1  0  0  0  0
 19 24  1  0  0  0  0
 20 10  1  6  0  0  0
 20 22  1  0  0  0  0
 20 23  1  0  0  0  0
 21 14  1  1  0  0  0
 21 22  1  0  0  0  0
 22 15  1  6  0  0  0
 23 24  1  1  0  0  0
 25  8  1  6  0  0  0
 25 32  1  0  0  0  0
 26  9  1  6  0  0  0
 26 28  1  0  0  0  0
 27 28  1  0  0  0  0
 29 27  1  1  0  0  0
 29 30  1  0  0  0  0
 29 31  1  0  0  0  0
 30 35  1  0  0  0  0
 31 33  1  0  0  0  0
 31 32  1  6  0  0  0
 33 34  1  6  0  0  0
 33 35  1  0  0  0  0
 35 45  1  1  0  0  0
 36 41  2  0  0  0  0
 36 37  1  0  0  0  0
 37 38  2  0  0  0  0
 38 39  1  0  0  0  0
 39 40  2  0  0  0  0
 39 45  1  0  0  0  0
 40 41  1  0  0  0  0
 40 43  1  0  0  0  0
 41 42  1  0  0  0  0
 43 44  2  0  0  0  0
 44 45  1  0  0  0  0
M  CHG  4   8  -1   9  -1  11  -1  12  -1
M  END
>  <CHROM.1>
163.29486901,-179.05152069,96.55193615,12.99416742,96.62661684,-2.35953811
-0.67011884,-0.41459279

>  <Name>
ligand

>  <RI>
0

>  <Rbt.Current_Directory>
/home/itssahil/PROJECTS/Mol_Feturizer/New_Systems/rnas/4YAZ

>  <Rbt.Executable>
rbdock ($Id: //depot/dev/client3/rdock/2013.1/src/exe/rbdock.cxx#4 $)

>  <Rbt.Library>
libRbt.so (2013.1, Build901 2013/11/27)

>  <Rbt.Parameter_File>
/export/apps/rDock/src/rDock_2013.1_src/data/scripts/dock_solv.prm

>  <Rbt.Receptor>
prm/pocket_docking_3.prm

>  <SCORE>
-39.9435

>  <SCORE.INTER>
-40.1105

>  <SCORE.INTER.CONST>
1

>  <SCORE.INTER.POLAR>
0

>  <SCORE.INTER.ROT>
2

>  <SCORE.INTER.SOLV>
27.5802

>  <SCORE.INTER.VDW>
-40.867

>  <SCORE.INTER.norm>
-0.891344

>  <SCORE.INTRA>
0.16695

>  <SCORE.INTRA.DIHEDRAL>
0.00385803

>  <SCORE.INTRA.DIHEDRAL.0>
2.39103

>  <SCORE.INTRA.POLAR>
0

>  <SCORE.INTRA.POLAR.0>
0

>  <SCORE.INTRA.REPUL>
0

>  <SCORE.INTRA.REPUL.0>
0

>  <SCORE.INTRA.SOLV>
1.22767

>  <SCORE.INTRA.SOLV.lig_0>
-163.975

>  <SCORE.INTRA.VDW>
-0.448813

>  <SCORE.INTRA.VDW.0>
-1.49176

>  <SCORE.INTRA.norm>
0.00370999

>  <SCORE.RESTR>
0

>  <SCORE.RESTR.CAVITY>
0

>  <SCORE.RESTR.norm>
0

>  <SCORE.SYSTEM>
0

>  <SCORE.SYSTEM.CONST>
0

>  <SCORE.SYSTEM.DIHEDRAL>
0

>  <SCORE.SYSTEM.SOLV>
0

>  <SCORE.SYSTEM.norm>
0

>  <SCORE.heavy>
45

>  <SCORE.norm>
-0.887634

>  <RMSD>
6.858

$$$$
ligand
 OpenBabel11021811513D
libRbt.so/2013.1/901 2013/11/27
 45 51  0  0  0  0  0  0  0  0999 V2000
   94.1662   11.3147   99.3181 C   0  0  0  0  0  0  0  0  0  0  0  0
   95.3946   11.2894   94.2358 C   0  0  0  0  0  0  0  0  0  0  0  0
   97.7392    7.5773   96.9372 N   0  0  0  0  0  0  0  0  0  0  0  0
   95.1553   11.0578  100.1112 N   0  0  0  0  0  0  0  0  0  0  0  0
   95.9813    9.0281   97.4482 N   0  0  0  0  0  0  0  0  0  0  0  0
   97.6901    8.6917   98.9918 N   0  0  0  0  0  0  0  0  0  0  0  0
   97.7051    9.8675  101.0874 O   0  0  0  0  0  0  0  0  0  0  0  0
   98.2686   10.3138   93.6310 O   0  5  0  0  0  0  0  0  0  0  0  0
   92.8022   15.5814   94.3127 O   0  5  0  0  0  0  0  0  0  0  0  0
   91.7224   12.1768   96.5224 O   0  0  0  0  0  0  0  0  0  0  0  0
   98.8412   11.2902   95.5473 O   0  5  0  0  0  0  0  0  0  0  0  0
   93.0153   15.1209   96.4895 O   0  5  0  0  0  0  0  0  0  0  0  0
   96.4356   10.8427   95.0088 O   0  0  0  0  0  0  0  0  0  0  0  0
   93.9347   10.0789   95.9370 O   0  0  0  0  0  0  0  0  0  0  0  0
   93.2822   13.2945   94.7310 O   0  0  0  0  0  0  0  0  0  0  0  0
   97.0963    8.4726   97.8449 C   0  0  0  0  0  0  0  0  0  0  0  0
   97.1506    9.5473   99.8496 C   0  0  0  0  0  0  0  0  0  0  0  0
   95.9328   10.1732   99.4999 C   0  0  0  0  0  0  0  0  0  0  0  0
   95.3682    9.9044   98.2775 C   0  0  0  0  0  0  0  0  0  0  0  0
   93.0384   11.9226   96.8443 C   0  0  2  0  0  0  0  0  0  0  0  0
   94.1056   11.2492   94.9532 C   0  0  1  0  0  0  0  0  0  0  0  0
   93.9240   12.3277   95.5541 C   0  0  1  0  0  0  0  0  0  0  0  0
   93.3299   10.6784   97.1756 C   0  0  2  0  0  0  0  0  0  0  0  0
   94.2562   10.6391   98.2326 N   0  0  0  0  0  0  0  0  0  0  0  0
   97.8467   11.3054   94.5324 P   0  0  2  0  0  0  0  0  0  0  0  0
   93.5115   14.7496   95.1870 P   0  0  1  0  0  0  0  0  0  0  0  0
   95.7029   14.7525   93.7657 C   0  0  0  0  0  0  0  0  0  0  0  0
   95.0166   15.1149   94.9746 O   0  0  0  0  0  0  0  0  0  0  0  0
   97.1704   14.7925   93.8505 C   0  0  1  0  0  0  0  0  0  0  0  0
   97.5856   16.1283   94.6417 O   0  0  0  0  0  0  0  0  0  0  0  0
   97.5878   13.8392   94.5554 C   0  0  1  0  0  0  0  0  0  0  0  0
   97.8133   12.6408   93.7779 O   0  0  0  0  0  0  0  0  0  0  0  0
   98.8346   14.3953   95.2263 C   0  0  1  0  0  0  0  0  0  0  0  0
   99.8302   14.2795   94.4600 O   0  0  0  0  0  0  0  0  0  0  0  0
   98.5320   15.8814   95.4183 C   0  0  2  0  0  0  0  0  0  0  0  0
  100.7890   16.2646  100.0219 N   0  0  0  0  0  0  0  0  0  0  0  0
  101.2800   15.6427   98.9178 C   0  0  0  0  0  0  0  0  0  0  0  0
  100.5344   15.6673   97.8197 N   0  0  0  0  0  0  0  0  0  0  0  0
   99.3007   16.2114   97.7492 C   0  0  0  0  0  0  0  0  0  0  0  0
   98.7570   16.8663   98.8750 C   0  0  0  0  0  0  0  0  0  0  0  0
   99.5781   16.8530  100.0475 C   0  0  0  0  0  0  0  0  0  0  0  0
   99.0992   17.4713  101.2401 N   0  0  0  0  0  0  0  0  0  0  0  0
   97.6080   17.3214   98.5162 N   0  0  0  0  0  0  0  0  0  0  0  0
   97.4064   17.0184   97.2456 C   0  0  0  0  0  0  0  0  0  0  0  0
   98.3907   16.3407   96.7730 N   0  0  0  0  0  0  0  0  0  0  0  0
  1 24  1  0  0  0  0
  1  4  2  0  0  0  0
  2 13  1  0  0  0  0
  2 21  1  0  0  0  0
  3 16  1  0  0  0  0
  4 18  1  0  0  0  0
  5 19  2  0  0  0  0
  5 16  1  0  0  0  0
  6 16  2  0  0  0  0
  6 17  1  0  0  0  0
  7 17  1  0  0  0  0
 11 25  2  0  0  0  0
 12 26  2  0  0  0  0
 13 25  1  0  0  0  0
 14 23  1  0  0  0  0
 15 26  1  0  0  0  0
 17 18  2  0  0  0  0
 18 19  1  0  0  0  0
 19 24  1  0  0  0  0
 20 10  1  6  0  0  0
 20 22  1  0  0  0  0
 20 23  1  0  0  0  0
 21 14  1  1  0  0  0
 21 22  1  0  0  0  0
 22 15  1  6  0  0  0
 23 24  1  1  0  0  0
 25  8  1  6  0  0  0
 25 32  1  0  0  0  0
 26  9  1  6  0  0  0
 26 28  1  0  0  0  0
 27 28  1  0  0  0  0
 29 27  1  1  0  0  0
 29 30  1  0  0  0  0
 29 31  1  0  0  0  0
 30 35  1  0  0  0  0
 31 33  1  0  0  0  0
 31 32  1  6  0  0  0
 33 34  1  6  0  0  0
 33 35  1  0  0  0  0
 35 45  1  1  0  0  0
 36 41  2  0  0  0  0
 36 37  1  0  0  0  0
 37 38  2  0  0  0  0
 38 39  1  0  0  0  0
 39 40  2  0  0  0  0
 39 45  1  0  0  0  0
 40 41  1  0  0  0  0
 40 43  1  0  0  0  0
 41 42  1  0  0  0  0
 43 44  2  0  0  0  0
 44 45  1  0  0  0  0
M  CHG  4   8  -1   9  -1  11  -1  12  -1
M  END
>  <CHROM.1>
164.14152321,-178.06534594,96.53510697,13.00756956,96.60833085,-2.37333022
-0.67022633,-0.41392176

>  <Name>
ligand

>  <RI>
0

>  <Rbt.Current_Directory>
/home/itssahil/PROJECTS/Mol_Feturizer/New_Systems/rnas/4YAZ

>  <Rbt.Executable>
rbdock ($Id: //depot/dev/client3/rdock/2013.1/src/exe/rbdock.cxx#4 $)

>  <Rbt.Library>
libRbt.so (2013.1, Build901 2013/11/27)

>  <Rbt.Parameter_File>
/export/apps/rDock/src/rDock_2013.1_src/data/scripts/dock_solv.prm

>  <Rbt.Receptor>
prm/pocket_docking_7.prm

>  <SCORE>
-39.9105

>  <SCORE.INTER>
-40.193

>  <SCORE.INTER.CONST>
1

>  <SCORE.INTER.POLAR>
0

>  <SCORE.INTER.ROT>
2

>  <SCORE.INTER.SOLV>
27.2062

>  <SCORE.INTER.VDW>
-40.7974

>  <SCORE.INTER.norm>
-0.893177

>  <SCORE.INTRA>
0.282512

>  <SCORE.INTRA.DIHEDRAL>
0.0107528

>  <SCORE.INTRA.DIHEDRAL.0>
2.39103

>  <SCORE.INTRA.POLAR>
0

>  <SCORE.INTRA.POLAR.0>
0

>  <SCORE.INTRA.REPUL>
0

>  <SCORE.INTRA.REPUL.0>
0

>  <SCORE.INTRA.SOLV>
1.60588

>  <SCORE.INTRA.SOLV.lig_0>
-163.975

>  <SCORE.INTRA.VDW>
-0.525805

>  <SCORE.INTRA.VDW.0>
-1.49176

>  <SCORE.INTRA.norm>
0.00627804

>  <SCORE.RESTR>
0

>  <SCORE.RESTR.CAVITY>
0

>  <SCORE.RESTR.norm>
0

>  <SCORE.SYSTEM>
0

>  <SCORE.SYSTEM.CONST>
0

>  <SCORE.SYSTEM.DIHEDRAL>
0

>  <SCORE.SYSTEM.SOLV>
0

>  <SCORE.SYSTEM.norm>
0

>  <SCORE.heavy>
45

>  <SCORE.norm>
-0.886899

>  <RMSD>
6.858

$$$$
ligand
 OpenBabel11021811513D
libRbt.so/2013.1/901 2013/11/27
 45 51  0  0  0  0  0  0  0  0999 V2000
   94.1357   11.3136   99.2899 C   0  0  0  0  0  0  0  0  0  0  0  0
   95.3756   11.2656   94.2070 C   0  0  0  0  0  0  0  0  0  0  0  0
   97.7057    7.5701   96.9141 N   0  0  0  0  0  0  0  0  0  0  0  0
   95.1229   11.0544  100.0847 N   0  0  0  0  0  0  0  0  0  0  0  0
   95.9497    9.0242   97.4225 N   0  0  0  0  0  0  0  0  0  0  0  0
   97.6550    8.6837   98.9690 N   0  0  0  0  0  0  0  0  0  0  0  0
   97.6685    9.8587  101.0651 O   0  0  0  0  0  0  0  0  0  0  0  0
   98.2439   10.2682   93.6106 O   0  5  0  0  0  0  0  0  0  0  0  0
   92.8122   15.5753   94.2633 O   0  5  0  0  0  0  0  0  0  0  0  0
   91.7059   12.1865   96.4842 O   0  0  0  0  0  0  0  0  0  0  0  0
   98.8200   11.2480   95.5241 O   0  5  0  0  0  0  0  0  0  0  0  0
   93.0188   15.1217   96.4422 O   0  5  0  0  0  0  0  0  0  0  0  0
   96.4123   10.8148   94.9834 O   0  0  0  0  0  0  0  0  0  0  0  0
   93.9048   10.0715   95.9104 O   0  0  0  0  0  0  0  0  0  0  0  0
   93.2760   13.2868   94.6911 O   0  0  0  0  0  0  0  0  0  0  0  0
   97.0629    8.4663   97.8210 C   0  0  0  0  0  0  0  0  0  0  0  0
   97.1157    9.5401   99.8261 C   0  0  0  0  0  0  0  0  0  0  0  0
   95.8998   10.1686   99.4745 C   0  0  0  0  0  0  0  0  0  0  0  0
   95.3368    9.9013   98.2510 C   0  0  0  0  0  0  0  0  0  0  0  0
   93.0195   11.9247   96.8092 C   0  0  2  0  0  0  0  0  0  0  0  0
   94.0852   11.2368   94.9224 C   0  0  1  0  0  0  0  0  0  0  0  0
   93.9100   12.3188   95.5189 C   0  0  1  0  0  0  0  0  0  0  0  0
   93.3021   10.6798   97.1457 C   0  0  2  0  0  0  0  0  0  0  0  0
   94.2264   10.6383   98.2043 N   0  0  0  0  0  0  0  0  0  0  0  0
   97.8273   11.2661   94.5076 P   0  0  2  0  0  0  0  0  0  0  0  0
   93.5145   14.7420   95.1419 P   0  0  1  0  0  0  0  0  0  0  0  0
   95.7082   14.7246   93.7242 C   0  0  0  0  0  0  0  0  0  0  0  0
   95.0224   15.0964   94.9307 O   0  0  0  0  0  0  0  0  0  0  0  0
   97.1758   14.7550   93.8112 C   0  0  1  0  0  0  0  0  0  0  0  0
   97.5987   16.0910   94.5981 O   0  0  0  0  0  0  0  0  0  0  0  0
   97.5855   13.8017   94.5205 C   0  0  1  0  0  0  0  0  0  0  0  0
   97.8042   12.5988   93.7479 O   0  0  0  0  0  0  0  0  0  0  0  0
   98.8350   14.3518   95.1913 C   0  0  1  0  0  0  0  0  0  0  0  0
   99.8310   14.2264   94.4271 O   0  0  0  0  0  0  0  0  0  0  0  0
   98.5422   15.8407   95.3772 C   0  0  2  0  0  0  0  0  0  0  0  0
  100.7888   16.2138   99.9867 N   0  0  0  0  0  0  0  0  0  0  0  0
  101.2762   15.5827   98.8862 C   0  0  0  0  0  0  0  0  0  0  0  0
  100.5344   15.6120   97.7856 N   0  0  0  0  0  0  0  0  0  0  0  0
   99.3072   16.1698   97.7094 C   0  0  0  0  0  0  0  0  0  0  0  0
   98.7673   16.8346   98.8313 C   0  0  0  0  0  0  0  0  0  0  0  0
   99.5846   16.8160  100.0064 C   0  0  0  0  0  0  0  0  0  0  0  0
   99.1090   17.4436  101.1955 N   0  0  0  0  0  0  0  0  0  0  0  0
   97.6248   17.3014   98.4673 N   0  0  0  0  0  0  0  0  0  0  0  0
   97.4238   16.9965   97.1971 C   0  0  0  0  0  0  0  0  0  0  0  0
   98.4018   16.3061   96.7298 N   0  0  0  0  0  0  0  0  0  0  0  0
  1 24  1  0  0  0  0
  1  4  2  0  0  0  0
  2 13  1  0  0  0  0
  2 21  1  0  0  0  0
  3 16  1  0  0  0  0
  4 18  1  0  0  0  0
  5 19  2  0  0  0  0
  5 16  1  0  0  0  0
  6 16  2  0  0  0  0
  6 17  1  0  0  0  0
  7 17  1  0  0  0  0
 11 25  2  0  0  0  0
 12 26  2  0  0  0  0
 13 25  1  0  0  0  0
 14 23  1  0  0  0  0
 15 26  1  0  0  0  0
 17 18  2  0  0  0  0
 18 19  1  0  0  0  0
 19 24  1  0  0  0  0
 20 10  1  6  0  0  0
 20 22  1  0  0  0  0
 20 23  1  0  0  0  0
 21 14  1  1  0  0  0
 21 22  1  0  0  0  0
 22 15  1  6  0  0  0
 23 24  1  1  0  0  0
 25  8  1  6  0  0  0
 25 32  1  0  0  0  0
 26  9  1  6  0  0  0
 26 28  1  0  0  0  0
 27 28  1  0  0  0  0
 29 27  1  1  0  0  0
 29 30  1  0  0  0  0
 29 31  1  0  0  0  0
 30 35  1  0  0  0  0
 31 33  1  0  0  0  0
 31 32  1  6  0  0  0
 33 34  1  6  0  0  0
 33 35  1  0  0  0  0
 35 45  1  1  0  0  0
 36 41  2  0  0  0  0
 36 37  1  0  0  0  0
 37 38  2  0  0  0  0
 38 39  1  0  0  0  0
 39 40  2  0  0  0  0
 39 45  1  0  0  0  0
 40 41  1  0  0  0  0
 40 43  1  0  0  0  0
 41 42  1  0  0  0  0
 43 44  2  0  0  0  0
 44 45  1  0  0  0  0
M  CHG  4   8  -1   9  -1  11  -1  12  -1
M  END
>  <CHROM.1>
164.50717299,-178.34170175,96.52454181,12.98552659,96.57428523,-2.38450319
-0.66868304,-0.42238377

>  <Name>
ligand

>  <RI>
0

>  <Rbt.Current_Directory>
/home/itssahil/PROJECTS/Mol_Feturizer/New_Systems/rnas/4YAZ

>  <Rbt.Executable>
rbdock ($Id: //depot/dev/client3/rdock/2013.1/src/exe/rbdock.cxx#4 $)

>  <Rbt.Library>
libRbt.so (2013.1, Build901 2013/11/27)

>  <Rbt.Parameter_File>
/export/apps/rDock/src/rDock_2013.1_src/data/scripts/dock_solv.prm

>  <Rbt.Receptor>
prm/pocket_docking_6.prm

>  <SCORE>
-40.0046

>  <SCORE.INTER>
-40.3458

>  <SCORE.INTER.CONST>
1

>  <SCORE.INTER.POLAR>
0

>  <SCORE.INTER.ROT>
2

>  <SCORE.INTER.SOLV>
26.8443

>  <SCORE.INTER.VDW>
-40.7786

>  <SCORE.INTER.norm>
-0.896572

>  <SCORE.INTRA>
0.341111

>  <SCORE.INTRA.DIHEDRAL>
0.00870293

>  <SCORE.INTRA.DIHEDRAL.0>
2.39103

>  <SCORE.INTRA.POLAR>
0

>  <SCORE.INTRA.POLAR.0>
0

>  <SCORE.INTRA.REPUL>
0

>  <SCORE.INTRA.REPUL.0>
0

>  <SCORE.INTRA.SOLV>
1.77092

>  <SCORE.INTRA.SOLV.lig_0>
-163.975

>  <SCORE.INTRA.VDW>
-0.548699

>  <SCORE.INTRA.VDW.0>
-1.49176

>  <SCORE.INTRA.norm>
0.00758025

>  <SCORE.RESTR>
0

>  <SCORE.RESTR.CAVITY>
0

>  <SCORE.RESTR.norm>
0

>  <SCORE.SYSTEM>
0

>  <SCORE.SYSTEM.CONST>
0

>  <SCORE.SYSTEM.DIHEDRAL>
0

>  <SCORE.SYSTEM.SOLV>
0

>  <SCORE.SYSTEM.norm>
0

>  <SCORE.heavy>
45

>  <SCORE.norm>
-0.888992

>  <RMSD>
6.859

$$$$
ligand
 OpenBabel11021811513D
libRbt.so/2013.1/901 2013/11/27
 45 51  0  0  0  0  0  0  0  0999 V2000
   94.1946   11.3047   99.3218 C   0  0  0  0  0  0  0  0  0  0  0  0
   95.3802   11.2770   94.2335 C   0  0  0  0  0  0  0  0  0  0  0  0
   97.7364    7.5445   96.9302 N   0  0  0  0  0  0  0  0  0  0  0  0
   95.1891   11.0481  100.1083 N   0  0  0  0  0  0  0  0  0  0  0  0
   95.9873    9.0035   97.4483 N   0  0  0  0  0  0  0  0  0  0  0  0
   97.7071    8.6684   98.9799 N   0  0  0  0  0  0  0  0  0  0  0  0
   97.7426    9.8537  101.0699 O   0  0  0  0  0  0  0  0  0  0  0  0
   98.2514   10.3073   93.6064 O   0  5  0  0  0  0  0  0  0  0  0  0
   92.7797   15.5637   94.3310 O   0  5  0  0  0  0  0  0  0  0  0  0
   91.7239   12.1566   96.5484 O   0  0  0  0  0  0  0  0  0  0  0  0
   98.8367   11.2846   95.5184 O   0  5  0  0  0  0  0  0  0  0  0  0
   93.0105   15.1033   96.5060 O   0  5  0  0  0  0  0  0  0  0  0  0
   96.4279   10.8324   94.9984 O   0  0  0  0  0  0  0  0  0  0  0  0
   93.9359   10.0633   95.9457 O   0  0  0  0  0  0  0  0  0  0  0  0
   93.2675   13.2777   94.7452 O   0  0  0  0  0  0  0  0  0  0  0  0
   97.1036    8.4460   97.8387 C   0  0  0  0  0  0  0  0  0  0  0  0
   97.1773    9.5297   99.8379 C   0  0  0  0  0  0  0  0  0  0  0  0
   95.9589   10.1582   99.4950 C   0  0  0  0  0  0  0  0  0  0  0  0
   95.3837    9.8856   98.2783 C   0  0  0  0  0  0  0  0  0  0  0  0
   93.0428   11.9051   96.8602 C   0  0  2  0  0  0  0  0  0  0  0  0
   94.0968   11.2340   94.9608 C   0  0  1  0  0  0  0  0  0  0  0  0
   93.9176   12.3121   95.5632 C   0  0  1  0  0  0  0  0  0  0  0  0
   93.3394   10.6614   97.1889 C   0  0  2  0  0  0  0  0  0  0  0  0
   94.2738   10.6239   98.2388 N   0  0  0  0  0  0  0  0  0  0  0  0
   97.8344   11.2980   94.5113 P   0  0  2  0  0  0  0  0  0  0  0  0
   93.4974   14.7332   95.1996 P   0  0  1  0  0  0  0  0  0  0  0  0
   95.6778   14.7408   93.7616 C   0  0  0  0  0  0  0  0  0  0  0  0
   95.0001   15.1017   94.9758 O   0  0  0  0  0  0  0  0  0  0  0  0
   97.1458   14.7837   93.8351 C   0  0  1  0  0  0  0  0  0  0  0  0
   97.5644   16.1203   94.6233 O   0  0  0  0  0  0  0  0  0  0  0  0
   97.5705   13.8313   94.5366 C   0  0  1  0  0  0  0  0  0  0  0  0
   97.7925   12.6334   93.7572 O   0  0  0  0  0  0  0  0  0  0  0  0
   98.8213   14.3898   95.1980 C   0  0  1  0  0  0  0  0  0  0  0  0
   99.8112   14.2761   94.4240 O   0  0  0  0  0  0  0  0  0  0  0  0
   98.5172   15.8753   95.3926 C   0  0  2  0  0  0  0  0  0  0  0  0
  100.7940   16.2284   99.9889 N   0  0  0  0  0  0  0  0  0  0  0  0
  101.2746   15.6030   98.8822 C   0  0  0  0  0  0  0  0  0  0  0  0
  100.5256   15.6368   97.7867 N   0  0  0  0  0  0  0  0  0  0  0  0
   99.2974   16.1939   97.7213 C   0  0  0  0  0  0  0  0  0  0  0  0
   98.7644   16.8528   98.8498 C   0  0  0  0  0  0  0  0  0  0  0  0
   99.5894   16.8293  100.0194 C   0  0  0  0  0  0  0  0  0  0  0  0
   99.1211   17.4508  101.2146 N   0  0  0  0  0  0  0  0  0  0  0  0
   97.6190   17.3203   98.4957 N   0  0  0  0  0  0  0  0  0  0  0  0
   97.4099   17.0213   97.2253 C   0  0  0  0  0  0  0  0  0  0  0  0
   98.3853   16.3340   96.7483 N   0  0  0  0  0  0  0  0  0  0  0  0
  1 24  1  0  0  0  0
  1  4  2  0  0  0  0
  2 13  1  0  0  0  0
  2 21  1  0  0  0  0
  3 16  1  0  0  0  0
  4 18  1  0  0  0  0
  5 19  2  0  0  0  0
  5 16  1  0  0  0  0
  6 16  2  0  0  0  0
  6 17  1  0  0  0  0
  7 17  1  0  0  0  0
 11 25  2  0  0  0  0
 12 26  2  0  0  0  0
 13 25  1  0  0  0  0
 14 23  1  0  0  0  0
 15 26  1  0  0  0  0
 17 18  2  0  0  0  0
 18 19  1  0  0  0  0
 19 24  1  0  0  0  0
 20 10  1  6  0  0  0
 20 22  1  0  0  0  0
 20 23  1  0  0  0  0
 21 14  1  1  0  0  0
 21 22  1  0  0  0  0
 22 15  1  6  0  0  0
 23 24  1  1  0  0  0
 25  8  1  6  0  0  0
 25 32  1  0  0  0  0
 26  9  1  6  0  0  0
 26 28  1  0  0  0  0
 27 28  1  0  0  0  0
 29 27  1  1  0  0  0
 29 30  1  0  0  0  0
 29 31  1  0  0  0  0
 30 35  1  0  0  0  0
 31 33  1  0  0  0  0
 31 32  1  6  0  0  0
 33 34  1  6  0  0  0
 33 35  1  0  0  0  0
 35 45  1  1  0  0  0
 36 41  2  0  0  0  0
 36 37  1  0  0  0  0
 37 38  2  0  0  0  0
 38 39  1  0  0  0  0
 39 40  2  0  0  0  0
 39 45  1  0  0  0  0
 40 41  1  0  0  0  0
 40 43  1  0  0  0  0
 41 42  1  0  0  0  0
 43 44  2  0  0  0  0
 44 45  1  0  0  0  0
M  CHG  4   8  -1   9  -1  11  -1  12  -1
M  END
>  <CHROM.1>
163.73084131,-178.82244374,96.53315036,12.99284442,96.59919949,-2.36428028
-0.66538864,-0.41154300

>  <Name>
ligand

>  <RI>
0

>  <Rbt.Current_Directory>
/home/itssahil/PROJECTS/Mol_Feturizer/New_Systems/rnas/4YAZ

>  <Rbt.Executable>
rbdock ($Id: //depot/dev/client3/rdock/2013.1/src/exe/rbdock.cxx#4 $)

>  <Rbt.Library>
libRbt.so (2013.1, Build901 2013/11/27)

>  <Rbt.Parameter_File>
/export/apps/rDock/src/rDock_2013.1_src/data/scripts/dock_solv.prm

>  <Rbt.Receptor>
prm/pocket_docking_4.prm

>  <SCORE>
-39.9315

>  <SCORE.INTER>
-40.1507

>  <SCORE.INTER.CONST>
1

>  <SCORE.INTER.POLAR>
0

>  <SCORE.INTER.ROT>
2

>  <SCORE.INTER.SOLV>
27.1368

>  <SCORE.INTER.VDW>
-40.7461

>  <SCORE.INTER.norm>
-0.892238

>  <SCORE.INTRA>
0.219157

>  <SCORE.INTRA.DIHEDRAL>
0.00541388

>  <SCORE.INTRA.DIHEDRAL.0>
2.39103

>  <SCORE.INTRA.POLAR>
0

>  <SCORE.INTRA.POLAR.0>
0

>  <SCORE.INTRA.REPUL>
0

>  <SCORE.INTRA.REPUL.0>
0

>  <SCORE.INTRA.SOLV>
1.42309

>  <SCORE.INTRA.SOLV.lig_0>
-163.975

>  <SCORE.INTRA.VDW>
-0.495097

>  <SCORE.INTRA.VDW.0>
-1.49176

>  <SCORE.INTRA.norm>
0.00487015

>  <SCORE.RESTR>
0

>  <SCORE.RESTR.CAVITY>
0

>  <SCORE.RESTR.norm>
0

>  <SCORE.SYSTEM>
0

>  <SCORE.SYSTEM.CONST>
0

>  <SCORE.SYSTEM.DIHEDRAL>
0

>  <SCORE.SYSTEM.SOLV>
0

>  <SCORE.SYSTEM.norm>
0

>  <SCORE.heavy>
45

>  <SCORE.norm>
-0.887367

>  <RMSD>
6.860

$$$$
ligand
 OpenBabel11021811513D
libRbt.so/2013.1/901 2013/11/27
 45 51  0  0  0  0  0  0  0  0999 V2000
   94.1005   11.3175   99.3191 C   0  0  0  0  0  0  0  0  0  0  0  0
   95.3543   11.2866   94.2372 C   0  0  0  0  0  0  0  0  0  0  0  0
   97.6904    7.5997   96.9328 N   0  0  0  0  0  0  0  0  0  0  0  0
   95.0867   11.0580  100.1149 N   0  0  0  0  0  0  0  0  0  0  0  0
   95.9276    9.0445   97.4444 N   0  0  0  0  0  0  0  0  0  0  0  0
   97.6305    8.7026   98.9933 N   0  0  0  0  0  0  0  0  0  0  0  0
   97.6345    9.8669  101.0954 O   0  0  0  0  0  0  0  0  0  0  0  0
   98.2248   10.2932   93.6449 O   0  5  0  0  0  0  0  0  0  0  0  0
   92.7870   15.5940   94.2986 O   0  5  0  0  0  0  0  0  0  0  0  0
   91.6785   12.1986   96.5082 O   0  0  0  0  0  0  0  0  0  0  0  0
   98.7956   11.2686   95.5622 O   0  5  0  0  0  0  0  0  0  0  0  0
   92.9889   15.1349   96.4769 O   0  5  0  0  0  0  0  0  0  0  0  0
   96.3895   10.8348   95.0148 O   0  0  0  0  0  0  0  0  0  0  0  0
   93.8806   10.0869   95.9341 O   0  0  0  0  0  0  0  0  0  0  0  0
   93.2518   13.3048   94.7216 O   0  0  0  0  0  0  0  0  0  0  0  0
   97.0420    8.4888   97.8427 C   0  0  0  0  0  0  0  0  0  0  0  0
   97.0859    9.5525   99.8535 C   0  0  0  0  0  0  0  0  0  0  0  0
   95.8684   10.1782   99.5021 C   0  0  0  0  0  0  0  0  0  0  0  0
   95.3094    9.9151   98.2758 C   0  0  0  0  0  0  0  0  0  0  0  0
   92.9916   11.9370   96.8357 C   0  0  2  0  0  0  0  0  0  0  0  0
   94.0622   11.2549   94.9496 C   0  0  1  0  0  0  0  0  0  0  0  0
   93.8847   12.3352   95.5484 C   0  0  1  0  0  0  0  0  0  0  0  0
   93.2745   10.6916   97.1696 C   0  0  2  0  0  0  0  0  0  0  0  0
   94.1963   10.6481   98.2302 N   0  0  0  0  0  0  0  0  0  0  0  0
   97.8052   11.2885   94.5435 P   0  0  2  0  0  0  0  0  0  0  0  0
   93.4880   14.7591   95.1767 P   0  0  1  0  0  0  0  0  0  0  0  0
   95.6849   14.7472   93.7641 C   0  0  0  0  0  0  0  0  0  0  0  0
   94.9961   15.1152   94.9699 O   0  0  0  0  0  0  0  0  0  0  0  0
   97.1523   14.7786   93.8545 C   0  0  1  0  0  0  0  0  0  0  0  0
   97.5723   16.1130   94.6458 O   0  0  0  0  0  0  0  0  0  0  0  0
   97.5612   13.8238   94.5623 C   0  0  1  0  0  0  0  0  0  0  0  0
   97.7827   12.6231   93.7872 O   0  0  0  0  0  0  0  0  0  0  0  0
   98.8087   14.3733   95.2374 C   0  0  1  0  0  0  0  0  0  0  0  0
   99.8065   14.2507   94.4752 O   0  0  0  0  0  0  0  0  0  0  0  0
   98.5142   15.8615   95.4264 C   0  0  2  0  0  0  0  0  0  0  0  0
  100.7773   16.2886  100.0232 N   0  0  0  0  0  0  0  0  0  0  0  0
  101.2735   15.6696   98.9198 C   0  0  0  0  0  0  0  0  0  0  0  0
  100.5250   15.6809   97.8234 N   0  0  0  0  0  0  0  0  0  0  0  0
   99.2842   16.2089   97.7543 C   0  0  0  0  0  0  0  0  0  0  0  0
   98.7348   16.8603   98.8794 C   0  0  0  0  0  0  0  0  0  0  0  0
   99.5590   16.8615  100.0498 C   0  0  0  0  0  0  0  0  0  0  0  0
   99.0751   17.4773  101.2417 N   0  0  0  0  0  0  0  0  0  0  0  0
   97.5793   17.2994   98.5220 N   0  0  0  0  0  0  0  0  0  0  0  0
   97.3785   16.9897   97.2528 C   0  0  0  0  0  0  0  0  0  0  0  0
   98.3702   16.3232   96.7799 N   0  0  0  0  0  0  0  0  0  0  0  0
  1 24  1  0  0  0  0
  1  4  2  0  0  0  0
  2 13  1  0  0  0  0
  2 21  1  0  0  0  0
  3 16  1  0  0  0  0
  4 18  1  0  0  0  0
  5 19  2  0  0  0  0
  5 16  1  0  0  0  0
  6 16  2  0  0  0  0
  6 17  1  0  0  0  0
  7 17  1  0  0  0  0
 11 25  2  0  0  0  0
 12 26  2  0  0  0  0
 13 25  1  0  0  0  0
 14 23  1  0  0  0  0
 15 26  1  0  0  0  0
 17 18  2  0  0  0  0
 18 19  1  0  0  0  0
 19 24  1  0  0  0  0
 20 10  1  6  0  0  0
 20 22  1  0  0  0  0
 20 23  1  0  0  0  0
 21 14  1  1  0  0  0
 21 22  1  0  0  0  0
 22 15  1  6  0  0  0
 23 24  1  1  0  0  0
 25  8  1  6  0  0  0
 25 32  1  0  0  0  0
 26  9  1  6  0  0  0
 26 28  1  0  0  0  0
 27 28  1  0  0  0  0
 29 27  1  1  0  0  0
 29 30  1  0  0  0  0
 29 31  1  0  0  0  0
 30 35  1  0  0  0  0
 31 33  1  0  0  0  0
 31 32  1  6  0  0  0
 33 34  1  6  0  0  0
 33 35  1  0  0  0  0
 35 45  1  1  0  0  0
 36 41  2  0  0  0  0
 36 37  1  0  0  0  0
 37 38  2  0  0  0  0
 38 39  1  0  0  0  0
 39 40  2  0  0  0  0
 39 45  1  0  0  0  0
 40 41  1  0  0  0  0
 40 43  1  0  0  0  0
 41 42  1  0  0  0  0
 43 44  2  0  0  0  0
 44 45  1  0  0  0  0
M  CHG  4   8  -1   9  -1  11  -1  12  -1
M  END
>  <CHROM.1>
164.73015315,-176.92021334,96.49884777,13.00738526,96.60953765,-2.38590607
-0.66945232,-0.41828638

>  <Name>
ligand

>  <RI>
0

>  <Rbt.Current_Directory>
/home/itssahil/PROJECTS/Mol_Feturizer/New_Systems/rnas/4YAZ

>  <Rbt.Executable>
rbdock ($Id: //depot/dev/client3/rdock/2013.1/src/exe/rbdock.cxx#4 $)

>  <Rbt.Library>
libRbt.so (2013.1, Build901 2013/11/27)

>  <Rbt.Parameter_File>
/export/apps/rDock/src/rDock_2013.1_src/data/scripts/dock_solv.prm

>  <Rbt.Receptor>
prm/pocket_docking_4.prm

>  <SCORE>
-39.8796

>  <SCORE.INTER>
-40.2367

>  <SCORE.INTER.CONST>
1

>  <SCORE.INTER.POLAR>
0

>  <SCORE.INTER.ROT>
2

>  <SCORE.INTER.SOLV>
26.9412

>  <SCORE.INTER.VDW>
-40.7382

>  <SCORE.INTER.norm>
-0.89415

>  <SCORE.INTRA>
0.35716

>  <SCORE.INTRA.DIHEDRAL>
0.018835

>  <SCORE.INTRA.DIHEDRAL.0>
2.39103

>  <SCORE.INTRA.POLAR>
0

>  <SCORE.INTRA.POLAR.0>
0

>  <SCORE.INTRA.REPUL>
0

>  <SCORE.INTRA.REPUL.0>
0

>  <SCORE.INTRA.SOLV>
1.87361

>  <SCORE.INTRA.SOLV.lig_0>
-163.975

>  <SCORE.INTRA.VDW>
-0.589065

>  <SCORE.INTRA.VDW.0>
-1.49176

>  <SCORE.INTRA.norm>
0.00793689

>  <SCORE.RESTR>
0

>  <SCORE.RESTR.CAVITY>
0

>  <SCORE.RESTR.norm>
0

>  <SCORE.SYSTEM>
0

>  <SCORE.SYSTEM.CONST>
0

>  <SCORE.SYSTEM.DIHEDRAL>
0

>  <SCORE.SYSTEM.SOLV>
0

>  <SCORE.SYSTEM.norm>
0

>  <SCORE.heavy>
45

>  <SCORE.norm>
-0.886213

>  <RMSD>
6.861

$$$$
ligand
 OpenBabel11021811513D
libRbt.so/2013.1/901 2013/11/27
 45 51  0  0  0  0  0  0  0  0999 V2000
   94.1468   11.3422   99.2929 C   0  0  0  0  0  0  0  0  0  0  0  0
   95.3764   11.2768   94.2147 C   0  0  0  0  0  0  0  0  0  0  0  0
   97.6783    7.5424   96.9492 N   0  0  0  0  0  0  0  0  0  0  0  0
   95.1323   11.0812  100.0891 N   0  0  0  0  0  0  0  0  0  0  0  0
   95.9368    9.0179   97.4455 N   0  0  0  0  0  0  0  0  0  0  0  0
   97.6405    8.6760   98.9935 N   0  0  0  0  0  0  0  0  0  0  0  0
   97.6676    9.8706  101.0783 O   0  0  0  0  0  0  0  0  0  0  0  0
   98.2440   10.2778   93.6176 O   0  5  0  0  0  0  0  0  0  0  0  0
   92.8143   15.5874   94.2665 O   0  5  0  0  0  0  0  0  0  0  0  0
   91.7085   12.2022   96.4931 O   0  0  0  0  0  0  0  0  0  0  0  0
   98.8217   11.2602   95.5293 O   0  5  0  0  0  0  0  0  0  0  0  0
   93.0222   15.1369   96.4459 O   0  5  0  0  0  0  0  0  0  0  0  0
   96.4134   10.8269   94.9909 O   0  0  0  0  0  0  0  0  0  0  0  0
   93.9064   10.0857   95.9208 O   0  0  0  0  0  0  0  0  0  0  0  0
   93.2777   13.2994   94.6973 O   0  0  0  0  0  0  0  0  0  0  0  0
   97.0451    8.4533   97.8481 C   0  0  0  0  0  0  0  0  0  0  0  0
   97.1103    9.5455   99.8429 C   0  0  0  0  0  0  0  0  0  0  0  0
   95.9001   10.1822   99.4866 C   0  0  0  0  0  0  0  0  0  0  0  0
   95.3332    9.9087   98.2662 C   0  0  0  0  0  0  0  0  0  0  0  0
   93.0223   11.9404   96.8176 C   0  0  2  0  0  0  0  0  0  0  0  0
   94.0865   11.2495   94.9310 C   0  0  1  0  0  0  0  0  0  0  0  0
   93.9120   12.3324   95.5261 C   0  0  1  0  0  0  0  0  0  0  0  0
   93.3048   10.6960   97.1556 C   0  0  2  0  0  0  0  0  0  0  0  0
   94.2298   10.6557   98.2137 N   0  0  0  0  0  0  0  0  0  0  0  0
   97.8282   11.2771   94.5135 P   0  0  2  0  0  0  0  0  0  0  0  0
   93.5169   14.7552   95.1458 P   0  0  1  0  0  0  0  0  0  0  0  0
   95.7096   14.7351   93.7266 C   0  0  0  0  0  0  0  0  0  0  0  0
   95.0248   15.1088   94.9330 O   0  0  0  0  0  0  0  0  0  0  0  0
   97.1773   14.7652   93.8125 C   0  0  1  0  0  0  0  0  0  0  0  0
   97.6012   16.1022   94.5971 O   0  0  0  0  0  0  0  0  0  0  0  0
   97.5872   13.8128   94.5229 C   0  0  1  0  0  0  0  0  0  0  0  0
   97.8050   12.6087   93.7519 O   0  0  0  0  0  0  0  0  0  0  0  0
   98.8374   14.3635   95.1920 C   0  0  1  0  0  0  0  0  0  0  0  0
   99.8328   14.2367   94.4272 O   0  0  0  0  0  0  0  0  0  0  0  0
   98.5451   15.8528   95.3759 C   0  0  2  0  0  0  0  0  0  0  0  0
  100.7960   16.2338   99.9827 N   0  0  0  0  0  0  0  0  0  0  0  0
  101.2825   15.6012   98.8827 C   0  0  0  0  0  0  0  0  0  0  0  0
  100.5397   15.6285   97.7828 N   0  0  0  0  0  0  0  0  0  0  0  0
   99.3122   16.1857   97.7069 C   0  0  0  0  0  0  0  0  0  0  0  0
   98.7731   16.8520   98.8283 C   0  0  0  0  0  0  0  0  0  0  0  0
   99.5915   16.8355  100.0026 C   0  0  0  0  0  0  0  0  0  0  0  0
   99.1168   17.4647  101.1912 N   0  0  0  0  0  0  0  0  0  0  0  0
   97.6301   17.3178   98.4647 N   0  0  0  0  0  0  0  0  0  0  0  0
   97.4280   17.0109   97.1951 C   0  0  0  0  0  0  0  0  0  0  0  0
   98.4058   16.3201   96.7280 N   0  0  0  0  0  0  0  0  0  0  0  0
  1 24  1  0  0  0  0
  1  4  2  0  0  0  0
  2 13  1  0  0  0  0
  2 21  1  0  0  0  0
  3 16  1  0  0  0  0
  4 18  1  0  0  0  0
  5 19  2  0  0  0  0
  5 16  1  0  0  0  0
  6 16  2  0  0  0  0
  6 17  1  0  0  0  0
  7 17  1  0  0  0  0
 11 25  2  0  0  0  0
 12 26  2  0  0  0  0
 13 25  1  0  0  0  0
 14 23  1  0  0  0  0
 15 26  1  0  0  0  0
 17 18  2  0  0  0  0
 18 19  1  0  0  0  0
 19 24  1  0  0  0  0
 20 10  1  6  0  0  0
 20 22  1  0  0  0  0
 20 23  1  0  0  0  0
 21 14  1  1  0  0  0
 21 22  1  0  0  0  0
 22 15  1  6  0  0  0
 23 24  1  1  0  0  0
 25  8  1  6  0  0  0
 25 32  1  0  0  0  0
 26  9  1  6  0  0  0
 26 28  1  0  0  0  0
 27 28  1  0  0  0  0
 29 27  1  1  0  0  0
 29 30  1  0  0  0  0
 29 31  1  0  0  0  0
 30 35  1  0  0  0  0
 31 33  1  0  0  0  0
 31 32  1  6  0  0  0
 33 34  1  6  0  0  0
 33 35  1  0  0  0  0
 35 45  1  1  0  0  0
 36 41  2  0  0  0  0
 36 37  1  0  0  0  0
 37 38  2  0  0  0  0
 38 39  1  0  0  0  0
 39 40  2  0  0  0  0
 39 45  1  0  0  0  0
 40 41  1  0  0  0  0
 40 43  1  0  0  0  0
 41 42  1  0  0  0  0
 43 44  2  0  0  0  0
 44 45  1  0  0  0  0
M  CHG  4   8  -1   9  -1  11  -1  12  -1
M  END
>  <CHROM.1>
163.80486729,-178.29923835,96.52555693,12.99724013,96.58017839,-2.37984120
-0.66892887,-0.42569998

>  <Name>
ligand

>  <RI>
0

>  <Rbt.Current_Directory>
/home/itssahil/PROJECTS/Mol_Feturizer/New_Systems/rnas/4YAZ

>  <Rbt.Executable>
rbdock ($Id: //depot/dev/client3/rdock/2013.1/src/exe/rbdock.cxx#4 $)

>  <Rbt.Library>
libRbt.so (2013.1, Build901 2013/11/27)

>  <Rbt.Parameter_File>
/export/apps/rDock/src/rDock_2013.1_src/data/scripts/dock_solv.prm

>  <Rbt.Receptor>
prm/pocket_docking_5.prm

>  <SCORE>
-39.9267

>  <SCORE.INTER>
-40.1566

>  <SCORE.INTER.CONST>
1

>  <SCORE.INTER.POLAR>
0

>  <SCORE.INTER.ROT>
2

>  <SCORE.INTER.SOLV>
27.1318

>  <SCORE.INTER.VDW>
-40.7483

>  <SCORE.INTER.norm>
-0.892369

>  <SCORE.INTRA>
0.229884

>  <SCORE.INTRA.DIHEDRAL>
0.00914296

>  <SCORE.INTRA.DIHEDRAL.0>
2.39103

>  <SCORE.INTRA.POLAR>
0

>  <SCORE.INTRA.POLAR.0>
0

>  <SCORE.INTRA.REPUL>
0

>  <SCORE.INTRA.REPUL.0>
0

>  <SCORE.INTRA.SOLV>
1.4556

>  <SCORE.INTRA.SOLV.lig_0>
-163.975

>  <SCORE.INTRA.VDW>
-0.502487

>  <SCORE.INTRA.VDW.0>
-1.49176

>  <SCORE.INTRA.norm>
0.00510854

>  <SCORE.RESTR>
0

>  <SCORE.RESTR.CAVITY>
0

>  <SCORE.RESTR.norm>
0

>  <SCORE.SYSTEM>
0

>  <SCORE.SYSTEM.CONST>
0

>  <SCORE.SYSTEM.DIHEDRAL>
0

>  <SCORE.SYSTEM.SOLV>
0

>  <SCORE.SYSTEM.norm>
0

>  <SCORE.heavy>
45

>  <SCORE.norm>
-0.88726

>  <RMSD>
6.863

$$$$
ligand
 OpenBabel11021811513D
libRbt.so/2013.1/901 2013/11/27
 45 51  0  0  0  0  0  0  0  0999 V2000
   94.2111   11.3385   99.3530 C   0  0  0  0  0  0  0  0  0  0  0  0
   95.4038   11.3381   94.2640 C   0  0  0  0  0  0  0  0  0  0  0  0
   97.7364    7.5825   96.9305 N   0  0  0  0  0  0  0  0  0  0  0  0
   95.2033   11.0695  100.1381 N   0  0  0  0  0  0  0  0  0  0  0  0
   95.9942    9.0456   97.4602 N   0  0  0  0  0  0  0  0  0  0  0  0
   97.7105    8.6875   98.9906 N   0  0  0  0  0  0  0  0  0  0  0  0
   97.7495    9.8533  101.0915 O   0  0  0  0  0  0  0  0  0  0  0  0
   98.2678   10.3495   93.6333 O   0  5  0  0  0  0  0  0  0  0  0  0
   92.8378   15.6449   94.3874 O   0  5  0  0  0  0  0  0  0  0  0  0
   91.7523   12.2317   96.5810 O   0  0  0  0  0  0  0  0  0  0  0  0
   98.8589   11.3093   95.5524 O   0  5  0  0  0  0  0  0  0  0  0  0
   93.0627   15.1682   96.5595 O   0  5  0  0  0  0  0  0  0  0  0  0
   96.4471   10.8799   95.0269 O   0  0  0  0  0  0  0  0  0  0  0  0
   93.9480   10.1247   95.9666 O   0  0  0  0  0  0  0  0  0  0  0  0
   93.3068   13.3523   94.7869 O   0  0  0  0  0  0  0  0  0  0  0  0
   97.1072    8.4789   97.8467 C   0  0  0  0  0  0  0  0  0  0  0  0
   97.1840    9.5436   99.8559 C   0  0  0  0  0  0  0  0  0  0  0  0
   95.9692   10.1814   99.5175 C   0  0  0  0  0  0  0  0  0  0  0  0
   95.3941    9.9230   98.2976 C   0  0  0  0  0  0  0  0  0  0  0  0
   93.0688   11.9675   96.8924 C   0  0  2  0  0  0  0  0  0  0  0  0
   94.1194   11.3006   94.9897 C   0  0  1  0  0  0  0  0  0  0  0  0
   93.9483   12.3761   95.5991 C   0  0  1  0  0  0  0  0  0  0  0  0
   93.3550   10.7194   97.2132 C   0  0  2  0  0  0  0  0  0  0  0  0
   94.2881   10.6673   98.2637 N   0  0  0  0  0  0  0  0  0  0  0  0
   97.8578   11.3374   94.5443 P   0  0  2  0  0  0  0  0  0  0  0  0
   93.5479   14.8029   95.2512 P   0  0  1  0  0  0  0  0  0  0  0  0
   95.7298   14.8024   93.8154 C   0  0  0  0  0  0  0  0  0  0  0  0
   95.0538   15.1607   95.0313 O   0  0  0  0  0  0  0  0  0  0  0  0
   97.1981   14.8330   93.8906 C   0  0  1  0  0  0  0  0  0  0  0  0
   97.6265   16.1609   94.6881 O   0  0  0  0  0  0  0  0  0  0  0  0
   97.6143   13.8725   94.5862 C   0  0  1  0  0  0  0  0  0  0  0  0
   97.8275   12.6782   93.7991 O   0  0  0  0  0  0  0  0  0  0  0  0
   98.8689   14.4165   95.2525 C   0  0  1  0  0  0  0  0  0  0  0  0
   99.8587   14.3001   94.4788 O   0  0  0  0  0  0  0  0  0  0  0  0
   98.5766   15.9031   95.4567 C   0  0  2  0  0  0  0  0  0  0  0  0
  100.8971   16.3149  100.0261 N   0  0  0  0  0  0  0  0  0  0  0  0
  101.3835   15.7078   98.9118 C   0  0  0  0  0  0  0  0  0  0  0  0
  100.6204   15.7212   97.8255 N   0  0  0  0  0  0  0  0  0  0  0  0
   99.3747   16.2397   97.7767 C   0  0  0  0  0  0  0  0  0  0  0  0
   98.8352   16.8787   98.9136 C   0  0  0  0  0  0  0  0  0  0  0  0
   99.6748   16.8779  100.0731 C   0  0  0  0  0  0  0  0  0  0  0  0
   99.2019   17.4812  101.2757 N   0  0  0  0  0  0  0  0  0  0  0  0
   97.6716   17.3111   98.5748 N   0  0  0  0  0  0  0  0  0  0  0  0
   97.4564   17.0091   97.3062 C   0  0  0  0  0  0  0  0  0  0  0  0
   98.4470   16.3539   96.8153 N   0  0  0  0  0  0  0  0  0  0  0  0
  1 24  1  0  0  0  0
  1  4  2  0  0  0  0
  2 13  1  0  0  0  0
  2 21  1  0  0  0  0
  3 16  1  0  0  0  0
  4 18  1  0  0  0  0
  5 19  2  0  0  0  0
  5 16  1  0  0  0  0
  6 16  2  0  0  0  0
  6 17  1  0  0  0  0
  7 17  1  0  0  0  0
 11 25  2  0  0  0  0
 12 26  2  0  0  0  0
 13 25  1  0  0  0  0
 14 23  1  0  0  0  0
 15 26  1  0  0  0  0
 17 18  2  0  0  0  0
 18 19  1  0  0  0  0
 19 24  1  0  0  0  0
 20 10  1  6  0  0  0
 20 22  1  0  0  0  0
 20 23  1  0  0  0  0
 21 14  1  1  0  0  0
 21 22  1  0  0  0  0
 22 15  1  6  0  0  0
 23 24  1  1  0  0  0
 25  8  1  6  0  0  0
 25 32  1  0  0  0  0
 26  9  1  6  0  0  0
 26 28  1  0  0  0  0
 27 28  1  0  0  0  0
 29 27  1  1  0  0  0
 29 30  1  0  0  0  0
 29 31  1  0  0  0  0
 30 35  1  0  0  0  0
 31 33  1  0  0  0  0
 31 32  1  6  0  0  0
 33 34  1  6  0  0  0
 33 35  1  0  0  0  0
 35 45  1  1  0  0  0
 36 41  2  0  0  0  0
 36 37  1  0  0  0  0
 37 38  2  0  0  0  0
 38 39  1  0  0  0  0
 39 40  2  0  0  0  0
 39 45  1  0  0  0  0
 40 41  1  0  0  0  0
 40 43  1  0  0  0  0
 41 42  1  0  0  0  0
 43 44  2  0  0  0  0
 44 45  1  0  0  0  0
M  CHG  4   8  -1   9  -1  11  -1  12  -1
M  END
>  <CHROM.1>
163.95763502,-176.43847600,96.57205458,13.03815318,96.63916595,-2.37548283
-0.66048165,-0.40865376

>  <Name>
ligand

>  <RI>
0

>  <Rbt.Current_Directory>
/home/itssahil/PROJECTS/Mol_Feturizer/New_Systems/rnas/4YAZ

>  <Rbt.Executable>
rbdock ($Id: //depot/dev/client3/rdock/2013.1/src/exe/rbdock.cxx#4 $)

>  <Rbt.Library>
libRbt.so (2013.1, Build901 2013/11/27)

>  <Rbt.Parameter_File>
/export/apps/rDock/src/rDock_2013.1_src/data/scripts/dock_solv.prm

>  <Rbt.Receptor>
prm/pocket_docking_5.prm

>  <SCORE>
-39.8768

>  <SCORE.INTER>
-40.1085

>  <SCORE.INTER.CONST>
1

>  <SCORE.INTER.POLAR>
0

>  <SCORE.INTER.ROT>
2

>  <SCORE.INTER.SOLV>
27.947

>  <SCORE.INTER.VDW>
-40.988

>  <SCORE.INTER.norm>
-0.891301

>  <SCORE.INTRA>
0.231699

>  <SCORE.INTRA.DIHEDRAL>
0.0224304

>  <SCORE.INTRA.DIHEDRAL.0>
2.39103

>  <SCORE.INTRA.POLAR>
0

>  <SCORE.INTRA.POLAR.0>
0

>  <SCORE.INTRA.REPUL>
0

>  <SCORE.INTRA.REPUL.0>
0

>  <SCORE.INTRA.SOLV>
1.52156

>  <SCORE.INTRA.SOLV.lig_0>
-163.975

>  <SCORE.INTRA.VDW>
-0.540296

>  <SCORE.INTRA.VDW.0>
-1.49176

>  <SCORE.INTRA.norm>
0.00514887

>  <SCORE.RESTR>
0

>  <SCORE.RESTR.CAVITY>
0

>  <SCORE.RESTR.norm>
0

>  <SCORE.SYSTEM>
0

>  <SCORE.SYSTEM.CONST>
0

>  <SCORE.SYSTEM.DIHEDRAL>
0

>  <SCORE.SYSTEM.SOLV>
0

>  <SCORE.SYSTEM.norm>
0

>  <SCORE.heavy>
45

>  <SCORE.norm>
-0.886152

>  <RMSD>
6.863

$$$$
ligand
 OpenBabel11021811513D
libRbt.so/2013.1/901 2013/11/27
 45 51  0  0  0  0  0  0  0  0999 V2000
   96.0871   10.3907   96.8329 C   0  0  0  0  0  0  0  0  0  0  0  0
   99.4973   11.6178   94.4837 C   0  0  0  0  0  0  0  0  0  0  0  0
   98.1442    8.8106  101.9000 N   0  0  0  0  0  0  0  0  0  0  0  0
   95.3672   10.8773   97.7912 N   0  0  0  0  0  0  0  0  0  0  0  0
   97.7125    9.1398   99.6280 N   0  0  0  0  0  0  0  0  0  0  0  0
   96.3174   10.1027  101.2225 N   0  0  0  0  0  0  0  0  0  0  0  0
   94.4675   11.4879  100.5641 O   0  0  0  0  0  0  0  0  0  0  0  0
  100.0575   14.5712   95.2193 O   0  5  0  0  0  0  0  0  0  0  0  0
   97.2367    8.9936   90.8573 O   0  5  0  0  0  0  0  0  0  0  0  0
   97.8462    7.5306   94.7468 O   0  0  0  0  0  0  0  0  0  0  0  0
   97.8858   14.7089   95.6866 O   0  5  0  0  0  0  0  0  0  0  0  0
   95.8194    8.7499   92.5684 O   0  5  0  0  0  0  0  0  0  0  0  0
   98.9992   12.4795   95.4270 O   0  0  0  0  0  0  0  0  0  0  0  0
   99.2035    9.8527   96.2972 O   0  0  0  0  0  0  0  0  0  0  0  0
   98.2489    9.4139   92.9630 O   0  0  0  0  0  0  0  0  0  0  0  0
   97.3427    9.3723  100.8603 C   0  0  0  0  0  0  0  0  0  0  0  0
   95.5686   10.6783  100.2915 C   0  0  0  0  0  0  0  0  0  0  0  0
   95.8939   10.4568   98.9342 C   0  0  0  0  0  0  0  0  0  0  0  0
   96.9877    9.6865   98.6245 C   0  0  0  0  0  0  0  0  0  0  0  0
   97.5254    8.7530   95.2969 C   0  0  2  0  0  0  0  0  0  0  0  0
   99.2009   10.2072   94.8002 C   0  0  1  0  0  0  0  0  0  0  0  0
   98.1051    9.8841   94.2981 C   0  0  1  0  0  0  0  0  0  0  0  0
   97.9914    8.9895   96.5092 C   0  0  2  0  0  0  0  0  0  0  0  0
   97.0439    9.6721   97.2922 N   0  0  0  0  0  0  0  0  0  0  0  0
   98.8280   13.9512   94.9401 P   0  0  2  0  0  0  0  0  0  0  0  0
   96.9582    9.5165   92.1255 P   0  0  1  0  0  0  0  0  0  0  0  0
   97.6570   11.9583   91.5162 C   0  0  0  0  0  0  0  0  0  0  0  0
   96.6288   11.0259   91.8866 O   0  0  0  0  0  0  0  0  0  0  0  0
   97.3086   13.3739   91.7090 C   0  0  1  0  0  0  0  0  0  0  0  0
   95.8025   13.5892   91.1910 O   0  0  0  0  0  0  0  0  0  0  0  0
   97.2863   13.6493   92.9351 C   0  0  1  0  0  0  0  0  0  0  0  0
   98.5837   14.0548   93.4290 O   0  0  0  0  0  0  0  0  0  0  0  0
   96.2087   14.7164   93.0537 C   0  0  1  0  0  0  0  0  0  0  0  0
   96.6910   15.8533   92.7953 O   0  0  0  0  0  0  0  0  0  0  0  0
   95.1945   14.3544   91.9686 C   0  0  2  0  0  0  0  0  0  0  0  0
   92.6197   10.9816   94.8719 N   0  0  0  0  0  0  0  0  0  0  0  0
   93.9592   11.0127   94.6448 C   0  0  0  0  0  0  0  0  0  0  0  0
   94.4249   11.9801   93.8639 N   0  0  0  0  0  0  0  0  0  0  0  0
   93.6503   12.8893   93.2344 C   0  0  0  0  0  0  0  0  0  0  0  0
   92.2548   12.8892   93.4454 C   0  0  0  0  0  0  0  0  0  0  0  0
   91.7655   11.8555   94.3064 C   0  0  0  0  0  0  0  0  0  0  0  0
   90.3647   11.7642   94.5585 N   0  0  0  0  0  0  0  0  0  0  0  0
   91.7805   13.8750   92.7679 N   0  0  0  0  0  0  0  0  0  0  0  0
   92.7786   14.5018   92.1698 C   0  0  0  0  0  0  0  0  0  0  0  0
   93.8988   13.9220   92.4159 N   0  0  0  0  0  0  0  0  0  0  0  0
  1 24  1  0  0  0  0
  1  4  2  0  0  0  0
  2 13  1  0  0  0  0
  2 21  1  0  0  0  0
  3 16  1  0  0  0  0
  4 18  1  0  0  0  0
  5 19  2  0  0  0  0
  5 16  1  0  0  0  0
  6 16  2  0  0  0  0
  6 17  1  0  0  0  0
  7 17  1  0  0  0  0
 11 25  2  0  0  0  0
 12 26  2  0  0  0  0
 13 25  1  0  0  0  0
 14 23  1  0  0  0  0
 15 26  1  0  0  0  0
 17 18  2  0  0  0  0
 18 19  1  0  0  0  0
 19 24  1  0  0  0  0
 20 10  1  6  0  0  0
 20 22  1  0  0  0  0
 20 23  1  0  0  0  0
 21 14  1  1  0  0  0
 21 22  1  0  0  0  0
 22 15  1  6  0  0  0
 23 24  1  1  0  0  0
 25  8  1  1  0  0  0
 25 32  1  0  0  0  0
 26  9  1  6  0  0  0
 26 28  1  0  0  0  0
 27 28  1  0  0  0  0
 29 27  1  1  0  0  0
 29 30  1  0  0  0  0
 29 31  1  0  0  0  0
 30 35  1  0  0  0  0
 31 33  1  0  0  0  0
 31 32  1  6  0  0  0
 33 34  1  6  0  0  0
 33 35  1  0  0  0  0
 35 45  1  1  0  0  0
 36 41  2  0  0  0  0
 36 37  1  0  0  0  0
 37 38  2  0  0  0  0
 38 39  1  0  0  0  0
 39 40  2  0  0  0  0
 39 45  1  0  0  0  0
 40 41  1  0  0  0  0
 40 43  1  0  0  0  0
 41 42  1  0  0  0  0
 43 44  2  0  0  0  0
 44 45  1  0  0  0  0
M  CHG  4   8  -1   9  -1  11  -1  12  -1
M  END
>  <CHROM.1>
92.38002506,68.44681333,96.45994729,11.53495922,94.90504511,1.33798896,-0.23755973
1.96458559

>  <Name>
ligand

>  <RI>
0

>  <Rbt.Current_Directory>
/home/itssahil/PROJECTS/Mol_Feturizer/New_Systems/rnas/4YAZ

>  <Rbt.Executable>
rbdock ($Id: //depot/dev/client3/rdock/2013.1/src/exe/rbdock.cxx#4 $)

>  <Rbt.Library>
libRbt.so (2013.1, Build901 2013/11/27)

>  <Rbt.Parameter_File>
/export/apps/rDock/src/rDock_2013.1_src/data/scripts/dock_solv.prm

>  <Rbt.Receptor>
prm/pocket_docking_7.prm

>  <SCORE>
-16.8856

>  <SCORE.INTER>
-16.247

>  <SCORE.INTER.CONST>
1

>  <SCORE.INTER.POLAR>
0

>  <SCORE.INTER.ROT>
2

>  <SCORE.INTER.SOLV>
35.2964

>  <SCORE.INTER.VDW>
-27.5301

>  <SCORE.INTER.norm>
-0.361044

>  <SCORE.INTRA>
-0.638596

>  <SCORE.INTRA.DIHEDRAL>
0.0471905

>  <SCORE.INTRA.DIHEDRAL.0>
2.39103

>  <SCORE.INTRA.POLAR>
0

>  <SCORE.INTRA.POLAR.0>
0

>  <SCORE.INTRA.REPUL>
0

>  <SCORE.INTRA.REPUL.0>
0

>  <SCORE.INTRA.SOLV>
0.563963

>  <SCORE.INTRA.SOLV.lig_0>
-163.975

>  <SCORE.INTRA.VDW>
-0.944173

>  <SCORE.INTRA.VDW.0>
-1.49176

>  <SCORE.INTRA.norm>
-0.014191

>  <SCORE.RESTR>
0

>  <SCORE.RESTR.CAVITY>
0

>  <SCORE.RESTR.norm>
0

>  <SCORE.SYSTEM>
0

>  <SCORE.SYSTEM.CONST>
0

>  <SCORE.SYSTEM.DIHEDRAL>
0

>  <SCORE.SYSTEM.SOLV>
0

>  <SCORE.SYSTEM.norm>
0

>  <SCORE.heavy>
45

>  <SCORE.norm>
-0.375235

>  <RMSD>
6.871

$$$$
ligand
 OpenBabel11021811513D
libRbt.so/2013.1/901 2013/11/27
 45 51  0  0  0  0  0  0  0  0999 V2000
   94.2244   11.3897   99.2703 C   0  0  0  0  0  0  0  0  0  0  0  0
   95.3503   11.4369   94.1820 C   0  0  0  0  0  0  0  0  0  0  0  0
   97.6429    7.5504   96.8255 N   0  0  0  0  0  0  0  0  0  0  0  0
   95.2197   11.1035  100.0454 N   0  0  0  0  0  0  0  0  0  0  0  0
   95.9377    9.0518   97.3681 N   0  0  0  0  0  0  0  0  0  0  0  0
   97.6635    8.6647   98.8806 N   0  0  0  0  0  0  0  0  0  0  0  0
   97.7507    9.8386  100.9755 O   0  0  0  0  0  0  0  0  0  0  0  0
   98.2070   10.4554   93.5086 O   0  5  0  0  0  0  0  0  0  0  0  0
   92.7887   15.7431   94.3902 O   0  5  0  0  0  0  0  0  0  0  0  0
   91.7233   12.3009   96.5481 O   0  0  0  0  0  0  0  0  0  0  0  0
   98.8184   11.3886   95.4345 O   0  5  0  0  0  0  0  0  0  0  0  0
   93.0354   15.2367   96.5533 O   0  5  0  0  0  0  0  0  0  0  0  0
   96.4011   10.9678   94.9279 O   0  0  0  0  0  0  0  0  0  0  0  0
   93.9111   10.2012   95.8827 O   0  0  0  0  0  0  0  0  0  0  0  0
   93.2601   13.4450   94.7537 O   0  0  0  0  0  0  0  0  0  0  0  0
   97.0430    8.4637   97.7446 C   0  0  0  0  0  0  0  0  0  0  0  0
   97.1649    9.5354   99.7479 C   0  0  0  0  0  0  0  0  0  0  0  0
   95.9598   10.1969   99.4203 C   0  0  0  0  0  0  0  0  0  0  0  0
   95.3656    9.9453   98.2082 C   0  0  0  0  0  0  0  0  0  0  0  0
   93.0427   12.0318   96.8424 C   0  0  2  0  0  0  0  0  0  0  0  0
   94.0733   11.3903   94.9201 C   0  0  1  0  0  0  0  0  0  0  0  0
   93.9092   12.4575   95.5459 C   0  0  1  0  0  0  0  0  0  0  0  0
   93.3313   10.7792   97.1433 C   0  0  2  0  0  0  0  0  0  0  0  0
   94.2750   10.7123   98.1834 N   0  0  0  0  0  0  0  0  0  0  0  0
   97.8071   11.4311   94.4372 P   0  0  2  0  0  0  0  0  0  0  0  0
   93.5070   14.8890   95.2352 P   0  0  1  0  0  0  0  0  0  0  0  0
   95.6742   14.9068   93.7773 C   0  0  0  0  0  0  0  0  0  0  0  0
   95.0108   15.2489   95.0048 O   0  0  0  0  0  0  0  0  0  0  0  0
   97.1431   14.9356   93.8379 C   0  0  1  0  0  0  0  0  0  0  0  0
   97.5806   16.2523   94.6490 O   0  0  0  0  0  0  0  0  0  0  0  0
   97.5658   13.9655   94.5161 C   0  0  1  0  0  0  0  0  0  0  0  0
   97.7701   12.7819   93.7107 O   0  0  0  0  0  0  0  0  0  0  0  0
   98.8275   14.4997   95.1770 C   0  0  1  0  0  0  0  0  0  0  0  0
   99.8092   14.3932   94.3916 O   0  0  0  0  0  0  0  0  0  0  0  0
   98.5383   15.9835   95.4043 C   0  0  2  0  0  0  0  0  0  0  0  0
  100.9102   16.3434   99.9517 N   0  0  0  0  0  0  0  0  0  0  0  0
  101.3858   15.7529   98.8239 C   0  0  0  0  0  0  0  0  0  0  0  0
  100.6101   15.7778   97.7468 N   0  0  0  0  0  0  0  0  0  0  0  0
   99.3621   16.2923   97.7192 C   0  0  0  0  0  0  0  0  0  0  0  0
   98.8336   16.9142   98.8707 C   0  0  0  0  0  0  0  0  0  0  0  0
   99.6866   16.9011  100.0202 C   0  0  0  0  0  0  0  0  0  0  0  0
   99.2255   17.4868  101.2362 N   0  0  0  0  0  0  0  0  0  0  0  0
   97.6646   17.3468   98.5511 N   0  0  0  0  0  0  0  0  0  0  0  0
   97.4358   17.0607   97.2811 C   0  0  0  0  0  0  0  0  0  0  0  0
   98.4229   16.4158   96.7702 N   0  0  0  0  0  0  0  0  0  0  0  0
  1 24  1  0  0  0  0
  1  4  2  0  0  0  0
  2 13  1  0  0  0  0
  2 21  1  0  0  0  0
  3 16  1  0  0  0  0
  4 18  1  0  0  0  0
  5 19  2  0  0  0  0
  5 16  1  0  0  0  0
  6 16  2  0  0  0  0
  6 17  1  0  0  0  0
  7 17  1  0  0  0  0
 11 25  2  0  0  0  0
 12 26  2  0  0  0  0
 13 25  1  0  0  0  0
 14 23  1  0  0  0  0
 15 26  1  0  0  0  0
 17 18  2  0  0  0  0
 18 19  1  0  0  0  0
 19 24  1  0  0  0  0
 20 10  1  6  0  0  0
 20 22  1  0  0  0  0
 20 23  1  0  0  0  0
 21 14  1  1  0  0  0
 21 22  1  0  0  0  0
 22 15  1  6  0  0  0
 23 24  1  1  0  0  0
 25  8  1  6  0  0  0
 25 32  1  0  0  0  0
 26  9  1  6  0  0  0
 26 28  1  0  0  0  0
 27 28  1  0  0  0  0
 29 27  1  1  0  0  0
 29 30  1  0  0  0  0
 29 31  1  0  0  0  0
 30 35  1  0  0  0  0
 31 33  1  0  0  0  0
 31 32  1  6  0  0  0
 33 34  1  6  0  0  0
 33 35  1  0  0  0  0
 35 45  1  1  0  0  0
 36 41  2  0  0  0  0
 36 37  1  0  0  0  0
 37 38  2  0  0  0  0
 38 39  1  0  0  0  0
 39 40  2  0  0  0  0
 39 45  1  0  0  0  0
 40 41  1  0  0  0  0
 40 43  1  0  0  0  0
 41 42  1  0  0  0  0
 43 44  2  0  0  0  0
 44 45  1  0  0  0  0
M  CHG  4   8  -1   9  -1  11  -1  12  -1
M  END
>  <CHROM.1>
162.39956624,-176.18118920,96.53985030,13.09842926,96.57137018,-2.36149142
-0.65309199,-0.39672344

>  <Name>
ligand

>  <RI>
0

>  <Rbt.Current_Directory>
/home/itssahil/PROJECTS/Mol_Feturizer/New_Systems/rnas/4YAZ

>  <Rbt.Executable>
rbdock ($Id: //depot/dev/client3/rdock/2013.1/src/exe/rbdock.cxx#4 $)

>  <Rbt.Library>
libRbt.so (2013.1, Build901 2013/11/27)

>  <Rbt.Parameter_File>
/export/apps/rDock/src/rDock_2013.1_src/data/scripts/dock_solv.prm

>  <Rbt.Receptor>
prm/pocket_docking_8.prm

>  <SCORE>
-39.7807

>  <SCORE.INTER>
-39.789

>  <SCORE.INTER.CONST>
1

>  <SCORE.INTER.POLAR>
0

>  <SCORE.INTER.ROT>
2

>  <SCORE.INTER.SOLV>
27.7343

>  <SCORE.INTER.VDW>
-40.7041

>  <SCORE.INTER.norm>
-0.8842

>  <SCORE.INTRA>
0.00831607

>  <SCORE.INTRA.DIHEDRAL>
0.0245522

>  <SCORE.INTRA.DIHEDRAL.0>
2.39103

>  <SCORE.INTRA.POLAR>
0

>  <SCORE.INTRA.POLAR.0>
0

>  <SCORE.INTRA.REPUL>
0

>  <SCORE.INTRA.REPUL.0>
0

>  <SCORE.INTRA.SOLV>
0.840383

>  <SCORE.INTRA.SOLV.lig_0>
-163.975

>  <SCORE.INTRA.VDW>
-0.424151

>  <SCORE.INTRA.VDW.0>
-1.49176

>  <SCORE.INTRA.norm>
0.000184802

>  <SCORE.RESTR>
0

>  <SCORE.RESTR.CAVITY>
0

>  <SCORE.RESTR.norm>
0

>  <SCORE.SYSTEM>
0

>  <SCORE.SYSTEM.CONST>
0

>  <SCORE.SYSTEM.DIHEDRAL>
0

>  <SCORE.SYSTEM.SOLV>
0

>  <SCORE.SYSTEM.norm>
0

>  <SCORE.heavy>
45

>  <SCORE.norm>
-0.884015

>  <RMSD>
6.882

$$$$
ligand
 OpenBabel11021811513D
libRbt.so/2013.1/901 2013/11/27
 45 51  0  0  0  0  0  0  0  0999 V2000
   97.5279   10.0608   98.1596 C   0  0  0  0  0  0  0  0  0  0  0  0
   99.3240   12.2411   94.3639 C   0  0  0  0  0  0  0  0  0  0  0  0
   92.6336   10.4086   95.2738 N   0  0  0  0  0  0  0  0  0  0  0  0
   96.5918   10.5543   98.9036 N   0  0  0  0  0  0  0  0  0  0  0  0
   94.8387   10.0816   95.9717 N   0  0  0  0  0  0  0  0  0  0  0  0
   93.2768   10.9711   97.4499 N   0  0  0  0  0  0  0  0  0  0  0  0
   93.8867   11.5024   99.7127 O   0  0  0  0  0  0  0  0  0  0  0  0
  100.2313   14.8961   95.6697 O   0  5  0  0  0  0  0  0  0  0  0  0
   96.3891   10.6923   90.6041 O   0  5  0  0  0  0  0  0  0  0  0  0
   97.3704    8.3059   93.9181 O   0  0  0  0  0  0  0  0  0  0  0  0
   98.1596   15.0344   96.4710 O   0  5  0  0  0  0  0  0  0  0  0  0
   95.1912   10.1211   92.4027 O   0  5  0  0  0  0  0  0  0  0  0  0
   99.0304   12.8762   95.5433 O   0  0  0  0  0  0  0  0  0  0  0  0
   99.1161   10.1100   95.7446 O   0  0  0  0  0  0  0  0  0  0  0  0
   97.7001   10.5385   92.5772 O   0  0  0  0  0  0  0  0  0  0  0  0
   93.6401   10.5015   96.2823 C   0  0  0  0  0  0  0  0  0  0  0  0
   94.1683   11.0372   98.4295 C   0  0  0  0  0  0  0  0  0  0  0  0
   95.4921   10.6199   98.1641 C   0  0  0  0  0  0  0  0  0  0  0  0
   95.8033   10.1300   96.9196 C   0  0  0  0  0  0  0  0  0  0  0  0
   97.2321    9.3755   94.7763 C   0  0  2  0  0  0  0  0  0  0  0  0
   98.9492   10.8139   94.3868 C   0  0  1  0  0  0  0  0  0  0  0  0
   97.7733   10.6807   93.9909 C   0  0  1  0  0  0  0  0  0  0  0  0
   97.8711    9.2880   95.9281 C   0  0  2  0  0  0  0  0  0  0  0  0
   97.0972    9.8123   96.9783 N   0  0  0  0  0  0  0  0  0  0  0  0
   98.9265   14.4288   95.4394 P   0  0  2  0  0  0  0  0  0  0  0  0
   96.3252   10.9090   91.9855 P   0  0  1  0  0  0  0  0  0  0  0  0
   97.1493   13.3843   91.8594 C   0  0  0  0  0  0  0  0  0  0  0  0
   96.1006   12.4471   92.1523 O   0  0  0  0  0  0  0  0  0  0  0  0
   96.9541   14.7286   92.4225 C   0  0  1  0  0  0  0  0  0  0  0  0
   95.4180   15.1433   92.1959 O   0  0  0  0  0  0  0  0  0  0  0  0
   97.1161   14.7018   93.6686 C   0  0  1  0  0  0  0  0  0  0  0  0
   98.4972   14.9059   94.0459 O   0  0  0  0  0  0  0  0  0  0  0  0
   96.1606   15.7657   94.1875 C   0  0  1  0  0  0  0  0  0  0  0  0
   96.7026   16.9035   94.1300 O   0  0  0  0  0  0  0  0  0  0  0  0
   94.9858   15.7306   93.2099 C   0  0  2  0  0  0  0  0  0  0  0  0
   92.2295   14.8386   97.4574 N   0  0  0  0  0  0  0  0  0  0  0  0
   93.5251   15.2433   97.3912 C   0  0  0  0  0  0  0  0  0  0  0  0
   94.0485   15.4243   96.1847 N   0  0  0  0  0  0  0  0  0  0  0  0
   93.3997   15.1719   95.0279 C   0  0  0  0  0  0  0  0  0  0  0  0
   92.0530   14.7505   95.0558 C   0  0  0  0  0  0  0  0  0  0  0  0
   91.4915   14.5794   96.3614 C   0  0  0  0  0  0  0  0  0  0  0  0
   90.1426   14.1335   96.4864 N   0  0  0  0  0  0  0  0  0  0  0  0
   91.6799   14.6303   93.8301 N   0  0  0  0  0  0  0  0  0  0  0  0
   92.6863   14.9673   93.0423 C   0  0  0  0  0  0  0  0  0  0  0  0
   93.7267   15.2740   93.7314 N   0  0  0  0  0  0  0  0  0  0  0  0
  1 24  1  0  0  0  0
  1  4  2  0  0  0  0
  2 13  1  0  0  0  0
  2 21  1  0  0  0  0
  3 16  1  0  0  0  0
  4 18  1  0  0  0  0
  5 19  2  0  0  0  0
  5 16  1  0  0  0  0
  6 16  2  0  0  0  0
  6 17  1  0  0  0  0
  7 17  1  0  0  0  0
 11 25  2  0  0  0  0
 12 26  2  0  0  0  0
 13 25  1  0  0  0  0
 14 23  1  0  0  0  0
 15 26  1  0  0  0  0
 17 18  2  0  0  0  0
 18 19  1  0  0  0  0
 19 24  1  0  0  0  0
 20 10  1  6  0  0  0
 20 22  1  0  0  0  0
 20 23  1  0  0  0  0
 21 14  1  1  0  0  0
 21 22  1  0  0  0  0
 22 15  1  6  0  0  0
 23 24  1  1  0  0  0
 25  8  1  1  0  0  0
 25 32  1  0  0  0  0
 26  9  1  6  0  0  0
 26 28  1  0  0  0  0
 27 28  1  0  0  0  0
 29 27  1  1  0  0  0
 29 30  1  0  0  0  0
 29 31  1  0  0  0  0
 30 35  1  0  0  0  0
 31 33  1  0  0  0  0
 31 32  1  6  0  0  0
 33 34  1  6  0  0  0
 33 35  1  0  0  0  0
 35 45  1  1  0  0  0
 36 41  2  0  0  0  0
 36 37  1  0  0  0  0
 37 38  2  0  0  0  0
 38 39  1  0  0  0  0
 39 40  2  0  0  0  0
 39 45  1  0  0  0  0
 40 41  1  0  0  0  0
 40 43  1  0  0  0  0
 41 42  1  0  0  0  0
 43 44  2  0  0  0  0
 44 45  1  0  0  0  0
M  CHG  4   8  -1   9  -1  11  -1  12  -1
M  END
>  <CHROM.1>
-52.32191655,142.02813769,95.93757152,12.63521471,94.94446813,0.36313069
-0.52250271,2.55757327

>  <Name>
ligand

>  <RI>
0

>  <Rbt.Current_Directory>
/home/itssahil/PROJECTS/Mol_Feturizer/New_Systems/rnas/4YAZ

>  <Rbt.Executable>
rbdock ($Id: //depot/dev/client3/rdock/2013.1/src/exe/rbdock.cxx#4 $)

>  <Rbt.Library>
libRbt.so (2013.1, Build901 2013/11/27)

>  <Rbt.Parameter_File>
/export/apps/rDock/src/rDock_2013.1_src/data/scripts/dock_solv.prm

>  <Rbt.Receptor>
prm/pocket_docking_5.prm

>  <SCORE>
-16.7754

>  <SCORE.INTER>
-17.791

>  <SCORE.INTER.CONST>
1

>  <SCORE.INTER.POLAR>
0

>  <SCORE.INTER.ROT>
2

>  <SCORE.INTER.SOLV>
27.9934

>  <SCORE.INTER.VDW>
-26.1251

>  <SCORE.INTER.norm>
-0.395356

>  <SCORE.INTRA>
1.01565

>  <SCORE.INTRA.DIHEDRAL>
-0.11084

>  <SCORE.INTRA.DIHEDRAL.0>
2.39103

>  <SCORE.INTRA.POLAR>
0

>  <SCORE.INTRA.POLAR.0>
0

>  <SCORE.INTRA.REPUL>
0

>  <SCORE.INTRA.REPUL.0>
0

>  <SCORE.INTRA.SOLV>
1.4906

>  <SCORE.INTRA.SOLV.lig_0>
-163.975

>  <SCORE.INTRA.VDW>
0.325771

>  <SCORE.INTRA.VDW.0>
-1.49176

>  <SCORE.INTRA.norm>
0.02257

>  <SCORE.RESTR>
0

>  <SCORE.RESTR.CAVITY>
0

>  <SCORE.RESTR.norm>
0

>  <SCORE.SYSTEM>
0

>  <SCORE.SYSTEM.CONST>
0

>  <SCORE.SYSTEM.DIHEDRAL>
0

>  <SCORE.SYSTEM.SOLV>
0

>  <SCORE.SYSTEM.norm>
0

>  <SCORE.heavy>
45

>  <SCORE.norm>
-0.372786

>  <RMSD>
6.904

$$$$
ligand
 OpenBabel11021811513D
libRbt.so/2013.1/901 2013/11/27
 45 51  0  0  0  0  0  0  0  0999 V2000
   96.4809    9.6972   97.9682 C   0  0  0  0  0  0  0  0  0  0  0  0
   95.2926   11.1866   94.3567 C   0  0  0  0  0  0  0  0  0  0  0  0
   93.9701   11.1986  102.8513 N   0  0  0  0  0  0  0  0  0  0  0  0
   97.3528    9.8023   98.9180 N   0  0  0  0  0  0  0  0  0  0  0  0
   94.4852   10.6321  100.6445 N   0  0  0  0  0  0  0  0  0  0  0  0
   96.1819   10.7634  102.2318 N   0  0  0  0  0  0  0  0  0  0  0  0
   98.4577   10.2619  101.6455 O   0  0  0  0  0  0  0  0  0  0  0  0
   98.0153   10.7294   92.9584 O   0  5  0  0  0  0  0  0  0  0  0  0
   92.2900   14.9995   95.6194 O   0  5  0  0  0  0  0  0  0  0  0  0
   92.2455   11.2707   97.5518 O   0  0  0  0  0  0  0  0  0  0  0  0
   98.9317   11.5915   94.7943 O   0  5  0  0  0  0  0  0  0  0  0  0
   93.1082   14.3680   97.6013 O   0  5  0  0  0  0  0  0  0  0  0  0
   96.5439   10.8329   94.7921 O   0  0  0  0  0  0  0  0  0  0  0  0
   94.4792    9.6060   96.1817 O   0  0  0  0  0  0  0  0  0  0  0  0
   93.1431   12.7843   95.6039 O   0  0  0  0  0  0  0  0  0  0  0  0
   94.9315   10.8565  101.8527 C   0  0  0  0  0  0  0  0  0  0  0  0
   97.1041   10.4081  101.3475 C   0  0  0  0  0  0  0  0  0  0  0  0
   96.7012   10.1682  100.0144 C   0  0  0  0  0  0  0  0  0  0  0  0
   95.3721   10.2758   99.6865 C   0  0  0  0  0  0  0  0  0  0  0  0
   93.6211   11.1924   97.5132 C   0  0  2  0  0  0  0  0  0  0  0  0
   94.2452   10.8786   95.3496 C   0  0  1  0  0  0  0  0  0  0  0  0
   94.0897   11.8527   96.1140 C   0  0  1  0  0  0  0  0  0  0  0  0
   94.1409    9.9819   97.5971 C   0  0  2  0  0  0  0  0  0  0  0  0
   95.3039    9.9834   98.3872 N   0  0  0  0  0  0  0  0  0  0  0  0
   97.7171   11.5517   94.0579 P   0  0  2  0  0  0  0  0  0  0  0  0
   93.2975   14.2061   96.1805 P   0  0  1  0  0  0  0  0  0  0  0  0
   95.0348   14.6849   94.2899 C   0  0  0  0  0  0  0  0  0  0  0  0
   94.6404   14.8180   95.6649 O   0  0  0  0  0  0  0  0  0  0  0  0
   96.4583   14.9423   94.0258 C   0  0  1  0  0  0  0  0  0  0  0  0
   96.8913   16.2430   94.8647 O   0  0  0  0  0  0  0  0  0  0  0  0
   97.1578   14.0009   94.4778 C   0  0  1  0  0  0  0  0  0  0  0  0
   97.3253   12.9330   93.5171 O   0  0  0  0  0  0  0  0  0  0  0  0
   98.4549   14.6748   94.8987 C   0  0  1  0  0  0  0  0  0  0  0  0
   99.2280   14.7890   93.9082 O   0  0  0  0  0  0  0  0  0  0  0  0
   98.0280   16.0707   95.3527 C   0  0  2  0  0  0  0  0  0  0  0  0
  101.1353   15.7625   99.4373 N   0  0  0  0  0  0  0  0  0  0  0  0
  101.3587   15.2530   98.1974 C   0  0  0  0  0  0  0  0  0  0  0  0
  100.4238   15.4531   97.2764 N   0  0  0  0  0  0  0  0  0  0  0  0
   99.2458   16.0705   97.5091 C   0  0  0  0  0  0  0  0  0  0  0  0
   98.9774   16.6131   98.7840 C   0  0  0  0  0  0  0  0  0  0  0  0
  100.0012   16.4109   99.7639 C   0  0  0  0  0  0  0  0  0  0  0  0
   99.8060   16.9053  101.0873 N   0  0  0  0  0  0  0  0  0  0  0  0
   97.8210   17.1726   98.7094 N   0  0  0  0  0  0  0  0  0  0  0  0
   97.3603   17.0384   97.4779 C   0  0  0  0  0  0  0  0  0  0  0  0
   98.1812   16.3688   96.7504 N   0  0  0  0  0  0  0  0  0  0  0  0
  1 24  1  0  0  0  0
  1  4  2  0  0  0  0
  2 13  1  0  0  0  0
  2 21  1  0  0  0  0
  3 16  1  0  0  0  0
  4 18  1  0  0  0  0
  5 19  2  0  0  0  0
  5 16  1  0  0  0  0
  6 16  2  0  0  0  0
  6 17  1  0  0  0  0
  7 17  1  0  0  0  0
 11 25  2  0  0  0  0
 12 26  2  0  0  0  0
 13 25  1  0  0  0  0
 14 23  1  0  0  0  0
 15 26  1  0  0  0  0
 17 18  2  0  0  0  0
 18 19  1  0  0  0  0
 19 24  1  0  0  0  0
 20 10  1  6  0  0  0
 20 22  1  0  0  0  0
 20 23  1  0  0  0  0
 21 14  1  1  0  0  0
 21 22  1  0  0  0  0
 22 15  1  6  0  0  0
 23 24  1  1  0  0  0
 25  8  1  6  0  0  0
 25 32  1  0  0  0  0
 26  9  1  6  0  0  0
 26 28  1  0  0  0  0
 27 28  1  0  0  0  0
 29 27  1  1  0  0  0
 29 30  1  0  0  0  0
 29 31  1  0  0  0  0
 30 35  1  0  0  0  0
 31 33  1  0  0  0  0
 31 32  1  6  0  0  0
 33 34  1  6  0  0  0
 33 35  1  0  0  0  0
 35 45  1  1  0  0  0
 36 41  2  0  0  0  0
 36 37  1  0  0  0  0
 37 38  2  0  0  0  0
 38 39  1  0  0  0  0
 39 40  2  0  0  0  0
 39 45  1  0  0  0  0
 40 41  1  0  0  0  0
 40 43  1  0  0  0  0
 41 42  1  0  0  0  0
 43 44  2  0  0  0  0
 44 45  1  0  0  0  0
M  CHG  4   8  -1   9  -1  11  -1  12  -1
M  END
>  <CHROM.1>
-0.47028101,169.48030604,96.44581222,13.02294250,97.07320519,-2.49992271
-0.75655681,-1.22335509

>  <Name>
ligand

>  <RI>
0

>  <Rbt.Current_Directory>
/home/itssahil/PROJECTS/Mol_Feturizer/New_Systems/rnas/4YAZ

>  <Rbt.Executable>
rbdock ($Id: //depot/dev/client3/rdock/2013.1/src/exe/rbdock.cxx#4 $)

>  <Rbt.Library>
libRbt.so (2013.1, Build901 2013/11/27)

>  <Rbt.Parameter_File>
/export/apps/rDock/src/rDock_2013.1_src/data/scripts/dock_solv.prm

>  <Rbt.Receptor>
prm/pocket_docking_3.prm

>  <SCORE>
-40.0888

>  <SCORE.INTER>
-39.9167

>  <SCORE.INTER.CONST>
1

>  <SCORE.INTER.POLAR>
0

>  <SCORE.INTER.ROT>
2

>  <SCORE.INTER.SOLV>
37.092

>  <SCORE.INTER.VDW>
-43.9085

>  <SCORE.INTER.norm>
-0.887038

>  <SCORE.INTRA>
-0.172058

>  <SCORE.INTRA.DIHEDRAL>
-0.075893

>  <SCORE.INTRA.DIHEDRAL.0>
2.39103

>  <SCORE.INTRA.POLAR>
0

>  <SCORE.INTRA.POLAR.0>
0

>  <SCORE.INTRA.REPUL>
0

>  <SCORE.INTRA.REPUL.0>
0

>  <SCORE.INTRA.SOLV>
-0.00567915

>  <SCORE.INTRA.SOLV.lig_0>
-163.975

>  <SCORE.INTRA.VDW>
-0.131272

>  <SCORE.INTRA.VDW.0>
-1.49176

>  <SCORE.INTRA.norm>
-0.00382351

>  <SCORE.RESTR>
0

>  <SCORE.RESTR.CAVITY>
0

>  <SCORE.RESTR.norm>
0

>  <SCORE.SYSTEM>
0

>  <SCORE.SYSTEM.CONST>
0

>  <SCORE.SYSTEM.DIHEDRAL>
0

>  <SCORE.SYSTEM.SOLV>
0

>  <SCORE.SYSTEM.norm>
0

>  <SCORE.heavy>
45

>  <SCORE.norm>
-0.890862

>  <RMSD>
6.914

$$$$
ligand
 OpenBabel11021811513D
libRbt.so/2013.1/901 2013/11/27
 45 51  0  0  0  0  0  0  0  0999 V2000
   96.4765    9.7396   97.9912 C   0  0  0  0  0  0  0  0  0  0  0  0
   95.2828   11.2109   94.3841 C   0  0  0  0  0  0  0  0  0  0  0  0
   93.9678   11.1653  102.8981 N   0  0  0  0  0  0  0  0  0  0  0  0
   97.3499    9.8380   98.9403 N   0  0  0  0  0  0  0  0  0  0  0  0
   94.4813   10.6293  100.6833 N   0  0  0  0  0  0  0  0  0  0  0  0
   96.1808   10.7509  102.2684 N   0  0  0  0  0  0  0  0  0  0  0  0
   98.4581   10.2702  101.6710 O   0  0  0  0  0  0  0  0  0  0  0  0
   98.0007   10.7419   92.9804 O   0  5  0  0  0  0  0  0  0  0  0  0
   92.2965   15.0363   95.6478 O   0  5  0  0  0  0  0  0  0  0  0  0
   92.2430   11.3105   97.5858 O   0  0  0  0  0  0  0  0  0  0  0  0
   98.9243   11.6035   94.8130 O   0  5  0  0  0  0  0  0  0  0  0  0
   93.1168   14.4048   97.6288 O   0  5  0  0  0  0  0  0  0  0  0  0
   96.5338   10.8534   94.8172 O   0  0  0  0  0  0  0  0  0  0  0  0
   94.4678    9.6358   96.2132 O   0  0  0  0  0  0  0  0  0  0  0  0
   93.1417   12.8180   95.6337 O   0  0  0  0  0  0  0  0  0  0  0  0
   94.9290   10.8413  101.8932 C   0  0  0  0  0  0  0  0  0  0  0  0
   97.1031   10.4121  101.3777 C   0  0  0  0  0  0  0  0  0  0  0  0
   96.6986   10.1864  100.0426 C   0  0  0  0  0  0  0  0  0  0  0  0
   95.3682   10.2902   99.7190 C   0  0  0  0  0  0  0  0  0  0  0  0
   93.6183   11.2273   97.5442 C   0  0  2  0  0  0  0  0  0  0  0  0
   94.2365   10.9081   95.3798 C   0  0  1  0  0  0  0  0  0  0  0  0
   94.0862   11.8838   96.1431 C   0  0  1  0  0  0  0  0  0  0  0  0
   94.1339   10.0151   97.6288 C   0  0  2  0  0  0  0  0  0  0  0  0
   95.2987   10.0136   98.4163 N   0  0  0  0  0  0  0  0  0  0  0  0
   97.7079   11.5670   94.0793 P   0  0  2  0  0  0  0  0  0  0  0  0
   93.3024   14.2401   96.2078 P   0  0  1  0  0  0  0  0  0  0  0  0
   95.0372   14.7100   94.3126 C   0  0  0  0  0  0  0  0  0  0  0  0
   94.6463   14.8465   95.6883 O   0  0  0  0  0  0  0  0  0  0  0  0
   96.4610   14.9620   94.0450 C   0  0  1  0  0  0  0  0  0  0  0  0
   96.9005   16.2623   94.8810 O   0  0  0  0  0  0  0  0  0  0  0  0
   97.1581   14.0188   94.4968 C   0  0  1  0  0  0  0  0  0  0  0  0
   97.3197   12.9488   93.5373 O   0  0  0  0  0  0  0  0  0  0  0  0
   98.4586   14.6886   94.9138 C   0  0  1  0  0  0  0  0  0  0  0  0
   99.2299   14.7986   93.9215 O   0  0  0  0  0  0  0  0  0  0  0  0
   98.0377   16.0867   95.3667 C   0  0  2  0  0  0  0  0  0  0  0  0
  101.1630   15.7965   99.4388 N   0  0  0  0  0  0  0  0  0  0  0  0
  101.3840   15.2874   98.1983 C   0  0  0  0  0  0  0  0  0  0  0  0
  100.4444   15.4823   97.2810 N   0  0  0  0  0  0  0  0  0  0  0  0
   99.2642   16.0938   97.5181 C   0  0  0  0  0  0  0  0  0  0  0  0
   98.9982   16.6357   98.7939 C   0  0  0  0  0  0  0  0  0  0  0  0
  100.0270   16.4392   99.7697 C   0  0  0  0  0  0  0  0  0  0  0  0
   99.8346   16.9334  101.0936 N   0  0  0  0  0  0  0  0  0  0  0  0
   97.8387   17.1893   98.7237 N   0  0  0  0  0  0  0  0  0  0  0  0
   97.3737   17.0522   97.4941 C   0  0  0  0  0  0  0  0  0  0  0  0
   98.1950   16.3864   96.7637 N   0  0  0  0  0  0  0  0  0  0  0  0
  1 24  1  0  0  0  0
  1  4  2  0  0  0  0
  2 13  1  0  0  0  0
  2 21  1  0  0  0  0
  3 16  1  0  0  0  0
  4 18  1  0  0  0  0
  5 19  2  0  0  0  0
  5 16  1  0  0  0  0
  6 16  2  0  0  0  0
  6 17  1  0  0  0  0
  7 17  1  0  0  0  0
 11 25  2  0  0  0  0
 12 26  2  0  0  0  0
 13 25  1  0  0  0  0
 14 23  1  0  0  0  0
 15 26  1  0  0  0  0
 17 18  2  0  0  0  0
 18 19  1  0  0  0  0
 19 24  1  0  0  0  0
 20 10  1  6  0  0  0
 20 22  1  0  0  0  0
 20 23  1  0  0  0  0
 21 14  1  1  0  0  0
 21 22  1  0  0  0  0
 22 15  1  6  0  0  0
 23 24  1  1  0  0  0
 25  8  1  6  0  0  0
 25 32  1  0  0  0  0
 26  9  1  6  0  0  0
 26 28  1  0  0  0  0
 27 28  1  0  0  0  0
 29 27  1  1  0  0  0
 29 30  1  0  0  0  0
 29 31  1  0  0  0  0
 30 35  1  0  0  0  0
 31 33  1  0  0  0  0
 31 32  1  6  0  0  0
 33 34  1  6  0  0  0
 33 35  1  0  0  0  0
 35 45  1  1  0  0  0
 36 41  2  0  0  0  0
 36 37  1  0  0  0  0
 37 38  2  0  0  0  0
 38 39  1  0  0  0  0
 39 40  2  0  0  0  0
 39 45  1  0  0  0  0
 40 41  1  0  0  0  0
 40 43  1  0  0  0  0
 41 42  1  0  0  0  0
 43 44  2  0  0  0  0
 44 45  1  0  0  0  0
M  CHG  4   8  -1   9  -1  11  -1  12  -1
M  END
>  <CHROM.1>
0.49376651,169.98841751,96.44842614,13.04387362,97.09596397,-2.48975129,-0.75252702
-1.22007673

>  <Name>
ligand

>  <RI>
0

>  <Rbt.Current_Directory>
/home/itssahil/PROJECTS/Mol_Feturizer/New_Systems/rnas/4YAZ

>  <Rbt.Executable>
rbdock ($Id: //depot/dev/client3/rdock/2013.1/src/exe/rbdock.cxx#4 $)

>  <Rbt.Library>
libRbt.so (2013.1, Build901 2013/11/27)

>  <Rbt.Parameter_File>
/export/apps/rDock/src/rDock_2013.1_src/data/scripts/dock_solv.prm

>  <Rbt.Receptor>
prm/pocket_docking_3.prm

>  <SCORE>
-40.0754

>  <SCORE.INTER>
-39.8857

>  <SCORE.INTER.CONST>
1

>  <SCORE.INTER.POLAR>
0

>  <SCORE.INTER.ROT>
2

>  <SCORE.INTER.SOLV>
37.4665

>  <SCORE.INTER.VDW>
-44.0126

>  <SCORE.INTER.norm>
-0.886349

>  <SCORE.INTRA>
-0.189753

>  <SCORE.INTRA.DIHEDRAL>
-0.0727325

>  <SCORE.INTRA.DIHEDRAL.0>
2.39103

>  <SCORE.INTRA.POLAR>
0

>  <SCORE.INTRA.POLAR.0>
0

>  <SCORE.INTRA.REPUL>
0

>  <SCORE.INTRA.REPUL.0>
0

>  <SCORE.INTRA.SOLV>
-0.00771296

>  <SCORE.INTRA.SOLV.lig_0>
-163.975

>  <SCORE.INTRA.VDW>
-0.14953

>  <SCORE.INTRA.VDW.0>
-1.49176

>  <SCORE.INTRA.norm>
-0.00421673

>  <SCORE.RESTR>
0

>  <SCORE.RESTR.CAVITY>
0

>  <SCORE.RESTR.norm>
0

>  <SCORE.SYSTEM>
0

>  <SCORE.SYSTEM.CONST>
0

>  <SCORE.SYSTEM.DIHEDRAL>
0

>  <SCORE.SYSTEM.SOLV>
0

>  <SCORE.SYSTEM.norm>
0

>  <SCORE.heavy>
45

>  <SCORE.norm>
-0.890566

>  <RMSD>
6.921

$$$$
ligand
 OpenBabel11021811513D
libRbt.so/2013.1/901 2013/11/27
 45 51  0  0  0  0  0  0  0  0999 V2000
   96.5508    9.8410   98.6117 C   0  0  0  0  0  0  0  0  0  0  0  0
   95.5528   10.8661   94.8374 C   0  0  0  0  0  0  0  0  0  0  0  0
   93.6748   11.2576  103.3154 N   0  0  0  0  0  0  0  0  0  0  0  0
   97.3589   10.0218   99.6054 N   0  0  0  0  0  0  0  0  0  0  0  0
   94.3498   10.6873  101.1531 N   0  0  0  0  0  0  0  0  0  0  0  0
   95.9420   10.9614  102.8282 N   0  0  0  0  0  0  0  0  0  0  0  0
   98.2754   10.6040  102.3789 O   0  0  0  0  0  0  0  0  0  0  0  0
   98.3577   10.3169   93.6506 O   0  5  0  0  0  0  0  0  0  0  0  0
   92.4465   14.7380   95.5494 O   0  5  0  0  0  0  0  0  0  0  0  0
   92.3208   11.2111   97.8266 O   0  0  0  0  0  0  0  0  0  0  0  0
   99.1558   11.3642   95.4450 O   0  5  0  0  0  0  0  0  0  0  0  0
   93.1512   14.3113   97.6273 O   0  5  0  0  0  0  0  0  0  0  0  0
   96.7792   10.5740   95.3770 O   0  0  0  0  0  0  0  0  0  0  0  0
   94.6467    9.4557   96.7559 O   0  0  0  0  0  0  0  0  0  0  0  0
   93.3189   12.5442   95.7974 O   0  0  0  0  0  0  0  0  0  0  0  0
   94.7115   10.9630  102.3789 C   0  0  0  0  0  0  0  0  0  0  0  0
   96.9341   10.6532  102.0038 C   0  0  0  0  0  0  0  0  0  0  0  0
   96.6237   10.3626  100.6561 C   0  0  0  0  0  0  0  0  0  0  0  0
   95.3110   10.3744  100.2534 C   0  0  0  0  0  0  0  0  0  0  0  0
   93.6969   11.1497   97.8759 C   0  0  2  0  0  0  0  0  0  0  0  0
   94.4511   10.6393   95.7927 C   0  0  1  0  0  0  0  0  0  0  0  0
   94.2418   11.6797   96.4492 C   0  0  1  0  0  0  0  0  0  0  0  0
   94.2216    9.9605   98.1064 C   0  0  2  0  0  0  0  0  0  0  0  0
   95.3356   10.0547   98.9590 N   0  0  0  0  0  0  0  0  0  0  0  0
   97.9874   11.2363   94.6464 P   0  0  2  0  0  0  0  0  0  0  0  0
   93.4259   14.0168   96.2421 P   0  0  1  0  0  0  0  0  0  0  0  0
   95.2680   14.3377   94.4185 C   0  0  0  0  0  0  0  0  0  0  0  0
   94.7916   14.5961   95.7489 O   0  0  0  0  0  0  0  0  0  0  0  0
   96.7023   14.5895   94.2141 C   0  0  1  0  0  0  0  0  0  0  0  0
   97.0732   15.9707   94.9474 O   0  0  0  0  0  0  0  0  0  0  0  0
   97.3822   13.7060   94.7948 C   0  0  1  0  0  0  0  0  0  0  0  0
   97.6160   12.5535   93.9530 O   0  0  0  0  0  0  0  0  0  0  0  0
   98.6460   14.4360   95.2235 C   0  0  1  0  0  0  0  0  0  0  0  0
   99.4755   14.4661   94.2733 O   0  0  0  0  0  0  0  0  0  0  0  0
   98.1804   15.8626   95.5151 C   0  0  2  0  0  0  0  0  0  0  0  0
  100.9902   15.8855   99.8208 N   0  0  0  0  0  0  0  0  0  0  0  0
  101.2808   15.2485   98.6560 C   0  0  0  0  0  0  0  0  0  0  0  0
  100.4179   15.3793   97.6556 N   0  0  0  0  0  0  0  0  0  0  0  0
   99.2477   16.0473   97.7422 C   0  0  0  0  0  0  0  0  0  0  0  0
   98.9110   16.7218   98.9353 C   0  0  0  0  0  0  0  0  0  0  0  0
   99.8584   16.5925  100.0006 C   0  0  0  0  0  0  0  0  0  0  0  0
   99.5898   17.2222  101.2517 N   0  0  0  0  0  0  0  0  0  0  0  0
   97.7814   17.3008   98.7240 N   0  0  0  0  0  0  0  0  0  0  0  0
   97.4015   17.0557   97.4820 C   0  0  0  0  0  0  0  0  0  0  0  0
   98.2476   16.2954   96.8841 N   0  0  0  0  0  0  0  0  0  0  0  0
  1 24  1  0  0  0  0
  1  4  2  0  0  0  0
  2 13  1  0  0  0  0
  2 21  1  0  0  0  0
  3 16  1  0  0  0  0
  4 18  1  0  0  0  0
  5 19  2  0  0  0  0
  5 16  1  0  0  0  0
  6 16  2  0  0  0  0
  6 17  1  0  0  0  0
  7 17  1  0  0  0  0
 11 25  2  0  0  0  0
 12 26  2  0  0  0  0
 13 25  1  0  0  0  0
 14 23  1  0  0  0  0
 15 26  1  0  0  0  0
 17 18  2  0  0  0  0
 18 19  1  0  0  0  0
 19 24  1  0  0  0  0
 20 10  1  6  0  0  0
 20 22  1  0  0  0  0
 20 23  1  0  0  0  0
 21 14  1  1  0  0  0
 21 22  1  0  0  0  0
 22 15  1  6  0  0  0
 23 24  1  1  0  0  0
 25  8  1  6  0  0  0
 25 32  1  0  0  0  0
 26  9  1  6  0  0  0
 26 28  1  0  0  0  0
 27 28  1  0  0  0  0
 29 27  1  1  0  0  0
 29 30  1  0  0  0  0
 29 31  1  0  0  0  0
 30 35  1  0  0  0  0
 31 33  1  0  0  0  0
 31 32  1  6  0  0  0
 33 34  1  6  0  0  0
 33 35  1  0  0  0  0
 35 45  1  1  0  0  0
 36 41  2  0  0  0  0
 36 37  1  0  0  0  0
 37 38  2  0  0  0  0
 38 39  1  0  0  0  0
 39 40  2  0  0  0  0
 39 45  1  0  0  0  0
 40 41  1  0  0  0  0
 40 43  1  0  0  0  0
 41 42  1  0  0  0  0
 43 44  2  0  0  0  0
 44 45  1  0  0  0  0
M  CHG  4   8  -1   9  -1  11  -1  12  -1
M  END
>  <CHROM.1>
4.92955953,167.02809822,96.51859359,12.93443591,97.43748727,-2.47247982,-0.78105056
-1.34082752

>  <Name>
ligand

>  <RI>
0

>  <Rbt.Current_Directory>
/home/itssahil/PROJECTS/Mol_Feturizer/New_Systems/rnas/4YAZ

>  <Rbt.Executable>
rbdock ($Id: //depot/dev/client3/rdock/2013.1/src/exe/rbdock.cxx#4 $)

>  <Rbt.Library>
libRbt.so (2013.1, Build901 2013/11/27)

>  <Rbt.Parameter_File>
/export/apps/rDock/src/rDock_2013.1_src/data/scripts/dock_solv.prm

>  <Rbt.Receptor>
prm/pocket_docking_3.prm

>  <SCORE>
-41.5096

>  <SCORE.INTER>
-41.264

>  <SCORE.INTER.CONST>
1

>  <SCORE.INTER.POLAR>
0

>  <SCORE.INTER.ROT>
2

>  <SCORE.INTER.SOLV>
40.5387

>  <SCORE.INTER.VDW>
-45.9556

>  <SCORE.INTER.norm>
-0.916979

>  <SCORE.INTRA>
-0.245593

>  <SCORE.INTRA.DIHEDRAL>
-0.087413

>  <SCORE.INTRA.DIHEDRAL.0>
2.39103

>  <SCORE.INTRA.POLAR>
0

>  <SCORE.INTRA.POLAR.0>
0

>  <SCORE.INTRA.REPUL>
0

>  <SCORE.INTRA.REPUL.0>
0

>  <SCORE.INTRA.SOLV>
-0.0118318

>  <SCORE.INTRA.SOLV.lig_0>
-163.975

>  <SCORE.INTRA.VDW>
-0.19597

>  <SCORE.INTRA.VDW.0>
-1.49176

>  <SCORE.INTRA.norm>
-0.00545762

>  <SCORE.RESTR>
0

>  <SCORE.RESTR.CAVITY>
0

>  <SCORE.RESTR.norm>
0

>  <SCORE.SYSTEM>
0

>  <SCORE.SYSTEM.CONST>
0

>  <SCORE.SYSTEM.DIHEDRAL>
0

>  <SCORE.SYSTEM.SOLV>
0

>  <SCORE.SYSTEM.norm>
0

>  <SCORE.heavy>
45

>  <SCORE.norm>
-0.922436

>  <RMSD>
6.939

$$$$
ligand
 OpenBabel11021811513D
libRbt.so/2013.1/901 2013/11/27
 45 51  0  0  0  0  0  0  0  0999 V2000
   96.5572    9.6939   98.4670 C   0  0  0  0  0  0  0  0  0  0  0  0
   95.4756   10.8674   94.7242 C   0  0  0  0  0  0  0  0  0  0  0  0
   93.8859   11.4297  103.1844 N   0  0  0  0  0  0  0  0  0  0  0  0
   97.3997    9.8648   99.4336 N   0  0  0  0  0  0  0  0  0  0  0  0
   94.4724   10.7480  101.0285 N   0  0  0  0  0  0  0  0  0  0  0  0
   96.1203   10.9928  102.6534 N   0  0  0  0  0  0  0  0  0  0  0  0
   98.4185   10.4925  102.1611 O   0  0  0  0  0  0  0  0  0  0  0  0
   98.2365   10.2986   93.4471 O   0  5  0  0  0  0  0  0  0  0  0  0
   92.4497   14.7708   95.5934 O   0  5  0  0  0  0  0  0  0  0  0  0
   92.3364   11.2061   97.8116 O   0  0  0  0  0  0  0  0  0  0  0  0
   99.1016   11.3021   95.2354 O   0  5  0  0  0  0  0  0  0  0  0  0
   93.2074   14.2969   97.6421 O   0  5  0  0  0  0  0  0  0  0  0  0
   96.7124   10.5479   95.2228 O   0  0  0  0  0  0  0  0  0  0  0  0
   94.6039    9.4364   96.6434 O   0  0  0  0  0  0  0  0  0  0  0  0
   93.2957   12.5604   95.7777 O   0  0  0  0  0  0  0  0  0  0  0  0
   94.8804   11.0462  102.2343 C   0  0  0  0  0  0  0  0  0  0  0  0
   97.0724   10.6020  101.8170 C   0  0  0  0  0  0  0  0  0  0  0  0
   96.7117   10.2819  100.4887 C   0  0  0  0  0  0  0  0  0  0  0  0
   95.3914   10.3516  100.1177 C   0  0  0  0  0  0  0  0  0  0  0  0
   93.7123   11.1238   97.8198 C   0  0  2  0  0  0  0  0  0  0  0  0
   94.3985   10.6396   95.7070 C   0  0  1  0  0  0  0  0  0  0  0  0
   94.2239   11.6711   96.3873 C   0  0  1  0  0  0  0  0  0  0  0  0
   94.2255    9.9231   98.0142 C   0  0  2  0  0  0  0  0  0  0  0  0
   95.3649    9.9859   98.8356 N   0  0  0  0  0  0  0  0  0  0  0  0
   97.9089   11.2055   94.4690 P   0  0  2  0  0  0  0  0  0  0  0  0
   93.4377   14.0231   96.2447 P   0  0  1  0  0  0  0  0  0  0  0  0
   95.2311   14.3497   94.3742 C   0  0  0  0  0  0  0  0  0  0  0  0
   94.7971   14.5913   95.7222 O   0  0  0  0  0  0  0  0  0  0  0  0
   96.6626   14.5842   94.1326 C   0  0  1  0  0  0  0  0  0  0  0  0
   97.0752   15.9465   94.8788 O   0  0  0  0  0  0  0  0  0  0  0  0
   97.3455   13.6807   94.6778 C   0  0  1  0  0  0  0  0  0  0  0  0
   97.5376   12.5401   93.8097 O   0  0  0  0  0  0  0  0  0  0  0  0
   98.6320   14.3844   95.0823 C   0  0  1  0  0  0  0  0  0  0  0  0
   99.4341   14.4194   94.1091 O   0  0  0  0  0  0  0  0  0  0  0  0
   98.1965   15.8122   95.4121 C   0  0  2  0  0  0  0  0  0  0  0  0
  101.2405   15.9602   99.5529 N   0  0  0  0  0  0  0  0  0  0  0  0
  101.5108   15.3726   98.3577 C   0  0  0  0  0  0  0  0  0  0  0  0
  100.5842   15.4577   97.4109 N   0  0  0  0  0  0  0  0  0  0  0  0
   99.3736   16.0311   97.5799 C   0  0  0  0  0  0  0  0  0  0  0  0
   99.0561   16.6520   98.8070 C   0  0  0  0  0  0  0  0  0  0  0  0
  100.0705   16.5735   99.8139 C   0  0  0  0  0  0  0  0  0  0  0  0
   99.8276   17.1536  101.0940 N   0  0  0  0  0  0  0  0  0  0  0  0
   97.8754   17.1462   98.6743 N   0  0  0  0  0  0  0  0  0  0  0  0
   97.4442   16.8992   97.4496 C   0  0  0  0  0  0  0  0  0  0  0  0
   98.3096   16.2196   96.7859 N   0  0  0  0  0  0  0  0  0  0  0  0
  1 24  1  0  0  0  0
  1  4  2  0  0  0  0
  2 13  1  0  0  0  0
  2 21  1  0  0  0  0
  3 16  1  0  0  0  0
  4 18  1  0  0  0  0
  5 19  2  0  0  0  0
  5 16  1  0  0  0  0
  6 16  2  0  0  0  0
  6 17  1  0  0  0  0
  7 17  1  0  0  0  0
 11 25  2  0  0  0  0
 12 26  2  0  0  0  0
 13 25  1  0  0  0  0
 14 23  1  0  0  0  0
 15 26  1  0  0  0  0
 17 18  2  0  0  0  0
 18 19  1  0  0  0  0
 19 24  1  0  0  0  0
 20 10  1  6  0  0  0
 20 22  1  0  0  0  0
 20 23  1  0  0  0  0
 21 14  1  1  0  0  0
 21 22  1  0  0  0  0
 22 15  1  6  0  0  0
 23 24  1  1  0  0  0
 25  8  1  6  0  0  0
 25 32  1  0  0  0  0
 26  9  1  6  0  0  0
 26 28  1  0  0  0  0
 27 28  1  0  0  0  0
 29 27  1  1  0  0  0
 29 30  1  0  0  0  0
 29 31  1  0  0  0  0
 30 35  1  0  0  0  0
 31 33  1  0  0  0  0
 31 32  1  6  0  0  0
 33 34  1  6  0  0  0
 33 35  1  0  0  0  0
 35 45  1  1  0  0  0
 36 41  2  0  0  0  0
 36 37  1  0  0  0  0
 37 38  2  0  0  0  0
 38 39  1  0  0  0  0
 39 40  2  0  0  0  0
 39 45  1  0  0  0  0
 40 41  1  0  0  0  0
 40 43  1  0  0  0  0
 41 42  1  0  0  0  0
 43 44  2  0  0  0  0
 44 45  1  0  0  0  0
M  CHG  4   8  -1   9  -1  11  -1  12  -1
M  END
>  <CHROM.1>
1.11883433,172.52569984,96.55759917,12.91366304,97.31919285,-2.54782251,-0.76577827
-1.32594864

>  <Name>
ligand

>  <RI>
0

>  <Rbt.Current_Directory>
/home/itssahil/PROJECTS/Mol_Feturizer/New_Systems/rnas/4YAZ

>  <Rbt.Executable>
rbdock ($Id: //depot/dev/client3/rdock/2013.1/src/exe/rbdock.cxx#4 $)

>  <Rbt.Library>
libRbt.so (2013.1, Build901 2013/11/27)

>  <Rbt.Parameter_File>
/export/apps/rDock/src/rDock_2013.1_src/data/scripts/dock_solv.prm

>  <Rbt.Receptor>
prm/pocket_docking_2.prm

>  <SCORE>
-41.5192

>  <SCORE.INTER>
-41.3115

>  <SCORE.INTER.CONST>
1

>  <SCORE.INTER.POLAR>
0

>  <SCORE.INTER.ROT>
2

>  <SCORE.INTER.SOLV>
39.5268

>  <SCORE.INTER.VDW>
-45.6499

>  <SCORE.INTER.norm>
-0.918034

>  <SCORE.INTRA>
-0.207654

>  <SCORE.INTRA.DIHEDRAL>
-0.0573217

>  <SCORE.INTRA.DIHEDRAL.0>
2.39103

>  <SCORE.INTRA.POLAR>
0

>  <SCORE.INTRA.POLAR.0>
0

>  <SCORE.INTRA.REPUL>
0

>  <SCORE.INTRA.REPUL.0>
0

>  <SCORE.INTRA.SOLV>
-0.0103398

>  <SCORE.INTRA.SOLV.lig_0>
-163.975

>  <SCORE.INTRA.VDW>
-0.173823

>  <SCORE.INTRA.VDW.0>
-1.49176

>  <SCORE.INTRA.norm>
-0.00461453

>  <SCORE.RESTR>
0

>  <SCORE.RESTR.CAVITY>
0

>  <SCORE.RESTR.norm>
0

>  <SCORE.SYSTEM>
0

>  <SCORE.SYSTEM.CONST>
0

>  <SCORE.SYSTEM.DIHEDRAL>
0

>  <SCORE.SYSTEM.SOLV>
0

>  <SCORE.SYSTEM.norm>
0

>  <SCORE.heavy>
45

>  <SCORE.norm>
-0.922648

>  <RMSD>
6.941

$$$$
ligand
 OpenBabel11021811513D
libRbt.so/2013.1/901 2013/11/27
 45 51  0  0  0  0  0  0  0  0999 V2000
   97.5351   10.1002   98.1565 C   0  0  0  0  0  0  0  0  0  0  0  0
   99.3104   12.2045   94.3751 C   0  0  0  0  0  0  0  0  0  0  0  0
   92.5841    9.9724   95.3505 N   0  0  0  0  0  0  0  0  0  0  0  0
   96.5791   10.5651   98.8935 N   0  0  0  0  0  0  0  0  0  0  0  0
   94.8170    9.8305   96.0215 N   0  0  0  0  0  0  0  0  0  0  0  0
   93.2209   10.6839   97.4844 N   0  0  0  0  0  0  0  0  0  0  0  0
   93.8281   11.3663   99.7070 O   0  0  0  0  0  0  0  0  0  0  0  0
  100.1607   14.8885   95.6600 O   0  5  0  0  0  0  0  0  0  0  0  0
   96.4343   10.5656   90.6082 O   0  5  0  0  0  0  0  0  0  0  0  0
   97.4290    8.2315   93.9552 O   0  0  0  0  0  0  0  0  0  0  0  0
   98.0802   14.9992   96.4428 O   0  5  0  0  0  0  0  0  0  0  0  0
   95.2314    9.9926   92.4029 O   0  5  0  0  0  0  0  0  0  0  0  0
   98.9960   12.8468   95.5453 O   0  0  0  0  0  0  0  0  0  0  0  0
   99.1278   10.0848   95.7766 O   0  0  0  0  0  0  0  0  0  0  0  0
   97.7312   10.4553   92.5934 O   0  0  0  0  0  0  0  0  0  0  0  0
   93.5974   10.1830   96.3340 C   0  0  0  0  0  0  0  0  0  0  0  0
   94.1210   10.8586   98.4426 C   0  0  0  0  0  0  0  0  0  0  0  0
   95.4660   10.5194   98.1726 C   0  0  0  0  0  0  0  0  0  0  0  0
   95.7907    9.9910   96.9474 C   0  0  0  0  0  0  0  0  0  0  0  0
   97.2650    9.3076   94.8009 C   0  0  2  0  0  0  0  0  0  0  0  0
   98.9601   10.7714   94.4102 C   0  0  1  0  0  0  0  0  0  0  0  0
   97.7901   10.6136   94.0061 C   0  0  1  0  0  0  0  0  0  0  0  0
   97.8958    9.2432   95.9588 C   0  0  2  0  0  0  0  0  0  0  0  0
   97.1041    9.7650   96.9969 N   0  0  0  0  0  0  0  0  0  0  0  0
   98.8661   14.3962   95.4240 P   0  0  2  0  0  0  0  0  0  0  0  0
   96.3551   10.7957   91.9866 P   0  0  1  0  0  0  0  0  0  0  0  0
   97.1373   13.2835   91.8409 C   0  0  0  0  0  0  0  0  0  0  0  0
   96.1026   12.3313   92.1352 O   0  0  0  0  0  0  0  0  0  0  0  0
   96.9141   14.6300   92.3880 C   0  0  1  0  0  0  0  0  0  0  0  0
   95.3730   15.0155   92.1445 O   0  0  0  0  0  0  0  0  0  0  0  0
   97.0661   14.6191   93.6357 C   0  0  1  0  0  0  0  0  0  0  0  0
   98.4403   14.8511   94.0220 O   0  0  0  0  0  0  0  0  0  0  0  0
   96.0881   15.6716   94.1353 C   0  0  1  0  0  0  0  0  0  0  0  0
   96.6108   16.8180   94.0701 O   0  0  0  0  0  0  0  0  0  0  0  0
   94.9223   15.6058   93.1486 C   0  0  2  0  0  0  0  0  0  0  0  0
   92.0768   14.8806   97.3689 N   0  0  0  0  0  0  0  0  0  0  0  0
   93.3570   15.3329   97.3115 C   0  0  0  0  0  0  0  0  0  0  0  0
   93.9089   15.4561   96.1104 N   0  0  0  0  0  0  0  0  0  0  0  0
   93.3054   15.1023   94.9555 C   0  0  0  0  0  0  0  0  0  0  0  0
   91.9760   14.6286   94.9745 C   0  0  0  0  0  0  0  0  0  0  0  0
   91.3827   14.5202   96.2727 C   0  0  0  0  0  0  0  0  0  0  0  0
   90.0492   14.0284   96.3901 N   0  0  0  0  0  0  0  0  0  0  0  0
   91.6449   14.4135   93.7498 N   0  0  0  0  0  0  0  0  0  0  0  0
   92.6605   14.7394   92.9692 C   0  0  0  0  0  0  0  0  0  0  0  0
   93.6669   15.1329   93.6646 N   0  0  0  0  0  0  0  0  0  0  0  0
  1 24  1  0  0  0  0
  1  4  2  0  0  0  0
  2 13  1  0  0  0  0
  2 21  1  0  0  0  0
  3 16  1  0  0  0  0
  4 18  1  0  0  0  0
  5 19  2  0  0  0  0
  5 16  1  0  0  0  0
  6 16  2  0  0  0  0
  6 17  1  0  0  0  0
  7 17  1  0  0  0  0
 11 25  2  0  0  0  0
 12 26  2  0  0  0  0
 13 25  1  0  0  0  0
 14 23  1  0  0  0  0
 15 26  1  0  0  0  0
 17 18  2  0  0  0  0
 18 19  1  0  0  0  0
 19 24  1  0  0  0  0
 20 10  1  6  0  0  0
 20 22  1  0  0  0  0
 20 23  1  0  0  0  0
 21 14  1  1  0  0  0
 21 22  1  0  0  0  0
 22 15  1  6  0  0  0
 23 24  1  1  0  0  0
 25  8  1  1  0  0  0
 25 32  1  0  0  0  0
 26  9  1  6  0  0  0
 26 28  1  0  0  0  0
 27 28  1  0  0  0  0
 29 27  1  1  0  0  0
 29 30  1  0  0  0  0
 29 31  1  0  0  0  0
 30 35  1  0  0  0  0
 31 33  1  0  0  0  0
 31 32  1  6  0  0  0
 33 34  1  6  0  0  0
 33 35  1  0  0  0  0
 35 45  1  1  0  0  0
 36 41  2  0  0  0  0
 36 37  1  0  0  0  0
 37 38  2  0  0  0  0
 38 39  1  0  0  0  0
 39 40  2  0  0  0  0
 39 45  1  0  0  0  0
 40 41  1  0  0  0  0
 40 43  1  0  0  0  0
 41 42  1  0  0  0  0
 43 44  2  0  0  0  0
 44 45  1  0  0  0  0
M  CHG  4   8  -1   9  -1  11  -1  12  -1
M  END
>  <CHROM.1>
-48.38830319,145.65320100,95.90307924,12.53905123,94.92901486,0.38434043
-0.50363904,2.57095935

>  <Name>
ligand

>  <RI>
0

>  <Rbt.Current_Directory>
/home/itssahil/PROJECTS/Mol_Feturizer/New_Systems/rnas/4YAZ

>  <Rbt.Executable>
rbdock ($Id: //depot/dev/client3/rdock/2013.1/src/exe/rbdock.cxx#4 $)

>  <Rbt.Library>
libRbt.so (2013.1, Build901 2013/11/27)

>  <Rbt.Parameter_File>
/export/apps/rDock/src/rDock_2013.1_src/data/scripts/dock_solv.prm

>  <Rbt.Receptor>
prm/pocket_docking_5.prm

>  <SCORE>
-16.5768

>  <SCORE.INTER>
-17.7582

>  <SCORE.INTER.CONST>
1

>  <SCORE.INTER.POLAR>
0

>  <SCORE.INTER.ROT>
2

>  <SCORE.INTER.SOLV>
27.8075

>  <SCORE.INTER.VDW>
-26.0413

>  <SCORE.INTER.norm>
-0.394627

>  <SCORE.INTRA>
1.18139

>  <SCORE.INTRA.DIHEDRAL>
-0.122861

>  <SCORE.INTRA.DIHEDRAL.0>
2.39103

>  <SCORE.INTRA.POLAR>
0

>  <SCORE.INTRA.POLAR.0>
0

>  <SCORE.INTRA.REPUL>
0

>  <SCORE.INTRA.REPUL.0>
0

>  <SCORE.INTRA.SOLV>
1.27052

>  <SCORE.INTRA.SOLV.lig_0>
-163.975

>  <SCORE.INTRA.VDW>
0.607561

>  <SCORE.INTRA.VDW.0>
-1.49176

>  <SCORE.INTRA.norm>
0.0262531

>  <SCORE.RESTR>
0

>  <SCORE.RESTR.CAVITY>
0

>  <SCORE.RESTR.norm>
0

>  <SCORE.SYSTEM>
0

>  <SCORE.SYSTEM.CONST>
0

>  <SCORE.SYSTEM.DIHEDRAL>
0

>  <SCORE.SYSTEM.SOLV>
0

>  <SCORE.SYSTEM.norm>
0

>  <SCORE.heavy>
45

>  <SCORE.norm>
-0.368373

>  <RMSD>
6.944

$$$$
ligand
 OpenBabel11021811513D
libRbt.so/2013.1/901 2013/11/27
 45 51  0  0  0  0  0  0  0  0999 V2000
   96.6005    9.8507   98.8025 C   0  0  0  0  0  0  0  0  0  0  0  0
   95.4987   10.8119   95.0438 C   0  0  0  0  0  0  0  0  0  0  0  0
   93.8240   11.2591  103.5681 N   0  0  0  0  0  0  0  0  0  0  0  0
   97.4307   10.0498   99.7742 N   0  0  0  0  0  0  0  0  0  0  0  0
   94.4524   10.6834  101.3932 N   0  0  0  0  0  0  0  0  0  0  0  0
   96.0823   10.9916  103.0256 N   0  0  0  0  0  0  0  0  0  0  0  0
   98.4085   10.6641  102.5198 O   0  0  0  0  0  0  0  0  0  0  0  0
   98.2789   10.2759   93.7946 O   0  5  0  0  0  0  0  0  0  0  0  0
   92.3713   14.6613   95.7855 O   0  5  0  0  0  0  0  0  0  0  0  0
   92.3380   11.1620   98.1078 O   0  0  0  0  0  0  0  0  0  0  0  0
   99.1102   11.3533   95.5557 O   0  5  0  0  0  0  0  0  0  0  0  0
   93.1315   14.2675   97.8502 O   0  5  0  0  0  0  0  0  0  0  0  0
   96.7409   10.5388   95.5563 O   0  0  0  0  0  0  0  0  0  0  0  0
   94.6547    9.4166   97.0012 O   0  0  0  0  0  0  0  0  0  0  0  0
   93.2720   12.4795   96.0384 O   0  0  0  0  0  0  0  0  0  0  0  0
   94.8409   10.9728  102.6076 C   0  0  0  0  0  0  0  0  0  0  0  0
   97.0576   10.6917  102.1784 C   0  0  0  0  0  0  0  0  0  0  0  0
   96.7175   10.3874  100.8409 C   0  0  0  0  0  0  0  0  0  0  0  0
   95.3950   10.3779  100.4715 C   0  0  0  0  0  0  0  0  0  0  0  0
   93.7154   11.1148   98.1237 C   0  0  2  0  0  0  0  0  0  0  0  0
   94.4232   10.5860   96.0288 C   0  0  1  0  0  0  0  0  0  0  0  0
   94.2196   11.6324   96.6776 C   0  0  1  0  0  0  0  0  0  0  0  0
   94.2578    9.9338   98.3555 C   0  0  2  0  0  0  0  0  0  0  0  0
   95.3915   10.0496   99.1790 N   0  0  0  0  0  0  0  0  0  0  0  0
   97.9239   11.2039   94.7880 P   0  0  2  0  0  0  0  0  0  0  0  0
   93.3749   13.9585   96.4624 P   0  0  1  0  0  0  0  0  0  0  0  0
   95.1681   14.2751   94.5898 C   0  0  0  0  0  0  0  0  0  0  0  0
   94.7220   14.5453   95.9285 O   0  0  0  0  0  0  0  0  0  0  0  0
   96.5943   14.5385   94.3469 C   0  0  1  0  0  0  0  0  0  0  0  0
   96.9689   15.9323   95.0540 O   0  0  0  0  0  0  0  0  0  0  0  0
   97.2972   13.6691   94.9212 C   0  0  1  0  0  0  0  0  0  0  0  0
   97.5220   12.5086   94.0880 O   0  0  0  0  0  0  0  0  0  0  0  0
   98.5637   14.4169   95.3096 C   0  0  1  0  0  0  0  0  0  0  0  0
   99.3691   14.4434   94.3388 O   0  0  0  0  0  0  0  0  0  0  0  0
   98.0908   15.8423   95.5953 C   0  0  2  0  0  0  0  0  0  0  0  0
  100.9891   15.9136   99.8414 N   0  0  0  0  0  0  0  0  0  0  0  0
  101.2539   15.2607   98.6794 C   0  0  0  0  0  0  0  0  0  0  0  0
  100.3709   15.3808   97.6953 N   0  0  0  0  0  0  0  0  0  0  0  0
   99.2044   16.0530   97.7972 C   0  0  0  0  0  0  0  0  0  0  0  0
   98.8941   16.7440   98.9881 C   0  0  0  0  0  0  0  0  0  0  0  0
   99.8630   16.6260  100.0352 C   0  0  0  0  0  0  0  0  0  0  0  0
   99.6218   17.2726  101.2833 N   0  0  0  0  0  0  0  0  0  0  0  0
   97.7618   17.3232   98.7926 N   0  0  0  0  0  0  0  0  0  0  0  0
   97.3557   17.0630   97.5620 C   0  0  0  0  0  0  0  0  0  0  0  0
   98.1874   16.2927   96.9568 N   0  0  0  0  0  0  0  0  0  0  0  0
  1 24  1  0  0  0  0
  1  4  2  0  0  0  0
  2 13  1  0  0  0  0
  2 21  1  0  0  0  0
  3 16  1  0  0  0  0
  4 18  1  0  0  0  0
  5 19  2  0  0  0  0
  5 16  1  0  0  0  0
  6 16  2  0  0  0  0
  6 17  1  0  0  0  0
  7 17  1  0  0  0  0
 11 25  2  0  0  0  0
 12 26  2  0  0  0  0
 13 25  1  0  0  0  0
 14 23  1  0  0  0  0
 15 26  1  0  0  0  0
 17 18  2  0  0  0  0
 18 19  1  0  0  0  0
 19 24  1  0  0  0  0
 20 10  1  6  0  0  0
 20 22  1  0  0  0  0
 20 23  1  0  0  0  0
 21 14  1  1  0  0  0
 21 22  1  0  0  0  0
 22 15  1  6  0  0  0
 23 24  1  1  0  0  0
 25  8  1  6  0  0  0
 25 32  1  0  0  0  0
 26  9  1  6  0  0  0
 26 28  1  0  0  0  0
 27 28  1  0  0  0  0
 29 27  1  1  0  0  0
 29 30  1  0  0  0  0
 29 31  1  0  0  0  0
 30 35  1  0  0  0  0
 31 33  1  0  0  0  0
 31 32  1  6  0  0  0
 33 34  1  6  0  0  0
 33 35  1  0  0  0  0
 35 45  1  1  0  0  0
 36 41  2  0  0  0  0
 36 37  1  0  0  0  0
 37 38  2  0  0  0  0
 38 39  1  0  0  0  0
 39 40  2  0  0  0  0
 39 45  1  0  0  0  0
 40 41  1  0  0  0  0
 40 43  1  0  0  0  0
 41 42  1  0  0  0  0
 43 44  2  0  0  0  0
 44 45  1  0  0  0  0
M  CHG  4   8  -1   9  -1  11  -1  12  -1
M  END
>  <CHROM.1>
5.32601142,166.26317631,96.50567479,12.91720463,97.59522916,-2.42178193,-0.78441606
-1.32381439

>  <Name>
ligand

>  <RI>
0

>  <Rbt.Current_Directory>
/home/itssahil/PROJECTS/Mol_Feturizer/New_Systems/rnas/4YAZ

>  <Rbt.Executable>
rbdock ($Id: //depot/dev/client3/rdock/2013.1/src/exe/rbdock.cxx#4 $)

>  <Rbt.Library>
libRbt.so (2013.1, Build901 2013/11/27)

>  <Rbt.Parameter_File>
/export/apps/rDock/src/rDock_2013.1_src/data/scripts/dock_solv.prm

>  <Rbt.Receptor>
prm/pocket_docking_3.prm

>  <SCORE>
-41.6028

>  <SCORE.INTER>
-41.3549

>  <SCORE.INTER.CONST>
1

>  <SCORE.INTER.POLAR>
0

>  <SCORE.INTER.ROT>
2

>  <SCORE.INTER.SOLV>
42.2091

>  <SCORE.INTER.VDW>
-46.573

>  <SCORE.INTER.norm>
-0.918998

>  <SCORE.INTRA>
-0.247871

>  <SCORE.INTRA.DIHEDRAL>
-0.0910533

>  <SCORE.INTRA.DIHEDRAL.0>
2.39103

>  <SCORE.INTRA.POLAR>
0

>  <SCORE.INTRA.POLAR.0>
0

>  <SCORE.INTRA.REPUL>
0

>  <SCORE.INTRA.REPUL.0>
0

>  <SCORE.INTRA.SOLV>
-0.0116496

>  <SCORE.INTRA.SOLV.lig_0>
-163.975

>  <SCORE.INTRA.VDW>
-0.19652

>  <SCORE.INTRA.VDW.0>
-1.49176

>  <SCORE.INTRA.norm>
-0.00550824

>  <SCORE.RESTR>
0

>  <SCORE.RESTR.CAVITY>
0

>  <SCORE.RESTR.norm>
0

>  <SCORE.SYSTEM>
0

>  <SCORE.SYSTEM.CONST>
0

>  <SCORE.SYSTEM.DIHEDRAL>
0

>  <SCORE.SYSTEM.SOLV>
0

>  <SCORE.SYSTEM.norm>
0

>  <SCORE.heavy>
45

>  <SCORE.norm>
-0.924506

>  <RMSD>
6.946

$$$$
ligand
 OpenBabel11021811513D
libRbt.so/2013.1/901 2013/11/27
 45 51  0  0  0  0  0  0  0  0999 V2000
   96.5365    9.7847   98.4973 C   0  0  0  0  0  0  0  0  0  0  0  0
   95.4867   10.8232   94.7426 C   0  0  0  0  0  0  0  0  0  0  0  0
   93.7447   11.1932  103.2539 N   0  0  0  0  0  0  0  0  0  0  0  0
   97.3615    9.9557   99.4788 N   0  0  0  0  0  0  0  0  0  0  0  0
   94.3816   10.6303  101.0781 N   0  0  0  0  0  0  0  0  0  0  0  0
   96.0020   10.8865  102.7287 N   0  0  0  0  0  0  0  0  0  0  0  0
   98.3258   10.5181  102.2402 O   0  0  0  0  0  0  0  0  0  0  0  0
   98.2680   10.2548   93.5102 O   0  5  0  0  0  0  0  0  0  0  0  0
   92.4227   14.7177   95.5127 O   0  5  0  0  0  0  0  0  0  0  0  0
   92.3051   11.1864   97.7834 O   0  0  0  0  0  0  0  0  0  0  0  0
   99.1026   11.2915   95.2941 O   0  5  0  0  0  0  0  0  0  0  0  0
   93.1568   14.2804   97.5781 O   0  5  0  0  0  0  0  0  0  0  0  0
   96.7191   10.5202   95.2620 O   0  0  0  0  0  0  0  0  0  0  0  0
   94.5999    9.4154   96.6719 O   0  0  0  0  0  0  0  0  0  0  0  0
   93.2815   12.5165   95.7417 O   0  0  0  0  0  0  0  0  0  0  0  0
   94.7645   10.8976  102.2993 C   0  0  0  0  0  0  0  0  0  0  0  0
   96.9790   10.5770  101.8869 C   0  0  0  0  0  0  0  0  0  0  0  0
   96.6453   10.2952  100.5429 C   0  0  0  0  0  0  0  0  0  0  0  0
   95.3264   10.3166  100.1614 C   0  0  0  0  0  0  0  0  0  0  0  0
   93.6813   11.1140   97.8107 C   0  0  2  0  0  0  0  0  0  0  0  0
   94.3985   10.6027   95.7147 C   0  0  1  0  0  0  0  0  0  0  0  0
   94.2078   11.6432   96.3768 C   0  0  1  0  0  0  0  0  0  0  0  0
   94.2002    9.9202   98.0301 C   0  0  2  0  0  0  0  0  0  0  0  0
   95.3283   10.0035   98.8652 N   0  0  0  0  0  0  0  0  0  0  0  0
   97.9208   11.1747   94.5139 P   0  0  2  0  0  0  0  0  0  0  0  0
   93.4072   13.9871   96.1881 P   0  0  1  0  0  0  0  0  0  0  0  0
   95.2227   14.2980   94.3362 C   0  0  0  0  0  0  0  0  0  0  0  0
   94.7694   14.5569   95.6746 O   0  0  0  0  0  0  0  0  0  0  0  0
   96.6556   14.5389   94.1097 C   0  0  1  0  0  0  0  0  0  0  0  0
   97.0489   15.9154   94.8402 O   0  0  0  0  0  0  0  0  0  0  0  0
   97.3375   13.6488   94.6775 C   0  0  1  0  0  0  0  0  0  0  0  0
   97.5488   12.4965   93.8294 O   0  0  0  0  0  0  0  0  0  0  0  0
   98.6137   14.3677   95.0878 C   0  0  1  0  0  0  0  0  0  0  0  0
   99.4282   14.3936   94.1247 O   0  0  0  0  0  0  0  0  0  0  0  0
   98.1640   15.7972   95.3901 C   0  0  2  0  0  0  0  0  0  0  0  0
  101.0741   15.8521   99.6283 N   0  0  0  0  0  0  0  0  0  0  0  0
  101.3477   15.2243   98.4545 C   0  0  0  0  0  0  0  0  0  0  0  0
  100.4594   15.3441   97.4752 N   0  0  0  0  0  0  0  0  0  0  0  0
   99.2805   15.9918   97.5920 C   0  0  0  0  0  0  0  0  0  0  0  0
   98.9608   16.6563   98.7954 C   0  0  0  0  0  0  0  0  0  0  0  0
   99.9352   16.5392   99.8375 C   0  0  0  0  0  0  0  0  0  0  0  0
   99.6857   17.1597  101.0972 N   0  0  0  0  0  0  0  0  0  0  0  0
   97.8169   17.2169   98.6132 N   0  0  0  0  0  0  0  0  0  0  0  0
   97.4119   16.9699   97.3795 C   0  0  0  0  0  0  0  0  0  0  0  0
   98.2563   16.2262   96.7588 N   0  0  0  0  0  0  0  0  0  0  0  0
  1 24  1  0  0  0  0
  1  4  2  0  0  0  0
  2 13  1  0  0  0  0
  2 21  1  0  0  0  0
  3 16  1  0  0  0  0
  4 18  1  0  0  0  0
  5 19  2  0  0  0  0
  5 16  1  0  0  0  0
  6 16  2  0  0  0  0
  6 17  1  0  0  0  0
  7 17  1  0  0  0  0
 11 25  2  0  0  0  0
 12 26  2  0  0  0  0
 13 25  1  0  0  0  0
 14 23  1  0  0  0  0
 15 26  1  0  0  0  0
 17 18  2  0  0  0  0
 18 19  1  0  0  0  0
 19 24  1  0  0  0  0
 20 10  1  6  0  0  0
 20 22  1  0  0  0  0
 20 23  1  0  0  0  0
 21 14  1  1  0  0  0
 21 22  1  0  0  0  0
 22 15  1  6  0  0  0
 23 24  1  1  0  0  0
 25  8  1  6  0  0  0
 25 32  1  0  0  0  0
 26  9  1  6  0  0  0
 26 28  1  0  0  0  0
 27 28  1  0  0  0  0
 29 27  1  1  0  0  0
 29 30  1  0  0  0  0
 29 31  1  0  0  0  0
 30 35  1  0  0  0  0
 31 33  1  0  0  0  0
 31 32  1  6  0  0  0
 33 34  1  6  0  0  0
 33 35  1  0  0  0  0
 35 45  1  1  0  0  0
 36 41  2  0  0  0  0
 36 37  1  0  0  0  0
 37 38  2  0  0  0  0
 38 39  1  0  0  0  0
 39 40  2  0  0  0  0
 39 45  1  0  0  0  0
 40 41  1  0  0  0  0
 40 43  1  0  0  0  0
 41 42  1  0  0  0  0
 43 44  2  0  0  0  0
 44 45  1  0  0  0  0
M  CHG  4   8  -1   9  -1  11  -1  12  -1
M  END
>  <CHROM.1>
5.13080699,168.51589843,96.51204711,12.88156234,97.33027758,-2.46784330,-0.77072567
-1.32580429

>  <Name>
ligand

>  <RI>
0

>  <Rbt.Current_Directory>
/home/itssahil/PROJECTS/Mol_Feturizer/New_Systems/rnas/4YAZ

>  <Rbt.Executable>
rbdock ($Id: //depot/dev/client3/rdock/2013.1/src/exe/rbdock.cxx#4 $)

>  <Rbt.Library>
libRbt.so (2013.1, Build901 2013/11/27)

>  <Rbt.Parameter_File>
/export/apps/rDock/src/rDock_2013.1_src/data/scripts/dock_solv.prm

>  <Rbt.Receptor>
prm/pocket_docking_4.prm

>  <SCORE>
-41.3677

>  <SCORE.INTER>
-41.1134

>  <SCORE.INTER.CONST>
1

>  <SCORE.INTER.POLAR>
0

>  <SCORE.INTER.ROT>
2

>  <SCORE.INTER.SOLV>
39.2994

>  <SCORE.INTER.VDW>
-45.442

>  <SCORE.INTER.norm>
-0.91363

>  <SCORE.INTRA>
-0.25432

>  <SCORE.INTRA.DIHEDRAL>
-0.0796214

>  <SCORE.INTRA.DIHEDRAL.0>
2.39103

>  <SCORE.INTRA.POLAR>
0

>  <SCORE.INTRA.POLAR.0>
0

>  <SCORE.INTRA.REPUL>
0

>  <SCORE.INTRA.REPUL.0>
0

>  <SCORE.INTRA.SOLV>
-0.0125152

>  <SCORE.INTRA.SOLV.lig_0>
-163.975

>  <SCORE.INTRA.VDW>
-0.208251

>  <SCORE.INTRA.VDW.0>
-1.49176

>  <SCORE.INTRA.norm>
-0.00565155

>  <SCORE.RESTR>
0

>  <SCORE.RESTR.CAVITY>
0

>  <SCORE.RESTR.norm>
0

>  <SCORE.SYSTEM>
0

>  <SCORE.SYSTEM.CONST>
0

>  <SCORE.SYSTEM.DIHEDRAL>
0

>  <SCORE.SYSTEM.SOLV>
0

>  <SCORE.SYSTEM.norm>
0

>  <SCORE.heavy>
45

>  <SCORE.norm>
-0.919282

>  <RMSD>
6.946

$$$$
ligand
 OpenBabel11021811513D
libRbt.so/2013.1/901 2013/11/27
 45 51  0  0  0  0  0  0  0  0999 V2000
   96.5612    9.7860   98.7363 C   0  0  0  0  0  0  0  0  0  0  0  0
   95.5382   10.7157   94.9476 C   0  0  0  0  0  0  0  0  0  0  0  0
   93.7183   11.2831  103.4352 N   0  0  0  0  0  0  0  0  0  0  0  0
   97.3765    9.9862   99.7203 N   0  0  0  0  0  0  0  0  0  0  0  0
   94.3780   10.6746  101.2786 N   0  0  0  0  0  0  0  0  0  0  0  0
   95.9823   10.9820  102.9361 N   0  0  0  0  0  0  0  0  0  0  0  0
   98.3130   10.6206  102.4757 O   0  0  0  0  0  0  0  0  0  0  0  0
   98.3332   10.1310   93.7546 O   0  5  0  0  0  0  0  0  0  0  0  0
   92.4464   14.6116   95.5885 O   0  5  0  0  0  0  0  0  0  0  0  0
   92.3283   11.1407   97.9504 O   0  0  0  0  0  0  0  0  0  0  0  0
   99.1465   11.2188   95.5177 O   0  5  0  0  0  0  0  0  0  0  0  0
   93.1648   14.2330   97.6710 O   0  5  0  0  0  0  0  0  0  0  0  0
   96.7676   10.4335   95.4854 O   0  0  0  0  0  0  0  0  0  0  0  0
   94.6423    9.3541   96.9057 O   0  0  0  0  0  0  0  0  0  0  0  0
   93.3152   12.4221   95.8828 O   0  0  0  0  0  0  0  0  0  0  0  0
   94.7485   10.9733  102.4963 C   0  0  0  0  0  0  0  0  0  0  0  0
   96.9687   10.6606  102.1100 C   0  0  0  0  0  0  0  0  0  0  0  0
   96.6487   10.3449  100.7702 C   0  0  0  0  0  0  0  0  0  0  0  0
   95.3329   10.3471  100.3774 C   0  0  0  0  0  0  0  0  0  0  0  0
   93.7046   11.0768   97.9914 C   0  0  2  0  0  0  0  0  0  0  0  0
   94.4427   10.5147   95.9158 C   0  0  1  0  0  0  0  0  0  0  0  0
   94.2406   11.5711   96.5487 C   0  0  1  0  0  0  0  0  0  0  0  0
   94.2280    9.8921   98.2466 C   0  0  2  0  0  0  0  0  0  0  0  0
   95.3483   10.0038   99.0889 N   0  0  0  0  0  0  0  0  0  0  0  0
   97.9722   11.0749   94.7306 P   0  0  2  0  0  0  0  0  0  0  0  0
   93.4290   13.9047   96.2914 P   0  0  1  0  0  0  0  0  0  0  0  0
   95.2588   14.1771   94.4476 C   0  0  0  0  0  0  0  0  0  0  0  0
   94.7925   14.4685   95.7748 O   0  0  0  0  0  0  0  0  0  0  0  0
   96.6923   14.4201   94.2272 C   0  0  1  0  0  0  0  0  0  0  0  0
   97.0717   15.8175   94.9246 O   0  0  0  0  0  0  0  0  0  0  0  0
   97.3741   13.5491   94.8240 C   0  0  1  0  0  0  0  0  0  0  0  0
   97.5991   12.3761   94.0085 O   0  0  0  0  0  0  0  0  0  0  0  0
   98.6427   14.2858   95.2263 C   0  0  1  0  0  0  0  0  0  0  0  0
   99.4654   14.2909   94.2698 O   0  0  0  0  0  0  0  0  0  0  0  0
   98.1826   15.7202   95.4869 C   0  0  2  0  0  0  0  0  0  0  0  0
  101.0219   15.8366   99.7716 N   0  0  0  0  0  0  0  0  0  0  0  0
  101.3024   15.1709   98.6206 C   0  0  0  0  0  0  0  0  0  0  0  0
  100.4331   15.2806   97.6232 N   0  0  0  0  0  0  0  0  0  0  0  0
   99.2658   15.9545   97.7016 C   0  0  0  0  0  0  0  0  0  0  0  0
   98.9394   16.6587   98.8804 C   0  0  0  0  0  0  0  0  0  0  0  0
   99.8937   16.5516   99.9420 C   0  0  0  0  0  0  0  0  0  0  0  0
   99.6357   17.2121  101.1795 N   0  0  0  0  0  0  0  0  0  0  0  0
   97.8103   17.2363   98.6629 N   0  0  0  0  0  0  0  0  0  0  0  0
   97.4211   16.9628   97.4297 C   0  0  0  0  0  0  0  0  0  0  0  0
   98.2606   16.1855   96.8446 N   0  0  0  0  0  0  0  0  0  0  0  0
  1 24  1  0  0  0  0
  1  4  2  0  0  0  0
  2 13  1  0  0  0  0
  2 21  1  0  0  0  0
  3 16  1  0  0  0  0
  4 18  1  0  0  0  0
  5 19  2  0  0  0  0
  5 16  1  0  0  0  0
  6 16  2  0  0  0  0
  6 17  1  0  0  0  0
  7 17  1  0  0  0  0
 11 25  2  0  0  0  0
 12 26  2  0  0  0  0
 13 25  1  0  0  0  0
 14 23  1  0  0  0  0
 15 26  1  0  0  0  0
 17 18  2  0  0  0  0
 18 19  1  0  0  0  0
 19 24  1  0  0  0  0
 20 10  1  6  0  0  0
 20 22  1  0  0  0  0
 20 23  1  0  0  0  0
 21 14  1  1  0  0  0
 21 22  1  0  0  0  0
 22 15  1  6  0  0  0
 23 24  1  1  0  0  0
 25  8  1  6  0  0  0
 25 32  1  0  0  0  0
 26  9  1  6  0  0  0
 26 28  1  0  0  0  0
 27 28  1  0  0  0  0
 29 27  1  1  0  0  0
 29 30  1  0  0  0  0
 29 31  1  0  0  0  0
 30 35  1  0  0  0  0
 31 33  1  0  0  0  0
 31 32  1  6  0  0  0
 33 34  1  6  0  0  0
 33 35  1  0  0  0  0
 35 45  1  1  0  0  0
 36 41  2  0  0  0  0
 36 37  1  0  0  0  0
 37 38  2  0  0  0  0
 38 39  1  0  0  0  0
 39 40  2  0  0  0  0
 39 45  1  0  0  0  0
 40 41  1  0  0  0  0
 40 43  1  0  0  0  0
 41 42  1  0  0  0  0
 43 44  2  0  0  0  0
 44 45  1  0  0  0  0
M  CHG  4   8  -1   9  -1  11  -1  12  -1
M  END
>  <CHROM.1>
5.34131785,166.97570935,96.52711534,12.84088713,97.49115306,-2.45816669,-0.77692494
-1.35620549

>  <Name>
ligand

>  <RI>
0

>  <Rbt.Current_Directory>
/home/itssahil/PROJECTS/Mol_Feturizer/New_Systems/rnas/4YAZ

>  <Rbt.Executable>
rbdock ($Id: //depot/dev/client3/rdock/2013.1/src/exe/rbdock.cxx#4 $)

>  <Rbt.Library>
libRbt.so (2013.1, Build901 2013/11/27)

>  <Rbt.Parameter_File>
/export/apps/rDock/src/rDock_2013.1_src/data/scripts/dock_solv.prm

>  <Rbt.Receptor>
prm/pocket_docking_3.prm

>  <SCORE>
-41.6015

>  <SCORE.INTER>
-41.3504

>  <SCORE.INTER.CONST>
1

>  <SCORE.INTER.POLAR>
0

>  <SCORE.INTER.ROT>
2

>  <SCORE.INTER.SOLV>
40.9405

>  <SCORE.INTER.VDW>
-46.1471

>  <SCORE.INTER.norm>
-0.918897

>  <SCORE.INTRA>
-0.251172

>  <SCORE.INTRA.DIHEDRAL>
-0.0875617

>  <SCORE.INTRA.DIHEDRAL.0>
2.39103

>  <SCORE.INTRA.POLAR>
0

>  <SCORE.INTRA.POLAR.0>
0

>  <SCORE.INTRA.REPUL>
0

>  <SCORE.INTRA.REPUL.0>
0

>  <SCORE.INTRA.SOLV>
-0.0119658

>  <SCORE.INTRA.SOLV.lig_0>
-163.975

>  <SCORE.INTRA.VDW>
-0.201408

>  <SCORE.INTRA.VDW.0>
-1.49176

>  <SCORE.INTRA.norm>
-0.0055816

>  <SCORE.RESTR>
0

>  <SCORE.RESTR.CAVITY>
0

>  <SCORE.RESTR.norm>
0

>  <SCORE.SYSTEM>
0

>  <SCORE.SYSTEM.CONST>
0

>  <SCORE.SYSTEM.DIHEDRAL>
0

>  <SCORE.SYSTEM.SOLV>
0

>  <SCORE.SYSTEM.norm>
0

>  <SCORE.heavy>
45

>  <SCORE.norm>
-0.924479

>  <RMSD>
6.947

$$$$
ligand
 OpenBabel11021811513D
libRbt.so/2013.1/901 2013/11/27
 45 51  0  0  0  0  0  0  0  0999 V2000
   96.6070    9.8352   98.8817 C   0  0  0  0  0  0  0  0  0  0  0  0
   95.5613   10.6996   95.0940 C   0  0  0  0  0  0  0  0  0  0  0  0
   93.7669   11.2499  103.6078 N   0  0  0  0  0  0  0  0  0  0  0  0
   97.4246   10.0433   99.8622 N   0  0  0  0  0  0  0  0  0  0  0  0
   94.4240   10.6678  101.4431 N   0  0  0  0  0  0  0  0  0  0  0  0
   96.0328   10.9925  103.0931 N   0  0  0  0  0  0  0  0  0  0  0  0
   98.3665   10.6756  102.6162 O   0  0  0  0  0  0  0  0  0  0  0  0
   98.3542   10.1167   93.8950 O   0  5  0  0  0  0  0  0  0  0  0  0
   92.4526   14.5862   95.7085 O   0  5  0  0  0  0  0  0  0  0  0  0
   92.3621   11.1390   98.1061 O   0  0  0  0  0  0  0  0  0  0  0  0
   99.1695   11.2266   95.6434 O   0  5  0  0  0  0  0  0  0  0  0  0
   93.1818   14.2325   97.7916 O   0  5  0  0  0  0  0  0  0  0  0  0
   96.7945   10.4290   95.6294 O   0  0  0  0  0  0  0  0  0  0  0  0
   94.6807    9.3535   97.0697 O   0  0  0  0  0  0  0  0  0  0  0  0
   93.3337   12.4042   96.0213 O   0  0  0  0  0  0  0  0  0  0  0  0
   94.7966   10.9648  102.6606 C   0  0  0  0  0  0  0  0  0  0  0  0
   97.0196   10.6942  102.2588 C   0  0  0  0  0  0  0  0  0  0  0  0
   96.6970   10.3819  100.9189 C   0  0  0  0  0  0  0  0  0  0  0  0
   95.3790   10.3633  100.5340 C   0  0  0  0  0  0  0  0  0  0  0  0
   93.7388   11.0825   98.1418 C   0  0  2  0  0  0  0  0  0  0  0  0
   94.4710   10.5030   96.0689 C   0  0  1  0  0  0  0  0  0  0  0  0
   94.2663   11.5647   96.6918 C   0  0  1  0  0  0  0  0  0  0  0  0
   94.2694    9.9031   98.4069 C   0  0  2  0  0  0  0  0  0  0  0  0
   95.3926   10.0290   99.2431 N   0  0  0  0  0  0  0  0  0  0  0  0
   97.9926   11.0688   94.8630 P   0  0  2  0  0  0  0  0  0  0  0  0
   93.4417   13.8914   96.4143 P   0  0  1  0  0  0  0  0  0  0  0  0
   95.2623   14.1542   94.5600 C   0  0  0  0  0  0  0  0  0  0  0  0
   94.8002   14.4568   95.8861 O   0  0  0  0  0  0  0  0  0  0  0  0
   96.6936   14.4022   94.3310 C   0  0  1  0  0  0  0  0  0  0  0  0
   97.0688   15.8085   95.0124 O   0  0  0  0  0  0  0  0  0  0  0  0
   97.3823   13.5407   94.9337 C   0  0  1  0  0  0  0  0  0  0  0  0
   97.6098   12.3606   94.1292 O   0  0  0  0  0  0  0  0  0  0  0  0
   98.6489   14.2879   95.3230 C   0  0  1  0  0  0  0  0  0  0  0  0
   99.4675   14.2874   94.3630 O   0  0  0  0  0  0  0  0  0  0  0  0
   98.1826   15.7225   95.5709 C   0  0  2  0  0  0  0  0  0  0  0  0
  100.9894   15.8045   99.8778 N   0  0  0  0  0  0  0  0  0  0  0  0
  101.2584   15.1161   98.7374 C   0  0  0  0  0  0  0  0  0  0  0  0
  100.4011   15.2402   97.7314 N   0  0  0  0  0  0  0  0  0  0  0  0
   99.2546   15.9508   97.7917 C   0  0  0  0  0  0  0  0  0  0  0  0
   98.9407   16.6793   98.9590 C   0  0  0  0  0  0  0  0  0  0  0  0
   99.8825   16.5561  100.0300 C   0  0  0  0  0  0  0  0  0  0  0  0
   99.6351   17.2395  101.2570 N   0  0  0  0  0  0  0  0  0  0  0  0
   97.8318   17.2888   98.7250 N   0  0  0  0  0  0  0  0  0  0  0  0
   97.4443   17.0121   97.4920 C   0  0  0  0  0  0  0  0  0  0  0  0
   98.2641   16.2020   96.9235 N   0  0  0  0  0  0  0  0  0  0  0  0
  1 24  1  0  0  0  0
  1  4  2  0  0  0  0
  2 13  1  0  0  0  0
  2 21  1  0  0  0  0
  3 16  1  0  0  0  0
  4 18  1  0  0  0  0
  5 19  2  0  0  0  0
  5 16  1  0  0  0  0
  6 16  2  0  0  0  0
  6 17  1  0  0  0  0
  7 17  1  0  0  0  0
 11 25  2  0  0  0  0
 12 26  2  0  0  0  0
 13 25  1  0  0  0  0
 14 23  1  0  0  0  0
 15 26  1  0  0  0  0
 17 18  2  0  0  0  0
 18 19  1  0  0  0  0
 19 24  1  0  0  0  0
 20 10  1  6  0  0  0
 20 22  1  0  0  0  0
 20 23  1  0  0  0  0
 21 14  1  1  0  0  0
 21 22  1  0  0  0  0
 22 15  1  6  0  0  0
 23 24  1  1  0  0  0
 25  8  1  6  0  0  0
 25 32  1  0  0  0  0
 26  9  1  6  0  0  0
 26 28  1  0  0  0  0
 27 28  1  0  0  0  0
 29 27  1  1  0  0  0
 29 30  1  0  0  0  0
 29 31  1  0  0  0  0
 30 35  1  0  0  0  0
 31 33  1  0  0  0  0
 31 32  1  6  0  0  0
 33 34  1  6  0  0  0
 33 35  1  0  0  0  0
 35 45  1  1  0  0  0
 36 41  2  0  0  0  0
 36 37  1  0  0  0  0
 37 38  2  0  0  0  0
 38 39  1  0  0  0  0
 39 40  2  0  0  0  0
 39 45  1  0  0  0  0
 40 41  1  0  0  0  0
 40 43  1  0  0  0  0
 41 42  1  0  0  0  0
 43 44  2  0  0  0  0
 44 45  1  0  0  0  0
M  CHG  4   8  -1   9  -1  11  -1  12  -1
M  END
>  <CHROM.1>
6.56057543,164.78797433,96.54601448,12.84191763,97.61602626,-2.41215081,-0.77944176
-1.35219021

>  <Name>
ligand

>  <RI>
0

>  <Rbt.Current_Directory>
/home/itssahil/PROJECTS/Mol_Feturizer/New_Systems/rnas/4YAZ

>  <Rbt.Executable>
rbdock ($Id: //depot/dev/client3/rdock/2013.1/src/exe/rbdock.cxx#4 $)

>  <Rbt.Library>
libRbt.so (2013.1, Build901 2013/11/27)

>  <Rbt.Parameter_File>
/export/apps/rDock/src/rDock_2013.1_src/data/scripts/dock_solv.prm

>  <Rbt.Receptor>
prm/pocket_docking_3.prm

>  <SCORE>
-41.5163

>  <SCORE.INTER>
-41.2593

>  <SCORE.INTER.CONST>
1

>  <SCORE.INTER.POLAR>
0

>  <SCORE.INTER.ROT>
2

>  <SCORE.INTER.SOLV>
42.4382

>  <SCORE.INTER.VDW>
-46.5856

>  <SCORE.INTER.norm>
-0.916873

>  <SCORE.INTRA>
-0.257989

>  <SCORE.INTRA.DIHEDRAL>
-0.0974841

>  <SCORE.INTRA.DIHEDRAL.0>
2.39103

>  <SCORE.INTRA.POLAR>
0

>  <SCORE.INTRA.POLAR.0>
0

>  <SCORE.INTRA.REPUL>
0

>  <SCORE.INTRA.REPUL.0>
0

>  <SCORE.INTRA.SOLV>
-0.011502

>  <SCORE.INTRA.SOLV.lig_0>
-163.975

>  <SCORE.INTRA.VDW>
-0.203496

>  <SCORE.INTRA.VDW.0>
-1.49176

>  <SCORE.INTRA.norm>
-0.0057331

>  <SCORE.RESTR>
0.000919326

>  <SCORE.RESTR.CAVITY>
0.000919326

>  <SCORE.RESTR.norm>
2.04295e-05

>  <SCORE.SYSTEM>
0

>  <SCORE.SYSTEM.CONST>
0

>  <SCORE.SYSTEM.DIHEDRAL>
0

>  <SCORE.SYSTEM.SOLV>
0

>  <SCORE.SYSTEM.norm>
0

>  <SCORE.heavy>
45

>  <SCORE.norm>
-0.922585

>  <RMSD>
6.948

$$$$
ligand
 OpenBabel11021811513D
libRbt.so/2013.1/901 2013/11/27
 45 51  0  0  0  0  0  0  0  0999 V2000
   96.5501    9.7146   98.4860 C   0  0  0  0  0  0  0  0  0  0  0  0
   95.4662   10.8587   94.7435 C   0  0  0  0  0  0  0  0  0  0  0  0
   93.8649   11.3799  103.2209 N   0  0  0  0  0  0  0  0  0  0  0  0
   97.3915    9.8846   99.4537 N   0  0  0  0  0  0  0  0  0  0  0  0
   94.4567   10.7243  101.0584 N   0  0  0  0  0  0  0  0  0  0  0  0
   96.1032   10.9698  102.6847 N   0  0  0  0  0  0  0  0  0  0  0  0
   98.4058   10.4965  102.1865 O   0  0  0  0  0  0  0  0  0  0  0  0
   98.2276   10.2866   93.4688 O   0  5  0  0  0  0  0  0  0  0  0  0
   92.4386   14.7639   95.5986 O   0  5  0  0  0  0  0  0  0  0  0  0
   92.3265   11.2070   97.8292 O   0  0  0  0  0  0  0  0  0  0  0  0
   99.0920   11.2967   95.2538 O   0  5  0  0  0  0  0  0  0  0  0  0
   93.1962   14.2975   97.6491 O   0  5  0  0  0  0  0  0  0  0  0  0
   96.7031   10.5415   95.2434 O   0  0  0  0  0  0  0  0  0  0  0  0
   94.5948    9.4341   96.6675 O   0  0  0  0  0  0  0  0  0  0  0  0
   93.2855   12.5545   95.7908 O   0  0  0  0  0  0  0  0  0  0  0  0
   94.8625   11.0151  102.2668 C   0  0  0  0  0  0  0  0  0  0  0  0
   97.0585   10.5962  101.8442 C   0  0  0  0  0  0  0  0  0  0  0  0
   96.7001   10.2851  100.5131 C   0  0  0  0  0  0  0  0  0  0  0  0
   95.3790   10.3454  100.1435 C   0  0  0  0  0  0  0  0  0  0  0  0
   93.7024   11.1252   97.8379 C   0  0  2  0  0  0  0  0  0  0  0  0
   94.3891   10.6339   95.7270 C   0  0  1  0  0  0  0  0  0  0  0  0
   94.2140   11.6677   96.4036 C   0  0  1  0  0  0  0  0  0  0  0  0
   94.2160    9.9255   98.0366 C   0  0  2  0  0  0  0  0  0  0  0  0
   95.3552    9.9915   98.8579 N   0  0  0  0  0  0  0  0  0  0  0  0
   97.8995   11.1969   94.4876 P   0  0  2  0  0  0  0  0  0  0  0  0
   93.4268   14.0189   96.2527 P   0  0  1  0  0  0  0  0  0  0  0  0
   95.2205   14.3397   94.3813 C   0  0  0  0  0  0  0  0  0  0  0  0
   94.7861   14.5858   95.7284 O   0  0  0  0  0  0  0  0  0  0  0  0
   96.6519   14.5739   94.1392 C   0  0  1  0  0  0  0  0  0  0  0  0
   97.0637   15.9390   94.8806 O   0  0  0  0  0  0  0  0  0  0  0  0
   97.3350   13.6726   94.6876 C   0  0  1  0  0  0  0  0  0  0  0  0
   97.5277   12.5291   93.8235 O   0  0  0  0  0  0  0  0  0  0  0  0
   98.6212   14.3783   95.0899 C   0  0  1  0  0  0  0  0  0  0  0  0
   99.4234   14.4101   94.1167 O   0  0  0  0  0  0  0  0  0  0  0  0
   98.1850   15.8071   95.4146 C   0  0  2  0  0  0  0  0  0  0  0  0
  101.2421   16.0059   99.5437 N   0  0  0  0  0  0  0  0  0  0  0  0
  101.5159   15.4191   98.3489 C   0  0  0  0  0  0  0  0  0  0  0  0
  100.5847   15.4895   97.4053 N   0  0  0  0  0  0  0  0  0  0  0  0
   99.3671   16.0470   97.5775 C   0  0  0  0  0  0  0  0  0  0  0  0
   99.0458   16.6665   98.8043 C   0  0  0  0  0  0  0  0  0  0  0  0
  100.0650   16.6042   99.8076 C   0  0  0  0  0  0  0  0  0  0  0  0
   99.8190   17.1841  101.0871 N   0  0  0  0  0  0  0  0  0  0  0  0
   97.8582   17.1446   98.6748 N   0  0  0  0  0  0  0  0  0  0  0  0
   97.4257   16.8888   97.4523 C   0  0  0  0  0  0  0  0  0  0  0  0
   98.2978   16.2192   96.7870 N   0  0  0  0  0  0  0  0  0  0  0  0
  1 24  1  0  0  0  0
  1  4  2  0  0  0  0
  2 13  1  0  0  0  0
  2 21  1  0  0  0  0
  3 16  1  0  0  0  0
  4 18  1  0  0  0  0
  5 19  2  0  0  0  0
  5 16  1  0  0  0  0
  6 16  2  0  0  0  0
  6 17  1  0  0  0  0
  7 17  1  0  0  0  0
 11 25  2  0  0  0  0
 12 26  2  0  0  0  0
 13 25  1  0  0  0  0
 14 23  1  0  0  0  0
 15 26  1  0  0  0  0
 17 18  2  0  0  0  0
 18 19  1  0  0  0  0
 19 24  1  0  0  0  0
 20 10  1  6  0  0  0
 20 22  1  0  0  0  0
 20 23  1  0  0  0  0
 21 14  1  1  0  0  0
 21 22  1  0  0  0  0
 22 15  1  6  0  0  0
 23 24  1  1  0  0  0
 25  8  1  6  0  0  0
 25 32  1  0  0  0  0
 26  9  1  6  0  0  0
 26 28  1  0  0  0  0
 27 28  1  0  0  0  0
 29 27  1  1  0  0  0
 29 30  1  0  0  0  0
 29 31  1  0  0  0  0
 30 35  1  0  0  0  0
 31 33  1  0  0  0  0
 31 32  1  6  0  0  0
 33 34  1  6  0  0  0
 33 35  1  0  0  0  0
 35 45  1  1  0  0  0
 36 41  2  0  0  0  0
 36 37  1  0  0  0  0
 37 38  2  0  0  0  0
 38 39  1  0  0  0  0
 39 40  2  0  0  0  0
 39 45  1  0  0  0  0
 40 41  1  0  0  0  0
 40 43  1  0  0  0  0
 41 42  1  0  0  0  0
 43 44  2  0  0  0  0
 44 45  1  0  0  0  0
M  CHG  4   8  -1   9  -1  11  -1  12  -1
M  END
>  <CHROM.1>
2.03074890,173.30646524,96.54729039,12.91252189,97.33198995,-2.54249519,-0.76690360
-1.32599096

>  <Name>
ligand

>  <RI>
0

>  <Rbt.Current_Directory>
/home/itssahil/PROJECTS/Mol_Feturizer/New_Systems/rnas/4YAZ

>  <Rbt.Executable>
rbdock ($Id: //depot/dev/client3/rdock/2013.1/src/exe/rbdock.cxx#4 $)

>  <Rbt.Library>
libRbt.so (2013.1, Build901 2013/11/27)

>  <Rbt.Parameter_File>
/export/apps/rDock/src/rDock_2013.1_src/data/scripts/dock_solv.prm

>  <Rbt.Receptor>
prm/pocket_docking_2.prm

>  <SCORE>
-41.5277

>  <SCORE.INTER>
-41.3214

>  <SCORE.INTER.CONST>
1

>  <SCORE.INTER.POLAR>
0

>  <SCORE.INTER.ROT>
2

>  <SCORE.INTER.SOLV>
39.6542

>  <SCORE.INTER.VDW>
-45.699

>  <SCORE.INTER.norm>
-0.918253

>  <SCORE.INTRA>
-0.206342

>  <SCORE.INTRA.DIHEDRAL>
-0.0521256

>  <SCORE.INTRA.DIHEDRAL.0>
2.39103

>  <SCORE.INTRA.POLAR>
0

>  <SCORE.INTRA.POLAR.0>
0

>  <SCORE.INTRA.REPUL>
0

>  <SCORE.INTRA.REPUL.0>
0

>  <SCORE.INTRA.SOLV>
-0.0124458

>  <SCORE.INTRA.SOLV.lig_0>
-163.975

>  <SCORE.INTRA.VDW>
-0.174057

>  <SCORE.INTRA.VDW.0>
-1.49176

>  <SCORE.INTRA.norm>
-0.00458539

>  <SCORE.RESTR>
0

>  <SCORE.RESTR.CAVITY>
0

>  <SCORE.RESTR.norm>
0

>  <SCORE.SYSTEM>
0

>  <SCORE.SYSTEM.CONST>
0

>  <SCORE.SYSTEM.DIHEDRAL>
0

>  <SCORE.SYSTEM.SOLV>
0

>  <SCORE.SYSTEM.norm>
0

>  <SCORE.heavy>
45

>  <SCORE.norm>
-0.922838

>  <RMSD>
6.950

$$$$
ligand
 OpenBabel11021811513D
libRbt.so/2013.1/901 2013/11/27
 45 51  0  0  0  0  0  0  0  0999 V2000
   96.6270    9.8766   98.8321 C   0  0  0  0  0  0  0  0  0  0  0  0
   95.6063   10.7635   95.0444 C   0  0  0  0  0  0  0  0  0  0  0  0
   93.7416   11.2192  103.5518 N   0  0  0  0  0  0  0  0  0  0  0  0
   97.4358   10.0796   99.8210 N   0  0  0  0  0  0  0  0  0  0  0  0
   94.4190   10.6656  101.3859 N   0  0  0  0  0  0  0  0  0  0  0  0
   96.0130   10.9834  103.0514 N   0  0  0  0  0  0  0  0  0  0  0  0
   98.3525   10.6882  102.5888 O   0  0  0  0  0  0  0  0  0  0  0  0
   98.4114   10.2045   93.8627 O   0  5  0  0  0  0  0  0  0  0  0  0
   92.4733   14.6295   95.6663 O   0  5  0  0  0  0  0  0  0  0  0  0
   92.3815   11.1622   98.0348 O   0  0  0  0  0  0  0  0  0  0  0  0
   99.2074   11.3040   95.6265 O   0  5  0  0  0  0  0  0  0  0  0  0
   93.1880   14.2622   97.7521 O   0  5  0  0  0  0  0  0  0  0  0  0
   96.8366   10.4947   95.5872 O   0  0  0  0  0  0  0  0  0  0  0  0
   94.7171    9.3968   97.0020 O   0  0  0  0  0  0  0  0  0  0  0  0
   93.3630   12.4494   95.9682 O   0  0  0  0  0  0  0  0  0  0  0  0
   94.7803   10.9518  102.6094 C   0  0  0  0  0  0  0  0  0  0  0  0
   97.0082   10.7012  102.2215 C   0  0  0  0  0  0  0  0  0  0  0  0
   96.6979   10.4014  100.8758 C   0  0  0  0  0  0  0  0  0  0  0  0
   95.3830   10.3779  100.4807 C   0  0  0  0  0  0  0  0  0  0  0  0
   93.7582   11.1122   98.0809 C   0  0  2  0  0  0  0  0  0  0  0  0
   94.5095   10.5535   96.0091 C   0  0  1  0  0  0  0  0  0  0  0  0
   94.2945   11.6090   96.6391 C   0  0  1  0  0  0  0  0  0  0  0  0
   94.2926    9.9334   98.3403 C   0  0  2  0  0  0  0  0  0  0  0  0
   95.4086   10.0579   99.1864 N   0  0  0  0  0  0  0  0  0  0  0  0
   98.0374   11.1467   94.8355 P   0  0  2  0  0  0  0  0  0  0  0  0
   93.4604   13.9338   96.3742 P   0  0  1  0  0  0  0  0  0  0  0  0
   95.2942   14.2209   94.5365 C   0  0  0  0  0  0  0  0  0  0  0  0
   94.8201   14.5103   95.8614 O   0  0  0  0  0  0  0  0  0  0  0  0
   96.7259   14.4779   94.3207 C   0  0  1  0  0  0  0  0  0  0  0  0
   97.0887   15.8804   95.0166 O   0  0  0  0  0  0  0  0  0  0  0  0
   97.4142   13.6149   94.9218 C   0  0  1  0  0  0  0  0  0  0  0  0
   97.6539   12.4427   94.1094 O   0  0  0  0  0  0  0  0  0  0  0  0
   98.6739   14.3651   95.3271 C   0  0  1  0  0  0  0  0  0  0  0  0
   99.5000   14.3766   94.3736 O   0  0  0  0  0  0  0  0  0  0  0  0
   98.1985   15.7953   95.5832 C   0  0  2  0  0  0  0  0  0  0  0  0
  101.0134   15.9341   99.8833 N   0  0  0  0  0  0  0  0  0  0  0  0
  101.3032   15.2669   98.7354 C   0  0  0  0  0  0  0  0  0  0  0  0
  100.4390   15.3706   97.7329 N   0  0  0  0  0  0  0  0  0  0  0  0
   99.2683   16.0395   97.8033 C   0  0  0  0  0  0  0  0  0  0  0  0
   98.9323   16.7449   98.9786 C   0  0  0  0  0  0  0  0  0  0  0  0
   99.8811   16.6445  100.0458 C   0  0  0  0  0  0  0  0  0  0  0  0
   99.6134   17.3066  101.2803 N   0  0  0  0  0  0  0  0  0  0  0  0
   97.8019   17.3170   98.7536 N   0  0  0  0  0  0  0  0  0  0  0  0
   97.4208   17.0390   97.5189 C   0  0  0  0  0  0  0  0  0  0  0  0
   98.2670   16.2641   96.9402 N   0  0  0  0  0  0  0  0  0  0  0  0
  1 24  1  0  0  0  0
  1  4  2  0  0  0  0
  2 13  1  0  0  0  0
  2 21  1  0  0  0  0
  3 16  1  0  0  0  0
  4 18  1  0  0  0  0
  5 19  2  0  0  0  0
  5 16  1  0  0  0  0
  6 16  2  0  0  0  0
  6 17  1  0  0  0  0
  7 17  1  0  0  0  0
 11 25  2  0  0  0  0
 12 26  2  0  0  0  0
 13 25  1  0  0  0  0
 14 23  1  0  0  0  0
 15 26  1  0  0  0  0
 17 18  2  0  0  0  0
 18 19  1  0  0  0  0
 19 24  1  0  0  0  0
 20 10  1  6  0  0  0
 20 22  1  0  0  0  0
 20 23  1  0  0  0  0
 21 14  1  1  0  0  0
 21 22  1  0  0  0  0
 22 15  1  6  0  0  0
 23 24  1  1  0  0  0
 25  8  1  6  0  0  0
 25 32  1  0  0  0  0
 26  9  1  6  0  0  0
 26 28  1  0  0  0  0
 27 28  1  0  0  0  0
 29 27  1  1  0  0  0
 29 30  1  0  0  0  0
 29 31  1  0  0  0  0
 30 35  1  0  0  0  0
 31 33  1  0  0  0  0
 31 32  1  6  0  0  0
 33 34  1  6  0  0  0
 33 35  1  0  0  0  0
 35 45  1  1  0  0  0
 36 41  2  0  0  0  0
 36 37  1  0  0  0  0
 37 38  2  0  0  0  0
 38 39  1  0  0  0  0
 39 40  2  0  0  0  0
 39 45  1  0  0  0  0
 40 41  1  0  0  0  0
 40 43  1  0  0  0  0
 41 42  1  0  0  0  0
 43 44  2  0  0  0  0
 44 45  1  0  0  0  0
M  CHG  4   8  -1   9  -1  11  -1  12  -1
M  END
>  <CHROM.1>
6.75853642,166.63457474,96.56352348,12.89495496,97.58957782,-2.44049969,-0.78702312
-1.35130073

>  <Name>
ligand

>  <RI>
0

>  <Rbt.Current_Directory>
/home/itssahil/PROJECTS/Mol_Feturizer/New_Systems/rnas/4YAZ

>  <Rbt.Executable>
rbdock ($Id: //depot/dev/client3/rdock/2013.1/src/exe/rbdock.cxx#4 $)

>  <Rbt.Library>
libRbt.so (2013.1, Build901 2013/11/27)

>  <Rbt.Parameter_File>
/export/apps/rDock/src/rDock_2013.1_src/data/scripts/dock_solv.prm

>  <Rbt.Receptor>
prm/pocket_docking_3.prm

>  <SCORE>
-41.6261

>  <SCORE.INTER>
-41.3569

>  <SCORE.INTER.CONST>
1

>  <SCORE.INTER.POLAR>
0

>  <SCORE.INTER.ROT>
2

>  <SCORE.INTER.SOLV>
42.1625

>  <SCORE.INTER.VDW>
-46.5588

>  <SCORE.INTER.norm>
-0.919042

>  <SCORE.INTRA>
-0.269178

>  <SCORE.INTRA.DIHEDRAL>
-0.0888647

>  <SCORE.INTRA.DIHEDRAL.0>
2.39103

>  <SCORE.INTRA.POLAR>
0

>  <SCORE.INTRA.POLAR.0>
0

>  <SCORE.INTRA.REPUL>
0

>  <SCORE.INTRA.REPUL.0>
0

>  <SCORE.INTRA.SOLV>
-0.0123069

>  <SCORE.INTRA.SOLV.lig_0>
-163.975

>  <SCORE.INTRA.VDW>
-0.218592

>  <SCORE.INTRA.VDW.0>
-1.49176

>  <SCORE.INTRA.norm>
-0.00598172

>  <SCORE.RESTR>
0

>  <SCORE.RESTR.CAVITY>
0

>  <SCORE.RESTR.norm>
0

>  <SCORE.SYSTEM>
0

>  <SCORE.SYSTEM.CONST>
0

>  <SCORE.SYSTEM.DIHEDRAL>
0

>  <SCORE.SYSTEM.SOLV>
0

>  <SCORE.SYSTEM.norm>
0

>  <SCORE.heavy>
45

>  <SCORE.norm>
-0.925024

>  <RMSD>
6.954

$$$$
ligand
 OpenBabel11021811513D
libRbt.so/2013.1/901 2013/11/27
 45 51  0  0  0  0  0  0  0  0999 V2000
   96.5345    9.7466   98.4801 C   0  0  0  0  0  0  0  0  0  0  0  0
   95.4599   10.8663   94.7400 C   0  0  0  0  0  0  0  0  0  0  0  0
   93.8310   11.3072  103.2402 N   0  0  0  0  0  0  0  0  0  0  0  0
   97.3735    9.9074   99.4514 N   0  0  0  0  0  0  0  0  0  0  0  0
   94.4302   10.6937  101.0674 N   0  0  0  0  0  0  0  0  0  0  0  0
   96.0732   10.9260  102.6992 N   0  0  0  0  0  0  0  0  0  0  0  0
   98.3803   10.4816  102.1952 O   0  0  0  0  0  0  0  0  0  0  0  0
   98.2210   10.2791   93.4716 O   0  5  0  0  0  0  0  0  0  0  0  0
   92.4490   14.7871   95.5827 O   0  5  0  0  0  0  0  0  0  0  0  0
   92.3159   11.2345   97.8190 O   0  0  0  0  0  0  0  0  0  0  0  0
   99.0867   11.2880   95.2565 O   0  5  0  0  0  0  0  0  0  0  0  0
   93.2005   14.3206   97.6354 O   0  5  0  0  0  0  0  0  0  0  0  0
   96.6943   10.5441   95.2428 O   0  0  0  0  0  0  0  0  0  0  0  0
   94.5781    9.4490   96.6647 O   0  0  0  0  0  0  0  0  0  0  0  0
   93.2851   12.5741   95.7802 O   0  0  0  0  0  0  0  0  0  0  0  0
   94.8325   10.9674  102.2809 C   0  0  0  0  0  0  0  0  0  0  0  0
   97.0325   10.5752  101.8533 C   0  0  0  0  0  0  0  0  0  0  0  0
   96.6778   10.2837  100.5168 C   0  0  0  0  0  0  0  0  0  0  0  0
   95.3565   10.3387  100.1470 C   0  0  0  0  0  0  0  0  0  0  0  0
   93.6914   11.1463   97.8305 C   0  0  2  0  0  0  0  0  0  0  0  0
   94.3798   10.6482   95.7217 C   0  0  1  0  0  0  0  0  0  0  0  0
   94.2083   11.6840   96.3963 C   0  0  1  0  0  0  0  0  0  0  0  0
   94.1990    9.9445   98.0322 C   0  0  2  0  0  0  0  0  0  0  0  0
   95.3369   10.0066   98.8556 N   0  0  0  0  0  0  0  0  0  0  0  0
   97.8952   11.1926   94.4881 P   0  0  2  0  0  0  0  0  0  0  0  0
   93.4325   14.0386   96.2399 P   0  0  1  0  0  0  0  0  0  0  0  0
   95.2312   14.3478   94.3714 C   0  0  0  0  0  0  0  0  0  0  0  0
   94.7955   14.5982   95.7173 O   0  0  0  0  0  0  0  0  0  0  0  0
   96.6642   14.5748   94.1317 C   0  0  1  0  0  0  0  0  0  0  0  0
   97.0810   15.9392   94.8716 O   0  0  0  0  0  0  0  0  0  0  0  0
   97.3420   13.6713   94.6830 C   0  0  1  0  0  0  0  0  0  0  0  0
   97.5310   12.5254   93.8211 O   0  0  0  0  0  0  0  0  0  0  0  0
   98.6307   14.3715   95.0865 C   0  0  1  0  0  0  0  0  0  0  0  0
   99.4350   14.3980   94.1148 O   0  0  0  0  0  0  0  0  0  0  0  0
   98.2007   15.8029   95.4080 C   0  0  2  0  0  0  0  0  0  0  0  0
  101.2532   16.0008   99.5404 N   0  0  0  0  0  0  0  0  0  0  0  0
  101.5270   15.4115   98.3469 C   0  0  0  0  0  0  0  0  0  0  0  0
  100.5972   15.4827   97.4020 N   0  0  0  0  0  0  0  0  0  0  0  0
   99.3807   16.0433   97.5719 C   0  0  0  0  0  0  0  0  0  0  0  0
   99.0594   16.6654   98.7974 C   0  0  0  0  0  0  0  0  0  0  0  0
  100.0772   16.6022   99.8020 C   0  0  0  0  0  0  0  0  0  0  0  0
   99.8310   17.1845  101.0804 N   0  0  0  0  0  0  0  0  0  0  0  0
   97.8730   17.1461   98.6657 N   0  0  0  0  0  0  0  0  0  0  0  0
   97.4414   16.8894   97.4431 C   0  0  0  0  0  0  0  0  0  0  0  0
   98.3127   16.2168   96.7799 N   0  0  0  0  0  0  0  0  0  0  0  0
  1 24  1  0  0  0  0
  1  4  2  0  0  0  0
  2 13  1  0  0  0  0
  2 21  1  0  0  0  0
  3 16  1  0  0  0  0
  4 18  1  0  0  0  0
  5 19  2  0  0  0  0
  5 16  1  0  0  0  0
  6 16  2  0  0  0  0
  6 17  1  0  0  0  0
  7 17  1  0  0  0  0
 11 25  2  0  0  0  0
 12 26  2  0  0  0  0
 13 25  1  0  0  0  0
 14 23  1  0  0  0  0
 15 26  1  0  0  0  0
 17 18  2  0  0  0  0
 18 19  1  0  0  0  0
 19 24  1  0  0  0  0
 20 10  1  6  0  0  0
 20 22  1  0  0  0  0
 20 23  1  0  0  0  0
 21 14  1  1  0  0  0
 21 22  1  0  0  0  0
 22 15  1  6  0  0  0
 23 24  1  1  0  0  0
 25  8  1  6  0  0  0
 25 32  1  0  0  0  0
 26  9  1  6  0  0  0
 26 28  1  0  0  0  0
 27 28  1  0  0  0  0
 29 27  1  1  0  0  0
 29 30  1  0  0  0  0
 29 31  1  0  0  0  0
 30 35  1  0  0  0  0
 31 33  1  0  0  0  0
 31 32  1  6  0  0  0
 33 34  1  6  0  0  0
 33 35  1  0  0  0  0
 35 45  1  1  0  0  0
 36 41  2  0  0  0  0
 36 37  1  0  0  0  0
 37 38  2  0  0  0  0
 38 39  1  0  0  0  0
 39 40  2  0  0  0  0
 39 45  1  0  0  0  0
 40 41  1  0  0  0  0
 40 43  1  0  0  0  0
 41 42  1  0  0  0  0
 43 44  2  0  0  0  0
 44 45  1  0  0  0  0
M  CHG  4   8  -1   9  -1  11  -1  12  -1
M  END
>  <CHROM.1>
3.35621459,173.44843430,96.54484570,12.91295438,97.32876262,-2.52995854,-0.76262528
-1.32392468

>  <Name>
ligand

>  <RI>
0

>  <Rbt.Current_Directory>
/home/itssahil/PROJECTS/Mol_Feturizer/New_Systems/rnas/4YAZ

>  <Rbt.Executable>
rbdock ($Id: //depot/dev/client3/rdock/2013.1/src/exe/rbdock.cxx#4 $)

>  <Rbt.Library>
libRbt.so (2013.1, Build901 2013/11/27)

>  <Rbt.Parameter_File>
/export/apps/rDock/src/rDock_2013.1_src/data/scripts/dock_solv.prm

>  <Rbt.Receptor>
prm/pocket_docking_4.prm

>  <SCORE>
-41.602

>  <SCORE.INTER>
-41.3579

>  <SCORE.INTER.CONST>
1

>  <SCORE.INTER.POLAR>
0

>  <SCORE.INTER.ROT>
2

>  <SCORE.INTER.SOLV>
39.6595

>  <SCORE.INTER.VDW>
-45.7251

>  <SCORE.INTER.norm>
-0.919065

>  <SCORE.INTRA>
-0.244125

>  <SCORE.INTRA.DIHEDRAL>
-0.0508422

>  <SCORE.INTRA.DIHEDRAL.0>
2.39103

>  <SCORE.INTRA.POLAR>
0

>  <SCORE.INTRA.POLAR.0>
0

>  <SCORE.INTRA.REPUL>
0

>  <SCORE.INTRA.REPUL.0>
0

>  <SCORE.INTRA.SOLV>
-0.0145145

>  <SCORE.INTRA.SOLV.lig_0>
-163.975

>  <SCORE.INTRA.VDW>
-0.211446

>  <SCORE.INTRA.VDW.0>
-1.49176

>  <SCORE.INTRA.norm>
-0.00542499

>  <SCORE.RESTR>
0

>  <SCORE.RESTR.CAVITY>
0

>  <SCORE.RESTR.norm>
0

>  <SCORE.SYSTEM>
0

>  <SCORE.SYSTEM.CONST>
0

>  <SCORE.SYSTEM.DIHEDRAL>
0

>  <SCORE.SYSTEM.SOLV>
0

>  <SCORE.SYSTEM.norm>
0

>  <SCORE.heavy>
45

>  <SCORE.norm>
-0.92449

>  <RMSD>
6.958

$$$$
ligand
 OpenBabel11021811513D
libRbt.so/2013.1/901 2013/11/27
 45 51  0  0  0  0  0  0  0  0999 V2000
   96.5274    9.7531   98.5025 C   0  0  0  0  0  0  0  0  0  0  0  0
   95.4686   10.8497   94.7556 C   0  0  0  0  0  0  0  0  0  0  0  0
   93.7974   11.2863  103.2565 N   0  0  0  0  0  0  0  0  0  0  0  0
   97.3617    9.9148   99.4777 N   0  0  0  0  0  0  0  0  0  0  0  0
   94.4083   10.6823  101.0842 N   0  0  0  0  0  0  0  0  0  0  0  0
   96.0435   10.9172  102.7233 N   0  0  0  0  0  0  0  0  0  0  0  0
   98.3548   10.4852  102.2273 O   0  0  0  0  0  0  0  0  0  0  0  0
   98.2351   10.2563   93.5017 O   0  5  0  0  0  0  0  0  0  0  0  0
   92.4558   14.7751   95.5695 O   0  5  0  0  0  0  0  0  0  0  0  0
   92.3112   11.2314   97.8192 O   0  0  0  0  0  0  0  0  0  0  0  0
   99.0933   11.2720   95.2865 O   0  5  0  0  0  0  0  0  0  0  0  0
   93.1980   14.3164   97.6273 O   0  5  0  0  0  0  0  0  0  0  0  0
   96.7007   10.5290   95.2651 O   0  0  0  0  0  0  0  0  0  0  0  0
   94.5777    9.4404   96.6820 O   0  0  0  0  0  0  0  0  0  0  0  0
   93.2900   12.5625   95.7794 O   0  0  0  0  0  0  0  0  0  0  0  0
   94.8044   10.9542  102.3002 C   0  0  0  0  0  0  0  0  0  0  0  0
   97.0079   10.5736  101.8802 C   0  0  0  0  0  0  0  0  0  0  0  0
   96.6600   10.2845  100.5414 C   0  0  0  0  0  0  0  0  0  0  0  0
   95.3400   10.3345  100.1665 C   0  0  0  0  0  0  0  0  0  0  0  0
   93.6866   11.1426   97.8371 C   0  0  2  0  0  0  0  0  0  0  0  0
   94.3842   10.6360   95.7334 C   0  0  1  0  0  0  0  0  0  0  0  0
   94.2101   11.6745   96.4031 C   0  0  1  0  0  0  0  0  0  0  0  0
   94.1928    9.9414   98.0458 C   0  0  2  0  0  0  0  0  0  0  0  0
   95.3271   10.0063   98.8740 N   0  0  0  0  0  0  0  0  0  0  0  0
   97.9052   11.1740   94.5132 P   0  0  2  0  0  0  0  0  0  0  0  0
   93.4360   14.0288   96.2340 P   0  0  1  0  0  0  0  0  0  0  0  0
   95.2431   14.3298   94.3723 C   0  0  0  0  0  0  0  0  0  0  0  0
   94.8015   14.5857   95.7152 O   0  0  0  0  0  0  0  0  0  0  0  0
   96.6772   14.5553   94.1380 C   0  0  1  0  0  0  0  0  0  0  0  0
   97.0914   15.9224   94.8744 O   0  0  0  0  0  0  0  0  0  0  0  0
   97.3522   13.6536   94.6958 C   0  0  1  0  0  0  0  0  0  0  0  0
   97.5445   12.5042   93.8394 O   0  0  0  0  0  0  0  0  0  0  0  0
   98.6394   14.3550   95.1023 C   0  0  1  0  0  0  0  0  0  0  0  0
   99.4480   14.3772   94.1340 O   0  0  0  0  0  0  0  0  0  0  0  0
   98.2086   15.7878   95.4162 C   0  0  2  0  0  0  0  0  0  0  0  0
  101.2421   15.9986   99.5620 N   0  0  0  0  0  0  0  0  0  0  0  0
  101.5208   15.4043   98.3720 C   0  0  0  0  0  0  0  0  0  0  0  0
  100.5954   15.4727   97.4226 N   0  0  0  0  0  0  0  0  0  0  0  0
   99.3788   16.0355   97.5846 C   0  0  0  0  0  0  0  0  0  0  0  0
   99.0526   16.6629   98.8061 C   0  0  0  0  0  0  0  0  0  0  0  0
  100.0656   16.6025   99.8157 C   0  0  0  0  0  0  0  0  0  0  0  0
   99.8142   17.1902  101.0905 N   0  0  0  0  0  0  0  0  0  0  0  0
   97.8674   17.1444   98.6670 N   0  0  0  0  0  0  0  0  0  0  0  0
   97.4412   16.8833   97.4434 C   0  0  0  0  0  0  0  0  0  0  0  0
   98.3148   16.2071   96.7869 N   0  0  0  0  0  0  0  0  0  0  0  0
  1 24  1  0  0  0  0
  1  4  2  0  0  0  0
  2 13  1  0  0  0  0
  2 21  1  0  0  0  0
  3 16  1  0  0  0  0
  4 18  1  0  0  0  0
  5 19  2  0  0  0  0
  5 16  1  0  0  0  0
  6 16  2  0  0  0  0
  6 17  1  0  0  0  0
  7 17  1  0  0  0  0
 11 25  2  0  0  0  0
 12 26  2  0  0  0  0
 13 25  1  0  0  0  0
 14 23  1  0  0  0  0
 15 26  1  0  0  0  0
 17 18  2  0  0  0  0
 18 19  1  0  0  0  0
 19 24  1  0  0  0  0
 20 10  1  6  0  0  0
 20 22  1  0  0  0  0
 20 23  1  0  0  0  0
 21 14  1  1  0  0  0
 21 22  1  0  0  0  0
 22 15  1  6  0  0  0
 23 24  1  1  0  0  0
 25  8  1  6  0  0  0
 25 32  1  0  0  0  0
 26  9  1  6  0  0  0
 26 28  1  0  0  0  0
 27 28  1  0  0  0  0
 29 27  1  1  0  0  0
 29 30  1  0  0  0  0
 29 31  1  0  0  0  0
 30 35  1  0  0  0  0
 31 33  1  0  0  0  0
 31 32  1  6  0  0  0
 33 34  1  6  0  0  0
 33 35  1  0  0  0  0
 35 45  1  1  0  0  0
 36 41  2  0  0  0  0
 36 37  1  0  0  0  0
 37 38  2  0  0  0  0
 38 39  1  0  0  0  0
 39 40  2  0  0  0  0
 39 45  1  0  0  0  0
 40 41  1  0  0  0  0
 40 43  1  0  0  0  0
 41 42  1  0  0  0  0
 43 44  2  0  0  0  0
 44 45  1  0  0  0  0
M  CHG  4   8  -1   9  -1  11  -1  12  -1
M  END
>  <CHROM.1>
3.85536914,173.40326479,96.54261513,12.90335792,97.34177152,-2.52906741,-0.76309909
-1.32939318

>  <Name>
ligand

>  <RI>
0

>  <Rbt.Current_Directory>
/home/itssahil/PROJECTS/Mol_Feturizer/New_Systems/rnas/4YAZ

>  <Rbt.Executable>
rbdock ($Id: //depot/dev/client3/rdock/2013.1/src/exe/rbdock.cxx#4 $)

>  <Rbt.Library>
libRbt.so (2013.1, Build901 2013/11/27)

>  <Rbt.Parameter_File>
/export/apps/rDock/src/rDock_2013.1_src/data/scripts/dock_solv.prm

>  <Rbt.Receptor>
prm/pocket_docking_2.prm

>  <SCORE>
-41.5727

>  <SCORE.INTER>
-41.3212

>  <SCORE.INTER.CONST>
1

>  <SCORE.INTER.POLAR>
0

>  <SCORE.INTER.ROT>
2

>  <SCORE.INTER.SOLV>
39.7509

>  <SCORE.INTER.VDW>
-45.7311

>  <SCORE.INTER.norm>
-0.918248

>  <SCORE.INTRA>
-0.251581

>  <SCORE.INTRA.DIHEDRAL>
-0.0509918

>  <SCORE.INTRA.DIHEDRAL.0>
2.39103

>  <SCORE.INTRA.POLAR>
0

>  <SCORE.INTRA.POLAR.0>
0

>  <SCORE.INTRA.REPUL>
0

>  <SCORE.INTRA.REPUL.0>
0

>  <SCORE.INTRA.SOLV>
-0.0151976

>  <SCORE.INTRA.SOLV.lig_0>
-163.975

>  <SCORE.INTRA.VDW>
-0.218487

>  <SCORE.INTRA.VDW.0>
-1.49176

>  <SCORE.INTRA.norm>
-0.00559069

>  <SCORE.RESTR>
0

>  <SCORE.RESTR.CAVITY>
0

>  <SCORE.RESTR.norm>
0

>  <SCORE.SYSTEM>
0

>  <SCORE.SYSTEM.CONST>
0

>  <SCORE.SYSTEM.DIHEDRAL>
0

>  <SCORE.SYSTEM.SOLV>
0

>  <SCORE.SYSTEM.norm>
0

>  <SCORE.heavy>
45

>  <SCORE.norm>
-0.923839

>  <RMSD>
6.961

$$$$
ligand
 OpenBabel11021811513D
libRbt.so/2013.1/901 2013/11/27
 45 51  0  0  0  0  0  0  0  0999 V2000
   96.5280    9.7571   98.4876 C   0  0  0  0  0  0  0  0  0  0  0  0
   95.4701   10.8645   94.7437 C   0  0  0  0  0  0  0  0  0  0  0  0
   93.7965   11.2753  103.2455 N   0  0  0  0  0  0  0  0  0  0  0  0
   97.3621    9.9159   99.4635 N   0  0  0  0  0  0  0  0  0  0  0  0
   94.4081   10.6781  101.0716 N   0  0  0  0  0  0  0  0  0  0  0  0
   96.0429   10.9082  102.7119 N   0  0  0  0  0  0  0  0  0  0  0  0
   98.3543   10.4780  102.2151 O   0  0  0  0  0  0  0  0  0  0  0  0
   98.2370   10.2751   93.4888 O   0  5  0  0  0  0  0  0  0  0  0  0
   92.4568   14.7873   95.5684 O   0  5  0  0  0  0  0  0  0  0  0  0
   92.3119   11.2370   97.8076 O   0  0  0  0  0  0  0  0  0  0  0  0
   99.0947   11.2855   95.2768 O   0  5  0  0  0  0  0  0  0  0  0  0
   93.1985   14.3226   97.6251 O   0  5  0  0  0  0  0  0  0  0  0  0
   96.7021   10.5424   95.2526 O   0  0  0  0  0  0  0  0  0  0  0  0
   94.5788    9.4495   96.6657 O   0  0  0  0  0  0  0  0  0  0  0  0
   93.2912   12.5742   95.7720 O   0  0  0  0  0  0  0  0  0  0  0  0
   94.8038   10.9463  102.2885 C   0  0  0  0  0  0  0  0  0  0  0  0
   97.0075   10.5673  101.8680 C   0  0  0  0  0  0  0  0  0  0  0  0
   96.6600   10.2823  100.5282 C   0  0  0  0  0  0  0  0  0  0  0  0
   95.3400   10.3332  100.1530 C   0  0  0  0  0  0  0  0  0  0  0  0
   93.6873   11.1482   97.8256 C   0  0  2  0  0  0  0  0  0  0  0  0
   94.3854   10.6479   95.7206 C   0  0  1  0  0  0  0  0  0  0  0  0
   94.2111   11.6843   96.3933 C   0  0  1  0  0  0  0  0  0  0  0  0
   94.1935    9.9465   98.0309 C   0  0  2  0  0  0  0  0  0  0  0  0
   95.3276   10.0090   98.8596 N   0  0  0  0  0  0  0  0  0  0  0  0
   97.9068   11.1897   94.5030 P   0  0  2  0  0  0  0  0  0  0  0  0
   93.4369   14.0391   96.2309 P   0  0  1  0  0  0  0  0  0  0  0  0
   95.2445   14.3457   94.3706 C   0  0  0  0  0  0  0  0  0  0  0  0
   94.8025   14.5976   95.7142 O   0  0  0  0  0  0  0  0  0  0  0  0
   96.6786   14.5720   94.1374 C   0  0  1  0  0  0  0  0  0  0  0  0
   97.0925   15.9370   94.8779 O   0  0  0  0  0  0  0  0  0  0  0  0
   97.3536   13.6688   94.6927 C   0  0  1  0  0  0  0  0  0  0  0  0
   97.5461   12.5220   93.8330 O   0  0  0  0  0  0  0  0  0  0  0  0
   98.6406   14.3690   95.1016 C   0  0  1  0  0  0  0  0  0  0  0  0
   99.4494   14.3942   94.1337 O   0  0  0  0  0  0  0  0  0  0  0  0
   98.2096   15.8008   95.4197 C   0  0  2  0  0  0  0  0  0  0  0  0
  101.2441   16.0052   99.5650 N   0  0  0  0  0  0  0  0  0  0  0  0
  101.5236   15.4151   98.3732 C   0  0  0  0  0  0  0  0  0  0  0  0
  100.5977   15.4846   97.4243 N   0  0  0  0  0  0  0  0  0  0  0  0
   99.3801   16.0443   97.5885 C   0  0  0  0  0  0  0  0  0  0  0  0
   99.0529   16.6672   98.8120 C   0  0  0  0  0  0  0  0  0  0  0  0
  100.0664   16.6057   99.8210 C   0  0  0  0  0  0  0  0  0  0  0  0
   99.8142   17.1890  101.0978 N   0  0  0  0  0  0  0  0  0  0  0  0
   97.8667   17.1466   98.6748 N   0  0  0  0  0  0  0  0  0  0  0  0
   97.4406   16.8885   97.4505 C   0  0  0  0  0  0  0  0  0  0  0  0
   98.3154   16.2161   96.7916 N   0  0  0  0  0  0  0  0  0  0  0  0
  1 24  1  0  0  0  0
  1  4  2  0  0  0  0
  2 13  1  0  0  0  0
  2 21  1  0  0  0  0
  3 16  1  0  0  0  0
  4 18  1  0  0  0  0
  5 19  2  0  0  0  0
  5 16  1  0  0  0  0
  6 16  2  0  0  0  0
  6 17  1  0  0  0  0
  7 17  1  0  0  0  0
 11 25  2  0  0  0  0
 12 26  2  0  0  0  0
 13 25  1  0  0  0  0
 14 23  1  0  0  0  0
 15 26  1  0  0  0  0
 17 18  2  0  0  0  0
 18 19  1  0  0  0  0
 19 24  1  0  0  0  0
 20 10  1  6  0  0  0
 20 22  1  0  0  0  0
 20 23  1  0  0  0  0
 21 14  1  1  0  0  0
 21 22  1  0  0  0  0
 22 15  1  6  0  0  0
 23 24  1  1  0  0  0
 25  8  1  6  0  0  0
 25 32  1  0  0  0  0
 26  9  1  6  0  0  0
 26 28  1  0  0  0  0
 27 28  1  0  0  0  0
 29 27  1  1  0  0  0
 29 30  1  0  0  0  0
 29 31  1  0  0  0  0
 30 35  1  0  0  0  0
 31 33  1  0  0  0  0
 31 32  1  6  0  0  0
 33 34  1  6  0  0  0
 33 35  1  0  0  0  0
 35 45  1  1  0  0  0
 36 41  2  0  0  0  0
 36 37  1  0  0  0  0
 37 38  2  0  0  0  0
 38 39  1  0  0  0  0
 39 40  2  0  0  0  0
 39 45  1  0  0  0  0
 40 41  1  0  0  0  0
 40 43  1  0  0  0  0
 41 42  1  0  0  0  0
 43 44  2  0  0  0  0
 44 45  1  0  0  0  0
M  CHG  4   8  -1   9  -1  11  -1  12  -1
M  END
>  <CHROM.1>
3.86267070,173.52528270,96.54344547,12.91101917,97.33611542,-2.53047201,-0.76338621
-1.32680183

>  <Name>
ligand

>  <RI>
0

>  <Rbt.Current_Directory>
/home/itssahil/PROJECTS/Mol_Feturizer/New_Systems/rnas/4YAZ

>  <Rbt.Executable>
rbdock ($Id: //depot/dev/client3/rdock/2013.1/src/exe/rbdock.cxx#4 $)

>  <Rbt.Library>
libRbt.so (2013.1, Build901 2013/11/27)

>  <Rbt.Parameter_File>
/export/apps/rDock/src/rDock_2013.1_src/data/scripts/dock_solv.prm

>  <Rbt.Receptor>
prm/pocket_docking_2.prm

>  <SCORE>
-41.6008

>  <SCORE.INTER>
-41.3488

>  <SCORE.INTER.CONST>
1

>  <SCORE.INTER.POLAR>
0

>  <SCORE.INTER.ROT>
2

>  <SCORE.INTER.SOLV>
39.7222

>  <SCORE.INTER.VDW>
-45.7399

>  <SCORE.INTER.norm>
-0.918862

>  <SCORE.INTRA>
-0.252028

>  <SCORE.INTRA.DIHEDRAL>
-0.0502068

>  <SCORE.INTRA.DIHEDRAL.0>
2.39103

>  <SCORE.INTRA.POLAR>
0

>  <SCORE.INTRA.POLAR.0>
0

>  <SCORE.INTRA.REPUL>
0

>  <SCORE.INTRA.REPUL.0>
0

>  <SCORE.INTRA.SOLV>
-0.0153361

>  <SCORE.INTRA.SOLV.lig_0>
-163.975

>  <SCORE.INTRA.VDW>
-0.219256

>  <SCORE.INTRA.VDW.0>
-1.49176

>  <SCORE.INTRA.norm>
-0.00560062

>  <SCORE.RESTR>
0

>  <SCORE.RESTR.CAVITY>
0

>  <SCORE.RESTR.norm>
0

>  <SCORE.SYSTEM>
0

>  <SCORE.SYSTEM.CONST>
0

>  <SCORE.SYSTEM.DIHEDRAL>
0

>  <SCORE.SYSTEM.SOLV>
0

>  <SCORE.SYSTEM.norm>
0

>  <SCORE.heavy>
45

>  <SCORE.norm>
-0.924462

>  <RMSD>
6.961

$$$$
ligand
 OpenBabel11021811513D
libRbt.so/2013.1/901 2013/11/27
 45 51  0  0  0  0  0  0  0  0999 V2000
   96.5525    9.7996   98.4121 C   0  0  0  0  0  0  0  0  0  0  0  0
   95.4864   10.9769   94.6867 C   0  0  0  0  0  0  0  0  0  0  0  0
   93.8176   11.2645  103.1847 N   0  0  0  0  0  0  0  0  0  0  0  0
   97.3861    9.9499   99.3897 N   0  0  0  0  0  0  0  0  0  0  0  0
   94.4306   10.6905  101.0050 N   0  0  0  0  0  0  0  0  0  0  0  0
   96.0647   10.9067  102.6478 N   0  0  0  0  0  0  0  0  0  0  0  0
   98.3769   10.4856  102.1470 O   0  0  0  0  0  0  0  0  0  0  0  0
   98.2572   10.4313   93.4209 O   0  5  0  0  0  0  0  0  0  0  0  0
   92.4437   14.8611   95.5831 O   0  5  0  0  0  0  0  0  0  0  0  0
   92.3263   11.2696   97.7574 O   0  0  0  0  0  0  0  0  0  0  0  0
   99.1078   11.4155   95.2268 O   0  5  0  0  0  0  0  0  0  0  0  0
   93.1896   14.3647   97.6309 O   0  5  0  0  0  0  0  0  0  0  0  0
   96.7209   10.6549   95.1895 O   0  0  0  0  0  0  0  0  0  0  0  0
   94.6064    9.5204   96.5828 O   0  0  0  0  0  0  0  0  0  0  0  0
   93.2949   12.6510   95.7463 O   0  0  0  0  0  0  0  0  0  0  0  0
   94.8256   10.9470  102.2246 C   0  0  0  0  0  0  0  0  0  0  0  0
   97.0300   10.5761  101.8006 C   0  0  0  0  0  0  0  0  0  0  0  0
   96.6832   10.3041  100.4579 C   0  0  0  0  0  0  0  0  0  0  0  0
   95.3633   10.3566  100.0831 C   0  0  0  0  0  0  0  0  0  0  0  0
   93.7024   11.1910   97.7736 C   0  0  2  0  0  0  0  0  0  0  0  0
   94.4036   10.7343   95.6597 C   0  0  1  0  0  0  0  0  0  0  0  0
   94.2217   11.7570   96.3512 C   0  0  1  0  0  0  0  0  0  0  0  0
   94.2177    9.9896   97.9569 C   0  0  2  0  0  0  0  0  0  0  0  0
   95.3515   10.0456   98.7864 N   0  0  0  0  0  0  0  0  0  0  0  0
   97.9204   11.3248   94.4515 P   0  0  2  0  0  0  0  0  0  0  0  0
   93.4297   14.1084   96.2318 P   0  0  1  0  0  0  0  0  0  0  0  0
   95.2343   14.4625   94.3770 C   0  0  0  0  0  0  0  0  0  0  0  0
   94.7908   14.6866   95.7250 O   0  0  0  0  0  0  0  0  0  0  0  0
   96.6666   14.7038   94.1477 C   0  0  1  0  0  0  0  0  0  0  0  0
   97.0704   16.0582   94.9129 O   0  0  0  0  0  0  0  0  0  0  0  0
   97.3485   13.7958   94.6864 C   0  0  1  0  0  0  0  0  0  0  0  0
   97.5495   12.6662   93.8059 O   0  0  0  0  0  0  0  0  0  0  0  0
   98.6303   14.4981   95.1077 C   0  0  1  0  0  0  0  0  0  0  0  0
   99.4386   14.5470   94.1403 O   0  0  0  0  0  0  0  0  0  0  0  0
   98.1886   15.9207   95.4519 C   0  0  2  0  0  0  0  0  0  0  0  0
  101.2466   16.1385   99.5792 N   0  0  0  0  0  0  0  0  0  0  0  0
  101.5355   15.5814   98.3738 C   0  0  0  0  0  0  0  0  0  0  0  0
  100.6007   15.6403   97.4330 N   0  0  0  0  0  0  0  0  0  0  0  0
   99.3673   16.1578   97.6169 C   0  0  0  0  0  0  0  0  0  0  0  0
   99.0300   16.7456   98.8549 C   0  0  0  0  0  0  0  0  0  0  0  0
  100.0526   16.6962   99.8555 C   0  0  0  0  0  0  0  0  0  0  0  0
   99.7918   17.2457  101.1454 N   0  0  0  0  0  0  0  0  0  0  0  0
   97.8282   17.1899   98.7357 N   0  0  0  0  0  0  0  0  0  0  0  0
   97.4012   16.9428   97.5095 C   0  0  0  0  0  0  0  0  0  0  0  0
   98.2917   16.3117   96.8311 N   0  0  0  0  0  0  0  0  0  0  0  0
  1 24  1  0  0  0  0
  1  4  2  0  0  0  0
  2 13  1  0  0  0  0
  2 21  1  0  0  0  0
  3 16  1  0  0  0  0
  4 18  1  0  0  0  0
  5 19  2  0  0  0  0
  5 16  1  0  0  0  0
  6 16  2  0  0  0  0
  6 17  1  0  0  0  0
  7 17  1  0  0  0  0
 11 25  2  0  0  0  0
 12 26  2  0  0  0  0
 13 25  1  0  0  0  0
 14 23  1  0  0  0  0
 15 26  1  0  0  0  0
 17 18  2  0  0  0  0
 18 19  1  0  0  0  0
 19 24  1  0  0  0  0
 20 10  1  6  0  0  0
 20 22  1  0  0  0  0
 20 23  1  0  0  0  0
 21 14  1  1  0  0  0
 21 22  1  0  0  0  0
 22 15  1  6  0  0  0
 23 24  1  1  0  0  0
 25  8  1  6  0  0  0
 25 32  1  0  0  0  0
 26  9  1  6  0  0  0
 26 28  1  0  0  0  0
 27 28  1  0  0  0  0
 29 27  1  1  0  0  0
 29 30  1  0  0  0  0
 29 31  1  0  0  0  0
 30 35  1  0  0  0  0
 31 33  1  0  0  0  0
 31 32  1  6  0  0  0
 33 34  1  6  0  0  0
 33 35  1  0  0  0  0
 35 45  1  1  0  0  0
 36 41  2  0  0  0  0
 36 37  1  0  0  0  0
 37 38  2  0  0  0  0
 38 39  1  0  0  0  0
 39 40  2  0  0  0  0
 39 45  1  0  0  0  0
 40 41  1  0  0  0  0
 40 43  1  0  0  0  0
 41 42  1  0  0  0  0
 43 44  2  0  0  0  0
 44 45  1  0  0  0  0
M  CHG  4   8  -1   9  -1  11  -1  12  -1
M  END
>  <CHROM.1>
3.29496016,174.96416648,96.54706088,12.99208520,97.31342217,-2.54828644,-0.77269136
-1.31160628

>  <Name>
ligand

>  <RI>
0

>  <Rbt.Current_Directory>
/home/itssahil/PROJECTS/Mol_Feturizer/New_Systems/rnas/4YAZ

>  <Rbt.Executable>
rbdock ($Id: //depot/dev/client3/rdock/2013.1/src/exe/rbdock.cxx#4 $)

>  <Rbt.Library>
libRbt.so (2013.1, Build901 2013/11/27)

>  <Rbt.Parameter_File>
/export/apps/rDock/src/rDock_2013.1_src/data/scripts/dock_solv.prm

>  <Rbt.Receptor>
prm/pocket_docking_5.prm

>  <SCORE>
-41.5117

>  <SCORE.INTER>
-41.3

>  <SCORE.INTER.CONST>
1

>  <SCORE.INTER.POLAR>
0

>  <SCORE.INTER.ROT>
2

>  <SCORE.INTER.SOLV>
39.7767

>  <SCORE.INTER.VDW>
-45.7256

>  <SCORE.INTER.norm>
-0.917779

>  <SCORE.INTRA>
-0.211666

>  <SCORE.INTRA.DIHEDRAL>
-0.0409556

>  <SCORE.INTRA.DIHEDRAL.0>
2.39103

>  <SCORE.INTRA.POLAR>
0

>  <SCORE.INTRA.POLAR.0>
0

>  <SCORE.INTRA.REPUL>
0

>  <SCORE.INTRA.REPUL.0>
0

>  <SCORE.INTRA.SOLV>
-0.016057

>  <SCORE.INTRA.SOLV.lig_0>
-163.975

>  <SCORE.INTRA.VDW>
-0.183159

>  <SCORE.INTRA.VDW.0>
-1.49176

>  <SCORE.INTRA.norm>
-0.00470368

>  <SCORE.RESTR>
0

>  <SCORE.RESTR.CAVITY>
0

>  <SCORE.RESTR.norm>
0

>  <SCORE.SYSTEM>
0

>  <SCORE.SYSTEM.CONST>
0

>  <SCORE.SYSTEM.DIHEDRAL>
0

>  <SCORE.SYSTEM.SOLV>
0

>  <SCORE.SYSTEM.norm>
0

>  <SCORE.heavy>
45

>  <SCORE.norm>
-0.922482

>  <RMSD>
6.961

$$$$
ligand
 OpenBabel11021811513D
libRbt.so/2013.1/901 2013/11/27
 45 51  0  0  0  0  0  0  0  0999 V2000
   96.5485    9.7891   98.5175 C   0  0  0  0  0  0  0  0  0  0  0  0
   95.4933   10.8450   94.7715 C   0  0  0  0  0  0  0  0  0  0  0  0
   93.7854   11.1815  103.2956 N   0  0  0  0  0  0  0  0  0  0  0  0
   97.3786    9.9477   99.4968 N   0  0  0  0  0  0  0  0  0  0  0  0
   94.4097   10.6301  101.1133 N   0  0  0  0  0  0  0  0  0  0  0  0
   96.0385   10.8641  102.7589 N   0  0  0  0  0  0  0  0  0  0  0  0
   98.3579   10.4842  102.2581 O   0  0  0  0  0  0  0  0  0  0  0  0
   98.2645   10.2550   93.5265 O   0  5  0  0  0  0  0  0  0  0  0  0
   92.4685   14.7650   95.5664 O   0  5  0  0  0  0  0  0  0  0  0  0
   92.3270   11.2275   97.8259 O   0  0  0  0  0  0  0  0  0  0  0  0
   99.1155   11.2779   95.3105 O   0  5  0  0  0  0  0  0  0  0  0  0
   93.2066   14.3141   97.6275 O   0  5  0  0  0  0  0  0  0  0  0  0
   96.7248   10.5288   95.2852 O   0  0  0  0  0  0  0  0  0  0  0  0
   94.6010    9.4390   96.6997 O   0  0  0  0  0  0  0  0  0  0  0  0
   93.3078   12.5552   95.7848 O   0  0  0  0  0  0  0  0  0  0  0  0
   94.7994   10.8862  102.3347 C   0  0  0  0  0  0  0  0  0  0  0  0
   97.0100   10.5543  101.9108 C   0  0  0  0  0  0  0  0  0  0  0  0
   96.6690   10.2842  100.5663 C   0  0  0  0  0  0  0  0  0  0  0  0
   95.3487   10.3169  100.1904 C   0  0  0  0  0  0  0  0  0  0  0  0
   93.7026   11.1422   97.8476 C   0  0  2  0  0  0  0  0  0  0  0  0
   94.4069   10.6313   95.7472 C   0  0  1  0  0  0  0  0  0  0  0  0
   94.2284   11.6713   96.4135 C   0  0  1  0  0  0  0  0  0  0  0  0
   94.2113    9.9429   98.0611 C   0  0  2  0  0  0  0  0  0  0  0  0
   95.3433   10.0130   98.8920 N   0  0  0  0  0  0  0  0  0  0  0  0
   97.9297   11.1747   94.5345 P   0  0  2  0  0  0  0  0  0  0  0  0
   93.4489   14.0231   96.2356 P   0  0  1  0  0  0  0  0  0  0  0  0
   95.2600   14.3234   94.3776 C   0  0  0  0  0  0  0  0  0  0  0  0
   94.8143   14.5820   95.7187 O   0  0  0  0  0  0  0  0  0  0  0  0
   96.6941   14.5518   94.1464 C   0  0  1  0  0  0  0  0  0  0  0  0
   97.1030   15.9221   94.8799 O   0  0  0  0  0  0  0  0  0  0  0  0
   97.3700   13.6535   94.7085 C   0  0  1  0  0  0  0  0  0  0  0  0
   97.5673   12.5021   93.8559 O   0  0  0  0  0  0  0  0  0  0  0  0
   98.6543   14.3592   95.1163 C   0  0  1  0  0  0  0  0  0  0  0  0
   99.4653   14.3807   94.1501 O   0  0  0  0  0  0  0  0  0  0  0  0
   98.2191   15.7918   95.4250 C   0  0  2  0  0  0  0  0  0  0  0  0
  101.2253   15.9816   99.5917 N   0  0  0  0  0  0  0  0  0  0  0  0
  101.5050   15.3791   98.4062 C   0  0  0  0  0  0  0  0  0  0  0  0
  100.5874   15.4552   97.4498 N   0  0  0  0  0  0  0  0  0  0  0  0
   99.3768   16.0337   97.6008 C   0  0  0  0  0  0  0  0  0  0  0  0
   99.0497   16.6701   98.8174 C   0  0  0  0  0  0  0  0  0  0  0  0
  100.0546   16.6011   99.8345 C   0  0  0  0  0  0  0  0  0  0  0  0
   99.8014   17.1972  101.1052 N   0  0  0  0  0  0  0  0  0  0  0  0
   97.8716   17.1657   98.6678 N   0  0  0  0  0  0  0  0  0  0  0  0
   97.4510   16.9051   97.4422 C   0  0  0  0  0  0  0  0  0  0  0  0
   98.3207   16.2153   96.7948 N   0  0  0  0  0  0  0  0  0  0  0  0
  1 24  1  0  0  0  0
  1  4  2  0  0  0  0
  2 13  1  0  0  0  0
  2 21  1  0  0  0  0
  3 16  1  0  0  0  0
  4 18  1  0  0  0  0
  5 19  2  0  0  0  0
  5 16  1  0  0  0  0
  6 16  2  0  0  0  0
  6 17  1  0  0  0  0
  7 17  1  0  0  0  0
 11 25  2  0  0  0  0
 12 26  2  0  0  0  0
 13 25  1  0  0  0  0
 14 23  1  0  0  0  0
 15 26  1  0  0  0  0
 17 18  2  0  0  0  0
 18 19  1  0  0  0  0
 19 24  1  0  0  0  0
 20 10  1  6  0  0  0
 20 22  1  0  0  0  0
 20 23  1  0  0  0  0
 21 14  1  1  0  0  0
 21 22  1  0  0  0  0
 22 15  1  6  0  0  0
 23 24  1  1  0  0  0
 25  8  1  6  0  0  0
 25 32  1  0  0  0  0
 26  9  1  6  0  0  0
 26 28  1  0  0  0  0
 27 28  1  0  0  0  0
 29 27  1  1  0  0  0
 29 30  1  0  0  0  0
 29 31  1  0  0  0  0
 30 35  1  0  0  0  0
 31 33  1  0  0  0  0
 31 32  1  6  0  0  0
 33 34  1  6  0  0  0
 33 35  1  0  0  0  0
 35 45  1  1  0  0  0
 36 41  2  0  0  0  0
 36 37  1  0  0  0  0
 37 38  2  0  0  0  0
 38 39  1  0  0  0  0
 39 40  2  0  0  0  0
 39 45  1  0  0  0  0
 40 41  1  0  0  0  0
 40 43  1  0  0  0  0
 41 42  1  0  0  0  0
 43 44  2  0  0  0  0
 44 45  1  0  0  0  0
M  CHG  4   8  -1   9  -1  11  -1  12  -1
M  END
>  <CHROM.1>
5.40304386,172.50136512,96.55330711,12.89745857,97.35765332,-2.50364753,-0.76471811
-1.32455146

>  <Name>
ligand

>  <RI>
0

>  <Rbt.Current_Directory>
/home/itssahil/PROJECTS/Mol_Feturizer/New_Systems/rnas/4YAZ

>  <Rbt.Executable>
rbdock ($Id: //depot/dev/client3/rdock/2013.1/src/exe/rbdock.cxx#4 $)

>  <Rbt.Library>
libRbt.so (2013.1, Build901 2013/11/27)

>  <Rbt.Parameter_File>
/export/apps/rDock/src/rDock_2013.1_src/data/scripts/dock_solv.prm

>  <Rbt.Receptor>
prm/pocket_docking_2.prm

>  <SCORE>
-41.5671

>  <SCORE.INTER>
-41.296

>  <SCORE.INTER.CONST>
1

>  <SCORE.INTER.POLAR>
0

>  <SCORE.INTER.ROT>
2

>  <SCORE.INTER.SOLV>
39.9136

>  <SCORE.INTER.VDW>
-45.7685

>  <SCORE.INTER.norm>
-0.917689

>  <SCORE.INTRA>
-0.271123

>  <SCORE.INTRA.DIHEDRAL>
-0.0562715

>  <SCORE.INTRA.DIHEDRAL.0>
2.39103

>  <SCORE.INTRA.POLAR>
0

>  <SCORE.INTRA.POLAR.0>
0

>  <SCORE.INTRA.REPUL>
0

>  <SCORE.INTRA.REPUL.0>
0

>  <SCORE.INTRA.SOLV>
-0.0149334

>  <SCORE.INTRA.SOLV.lig_0>
-163.975

>  <SCORE.INTRA.VDW>
-0.235521

>  <SCORE.INTRA.VDW.0>
-1.49176

>  <SCORE.INTRA.norm>
-0.00602496

>  <SCORE.RESTR>
0

>  <SCORE.RESTR.CAVITY>
0

>  <SCORE.RESTR.norm>
0

>  <SCORE.SYSTEM>
0

>  <SCORE.SYSTEM.CONST>
0

>  <SCORE.SYSTEM.DIHEDRAL>
0

>  <SCORE.SYSTEM.SOLV>
0

>  <SCORE.SYSTEM.norm>
0

>  <SCORE.heavy>
45

>  <SCORE.norm>
-0.923714

>  <RMSD>
6.964

$$$$
ligand
 OpenBabel11021811513D
libRbt.so/2013.1/901 2013/11/27
 45 51  0  0  0  0  0  0  0  0999 V2000
   96.5580    9.8167   98.4779 C   0  0  0  0  0  0  0  0  0  0  0  0
   95.4679   10.8845   94.7502 C   0  0  0  0  0  0  0  0  0  0  0  0
   93.8313   11.1239  103.3007 N   0  0  0  0  0  0  0  0  0  0  0  0
   97.3963    9.9669   99.4515 N   0  0  0  0  0  0  0  0  0  0  0  0
   94.4385   10.6073  101.1050 N   0  0  0  0  0  0  0  0  0  0  0  0
   96.0812   10.8286  102.7385 N   0  0  0  0  0  0  0  0  0  0  0  0
   98.3981   10.4708  102.2108 O   0  0  0  0  0  0  0  0  0  0  0  0
   98.2282   10.3038   93.4770 O   0  5  0  0  0  0  0  0  0  0  0  0
   92.4482   14.7980   95.5956 O   0  5  0  0  0  0  0  0  0  0  0  0
   92.3287   11.2467   97.8349 O   0  0  0  0  0  0  0  0  0  0  0  0
   99.0945   11.3163   95.2595 O   0  5  0  0  0  0  0  0  0  0  0  0
   93.2048   14.3350   97.6473 O   0  5  0  0  0  0  0  0  0  0  0  0
   96.7041   10.5660   95.2509 O   0  0  0  0  0  0  0  0  0  0  0  0
   94.5935    9.4664   96.6776 O   0  0  0  0  0  0  0  0  0  0  0  0
   93.2906   12.5874   95.7932 O   0  0  0  0  0  0  0  0  0  0  0  0
   94.8380   10.8487  102.3263 C   0  0  0  0  0  0  0  0  0  0  0  0
   97.0466   10.5370  101.8772 C   0  0  0  0  0  0  0  0  0  0  0  0
   96.6946   10.2837  100.5322 C   0  0  0  0  0  0  0  0  0  0  0  0
   95.3707   10.3132  100.1692 C   0  0  0  0  0  0  0  0  0  0  0  0
   93.7045   11.1621   97.8438 C   0  0  2  0  0  0  0  0  0  0  0  0
   94.3903   10.6644   95.7341 C   0  0  1  0  0  0  0  0  0  0  0  0
   94.2172   11.7001   96.4082 C   0  0  1  0  0  0  0  0  0  0  0  0
   94.2156    9.9618   98.0454 C   0  0  2  0  0  0  0  0  0  0  0  0
   95.3550   10.0275   98.8666 N   0  0  0  0  0  0  0  0  0  0  0  0
   97.9019   11.2172   94.4935 P   0  0  2  0  0  0  0  0  0  0  0  0
   93.4349   14.0526   96.2516 P   0  0  1  0  0  0  0  0  0  0  0  0
   95.2292   14.3651   94.3795 C   0  0  0  0  0  0  0  0  0  0  0  0
   94.7954   14.6154   95.7260 O   0  0  0  0  0  0  0  0  0  0  0  0
   96.6611   14.5958   94.1369 C   0  0  1  0  0  0  0  0  0  0  0  0
   97.0758   15.9619   94.8750 O   0  0  0  0  0  0  0  0  0  0  0  0
   97.3424   13.6945   94.6875 C   0  0  1  0  0  0  0  0  0  0  0  0
   97.5328   12.5484   93.8262 O   0  0  0  0  0  0  0  0  0  0  0  0
   98.6300   14.3985   95.0881 C   0  0  1  0  0  0  0  0  0  0  0  0
   99.4324   14.4264   94.1149 O   0  0  0  0  0  0  0  0  0  0  0  0
   98.1968   15.8289   95.4094 C   0  0  2  0  0  0  0  0  0  0  0  0
  101.2352   15.9839   99.5541 N   0  0  0  0  0  0  0  0  0  0  0  0
  101.5037   15.3872   98.3630 C   0  0  0  0  0  0  0  0  0  0  0  0
  100.5791   15.4721   97.4141 N   0  0  0  0  0  0  0  0  0  0  0  0
   99.3718   16.0541   97.5777 C   0  0  0  0  0  0  0  0  0  0  0  0
   99.0563   16.6846   98.8003 C   0  0  0  0  0  0  0  0  0  0  0  0
  100.0687   16.6062   99.8093 C   0  0  0  0  0  0  0  0  0  0  0  0
   99.8274   17.1958  101.0853 N   0  0  0  0  0  0  0  0  0  0  0  0
   97.8790   17.1854   98.6626 N   0  0  0  0  0  0  0  0  0  0  0  0
   97.4481   16.9334   97.4387 C   0  0  0  0  0  0  0  0  0  0  0  0
   98.3103   16.2442   96.7807 N   0  0  0  0  0  0  0  0  0  0  0  0
  1 24  1  0  0  0  0
  1  4  2  0  0  0  0
  2 13  1  0  0  0  0
  2 21  1  0  0  0  0
  3 16  1  0  0  0  0
  4 18  1  0  0  0  0
  5 19  2  0  0  0  0
  5 16  1  0  0  0  0
  6 16  2  0  0  0  0
  6 17  1  0  0  0  0
  7 17  1  0  0  0  0
 11 25  2  0  0  0  0
 12 26  2  0  0  0  0
 13 25  1  0  0  0  0
 14 23  1  0  0  0  0
 15 26  1  0  0  0  0
 17 18  2  0  0  0  0
 18 19  1  0  0  0  0
 19 24  1  0  0  0  0
 20 10  1  6  0  0  0
 20 22  1  0  0  0  0
 20 23  1  0  0  0  0
 21 14  1  1  0  0  0
 21 22  1  0  0  0  0
 22 15  1  6  0  0  0
 23 24  1  1  0  0  0
 25  8  1  6  0  0  0
 25 32  1  0  0  0  0
 26  9  1  6  0  0  0
 26 28  1  0  0  0  0
 27 28  1  0  0  0  0
 29 27  1  1  0  0  0
 29 30  1  0  0  0  0
 29 31  1  0  0  0  0
 30 35  1  0  0  0  0
 31 33  1  0  0  0  0
 31 32  1  6  0  0  0
 33 34  1  6  0  0  0
 33 35  1  0  0  0  0
 35 45  1  1  0  0  0
 36 41  2  0  0  0  0
 36 37  1  0  0  0  0
 37 38  2  0  0  0  0
 38 39  1  0  0  0  0
 39 40  2  0  0  0  0
 39 45  1  0  0  0  0
 40 41  1  0  0  0  0
 40 43  1  0  0  0  0
 41 42  1  0  0  0  0
 43 44  2  0  0  0  0
 44 45  1  0  0  0  0
M  CHG  4   8  -1   9  -1  11  -1  12  -1
M  END
>  <CHROM.1>
5.97184926,172.24884960,96.54912046,12.91805083,97.34013965,-2.48230677,-0.76258017
-1.30666386

>  <Name>
ligand

>  <RI>
0

>  <Rbt.Current_Directory>
/home/itssahil/PROJECTS/Mol_Feturizer/New_Systems/rnas/4YAZ

>  <Rbt.Executable>
rbdock ($Id: //depot/dev/client3/rdock/2013.1/src/exe/rbdock.cxx#4 $)

>  <Rbt.Library>
libRbt.so (2013.1, Build901 2013/11/27)

>  <Rbt.Parameter_File>
/export/apps/rDock/src/rDock_2013.1_src/data/scripts/dock_solv.prm

>  <Rbt.Receptor>
prm/pocket_docking_2.prm

>  <SCORE>
-41.4744

>  <SCORE.INTER>
-41.1961

>  <SCORE.INTER.CONST>
1

>  <SCORE.INTER.POLAR>
0

>  <SCORE.INTER.ROT>
2

>  <SCORE.INTER.SOLV>
39.8491

>  <SCORE.INTER.VDW>
-45.6805

>  <SCORE.INTER.norm>
-0.91547

>  <SCORE.INTRA>
-0.278263

>  <SCORE.INTRA.DIHEDRAL>
-0.0576885

>  <SCORE.INTRA.DIHEDRAL.0>
2.39103

>  <SCORE.INTRA.POLAR>
0

>  <SCORE.INTRA.POLAR.0>
0

>  <SCORE.INTRA.REPUL>
0

>  <SCORE.INTRA.REPUL.0>
0

>  <SCORE.INTRA.SOLV>
-0.0148902

>  <SCORE.INTRA.SOLV.lig_0>
-163.975

>  <SCORE.INTRA.VDW>
-0.241974

>  <SCORE.INTRA.VDW.0>
-1.49176

>  <SCORE.INTRA.norm>
-0.00618363

>  <SCORE.RESTR>
0

>  <SCORE.RESTR.CAVITY>
0

>  <SCORE.RESTR.norm>
0

>  <SCORE.SYSTEM>
0

>  <SCORE.SYSTEM.CONST>
0

>  <SCORE.SYSTEM.DIHEDRAL>
0

>  <SCORE.SYSTEM.SOLV>
0

>  <SCORE.SYSTEM.norm>
0

>  <SCORE.heavy>
45

>  <SCORE.norm>
-0.921654

>  <RMSD>
6.964

$$$$
ligand
 OpenBabel11021811513D
libRbt.so/2013.1/901 2013/11/27
 45 51  0  0  0  0  0  0  0  0999 V2000
   96.5865    9.8281   98.7305 C   0  0  0  0  0  0  0  0  0  0  0  0
   95.6470   10.8122   94.9236 C   0  0  0  0  0  0  0  0  0  0  0  0
   93.6456   11.3816  103.3501 N   0  0  0  0  0  0  0  0  0  0  0  0
   97.3798   10.0278   99.7325 N   0  0  0  0  0  0  0  0  0  0  0  0
   94.3512   10.7529  101.2139 N   0  0  0  0  0  0  0  0  0  0  0  0
   95.9182   11.0573  102.9074 N   0  0  0  0  0  0  0  0  0  0  0  0
   98.2558   10.6723  102.5053 O   0  0  0  0  0  0  0  0  0  0  0  0
   98.4702   10.2495   93.7877 O   0  5  0  0  0  0  0  0  0  0  0  0
   92.5266   14.6903   95.5333 O   0  5  0  0  0  0  0  0  0  0  0  0
   92.3693   11.1959   97.8580 O   0  0  0  0  0  0  0  0  0  0  0  0
   99.2398   11.3229   95.5790 O   0  5  0  0  0  0  0  0  0  0  0  0
   93.1999   14.2938   97.6275 O   0  5  0  0  0  0  0  0  0  0  0  0
   96.8653   10.5292   95.4860 O   0  0  0  0  0  0  0  0  0  0  0  0
   94.7130    9.4281   96.8478 O   0  0  0  0  0  0  0  0  0  0  0  0
   93.3971   12.5012   95.8256 O   0  0  0  0  0  0  0  0  0  0  0  0
   94.6951   11.0565  102.4382 C   0  0  0  0  0  0  0  0  0  0  0  0
   96.9211   10.7217  102.1072 C   0  0  0  0  0  0  0  0  0  0  0  0
   96.6304   10.3998  100.7623 C   0  0  0  0  0  0  0  0  0  0  0  0
   95.3244   10.4109  100.3380 C   0  0  0  0  0  0  0  0  0  0  0  0
   93.7446   11.1367   97.9291 C   0  0  2  0  0  0  0  0  0  0  0  0
   94.5311   10.5977   95.8651 C   0  0  1  0  0  0  0  0  0  0  0  0
   94.3108   11.6471   96.5036 C   0  0  1  0  0  0  0  0  0  0  0  0
   94.2668    9.9514   98.1844 C   0  0  2  0  0  0  0  0  0  0  0  0
   95.3676   10.0589   99.0524 N   0  0  0  0  0  0  0  0  0  0  0  0
   98.0839   11.1825   94.7646 P   0  0  2  0  0  0  0  0  0  0  0  0
   93.4960   13.9801   96.2510 P   0  0  1  0  0  0  0  0  0  0  0  0
   95.3655   14.2773   94.4513 C   0  0  0  0  0  0  0  0  0  0  0  0
   94.8686   14.5539   95.7706 O   0  0  0  0  0  0  0  0  0  0  0  0
   96.8026   14.5277   94.2654 C   0  0  1  0  0  0  0  0  0  0  0  0
   97.1609   15.9196   94.9846 O   0  0  0  0  0  0  0  0  0  0  0  0
   97.4742   13.6533   94.8688 C   0  0  1  0  0  0  0  0  0  0  0  0
   97.7219   12.4893   94.0470 O   0  0  0  0  0  0  0  0  0  0  0  0
   98.7307   14.3907   95.3064 C   0  0  1  0  0  0  0  0  0  0  0  0
   99.5745   14.4083   94.3686 O   0  0  0  0  0  0  0  0  0  0  0  0
   98.2594   15.8208   95.5706 C   0  0  2  0  0  0  0  0  0  0  0  0
  101.1139   16.1488   99.8342 N   0  0  0  0  0  0  0  0  0  0  0  0
  101.4458   15.5283   98.6716 C   0  0  0  0  0  0  0  0  0  0  0  0
  100.5610   15.5684   97.6827 N   0  0  0  0  0  0  0  0  0  0  0  0
   99.3356   16.1271   97.7799 C   0  0  0  0  0  0  0  0  0  0  0  0
   98.9547   16.7810   98.9712 C   0  0  0  0  0  0  0  0  0  0  0  0
   99.9245   16.7509  100.0237 C   0  0  0  0  0  0  0  0  0  0  0  0
   99.6163   17.3669  101.2725 N   0  0  0  0  0  0  0  0  0  0  0  0
   97.7739   17.2515   98.7709 N   0  0  0  0  0  0  0  0  0  0  0  0
   97.4011   16.9589   97.5370 C   0  0  0  0  0  0  0  0  0  0  0  0
   98.3053   16.2730   96.9342 N   0  0  0  0  0  0  0  0  0  0  0  0
  1 24  1  0  0  0  0
  1  4  2  0  0  0  0
  2 13  1  0  0  0  0
  2 21  1  0  0  0  0
  3 16  1  0  0  0  0
  4 18  1  0  0  0  0
  5 19  2  0  0  0  0
  5 16  1  0  0  0  0
  6 16  2  0  0  0  0
  6 17  1  0  0  0  0
  7 17  1  0  0  0  0
 11 25  2  0  0  0  0
 12 26  2  0  0  0  0
 13 25  1  0  0  0  0
 14 23  1  0  0  0  0
 15 26  1  0  0  0  0
 17 18  2  0  0  0  0
 18 19  1  0  0  0  0
 19 24  1  0  0  0  0
 20 10  1  6  0  0  0
 20 22  1  0  0  0  0
 20 23  1  0  0  0  0
 21 14  1  1  0  0  0
 21 22  1  0  0  0  0
 22 15  1  6  0  0  0
 23 24  1  1  0  0  0
 25  8  1  6  0  0  0
 25 32  1  0  0  0  0
 26  9  1  6  0  0  0
 26 28  1  0  0  0  0
 27 28  1  0  0  0  0
 29 27  1  1  0  0  0
 29 30  1  0  0  0  0
 29 31  1  0  0  0  0
 30 35  1  0  0  0  0
 31 33  1  0  0  0  0
 31 32  1  6  0  0  0
 33 34  1  6  0  0  0
 33 35  1  0  0  0  0
 35 45  1  1  0  0  0
 36 41  2  0  0  0  0
 36 37  1  0  0  0  0
 37 38  2  0  0  0  0
 38 39  1  0  0  0  0
 39 40  2  0  0  0  0
 39 45  1  0  0  0  0
 40 41  1  0  0  0  0
 40 43  1  0  0  0  0
 41 42  1  0  0  0  0
 43 44  2  0  0  0  0
 44 45  1  0  0  0  0
M  CHG  4   8  -1   9  -1  11  -1  12  -1
M  END
>  <CHROM.1>
4.15188070,172.50998902,96.57959709,12.94113838,97.50101309,-2.56165351,-0.79025806
-1.38103916

>  <Name>
ligand

>  <RI>
0

>  <Rbt.Current_Directory>
/home/itssahil/PROJECTS/Mol_Feturizer/New_Systems/rnas/4YAZ

>  <Rbt.Executable>
rbdock ($Id: //depot/dev/client3/rdock/2013.1/src/exe/rbdock.cxx#4 $)

>  <Rbt.Library>
libRbt.so (2013.1, Build901 2013/11/27)

>  <Rbt.Parameter_File>
/export/apps/rDock/src/rDock_2013.1_src/data/scripts/dock_solv.prm

>  <Rbt.Receptor>
prm/pocket_docking_3.prm

>  <SCORE>
-41.4802

>  <SCORE.INTER>
-41.2291

>  <SCORE.INTER.CONST>
1

>  <SCORE.INTER.POLAR>
0

>  <SCORE.INTER.ROT>
2

>  <SCORE.INTER.SOLV>
41.3869

>  <SCORE.INTER.VDW>
-46.215

>  <SCORE.INTER.norm>
-0.916201

>  <SCORE.INTRA>
-0.253366

>  <SCORE.INTRA.DIHEDRAL>
-0.0565634

>  <SCORE.INTRA.DIHEDRAL.0>
2.39103

>  <SCORE.INTRA.POLAR>
0

>  <SCORE.INTRA.POLAR.0>
0

>  <SCORE.INTRA.REPUL>
0

>  <SCORE.INTRA.REPUL.0>
0

>  <SCORE.INTRA.SOLV>
-0.0144732

>  <SCORE.INTRA.SOLV.lig_0>
-163.975

>  <SCORE.INTRA.VDW>
-0.217848

>  <SCORE.INTRA.VDW.0>
-1.49176

>  <SCORE.INTRA.norm>
-0.00563035

>  <SCORE.RESTR>
0.00220606

>  <SCORE.RESTR.CAVITY>
0.00220606

>  <SCORE.RESTR.norm>
4.90236e-05

>  <SCORE.SYSTEM>
0

>  <SCORE.SYSTEM.CONST>
0

>  <SCORE.SYSTEM.DIHEDRAL>
0

>  <SCORE.SYSTEM.SOLV>
0

>  <SCORE.SYSTEM.norm>
0

>  <SCORE.heavy>
45

>  <SCORE.norm>
-0.921783

>  <RMSD>
6.964

$$$$
ligand
 OpenBabel11021811513D
libRbt.so/2013.1/901 2013/11/27
 45 51  0  0  0  0  0  0  0  0999 V2000
   96.5607    9.7610   98.5312 C   0  0  0  0  0  0  0  0  0  0  0  0
   95.5703   10.7795   94.7548 C   0  0  0  0  0  0  0  0  0  0  0  0
   93.7321   11.2519  103.2407 N   0  0  0  0  0  0  0  0  0  0  0  0
   97.3762    9.9296   99.5210 N   0  0  0  0  0  0  0  0  0  0  0  0
   94.3871   10.6602  101.0780 N   0  0  0  0  0  0  0  0  0  0  0  0
   95.9911   10.9092  102.7456 N   0  0  0  0  0  0  0  0  0  0  0  0
   98.3152   10.5042  102.2886 O   0  0  0  0  0  0  0  0  0  0  0  0
   98.3581   10.1617   93.5613 O   0  5  0  0  0  0  0  0  0  0  0  0
   92.5516   14.7226   95.4528 O   0  5  0  0  0  0  0  0  0  0  0  0
   92.3581   11.2143   97.7537 O   0  0  0  0  0  0  0  0  0  0  0  0
   99.1856   11.2030   95.3457 O   0  5  0  0  0  0  0  0  0  0  0  0
   93.2549   14.2943   97.5308 O   0  5  0  0  0  0  0  0  0  0  0  0
   96.7921   10.4643   95.2918 O   0  0  0  0  0  0  0  0  0  0  0  0
   94.6412    9.4017   96.6859 O   0  0  0  0  0  0  0  0  0  0  0  0
   93.3771   12.5120   95.7120 O   0  0  0  0  0  0  0  0  0  0  0  0
   94.7591   10.9334  102.3012 C   0  0  0  0  0  0  0  0  0  0  0  0
   96.9736   10.5784  101.9186 C   0  0  0  0  0  0  0  0  0  0  0  0
   96.6521   10.2888  100.5732 C   0  0  0  0  0  0  0  0  0  0  0  0
   95.3383   10.3250  100.1757 C   0  0  0  0  0  0  0  0  0  0  0  0
   93.7327   11.1232   97.7982 C   0  0  2  0  0  0  0  0  0  0  0  0
   94.4677   10.5829   95.7157 C   0  0  1  0  0  0  0  0  0  0  0  0
   94.2835   11.6319   96.3661 C   0  0  1  0  0  0  0  0  0  0  0  0
   94.2323    9.9244   98.0346 C   0  0  2  0  0  0  0  0  0  0  0  0
   95.3514    9.9999   98.8824 N   0  0  0  0  0  0  0  0  0  0  0  0
   98.0116   11.0954   94.5524 P   0  0  2  0  0  0  0  0  0  0  0  0
   93.5178   13.9848   96.1466 P   0  0  1  0  0  0  0  0  0  0  0  0
   95.3595   14.2537   94.3140 C   0  0  0  0  0  0  0  0  0  0  0  0
   94.8938   14.5311   95.6445 O   0  0  0  0  0  0  0  0  0  0  0  0
   96.7981   14.4728   94.1027 C   0  0  1  0  0  0  0  0  0  0  0  0
   97.2017   15.8504   94.8255 O   0  0  0  0  0  0  0  0  0  0  0  0
   97.4608   13.5786   94.6867 C   0  0  1  0  0  0  0  0  0  0  0  0
   97.6663   12.4158   93.8516 O   0  0  0  0  0  0  0  0  0  0  0  0
   98.7418   14.2837   95.1059 C   0  0  1  0  0  0  0  0  0  0  0  0
   99.5681   14.2895   94.1525 O   0  0  0  0  0  0  0  0  0  0  0  0
   98.3084   15.7220   95.3898 C   0  0  2  0  0  0  0  0  0  0  0  0
  101.2596   15.9756   99.5923 N   0  0  0  0  0  0  0  0  0  0  0  0
  101.5574   15.3604   98.4177 C   0  0  0  0  0  0  0  0  0  0  0  0
  100.6519   15.4207   97.4488 N   0  0  0  0  0  0  0  0  0  0  0  0
   99.4368   15.9952   97.5773 C   0  0  0  0  0  0  0  0  0  0  0  0
   99.0910   16.6443   98.7819 C   0  0  0  0  0  0  0  0  0  0  0  0
  100.0830   16.5922   99.8126 C   0  0  0  0  0  0  0  0  0  0  0  0
   99.8107   17.2020  101.0727 N   0  0  0  0  0  0  0  0  0  0  0  0
   97.9127   17.1325   98.6113 N   0  0  0  0  0  0  0  0  0  0  0  0
   97.5091   16.8553   97.3836 C   0  0  0  0  0  0  0  0  0  0  0  0
   98.3903   16.1621   96.7556 N   0  0  0  0  0  0  0  0  0  0  0  0
  1 24  1  0  0  0  0
  1  4  2  0  0  0  0
  2 13  1  0  0  0  0
  2 21  1  0  0  0  0
  3 16  1  0  0  0  0
  4 18  1  0  0  0  0
  5 19  2  0  0  0  0
  5 16  1  0  0  0  0
  6 16  2  0  0  0  0
  6 17  1  0  0  0  0
  7 17  1  0  0  0  0
 11 25  2  0  0  0  0
 12 26  2  0  0  0  0
 13 25  1  0  0  0  0
 14 23  1  0  0  0  0
 15 26  1  0  0  0  0
 17 18  2  0  0  0  0
 18 19  1  0  0  0  0
 19 24  1  0  0  0  0
 20 10  1  6  0  0  0
 20 22  1  0  0  0  0
 20 23  1  0  0  0  0
 21 14  1  1  0  0  0
 21 22  1  0  0  0  0
 22 15  1  6  0  0  0
 23 24  1  1  0  0  0
 25  8  1  6  0  0  0
 25 32  1  0  0  0  0
 26  9  1  6  0  0  0
 26 28  1  0  0  0  0
 27 28  1  0  0  0  0
 29 27  1  1  0  0  0
 29 30  1  0  0  0  0
 29 31  1  0  0  0  0
 30 35  1  0  0  0  0
 31 33  1  0  0  0  0
 31 32  1  6  0  0  0
 33 34  1  6  0  0  0
 33 35  1  0  0  0  0
 35 45  1  1  0  0  0
 36 41  2  0  0  0  0
 36 37  1  0  0  0  0
 37 38  2  0  0  0  0
 38 39  1  0  0  0  0
 39 40  2  0  0  0  0
 39 45  1  0  0  0  0
 40 41  1  0  0  0  0
 40 43  1  0  0  0  0
 41 42  1  0  0  0  0
 43 44  2  0  0  0  0
 44 45  1  0  0  0  0
M  CHG  4   8  -1   9  -1  11  -1  12  -1
M  END
>  <CHROM.1>
5.12459393,173.06124023,96.59981826,12.86288731,97.33064596,-2.53521455,-0.76463267
-1.35508733

>  <Name>
ligand

>  <RI>
0

>  <Rbt.Current_Directory>
/home/itssahil/PROJECTS/Mol_Feturizer/New_Systems/rnas/4YAZ

>  <Rbt.Executable>
rbdock ($Id: //depot/dev/client3/rdock/2013.1/src/exe/rbdock.cxx#4 $)

>  <Rbt.Library>
libRbt.so (2013.1, Build901 2013/11/27)

>  <Rbt.Parameter_File>
/export/apps/rDock/src/rDock_2013.1_src/data/scripts/dock_solv.prm

>  <Rbt.Receptor>
prm/pocket_docking_2.prm

>  <SCORE>
-41.5092

>  <SCORE.INTER>
-41.2404

>  <SCORE.INTER.CONST>
1

>  <SCORE.INTER.POLAR>
0

>  <SCORE.INTER.ROT>
2

>  <SCORE.INTER.SOLV>
39.6492

>  <SCORE.INTER.VDW>
-45.6433

>  <SCORE.INTER.norm>
-0.916453

>  <SCORE.INTRA>
-0.268837

>  <SCORE.INTRA.DIHEDRAL>
-0.0528212

>  <SCORE.INTRA.DIHEDRAL.0>
2.39103

>  <SCORE.INTRA.POLAR>
0

>  <SCORE.INTRA.POLAR.0>
0

>  <SCORE.INTRA.REPUL>
0

>  <SCORE.INTRA.REPUL.0>
0

>  <SCORE.INTRA.SOLV>
-0.0154014

>  <SCORE.INTRA.SOLV.lig_0>
-163.975

>  <SCORE.INTRA.VDW>
-0.234726

>  <SCORE.INTRA.VDW.0>
-1.49176

>  <SCORE.INTRA.norm>
-0.00597416

>  <SCORE.RESTR>
0

>  <SCORE.RESTR.CAVITY>
0

>  <SCORE.RESTR.norm>
0

>  <SCORE.SYSTEM>
0

>  <SCORE.SYSTEM.CONST>
0

>  <SCORE.SYSTEM.DIHEDRAL>
0

>  <SCORE.SYSTEM.SOLV>
0

>  <SCORE.SYSTEM.norm>
0

>  <SCORE.heavy>
45

>  <SCORE.norm>
-0.922427

>  <RMSD>
6.966

$$$$
ligand
 OpenBabel11021811513D
libRbt.so/2013.1/901 2013/11/27
 45 51  0  0  0  0  0  0  0  0999 V2000
   96.5658    9.8346   98.5091 C   0  0  0  0  0  0  0  0  0  0  0  0
   95.4934   10.8639   94.7686 C   0  0  0  0  0  0  0  0  0  0  0  0
   93.7997   11.1280  103.3132 N   0  0  0  0  0  0  0  0  0  0  0  0
   97.3971    9.9939   99.4874 N   0  0  0  0  0  0  0  0  0  0  0  0
   94.4242   10.6123  101.1222 N   0  0  0  0  0  0  0  0  0  0  0  0
   96.0553   10.8508  102.7649 N   0  0  0  0  0  0  0  0  0  0  0  0
   98.3782   10.5117  102.2515 O   0  0  0  0  0  0  0  0  0  0  0  0
   98.2642   10.2870   93.5168 O   0  5  0  0  0  0  0  0  0  0  0  0
   92.4501   14.7689   95.5670 O   0  5  0  0  0  0  0  0  0  0  0  0
   92.3334   11.2333   97.8311 O   0  0  0  0  0  0  0  0  0  0  0  0
   99.1147   11.3165   95.2974 O   0  5  0  0  0  0  0  0  0  0  0  0
   93.1961   14.3243   97.6267 O   0  5  0  0  0  0  0  0  0  0  0  0
   96.7279   10.5548   95.2793 O   0  0  0  0  0  0  0  0  0  0  0  0
   94.6137    9.4554   96.7008 O   0  0  0  0  0  0  0  0  0  0  0  0
   93.3016   12.5638   95.7858 O   0  0  0  0  0  0  0  0  0  0  0  0
   94.8144   10.8594  102.3453 C   0  0  0  0  0  0  0  0  0  0  0  0
   97.0282   10.5658  101.9098 C   0  0  0  0  0  0  0  0  0  0  0  0
   96.6864   10.3068  100.5633 C   0  0  0  0  0  0  0  0  0  0  0  0
   95.3644   10.3243  100.1924 C   0  0  0  0  0  0  0  0  0  0  0  0
   93.7094   11.1553   97.8492 C   0  0  2  0  0  0  0  0  0  0  0  0
   94.4107   10.6456   95.7474 C   0  0  1  0  0  0  0  0  0  0  0  0
   94.2286   11.6854   96.4130 C   0  0  1  0  0  0  0  0  0  0  0  0
   94.2249    9.9589   98.0626 C   0  0  2  0  0  0  0  0  0  0  0  0
   95.3588   10.0360   98.8904 N   0  0  0  0  0  0  0  0  0  0  0  0
   97.9273   11.2062   94.5246 P   0  0  2  0  0  0  0  0  0  0  0  0
   93.4362   14.0329   96.2344 P   0  0  1  0  0  0  0  0  0  0  0  0
   95.2407   14.3405   94.3713 C   0  0  0  0  0  0  0  0  0  0  0  0
   94.7972   14.5984   95.7132 O   0  0  0  0  0  0  0  0  0  0  0  0
   96.6730   14.5762   94.1359 C   0  0  1  0  0  0  0  0  0  0  0  0
   97.0766   15.9495   94.8668 O   0  0  0  0  0  0  0  0  0  0  0  0
   97.3550   13.6821   94.6973 C   0  0  1  0  0  0  0  0  0  0  0  0
   97.5562   12.5308   93.8455 O   0  0  0  0  0  0  0  0  0  0  0  0
   98.6368   14.3951   95.1008 C   0  0  1  0  0  0  0  0  0  0  0  0
   99.4450   14.4198   94.1324 O   0  0  0  0  0  0  0  0  0  0  0  0
   98.1948   15.8258   95.4090 C   0  0  2  0  0  0  0  0  0  0  0  0
  101.2097   16.0328   99.5686 N   0  0  0  0  0  0  0  0  0  0  0  0
  101.4891   15.4299   98.3832 C   0  0  0  0  0  0  0  0  0  0  0  0
  100.5690   15.5011   97.4288 N   0  0  0  0  0  0  0  0  0  0  0  0
   99.3565   16.0750   97.5819 C   0  0  0  0  0  0  0  0  0  0  0  0
   99.0296   16.7116   98.7984 C   0  0  0  0  0  0  0  0  0  0  0  0
  100.0371   16.6479   99.8133 C   0  0  0  0  0  0  0  0  0  0  0  0
   99.7845   17.2446  101.0838 N   0  0  0  0  0  0  0  0  0  0  0  0
   97.8493   17.2024   98.6509 N   0  0  0  0  0  0  0  0  0  0  0  0
   97.4269   16.9385   97.4266 C   0  0  0  0  0  0  0  0  0  0  0  0
   98.2978   16.2514   96.7780 N   0  0  0  0  0  0  0  0  0  0  0  0
  1 24  1  0  0  0  0
  1  4  2  0  0  0  0
  2 13  1  0  0  0  0
  2 21  1  0  0  0  0
  3 16  1  0  0  0  0
  4 18  1  0  0  0  0
  5 19  2  0  0  0  0
  5 16  1  0  0  0  0
  6 16  2  0  0  0  0
  6 17  1  0  0  0  0
  7 17  1  0  0  0  0
 11 25  2  0  0  0  0
 12 26  2  0  0  0  0
 13 25  1  0  0  0  0
 14 23  1  0  0  0  0
 15 26  1  0  0  0  0
 17 18  2  0  0  0  0
 18 19  1  0  0  0  0
 19 24  1  0  0  0  0
 20 10  1  6  0  0  0
 20 22  1  0  0  0  0
 20 23  1  0  0  0  0
 21 14  1  1  0  0  0
 21 22  1  0  0  0  0
 22 15  1  6  0  0  0
 23 24  1  1  0  0  0
 25  8  1  6  0  0  0
 25 32  1  0  0  0  0
 26  9  1  6  0  0  0
 26 28  1  0  0  0  0
 27 28  1  0  0  0  0
 29 27  1  1  0  0  0
 29 30  1  0  0  0  0
 29 31  1  0  0  0  0
 30 35  1  0  0  0  0
 31 33  1  0  0  0  0
 31 32  1  6  0  0  0
 33 34  1  6  0  0  0
 33 35  1  0  0  0  0
 35 45  1  1  0  0  0
 36 41  2  0  0  0  0
 36 37  1  0  0  0  0
 37 38  2  0  0  0  0
 38 39  1  0  0  0  0
 39 40  2  0  0  0  0
 39 45  1  0  0  0  0
 40 41  1  0  0  0  0
 40 43  1  0  0  0  0
 41 42  1  0  0  0  0
 43 44  2  0  0  0  0
 44 45  1  0  0  0  0
M  CHG  4   8  -1   9  -1  11  -1  12  -1
M  END
>  <CHROM.1>
6.34238963,172.42346477,96.54887783,12.91971591,97.35073125,-2.48631824,-0.76885144
-1.31667259

>  <Name>
ligand

>  <RI>
0

>  <Rbt.Current_Directory>
/home/itssahil/PROJECTS/Mol_Feturizer/New_Systems/rnas/4YAZ

>  <Rbt.Executable>
rbdock ($Id: //depot/dev/client3/rdock/2013.1/src/exe/rbdock.cxx#4 $)

>  <Rbt.Library>
libRbt.so (2013.1, Build901 2013/11/27)

>  <Rbt.Parameter_File>
/export/apps/rDock/src/rDock_2013.1_src/data/scripts/dock_solv.prm

>  <Rbt.Receptor>
prm/pocket_docking_2.prm

>  <SCORE>
-41.5574

>  <SCORE.INTER>
-41.2735

>  <SCORE.INTER.CONST>
1

>  <SCORE.INTER.POLAR>
0

>  <SCORE.INTER.ROT>
2

>  <SCORE.INTER.SOLV>
39.8994

>  <SCORE.INTER.VDW>
-45.7488

>  <SCORE.INTER.norm>
-0.917189

>  <SCORE.INTRA>
-0.283858

>  <SCORE.INTRA.DIHEDRAL>
-0.0565025

>  <SCORE.INTRA.DIHEDRAL.0>
2.39103

>  <SCORE.INTRA.POLAR>
0

>  <SCORE.INTRA.POLAR.0>
0

>  <SCORE.INTRA.REPUL>
0

>  <SCORE.INTRA.REPUL.0>
0

>  <SCORE.INTRA.SOLV>
-0.0151887

>  <SCORE.INTRA.SOLV.lig_0>
-163.975

>  <SCORE.INTRA.VDW>
-0.248012

>  <SCORE.INTRA.VDW.0>
-1.49176

>  <SCORE.INTRA.norm>
-0.00630795

>  <SCORE.RESTR>
0

>  <SCORE.RESTR.CAVITY>
0

>  <SCORE.RESTR.norm>
0

>  <SCORE.SYSTEM>
0

>  <SCORE.SYSTEM.CONST>
0

>  <SCORE.SYSTEM.DIHEDRAL>
0

>  <SCORE.SYSTEM.SOLV>
0

>  <SCORE.SYSTEM.norm>
0

>  <SCORE.heavy>
45

>  <SCORE.norm>
-0.923497

>  <RMSD>
6.968

$$$$
ligand
 OpenBabel11021811513D
libRbt.so/2013.1/901 2013/11/27
 45 51  0  0  0  0  0  0  0  0999 V2000
   96.5440    9.8410   98.5395 C   0  0  0  0  0  0  0  0  0  0  0  0
   95.4911   10.8572   94.7923 C   0  0  0  0  0  0  0  0  0  0  0  0
   93.7689   11.1467  103.3350 N   0  0  0  0  0  0  0  0  0  0  0  0
   97.3729    9.9966   99.5202 N   0  0  0  0  0  0  0  0  0  0  0  0
   94.3979   10.6282  101.1460 N   0  0  0  0  0  0  0  0  0  0  0  0
   96.0250   10.8596  102.7936 N   0  0  0  0  0  0  0  0  0  0  0  0
   98.3480   10.5102  102.2874 O   0  0  0  0  0  0  0  0  0  0  0  0
   98.2617   10.2544   93.5522 O   0  5  0  0  0  0  0  0  0  0  0  0
   92.4745   14.7881   95.5642 O   0  5  0  0  0  0  0  0  0  0  0  0
   92.3238   11.2630   97.8426 O   0  0  0  0  0  0  0  0  0  0  0  0
   99.1139   11.2850   95.3312 O   0  5  0  0  0  0  0  0  0  0  0  0
   93.2103   14.3466   97.6282 O   0  5  0  0  0  0  0  0  0  0  0  0
   96.7216   10.5411   95.3084 O   0  0  0  0  0  0  0  0  0  0  0  0
   94.5945    9.4635   96.7274 O   0  0  0  0  0  0  0  0  0  0  0  0
   93.3087   12.5777   95.7950 O   0  0  0  0  0  0  0  0  0  0  0  0
   94.7855   10.8737  102.3702 C   0  0  0  0  0  0  0  0  0  0  0  0
   96.9992   10.5702  101.9415 C   0  0  0  0  0  0  0  0  0  0  0  0
   96.6604   10.3127  100.5940 C   0  0  0  0  0  0  0  0  0  0  0  0
   95.3396   10.3360  100.2191 C   0  0  0  0  0  0  0  0  0  0  0  0
   93.6992   11.1749   97.8656 C   0  0  2  0  0  0  0  0  0  0  0  0
   94.4036   10.6512   95.7684 C   0  0  1  0  0  0  0  0  0  0  0  0
   94.2270   11.6951   96.4290 C   0  0  1  0  0  0  0  0  0  0  0  0
   94.2050    9.9756   98.0858 C   0  0  2  0  0  0  0  0  0  0  0  0
   95.3367   10.0477   98.9171 N   0  0  0  0  0  0  0  0  0  0  0  0
   97.9283   11.1803   94.5550 P   0  0  2  0  0  0  0  0  0  0  0  0
   93.4528   14.0476   96.2380 P   0  0  1  0  0  0  0  0  0  0  0  0
   95.2657   14.3339   94.3796 C   0  0  0  0  0  0  0  0  0  0  0  0
   94.8198   14.6007   95.7190 O   0  0  0  0  0  0  0  0  0  0  0  0
   96.7005   14.5580   94.1481 C   0  0  1  0  0  0  0  0  0  0  0  0
   97.1119   15.9313   94.8745 O   0  0  0  0  0  0  0  0  0  0  0  0
   97.3740   13.6612   94.7154 C   0  0  1  0  0  0  0  0  0  0  0  0
   97.5693   12.5048   93.8691 O   0  0  0  0  0  0  0  0  0  0  0  0
   98.6597   14.3663   95.1202 C   0  0  1  0  0  0  0  0  0  0  0  0
   99.4713   14.3808   94.1544 O   0  0  0  0  0  0  0  0  0  0  0  0
   98.2274   15.8014   95.4210 C   0  0  2  0  0  0  0  0  0  0  0  0
  101.2274   15.9973   99.5918 N   0  0  0  0  0  0  0  0  0  0  0  0
  101.5057   15.3864   98.4102 C   0  0  0  0  0  0  0  0  0  0  0  0
  100.5901   15.4624   97.4518 N   0  0  0  0  0  0  0  0  0  0  0  0
   99.3827   16.0489   97.5974 C   0  0  0  0  0  0  0  0  0  0  0  0
   99.0572   16.6940   98.8098 C   0  0  0  0  0  0  0  0  0  0  0  0
  100.0599   16.6249   99.8291 C   0  0  0  0  0  0  0  0  0  0  0  0
   99.8080   17.2295  101.0959 N   0  0  0  0  0  0  0  0  0  0  0  0
   97.8823   17.1956   98.6554 N   0  0  0  0  0  0  0  0  0  0  0  0
   97.4623   16.9305   97.4305 C   0  0  0  0  0  0  0  0  0  0  0  0
   98.3291   16.2321   96.7885 N   0  0  0  0  0  0  0  0  0  0  0  0
  1 24  1  0  0  0  0
  1  4  2  0  0  0  0
  2 13  1  0  0  0  0
  2 21  1  0  0  0  0
  3 16  1  0  0  0  0
  4 18  1  0  0  0  0
  5 19  2  0  0  0  0
  5 16  1  0  0  0  0
  6 16  2  0  0  0  0
  6 17  1  0  0  0  0
  7 17  1  0  0  0  0
 11 25  2  0  0  0  0
 12 26  2  0  0  0  0
 13 25  1  0  0  0  0
 14 23  1  0  0  0  0
 15 26  1  0  0  0  0
 17 18  2  0  0  0  0
 18 19  1  0  0  0  0
 19 24  1  0  0  0  0
 20 10  1  6  0  0  0
 20 22  1  0  0  0  0
 20 23  1  0  0  0  0
 21 14  1  1  0  0  0
 21 22  1  0  0  0  0
 22 15  1  6  0  0  0
 23 24  1  1  0  0  0
 25  8  1  6  0  0  0
 25 32  1  0  0  0  0
 26  9  1  6  0  0  0
 26 28  1  0  0  0  0
 27 28  1  0  0  0  0
 29 27  1  1  0  0  0
 29 30  1  0  0  0  0
 29 31  1  0  0  0  0
 30 35  1  0  0  0  0
 31 33  1  0  0  0  0
 31 32  1  6  0  0  0
 33 34  1  6  0  0  0
 33 35  1  0  0  0  0
 35 45  1  1  0  0  0
 36 41  2  0  0  0  0
 36 37  1  0  0  0  0
 37 38  2  0  0  0  0
 38 39  1  0  0  0  0
 39 40  2  0  0  0  0
 39 45  1  0  0  0  0
 40 41  1  0  0  0  0
 40 43  1  0  0  0  0
 41 42  1  0  0  0  0
 43 44  2  0  0  0  0
 44 45  1  0  0  0  0
M  CHG  4   8  -1   9  -1  11  -1  12  -1
M  END
>  <CHROM.1>
6.63872955,172.28336098,96.55303331,12.91389677,97.36983591,-2.48858038,-0.76221299
-1.32390884

>  <Name>
ligand

>  <RI>
0

>  <Rbt.Current_Directory>
/home/itssahil/PROJECTS/Mol_Feturizer/New_Systems/rnas/4YAZ

>  <Rbt.Executable>
rbdock ($Id: //depot/dev/client3/rdock/2013.1/src/exe/rbdock.cxx#4 $)

>  <Rbt.Library>
libRbt.so (2013.1, Build901 2013/11/27)

>  <Rbt.Parameter_File>
/export/apps/rDock/src/rDock_2013.1_src/data/scripts/dock_solv.prm

>  <Rbt.Receptor>
prm/pocket_docking_4.prm

>  <SCORE>
-41.5198

>  <SCORE.INTER>
-41.2323

>  <SCORE.INTER.CONST>
1

>  <SCORE.INTER.POLAR>
0

>  <SCORE.INTER.ROT>
2

>  <SCORE.INTER.SOLV>
40.1758

>  <SCORE.INTER.VDW>
-45.8135

>  <SCORE.INTER.norm>
-0.916273

>  <SCORE.INTRA>
-0.287457

>  <SCORE.INTRA.DIHEDRAL>
-0.0572945

>  <SCORE.INTRA.DIHEDRAL.0>
2.39103

>  <SCORE.INTRA.POLAR>
0

>  <SCORE.INTRA.POLAR.0>
0

>  <SCORE.INTRA.REPUL>
0

>  <SCORE.INTRA.REPUL.0>
0

>  <SCORE.INTRA.SOLV>
-0.0151428

>  <SCORE.INTRA.SOLV.lig_0>
-163.975

>  <SCORE.INTRA.VDW>
-0.251239

>  <SCORE.INTRA.VDW.0>
-1.49176

>  <SCORE.INTRA.norm>
-0.00638794

>  <SCORE.RESTR>
0

>  <SCORE.RESTR.CAVITY>
0

>  <SCORE.RESTR.norm>
0

>  <SCORE.SYSTEM>
0

>  <SCORE.SYSTEM.CONST>
0

>  <SCORE.SYSTEM.DIHEDRAL>
0

>  <SCORE.SYSTEM.SOLV>
0

>  <SCORE.SYSTEM.norm>
0

>  <SCORE.heavy>
45

>  <SCORE.norm>
-0.922661

>  <RMSD>
6.969

$$$$
ligand
 OpenBabel11021811513D
libRbt.so/2013.1/901 2013/11/27
 45 51  0  0  0  0  0  0  0  0999 V2000
   96.5531    9.7687   98.5872 C   0  0  0  0  0  0  0  0  0  0  0  0
   95.5570   10.7652   94.8071 C   0  0  0  0  0  0  0  0  0  0  0  0
   93.7192   11.2613  103.2930 N   0  0  0  0  0  0  0  0  0  0  0  0
   97.3682    9.9446   99.5760 N   0  0  0  0  0  0  0  0  0  0  0  0
   94.3762   10.6656  101.1319 N   0  0  0  0  0  0  0  0  0  0  0  0
   95.9797   10.9281  102.7980 N   0  0  0  0  0  0  0  0  0  0  0  0
   98.3055   10.5331  102.3413 O   0  0  0  0  0  0  0  0  0  0  0  0
   98.3468   10.1537   93.6153 O   0  5  0  0  0  0  0  0  0  0  0  0
   92.5222   14.6988   95.4890 O   0  5  0  0  0  0  0  0  0  0  0  0
   92.3440   11.1998   97.8052 O   0  0  0  0  0  0  0  0  0  0  0  0
   99.1707   11.2063   95.3948 O   0  5  0  0  0  0  0  0  0  0  0  0
   93.2280   14.2824   97.5685 O   0  5  0  0  0  0  0  0  0  0  0  0
   96.7803   10.4575   95.3450 O   0  0  0  0  0  0  0  0  0  0  0  0
   94.6343    9.3920   96.7446 O   0  0  0  0  0  0  0  0  0  0  0  0
   93.3569   12.4928   95.7575 O   0  0  0  0  0  0  0  0  0  0  0  0
   94.7474   10.9447  102.3541 C   0  0  0  0  0  0  0  0  0  0  0  0
   96.9635   10.5994  101.9716 C   0  0  0  0  0  0  0  0  0  0  0  0
   96.6428   10.3038  100.6274 C   0  0  0  0  0  0  0  0  0  0  0  0
   95.3287   10.3321  100.2303 C   0  0  0  0  0  0  0  0  0  0  0  0
   93.7190   11.1146   97.8497 C   0  0  2  0  0  0  0  0  0  0  0  0
   94.4555   10.5683   95.7692 C   0  0  1  0  0  0  0  0  0  0  0  0
   94.2673   11.6193   96.4151 C   0  0  1  0  0  0  0  0  0  0  0  0
   94.2237    9.9189   98.0911 C   0  0  2  0  0  0  0  0  0  0  0  0
   95.3428   10.0027   98.9382 N   0  0  0  0  0  0  0  0  0  0  0  0
   97.9969   11.0904   94.6023 P   0  0  2  0  0  0  0  0  0  0  0  0
   93.4917   13.9680   96.1856 P   0  0  1  0  0  0  0  0  0  0  0  0
   95.3315   14.2365   94.3512 C   0  0  0  0  0  0  0  0  0  0  0  0
   94.8653   14.5178   95.6806 O   0  0  0  0  0  0  0  0  0  0  0  0
   96.7692   14.4607   94.1384 C   0  0  1  0  0  0  0  0  0  0  0  0
   97.1673   15.8431   94.8550 O   0  0  0  0  0  0  0  0  0  0  0  0
   97.4358   13.5718   94.7260 C   0  0  1  0  0  0  0  0  0  0  0  0
   97.6458   12.4062   93.8960 O   0  0  0  0  0  0  0  0  0  0  0  0
   98.7140   14.2840   95.1417 C   0  0  1  0  0  0  0  0  0  0  0  0
   99.5399   14.2891   94.1879 O   0  0  0  0  0  0  0  0  0  0  0  0
   98.2748   15.7217   95.4194 C   0  0  2  0  0  0  0  0  0  0  0  0
  101.2288   16.0118   99.6176 N   0  0  0  0  0  0  0  0  0  0  0  0
  101.5292   15.3935   98.4453 C   0  0  0  0  0  0  0  0  0  0  0  0
  100.6223   15.4440   97.4771 N   0  0  0  0  0  0  0  0  0  0  0  0
   99.4037   16.0113   97.6045 C   0  0  0  0  0  0  0  0  0  0  0  0
   99.0551   16.6634   98.8067 C   0  0  0  0  0  0  0  0  0  0  0  0
  100.0485   16.6219   99.8366 C   0  0  0  0  0  0  0  0  0  0  0  0
   99.7737   17.2353  101.0944 N   0  0  0  0  0  0  0  0  0  0  0  0
   97.8735   17.1433   98.6354 N   0  0  0  0  0  0  0  0  0  0  0  0
   97.4704   16.8584   97.4093 C   0  0  0  0  0  0  0  0  0  0  0  0
   98.3554   16.1682   96.7833 N   0  0  0  0  0  0  0  0  0  0  0  0
  1 24  1  0  0  0  0
  1  4  2  0  0  0  0
  2 13  1  0  0  0  0
  2 21  1  0  0  0  0
  3 16  1  0  0  0  0
  4 18  1  0  0  0  0
  5 19  2  0  0  0  0
  5 16  1  0  0  0  0
  6 16  2  0  0  0  0
  6 17  1  0  0  0  0
  7 17  1  0  0  0  0
 11 25  2  0  0  0  0
 12 26  2  0  0  0  0
 13 25  1  0  0  0  0
 14 23  1  0  0  0  0
 15 26  1  0  0  0  0
 17 18  2  0  0  0  0
 18 19  1  0  0  0  0
 19 24  1  0  0  0  0
 20 10  1  6  0  0  0
 20 22  1  0  0  0  0
 20 23  1  0  0  0  0
 21 14  1  1  0  0  0
 21 22  1  0  0  0  0
 22 15  1  6  0  0  0
 23 24  1  1  0  0  0
 25  8  1  6  0  0  0
 25 32  1  0  0  0  0
 26  9  1  6  0  0  0
 26 28  1  0  0  0  0
 27 28  1  0  0  0  0
 29 27  1  1  0  0  0
 29 30  1  0  0  0  0
 29 31  1  0  0  0  0
 30 35  1  0  0  0  0
 31 33  1  0  0  0  0
 31 32  1  6  0  0  0
 33 34  1  6  0  0  0
 33 35  1  0  0  0  0
 35 45  1  1  0  0  0
 36 41  2  0  0  0  0
 36 37  1  0  0  0  0
 37 38  2  0  0  0  0
 38 39  1  0  0  0  0
 39 40  2  0  0  0  0
 39 45  1  0  0  0  0
 40 41  1  0  0  0  0
 40 43  1  0  0  0  0
 41 42  1  0  0  0  0
 43 44  2  0  0  0  0
 44 45  1  0  0  0  0
M  CHG  4   8  -1   9  -1  11  -1  12  -1
M  END
>  <CHROM.1>
5.19926763,173.19205119,96.57888277,12.86414792,97.37334710,-2.53381396,-0.76875698
-1.35803540

>  <Name>
ligand

>  <RI>
0

>  <Rbt.Current_Directory>
/home/itssahil/PROJECTS/Mol_Feturizer/New_Systems/rnas/4YAZ

>  <Rbt.Executable>
rbdock ($Id: //depot/dev/client3/rdock/2013.1/src/exe/rbdock.cxx#4 $)

>  <Rbt.Library>
libRbt.so (2013.1, Build901 2013/11/27)

>  <Rbt.Parameter_File>
/export/apps/rDock/src/rDock_2013.1_src/data/scripts/dock_solv.prm

>  <Rbt.Receptor>
prm/pocket_docking_4.prm

>  <SCORE>
-41.4713

>  <SCORE.INTER>
-41.2011

>  <SCORE.INTER.CONST>
1

>  <SCORE.INTER.POLAR>
0

>  <SCORE.INTER.ROT>
2

>  <SCORE.INTER.SOLV>
40.032

>  <SCORE.INTER.VDW>
-45.7447

>  <SCORE.INTER.norm>
-0.915579

>  <SCORE.INTRA>
-0.270258

>  <SCORE.INTRA.DIHEDRAL>
-0.0519687

>  <SCORE.INTRA.DIHEDRAL.0>
2.39103

>  <SCORE.INTRA.POLAR>
0

>  <SCORE.INTRA.POLAR.0>
0

>  <SCORE.INTRA.REPUL>
0

>  <SCORE.INTRA.REPUL.0>
0

>  <SCORE.INTRA.SOLV>
-0.0155646

>  <SCORE.INTRA.SOLV.lig_0>
-163.975

>  <SCORE.INTRA.VDW>
-0.236491

>  <SCORE.INTRA.VDW.0>
-1.49176

>  <SCORE.INTRA.norm>
-0.00600573

>  <SCORE.RESTR>
0

>  <SCORE.RESTR.CAVITY>
0

>  <SCORE.RESTR.norm>
0

>  <SCORE.SYSTEM>
0

>  <SCORE.SYSTEM.CONST>
0

>  <SCORE.SYSTEM.DIHEDRAL>
0

>  <SCORE.SYSTEM.SOLV>
0

>  <SCORE.SYSTEM.norm>
0

>  <SCORE.heavy>
45

>  <SCORE.norm>
-0.921585

>  <RMSD>
6.969

$$$$
ligand
 OpenBabel11021811513D
libRbt.so/2013.1/901 2013/11/27
 45 51  0  0  0  0  0  0  0  0999 V2000
   96.6105    9.7733   98.7499 C   0  0  0  0  0  0  0  0  0  0  0  0
   95.7040   10.6406   94.9185 C   0  0  0  0  0  0  0  0  0  0  0  0
   93.6687   11.3965  103.3449 N   0  0  0  0  0  0  0  0  0  0  0  0
   97.4027    9.9789   99.7516 N   0  0  0  0  0  0  0  0  0  0  0  0
   94.3753   10.7398  101.2175 N   0  0  0  0  0  0  0  0  0  0  0  0
   95.9401   11.0526  102.9114 N   0  0  0  0  0  0  0  0  0  0  0  0
   98.2761   10.6481  102.5194 O   0  0  0  0  0  0  0  0  0  0  0  0
   98.5192    9.9853   93.8126 O   0  5  0  0  0  0  0  0  0  0  0  0
   92.6640   14.5998   95.3994 O   0  5  0  0  0  0  0  0  0  0  0  0
   92.4236   11.1796   97.8252 O   0  0  0  0  0  0  0  0  0  0  0  0
   99.3042   11.0947   95.5750 O   0  5  0  0  0  0  0  0  0  0  0  0
   93.3205   14.2513   97.5074 O   0  5  0  0  0  0  0  0  0  0  0  0
   96.9138   10.3488   95.4945 O   0  0  0  0  0  0  0  0  0  0  0  0
   94.7333    9.3339   96.8782 O   0  0  0  0  0  0  0  0  0  0  0  0
   93.4868   12.4025   95.7599 O   0  0  0  0  0  0  0  0  0  0  0  0
   94.7182   11.0546  102.4392 C   0  0  0  0  0  0  0  0  0  0  0  0
   96.9428   10.7017  102.1175 C   0  0  0  0  0  0  0  0  0  0  0  0
   96.6532   10.3670  100.7754 C   0  0  0  0  0  0  0  0  0  0  0  0
   95.3484   10.3820  100.3478 C   0  0  0  0  0  0  0  0  0  0  0  0
   93.7970   11.0936   97.9043 C   0  0  2  0  0  0  0  0  0  0  0  0
   94.5800   10.4775   95.8607 C   0  0  1  0  0  0  0  0  0  0  0  0
   94.3795   11.5497   96.4670 C   0  0  1  0  0  0  0  0  0  0  0  0
   94.2930    9.9057   98.1967 C   0  0  2  0  0  0  0  0  0  0  0  0
   95.3923   10.0155   99.0663 N   0  0  0  0  0  0  0  0  0  0  0  0
   98.1488   10.9547   94.7598 P   0  0  2  0  0  0  0  0  0  0  0  0
   93.6153   13.8908   96.1421 P   0  0  1  0  0  0  0  0  0  0  0  0
   95.4978   14.0954   94.3431 C   0  0  0  0  0  0  0  0  0  0  0  0
   95.0016   14.4213   95.6513 O   0  0  0  0  0  0  0  0  0  0  0  0
   96.9405   14.3099   94.1564 C   0  0  1  0  0  0  0  0  0  0  0  0
   97.3254   15.7145   94.8361 O   0  0  0  0  0  0  0  0  0  0  0  0
   97.5912   13.4398   94.7884 C   0  0  1  0  0  0  0  0  0  0  0  0
   97.8174   12.2471   94.0024 O   0  0  0  0  0  0  0  0  0  0  0  0
   98.8612   14.1632   95.2099 C   0  0  1  0  0  0  0  0  0  0  0  0
   99.7090   14.1353   94.2759 O   0  0  0  0  0  0  0  0  0  0  0  0
   98.4192   15.6100   95.4298 C   0  0  2  0  0  0  0  0  0  0  0  0
  101.2892   16.0663   99.6711 N   0  0  0  0  0  0  0  0  0  0  0  0
  101.6181   15.4136   98.5255 C   0  0  0  0  0  0  0  0  0  0  0  0
  100.7294   15.4234   97.5393 N   0  0  0  0  0  0  0  0  0  0  0  0
   99.5032   15.9819   97.6252 C   0  0  0  0  0  0  0  0  0  0  0  0
   99.1253   16.6688   98.7987 C   0  0  0  0  0  0  0  0  0  0  0  0
  100.0991   16.6710   99.8479 C   0  0  0  0  0  0  0  0  0  0  0  0
   99.7943   17.3219  101.0797 N   0  0  0  0  0  0  0  0  0  0  0  0
   97.9426   17.1307   98.5896 N   0  0  0  0  0  0  0  0  0  0  0  0
   97.5659   16.8022   97.3661 C   0  0  0  0  0  0  0  0  0  0  0  0
   98.4693   16.1012   96.7797 N   0  0  0  0  0  0  0  0  0  0  0  0
  1 24  1  0  0  0  0
  1  4  2  0  0  0  0
  2 13  1  0  0  0  0
  2 21  1  0  0  0  0
  3 16  1  0  0  0  0
  4 18  1  0  0  0  0
  5 19  2  0  0  0  0
  5 16  1  0  0  0  0
  6 16  2  0  0  0  0
  6 17  1  0  0  0  0
  7 17  1  0  0  0  0
 11 25  2  0  0  0  0
 12 26  2  0  0  0  0
 13 25  1  0  0  0  0
 14 23  1  0  0  0  0
 15 26  1  0  0  0  0
 17 18  2  0  0  0  0
 18 19  1  0  0  0  0
 19 24  1  0  0  0  0
 20 10  1  6  0  0  0
 20 22  1  0  0  0  0
 20 23  1  0  0  0  0
 21 14  1  1  0  0  0
 21 22  1  0  0  0  0
 22 15  1  6  0  0  0
 23 24  1  1  0  0  0
 25  8  1  6  0  0  0
 25 32  1  0  0  0  0
 26  9  1  6  0  0  0
 26 28  1  0  0  0  0
 27 28  1  0  0  0  0
 29 27  1  1  0  0  0
 29 30  1  0  0  0  0
 29 31  1  0  0  0  0
 30 35  1  0  0  0  0
 31 33  1  0  0  0  0
 31 32  1  6  0  0  0
 33 34  1  6  0  0  0
 33 35  1  0  0  0  0
 35 45  1  1  0  0  0
 36 41  2  0  0  0  0
 36 37  1  0  0  0  0
 37 38  2  0  0  0  0
 38 39  1  0  0  0  0
 39 40  2  0  0  0  0
 39 45  1  0  0  0  0
 40 41  1  0  0  0  0
 40 43  1  0  0  0  0
 41 42  1  0  0  0  0
 43 44  2  0  0  0  0
 44 45  1  0  0  0  0
M  CHG  4   8  -1   9  -1  11  -1  12  -1
M  END
>  <CHROM.1>
5.50739398,173.92847477,96.67218094,12.82249153,97.43652633,-2.56927550,-0.77184766
-1.41295352

>  <Name>
ligand

>  <RI>
0

>  <Rbt.Current_Directory>
/home/itssahil/PROJECTS/Mol_Feturizer/New_Systems/rnas/4YAZ

>  <Rbt.Executable>
rbdock ($Id: //depot/dev/client3/rdock/2013.1/src/exe/rbdock.cxx#4 $)

>  <Rbt.Library>
libRbt.so (2013.1, Build901 2013/11/27)

>  <Rbt.Parameter_File>
/export/apps/rDock/src/rDock_2013.1_src/data/scripts/dock_solv.prm

>  <Rbt.Receptor>
prm/pocket_docking_4.prm

>  <SCORE>
-41.4285

>  <SCORE.INTER>
-41.1706

>  <SCORE.INTER.CONST>
1

>  <SCORE.INTER.POLAR>
0

>  <SCORE.INTER.ROT>
2

>  <SCORE.INTER.SOLV>
40.9172

>  <SCORE.INTER.VDW>
-46.0195

>  <SCORE.INTER.norm>
-0.914903

>  <SCORE.INTRA>
-0.257905

>  <SCORE.INTRA.DIHEDRAL>
-0.0471471

>  <SCORE.INTRA.DIHEDRAL.0>
2.39103

>  <SCORE.INTRA.POLAR>
0

>  <SCORE.INTRA.POLAR.0>
0

>  <SCORE.INTRA.REPUL>
0

>  <SCORE.INTRA.REPUL.0>
0

>  <SCORE.INTRA.SOLV>
-0.0164536

>  <SCORE.INTRA.SOLV.lig_0>
-163.975

>  <SCORE.INTRA.VDW>
-0.226104

>  <SCORE.INTRA.VDW.0>
-1.49176

>  <SCORE.INTRA.norm>
-0.00573122

>  <SCORE.RESTR>
0

>  <SCORE.RESTR.CAVITY>
0

>  <SCORE.RESTR.norm>
0

>  <SCORE.SYSTEM>
0

>  <SCORE.SYSTEM.CONST>
0

>  <SCORE.SYSTEM.DIHEDRAL>
0

>  <SCORE.SYSTEM.SOLV>
0

>  <SCORE.SYSTEM.norm>
0

>  <SCORE.heavy>
45

>  <SCORE.norm>
-0.920634

>  <RMSD>
6.977

$$$$
ligand
 OpenBabel11021811513D
libRbt.so/2013.1/901 2013/11/27
 45 51  0  0  0  0  0  0  0  0999 V2000
   96.6246    9.8704   98.8194 C   0  0  0  0  0  0  0  0  0  0  0  0
   95.5868   10.7564   95.0382 C   0  0  0  0  0  0  0  0  0  0  0  0
   93.7722   11.2078  103.5605 N   0  0  0  0  0  0  0  0  0  0  0  0
   97.4400   10.0682   99.8039 N   0  0  0  0  0  0  0  0  0  0  0  0
   94.4347   10.6585  101.3889 N   0  0  0  0  0  0  0  0  0  0  0  0
   96.0398   10.9668  103.0455 N   0  0  0  0  0  0  0  0  0  0  0  0
   98.3755   10.6660  102.5677 O   0  0  0  0  0  0  0  0  0  0  0  0
   98.3819   10.1810   93.8406 O   0  5  0  0  0  0  0  0  0  0  0  0
   92.4791   14.6402   95.6758 O   0  5  0  0  0  0  0  0  0  0  0  0
   92.3815   11.1748   98.0468 O   0  0  0  0  0  0  0  0  0  0  0  0
   99.1941   11.2771   95.5991 O   0  5  0  0  0  0  0  0  0  0  0  0
   93.2037   14.2701   97.7576 O   0  5  0  0  0  0  0  0  0  0  0  0
   96.8186   10.4810   95.5740 O   0  0  0  0  0  0  0  0  0  0  0  0
   94.7012    9.3958   97.0016 O   0  0  0  0  0  0  0  0  0  0  0  0
   93.3582   12.4553   95.9738 O   0  0  0  0  0  0  0  0  0  0  0  0
   94.8044   10.9401  102.6109 C   0  0  0  0  0  0  0  0  0  0  0  0
   97.0291   10.6841  102.2087 C   0  0  0  0  0  0  0  0  0  0  0  0
   96.7096   10.3891  100.8641 C   0  0  0  0  0  0  0  0  0  0  0  0
   95.3922   10.3706  100.4770 C   0  0  0  0  0  0  0  0  0  0  0  0
   93.7581   11.1172   98.0850 C   0  0  2  0  0  0  0  0  0  0  0  0
   94.4944   10.5530   96.0093 C   0  0  1  0  0  0  0  0  0  0  0  0
   94.2889   11.6101   96.6398 C   0  0  1  0  0  0  0  0  0  0  0  0
   94.2874    9.9355   98.3421 C   0  0  2  0  0  0  0  0  0  0  0  0
   95.4090   10.0543   99.1816 N   0  0  0  0  0  0  0  0  0  0  0  0
   98.0188   11.1259   94.8150 P   0  0  2  0  0  0  0  0  0  0  0  0
   93.4663   13.9394   96.3783 P   0  0  1  0  0  0  0  0  0  0  0  0
   95.2910   14.2152   94.5299 C   0  0  0  0  0  0  0  0  0  0  0  0
   94.8262   14.5080   95.8574 O   0  0  0  0  0  0  0  0  0  0  0  0
   96.7229   14.4641   94.3058 C   0  0  1  0  0  0  0  0  0  0  0  0
   97.0975   15.8649   94.9988 O   0  0  0  0  0  0  0  0  0  0  0  0
   97.4098   13.5976   94.9034 C   0  0  1  0  0  0  0  0  0  0  0  0
   97.6383   12.4236   94.0904 O   0  0  0  0  0  0  0  0  0  0  0  0
   98.6760   14.3410   95.3010 C   0  0  1  0  0  0  0  0  0  0  0  0
   99.4966   14.3473   94.3427 O   0  0  0  0  0  0  0  0  0  0  0  0
   98.2101   15.7740   95.5589 C   0  0  2  0  0  0  0  0  0  0  0  0
  101.1572   16.1301   99.7567 N   0  0  0  0  0  0  0  0  0  0  0  0
  101.4589   15.4919   98.5955 C   0  0  0  0  0  0  0  0  0  0  0  0
  100.5536   15.5275   97.6250 N   0  0  0  0  0  0  0  0  0  0  0  0
   99.3357   16.0985   97.7408 C   0  0  0  0  0  0  0  0  0  0  0  0
   98.9859   16.7711   98.9313 C   0  0  0  0  0  0  0  0  0  0  0  0
   99.9775   16.7455   99.9634 C   0  0  0  0  0  0  0  0  0  0  0  0
   99.7014   17.3803  101.2104 N   0  0  0  0  0  0  0  0  0  0  0  0
   97.8053   17.2498   98.7499 N   0  0  0  0  0  0  0  0  0  0  0  0
   97.4039   16.9450   97.5281 C   0  0  0  0  0  0  0  0  0  0  0  0
   98.2890   16.2431   96.9153 N   0  0  0  0  0  0  0  0  0  0  0  0
  1 24  1  0  0  0  0
  1  4  2  0  0  0  0
  2 13  1  0  0  0  0
  2 21  1  0  0  0  0
  3 16  1  0  0  0  0
  4 18  1  0  0  0  0
  5 19  2  0  0  0  0
  5 16  1  0  0  0  0
  6 16  2  0  0  0  0
  6 17  1  0  0  0  0
  7 17  1  0  0  0  0
 11 25  2  0  0  0  0
 12 26  2  0  0  0  0
 13 25  1  0  0  0  0
 14 23  1  0  0  0  0
 15 26  1  0  0  0  0
 17 18  2  0  0  0  0
 18 19  1  0  0  0  0
 19 24  1  0  0  0  0
 20 10  1  6  0  0  0
 20 22  1  0  0  0  0
 20 23  1  0  0  0  0
 21 14  1  1  0  0  0
 21 22  1  0  0  0  0
 22 15  1  6  0  0  0
 23 24  1  1  0  0  0
 25  8  1  6  0  0  0
 25 32  1  0  0  0  0
 26  9  1  6  0  0  0
 26 28  1  0  0  0  0
 27 28  1  0  0  0  0
 29 27  1  1  0  0  0
 29 30  1  0  0  0  0
 29 31  1  0  0  0  0
 30 35  1  0  0  0  0
 31 33  1  0  0  0  0
 31 32  1  6  0  0  0
 33 34  1  6  0  0  0
 33 35  1  0  0  0  0
 35 45  1  1  0  0  0
 36 41  2  0  0  0  0
 36 37  1  0  0  0  0
 37 38  2  0  0  0  0
 38 39  1  0  0  0  0
 39 40  2  0  0  0  0
 39 45  1  0  0  0  0
 40 41  1  0  0  0  0
 40 43  1  0  0  0  0
 41 42  1  0  0  0  0
 43 44  2  0  0  0  0
 44 45  1  0  0  0  0
M  CHG  4   8  -1   9  -1  11  -1  12  -1
M  END
>  <CHROM.1>
7.00928914,171.92223260,96.57818637,12.90066820,97.57010735,-2.48698044,-0.78494472
-1.35246112

>  <Name>
ligand

>  <RI>
0

>  <Rbt.Current_Directory>
/home/itssahil/PROJECTS/Mol_Feturizer/New_Systems/rnas/4YAZ

>  <Rbt.Executable>
rbdock ($Id: //depot/dev/client3/rdock/2013.1/src/exe/rbdock.cxx#4 $)

>  <Rbt.Library>
libRbt.so (2013.1, Build901 2013/11/27)

>  <Rbt.Parameter_File>
/export/apps/rDock/src/rDock_2013.1_src/data/scripts/dock_solv.prm

>  <Rbt.Receptor>
prm/pocket_docking_5.prm

>  <SCORE>
-41.6776

>  <SCORE.INTER>
-41.3862

>  <SCORE.INTER.CONST>
1

>  <SCORE.INTER.POLAR>
0

>  <SCORE.INTER.ROT>
2

>  <SCORE.INTER.SOLV>
42.2111

>  <SCORE.INTER.VDW>
-46.5945

>  <SCORE.INTER.norm>
-0.919694

>  <SCORE.INTRA>
-0.291354

>  <SCORE.INTRA.DIHEDRAL>
-0.0594252

>  <SCORE.INTRA.DIHEDRAL.0>
2.39103

>  <SCORE.INTRA.POLAR>
0

>  <SCORE.INTRA.POLAR.0>
0

>  <SCORE.INTRA.REPUL>
0

>  <SCORE.INTRA.REPUL.0>
0

>  <SCORE.INTRA.SOLV>
-0.0149357

>  <SCORE.INTRA.SOLV.lig_0>
-163.975

>  <SCORE.INTRA.VDW>
-0.254174

>  <SCORE.INTRA.VDW.0>
-1.49176

>  <SCORE.INTRA.norm>
-0.00647454

>  <SCORE.RESTR>
0

>  <SCORE.RESTR.CAVITY>
0

>  <SCORE.RESTR.norm>
0

>  <SCORE.SYSTEM>
0

>  <SCORE.SYSTEM.CONST>
0

>  <SCORE.SYSTEM.DIHEDRAL>
0

>  <SCORE.SYSTEM.SOLV>
0

>  <SCORE.SYSTEM.norm>
0

>  <SCORE.heavy>
45

>  <SCORE.norm>
-0.926169

>  <RMSD>
6.979

$$$$
ligand
 OpenBabel11021811513D
libRbt.so/2013.1/901 2013/11/27
 45 51  0  0  0  0  0  0  0  0999 V2000
   96.6266    9.8138   98.7575 C   0  0  0  0  0  0  0  0  0  0  0  0
   95.6038   10.7201   94.9742 C   0  0  0  0  0  0  0  0  0  0  0  0
   93.8259   11.2755  103.4928 N   0  0  0  0  0  0  0  0  0  0  0  0
   97.4498    9.9950   99.7388 N   0  0  0  0  0  0  0  0  0  0  0  0
   94.4670   10.6886  101.3246 N   0  0  0  0  0  0  0  0  0  0  0  0
   96.0842   10.9620  102.9755 N   0  0  0  0  0  0  0  0  0  0  0  0
   98.4087   10.5871  102.4958 O   0  0  0  0  0  0  0  0  0  0  0  0
   98.3796   10.0667   93.7719 O   0  5  0  0  0  0  0  0  0  0  0  0
   92.6019   14.6872   95.6057 O   0  5  0  0  0  0  0  0  0  0  0  0
   92.4183   11.2338   97.9891 O   0  0  0  0  0  0  0  0  0  0  0  0
   99.2251   11.1468   95.5246 O   0  5  0  0  0  0  0  0  0  0  0  0
   93.3216   14.3051   97.6871 O   0  5  0  0  0  0  0  0  0  0  0  0
   96.8293   10.4140   95.5081 O   0  0  0  0  0  0  0  0  0  0  0  0
   94.6874    9.3903   96.9446 O   0  0  0  0  0  0  0  0  0  0  0  0
   93.4235   12.4808   95.9093 O   0  0  0  0  0  0  0  0  0  0  0  0
   94.8475   10.9690  102.5435 C   0  0  0  0  0  0  0  0  0  0  0  0
   97.0626   10.6428  102.1392 C   0  0  0  0  0  0  0  0  0  0  0  0
   96.7316   10.3465  100.7977 C   0  0  0  0  0  0  0  0  0  0  0  0
   95.4134   10.3645  100.4133 C   0  0  0  0  0  0  0  0  0  0  0  0
   93.7930   11.1398   98.0242 C   0  0  2  0  0  0  0  0  0  0  0  0
   94.5088   10.5491   95.9486 C   0  0  1  0  0  0  0  0  0  0  0  0
   94.3331   11.6135   96.5760 C   0  0  1  0  0  0  0  0  0  0  0  0
   94.2914    9.9453   98.2841 C   0  0  2  0  0  0  0  0  0  0  0  0
   95.4178   10.0372   99.1205 N   0  0  0  0  0  0  0  0  0  0  0  0
   98.0442   11.0242   94.7439 P   0  0  2  0  0  0  0  0  0  0  0  0
   93.5719   13.9628   96.3083 P   0  0  1  0  0  0  0  0  0  0  0  0
   95.3986   14.1838   94.4546 C   0  0  0  0  0  0  0  0  0  0  0  0
   94.9451   14.4933   95.7821 O   0  0  0  0  0  0  0  0  0  0  0  0
   96.8360   14.3938   94.2261 C   0  0  1  0  0  0  0  0  0  0  0  0
   97.2495   15.7865   94.9133 O   0  0  0  0  0  0  0  0  0  0  0  0
   97.5012   13.5114   94.8251 C   0  0  1  0  0  0  0  0  0  0  0  0
   97.6964   12.3290   94.0156 O   0  0  0  0  0  0  0  0  0  0  0  0
   98.7877   14.2223   95.2170 C   0  0  1  0  0  0  0  0  0  0  0  0
   99.6058   14.2036   94.2568 O   0  0  0  0  0  0  0  0  0  0  0  0
   98.3606   15.6680   95.4710 C   0  0  2  0  0  0  0  0  0  0  0  0
  101.3719   16.0707   99.6188 N   0  0  0  0  0  0  0  0  0  0  0  0
  101.6633   15.4358   98.4532 C   0  0  0  0  0  0  0  0  0  0  0  0
  100.7416   15.4573   97.4980 N   0  0  0  0  0  0  0  0  0  0  0  0
   99.5176   16.0109   97.6336 C   0  0  0  0  0  0  0  0  0  0  0  0
   99.1781   16.6795   98.8293 C   0  0  0  0  0  0  0  0  0  0  0  0
  100.1870   16.6692   99.8448 C   0  0  0  0  0  0  0  0  0  0  0  0
   99.9226   17.3011  101.0957 N   0  0  0  0  0  0  0  0  0  0  0  0
   97.9879   17.1410   98.6673 N   0  0  0  0  0  0  0  0  0  0  0  0
   97.5706   16.8292   97.4525 C   0  0  0  0  0  0  0  0  0  0  0  0
   98.4553   16.1396   96.8255 N   0  0  0  0  0  0  0  0  0  0  0  0
  1 24  1  0  0  0  0
  1  4  2  0  0  0  0
  2 13  1  0  0  0  0
  2 21  1  0  0  0  0
  3 16  1  0  0  0  0
  4 18  1  0  0  0  0
  5 19  2  0  0  0  0
  5 16  1  0  0  0  0
  6 16  2  0  0  0  0
  6 17  1  0  0  0  0
  7 17  1  0  0  0  0
 11 25  2  0  0  0  0
 12 26  2  0  0  0  0
 13 25  1  0  0  0  0
 14 23  1  0  0  0  0
 15 26  1  0  0  0  0
 17 18  2  0  0  0  0
 18 19  1  0  0  0  0
 19 24  1  0  0  0  0
 20 10  1  6  0  0  0
 20 22  1  0  0  0  0
 20 23  1  0  0  0  0
 21 14  1  1  0  0  0
 21 22  1  0  0  0  0
 22 15  1  6  0  0  0
 23 24  1  1  0  0  0
 25  8  1  6  0  0  0
 25 32  1  0  0  0  0
 26  9  1  6  0  0  0
 26 28  1  0  0  0  0
 27 28  1  0  0  0  0
 29 27  1  1  0  0  0
 29 30  1  0  0  0  0
 29 31  1  0  0  0  0
 30 35  1  0  0  0  0
 31 33  1  0  0  0  0
 31 32  1  6  0  0  0
 33 34  1  6  0  0  0
 33 35  1  0  0  0  0
 35 45  1  1  0  0  0
 36 41  2  0  0  0  0
 36 37  1  0  0  0  0
 37 38  2  0  0  0  0
 38 39  1  0  0  0  0
 39 40  2  0  0  0  0
 39 45  1  0  0  0  0
 40 41  1  0  0  0  0
 40 43  1  0  0  0  0
 41 42  1  0  0  0  0
 43 44  2  0  0  0  0
 44 45  1  0  0  0  0
M  CHG  4   8  -1   9  -1  11  -1  12  -1
M  END
>  <CHROM.1>
6.66546834,174.41073463,96.66158754,12.85642198,97.49253562,-2.51870260,-0.76159320
-1.36436717

>  <Name>
ligand

>  <RI>
0

>  <Rbt.Current_Directory>
/home/itssahil/PROJECTS/Mol_Feturizer/New_Systems/rnas/4YAZ

>  <Rbt.Executable>
rbdock ($Id: //depot/dev/client3/rdock/2013.1/src/exe/rbdock.cxx#4 $)

>  <Rbt.Library>
libRbt.so (2013.1, Build901 2013/11/27)

>  <Rbt.Parameter_File>
/export/apps/rDock/src/rDock_2013.1_src/data/scripts/dock_solv.prm

>  <Rbt.Receptor>
prm/pocket_docking_4.prm

>  <SCORE>
-41.4849

>  <SCORE.INTER>
-41.2097

>  <SCORE.INTER.CONST>
1

>  <SCORE.INTER.POLAR>
0

>  <SCORE.INTER.ROT>
2

>  <SCORE.INTER.SOLV>
41.9033

>  <SCORE.INTER.VDW>
-46.3743

>  <SCORE.INTER.norm>
-0.915772

>  <SCORE.INTRA>
-0.275111

>  <SCORE.INTRA.DIHEDRAL>
-0.0436845

>  <SCORE.INTRA.DIHEDRAL.0>
2.39103

>  <SCORE.INTRA.POLAR>
0

>  <SCORE.INTRA.POLAR.0>
0

>  <SCORE.INTRA.REPUL>
0

>  <SCORE.INTRA.REPUL.0>
0

>  <SCORE.INTRA.SOLV>
-0.0173706

>  <SCORE.INTRA.SOLV.lig_0>
-163.975

>  <SCORE.INTRA.VDW>
-0.244584

>  <SCORE.INTRA.VDW.0>
-1.49176

>  <SCORE.INTRA.norm>
-0.00611358

>  <SCORE.RESTR>
0

>  <SCORE.RESTR.CAVITY>
0

>  <SCORE.RESTR.norm>
0

>  <SCORE.SYSTEM>
0

>  <SCORE.SYSTEM.CONST>
0

>  <SCORE.SYSTEM.DIHEDRAL>
0

>  <SCORE.SYSTEM.SOLV>
0

>  <SCORE.SYSTEM.norm>
0

>  <SCORE.heavy>
45

>  <SCORE.norm>
-0.921886

>  <RMSD>
6.984

$$$$
ligand
 OpenBabel11021811513D
libRbt.so/2013.1/901 2013/11/27
 45 51  0  0  0  0  0  0  0  0999 V2000
   96.6393    9.8098   98.8193 C   0  0  0  0  0  0  0  0  0  0  0  0
   95.6613   10.6434   95.0147 C   0  0  0  0  0  0  0  0  0  0  0  0
   93.7756   11.2629  103.5193 N   0  0  0  0  0  0  0  0  0  0  0  0
   97.4502   10.0006   99.8089 N   0  0  0  0  0  0  0  0  0  0  0  0
   94.4449   10.6748  101.3600 N   0  0  0  0  0  0  0  0  0  0  0  0
   96.0417   10.9661  103.0276 N   0  0  0  0  0  0  0  0  0  0  0  0
   98.3743   10.6085  102.5743 O   0  0  0  0  0  0  0  0  0  0  0  0
   98.4504    9.9684   93.8558 O   0  5  0  0  0  0  0  0  0  0  0  0
   92.6572   14.6231   95.5492 O   0  5  0  0  0  0  0  0  0  0  0  0
   92.4407   11.2070   97.9830 O   0  0  0  0  0  0  0  0  0  0  0  0
   99.2763   11.0744   95.6017 O   0  5  0  0  0  0  0  0  0  0  0  0
   93.3516   14.2723   97.6447 O   0  5  0  0  0  0  0  0  0  0  0  0
   96.8799   10.3441   95.5678 O   0  0  0  0  0  0  0  0  0  0  0  0
   94.7196    9.3451   96.9941 O   0  0  0  0  0  0  0  0  0  0  0  0
   93.4722   12.4207   95.8964 O   0  0  0  0  0  0  0  0  0  0  0  0
   94.8099   10.9618  102.5822 C   0  0  0  0  0  0  0  0  0  0  0  0
   97.0318   10.6523  102.2029 C   0  0  0  0  0  0  0  0  0  0  0  0
   96.7177   10.3494  100.8588 C   0  0  0  0  0  0  0  0  0  0  0  0
   95.4038   10.3556  100.4601 C   0  0  0  0  0  0  0  0  0  0  0  0
   93.8147   11.1120   98.0359 C   0  0  2  0  0  0  0  0  0  0  0  0
   94.5545   10.4887   95.9784 C   0  0  1  0  0  0  0  0  0  0  0  0
   94.3727   11.5627   96.5872 C   0  0  1  0  0  0  0  0  0  0  0  0
   94.3084    9.9211   98.3201 C   0  0  2  0  0  0  0  0  0  0  0  0
   95.4249   10.0245   99.1684 N   0  0  0  0  0  0  0  0  0  0  0  0
   98.1046   10.9411   94.8089 P   0  0  2  0  0  0  0  0  0  0  0  0
   93.6179   13.9086   96.2745 P   0  0  1  0  0  0  0  0  0  0  0  0
   95.4669   14.0989   94.4395 C   0  0  0  0  0  0  0  0  0  0  0  0
   94.9979   14.4293   95.7566 O   0  0  0  0  0  0  0  0  0  0  0  0
   96.9072   14.3037   94.2250 C   0  0  1  0  0  0  0  0  0  0  0  0
   97.3142   15.7064   94.8956 O   0  0  0  0  0  0  0  0  0  0  0  0
   97.5640   13.4299   94.8454 C   0  0  1  0  0  0  0  0  0  0  0  0
   97.7673   12.2350   94.0566 O   0  0  0  0  0  0  0  0  0  0  0  0
   98.8466   14.1453   95.2417 C   0  0  1  0  0  0  0  0  0  0  0  0
   99.6761   14.1109   94.2917 O   0  0  0  0  0  0  0  0  0  0  0  0
   98.4185   15.5953   95.4684 C   0  0  2  0  0  0  0  0  0  0  0  0
  101.3592   16.0054   99.6658 N   0  0  0  0  0  0  0  0  0  0  0  0
  101.6591   15.3451   98.5165 C   0  0  0  0  0  0  0  0  0  0  0  0
  100.7561   15.3696   97.5436 N   0  0  0  0  0  0  0  0  0  0  0  0
   99.5416   15.9505   97.6468 C   0  0  0  0  0  0  0  0  0  0  0  0
   99.1938   16.6459   98.8246 C   0  0  0  0  0  0  0  0  0  0  0  0
  100.1831   16.6319   99.8592 C   0  0  0  0  0  0  0  0  0  0  0  0
   99.9086   17.2901  101.0942 N   0  0  0  0  0  0  0  0  0  0  0  0
   98.0168   17.1291   98.6323 N   0  0  0  0  0  0  0  0  0  0  0  0
   97.6159   16.8056   97.4151 C   0  0  0  0  0  0  0  0  0  0  0  0
   98.4976   16.0874   96.8165 N   0  0  0  0  0  0  0  0  0  0  0  0
  1 24  1  0  0  0  0
  1  4  2  0  0  0  0
  2 13  1  0  0  0  0
  2 21  1  0  0  0  0
  3 16  1  0  0  0  0
  4 18  1  0  0  0  0
  5 19  2  0  0  0  0
  5 16  1  0  0  0  0
  6 16  2  0  0  0  0
  6 17  1  0  0  0  0
  7 17  1  0  0  0  0
 11 25  2  0  0  0  0
 12 26  2  0  0  0  0
 13 25  1  0  0  0  0
 14 23  1  0  0  0  0
 15 26  1  0  0  0  0
 17 18  2  0  0  0  0
 18 19  1  0  0  0  0
 19 24  1  0  0  0  0
 20 10  1  6  0  0  0
 20 22  1  0  0  0  0
 20 23  1  0  0  0  0
 21 14  1  1  0  0  0
 21 22  1  0  0  0  0
 22 15  1  6  0  0  0
 23 24  1  1  0  0  0
 25  8  1  6  0  0  0
 25 32  1  0  0  0  0
 26  9  1  6  0  0  0
 26 28  1  0  0  0  0
 27 28  1  0  0  0  0
 29 27  1  1  0  0  0
 29 30  1  0  0  0  0
 29 31  1  0  0  0  0
 30 35  1  0  0  0  0
 31 33  1  0  0  0  0
 31 32  1  6  0  0  0
 33 34  1  6  0  0  0
 33 35  1  0  0  0  0
 35 45  1  1  0  0  0
 36 41  2  0  0  0  0
 36 37  1  0  0  0  0
 37 38  2  0  0  0  0
 38 39  1  0  0  0  0
 39 40  2  0  0  0  0
 39 45  1  0  0  0  0
 40 41  1  0  0  0  0
 40 43  1  0  0  0  0
 41 42  1  0  0  0  0
 43 44  2  0  0  0  0
 44 45  1  0  0  0  0
M  CHG  4   8  -1   9  -1  11  -1  12  -1
M  END
>  <CHROM.1>
7.55310373,173.21883018,96.68965693,12.80819793,97.51518000,-2.51424516,-0.76108748
-1.38448090

>  <Name>
ligand

>  <RI>
0

>  <Rbt.Current_Directory>
/home/itssahil/PROJECTS/Mol_Feturizer/New_Systems/rnas/4YAZ

>  <Rbt.Executable>
rbdock ($Id: //depot/dev/client3/rdock/2013.1/src/exe/rbdock.cxx#4 $)

>  <Rbt.Library>
libRbt.so (2013.1, Build901 2013/11/27)

>  <Rbt.Parameter_File>
/export/apps/rDock/src/rDock_2013.1_src/data/scripts/dock_solv.prm

>  <Rbt.Receptor>
prm/pocket_docking_7.prm

>  <SCORE>
-41.5359

>  <SCORE.INTER>
-41.2335

>  <SCORE.INTER.CONST>
1

>  <SCORE.INTER.POLAR>
0

>  <SCORE.INTER.ROT>
2

>  <SCORE.INTER.SOLV>
41.9918

>  <SCORE.INTER.VDW>
-46.4196

>  <SCORE.INTER.norm>
-0.9163

>  <SCORE.INTRA>
-0.302369

>  <SCORE.INTRA.DIHEDRAL>
-0.0511643

>  <SCORE.INTRA.DIHEDRAL.0>
2.39103

>  <SCORE.INTRA.POLAR>
0

>  <SCORE.INTRA.POLAR.0>
0

>  <SCORE.INTRA.REPUL>
0

>  <SCORE.INTRA.REPUL.0>
0

>  <SCORE.INTRA.SOLV>
-0.0163861

>  <SCORE.INTRA.SOLV.lig_0>
-163.975

>  <SCORE.INTRA.VDW>
-0.268593

>  <SCORE.INTRA.VDW.0>
-1.49176

>  <SCORE.INTRA.norm>
-0.0067193

>  <SCORE.RESTR>
0

>  <SCORE.RESTR.CAVITY>
0

>  <SCORE.RESTR.norm>
0

>  <SCORE.SYSTEM>
0

>  <SCORE.SYSTEM.CONST>
0

>  <SCORE.SYSTEM.DIHEDRAL>
0

>  <SCORE.SYSTEM.SOLV>
0

>  <SCORE.SYSTEM.norm>
0

>  <SCORE.heavy>
45

>  <SCORE.norm>
-0.923019

>  <RMSD>
6.985

$$$$
ligand
 OpenBabel11021811513D
libRbt.so/2013.1/901 2013/11/27
 45 51  0  0  0  0  0  0  0  0999 V2000
   96.6158    9.8389   98.8009 C   0  0  0  0  0  0  0  0  0  0  0  0
   95.6255   10.6520   95.0009 C   0  0  0  0  0  0  0  0  0  0  0  0
   93.7837   11.2718  103.5263 N   0  0  0  0  0  0  0  0  0  0  0  0
   97.4330   10.0221   99.7867 N   0  0  0  0  0  0  0  0  0  0  0  0
   94.4386   10.6945  101.3597 N   0  0  0  0  0  0  0  0  0  0  0  0
   96.0462   10.9725  103.0194 N   0  0  0  0  0  0  0  0  0  0  0  0
   98.3751   10.6121  102.5500 O   0  0  0  0  0  0  0  0  0  0  0  0
   98.4016    9.9434   93.8311 O   0  5  0  0  0  0  0  0  0  0  0  0
   92.6647   14.6644   95.5323 O   0  5  0  0  0  0  0  0  0  0  0  0
   92.4259   11.2618   97.9828 O   0  0  0  0  0  0  0  0  0  0  0  0
   99.2476   11.0488   95.5677 O   0  5  0  0  0  0  0  0  0  0  0  0
   93.3661   14.3161   97.6258 O   0  5  0  0  0  0  0  0  0  0  0  0
   96.8437   10.3429   95.5492 O   0  0  0  0  0  0  0  0  0  0  0  0
   94.6808    9.3723   96.9910 O   0  0  0  0  0  0  0  0  0  0  0  0
   93.4591   12.4555   95.8855 O   0  0  0  0  0  0  0  0  0  0  0  0
   94.8116   10.9737  102.5813 C   0  0  0  0  0  0  0  0  0  0  0  0
   97.0305   10.6611  102.1869 C   0  0  0  0  0  0  0  0  0  0  0  0
   96.7077   10.3666  100.8430 C   0  0  0  0  0  0  0  0  0  0  0  0
   95.3914   10.3782  100.4522 C   0  0  0  0  0  0  0  0  0  0  0  0
   93.7992   11.1531   98.0292 C   0  0  2  0  0  0  0  0  0  0  0  0
   94.5221   10.5129   95.9709 C   0  0  1  0  0  0  0  0  0  0  0  0
   94.3543   11.5915   96.5757 C   0  0  1  0  0  0  0  0  0  0  0  0
   94.2822    9.9585   98.3165 C   0  0  2  0  0  0  0  0  0  0  0  0
   95.4040   10.0545   99.1586 N   0  0  0  0  0  0  0  0  0  0  0  0
   98.0706   10.9239   94.7814 P   0  0  2  0  0  0  0  0  0  0  0  0
   93.6217   13.9435   96.2559 P   0  0  1  0  0  0  0  0  0  0  0  0
   95.4632   14.1066   94.4107 C   0  0  0  0  0  0  0  0  0  0  0  0
   95.0043   14.4478   95.7287 O   0  0  0  0  0  0  0  0  0  0  0  0
   96.9044   14.2958   94.1881 C   0  0  1  0  0  0  0  0  0  0  0  0
   97.3290   15.6973   94.8501 O   0  0  0  0  0  0  0  0  0  0  0  0
   97.5555   13.4182   94.8091 C   0  0  1  0  0  0  0  0  0  0  0  0
   97.7426   12.2177   94.0248 O   0  0  0  0  0  0  0  0  0  0  0  0
   98.8473   14.1223   95.1957 C   0  0  1  0  0  0  0  0  0  0  0  0
   99.6715   14.0752   94.2417 O   0  0  0  0  0  0  0  0  0  0  0  0
   98.4350   15.5776   95.4178 C   0  0  2  0  0  0  0  0  0  0  0  0
  101.4045   15.9850   99.5952 N   0  0  0  0  0  0  0  0  0  0  0  0
  101.6925   15.3174   98.4470 C   0  0  0  0  0  0  0  0  0  0  0  0
  100.7837   15.3442   97.4796 N   0  0  0  0  0  0  0  0  0  0  0  0
   99.5741   15.9343   97.5876 C   0  0  0  0  0  0  0  0  0  0  0  0
   99.2386   16.6373   98.7645 C   0  0  0  0  0  0  0  0  0  0  0  0
  100.2342   16.6208   99.7930 C   0  0  0  0  0  0  0  0  0  0  0  0
   99.9720   17.2863  101.0268 N   0  0  0  0  0  0  0  0  0  0  0  0
   98.0639   17.1281   98.5773 N   0  0  0  0  0  0  0  0  0  0  0  0
   97.6532   16.8022   97.3641 C   0  0  0  0  0  0  0  0  0  0  0  0
   98.5260   16.0751   96.7633 N   0  0  0  0  0  0  0  0  0  0  0  0
  1 24  1  0  0  0  0
  1  4  2  0  0  0  0
  2 13  1  0  0  0  0
  2 21  1  0  0  0  0
  3 16  1  0  0  0  0
  4 18  1  0  0  0  0
  5 19  2  0  0  0  0
  5 16  1  0  0  0  0
  6 16  2  0  0  0  0
  6 17  1  0  0  0  0
  7 17  1  0  0  0  0
 11 25  2  0  0  0  0
 12 26  2  0  0  0  0
 13 25  1  0  0  0  0
 14 23  1  0  0  0  0
 15 26  1  0  0  0  0
 17 18  2  0  0  0  0
 18 19  1  0  0  0  0
 19 24  1  0  0  0  0
 20 10  1  6  0  0  0
 20 22  1  0  0  0  0
 20 23  1  0  0  0  0
 21 14  1  1  0  0  0
 21 22  1  0  0  0  0
 22 15  1  6  0  0  0
 23 24  1  1  0  0  0
 25  8  1  6  0  0  0
 25 32  1  0  0  0  0
 26  9  1  6  0  0  0
 26 28  1  0  0  0  0
 27 28  1  0  0  0  0
 29 27  1  1  0  0  0
 29 30  1  0  0  0  0
 29 31  1  0  0  0  0
 30 35  1  0  0  0  0
 31 33  1  0  0  0  0
 31 32  1  6  0  0  0
 33 34  1  6  0  0  0
 33 35  1  0  0  0  0
 35 45  1  1  0  0  0
 36 41  2  0  0  0  0
 36 37  1  0  0  0  0
 37 38  2  0  0  0  0
 38 39  1  0  0  0  0
 39 40  2  0  0  0  0
 39 45  1  0  0  0  0
 40 41  1  0  0  0  0
 40 43  1  0  0  0  0
 41 42  1  0  0  0  0
 43 44  2  0  0  0  0
 44 45  1  0  0  0  0
M  CHG  4   8  -1   9  -1  11  -1  12  -1
M  END
>  <CHROM.1>
8.29597757,173.40094340,96.68829325,12.81434006,97.48690911,-2.50357153,-0.75031137
-1.38218813

>  <Name>
ligand

>  <RI>
0

>  <Rbt.Current_Directory>
/home/itssahil/PROJECTS/Mol_Feturizer/New_Systems/rnas/4YAZ

>  <Rbt.Executable>
rbdock ($Id: //depot/dev/client3/rdock/2013.1/src/exe/rbdock.cxx#4 $)

>  <Rbt.Library>
libRbt.so (2013.1, Build901 2013/11/27)

>  <Rbt.Parameter_File>
/export/apps/rDock/src/rDock_2013.1_src/data/scripts/dock_solv.prm

>  <Rbt.Receptor>
prm/pocket_docking_2.prm

>  <SCORE>
-41.4826

>  <SCORE.INTER>
-41.1701

>  <SCORE.INTER.CONST>
1

>  <SCORE.INTER.POLAR>
0

>  <SCORE.INTER.ROT>
2

>  <SCORE.INTER.SOLV>
41.8384

>  <SCORE.INTER.VDW>
-46.3262

>  <SCORE.INTER.norm>
-0.914891

>  <SCORE.INTRA>
-0.312557

>  <SCORE.INTRA.DIHEDRAL>
-0.0498067

>  <SCORE.INTRA.DIHEDRAL.0>
2.39103

>  <SCORE.INTRA.POLAR>
0

>  <SCORE.INTRA.POLAR.0>
0

>  <SCORE.INTRA.REPUL>
0

>  <SCORE.INTRA.REPUL.0>
0

>  <SCORE.INTRA.SOLV>
-0.0168074

>  <SCORE.INTRA.SOLV.lig_0>
-163.975

>  <SCORE.INTRA.VDW>
-0.27925

>  <SCORE.INTRA.VDW.0>
-1.49176

>  <SCORE.INTRA.norm>
-0.00694571

>  <SCORE.RESTR>
0

>  <SCORE.RESTR.CAVITY>
0

>  <SCORE.RESTR.norm>
0

>  <SCORE.SYSTEM>
0

>  <SCORE.SYSTEM.CONST>
0

>  <SCORE.SYSTEM.DIHEDRAL>
0

>  <SCORE.SYSTEM.SOLV>
0

>  <SCORE.SYSTEM.norm>
0

>  <SCORE.heavy>
45

>  <SCORE.norm>
-0.921836

>  <RMSD>
6.987

$$$$
ligand
 OpenBabel11021811513D
libRbt.so/2013.1/901 2013/11/27
 45 51  0  0  0  0  0  0  0  0999 V2000
   96.6144    9.8391   98.7932 C   0  0  0  0  0  0  0  0  0  0  0  0
   95.6120   10.6683   95.0002 C   0  0  0  0  0  0  0  0  0  0  0  0
   93.8046   11.2599  103.5356 N   0  0  0  0  0  0  0  0  0  0  0  0
   97.4360   10.0160   99.7766 N   0  0  0  0  0  0  0  0  0  0  0  0
   94.4496   10.6899  101.3640 N   0  0  0  0  0  0  0  0  0  0  0  0
   96.0643   10.9567  103.0185 N   0  0  0  0  0  0  0  0  0  0  0  0
   98.3904   10.5919  102.5386 O   0  0  0  0  0  0  0  0  0  0  0  0
   98.3814    9.9553   93.8172 O   0  5  0  0  0  0  0  0  0  0  0  0
   92.6658   14.6880   95.5574 O   0  5  0  0  0  0  0  0  0  0  0  0
   92.4258   11.2773   97.9966 O   0  0  0  0  0  0  0  0  0  0  0  0
   99.2375   11.0518   95.5544 O   0  5  0  0  0  0  0  0  0  0  0  0
   93.3742   14.3299   97.6469 O   0  5  0  0  0  0  0  0  0  0  0  0
   96.8314   10.3534   95.5427 O   0  0  0  0  0  0  0  0  0  0  0  0
   94.6710    9.3844   96.9893 O   0  0  0  0  0  0  0  0  0  0  0  0
   93.4546   12.4753   95.8996 O   0  0  0  0  0  0  0  0  0  0  0  0
   94.8281   10.9630  102.5853 C   0  0  0  0  0  0  0  0  0  0  0  0
   97.0445   10.6461  102.1810 C   0  0  0  0  0  0  0  0  0  0  0  0
   96.7157   10.3581  100.8371 C   0  0  0  0  0  0  0  0  0  0  0  0
   95.3979   10.3748  100.4515 C   0  0  0  0  0  0  0  0  0  0  0  0
   93.7989   11.1641   98.0373 C   0  0  2  0  0  0  0  0  0  0  0  0
   94.5119   10.5291   95.9740 C   0  0  1  0  0  0  0  0  0  0  0  0
   94.3498   11.6061   96.5832 C   0  0  1  0  0  0  0  0  0  0  0  0
   94.2793    9.9671   98.3184 C   0  0  2  0  0  0  0  0  0  0  0  0
   95.4046   10.0565   99.1565 N   0  0  0  0  0  0  0  0  0  0  0  0
   98.0571   10.9334   94.7723 P   0  0  2  0  0  0  0  0  0  0  0  0
   93.6233   13.9614   96.2747 P   0  0  1  0  0  0  0  0  0  0  0  0
   95.4582   14.1255   94.4231 C   0  0  0  0  0  0  0  0  0  0  0  0
   95.0055   14.4634   95.7440 O   0  0  0  0  0  0  0  0  0  0  0  0
   96.8991   14.3110   94.1956 C   0  0  1  0  0  0  0  0  0  0  0  0
   97.3307   15.7088   94.8610 O   0  0  0  0  0  0  0  0  0  0  0  0
   97.5498   13.4292   94.8109 C   0  0  1  0  0  0  0  0  0  0  0  0
   97.7302   12.2309   94.0216 O   0  0  0  0  0  0  0  0  0  0  0  0
   98.8453   14.1279   95.1950 C   0  0  1  0  0  0  0  0  0  0  0  0
   99.6658   14.0816   94.2377 O   0  0  0  0  0  0  0  0  0  0  0  0
   98.4384   15.5836   95.4240 C   0  0  2  0  0  0  0  0  0  0  0  0
  101.4258   15.9680   99.5908 N   0  0  0  0  0  0  0  0  0  0  0  0
  101.7074   15.3040   98.4390 C   0  0  0  0  0  0  0  0  0  0  0  0
  100.7949   15.3366   97.4754 N   0  0  0  0  0  0  0  0  0  0  0  0
   99.5872   15.9294   97.5905 C   0  0  0  0  0  0  0  0  0  0  0  0
   99.2583   16.6291   98.7713 C   0  0  0  0  0  0  0  0  0  0  0  0
  100.2580   16.6061   99.7957 C   0  0  0  0  0  0  0  0  0  0  0  0
  100.0025   17.2678  101.0329 N   0  0  0  0  0  0  0  0  0  0  0  0
   98.0841   17.1235   98.5906 N   0  0  0  0  0  0  0  0  0  0  0  0
   97.6677   16.8031   97.3778 C   0  0  0  0  0  0  0  0  0  0  0  0
   98.5362   16.0759   96.7709 N   0  0  0  0  0  0  0  0  0  0  0  0
  1 24  1  0  0  0  0
  1  4  2  0  0  0  0
  2 13  1  0  0  0  0
  2 21  1  0  0  0  0
  3 16  1  0  0  0  0
  4 18  1  0  0  0  0
  5 19  2  0  0  0  0
  5 16  1  0  0  0  0
  6 16  2  0  0  0  0
  6 17  1  0  0  0  0
  7 17  1  0  0  0  0
 11 25  2  0  0  0  0
 12 26  2  0  0  0  0
 13 25  1  0  0  0  0
 14 23  1  0  0  0  0
 15 26  1  0  0  0  0
 17 18  2  0  0  0  0
 18 19  1  0  0  0  0
 19 24  1  0  0  0  0
 20 10  1  6  0  0  0
 20 22  1  0  0  0  0
 20 23  1  0  0  0  0
 21 14  1  1  0  0  0
 21 22  1  0  0  0  0
 22 15  1  6  0  0  0
 23 24  1  1  0  0  0
 25  8  1  6  0  0  0
 25 32  1  0  0  0  0
 26  9  1  6  0  0  0
 26 28  1  0  0  0  0
 27 28  1  0  0  0  0
 29 27  1  1  0  0  0
 29 30  1  0  0  0  0
 29 31  1  0  0  0  0
 30 35  1  0  0  0  0
 31 33  1  0  0  0  0
 31 32  1  6  0  0  0
 33 34  1  6  0  0  0
 33 35  1  0  0  0  0
 35 45  1  1  0  0  0
 36 41  2  0  0  0  0
 36 37  1  0  0  0  0
 37 38  2  0  0  0  0
 38 39  1  0  0  0  0
 39 40  2  0  0  0  0
 39 45  1  0  0  0  0
 40 41  1  0  0  0  0
 40 43  1  0  0  0  0
 41 42  1  0  0  0  0
 43 44  2  0  0  0  0
 44 45  1  0  0  0  0
M  CHG  4   8  -1   9  -1  11  -1  12  -1
M  END
>  <CHROM.1>
8.33517916,173.43205176,96.69111820,12.81823737,97.48985189,-2.49909371,-0.74655387
-1.37544647

>  <Name>
ligand

>  <RI>
0

>  <Rbt.Current_Directory>
/home/itssahil/PROJECTS/Mol_Feturizer/New_Systems/rnas/4YAZ

>  <Rbt.Executable>
rbdock ($Id: //depot/dev/client3/rdock/2013.1/src/exe/rbdock.cxx#4 $)

>  <Rbt.Library>
libRbt.so (2013.1, Build901 2013/11/27)

>  <Rbt.Parameter_File>
/export/apps/rDock/src/rDock_2013.1_src/data/scripts/dock_solv.prm

>  <Rbt.Receptor>
prm/pocket_docking_2.prm

>  <SCORE>
-41.5204

>  <SCORE.INTER>
-41.2072

>  <SCORE.INTER.CONST>
1

>  <SCORE.INTER.POLAR>
0

>  <SCORE.INTER.ROT>
2

>  <SCORE.INTER.SOLV>
41.9725

>  <SCORE.INTER.VDW>
-46.3957

>  <SCORE.INTER.norm>
-0.915716

>  <SCORE.INTRA>
-0.313148

>  <SCORE.INTRA.DIHEDRAL>
-0.0495972

>  <SCORE.INTRA.DIHEDRAL.0>
2.39103

>  <SCORE.INTRA.POLAR>
0

>  <SCORE.INTRA.POLAR.0>
0

>  <SCORE.INTRA.REPUL>
0

>  <SCORE.INTRA.REPUL.0>
0

>  <SCORE.INTRA.SOLV>
-0.0168521

>  <SCORE.INTRA.SOLV.lig_0>
-163.975

>  <SCORE.INTRA.VDW>
-0.279923

>  <SCORE.INTRA.VDW.0>
-1.49176

>  <SCORE.INTRA.norm>
-0.00695885

>  <SCORE.RESTR>
0

>  <SCORE.RESTR.CAVITY>
0

>  <SCORE.RESTR.norm>
0

>  <SCORE.SYSTEM>
0

>  <SCORE.SYSTEM.CONST>
0

>  <SCORE.SYSTEM.DIHEDRAL>
0

>  <SCORE.SYSTEM.SOLV>
0

>  <SCORE.SYSTEM.norm>
0

>  <SCORE.heavy>
45

>  <SCORE.norm>
-0.922675

>  <RMSD>
6.987

$$$$
ligand
 OpenBabel11021811513D
libRbt.so/2013.1/901 2013/11/27
 45 51  0  0  0  0  0  0  0  0999 V2000
   96.6070    9.8378   98.7953 C   0  0  0  0  0  0  0  0  0  0  0  0
   95.6057   10.6476   94.9979 C   0  0  0  0  0  0  0  0  0  0  0  0
   93.7944   11.2778  103.5302 N   0  0  0  0  0  0  0  0  0  0  0  0
   97.4280   10.0196   99.7781 N   0  0  0  0  0  0  0  0  0  0  0  0
   94.4406   10.6985  101.3614 N   0  0  0  0  0  0  0  0  0  0  0  0
   96.0545   10.9738  103.0153 N   0  0  0  0  0  0  0  0  0  0  0  0
   98.3811   10.6085  102.5379 O   0  0  0  0  0  0  0  0  0  0  0  0
   98.3759    9.9299   93.8195 O   0  5  0  0  0  0  0  0  0  0  0  0
   92.6577   14.6687   95.5344 O   0  5  0  0  0  0  0  0  0  0  0  0
   92.4181   11.2698   97.9901 O   0  0  0  0  0  0  0  0  0  0  0  0
   99.2308   11.0352   95.5518 O   0  5  0  0  0  0  0  0  0  0  0  0
   93.3653   14.3211   97.6259 O   0  5  0  0  0  0  0  0  0  0  0  0
   96.8250   10.3358   95.5425 O   0  0  0  0  0  0  0  0  0  0  0  0
   94.6644    9.3730   96.9929 O   0  0  0  0  0  0  0  0  0  0  0  0
   93.4473   12.4580   95.8877 O   0  0  0  0  0  0  0  0  0  0  0  0
   94.8184   10.9773  102.5816 C   0  0  0  0  0  0  0  0  0  0  0  0
   97.0353   10.6602  102.1796 C   0  0  0  0  0  0  0  0  0  0  0  0
   96.7071   10.3659  100.8369 C   0  0  0  0  0  0  0  0  0  0  0  0
   95.3895   10.3800  100.4507 C   0  0  0  0  0  0  0  0  0  0  0  0
   93.7912   11.1574   98.0319 C   0  0  2  0  0  0  0  0  0  0  0  0
   94.5053   10.5127   95.9720 C   0  0  1  0  0  0  0  0  0  0  0  0
   94.3425   11.5925   96.5759 C   0  0  1  0  0  0  0  0  0  0  0  0
   94.2719    9.9619   98.3190 C   0  0  2  0  0  0  0  0  0  0  0  0
   95.3969   10.0559   99.1571 N   0  0  0  0  0  0  0  0  0  0  0  0
   98.0508   10.9125   94.7697 P   0  0  2  0  0  0  0  0  0  0  0  0
   93.6152   13.9461   96.2556 P   0  0  1  0  0  0  0  0  0  0  0  0
   95.4508   14.1019   94.4040 C   0  0  0  0  0  0  0  0  0  0  0  0
   94.9974   14.4460   95.7231 O   0  0  0  0  0  0  0  0  0  0  0  0
   96.8917   14.2868   94.1761 C   0  0  1  0  0  0  0  0  0  0  0  0
   97.3225   15.6880   94.8349 O   0  0  0  0  0  0  0  0  0  0  0  0
   97.5425   13.4083   94.7961 C   0  0  1  0  0  0  0  0  0  0  0  0
   97.7237   12.2062   94.0126 O   0  0  0  0  0  0  0  0  0  0  0  0
   98.8376   14.1093   95.1773 C   0  0  1  0  0  0  0  0  0  0  0  0
   99.6584   14.0587   94.2205 O   0  0  0  0  0  0  0  0  0  0  0  0
   98.4300   15.5660   95.3990 C   0  0  2  0  0  0  0  0  0  0  0  0
  101.4180   15.9776   99.5627 N   0  0  0  0  0  0  0  0  0  0  0  0
  101.7009   15.3088   98.4140 C   0  0  0  0  0  0  0  0  0  0  0  0
  100.7878   15.3346   97.4506 N   0  0  0  0  0  0  0  0  0  0  0  0
   99.5788   15.9249   97.5634 C   0  0  0  0  0  0  0  0  0  0  0  0
   99.2485   16.6293   98.7410 C   0  0  0  0  0  0  0  0  0  0  0  0
  100.2486   16.6137   99.7651 C   0  0  0  0  0  0  0  0  0  0  0  0
   99.9919   17.2806  100.9993 N   0  0  0  0  0  0  0  0  0  0  0  0
   98.0730   17.1199   98.5584 N   0  0  0  0  0  0  0  0  0  0  0  0
   97.6570   16.7927   97.3473 C   0  0  0  0  0  0  0  0  0  0  0  0
   98.5270   16.0649   96.7435 N   0  0  0  0  0  0  0  0  0  0  0  0
  1 24  1  0  0  0  0
  1  4  2  0  0  0  0
  2 13  1  0  0  0  0
  2 21  1  0  0  0  0
  3 16  1  0  0  0  0
  4 18  1  0  0  0  0
  5 19  2  0  0  0  0
  5 16  1  0  0  0  0
  6 16  2  0  0  0  0
  6 17  1  0  0  0  0
  7 17  1  0  0  0  0
 11 25  2  0  0  0  0
 12 26  2  0  0  0  0
 13 25  1  0  0  0  0
 14 23  1  0  0  0  0
 15 26  1  0  0  0  0
 17 18  2  0  0  0  0
 18 19  1  0  0  0  0
 19 24  1  0  0  0  0
 20 10  1  6  0  0  0
 20 22  1  0  0  0  0
 20 23  1  0  0  0  0
 21 14  1  1  0  0  0
 21 22  1  0  0  0  0
 22 15  1  6  0  0  0
 23 24  1  1  0  0  0
 25  8  1  6  0  0  0
 25 32  1  0  0  0  0
 26  9  1  6  0  0  0
 26 28  1  0  0  0  0
 27 28  1  0  0  0  0
 29 27  1  1  0  0  0
 29 30  1  0  0  0  0
 29 31  1  0  0  0  0
 30 35  1  0  0  0  0
 31 33  1  0  0  0  0
 31 32  1  6  0  0  0
 33 34  1  6  0  0  0
 33 35  1  0  0  0  0
 35 45  1  1  0  0  0
 36 41  2  0  0  0  0
 36 37  1  0  0  0  0
 37 38  2  0  0  0  0
 38 39  1  0  0  0  0
 39 40  2  0  0  0  0
 39 45  1  0  0  0  0
 40 41  1  0  0  0  0
 40 43  1  0  0  0  0
 41 42  1  0  0  0  0
 43 44  2  0  0  0  0
 44 45  1  0  0  0  0
M  CHG  4   8  -1   9  -1  11  -1  12  -1
M  END
>  <CHROM.1>
8.36388683,173.56210905,96.68312639,12.81031587,97.47742865,-2.50040743,-0.74717798
-1.38062325

>  <Name>
ligand

>  <RI>
0

>  <Rbt.Current_Directory>
/home/itssahil/PROJECTS/Mol_Feturizer/New_Systems/rnas/4YAZ

>  <Rbt.Executable>
rbdock ($Id: //depot/dev/client3/rdock/2013.1/src/exe/rbdock.cxx#4 $)

>  <Rbt.Library>
libRbt.so (2013.1, Build901 2013/11/27)

>  <Rbt.Parameter_File>
/export/apps/rDock/src/rDock_2013.1_src/data/scripts/dock_solv.prm

>  <Rbt.Receptor>
prm/pocket_docking_2.prm

>  <SCORE>
-41.4583

>  <SCORE.INTER>
-41.1444

>  <SCORE.INTER.CONST>
1

>  <SCORE.INTER.POLAR>
0

>  <SCORE.INTER.ROT>
2

>  <SCORE.INTER.SOLV>
41.7551

>  <SCORE.INTER.VDW>
-46.2813

>  <SCORE.INTER.norm>
-0.91432

>  <SCORE.INTRA>
-0.313875

>  <SCORE.INTRA.DIHEDRAL>
-0.0487544

>  <SCORE.INTRA.DIHEDRAL.0>
2.39103

>  <SCORE.INTRA.POLAR>
0

>  <SCORE.INTRA.POLAR.0>
0

>  <SCORE.INTRA.REPUL>
0

>  <SCORE.INTRA.REPUL.0>
0

>  <SCORE.INTRA.SOLV>
-0.0169974

>  <SCORE.INTRA.SOLV.lig_0>
-163.975

>  <SCORE.INTRA.VDW>
-0.280999

>  <SCORE.INTRA.VDW.0>
-1.49176

>  <SCORE.INTRA.norm>
-0.00697501

>  <SCORE.RESTR>
0

>  <SCORE.RESTR.CAVITY>
0

>  <SCORE.RESTR.norm>
0

>  <SCORE.SYSTEM>
0

>  <SCORE.SYSTEM.CONST>
0

>  <SCORE.SYSTEM.DIHEDRAL>
0

>  <SCORE.SYSTEM.SOLV>
0

>  <SCORE.SYSTEM.norm>
0

>  <SCORE.heavy>
45

>  <SCORE.norm>
-0.921295

>  <RMSD>
6.988

$$$$
ligand
 OpenBabel11021811513D
libRbt.so/2013.1/901 2013/11/27
 45 51  0  0  0  0  0  0  0  0999 V2000
   96.5886    9.7945   98.7764 C   0  0  0  0  0  0  0  0  0  0  0  0
   95.5955   10.7069   94.9800 C   0  0  0  0  0  0  0  0  0  0  0  0
   93.7693   11.3546  103.4690 N   0  0  0  0  0  0  0  0  0  0  0  0
   97.4063    9.9803   99.7613 N   0  0  0  0  0  0  0  0  0  0  0  0
   94.4198   10.7299  101.3142 N   0  0  0  0  0  0  0  0  0  0  0  0
   96.0276   11.0083  102.9736 N   0  0  0  0  0  0  0  0  0  0  0  0
   98.3513   10.6004  102.5170 O   0  0  0  0  0  0  0  0  0  0  0  0
   98.3773   10.0417   93.7982 O   0  5  0  0  0  0  0  0  0  0  0  0
   92.6013   14.6848   95.5799 O   0  5  0  0  0  0  0  0  0  0  0  0
   92.3915   11.2389   97.9720 O   0  0  0  0  0  0  0  0  0  0  0  0
   99.2143   11.1244   95.5534 O   0  5  0  0  0  0  0  0  0  0  0  0
   93.3060   14.3066   97.6672 O   0  5  0  0  0  0  0  0  0  0  0  0
   96.8164   10.3987   95.5229 O   0  0  0  0  0  0  0  0  0  0  0  0
   94.6619    9.3856   96.9480 O   0  0  0  0  0  0  0  0  0  0  0  0
   93.4142   12.4768   95.8954 O   0  0  0  0  0  0  0  0  0  0  0  0
   94.7944   11.0232  102.5320 C   0  0  0  0  0  0  0  0  0  0  0  0
   97.0086   10.6662  102.1493 C   0  0  0  0  0  0  0  0  0  0  0  0
   96.6843   10.3548  100.8096 C   0  0  0  0  0  0  0  0  0  0  0  0
   95.3694   10.3822  100.4149 C   0  0  0  0  0  0  0  0  0  0  0  0
   93.7656   11.1409   98.0165 C   0  0  2  0  0  0  0  0  0  0  0  0
   94.4935   10.5421   95.9476 C   0  0  1  0  0  0  0  0  0  0  0  0
   94.3168   11.6087   96.5707 C   0  0  1  0  0  0  0  0  0  0  0  0
   94.2587    9.9457   98.2833 C   0  0  2  0  0  0  0  0  0  0  0  0
   95.3798   10.0367   99.1269 N   0  0  0  0  0  0  0  0  0  0  0  0
   98.0382   11.0030   94.7651 P   0  0  2  0  0  0  0  0  0  0  0  0
   93.5645   13.9596   96.2911 P   0  0  1  0  0  0  0  0  0  0  0  0
   95.4042   14.1697   94.4490 C   0  0  0  0  0  0  0  0  0  0  0  0
   94.9427   14.4844   95.7725 O   0  0  0  0  0  0  0  0  0  0  0  0
   96.8437   14.3747   94.2295 C   0  0  1  0  0  0  0  0  0  0  0  0
   97.2567   15.7682   94.9154 O   0  0  0  0  0  0  0  0  0  0  0  0
   97.5022   13.4921   94.8355 C   0  0  1  0  0  0  0  0  0  0  0  0
   97.6993   12.3067   94.0308 O   0  0  0  0  0  0  0  0  0  0  0  0
   98.7882   14.2003   95.2339 C   0  0  1  0  0  0  0  0  0  0  0  0
   99.6126   14.1763   94.2792 O   0  0  0  0  0  0  0  0  0  0  0  0
   98.3638   15.6480   95.4809 C   0  0  2  0  0  0  0  0  0  0  0  0
  101.3788   16.1357   99.6169 N   0  0  0  0  0  0  0  0  0  0  0  0
  101.6828   15.5078   98.4507 C   0  0  0  0  0  0  0  0  0  0  0  0
  100.7572   15.5036   97.4989 N   0  0  0  0  0  0  0  0  0  0  0  0
   99.5193   16.0240   97.6388 C   0  0  0  0  0  0  0  0  0  0  0  0
   99.1664   16.6843   98.8352 C   0  0  0  0  0  0  0  0  0  0  0  0
  100.1790   16.7023   99.8468 C   0  0  0  0  0  0  0  0  0  0  0  0
   99.9024   17.3280  101.0982 N   0  0  0  0  0  0  0  0  0  0  0  0
   97.9635   17.1134   98.6773 N   0  0  0  0  0  0  0  0  0  0  0  0
   97.5502   16.7893   97.4644 C   0  0  0  0  0  0  0  0  0  0  0  0
   98.4508   16.1232   96.8347 N   0  0  0  0  0  0  0  0  0  0  0  0
  1 24  1  0  0  0  0
  1  4  2  0  0  0  0
  2 13  1  0  0  0  0
  2 21  1  0  0  0  0
  3 16  1  0  0  0  0
  4 18  1  0  0  0  0
  5 19  2  0  0  0  0
  5 16  1  0  0  0  0
  6 16  2  0  0  0  0
  6 17  1  0  0  0  0
  7 17  1  0  0  0  0
 11 25  2  0  0  0  0
 12 26  2  0  0  0  0
 13 25  1  0  0  0  0
 14 23  1  0  0  0  0
 15 26  1  0  0  0  0
 17 18  2  0  0  0  0
 18 19  1  0  0  0  0
 19 24  1  0  0  0  0
 20 10  1  6  0  0  0
 20 22  1  0  0  0  0
 20 23  1  0  0  0  0
 21 14  1  1  0  0  0
 21 22  1  0  0  0  0
 22 15  1  6  0  0  0
 23 24  1  1  0  0  0
 25  8  1  6  0  0  0
 25 32  1  0  0  0  0
 26  9  1  6  0  0  0
 26 28  1  0  0  0  0
 27 28  1  0  0  0  0
 29 27  1  1  0  0  0
 29 30  1  0  0  0  0
 29 31  1  0  0  0  0
 30 35  1  0  0  0  0
 31 33  1  0  0  0  0
 31 32  1  6  0  0  0
 33 34  1  6  0  0  0
 33 35  1  0  0  0  0
 35 45  1  1  0  0  0
 36 41  2  0  0  0  0
 36 37  1  0  0  0  0
 37 38  2  0  0  0  0
 38 39  1  0  0  0  0
 39 40  2  0  0  0  0
 39 45  1  0  0  0  0
 40 41  1  0  0  0  0
 40 43  1  0  0  0  0
 41 42  1  0  0  0  0
 43 44  2  0  0  0  0
 44 45  1  0  0  0  0
M  CHG  4   8  -1   9  -1  11  -1  12  -1
M  END
>  <CHROM.1>
5.86332238,176.23487052,96.64548059,12.85799630,97.49564112,-2.55406163,-0.76264014
-1.38119049

>  <Name>
ligand

>  <RI>
0

>  <Rbt.Current_Directory>
/home/itssahil/PROJECTS/Mol_Feturizer/New_Systems/rnas/4YAZ

>  <Rbt.Executable>
rbdock ($Id: //depot/dev/client3/rdock/2013.1/src/exe/rbdock.cxx#4 $)

>  <Rbt.Library>
libRbt.so (2013.1, Build901 2013/11/27)

>  <Rbt.Parameter_File>
/export/apps/rDock/src/rDock_2013.1_src/data/scripts/dock_solv.prm

>  <Rbt.Receptor>
prm/pocket_docking_4.prm

>  <SCORE>
-41.572

>  <SCORE.INTER>
-41.3032

>  <SCORE.INTER.CONST>
1

>  <SCORE.INTER.POLAR>
0

>  <SCORE.INTER.ROT>
2

>  <SCORE.INTER.SOLV>
41.9306

>  <SCORE.INTER.VDW>
-46.4457

>  <SCORE.INTER.norm>
-0.917849

>  <SCORE.INTRA>
-0.268798

>  <SCORE.INTRA.DIHEDRAL>
-0.0316921

>  <SCORE.INTRA.DIHEDRAL.0>
2.39103

>  <SCORE.INTRA.POLAR>
0

>  <SCORE.INTRA.POLAR.0>
0

>  <SCORE.INTRA.REPUL>
0

>  <SCORE.INTRA.REPUL.0>
0

>  <SCORE.INTRA.SOLV>
-0.0191462

>  <SCORE.INTRA.SOLV.lig_0>
-163.975

>  <SCORE.INTRA.VDW>
-0.243379

>  <SCORE.INTRA.VDW.0>
-1.49176

>  <SCORE.INTRA.norm>
-0.00597329

>  <SCORE.RESTR>
0

>  <SCORE.RESTR.CAVITY>
0

>  <SCORE.RESTR.norm>
0

>  <SCORE.SYSTEM>
0

>  <SCORE.SYSTEM.CONST>
0

>  <SCORE.SYSTEM.DIHEDRAL>
0

>  <SCORE.SYSTEM.SOLV>
0

>  <SCORE.SYSTEM.norm>
0

>  <SCORE.heavy>
45

>  <SCORE.norm>
-0.923822

>  <RMSD>
6.990

$$$$
ligand
 OpenBabel11021811513D
libRbt.so/2013.1/901 2013/11/27
 45 51  0  0  0  0  0  0  0  0999 V2000
   96.6082    9.8101   98.7977 C   0  0  0  0  0  0  0  0  0  0  0  0
   95.5815   10.6858   95.0119 C   0  0  0  0  0  0  0  0  0  0  0  0
   93.8083   11.2599  103.5371 N   0  0  0  0  0  0  0  0  0  0  0  0
   97.4320    9.9947   99.7778 N   0  0  0  0  0  0  0  0  0  0  0  0
   94.4486   10.6758  101.3679 N   0  0  0  0  0  0  0  0  0  0  0  0
   96.0671   10.9558  103.0166 N   0  0  0  0  0  0  0  0  0  0  0  0
   98.3925   10.5905  102.5334 O   0  0  0  0  0  0  0  0  0  0  0  0
   98.3558   10.0235   93.8110 O   0  5  0  0  0  0  0  0  0  0  0  0
   92.5820   14.6581   95.6217 O   0  5  0  0  0  0  0  0  0  0  0  0
   92.3990   11.2196   98.0265 O   0  0  0  0  0  0  0  0  0  0  0  0
   99.2034   11.1140   95.5563 O   0  5  0  0  0  0  0  0  0  0  0  0
   93.3035   14.2886   97.7047 O   0  5  0  0  0  0  0  0  0  0  0  0
   96.8073   10.3823   95.5464 O   0  0  0  0  0  0  0  0  0  0  0  0
   94.6662    9.3685   96.9912 O   0  0  0  0  0  0  0  0  0  0  0  0
   93.4028   12.4532   95.9381 O   0  0  0  0  0  0  0  0  0  0  0  0
   94.8298   10.9577  102.5864 C   0  0  0  0  0  0  0  0  0  0  0  0
   97.0457   10.6406  102.1788 C   0  0  0  0  0  0  0  0  0  0  0  0
   96.7139   10.3431  100.8377 C   0  0  0  0  0  0  0  0  0  0  0  0
   95.3951   10.3556  100.4553 C   0  0  0  0  0  0  0  0  0  0  0  0
   93.7737   11.1251   98.0608 C   0  0  2  0  0  0  0  0  0  0  0  0
   94.4873   10.5213   95.9883 C   0  0  1  0  0  0  0  0  0  0  0  0
   94.3126   11.5896   96.6093 C   0  0  1  0  0  0  0  0  0  0  0  0
   94.2717    9.9320   98.3277 C   0  0  2  0  0  0  0  0  0  0  0  0
   95.3990   10.0285   99.1624 N   0  0  0  0  0  0  0  0  0  0  0  0
   98.0217   10.9872   94.7774 P   0  0  2  0  0  0  0  0  0  0  0  0
   93.5524   13.9377   96.3279 P   0  0  1  0  0  0  0  0  0  0  0  0
   95.3775   14.1462   94.4711 C   0  0  0  0  0  0  0  0  0  0  0  0
   94.9253   14.4642   95.7971 O   0  0  0  0  0  0  0  0  0  0  0  0
   96.8148   14.3541   94.2400 C   0  0  1  0  0  0  0  0  0  0  0  0
   97.2295   15.7509   94.9182 O   0  0  0  0  0  0  0  0  0  0  0  0
   97.4801   13.4751   94.8438 C   0  0  1  0  0  0  0  0  0  0  0  0
   97.6740   12.2876   94.0414 O   0  0  0  0  0  0  0  0  0  0  0  0
   98.7673   14.1878   95.2301 C   0  0  1  0  0  0  0  0  0  0  0  0
   99.5845   14.1627   94.2692 O   0  0  0  0  0  0  0  0  0  0  0  0
   98.3411   15.6353   95.4756 C   0  0  2  0  0  0  0  0  0  0  0  0
  101.3700   16.0979   99.6044 N   0  0  0  0  0  0  0  0  0  0  0  0
  101.6630   15.4606   98.4404 C   0  0  0  0  0  0  0  0  0  0  0  0
  100.7358   15.4654   97.4903 N   0  0  0  0  0  0  0  0  0  0  0  0
   99.5056   16.0041   97.6299 C   0  0  0  0  0  0  0  0  0  0  0  0
   99.1643   16.6746   98.8240 C   0  0  0  0  0  0  0  0  0  0  0  0
  100.1789   16.6825   99.8338 C   0  0  0  0  0  0  0  0  0  0  0  0
   99.9134   17.3176  101.0829 N   0  0  0  0  0  0  0  0  0  0  0  0
   97.9674   17.1201   98.6662 N   0  0  0  0  0  0  0  0  0  0  0  0
   97.5474   16.7967   97.4555 C   0  0  0  0  0  0  0  0  0  0  0  0
   98.4373   16.1151   96.8271 N   0  0  0  0  0  0  0  0  0  0  0  0
  1 24  1  0  0  0  0
  1  4  2  0  0  0  0
  2 13  1  0  0  0  0
  2 21  1  0  0  0  0
  3 16  1  0  0  0  0
  4 18  1  0  0  0  0
  5 19  2  0  0  0  0
  5 16  1  0  0  0  0
  6 16  2  0  0  0  0
  6 17  1  0  0  0  0
  7 17  1  0  0  0  0
 11 25  2  0  0  0  0
 12 26  2  0  0  0  0
 13 25  1  0  0  0  0
 14 23  1  0  0  0  0
 15 26  1  0  0  0  0
 17 18  2  0  0  0  0
 18 19  1  0  0  0  0
 19 24  1  0  0  0  0
 20 10  1  6  0  0  0
 20 22  1  0  0  0  0
 20 23  1  0  0  0  0
 21 14  1  1  0  0  0
 21 22  1  0  0  0  0
 22 15  1  6  0  0  0
 23 24  1  1  0  0  0
 25  8  1  6  0  0  0
 25 32  1  0  0  0  0
 26  9  1  6  0  0  0
 26 28  1  0  0  0  0
 27 28  1  0  0  0  0
 29 27  1  1  0  0  0
 29 30  1  0  0  0  0
 29 31  1  0  0  0  0
 30 35  1  0  0  0  0
 31 33  1  0  0  0  0
 31 32  1  6  0  0  0
 33 34  1  6  0  0  0
 33 35  1  0  0  0  0
 35 45  1  1  0  0  0
 36 41  2  0  0  0  0
 36 37  1  0  0  0  0
 37 38  2  0  0  0  0
 38 39  1  0  0  0  0
 39 40  2  0  0  0  0
 39 45  1  0  0  0  0
 40 41  1  0  0  0  0
 40 43  1  0  0  0  0
 41 42  1  0  0  0  0
 43 44  2  0  0  0  0
 44 45  1  0  0  0  0
M  CHG  4   8  -1   9  -1  11  -1  12  -1
M  END
>  <CHROM.1>
7.11163121,175.21340010,96.64333185,12.83746932,97.51552843,-2.51955505,-0.76193391
-1.36838014

>  <Name>
ligand

>  <RI>
0

>  <Rbt.Current_Directory>
/home/itssahil/PROJECTS/Mol_Feturizer/New_Systems/rnas/4YAZ

>  <Rbt.Executable>
rbdock ($Id: //depot/dev/client3/rdock/2013.1/src/exe/rbdock.cxx#4 $)

>  <Rbt.Library>
libRbt.so (2013.1, Build901 2013/11/27)

>  <Rbt.Parameter_File>
/export/apps/rDock/src/rDock_2013.1_src/data/scripts/dock_solv.prm

>  <Rbt.Receptor>
prm/pocket_docking_7.prm

>  <SCORE>
-41.6396

>  <SCORE.INTER>
-41.3564

>  <SCORE.INTER.CONST>
1

>  <SCORE.INTER.POLAR>
0

>  <SCORE.INTER.ROT>
2

>  <SCORE.INTER.SOLV>
42.0791

>  <SCORE.INTER.VDW>
-46.5307

>  <SCORE.INTER.norm>
-0.919032

>  <SCORE.INTRA>
-0.2832

>  <SCORE.INTRA.DIHEDRAL>
-0.038248

>  <SCORE.INTRA.DIHEDRAL.0>
2.39103

>  <SCORE.INTRA.POLAR>
0

>  <SCORE.INTRA.POLAR.0>
0

>  <SCORE.INTRA.REPUL>
0

>  <SCORE.INTRA.REPUL.0>
0

>  <SCORE.INTRA.SOLV>
-0.0183952

>  <SCORE.INTRA.SOLV.lig_0>
-163.975

>  <SCORE.INTRA.VDW>
-0.254879

>  <SCORE.INTRA.VDW.0>
-1.49176

>  <SCORE.INTRA.norm>
-0.00629334

>  <SCORE.RESTR>
0

>  <SCORE.RESTR.CAVITY>
0

>  <SCORE.RESTR.norm>
0

>  <SCORE.SYSTEM>
0

>  <SCORE.SYSTEM.CONST>
0

>  <SCORE.SYSTEM.DIHEDRAL>
0

>  <SCORE.SYSTEM.SOLV>
0

>  <SCORE.SYSTEM.norm>
0

>  <SCORE.heavy>
45

>  <SCORE.norm>
-0.925325

>  <RMSD>
6.992

$$$$
ligand
 OpenBabel11021811513D
libRbt.so/2013.1/901 2013/11/27
 45 51  0  0  0  0  0  0  0  0999 V2000
   95.2580    8.4502   95.9028 C   0  0  0  0  0  0  0  0  0  0  0  0
   92.9196   11.3050   93.8045 C   0  0  0  0  0  0  0  0  0  0  0  0
   96.5515   10.2705  101.1389 N   0  0  0  0  0  0  0  0  0  0  0  0
   96.5051    8.2322   96.1682 N   0  0  0  0  0  0  0  0  0  0  0  0
   95.5208    9.7340   99.1125 N   0  0  0  0  0  0  0  0  0  0  0  0
   97.7773    9.2580   99.4249 N   0  0  0  0  0  0  0  0  0  0  0  0
   99.0532    8.1615   97.7090 O   0  0  0  0  0  0  0  0  0  0  0  0
   94.2802   10.8625   91.0603 O   0  5  0  0  0  0  0  0  0  0  0  0
   92.1923   15.0103   97.1044 O   0  5  0  0  0  0  0  0  0  0  0  0
   92.1184   10.9385   98.1317 O   0  0  0  0  0  0  0  0  0  0  0  0
   96.2084   11.0329   92.1587 O   0  5  0  0  0  0  0  0  0  0  0  0
   93.7021   13.7371   98.1511 O   0  5  0  0  0  0  0  0  0  0  0  0
   94.0606   10.6640   93.3950 O   0  0  0  0  0  0  0  0  0  0  0  0
   92.7623    9.4143   95.5049 O   0  0  0  0  0  0  0  0  0  0  0  0
   92.2621   12.7875   96.2739 O   0  0  0  0  0  0  0  0  0  0  0  0
   96.6221    9.7351   99.8171 C   0  0  0  0  0  0  0  0  0  0  0  0
   97.8799    8.7135   98.2200 C   0  0  0  0  0  0  0  0  0  0  0  0
   96.7359    8.6937   97.3907 C   0  0  0  0  0  0  0  0  0  0  0  0
   95.5536    9.2039   97.8678 C   0  0  0  0  0  0  0  0  0  0  0  0
   93.1923   10.6733   97.3093 C   0  0  2  0  0  0  0  0  0  0  0  0
   92.4965   10.8888   95.1556 C   0  0  1  0  0  0  0  0  0  0  0  0
   93.0344   11.6221   96.0101 C   0  0  1  0  0  0  0  0  0  0  0  0
   93.3215    9.4249   96.9000 C   0  0  2  0  0  0  0  0  0  0  0  0
   94.6722    9.0348   96.8815 N   0  0  0  0  0  0  0  0  0  0  0  0
   94.8329   11.3792   92.2442 P   0  0  2  0  0  0  0  0  0  0  0  0
   93.0785   13.9528   96.8684 P   0  0  1  0  0  0  0  0  0  0  0  0
   93.6458   14.6808   94.4250 C   0  0  0  0  0  0  0  0  0  0  0  0
   94.0715   14.4806   95.7824 O   0  0  0  0  0  0  0  0  0  0  0  0
   94.7354   14.7901   93.4436 C   0  0  1  0  0  0  0  0  0  0  0  0
   95.8794   15.7261   94.0744 O   0  0  0  0  0  0  0  0  0  0  0  0
   95.2746   13.6679   93.2713 C   0  0  1  0  0  0  0  0  0  0  0  0
   94.6193   12.8985   92.2367 O   0  0  0  0  0  0  0  0  0  0  0  0
   96.7302   13.9993   92.9793 C   0  0  1  0  0  0  0  0  0  0  0  0
   96.8784   14.2711   91.7562 O   0  0  0  0  0  0  0  0  0  0  0  0
   97.0049   15.2595   93.7999 C   0  0  2  0  0  0  0  0  0  0  0  0
   98.2199   16.8315   98.5419 N   0  0  0  0  0  0  0  0  0  0  0  0
   97.2084   17.2921   97.7599 C   0  0  0  0  0  0  0  0  0  0  0  0
   97.0620   16.7403   96.5614 N   0  0  0  0  0  0  0  0  0  0  0  0
   97.8875   15.8027   96.0491 C   0  0  0  0  0  0  0  0  0  0  0  0
   98.9491   15.2993   96.8310 C   0  0  0  0  0  0  0  0  0  0  0  0
   99.0849   15.8853   98.1299 C   0  0  0  0  0  0  0  0  0  0  0  0
  100.1448   15.4541   98.9812 N   0  0  0  0  0  0  0  0  0  0  0  0
   99.5349   14.4005   96.1205 N   0  0  0  0  0  0  0  0  0  0  0  0
   98.9035   14.2912   94.9645 C   0  0  0  0  0  0  0  0  0  0  0  0
   97.9321   15.1292   94.8904 N   0  0  0  0  0  0  0  0  0  0  0  0
  1 24  1  0  0  0  0
  1  4  2  0  0  0  0
  2 13  1  0  0  0  0
  2 21  1  0  0  0  0
  3 16  1  0  0  0  0
  4 18  1  0  0  0  0
  5 19  2  0  0  0  0
  5 16  1  0  0  0  0
  6 16  2  0  0  0  0
  6 17  1  0  0  0  0
  7 17  1  0  0  0  0
 11 25  2  0  0  0  0
 12 26  2  0  0  0  0
 13 25  1  0  0  0  0
 14 23  1  0  0  0  0
 15 26  1  0  0  0  0
 17 18  2  0  0  0  0
 18 19  1  0  0  0  0
 19 24  1  0  0  0  0
 20 10  1  1  0  0  0
 20 22  1  0  0  0  0
 20 23  1  0  0  0  0
 21 14  1  1  0  0  0
 21 22  1  0  0  0  0
 22 15  1  1  0  0  0
 23 24  1  6  0  0  0
 25  8  1  6  0  0  0
 25 32  1  0  0  0  0
 26  9  1  1  0  0  0
 26 28  1  0  0  0  0
 27 28  1  0  0  0  0
 29 27  1  1  0  0  0
 29 30  1  0  0  0  0
 29 31  1  0  0  0  0
 30 35  1  0  0  0  0
 31 33  1  0  0  0  0
 31 32  1  6  0  0  0
 33 34  1  6  0  0  0
 33 35  1  0  0  0  0
 35 45  1  1  0  0  0
 36 41  2  0  0  0  0
 36 37  1  0  0  0  0
 37 38  2  0  0  0  0
 38 39  1  0  0  0  0
 39 40  2  0  0  0  0
 39 45  1  0  0  0  0
 40 41  1  0  0  0  0
 40 43  1  0  0  0  0
 41 42  1  0  0  0  0
 43 44  2  0  0  0  0
 44 45  1  0  0  0  0
M  CHG  4   8  -1   9  -1  11  -1  12  -1
M  END
>  <CHROM.1>
-15.65820312,-21.68099431,95.52246526,12.45423776,95.86287277,-2.15857341
-0.86137594,-0.68066537

>  <Name>
ligand

>  <RI>
0

>  <Rbt.Current_Directory>
/home/itssahil/PROJECTS/Mol_Feturizer/New_Systems/rnas/4YAZ

>  <Rbt.Executable>
rbdock ($Id: //depot/dev/client3/rdock/2013.1/src/exe/rbdock.cxx#4 $)

>  <Rbt.Library>
libRbt.so (2013.1, Build901 2013/11/27)

>  <Rbt.Parameter_File>
/export/apps/rDock/src/rDock_2013.1_src/data/scripts/dock_solv.prm

>  <Rbt.Receptor>
prm/pocket_docking_5.prm

>  <SCORE>
-24.5374

>  <SCORE.INTER>
-24.7253

>  <SCORE.INTER.CONST>
1

>  <SCORE.INTER.POLAR>
0

>  <SCORE.INTER.ROT>
2

>  <SCORE.INTER.SOLV>
37.9622

>  <SCORE.INTER.VDW>
-34.071

>  <SCORE.INTER.norm>
-0.549452

>  <SCORE.INTRA>
0.187975

>  <SCORE.INTRA.DIHEDRAL>
0.134904

>  <SCORE.INTRA.DIHEDRAL.0>
2.39103

>  <SCORE.INTRA.POLAR>
0

>  <SCORE.INTRA.POLAR.0>
0

>  <SCORE.INTRA.REPUL>
0

>  <SCORE.INTRA.REPUL.0>
0

>  <SCORE.INTRA.SOLV>
0.0316923

>  <SCORE.INTRA.SOLV.lig_0>
-163.975

>  <SCORE.INTRA.VDW>
0.104677

>  <SCORE.INTRA.VDW.0>
-1.49176

>  <SCORE.INTRA.norm>
0.00417722

>  <SCORE.RESTR>
0

>  <SCORE.RESTR.CAVITY>
0

>  <SCORE.RESTR.norm>
0

>  <SCORE.SYSTEM>
0

>  <SCORE.SYSTEM.CONST>
0

>  <SCORE.SYSTEM.DIHEDRAL>
0

>  <SCORE.SYSTEM.SOLV>
0

>  <SCORE.SYSTEM.norm>
0

>  <SCORE.heavy>
45

>  <SCORE.norm>
-0.545275

>  <RMSD>
7.027

$$$$
ligand
 OpenBabel11021811513D
libRbt.so/2013.1/901 2013/11/27
 45 51  0  0  0  0  0  0  0  0999 V2000
   94.3475   11.4895   98.7218 C   0  0  0  0  0  0  0  0  0  0  0  0
   94.2332   10.4636   93.4941 C   0  0  0  0  0  0  0  0  0  0  0  0
   96.5801    7.1335   95.8158 N   0  0  0  0  0  0  0  0  0  0  0  0
   95.4346   11.0724   99.2853 N   0  0  0  0  0  0  0  0  0  0  0  0
   95.2624    8.8842   96.6254 N   0  0  0  0  0  0  0  0  0  0  0  0
   97.1991    8.2722   97.7615 N   0  0  0  0  0  0  0  0  0  0  0  0
   97.8995    9.4604   99.7292 O   0  0  0  0  0  0  0  0  0  0  0  0
   96.4502    8.5333   92.5265 O   0  5  0  0  0  0  0  0  0  0  0  0
   93.0619   15.3295   93.1791 O   0  5  0  0  0  0  0  0  0  0  0  0
   91.7036   12.8086   96.2515 O   0  0  0  0  0  0  0  0  0  0  0  0
   97.7621    9.5323   94.0213 O   0  5  0  0  0  0  0  0  0  0  0  0
   93.7102   15.1381   95.3096 O   0  5  0  0  0  0  0  0  0  0  0  0
   95.2746    9.8178   94.1097 O   0  0  0  0  0  0  0  0  0  0  0  0
   93.0018   10.0460   95.6850 O   0  0  0  0  0  0  0  0  0  0  0  0
   92.9770   13.0942   93.9738 O   0  0  0  0  0  0  0  0  0  0  0  0
   96.3274    8.1443   96.7921 C   0  0  0  0  0  0  0  0  0  0  0  0
   97.0271    9.2246   98.6683 C   0  0  0  0  0  0  0  0  0  0  0  0
   95.8867   10.0529   98.5664 C   0  0  0  0  0  0  0  0  0  0  0  0
   95.0169    9.8696   97.5198 C   0  0  0  0  0  0  0  0  0  0  0  0
   92.9322   12.1897   96.3376 C   0  0  2  0  0  0  0  0  0  0  0  0
   93.2242   10.9457   94.4571 C   0  0  1  0  0  0  0  0  0  0  0  0
   93.5183   12.0985   94.8338 C   0  0  1  0  0  0  0  0  0  0  0  0
   92.9417   10.9784   96.8624 C   0  0  2  0  0  0  0  0  0  0  0  0
   94.0670   10.7910   97.6843 N   0  0  0  0  0  0  0  0  0  0  0  0
   96.5785    9.7254   93.2591 P   0  0  2  0  0  0  0  0  0  0  0  0
   93.7168   14.4454   94.0444 P   0  0  1  0  0  0  0  0  0  0  0  0
   95.3600   13.5359   92.2292 C   0  0  0  0  0  0  0  0  0  0  0  0
   95.1506   14.2688   93.4469 O   0  0  0  0  0  0  0  0  0  0  0  0
   96.7474   13.1094   91.9935 C   0  0  1  0  0  0  0  0  0  0  0  0
   97.7147   14.3362   92.3706 O   0  0  0  0  0  0  0  0  0  0  0  0
   97.0539   12.1824   92.7850 C   0  0  1  0  0  0  0  0  0  0  0  0
   96.7198   10.8782   92.2567 O   0  0  0  0  0  0  0  0  0  0  0  0
   98.5383   12.3931   93.0423 C   0  0  1  0  0  0  0  0  0  0  0  0
   99.2199   11.8534   92.1280 O   0  0  0  0  0  0  0  0  0  0  0  0
   98.7257   13.9084   92.9660 C   0  0  2  0  0  0  0  0  0  0  0  0
   96.9798   16.4578   97.0754 N   0  0  0  0  0  0  0  0  0  0  0  0
   96.2522   16.0114   96.0180 C   0  0  0  0  0  0  0  0  0  0  0  0
   96.9019   15.3636   95.0584 N   0  0  0  0  0  0  0  0  0  0  0  0
   98.2390   15.1778   95.0360 C   0  0  0  0  0  0  0  0  0  0  0  0
   99.0284   15.6271   96.1162 C   0  0  0  0  0  0  0  0  0  0  0  0
   98.3152   16.3050   97.1559 C   0  0  0  0  0  0  0  0  0  0  0  0
   99.0353   16.8141   98.2768 N   0  0  0  0  0  0  0  0  0  0  0  0
  100.2403   15.2829   95.8541 N   0  0  0  0  0  0  0  0  0  0  0  0
  100.2604   14.6335   94.7031 C   0  0  0  0  0  0  0  0  0  0  0  0
   99.0848   14.5757   94.1874 N   0  0  0  0  0  0  0  0  0  0  0  0
  1 24  1  0  0  0  0
  1  4  2  0  0  0  0
  2 13  1  0  0  0  0
  2 21  1  0  0  0  0
  3 16  1  0  0  0  0
  4 18  1  0  0  0  0
  5 19  2  0  0  0  0
  5 16  1  0  0  0  0
  6 16  2  0  0  0  0
  6 17  1  0  0  0  0
  7 17  1  0  0  0  0
 11 25  2  0  0  0  0
 12 26  2  0  0  0  0
 13 25  1  0  0  0  0
 14 23  1  0  0  0  0
 15 26  1  0  0  0  0
 17 18  2  0  0  0  0
 18 19  1  0  0  0  0
 19 24  1  0  0  0  0
 20 10  1  6  0  0  0
 20 22  1  0  0  0  0
 20 23  1  0  0  0  0
 21 14  1  1  0  0  0
 21 22  1  0  0  0  0
 22 15  1  6  0  0  0
 23 24  1  1  0  0  0
 25  8  1  6  0  0  0
 25 32  1  0  0  0  0
 26  9  1  6  0  0  0
 26 28  1  0  0  0  0
 27 28  1  0  0  0  0
 29 27  1  1  0  0  0
 29 30  1  0  0  0  0
 29 31  1  0  0  0  0
 30 35  1  0  0  0  0
 31 33  1  0  0  0  0
 31 32  1  6  0  0  0
 33 34  1  6  0  0  0
 33 35  1  0  0  0  0
 35 45  1  1  0  0  0
 36 41  2  0  0  0  0
 36 37  1  0  0  0  0
 37 38  2  0  0  0  0
 38 39  1  0  0  0  0
 39 40  2  0  0  0  0
 39 45  1  0  0  0  0
 40 41  1  0  0  0  0
 40 43  1  0  0  0  0
 41 42  1  0  0  0  0
 43 44  2  0  0  0  0
 44 45  1  0  0  0  0
M  CHG  4   8  -1   9  -1  11  -1  12  -1
M  END
>  <CHROM.1>
175.58991555,29.86673421,96.02892015,12.23845468,95.13199974,-1.95293697
-0.30781731,-0.42644592

>  <Name>
ligand

>  <RI>
0

>  <Rbt.Current_Directory>
/home/itssahil/PROJECTS/Mol_Feturizer/New_Systems/rnas/4YAZ

>  <Rbt.Executable>
rbdock ($Id: //depot/dev/client3/rdock/2013.1/src/exe/rbdock.cxx#4 $)

>  <Rbt.Library>
libRbt.so (2013.1, Build901 2013/11/27)

>  <Rbt.Parameter_File>
/export/apps/rDock/src/rDock_2013.1_src/data/scripts/dock_solv.prm

>  <Rbt.Receptor>
prm/pocket_docking_5.prm

>  <SCORE>
-19.3188

>  <SCORE.INTER>
-21.033

>  <SCORE.INTER.CONST>
1

>  <SCORE.INTER.POLAR>
0

>  <SCORE.INTER.ROT>
2

>  <SCORE.INTER.SOLV>
21.0893

>  <SCORE.INTER.VDW>
-25.9851

>  <SCORE.INTER.norm>
-0.467399

>  <SCORE.INTRA>
1.71421

>  <SCORE.INTRA.DIHEDRAL>
-0.125508

>  <SCORE.INTRA.DIHEDRAL.0>
2.39103

>  <SCORE.INTRA.POLAR>
0

>  <SCORE.INTRA.POLAR.0>
0

>  <SCORE.INTRA.REPUL>
0

>  <SCORE.INTRA.REPUL.0>
0

>  <SCORE.INTRA.SOLV>
8.50266

>  <SCORE.INTRA.SOLV.lig_0>
-163.975

>  <SCORE.INTRA.VDW>
-2.47437

>  <SCORE.INTRA.VDW.0>
-1.49176

>  <SCORE.INTRA.norm>
0.0380936

>  <SCORE.RESTR>
0

>  <SCORE.RESTR.CAVITY>
0

>  <SCORE.RESTR.norm>
0

>  <SCORE.SYSTEM>
0

>  <SCORE.SYSTEM.CONST>
0

>  <SCORE.SYSTEM.DIHEDRAL>
0

>  <SCORE.SYSTEM.SOLV>
0

>  <SCORE.SYSTEM.norm>
0

>  <SCORE.heavy>
45

>  <SCORE.norm>
-0.429306

>  <RMSD>
7.054

$$$$
ligand
 OpenBabel11021811513D
libRbt.so/2013.1/901 2013/11/27
 45 51  0  0  0  0  0  0  0  0999 V2000
   97.8437    9.8977   98.1849 C   0  0  0  0  0  0  0  0  0  0  0  0
   99.3296   12.3647   94.2406 C   0  0  0  0  0  0  0  0  0  0  0  0
   93.0419   11.0472   95.3523 N   0  0  0  0  0  0  0  0  0  0  0  0
   96.9535   10.3998   98.9778 N   0  0  0  0  0  0  0  0  0  0  0  0
   95.1950   10.4260   96.0113 N   0  0  0  0  0  0  0  0  0  0  0  0
   93.7135   11.3035   97.5769 N   0  0  0  0  0  0  0  0  0  0  0  0
   94.3480   11.5230   99.8842 O   0  0  0  0  0  0  0  0  0  0  0  0
  100.1849   15.0607   95.4965 O   0  5  0  0  0  0  0  0  0  0  0  0
   96.2378   10.6735   90.6729 O   0  5  0  0  0  0  0  0  0  0  0  0
   97.5525    8.3360   93.9052 O   0  0  0  0  0  0  0  0  0  0  0  0
   98.1654   15.0929   96.4315 O   0  5  0  0  0  0  0  0  0  0  0  0
   95.1901   10.0401   92.5430 O   0  5  0  0  0  0  0  0  0  0  0  0
   99.0819   12.9827   95.4394 O   0  0  0  0  0  0  0  0  0  0  0  0
   99.3201   10.2242   95.6223 O   0  0  0  0  0  0  0  0  0  0  0  0
   97.6808   10.5840   92.5557 O   0  0  0  0  0  0  0  0  0  0  0  0
   94.0412   10.9286   96.3652 C   0  0  0  0  0  0  0  0  0  0  0  0
   94.5961   11.1731   98.5582 C   0  0  0  0  0  0  0  0  0  0  0  0
   95.8743   10.6555   98.2494 C   0  0  0  0  0  0  0  0  0  0  0  0
   96.1489   10.2741   96.9591 C   0  0  0  0  0  0  0  0  0  0  0  0
   97.4166    9.3963   94.7754 C   0  0  2  0  0  0  0  0  0  0  0  0
   99.0297   10.9203   94.2815 C   0  0  1  0  0  0  0  0  0  0  0  0
   97.8387   10.7281   93.9623 C   0  0  1  0  0  0  0  0  0  0  0  0
   98.1330    9.3399   95.8828 C   0  0  2  0  0  0  0  0  0  0  0  0
   97.4036    9.8230   96.9835 N   0  0  0  0  0  0  0  0  0  0  0  0
   98.8931   14.5281   95.3495 P   0  0  2  0  0  0  0  0  0  0  0  0
   96.2532   10.8851   92.0565 P   0  0  1  0  0  0  0  0  0  0  0  0
   96.9413   13.3991   91.8880 C   0  0  0  0  0  0  0  0  0  0  0  0
   95.9626   12.4096   92.2444 O   0  0  0  0  0  0  0  0  0  0  0  0
   96.7155   14.7311   92.4687 C   0  0  1  0  0  0  0  0  0  0  0  0
   95.1489   15.0676   92.3444 O   0  0  0  0  0  0  0  0  0  0  0  0
   96.9595   14.7111   93.7015 C   0  0  1  0  0  0  0  0  0  0  0  0
   98.3503   14.9845   93.9890 O   0  0  0  0  0  0  0  0  0  0  0  0
   95.9874   15.7245   94.2862 C   0  0  1  0  0  0  0  0  0  0  0  0
   96.4663   16.8884   94.1986 O   0  0  0  0  0  0  0  0  0  0  0  0
   94.7546   15.6310   93.3870 C   0  0  2  0  0  0  0  0  0  0  0  0
   90.4147   16.7942   95.8861 N   0  0  0  0  0  0  0  0  0  0  0  0
   91.4053   17.6503   95.5221 C   0  0  0  0  0  0  0  0  0  0  0  0
   92.4449   17.1418   94.8718 N   0  0  0  0  0  0  0  0  0  0  0  0
   92.6090   15.8279   94.6077 C   0  0  0  0  0  0  0  0  0  0  0  0
   91.6018   14.9079   94.9701 C   0  0  0  0  0  0  0  0  0  0  0  0
   90.4751   15.4696   95.6514 C   0  0  0  0  0  0  0  0  0  0  0  0
   89.4188   14.6107   96.0760 N   0  0  0  0  0  0  0  0  0  0  0  0
   91.9962   13.7523   94.5640 N   0  0  0  0  0  0  0  0  0  0  0  0
   93.1621   13.8880   93.9564 C   0  0  0  0  0  0  0  0  0  0  0  0
   93.5569   15.1105   93.9873 N   0  0  0  0  0  0  0  0  0  0  0  0
  1 24  1  0  0  0  0
  1  4  2  0  0  0  0
  2 13  1  0  0  0  0
  2 21  1  0  0  0  0
  3 16  1  0  0  0  0
  4 18  1  0  0  0  0
  5 19  2  0  0  0  0
  5 16  1  0  0  0  0
  6 16  2  0  0  0  0
  6 17  1  0  0  0  0
  7 17  1  0  0  0  0
 11 25  2  0  0  0  0
 12 26  2  0  0  0  0
 13 25  1  0  0  0  0
 14 23  1  0  0  0  0
 15 26  1  0  0  0  0
 17 18  2  0  0  0  0
 18 19  1  0  0  0  0
 19 24  1  0  0  0  0
 20 10  1  6  0  0  0
 20 22  1  0  0  0  0
 20 23  1  0  0  0  0
 21 14  1  1  0  0  0
 21 22  1  0  0  0  0
 22 15  1  6  0  0  0
 23 24  1  1  0  0  0
 25  8  1  1  0  0  0
 25 32  1  0  0  0  0
 26  9  1  6  0  0  0
 26 28  1  0  0  0  0
 27 28  1  0  0  0  0
 29 27  1  1  0  0  0
 29 30  1  0  0  0  0
 29 31  1  0  0  0  0
 30 35  1  0  0  0  0
 31 33  1  0  0  0  0
 31 32  1  6  0  0  0
 33 34  1  6  0  0  0
 33 35  1  0  0  0  0
 35 45  1  1  0  0  0
 36 41  2  0  0  0  0
 36 37  1  0  0  0  0
 37 38  2  0  0  0  0
 38 39  1  0  0  0  0
 39 40  2  0  0  0  0
 39 45  1  0  0  0  0
 40 41  1  0  0  0  0
 40 43  1  0  0  0  0
 41 42  1  0  0  0  0
 43 44  2  0  0  0  0
 44 45  1  0  0  0  0
M  CHG  4   8  -1   9  -1  11  -1  12  -1
M  END
>  <CHROM.1>
-63.67259130,-144.29914633,95.84000897,12.80902156,94.87417892,0.54794239
-0.46573794,2.51392814

>  <Name>
ligand

>  <RI>
0

>  <Rbt.Current_Directory>
/home/itssahil/PROJECTS/Mol_Feturizer/New_Systems/rnas/4YAZ

>  <Rbt.Executable>
rbdock ($Id: //depot/dev/client3/rdock/2013.1/src/exe/rbdock.cxx#4 $)

>  <Rbt.Library>
libRbt.so (2013.1, Build901 2013/11/27)

>  <Rbt.Parameter_File>
/export/apps/rDock/src/rDock_2013.1_src/data/scripts/dock_solv.prm

>  <Rbt.Receptor>
prm/pocket_docking_7.prm

>  <SCORE>
-15.6194

>  <SCORE.INTER>
-17.3711

>  <SCORE.INTER.CONST>
1

>  <SCORE.INTER.POLAR>
0

>  <SCORE.INTER.ROT>
2

>  <SCORE.INTER.SOLV>
23.785

>  <SCORE.INTER.VDW>
-24.4424

>  <SCORE.INTER.norm>
-0.386025

>  <SCORE.INTRA>
1.75168

>  <SCORE.INTRA.DIHEDRAL>
0.144517

>  <SCORE.INTRA.DIHEDRAL.0>
2.39103

>  <SCORE.INTRA.POLAR>
0

>  <SCORE.INTRA.POLAR.0>
0

>  <SCORE.INTRA.REPUL>
0

>  <SCORE.INTRA.REPUL.0>
0

>  <SCORE.INTRA.SOLV>
3.4575

>  <SCORE.INTRA.SOLV.lig_0>
-163.975

>  <SCORE.INTRA.VDW>
-0.0493323

>  <SCORE.INTRA.VDW.0>
-1.49176

>  <SCORE.INTRA.norm>
0.0389261

>  <SCORE.RESTR>
0

>  <SCORE.RESTR.CAVITY>
0

>  <SCORE.RESTR.norm>
0

>  <SCORE.SYSTEM>
0

>  <SCORE.SYSTEM.CONST>
0

>  <SCORE.SYSTEM.DIHEDRAL>
0

>  <SCORE.SYSTEM.SOLV>
0

>  <SCORE.SYSTEM.norm>
0

>  <SCORE.heavy>
45

>  <SCORE.norm>
-0.347098

>  <RMSD>
7.059

$$$$
ligand
 OpenBabel11021811513D
libRbt.so/2013.1/901 2013/11/27
 45 51  0  0  0  0  0  0  0  0999 V2000
   95.3175    8.6139   95.8642 C   0  0  0  0  0  0  0  0  0  0  0  0
   92.8027   11.2353   93.8079 C   0  0  0  0  0  0  0  0  0  0  0  0
   96.7314   10.1521  101.1593 N   0  0  0  0  0  0  0  0  0  0  0  0
   96.5728    8.3933   96.0853 N   0  0  0  0  0  0  0  0  0  0  0  0
   95.6530    9.7195   99.1329 N   0  0  0  0  0  0  0  0  0  0  0  0
   97.9206    9.2483   99.3608 N   0  0  0  0  0  0  0  0  0  0  0  0
   99.1604    8.2612   97.5544 O   0  0  0  0  0  0  0  0  0  0  0  0
   94.0167   10.6745   91.0169 O   0  5  0  0  0  0  0  0  0  0  0  0
   92.2068   15.0889   96.9610 O   0  5  0  0  0  0  0  0  0  0  0  0
   92.2452   11.0716   98.1855 O   0  0  0  0  0  0  0  0  0  0  0  0
   95.9997   10.9196   91.9973 O   0  5  0  0  0  0  0  0  0  0  0  0
   93.7890   13.8851   97.9824 O   0  5  0  0  0  0  0  0  0  0  0  0
   93.9283   10.5878   93.3670 O   0  0  0  0  0  0  0  0  0  0  0  0
   92.7649    9.4282   95.6034 O   0  0  0  0  0  0  0  0  0  0  0  0
   92.2614   12.8292   96.2358 O   0  0  0  0  0  0  0  0  0  0  0  0
   96.7721    9.6918   99.8083 C   0  0  0  0  0  0  0  0  0  0  0  0
   97.9963    8.7727   98.1251 C   0  0  0  0  0  0  0  0  0  0  0  0
   96.8313    8.7882   97.3253 C   0  0  0  0  0  0  0  0  0  0  0  0
   95.6578    9.2598   97.8601 C   0  0  0  0  0  0  0  0  0  0  0  0
   93.2759   10.7784   97.3185 C   0  0  2  0  0  0  0  0  0  0  0  0
   92.4602   10.8808   95.1989 C   0  0  1  0  0  0  0  0  0  0  0  0
   93.0340   11.6609   95.9860 C   0  0  1  0  0  0  0  0  0  0  0  0
   93.3996    9.5131   96.9632 C   0  0  2  0  0  0  0  0  0  0  0  0
   94.7525    9.1375   96.8886 N   0  0  0  0  0  0  0  0  0  0  0  0
   94.6264   11.2545   92.1421 P   0  0  2  0  0  0  0  0  0  0  0  0
   93.0931   14.0310   96.7273 P   0  0  1  0  0  0  0  0  0  0  0  0
   93.5154   14.6452   94.2240 C   0  0  0  0  0  0  0  0  0  0  0  0
   94.0176   14.5162   95.5638 O   0  0  0  0  0  0  0  0  0  0  0  0
   94.5480   14.7185   93.1796 C   0  0  1  0  0  0  0  0  0  0  0  0
   95.7119   15.6968   93.7002 O   0  0  0  0  0  0  0  0  0  0  0  0
   95.0923   13.5952   93.0318 C   0  0  1  0  0  0  0  0  0  0  0  0
   94.3918   12.7691   92.0735 O   0  0  0  0  0  0  0  0  0  0  0  0
   96.5250   13.9281   92.6439 C   0  0  1  0  0  0  0  0  0  0  0  0
   96.6020   14.1415   91.4029 O   0  0  0  0  0  0  0  0  0  0  0  0
   96.8270   15.2298   93.3864 C   0  0  2  0  0  0  0  0  0  0  0  0
   98.0281   16.6361   98.1837 N   0  0  0  0  0  0  0  0  0  0  0  0
   96.9246   16.9953   97.4765 C   0  0  0  0  0  0  0  0  0  0  0  0
   96.8021   16.5110   96.2465 N   0  0  0  0  0  0  0  0  0  0  0  0
   97.7286   15.7421   95.6354 C   0  0  0  0  0  0  0  0  0  0  0  0
   98.8878   15.3481   96.3375 C   0  0  0  0  0  0  0  0  0  0  0  0
   98.9996   15.8578   97.6705 C   0  0  0  0  0  0  0  0  0  0  0  0
  100.1500   15.5300   98.4471 N   0  0  0  0  0  0  0  0  0  0  0  0
   99.5622   14.5957   95.5406 N   0  0  0  0  0  0  0  0  0  0  0  0
   98.8986   14.4739   94.4041 C   0  0  0  0  0  0  0  0  0  0  0  0
   97.8142   15.1631   94.4289 N   0  0  0  0  0  0  0  0  0  0  0  0
  1 24  1  0  0  0  0
  1  4  2  0  0  0  0
  2 13  1  0  0  0  0
  2 21  1  0  0  0  0
  3 16  1  0  0  0  0
  4 18  1  0  0  0  0
  5 19  2  0  0  0  0
  5 16  1  0  0  0  0
  6 16  2  0  0  0  0
  6 17  1  0  0  0  0
  7 17  1  0  0  0  0
 11 25  2  0  0  0  0
 12 26  2  0  0  0  0
 13 25  1  0  0  0  0
 14 23  1  0  0  0  0
 15 26  1  0  0  0  0
 17 18  2  0  0  0  0
 18 19  1  0  0  0  0
 19 24  1  0  0  0  0
 20 10  1  1  0  0  0
 20 22  1  0  0  0  0
 20 23  1  0  0  0  0
 21 14  1  1  0  0  0
 21 22  1  0  0  0  0
 22 15  1  1  0  0  0
 23 24  1  6  0  0  0
 25  8  1  6  0  0  0
 25 32  1  0  0  0  0
 26  9  1  1  0  0  0
 26 28  1  0  0  0  0
 27 28  1  0  0  0  0
 29 27  1  1  0  0  0
 29 30  1  0  0  0  0
 29 31  1  0  0  0  0
 30 35  1  0  0  0  0
 31 33  1  0  0  0  0
 31 32  1  6  0  0  0
 33 34  1  6  0  0  0
 33 35  1  0  0  0  0
 35 45  1  1  0  0  0
 36 41  2  0  0  0  0
 36 37  1  0  0  0  0
 37 38  2  0  0  0  0
 38 39  1  0  0  0  0
 39 40  2  0  0  0  0
 39 45  1  0  0  0  0
 40 41  1  0  0  0  0
 40 43  1  0  0  0  0
 41 42  1  0  0  0  0
 43 44  2  0  0  0  0
 44 45  1  0  0  0  0
M  CHG  4   8  -1   9  -1  11  -1  12  -1
M  END
>  <CHROM.1>
-9.44386036,-11.35618021,95.47209016,12.44986597,95.68992781,1.84987553,0.83302410
2.45621574

>  <Name>
ligand

>  <RI>
0

>  <Rbt.Current_Directory>
/home/itssahil/PROJECTS/Mol_Feturizer/New_Systems/rnas/4YAZ

>  <Rbt.Executable>
rbdock ($Id: //depot/dev/client3/rdock/2013.1/src/exe/rbdock.cxx#4 $)

>  <Rbt.Library>
libRbt.so (2013.1, Build901 2013/11/27)

>  <Rbt.Parameter_File>
/export/apps/rDock/src/rDock_2013.1_src/data/scripts/dock_solv.prm

>  <Rbt.Receptor>
prm/pocket_docking_6.prm

>  <SCORE>
-24.5328

>  <SCORE.INTER>
-24.3037

>  <SCORE.INTER.CONST>
1

>  <SCORE.INTER.POLAR>
0

>  <SCORE.INTER.ROT>
2

>  <SCORE.INTER.SOLV>
34.9846

>  <SCORE.INTER.VDW>
-32.7973

>  <SCORE.INTER.norm>
-0.540083

>  <SCORE.INTRA>
-0.229075

>  <SCORE.INTRA.DIHEDRAL>
0.0957756

>  <SCORE.INTRA.DIHEDRAL.0>
2.39103

>  <SCORE.INTRA.POLAR>
0

>  <SCORE.INTRA.POLAR.0>
0

>  <SCORE.INTRA.REPUL>
0

>  <SCORE.INTRA.REPUL.0>
0

>  <SCORE.INTRA.SOLV>
0.0140633

>  <SCORE.INTRA.SOLV.lig_0>
-163.975

>  <SCORE.INTRA.VDW>
-0.283995

>  <SCORE.INTRA.VDW.0>
-1.49176

>  <SCORE.INTRA.norm>
-0.00509056

>  <SCORE.RESTR>
0

>  <SCORE.RESTR.CAVITY>
0

>  <SCORE.RESTR.norm>
0

>  <SCORE.SYSTEM>
0

>  <SCORE.SYSTEM.CONST>
0

>  <SCORE.SYSTEM.DIHEDRAL>
0

>  <SCORE.SYSTEM.SOLV>
0

>  <SCORE.SYSTEM.norm>
0

>  <SCORE.heavy>
45

>  <SCORE.norm>
-0.545173

>  <RMSD>
7.061

$$$$
ligand
 OpenBabel11021811513D
libRbt.so/2013.1/901 2013/11/27
 45 51  0  0  0  0  0  0  0  0999 V2000
   97.4670   10.1799   97.9987 C   0  0  0  0  0  0  0  0  0  0  0  0
   99.3326   11.8951   94.2690 C   0  0  0  0  0  0  0  0  0  0  0  0
   92.5455    8.6955   95.5537 N   0  0  0  0  0  0  0  0  0  0  0  0
   96.4633   10.6055   98.6949 N   0  0  0  0  0  0  0  0  0  0  0  0
   94.7850    9.0611   96.1082 N   0  0  0  0  0  0  0  0  0  0  0  0
   93.1017    9.8896   97.4851 N   0  0  0  0  0  0  0  0  0  0  0  0
   93.6361   11.0671   99.5105 O   0  0  0  0  0  0  0  0  0  0  0  0
  100.0735   14.6704   95.4209 O   0  5  0  0  0  0  0  0  0  0  0  0
   96.6481    9.9667   90.4977 O   0  5  0  0  0  0  0  0  0  0  0  0
   97.5532    7.8614   94.0174 O   0  0  0  0  0  0  0  0  0  0  0  0
   97.9608   14.7793   96.1123 O   0  5  0  0  0  0  0  0  0  0  0  0
   95.3849    9.4745   92.2748 O   0  5  0  0  0  0  0  0  0  0  0  0
   98.9573   12.5989   95.3845 O   0  0  0  0  0  0  0  0  0  0  0  0
   99.1370    9.8596   95.7885 O   0  0  0  0  0  0  0  0  0  0  0  0
   97.8646   10.0059   92.5358 O   0  0  0  0  0  0  0  0  0  0  0  0
   93.5308    9.2541   96.4230 C   0  0  0  0  0  0  0  0  0  0  0  0
   93.9812   10.3895   98.3426 C   0  0  0  0  0  0  0  0  0  0  0  0
   95.3576   10.2385   98.0598 C   0  0  0  0  0  0  0  0  0  0  0  0
   95.7386    9.5538   96.9322 C   0  0  0  0  0  0  0  0  0  0  0  0
   97.3324    8.9821   94.7889 C   0  0  2  0  0  0  0  0  0  0  0  0
   99.0112   10.4589   94.3773 C   0  0  1  0  0  0  0  0  0  0  0  0
   97.8622   10.2500   93.9375 C   0  0  1  0  0  0  0  0  0  0  0  0
   97.9164    9.0020   95.9726 C   0  0  2  0  0  0  0  0  0  0  0  0
   97.0721    9.5665   96.9448 N   0  0  0  0  0  0  0  0  0  0  0  0
   98.8002   14.1348   95.1641 P   0  0  2  0  0  0  0  0  0  0  0  0
   96.5077   10.2772   91.8554 P   0  0  1  0  0  0  0  0  0  0  0  0
   97.2432   12.7693   91.5896 C   0  0  0  0  0  0  0  0  0  0  0  0
   96.2174   11.8126   91.9001 O   0  0  0  0  0  0  0  0  0  0  0  0
   96.9698   14.1406   92.0446 C   0  0  1  0  0  0  0  0  0  0  0  0
   95.4323   14.4749   91.7171 O   0  0  0  0  0  0  0  0  0  0  0  0
   97.0707   14.2081   93.2956 C   0  0  1  0  0  0  0  0  0  0  0  0
   98.4228   14.4948   93.7213 O   0  0  0  0  0  0  0  0  0  0  0  0
   96.0513   15.2656   93.6911 C   0  0  1  0  0  0  0  0  0  0  0  0
   96.5522   16.4179   93.5771 O   0  0  0  0  0  0  0  0  0  0  0  0
   94.9285   15.1136   92.6648 C   0  0  2  0  0  0  0  0  0  0  0  0
   92.5476   12.4277   96.3460 N   0  0  0  0  0  0  0  0  0  0  0  0
   93.8872   12.5944   96.1895 C   0  0  0  0  0  0  0  0  0  0  0  0
   94.2959   13.3384   95.1688 N   0  0  0  0  0  0  0  0  0  0  0  0
   93.4738   13.8828   94.2464 C   0  0  0  0  0  0  0  0  0  0  0  0
   92.0764   13.7318   94.3752 C   0  0  0  0  0  0  0  0  0  0  0  0
   91.6453   12.9461   95.4914 C   0  0  0  0  0  0  0  0  0  0  0  0
   90.2507   12.7210   95.6874 N   0  0  0  0  0  0  0  0  0  0  0  0
   91.5452   14.3798   93.3986 N   0  0  0  0  0  0  0  0  0  0  0  0
   92.5061   14.9412   92.6855 C   0  0  0  0  0  0  0  0  0  0  0  0
   93.6632   14.6434   93.1585 N   0  0  0  0  0  0  0  0  0  0  0  0
  1 24  1  0  0  0  0
  1  4  2  0  0  0  0
  2 13  1  0  0  0  0
  2 21  1  0  0  0  0
  3 16  1  0  0  0  0
  4 18  1  0  0  0  0
  5 19  2  0  0  0  0
  5 16  1  0  0  0  0
  6 16  2  0  0  0  0
  6 17  1  0  0  0  0
  7 17  1  0  0  0  0
 11 25  2  0  0  0  0
 12 26  2  0  0  0  0
 13 25  1  0  0  0  0
 14 23  1  0  0  0  0
 15 26  1  0  0  0  0
 17 18  2  0  0  0  0
 18 19  1  0  0  0  0
 19 24  1  0  0  0  0
 20 10  1  6  0  0  0
 20 22  1  0  0  0  0
 20 23  1  0  0  0  0
 21 14  1  1  0  0  0
 21 22  1  0  0  0  0
 22 15  1  6  0  0  0
 23 24  1  1  0  0  0
 25  8  1  1  0  0  0
 25 32  1  0  0  0  0
 26  9  1  6  0  0  0
 26 28  1  0  0  0  0
 27 28  1  0  0  0  0
 29 27  1  1  0  0  0
 29 30  1  0  0  0  0
 29 31  1  0  0  0  0
 30 35  1  0  0  0  0
 31 33  1  0  0  0  0
 31 32  1  6  0  0  0
 33 34  1  6  0  0  0
 33 35  1  0  0  0  0
 35 45  1  1  0  0  0
 36 41  2  0  0  0  0
 36 37  1  0  0  0  0
 37 38  2  0  0  0  0
 38 39  1  0  0  0  0
 39 40  2  0  0  0  0
 39 45  1  0  0  0  0
 40 41  1  0  0  0  0
 40 43  1  0  0  0  0
 41 42  1  0  0  0  0
 43 44  2  0  0  0  0
 44 45  1  0  0  0  0
M  CHG  4   8  -1   9  -1  11  -1  12  -1
M  END
>  <CHROM.1>
-36.14047769,99.44554147,95.94333739,11.95683334,94.66411933,-2.23792119
0.29539094,-0.63146243

>  <Name>
ligand

>  <RI>
0

>  <Rbt.Current_Directory>
/home/itssahil/PROJECTS/Mol_Feturizer/New_Systems/rnas/4YAZ

>  <Rbt.Executable>
rbdock ($Id: //depot/dev/client3/rdock/2013.1/src/exe/rbdock.cxx#4 $)

>  <Rbt.Library>
libRbt.so (2013.1, Build901 2013/11/27)

>  <Rbt.Parameter_File>
/export/apps/rDock/src/rDock_2013.1_src/data/scripts/dock_solv.prm

>  <Rbt.Receptor>
prm/pocket_docking_6.prm

>  <SCORE>
-16.1517

>  <SCORE.INTER>
-14.9036

>  <SCORE.INTER.CONST>
1

>  <SCORE.INTER.POLAR>
0

>  <SCORE.INTER.ROT>
2

>  <SCORE.INTER.SOLV>
28.3597

>  <SCORE.INTER.VDW>
-24.3223

>  <SCORE.INTER.norm>
-0.331191

>  <SCORE.INTRA>
-1.2481

>  <SCORE.INTRA.DIHEDRAL>
0.130944

>  <SCORE.INTRA.DIHEDRAL.0>
2.39103

>  <SCORE.INTRA.POLAR>
0

>  <SCORE.INTRA.POLAR.0>
0

>  <SCORE.INTRA.REPUL>
0

>  <SCORE.INTRA.REPUL.0>
0

>  <SCORE.INTRA.SOLV>
0.621963

>  <SCORE.INTRA.SOLV.lig_0>
-163.975

>  <SCORE.INTRA.VDW>
-1.62455

>  <SCORE.INTRA.VDW.0>
-1.49176

>  <SCORE.INTRA.norm>
-0.0277356

>  <SCORE.RESTR>
0

>  <SCORE.RESTR.CAVITY>
0

>  <SCORE.RESTR.norm>
0

>  <SCORE.SYSTEM>
0

>  <SCORE.SYSTEM.CONST>
0

>  <SCORE.SYSTEM.DIHEDRAL>
0

>  <SCORE.SYSTEM.SOLV>
0

>  <SCORE.SYSTEM.norm>
0

>  <SCORE.heavy>
45

>  <SCORE.norm>
-0.358927

>  <RMSD>
7.076

$$$$
ligand
 OpenBabel11021811513D
libRbt.so/2013.1/901 2013/11/27
 45 51  0  0  0  0  0  0  0  0999 V2000
   94.9351   10.3536   96.9075 C   0  0  0  0  0  0  0  0  0  0  0  0
   91.6324   11.3264   95.0110 C   0  0  0  0  0  0  0  0  0  0  0  0
   96.6216   10.6541  102.3360 N   0  0  0  0  0  0  0  0  0  0  0  0
   95.9843    9.6224   97.1021 N   0  0  0  0  0  0  0  0  0  0  0  0
   95.5479   10.8987  100.2759 N   0  0  0  0  0  0  0  0  0  0  0  0
   97.4212    9.5288  100.4492 N   0  0  0  0  0  0  0  0  0  0  0  0
   98.2338    8.3081   98.5456 O   0  0  0  0  0  0  0  0  0  0  0  0
   91.2469    8.7306   93.3706 O   0  5  0  0  0  0  0  0  0  0  0  0
   93.1091   16.0642   94.2896 O   0  5  0  0  0  0  0  0  0  0  0  0
   93.2798   14.1197   98.0084 O   0  0  0  0  0  0  0  0  0  0  0  0
   93.4689    8.6287   93.2939 O   0  5  0  0  0  0  0  0  0  0  0  0
   94.8380   15.1975   95.4102 O   0  5  0  0  0  0  0  0  0  0  0  0
   92.3136   10.1393   94.9250 O   0  0  0  0  0  0  0  0  0  0  0  0
   92.2722   11.2320   97.4752 O   0  0  0  0  0  0  0  0  0  0  0  0
   92.5399   14.0968   95.4899 O   0  0  0  0  0  0  0  0  0  0  0  0
   96.5309   10.3530  100.9432 C   0  0  0  0  0  0  0  0  0  0  0  0
   97.3515    9.1882   99.1694 C   0  0  0  0  0  0  0  0  0  0  0  0
   96.3270    9.7537   98.3772 C   0  0  0  0  0  0  0  0  0  0  0  0
   95.4214   10.6050   98.9610 C   0  0  0  0  0  0  0  0  0  0  0  0
   93.7109   12.9505   97.4192 C   0  0  2  0  0  0  0  0  0  0  0  0
   91.9781   12.0846   96.2289 C   0  0  1  0  0  0  0  0  0  0  0  0
   92.9498   12.8327   95.9979 C   0  0  1  0  0  0  0  0  0  0  0  0
   93.4974   11.8393   98.0992 C   0  0  2  0  0  0  0  0  0  0  0  0
   94.5860   10.9570   97.9830 N   0  0  0  0  0  0  0  0  0  0  0  0
   92.3924    9.5354   93.4892 P   0  0  2  0  0  0  0  0  0  0  0  0
   93.6380   14.8339   94.6971 P   0  0  1  0  0  0  0  0  0  0  0  0
   92.8454   13.5379   92.5724 C   0  0  0  0  0  0  0  0  0  0  0  0
   93.9216   14.0483   93.3756 O   0  0  0  0  0  0  0  0  0  0  0  0
   93.2332   12.5038   91.6015 C   0  0  1  0  0  0  0  0  0  0  0  0
   94.6068   12.9657   90.9066 O   0  0  0  0  0  0  0  0  0  0  0  0
   93.5013   11.4307   92.1985 C   0  0  1  0  0  0  0  0  0  0  0  0
   92.3309   10.6029   92.3890 O   0  0  0  0  0  0  0  0  0  0  0  0
   94.5868   10.7946   91.3436 C   0  0  1  0  0  0  0  0  0  0  0  0
   94.0691   10.1489   90.3913 O   0  0  0  0  0  0  0  0  0  0  0  0
   95.3621   11.9805   90.7695 C   0  0  2  0  0  0  0  0  0  0  0  0
   98.4908   12.1396   94.8462 N   0  0  0  0  0  0  0  0  0  0  0  0
   97.1368   12.0246   94.8564 C   0  0  0  0  0  0  0  0  0  0  0  0
   96.5166   11.9944   93.6830 N   0  0  0  0  0  0  0  0  0  0  0  0
   97.1355   12.1340   92.4912 C   0  0  0  0  0  0  0  0  0  0  0  0
   98.5407   12.2555   92.4398 C   0  0  0  0  0  0  0  0  0  0  0  0
   99.2017   12.2651   93.7095 C   0  0  0  0  0  0  0  0  0  0  0  0
  100.6200   12.4072   93.7552 N   0  0  0  0  0  0  0  0  0  0  0  0
   98.8582   12.3272   91.1949 N   0  0  0  0  0  0  0  0  0  0  0  0
   97.7583   12.2366   90.4676 C   0  0  0  0  0  0  0  0  0  0  0  0
   96.7186   12.1412   91.2168 N   0  0  0  0  0  0  0  0  0  0  0  0
  1 24  1  0  0  0  0
  1  4  2  0  0  0  0
  2 13  1  0  0  0  0
  2 21  1  0  0  0  0
  3 16  1  0  0  0  0
  4 18  1  0  0  0  0
  5 19  2  0  0  0  0
  5 16  1  0  0  0  0
  6 16  2  0  0  0  0
  6 17  1  0  0  0  0
  7 17  1  0  0  0  0
 11 25  2  0  0  0  0
 12 26  2  0  0  0  0
 13 25  1  0  0  0  0
 14 23  1  0  0  0  0
 15 26  1  0  0  0  0
 17 18  2  0  0  0  0
 18 19  1  0  0  0  0
 19 24  1  0  0  0  0
 20 10  1  1  0  0  0
 20 22  1  0  0  0  0
 20 23  1  0  0  0  0
 21 14  1  1  0  0  0
 21 22  1  0  0  0  0
 22 15  1  1  0  0  0
 23 24  1  6  0  0  0
 25  8  1  6  0  0  0
 25 32  1  0  0  0  0
 26  9  1  6  0  0  0
 26 28  1  0  0  0  0
 27 28  1  0  0  0  0
 29 27  1  1  0  0  0
 29 30  1  0  0  0  0
 29 31  1  0  0  0  0
 30 35  1  0  0  0  0
 31 33  1  0  0  0  0
 31 32  1  6  0  0  0
 33 34  1  6  0  0  0
 33 35  1  0  0  0  0
 35 45  1  1  0  0  0
 36 41  2  0  0  0  0
 36 37  1  0  0  0  0
 37 38  2  0  0  0  0
 38 39  1  0  0  0  0
 39 40  2  0  0  0  0
 39 45  1  0  0  0  0
 40 41  1  0  0  0  0
 40 43  1  0  0  0  0
 41 42  1  0  0  0  0
 43 44  2  0  0  0  0
 44 45  1  0  0  0  0
M  CHG  4   8  -1   9  -1  11  -1  12  -1
M  END
>  <CHROM.1>
47.97798696,75.90163943,94.84490291,11.68714763,94.98964411,1.40432419,-0.10509024
1.76421536

>  <Name>
ligand

>  <RI>
0

>  <Rbt.Current_Directory>
/home/itssahil/PROJECTS/Mol_Feturizer/New_Systems/rnas/4YAZ

>  <Rbt.Executable>
rbdock ($Id: //depot/dev/client3/rdock/2013.1/src/exe/rbdock.cxx#4 $)

>  <Rbt.Library>
libRbt.so (2013.1, Build901 2013/11/27)

>  <Rbt.Parameter_File>
/export/apps/rDock/src/rDock_2013.1_src/data/scripts/dock_solv.prm

>  <Rbt.Receptor>
prm/pocket_docking_7.prm

>  <SCORE>
-22.7162

>  <SCORE.INTER>
-20.6465

>  <SCORE.INTER.CONST>
1

>  <SCORE.INTER.POLAR>
0

>  <SCORE.INTER.ROT>
2

>  <SCORE.INTER.SOLV>
29.3334

>  <SCORE.INTER.VDW>
-28.4755

>  <SCORE.INTER.norm>
-0.458811

>  <SCORE.INTRA>
-2.06974

>  <SCORE.INTRA.DIHEDRAL>
0.101827

>  <SCORE.INTRA.DIHEDRAL.0>
2.39103

>  <SCORE.INTRA.POLAR>
0

>  <SCORE.INTRA.POLAR.0>
0

>  <SCORE.INTRA.REPUL>
0

>  <SCORE.INTRA.REPUL.0>
0

>  <SCORE.INTRA.SOLV>
0.114616

>  <SCORE.INTRA.SOLV.lig_0>
-163.975

>  <SCORE.INTRA.VDW>
-2.17796

>  <SCORE.INTRA.VDW.0>
-1.49176

>  <SCORE.INTRA.norm>
-0.0459941

>  <SCORE.RESTR>
0

>  <SCORE.RESTR.CAVITY>
0

>  <SCORE.RESTR.norm>
0

>  <SCORE.SYSTEM>
0

>  <SCORE.SYSTEM.CONST>
0

>  <SCORE.SYSTEM.DIHEDRAL>
0

>  <SCORE.SYSTEM.SOLV>
0

>  <SCORE.SYSTEM.norm>
0

>  <SCORE.heavy>
45

>  <SCORE.norm>
-0.504805

>  <RMSD>
7.096

$$$$
ligand
 OpenBabel11021811513D
libRbt.so/2013.1/901 2013/11/27
 45 51  0  0  0  0  0  0  0  0999 V2000
   95.3960    9.4927   96.6612 C   0  0  0  0  0  0  0  0  0  0  0  0
   99.1543   11.4009   94.9236 C   0  0  0  0  0  0  0  0  0  0  0  0
   97.2260   10.1995  102.0049 N   0  0  0  0  0  0  0  0  0  0  0  0
   94.4660   10.0056   97.3995 N   0  0  0  0  0  0  0  0  0  0  0  0
   96.9790    9.6860   99.7395 N   0  0  0  0  0  0  0  0  0  0  0  0
   95.2006   10.6192  100.9153 N   0  0  0  0  0  0  0  0  0  0  0  0
   93.1251   11.1221   99.8135 O   0  0  0  0  0  0  0  0  0  0  0  0
   99.1137   14.4458   95.4752 O   0  5  0  0  0  0  0  0  0  0  0  0
   98.1295    8.2286   91.1773 O   0  5  0  0  0  0  0  0  0  0  0  0
   98.0878    7.1266   95.2300 O   0  0  0  0  0  0  0  0  0  0  0  0
   96.8956   14.2633   95.4749 O   0  5  0  0  0  0  0  0  0  0  0  0
   96.4259    7.8683   92.5789 O   0  5  0  0  0  0  0  0  0  0  0  0
   98.3461   12.2288   95.6598 O   0  0  0  0  0  0  0  0  0  0  0  0
   98.7316    9.7277   96.7978 O   0  0  0  0  0  0  0  0  0  0  0  0
   98.5923    8.9355   93.3958 O   0  0  0  0  0  0  0  0  0  0  0  0
   96.4226   10.1559  100.8253 C   0  0  0  0  0  0  0  0  0  0  0  0
   94.4313   10.6366   99.8351 C   0  0  0  0  0  0  0  0  0  0  0  0
   94.9563   10.1258   98.6266 C   0  0  0  0  0  0  0  0  0  0  0  0
   96.2488    9.6627   98.6004 C   0  0  0  0  0  0  0  0  0  0  0  0
   97.4841    8.3138   95.5851 C   0  0  2  0  0  0  0  0  0  0  0  0
   99.0015    9.9835   95.3050 C   0  0  1  0  0  0  0  0  0  0  0  0
   98.0978    9.4587   94.6229 C   0  0  1  0  0  0  0  0  0  0  0  0
   97.6387    8.6967   96.8389 C   0  0  2  0  0  0  0  0  0  0  0  0
   96.4567    9.2663   97.3442 N   0  0  0  0  0  0  0  0  0  0  0  0
   98.0753   13.6210   95.0111 P   0  0  2  0  0  0  0  0  0  0  0  0
   97.5118    8.7781   92.3069 P   0  0  1  0  0  0  0  0  0  0  0  0
   97.9688   11.2576   91.6246 C   0  0  0  0  0  0  0  0  0  0  0  0
   97.0292   10.1976   91.8642 O   0  0  0  0  0  0  0  0  0  0  0  0
   97.3880   12.6084   91.6076 C   0  0  1  0  0  0  0  0  0  0  0  0
   96.0144   12.5476   90.7755 O   0  0  0  0  0  0  0  0  0  0  0  0
   97.0623   12.9524   92.7718 C   0  0  1  0  0  0  0  0  0  0  0  0
   98.1507   13.5901   93.4791 O   0  0  0  0  0  0  0  0  0  0  0  0
   95.8432   13.8388   92.5668 C   0  0  1  0  0  0  0  0  0  0  0  0
   96.2021   15.0198   92.3058 O   0  0  0  0  0  0  0  0  0  0  0  0
   95.1497   13.2525   91.3370 C   0  0  2  0  0  0  0  0  0  0  0  0
   92.5022    9.7535   94.0169 N   0  0  0  0  0  0  0  0  0  0  0  0
   93.8390    9.9910   94.0755 C   0  0  0  0  0  0  0  0  0  0  0  0
   94.3239   10.9529   93.2996 N   0  0  0  0  0  0  0  0  0  0  0  0
   93.5887   11.6611   92.4158 C   0  0  0  0  0  0  0  0  0  0  0  0
   92.1972   11.4431   92.3261 C   0  0  0  0  0  0  0  0  0  0  0  0
   91.6810   10.4189   93.1827 C   0  0  0  0  0  0  0  0  0  0  0  0
   90.2883   10.1141   93.1427 N   0  0  0  0  0  0  0  0  0  0  0  0
   91.7508   12.2730   91.4498 N   0  0  0  0  0  0  0  0  0  0  0  0
   92.7565   13.0061   91.0046 C   0  0  0  0  0  0  0  0  0  0  0  0
   93.8635   12.6471   91.5496 N   0  0  0  0  0  0  0  0  0  0  0  0
  1 24  1  0  0  0  0
  1  4  2  0  0  0  0
  2 13  1  0  0  0  0
  2 21  1  0  0  0  0
  3 16  1  0  0  0  0
  4 18  1  0  0  0  0
  5 19  2  0  0  0  0
  5 16  1  0  0  0  0
  6 16  2  0  0  0  0
  6 17  1  0  0  0  0
  7 17  1  0  0  0  0
 11 25  2  0  0  0  0
 12 26  2  0  0  0  0
 13 25  1  0  0  0  0
 14 23  1  0  0  0  0
 15 26  1  0  0  0  0
 17 18  2  0  0  0  0
 18 19  1  0  0  0  0
 19 24  1  0  0  0  0
 20 10  1  1  0  0  0
 20 22  1  0  0  0  0
 20 23  1  0  0  0  0
 21 14  1  1  0  0  0
 21 22  1  0  0  0  0
 22 15  1  6  0  0  0
 23 24  1  6  0  0  0
 25  8  1  1  0  0  0
 25 32  1  0  0  0  0
 26  9  1  6  0  0  0
 26 28  1  0  0  0  0
 27 28  1  0  0  0  0
 29 27  1  1  0  0  0
 29 30  1  0  0  0  0
 29 31  1  0  0  0  0
 30 35  1  0  0  0  0
 31 33  1  0  0  0  0
 31 32  1  6  0  0  0
 33 34  1  6  0  0  0
 33 35  1  0  0  0  0
 35 45  1  1  0  0  0
 36 41  2  0  0  0  0
 36 37  1  0  0  0  0
 37 38  2  0  0  0  0
 38 39  1  0  0  0  0
 39 40  2  0  0  0  0
 39 45  1  0  0  0  0
 40 41  1  0  0  0  0
 40 43  1  0  0  0  0
 41 42  1  0  0  0  0
 43 44  2  0  0  0  0
 44 45  1  0  0  0  0
M  CHG  4   8  -1   9  -1  11  -1  12  -1
M  END
>  <CHROM.1>
110.45616169,70.03495862,96.17965589,10.95336503,94.71902437,1.41760127,-0.05284467
1.81183508

>  <Name>
ligand

>  <RI>
0

>  <Rbt.Current_Directory>
/home/itssahil/PROJECTS/Mol_Feturizer/New_Systems/rnas/4YAZ

>  <Rbt.Executable>
rbdock ($Id: //depot/dev/client3/rdock/2013.1/src/exe/rbdock.cxx#4 $)

>  <Rbt.Library>
libRbt.so (2013.1, Build901 2013/11/27)

>  <Rbt.Parameter_File>
/export/apps/rDock/src/rDock_2013.1_src/data/scripts/dock_solv.prm

>  <Rbt.Receptor>
prm/pocket_docking_7.prm

>  <SCORE>
-15.4347

>  <SCORE.INTER>
-15.2339

>  <SCORE.INTER.CONST>
1

>  <SCORE.INTER.POLAR>
0

>  <SCORE.INTER.ROT>
2

>  <SCORE.INTER.SOLV>
25.3814

>  <SCORE.INTER.VDW>
-23.5497

>  <SCORE.INTER.norm>
-0.338531

>  <SCORE.INTRA>
-0.200803

>  <SCORE.INTRA.DIHEDRAL>
0.0606229

>  <SCORE.INTRA.DIHEDRAL.0>
2.39103

>  <SCORE.INTRA.POLAR>
0

>  <SCORE.INTRA.POLAR.0>
0

>  <SCORE.INTRA.REPUL>
0

>  <SCORE.INTRA.REPUL.0>
0

>  <SCORE.INTRA.SOLV>
0.499675

>  <SCORE.INTRA.SOLV.lig_0>
-163.975

>  <SCORE.INTRA.VDW>
-0.480952

>  <SCORE.INTRA.VDW.0>
-1.49176

>  <SCORE.INTRA.norm>
-0.00446229

>  <SCORE.RESTR>
0

>  <SCORE.RESTR.CAVITY>
0

>  <SCORE.RESTR.norm>
0

>  <SCORE.SYSTEM>
0

>  <SCORE.SYSTEM.CONST>
0

>  <SCORE.SYSTEM.DIHEDRAL>
0

>  <SCORE.SYSTEM.SOLV>
0

>  <SCORE.SYSTEM.norm>
0

>  <SCORE.heavy>
45

>  <SCORE.norm>
-0.342993

>  <RMSD>
7.164

$$$$
ligand
 OpenBabel11021811513D
libRbt.so/2013.1/901 2013/11/27
 45 51  0  0  0  0  0  0  0  0999 V2000
   97.7121    9.8373   97.9747 C   0  0  0  0  0  0  0  0  0  0  0  0
   98.3398   11.6962   93.7876 C   0  0  0  0  0  0  0  0  0  0  0  0
   92.0889   10.4790   97.3662 N   0  0  0  0  0  0  0  0  0  0  0  0
   97.2028   10.4191   99.0117 N   0  0  0  0  0  0  0  0  0  0  0  0
   94.3609   10.0046   97.1027 N   0  0  0  0  0  0  0  0  0  0  0  0
   93.6138   11.0472   99.0446 N   0  0  0  0  0  0  0  0  0  0  0  0
   95.1431   11.5892  100.8171 O   0  0  0  0  0  0  0  0  0  0  0  0
  100.1213   14.0911   94.6054 O   0  5  0  0  0  0  0  0  0  0  0  0
   94.0143   10.8517   91.3951 O   0  5  0  0  0  0  0  0  0  0  0  0
   95.6828    8.1914   94.1841 O   0  0  0  0  0  0  0  0  0  0  0  0
   98.5422   14.5599   96.1021 O   0  5  0  0  0  0  0  0  0  0  0  0
   93.4679   10.4261   93.5202 O   0  5  0  0  0  0  0  0  0  0  0  0
   98.6133   12.3228   94.9764 O   0  0  0  0  0  0  0  0  0  0  0  0
   98.2662    9.5792   95.2031 O   0  0  0  0  0  0  0  0  0  0  0  0
   95.9005   10.3850   92.7587 O   0  0  0  0  0  0  0  0  0  0  0  0
   93.4282   10.5216   97.8591 C   0  0  0  0  0  0  0  0  0  0  0  0
   94.8354   11.0711   99.5605 C   0  0  0  0  0  0  0  0  0  0  0  0
   95.9005   10.5483   98.7930 C   0  0  0  0  0  0  0  0  0  0  0  0
   95.6344   10.0045   97.5605 C   0  0  0  0  0  0  0  0  0  0  0  0
   96.0602    9.2314   95.0062 C   0  0  2  0  0  0  0  0  0  0  0  0
   97.7483   10.3582   93.9818 C   0  0  1  0  0  0  0  0  0  0  0  0
   96.5055   10.4521   94.0447 C   0  0  1  0  0  0  0  0  0  0  0  0
   97.0462    8.9835   95.8482 C   0  0  2  0  0  0  0  0  0  0  0  0
   96.8136    9.5916   97.0943 N   0  0  0  0  0  0  0  0  0  0  0  0
   98.7604   13.8723   94.8779 P   0  0  2  0  0  0  0  0  0  0  0  0
   94.4956   11.0178   92.6989 P   0  0  1  0  0  0  0  0  0  0  0  0
   95.6495   13.3112   92.2183 C   0  0  0  0  0  0  0  0  0  0  0  0
   94.6279   12.5629   92.8967 O   0  0  0  0  0  0  0  0  0  0  0  0
   95.9173   14.6438   92.7794 C   0  0  1  0  0  0  0  0  0  0  0  0
   94.5053   15.3330   93.1171 O   0  0  0  0  0  0  0  0  0  0  0  0
   96.5123   14.5361   93.8813 C   0  0  1  0  0  0  0  0  0  0  0  0
   97.9487   14.4763   93.7246 O   0  0  0  0  0  0  0  0  0  0  0  0
   96.0183   15.7293   94.6851 C   0  0  1  0  0  0  0  0  0  0  0  0
   96.6981   16.7547   94.4052 O   0  0  0  0  0  0  0  0  0  0  0  0
   94.5834   15.9441   94.2035 C   0  0  2  0  0  0  0  0  0  0  0  0
   89.5051   15.6638   94.9557 N   0  0  0  0  0  0  0  0  0  0  0  0
   90.1454   16.0268   93.8133 C   0  0  0  0  0  0  0  0  0  0  0  0
   91.4729   16.0250   93.8293 N   0  0  0  0  0  0  0  0  0  0  0  0
   92.2207   15.7495   94.9192 C   0  0  0  0  0  0  0  0  0  0  0  0
   91.5918   15.3684   96.1239 C   0  0  0  0  0  0  0  0  0  0  0  0
   90.1608   15.3524   96.0898 C   0  0  0  0  0  0  0  0  0  0  0  0
   89.4399   15.0014   97.2692 N   0  0  0  0  0  0  0  0  0  0  0  0
   92.5318   15.1257   96.9685 N   0  0  0  0  0  0  0  0  0  0  0  0
   93.6980   15.3052   96.3729 C   0  0  0  0  0  0  0  0  0  0  0  0
   93.5388   15.6960   95.1591 N   0  0  0  0  0  0  0  0  0  0  0  0
  1 24  1  0  0  0  0
  1  4  2  0  0  0  0
  2 13  1  0  0  0  0
  2 21  1  0  0  0  0
  3 16  1  0  0  0  0
  4 18  1  0  0  0  0
  5 19  2  0  0  0  0
  5 16  1  0  0  0  0
  6 16  2  0  0  0  0
  6 17  1  0  0  0  0
  7 17  1  0  0  0  0
 11 25  2  0  0  0  0
 12 26  2  0  0  0  0
 13 25  1  0  0  0  0
 14 23  1  0  0  0  0
 15 26  1  0  0  0  0
 17 18  2  0  0  0  0
 18 19  1  0  0  0  0
 19 24  1  0  0  0  0
 20 10  1  6  0  0  0
 20 22  1  0  0  0  0
 20 23  1  0  0  0  0
 21 14  1  1  0  0  0
 21 22  1  0  0  0  0
 22 15  1  6  0  0  0
 23 24  1  1  0  0  0
 25  8  1  6  0  0  0
 25 32  1  0  0  0  0
 26  9  1  6  0  0  0
 26 28  1  0  0  0  0
 27 28  1  0  0  0  0
 29 27  1  1  0  0  0
 29 30  1  0  0  0  0
 29 31  1  0  0  0  0
 30 35  1  0  0  0  0
 31 33  1  0  0  0  0
 31 32  1  6  0  0  0
 33 34  1  6  0  0  0
 33 35  1  0  0  0  0
 35 45  1  1  0  0  0
 36 41  2  0  0  0  0
 36 37  1  0  0  0  0
 37 38  2  0  0  0  0
 38 39  1  0  0  0  0
 39 40  2  0  0  0  0
 39 45  1  0  0  0  0
 40 41  1  0  0  0  0
 40 43  1  0  0  0  0
 41 42  1  0  0  0  0
 43 44  2  0  0  0  0
 44 45  1  0  0  0  0
M  CHG  4   8  -1   9  -1  11  -1  12  -1
M  END
>  <CHROM.1>
-44.50038165,-50.30587611,95.21166581,12.63185757,95.23863476,0.60222383
-0.43974713,2.44423402

>  <Name>
ligand

>  <RI>
0

>  <Rbt.Current_Directory>
/home/itssahil/PROJECTS/Mol_Feturizer/New_Systems/rnas/4YAZ

>  <Rbt.Executable>
rbdock ($Id: //depot/dev/client3/rdock/2013.1/src/exe/rbdock.cxx#4 $)

>  <Rbt.Library>
libRbt.so (2013.1, Build901 2013/11/27)

>  <Rbt.Parameter_File>
/export/apps/rDock/src/rDock_2013.1_src/data/scripts/dock_solv.prm

>  <Rbt.Receptor>
prm/pocket_docking_4.prm

>  <SCORE>
-13.7867

>  <SCORE.INTER>
-15.2076

>  <SCORE.INTER.CONST>
1

>  <SCORE.INTER.POLAR>
0

>  <SCORE.INTER.ROT>
2

>  <SCORE.INTER.SOLV>
30.0435

>  <SCORE.INTER.VDW>
-25.0862

>  <SCORE.INTER.norm>
-0.337946

>  <SCORE.INTRA>
1.4159

>  <SCORE.INTRA.DIHEDRAL>
0.0569917

>  <SCORE.INTRA.DIHEDRAL.0>
2.39103

>  <SCORE.INTRA.POLAR>
0

>  <SCORE.INTRA.POLAR.0>
0

>  <SCORE.INTRA.REPUL>
0

>  <SCORE.INTRA.REPUL.0>
0

>  <SCORE.INTRA.SOLV>
1.00631

>  <SCORE.INTRA.SOLV.lig_0>
-163.975

>  <SCORE.INTRA.VDW>
0.884247

>  <SCORE.INTRA.VDW.0>
-1.49176

>  <SCORE.INTRA.norm>
0.0314644

>  <SCORE.RESTR>
0.00494592

>  <SCORE.RESTR.CAVITY>
0.00494592

>  <SCORE.RESTR.norm>
0.000109909

>  <SCORE.SYSTEM>
0

>  <SCORE.SYSTEM.CONST>
0

>  <SCORE.SYSTEM.DIHEDRAL>
0

>  <SCORE.SYSTEM.SOLV>
0

>  <SCORE.SYSTEM.norm>
0

>  <SCORE.heavy>
45

>  <SCORE.norm>
-0.306371

>  <RMSD>
7.174

$$$$
ligand
 OpenBabel11021811513D
libRbt.so/2013.1/901 2013/11/27
 45 51  0  0  0  0  0  0  0  0999 V2000
   95.3715   11.0564   97.3088 C   0  0  0  0  0  0  0  0  0  0  0  0
   92.9447   10.5911   94.1812 C   0  0  0  0  0  0  0  0  0  0  0  0
   94.1589   10.8861  102.8680 N   0  0  0  0  0  0  0  0  0  0  0  0
   96.4094   10.6989   97.9931 N   0  0  0  0  0  0  0  0  0  0  0  0
   94.1319   11.1355  100.5456 N   0  0  0  0  0  0  0  0  0  0  0  0
   96.0886   10.4704  101.6154 N   0  0  0  0  0  0  0  0  0  0  0  0
   98.0733    9.9740  100.3548 O   0  0  0  0  0  0  0  0  0  0  0  0
   94.1536    8.0469   92.8994 O   0  5  0  0  0  0  0  0  0  0  0  0
   92.9048   15.5478   93.4209 O   0  5  0  0  0  0  0  0  0  0  0  0
   92.1910   13.7660   97.1567 O   0  0  0  0  0  0  0  0  0  0  0  0
   96.1077    8.7598   93.6910 O   0  5  0  0  0  0  0  0  0  0  0  0
   94.2097   15.3587   95.2258 O   0  5  0  0  0  0  0  0  0  0  0  0
   93.9566    9.7334   94.5289 O   0  0  0  0  0  0  0  0  0  0  0  0
   92.5192   10.7143   96.6901 O   0  0  0  0  0  0  0  0  0  0  0  0
   92.5928   13.4977   94.5764 O   0  0  0  0  0  0  0  0  0  0  0  0
   94.8315   10.8384  101.6094 C   0  0  0  0  0  0  0  0  0  0  0  0
   96.7423   10.3721  100.4657 C   0  0  0  0  0  0  0  0  0  0  0  0
   96.0581   10.6969   99.2726 C   0  0  0  0  0  0  0  0  0  0  0  0
   94.7376   11.0679   99.3373 C   0  0  0  0  0  0  0  0  0  0  0  0
   93.1887   12.8385   96.9466 C   0  0  2  0  0  0  0  0  0  0  0  0
   92.4896   11.4126   95.3196 C   0  0  1  0  0  0  0  0  0  0  0  0
   93.1587   12.4646   95.3742 C   0  0  1  0  0  0  0  0  0  0  0  0
   93.1036   11.7198   97.6423 C   0  0  2  0  0  0  0  0  0  0  0  0
   94.3719   11.2943   98.0750 N   0  0  0  0  0  0  0  0  0  0  0  0
   94.8093    9.2119   93.3317 P   0  0  2  0  0  0  0  0  0  0  0  0
   93.6013   14.5902   94.1675 P   0  0  1  0  0  0  0  0  0  0  0  0
   94.2251   13.1133   92.1055 C   0  0  0  0  0  0  0  0  0  0  0  0
   94.6425   13.9727   93.1783 O   0  0  0  0  0  0  0  0  0  0  0  0
   95.2958   12.2992   91.5113 C   0  0  1  0  0  0  0  0  0  0  0  0
   96.5909   13.2345   91.3354 O   0  0  0  0  0  0  0  0  0  0  0  0
   95.6409   11.3916   92.3095 C   0  0  1  0  0  0  0  0  0  0  0  0
   94.8461   10.1935   92.1533 O   0  0  0  0  0  0  0  0  0  0  0  0
   97.1242   11.2007   92.0315 C   0  0  1  0  0  0  0  0  0  0  0  0
   97.2874   10.4193   91.0545 O   0  0  0  0  0  0  0  0  0  0  0  0
   97.6189   12.5922   91.6363 C   0  0  2  0  0  0  0  0  0  0  0  0
   98.4107   16.6246   94.7261 N   0  0  0  0  0  0  0  0  0  0  0  0
   97.3376   16.4074   93.9210 C   0  0  0  0  0  0  0  0  0  0  0  0
   97.3267   15.2896   93.2048 N   0  0  0  0  0  0  0  0  0  0  0  0
   98.3360   14.3932   93.1774 C   0  0  0  0  0  0  0  0  0  0  0  0
   99.4670   14.5841   93.9998 C   0  0  0  0  0  0  0  0  0  0  0  0
   99.4589   15.7814   94.7844 C   0  0  0  0  0  0  0  0  0  0  0  0
  100.5722   16.0684   95.6284 N   0  0  0  0  0  0  0  0  0  0  0  0
  100.2367   13.5711   93.8072 N   0  0  0  0  0  0  0  0  0  0  0  0
   99.6590   12.7536   92.9441 C   0  0  0  0  0  0  0  0  0  0  0  0
   98.5364   13.2308   92.5398 N   0  0  0  0  0  0  0  0  0  0  0  0
  1 24  1  0  0  0  0
  1  4  2  0  0  0  0
  2 13  1  0  0  0  0
  2 21  1  0  0  0  0
  3 16  1  0  0  0  0
  4 18  1  0  0  0  0
  5 19  2  0  0  0  0
  5 16  1  0  0  0  0
  6 16  2  0  0  0  0
  6 17  1  0  0  0  0
  7 17  1  0  0  0  0
 11 25  2  0  0  0  0
 12 26  2  0  0  0  0
 13 25  1  0  0  0  0
 14 23  1  0  0  0  0
 15 26  1  0  0  0  0
 17 18  2  0  0  0  0
 18 19  1  0  0  0  0
 19 24  1  0  0  0  0
 20 10  1  1  0  0  0
 20 22  1  0  0  0  0
 20 23  1  0  0  0  0
 21 14  1  1  0  0  0
 21 22  1  0  0  0  0
 22 15  1  6  0  0  0
 23 24  1  6  0  0  0
 25  8  1  6  0  0  0
 25 32  1  0  0  0  0
 26  9  1  6  0  0  0
 26 28  1  0  0  0  0
 27 28  1  0  0  0  0
 29 27  1  1  0  0  0
 29 30  1  0  0  0  0
 29 31  1  0  0  0  0
 30 35  1  0  0  0  0
 31 33  1  0  0  0  0
 31 32  1  6  0  0  0
 33 34  1  6  0  0  0
 33 35  1  0  0  0  0
 35 45  1  1  0  0  0
 36 41  2  0  0  0  0
 36 37  1  0  0  0  0
 37 38  2  0  0  0  0
 38 39  1  0  0  0  0
 39 40  2  0  0  0  0
 39 45  1  0  0  0  0
 40 41  1  0  0  0  0
 40 43  1  0  0  0  0
 41 42  1  0  0  0  0
 43 44  2  0  0  0  0
 44 45  1  0  0  0  0
M  CHG  4   8  -1   9  -1  11  -1  12  -1
M  END
>  <CHROM.1>
58.85345343,6.28133920,95.52706167,12.25593634,95.20053331,-1.95471292,-0.69227580
-1.47564243

>  <Name>
ligand

>  <RI>
0

>  <Rbt.Current_Directory>
/home/itssahil/PROJECTS/Mol_Feturizer/New_Systems/rnas/4YAZ

>  <Rbt.Executable>
rbdock ($Id: //depot/dev/client3/rdock/2013.1/src/exe/rbdock.cxx#4 $)

>  <Rbt.Library>
libRbt.so (2013.1, Build901 2013/11/27)

>  <Rbt.Parameter_File>
/export/apps/rDock/src/rDock_2013.1_src/data/scripts/dock_solv.prm

>  <Rbt.Receptor>
prm/pocket_docking_4.prm

>  <SCORE>
-23.4265

>  <SCORE.INTER>
-22.7059

>  <SCORE.INTER.CONST>
1

>  <SCORE.INTER.POLAR>
0

>  <SCORE.INTER.ROT>
2

>  <SCORE.INTER.SOLV>
31.4214

>  <SCORE.INTER.VDW>
-30.5444

>  <SCORE.INTER.norm>
-0.504575

>  <SCORE.INTRA>
-0.746024

>  <SCORE.INTRA.DIHEDRAL>
-0.0194126

>  <SCORE.INTRA.DIHEDRAL.0>
2.39103

>  <SCORE.INTRA.POLAR>
0

>  <SCORE.INTRA.POLAR.0>
0

>  <SCORE.INTRA.REPUL>
0

>  <SCORE.INTRA.REPUL.0>
0

>  <SCORE.INTRA.SOLV>
0.607296

>  <SCORE.INTRA.SOLV.lig_0>
-163.975

>  <SCORE.INTRA.VDW>
-1.03997

>  <SCORE.INTRA.VDW.0>
-1.49176

>  <SCORE.INTRA.norm>
-0.0165783

>  <SCORE.RESTR>
0.0253916

>  <SCORE.RESTR.CAVITY>
0.0253916

>  <SCORE.RESTR.norm>
0.000564257

>  <SCORE.SYSTEM>
0

>  <SCORE.SYSTEM.CONST>
0

>  <SCORE.SYSTEM.DIHEDRAL>
0

>  <SCORE.SYSTEM.SOLV>
0

>  <SCORE.SYSTEM.norm>
0

>  <SCORE.heavy>
45

>  <SCORE.norm>
-0.520589

>  <RMSD>
7.210

$$$$
ligand
 OpenBabel11021811513D
libRbt.so/2013.1/901 2013/11/27
 45 51  0  0  0  0  0  0  0  0999 V2000
   95.4984    9.1012   95.7831 C   0  0  0  0  0  0  0  0  0  0  0  0
   92.5763   10.8913   93.6207 C   0  0  0  0  0  0  0  0  0  0  0  0
   96.4759   10.0577  101.3087 N   0  0  0  0  0  0  0  0  0  0  0  0
   96.7651    9.0486   96.0397 N   0  0  0  0  0  0  0  0  0  0  0  0
   95.5466    9.7607   99.1863 N   0  0  0  0  0  0  0  0  0  0  0  0
   97.8521    9.6194   99.4704 N   0  0  0  0  0  0  0  0  0  0  0  0
   99.2919    9.1086   97.6156 O   0  0  0  0  0  0  0  0  0  0  0  0
   93.8924   10.3467   90.8732 O   0  5  0  0  0  0  0  0  0  0  0  0
   91.3109   14.8033   96.4919 O   0  5  0  0  0  0  0  0  0  0  0  0
   92.0149   10.9474   98.0005 O   0  0  0  0  0  0  0  0  0  0  0  0
   95.7969   10.9919   91.8273 O   0  5  0  0  0  0  0  0  0  0  0  0
   93.0642   13.9594   97.5918 O   0  5  0  0  0  0  0  0  0  0  0  0
   93.7988   10.4134   93.2238 O   0  0  0  0  0  0  0  0  0  0  0  0
   92.8274    9.2360   95.5410 O   0  0  0  0  0  0  0  0  0  0  0  0
   91.7521   12.5395   95.9300 O   0  0  0  0  0  0  0  0  0  0  0  0
   96.6334    9.8097   99.9115 C   0  0  0  0  0  0  0  0  0  0  0  0
   98.0430    9.3452   98.1869 C   0  0  0  0  0  0  0  0  0  0  0  0
   96.9169    9.2952   97.3346 C   0  0  0  0  0  0  0  0  0  0  0  0
   95.6662    9.4964   97.8645 C   0  0  0  0  0  0  0  0  0  0  0  0
   93.0881   10.7715   97.1536 C   0  0  2  0  0  0  0  0  0  0  0  0
   92.2858   10.5839   95.0346 C   0  0  1  0  0  0  0  0  0  0  0  0
   92.7128   11.5036   95.7620 C   0  0  1  0  0  0  0  0  0  0  0  0
   93.4265    9.5232   96.8893 C   0  0  2  0  0  0  0  0  0  0  0  0
   94.8239    9.3770   96.8375 N   0  0  0  0  0  0  0  0  0  0  0  0
   94.3855   11.0997   91.9521 P   0  0  2  0  0  0  0  0  0  0  0  0
   92.3649   13.8963   96.3317 P   0  0  1  0  0  0  0  0  0  0  0  0
   92.7002   14.3935   93.7896 C   0  0  0  0  0  0  0  0  0  0  0  0
   93.2049   14.4466   95.1336 O   0  0  0  0  0  0  0  0  0  0  0  0
   93.7150   14.5656   92.7393 C   0  0  1  0  0  0  0  0  0  0  0  0
   94.6926   15.7608   93.1850 O   0  0  0  0  0  0  0  0  0  0  0  0
   94.4421   13.5427   92.6706 C   0  0  1  0  0  0  0  0  0  0  0  0
   93.8996   12.5442   91.7760 O   0  0  0  0  0  0  0  0  0  0  0  0
   95.8017   14.0841   92.2555 C   0  0  1  0  0  0  0  0  0  0  0  0
   95.8528   14.2188   91.0020 O   0  0  0  0  0  0  0  0  0  0  0  0
   95.8732   15.4676   92.9020 C   0  0  2  0  0  0  0  0  0  0  0  0
   99.2771   13.1233   95.9600 N   0  0  0  0  0  0  0  0  0  0  0  0
   98.4273   12.5353   95.0776 C   0  0  0  0  0  0  0  0  0  0  0  0
   97.6295   13.3300   94.3744 N   0  0  0  0  0  0  0  0  0  0  0  0
   97.5646   14.6702   94.5256 C   0  0  0  0  0  0  0  0  0  0  0  0
   98.4315   15.3172   95.4321 C   0  0  0  0  0  0  0  0  0  0  0  0
   99.3028   14.4532   96.1695 C   0  0  0  0  0  0  0  0  0  0  0  0
  100.1978   15.0179   97.1255 N   0  0  0  0  0  0  0  0  0  0  0  0
   98.1863   16.5770   95.3398 N   0  0  0  0  0  0  0  0  0  0  0  0
   97.2482   16.7638   94.4277 C   0  0  0  0  0  0  0  0  0  0  0  0
   96.8482   15.6427   93.9435 N   0  0  0  0  0  0  0  0  0  0  0  0
  1 24  1  0  0  0  0
  1  4  2  0  0  0  0
  2 13  1  0  0  0  0
  2 21  1  0  0  0  0
  3 16  1  0  0  0  0
  4 18  1  0  0  0  0
  5 19  2  0  0  0  0
  5 16  1  0  0  0  0
  6 16  2  0  0  0  0
  6 17  1  0  0  0  0
  7 17  1  0  0  0  0
 11 25  2  0  0  0  0
 12 26  2  0  0  0  0
 13 25  1  0  0  0  0
 14 23  1  0  0  0  0
 15 26  1  0  0  0  0
 17 18  2  0  0  0  0
 18 19  1  0  0  0  0
 19 24  1  0  0  0  0
 20 10  1  1  0  0  0
 20 22  1  0  0  0  0
 20 23  1  0  0  0  0
 21 14  1  1  0  0  0
 21 22  1  0  0  0  0
 22 15  1  1  0  0  0
 23 24  1  6  0  0  0
 25  8  1  6  0  0  0
 25 32  1  0  0  0  0
 26  9  1  1  0  0  0
 26 28  1  0  0  0  0
 27 28  1  0  0  0  0
 29 27  1  1  0  0  0
 29 30  1  0  0  0  0
 29 31  1  0  0  0  0
 30 35  1  0  0  0  0
 31 33  1  0  0  0  0
 31 32  1  6  0  0  0
 33 34  1  6  0  0  0
 33 35  1  0  0  0  0
 35 45  1  1  0  0  0
 36 41  2  0  0  0  0
 36 37  1  0  0  0  0
 37 38  2  0  0  0  0
 38 39  1  0  0  0  0
 39 40  2  0  0  0  0
 39 45  1  0  0  0  0
 40 41  1  0  0  0  0
 40 43  1  0  0  0  0
 41 42  1  0  0  0  0
 43 44  2  0  0  0  0
 44 45  1  0  0  0  0
M  CHG  4   8  -1   9  -1  11  -1  12  -1
M  END
>  <CHROM.1>
3.03910049,115.67283268,95.17884162,12.28050344,95.29115484,1.33968385,0.41081689
2.34058712

>  <Name>
ligand

>  <RI>
0

>  <Rbt.Current_Directory>
/home/itssahil/PROJECTS/Mol_Feturizer/New_Systems/rnas/4YAZ

>  <Rbt.Executable>
rbdock ($Id: //depot/dev/client3/rdock/2013.1/src/exe/rbdock.cxx#4 $)

>  <Rbt.Library>
libRbt.so (2013.1, Build901 2013/11/27)

>  <Rbt.Parameter_File>
/export/apps/rDock/src/rDock_2013.1_src/data/scripts/dock_solv.prm

>  <Rbt.Receptor>
prm/pocket_docking_5.prm

>  <SCORE>
-20.6678

>  <SCORE.INTER>
-20.2202

>  <SCORE.INTER.CONST>
1

>  <SCORE.INTER.POLAR>
0

>  <SCORE.INTER.ROT>
2

>  <SCORE.INTER.SOLV>
31.711

>  <SCORE.INTER.VDW>
-28.9838

>  <SCORE.INTER.norm>
-0.449337

>  <SCORE.INTRA>
-0.469694

>  <SCORE.INTRA.DIHEDRAL>
0.0560016

>  <SCORE.INTRA.DIHEDRAL.0>
2.39103

>  <SCORE.INTRA.POLAR>
0

>  <SCORE.INTRA.POLAR.0>
0

>  <SCORE.INTRA.REPUL>
0

>  <SCORE.INTRA.REPUL.0>
0

>  <SCORE.INTRA.SOLV>
0.0775883

>  <SCORE.INTRA.SOLV.lig_0>
-163.975

>  <SCORE.INTRA.VDW>
-0.536489

>  <SCORE.INTRA.VDW.0>
-1.49176

>  <SCORE.INTRA.norm>
-0.0104376

>  <SCORE.RESTR>
0.0220799

>  <SCORE.RESTR.CAVITY>
0.0220799

>  <SCORE.RESTR.norm>
0.000490664

>  <SCORE.SYSTEM>
0

>  <SCORE.SYSTEM.CONST>
0

>  <SCORE.SYSTEM.DIHEDRAL>
0

>  <SCORE.SYSTEM.SOLV>
0

>  <SCORE.SYSTEM.norm>
0

>  <SCORE.heavy>
45

>  <SCORE.norm>
-0.459284

>  <RMSD>
7.216

$$$$
ligand
 OpenBabel11021811513D
libRbt.so/2013.1/901 2013/11/27
 45 51  0  0  0  0  0  0  0  0999 V2000
   94.4517    8.7989   96.0604 C   0  0  0  0  0  0  0  0  0  0  0  0
   96.2876    9.9888   92.0972 C   0  0  0  0  0  0  0  0  0  0  0  0
   92.9435   14.0954   97.5011 N   0  0  0  0  0  0  0  0  0  0  0  0
   94.8428    9.0755   97.2620 N   0  0  0  0  0  0  0  0  0  0  0  0
   93.3337   12.0605   96.4224 N   0  0  0  0  0  0  0  0  0  0  0  0
   94.0993   12.3836   98.5962 N   0  0  0  0  0  0  0  0  0  0  0  0
   95.2359   10.6250   99.7751 O   0  0  0  0  0  0  0  0  0  0  0  0
   99.0735    8.7116   92.5273 O   0  5  0  0  0  0  0  0  0  0  0  0
   94.3116   14.4841   91.0796 O   0  5  0  0  0  0  0  0  0  0  0  0
   92.2002   11.3992   92.9942 O   0  0  0  0  0  0  0  0  0  0  0  0
   99.1054    9.7998   94.4685 O   0  5  0  0  0  0  0  0  0  0  0  0
   93.7592   14.2020   93.2270 O   0  5  0  0  0  0  0  0  0  0  0  0
   96.9668    9.5219   93.1932 O   0  0  0  0  0  0  0  0  0  0  0  0
   94.2308    9.0691   93.2865 O   0  0  0  0  0  0  0  0  0  0  0  0
   94.3694   12.2099   91.7578 O   0  0  0  0  0  0  0  0  0  0  0  0
   93.4975   12.7794   97.5021 C   0  0  0  0  0  0  0  0  0  0  0  0
   94.5932   11.1543   98.6575 C   0  0  0  0  0  0  0  0  0  0  0  0
   94.4727   10.3230   97.5211 C   0  0  0  0  0  0  0  0  0  0  0  0
   93.8223   10.7986   96.4091 C   0  0  0  0  0  0  0  0  0  0  0  0
   93.3048   11.0587   93.7450 C   0  0  2  0  0  0  0  0  0  0  0  0
   94.8405   10.1274   92.3510 C   0  0  1  0  0  0  0  0  0  0  0  0
   94.5984   11.2670   92.7983 C   0  0  1  0  0  0  0  0  0  0  0  0
   93.3315    9.8279   94.2217 C   0  0  2  0  0  0  0  0  0  0  0  0
   93.8575    9.8006   95.5253 N   0  0  0  0  0  0  0  0  0  0  0  0
   98.4989    9.8131   93.1835 P   0  0  2  0  0  0  0  0  0  0  0  0
   94.6028   13.6736   92.1831 P   0  0  1  0  0  0  0  0  0  0  0  0
   97.1205   13.3551   91.5650 C   0  0  0  0  0  0  0  0  0  0  0  0
   96.1273   13.8834   92.4586 O   0  0  0  0  0  0  0  0  0  0  0  0
   98.4772   13.2719   92.1261 C   0  0  1  0  0  0  0  0  0  0  0  0
   98.7640   14.6306   92.9351 O   0  0  0  0  0  0  0  0  0  0  0  0
   98.5348   12.3518   92.9805 C   0  0  1  0  0  0  0  0  0  0  0  0
   98.8615   11.0737   92.3878 O   0  0  0  0  0  0  0  0  0  0  0  0
   99.5538   12.8523   93.9929 C   0  0  1  0  0  0  0  0  0  0  0  0
  100.7232   12.5807   93.6049 O   0  0  0  0  0  0  0  0  0  0  0  0
   99.3757   14.3706   93.9925 C   0  0  2  0  0  0  0  0  0  0  0  0
  100.5389   16.1961   98.6560 N   0  0  0  0  0  0  0  0  0  0  0  0
  101.3875   15.6124   97.7694 C   0  0  0  0  0  0  0  0  0  0  0  0
  100.8808   15.2151   96.6085 N   0  0  0  0  0  0  0  0  0  0  0  0
   99.5733   15.2957   96.2812 C   0  0  0  0  0  0  0  0  0  0  0  0
   98.6614   15.8957   97.1757 C   0  0  0  0  0  0  0  0  0  0  0  0
   99.2219   16.3403   98.4156 C   0  0  0  0  0  0  0  0  0  0  0  0
   98.3698   16.9384   99.3904 N   0  0  0  0  0  0  0  0  0  0  0  0
   97.5124   15.8773   96.5967 N   0  0  0  0  0  0  0  0  0  0  0  0
   97.6457   15.3317   95.4002 C   0  0  0  0  0  0  0  0  0  0  0  0
   98.8588   14.9593   95.1975 N   0  0  0  0  0  0  0  0  0  0  0  0
  1 24  1  0  0  0  0
  1  4  2  0  0  0  0
  2 13  1  0  0  0  0
  2 21  1  0  0  0  0
  3 16  1  0  0  0  0
  4 18  1  0  0  0  0
  5 19  2  0  0  0  0
  5 16  1  0  0  0  0
  6 16  2  0  0  0  0
  6 17  1  0  0  0  0
  7 17  1  0  0  0  0
 11 25  2  0  0  0  0
 12 26  2  0  0  0  0
 13 25  1  0  0  0  0
 14 23  1  0  0  0  0
 15 26  1  0  0  0  0
 17 18  2  0  0  0  0
 18 19  1  0  0  0  0
 19 24  1  0  0  0  0
 20 10  1  6  0  0  0
 20 22  1  0  0  0  0
 20 23  1  0  0  0  0
 21 14  1  1  0  0  0
 21 22  1  0  0  0  0
 22 15  1  6  0  0  0
 23 24  1  1  0  0  0
 25  8  1  6  0  0  0
 25 32  1  0  0  0  0
 26  9  1  6  0  0  0
 26 28  1  0  0  0  0
 27 28  1  0  0  0  0
 29 27  1  1  0  0  0
 29 30  1  0  0  0  0
 29 31  1  0  0  0  0
 30 35  1  0  0  0  0
 31 33  1  0  0  0  0
 31 32  1  6  0  0  0
 33 34  1  6  0  0  0
 33 35  1  0  0  0  0
 35 45  1  1  0  0  0
 36 41  2  0  0  0  0
 36 37  1  0  0  0  0
 37 38  2  0  0  0  0
 38 39  1  0  0  0  0
 39 40  2  0  0  0  0
 39 45  1  0  0  0  0
 40 41  1  0  0  0  0
 40 43  1  0  0  0  0
 41 42  1  0  0  0  0
 43 44  2  0  0  0  0
 44 45  1  0  0  0  0
M  CHG  4   8  -1   9  -1  11  -1  12  -1
M  END
>  <CHROM.1>
-37.44546421,-150.52711205,96.54233326,12.42763544,94.70775090,2.46643001
-0.52619891,-2.02458668

>  <Name>
ligand

>  <RI>
0

>  <Rbt.Current_Directory>
/home/itssahil/PROJECTS/Mol_Feturizer/New_Systems/rnas/4YAZ

>  <Rbt.Executable>
rbdock ($Id: //depot/dev/client3/rdock/2013.1/src/exe/rbdock.cxx#4 $)

>  <Rbt.Library>
libRbt.so (2013.1, Build901 2013/11/27)

>  <Rbt.Parameter_File>
/export/apps/rDock/src/rDock_2013.1_src/data/scripts/dock_solv.prm

>  <Rbt.Receptor>
prm/pocket_docking_4.prm

>  <SCORE>
-22.3451

>  <SCORE.INTER>
-22.9605

>  <SCORE.INTER.CONST>
1

>  <SCORE.INTER.POLAR>
0

>  <SCORE.INTER.ROT>
2

>  <SCORE.INTER.SOLV>
30.584

>  <SCORE.INTER.VDW>
-30.435

>  <SCORE.INTER.norm>
-0.510233

>  <SCORE.INTRA>
0.610576

>  <SCORE.INTRA.DIHEDRAL>
0.139237

>  <SCORE.INTRA.DIHEDRAL.0>
2.39103

>  <SCORE.INTRA.POLAR>
0

>  <SCORE.INTRA.POLAR.0>
0

>  <SCORE.INTRA.REPUL>
0

>  <SCORE.INTRA.REPUL.0>
0

>  <SCORE.INTRA.SOLV>
0.396242

>  <SCORE.INTRA.SOLV.lig_0>
-163.975

>  <SCORE.INTRA.VDW>
0.342837

>  <SCORE.INTRA.VDW.0>
-1.49176

>  <SCORE.INTRA.norm>
0.0135684

>  <SCORE.RESTR>
0.00486126

>  <SCORE.RESTR.CAVITY>
0.00486126

>  <SCORE.RESTR.norm>
0.000108028

>  <SCORE.SYSTEM>
0

>  <SCORE.SYSTEM.CONST>
0

>  <SCORE.SYSTEM.DIHEDRAL>
0

>  <SCORE.SYSTEM.SOLV>
0

>  <SCORE.SYSTEM.norm>
0

>  <SCORE.heavy>
45

>  <SCORE.norm>
-0.496557

>  <RMSD>
7.263

$$$$
ligand
 OpenBabel11021811523D
libRbt.so/2013.1/901 2013/11/27
 45 51  0  0  0  0  0  0  0  0999 V2000
   94.4262    8.8228   96.0665 C   0  0  0  0  0  0  0  0  0  0  0  0
   96.3096    9.9598   92.1141 C   0  0  0  0  0  0  0  0  0  0  0  0
   92.8974   14.1318   97.4379 N   0  0  0  0  0  0  0  0  0  0  0  0
   94.8027    9.1112   97.2699 N   0  0  0  0  0  0  0  0  0  0  0  0
   93.3019   12.0869   96.3837 N   0  0  0  0  0  0  0  0  0  0  0  0
   94.0410   12.4314   98.5633 N   0  0  0  0  0  0  0  0  0  0  0  0
   95.1644   10.6850   99.7727 O   0  0  0  0  0  0  0  0  0  0  0  0
   99.0855    8.6778   92.5920 O   0  5  0  0  0  0  0  0  0  0  0  0
   94.3623   14.4502   91.0222 O   0  5  0  0  0  0  0  0  0  0  0  0
   92.2169   11.3946   92.9459 O   0  0  0  0  0  0  0  0  0  0  0  0
   99.0980    9.7877   94.5211 O   0  5  0  0  0  0  0  0  0  0  0  0
   93.7832   14.1944   93.1659 O   0  5  0  0  0  0  0  0  0  0  0  0
   96.9739    9.5030   93.2233 O   0  0  0  0  0  0  0  0  0  0  0  0
   94.2354    9.0609   93.2888 O   0  0  0  0  0  0  0  0  0  0  0  0
   94.4036   12.1837   91.7267 O   0  0  0  0  0  0  0  0  0  0  0  0
   93.4522   12.8163   97.4583 C   0  0  0  0  0  0  0  0  0  0  0  0
   94.5349   11.2031   98.6424 C   0  0  0  0  0  0  0  0  0  0  0  0
   94.4286   10.3609   97.5126 C   0  0  0  0  0  0  0  0  0  0  0  0
   93.7914   10.8253   96.3884 C   0  0  0  0  0  0  0  0  0  0  0  0
   93.3112   11.0587   93.7138 C   0  0  2  0  0  0  0  0  0  0  0  0
   94.8601   10.1063   92.3489 C   0  0  1  0  0  0  0  0  0  0  0  0
   94.6168   11.2517   92.7804 C   0  0  1  0  0  0  0  0  0  0  0  0
   93.3277    9.8334   94.2046 C   0  0  2  0  0  0  0  0  0  0  0  0
   93.8380    9.8189   95.5146 N   0  0  0  0  0  0  0  0  0  0  0  0
   98.5071    9.7886   93.2288 P   0  0  2  0  0  0  0  0  0  0  0  0
   94.6373   13.6513   92.1382 P   0  0  1  0  0  0  0  0  0  0  0  0
   97.1611   13.3170   91.5541 C   0  0  0  0  0  0  0  0  0  0  0  0
   96.1592   13.8587   92.4296 O   0  0  0  0  0  0  0  0  0  0  0  0
   98.5107   13.2353   92.1323 C   0  0  1  0  0  0  0  0  0  0  0  0
   98.7926   14.6021   92.9294 O   0  0  0  0  0  0  0  0  0  0  0  0
   98.5546   12.3248   92.9976 C   0  0  1  0  0  0  0  0  0  0  0  0
   98.8837   11.0389   92.4234 O   0  0  0  0  0  0  0  0  0  0  0  0
   99.5633   12.8331   94.0166 C   0  0  1  0  0  0  0  0  0  0  0  0
  100.7362   12.5530   93.6457 O   0  0  0  0  0  0  0  0  0  0  0  0
   99.3907   14.3519   93.9969 C   0  0  2  0  0  0  0  0  0  0  0  0
  100.5022   16.2105   98.6600 N   0  0  0  0  0  0  0  0  0  0  0  0
  101.3584   15.6115   97.7911 C   0  0  0  0  0  0  0  0  0  0  0  0
  100.8651   15.2078   96.6266 N   0  0  0  0  0  0  0  0  0  0  0  0
   99.5633   15.2963   96.2797 C   0  0  0  0  0  0  0  0  0  0  0  0
   98.6437   15.9122   97.1555 C   0  0  0  0  0  0  0  0  0  0  0  0
   99.1901   16.3635   98.3992 C   0  0  0  0  0  0  0  0  0  0  0  0
   98.3291   16.9777   99.3561 N   0  0  0  0  0  0  0  0  0  0  0  0
   97.5030   15.8982   96.5600 N   0  0  0  0  0  0  0  0  0  0  0  0
   97.6489   15.3404   95.3707 C   0  0  0  0  0  0  0  0  0  0  0  0
   98.8615   14.9560   95.1889 N   0  0  0  0  0  0  0  0  0  0  0  0
  1 24  1  0  0  0  0
  1  4  2  0  0  0  0
  2 13  1  0  0  0  0
  2 21  1  0  0  0  0
  3 16  1  0  0  0  0
  4 18  1  0  0  0  0
  5 19  2  0  0  0  0
  5 16  1  0  0  0  0
  6 16  2  0  0  0  0
  6 17  1  0  0  0  0
  7 17  1  0  0  0  0
 11 25  2  0  0  0  0
 12 26  2  0  0  0  0
 13 25  1  0  0  0  0
 14 23  1  0  0  0  0
 15 26  1  0  0  0  0
 17 18  2  0  0  0  0
 18 19  1  0  0  0  0
 19 24  1  0  0  0  0
 20 10  1  6  0  0  0
 20 22  1  0  0  0  0
 20 23  1  0  0  0  0
 21 14  1  1  0  0  0
 21 22  1  0  0  0  0
 22 15  1  6  0  0  0
 23 24  1  1  0  0  0
 25  8  1  6  0  0  0
 25 32  1  0  0  0  0
 26  9  1  6  0  0  0
 26 28  1  0  0  0  0
 27 28  1  0  0  0  0
 29 27  1  1  0  0  0
 29 30  1  0  0  0  0
 29 31  1  0  0  0  0
 30 35  1  0  0  0  0
 31 33  1  0  0  0  0
 31 32  1  6  0  0  0
 33 34  1  6  0  0  0
 33 35  1  0  0  0  0
 35 45  1  1  0  0  0
 36 41  2  0  0  0  0
 36 37  1  0  0  0  0
 37 38  2  0  0  0  0
 38 39  1  0  0  0  0
 39 40  2  0  0  0  0
 39 45  1  0  0  0  0
 40 41  1  0  0  0  0
 40 43  1  0  0  0  0
 41 42  1  0  0  0  0
 43 44  2  0  0  0  0
 44 45  1  0  0  0  0
M  CHG  4   8  -1   9  -1  11  -1  12  -1
M  END
>  <CHROM.1>
-37.18249135,-150.86397373,96.54048140,12.42542597,94.70090872,2.45712790
-0.51673109,-2.04012796

>  <Name>
ligand

>  <RI>
0

>  <Rbt.Current_Directory>
/home/itssahil/PROJECTS/Mol_Feturizer/New_Systems/rnas/4YAZ

>  <Rbt.Executable>
rbdock ($Id: //depot/dev/client3/rdock/2013.1/src/exe/rbdock.cxx#4 $)

>  <Rbt.Library>
libRbt.so (2013.1, Build901 2013/11/27)

>  <Rbt.Parameter_File>
/export/apps/rDock/src/rDock_2013.1_src/data/scripts/dock_solv.prm

>  <Rbt.Receptor>
prm/pocket_docking_8.prm

>  <SCORE>
-22.4192

>  <SCORE.INTER>
-23.0127

>  <SCORE.INTER.CONST>
1

>  <SCORE.INTER.POLAR>
0

>  <SCORE.INTER.ROT>
2

>  <SCORE.INTER.SOLV>
30.4534

>  <SCORE.INTER.VDW>
-30.4263

>  <SCORE.INTER.norm>
-0.511393

>  <SCORE.INTRA>
0.593443

>  <SCORE.INTRA.DIHEDRAL>
0.13884

>  <SCORE.INTRA.DIHEDRAL.0>
2.39103

>  <SCORE.INTRA.POLAR>
0

>  <SCORE.INTRA.POLAR.0>
0

>  <SCORE.INTRA.REPUL>
0

>  <SCORE.INTRA.REPUL.0>
0

>  <SCORE.INTRA.SOLV>
0.373107

>  <SCORE.INTRA.SOLV.lig_0>
-163.975

>  <SCORE.INTRA.VDW>
0.33747

>  <SCORE.INTRA.VDW.0>
-1.49176

>  <SCORE.INTRA.norm>
0.0131876

>  <SCORE.RESTR>
0

>  <SCORE.RESTR.CAVITY>
0

>  <SCORE.RESTR.norm>
0

>  <SCORE.SYSTEM>
0

>  <SCORE.SYSTEM.CONST>
0

>  <SCORE.SYSTEM.DIHEDRAL>
0

>  <SCORE.SYSTEM.SOLV>
0

>  <SCORE.SYSTEM.norm>
0

>  <SCORE.heavy>
45

>  <SCORE.norm>
-0.498205

>  <RMSD>
7.266

$$$$
ligand
 OpenBabel11021811513D
libRbt.so/2013.1/901 2013/11/27
 45 51  0  0  0  0  0  0  0  0999 V2000
   95.9593    9.7912   98.4965 C   0  0  0  0  0  0  0  0  0  0  0  0
   93.8915   10.9085   93.9137 C   0  0  0  0  0  0  0  0  0  0  0  0
   96.6354    6.1622   94.1633 N   0  0  0  0  0  0  0  0  0  0  0  0
   97.1634    9.3188   98.4786 N   0  0  0  0  0  0  0  0  0  0  0  0
   95.8344    7.6720   95.7557 N   0  0  0  0  0  0  0  0  0  0  0  0
   98.0385    6.9337   95.8667 N   0  0  0  0  0  0  0  0  0  0  0  0
   99.5270    7.7529   97.5661 O   0  0  0  0  0  0  0  0  0  0  0  0
   95.6715   10.1209   91.5077 O   0  5  0  0  0  0  0  0  0  0  0  0
   92.5106   15.0414   96.3956 O   0  5  0  0  0  0  0  0  0  0  0  0
   92.4581   11.1947   98.0808 O   0  0  0  0  0  0  0  0  0  0  0  0
   97.4009   10.5983   92.8247 O   0  5  0  0  0  0  0  0  0  0  0  0
   93.8975   14.0608   97.8486 O   0  5  0  0  0  0  0  0  0  0  0  0
   95.1082   10.2890   93.7865 O   0  0  0  0  0  0  0  0  0  0  0  0
   93.5596    9.3122   95.8714 O   0  0  0  0  0  0  0  0  0  0  0  0
   92.8023   12.7234   95.9747 O   0  0  0  0  0  0  0  0  0  0  0  0
   96.8435    6.9576   95.3307 C   0  0  0  0  0  0  0  0  0  0  0  0
   98.2896    7.6883   96.9281 C   0  0  0  0  0  0  0  0  0  0  0  0
   97.2416    8.4740   97.4584 C   0  0  0  0  0  0  0  0  0  0  0  0
   96.0146    8.4583   96.8421 C   0  0  0  0  0  0  0  0  0  0  0  0
   93.6551   10.8735   97.4775 C   0  0  2  0  0  0  0  0  0  0  0  0
   93.2863   10.6890   95.2416 C   0  0  1  0  0  0  0  0  0  0  0  0
   93.6556   11.5862   96.0265 C   0  0  1  0  0  0  0  0  0  0  0  0
   93.8992    9.5871   97.3096 C   0  0  2  0  0  0  0  0  0  0  0  0
   95.2526    9.2923   97.5508 N   0  0  0  0  0  0  0  0  0  0  0  0
   96.0148   10.8592   92.6528 P   0  0  2  0  0  0  0  0  0  0  0  0
   93.4674   14.0227   96.4722 P   0  0  1  0  0  0  0  0  0  0  0  0
   94.3675   14.3819   94.0468 C   0  0  0  0  0  0  0  0  0  0  0  0
   94.5901   14.4339   95.4651 O   0  0  0  0  0  0  0  0  0  0  0  0
   95.5880   14.4047   93.2268 C   0  0  1  0  0  0  0  0  0  0  0  0
   96.5810   15.5065   93.8454 O   0  0  0  0  0  0  0  0  0  0  0  0
   96.1953   13.3088   93.3270 C   0  0  1  0  0  0  0  0  0  0  0  0
   95.7390   12.3390   92.3560 O   0  0  0  0  0  0  0  0  0  0  0  0
   97.6626   13.6871   93.1935 C   0  0  1  0  0  0  0  0  0  0  0  0
   97.9831   13.7665   91.9758 O   0  0  0  0  0  0  0  0  0  0  0  0
   97.7544   15.0795   93.8179 C   0  0  2  0  0  0  0  0  0  0  0  0
   97.8534   17.0082   98.5828 N   0  0  0  0  0  0  0  0  0  0  0  0
   96.8968   17.2067   97.6382 C   0  0  0  0  0  0  0  0  0  0  0  0
   97.0607   16.6054   96.4660 N   0  0  0  0  0  0  0  0  0  0  0  0
   98.1411   15.8668   96.1339 C   0  0  0  0  0  0  0  0  0  0  0  0
   99.1554   15.6379   97.0882 C   0  0  0  0  0  0  0  0  0  0  0  0
   98.9584   16.2729   98.3559 C   0  0  0  0  0  0  0  0  0  0  0  0
   99.9445   16.1157   99.3742 N   0  0  0  0  0  0  0  0  0  0  0  0
  100.0266   14.8776   96.5236 N   0  0  0  0  0  0  0  0  0  0  0  0
   99.6190   14.5980   95.2978 C   0  0  0  0  0  0  0  0  0  0  0  0
   98.5096   15.1913   95.0357 N   0  0  0  0  0  0  0  0  0  0  0  0
  1 24  1  0  0  0  0
  1  4  2  0  0  0  0
  2 13  1  0  0  0  0
  2 21  1  0  0  0  0
  3 16  1  0  0  0  0
  4 18  1  0  0  0  0
  5 19  2  0  0  0  0
  5 16  1  0  0  0  0
  6 16  2  0  0  0  0
  6 17  1  0  0  0  0
  7 17  1  0  0  0  0
 11 25  2  0  0  0  0
 12 26  2  0  0  0  0
 13 25  1  0  0  0  0
 14 23  1  0  0  0  0
 15 26  1  0  0  0  0
 17 18  2  0  0  0  0
 18 19  1  0  0  0  0
 19 24  1  0  0  0  0
 20 10  1  6  0  0  0
 20 22  1  0  0  0  0
 20 23  1  0  0  0  0
 21 14  1  1  0  0  0
 21 22  1  0  0  0  0
 22 15  1  1  0  0  0
 23 24  1  6  0  0  0
 25  8  1  6  0  0  0
 25 32  1  0  0  0  0
 26  9  1  6  0  0  0
 26 28  1  0  0  0  0
 27 28  1  0  0  0  0
 29 27  1  1  0  0  0
 29 30  1  0  0  0  0
 29 31  1  0  0  0  0
 30 35  1  0  0  0  0
 31 33  1  0  0  0  0
 31 32  1  6  0  0  0
 33 34  1  6  0  0  0
 33 35  1  0  0  0  0
 35 45  1  1  0  0  0
 36 41  2  0  0  0  0
 36 37  1  0  0  0  0
 37 38  2  0  0  0  0
 38 39  1  0  0  0  0
 39 40  2  0  0  0  0
 39 45  1  0  0  0  0
 40 41  1  0  0  0  0
 40 43  1  0  0  0  0
 41 42  1  0  0  0  0
 43 44  2  0  0  0  0
 44 45  1  0  0  0  0
M  CHG  4   8  -1   9  -1  11  -1  12  -1
M  END
>  <CHROM.1>
156.47601719,-9.61436762,96.08898277,12.15917666,95.60342154,-1.76131867
-0.35347828,0.01449731

>  <Name>
ligand

>  <RI>
0

>  <Rbt.Current_Directory>
/home/itssahil/PROJECTS/Mol_Feturizer/New_Systems/rnas/4YAZ

>  <Rbt.Executable>
rbdock ($Id: //depot/dev/client3/rdock/2013.1/src/exe/rbdock.cxx#4 $)

>  <Rbt.Library>
libRbt.so (2013.1, Build901 2013/11/27)

>  <Rbt.Parameter_File>
/export/apps/rDock/src/rDock_2013.1_src/data/scripts/dock_solv.prm

>  <Rbt.Receptor>
prm/pocket_docking_8.prm

>  <SCORE>
-23.0609

>  <SCORE.INTER>
-22.8387

>  <SCORE.INTER.CONST>
1

>  <SCORE.INTER.POLAR>
0

>  <SCORE.INTER.ROT>
2

>  <SCORE.INTER.SOLV>
24.5276

>  <SCORE.INTER.VDW>
-28.335

>  <SCORE.INTER.norm>
-0.507526

>  <SCORE.INTRA>
-0.222285

>  <SCORE.INTRA.DIHEDRAL>
0.0936781

>  <SCORE.INTRA.DIHEDRAL.0>
2.39103

>  <SCORE.INTRA.POLAR>
0

>  <SCORE.INTRA.POLAR.0>
0

>  <SCORE.INTRA.REPUL>
0

>  <SCORE.INTRA.REPUL.0>
0

>  <SCORE.INTRA.SOLV>
0.0450196

>  <SCORE.INTRA.SOLV.lig_0>
-163.975

>  <SCORE.INTRA.VDW>
-0.291634

>  <SCORE.INTRA.VDW.0>
-1.49176

>  <SCORE.INTRA.norm>
-0.00493967

>  <SCORE.RESTR>
0

>  <SCORE.RESTR.CAVITY>
0

>  <SCORE.RESTR.norm>
0

>  <SCORE.SYSTEM>
0

>  <SCORE.SYSTEM.CONST>
0

>  <SCORE.SYSTEM.DIHEDRAL>
0

>  <SCORE.SYSTEM.SOLV>
0

>  <SCORE.SYSTEM.norm>
0

>  <SCORE.heavy>
45

>  <SCORE.norm>
-0.512465

>  <RMSD>
7.267

$$$$
ligand
 OpenBabel11021811513D
libRbt.so/2013.1/901 2013/11/27
 45 51  0  0  0  0  0  0  0  0999 V2000
   95.8797    9.8067   98.5147 C   0  0  0  0  0  0  0  0  0  0  0  0
   93.8110   10.9398   93.9415 C   0  0  0  0  0  0  0  0  0  0  0  0
   96.4823    6.1314   94.2098 N   0  0  0  0  0  0  0  0  0  0  0  0
   97.0766    9.3165   98.4953 N   0  0  0  0  0  0  0  0  0  0  0  0
   95.7109    7.6662   95.7927 N   0  0  0  0  0  0  0  0  0  0  0  0
   97.9045    6.8966   95.9001 N   0  0  0  0  0  0  0  0  0  0  0  0
   99.4128    7.7084   97.5855 O   0  0  0  0  0  0  0  0  0  0  0  0
   95.5731   10.1255   91.5312 O   0  5  0  0  0  0  0  0  0  0  0  0
   92.4930   15.0940   96.4222 O   0  5  0  0  0  0  0  0  0  0  0  0
   92.3942   11.2504   98.1124 O   0  0  0  0  0  0  0  0  0  0  0  0
   97.3127   10.5814   92.8424 O   0  5  0  0  0  0  0  0  0  0  0  0
   93.8710   14.0967   97.8722 O   0  5  0  0  0  0  0  0  0  0  0  0
   95.0190   10.3040   93.8114 O   0  0  0  0  0  0  0  0  0  0  0  0
   93.4637    9.3506   95.9022 O   0  0  0  0  0  0  0  0  0  0  0  0
   92.7524   12.7718   96.0034 O   0  0  0  0  0  0  0  0  0  0  0  0
   96.7075    6.9335   95.3693 C   0  0  0  0  0  0  0  0  0  0  0  0
   98.1716    7.6565   96.9537 C   0  0  0  0  0  0  0  0  0  0  0  0
   97.1377    8.4620   97.4821 C   0  0  0  0  0  0  0  0  0  0  0  0
   95.9078    8.4591   96.8716 C   0  0  0  0  0  0  0  0  0  0  0  0
   93.5849   10.9125   97.5059 C   0  0  2  0  0  0  0  0  0  0  0  0
   93.2069   10.7301   95.2715 C   0  0  1  0  0  0  0  0  0  0  0  0
   93.5905   11.6232   96.0540 C   0  0  1  0  0  0  0  0  0  0  0  0
   93.8113    9.6227   97.3391 C   0  0  2  0  0  0  0  0  0  0  0  0
   95.1613    9.3101   97.5765 N   0  0  0  0  0  0  0  0  0  0  0  0
   95.9297   10.8606   92.6742 P   0  0  2  0  0  0  0  0  0  0  0  0
   93.4363   14.0626   96.4972 P   0  0  1  0  0  0  0  0  0  0  0  0
   94.3339   14.4067   94.0686 C   0  0  0  0  0  0  0  0  0  0  0  0
   94.5614   14.4575   95.4862 O   0  0  0  0  0  0  0  0  0  0  0  0
   95.5520   14.4121   93.2449 C   0  0  1  0  0  0  0  0  0  0  0  0
   96.5616   15.5014   93.8592 O   0  0  0  0  0  0  0  0  0  0  0  0
   96.1450   13.3084   93.3448 C   0  0  1  0  0  0  0  0  0  0  0  0
   95.6728   12.3435   92.3764 O   0  0  0  0  0  0  0  0  0  0  0  0
   97.6168   13.6668   93.2064 C   0  0  1  0  0  0  0  0  0  0  0  0
   97.9347   13.7404   91.9876 O   0  0  0  0  0  0  0  0  0  0  0  0
   97.7290   15.0587   93.8287 C   0  0  2  0  0  0  0  0  0  0  0  0
   97.8795   17.0125   98.5820 N   0  0  0  0  0  0  0  0  0  0  0  0
   96.9249   17.2253   97.6384 C   0  0  0  0  0  0  0  0  0  0  0  0
   97.0735   16.6139   96.4694 N   0  0  0  0  0  0  0  0  0  0  0  0
   98.1375   15.8512   96.1391 C   0  0  0  0  0  0  0  0  0  0  0  0
   99.1492   15.6070   97.0924 C   0  0  0  0  0  0  0  0  0  0  0  0
   98.9684   16.2532   98.3569 C   0  0  0  0  0  0  0  0  0  0  0  0
   99.9535   16.0816   99.3738 N   0  0  0  0  0  0  0  0  0  0  0  0
  100.0031   14.8255   96.5303 N   0  0  0  0  0  0  0  0  0  0  0  0
   99.5869   14.5472   95.3071 C   0  0  0  0  0  0  0  0  0  0  0  0
   98.4894   15.1619   95.0441 N   0  0  0  0  0  0  0  0  0  0  0  0
  1 24  1  0  0  0  0
  1  4  2  0  0  0  0
  2 13  1  0  0  0  0
  2 21  1  0  0  0  0
  3 16  1  0  0  0  0
  4 18  1  0  0  0  0
  5 19  2  0  0  0  0
  5 16  1  0  0  0  0
  6 16  2  0  0  0  0
  6 17  1  0  0  0  0
  7 17  1  0  0  0  0
 11 25  2  0  0  0  0
 12 26  2  0  0  0  0
 13 25  1  0  0  0  0
 14 23  1  0  0  0  0
 15 26  1  0  0  0  0
 17 18  2  0  0  0  0
 18 19  1  0  0  0  0
 19 24  1  0  0  0  0
 20 10  1  6  0  0  0
 20 22  1  0  0  0  0
 20 23  1  0  0  0  0
 21 14  1  1  0  0  0
 21 22  1  0  0  0  0
 22 15  1  1  0  0  0
 23 24  1  6  0  0  0
 25  8  1  6  0  0  0
 25 32  1  0  0  0  0
 26  9  1  6  0  0  0
 26 28  1  0  0  0  0
 27 28  1  0  0  0  0
 29 27  1  1  0  0  0
 29 30  1  0  0  0  0
 29 31  1  0  0  0  0
 30 35  1  0  0  0  0
 31 33  1  0  0  0  0
 31 32  1  6  0  0  0
 33 34  1  6  0  0  0
 33 35  1  0  0  0  0
 35 45  1  1  0  0  0
 36 41  2  0  0  0  0
 36 37  1  0  0  0  0
 37 38  2  0  0  0  0
 38 39  1  0  0  0  0
 39 40  2  0  0  0  0
 39 45  1  0  0  0  0
 40 41  1  0  0  0  0
 40 43  1  0  0  0  0
 41 42  1  0  0  0  0
 43 44  2  0  0  0  0
 44 45  1  0  0  0  0
M  CHG  4   8  -1   9  -1  11  -1  12  -1
M  END
>  <CHROM.1>
156.04302087,-10.10979998,96.03031253,12.16299123,95.62373306,-1.77658520
-0.35807685,0.00479511

>  <Name>
ligand

>  <RI>
0

>  <Rbt.Current_Directory>
/home/itssahil/PROJECTS/Mol_Feturizer/New_Systems/rnas/4YAZ

>  <Rbt.Executable>
rbdock ($Id: //depot/dev/client3/rdock/2013.1/src/exe/rbdock.cxx#4 $)

>  <Rbt.Library>
libRbt.so (2013.1, Build901 2013/11/27)

>  <Rbt.Parameter_File>
/export/apps/rDock/src/rDock_2013.1_src/data/scripts/dock_solv.prm

>  <Rbt.Receptor>
prm/pocket_docking_6.prm

>  <SCORE>
-22.9497

>  <SCORE.INTER>
-22.7462

>  <SCORE.INTER.CONST>
1

>  <SCORE.INTER.POLAR>
0

>  <SCORE.INTER.ROT>
2

>  <SCORE.INTER.SOLV>
24.6125

>  <SCORE.INTER.VDW>
-28.3016

>  <SCORE.INTER.norm>
-0.505471

>  <SCORE.INTRA>
-0.203494

>  <SCORE.INTRA.DIHEDRAL>
0.0965767

>  <SCORE.INTRA.DIHEDRAL.0>
2.39103

>  <SCORE.INTRA.POLAR>
0

>  <SCORE.INTRA.POLAR.0>
0

>  <SCORE.INTRA.REPUL>
0

>  <SCORE.INTRA.REPUL.0>
0

>  <SCORE.INTRA.SOLV>
0.0459343

>  <SCORE.INTRA.SOLV.lig_0>
-163.975

>  <SCORE.INTRA.VDW>
-0.274749

>  <SCORE.INTRA.VDW.0>
-1.49176

>  <SCORE.INTRA.norm>
-0.00452209

>  <SCORE.RESTR>
0

>  <SCORE.RESTR.CAVITY>
0

>  <SCORE.RESTR.norm>
0

>  <SCORE.SYSTEM>
0

>  <SCORE.SYSTEM.CONST>
0

>  <SCORE.SYSTEM.DIHEDRAL>
0

>  <SCORE.SYSTEM.SOLV>
0

>  <SCORE.SYSTEM.norm>
0

>  <SCORE.heavy>
45

>  <SCORE.norm>
-0.509993

>  <RMSD>
7.279

$$$$
ligand
 OpenBabel11021811513D
libRbt.so/2013.1/901 2013/11/27
 45 51  0  0  0  0  0  0  0  0999 V2000
   95.7382   10.8049   97.9471 C   0  0  0  0  0  0  0  0  0  0  0  0
   91.9730   10.2941   96.0488 C   0  0  0  0  0  0  0  0  0  0  0  0
   95.1355   10.8350  103.6074 N   0  0  0  0  0  0  0  0  0  0  0  0
   96.6648   10.0992   98.5099 N   0  0  0  0  0  0  0  0  0  0  0  0
   94.9465   11.1668  101.3029 N   0  0  0  0  0  0  0  0  0  0  0  0
   96.6728    9.8530  102.1453 N   0  0  0  0  0  0  0  0  0  0  0  0
   98.2340    8.7771  100.6689 O   0  0  0  0  0  0  0  0  0  0  0  0
   91.5868    7.2348   95.7854 O   0  5  0  0  0  0  0  0  0  0  0  0
   93.4096   14.1759   93.2175 O   0  5  0  0  0  0  0  0  0  0  0  0
   93.6347   14.1519   97.4114 O   0  0  0  0  0  0  0  0  0  0  0  0
   93.8084    7.1111   95.7351 O   0  5  0  0  0  0  0  0  0  0  0  0
   95.1567   13.9206   94.5882 O   0  5  0  0  0  0  0  0  0  0  0  0
   92.6612    9.2002   96.5075 O   0  0  0  0  0  0  0  0  0  0  0  0
   92.6408   11.3400   98.2738 O   0  0  0  0  0  0  0  0  0  0  0  0
   92.8670   12.9768   95.1932 O   0  0  0  0  0  0  0  0  0  0  0  0
   95.6163   10.6154  102.2810 C   0  0  0  0  0  0  0  0  0  0  0  0
   97.1307    9.5879  100.9292 C   0  0  0  0  0  0  0  0  0  0  0  0
   96.4707   10.1651   99.8208 C   0  0  0  0  0  0  0  0  0  0  0  0
   95.3634   10.9486  100.0341 C   0  0  0  0  0  0  0  0  0  0  0  0
   94.0671   12.8431   97.4179 C   0  0  2  0  0  0  0  0  0  0  0  0
   92.3271   11.5265   96.7793 C   0  0  1  0  0  0  0  0  0  0  0  0
   93.2911   12.0864   96.2186 C   0  0  1  0  0  0  0  0  0  0  0  0
   93.8688   12.1669   98.5342 C   0  0  2  0  0  0  0  0  0  0  0  0
   94.9619   11.3305   98.8211 N   0  0  0  0  0  0  0  0  0  0  0  0
   92.7281    8.0056   95.5071 P   0  0  2  0  0  0  0  0  0  0  0  0
   93.9513   13.2696   94.1365 P   0  0  1  0  0  0  0  0  0  0  0  0
   93.1439   11.1433   92.8524 C   0  0  0  0  0  0  0  0  0  0  0  0
   94.2255   11.9660   93.3184 O   0  0  0  0  0  0  0  0  0  0  0  0
   93.5279    9.7796   92.4583 C   0  0  1  0  0  0  0  0  0  0  0  0
   94.8905    9.8729   91.6113 O   0  0  0  0  0  0  0  0  0  0  0  0
   93.8098    9.0996   93.4772 C   0  0  1  0  0  0  0  0  0  0  0  0
   92.6471    8.4500   94.0410 O   0  0  0  0  0  0  0  0  0  0  0  0
   94.8900    8.1434   92.9948 C   0  0  1  0  0  0  0  0  0  0  0  0
   94.3661    7.1326   92.4510 O   0  0  0  0  0  0  0  0  0  0  0  0
   95.6508    8.9351   91.9311 C   0  0  2  0  0  0  0  0  0  0  0  0
   99.4087   12.3713   91.2202 N   0  0  0  0  0  0  0  0  0  0  0  0
   98.1765   12.3741   90.6470 C   0  0  0  0  0  0  0  0  0  0  0  0
   97.3470   11.3909   90.9751 N   0  0  0  0  0  0  0  0  0  0  0  0
   97.6703   10.3612   91.7864 C   0  0  0  0  0  0  0  0  0  0  0  0
   98.9404   10.3233   92.4007 C   0  0  0  0  0  0  0  0  0  0  0  0
   99.8194   11.3998   92.0573 C   0  0  0  0  0  0  0  0  0  0  0  0
  101.1324   11.4311   92.6132 N   0  0  0  0  0  0  0  0  0  0  0  0
   98.9586    9.2724   93.1429 N   0  0  0  0  0  0  0  0  0  0  0  0
   97.7874    8.6663   93.0540 C   0  0  0  0  0  0  0  0  0  0  0  0
   97.0111    9.2841   92.2374 N   0  0  0  0  0  0  0  0  0  0  0  0
  1 24  1  0  0  0  0
  1  4  2  0  0  0  0
  2 13  1  0  0  0  0
  2 21  1  0  0  0  0
  3 16  1  0  0  0  0
  4 18  1  0  0  0  0
  5 19  2  0  0  0  0
  5 16  1  0  0  0  0
  6 16  2  0  0  0  0
  6 17  1  0  0  0  0
  7 17  1  0  0  0  0
 11 25  2  0  0  0  0
 12 26  2  0  0  0  0
 13 25  1  0  0  0  0
 14 23  1  0  0  0  0
 15 26  1  0  0  0  0
 17 18  2  0  0  0  0
 18 19  1  0  0  0  0
 19 24  1  0  0  0  0
 20 10  1  1  0  0  0
 20 22  1  0  0  0  0
 20 23  1  0  0  0  0
 21 14  1  1  0  0  0
 21 22  1  0  0  0  0
 22 15  1  6  0  0  0
 23 24  1  6  0  0  0
 25  8  1  1  0  0  0
 25 32  1  0  0  0  0
 26  9  1  6  0  0  0
 26 28  1  0  0  0  0
 27 28  1  0  0  0  0
 29 27  1  1  0  0  0
 29 30  1  0  0  0  0
 29 31  1  0  0  0  0
 30 35  1  0  0  0  0
 31 33  1  0  0  0  0
 31 32  1  6  0  0  0
 33 34  1  6  0  0  0
 33 35  1  0  0  0  0
 35 45  1  1  0  0  0
 36 41  2  0  0  0  0
 36 37  1  0  0  0  0
 37 38  2  0  0  0  0
 38 39  1  0  0  0  0
 39 40  2  0  0  0  0
 39 45  1  0  0  0  0
 40 41  1  0  0  0  0
 40 43  1  0  0  0  0
 41 42  1  0  0  0  0
 43 44  2  0  0  0  0
 44 45  1  0  0  0  0
M  CHG  4   8  -1   9  -1  11  -1  12  -1
M  END
>  <CHROM.1>
86.53450546,-25.18850794,95.09585326,10.57643440,95.55516126,-1.76599190
-0.12320906,-1.59402015

>  <Name>
ligand

>  <RI>
0

>  <Rbt.Current_Directory>
/home/itssahil/PROJECTS/Mol_Feturizer/New_Systems/rnas/4YAZ

>  <Rbt.Executable>
rbdock ($Id: //depot/dev/client3/rdock/2013.1/src/exe/rbdock.cxx#4 $)

>  <Rbt.Library>
libRbt.so (2013.1, Build901 2013/11/27)

>  <Rbt.Parameter_File>
/export/apps/rDock/src/rDock_2013.1_src/data/scripts/dock_solv.prm

>  <Rbt.Receptor>
prm/pocket_docking_6.prm

>  <SCORE>
-16.8629

>  <SCORE.INTER>
-17.7231

>  <SCORE.INTER.CONST>
1

>  <SCORE.INTER.POLAR>
0

>  <SCORE.INTER.ROT>
2

>  <SCORE.INTER.SOLV>
33.4475

>  <SCORE.INTER.VDW>
-27.8979

>  <SCORE.INTER.norm>
-0.393846

>  <SCORE.INTRA>
0.860196

>  <SCORE.INTRA.DIHEDRAL>
0.139129

>  <SCORE.INTRA.DIHEDRAL.0>
2.39103

>  <SCORE.INTRA.POLAR>
0

>  <SCORE.INTRA.POLAR.0>
0

>  <SCORE.INTRA.REPUL>
0

>  <SCORE.INTRA.REPUL.0>
0

>  <SCORE.INTRA.SOLV>
0.0126228

>  <SCORE.INTRA.SOLV.lig_0>
-163.975

>  <SCORE.INTRA.VDW>
0.78432

>  <SCORE.INTRA.VDW.0>
-1.49176

>  <SCORE.INTRA.norm>
0.0191155

>  <SCORE.RESTR>
0

>  <SCORE.RESTR.CAVITY>
0

>  <SCORE.RESTR.norm>
0

>  <SCORE.SYSTEM>
0

>  <SCORE.SYSTEM.CONST>
0

>  <SCORE.SYSTEM.DIHEDRAL>
0

>  <SCORE.SYSTEM.SOLV>
0

>  <SCORE.SYSTEM.norm>
0

>  <SCORE.heavy>
45

>  <SCORE.norm>
-0.374731

>  <RMSD>
7.281

$$$$
ligand
 OpenBabel11021811513D
libRbt.so/2013.1/901 2013/11/27
 45 51  0  0  0  0  0  0  0  0999 V2000
   97.1268   10.3023   98.0683 C   0  0  0  0  0  0  0  0  0  0  0  0
   99.3658   11.5702   94.4175 C   0  0  0  0  0  0  0  0  0  0  0  0
   92.4401    8.3326   95.5073 N   0  0  0  0  0  0  0  0  0  0  0  0
   96.0637   10.7857   98.6245 N   0  0  0  0  0  0  0  0  0  0  0  0
   94.6222    8.8455   96.1647 N   0  0  0  0  0  0  0  0  0  0  0  0
   92.8208    9.7986   97.2882 N   0  0  0  0  0  0  0  0  0  0  0  0
   93.1729   11.2604   99.1627 O   0  0  0  0  0  0  0  0  0  0  0  0
  100.0239   14.4490   95.3432 O   0  5  0  0  0  0  0  0  0  0  0  0
   97.0392    9.2642   90.6205 O   0  5  0  0  0  0  0  0  0  0  0  0
   97.5711    7.5354   94.4111 O   0  0  0  0  0  0  0  0  0  0  0  0
   97.8553   14.6332   95.8086 O   0  5  0  0  0  0  0  0  0  0  0  0
   95.6027    8.9621   92.3062 O   0  5  0  0  0  0  0  0  0  0  0  0
   98.8918   12.3870   95.4118 O   0  0  0  0  0  0  0  0  0  0  0  0
   98.9984    9.7044   96.1130 O   0  0  0  0  0  0  0  0  0  0  0  0
   98.0513    9.5133   92.7533 O   0  0  0  0  0  0  0  0  0  0  0  0
   93.3437    9.0379   96.3587 C   0  0  0  0  0  0  0  0  0  0  0  0
   93.6211   10.4407   98.1285 C   0  0  0  0  0  0  0  0  0  0  0  0
   95.0180   10.2983   97.9691 C   0  0  0  0  0  0  0  0  0  0  0  0
   95.4991    9.4782   96.9783 C   0  0  0  0  0  0  0  0  0  0  0  0
   97.2895    8.7307   95.0369 C   0  0  2  0  0  0  0  0  0  0  0  0
   99.0181   10.1536   94.6417 C   0  0  1  0  0  0  0  0  0  0  0  0
   97.9151    9.9021   94.1151 C   0  0  1  0  0  0  0  0  0  0  0  0
   97.7554    8.8728   96.2639 C   0  0  2  0  0  0  0  0  0  0  0  0
   96.8271    9.5371   97.0847 N   0  0  0  0  0  0  0  0  0  0  0  0
   98.7754   13.8919   95.0193 P   0  0  2  0  0  0  0  0  0  0  0  0
   96.7707    9.7146   91.9184 P   0  0  1  0  0  0  0  0  0  0  0  0
   97.5585   12.1642   91.4697 C   0  0  0  0  0  0  0  0  0  0  0  0
   96.4958   11.2469   91.7751 O   0  0  0  0  0  0  0  0  0  0  0  0
   97.2584   13.5760   91.7512 C   0  0  1  0  0  0  0  0  0  0  0  0
   95.7643   13.8770   91.2413 O   0  0  0  0  0  0  0  0  0  0  0  0
   97.2376   13.7732   92.9923 C   0  0  1  0  0  0  0  0  0  0  0  0
   98.5450   14.1003   93.5169 O   0  0  0  0  0  0  0  0  0  0  0  0
   96.1972   14.8680   93.1741 C   0  0  1  0  0  0  0  0  0  0  0  0
   96.7207   16.0012   92.9912 O   0  0  0  0  0  0  0  0  0  0  0  0
   95.1783   14.6119   92.0636 C   0  0  2  0  0  0  0  0  0  0  0  0
   92.4617   11.9930   95.5559 N   0  0  0  0  0  0  0  0  0  0  0  0
   93.8146   12.0950   95.4784 C   0  0  0  0  0  0  0  0  0  0  0  0
   94.3171   12.8330   94.4958 N   0  0  0  0  0  0  0  0  0  0  0  0
   93.5768   13.4315   93.5383 C   0  0  0  0  0  0  0  0  0  0  0  0
   92.1686   13.3484   93.5851 C   0  0  0  0  0  0  0  0  0  0  0  0
   91.6363   12.5684   94.6610 C   0  0  0  0  0  0  0  0  0  0  0  0
   90.2235   12.4102   94.7738 N   0  0  0  0  0  0  0  0  0  0  0  0
   91.7265   14.0366   92.5918 N   0  0  0  0  0  0  0  0  0  0  0  0
   92.7530   14.5601   91.9443 C   0  0  0  0  0  0  0  0  0  0  0  0
   93.8652   14.1979   92.4766 N   0  0  0  0  0  0  0  0  0  0  0  0
  1 24  1  0  0  0  0
  1  4  2  0  0  0  0
  2 13  1  0  0  0  0
  2 21  1  0  0  0  0
  3 16  1  0  0  0  0
  4 18  1  0  0  0  0
  5 19  2  0  0  0  0
  5 16  1  0  0  0  0
  6 16  2  0  0  0  0
  6 17  1  0  0  0  0
  7 17  1  0  0  0  0
 11 25  2  0  0  0  0
 12 26  2  0  0  0  0
 13 25  1  0  0  0  0
 14 23  1  0  0  0  0
 15 26  1  0  0  0  0
 17 18  2  0  0  0  0
 18 19  1  0  0  0  0
 19 24  1  0  0  0  0
 20 10  1  6  0  0  0
 20 22  1  0  0  0  0
 20 23  1  0  0  0  0
 21 14  1  1  0  0  0
 21 22  1  0  0  0  0
 22 15  1  6  0  0  0
 23 24  1  1  0  0  0
 25  8  1  1  0  0  0
 25 32  1  0  0  0  0
 26  9  1  6  0  0  0
 26 28  1  0  0  0  0
 27 28  1  0  0  0  0
 29 27  1  1  0  0  0
 29 30  1  0  0  0  0
 29 31  1  0  0  0  0
 30 35  1  0  0  0  0
 31 33  1  0  0  0  0
 31 32  1  6  0  0  0
 33 34  1  6  0  0  0
 33 35  1  0  0  0  0
 35 45  1  1  0  0  0
 36 41  2  0  0  0  0
 36 37  1  0  0  0  0
 37 38  2  0  0  0  0
 38 39  1  0  0  0  0
 39 40  2  0  0  0  0
 39 45  1  0  0  0  0
 40 41  1  0  0  0  0
 40 43  1  0  0  0  0
 41 42  1  0  0  0  0
 43 44  2  0  0  0  0
 44 45  1  0  0  0  0
M  CHG  4   8  -1   9  -1  11  -1  12  -1
M  END
>  <CHROM.1>
-32.98165942,91.74675050,95.95817944,11.63879897,94.46487119,-2.18709368
0.18905021,-0.71522577

>  <Name>
ligand

>  <RI>
0

>  <Rbt.Current_Directory>
/home/itssahil/PROJECTS/Mol_Feturizer/New_Systems/rnas/4YAZ

>  <Rbt.Executable>
rbdock ($Id: //depot/dev/client3/rdock/2013.1/src/exe/rbdock.cxx#4 $)

>  <Rbt.Library>
libRbt.so (2013.1, Build901 2013/11/27)

>  <Rbt.Parameter_File>
/export/apps/rDock/src/rDock_2013.1_src/data/scripts/dock_solv.prm

>  <Rbt.Receptor>
prm/pocket_docking_7.prm

>  <SCORE>
-16.1839

>  <SCORE.INTER>
-14.4918

>  <SCORE.INTER.CONST>
1

>  <SCORE.INTER.POLAR>
0

>  <SCORE.INTER.ROT>
2

>  <SCORE.INTER.SOLV>
25.6336

>  <SCORE.INTER.VDW>
-23.1391

>  <SCORE.INTER.norm>
-0.32204

>  <SCORE.INTRA>
-1.69205

>  <SCORE.INTRA.DIHEDRAL>
0.140292

>  <SCORE.INTRA.DIHEDRAL.0>
2.39103

>  <SCORE.INTRA.POLAR>
0

>  <SCORE.INTRA.POLAR.0>
0

>  <SCORE.INTRA.REPUL>
0

>  <SCORE.INTRA.REPUL.0>
0

>  <SCORE.INTRA.SOLV>
0.470417

>  <SCORE.INTRA.SOLV.lig_0>
-163.975

>  <SCORE.INTRA.VDW>
-1.99741

>  <SCORE.INTRA.VDW.0>
-1.49176

>  <SCORE.INTRA.norm>
-0.0376011

>  <SCORE.RESTR>
0

>  <SCORE.RESTR.CAVITY>
0

>  <SCORE.RESTR.norm>
0

>  <SCORE.SYSTEM>
0

>  <SCORE.SYSTEM.CONST>
0

>  <SCORE.SYSTEM.DIHEDRAL>
0

>  <SCORE.SYSTEM.SOLV>
0

>  <SCORE.SYSTEM.norm>
0

>  <SCORE.heavy>
45

>  <SCORE.norm>
-0.359641

>  <RMSD>
7.300

$$$$
ligand
 OpenBabel11021811513D
libRbt.so/2013.1/901 2013/11/27
 45 51  0  0  0  0  0  0  0  0999 V2000
   95.1547   10.5062   96.8326 C   0  0  0  0  0  0  0  0  0  0  0  0
   92.9701   10.6966   93.5919 C   0  0  0  0  0  0  0  0  0  0  0  0
   94.2634   11.2503  102.4053 N   0  0  0  0  0  0  0  0  0  0  0  0
   96.2042   10.1748   97.5124 N   0  0  0  0  0  0  0  0  0  0  0  0
   94.1166   11.1562  100.0759 N   0  0  0  0  0  0  0  0  0  0  0  0
   96.0827   10.5078  101.1388 N   0  0  0  0  0  0  0  0  0  0  0  0
   97.9508    9.6804   99.8738 O   0  0  0  0  0  0  0  0  0  0  0  0
   94.2899    8.3566   92.0557 O   0  5  0  0  0  0  0  0  0  0  0  0
   92.8436   15.7080   93.4558 O   0  5  0  0  0  0  0  0  0  0  0  0
   92.0211   13.4575   96.9052 O   0  0  0  0  0  0  0  0  0  0  0  0
   96.1928    9.0001   93.0140 O   0  5  0  0  0  0  0  0  0  0  0  0
   94.0783   15.3173   95.2777 O   0  5  0  0  0  0  0  0  0  0  0  0
   93.9870    9.8208   93.8731 O   0  0  0  0  0  0  0  0  0  0  0  0
   92.4401   10.4953   96.0757 O   0  0  0  0  0  0  0  0  0  0  0  0
   92.5336   13.5234   94.3315 O   0  0  0  0  0  0  0  0  0  0  0  0
   94.8557   10.9663  101.1375 C   0  0  0  0  0  0  0  0  0  0  0  0
   96.6591   10.1914   99.9870 C   0  0  0  0  0  0  0  0  0  0  0  0
   95.9297   10.3884   98.7928 C   0  0  0  0  0  0  0  0  0  0  0  0
   94.6439   10.8651   98.8641 C   0  0  0  0  0  0  0  0  0  0  0  0
   93.0482   12.5822   96.6243 C   0  0  2  0  0  0  0  0  0  0  0  0
   92.4497   11.3598   94.8032 C   0  0  1  0  0  0  0  0  0  0  0  0
   93.0909   12.4087   95.0177 C   0  0  1  0  0  0  0  0  0  0  0  0
   92.9614   11.3836   97.1705 C   0  0  2  0  0  0  0  0  0  0  0  0
   94.2208   10.9304   97.6011 N   0  0  0  0  0  0  0  0  0  0  0  0
   94.8998    9.4698   92.6582 P   0  0  2  0  0  0  0  0  0  0  0  0
   93.5317   14.6771   94.1063 P   0  0  1  0  0  0  0  0  0  0  0  0
   94.2736   13.4830   91.9049 C   0  0  0  0  0  0  0  0  0  0  0  0
   94.6266   14.2082   93.0938 O   0  0  0  0  0  0  0  0  0  0  0  0
   95.3866   12.7700   91.2606 C   0  0  1  0  0  0  0  0  0  0  0  0
   96.6652   13.7437   91.2591 O   0  0  0  0  0  0  0  0  0  0  0  0
   95.7203   11.7757   91.9533 C   0  0  1  0  0  0  0  0  0  0  0  0
   94.9612   10.5924   91.6143 O   0  0  0  0  0  0  0  0  0  0  0  0
   97.2178   11.6486   91.7181 C   0  0  1  0  0  0  0  0  0  0  0  0
   97.4390   10.9996   90.6591 O   0  0  0  0  0  0  0  0  0  0  0  0
   97.6950   13.0877   91.5216 C   0  0  2  0  0  0  0  0  0  0  0  0
   98.3839   16.8652   94.9407 N   0  0  0  0  0  0  0  0  0  0  0  0
   97.3719   16.7486   94.0411 C   0  0  0  0  0  0  0  0  0  0  0  0
   97.3774   15.6832   93.2491 N   0  0  0  0  0  0  0  0  0  0  0  0
   98.3517   14.7485   93.2372 C   0  0  0  0  0  0  0  0  0  0  0  0
   99.4190   14.8353   94.1566 C   0  0  0  0  0  0  0  0  0  0  0  0
   99.3920   15.9762   95.0208 C   0  0  0  0  0  0  0  0  0  0  0  0
  100.4434   16.1580   95.9671 N   0  0  0  0  0  0  0  0  0  0  0  0
  100.1637   13.8057   93.9536 N   0  0  0  0  0  0  0  0  0  0  0  0
   99.6276   13.0736   92.9926 C   0  0  0  0  0  0  0  0  0  0  0  0
   98.5597   13.6242   92.5367 N   0  0  0  0  0  0  0  0  0  0  0  0
  1 24  1  0  0  0  0
  1  4  2  0  0  0  0
  2 13  1  0  0  0  0
  2 21  1  0  0  0  0
  3 16  1  0  0  0  0
  4 18  1  0  0  0  0
  5 19  2  0  0  0  0
  5 16  1  0  0  0  0
  6 16  2  0  0  0  0
  6 17  1  0  0  0  0
  7 17  1  0  0  0  0
 11 25  2  0  0  0  0
 12 26  2  0  0  0  0
 13 25  1  0  0  0  0
 14 23  1  0  0  0  0
 15 26  1  0  0  0  0
 17 18  2  0  0  0  0
 18 19  1  0  0  0  0
 19 24  1  0  0  0  0
 20 10  1  6  0  0  0
 20 22  1  0  0  0  0
 20 23  1  0  0  0  0
 21 14  1  1  0  0  0
 21 22  1  0  0  0  0
 22 15  1  6  0  0  0
 23 24  1  6  0  0  0
 25  8  1  6  0  0  0
 25 32  1  0  0  0  0
 26  9  1  6  0  0  0
 26 28  1  0  0  0  0
 27 28  1  0  0  0  0
 29 27  1  1  0  0  0
 29 30  1  0  0  0  0
 29 31  1  0  0  0  0
 30 35  1  0  0  0  0
 31 33  1  0  0  0  0
 31 32  1  6  0  0  0
 33 34  1  6  0  0  0
 33 35  1  0  0  0  0
 35 45  1  1  0  0  0
 36 41  2  0  0  0  0
 36 37  1  0  0  0  0
 37 38  2  0  0  0  0
 38 39  1  0  0  0  0
 39 40  2  0  0  0  0
 39 45  1  0  0  0  0
 40 41  1  0  0  0  0
 40 43  1  0  0  0  0
 41 42  1  0  0  0  0
 43 44  2  0  0  0  0
 44 45  1  0  0  0  0
M  CHG  4   8  -1   9  -1  11  -1  12  -1
M  END
>  <CHROM.1>
41.27462511,1.05882821,95.50766409,12.36943242,94.91475078,1.98828461,0.73636202
1.67988894

>  <Name>
ligand

>  <RI>
0

>  <Rbt.Current_Directory>
/home/itssahil/PROJECTS/Mol_Feturizer/New_Systems/rnas/4YAZ

>  <Rbt.Executable>
rbdock ($Id: //depot/dev/client3/rdock/2013.1/src/exe/rbdock.cxx#4 $)

>  <Rbt.Library>
libRbt.so (2013.1, Build901 2013/11/27)

>  <Rbt.Parameter_File>
/export/apps/rDock/src/rDock_2013.1_src/data/scripts/dock_solv.prm

>  <Rbt.Receptor>
prm/pocket_docking_5.prm

>  <SCORE>
-25.6154

>  <SCORE.INTER>
-24.6095

>  <SCORE.INTER.CONST>
1

>  <SCORE.INTER.POLAR>
0

>  <SCORE.INTER.ROT>
2

>  <SCORE.INTER.SOLV>
30.3399

>  <SCORE.INTER.VDW>
-31.453

>  <SCORE.INTER.norm>
-0.546878

>  <SCORE.INTRA>
-1.00586

>  <SCORE.INTRA.DIHEDRAL>
0.0219799

>  <SCORE.INTRA.DIHEDRAL.0>
2.39103

>  <SCORE.INTRA.POLAR>
0

>  <SCORE.INTRA.POLAR.0>
0

>  <SCORE.INTRA.REPUL>
0

>  <SCORE.INTRA.REPUL.0>
0

>  <SCORE.INTRA.SOLV>
0.315166

>  <SCORE.INTRA.SOLV.lig_0>
-163.975

>  <SCORE.INTRA.VDW>
-1.17443

>  <SCORE.INTRA.VDW.0>
-1.49176

>  <SCORE.INTRA.norm>
-0.0223524

>  <SCORE.RESTR>
0

>  <SCORE.RESTR.CAVITY>
0

>  <SCORE.RESTR.norm>
0

>  <SCORE.SYSTEM>
0

>  <SCORE.SYSTEM.CONST>
0

>  <SCORE.SYSTEM.DIHEDRAL>
0

>  <SCORE.SYSTEM.SOLV>
0

>  <SCORE.SYSTEM.norm>
0

>  <SCORE.heavy>
45

>  <SCORE.norm>
-0.569231

>  <RMSD>
7.319

$$$$
ligand
 OpenBabel11021811513D
libRbt.so/2013.1/901 2013/11/27
 45 51  0  0  0  0  0  0  0  0999 V2000
   95.1408   10.4756   96.8095 C   0  0  0  0  0  0  0  0  0  0  0  0
   92.9450   10.6736   93.5770 C   0  0  0  0  0  0  0  0  0  0  0  0
   94.2784   11.2374  102.3843 N   0  0  0  0  0  0  0  0  0  0  0  0
   96.1923   10.1424   97.4851 N   0  0  0  0  0  0  0  0  0  0  0  0
   94.1203   11.1377  100.0559 N   0  0  0  0  0  0  0  0  0  0  0  0
   96.0891   10.4853  101.1112 N   0  0  0  0  0  0  0  0  0  0  0  0
   97.9483    9.6480   99.8396 O   0  0  0  0  0  0  0  0  0  0  0  0
   94.2526    8.3296   92.0364 O   0  5  0  0  0  0  0  0  0  0  0  0
   92.8315   15.6852   93.4400 O   0  5  0  0  0  0  0  0  0  0  0  0
   92.0163   13.4379   96.8932 O   0  0  0  0  0  0  0  0  0  0  0  0
   96.1610    8.9682   92.9871 O   0  5  0  0  0  0  0  0  0  0  0  0
   94.0722   15.2917   95.2571 O   0  5  0  0  0  0  0  0  0  0  0  0
   93.9607    9.7951   93.8545 O   0  0  0  0  0  0  0  0  0  0  0  0
   92.4242   10.4743   96.0629 O   0  0  0  0  0  0  0  0  0  0  0  0
   92.5191   13.5017   94.3175 O   0  0  0  0  0  0  0  0  0  0  0  0
   94.8637   10.9480  101.1145 C   0  0  0  0  0  0  0  0  0  0  0  0
   96.6590   10.1638   99.9576 C   0  0  0  0  0  0  0  0  0  0  0  0
   95.9246   10.3602   98.7663 C   0  0  0  0  0  0  0  0  0  0  0  0
   94.6408   10.8416   98.8424 C   0  0  0  0  0  0  0  0  0  0  0  0
   93.0400   12.5598   96.6086 C   0  0  2  0  0  0  0  0  0  0  0  0
   92.4312   11.3385   94.7902 C   0  0  1  0  0  0  0  0  0  0  0  0
   93.0761   12.3857   95.0019 C   0  0  1  0  0  0  0  0  0  0  0  0
   92.9521   11.3615   97.1554 C   0  0  2  0  0  0  0  0  0  0  0  0
   94.2119   10.9051   97.5813 N   0  0  0  0  0  0  0  0  0  0  0  0
   94.8678    9.4413   92.6362 P   0  0  2  0  0  0  0  0  0  0  0  0
   93.5194   14.6526   94.0881 P   0  0  1  0  0  0  0  0  0  0  0  0
   94.2495   13.4560   91.8842 C   0  0  0  0  0  0  0  0  0  0  0  0
   94.6091   14.1806   93.0715 O   0  0  0  0  0  0  0  0  0  0  0  0
   95.3581   12.7398   91.2357 C   0  0  1  0  0  0  0  0  0  0  0  0
   96.6393   13.7101   91.2291 O   0  0  0  0  0  0  0  0  0  0  0  0
   95.6918   11.7449   91.9274 C   0  0  1  0  0  0  0  0  0  0  0  0
   94.9282   10.5635   91.5918 O   0  0  0  0  0  0  0  0  0  0  0  0
   97.1881   11.6137   91.6865 C   0  0  1  0  0  0  0  0  0  0  0  0
   97.4034   10.9637   90.6268 O   0  0  0  0  0  0  0  0  0  0  0  0
   97.6684   13.0514   91.4877 C   0  0  2  0  0  0  0  0  0  0  0  0
   98.3818   16.8293   94.9013 N   0  0  0  0  0  0  0  0  0  0  0  0
   97.3662   16.7153   94.0055 C   0  0  0  0  0  0  0  0  0  0  0  0
   97.3654   15.6493   93.2143 N   0  0  0  0  0  0  0  0  0  0  0  0
   98.3366   14.7114   93.1996 C   0  0  0  0  0  0  0  0  0  0  0  0
   99.4074   14.7954   94.1152 C   0  0  0  0  0  0  0  0  0  0  0  0
   99.3873   15.9370   94.9786 C   0  0  0  0  0  0  0  0  0  0  0  0
  100.4426   16.1162   95.9209 N   0  0  0  0  0  0  0  0  0  0  0  0
  100.1480   13.7632   93.9103 N   0  0  0  0  0  0  0  0  0  0  0  0
   99.6061   13.0321   92.9518 C   0  0  0  0  0  0  0  0  0  0  0  0
   98.5384   13.5859   92.4993 N   0  0  0  0  0  0  0  0  0  0  0  0
  1 24  1  0  0  0  0
  1  4  2  0  0  0  0
  2 13  1  0  0  0  0
  2 21  1  0  0  0  0
  3 16  1  0  0  0  0
  4 18  1  0  0  0  0
  5 19  2  0  0  0  0
  5 16  1  0  0  0  0
  6 16  2  0  0  0  0
  6 17  1  0  0  0  0
  7 17  1  0  0  0  0
 11 25  2  0  0  0  0
 12 26  2  0  0  0  0
 13 25  1  0  0  0  0
 14 23  1  0  0  0  0
 15 26  1  0  0  0  0
 17 18  2  0  0  0  0
 18 19  1  0  0  0  0
 19 24  1  0  0  0  0
 20 10  1  6  0  0  0
 20 22  1  0  0  0  0
 20 23  1  0  0  0  0
 21 14  1  1  0  0  0
 21 22  1  0  0  0  0
 22 15  1  6  0  0  0
 23 24  1  6  0  0  0
 25  8  1  6  0  0  0
 25 32  1  0  0  0  0
 26  9  1  6  0  0  0
 26 28  1  0  0  0  0
 27 28  1  0  0  0  0
 29 27  1  1  0  0  0
 29 30  1  0  0  0  0
 29 31  1  0  0  0  0
 30 35  1  0  0  0  0
 31 33  1  0  0  0  0
 31 32  1  6  0  0  0
 33 34  1  6  0  0  0
 33 35  1  0  0  0  0
 35 45  1  1  0  0  0
 36 41  2  0  0  0  0
 36 37  1  0  0  0  0
 37 38  2  0  0  0  0
 38 39  1  0  0  0  0
 39 40  2  0  0  0  0
 39 45  1  0  0  0  0
 40 41  1  0  0  0  0
 40 43  1  0  0  0  0
 41 42  1  0  0  0  0
 43 44  2  0  0  0  0
 44 45  1  0  0  0  0
M  CHG  4   8  -1   9  -1  11  -1  12  -1
M  END
>  <CHROM.1>
41.12419725,1.01029390,95.49263620,12.34080164,94.88932802,1.98335965,0.73340510
1.68222710

>  <Name>
ligand

>  <RI>
0

>  <Rbt.Current_Directory>
/home/itssahil/PROJECTS/Mol_Feturizer/New_Systems/rnas/4YAZ

>  <Rbt.Executable>
rbdock ($Id: //depot/dev/client3/rdock/2013.1/src/exe/rbdock.cxx#4 $)

>  <Rbt.Library>
libRbt.so (2013.1, Build901 2013/11/27)

>  <Rbt.Parameter_File>
/export/apps/rDock/src/rDock_2013.1_src/data/scripts/dock_solv.prm

>  <Rbt.Receptor>
prm/pocket_docking_5.prm

>  <SCORE>
-25.6734

>  <SCORE.INTER>
-24.6669

>  <SCORE.INTER.CONST>
1

>  <SCORE.INTER.POLAR>
0

>  <SCORE.INTER.ROT>
2

>  <SCORE.INTER.SOLV>
29.9395

>  <SCORE.INTER.VDW>
-31.3578

>  <SCORE.INTER.norm>
-0.548154

>  <SCORE.INTRA>
-1.00645

>  <SCORE.INTRA.DIHEDRAL>
0.0223506

>  <SCORE.INTRA.DIHEDRAL.0>
2.39103

>  <SCORE.INTRA.POLAR>
0

>  <SCORE.INTRA.POLAR.0>
0

>  <SCORE.INTRA.REPUL>
0

>  <SCORE.INTRA.REPUL.0>
0

>  <SCORE.INTRA.SOLV>
0.312416

>  <SCORE.INTRA.SOLV.lig_0>
-163.975

>  <SCORE.INTRA.VDW>
-1.17384

>  <SCORE.INTRA.VDW.0>
-1.49176

>  <SCORE.INTRA.norm>
-0.0223656

>  <SCORE.RESTR>
0

>  <SCORE.RESTR.CAVITY>
0

>  <SCORE.RESTR.norm>
0

>  <SCORE.SYSTEM>
0

>  <SCORE.SYSTEM.CONST>
0

>  <SCORE.SYSTEM.DIHEDRAL>
0

>  <SCORE.SYSTEM.SOLV>
0

>  <SCORE.SYSTEM.norm>
0

>  <SCORE.heavy>
45

>  <SCORE.norm>
-0.570519

>  <RMSD>
7.331

$$$$
ligand
 OpenBabel11021811513D
libRbt.so/2013.1/901 2013/11/27
 45 51  0  0  0  0  0  0  0  0999 V2000
   95.2788    9.8205   97.2118 C   0  0  0  0  0  0  0  0  0  0  0  0
   93.0610    8.7321   94.1598 C   0  0  0  0  0  0  0  0  0  0  0  0
   94.1978   11.3175  102.5964 N   0  0  0  0  0  0  0  0  0  0  0  0
   96.3645    9.8157   97.9151 N   0  0  0  0  0  0  0  0  0  0  0  0
   94.0984   10.8025  100.3201 N   0  0  0  0  0  0  0  0  0  0  0  0
   96.1400   10.7311  101.4348 N   0  0  0  0  0  0  0  0  0  0  0  0
   98.1463   10.0721  100.2880 O   0  0  0  0  0  0  0  0  0  0  0  0
   94.7373    6.3106   93.2093 O   0  5  0  0  0  0  0  0  0  0  0  0
   92.1224   13.4560   92.7626 O   0  5  0  0  0  0  0  0  0  0  0  0
   91.6889   12.0708   96.7038 O   0  0  0  0  0  0  0  0  0  0  0  0
   96.5142    7.4677   93.8856 O   0  5  0  0  0  0  0  0  0  0  0  0
   93.4109   13.7454   94.5659 O   0  5  0  0  0  0  0  0  0  0  0  0
   94.2076    8.1279   94.6076 O   0  0  0  0  0  0  0  0  0  0  0  0
   92.5801    9.0977   96.6349 O   0  0  0  0  0  0  0  0  0  0  0  0
   92.1743   11.5502   94.1771 O   0  0  0  0  0  0  0  0  0  0  0  0
   94.8480   10.9402  101.3824 C   0  0  0  0  0  0  0  0  0  0  0  0
   96.7795   10.3392  100.3410 C   0  0  0  0  0  0  0  0  0  0  0  0
   96.0395   10.1876   99.1467 C   0  0  0  0  0  0  0  0  0  0  0  0
   94.6855   10.4155   99.1639 C   0  0  0  0  0  0  0  0  0  0  0  0
   92.8434   11.3239   96.6078 C   0  0  2  0  0  0  0  0  0  0  0  0
   92.4445    9.5956   95.1856 C   0  0  1  0  0  0  0  0  0  0  0  0
   92.9077   10.7510   95.0976 C   0  0  1  0  0  0  0  0  0  0  0  0
   92.9544   10.3081   97.4436 C   0  0  2  0  0  0  0  0  0  0  0  0
   94.2722   10.1832   97.9175 N   0  0  0  0  0  0  0  0  0  0  0  0
   95.1607    7.6224   93.4814 P   0  0  2  0  0  0  0  0  0  0  0  0
   92.9711   12.7478   93.6214 P   0  0  1  0  0  0  0  0  0  0  0  0
   93.8886   11.1575   91.7637 C   0  0  0  0  0  0  0  0  0  0  0  0
   94.1238   12.2105   92.7123 O   0  0  0  0  0  0  0  0  0  0  0  0
   95.1002   10.4850   91.2715 C   0  0  1  0  0  0  0  0  0  0  0  0
   96.2038   11.6124   90.9650 O   0  0  0  0  0  0  0  0  0  0  0  0
   95.5935    9.7675   92.1779 C   0  0  1  0  0  0  0  0  0  0  0  0
   95.0352    8.4334   92.1851 O   0  0  0  0  0  0  0  0  0  0  0  0
   97.0908    9.8191   91.9149 C   0  0  1  0  0  0  0  0  0  0  0  0
   97.4105    8.9617   91.0463 O   0  0  0  0  0  0  0  0  0  0  0  0
   97.3274   11.2150   91.3383 C   0  0  2  0  0  0  0  0  0  0  0  0
   97.3843   14.1073   95.5886 N   0  0  0  0  0  0  0  0  0  0  0  0
   96.3409   13.3842   95.1034 C   0  0  0  0  0  0  0  0  0  0  0  0
   96.5412   12.6953   93.9864 N   0  0  0  0  0  0  0  0  0  0  0  0
   97.6873   12.7186   93.2729 C   0  0  0  0  0  0  0  0  0  0  0  0
   98.7931   13.4578   93.7447 C   0  0  0  0  0  0  0  0  0  0  0  0
   98.5736   14.1794   94.9614 C   0  0  0  0  0  0  0  0  0  0  0  0
   99.6289   14.9728   95.5006 N   0  0  0  0  0  0  0  0  0  0  0  0
   99.7483   13.2675   92.9038 N   0  0  0  0  0  0  0  0  0  0  0  0
   99.3267   12.4475   91.9568 C   0  0  0  0  0  0  0  0  0  0  0  0
   98.0973   12.1230   92.1436 N   0  0  0  0  0  0  0  0  0  0  0  0
  1 24  1  0  0  0  0
  1  4  2  0  0  0  0
  2 13  1  0  0  0  0
  2 21  1  0  0  0  0
  3 16  1  0  0  0  0
  4 18  1  0  0  0  0
  5 19  2  0  0  0  0
  5 16  1  0  0  0  0
  6 16  2  0  0  0  0
  6 17  1  0  0  0  0
  7 17  1  0  0  0  0
 11 25  2  0  0  0  0
 12 26  2  0  0  0  0
 13 25  1  0  0  0  0
 14 23  1  0  0  0  0
 15 26  1  0  0  0  0
 17 18  2  0  0  0  0
 18 19  1  0  0  0  0
 19 24  1  0  0  0  0
 20 10  1  6  0  0  0
 20 22  1  0  0  0  0
 20 23  1  0  0  0  0
 21 14  1  1  0  0  0
 21 22  1  0  0  0  0
 22 15  1  6  0  0  0
 23 24  1  6  0  0  0
 25  8  1  6  0  0  0
 25 32  1  0  0  0  0
 26  9  1  6  0  0  0
 26 28  1  0  0  0  0
 27 28  1  0  0  0  0
 29 27  1  1  0  0  0
 29 30  1  0  0  0  0
 29 31  1  0  0  0  0
 30 35  1  0  0  0  0
 31 33  1  0  0  0  0
 31 32  1  6  0  0  0
 33 34  1  6  0  0  0
 33 35  1  0  0  0  0
 35 45  1  1  0  0  0
 36 41  2  0  0  0  0
 36 37  1  0  0  0  0
 37 38  2  0  0  0  0
 38 39  1  0  0  0  0
 39 40  2  0  0  0  0
 39 45  1  0  0  0  0
 40 41  1  0  0  0  0
 40 43  1  0  0  0  0
 41 42  1  0  0  0  0
 43 44  2  0  0  0  0
 44 45  1  0  0  0  0
M  CHG  4   8  -1   9  -1  11  -1  12  -1
M  END
>  <CHROM.1>
46.75668398,53.61288293,95.29522478,10.90216687,95.05484767,1.79389623,0.63874924
1.49007497

>  <Name>
ligand

>  <RI>
0

>  <Rbt.Current_Directory>
/home/itssahil/PROJECTS/Mol_Feturizer/New_Systems/rnas/4YAZ

>  <Rbt.Executable>
rbdock ($Id: //depot/dev/client3/rdock/2013.1/src/exe/rbdock.cxx#4 $)

>  <Rbt.Library>
libRbt.so (2013.1, Build901 2013/11/27)

>  <Rbt.Parameter_File>
/export/apps/rDock/src/rDock_2013.1_src/data/scripts/dock_solv.prm

>  <Rbt.Receptor>
prm/pocket_docking_7.prm

>  <SCORE>
-23.2364

>  <SCORE.INTER>
-21.6257

>  <SCORE.INTER.CONST>
1

>  <SCORE.INTER.POLAR>
0

>  <SCORE.INTER.ROT>
2

>  <SCORE.INTER.SOLV>
19.7549

>  <SCORE.INTER.VDW>
-25.9355

>  <SCORE.INTER.norm>
-0.480572

>  <SCORE.INTRA>
-1.6107

>  <SCORE.INTRA.DIHEDRAL>
-0.0472965

>  <SCORE.INTRA.DIHEDRAL.0>
2.39103

>  <SCORE.INTRA.POLAR>
0

>  <SCORE.INTRA.POLAR.0>
0

>  <SCORE.INTRA.REPUL>
0

>  <SCORE.INTRA.REPUL.0>
0

>  <SCORE.INTRA.SOLV>
1.28581

>  <SCORE.INTRA.SOLV.lig_0>
-163.975

>  <SCORE.INTRA.VDW>
-2.22996

>  <SCORE.INTRA.VDW.0>
-1.49176

>  <SCORE.INTRA.norm>
-0.0357934

>  <SCORE.RESTR>
0

>  <SCORE.RESTR.CAVITY>
0

>  <SCORE.RESTR.norm>
0

>  <SCORE.SYSTEM>
0

>  <SCORE.SYSTEM.CONST>
0

>  <SCORE.SYSTEM.DIHEDRAL>
0

>  <SCORE.SYSTEM.SOLV>
0

>  <SCORE.SYSTEM.norm>
0

>  <SCORE.heavy>
45

>  <SCORE.norm>
-0.516366

>  <RMSD>
7.341

$$$$
ligand
 OpenBabel11021811513D
libRbt.so/2013.1/901 2013/11/27
 45 51  0  0  0  0  0  0  0  0999 V2000
   95.9680    9.9832   98.2337 C   0  0  0  0  0  0  0  0  0  0  0  0
   93.7437   10.9832   93.9460 C   0  0  0  0  0  0  0  0  0  0  0  0
   96.0444    5.2309   95.1012 N   0  0  0  0  0  0  0  0  0  0  0  0
   97.1396    9.4356   98.2611 N   0  0  0  0  0  0  0  0  0  0  0  0
   95.4758    7.1873   96.2437 N   0  0  0  0  0  0  0  0  0  0  0  0
   97.6406    6.3468   96.3943 N   0  0  0  0  0  0  0  0  0  0  0  0
   99.3237    7.5008   97.6631 O   0  0  0  0  0  0  0  0  0  0  0  0
   95.4696   10.2136   91.4953 O   0  5  0  0  0  0  0  0  0  0  0  0
   92.4603   15.0914   96.5198 O   0  5  0  0  0  0  0  0  0  0  0  0
   92.3899   11.2183   98.1428 O   0  0  0  0  0  0  0  0  0  0  0  0
   97.2286   10.6479   92.7879 O   0  5  0  0  0  0  0  0  0  0  0  0
   93.8608   14.0699   97.9309 O   0  5  0  0  0  0  0  0  0  0  0  0
   94.9500   10.3510   93.7864 O   0  0  0  0  0  0  0  0  0  0  0  0
   93.4273    9.3591   95.8833 O   0  0  0  0  0  0  0  0  0  0  0  0
   92.7151   12.7772   96.0559 O   0  0  0  0  0  0  0  0  0  0  0  0
   96.4026    6.3074   95.9680 C   0  0  0  0  0  0  0  0  0  0  0  0
   98.0295    7.3510   97.1684 C   0  0  0  0  0  0  0  0  0  0  0  0
   97.0776    8.3320   97.5270 C   0  0  0  0  0  0  0  0  0  0  0  0
   95.7981    8.2344   97.0381 C   0  0  0  0  0  0  0  0  0  0  0  0
   93.5716   10.8924   97.5124 C   0  0  2  0  0  0  0  0  0  0  0  0
   93.1599   10.7493   95.2811 C   0  0  1  0  0  0  0  0  0  0  0  0
   93.5547   11.6288   96.0735 C   0  0  1  0  0  0  0  0  0  0  0  0
   93.7963    9.6060   97.3193 C   0  0  2  0  0  0  0  0  0  0  0  0
   95.1500    9.2906   97.5307 N   0  0  0  0  0  0  0  0  0  0  0  0
   95.8429   10.9286   92.6457 P   0  0  2  0  0  0  0  0  0  0  0  0
   93.4054   14.0597   96.5622 P   0  0  1  0  0  0  0  0  0  0  0  0
   94.2659   14.4478   94.1268 C   0  0  0  0  0  0  0  0  0  0  0  0
   94.5148   14.4737   95.5414 O   0  0  0  0  0  0  0  0  0  0  0  0
   95.4714   14.4691   93.2850 C   0  0  1  0  0  0  0  0  0  0  0  0
   96.4893   15.5483   93.9032 O   0  0  0  0  0  0  0  0  0  0  0  0
   96.0666   13.3644   93.3562 C   0  0  1  0  0  0  0  0  0  0  0  0
   95.5805   12.4164   92.3782 O   0  0  0  0  0  0  0  0  0  0  0  0
   97.5359   13.7267   93.2020 C   0  0  1  0  0  0  0  0  0  0  0  0
   97.8352   13.8221   91.9801 O   0  0  0  0  0  0  0  0  0  0  0  0
   97.6565   15.1073   93.8472 C   0  0  2  0  0  0  0  0  0  0  0  0
   97.8856   16.9918   98.6253 N   0  0  0  0  0  0  0  0  0  0  0  0
   96.9183   17.2223   97.6991 C   0  0  0  0  0  0  0  0  0  0  0  0
   97.0469   16.6271   96.5193 N   0  0  0  0  0  0  0  0  0  0  0  0
   98.1025   15.8647   96.1624 C   0  0  0  0  0  0  0  0  0  0  0  0
   99.1270   15.6024   97.0971 C   0  0  0  0  0  0  0  0  0  0  0  0
   98.9677   16.2311   98.3733 C   0  0  0  0  0  0  0  0  0  0  0  0
   99.9669   16.0405   99.3730 N   0  0  0  0  0  0  0  0  0  0  0  0
   99.9689   14.8254   96.5113 N   0  0  0  0  0  0  0  0  0  0  0  0
   99.5335   14.5666   95.2905 C   0  0  0  0  0  0  0  0  0  0  0  0
   98.4351   15.1897   95.0526 N   0  0  0  0  0  0  0  0  0  0  0  0
  1 24  1  0  0  0  0
  1  4  2  0  0  0  0
  2 13  1  0  0  0  0
  2 21  1  0  0  0  0
  3 16  1  0  0  0  0
  4 18  1  0  0  0  0
  5 19  2  0  0  0  0
  5 16  1  0  0  0  0
  6 16  2  0  0  0  0
  6 17  1  0  0  0  0
  7 17  1  0  0  0  0
 11 25  2  0  0  0  0
 12 26  2  0  0  0  0
 13 25  1  0  0  0  0
 14 23  1  0  0  0  0
 15 26  1  0  0  0  0
 17 18  2  0  0  0  0
 18 19  1  0  0  0  0
 19 24  1  0  0  0  0
 20 10  1  6  0  0  0
 20 22  1  0  0  0  0
 20 23  1  0  0  0  0
 21 14  1  1  0  0  0
 21 22  1  0  0  0  0
 22 15  1  1  0  0  0
 23 24  1  6  0  0  0
 25  8  1  6  0  0  0
 25 32  1  0  0  0  0
 26  9  1  6  0  0  0
 26 28  1  0  0  0  0
 27 28  1  0  0  0  0
 29 27  1  1  0  0  0
 29 30  1  0  0  0  0
 29 31  1  0  0  0  0
 30 35  1  0  0  0  0
 31 33  1  0  0  0  0
 31 32  1  6  0  0  0
 33 34  1  6  0  0  0
 33 35  1  0  0  0  0
 35 45  1  1  0  0  0
 36 41  2  0  0  0  0
 36 37  1  0  0  0  0
 37 38  2  0  0  0  0
 38 39  1  0  0  0  0
 39 40  2  0  0  0  0
 39 45  1  0  0  0  0
 40 41  1  0  0  0  0
 40 43  1  0  0  0  0
 41 42  1  0  0  0  0
 43 44  2  0  0  0  0
 44 45  1  0  0  0  0
M  CHG  4   8  -1   9  -1  11  -1  12  -1
M  END
>  <CHROM.1>
138.12598162,-10.47039786,95.96237530,12.11670091,95.68476829,-1.79683503
-0.62206361,-0.11524629

>  <Name>
ligand

>  <RI>
0

>  <Rbt.Current_Directory>
/home/itssahil/PROJECTS/Mol_Feturizer/New_Systems/rnas/4YAZ

>  <Rbt.Executable>
rbdock ($Id: //depot/dev/client3/rdock/2013.1/src/exe/rbdock.cxx#4 $)

>  <Rbt.Library>
libRbt.so (2013.1, Build901 2013/11/27)

>  <Rbt.Parameter_File>
/export/apps/rDock/src/rDock_2013.1_src/data/scripts/dock_solv.prm

>  <Rbt.Receptor>
prm/pocket_docking_8.prm

>  <SCORE>
-22.8039

>  <SCORE.INTER>
-23.4997

>  <SCORE.INTER.CONST>
1

>  <SCORE.INTER.POLAR>
0

>  <SCORE.INTER.ROT>
2

>  <SCORE.INTER.SOLV>
25.4516

>  <SCORE.INTER.VDW>
-29.0837

>  <SCORE.INTER.norm>
-0.522215

>  <SCORE.INTRA>
0.695733

>  <SCORE.INTRA.DIHEDRAL>
0.0978949

>  <SCORE.INTRA.DIHEDRAL.0>
2.39103

>  <SCORE.INTRA.POLAR>
0

>  <SCORE.INTRA.POLAR.0>
0

>  <SCORE.INTRA.REPUL>
0

>  <SCORE.INTRA.REPUL.0>
0

>  <SCORE.INTRA.SOLV>
0.0576349

>  <SCORE.INTRA.SOLV.lig_0>
-163.975

>  <SCORE.INTRA.VDW>
0.617968

>  <SCORE.INTRA.VDW.0>
-1.49176

>  <SCORE.INTRA.norm>
0.0154607

>  <SCORE.RESTR>
0

>  <SCORE.RESTR.CAVITY>
0

>  <SCORE.RESTR.norm>
0

>  <SCORE.SYSTEM>
0

>  <SCORE.SYSTEM.CONST>
0

>  <SCORE.SYSTEM.DIHEDRAL>
0

>  <SCORE.SYSTEM.SOLV>
0

>  <SCORE.SYSTEM.norm>
0

>  <SCORE.heavy>
45

>  <SCORE.norm>
-0.506754

>  <RMSD>
7.354

$$$$
ligand
 OpenBabel11021811513D
libRbt.so/2013.1/901 2013/11/27
 45 51  0  0  0  0  0  0  0  0999 V2000
   94.9922   10.2103   96.5598 C   0  0  0  0  0  0  0  0  0  0  0  0
   92.8137   10.4827   93.3266 C   0  0  0  0  0  0  0  0  0  0  0  0
   94.2419   11.1692  102.1205 N   0  0  0  0  0  0  0  0  0  0  0  0
   96.0648    9.9219   97.2230 N   0  0  0  0  0  0  0  0  0  0  0  0
   94.0331   10.9777   99.8018 N   0  0  0  0  0  0  0  0  0  0  0  0
   96.0372   10.4014  100.8349 N   0  0  0  0  0  0  0  0  0  0  0  0
   97.8825    9.5495   99.5529 O   0  0  0  0  0  0  0  0  0  0  0  0
   94.2134    8.2374   91.7212 O   0  5  0  0  0  0  0  0  0  0  0  0
   92.4988   15.4876   93.3305 O   0  5  0  0  0  0  0  0  0  0  0  0
   91.7771   13.1131   96.7188 O   0  0  0  0  0  0  0  0  0  0  0  0
   96.0952    8.9252   92.6903 O   0  5  0  0  0  0  0  0  0  0  0  0
   93.7556   15.0933   95.1363 O   0  5  0  0  0  0  0  0  0  0  0  0
   93.8641    9.6382   93.5797 O   0  0  0  0  0  0  0  0  0  0  0  0
   92.3031   10.1929   95.8057 O   0  0  0  0  0  0  0  0  0  0  0  0
   92.2749   13.2695   94.1462 O   0  0  0  0  0  0  0  0  0  0  0  0
   94.8036   10.8419  100.8493 C   0  0  0  0  0  0  0  0  0  0  0  0
   96.5867   10.0463   99.6813 C   0  0  0  0  0  0  0  0  0  0  0  0
   95.8220   10.1838   98.5009 C   0  0  0  0  0  0  0  0  0  0  0  0
   94.5315   10.6447   98.5886 C   0  0  0  0  0  0  0  0  0  0  0  0
   92.8350   12.2852   96.4100 C   0  0  2  0  0  0  0  0  0  0  0  0
   92.2745   11.0920   94.5577 C   0  0  1  0  0  0  0  0  0  0  0  0
   92.8769   12.1579   94.7991 C   0  0  1  0  0  0  0  0  0  0  0  0
   92.7957   11.0695   96.9229 C   0  0  2  0  0  0  0  0  0  0  0  0
   94.0732   10.6522   97.3363 N   0  0  0  0  0  0  0  0  0  0  0  0
   94.7838    9.3556   92.3523 P   0  0  2  0  0  0  0  0  0  0  0  0
   93.2280   14.4657   93.9496 P   0  0  1  0  0  0  0  0  0  0  0  0
   94.0041   13.3618   91.7132 C   0  0  0  0  0  0  0  0  0  0  0  0
   94.3351   14.0666   92.9205 O   0  0  0  0  0  0  0  0  0  0  0  0
   95.1401   12.7092   91.0453 C   0  0  1  0  0  0  0  0  0  0  0  0
   96.3812   13.7300   91.0664 O   0  0  0  0  0  0  0  0  0  0  0  0
   95.5141   11.7094   91.7089 C   0  0  1  0  0  0  0  0  0  0  0  0
   94.7983   10.5082   91.3398 O   0  0  0  0  0  0  0  0  0  0  0  0
   97.0142   11.6453   91.4649 C   0  0  1  0  0  0  0  0  0  0  0  0
   97.2547   11.0346   90.3875 O   0  0  0  0  0  0  0  0  0  0  0  0
   97.4361   13.1062   91.3069 C   0  0  2  0  0  0  0  0  0  0  0  0
   97.9428   16.7358   94.9129 N   0  0  0  0  0  0  0  0  0  0  0  0
   96.9213   16.5975   94.0272 C   0  0  0  0  0  0  0  0  0  0  0  0
   96.9815   15.5785   93.1785 N   0  0  0  0  0  0  0  0  0  0  0  0
   98.0165   14.7152   93.0977 C   0  0  0  0  0  0  0  0  0  0  0  0
   99.0956   14.8265   94.0006 C   0  0  0  0  0  0  0  0  0  0  0  0
   99.0104   15.9155   94.9259 C   0  0  0  0  0  0  0  0  0  0  0  0
  100.0679   16.1190   95.8610 N   0  0  0  0  0  0  0  0  0  0  0  0
   99.9038   13.8630   93.7281 N   0  0  0  0  0  0  0  0  0  0  0  0
   99.3974   13.1475   92.7388 C   0  0  0  0  0  0  0  0  0  0  0  0
   98.2847   13.6466   92.3334 N   0  0  0  0  0  0  0  0  0  0  0  0
  1 24  1  0  0  0  0
  1  4  2  0  0  0  0
  2 13  1  0  0  0  0
  2 21  1  0  0  0  0
  3 16  1  0  0  0  0
  4 18  1  0  0  0  0
  5 19  2  0  0  0  0
  5 16  1  0  0  0  0
  6 16  2  0  0  0  0
  6 17  1  0  0  0  0
  7 17  1  0  0  0  0
 11 25  2  0  0  0  0
 12 26  2  0  0  0  0
 13 25  1  0  0  0  0
 14 23  1  0  0  0  0
 15 26  1  0  0  0  0
 17 18  2  0  0  0  0
 18 19  1  0  0  0  0
 19 24  1  0  0  0  0
 20 10  1  6  0  0  0
 20 22  1  0  0  0  0
 20 23  1  0  0  0  0
 21 14  1  1  0  0  0
 21 22  1  0  0  0  0
 22 15  1  6  0  0  0
 23 24  1  6  0  0  0
 25  8  1  6  0  0  0
 25 32  1  0  0  0  0
 26  9  1  6  0  0  0
 26 28  1  0  0  0  0
 27 28  1  0  0  0  0
 29 27  1  1  0  0  0
 29 30  1  0  0  0  0
 29 31  1  0  0  0  0
 30 35  1  0  0  0  0
 31 33  1  0  0  0  0
 31 32  1  6  0  0  0
 33 34  1  6  0  0  0
 33 35  1  0  0  0  0
 35 45  1  1  0  0  0
 36 41  2  0  0  0  0
 36 37  1  0  0  0  0
 37 38  2  0  0  0  0
 38 39  1  0  0  0  0
 39 40  2  0  0  0  0
 39 45  1  0  0  0  0
 40 41  1  0  0  0  0
 40 43  1  0  0  0  0
 41 42  1  0  0  0  0
 43 44  2  0  0  0  0
 44 45  1  0  0  0  0
M  CHG  4   8  -1   9  -1  11  -1  12  -1
M  END
>  <CHROM.1>
36.92242377,3.55379340,95.29662102,12.22872824,94.69097398,1.95659155,0.77082864
1.69641239

>  <Name>
ligand

>  <RI>
0

>  <Rbt.Current_Directory>
/home/itssahil/PROJECTS/Mol_Feturizer/New_Systems/rnas/4YAZ

>  <Rbt.Executable>
rbdock ($Id: //depot/dev/client3/rdock/2013.1/src/exe/rbdock.cxx#4 $)

>  <Rbt.Library>
libRbt.so (2013.1, Build901 2013/11/27)

>  <Rbt.Parameter_File>
/export/apps/rDock/src/rDock_2013.1_src/data/scripts/dock_solv.prm

>  <Rbt.Receptor>
prm/pocket_docking_6.prm

>  <SCORE>
-25.6291

>  <SCORE.INTER>
-24.6106

>  <SCORE.INTER.CONST>
1

>  <SCORE.INTER.POLAR>
0

>  <SCORE.INTER.ROT>
2

>  <SCORE.INTER.SOLV>
27.3307

>  <SCORE.INTER.VDW>
-30.4506

>  <SCORE.INTER.norm>
-0.546902

>  <SCORE.INTRA>
-1.01847

>  <SCORE.INTRA.DIHEDRAL>
0.00470059

>  <SCORE.INTRA.DIHEDRAL.0>
2.39103

>  <SCORE.INTRA.POLAR>
0

>  <SCORE.INTRA.POLAR.0>
0

>  <SCORE.INTRA.REPUL>
0

>  <SCORE.INTRA.REPUL.0>
0

>  <SCORE.INTRA.SOLV>
0.4529

>  <SCORE.INTRA.SOLV.lig_0>
-163.975

>  <SCORE.INTRA.VDW>
-1.24727

>  <SCORE.INTRA.VDW.0>
-1.49176

>  <SCORE.INTRA.norm>
-0.0226327

>  <SCORE.RESTR>
0

>  <SCORE.RESTR.CAVITY>
0

>  <SCORE.RESTR.norm>
0

>  <SCORE.SYSTEM>
0

>  <SCORE.SYSTEM.CONST>
0

>  <SCORE.SYSTEM.DIHEDRAL>
0

>  <SCORE.SYSTEM.SOLV>
0

>  <SCORE.SYSTEM.norm>
0

>  <SCORE.heavy>
45

>  <SCORE.norm>
-0.569535

>  <RMSD>
7.442

$$$$
ligand
 OpenBabel11021811513D
libRbt.so/2013.1/901 2013/11/27
 45 51  0  0  0  0  0  0  0  0999 V2000
   95.0334    9.7959   96.4730 C   0  0  0  0  0  0  0  0  0  0  0  0
   93.0060   10.2987   93.1616 C   0  0  0  0  0  0  0  0  0  0  0  0
   94.2871   11.1384  101.9543 N   0  0  0  0  0  0  0  0  0  0  0  0
   96.1138    9.5760   97.1495 N   0  0  0  0  0  0  0  0  0  0  0  0
   94.0728   10.7767   99.6565 N   0  0  0  0  0  0  0  0  0  0  0  0
   96.0915   10.3135  100.7177 N   0  0  0  0  0  0  0  0  0  0  0  0
   97.9475    9.4059   99.4905 O   0  0  0  0  0  0  0  0  0  0  0  0
   94.6061    8.2604   91.4696 O   0  5  0  0  0  0  0  0  0  0  0  0
   92.3626   15.2618   93.4801 O   0  5  0  0  0  0  0  0  0  0  0  0
   91.6795   12.6222   96.6748 O   0  0  0  0  0  0  0  0  0  0  0  0
   96.4033    8.9987   92.5554 O   0  5  0  0  0  0  0  0  0  0  0  0
   93.5781   14.8264   95.3047 O   0  5  0  0  0  0  0  0  0  0  0  0
   94.1001    9.5072   93.4004 O   0  0  0  0  0  0  0  0  0  0  0  0
   92.4284    9.8097   95.5943 O   0  0  0  0  0  0  0  0  0  0  0  0
   92.2565   12.9838   94.1396 O   0  0  0  0  0  0  0  0  0  0  0  0
   94.8499   10.7310  100.7069 C   0  0  0  0  0  0  0  0  0  0  0  0
   96.6431    9.8866   99.5897 C   0  0  0  0  0  0  0  0  0  0  0  0
   95.8713    9.9246   98.4065 C   0  0  0  0  0  0  0  0  0  0  0  0
   94.5726   10.3666   98.4677 C   0  0  0  0  0  0  0  0  0  0  0  0
   92.7998   11.8858   96.3547 C   0  0  2  0  0  0  0  0  0  0  0  0
   92.3847   10.7878   94.4076 C   0  0  1  0  0  0  0  0  0  0  0  0
   92.9068   11.8709   94.7418 C   0  0  1  0  0  0  0  0  0  0  0  0
   92.8225   10.6380   96.7851 C   0  0  2  0  0  0  0  0  0  0  0  0
   94.1092   10.2754   97.2206 N   0  0  0  0  0  0  0  0  0  0  0  0
   95.0792    9.3672   92.1946 P   0  0  2  0  0  0  0  0  0  0  0  0
   93.1352   14.2485   94.0595 P   0  0  1  0  0  0  0  0  0  0  0  0
   94.0606   13.3500   91.7883 C   0  0  0  0  0  0  0  0  0  0  0  0
   94.3018   13.9909   93.0512 O   0  0  0  0  0  0  0  0  0  0  0  0
   95.2600   12.8174   91.1247 C   0  0  1  0  0  0  0  0  0  0  0  0
   96.4298   13.9109   91.2616 O   0  0  0  0  0  0  0  0  0  0  0  0
   95.6753   11.8007   91.7358 C   0  0  1  0  0  0  0  0  0  0  0  0
   95.0535   10.5843   91.2609 O   0  0  0  0  0  0  0  0  0  0  0  0
   97.1840   11.8483   91.5478 C   0  0  1  0  0  0  0  0  0  0  0  0
   97.5021   11.3284   90.4431 O   0  0  0  0  0  0  0  0  0  0  0  0
   97.5143   13.3402   91.5024 C   0  0  2  0  0  0  0  0  0  0  0  0
   97.7838   16.9310   95.1723 N   0  0  0  0  0  0  0  0  0  0  0  0
   96.8303   16.8113   94.2115 C   0  0  0  0  0  0  0  0  0  0  0  0
   96.9442   15.7996   93.3594 N   0  0  0  0  0  0  0  0  0  0  0  0
   97.9741   14.9266   93.3477 C   0  0  0  0  0  0  0  0  0  0  0  0
   98.9836   15.0185   94.3298 C   0  0  0  0  0  0  0  0  0  0  0  0
   98.8397   16.0997   95.2569 C   0  0  0  0  0  0  0  0  0  0  0  0
   99.8260   16.2838   96.2705 N   0  0  0  0  0  0  0  0  0  0  0  0
   99.8008   14.0494   94.1088 N   0  0  0  0  0  0  0  0  0  0  0  0
   99.3631   13.3484   93.0773 C   0  0  0  0  0  0  0  0  0  0  0  0
   98.2887   13.8625   92.5949 N   0  0  0  0  0  0  0  0  0  0  0  0
  1 24  1  0  0  0  0
  1  4  2  0  0  0  0
  2 13  1  0  0  0  0
  2 21  1  0  0  0  0
  3 16  1  0  0  0  0
  4 18  1  0  0  0  0
  5 19  2  0  0  0  0
  5 16  1  0  0  0  0
  6 16  2  0  0  0  0
  6 17  1  0  0  0  0
  7 17  1  0  0  0  0
 11 25  2  0  0  0  0
 12 26  2  0  0  0  0
 13 25  1  0  0  0  0
 14 23  1  0  0  0  0
 15 26  1  0  0  0  0
 17 18  2  0  0  0  0
 18 19  1  0  0  0  0
 19 24  1  0  0  0  0
 20 10  1  6  0  0  0
 20 22  1  0  0  0  0
 20 23  1  0  0  0  0
 21 14  1  1  0  0  0
 21 22  1  0  0  0  0
 22 15  1  6  0  0  0
 23 24  1  6  0  0  0
 25  8  1  6  0  0  0
 25 32  1  0  0  0  0
 26  9  1  6  0  0  0
 26 28  1  0  0  0  0
 27 28  1  0  0  0  0
 29 27  1  1  0  0  0
 29 30  1  0  0  0  0
 29 31  1  0  0  0  0
 30 35  1  0  0  0  0
 31 33  1  0  0  0  0
 31 32  1  6  0  0  0
 33 34  1  6  0  0  0
 33 35  1  0  0  0  0
 35 45  1  1  0  0  0
 36 41  2  0  0  0  0
 36 37  1  0  0  0  0
 37 38  2  0  0  0  0
 38 39  1  0  0  0  0
 39 40  2  0  0  0  0
 39 45  1  0  0  0  0
 40 41  1  0  0  0  0
 40 43  1  0  0  0  0
 41 42  1  0  0  0  0
 43 44  2  0  0  0  0
 44 45  1  0  0  0  0
M  CHG  4   8  -1   9  -1  11  -1  12  -1
M  END
>  <CHROM.1>
28.21265058,-2.22920263,95.34318734,12.16153972,94.71475730,2.00991327,0.85152514
1.70090803

>  <Name>
ligand

>  <RI>
0

>  <Rbt.Current_Directory>
/home/itssahil/PROJECTS/Mol_Feturizer/New_Systems/rnas/4YAZ

>  <Rbt.Executable>
rbdock ($Id: //depot/dev/client3/rdock/2013.1/src/exe/rbdock.cxx#4 $)

>  <Rbt.Library>
libRbt.so (2013.1, Build901 2013/11/27)

>  <Rbt.Parameter_File>
/export/apps/rDock/src/rDock_2013.1_src/data/scripts/dock_solv.prm

>  <Rbt.Receptor>
prm/pocket_docking_7.prm

>  <SCORE>
-25.5281

>  <SCORE.INTER>
-24.6071

>  <SCORE.INTER.CONST>
1

>  <SCORE.INTER.POLAR>
0

>  <SCORE.INTER.ROT>
2

>  <SCORE.INTER.SOLV>
26.053

>  <SCORE.INTER.VDW>
-30.0224

>  <SCORE.INTER.norm>
-0.546823

>  <SCORE.INTRA>
-0.92104

>  <SCORE.INTRA.DIHEDRAL>
0.0461535

>  <SCORE.INTRA.DIHEDRAL.0>
2.39103

>  <SCORE.INTRA.POLAR>
0

>  <SCORE.INTRA.POLAR.0>
0

>  <SCORE.INTRA.REPUL>
0

>  <SCORE.INTRA.REPUL.0>
0

>  <SCORE.INTRA.SOLV>
0.123072

>  <SCORE.INTRA.SOLV.lig_0>
-163.975

>  <SCORE.INTRA.VDW>
-1.00565

>  <SCORE.INTRA.VDW.0>
-1.49176

>  <SCORE.INTRA.norm>
-0.0204676

>  <SCORE.RESTR>
0

>  <SCORE.RESTR.CAVITY>
0

>  <SCORE.RESTR.norm>
0

>  <SCORE.SYSTEM>
0

>  <SCORE.SYSTEM.CONST>
0

>  <SCORE.SYSTEM.DIHEDRAL>
0

>  <SCORE.SYSTEM.SOLV>
0

>  <SCORE.SYSTEM.norm>
0

>  <SCORE.heavy>
45

>  <SCORE.norm>
-0.567291

>  <RMSD>
7.474

$$$$
ligand
 OpenBabel11021811513D
libRbt.so/2013.1/901 2013/11/27
 45 51  0  0  0  0  0  0  0  0999 V2000
   94.9952    9.7288   96.4551 C   0  0  0  0  0  0  0  0  0  0  0  0
   92.9851   10.3331   93.1468 C   0  0  0  0  0  0  0  0  0  0  0  0
   94.3204   11.1334  101.9300 N   0  0  0  0  0  0  0  0  0  0  0  0
   96.0738    9.4854   97.1265 N   0  0  0  0  0  0  0  0  0  0  0  0
   94.0817   10.7597   99.6366 N   0  0  0  0  0  0  0  0  0  0  0  0
   96.0942   10.2510  100.6888 N   0  0  0  0  0  0  0  0  0  0  0  0
   97.9173    9.2847   99.4573 O   0  0  0  0  0  0  0  0  0  0  0  0
   94.5437    8.2841   91.4293 O   0  5  0  0  0  0  0  0  0  0  0  0
   92.4408   15.3038   93.5259 O   0  5  0  0  0  0  0  0  0  0  0  0
   91.7063   12.6398   96.6887 O   0  0  0  0  0  0  0  0  0  0  0  0
   96.3555    8.9732   92.5229 O   0  5  0  0  0  0  0  0  0  0  0  0
   93.6480   14.8222   95.3444 O   0  5  0  0  0  0  0  0  0  0  0  0
   94.0633    9.5171   93.3754 O   0  0  0  0  0  0  0  0  0  0  0  0
   92.3987    9.8263   95.5738 O   0  0  0  0  0  0  0  0  0  0  0  0
   92.2895   13.0206   94.1578 O   0  0  0  0  0  0  0  0  0  0  0  0
   94.8641   10.7014  100.6825 C   0  0  0  0  0  0  0  0  0  0  0  0
   96.6269    9.8007   99.5608 C   0  0  0  0  0  0  0  0  0  0  0  0
   95.8487    9.8501   98.3822 C   0  0  0  0  0  0  0  0  0  0  0  0
   94.5627   10.3271   98.4480 C   0  0  0  0  0  0  0  0  0  0  0  0
   92.8116   11.8851   96.3591 C   0  0  2  0  0  0  0  0  0  0  0  0
   92.3741   10.8194   94.3991 C   0  0  1  0  0  0  0  0  0  0  0  0
   92.9177   11.8877   94.7460 C   0  0  1  0  0  0  0  0  0  0  0  0
   92.8096   10.6320   96.7743 C   0  0  2  0  0  0  0  0  0  0  0  0
   94.0890   10.2386   97.2046 N   0  0  0  0  0  0  0  0  0  0  0  0
   95.0389    9.3723   92.1673 P   0  0  2  0  0  0  0  0  0  0  0  0
   93.1932   14.2684   94.0925 P   0  0  1  0  0  0  0  0  0  0  0  0
   94.0998   13.3793   91.8100 C   0  0  0  0  0  0  0  0  0  0  0  0
   94.3541   13.9999   93.0805 O   0  0  0  0  0  0  0  0  0  0  0  0
   95.2880   12.8311   91.1393 C   0  0  1  0  0  0  0  0  0  0  0  0
   96.4795   13.8993   91.2888 O   0  0  0  0  0  0  0  0  0  0  0  0
   95.6832   11.7989   91.7378 C   0  0  1  0  0  0  0  0  0  0  0  0
   95.0372   10.6010   91.2486 O   0  0  0  0  0  0  0  0  0  0  0  0
   97.1925   11.8187   91.5495 C   0  0  1  0  0  0  0  0  0  0  0  0
   97.4998   11.3061   90.4384 O   0  0  0  0  0  0  0  0  0  0  0  0
   97.5525   13.3042   91.5220 C   0  0  2  0  0  0  0  0  0  0  0  0
   97.9645   16.9251   95.1488 N   0  0  0  0  0  0  0  0  0  0  0  0
   97.0211   16.8454   94.1739 C   0  0  0  0  0  0  0  0  0  0  0  0
   97.0916   15.8172   93.3371 N   0  0  0  0  0  0  0  0  0  0  0  0
   98.0711   14.8881   93.3538 C   0  0  0  0  0  0  0  0  0  0  0  0
   99.0685   14.9372   94.3512 C   0  0  0  0  0  0  0  0  0  0  0  0
   98.9707   16.0375   95.2617 C   0  0  0  0  0  0  0  0  0  0  0  0
   99.9496   16.1805   96.2890 N   0  0  0  0  0  0  0  0  0  0  0  0
   99.8335   13.9210   94.1565 N   0  0  0  0  0  0  0  0  0  0  0  0
   99.3737   13.2312   93.1272 C   0  0  0  0  0  0  0  0  0  0  0  0
   98.3375   13.7976   92.6203 N   0  0  0  0  0  0  0  0  0  0  0  0
  1 24  1  0  0  0  0
  1  4  2  0  0  0  0
  2 13  1  0  0  0  0
  2 21  1  0  0  0  0
  3 16  1  0  0  0  0
  4 18  1  0  0  0  0
  5 19  2  0  0  0  0
  5 16  1  0  0  0  0
  6 16  2  0  0  0  0
  6 17  1  0  0  0  0
  7 17  1  0  0  0  0
 11 25  2  0  0  0  0
 12 26  2  0  0  0  0
 13 25  1  0  0  0  0
 14 23  1  0  0  0  0
 15 26  1  0  0  0  0
 17 18  2  0  0  0  0
 18 19  1  0  0  0  0
 19 24  1  0  0  0  0
 20 10  1  6  0  0  0
 20 22  1  0  0  0  0
 20 23  1  0  0  0  0
 21 14  1  1  0  0  0
 21 22  1  0  0  0  0
 22 15  1  6  0  0  0
 23 24  1  6  0  0  0
 25  8  1  6  0  0  0
 25 32  1  0  0  0  0
 26  9  1  6  0  0  0
 26 28  1  0  0  0  0
 27 28  1  0  0  0  0
 29 27  1  1  0  0  0
 29 30  1  0  0  0  0
 29 31  1  0  0  0  0
 30 35  1  0  0  0  0
 31 33  1  0  0  0  0
 31 32  1  6  0  0  0
 33 34  1  6  0  0  0
 33 35  1  0  0  0  0
 35 45  1  1  0  0  0
 36 41  2  0  0  0  0
 36 37  1  0  0  0  0
 37 38  2  0  0  0  0
 38 39  1  0  0  0  0
 39 40  2  0  0  0  0
 39 45  1  0  0  0  0
 40 41  1  0  0  0  0
 40 43  1  0  0  0  0
 41 42  1  0  0  0  0
 43 44  2  0  0  0  0
 44 45  1  0  0  0  0
M  CHG  4   8  -1   9  -1  11  -1  12  -1
M  END
>  <CHROM.1>
26.95599627,-4.93578151,95.36700132,12.14283390,94.71316501,2.02534522,0.83461127
1.70768875

>  <Name>
ligand

>  <RI>
0

>  <Rbt.Current_Directory>
/home/itssahil/PROJECTS/Mol_Feturizer/New_Systems/rnas/4YAZ

>  <Rbt.Executable>
rbdock ($Id: //depot/dev/client3/rdock/2013.1/src/exe/rbdock.cxx#4 $)

>  <Rbt.Library>
libRbt.so (2013.1, Build901 2013/11/27)

>  <Rbt.Parameter_File>
/export/apps/rDock/src/rDock_2013.1_src/data/scripts/dock_solv.prm

>  <Rbt.Receptor>
prm/pocket_docking_7.prm

>  <SCORE>
-25.6162

>  <SCORE.INTER>
-24.7724

>  <SCORE.INTER.CONST>
1

>  <SCORE.INTER.POLAR>
0

>  <SCORE.INTER.ROT>
2

>  <SCORE.INTER.SOLV>
25.8558

>  <SCORE.INTER.VDW>
-30.0668

>  <SCORE.INTER.norm>
-0.550497

>  <SCORE.INTRA>
-0.843818

>  <SCORE.INTRA.DIHEDRAL>
0.0645803

>  <SCORE.INTRA.DIHEDRAL.0>
2.39103

>  <SCORE.INTRA.POLAR>
0

>  <SCORE.INTRA.POLAR.0>
0

>  <SCORE.INTRA.REPUL>
0

>  <SCORE.INTRA.REPUL.0>
0

>  <SCORE.INTRA.SOLV>
-0.0197691

>  <SCORE.INTRA.SOLV.lig_0>
-163.975

>  <SCORE.INTRA.VDW>
-0.866224

>  <SCORE.INTRA.VDW.0>
-1.49176

>  <SCORE.INTRA.norm>
-0.0187515

>  <SCORE.RESTR>
0

>  <SCORE.RESTR.CAVITY>
0

>  <SCORE.RESTR.norm>
0

>  <SCORE.SYSTEM>
0

>  <SCORE.SYSTEM.CONST>
0

>  <SCORE.SYSTEM.DIHEDRAL>
0

>  <SCORE.SYSTEM.SOLV>
0

>  <SCORE.SYSTEM.norm>
0

>  <SCORE.heavy>
45

>  <SCORE.norm>
-0.569248

>  <RMSD>
7.478

$$$$
ligand
 OpenBabel11021811513D
libRbt.so/2013.1/901 2013/11/27
 45 51  0  0  0  0  0  0  0  0999 V2000
   95.0118    9.7691   96.4338 C   0  0  0  0  0  0  0  0  0  0  0  0
   92.9923   10.3363   93.1284 C   0  0  0  0  0  0  0  0  0  0  0  0
   94.2917   11.0710  101.9283 N   0  0  0  0  0  0  0  0  0  0  0  0
   96.0875    9.5208   97.1079 N   0  0  0  0  0  0  0  0  0  0  0  0
   94.0705   10.7369   99.6270 N   0  0  0  0  0  0  0  0  0  0  0  0
   96.0794   10.2226  100.6834 N   0  0  0  0  0  0  0  0  0  0  0  0
   97.9170    9.2905   99.4470 O   0  0  0  0  0  0  0  0  0  0  0  0
   94.5483    8.2778   91.4199 O   0  5  0  0  0  0  0  0  0  0  0  0
   92.4530   15.3093   93.4845 O   0  5  0  0  0  0  0  0  0  0  0  0
   91.7168   12.6607   96.6599 O   0  0  0  0  0  0  0  0  0  0  0  0
   96.3611    8.9702   92.5098 O   0  5  0  0  0  0  0  0  0  0  0  0
   93.6603   14.8349   95.3049 O   0  5  0  0  0  0  0  0  0  0  0  0
   94.0697    9.5203   93.3604 O   0  0  0  0  0  0  0  0  0  0  0  0
   92.4061    9.8413   95.5578 O   0  0  0  0  0  0  0  0  0  0  0  0
   92.2997   13.0291   94.1270 O   0  0  0  0  0  0  0  0  0  0  0  0
   94.8464   10.6650  100.6769 C   0  0  0  0  0  0  0  0  0  0  0  0
   96.6225    9.7961   99.5512 C   0  0  0  0  0  0  0  0  0  0  0  0
   95.8517    9.8615   98.3685 C   0  0  0  0  0  0  0  0  0  0  0  0
   94.5622   10.3288   98.4341 C   0  0  0  0  0  0  0  0  0  0  0  0
   92.8213   11.9034   96.3334 C   0  0  2  0  0  0  0  0  0  0  0  0
   92.3821   10.8290   94.3785 C   0  0  1  0  0  0  0  0  0  0  0  0
   92.9269   11.8984   94.7203 C   0  0  1  0  0  0  0  0  0  0  0  0
   92.8182   10.6522   96.7544 C   0  0  2  0  0  0  0  0  0  0  0  0
   94.0973   10.2596   97.1862 N   0  0  0  0  0  0  0  0  0  0  0  0
   95.0448    9.3689   92.1528 P   0  0  2  0  0  0  0  0  0  0  0  0
   93.2046   14.2757   94.0557 P   0  0  1  0  0  0  0  0  0  0  0  0
   94.1096   13.3751   91.7771 C   0  0  0  0  0  0  0  0  0  0  0  0
   94.3649   14.0013   93.0446 O   0  0  0  0  0  0  0  0  0  0  0  0
   95.2971   12.8226   91.1086 C   0  0  1  0  0  0  0  0  0  0  0  0
   96.4896   13.8903   91.2528 O   0  0  0  0  0  0  0  0  0  0  0  0
   95.6914   11.7928   91.7117 C   0  0  1  0  0  0  0  0  0  0  0  0
   95.0440   10.5933   91.2283 O   0  0  0  0  0  0  0  0  0  0  0  0
   97.2007   11.8103   91.5229 C   0  0  1  0  0  0  0  0  0  0  0  0
   97.5072   11.2922   90.4141 O   0  0  0  0  0  0  0  0  0  0  0  0
   97.5621   13.2953   91.4885 C   0  0  2  0  0  0  0  0  0  0  0  0
   97.9368   16.8852   95.1499 N   0  0  0  0  0  0  0  0  0  0  0  0
   96.9854   16.7966   94.1835 C   0  0  0  0  0  0  0  0  0  0  0  0
   97.0685   15.7789   93.3350 N   0  0  0  0  0  0  0  0  0  0  0  0
   98.0668   14.8699   93.3320 C   0  0  0  0  0  0  0  0  0  0  0  0
   99.0730   14.9289   94.3201 C   0  0  0  0  0  0  0  0  0  0  0  0
   98.9620   16.0173   95.2433 C   0  0  0  0  0  0  0  0  0  0  0  0
   99.9481   16.1693   96.2623 N   0  0  0  0  0  0  0  0  0  0  0  0
   99.8565   13.9307   94.1069 N   0  0  0  0  0  0  0  0  0  0  0  0
   99.4005   13.2426   93.0747 C   0  0  0  0  0  0  0  0  0  0  0  0
   98.3480   13.7930   92.5842 N   0  0  0  0  0  0  0  0  0  0  0  0
  1 24  1  0  0  0  0
  1  4  2  0  0  0  0
  2 13  1  0  0  0  0
  2 21  1  0  0  0  0
  3 16  1  0  0  0  0
  4 18  1  0  0  0  0
  5 19  2  0  0  0  0
  5 16  1  0  0  0  0
  6 16  2  0  0  0  0
  6 17  1  0  0  0  0
  7 17  1  0  0  0  0
 11 25  2  0  0  0  0
 12 26  2  0  0  0  0
 13 25  1  0  0  0  0
 14 23  1  0  0  0  0
 15 26  1  0  0  0  0
 17 18  2  0  0  0  0
 18 19  1  0  0  0  0
 19 24  1  0  0  0  0
 20 10  1  6  0  0  0
 20 22  1  0  0  0  0
 20 23  1  0  0  0  0
 21 14  1  1  0  0  0
 21 22  1  0  0  0  0
 22 15  1  6  0  0  0
 23 24  1  6  0  0  0
 25  8  1  6  0  0  0
 25 32  1  0  0  0  0
 26  9  1  6  0  0  0
 26 28  1  0  0  0  0
 27 28  1  0  0  0  0
 29 27  1  1  0  0  0
 29 30  1  0  0  0  0
 29 31  1  0  0  0  0
 30 35  1  0  0  0  0
 31 33  1  0  0  0  0
 31 32  1  6  0  0  0
 33 34  1  6  0  0  0
 33 35  1  0  0  0  0
 35 45  1  1  0  0  0
 36 41  2  0  0  0  0
 36 37  1  0  0  0  0
 37 38  2  0  0  0  0
 38 39  1  0  0  0  0
 39 40  2  0  0  0  0
 39 45  1  0  0  0  0
 40 41  1  0  0  0  0
 40 43  1  0  0  0  0
 41 42  1  0  0  0  0
 43 44  2  0  0  0  0
 44 45  1  0  0  0  0
M  CHG  4   8  -1   9  -1  11  -1  12  -1
M  END
>  <CHROM.1>
28.37527765,-3.32689921,95.37060431,12.14003112,94.69105642,2.01881612,0.83180028
1.70741409

>  <Name>
ligand

>  <RI>
0

>  <Rbt.Current_Directory>
/home/itssahil/PROJECTS/Mol_Feturizer/New_Systems/rnas/4YAZ

>  <Rbt.Executable>
rbdock ($Id: //depot/dev/client3/rdock/2013.1/src/exe/rbdock.cxx#4 $)

>  <Rbt.Library>
libRbt.so (2013.1, Build901 2013/11/27)

>  <Rbt.Parameter_File>
/export/apps/rDock/src/rDock_2013.1_src/data/scripts/dock_solv.prm

>  <Rbt.Receptor>
prm/pocket_docking_6.prm

>  <SCORE>
-25.6441

>  <SCORE.INTER>
-24.7267

>  <SCORE.INTER.CONST>
1

>  <SCORE.INTER.POLAR>
0

>  <SCORE.INTER.ROT>
2

>  <SCORE.INTER.SOLV>
26.093

>  <SCORE.INTER.VDW>
-30.1154

>  <SCORE.INTER.norm>
-0.549482

>  <SCORE.INTRA>
-0.917429

>  <SCORE.INTRA.DIHEDRAL>
0.0537464

>  <SCORE.INTRA.DIHEDRAL.0>
2.39103

>  <SCORE.INTRA.POLAR>
0

>  <SCORE.INTRA.POLAR.0>
0

>  <SCORE.INTRA.REPUL>
0

>  <SCORE.INTRA.REPUL.0>
0

>  <SCORE.INTRA.SOLV>
0.05816

>  <SCORE.INTRA.SOLV.lig_0>
-163.975

>  <SCORE.INTRA.VDW>
-0.973382

>  <SCORE.INTRA.VDW.0>
-1.49176

>  <SCORE.INTRA.norm>
-0.0203873

>  <SCORE.RESTR>
0

>  <SCORE.RESTR.CAVITY>
0

>  <SCORE.RESTR.norm>
0

>  <SCORE.SYSTEM>
0

>  <SCORE.SYSTEM.CONST>
0

>  <SCORE.SYSTEM.DIHEDRAL>
0

>  <SCORE.SYSTEM.SOLV>
0

>  <SCORE.SYSTEM.norm>
0

>  <SCORE.heavy>
45

>  <SCORE.norm>
-0.569869

>  <RMSD>
7.482

$$$$
ligand
 OpenBabel11021811513D
libRbt.so/2013.1/901 2013/11/27
 45 51  0  0  0  0  0  0  0  0999 V2000
   96.9114    8.6479   97.5794 C   0  0  0  0  0  0  0  0  0  0  0  0
   98.1333    8.9158   93.3003 C   0  0  0  0  0  0  0  0  0  0  0  0
   91.6348   10.7290   97.0999 N   0  0  0  0  0  0  0  0  0  0  0  0
   96.6987    9.5653   98.4663 N   0  0  0  0  0  0  0  0  0  0  0  0
   93.6508    9.5753   96.8528 N   0  0  0  0  0  0  0  0  0  0  0  0
   93.4377   11.1902   98.5149 N   0  0  0  0  0  0  0  0  0  0  0  0
   95.2485   11.6464  100.0274 O   0  0  0  0  0  0  0  0  0  0  0  0
  100.8074   10.4061   93.7539 O   0  5  0  0  0  0  0  0  0  0  0  0
   93.8445    9.5390   90.7772 O   0  5  0  0  0  0  0  0  0  0  0  0
   94.2015    7.1106   94.1853 O   0  0  0  0  0  0  0  0  0  0  0  0
   99.6268   11.8374   94.9832 O   0  5  0  0  0  0  0  0  0  0  0  0
   93.2012    9.8789   92.8907 O   0  5  0  0  0  0  0  0  0  0  0  0
   98.6767    9.6064   94.3530 O   0  0  0  0  0  0  0  0  0  0  0  0
   97.1491    7.4174   95.1105 O   0  0  0  0  0  0  0  0  0  0  0  0
   95.3486    8.6107   92.3619 O   0  0  0  0  0  0  0  0  0  0  0  0
   92.9838   10.4922   97.5036 C   0  0  0  0  0  0  0  0  0  0  0  0
   94.6716   10.9749   98.9510 C   0  0  0  0  0  0  0  0  0  0  0  0
   95.4626   10.0121   98.2845 C   0  0  0  0  0  0  0  0  0  0  0  0
   94.9213    9.3100   97.2359 C   0  0  0  0  0  0  0  0  0  0  0  0
   95.0157    8.0347   94.8042 C   0  0  2  0  0  0  0  0  0  0  0  0
   97.0116    8.0514   93.7155 C   0  0  1  0  0  0  0  0  0  0  0  0
   95.9416    8.6904   93.6527 C   0  0  1  0  0  0  0  0  0  0  0  0
   95.8024    7.5747   95.7593 C   0  0  2  0  0  0  0  0  0  0  0  0
   95.8854    8.4832   96.8291 N   0  0  0  0  0  0  0  0  0  0  0  0
   99.4960   10.8708   93.9500 P   0  0  2  0  0  0  0  0  0  0  0  0
   94.3710    9.7630   92.0547 P   0  0  1  0  0  0  0  0  0  0  0  0
   96.4165   11.1507   91.2106 C   0  0  0  0  0  0  0  0  0  0  0  0
   95.1801   11.0958   91.9401 O   0  0  0  0  0  0  0  0  0  0  0  0
   97.2584   12.3197   91.5054 C   0  0  1  0  0  0  0  0  0  0  0  0
   96.3062   13.6126   91.5734 O   0  0  0  0  0  0  0  0  0  0  0  0
   97.7616   12.2106   92.6520 C   0  0  1  0  0  0  0  0  0  0  0  0
   99.0187   11.4958   92.6327 O   0  0  0  0  0  0  0  0  0  0  0  0
   97.8635   13.6450   93.1479 C   0  0  1  0  0  0  0  0  0  0  0  0
   98.9237   14.1794   92.7210 O   0  0  0  0  0  0  0  0  0  0  0  0
   96.6661   14.3524   92.5131 C   0  0  2  0  0  0  0  0  0  0  0  0
   94.0266   13.3261   96.8043 N   0  0  0  0  0  0  0  0  0  0  0  0
   94.9556   12.5358   96.2049 C   0  0  0  0  0  0  0  0  0  0  0  0
   95.5290   12.9964   95.0997 N   0  0  0  0  0  0  0  0  0  0  0  0
   95.2038   14.1630   94.5028 C   0  0  0  0  0  0  0  0  0  0  0  0
   94.2438   15.0110   95.0953 C   0  0  0  0  0  0  0  0  0  0  0  0
   93.6473   14.5150   96.2984 C   0  0  0  0  0  0  0  0  0  0  0  0
   92.6496   15.2951   96.9541 N   0  0  0  0  0  0  0  0  0  0  0  0
   94.1657   16.0562   94.3487 N   0  0  0  0  0  0  0  0  0  0  0  0
   95.0213   15.9318   93.3490 C   0  0  0  0  0  0  0  0  0  0  0  0
   95.6362   14.8050   93.4078 N   0  0  0  0  0  0  0  0  0  0  0  0
  1 24  1  0  0  0  0
  1  4  2  0  0  0  0
  2 13  1  0  0  0  0
  2 21  1  0  0  0  0
  3 16  1  0  0  0  0
  4 18  1  0  0  0  0
  5 19  2  0  0  0  0
  5 16  1  0  0  0  0
  6 16  2  0  0  0  0
  6 17  1  0  0  0  0
  7 17  1  0  0  0  0
 11 25  2  0  0  0  0
 12 26  2  0  0  0  0
 13 25  1  0  0  0  0
 14 23  1  0  0  0  0
 15 26  1  0  0  0  0
 17 18  2  0  0  0  0
 18 19  1  0  0  0  0
 19 24  1  0  0  0  0
 20 10  1  6  0  0  0
 20 22  1  0  0  0  0
 20 23  1  0  0  0  0
 21 14  1  1  0  0  0
 21 22  1  0  0  0  0
 22 15  1  6  0  0  0
 23 24  1  1  0  0  0
 25  8  1  6  0  0  0
 25 32  1  0  0  0  0
 26  9  1  6  0  0  0
 26 28  1  0  0  0  0
 27 28  1  0  0  0  0
 29 27  1  1  0  0  0
 29 30  1  0  0  0  0
 29 31  1  0  0  0  0
 30 35  1  0  0  0  0
 31 33  1  0  0  0  0
 31 32  1  6  0  0  0
 33 34  1  6  0  0  0
 33 35  1  0  0  0  0
 35 45  1  1  0  0  0
 36 41  2  0  0  0  0
 36 37  1  0  0  0  0
 37 38  2  0  0  0  0
 38 39  1  0  0  0  0
 39 40  2  0  0  0  0
 39 45  1  0  0  0  0
 40 41  1  0  0  0  0
 40 43  1  0  0  0  0
 41 42  1  0  0  0  0
 43 44  2  0  0  0  0
 44 45  1  0  0  0  0
M  CHG  4   8  -1   9  -1  11  -1  12  -1
M  END
>  <CHROM.1>
-32.37095534,87.93697234,95.90611709,11.13973790,94.60495037,-2.68333075
0.89762696,-0.33282799

>  <Name>
ligand

>  <RI>
0

>  <Rbt.Current_Directory>
/home/itssahil/PROJECTS/Mol_Feturizer/New_Systems/rnas/4YAZ

>  <Rbt.Executable>
rbdock ($Id: //depot/dev/client3/rdock/2013.1/src/exe/rbdock.cxx#4 $)

>  <Rbt.Library>
libRbt.so (2013.1, Build901 2013/11/27)

>  <Rbt.Parameter_File>
/export/apps/rDock/src/rDock_2013.1_src/data/scripts/dock_solv.prm

>  <Rbt.Receptor>
prm/pocket_docking_6.prm

>  <SCORE>
-17.3918

>  <SCORE.INTER>
-15.6249

>  <SCORE.INTER.CONST>
1

>  <SCORE.INTER.POLAR>
0

>  <SCORE.INTER.ROT>
2

>  <SCORE.INTER.SOLV>
25.0757

>  <SCORE.INTER.VDW>
-23.7085

>  <SCORE.INTER.norm>
-0.347221

>  <SCORE.INTRA>
-1.76682

>  <SCORE.INTRA.DIHEDRAL>
0.13685

>  <SCORE.INTRA.DIHEDRAL.0>
2.39103

>  <SCORE.INTRA.POLAR>
0

>  <SCORE.INTRA.POLAR.0>
0

>  <SCORE.INTRA.REPUL>
0

>  <SCORE.INTRA.REPUL.0>
0

>  <SCORE.INTRA.SOLV>
0.647037

>  <SCORE.INTRA.SOLV.lig_0>
-163.975

>  <SCORE.INTRA.VDW>
-2.15876

>  <SCORE.INTRA.VDW.0>
-1.49176

>  <SCORE.INTRA.norm>
-0.0392627

>  <SCORE.RESTR>
0

>  <SCORE.RESTR.CAVITY>
0

>  <SCORE.RESTR.norm>
0

>  <SCORE.SYSTEM>
0

>  <SCORE.SYSTEM.CONST>
0

>  <SCORE.SYSTEM.DIHEDRAL>
0

>  <SCORE.SYSTEM.SOLV>
0

>  <SCORE.SYSTEM.norm>
0

>  <SCORE.heavy>
45

>  <SCORE.norm>
-0.386484

>  <RMSD>
7.489

$$$$
ligand
 OpenBabel11021811513D
libRbt.so/2013.1/901 2013/11/27
 45 51  0  0  0  0  0  0  0  0999 V2000
   95.4455   10.0631   97.3133 C   0  0  0  0  0  0  0  0  0  0  0  0
   93.1931    8.8224   94.3036 C   0  0  0  0  0  0  0  0  0  0  0  0
   94.2333   11.0402  102.7887 N   0  0  0  0  0  0  0  0  0  0  0  0
   96.5166   10.0074   98.0364 N   0  0  0  0  0  0  0  0  0  0  0  0
   94.1877   10.7372  100.4729 N   0  0  0  0  0  0  0  0  0  0  0  0
   96.2072   10.5895  101.6200 N   0  0  0  0  0  0  0  0  0  0  0  0
   98.2460   10.0660  100.4607 O   0  0  0  0  0  0  0  0  0  0  0  0
   94.8015    6.3240   93.4385 O   0  5  0  0  0  0  0  0  0  0  0  0
   92.4108   13.5296   92.7614 O   0  5  0  0  0  0  0  0  0  0  0  0
   91.9047   12.2746   96.7374 O   0  0  0  0  0  0  0  0  0  0  0  0
   96.6078    7.4458   94.0959 O   0  5  0  0  0  0  0  0  0  0  0  0
   93.6937   13.8325   94.5665 O   0  5  0  0  0  0  0  0  0  0  0  0
   94.3172    8.1969   94.7786 O   0  0  0  0  0  0  0  0  0  0  0  0
   92.7047    9.2750   96.7628 O   0  0  0  0  0  0  0  0  0  0  0  0
   92.3933   11.6655   94.2312 O   0  0  0  0  0  0  0  0  0  0  0  0
   94.9135   10.7857  101.5594 C   0  0  0  0  0  0  0  0  0  0  0  0
   96.8745   10.3091  100.5087 C   0  0  0  0  0  0  0  0  0  0  0  0
   96.1612   10.2592   99.2898 C   0  0  0  0  0  0  0  0  0  0  0  0
   94.8039   10.4668   99.2988 C   0  0  0  0  0  0  0  0  0  0  0  0
   93.0364   11.4904   96.6731 C   0  0  2  0  0  0  0  0  0  0  0  0
   92.5955    9.7340   95.2985 C   0  0  1  0  0  0  0  0  0  0  0  0
   93.0947   10.8717   95.1808 C   0  0  1  0  0  0  0  0  0  0  0  0
   93.1097   10.4967   97.5391 C   0  0  2  0  0  0  0  0  0  0  0  0
   94.4194   10.3457   98.0277 N   0  0  0  0  0  0  0  0  0  0  0  0
   95.2629    7.6297   93.6758 P   0  0  2  0  0  0  0  0  0  0  0  0
   93.2307   12.8214   93.6477 P   0  0  1  0  0  0  0  0  0  0  0  0
   94.1132   11.1500   91.8450 C   0  0  0  0  0  0  0  0  0  0  0  0
   94.3733   12.2227   92.7646 O   0  0  0  0  0  0  0  0  0  0  0  0
   95.3073   10.4267   91.3830 C   0  0  1  0  0  0  0  0  0  0  0  0
   96.4473   11.5104   91.0533 O   0  0  0  0  0  0  0  0  0  0  0  0
   95.7713    9.7214   92.3142 C   0  0  1  0  0  0  0  0  0  0  0  0
   95.1723    8.4058   92.3554 O   0  0  0  0  0  0  0  0  0  0  0  0
   97.2716    9.7196   92.0626 C   0  0  1  0  0  0  0  0  0  0  0  0
   97.5714    8.8277   91.2222 O   0  0  0  0  0  0  0  0  0  0  0  0
   97.5553   11.0901   91.4476 C   0  0  2  0  0  0  0  0  0  0  0  0
   97.7393   15.7243   93.6669 N   0  0  0  0  0  0  0  0  0  0  0  0
   96.7439   15.2288   92.8856 C   0  0  0  0  0  0  0  0  0  0  0  0
   96.8917   13.9962   92.4151 N   0  0  0  0  0  0  0  0  0  0  0  0
   97.9888   13.2338   92.6095 C   0  0  0  0  0  0  0  0  0  0  0  0
   99.0435   13.7137   93.4153 C   0  0  0  0  0  0  0  0  0  0  0  0
   98.8645   15.0352   93.9356 C   0  0  0  0  0  0  0  0  0  0  0  0
   99.8903   15.6110   94.7420 N   0  0  0  0  0  0  0  0  0  0  0  0
   99.9247   12.7772   93.4635 N   0  0  0  0  0  0  0  0  0  0  0  0
   99.4871   11.7426   92.7671 C   0  0  0  0  0  0  0  0  0  0  0  0
   98.3466   11.9976   92.2328 N   0  0  0  0  0  0  0  0  0  0  0  0
  1 24  1  0  0  0  0
  1  4  2  0  0  0  0
  2 13  1  0  0  0  0
  2 21  1  0  0  0  0
  3 16  1  0  0  0  0
  4 18  1  0  0  0  0
  5 19  2  0  0  0  0
  5 16  1  0  0  0  0
  6 16  2  0  0  0  0
  6 17  1  0  0  0  0
  7 17  1  0  0  0  0
 11 25  2  0  0  0  0
 12 26  2  0  0  0  0
 13 25  1  0  0  0  0
 14 23  1  0  0  0  0
 15 26  1  0  0  0  0
 17 18  2  0  0  0  0
 18 19  1  0  0  0  0
 19 24  1  0  0  0  0
 20 10  1  6  0  0  0
 20 22  1  0  0  0  0
 20 23  1  0  0  0  0
 21 14  1  1  0  0  0
 21 22  1  0  0  0  0
 22 15  1  6  0  0  0
 23 24  1  6  0  0  0
 25  8  1  6  0  0  0
 25 32  1  0  0  0  0
 26  9  1  6  0  0  0
 26 28  1  0  0  0  0
 27 28  1  0  0  0  0
 29 27  1  1  0  0  0
 29 30  1  0  0  0  0
 29 31  1  0  0  0  0
 30 35  1  0  0  0  0
 31 33  1  0  0  0  0
 31 32  1  6  0  0  0
 33 34  1  6  0  0  0
 33 35  1  0  0  0  0
 35 45  1  1  0  0  0
 36 41  2  0  0  0  0
 36 37  1  0  0  0  0
 37 38  2  0  0  0  0
 38 39  1  0  0  0  0
 39 40  2  0  0  0  0
 39 45  1  0  0  0  0
 40 41  1  0  0  0  0
 40 43  1  0  0  0  0
 41 42  1  0  0  0  0
 43 44  2  0  0  0  0
 44 45  1  0  0  0  0
M  CHG  4   8  -1   9  -1  11  -1  12  -1
M  END
>  <CHROM.1>
54.23472415,1.98938977,95.47970174,11.03731717,95.01367163,-1.97146959,-0.85710204
-1.66509167

>  <Name>
ligand

>  <RI>
0

>  <Rbt.Current_Directory>
/home/itssahil/PROJECTS/Mol_Feturizer/New_Systems/rnas/4YAZ

>  <Rbt.Executable>
rbdock ($Id: //depot/dev/client3/rdock/2013.1/src/exe/rbdock.cxx#4 $)

>  <Rbt.Library>
libRbt.so (2013.1, Build901 2013/11/27)

>  <Rbt.Parameter_File>
/export/apps/rDock/src/rDock_2013.1_src/data/scripts/dock_solv.prm

>  <Rbt.Receptor>
prm/pocket_docking_7.prm

>  <SCORE>
-24.8092

>  <SCORE.INTER>
-23.9989

>  <SCORE.INTER.CONST>
1

>  <SCORE.INTER.POLAR>
0

>  <SCORE.INTER.ROT>
2

>  <SCORE.INTER.SOLV>
22.4272

>  <SCORE.INTER.VDW>
-28.4083

>  <SCORE.INTER.norm>
-0.533309

>  <SCORE.INTRA>
-0.810324

>  <SCORE.INTRA.DIHEDRAL>
0.012402

>  <SCORE.INTRA.DIHEDRAL.0>
2.39103

>  <SCORE.INTRA.POLAR>
0

>  <SCORE.INTRA.POLAR.0>
0

>  <SCORE.INTRA.REPUL>
0

>  <SCORE.INTRA.REPUL.0>
0

>  <SCORE.INTRA.SOLV>
0.368289

>  <SCORE.INTRA.SOLV.lig_0>
-163.975

>  <SCORE.INTRA.VDW>
-1.00067

>  <SCORE.INTRA.VDW.0>
-1.49176

>  <SCORE.INTRA.norm>
-0.0180072

>  <SCORE.RESTR>
0

>  <SCORE.RESTR.CAVITY>
0

>  <SCORE.RESTR.norm>
0

>  <SCORE.SYSTEM>
0

>  <SCORE.SYSTEM.CONST>
0

>  <SCORE.SYSTEM.DIHEDRAL>
0

>  <SCORE.SYSTEM.SOLV>
0

>  <SCORE.SYSTEM.norm>
0

>  <SCORE.heavy>
45

>  <SCORE.norm>
-0.551316

>  <RMSD>
7.521

$$$$
ligand
 OpenBabel11021811523D
libRbt.so/2013.1/901 2013/11/27
 45 51  0  0  0  0  0  0  0  0999 V2000
   95.3509    9.7988   97.3536 C   0  0  0  0  0  0  0  0  0  0  0  0
   93.2375    8.7282   94.2249 C   0  0  0  0  0  0  0  0  0  0  0  0
   94.1122   11.2342  102.7209 N   0  0  0  0  0  0  0  0  0  0  0  0
   96.4192    9.8093   98.0829 N   0  0  0  0  0  0  0  0  0  0  0  0
   94.0775   10.7346  100.4393 N   0  0  0  0  0  0  0  0  0  0  0  0
   96.0927   10.6935  101.6026 N   0  0  0  0  0  0  0  0  0  0  0  0
   98.1382   10.0813  100.5000 O   0  0  0  0  0  0  0  0  0  0  0  0
   94.9929    6.3635   93.2740 O   0  5  0  0  0  0  0  0  0  0  0  0
   92.2243   13.4544   92.8889 O   0  5  0  0  0  0  0  0  0  0  0  0
   91.7254   11.9872   96.7926 O   0  0  0  0  0  0  0  0  0  0  0  0
   96.7249    7.5482   94.0155 O   0  5  0  0  0  0  0  0  0  0  0  0
   93.4606   13.7399   94.7291 O   0  5  0  0  0  0  0  0  0  0  0  0
   94.3865    8.1422   94.6906 O   0  0  0  0  0  0  0  0  0  0  0  0
   92.6869    9.0370   96.6931 O   0  0  0  0  0  0  0  0  0  0  0  0
   92.2854   11.5246   94.2700 O   0  0  0  0  0  0  0  0  0  0  0  0
   94.7985   10.8785  101.5204 C   0  0  0  0  0  0  0  0  0  0  0  0
   96.7657   10.3221  100.5218 C   0  0  0  0  0  0  0  0  0  0  0  0
   96.0577   10.1655   99.3088 C   0  0  0  0  0  0  0  0  0  0  0  0
   94.6996   10.3677   99.2949 C   0  0  0  0  0  0  0  0  0  0  0  0
   92.8990   11.2688   96.7125 C   0  0  2  0  0  0  0  0  0  0  0  0
   92.5758    9.5583   95.2500 C   0  0  1  0  0  0  0  0  0  0  0  0
   93.0141   10.7254   95.1944 C   0  0  1  0  0  0  0  0  0  0  0  0
   93.0127   10.2406   97.5325 C   0  0  2  0  0  0  0  0  0  0  0  0
   94.3209   10.1371   98.0372 N   0  0  0  0  0  0  0  0  0  0  0  0
   95.3787    7.6793   93.5800 P   0  0  2  0  0  0  0  0  0  0  0  0
   93.0676   12.7501   93.7561 P   0  0  1  0  0  0  0  0  0  0  0  0
   94.0679   11.2156   91.8941 C   0  0  0  0  0  0  0  0  0  0  0  0
   94.2548   12.2560   92.8670 O   0  0  0  0  0  0  0  0  0  0  0  0
   95.3066   10.5801   91.4207 C   0  0  1  0  0  0  0  0  0  0  0  0
   96.3910   11.7378   91.1624 O   0  0  0  0  0  0  0  0  0  0  0  0
   95.7938    9.8574   92.3264 C   0  0  1  0  0  0  0  0  0  0  0  0
   95.2666    8.5110   92.2957 O   0  0  0  0  0  0  0  0  0  0  0  0
   97.2956    9.9480   92.1023 C   0  0  1  0  0  0  0  0  0  0  0  0
   97.6566    9.1142   91.2269 O   0  0  0  0  0  0  0  0  0  0  0  0
   97.5139   11.3593   91.5568 C   0  0  2  0  0  0  0  0  0  0  0  0
   97.4886   15.9678   93.8362 N   0  0  0  0  0  0  0  0  0  0  0  0
   96.5493   15.4660   92.9921 C   0  0  0  0  0  0  0  0  0  0  0  0
   96.7453   14.2419   92.5169 N   0  0  0  0  0  0  0  0  0  0  0  0
   97.8421   13.4951   92.7667 C   0  0  0  0  0  0  0  0  0  0  0  0
   98.8394   13.9821   93.6386 C   0  0  0  0  0  0  0  0  0  0  0  0
   98.6078   15.2939   94.1626 C   0  0  0  0  0  0  0  0  0  0  0  0
   99.5746   15.8763   95.0344 N   0  0  0  0  0  0  0  0  0  0  0  0
   99.7321   13.0596   93.7277 N   0  0  0  0  0  0  0  0  0  0  0  0
   99.3537   12.0268   92.9949 C   0  0  0  0  0  0  0  0  0  0  0  0
   98.2422   12.2697   92.3975 N   0  0  0  0  0  0  0  0  0  0  0  0
  1 24  1  0  0  0  0
  1  4  2  0  0  0  0
  2 13  1  0  0  0  0
  2 21  1  0  0  0  0
  3 16  1  0  0  0  0
  4 18  1  0  0  0  0
  5 19  2  0  0  0  0
  5 16  1  0  0  0  0
  6 16  2  0  0  0  0
  6 17  1  0  0  0  0
  7 17  1  0  0  0  0
 11 25  2  0  0  0  0
 12 26  2  0  0  0  0
 13 25  1  0  0  0  0
 14 23  1  0  0  0  0
 15 26  1  0  0  0  0
 17 18  2  0  0  0  0
 18 19  1  0  0  0  0
 19 24  1  0  0  0  0
 20 10  1  6  0  0  0
 20 22  1  0  0  0  0
 20 23  1  0  0  0  0
 21 14  1  1  0  0  0
 21 22  1  0  0  0  0
 22 15  1  6  0  0  0
 23 24  1  6  0  0  0
 25  8  1  6  0  0  0
 25 32  1  0  0  0  0
 26  9  1  6  0  0  0
 26 28  1  0  0  0  0
 27 28  1  0  0  0  0
 29 27  1  1  0  0  0
 29 30  1  0  0  0  0
 29 31  1  0  0  0  0
 30 35  1  0  0  0  0
 31 33  1  0  0  0  0
 31 32  1  6  0  0  0
 33 34  1  6  0  0  0
 33 35  1  0  0  0  0
 35 45  1  1  0  0  0
 36 41  2  0  0  0  0
 36 37  1  0  0  0  0
 37 38  2  0  0  0  0
 38 39  1  0  0  0  0
 39 40  2  0  0  0  0
 39 45  1  0  0  0  0
 40 41  1  0  0  0  0
 40 43  1  0  0  0  0
 41 42  1  0  0  0  0
 43 44  2  0  0  0  0
 44 45  1  0  0  0  0
M  CHG  4   8  -1   9  -1  11  -1  12  -1
M  END
>  <CHROM.1>
46.09528005,-1.79606335,95.40079381,11.07624251,95.05905753,2.01371497,0.91826157
1.45413200

>  <Name>
ligand

>  <RI>
0

>  <Rbt.Current_Directory>
/home/itssahil/PROJECTS/Mol_Feturizer/New_Systems/rnas/4YAZ

>  <Rbt.Executable>
rbdock ($Id: //depot/dev/client3/rdock/2013.1/src/exe/rbdock.cxx#4 $)

>  <Rbt.Library>
libRbt.so (2013.1, Build901 2013/11/27)

>  <Rbt.Parameter_File>
/export/apps/rDock/src/rDock_2013.1_src/data/scripts/dock_solv.prm

>  <Rbt.Receptor>
prm/pocket_docking_8.prm

>  <SCORE>
-25.2476

>  <SCORE.INTER>
-24.3374

>  <SCORE.INTER.CONST>
1

>  <SCORE.INTER.POLAR>
0

>  <SCORE.INTER.ROT>
2

>  <SCORE.INTER.SOLV>
21.716

>  <SCORE.INTER.VDW>
-28.397

>  <SCORE.INTER.norm>
-0.540832

>  <SCORE.INTRA>
-0.910137

>  <SCORE.INTRA.DIHEDRAL>
0.0413065

>  <SCORE.INTRA.DIHEDRAL.0>
2.39103

>  <SCORE.INTRA.POLAR>
0

>  <SCORE.INTRA.POLAR.0>
0

>  <SCORE.INTRA.REPUL>
0

>  <SCORE.INTRA.REPUL.0>
0

>  <SCORE.INTRA.SOLV>
0.149012

>  <SCORE.INTRA.SOLV.lig_0>
-163.975

>  <SCORE.INTRA.VDW>
-1.0053

>  <SCORE.INTRA.VDW.0>
-1.49176

>  <SCORE.INTRA.norm>
-0.0202253

>  <SCORE.RESTR>
0

>  <SCORE.RESTR.CAVITY>
0

>  <SCORE.RESTR.norm>
0

>  <SCORE.SYSTEM>
0

>  <SCORE.SYSTEM.CONST>
0

>  <SCORE.SYSTEM.DIHEDRAL>
0

>  <SCORE.SYSTEM.SOLV>
0

>  <SCORE.SYSTEM.norm>
0

>  <SCORE.heavy>
45

>  <SCORE.norm>
-0.561057

>  <RMSD>
7.554

$$$$
ligand
 OpenBabel11021811513D
libRbt.so/2013.1/901 2013/11/27
 45 51  0  0  0  0  0  0  0  0999 V2000
   95.2904    9.9187   97.1968 C   0  0  0  0  0  0  0  0  0  0  0  0
   93.0973    8.8357   94.1177 C   0  0  0  0  0  0  0  0  0  0  0  0
   94.1308   11.1834  102.6244 N   0  0  0  0  0  0  0  0  0  0  0  0
   96.3683    9.8993   97.9117 N   0  0  0  0  0  0  0  0  0  0  0  0
   94.0632   10.7595  100.3283 N   0  0  0  0  0  0  0  0  0  0  0  0
   96.0932   10.6690  101.4626 N   0  0  0  0  0  0  0  0  0  0  0  0
   98.1204   10.0822  100.3134 O   0  0  0  0  0  0  0  0  0  0  0  0
   94.7895    6.4322   93.1495 O   0  5  0  0  0  0  0  0  0  0  0  0
   92.1560   13.5750   92.7757 O   0  5  0  0  0  0  0  0  0  0  0  0
   91.6929   12.1357   96.6941 O   0  0  0  0  0  0  0  0  0  0  0  0
   96.5567    7.5856   93.8566 O   0  5  0  0  0  0  0  0  0  0  0  0
   93.4280   13.8441   94.5939 O   0  5  0  0  0  0  0  0  0  0  0  0
   94.2420    8.2290   94.5673 O   0  0  0  0  0  0  0  0  0  0  0  0
   92.5939    9.1665   96.5931 O   0  0  0  0  0  0  0  0  0  0  0  0
   92.2017   11.6506   94.1650 O   0  0  0  0  0  0  0  0  0  0  0  0
   94.7992   10.8637  101.4038 C   0  0  0  0  0  0  0  0  0  0  0  0
   96.7497   10.3297  100.3613 C   0  0  0  0  0  0  0  0  0  0  0  0
   96.0250   10.2170   99.1534 C   0  0  0  0  0  0  0  0  0  0  0  0
   94.6680   10.4269   99.1643 C   0  0  0  0  0  0  0  0  0  0  0  0
   92.8505   11.3937   96.5982 C   0  0  2  0  0  0  0  0  0  0  0  0
   92.4693    9.6834   95.1495 C   0  0  1  0  0  0  0  0  0  0  0  0
   92.9297   10.8413   95.0810 C   0  0  1  0  0  0  0  0  0  0  0  0
   92.9574   10.3671   97.4212 C   0  0  2  0  0  0  0  0  0  0  0  0
   94.2715   10.2399   97.9048 N   0  0  0  0  0  0  0  0  0  0  0  0
   95.2064    7.7415   93.4427 P   0  0  2  0  0  0  0  0  0  0  0  0
   92.9995   12.8580   93.6323 P   0  0  1  0  0  0  0  0  0  0  0  0
   93.9381   11.2955   91.7615 C   0  0  0  0  0  0  0  0  0  0  0  0
   94.1617   12.3363   92.7262 O   0  0  0  0  0  0  0  0  0  0  0  0
   95.1559   10.6333   91.2709 C   0  0  1  0  0  0  0  0  0  0  0  0
   96.2586   11.7681   90.9891 O   0  0  0  0  0  0  0  0  0  0  0  0
   95.6436    9.9052   92.1719 C   0  0  1  0  0  0  0  0  0  0  0  0
   95.0895    8.5695   92.1564 O   0  0  0  0  0  0  0  0  0  0  0  0
   97.1430    9.9649   91.9226 C   0  0  1  0  0  0  0  0  0  0  0  0
   97.4729    9.1202   91.0454 O   0  0  0  0  0  0  0  0  0  0  0  0
   97.3802   11.3691   91.3668 C   0  0  2  0  0  0  0  0  0  0  0  0
   97.4345   15.9385   93.7230 N   0  0  0  0  0  0  0  0  0  0  0  0
   96.4618   15.4466   92.9114 C   0  0  0  0  0  0  0  0  0  0  0  0
   96.6421   14.2316   92.4076 N   0  0  0  0  0  0  0  0  0  0  0  0
   97.7515   13.4858   92.5976 C   0  0  0  0  0  0  0  0  0  0  0  0
   98.7833   13.9627   93.4342 C   0  0  0  0  0  0  0  0  0  0  0  0
   98.5692   15.2645   93.9899 C   0  0  0  0  0  0  0  0  0  0  0  0
   99.5701   15.8366   94.8294 N   0  0  0  0  0  0  0  0  0  0  0  0
   99.6826   13.0430   93.4695 N   0  0  0  0  0  0  0  0  0  0  0  0
   99.2773   12.0209   92.7361 C   0  0  0  0  0  0  0  0  0  0  0  0
   98.1403   12.2686   92.1909 N   0  0  0  0  0  0  0  0  0  0  0  0
  1 24  1  0  0  0  0
  1  4  2  0  0  0  0
  2 13  1  0  0  0  0
  2 21  1  0  0  0  0
  3 16  1  0  0  0  0
  4 18  1  0  0  0  0
  5 19  2  0  0  0  0
  5 16  1  0  0  0  0
  6 16  2  0  0  0  0
  6 17  1  0  0  0  0
  7 17  1  0  0  0  0
 11 25  2  0  0  0  0
 12 26  2  0  0  0  0
 13 25  1  0  0  0  0
 14 23  1  0  0  0  0
 15 26  1  0  0  0  0
 17 18  2  0  0  0  0
 18 19  1  0  0  0  0
 19 24  1  0  0  0  0
 20 10  1  6  0  0  0
 20 22  1  0  0  0  0
 20 23  1  0  0  0  0
 21 14  1  1  0  0  0
 21 22  1  0  0  0  0
 22 15  1  6  0  0  0
 23 24  1  6  0  0  0
 25  8  1  6  0  0  0
 25 32  1  0  0  0  0
 26  9  1  6  0  0  0
 26 28  1  0  0  0  0
 27 28  1  0  0  0  0
 29 27  1  1  0  0  0
 29 30  1  0  0  0  0
 29 31  1  0  0  0  0
 30 35  1  0  0  0  0
 31 33  1  0  0  0  0
 31 32  1  6  0  0  0
 33 34  1  6  0  0  0
 33 35  1  0  0  0  0
 35 45  1  1  0  0  0
 36 41  2  0  0  0  0
 36 37  1  0  0  0  0
 37 38  2  0  0  0  0
 38 39  1  0  0  0  0
 39 40  2  0  0  0  0
 39 45  1  0  0  0  0
 40 41  1  0  0  0  0
 40 43  1  0  0  0  0
 41 42  1  0  0  0  0
 43 44  2  0  0  0  0
 44 45  1  0  0  0  0
M  CHG  4   8  -1   9  -1  11  -1  12  -1
M  END
>  <CHROM.1>
48.40296549,0.59073858,95.31442776,11.12795362,94.91513257,1.97686191,0.89635983
1.48387578

>  <Name>
ligand

>  <RI>
0

>  <Rbt.Current_Directory>
/home/itssahil/PROJECTS/Mol_Feturizer/New_Systems/rnas/4YAZ

>  <Rbt.Executable>
rbdock ($Id: //depot/dev/client3/rdock/2013.1/src/exe/rbdock.cxx#4 $)

>  <Rbt.Library>
libRbt.so (2013.1, Build901 2013/11/27)

>  <Rbt.Parameter_File>
/export/apps/rDock/src/rDock_2013.1_src/data/scripts/dock_solv.prm

>  <Rbt.Receptor>
prm/pocket_docking_7.prm

>  <SCORE>
-25.2146

>  <SCORE.INTER>
-24.3023

>  <SCORE.INTER.CONST>
1

>  <SCORE.INTER.POLAR>
0

>  <SCORE.INTER.ROT>
2

>  <SCORE.INTER.SOLV>
22.0371

>  <SCORE.INTER.VDW>
-28.4806

>  <SCORE.INTER.norm>
-0.540051

>  <SCORE.INTRA>
-0.912267

>  <SCORE.INTRA.DIHEDRAL>
0.0238967

>  <SCORE.INTRA.DIHEDRAL.0>
2.39103

>  <SCORE.INTRA.POLAR>
0

>  <SCORE.INTRA.POLAR.0>
0

>  <SCORE.INTRA.REPUL>
0

>  <SCORE.INTRA.REPUL.0>
0

>  <SCORE.INTRA.SOLV>
0.288958

>  <SCORE.INTRA.SOLV.lig_0>
-163.975

>  <SCORE.INTRA.VDW>
-1.06869

>  <SCORE.INTRA.VDW.0>
-1.49176

>  <SCORE.INTRA.norm>
-0.0202726

>  <SCORE.RESTR>
0

>  <SCORE.RESTR.CAVITY>
0

>  <SCORE.RESTR.norm>
0

>  <SCORE.SYSTEM>
0

>  <SCORE.SYSTEM.CONST>
0

>  <SCORE.SYSTEM.DIHEDRAL>
0

>  <SCORE.SYSTEM.SOLV>
0

>  <SCORE.SYSTEM.norm>
0

>  <SCORE.heavy>
45

>  <SCORE.norm>
-0.560324

>  <RMSD>
7.582

$$$$
ligand
 OpenBabel11021811513D
libRbt.so/2013.1/901 2013/11/27
 45 51  0  0  0  0  0  0  0  0999 V2000
   97.2591    8.6485   93.1229 C   0  0  0  0  0  0  0  0  0  0  0  0
   97.0745   12.1413   90.7963 C   0  0  0  0  0  0  0  0  0  0  0  0
   92.1928    6.7467   94.8889 N   0  0  0  0  0  0  0  0  0  0  0  0
   97.3125    8.2888   94.3643 N   0  0  0  0  0  0  0  0  0  0  0  0
   93.9964    7.6232   93.6909 N   0  0  0  0  0  0  0  0  0  0  0  0
   94.2739    7.0146   95.9199 N   0  0  0  0  0  0  0  0  0  0  0  0
   96.4138    7.2174   96.9941 O   0  0  0  0  0  0  0  0  0  0  0  0
   99.7080   13.3571   91.8753 O   0  5  0  0  0  0  0  0  0  0  0  0
   92.1897   13.2626   90.6260 O   0  5  0  0  0  0  0  0  0  0  0  0
   93.6838    9.3467   90.3554 O   0  0  0  0  0  0  0  0  0  0  0  0
   98.9364   12.8481   93.8999 O   0  5  0  0  0  0  0  0  0  0  0  0
   92.2411   11.6084   92.1284 O   0  5  0  0  0  0  0  0  0  0  0  0
   97.9031   11.8472   91.8487 O   0  0  0  0  0  0  0  0  0  0  0  0
   96.7620    9.6167   90.6562 O   0  0  0  0  0  0  0  0  0  0  0  0
   94.1465   11.9284   90.4652 O   0  0  0  0  0  0  0  0  0  0  0  0
   93.5582    7.1603   94.8324 C   0  0  0  0  0  0  0  0  0  0  0  0
   95.5576    7.3471   95.9022 C   0  0  0  0  0  0  0  0  0  0  0  0
   96.0998    7.8746   94.7085 C   0  0  0  0  0  0  0  0  0  0  0  0
   95.2951    7.9932   93.6022 C   0  0  0  0  0  0  0  0  0  0  0  0
   94.6242    9.5983   91.3312 C   0  0  2  0  0  0  0  0  0  0  0  0
   96.1695   11.0236   90.4655 C   0  0  1  0  0  0  0  0  0  0  0  0
   95.1161   11.1245   91.1270 C   0  0  1  0  0  0  0  0  0  0  0  0
   95.6870    8.8153   91.3354 C   0  0  2  0  0  0  0  0  0  0  0  0
   96.0780    8.4985   92.6482 N   0  0  0  0  0  0  0  0  0  0  0  0
   98.5134   13.0907   92.5653 P   0  0  2  0  0  0  0  0  0  0  0  0
   93.0877   12.5301   91.4111 P   0  0  1  0  0  0  0  0  0  0  0  0
   94.7163   14.5325   91.8110 C   0  0  0  0  0  0  0  0  0  0  0  0
   93.7779   13.5817   92.3393 O   0  0  0  0  0  0  0  0  0  0  0  0
   95.5726   15.1815   92.8150 C   0  0  1  0  0  0  0  0  0  0  0  0
   94.6528   15.5729   94.0734 O   0  0  0  0  0  0  0  0  0  0  0  0
   96.4170   14.3616   93.2563 C   0  0  1  0  0  0  0  0  0  0  0  0
   97.6238   14.3362   92.4597 O   0  0  0  0  0  0  0  0  0  0  0  0
   96.6278   14.7909   94.7003 C   0  0  1  0  0  0  0  0  0  0  0  0
   97.4808   15.7187   94.7590 O   0  0  0  0  0  0  0  0  0  0  0  0
   95.2700   15.3432   95.1345 C   0  0  2  0  0  0  0  0  0  0  0  0
   94.2808   10.6735   97.0448 N   0  0  0  0  0  0  0  0  0  0  0  0
   95.0135   10.9680   95.9389 C   0  0  0  0  0  0  0  0  0  0  0  0
   95.1540   12.2495   95.6217 N   0  0  0  0  0  0  0  0  0  0  0  0
   94.5663   13.2671   96.2866 C   0  0  0  0  0  0  0  0  0  0  0  0
   93.7979   13.0010   97.4402 C   0  0  0  0  0  0  0  0  0  0  0  0
   93.6708   11.6177   97.7861 C   0  0  0  0  0  0  0  0  0  0  0  0
   92.8927   11.2531   98.9244 N   0  0  0  0  0  0  0  0  0  0  0  0
   93.4019   14.1401   97.8890 N   0  0  0  0  0  0  0  0  0  0  0  0
   93.8851   15.0958   97.1143 C   0  0  0  0  0  0  0  0  0  0  0  0
   94.5645   14.6002   96.1425 N   0  0  0  0  0  0  0  0  0  0  0  0
  1 24  1  0  0  0  0
  1  4  2  0  0  0  0
  2 13  1  0  0  0  0
  2 21  1  0  0  0  0
  3 16  1  0  0  0  0
  4 18  1  0  0  0  0
  5 19  2  0  0  0  0
  5 16  1  0  0  0  0
  6 16  2  0  0  0  0
  6 17  1  0  0  0  0
  7 17  1  0  0  0  0
 11 25  2  0  0  0  0
 12 26  2  0  0  0  0
 13 25  1  0  0  0  0
 14 23  1  0  0  0  0
 15 26  1  0  0  0  0
 17 18  2  0  0  0  0
 18 19  1  0  0  0  0
 19 24  1  0  0  0  0
 20 10  1  6  0  0  0
 20 22  1  0  0  0  0
 20 23  1  0  0  0  0
 21 14  1  1  0  0  0
 21 22  1  0  0  0  0
 22 15  1  6  0  0  0
 23 24  1  1  0  0  0
 25  8  1  6  0  0  0
 25 32  1  0  0  0  0
 26  9  1  6  0  0  0
 26 28  1  0  0  0  0
 27 28  1  0  0  0  0
 29 27  1  6  0  0  0
 29 30  1  0  0  0  0
 29 31  1  0  0  0  0
 30 35  1  0  0  0  0
 31 33  1  0  0  0  0
 31 32  1  6  0  0  0
 33 34  1  6  0  0  0
 33 35  1  0  0  0  0
 35 45  1  1  0  0  0
 36 41  2  0  0  0  0
 36 37  1  0  0  0  0
 37 38  2  0  0  0  0
 38 39  1  0  0  0  0
 39 40  2  0  0  0  0
 39 45  1  0  0  0  0
 40 41  1  0  0  0  0
 40 43  1  0  0  0  0
 41 42  1  0  0  0  0
 43 44  2  0  0  0  0
 44 45  1  0  0  0  0
M  CHG  4   8  -1   9  -1  11  -1  12  -1
M  END
>  <CHROM.1>
-11.83508240,90.86921199,95.32744413,11.60950120,93.65929933,-2.17043565
1.20043803,0.38728435

>  <Name>
ligand

>  <RI>
0

>  <Rbt.Current_Directory>
/home/itssahil/PROJECTS/Mol_Feturizer/New_Systems/rnas/4YAZ

>  <Rbt.Executable>
rbdock ($Id: //depot/dev/client3/rdock/2013.1/src/exe/rbdock.cxx#4 $)

>  <Rbt.Library>
libRbt.so (2013.1, Build901 2013/11/27)

>  <Rbt.Parameter_File>
/export/apps/rDock/src/rDock_2013.1_src/data/scripts/dock_solv.prm

>  <Rbt.Receptor>
prm/pocket_docking_6.prm

>  <SCORE>
-11.603

>  <SCORE.INTER>
-9.97207

>  <SCORE.INTER.CONST>
1

>  <SCORE.INTER.POLAR>
0

>  <SCORE.INTER.ROT>
2

>  <SCORE.INTER.SOLV>
26.4971

>  <SCORE.INTER.VDW>
-20.4137

>  <SCORE.INTER.norm>
-0.221602

>  <SCORE.INTRA>
-1.63091

>  <SCORE.INTRA.DIHEDRAL>
0.142229

>  <SCORE.INTRA.DIHEDRAL.0>
2.39103

>  <SCORE.INTRA.POLAR>
0

>  <SCORE.INTRA.POLAR.0>
0

>  <SCORE.INTRA.REPUL>
0

>  <SCORE.INTRA.REPUL.0>
0

>  <SCORE.INTRA.SOLV>
0.000104679

>  <SCORE.INTRA.SOLV.lig_0>
-163.975

>  <SCORE.INTRA.VDW>
-1.70208

>  <SCORE.INTRA.VDW.0>
-1.49176

>  <SCORE.INTRA.norm>
-0.0362425

>  <SCORE.RESTR>
0

>  <SCORE.RESTR.CAVITY>
0

>  <SCORE.RESTR.norm>
0

>  <SCORE.SYSTEM>
0

>  <SCORE.SYSTEM.CONST>
0

>  <SCORE.SYSTEM.DIHEDRAL>
0

>  <SCORE.SYSTEM.SOLV>
0

>  <SCORE.SYSTEM.norm>
0

>  <SCORE.heavy>
45

>  <SCORE.norm>
-0.257844

>  <RMSD>
7.590

$$$$
ligand
 OpenBabel11021811523D
libRbt.so/2013.1/901 2013/11/27
 45 51  0  0  0  0  0  0  0  0999 V2000
   95.2430    9.8063   97.1148 C   0  0  0  0  0  0  0  0  0  0  0  0
   92.9889    8.7809   94.0689 C   0  0  0  0  0  0  0  0  0  0  0  0
   94.2323   11.2531  102.5266 N   0  0  0  0  0  0  0  0  0  0  0  0
   96.3366    9.7880   97.8054 N   0  0  0  0  0  0  0  0  0  0  0  0
   94.1039   10.7625  100.2464 N   0  0  0  0  0  0  0  0  0  0  0  0
   96.1577   10.6678  101.3368 N   0  0  0  0  0  0  0  0  0  0  0  0
   98.1469   10.0094  100.1603 O   0  0  0  0  0  0  0  0  0  0  0  0
   94.6454    6.3685   93.0618 O   0  5  0  0  0  0  0  0  0  0  0  0
   92.0536   13.5298   92.7573 O   0  5  0  0  0  0  0  0  0  0  0  0
   91.6577   12.0836   96.6805 O   0  0  0  0  0  0  0  0  0  0  0  0
   96.4340    7.5081   93.7368 O   0  5  0  0  0  0  0  0  0  0  0  0
   93.3628   13.7857   94.5508 O   0  5  0  0  0  0  0  0  0  0  0  0
   94.1380    8.1653   94.4944 O   0  0  0  0  0  0  0  0  0  0  0  0
   92.5364    9.1087   96.5546 O   0  0  0  0  0  0  0  0  0  0  0  0
   92.1135   11.6016   94.1407 O   0  0  0  0  0  0  0  0  0  0  0  0
   94.8664   10.8848  101.3015 C   0  0  0  0  0  0  0  0  0  0  0  0
   96.7823   10.2837  100.2317 C   0  0  0  0  0  0  0  0  0  0  0  0
   96.0279   10.1488   99.0444 C   0  0  0  0  0  0  0  0  0  0  0  0
   94.6755   10.3842   99.0796 C   0  0  0  0  0  0  0  0  0  0  0  0
   92.8081   11.3340   96.5601 C   0  0  2  0  0  0  0  0  0  0  0  0
   92.3870    9.6301   95.1150 C   0  0  1  0  0  0  0  0  0  0  0  0
   92.8538   10.7850   95.0403 C   0  0  1  0  0  0  0  0  0  0  0  0
   92.9242   10.3047   97.3783 C   0  0  2  0  0  0  0  0  0  0  0  0
   94.2466   10.1674   97.8357 N   0  0  0  0  0  0  0  0  0  0  0  0
   95.0768    7.6743   93.3499 P   0  0  2  0  0  0  0  0  0  0  0  0
   92.9088   12.8049   93.5954 P   0  0  1  0  0  0  0  0  0  0  0  0
   93.7999   11.2410   91.7027 C   0  0  0  0  0  0  0  0  0  0  0  0
   94.0494   12.2778   92.6653 O   0  0  0  0  0  0  0  0  0  0  0  0
   95.0034   10.5719   91.1866 C   0  0  1  0  0  0  0  0  0  0  0  0
   96.1080   11.6999   90.8861 O   0  0  0  0  0  0  0  0  0  0  0  0
   95.5037    9.8382   92.0761 C   0  0  1  0  0  0  0  0  0  0  0  0
   94.9403    8.5063   92.0682 O   0  0  0  0  0  0  0  0  0  0  0  0
   96.9983    9.8884   91.7976 C   0  0  1  0  0  0  0  0  0  0  0  0
   97.3051    9.0438   90.9120 O   0  0  0  0  0  0  0  0  0  0  0  0
   97.2340   11.2925   91.2407 C   0  0  2  0  0  0  0  0  0  0  0  0
   97.3474   15.8348   93.6466 N   0  0  0  0  0  0  0  0  0  0  0  0
   96.3520   15.3493   92.8589 C   0  0  0  0  0  0  0  0  0  0  0  0
   96.5203   14.1407   92.3360 N   0  0  0  0  0  0  0  0  0  0  0  0
   97.6367   13.3960   92.4840 C   0  0  0  0  0  0  0  0  0  0  0  0
   98.6920   13.8663   93.2947 C   0  0  0  0  0  0  0  0  0  0  0  0
   98.4913   15.1610   93.8715 C   0  0  0  0  0  0  0  0  0  0  0  0
   99.5155   15.7264   94.6871 N   0  0  0  0  0  0  0  0  0  0  0  0
   99.5943   12.9489   93.2924 N   0  0  0  0  0  0  0  0  0  0  0  0
   99.1697   11.9340   92.5598 C   0  0  0  0  0  0  0  0  0  0  0  0
   98.0162   12.1847   92.0519 N   0  0  0  0  0  0  0  0  0  0  0  0
  1 24  1  0  0  0  0
  1  4  2  0  0  0  0
  2 13  1  0  0  0  0
  2 21  1  0  0  0  0
  3 16  1  0  0  0  0
  4 18  1  0  0  0  0
  5 19  2  0  0  0  0
  5 16  1  0  0  0  0
  6 16  2  0  0  0  0
  6 17  1  0  0  0  0
  7 17  1  0  0  0  0
 11 25  2  0  0  0  0
 12 26  2  0  0  0  0
 13 25  1  0  0  0  0
 14 23  1  0  0  0  0
 15 26  1  0  0  0  0
 17 18  2  0  0  0  0
 18 19  1  0  0  0  0
 19 24  1  0  0  0  0
 20 10  1  1  0  0  0
 20 22  1  0  0  0  0
 20 23  1  0  0  0  0
 21 14  1  1  0  0  0
 21 22  1  0  0  0  0
 22 15  1  6  0  0  0
 23 24  1  6  0  0  0
 25  8  1  6  0  0  0
 25 32  1  0  0  0  0
 26  9  1  6  0  0  0
 26 28  1  0  0  0  0
 27 28  1  0  0  0  0
 29 27  1  1  0  0  0
 29 30  1  0  0  0  0
 29 31  1  0  0  0  0
 30 35  1  0  0  0  0
 31 33  1  0  0  0  0
 31 32  1  6  0  0  0
 33 34  1  6  0  0  0
 33 35  1  0  0  0  0
 35 45  1  1  0  0  0
 36 41  2  0  0  0  0
 36 37  1  0  0  0  0
 37 38  2  0  0  0  0
 38 39  1  0  0  0  0
 39 40  2  0  0  0  0
 39 45  1  0  0  0  0
 40 41  1  0  0  0  0
 40 43  1  0  0  0  0
 41 42  1  0  0  0  0
 43 44  2  0  0  0  0
 44 45  1  0  0  0  0
M  CHG  4   8  -1   9  -1  11  -1  12  -1
M  END
>  <CHROM.1>
46.42032326,1.54609125,95.23725985,11.06477266,94.82903178,1.93956110,0.89118751
1.50032362

>  <Name>
ligand

>  <RI>
0

>  <Rbt.Current_Directory>
/home/itssahil/PROJECTS/Mol_Feturizer/New_Systems/rnas/4YAZ

>  <Rbt.Executable>
rbdock ($Id: //depot/dev/client3/rdock/2013.1/src/exe/rbdock.cxx#4 $)

>  <Rbt.Library>
libRbt.so (2013.1, Build901 2013/11/27)

>  <Rbt.Parameter_File>
/export/apps/rDock/src/rDock_2013.1_src/data/scripts/dock_solv.prm

>  <Rbt.Receptor>
prm/pocket_docking_8.prm

>  <SCORE>
-24.982

>  <SCORE.INTER>
-24.0197

>  <SCORE.INTER.CONST>
1

>  <SCORE.INTER.POLAR>
0

>  <SCORE.INTER.ROT>
2

>  <SCORE.INTER.SOLV>
21.4932

>  <SCORE.INTER.VDW>
-28.1109

>  <SCORE.INTER.norm>
-0.533772

>  <SCORE.INTRA>
-0.962972

>  <SCORE.INTRA.DIHEDRAL>
0.0175183

>  <SCORE.INTRA.DIHEDRAL.0>
2.39103

>  <SCORE.INTRA.POLAR>
0

>  <SCORE.INTRA.POLAR.0>
0

>  <SCORE.INTRA.REPUL>
0

>  <SCORE.INTRA.REPUL.0>
0

>  <SCORE.INTRA.SOLV>
0.342835

>  <SCORE.INTRA.SOLV.lig_0>
-163.975

>  <SCORE.INTRA.VDW>
-1.14315

>  <SCORE.INTRA.VDW.0>
-1.49176

>  <SCORE.INTRA.norm>
-0.0213994

>  <SCORE.RESTR>
0.00068457

>  <SCORE.RESTR.CAVITY>
0.00068457

>  <SCORE.RESTR.norm>
1.52127e-05

>  <SCORE.SYSTEM>
0

>  <SCORE.SYSTEM.CONST>
0

>  <SCORE.SYSTEM.DIHEDRAL>
0

>  <SCORE.SYSTEM.SOLV>
0

>  <SCORE.SYSTEM.norm>
0

>  <SCORE.heavy>
45

>  <SCORE.norm>
-0.555156

>  <RMSD>
7.624

$$$$
ligand
 OpenBabel11021811513D
libRbt.so/2013.1/901 2013/11/27
 45 51  0  0  0  0  0  0  0  0999 V2000
   94.3787   11.6174   98.0505 C   0  0  0  0  0  0  0  0  0  0  0  0
   92.7147   10.5130   93.2082 C   0  0  0  0  0  0  0  0  0  0  0  0
   94.6857    6.4696   95.6403 N   0  0  0  0  0  0  0  0  0  0  0  0
   95.4748   11.0188   98.3874 N   0  0  0  0  0  0  0  0  0  0  0  0
   94.0630    8.5960   96.3799 N   0  0  0  0  0  0  0  0  0  0  0  0
   96.0825    7.6735   97.0773 N   0  0  0  0  0  0  0  0  0  0  0  0
   97.5720    8.9070   98.5036 O   0  0  0  0  0  0  0  0  0  0  0  0
   94.3111    8.2671   91.7992 O   0  5  0  0  0  0  0  0  0  0  0  0
   92.2213   15.4989   92.9945 O   0  5  0  0  0  0  0  0  0  0  0  0
   91.3315   13.2219   96.4097 O   0  0  0  0  0  0  0  0  0  0  0  0
   96.0885    9.0616   92.8776 O   0  5  0  0  0  0  0  0  0  0  0  0
   93.3516   15.2188   94.9024 O   0  5  0  0  0  0  0  0  0  0  0  0
   93.7726    9.7194   93.5710 O   0  0  0  0  0  0  0  0  0  0  0  0
   92.0293   10.2932   95.6521 O   0  0  0  0  0  0  0  0  0  0  0  0
   92.0162   13.3046   93.8768 O   0  0  0  0  0  0  0  0  0  0  0  0
   94.9525    7.6386   96.4156 C   0  0  0  0  0  0  0  0  0  0  0  0
   96.3915    8.7561   97.7783 C   0  0  0  0  0  0  0  0  0  0  0  0
   95.4694    9.8266   97.8049 C   0  0  0  0  0  0  0  0  0  0  0  0
   94.3065    9.7273   97.0815 C   0  0  0  0  0  0  0  0  0  0  0  0
   92.4387   12.4249   96.2125 C   0  0  2  0  0  0  0  0  0  0  0  0
   92.0627   11.1450   94.3715 C   0  0  1  0  0  0  0  0  0  0  0  0
   92.6065   12.2414   94.6152 C   0  0  1  0  0  0  0  0  0  0  0  0
   92.4045   11.2278   96.7678 C   0  0  2  0  0  0  0  0  0  0  0  0
   93.6612   10.8754   97.2905 N   0  0  0  0  0  0  0  0  0  0  0  0
   94.7918    9.4285   92.4270 P   0  0  2  0  0  0  0  0  0  0  0  0
   92.9379   14.5289   93.7051 P   0  0  1  0  0  0  0  0  0  0  0  0
   93.9195   13.3759   91.5769 C   0  0  0  0  0  0  0  0  0  0  0  0
   94.1330   14.1360   92.7771 O   0  0  0  0  0  0  0  0  0  0  0  0
   95.1253   12.7441   91.0207 C   0  0  1  0  0  0  0  0  0  0  0  0
   96.3239   13.8122   91.0941 O   0  0  0  0  0  0  0  0  0  0  0  0
   95.4837   11.7841   91.7485 C   0  0  1  0  0  0  0  0  0  0  0  0
   94.8413   10.5436   91.3744 O   0  0  0  0  0  0  0  0  0  0  0  0
   96.9993   11.7692   91.6190 C   0  0  1  0  0  0  0  0  0  0  0  0
   97.3422   11.1298   90.5868 O   0  0  0  0  0  0  0  0  0  0  0  0
   97.3794   13.2386   91.4360 C   0  0  2  0  0  0  0  0  0  0  0  0
   97.4065   16.9041   95.0413 N   0  0  0  0  0  0  0  0  0  0  0  0
   96.4460   16.6816   94.1061 C   0  0  0  0  0  0  0  0  0  0  0  0
   96.6315   15.6693   93.2676 N   0  0  0  0  0  0  0  0  0  0  0  0
   97.7358   14.8928   93.2443 C   0  0  0  0  0  0  0  0  0  0  0  0
   98.7551   15.0930   94.1997 C   0  0  0  0  0  0  0  0  0  0  0  0
   98.5352   16.1731   95.1131 C   0  0  0  0  0  0  0  0  0  0  0  0
   99.5238   16.4637   96.0991 N   0  0  0  0  0  0  0  0  0  0  0  0
   99.6515   14.1978   93.9741 N   0  0  0  0  0  0  0  0  0  0  0  0
   99.2556   13.4418   92.9648 C   0  0  0  0  0  0  0  0  0  0  0  0
   98.1282   13.8481   92.5008 N   0  0  0  0  0  0  0  0  0  0  0  0
  1 24  1  0  0  0  0
  1  4  2  0  0  0  0
  2 13  1  0  0  0  0
  2 21  1  0  0  0  0
  3 16  1  0  0  0  0
  4 18  1  0  0  0  0
  5 19  2  0  0  0  0
  5 16  1  0  0  0  0
  6 16  2  0  0  0  0
  6 17  1  0  0  0  0
  7 17  1  0  0  0  0
 11 25  2  0  0  0  0
 12 26  2  0  0  0  0
 13 25  1  0  0  0  0
 14 23  1  0  0  0  0
 15 26  1  0  0  0  0
 17 18  2  0  0  0  0
 18 19  1  0  0  0  0
 19 24  1  0  0  0  0
 20 10  1  6  0  0  0
 20 22  1  0  0  0  0
 20 23  1  0  0  0  0
 21 14  1  1  0  0  0
 21 22  1  0  0  0  0
 22 15  1  6  0  0  0
 23 24  1  6  0  0  0
 25  8  1  6  0  0  0
 25 32  1  0  0  0  0
 26  9  1  6  0  0  0
 26 28  1  0  0  0  0
 27 28  1  0  0  0  0
 29 27  1  1  0  0  0
 29 30  1  0  0  0  0
 29 31  1  0  0  0  0
 30 35  1  0  0  0  0
 31 33  1  0  0  0  0
 31 32  1  6  0  0  0
 33 34  1  6  0  0  0
 33 35  1  0  0  0  0
 35 45  1  1  0  0  0
 36 41  2  0  0  0  0
 36 37  1  0  0  0  0
 37 38  2  0  0  0  0
 38 39  1  0  0  0  0
 39 40  2  0  0  0  0
 39 45  1  0  0  0  0
 40 41  1  0  0  0  0
 40 43  1  0  0  0  0
 41 42  1  0  0  0  0
 43 44  2  0  0  0  0
 44 45  1  0  0  0  0
M  CHG  4   8  -1   9  -1  11  -1  12  -1
M  END
>  <CHROM.1>
165.11738870,7.01204596,95.09895007,12.04332831,94.26206559,-1.95993659,-0.18003724
-0.51581351

>  <Name>
ligand

>  <RI>
0

>  <Rbt.Current_Directory>
/home/itssahil/PROJECTS/Mol_Feturizer/New_Systems/rnas/4YAZ

>  <Rbt.Executable>
rbdock ($Id: //depot/dev/client3/rdock/2013.1/src/exe/rbdock.cxx#4 $)

>  <Rbt.Library>
libRbt.so (2013.1, Build901 2013/11/27)

>  <Rbt.Parameter_File>
/export/apps/rDock/src/rDock_2013.1_src/data/scripts/dock_solv.prm

>  <Rbt.Receptor>
prm/pocket_docking_6.prm

>  <SCORE>
-20.8298

>  <SCORE.INTER>
-20.7215

>  <SCORE.INTER.CONST>
1

>  <SCORE.INTER.POLAR>
0

>  <SCORE.INTER.ROT>
2

>  <SCORE.INTER.SOLV>
18.0945

>  <SCORE.INTER.VDW>
-24.7792

>  <SCORE.INTER.norm>
-0.460478

>  <SCORE.INTRA>
-0.108304

>  <SCORE.INTRA.DIHEDRAL>
-0.0209933

>  <SCORE.INTRA.DIHEDRAL.0>
2.39103

>  <SCORE.INTRA.POLAR>
0

>  <SCORE.INTRA.POLAR.0>
0

>  <SCORE.INTRA.REPUL>
0

>  <SCORE.INTRA.REPUL.0>
0

>  <SCORE.INTRA.SOLV>
2.73636

>  <SCORE.INTRA.SOLV.lig_0>
-163.975

>  <SCORE.INTRA.VDW>
-1.46599

>  <SCORE.INTRA.VDW.0>
-1.49176

>  <SCORE.INTRA.norm>
-0.00240675

>  <SCORE.RESTR>
0

>  <SCORE.RESTR.CAVITY>
0

>  <SCORE.RESTR.norm>
0

>  <SCORE.SYSTEM>
0

>  <SCORE.SYSTEM.CONST>
0

>  <SCORE.SYSTEM.DIHEDRAL>
0

>  <SCORE.SYSTEM.SOLV>
0

>  <SCORE.SYSTEM.norm>
0

>  <SCORE.heavy>
45

>  <SCORE.norm>
-0.462884

>  <RMSD>
7.716

$$$$
ligand
 OpenBabel11021811513D
libRbt.so/2013.1/901 2013/11/27
 45 51  0  0  0  0  0  0  0  0999 V2000
   94.4831   11.5269   97.9866 C   0  0  0  0  0  0  0  0  0  0  0  0
   92.7741   10.4702   93.1793 C   0  0  0  0  0  0  0  0  0  0  0  0
   94.7116    6.3154   95.7081 N   0  0  0  0  0  0  0  0  0  0  0  0
   95.5820   10.9303   98.3177 N   0  0  0  0  0  0  0  0  0  0  0  0
   94.1163    8.4646   96.4032 N   0  0  0  0  0  0  0  0  0  0  0  0
   96.1436    7.5476   97.0852 N   0  0  0  0  0  0  0  0  0  0  0  0
   97.6683    8.8086   98.4489 O   0  0  0  0  0  0  0  0  0  0  0  0
   94.3866    8.2695   91.7183 O   0  5  0  0  0  0  0  0  0  0  0  0
   92.2198   15.4528   93.0601 O   0  5  0  0  0  0  0  0  0  0  0  0
   91.3824   13.1036   96.4395 O   0  0  0  0  0  0  0  0  0  0  0  0
   96.1624    9.0657   92.7981 O   0  5  0  0  0  0  0  0  0  0  0  0
   93.3674   15.1518   94.9544 O   0  5  0  0  0  0  0  0  0  0  0  0
   93.8440    9.6829   93.5200 O   0  0  0  0  0  0  0  0  0  0  0  0
   92.1094   10.1978   95.6236 O   0  0  0  0  0  0  0  0  0  0  0  0
   92.0473   13.2406   93.9037 O   0  0  0  0  0  0  0  0  0  0  0  0
   95.0007    7.5026   96.4468 C   0  0  0  0  0  0  0  0  0  0  0  0
   96.4729    8.6463   97.7510 C   0  0  0  0  0  0  0  0  0  0  0  0
   95.5580    9.7232   97.7673 C   0  0  0  0  0  0  0  0  0  0  0  0
   94.3805    9.6124   97.0696 C   0  0  0  0  0  0  0  0  0  0  0  0
   92.4976   12.3238   96.2199 C   0  0  2  0  0  0  0  0  0  0  0  0
   92.1232   11.0730   94.3586 C   0  0  1  0  0  0  0  0  0  0  0  0
   92.6558   12.1713   94.6183 C   0  0  1  0  0  0  0  0  0  0  0  0
   92.4816   11.1165   96.7535 C   0  0  2  0  0  0  0  0  0  0  0  0
   93.7463   10.7698   97.2607 N   0  0  0  0  0  0  0  0  0  0  0  0
   94.8582    9.4251   92.3636 P   0  0  2  0  0  0  0  0  0  0  0  0
   92.9531   14.4787   93.7477 P   0  0  1  0  0  0  0  0  0  0  0  0
   93.9327   13.3765   91.5919 C   0  0  0  0  0  0  0  0  0  0  0  0
   94.1460   14.1172   92.8042 O   0  0  0  0  0  0  0  0  0  0  0  0
   95.1418   12.7694   91.0157 C   0  0  1  0  0  0  0  0  0  0  0  0
   96.3281   13.8503   91.0999 O   0  0  0  0  0  0  0  0  0  0  0  0
   95.5170   11.8008   91.7233 C   0  0  1  0  0  0  0  0  0  0  0  0
   94.8866   10.5596   91.3312 O   0  0  0  0  0  0  0  0  0  0  0  0
   97.0316   11.8065   91.5827 C   0  0  1  0  0  0  0  0  0  0  0  0
   97.3744   11.1901   90.5366 O   0  0  0  0  0  0  0  0  0  0  0  0
   97.3928   13.2834   91.4238 C   0  0  2  0  0  0  0  0  0  0  0  0
   97.4459   16.9505   95.0271 N   0  0  0  0  0  0  0  0  0  0  0  0
   96.4896   16.7417   94.0845 C   0  0  0  0  0  0  0  0  0  0  0  0
   96.6667   15.7262   93.2480 N   0  0  0  0  0  0  0  0  0  0  0  0
   97.7595   14.9333   93.2339 C   0  0  0  0  0  0  0  0  0  0  0  0
   98.7740   15.1191   94.1973 C   0  0  0  0  0  0  0  0  0  0  0  0
   98.5629   16.2030   95.1082 C   0  0  0  0  0  0  0  0  0  0  0  0
   99.5479   16.4795   96.1018 N   0  0  0  0  0  0  0  0  0  0  0  0
   99.6588   14.2105   93.9792 N   0  0  0  0  0  0  0  0  0  0  0  0
   99.2597   13.4598   92.9673 C   0  0  0  0  0  0  0  0  0  0  0  0
   98.1421   13.8824   92.4942 N   0  0  0  0  0  0  0  0  0  0  0  0
  1 24  1  0  0  0  0
  1  4  2  0  0  0  0
  2 13  1  0  0  0  0
  2 21  1  0  0  0  0
  3 16  1  0  0  0  0
  4 18  1  0  0  0  0
  5 19  2  0  0  0  0
  5 16  1  0  0  0  0
  6 16  2  0  0  0  0
  6 17  1  0  0  0  0
  7 17  1  0  0  0  0
 11 25  2  0  0  0  0
 12 26  2  0  0  0  0
 13 25  1  0  0  0  0
 14 23  1  0  0  0  0
 15 26  1  0  0  0  0
 17 18  2  0  0  0  0
 18 19  1  0  0  0  0
 19 24  1  0  0  0  0
 20 10  1  6  0  0  0
 20 22  1  0  0  0  0
 20 23  1  0  0  0  0
 21 14  1  1  0  0  0
 21 22  1  0  0  0  0
 22 15  1  6  0  0  0
 23 24  1  6  0  0  0
 25  8  1  6  0  0  0
 25 32  1  0  0  0  0
 26  9  1  6  0  0  0
 26 28  1  0  0  0  0
 27 28  1  0  0  0  0
 29 27  1  1  0  0  0
 29 30  1  0  0  0  0
 29 31  1  0  0  0  0
 30 35  1  0  0  0  0
 31 33  1  0  0  0  0
 31 32  1  6  0  0  0
 33 34  1  6  0  0  0
 33 35  1  0  0  0  0
 35 45  1  1  0  0  0
 36 41  2  0  0  0  0
 36 37  1  0  0  0  0
 37 38  2  0  0  0  0
 38 39  1  0  0  0  0
 39 40  2  0  0  0  0
 39 45  1  0  0  0  0
 40 41  1  0  0  0  0
 40 43  1  0  0  0  0
 41 42  1  0  0  0  0
 43 44  2  0  0  0  0
 44 45  1  0  0  0  0
M  CHG  4   8  -1   9  -1  11  -1  12  -1
M  END
>  <CHROM.1>
162.26427170,4.94326833,95.14413220,12.00898207,94.25121029,-1.95268529,-0.27794958
-0.54398675

>  <Name>
ligand

>  <RI>
0

>  <Rbt.Current_Directory>
/home/itssahil/PROJECTS/Mol_Feturizer/New_Systems/rnas/4YAZ

>  <Rbt.Executable>
rbdock ($Id: //depot/dev/client3/rdock/2013.1/src/exe/rbdock.cxx#4 $)

>  <Rbt.Library>
libRbt.so (2013.1, Build901 2013/11/27)

>  <Rbt.Parameter_File>
/export/apps/rDock/src/rDock_2013.1_src/data/scripts/dock_solv.prm

>  <Rbt.Receptor>
prm/pocket_docking_7.prm

>  <SCORE>
-20.7933

>  <SCORE.INTER>
-20.2829

>  <SCORE.INTER.CONST>
1

>  <SCORE.INTER.POLAR>
0

>  <SCORE.INTER.ROT>
2

>  <SCORE.INTER.SOLV>
18.1931

>  <SCORE.INTER.VDW>
-24.5196

>  <SCORE.INTER.norm>
-0.450731

>  <SCORE.INTRA>
-0.510442

>  <SCORE.INTRA.DIHEDRAL>
-0.00593057

>  <SCORE.INTRA.DIHEDRAL.0>
2.39103

>  <SCORE.INTRA.POLAR>
0

>  <SCORE.INTRA.POLAR.0>
0

>  <SCORE.INTRA.REPUL>
0

>  <SCORE.INTRA.REPUL.0>
0

>  <SCORE.INTRA.SOLV>
1.34484

>  <SCORE.INTRA.SOLV.lig_0>
-163.975

>  <SCORE.INTRA.VDW>
-1.1799

>  <SCORE.INTRA.VDW.0>
-1.49176

>  <SCORE.INTRA.norm>
-0.0113431

>  <SCORE.RESTR>
0

>  <SCORE.RESTR.CAVITY>
0

>  <SCORE.RESTR.norm>
0

>  <SCORE.SYSTEM>
0

>  <SCORE.SYSTEM.CONST>
0

>  <SCORE.SYSTEM.DIHEDRAL>
0

>  <SCORE.SYSTEM.SOLV>
0

>  <SCORE.SYSTEM.norm>
0

>  <SCORE.heavy>
45

>  <SCORE.norm>
-0.462074

>  <RMSD>
7.745

$$$$
ligand
 OpenBabel11021811513D
libRbt.so/2013.1/901 2013/11/27
 45 51  0  0  0  0  0  0  0  0999 V2000
   96.1447   10.6852   97.3839 C   0  0  0  0  0  0  0  0  0  0  0  0
   92.7946   10.6594   94.0450 C   0  0  0  0  0  0  0  0  0  0  0  0
   96.5508    5.1657   96.0525 N   0  0  0  0  0  0  0  0  0  0  0  0
   97.3810   10.3451   97.2137 N   0  0  0  0  0  0  0  0  0  0  0  0
   95.8421    7.3133   96.6373 N   0  0  0  0  0  0  0  0  0  0  0  0
   98.1114    6.8793   96.3585 N   0  0  0  0  0  0  0  0  0  0  0  0
   99.7387    8.6304   96.6034 O   0  0  0  0  0  0  0  0  0  0  0  0
   93.9820    9.9411   91.2788 O   0  5  0  0  0  0  0  0  0  0  0  0
   91.3638   14.7321   96.5973 O   0  5  0  0  0  0  0  0  0  0  0  0
   92.5022   11.1267   98.4264 O   0  0  0  0  0  0  0  0  0  0  0  0
   95.8763   10.8380   92.0276 O   0  5  0  0  0  0  0  0  0  0  0  0
   93.2503   14.1559   97.6488 O   0  5  0  0  0  0  0  0  0  0  0  0
   94.0281   10.2454   93.6120 O   0  0  0  0  0  0  0  0  0  0  0  0
   93.3111    9.2405   96.0970 O   0  0  0  0  0  0  0  0  0  0  0  0
   91.9705   12.4662   96.2323 O   0  0  0  0  0  0  0  0  0  0  0  0
   96.8509    6.5234   96.3772 C   0  0  0  0  0  0  0  0  0  0  0  0
   98.4342    8.1402   96.6134 C   0  0  0  0  0  0  0  0  0  0  0  0
   97.3987    9.0505   96.9236 C   0  0  0  0  0  0  0  0  0  0  0  0
   96.0974    8.6123   96.9176 C   0  0  0  0  0  0  0  0  0  0  0  0
   93.5324   10.9526   97.5274 C   0  0  2  0  0  0  0  0  0  0  0  0
   92.6208   10.4786   95.4993 C   0  0  1  0  0  0  0  0  0  0  0  0
   93.0078   11.5015   96.1002 C   0  0  1  0  0  0  0  0  0  0  0  0
   93.9642    9.7158   97.3646 C   0  0  2  0  0  0  0  0  0  0  0  0
   95.3632    9.6812   97.2290 N   0  0  0  0  0  0  0  0  0  0  0  0
   94.4713   10.8410   92.2404 P   0  0  2  0  0  0  0  0  0  0  0  0
   92.4830   13.9036   96.4537 P   0  0  1  0  0  0  0  0  0  0  0  0
   92.6147   14.1582   93.8575 C   0  0  0  0  0  0  0  0  0  0  0  0
   93.1946   14.3932   95.1507 O   0  0  0  0  0  0  0  0  0  0  0  0
   93.5431   14.3028   92.7264 C   0  0  1  0  0  0  0  0  0  0  0  0
   94.4355   15.6149   92.9816 O   0  0  0  0  0  0  0  0  0  0  0  0
   94.3533   13.3421   92.7080 C   0  0  1  0  0  0  0  0  0  0  0  0
   93.8482   12.2140   91.9571 O   0  0  0  0  0  0  0  0  0  0  0  0
   95.6307   13.9478   92.1464 C   0  0  1  0  0  0  0  0  0  0  0  0
   95.5920   13.9543   90.8854 O   0  0  0  0  0  0  0  0  0  0  0  0
   95.6179   15.3924   92.6463 C   0  0  2  0  0  0  0  0  0  0  0  0
  100.3201   14.3291   94.4331 N   0  0  0  0  0  0  0  0  0  0  0  0
   99.6283   13.6417   93.4867 C   0  0  0  0  0  0  0  0  0  0  0  0
   98.4227   14.0930   93.1619 N   0  0  0  0  0  0  0  0  0  0  0  0
   97.8193   15.1459   93.7535 C   0  0  0  0  0  0  0  0  0  0  0  0
   98.5059   15.8851   94.7405 C   0  0  0  0  0  0  0  0  0  0  0  0
   99.8135   15.4032   95.0678 C   0  0  0  0  0  0  0  0  0  0  0  0
  100.5722   16.0748   96.0715 N   0  0  0  0  0  0  0  0  0  0  0  0
   97.7229   16.8434   95.0932 N   0  0  0  0  0  0  0  0  0  0  0  0
   96.6103   16.7691   94.3836 C   0  0  0  0  0  0  0  0  0  0  0  0
   96.6357   15.7556   93.5939 N   0  0  0  0  0  0  0  0  0  0  0  0
  1 24  1  0  0  0  0
  1  4  2  0  0  0  0
  2 13  1  0  0  0  0
  2 21  1  0  0  0  0
  3 16  1  0  0  0  0
  4 18  1  0  0  0  0
  5 19  2  0  0  0  0
  5 16  1  0  0  0  0
  6 16  2  0  0  0  0
  6 17  1  0  0  0  0
  7 17  1  0  0  0  0
 11 25  2  0  0  0  0
 12 26  2  0  0  0  0
 13 25  1  0  0  0  0
 14 23  1  0  0  0  0
 15 26  1  0  0  0  0
 17 18  2  0  0  0  0
 18 19  1  0  0  0  0
 19 24  1  0  0  0  0
 20 10  1  1  0  0  0
 20 22  1  0  0  0  0
 20 23  1  0  0  0  0
 21 14  1  1  0  0  0
 21 22  1  0  0  0  0
 22 15  1  1  0  0  0
 23 24  1  6  0  0  0
 25  8  1  6  0  0  0
 25 32  1  0  0  0  0
 26  9  1  1  0  0  0
 26 28  1  0  0  0  0
 27 28  1  0  0  0  0
 29 27  1  1  0  0  0
 29 30  1  0  0  0  0
 29 31  1  0  0  0  0
 30 35  1  0  0  0  0
 31 33  1  0  0  0  0
 31 32  1  6  0  0  0
 33 34  1  6  0  0  0
 33 35  1  0  0  0  0
 35 45  1  1  0  0  0
 36 41  2  0  0  0  0
 36 37  1  0  0  0  0
 37 38  2  0  0  0  0
 38 39  1  0  0  0  0
 39 40  2  0  0  0  0
 39 45  1  0  0  0  0
 40 41  1  0  0  0  0
 40 43  1  0  0  0  0
 41 42  1  0  0  0  0
 43 44  2  0  0  0  0
 44 45  1  0  0  0  0
M  CHG  4   8  -1   9  -1  11  -1  12  -1
M  END
>  <CHROM.1>
122.88255970,149.20625923,95.38524317,12.08404273,94.92312198,-1.62535324
0.04181974,-0.36045402

>  <Name>
ligand

>  <RI>
0

>  <Rbt.Current_Directory>
/home/itssahil/PROJECTS/Mol_Feturizer/New_Systems/rnas/4YAZ

>  <Rbt.Executable>
rbdock ($Id: //depot/dev/client3/rdock/2013.1/src/exe/rbdock.cxx#4 $)

>  <Rbt.Library>
libRbt.so (2013.1, Build901 2013/11/27)

>  <Rbt.Parameter_File>
/export/apps/rDock/src/rDock_2013.1_src/data/scripts/dock_solv.prm

>  <Rbt.Receptor>
prm/pocket_docking_6.prm

>  <SCORE>
-17.6732

>  <SCORE.INTER>
-19.1443

>  <SCORE.INTER.CONST>
1

>  <SCORE.INTER.POLAR>
0

>  <SCORE.INTER.ROT>
2

>  <SCORE.INTER.SOLV>
24.819

>  <SCORE.INTER.VDW>
-25.9692

>  <SCORE.INTER.norm>
-0.425429

>  <SCORE.INTRA>
1.47112

>  <SCORE.INTRA.DIHEDRAL>
-0.125218

>  <SCORE.INTRA.DIHEDRAL.0>
2.39103

>  <SCORE.INTRA.POLAR>
0

>  <SCORE.INTRA.POLAR.0>
0

>  <SCORE.INTRA.REPUL>
0

>  <SCORE.INTRA.REPUL.0>
0

>  <SCORE.INTRA.SOLV>
0.0434754

>  <SCORE.INTRA.SOLV.lig_0>
-163.975

>  <SCORE.INTRA.VDW>
1.51199

>  <SCORE.INTRA.VDW.0>
-1.49176

>  <SCORE.INTRA.norm>
0.0326915

>  <SCORE.RESTR>
0

>  <SCORE.RESTR.CAVITY>
0

>  <SCORE.RESTR.norm>
0

>  <SCORE.SYSTEM>
0

>  <SCORE.SYSTEM.CONST>
0

>  <SCORE.SYSTEM.DIHEDRAL>
0

>  <SCORE.SYSTEM.SOLV>
0

>  <SCORE.SYSTEM.norm>
0

>  <SCORE.heavy>
45

>  <SCORE.norm>
-0.392737

>  <RMSD>
7.750

$$$$
ligand
 OpenBabel11021811513D
libRbt.so/2013.1/901 2013/11/27
 45 51  0  0  0  0  0  0  0  0999 V2000
   94.5114   11.3643   97.9574 C   0  0  0  0  0  0  0  0  0  0  0  0
   92.7965   10.5692   93.1130 C   0  0  0  0  0  0  0  0  0  0  0  0
   94.5969    6.2248   95.5118 N   0  0  0  0  0  0  0  0  0  0  0  0
   95.5934   10.7273   98.2684 N   0  0  0  0  0  0  0  0  0  0  0  0
   94.0609    8.3660   96.2762 N   0  0  0  0  0  0  0  0  0  0  0  0
   96.0620    7.3720   96.9270 N   0  0  0  0  0  0  0  0  0  0  0  0
   97.6205    8.5458   98.3298 O   0  0  0  0  0  0  0  0  0  0  0  0
   94.3695    8.4073   91.5542 O   0  5  0  0  0  0  0  0  0  0  0  0
   92.3482   15.5625   93.2314 O   0  5  0  0  0  0  0  0  0  0  0  0
   91.4444   13.0722   96.4905 O   0  0  0  0  0  0  0  0  0  0  0  0
   96.1562    9.1126   92.6782 O   0  5  0  0  0  0  0  0  0  0  0  0
   93.4797   15.1464   95.1137 O   0  5  0  0  0  0  0  0  0  0  0  0
   93.8478    9.7438   93.4196 O   0  0  0  0  0  0  0  0  0  0  0  0
   92.1139   10.1940   95.5387 O   0  0  0  0  0  0  0  0  0  0  0  0
   92.1248   13.3165   93.9669 O   0  0  0  0  0  0  0  0  0  0  0  0
   94.9184    7.3791   96.2882 C   0  0  0  0  0  0  0  0  0  0  0  0
   96.4212    8.4391   97.6278 C   0  0  0  0  0  0  0  0  0  0  0  0
   95.5363    9.5397   97.6793 C   0  0  0  0  0  0  0  0  0  0  0  0
   94.3564    9.4840   96.9792 C   0  0  0  0  0  0  0  0  0  0  0  0
   92.5439   12.2802   96.2380 C   0  0  2  0  0  0  0  0  0  0  0  0
   92.1525   11.1285   94.3172 C   0  0  1  0  0  0  0  0  0  0  0  0
   92.7069   12.2014   94.6317 C   0  0  1  0  0  0  0  0  0  0  0  0
   92.4998   11.0492   96.7129 C   0  0  2  0  0  0  0  0  0  0  0  0
   93.7543   10.6517   97.2079 N   0  0  0  0  0  0  0  0  0  0  0  0
   94.8621    9.5202   92.2562 P   0  0  2  0  0  0  0  0  0  0  0  0
   93.0573   14.5411   93.8743 P   0  0  1  0  0  0  0  0  0  0  0  0
   94.0242   13.5230   91.6719 C   0  0  0  0  0  0  0  0  0  0  0  0
   94.2470   14.1999   92.9193 O   0  0  0  0  0  0  0  0  0  0  0  0
   95.2230   12.9186   91.0720 C   0  0  1  0  0  0  0  0  0  0  0  0
   96.4316   13.9686   91.2129 O   0  0  0  0  0  0  0  0  0  0  0  0
   95.5741   11.9093   91.7336 C   0  0  1  0  0  0  0  0  0  0  0  0
   94.9197   10.7021   91.2797 O   0  0  0  0  0  0  0  0  0  0  0  0
   97.0892   11.8894   91.5995 C   0  0  1  0  0  0  0  0  0  0  0  0
   97.4242   11.3168   90.5264 O   0  0  0  0  0  0  0  0  0  0  0  0
   97.4824   13.3642   91.5134 C   0  0  2  0  0  0  0  0  0  0  0  0
   97.6908   16.9820   95.1607 N   0  0  0  0  0  0  0  0  0  0  0  0
   96.7529   16.8546   94.1855 C   0  0  0  0  0  0  0  0  0  0  0  0
   96.8811   15.8367   93.3428 N   0  0  0  0  0  0  0  0  0  0  0  0
   97.9116   14.9644   93.3541 C   0  0  0  0  0  0  0  0  0  0  0  0
   98.9050   15.0642   94.3516 C   0  0  0  0  0  0  0  0  0  0  0  0
   98.7456   16.1520   95.2684 C   0  0  0  0  0  0  0  0  0  0  0  0
   99.7154   16.3443   96.2962 N   0  0  0  0  0  0  0  0  0  0  0  0
   99.7262   14.0941   94.1509 N   0  0  0  0  0  0  0  0  0  0  0  0
   99.3057   13.3852   93.1177 C   0  0  0  0  0  0  0  0  0  0  0  0
   98.2388   13.8950   92.6143 N   0  0  0  0  0  0  0  0  0  0  0  0
  1 24  1  0  0  0  0
  1  4  2  0  0  0  0
  2 13  1  0  0  0  0
  2 21  1  0  0  0  0
  3 16  1  0  0  0  0
  4 18  1  0  0  0  0
  5 19  2  0  0  0  0
  5 16  1  0  0  0  0
  6 16  2  0  0  0  0
  6 17  1  0  0  0  0
  7 17  1  0  0  0  0
 11 25  2  0  0  0  0
 12 26  2  0  0  0  0
 13 25  1  0  0  0  0
 14 23  1  0  0  0  0
 15 26  1  0  0  0  0
 17 18  2  0  0  0  0
 18 19  1  0  0  0  0
 19 24  1  0  0  0  0
 20 10  1  6  0  0  0
 20 22  1  0  0  0  0
 20 23  1  0  0  0  0
 21 14  1  1  0  0  0
 21 22  1  0  0  0  0
 22 15  1  6  0  0  0
 23 24  1  6  0  0  0
 25  8  1  6  0  0  0
 25 32  1  0  0  0  0
 26  9  1  6  0  0  0
 26 28  1  0  0  0  0
 27 28  1  0  0  0  0
 29 27  1  1  0  0  0
 29 30  1  0  0  0  0
 29 31  1  0  0  0  0
 30 35  1  0  0  0  0
 31 33  1  0  0  0  0
 31 32  1  6  0  0  0
 33 34  1  6  0  0  0
 33 35  1  0  0  0  0
 35 45  1  1  0  0  0
 36 41  2  0  0  0  0
 36 37  1  0  0  0  0
 37 38  2  0  0  0  0
 38 39  1  0  0  0  0
 39 40  2  0  0  0  0
 39 45  1  0  0  0  0
 40 41  1  0  0  0  0
 40 43  1  0  0  0  0
 41 42  1  0  0  0  0
 43 44  2  0  0  0  0
 44 45  1  0  0  0  0
M  CHG  4   8  -1   9  -1  11  -1  12  -1
M  END
>  <CHROM.1>
161.25299824,0.87942011,95.19778886,12.01196129,94.26169440,-1.97782579,-0.28086855
-0.50863331

>  <Name>
ligand

>  <RI>
0

>  <Rbt.Current_Directory>
/home/itssahil/PROJECTS/Mol_Feturizer/New_Systems/rnas/4YAZ

>  <Rbt.Executable>
rbdock ($Id: //depot/dev/client3/rdock/2013.1/src/exe/rbdock.cxx#4 $)

>  <Rbt.Library>
libRbt.so (2013.1, Build901 2013/11/27)

>  <Rbt.Parameter_File>
/export/apps/rDock/src/rDock_2013.1_src/data/scripts/dock_solv.prm

>  <Rbt.Receptor>
prm/pocket_docking_6.prm

>  <SCORE>
-20.8486

>  <SCORE.INTER>
-20.2995

>  <SCORE.INTER.CONST>
1

>  <SCORE.INTER.POLAR>
0

>  <SCORE.INTER.ROT>
2

>  <SCORE.INTER.SOLV>
17.8232

>  <SCORE.INTER.VDW>
-24.4074

>  <SCORE.INTER.norm>
-0.451099

>  <SCORE.INTRA>
-0.549155

>  <SCORE.INTRA.DIHEDRAL>
0.0232651

>  <SCORE.INTRA.DIHEDRAL.0>
2.39103

>  <SCORE.INTRA.POLAR>
0

>  <SCORE.INTRA.POLAR.0>
0

>  <SCORE.INTRA.REPUL>
0

>  <SCORE.INTRA.REPUL.0>
0

>  <SCORE.INTRA.SOLV>
0.810095

>  <SCORE.INTRA.SOLV.lig_0>
-163.975

>  <SCORE.INTRA.VDW>
-0.965835

>  <SCORE.INTRA.VDW.0>
-1.49176

>  <SCORE.INTRA.norm>
-0.0122034

>  <SCORE.RESTR>
0

>  <SCORE.RESTR.CAVITY>
0

>  <SCORE.RESTR.norm>
0

>  <SCORE.SYSTEM>
0

>  <SCORE.SYSTEM.CONST>
0

>  <SCORE.SYSTEM.DIHEDRAL>
0

>  <SCORE.SYSTEM.SOLV>
0

>  <SCORE.SYSTEM.norm>
0

>  <SCORE.heavy>
45

>  <SCORE.norm>
-0.463302

>  <RMSD>
7.763

$$$$
ligand
 OpenBabel11021811513D
libRbt.so/2013.1/901 2013/11/27
 45 51  0  0  0  0  0  0  0  0999 V2000
   93.3669    9.4979   97.0428 C   0  0  0  0  0  0  0  0  0  0  0  0
   96.0527    8.2148   92.7754 C   0  0  0  0  0  0  0  0  0  0  0  0
   98.6884    7.4905   97.2776 N   0  0  0  0  0  0  0  0  0  0  0  0
   94.0481   10.1121   97.9549 N   0  0  0  0  0  0  0  0  0  0  0  0
   96.4437    7.9197   96.7943 N   0  0  0  0  0  0  0  0  0  0  0  0
   97.5203    9.1318   98.4638 N   0  0  0  0  0  0  0  0  0  0  0  0
   96.3695   10.8689   99.6607 O   0  0  0  0  0  0  0  0  0  0  0  0
   99.0899    8.7736   92.9773 O   0  5  0  0  0  0  0  0  0  0  0  0
   92.0013   10.1366   90.5303 O   0  5  0  0  0  0  0  0  0  0  0  0
   91.8339    7.7882   94.0084 O   0  0  0  0  0  0  0  0  0  0  0  0
   98.5302   10.5319   94.2216 O   0  5  0  0  0  0  0  0  0  0  0  0
   91.6706   10.7059   92.6664 O   0  5  0  0  0  0  0  0  0  0  0  0
   96.8702    8.7138   93.7568 O   0  0  0  0  0  0  0  0  0  0  0  0
   94.7888    7.1477   94.7131 O   0  0  0  0  0  0  0  0  0  0  0  0
   93.2511    8.8041   92.0462 O   0  0  0  0  0  0  0  0  0  0  0  0
   97.4827    8.2118   97.5321 C   0  0  0  0  0  0  0  0  0  0  0  0
   96.4356    9.8552   98.7066 C   0  0  0  0  0  0  0  0  0  0  0  0
   95.2652    9.5839   97.9625 C   0  0  0  0  0  0  0  0  0  0  0  0
   95.2974    8.6105   96.9945 C   0  0  0  0  0  0  0  0  0  0  0  0
   92.9472    8.4128   94.5285 C   0  0  2  0  0  0  0  0  0  0  0  0
   94.7505    7.7655   93.3046 C   0  0  1  0  0  0  0  0  0  0  0  0
   93.9392    8.7135   93.2881 C   0  0  1  0  0  0  0  0  0  0  0  0
   93.6191    7.7425   95.4460 C   0  0  2  0  0  0  0  0  0  0  0  0
   94.0728    8.5963   96.4668 N   0  0  0  0  0  0  0  0  0  0  0  0
   98.0156    9.6392   93.2431 P   0  0  2  0  0  0  0  0  0  0  0  0
   92.6716   10.2036   91.7573 P   0  0  1  0  0  0  0  0  0  0  0  0
   94.9792   10.8428   90.7138 C   0  0  0  0  0  0  0  0  0  0  0  0
   93.8522   11.2027   91.5289 O   0  0  0  0  0  0  0  0  0  0  0  0
   96.1711   11.6841   90.8983 C   0  0  1  0  0  0  0  0  0  0  0  0
   95.6903   13.2157   90.9755 O   0  0  0  0  0  0  0  0  0  0  0  0
   96.7026   11.4408   92.0110 C   0  0  1  0  0  0  0  0  0  0  0  0
   97.6598   10.3593   91.9359 O   0  0  0  0  0  0  0  0  0  0  0  0
   97.2965   12.7753   92.4355 C   0  0  1  0  0  0  0  0  0  0  0  0
   98.4343   12.9318   91.9133 O   0  0  0  0  0  0  0  0  0  0  0  0
   96.3413   13.8181   91.8548 C   0  0  2  0  0  0  0  0  0  0  0  0
   92.8243   13.6852   95.6028 N   0  0  0  0  0  0  0  0  0  0  0  0
   93.2578   12.6413   94.8484 C   0  0  0  0  0  0  0  0  0  0  0  0
   94.1850   12.8922   93.9320 N   0  0  0  0  0  0  0  0  0  0  0  0
   94.6742   14.1211   93.6609 C   0  0  0  0  0  0  0  0  0  0  0  0
   94.2485   15.2301   94.4231 C   0  0  0  0  0  0  0  0  0  0  0  0
   93.2647   14.9449   95.4231 C   0  0  0  0  0  0  0  0  0  0  0  0
   92.7592   16.0095   96.2262 N   0  0  0  0  0  0  0  0  0  0  0  0
   94.9000   16.2494   93.9845 N   0  0  0  0  0  0  0  0  0  0  0  0
   95.7153   15.8537   93.0224 C   0  0  0  0  0  0  0  0  0  0  0  0
   95.5845   14.5951   92.7980 N   0  0  0  0  0  0  0  0  0  0  0  0
  1 24  1  0  0  0  0
  1  4  2  0  0  0  0
  2 13  1  0  0  0  0
  2 21  1  0  0  0  0
  3 16  1  0  0  0  0
  4 18  1  0  0  0  0
  5 19  2  0  0  0  0
  5 16  1  0  0  0  0
  6 16  2  0  0  0  0
  6 17  1  0  0  0  0
  7 17  1  0  0  0  0
 11 25  2  0  0  0  0
 12 26  2  0  0  0  0
 13 25  1  0  0  0  0
 14 23  1  0  0  0  0
 15 26  1  0  0  0  0
 17 18  2  0  0  0  0
 18 19  1  0  0  0  0
 19 24  1  0  0  0  0
 20 10  1  6  0  0  0
 20 22  1  0  0  0  0
 20 23  1  0  0  0  0
 21 14  1  1  0  0  0
 21 22  1  0  0  0  0
 22 15  1  6  0  0  0
 23 24  1  1  0  0  0
 25  8  1  6  0  0  0
 25 32  1  0  0  0  0
 26  9  1  6  0  0  0
 26 28  1  0  0  0  0
 27 28  1  0  0  0  0
 29 27  1  1  0  0  0
 29 30  1  0  0  0  0
 29 31  1  0  0  0  0
 30 35  1  0  0  0  0
 31 33  1  0  0  0  0
 31 32  1  6  0  0  0
 33 34  1  6  0  0  0
 33 35  1  0  0  0  0
 35 45  1  1  0  0  0
 36 41  2  0  0  0  0
 36 37  1  0  0  0  0
 37 38  2  0  0  0  0
 38 39  1  0  0  0  0
 39 40  2  0  0  0  0
 39 45  1  0  0  0  0
 40 41  1  0  0  0  0
 40 43  1  0  0  0  0
 41 42  1  0  0  0  0
 43 44  2  0  0  0  0
 44 45  1  0  0  0  0
M  CHG  4   8  -1   9  -1  11  -1  12  -1
M  END
>  <CHROM.1>
161.53420023,62.36171638,95.21425500,10.73663260,94.10317574,-0.09196305
-1.35387919,0.81573956

>  <Name>
ligand

>  <RI>
0

>  <Rbt.Current_Directory>
/home/itssahil/PROJECTS/Mol_Feturizer/New_Systems/rnas/4YAZ

>  <Rbt.Executable>
rbdock ($Id: //depot/dev/client3/rdock/2013.1/src/exe/rbdock.cxx#4 $)

>  <Rbt.Library>
libRbt.so (2013.1, Build901 2013/11/27)

>  <Rbt.Parameter_File>
/export/apps/rDock/src/rDock_2013.1_src/data/scripts/dock_solv.prm

>  <Rbt.Receptor>
prm/pocket_docking_6.prm

>  <SCORE>
-15.5995

>  <SCORE.INTER>
-14.1424

>  <SCORE.INTER.CONST>
1

>  <SCORE.INTER.POLAR>
0

>  <SCORE.INTER.ROT>
2

>  <SCORE.INTER.SOLV>
11.5069

>  <SCORE.INTER.VDW>
-18.1972

>  <SCORE.INTER.norm>
-0.314275

>  <SCORE.INTRA>
-1.45716

>  <SCORE.INTRA.DIHEDRAL>
0.0142768

>  <SCORE.INTRA.DIHEDRAL.0>
2.39103

>  <SCORE.INTRA.POLAR>
0

>  <SCORE.INTRA.POLAR.0>
0

>  <SCORE.INTRA.REPUL>
0

>  <SCORE.INTRA.REPUL.0>
0

>  <SCORE.INTRA.SOLV>
1.44986

>  <SCORE.INTRA.SOLV.lig_0>
-163.975

>  <SCORE.INTRA.VDW>
-2.18923

>  <SCORE.INTRA.VDW.0>
-1.49176

>  <SCORE.INTRA.norm>
-0.0323814

>  <SCORE.RESTR>
0

>  <SCORE.RESTR.CAVITY>
0

>  <SCORE.RESTR.norm>
0

>  <SCORE.SYSTEM>
0

>  <SCORE.SYSTEM.CONST>
0

>  <SCORE.SYSTEM.DIHEDRAL>
0

>  <SCORE.SYSTEM.SOLV>
0

>  <SCORE.SYSTEM.norm>
0

>  <SCORE.heavy>
45

>  <SCORE.norm>
-0.346656

>  <RMSD>
7.772

$$$$
ligand
 OpenBabel11021811513D
libRbt.so/2013.1/901 2013/11/27
 45 51  0  0  0  0  0  0  0  0999 V2000
   92.6459    9.9200   97.3699 C   0  0  0  0  0  0  0  0  0  0  0  0
   95.8109   10.1958   93.3985 C   0  0  0  0  0  0  0  0  0  0  0  0
   98.1468    9.0007   98.5094 N   0  0  0  0  0  0  0  0  0  0  0  0
   92.9963   10.5286   98.4562 N   0  0  0  0  0  0  0  0  0  0  0  0
   95.9890    9.0352   97.6154 N   0  0  0  0  0  0  0  0  0  0  0  0
   96.4478   10.2004   99.5769 N   0  0  0  0  0  0  0  0  0  0  0  0
   94.7422   11.4951  100.6674 O   0  0  0  0  0  0  0  0  0  0  0  0
   98.4279   11.7336   94.0016 O   0  5  0  0  0  0  0  0  0  0  0  0
   91.4689   10.9279   90.9985 O   0  5  0  0  0  0  0  0  0  0  0  0
   91.9669    8.1378   94.0981 O   0  0  0  0  0  0  0  0  0  0  0  0
   97.2059   12.9623   95.3982 O   0  5  0  0  0  0  0  0  0  0  0  0
   90.8391   10.9934   93.1422 O   0  5  0  0  0  0  0  0  0  0  0  0
   96.3390   10.7818   94.5201 O   0  0  0  0  0  0  0  0  0  0  0  0
   94.9111    8.4578   95.0296 O   0  0  0  0  0  0  0  0  0  0  0  0
   93.0292    9.8856   92.4527 O   0  0  0  0  0  0  0  0  0  0  0  0
   96.7854    9.4260   98.5758 C   0  0  0  0  0  0  0  0  0  0  0  0
   95.2040   10.6534   99.6571 C   0  0  0  0  0  0  0  0  0  0  0  0
   94.2783   10.2575   98.6655 C   0  0  0  0  0  0  0  0  0  0  0  0
   94.7011    9.4501   97.6384 C   0  0  0  0  0  0  0  0  0  0  0  0
   92.7508    9.0170   94.8139 C   0  0  2  0  0  0  0  0  0  0  0  0
   94.7304    9.2430   93.7190 C   0  0  1  0  0  0  0  0  0  0  0  0
   93.6347    9.8399   93.7393 C   0  0  1  0  0  0  0  0  0  0  0  0
   93.5674    8.4826   95.7028 C   0  0  2  0  0  0  0  0  0  0  0  0
   93.6269    9.2636   96.8704 N   0  0  0  0  0  0  0  0  0  0  0  0
   97.1013   12.1173   94.2605 P   0  0  2  0  0  0  0  0  0  0  0  0
   92.0020   11.0240   92.2893 P   0  0  1  0  0  0  0  0  0  0  0  0
   93.9788   12.5843   91.5965 C   0  0  0  0  0  0  0  0  0  0  0  0
   92.7549   12.3936   92.3242 O   0  0  0  0  0  0  0  0  0  0  0  0
   94.7763   13.7454   92.0187 C   0  0  1  0  0  0  0  0  0  0  0  0
   93.7734   14.9808   92.2441 O   0  0  0  0  0  0  0  0  0  0  0  0
   95.2979   13.5251   93.1409 C   0  0  1  0  0  0  0  0  0  0  0  0
   96.5826   12.8705   93.0287 O   0  0  0  0  0  0  0  0  0  0  0  0
   95.3478   14.8953   93.7995 C   0  0  1  0  0  0  0  0  0  0  0  0
   96.3800   15.5193   93.4294 O   0  0  0  0  0  0  0  0  0  0  0  0
   94.1149   15.6210   93.2607 C   0  0  2  0  0  0  0  0  0  0  0  0
   89.0494   16.1024   93.9976 N   0  0  0  0  0  0  0  0  0  0  0  0
   89.6860   15.8448   92.8250 C   0  0  0  0  0  0  0  0  0  0  0  0
   91.0099   15.7514   92.8555 N   0  0  0  0  0  0  0  0  0  0  0  0
   91.7624   15.9580   93.9573 C   0  0  0  0  0  0  0  0  0  0  0  0
   91.1375   16.2276   95.1938 C   0  0  0  0  0  0  0  0  0  0  0  0
   89.7086   16.3046   95.1542 C   0  0  0  0  0  0  0  0  0  0  0  0
   88.9935   16.5959   96.3532 N   0  0  0  0  0  0  0  0  0  0  0  0
   92.0781   16.3349   96.0653 N   0  0  0  0  0  0  0  0  0  0  0  0
   93.2392   16.1298   95.4682 C   0  0  0  0  0  0  0  0  0  0  0  0
   93.0788   15.9234   94.2100 N   0  0  0  0  0  0  0  0  0  0  0  0
  1 24  1  0  0  0  0
  1  4  2  0  0  0  0
  2 13  1  0  0  0  0
  2 21  1  0  0  0  0
  3 16  1  0  0  0  0
  4 18  1  0  0  0  0
  5 19  2  0  0  0  0
  5 16  1  0  0  0  0
  6 16  2  0  0  0  0
  6 17  1  0  0  0  0
  7 17  1  0  0  0  0
 11 25  2  0  0  0  0
 12 26  2  0  0  0  0
 13 25  1  0  0  0  0
 14 23  1  0  0  0  0
 15 26  1  0  0  0  0
 17 18  2  0  0  0  0
 18 19  1  0  0  0  0
 19 24  1  0  0  0  0
 20 10  1  6  0  0  0
 20 22  1  0  0  0  0
 20 23  1  0  0  0  0
 21 14  1  1  0  0  0
 21 22  1  0  0  0  0
 22 15  1  6  0  0  0
 23 24  1  1  0  0  0
 25  8  1  6  0  0  0
 25 32  1  0  0  0  0
 26  9  1  6  0  0  0
 26 28  1  0  0  0  0
 27 28  1  0  0  0  0
 29 27  1  1  0  0  0
 29 30  1  0  0  0  0
 29 31  1  0  0  0  0
 30 35  1  0  0  0  0
 31 33  1  0  0  0  0
 31 32  1  6  0  0  0
 33 34  1  6  0  0  0
 33 35  1  0  0  0  0
 35 45  1  1  0  0  0
 36 41  2  0  0  0  0
 36 37  1  0  0  0  0
 37 38  2  0  0  0  0
 38 39  1  0  0  0  0
 39 40  2  0  0  0  0
 39 45  1  0  0  0  0
 40 41  1  0  0  0  0
 40 43  1  0  0  0  0
 41 42  1  0  0  0  0
 43 44  2  0  0  0  0
 44 45  1  0  0  0  0
M  CHG  4   8  -1   9  -1  11  -1  12  -1
M  END
>  <CHROM.1>
150.67891008,-21.46614749,93.90994463,12.15376293,94.77969979,0.29347175
-0.98995459,1.34336432

>  <Name>
ligand

>  <RI>
0

>  <Rbt.Current_Directory>
/home/itssahil/PROJECTS/Mol_Feturizer/New_Systems/rnas/4YAZ

>  <Rbt.Executable>
rbdock ($Id: //depot/dev/client3/rdock/2013.1/src/exe/rbdock.cxx#4 $)

>  <Rbt.Library>
libRbt.so (2013.1, Build901 2013/11/27)

>  <Rbt.Parameter_File>
/export/apps/rDock/src/rDock_2013.1_src/data/scripts/dock_solv.prm

>  <Rbt.Receptor>
prm/pocket_docking_6.prm

>  <SCORE>
-14.1207

>  <SCORE.INTER>
-14.5757

>  <SCORE.INTER.CONST>
1

>  <SCORE.INTER.POLAR>
0

>  <SCORE.INTER.ROT>
2

>  <SCORE.INTER.SOLV>
16.1836

>  <SCORE.INTER.VDW>
-20.045

>  <SCORE.INTER.norm>
-0.323905

>  <SCORE.INTRA>
0.455038

>  <SCORE.INTRA.DIHEDRAL>
0.143835

>  <SCORE.INTRA.DIHEDRAL.0>
2.39103

>  <SCORE.INTRA.POLAR>
0

>  <SCORE.INTRA.POLAR.0>
0

>  <SCORE.INTRA.REPUL>
0

>  <SCORE.INTRA.REPUL.0>
0

>  <SCORE.INTRA.SOLV>
0.0607065

>  <SCORE.INTRA.SOLV.lig_0>
-163.975

>  <SCORE.INTRA.VDW>
0.352767

>  <SCORE.INTRA.VDW.0>
-1.49176

>  <SCORE.INTRA.norm>
0.010112

>  <SCORE.RESTR>
0

>  <SCORE.RESTR.CAVITY>
0

>  <SCORE.RESTR.norm>
0

>  <SCORE.SYSTEM>
0

>  <SCORE.SYSTEM.CONST>
0

>  <SCORE.SYSTEM.DIHEDRAL>
0

>  <SCORE.SYSTEM.SOLV>
0

>  <SCORE.SYSTEM.norm>
0

>  <SCORE.heavy>
45

>  <SCORE.norm>
-0.313793

>  <RMSD>
7.847

$$$$
ligand
 OpenBabel11021811523D
libRbt.so/2013.1/901 2013/11/27
 45 51  0  0  0  0  0  0  0  0999 V2000
   92.4220    9.5110   96.9006 C   0  0  0  0  0  0  0  0  0  0  0  0
   95.7111    8.9498   92.9787 C   0  0  0  0  0  0  0  0  0  0  0  0
   97.9724    8.8601   97.9836 N   0  0  0  0  0  0  0  0  0  0  0  0
   92.7986   10.3021   97.8522 N   0  0  0  0  0  0  0  0  0  0  0  0
   95.7855    8.7169   97.1751 N   0  0  0  0  0  0  0  0  0  0  0  0
   96.2907   10.2088   98.8882 N   0  0  0  0  0  0  0  0  0  0  0  0
   94.6016   11.6550   99.7992 O   0  0  0  0  0  0  0  0  0  0  0  0
   98.4103   10.4079   93.3859 O   0  5  0  0  0  0  0  0  0  0  0  0
   91.4794    9.5052   90.3457 O   0  5  0  0  0  0  0  0  0  0  0  0
   91.7256    7.2887   93.9047 O   0  0  0  0  0  0  0  0  0  0  0  0
   97.2423   11.9386   94.5021 O   0  5  0  0  0  0  0  0  0  0  0  0
   90.8094    9.9910   92.4220 O   0  5  0  0  0  0  0  0  0  0  0  0
   96.2526    9.6934   93.9957 O   0  0  0  0  0  0  0  0  0  0  0  0
   94.6638    7.5896   94.8612 O   0  0  0  0  0  0  0  0  0  0  0  0
   92.9360    8.6462   92.0118 O   0  0  0  0  0  0  0  0  0  0  0  0
   96.6072    9.2763   98.0243 C   0  0  0  0  0  0  0  0  0  0  0  0
   95.0430   10.6559   98.9335 C   0  0  0  0  0  0  0  0  0  0  0  0
   94.0911   10.0847   98.0590 C   0  0  0  0  0  0  0  0  0  0  0  0
   94.4925    9.1161   97.1723 C   0  0  0  0  0  0  0  0  0  0  0  0
   92.5502    8.2321   94.4790 C   0  0  2  0  0  0  0  0  0  0  0  0
   94.5635    8.1375   93.4271 C   0  0  1  0  0  0  0  0  0  0  0  0
   93.5093    8.7941   93.3054 C   0  0  1  0  0  0  0  0  0  0  0  0
   93.3105    7.8163   95.4748 C   0  0  2  0  0  0  0  0  0  0  0  0
   93.3964    8.7883   96.4871 N   0  0  0  0  0  0  0  0  0  0  0  0
   97.1067   10.9120   93.5291 P   0  0  2  0  0  0  0  0  0  0  0  0
   91.9899    9.7976   91.6158 P   0  0  1  0  0  0  0  0  0  0  0  0
   94.0797   11.0853   90.7232 C   0  0  0  0  0  0  0  0  0  0  0  0
   92.8305   11.1028   91.4326 O   0  0  0  0  0  0  0  0  0  0  0  0
   94.9428   12.2521   90.9594 C   0  0  1  0  0  0  0  0  0  0  0  0
   94.0190   13.5669   90.9295 O   0  0  0  0  0  0  0  0  0  0  0  0
   95.4245   12.2045   92.1193 C   0  0  1  0  0  0  0  0  0  0  0  0
   96.6653   11.4631   92.1670 O   0  0  0  0  0  0  0  0  0  0  0  0
   95.5506   13.6647   92.5263 C   0  0  1  0  0  0  0  0  0  0  0  0
   96.6294   14.1483   92.0858 O   0  0  0  0  0  0  0  0  0  0  0  0
   94.3801   14.3564   91.8274 C   0  0  2  0  0  0  0  0  0  0  0  0
   93.1823   15.9499   96.5666 N   0  0  0  0  0  0  0  0  0  0  0  0
   94.3597   15.4088   96.1571 C   0  0  0  0  0  0  0  0  0  0  0  0
   94.4649   15.0696   94.8780 N   0  0  0  0  0  0  0  0  0  0  0  0
   93.4620   15.1681   93.9794 C   0  0  0  0  0  0  0  0  0  0  0  0
   92.2244   15.7252   94.3669 C   0  0  0  0  0  0  0  0  0  0  0  0
   92.1288   16.1078   95.7430 C   0  0  0  0  0  0  0  0  0  0  0  0
   90.9066   16.6589   96.2292 N   0  0  0  0  0  0  0  0  0  0  0  0
   91.4816   15.7371   93.3163 N   0  0  0  0  0  0  0  0  0  0  0  0
   92.1718   15.2503   92.2996 C   0  0  0  0  0  0  0  0  0  0  0  0
   93.3461   14.8863   92.6736 N   0  0  0  0  0  0  0  0  0  0  0  0
  1 24  1  0  0  0  0
  1  4  2  0  0  0  0
  2 13  1  0  0  0  0
  2 21  1  0  0  0  0
  3 16  1  0  0  0  0
  4 18  1  0  0  0  0
  5 19  2  0  0  0  0
  5 16  1  0  0  0  0
  6 16  2  0  0  0  0
  6 17  1  0  0  0  0
  7 17  1  0  0  0  0
 11 25  2  0  0  0  0
 12 26  2  0  0  0  0
 13 25  1  0  0  0  0
 14 23  1  0  0  0  0
 15 26  1  0  0  0  0
 17 18  2  0  0  0  0
 18 19  1  0  0  0  0
 19 24  1  0  0  0  0
 20 10  1  6  0  0  0
 20 22  1  0  0  0  0
 20 23  1  0  0  0  0
 21 14  1  1  0  0  0
 21 22  1  0  0  0  0
 22 15  1  6  0  0  0
 23 24  1  1  0  0  0
 25  8  1  6  0  0  0
 25 32  1  0  0  0  0
 26  9  1  6  0  0  0
 26 28  1  0  0  0  0
 27 28  1  0  0  0  0
 29 27  1  1  0  0  0
 29 30  1  0  0  0  0
 29 31  1  0  0  0  0
 30 35  1  0  0  0  0
 31 33  1  0  0  0  0
 31 32  1  6  0  0  0
 33 34  1  6  0  0  0
 33 35  1  0  0  0  0
 35 45  1  1  0  0  0
 36 41  2  0  0  0  0
 36 37  1  0  0  0  0
 37 38  2  0  0  0  0
 38 39  1  0  0  0  0
 39 40  2  0  0  0  0
 39 45  1  0  0  0  0
 40 41  1  0  0  0  0
 40 43  1  0  0  0  0
 41 42  1  0  0  0  0
 43 44  2  0  0  0  0
 44 45  1  0  0  0  0
M  CHG  4   8  -1   9  -1  11  -1  12  -1
M  END
>  <CHROM.1>
156.37019718,145.29490264,94.22212819,11.31969828,94.23384028,-0.50909376
-1.26137826,0.50793550

>  <Name>
ligand

>  <RI>
0

>  <Rbt.Current_Directory>
/home/itssahil/PROJECTS/Mol_Feturizer/New_Systems/rnas/4YAZ

>  <Rbt.Executable>
rbdock ($Id: //depot/dev/client3/rdock/2013.1/src/exe/rbdock.cxx#4 $)

>  <Rbt.Library>
libRbt.so (2013.1, Build901 2013/11/27)

>  <Rbt.Parameter_File>
/export/apps/rDock/src/rDock_2013.1_src/data/scripts/dock_solv.prm

>  <Rbt.Receptor>
prm/pocket_docking_8.prm

>  <SCORE>
-15.4678

>  <SCORE.INTER>
-15.5878

>  <SCORE.INTER.CONST>
1

>  <SCORE.INTER.POLAR>
0

>  <SCORE.INTER.ROT>
2

>  <SCORE.INTER.SOLV>
10.3902

>  <SCORE.INTER.VDW>
-18.7886

>  <SCORE.INTER.norm>
-0.346396

>  <SCORE.INTRA>
0.120036

>  <SCORE.INTRA.DIHEDRAL>
-0.113688

>  <SCORE.INTRA.DIHEDRAL.0>
2.39103

>  <SCORE.INTRA.POLAR>
0

>  <SCORE.INTRA.POLAR.0>
0

>  <SCORE.INTRA.REPUL>
0

>  <SCORE.INTRA.REPUL.0>
0

>  <SCORE.INTRA.SOLV>
0.044793

>  <SCORE.INTRA.SOLV.lig_0>
-163.975

>  <SCORE.INTRA.VDW>
0.154484

>  <SCORE.INTRA.VDW.0>
-1.49176

>  <SCORE.INTRA.norm>
0.00266747

>  <SCORE.RESTR>
0

>  <SCORE.RESTR.CAVITY>
0

>  <SCORE.RESTR.norm>
0

>  <SCORE.SYSTEM>
0

>  <SCORE.SYSTEM.CONST>
0

>  <SCORE.SYSTEM.DIHEDRAL>
0

>  <SCORE.SYSTEM.SOLV>
0

>  <SCORE.SYSTEM.norm>
0

>  <SCORE.heavy>
45

>  <SCORE.norm>
-0.343729

>  <RMSD>
7.875

$$$$
ligand
 OpenBabel11021811513D
libRbt.so/2013.1/901 2013/11/27
 45 51  0  0  0  0  0  0  0  0999 V2000
   92.6006    9.9130   97.0043 C   0  0  0  0  0  0  0  0  0  0  0  0
   96.0235    8.6704   93.2894 C   0  0  0  0  0  0  0  0  0  0  0  0
   97.9679    8.4279   98.1829 N   0  0  0  0  0  0  0  0  0  0  0  0
   93.0744   10.6351   97.9673 N   0  0  0  0  0  0  0  0  0  0  0  0
   95.8000    8.6192   97.3345 N   0  0  0  0  0  0  0  0  0  0  0  0
   96.4925   10.0122   99.0653 N   0  0  0  0  0  0  0  0  0  0  0  0
   95.0243   11.6939   99.9544 O   0  0  0  0  0  0  0  0  0  0  0  0
   98.9319    9.5244   93.9132 O   0  5  0  0  0  0  0  0  0  0  0  0
   92.2259   10.0807   90.3335 O   0  5  0  0  0  0  0  0  0  0  0  0
   91.7155    7.9100   93.8926 O   0  0  0  0  0  0  0  0  0  0  0  0
   98.0349   11.2837   94.9396 O   0  5  0  0  0  0  0  0  0  0  0  0
   91.5159   10.7257   92.3524 O   0  5  0  0  0  0  0  0  0  0  0  0
   96.6306    9.2948   94.3487 O   0  0  0  0  0  0  0  0  0  0  0  0
   94.5667    7.5899   95.0786 O   0  0  0  0  0  0  0  0  0  0  0  0
   93.3313    8.9529   92.1059 O   0  0  0  0  0  0  0  0  0  0  0  0
   96.6807    9.0454   98.2017 C   0  0  0  0  0  0  0  0  0  0  0  0
   95.3259   10.6425   99.0908 C   0  0  0  0  0  0  0  0  0  0  0  0
   94.3152   10.2243   98.1960 C   0  0  0  0  0  0  0  0  0  0  0  0
   94.5823    9.2091   97.3108 C   0  0  0  0  0  0  0  0  0  0  0  0
   92.6754    8.6634   94.5336 C   0  0  2  0  0  0  0  0  0  0  0  0
   94.6975    8.1276   93.6431 C   0  0  1  0  0  0  0  0  0  0  0  0
   93.8207    8.9923   93.4412 C   0  0  1  0  0  0  0  0  0  0  0  0
   93.2496    8.1081   95.5846 C   0  0  2  0  0  0  0  0  0  0  0  0
   93.4622    9.0527   96.6041 N   0  0  0  0  0  0  0  0  0  0  0  0
   97.7590   10.2968   93.9552 P   0  0  2  0  0  0  0  0  0  0  0  0
   92.6868   10.2743   91.6409 P   0  0  1  0  0  0  0  0  0  0  0  0
   95.0663   11.0746   90.9204 C   0  0  0  0  0  0  0  0  0  0  0  0
   93.7985   11.3676   91.5293 O   0  0  0  0  0  0  0  0  0  0  0  0
   96.1379   12.0336   91.2280 C   0  0  1  0  0  0  0  0  0  0  0  0
   95.5215   13.5146   91.1304 O   0  0  0  0  0  0  0  0  0  0  0  0
   96.5066   11.8996   92.4221 C   0  0  1  0  0  0  0  0  0  0  0  0
   97.5528   10.9113   92.5647 O   0  0  0  0  0  0  0  0  0  0  0  0
   96.9098   13.3046   92.8432 C   0  0  1  0  0  0  0  0  0  0  0  0
   98.0979   13.5411   92.4908 O   0  0  0  0  0  0  0  0  0  0  0  0
   95.9720   14.2207   92.0568 C   0  0  2  0  0  0  0  0  0  0  0  0
   91.0560   14.5628   93.5230 N   0  0  0  0  0  0  0  0  0  0  0  0
   91.5932   13.6595   92.6615 C   0  0  0  0  0  0  0  0  0  0  0  0
   92.8967   13.7416   92.4234 N   0  0  0  0  0  0  0  0  0  0  0  0
   93.7041   14.6982   92.9294 C   0  0  0  0  0  0  0  0  0  0  0  0
   93.1829   15.6538   93.8278 C   0  0  0  0  0  0  0  0  0  0  0  0
   91.7809   15.5430   94.0948 C   0  0  0  0  0  0  0  0  0  0  0  0
   91.1631   16.4811   94.9736 N   0  0  0  0  0  0  0  0  0  0  0  0
   94.1680   16.4030   94.1799 N   0  0  0  0  0  0  0  0  0  0  0  0
   95.2668   15.9711   93.5857 C   0  0  0  0  0  0  0  0  0  0  0  0
   95.0126   14.9702   92.8209 N   0  0  0  0  0  0  0  0  0  0  0  0
  1 24  1  0  0  0  0
  1  4  2  0  0  0  0
  2 13  1  0  0  0  0
  2 21  1  0  0  0  0
  3 16  1  0  0  0  0
  4 18  1  0  0  0  0
  5 19  2  0  0  0  0
  5 16  1  0  0  0  0
  6 16  2  0  0  0  0
  6 17  1  0  0  0  0
  7 17  1  0  0  0  0
 11 25  2  0  0  0  0
 12 26  2  0  0  0  0
 13 25  1  0  0  0  0
 14 23  1  0  0  0  0
 15 26  1  0  0  0  0
 17 18  2  0  0  0  0
 18 19  1  0  0  0  0
 19 24  1  0  0  0  0
 20 10  1  6  0  0  0
 20 22  1  0  0  0  0
 20 23  1  0  0  0  0
 21 14  1  1  0  0  0
 21 22  1  0  0  0  0
 22 15  1  6  0  0  0
 23 24  1  1  0  0  0
 25  8  1  6  0  0  0
 25 32  1  0  0  0  0
 26  9  1  6  0  0  0
 26 28  1  0  0  0  0
 27 28  1  0  0  0  0
 29 27  1  1  0  0  0
 29 30  1  0  0  0  0
 29 31  1  0  0  0  0
 30 35  1  0  0  0  0
 31 33  1  0  0  0  0
 31 32  1  6  0  0  0
 33 34  1  6  0  0  0
 33 35  1  0  0  0  0
 35 45  1  1  0  0  0
 36 41  2  0  0  0  0
 36 37  1  0  0  0  0
 37 38  2  0  0  0  0
 38 39  1  0  0  0  0
 39 40  2  0  0  0  0
 39 45  1  0  0  0  0
 40 41  1  0  0  0  0
 40 43  1  0  0  0  0
 41 42  1  0  0  0  0
 43 44  2  0  0  0  0
 44 45  1  0  0  0  0
M  CHG  4   8  -1   9  -1  11  -1  12  -1
M  END
>  <CHROM.1>
161.43659389,21.87408181,94.70313683,11.21063852,94.17420052,0.48072724,-1.22831275
1.33617375

>  <Name>
ligand

>  <RI>
0

>  <Rbt.Current_Directory>
/home/itssahil/PROJECTS/Mol_Feturizer/New_Systems/rnas/4YAZ

>  <Rbt.Executable>
rbdock ($Id: //depot/dev/client3/rdock/2013.1/src/exe/rbdock.cxx#4 $)

>  <Rbt.Library>
libRbt.so (2013.1, Build901 2013/11/27)

>  <Rbt.Parameter_File>
/export/apps/rDock/src/rDock_2013.1_src/data/scripts/dock_solv.prm

>  <Rbt.Receptor>
prm/pocket_docking_7.prm

>  <SCORE>
-17.853

>  <SCORE.INTER>
-17.2653

>  <SCORE.INTER.CONST>
1

>  <SCORE.INTER.POLAR>
0

>  <SCORE.INTER.ROT>
2

>  <SCORE.INTER.SOLV>
13.1978

>  <SCORE.INTER.VDW>
-20.8428

>  <SCORE.INTER.norm>
-0.383674

>  <SCORE.INTRA>
-0.587661

>  <SCORE.INTRA.DIHEDRAL>
-0.103625

>  <SCORE.INTRA.DIHEDRAL.0>
2.39103

>  <SCORE.INTRA.POLAR>
0

>  <SCORE.INTRA.POLAR.0>
0

>  <SCORE.INTRA.REPUL>
0

>  <SCORE.INTRA.REPUL.0>
0

>  <SCORE.INTRA.SOLV>
1.92049

>  <SCORE.INTRA.SOLV.lig_0>
-163.975

>  <SCORE.INTRA.VDW>
-1.49609

>  <SCORE.INTRA.VDW.0>
-1.49176

>  <SCORE.INTRA.norm>
-0.0130591

>  <SCORE.RESTR>
0

>  <SCORE.RESTR.CAVITY>
0

>  <SCORE.RESTR.norm>
0

>  <SCORE.SYSTEM>
0

>  <SCORE.SYSTEM.CONST>
0

>  <SCORE.SYSTEM.DIHEDRAL>
0

>  <SCORE.SYSTEM.SOLV>
0

>  <SCORE.SYSTEM.norm>
0

>  <SCORE.heavy>
45

>  <SCORE.norm>
-0.396733

>  <RMSD>
7.954

$$$$
ligand
 OpenBabel11021811513D
libRbt.so/2013.1/901 2013/11/27
 45 51  0  0  0  0  0  0  0  0999 V2000
   97.8437   11.8129   95.6244 C   0  0  0  0  0  0  0  0  0  0  0  0
   95.7380    7.2231   96.4556 C   0  0  0  0  0  0  0  0  0  0  0  0
  101.1506    7.2300   94.9427 N   0  0  0  0  0  0  0  0  0  0  0  0
   98.5820   11.9339   94.5691 N   0  0  0  0  0  0  0  0  0  0  0  0
   99.6352    8.8454   95.6847 N   0  0  0  0  0  0  0  0  0  0  0  0
  100.8764    9.2236   93.7528 N   0  0  0  0  0  0  0  0  0  0  0  0
  100.5756   11.2332   92.4701 O   0  0  0  0  0  0  0  0  0  0  0  0
   96.5883    5.0691   94.4026 O   0  5  0  0  0  0  0  0  0  0  0  0
   91.7595   10.0979   97.4831 O   0  5  0  0  0  0  0  0  0  0  0  0
   95.6800   11.0585   98.6436 O   0  0  0  0  0  0  0  0  0  0  0  0
   96.6919    6.7324   92.9275 O   0  5  0  0  0  0  0  0  0  0  0  0
   93.2103   11.5812   96.6517 O   0  5  0  0  0  0  0  0  0  0  0  0
   96.5955    7.2074   95.3856 O   0  0  0  0  0  0  0  0  0  0  0  0
   97.4586    8.7867   97.4974 O   0  0  0  0  0  0  0  0  0  0  0  0
   94.0080    9.3417   97.5723 O   0  0  0  0  0  0  0  0  0  0  0  0
  100.5277    8.5059   94.7917 C   0  0  0  0  0  0  0  0  0  0  0  0
  100.2942   10.3977   93.5494 C   0  0  0  0  0  0  0  0  0  0  0  0
   99.3323   10.8429   94.4841 C   0  0  0  0  0  0  0  0  0  0  0  0
   99.0077   10.0364   95.5471 C   0  0  0  0  0  0  0  0  0  0  0  0
   96.1830   10.6293   97.4342 C   0  0  2  0  0  0  0  0  0  0  0  0
   95.9857    8.3656   97.3562 C   0  0  1  0  0  0  0  0  0  0  0  0
   95.3060    9.3460   96.9899 C   0  0  1  0  0  0  0  0  0  0  0  0
   97.4581   10.2878   97.4188 C   0  0  2  0  0  0  0  0  0  0  0  0
   98.0813   10.7090   96.2310 N   0  0  0  0  0  0  0  0  0  0  0  0
   96.1030    6.3666   94.1678 P   0  0  2  0  0  0  0  0  0  0  0  0
   92.9700   10.1650   96.7833 P   0  0  1  0  0  0  0  0  0  0  0  0
   92.5112    8.0348   95.3431 C   0  0  0  0  0  0  0  0  0  0  0  0
   92.6965    9.4576   95.4163 O   0  0  0  0  0  0  0  0  0  0  0  0
   92.6593    7.4590   93.9981 C   0  0  1  0  0  0  0  0  0  0  0  0
   91.9020    8.4235   92.9593 O   0  0  0  0  0  0  0  0  0  0  0  0
   93.8678    7.4742   93.6533 C   0  0  1  0  0  0  0  0  0  0  0  0
   94.5736    6.2856   94.0783 O   0  0  0  0  0  0  0  0  0  0  0  0
   93.8184    7.6685   92.1454 C   0  0  1  0  0  0  0  0  0  0  0  0
   93.6557    6.5585   91.5681 O   0  0  0  0  0  0  0  0  0  0  0  0
   92.5769    8.5299   91.9138 C   0  0  2  0  0  0  0  0  0  0  0  0
   92.4777   13.5410   93.0596 N   0  0  0  0  0  0  0  0  0  0  0  0
   92.0947   12.5102   93.8580 C   0  0  0  0  0  0  0  0  0  0  0  0
   92.2094   11.2817   93.3679 N   0  0  0  0  0  0  0  0  0  0  0  0
   92.6190   10.9980   92.1130 C   0  0  0  0  0  0  0  0  0  0  0  0
   93.0252   12.0418   91.2543 C   0  0  0  0  0  0  0  0  0  0  0  0
   92.9182   13.3608   91.8000 C   0  0  0  0  0  0  0  0  0  0  0  0
   93.2851   14.4794   90.9949 N   0  0  0  0  0  0  0  0  0  0  0  0
   93.4020   11.4882   90.1554 N   0  0  0  0  0  0  0  0  0  0  0  0
   93.2821   10.1773   90.2745 C   0  0  0  0  0  0  0  0  0  0  0  0
   92.7993    9.8624   91.4230 N   0  0  0  0  0  0  0  0  0  0  0  0
  1 24  1  0  0  0  0
  1  4  2  0  0  0  0
  2 13  1  0  0  0  0
  2 21  1  0  0  0  0
  3 16  1  0  0  0  0
  4 18  1  0  0  0  0
  5 19  2  0  0  0  0
  5 16  1  0  0  0  0
  6 16  2  0  0  0  0
  6 17  1  0  0  0  0
  7 17  1  0  0  0  0
 11 25  2  0  0  0  0
 12 26  2  0  0  0  0
 13 25  1  0  0  0  0
 14 23  1  0  0  0  0
 15 26  1  0  0  0  0
 17 18  2  0  0  0  0
 18 19  1  0  0  0  0
 19 24  1  0  0  0  0
 20 10  1  1  0  0  0
 20 22  1  0  0  0  0
 20 23  1  0  0  0  0
 21 14  1  6  0  0  0
 21 22  1  0  0  0  0
 22 15  1  1  0  0  0
 23 24  1  6  0  0  0
 25  8  1  1  0  0  0
 25 32  1  0  0  0  0
 26  9  1  1  0  0  0
 26 28  1  0  0  0  0
 27 28  1  0  0  0  0
 29 27  1  1  0  0  0
 29 30  1  0  0  0  0
 29 31  1  0  0  0  0
 30 35  1  0  0  0  0
 31 33  1  0  0  0  0
 31 32  1  6  0  0  0
 33 34  1  6  0  0  0
 33 35  1  0  0  0  0
 35 45  1  1  0  0  0
 36 41  2  0  0  0  0
 36 37  1  0  0  0  0
 37 38  2  0  0  0  0
 38 39  1  0  0  0  0
 39 40  2  0  0  0  0
 39 45  1  0  0  0  0
 40 41  1  0  0  0  0
 40 43  1  0  0  0  0
 41 42  1  0  0  0  0
 43 44  2  0  0  0  0
 44 45  1  0  0  0  0
M  CHG  4   8  -1   9  -1  11  -1  12  -1
M  END
>  <CHROM.1>
153.49200099,15.82865942,95.34977302,9.47275043,94.51267514,-0.41966269,-0.07236870
-0.76830850

>  <Name>
ligand

>  <RI>
0

>  <Rbt.Current_Directory>
/home/itssahil/PROJECTS/Mol_Feturizer/New_Systems/rnas/4YAZ

>  <Rbt.Executable>
rbdock ($Id: //depot/dev/client3/rdock/2013.1/src/exe/rbdock.cxx#4 $)

>  <Rbt.Library>
libRbt.so (2013.1, Build901 2013/11/27)

>  <Rbt.Parameter_File>
/export/apps/rDock/src/rDock_2013.1_src/data/scripts/dock_solv.prm

>  <Rbt.Receptor>
prm/pocket_docking_8.prm

>  <SCORE>
-7.51663

>  <SCORE.INTER>
-7.14132

>  <SCORE.INTER.CONST>
1

>  <SCORE.INTER.POLAR>
0

>  <SCORE.INTER.ROT>
2

>  <SCORE.INTER.SOLV>
18.8127

>  <SCORE.INTER.VDW>
-15.9651

>  <SCORE.INTER.norm>
-0.158696

>  <SCORE.INTRA>
-0.375318

>  <SCORE.INTRA.DIHEDRAL>
-0.0749418

>  <SCORE.INTRA.DIHEDRAL.0>
2.39103

>  <SCORE.INTRA.POLAR>
0

>  <SCORE.INTRA.POLAR.0>
0

>  <SCORE.INTRA.REPUL>
0

>  <SCORE.INTRA.REPUL.0>
0

>  <SCORE.INTRA.SOLV>
1.17361

>  <SCORE.INTRA.SOLV.lig_0>
-163.975

>  <SCORE.INTRA.VDW>
-0.92465

>  <SCORE.INTRA.VDW.0>
-1.49176

>  <SCORE.INTRA.norm>
-0.00834039

>  <SCORE.RESTR>
0

>  <SCORE.RESTR.CAVITY>
0

>  <SCORE.RESTR.norm>
0

>  <SCORE.SYSTEM>
0

>  <SCORE.SYSTEM.CONST>
0

>  <SCORE.SYSTEM.DIHEDRAL>
0

>  <SCORE.SYSTEM.SOLV>
0

>  <SCORE.SYSTEM.norm>
0

>  <SCORE.heavy>
45

>  <SCORE.norm>
-0.167036

>  <RMSD>
7.954

$$$$
ligand
 OpenBabel11021811523D
libRbt.so/2013.1/901 2013/11/27
 45 51  0  0  0  0  0  0  0  0999 V2000
   92.5429    9.8943   96.9899 C   0  0  0  0  0  0  0  0  0  0  0  0
   95.9699    8.6673   93.2707 C   0  0  0  0  0  0  0  0  0  0  0  0
   97.9200    8.4320   98.1526 N   0  0  0  0  0  0  0  0  0  0  0  0
   93.0157   10.6166   97.9533 N   0  0  0  0  0  0  0  0  0  0  0  0
   95.7492    8.6149   97.3097 N   0  0  0  0  0  0  0  0  0  0  0  0
   96.4392   10.0075   99.0418 N   0  0  0  0  0  0  0  0  0  0  0  0
   94.9652   11.6803   99.9380 O   0  0  0  0  0  0  0  0  0  0  0  0
   98.8766    9.5263   93.8960 O   0  5  0  0  0  0  0  0  0  0  0  0
   92.1697   10.0744   90.3167 O   0  5  0  0  0  0  0  0  0  0  0  0
   91.6635    7.8969   93.8724 O   0  0  0  0  0  0  0  0  0  0  0  0
   97.9758   11.2821   94.9252 O   0  5  0  0  0  0  0  0  0  0  0  0
   91.4582   10.7147   92.3366 O   0  5  0  0  0  0  0  0  0  0  0  0
   96.5757    9.2912   94.3310 O   0  0  0  0  0  0  0  0  0  0  0  0
   94.5153    7.5809   95.0580 O   0  0  0  0  0  0  0  0  0  0  0  0
   93.2773    8.9461   92.0874 O   0  0  0  0  0  0  0  0  0  0  0  0
   96.6299    9.0434   98.1757 C   0  0  0  0  0  0  0  0  0  0  0  0
   95.2697   10.6321   99.0715 C   0  0  0  0  0  0  0  0  0  0  0  0
   94.2589   10.2111   98.1781 C   0  0  0  0  0  0  0  0  0  0  0  0
   94.5287    9.1991   97.2902 C   0  0  0  0  0  0  0  0  0  0  0  0
   92.6219    8.6513   94.5146 C   0  0  2  0  0  0  0  0  0  0  0  0
   94.6451    8.1211   93.6234 C   0  0  1  0  0  0  0  0  0  0  0  0
   93.7666    8.9843   93.4228 C   0  0  1  0  0  0  0  0  0  0  0  0
   93.1971    8.0955   95.5648 C   0  0  2  0  0  0  0  0  0  0  0  0
   93.4077    9.0390   96.5857 N   0  0  0  0  0  0  0  0  0  0  0  0
   97.7021   10.2962   93.9392 P   0  0  2  0  0  0  0  0  0  0  0  0
   92.6300   10.2669   91.6245 P   0  0  1  0  0  0  0  0  0  0  0  0
   95.0080   11.0733   90.9054 C   0  0  0  0  0  0  0  0  0  0  0  0
   93.7395   11.3627   91.5147 O   0  0  0  0  0  0  0  0  0  0  0  0
   96.0775   12.0340   91.2147 C   0  0  1  0  0  0  0  0  0  0  0  0
   95.4581   13.5139   91.1193 O   0  0  0  0  0  0  0  0  0  0  0  0
   96.4465   11.8989   92.4086 C   0  0  1  0  0  0  0  0  0  0  0  0
   97.4947   10.9126   92.5496 O   0  0  0  0  0  0  0  0  0  0  0  0
   96.8467   13.3041   92.8319 C   0  0  1  0  0  0  0  0  0  0  0  0
   98.0343   13.5435   92.4800 O   0  0  0  0  0  0  0  0  0  0  0  0
   95.9070   14.2195   92.0469 C   0  0  2  0  0  0  0  0  0  0  0  0
   90.9854   14.5628   93.4938 N   0  0  0  0  0  0  0  0  0  0  0  0
   91.5243   13.6644   92.6282 C   0  0  0  0  0  0  0  0  0  0  0  0
   92.8290   13.7451   92.3965 N   0  0  0  0  0  0  0  0  0  0  0  0
   93.6364   14.6960   92.9129 C   0  0  0  0  0  0  0  0  0  0  0  0
   93.1135   15.6464   93.8159 C   0  0  0  0  0  0  0  0  0  0  0  0
   91.7100   15.5371   94.0758 C   0  0  0  0  0  0  0  0  0  0  0  0
   91.0906   16.4703   94.9587 N   0  0  0  0  0  0  0  0  0  0  0  0
   94.0988   16.3907   94.1778 N   0  0  0  0  0  0  0  0  0  0  0  0
   95.1992   15.9604   93.5853 C   0  0  0  0  0  0  0  0  0  0  0  0
   94.9460   14.9657   92.8122 N   0  0  0  0  0  0  0  0  0  0  0  0
  1 24  1  0  0  0  0
  1  4  2  0  0  0  0
  2 13  1  0  0  0  0
  2 21  1  0  0  0  0
  3 16  1  0  0  0  0
  4 18  1  0  0  0  0
  5 19  2  0  0  0  0
  5 16  1  0  0  0  0
  6 16  2  0  0  0  0
  6 17  1  0  0  0  0
  7 17  1  0  0  0  0
 11 25  2  0  0  0  0
 12 26  2  0  0  0  0
 13 25  1  0  0  0  0
 14 23  1  0  0  0  0
 15 26  1  0  0  0  0
 17 18  2  0  0  0  0
 18 19  1  0  0  0  0
 19 24  1  0  0  0  0
 20 10  1  6  0  0  0
 20 22  1  0  0  0  0
 20 23  1  0  0  0  0
 21 14  1  1  0  0  0
 21 22  1  0  0  0  0
 22 15  1  6  0  0  0
 23 24  1  1  0  0  0
 25  8  1  6  0  0  0
 25 32  1  0  0  0  0
 26  9  1  6  0  0  0
 26 28  1  0  0  0  0
 27 28  1  0  0  0  0
 29 27  1  1  0  0  0
 29 30  1  0  0  0  0
 29 31  1  0  0  0  0
 30 35  1  0  0  0  0
 31 33  1  0  0  0  0
 31 32  1  6  0  0  0
 33 34  1  6  0  0  0
 33 35  1  0  0  0  0
 35 45  1  1  0  0  0
 36 41  2  0  0  0  0
 36 37  1  0  0  0  0
 37 38  2  0  0  0  0
 38 39  1  0  0  0  0
 39 40  2  0  0  0  0
 39 45  1  0  0  0  0
 40 41  1  0  0  0  0
 40 43  1  0  0  0  0
 41 42  1  0  0  0  0
 43 44  2  0  0  0  0
 44 45  1  0  0  0  0
M  CHG  4   8  -1   9  -1  11  -1  12  -1
M  END
>  <CHROM.1>
161.64411358,21.39323055,94.64425306,11.20511350,94.15712877,0.44836008,-1.23059979
1.30429290

>  <Name>
ligand

>  <RI>
0

>  <Rbt.Current_Directory>
/home/itssahil/PROJECTS/Mol_Feturizer/New_Systems/rnas/4YAZ

>  <Rbt.Executable>
rbdock ($Id: //depot/dev/client3/rdock/2013.1/src/exe/rbdock.cxx#4 $)

>  <Rbt.Library>
libRbt.so (2013.1, Build901 2013/11/27)

>  <Rbt.Parameter_File>
/export/apps/rDock/src/rDock_2013.1_src/data/scripts/dock_solv.prm

>  <Rbt.Receptor>
prm/pocket_docking_8.prm

>  <SCORE>
-17.8834

>  <SCORE.INTER>
-17.2917

>  <SCORE.INTER.CONST>
1

>  <SCORE.INTER.POLAR>
0

>  <SCORE.INTER.ROT>
2

>  <SCORE.INTER.SOLV>
12.8191

>  <SCORE.INTER.VDW>
-20.7341

>  <SCORE.INTER.norm>
-0.384259

>  <SCORE.INTRA>
-0.591785

>  <SCORE.INTRA.DIHEDRAL>
-0.101843

>  <SCORE.INTRA.DIHEDRAL.0>
2.39103

>  <SCORE.INTRA.POLAR>
0

>  <SCORE.INTRA.POLAR.0>
0

>  <SCORE.INTRA.REPUL>
0

>  <SCORE.INTRA.REPUL.0>
0

>  <SCORE.INTRA.SOLV>
1.94226

>  <SCORE.INTRA.SOLV.lig_0>
-163.975

>  <SCORE.INTRA.VDW>
-1.51199

>  <SCORE.INTRA.VDW.0>
-1.49176

>  <SCORE.INTRA.norm>
-0.0131508

>  <SCORE.RESTR>
0

>  <SCORE.RESTR.CAVITY>
0

>  <SCORE.RESTR.norm>
0

>  <SCORE.SYSTEM>
0

>  <SCORE.SYSTEM.CONST>
0

>  <SCORE.SYSTEM.DIHEDRAL>
0

>  <SCORE.SYSTEM.SOLV>
0

>  <SCORE.SYSTEM.norm>
0

>  <SCORE.heavy>
45

>  <SCORE.norm>
-0.39741

>  <RMSD>
7.980

$$$$
ligand
 OpenBabel11021811523D
libRbt.so/2013.1/901 2013/11/27
 45 51  0  0  0  0  0  0  0  0999 V2000
   96.5433    8.6735   97.2913 C   0  0  0  0  0  0  0  0  0  0  0  0
   97.9619    9.1988   93.0365 C   0  0  0  0  0  0  0  0  0  0  0  0
   91.4999   11.1905   96.4964 N   0  0  0  0  0  0  0  0  0  0  0  0
   96.3263    9.5626   98.2054 N   0  0  0  0  0  0  0  0  0  0  0  0
   93.4363    9.8919   96.3528 N   0  0  0  0  0  0  0  0  0  0  0  0
   93.2058   11.4394   98.0755 N   0  0  0  0  0  0  0  0  0  0  0  0
   94.9107   11.6782   99.7520 O   0  0  0  0  0  0  0  0  0  0  0  0
  100.6456   10.6051   93.6672 O   0  5  0  0  0  0  0  0  0  0  0  0
   93.7837   10.0475   90.3964 O   0  5  0  0  0  0  0  0  0  0  0  0
   93.9654    7.4335   93.6788 O   0  0  0  0  0  0  0  0  0  0  0  0
   99.4478   11.9937   94.9283 O   0  5  0  0  0  0  0  0  0  0  0  0
   93.0683   10.2877   92.5004 O   0  5  0  0  0  0  0  0  0  0  0  0
   98.4788    9.8204   94.1441 O   0  0  0  0  0  0  0  0  0  0  0  0
   96.8816    7.6272   94.7258 O   0  0  0  0  0  0  0  0  0  0  0  0
   95.2090    9.0038   91.9822 O   0  0  0  0  0  0  0  0  0  0  0  0
   92.7878   10.8279   96.9951 C   0  0  0  0  0  0  0  0  0  0  0  0
   94.3782   11.1059   98.5982 C   0  0  0  0  0  0  0  0  0  0  0  0
   95.1476   10.1149   97.9480 C   0  0  0  0  0  0  0  0  0  0  0  0
   94.6457    9.5080   96.8231 C   0  0  0  0  0  0  0  0  0  0  0  0
   94.7736    8.3055   94.3760 C   0  0  2  0  0  0  0  0  0  0  0  0
   96.8089    8.3376   93.3632 C   0  0  1  0  0  0  0  0  0  0  0  0
   95.7546    9.0018   93.2961 C   0  0  1  0  0  0  0  0  0  0  0  0
   95.5149    7.7784   95.3328 C   0  0  2  0  0  0  0  0  0  0  0  0
   95.5753    8.6266   96.4525 N   0  0  0  0  0  0  0  0  0  0  0  0
   99.3370   11.0866   93.8402 P   0  0  2  0  0  0  0  0  0  0  0  0
   94.2662   10.1916   91.7025 P   0  0  1  0  0  0  0  0  0  0  0  0
   96.3684   11.5783   91.0098 C   0  0  0  0  0  0  0  0  0  0  0  0
   95.1047   11.5109   91.6897 O   0  0  0  0  0  0  0  0  0  0  0  0
   97.2213   12.7116   91.3979 C   0  0  1  0  0  0  0  0  0  0  0  0
   96.2925   14.0191   91.5011 O   0  0  0  0  0  0  0  0  0  0  0  0
   97.6789   12.5306   92.5544 C   0  0  1  0  0  0  0  0  0  0  0  0
   98.9217   11.7912   92.5422 O   0  0  0  0  0  0  0  0  0  0  0  0
   97.7899   13.9340   93.1307 C   0  0  1  0  0  0  0  0  0  0  0  0
   98.8756   14.4676   92.7722 O   0  0  0  0  0  0  0  0  0  0  0  0
   96.6312   14.6998   92.4919 C   0  0  2  0  0  0  0  0  0  0  0  0
   91.5648   15.4077   93.0068 N   0  0  0  0  0  0  0  0  0  0  0  0
   92.2279   15.0166   91.8869 C   0  0  0  0  0  0  0  0  0  0  0  0
   93.5464   14.8857   91.9711 N   0  0  0  0  0  0  0  0  0  0  0  0
   94.2713   15.1761   93.0725 C   0  0  0  0  0  0  0  0  0  0  0  0
   93.6184   15.5850   94.2551 C   0  0  0  0  0  0  0  0  0  0  0  0
   92.1948   15.7020   94.1599 C   0  0  0  0  0  0  0  0  0  0  0  0
   91.4536   16.1316   95.3001 N   0  0  0  0  0  0  0  0  0  0  0  0
   94.5349   15.7483   95.1435 N   0  0  0  0  0  0  0  0  0  0  0  0
   95.7061   15.4497   94.6087 C   0  0  0  0  0  0  0  0  0  0  0  0
   95.5774   15.1259   93.3717 N   0  0  0  0  0  0  0  0  0  0  0  0
  1 24  1  0  0  0  0
  1  4  2  0  0  0  0
  2 13  1  0  0  0  0
  2 21  1  0  0  0  0
  3 16  1  0  0  0  0
  4 18  1  0  0  0  0
  5 19  2  0  0  0  0
  5 16  1  0  0  0  0
  6 16  2  0  0  0  0
  6 17  1  0  0  0  0
  7 17  1  0  0  0  0
 11 25  2  0  0  0  0
 12 26  2  0  0  0  0
 13 25  1  0  0  0  0
 14 23  1  0  0  0  0
 15 26  1  0  0  0  0
 17 18  2  0  0  0  0
 18 19  1  0  0  0  0
 19 24  1  0  0  0  0
 20 10  1  6  0  0  0
 20 22  1  0  0  0  0
 20 23  1  0  0  0  0
 21 14  1  1  0  0  0
 21 22  1  0  0  0  0
 22 15  1  6  0  0  0
 23 24  1  1  0  0  0
 25  8  1  6  0  0  0
 25 32  1  0  0  0  0
 26  9  1  6  0  0  0
 26 28  1  0  0  0  0
 27 28  1  0  0  0  0
 29 27  1  1  0  0  0
 29 30  1  0  0  0  0
 29 31  1  0  0  0  0
 30 35  1  0  0  0  0
 31 33  1  0  0  0  0
 31 32  1  6  0  0  0
 33 34  1  6  0  0  0
 33 35  1  0  0  0  0
 35 45  1  1  0  0  0
 36 41  2  0  0  0  0
 36 37  1  0  0  0  0
 37 38  2  0  0  0  0
 38 39  1  0  0  0  0
 39 40  2  0  0  0  0
 39 45  1  0  0  0  0
 40 41  1  0  0  0  0
 40 43  1  0  0  0  0
 41 42  1  0  0  0  0
 43 44  2  0  0  0  0
 44 45  1  0  0  0  0
M  CHG  4   8  -1   9  -1  11  -1  12  -1
M  END
>  <CHROM.1>
-36.61958540,-18.64153229,95.56218053,11.55305922,94.08343322,1.05854693
-0.61106231,2.52543626

>  <Name>
ligand

>  <RI>
0

>  <Rbt.Current_Directory>
/home/itssahil/PROJECTS/Mol_Feturizer/New_Systems/rnas/4YAZ

>  <Rbt.Executable>
rbdock ($Id: //depot/dev/client3/rdock/2013.1/src/exe/rbdock.cxx#4 $)

>  <Rbt.Library>
libRbt.so (2013.1, Build901 2013/11/27)

>  <Rbt.Parameter_File>
/export/apps/rDock/src/rDock_2013.1_src/data/scripts/dock_solv.prm

>  <Rbt.Receptor>
prm/pocket_docking_8.prm

>  <SCORE>
-16.3421

>  <SCORE.INTER>
-16.9899

>  <SCORE.INTER.CONST>
1

>  <SCORE.INTER.POLAR>
0

>  <SCORE.INTER.ROT>
2

>  <SCORE.INTER.SOLV>
19.5367

>  <SCORE.INTER.VDW>
-22.7722

>  <SCORE.INTER.norm>
-0.377554

>  <SCORE.INTRA>
0.647824

>  <SCORE.INTRA.DIHEDRAL>
0.125317

>  <SCORE.INTRA.DIHEDRAL.0>
2.39103

>  <SCORE.INTRA.POLAR>
0

>  <SCORE.INTRA.POLAR.0>
0

>  <SCORE.INTRA.REPUL>
0

>  <SCORE.INTRA.REPUL.0>
0

>  <SCORE.INTRA.SOLV>
0.379889

>  <SCORE.INTRA.SOLV.lig_0>
-163.975

>  <SCORE.INTRA.VDW>
0.395221

>  <SCORE.INTRA.VDW.0>
-1.49176

>  <SCORE.INTRA.norm>
0.0143961

>  <SCORE.RESTR>
0

>  <SCORE.RESTR.CAVITY>
0

>  <SCORE.RESTR.norm>
0

>  <SCORE.SYSTEM>
0

>  <SCORE.SYSTEM.CONST>
0

>  <SCORE.SYSTEM.DIHEDRAL>
0

>  <SCORE.SYSTEM.SOLV>
0

>  <SCORE.SYSTEM.norm>
0

>  <SCORE.heavy>
45

>  <SCORE.norm>
-0.363158

>  <RMSD>
7.997

$$$$
ligand
 OpenBabel11021811513D
libRbt.so/2013.1/901 2013/11/27
 45 51  0  0  0  0  0  0  0  0999 V2000
   96.5994    8.3868   97.0418 C   0  0  0  0  0  0  0  0  0  0  0  0
   97.7389    8.9160   92.7518 C   0  0  0  0  0  0  0  0  0  0  0  0
   91.5641   11.0355   96.8590 N   0  0  0  0  0  0  0  0  0  0  0  0
   96.4980    9.2446   98.0048 N   0  0  0  0  0  0  0  0  0  0  0  0
   93.4436    9.7038   96.4710 N   0  0  0  0  0  0  0  0  0  0  0  0
   93.4271   11.1886   98.2630 N   0  0  0  0  0  0  0  0  0  0  0  0
   95.2989   11.3280   99.7634 O   0  0  0  0  0  0  0  0  0  0  0  0
  100.5512   10.1128   93.2379 O   0  5  0  0  0  0  0  0  0  0  0  0
   93.4648   10.1388   90.4313 O   0  5  0  0  0  0  0  0  0  0  0  0
   93.6793    7.4076   93.6149 O   0  0  0  0  0  0  0  0  0  0  0  0
   99.5410   11.5362   94.6188 O   0  5  0  0  0  0  0  0  0  0  0  0
   92.9097   10.3553   92.5857 O   0  5  0  0  0  0  0  0  0  0  0  0
   98.3709    9.4625   93.8392 O   0  0  0  0  0  0  0  0  0  0  0  0
   96.6650    7.3652   94.4643 O   0  0  0  0  0  0  0  0  0  0  0  0
   94.9151    8.9463   91.8839 O   0  0  0  0  0  0  0  0  0  0  0  0
   92.8867   10.6277   97.2097 C   0  0  0  0  0  0  0  0  0  0  0  0
   94.6381   10.8114   98.6504 C   0  0  0  0  0  0  0  0  0  0  0  0
   95.3131    9.8304   97.8895 C   0  0  0  0  0  0  0  0  0  0  0  0
   94.6849    9.2775   96.8008 C   0  0  0  0  0  0  0  0  0  0  0  0
   94.5917    8.1979   94.2804 C   0  0  2  0  0  0  0  0  0  0  0  0
   96.5522    8.1252   93.1315 C   0  0  1  0  0  0  0  0  0  0  0  0
   95.5453    8.8620   93.1567 C   0  0  1  0  0  0  0  0  0  0  0  0
   95.3558    7.5889   95.1680 C   0  0  2  0  0  0  0  0  0  0  0  0
   95.5503    8.3920   96.3054 N   0  0  0  0  0  0  0  0  0  0  0  0
   99.2943   10.6766   93.5145 P   0  0  2  0  0  0  0  0  0  0  0  0
   94.0421   10.2047   91.7048 P   0  0  1  0  0  0  0  0  0  0  0  0
   96.1863   11.4671   90.9105 C   0  0  0  0  0  0  0  0  0  0  0  0
   94.9690   11.4632   91.6735 O   0  0  0  0  0  0  0  0  0  0  0  0
   97.1410   12.5253   91.2724 C   0  0  1  0  0  0  0  0  0  0  0  0
   96.3158   13.8891   91.4777 O   0  0  0  0  0  0  0  0  0  0  0  0
   97.6605   12.2740   92.3890 C   0  0  1  0  0  0  0  0  0  0  0  0
   98.8445   11.4520   92.2695 O   0  0  0  0  0  0  0  0  0  0  0  0
   97.9086   13.6459   92.9973 C   0  0  1  0  0  0  0  0  0  0  0  0
   99.0029   14.1158   92.5810 O   0  0  0  0  0  0  0  0  0  0  0  0
   96.7669   14.5107   92.4626 C   0  0  2  0  0  0  0  0  0  0  0  0
   91.7933   15.4296   93.3862 N   0  0  0  0  0  0  0  0  0  0  0  0
   92.3465   15.0151   92.2162 C   0  0  0  0  0  0  0  0  0  0  0  0
   93.6607   14.8284   92.1933 N   0  0  0  0  0  0  0  0  0  0  0  0
   94.4840   15.0839   93.2325 C   0  0  0  0  0  0  0  0  0  0  0  0
   93.9467   15.5156   94.4641 C   0  0  0  0  0  0  0  0  0  0  0  0
   92.5264   15.6928   94.4845 C   0  0  0  0  0  0  0  0  0  0  0  0
   91.8986   16.1491   95.6811 N   0  0  0  0  0  0  0  0  0  0  0  0
   94.9382   15.6368   95.2754 N   0  0  0  0  0  0  0  0  0  0  0  0
   96.0486   15.2911   94.6475 C   0  0  0  0  0  0  0  0  0  0  0  0
   95.8067   14.9775   93.4250 N   0  0  0  0  0  0  0  0  0  0  0  0
  1 24  1  0  0  0  0
  1  4  2  0  0  0  0
  2 13  1  0  0  0  0
  2 21  1  0  0  0  0
  3 16  1  0  0  0  0
  4 18  1  0  0  0  0
  5 19  2  0  0  0  0
  5 16  1  0  0  0  0
  6 16  2  0  0  0  0
  6 17  1  0  0  0  0
  7 17  1  0  0  0  0
 11 25  2  0  0  0  0
 12 26  2  0  0  0  0
 13 25  1  0  0  0  0
 14 23  1  0  0  0  0
 15 26  1  0  0  0  0
 17 18  2  0  0  0  0
 18 19  1  0  0  0  0
 19 24  1  0  0  0  0
 20 10  1  6  0  0  0
 20 22  1  0  0  0  0
 20 23  1  0  0  0  0
 21 14  1  1  0  0  0
 21 22  1  0  0  0  0
 22 15  1  6  0  0  0
 23 24  1  1  0  0  0
 25  8  1  6  0  0  0
 25 32  1  0  0  0  0
 26  9  1  6  0  0  0
 26 28  1  0  0  0  0
 27 28  1  0  0  0  0
 29 27  1  1  0  0  0
 29 30  1  0  0  0  0
 29 31  1  0  0  0  0
 30 35  1  0  0  0  0
 31 33  1  0  0  0  0
 31 32  1  6  0  0  0
 33 34  1  6  0  0  0
 33 35  1  0  0  0  0
 35 45  1  1  0  0  0
 36 41  2  0  0  0  0
 36 37  1  0  0  0  0
 37 38  2  0  0  0  0
 38 39  1  0  0  0  0
 39 40  2  0  0  0  0
 39 45  1  0  0  0  0
 40 41  1  0  0  0  0
 40 43  1  0  0  0  0
 41 42  1  0  0  0  0
 43 44  2  0  0  0  0
 44 45  1  0  0  0  0
M  CHG  4   8  -1   9  -1  11  -1  12  -1
M  END
>  <CHROM.1>
-33.25591871,-16.19496720,95.57754031,11.37014677,94.04399493,1.12163156
-0.69862628,2.57695773

>  <Name>
ligand

>  <RI>
0

>  <Rbt.Current_Directory>
/home/itssahil/PROJECTS/Mol_Feturizer/New_Systems/rnas/4YAZ

>  <Rbt.Executable>
rbdock ($Id: //depot/dev/client3/rdock/2013.1/src/exe/rbdock.cxx#4 $)

>  <Rbt.Library>
libRbt.so (2013.1, Build901 2013/11/27)

>  <Rbt.Parameter_File>
/export/apps/rDock/src/rDock_2013.1_src/data/scripts/dock_solv.prm

>  <Rbt.Receptor>
prm/pocket_docking_6.prm

>  <SCORE>
-16.3696

>  <SCORE.INTER>
-16.6966

>  <SCORE.INTER.CONST>
1

>  <SCORE.INTER.POLAR>
0

>  <SCORE.INTER.ROT>
2

>  <SCORE.INTER.SOLV>
18.6148

>  <SCORE.INTER.VDW>
-22.2693

>  <SCORE.INTER.norm>
-0.371035

>  <SCORE.INTRA>
0.326946

>  <SCORE.INTRA.DIHEDRAL>
0.116057

>  <SCORE.INTRA.DIHEDRAL.0>
2.39103

>  <SCORE.INTRA.POLAR>
0

>  <SCORE.INTRA.POLAR.0>
0

>  <SCORE.INTRA.REPUL>
0

>  <SCORE.INTRA.REPUL.0>
0

>  <SCORE.INTRA.SOLV>
0.122461

>  <SCORE.INTRA.SOLV.lig_0>
-163.975

>  <SCORE.INTRA.VDW>
0.207687

>  <SCORE.INTRA.VDW.0>
-1.49176

>  <SCORE.INTRA.norm>
0.00726547

>  <SCORE.RESTR>
0

>  <SCORE.RESTR.CAVITY>
0

>  <SCORE.RESTR.norm>
0

>  <SCORE.SYSTEM>
0

>  <SCORE.SYSTEM.CONST>
0

>  <SCORE.SYSTEM.DIHEDRAL>
0

>  <SCORE.SYSTEM.SOLV>
0

>  <SCORE.SYSTEM.norm>
0

>  <SCORE.heavy>
45

>  <SCORE.norm>
-0.36377

>  <RMSD>
8.016

$$$$
ligand
 OpenBabel11021811513D
libRbt.so/2013.1/901 2013/11/27
 45 51  0  0  0  0  0  0  0  0999 V2000
   96.5494    8.3650   97.0371 C   0  0  0  0  0  0  0  0  0  0  0  0
   97.6875    8.8969   92.7387 C   0  0  0  0  0  0  0  0  0  0  0  0
   91.5738   11.1234   96.8423 N   0  0  0  0  0  0  0  0  0  0  0  0
   96.4641    9.2239   98.0005 N   0  0  0  0  0  0  0  0  0  0  0  0
   93.4249    9.7512   96.4585 N   0  0  0  0  0  0  0  0  0  0  0  0
   93.4357   11.2344   98.2518 N   0  0  0  0  0  0  0  0  0  0  0  0
   95.3057   11.3314   99.7577 O   0  0  0  0  0  0  0  0  0  0  0  0
  100.5171   10.0546   93.2190 O   0  5  0  0  0  0  0  0  0  0  0  0
   93.4232   10.1827   90.4342 O   0  5  0  0  0  0  0  0  0  0  0  0
   93.6106    7.4412   93.6106 O   0  0  0  0  0  0  0  0  0  0  0  0
   99.5304   11.4881   94.6064 O   0  5  0  0  0  0  0  0  0  0  0  0
   92.8776   10.4014   92.5907 O   0  5  0  0  0  0  0  0  0  0  0  0
   98.3301    9.4322   93.8254 O   0  0  0  0  0  0  0  0  0  0  0  0
   96.5981    7.3566   94.4507 O   0  0  0  0  0  0  0  0  0  0  0  0
   94.8617    8.9673   91.8795 O   0  0  0  0  0  0  0  0  0  0  0  0
   92.8862   10.6864   97.1964 C   0  0  0  0  0  0  0  0  0  0  0  0
   94.6370   10.8305   98.6424 C   0  0  0  0  0  0  0  0  0  0  0  0
   95.2926    9.8356   97.8824 C   0  0  0  0  0  0  0  0  0  0  0  0
   94.6556    9.2976   96.7914 C   0  0  0  0  0  0  0  0  0  0  0  0
   94.5355    8.2175   94.2751 C   0  0  2  0  0  0  0  0  0  0  0  0
   96.4914    8.1212   93.1201 C   0  0  1  0  0  0  0  0  0  0  0  0
   95.4946    8.8714   93.1501 C   0  0  1  0  0  0  0  0  0  0  0  0
   95.2941    7.5961   95.1589 C   0  0  2  0  0  0  0  0  0  0  0  0
   95.5028    8.3938   96.2977 N   0  0  0  0  0  0  0  0  0  0  0  0
   99.2688   10.6346   93.5008 P   0  0  2  0  0  0  0  0  0  0  0  0
   94.0052   10.2377   91.7061 P   0  0  1  0  0  0  0  0  0  0  0  0
   96.1638   11.4731   90.9083 C   0  0  0  0  0  0  0  0  0  0  0  0
   94.9488   11.4837   91.6749 O   0  0  0  0  0  0  0  0  0  0  0  0
   97.1337   12.5176   91.2697 C   0  0  1  0  0  0  0  0  0  0  0  0
   96.3276   13.8918   91.4808 O   0  0  0  0  0  0  0  0  0  0  0  0
   97.6532   12.2565   92.3841 C   0  0  1  0  0  0  0  0  0  0  0  0
   98.8256   11.4190   92.2590 O   0  0  0  0  0  0  0  0  0  0  0  0
   97.9215   13.6235   92.9950 C   0  0  1  0  0  0  0  0  0  0  0  0
   99.0208   14.0797   92.5764 O   0  0  0  0  0  0  0  0  0  0  0  0
   96.7900   14.5048   92.4658 C   0  0  2  0  0  0  0  0  0  0  0  0
   91.8357   15.5161   93.3967 N   0  0  0  0  0  0  0  0  0  0  0  0
   92.3809   15.1012   92.2230 C   0  0  0  0  0  0  0  0  0  0  0  0
   93.6910   14.8881   92.1988 N   0  0  0  0  0  0  0  0  0  0  0  0
   94.5189   15.1172   93.2404 C   0  0  0  0  0  0  0  0  0  0  0  0
   93.9900   15.5484   94.4759 C   0  0  0  0  0  0  0  0  0  0  0  0
   92.5735   15.7542   94.4976 C   0  0  0  0  0  0  0  0  0  0  0  0
   91.9547   16.2122   95.6981 N   0  0  0  0  0  0  0  0  0  0  0  0
   94.9833   15.6419   95.2885 N   0  0  0  0  0  0  0  0  0  0  0  0
   96.0868   15.2795   94.6576 C   0  0  0  0  0  0  0  0  0  0  0  0
   95.8391   14.9822   93.4322 N   0  0  0  0  0  0  0  0  0  0  0  0
  1 24  1  0  0  0  0
  1  4  2  0  0  0  0
  2 13  1  0  0  0  0
  2 21  1  0  0  0  0
  3 16  1  0  0  0  0
  4 18  1  0  0  0  0
  5 19  2  0  0  0  0
  5 16  1  0  0  0  0
  6 16  2  0  0  0  0
  6 17  1  0  0  0  0
  7 17  1  0  0  0  0
 11 25  2  0  0  0  0
 12 26  2  0  0  0  0
 13 25  1  0  0  0  0
 14 23  1  0  0  0  0
 15 26  1  0  0  0  0
 17 18  2  0  0  0  0
 18 19  1  0  0  0  0
 19 24  1  0  0  0  0
 20 10  1  6  0  0  0
 20 22  1  0  0  0  0
 20 23  1  0  0  0  0
 21 14  1  1  0  0  0
 21 22  1  0  0  0  0
 22 15  1  6  0  0  0
 23 24  1  1  0  0  0
 25  8  1  6  0  0  0
 25 32  1  0  0  0  0
 26  9  1  6  0  0  0
 26 28  1  0  0  0  0
 27 28  1  0  0  0  0
 29 27  1  1  0  0  0
 29 30  1  0  0  0  0
 29 31  1  0  0  0  0
 30 35  1  0  0  0  0
 31 33  1  0  0  0  0
 31 32  1  6  0  0  0
 33 34  1  6  0  0  0
 33 35  1  0  0  0  0
 35 45  1  1  0  0  0
 36 41  2  0  0  0  0
 36 37  1  0  0  0  0
 37 38  2  0  0  0  0
 38 39  1  0  0  0  0
 39 40  2  0  0  0  0
 39 45  1  0  0  0  0
 40 41  1  0  0  0  0
 40 43  1  0  0  0  0
 41 42  1  0  0  0  0
 43 44  2  0  0  0  0
 44 45  1  0  0  0  0
M  CHG  4   8  -1   9  -1  11  -1  12  -1
M  END
>  <CHROM.1>
-33.85329605,-16.78183054,95.56487598,11.38118516,94.04063740,1.12674573
-0.70973154,2.58687829

>  <Name>
ligand

>  <RI>
0

>  <Rbt.Current_Directory>
/home/itssahil/PROJECTS/Mol_Feturizer/New_Systems/rnas/4YAZ

>  <Rbt.Executable>
rbdock ($Id: //depot/dev/client3/rdock/2013.1/src/exe/rbdock.cxx#4 $)

>  <Rbt.Library>
libRbt.so (2013.1, Build901 2013/11/27)

>  <Rbt.Parameter_File>
/export/apps/rDock/src/rDock_2013.1_src/data/scripts/dock_solv.prm

>  <Rbt.Receptor>
prm/pocket_docking_7.prm

>  <SCORE>
-16.5233

>  <SCORE.INTER>
-16.9018

>  <SCORE.INTER.CONST>
1

>  <SCORE.INTER.POLAR>
0

>  <SCORE.INTER.ROT>
2

>  <SCORE.INTER.SOLV>
18.3928

>  <SCORE.INTER.VDW>
-22.3321

>  <SCORE.INTER.norm>
-0.375596

>  <SCORE.INTRA>
0.378522

>  <SCORE.INTRA.DIHEDRAL>
0.118425

>  <SCORE.INTRA.DIHEDRAL.0>
2.39103

>  <SCORE.INTRA.POLAR>
0

>  <SCORE.INTRA.POLAR.0>
0

>  <SCORE.INTRA.REPUL>
0

>  <SCORE.INTRA.REPUL.0>
0

>  <SCORE.INTRA.SOLV>
0.132905

>  <SCORE.INTRA.SOLV.lig_0>
-163.975

>  <SCORE.INTRA.VDW>
0.252857

>  <SCORE.INTRA.VDW.0>
-1.49176

>  <SCORE.INTRA.norm>
0.00841161

>  <SCORE.RESTR>
0

>  <SCORE.RESTR.CAVITY>
0

>  <SCORE.RESTR.norm>
0

>  <SCORE.SYSTEM>
0

>  <SCORE.SYSTEM.CONST>
0

>  <SCORE.SYSTEM.DIHEDRAL>
0

>  <SCORE.SYSTEM.SOLV>
0

>  <SCORE.SYSTEM.norm>
0

>  <SCORE.heavy>
45

>  <SCORE.norm>
-0.367184

>  <RMSD>
8.019

$$$$
ligand
 OpenBabel11021811513D
libRbt.so/2013.1/901 2013/11/27
 45 51  0  0  0  0  0  0  0  0999 V2000
   92.5423    9.8519   97.0487 C   0  0  0  0  0  0  0  0  0  0  0  0
   95.8933    8.6411   93.2446 C   0  0  0  0  0  0  0  0  0  0  0  0
   97.9686    8.4454   98.0385 N   0  0  0  0  0  0  0  0  0  0  0  0
   93.0369   10.5763   97.9994 N   0  0  0  0  0  0  0  0  0  0  0  0
   95.7707    8.6069   97.2642 N   0  0  0  0  0  0  0  0  0  0  0  0
   96.4992   10.0017   98.9788 N   0  0  0  0  0  0  0  0  0  0  0  0
   95.0356   11.6554   99.9262 O   0  0  0  0  0  0  0  0  0  0  0  0
   98.8121    9.5018   93.8076 O   0  5  0  0  0  0  0  0  0  0  0  0
   92.0287   10.0483   90.3753 O   0  5  0  0  0  0  0  0  0  0  0  0
   91.6015    7.8668   93.9389 O   0  0  0  0  0  0  0  0  0  0  0  0
   97.9326   11.2559   94.8580 O   0  5  0  0  0  0  0  0  0  0  0  0
   91.3607   10.6859   92.4109 O   0  5  0  0  0  0  0  0  0  0  0  0
   96.5215    9.2644   94.2922 O   0  0  0  0  0  0  0  0  0  0  0  0
   94.4786    7.5517   95.0620 O   0  0  0  0  0  0  0  0  0  0  0  0
   93.1753    8.9190   92.1204 O   0  0  0  0  0  0  0  0  0  0  0  0
   96.6733    9.0424   98.1038 C   0  0  0  0  0  0  0  0  0  0  0  0
   95.3244   10.6133   99.0470 C   0  0  0  0  0  0  0  0  0  0  0  0
   94.2909   10.1840   98.1841 C   0  0  0  0  0  0  0  0  0  0  0  0
   94.5439    9.1777   97.2847 C   0  0  0  0  0  0  0  0  0  0  0  0
   92.5730    8.6212   94.5609 C   0  0  2  0  0  0  0  0  0  0  0  0
   94.5768    8.0935   93.6255 C   0  0  1  0  0  0  0  0  0  0  0  0
   93.6935    8.9563   93.4449 C   0  0  1  0  0  0  0  0  0  0  0  0
   93.1713    8.0648   95.5978 C   0  0  2  0  0  0  0  0  0  0  0  0
   93.4033    9.0074   96.6149 N   0  0  0  0  0  0  0  0  0  0  0  0
   97.6383   10.2708   93.8771 P   0  0  2  0  0  0  0  0  0  0  0  0
   92.5172   10.2398   91.6730 P   0  0  1  0  0  0  0  0  0  0  0  0
   94.8783   11.0488   90.9033 C   0  0  0  0  0  0  0  0  0  0  0  0
   93.6232   11.3366   91.5403 O   0  0  0  0  0  0  0  0  0  0  0  0
   95.9536   12.0100   91.1903 C   0  0  1  0  0  0  0  0  0  0  0  0
   95.3311   13.4896   91.1100 O   0  0  0  0  0  0  0  0  0  0  0  0
   96.3485   11.8740   92.3758 C   0  0  1  0  0  0  0  0  0  0  0  0
   97.4003   10.8883   92.4930 O   0  0  0  0  0  0  0  0  0  0  0  0
   96.7567   13.2790   92.7918 C   0  0  1  0  0  0  0  0  0  0  0  0
   97.9363   13.5198   92.4144 O   0  0  0  0  0  0  0  0  0  0  0  0
   95.7996   14.1945   92.0284 C   0  0  2  0  0  0  0  0  0  0  0  0
   90.8332   14.8583   93.1813 N   0  0  0  0  0  0  0  0  0  0  0  0
   91.3527   14.0172   92.2488 C   0  0  0  0  0  0  0  0  0  0  0  0
   92.6732   13.9933   92.1146 N   0  0  0  0  0  0  0  0  0  0  0  0
   93.5221   14.7921   92.7959 C   0  0  0  0  0  0  0  0  0  0  0  0
   93.0204   15.6787   93.7728 C   0  0  0  0  0  0  0  0  0  0  0  0
   91.5970   15.6809   93.9249 C   0  0  0  0  0  0  0  0  0  0  0  0
   90.9995   16.5625   94.8735 N   0  0  0  0  0  0  0  0  0  0  0  0
   94.0390   16.2735   94.2872 N   0  0  0  0  0  0  0  0  0  0  0  0
   95.1377   15.8070   93.7196 C   0  0  0  0  0  0  0  0  0  0  0  0
   94.8548   14.9392   92.8151 N   0  0  0  0  0  0  0  0  0  0  0  0
  1 24  1  0  0  0  0
  1  4  2  0  0  0  0
  2 13  1  0  0  0  0
  2 21  1  0  0  0  0
  3 16  1  0  0  0  0
  4 18  1  0  0  0  0
  5 19  2  0  0  0  0
  5 16  1  0  0  0  0
  6 16  2  0  0  0  0
  6 17  1  0  0  0  0
  7 17  1  0  0  0  0
 11 25  2  0  0  0  0
 12 26  2  0  0  0  0
 13 25  1  0  0  0  0
 14 23  1  0  0  0  0
 15 26  1  0  0  0  0
 17 18  2  0  0  0  0
 18 19  1  0  0  0  0
 19 24  1  0  0  0  0
 20 10  1  6  0  0  0
 20 22  1  0  0  0  0
 20 23  1  0  0  0  0
 21 14  1  1  0  0  0
 21 22  1  0  0  0  0
 22 15  1  6  0  0  0
 23 24  1  1  0  0  0
 25  8  1  6  0  0  0
 25 32  1  0  0  0  0
 26  9  1  6  0  0  0
 26 28  1  0  0  0  0
 27 28  1  0  0  0  0
 29 27  1  1  0  0  0
 29 30  1  0  0  0  0
 29 31  1  0  0  0  0
 30 35  1  0  0  0  0
 31 33  1  0  0  0  0
 31 32  1  6  0  0  0
 33 34  1  6  0  0  0
 33 35  1  0  0  0  0
 35 45  1  1  0  0  0
 36 41  2  0  0  0  0
 36 37  1  0  0  0  0
 37 38  2  0  0  0  0
 38 39  1  0  0  0  0
 39 40  2  0  0  0  0
 39 45  1  0  0  0  0
 40 41  1  0  0  0  0
 40 43  1  0  0  0  0
 41 42  1  0  0  0  0
 43 44  2  0  0  0  0
 44 45  1  0  0  0  0
M  CHG  4   8  -1   9  -1  11  -1  12  -1
M  END
>  <CHROM.1>
162.45055074,11.09272108,94.57984588,11.20451984,94.12795259,-0.11150029
-1.23151967,0.72932292

>  <Name>
ligand

>  <RI>
0

>  <Rbt.Current_Directory>
/home/itssahil/PROJECTS/Mol_Feturizer/New_Systems/rnas/4YAZ

>  <Rbt.Executable>
rbdock ($Id: //depot/dev/client3/rdock/2013.1/src/exe/rbdock.cxx#4 $)

>  <Rbt.Library>
libRbt.so (2013.1, Build901 2013/11/27)

>  <Rbt.Parameter_File>
/export/apps/rDock/src/rDock_2013.1_src/data/scripts/dock_solv.prm

>  <Rbt.Receptor>
prm/pocket_docking_7.prm

>  <SCORE>
-17.8102

>  <SCORE.INTER>
-17.2827

>  <SCORE.INTER.CONST>
1

>  <SCORE.INTER.POLAR>
0

>  <SCORE.INTER.ROT>
2

>  <SCORE.INTER.SOLV>
12.2485

>  <SCORE.INTER.VDW>
-20.538

>  <SCORE.INTER.norm>
-0.384059

>  <SCORE.INTRA>
-0.527573

>  <SCORE.INTRA.DIHEDRAL>
-0.0478204

>  <SCORE.INTRA.DIHEDRAL.0>
2.39103

>  <SCORE.INTRA.POLAR>
0

>  <SCORE.INTRA.POLAR.0>
0

>  <SCORE.INTRA.REPUL>
0

>  <SCORE.INTRA.REPUL.0>
0

>  <SCORE.INTRA.SOLV>
1.77324

>  <SCORE.INTRA.SOLV.lig_0>
-163.975

>  <SCORE.INTRA.VDW>
-1.39028

>  <SCORE.INTRA.VDW.0>
-1.49176

>  <SCORE.INTRA.norm>
-0.0117239

>  <SCORE.RESTR>
0

>  <SCORE.RESTR.CAVITY>
0

>  <SCORE.RESTR.norm>
0

>  <SCORE.SYSTEM>
0

>  <SCORE.SYSTEM.CONST>
0

>  <SCORE.SYSTEM.DIHEDRAL>
0

>  <SCORE.SYSTEM.SOLV>
0

>  <SCORE.SYSTEM.norm>
0

>  <SCORE.heavy>
45

>  <SCORE.norm>
-0.395783

>  <RMSD>
8.043

$$$$
ligand
 OpenBabel11021811523D
libRbt.so/2013.1/901 2013/11/27
 45 51  0  0  0  0  0  0  0  0999 V2000
   92.4696    9.2509   91.3571 C   0  0  0  0  0  0  0  0  0  0  0  0
   91.5542   12.6976   94.5075 C   0  0  0  0  0  0  0  0  0  0  0  0
   97.5406    9.2818   93.9431 N   0  0  0  0  0  0  0  0  0  0  0  0
   93.4260    9.3149   90.4886 N   0  0  0  0  0  0  0  0  0  0  0  0
   95.2678    9.2673   93.4038 N   0  0  0  0  0  0  0  0  0  0  0  0
   96.8589    9.3735   91.7088 N   0  0  0  0  0  0  0  0  0  0  0  0
   96.1966    9.4059   89.3991 O   0  0  0  0  0  0  0  0  0  0  0  0
   91.1728   15.0925   92.5849 O   0  5  0  0  0  0  0  0  0  0  0  0
   94.3657   11.4449   98.4666 O   0  5  0  0  0  0  0  0  0  0  0  0
   92.5820    8.6361   95.9035 O   0  0  0  0  0  0  0  0  0  0  0  0
   93.1444   14.5213   91.7247 O   0  5  0  0  0  0  0  0  0  0  0  0
   95.2417   10.1777   96.8470 O   0  5  0  0  0  0  0  0  0  0  0  0
   91.8837   12.9344   93.1976 O   0  0  0  0  0  0  0  0  0  0  0  0
   91.1478   10.3100   93.7173 O   0  0  0  0  0  0  0  0  0  0  0  0
   92.8903   11.1391   96.6322 O   0  0  0  0  0  0  0  0  0  0  0  0
   96.4990    9.3201   92.9672 C   0  0  0  0  0  0  0  0  0  0  0  0
   95.9263    9.3694   90.7658 C   0  0  0  0  0  0  0  0  0  0  0  0
   94.5699    9.3342   91.1607 C   0  0  0  0  0  0  0  0  0  0  0  0
   94.2628    9.2708   92.4976 C   0  0  0  0  0  0  0  0  0  0  0  0
   92.8883    9.3970   94.7957 C   0  0  2  0  0  0  0  0  0  0  0  0
   91.5876   11.2611   94.8436 C   0  0  1  0  0  0  0  0  0  0  0  0
   92.7309   10.9456   95.2317 C   0  0  1  0  0  0  0  0  0  0  0  0
   92.1500    9.1898   93.7212 C   0  0  2  0  0  0  0  0  0  0  0  0
   92.9308    9.2369   92.5529 N   0  0  0  0  0  0  0  0  0  0  0  0
   92.3502   14.3916   92.8958 P   0  0  2  0  0  0  0  0  0  0  0  0
   94.3591   11.2957   97.0748 P   0  0  1  0  0  0  0  0  0  0  0  0
   94.1398   13.8509   96.5796 C   0  0  0  0  0  0  0  0  0  0  0  0
   94.9160   12.6439   96.5123 O   0  0  0  0  0  0  0  0  0  0  0  0
   94.5897   14.9276   95.6849 C   0  0  1  0  0  0  0  0  0  0  0  0
   96.1936   14.9972   95.7596 O   0  0  0  0  0  0  0  0  0  0  0  0
   94.3198   14.6380   94.4920 C   0  0  1  0  0  0  0  0  0  0  0  0
   92.9954   15.0746   94.1087 O   0  0  0  0  0  0  0  0  0  0  0  0
   95.4461   15.2768   93.6936 C   0  0  1  0  0  0  0  0  0  0  0  0
   95.1870   16.4911   93.4695 O   0  0  0  0  0  0  0  0  0  0  0  0
   96.6607   15.1956   94.6184 C   0  0  2  0  0  0  0  0  0  0  0  0
   98.4767   12.2124   90.8453 N   0  0  0  0  0  0  0  0  0  0  0  0
   97.2829   12.8612   90.8743 C   0  0  0  0  0  0  0  0  0  0  0  0
   97.0098   13.5916   91.9488 N   0  0  0  0  0  0  0  0  0  0  0  0
   97.8089   13.6781   93.0336 C   0  0  0  0  0  0  0  0  0  0  0  0
   99.0567   13.0185   93.0408 C   0  0  0  0  0  0  0  0  0  0  0  0
   99.3511   12.2515   91.8685 C   0  0  0  0  0  0  0  0  0  0  0  0
  100.5805   11.5323   91.7974 N   0  0  0  0  0  0  0  0  0  0  0  0
   99.6178   13.3057   94.1626 N   0  0  0  0  0  0  0  0  0  0  0  0
   98.8228   14.1125   94.8437 C   0  0  0  0  0  0  0  0  0  0  0  0
   97.7317   14.3325   94.2014 N   0  0  0  0  0  0  0  0  0  0  0  0
  1 24  1  0  0  0  0
  1  4  2  0  0  0  0
  2 13  1  0  0  0  0
  2 21  1  0  0  0  0
  3 16  1  0  0  0  0
  4 18  1  0  0  0  0
  5 19  2  0  0  0  0
  5 16  1  0  0  0  0
  6 16  2  0  0  0  0
  6 17  1  0  0  0  0
  7 17  1  0  0  0  0
 11 25  2  0  0  0  0
 12 26  2  0  0  0  0
 13 25  1  0  0  0  0
 14 23  1  0  0  0  0
 15 26  1  0  0  0  0
 17 18  2  0  0  0  0
 18 19  1  0  0  0  0
 19 24  1  0  0  0  0
 20 10  1  1  0  0  0
 20 22  1  0  0  0  0
 20 23  1  0  0  0  0
 21 14  1  6  0  0  0
 21 22  1  0  0  0  0
 22 15  1  1  0  0  0
 23 24  1  6  0  0  0
 25  8  1  6  0  0  0
 25 32  1  0  0  0  0
 26  9  1  1  0  0  0
 26 28  1  0  0  0  0
 27 28  1  0  0  0  0
 29 27  1  1  0  0  0
 29 30  1  0  0  0  0
 29 31  1  0  0  0  0
 30 35  1  0  0  0  0
 31 33  1  0  0  0  0
 31 32  1  6  0  0  0
 33 34  1  1  0  0  0
 33 35  1  0  0  0  0
 35 45  1  6  0  0  0
 36 41  2  0  0  0  0
 36 37  1  0  0  0  0
 37 38  2  0  0  0  0
 38 39  1  0  0  0  0
 39 40  2  0  0  0  0
 39 45  1  0  0  0  0
 40 41  1  0  0  0  0
 40 43  1  0  0  0  0
 41 42  1  0  0  0  0
 43 44  2  0  0  0  0
 44 45  1  0  0  0  0
M  CHG  4   8  -1   9  -1  11  -1  12  -1
M  END
>  <CHROM.1>
-54.29974382,131.19185456,94.85520483,12.07633666,93.77505038,-3.10740948
0.42440420,0.47332945

>  <Name>
ligand

>  <RI>
0

>  <Rbt.Current_Directory>
/home/itssahil/PROJECTS/Mol_Feturizer/New_Systems/rnas/4YAZ

>  <Rbt.Executable>
rbdock ($Id: //depot/dev/client3/rdock/2013.1/src/exe/rbdock.cxx#4 $)

>  <Rbt.Library>
libRbt.so (2013.1, Build901 2013/11/27)

>  <Rbt.Parameter_File>
/export/apps/rDock/src/rDock_2013.1_src/data/scripts/dock_solv.prm

>  <Rbt.Receptor>
prm/pocket_docking_8.prm

>  <SCORE>
-12.6255

>  <SCORE.INTER>
-13.149

>  <SCORE.INTER.CONST>
1

>  <SCORE.INTER.POLAR>
0

>  <SCORE.INTER.ROT>
2

>  <SCORE.INTER.SOLV>
21.366

>  <SCORE.INTER.VDW>
-20.8214

>  <SCORE.INTER.norm>
-0.292201

>  <SCORE.INTRA>
0.52355

>  <SCORE.INTRA.DIHEDRAL>
-0.0544032

>  <SCORE.INTRA.DIHEDRAL.0>
2.39103

>  <SCORE.INTRA.POLAR>
0

>  <SCORE.INTRA.POLAR.0>
0

>  <SCORE.INTRA.REPUL>
0

>  <SCORE.INTRA.REPUL.0>
0

>  <SCORE.INTRA.SOLV>
1.76293

>  <SCORE.INTRA.SOLV.lig_0>
-163.975

>  <SCORE.INTRA.VDW>
-0.330715

>  <SCORE.INTRA.VDW.0>
-1.49176

>  <SCORE.INTRA.norm>
0.0116344

>  <SCORE.RESTR>
0

>  <SCORE.RESTR.CAVITY>
0

>  <SCORE.RESTR.norm>
0

>  <SCORE.SYSTEM>
0

>  <SCORE.SYSTEM.CONST>
0

>  <SCORE.SYSTEM.DIHEDRAL>
0

>  <SCORE.SYSTEM.SOLV>
0

>  <SCORE.SYSTEM.norm>
0

>  <SCORE.heavy>
45

>  <SCORE.norm>
-0.280567

>  <RMSD>
8.198

$$$$
ligand
 OpenBabel11021811523D
libRbt.so/2013.1/901 2013/11/27
 45 51  0  0  0  0  0  0  0  0999 V2000
   92.2653    8.1695   96.3557 C   0  0  0  0  0  0  0  0  0  0  0  0
   91.3537   11.9540   94.4345 C   0  0  0  0  0  0  0  0  0  0  0  0
   97.9475    7.8941   96.5562 N   0  0  0  0  0  0  0  0  0  0  0  0
   92.6824    7.0148   95.9483 N   0  0  0  0  0  0  0  0  0  0  0  0
   95.7013    8.5292   96.6451 N   0  0  0  0  0  0  0  0  0  0  0  0
   96.2737    6.4016   95.8957 N   0  0  0  0  0  0  0  0  0  0  0  0
   94.5772    4.8197   95.2682 O   0  0  0  0  0  0  0  0  0  0  0  0
   89.1607   10.8578   92.5459 O   0  5  0  0  0  0  0  0  0  0  0  0
   95.7579   14.3322   94.1269 O   0  5  0  0  0  0  0  0  0  0  0  0
   94.6141   11.9795   97.4127 O   0  0  0  0  0  0  0  0  0  0  0  0
   90.6275    9.2721   92.0100 O   0  5  0  0  0  0  0  0  0  0  0  0
   96.3762   12.2733   94.7390 O   0  5  0  0  0  0  0  0  0  0  0  0
   90.9703   10.6973   94.0418 O   0  0  0  0  0  0  0  0  0  0  0  0
   91.8197   10.8430   96.6794 O   0  0  0  0  0  0  0  0  0  0  0  0
   93.9923   13.0933   95.1184 O   0  0  0  0  0  0  0  0  0  0  0  0
   96.5671    7.5967   96.3447 C   0  0  0  0  0  0  0  0  0  0  0  0
   95.0022    6.0666   95.7230 C   0  0  0  0  0  0  0  0  0  0  0  0
   94.0078    7.0297   96.0074 C   0  0  0  0  0  0  0  0  0  0  0  0
   94.3847    8.2614   96.4830 C   0  0  0  0  0  0  0  0  0  0  0  0
   94.0517   11.0313   96.5854 C   0  0  2  0  0  0  0  0  0  0  0  0
   92.1829   11.9318   95.6550 C   0  0  1  0  0  0  0  0  0  0  0  0
   93.3869   11.8258   95.3445 C   0  0  1  0  0  0  0  0  0  0  0  0
   93.1296   10.2563   97.1256 C   0  0  2  0  0  0  0  0  0  0  0  0
   93.2471    8.9328   96.6661 N   0  0  0  0  0  0  0  0  0  0  0  0
   90.5388   10.5845   92.5474 P   0  0  2  0  0  0  0  0  0  0  0  0
   95.2557   13.0303   94.2366 P   0  0  1  0  0  0  0  0  0  0  0  0
   93.6966   13.2181   92.1495 C   0  0  0  0  0  0  0  0  0  0  0  0
   94.8400   12.6244   92.7853 O   0  0  0  0  0  0  0  0  0  0  0  0
   93.1874   12.4852   90.9807 C   0  0  1  0  0  0  0  0  0  0  0  0
   94.4479   12.0207   90.0984 O   0  0  0  0  0  0  0  0  0  0  0  0
   92.6240   11.4238   91.3493 C   0  0  1  0  0  0  0  0  0  0  0  0
   91.2233   11.6229   91.6489 O   0  0  0  0  0  0  0  0  0  0  0  0
   92.8895   10.4510   90.2104 C   0  0  1  0  0  0  0  0  0  0  0  0
   92.0313   10.6033   89.2982 O   0  0  0  0  0  0  0  0  0  0  0  0
   94.2592   10.8626   89.6706 C   0  0  2  0  0  0  0  0  0  0  0  0
   96.8038    7.9411   93.0506 N   0  0  0  0  0  0  0  0  0  0  0  0
   95.7986    8.8159   93.3170 C   0  0  0  0  0  0  0  0  0  0  0  0
   95.2685    9.4696   92.2903 N   0  0  0  0  0  0  0  0  0  0  0  0
   95.7047    9.3686   91.0165 C   0  0  0  0  0  0  0  0  0  0  0  0
   96.7465    8.4704   90.7004 C   0  0  0  0  0  0  0  0  0  0  0  0
   97.2964    7.7545   91.8114 C   0  0  0  0  0  0  0  0  0  0  0  0
   98.3693    6.8415   91.5892 N   0  0  0  0  0  0  0  0  0  0  0  0
   96.9241    8.5466   89.4282 N   0  0  0  0  0  0  0  0  0  0  0  0
   96.0558    9.4075   88.9265 C   0  0  0  0  0  0  0  0  0  0  0  0
   95.3328    9.9248   89.8545 N   0  0  0  0  0  0  0  0  0  0  0  0
  1 24  1  0  0  0  0
  1  4  2  0  0  0  0
  2 13  1  0  0  0  0
  2 21  1  0  0  0  0
  3 16  1  0  0  0  0
  4 18  1  0  0  0  0
  5 19  2  0  0  0  0
  5 16  1  0  0  0  0
  6 16  2  0  0  0  0
  6 17  1  0  0  0  0
  7 17  1  0  0  0  0
 11 25  2  0  0  0  0
 12 26  2  0  0  0  0
 13 25  1  0  0  0  0
 14 23  1  0  0  0  0
 15 26  1  0  0  0  0
 17 18  2  0  0  0  0
 18 19  1  0  0  0  0
 19 24  1  0  0  0  0
 20 10  1  1  0  0  0
 20 22  1  0  0  0  0
 20 23  1  0  0  0  0
 21 14  1  1  0  0  0
 21 22  1  0  0  0  0
 22 15  1  1  0  0  0
 23 24  1  6  0  0  0
 25  8  1  6  0  0  0
 25 32  1  0  0  0  0
 26  9  1  6  0  0  0
 26 28  1  0  0  0  0
 27 28  1  0  0  0  0
 29 27  1  1  0  0  0
 29 30  1  0  0  0  0
 29 31  1  0  0  0  0
 30 35  1  0  0  0  0
 31 33  1  0  0  0  0
 31 32  1  6  0  0  0
 33 34  1  6  0  0  0
 33 35  1  0  0  0  0
 35 45  1  1  0  0  0
 36 41  2  0  0  0  0
 36 37  1  0  0  0  0
 37 38  2  0  0  0  0
 38 39  1  0  0  0  0
 39 40  2  0  0  0  0
 39 45  1  0  0  0  0
 40 41  1  0  0  0  0
 40 43  1  0  0  0  0
 41 42  1  0  0  0  0
 43 44  2  0  0  0  0
 44 45  1  0  0  0  0
M  CHG  4   8  -1   9  -1  11  -1  12  -1
M  END
>  <CHROM.1>
-23.44062371,72.43677213,94.07457082,10.10676724,93.55890010,0.97691944,-0.74314177
1.84643111

>  <Name>
ligand

>  <RI>
0

>  <Rbt.Current_Directory>
/home/itssahil/PROJECTS/Mol_Feturizer/New_Systems/rnas/4YAZ

>  <Rbt.Executable>
rbdock ($Id: //depot/dev/client3/rdock/2013.1/src/exe/rbdock.cxx#4 $)

>  <Rbt.Library>
libRbt.so (2013.1, Build901 2013/11/27)

>  <Rbt.Parameter_File>
/export/apps/rDock/src/rDock_2013.1_src/data/scripts/dock_solv.prm

>  <Rbt.Receptor>
prm/pocket_docking_8.prm

>  <SCORE>
-13.4453

>  <SCORE.INTER>
-11.2711

>  <SCORE.INTER.CONST>
1

>  <SCORE.INTER.POLAR>
0

>  <SCORE.INTER.ROT>
2

>  <SCORE.INTER.SOLV>
6.95497

>  <SCORE.INTER.VDW>
-14.7657

>  <SCORE.INTER.norm>
-0.250469

>  <SCORE.INTRA>
-2.17422

>  <SCORE.INTRA.DIHEDRAL>
0.0734052

>  <SCORE.INTRA.DIHEDRAL.0>
2.39103

>  <SCORE.INTRA.POLAR>
0

>  <SCORE.INTRA.POLAR.0>
0

>  <SCORE.INTRA.REPUL>
0

>  <SCORE.INTRA.REPUL.0>
0

>  <SCORE.INTRA.SOLV>
0.670769

>  <SCORE.INTRA.SOLV.lig_0>
-163.975

>  <SCORE.INTRA.VDW>
-2.5463

>  <SCORE.INTRA.VDW.0>
-1.49176

>  <SCORE.INTRA.norm>
-0.0483159

>  <SCORE.RESTR>
0

>  <SCORE.RESTR.CAVITY>
0

>  <SCORE.RESTR.norm>
0

>  <SCORE.SYSTEM>
0

>  <SCORE.SYSTEM.CONST>
0

>  <SCORE.SYSTEM.DIHEDRAL>
0

>  <SCORE.SYSTEM.SOLV>
0

>  <SCORE.SYSTEM.norm>
0

>  <SCORE.heavy>
45

>  <SCORE.norm>
-0.298785

>  <RMSD>
8.339

$$$$
ligand
 OpenBabel11021811513D
libRbt.so/2013.1/901 2013/11/27
 45 51  0  0  0  0  0  0  0  0999 V2000
   97.0352   11.1792   90.9136 C   0  0  0  0  0  0  0  0  0  0  0  0
   96.7975   11.9957   95.1542 C   0  0  0  0  0  0  0  0  0  0  0  0
   91.7841   11.8941   88.8357 N   0  0  0  0  0  0  0  0  0  0  0  0
   96.7087   10.1915   90.1448 N   0  0  0  0  0  0  0  0  0  0  0  0
   93.8244   12.0728   89.9588 N   0  0  0  0  0  0  0  0  0  0  0  0
   93.4080   10.2285   88.6020 N   0  0  0  0  0  0  0  0  0  0  0  0
   95.0773    8.5286   88.2888 O   0  0  0  0  0  0  0  0  0  0  0  0
   98.5325    9.5965   96.0551 O   0  5  0  0  0  0  0  0  0  0  0  0
   92.1642   13.7799   95.8588 O   0  5  0  0  0  0  0  0  0  0  0  0
   94.5130   14.6818   92.4959 O   0  0  0  0  0  0  0  0  0  0  0  0
   97.2390    8.3589   94.7328 O   0  5  0  0  0  0  0  0  0  0  0  0
   92.0634   13.0242   93.7577 O   0  5  0  0  0  0  0  0  0  0  0  0
   97.2486   10.8567   94.5379 O   0  0  0  0  0  0  0  0  0  0  0  0
   97.1412   13.0723   92.8709 O   0  0  0  0  0  0  0  0  0  0  0  0
   94.3033   13.5506   94.8554 O   0  0  0  0  0  0  0  0  0  0  0  0
   93.0707   11.3656   89.1582 C   0  0  0  0  0  0  0  0  0  0  0  0
   94.6094    9.7200   88.8402 C   0  0  0  0  0  0  0  0  0  0  0  0
   95.4747   10.4177   89.7129 C   0  0  0  0  0  0  0  0  0  0  0  0
   95.0606   11.6091   90.2557 C   0  0  0  0  0  0  0  0  0  0  0  0
   94.9674   13.3828   92.4185 C   0  0  2  0  0  0  0  0  0  0  0  0
   96.3476   13.0160   94.1876 C   0  0  1  0  0  0  0  0  0  0  0  0
   95.1361   12.8532   93.9365 C   0  0  1  0  0  0  0  0  0  0  0  0
   96.1105   13.1995   91.7842 C   0  0  2  0  0  0  0  0  0  0  0  0
   96.0782   12.0264   91.0100 N   0  0  0  0  0  0  0  0  0  0  0  0
   97.2669    9.5882   95.4450 P   0  0  2  0  0  0  0  0  0  0  0  0
   92.8725   12.9837   94.9512 P   0  0  1  0  0  0  0  0  0  0  0  0
   93.7526   11.3168   96.7592 C   0  0  0  0  0  0  0  0  0  0  0  0
   92.9330   11.5653   95.6057 O   0  0  0  0  0  0  0  0  0  0  0  0
   94.0298    9.8979   97.0283 C   0  0  1  0  0  0  0  0  0  0  0  0
   92.6638    9.0772   96.8199 O   0  0  0  0  0  0  0  0  0  0  0  0
   94.8297    9.4448   96.1713 C   0  0  1  0  0  0  0  0  0  0  0  0
   96.2107    9.6346   96.5567 O   0  0  0  0  0  0  0  0  0  0  0  0
   94.4168    7.9891   96.0149 C   0  0  1  0  0  0  0  0  0  0  0  0
   94.9584    7.2840   96.9101 O   0  0  0  0  0  0  0  0  0  0  0  0
   92.9051    7.9965   96.2423 C   0  0  2  0  0  0  0  0  0  0  0  0
   91.7824    9.1317   91.3550 N   0  0  0  0  0  0  0  0  0  0  0  0
   92.6603    9.7789   92.1658 C   0  0  0  0  0  0  0  0  0  0  0  0
   92.8086    9.3150   93.4008 N   0  0  0  0  0  0  0  0  0  0  0  0
   92.1007    8.2883   93.9183 C   0  0  0  0  0  0  0  0  0  0  0  0
   91.1797    7.5912   93.1073 C   0  0  0  0  0  0  0  0  0  0  0  0
   91.0433    8.0857   91.7709 C   0  0  0  0  0  0  0  0  0  0  0  0
   90.1179    7.4567   90.8866 N   0  0  0  0  0  0  0  0  0  0  0  0
   90.6895    6.6491   93.8340 N   0  0  0  0  0  0  0  0  0  0  0  0
   91.2531    6.6940   95.0287 C   0  0  0  0  0  0  0  0  0  0  0  0
   92.0814    7.6731   95.1097 N   0  0  0  0  0  0  0  0  0  0  0  0
  1 24  1  0  0  0  0
  1  4  2  0  0  0  0
  2 13  1  0  0  0  0
  2 21  1  0  0  0  0
  3 16  1  0  0  0  0
  4 18  1  0  0  0  0
  5 19  2  0  0  0  0
  5 16  1  0  0  0  0
  6 16  2  0  0  0  0
  6 17  1  0  0  0  0
  7 17  1  0  0  0  0
 11 25  2  0  0  0  0
 12 26  2  0  0  0  0
 13 25  1  0  0  0  0
 14 23  1  0  0  0  0
 15 26  1  0  0  0  0
 17 18  2  0  0  0  0
 18 19  1  0  0  0  0
 19 24  1  0  0  0  0
 20 10  1  1  0  0  0
 20 22  1  0  0  0  0
 20 23  1  0  0  0  0
 21 14  1  6  0  0  0
 21 22  1  0  0  0  0
 22 15  1  1  0  0  0
 23 24  1  1  0  0  0
 25  8  1  1  0  0  0
 25 32  1  0  0  0  0
 26  9  1  1  0  0  0
 26 28  1  0  0  0  0
 27 28  1  0  0  0  0
 29 27  1  6  0  0  0
 29 30  1  0  0  0  0
 29 31  1  0  0  0  0
 30 35  1  0  0  0  0
 31 33  1  0  0  0  0
 31 32  1  1  0  0  0
 33 34  1  1  0  0  0
 33 35  1  0  0  0  0
 35 45  1  6  0  0  0
 36 41  2  0  0  0  0
 36 37  1  0  0  0  0
 37 38  2  0  0  0  0
 38 39  1  0  0  0  0
 39 40  2  0  0  0  0
 39 45  1  0  0  0  0
 40 41  1  0  0  0  0
 40 43  1  0  0  0  0
 41 42  1  0  0  0  0
 43 44  2  0  0  0  0
 44 45  1  0  0  0  0
M  CHG  4   8  -1   9  -1  11  -1  12  -1
M  END
>  <CHROM.1>
-22.17789762,69.99134947,94.25706891,10.49100264,93.46228943,-1.71532670
0.76142047,1.89416266

>  <Name>
ligand

>  <RI>
0

>  <Rbt.Current_Directory>
/home/itssahil/PROJECTS/Mol_Feturizer/New_Systems/rnas/4YAZ

>  <Rbt.Executable>
rbdock ($Id: //depot/dev/client3/rdock/2013.1/src/exe/rbdock.cxx#4 $)

>  <Rbt.Library>
libRbt.so (2013.1, Build901 2013/11/27)

>  <Rbt.Parameter_File>
/export/apps/rDock/src/rDock_2013.1_src/data/scripts/dock_solv.prm

>  <Rbt.Receptor>
prm/pocket_docking_8.prm

>  <SCORE>
-15.8267

>  <SCORE.INTER>
-13.6741

>  <SCORE.INTER.CONST>
1

>  <SCORE.INTER.POLAR>
0

>  <SCORE.INTER.ROT>
2

>  <SCORE.INTER.SOLV>
6.13324

>  <SCORE.INTER.VDW>
-16.0938

>  <SCORE.INTER.norm>
-0.303868

>  <SCORE.INTRA>
-2.15264

>  <SCORE.INTRA.DIHEDRAL>
0.0579343

>  <SCORE.INTRA.DIHEDRAL.0>
2.39103

>  <SCORE.INTRA.POLAR>
0

>  <SCORE.INTRA.POLAR.0>
0

>  <SCORE.INTRA.REPUL>
0

>  <SCORE.INTRA.REPUL.0>
0

>  <SCORE.INTRA.SOLV>
0.752808

>  <SCORE.INTRA.SOLV.lig_0>
-163.975

>  <SCORE.INTRA.VDW>
-2.55801

>  <SCORE.INTRA.VDW.0>
-1.49176

>  <SCORE.INTRA.norm>
-0.0478365

>  <SCORE.RESTR>
0

>  <SCORE.RESTR.CAVITY>
0

>  <SCORE.RESTR.norm>
0

>  <SCORE.SYSTEM>
0

>  <SCORE.SYSTEM.CONST>
0

>  <SCORE.SYSTEM.DIHEDRAL>
0

>  <SCORE.SYSTEM.SOLV>
0

>  <SCORE.SYSTEM.norm>
0

>  <SCORE.heavy>
45

>  <SCORE.norm>
-0.351705

>  <RMSD>
8.450

$$$$
ligand
 OpenBabel11021811513D
libRbt.so/2013.1/901 2013/11/27
 45 51  0  0  0  0  0  0  0  0999 V2000
   92.9274   10.5606   95.7285 C   0  0  0  0  0  0  0  0  0  0  0  0
   94.0475   14.3343   95.7322 C   0  0  0  0  0  0  0  0  0  0  0  0
   95.6763    5.6277   96.4453 N   0  0  0  0  0  0  0  0  0  0  0  0
   92.2256    9.5748   95.2715 N   0  0  0  0  0  0  0  0  0  0  0  0
   95.0120    7.8660   96.3709 N   0  0  0  0  0  0  0  0  0  0  0  0
   93.6150    6.2150   95.5116 N   0  0  0  0  0  0  0  0  0  0  0  0
   91.4628    6.7747   94.6012 O   0  0  0  0  0  0  0  0  0  0  0  0
   91.2030   15.5024   95.3826 O   0  5  0  0  0  0  0  0  0  0  0  0
   98.3139   13.9405   93.1262 O   0  5  0  0  0  0  0  0  0  0  0  0
   97.2574   11.3472   96.2564 O   0  0  0  0  0  0  0  0  0  0  0  0
   90.8513   13.8226   93.9656 O   0  5  0  0  0  0  0  0  0  0  0  0
   97.5458   11.8417   93.0922 O   0  5  0  0  0  0  0  0  0  0  0  0
   92.8065   13.7863   95.5317 O   0  0  0  0  0  0  0  0  0  0  0  0
   94.4476   12.2825   97.1885 O   0  0  0  0  0  0  0  0  0  0  0  0
   96.7421   13.5034   94.8506 O   0  0  0  0  0  0  0  0  0  0  0  0
   94.7215    6.6247   96.0805 C   0  0  0  0  0  0  0  0  0  0  0  0
   92.6817    7.1015   95.1926 C   0  0  0  0  0  0  0  0  0  0  0  0
   92.9318    8.4669   95.4573 C   0  0  0  0  0  0  0  0  0  0  0  0
   94.1101    8.8269   96.0635 C   0  0  0  0  0  0  0  0  0  0  0  0
   95.9460   11.3106   95.8334 C   0  0  2  0  0  0  0  0  0  0  0  0
   95.0213   13.3477   96.2383 C   0  0  1  0  0  0  0  0  0  0  0  0
   95.5901   12.7870   95.2795 C   0  0  1  0  0  0  0  0  0  0  0  0
   95.0472   10.9787   96.7415 C   0  0  2  0  0  0  0  0  0  0  0  0
   94.0513   10.1531   96.1908 N   0  0  0  0  0  0  0  0  0  0  0  0
   91.8877   14.5906   94.5616 P   0  0  2  0  0  0  0  0  0  0  0  0
   97.1592   13.1974   93.3980 P   0  0  1  0  0  0  0  0  0  0  0  0
   95.5063   15.0669   92.6267 C   0  0  0  0  0  0  0  0  0  0  0  0
   96.0686   13.7597   92.4294 O   0  0  0  0  0  0  0  0  0  0  0  0
   94.2437   15.3124   91.9140 C   0  0  1  0  0  0  0  0  0  0  0  0
   94.3874   14.7142   90.4293 O   0  0  0  0  0  0  0  0  0  0  0  0
   93.3119   14.6620   92.4512 C   0  0  1  0  0  0  0  0  0  0  0  0
   92.6778   15.3972   93.5230 O   0  0  0  0  0  0  0  0  0  0  0  0
   92.3869   14.3189   91.2934 C   0  0  1  0  0  0  0  0  0  0  0  0
   91.6005   15.2786   91.0647 O   0  0  0  0  0  0  0  0  0  0  0  0
   93.3224   14.1536   90.0957 C   0  0  2  0  0  0  0  0  0  0  0  0
   95.7458    9.6289   90.3937 N   0  0  0  0  0  0  0  0  0  0  0  0
   96.0045   10.7465   91.1222 C   0  0  0  0  0  0  0  0  0  0  0  0
   95.2499   11.8144   90.8927 N   0  0  0  0  0  0  0  0  0  0  0  0
   94.2915   11.8796   89.9439 C   0  0  0  0  0  0  0  0  0  0  0  0
   93.9937   10.7393   89.1674 C   0  0  0  0  0  0  0  0  0  0  0  0
   94.7984    9.5867   89.4378 C   0  0  0  0  0  0  0  0  0  0  0  0
   94.5832    8.3949   88.6846 N   0  0  0  0  0  0  0  0  0  0  0  0
   93.0252   11.0688   88.3868 N   0  0  0  0  0  0  0  0  0  0  0  0
   92.6834   12.3211   88.6354 C   0  0  0  0  0  0  0  0  0  0  0  0
   93.4356   12.8312   89.5439 N   0  0  0  0  0  0  0  0  0  0  0  0
  1 24  1  0  0  0  0
  1  4  2  0  0  0  0
  2 13  1  0  0  0  0
  2 21  1  0  0  0  0
  3 16  1  0  0  0  0
  4 18  1  0  0  0  0
  5 19  2  0  0  0  0
  5 16  1  0  0  0  0
  6 16  2  0  0  0  0
  6 17  1  0  0  0  0
  7 17  1  0  0  0  0
 11 25  2  0  0  0  0
 12 26  2  0  0  0  0
 13 25  1  0  0  0  0
 14 23  1  0  0  0  0
 15 26  1  0  0  0  0
 17 18  2  0  0  0  0
 18 19  1  0  0  0  0
 19 24  1  0  0  0  0
 20 10  1  1  0  0  0
 20 22  1  0  0  0  0
 20 23  1  0  0  0  0
 21 14  1  6  0  0  0
 21 22  1  0  0  0  0
 22 15  1  1  0  0  0
 23 24  1  6  0  0  0
 25  8  1  1  0  0  0
 25 32  1  0  0  0  0
 26  9  1  6  0  0  0
 26 28  1  0  0  0  0
 27 28  1  0  0  0  0
 29 27  1  1  0  0  0
 29 30  1  0  0  0  0
 29 31  1  0  0  0  0
 30 35  1  0  0  0  0
 31 33  1  0  0  0  0
 31 32  1  1  0  0  0
 33 34  1  6  0  0  0
 33 35  1  0  0  0  0
 35 45  1  1  0  0  0
 36 41  2  0  0  0  0
 36 37  1  0  0  0  0
 37 38  2  0  0  0  0
 38 39  1  0  0  0  0
 39 40  2  0  0  0  0
 39 45  1  0  0  0  0
 40 41  1  0  0  0  0
 40 43  1  0  0  0  0
 41 42  1  0  0  0  0
 43 44  2  0  0  0  0
 44 45  1  0  0  0  0
M  CHG  4   8  -1   9  -1  11  -1  12  -1
M  END
>  <CHROM.1>
21.21907950,38.00795551,94.25943539,11.90349664,93.45075516,0.51149122,-1.48009712
1.46352034

>  <Name>
ligand

>  <RI>
0

>  <Rbt.Current_Directory>
/home/itssahil/PROJECTS/Mol_Feturizer/New_Systems/rnas/4YAZ

>  <Rbt.Executable>
rbdock ($Id: //depot/dev/client3/rdock/2013.1/src/exe/rbdock.cxx#4 $)

>  <Rbt.Library>
libRbt.so (2013.1, Build901 2013/11/27)

>  <Rbt.Parameter_File>
/export/apps/rDock/src/rDock_2013.1_src/data/scripts/dock_solv.prm

>  <Rbt.Receptor>
prm/pocket_docking_8.prm

>  <SCORE>
-14.8761

>  <SCORE.INTER>
-14.1101

>  <SCORE.INTER.CONST>
1

>  <SCORE.INTER.POLAR>
0

>  <SCORE.INTER.ROT>
2

>  <SCORE.INTER.SOLV>
11.9718

>  <SCORE.INTER.VDW>
-18.3307

>  <SCORE.INTER.norm>
-0.313558

>  <SCORE.INTRA>
-0.765957

>  <SCORE.INTRA.DIHEDRAL>
-0.116714

>  <SCORE.INTRA.DIHEDRAL.0>
2.39103

>  <SCORE.INTRA.POLAR>
0

>  <SCORE.INTRA.POLAR.0>
0

>  <SCORE.INTRA.REPUL>
0

>  <SCORE.INTRA.REPUL.0>
0

>  <SCORE.INTRA.SOLV>
1.69486

>  <SCORE.INTRA.SOLV.lig_0>
-163.975

>  <SCORE.INTRA.VDW>
-1.55503

>  <SCORE.INTRA.VDW.0>
-1.49176

>  <SCORE.INTRA.norm>
-0.0170213

>  <SCORE.RESTR>
0

>  <SCORE.RESTR.CAVITY>
0

>  <SCORE.RESTR.norm>
0

>  <SCORE.SYSTEM>
0

>  <SCORE.SYSTEM.CONST>
0

>  <SCORE.SYSTEM.DIHEDRAL>
0

>  <SCORE.SYSTEM.SOLV>
0

>  <SCORE.SYSTEM.norm>
0

>  <SCORE.heavy>
45

>  <SCORE.norm>
-0.330579

>  <RMSD>
8.501

$$$$
ligand
 OpenBabel11021811513D
libRbt.so/2013.1/901 2013/11/27
 45 51  0  0  0  0  0  0  0  0999 V2000
   92.8931    8.9232   96.4133 C   0  0  0  0  0  0  0  0  0  0  0  0
   95.0307   12.4893   95.7295 C   0  0  0  0  0  0  0  0  0  0  0  0
   96.1583    4.2631   96.2554 N   0  0  0  0  0  0  0  0  0  0  0  0
   92.3143    7.9812   95.7419 N   0  0  0  0  0  0  0  0  0  0  0  0
   95.2511    6.3884   96.5969 N   0  0  0  0  0  0  0  0  0  0  0  0
   94.0634    4.8063   95.3712 N   0  0  0  0  0  0  0  0  0  0  0  0
   91.8807    5.3086   94.5007 O   0  0  0  0  0  0  0  0  0  0  0  0
   92.7744   13.8929   94.1432 O   0  5  0  0  0  0  0  0  0  0  0  0
   99.7660   10.9919   95.0351 O   0  5  0  0  0  0  0  0  0  0  0  0
   97.2008    9.3216   97.9107 O   0  0  0  0  0  0  0  0  0  0  0  0
   92.6081   11.9944   92.9937 O   0  5  0  0  0  0  0  0  0  0  0  0
   98.6568    9.0515   95.0564 O   0  5  0  0  0  0  0  0  0  0  0  0
   93.8530   12.0688   95.1667 O   0  0  0  0  0  0  0  0  0  0  0  0
   94.4873   10.7845   97.5431 O   0  0  0  0  0  0  0  0  0  0  0  0
   97.6418   11.1530   96.0824 O   0  0  0  0  0  0  0  0  0  0  0  0
   95.1061    5.2073   96.0554 C   0  0  0  0  0  0  0  0  0  0  0  0
   93.0439    5.6359   95.1951 C   0  0  0  0  0  0  0  0  0  0  0  0
   93.1355    6.9389   95.7344 C   0  0  0  0  0  0  0  0  0  0  0  0
   94.2543    7.2914   96.4482 C   0  0  0  0  0  0  0  0  0  0  0  0
   96.1370    9.3541   97.0348 C   0  0  2  0  0  0  0  0  0  0  0  0
   95.5532   11.5288   96.7206 C   0  0  1  0  0  0  0  0  0  0  0  0
   96.2949   10.7004   96.1541 C   0  0  1  0  0  0  0  0  0  0  0  0
   94.9330    9.3494   97.5761 C   0  0  2  0  0  0  0  0  0  0  0  0
   94.0460    8.5514   96.8323 N   0  0  0  0  0  0  0  0  0  0  0  0
   93.5050   12.7419   93.8035 P   0  0  2  0  0  0  0  0  0  0  0  0
   98.4656   10.4785   94.9670 P   0  0  1  0  0  0  0  0  0  0  0  0
   97.5871   12.3170   93.3329 C   0  0  0  0  0  0  0  0  0  0  0  0
   97.9116   10.9394   93.5797 O   0  0  0  0  0  0  0  0  0  0  0  0
   96.7241   12.5508   92.1655 C   0  0  1  0  0  0  0  0  0  0  0  0
   97.2502   11.6206   90.9652 O   0  0  0  0  0  0  0  0  0  0  0  0
   95.5548   12.1589   92.4084 C   0  0  1  0  0  0  0  0  0  0  0  0
   94.7487   13.1895   93.0246 O   0  0  0  0  0  0  0  0  0  0  0  0
   95.0383   11.6817   91.0595 C   0  0  1  0  0  0  0  0  0  0  0  0
   94.5866   12.6554   90.3966 O   0  0  0  0  0  0  0  0  0  0  0  0
   96.2775   11.1361   90.3497 C   0  0  2  0  0  0  0  0  0  0  0  0
   95.5685    6.4676   92.3835 N   0  0  0  0  0  0  0  0  0  0  0  0
   95.4947    7.6619   93.0277 C   0  0  0  0  0  0  0  0  0  0  0  0
   95.7056    8.7583   92.3095 N   0  0  0  0  0  0  0  0  0  0  0  0
   96.0491    8.7585   91.0037 C   0  0  0  0  0  0  0  0  0  0  0  0
   96.1355    7.5379   90.3003 C   0  0  0  0  0  0  0  0  0  0  0  0
   95.8849    6.3631   91.0789 C   0  0  0  0  0  0  0  0  0  0  0  0
   95.9728    5.0831   90.4560 N   0  0  0  0  0  0  0  0  0  0  0  0
   96.4315    7.8349   89.0838 N   0  0  0  0  0  0  0  0  0  0  0  0
   96.5133    9.1494   88.9727 C   0  0  0  0  0  0  0  0  0  0  0  0
   96.3096    9.7199   90.1060 N   0  0  0  0  0  0  0  0  0  0  0  0
  1 24  1  0  0  0  0
  1  4  2  0  0  0  0
  2 13  1  0  0  0  0
  2 21  1  0  0  0  0
  3 16  1  0  0  0  0
  4 18  1  0  0  0  0
  5 19  2  0  0  0  0
  5 16  1  0  0  0  0
  6 16  2  0  0  0  0
  6 17  1  0  0  0  0
  7 17  1  0  0  0  0
 11 25  2  0  0  0  0
 12 26  2  0  0  0  0
 13 25  1  0  0  0  0
 14 23  1  0  0  0  0
 15 26  1  0  0  0  0
 17 18  2  0  0  0  0
 18 19  1  0  0  0  0
 19 24  1  0  0  0  0
 20 10  1  1  0  0  0
 20 22  1  0  0  0  0
 20 23  1  0  0  0  0
 21 14  1  6  0  0  0
 21 22  1  0  0  0  0
 22 15  1  1  0  0  0
 23 24  1  6  0  0  0
 25  8  1  1  0  0  0
 25 32  1  0  0  0  0
 26  9  1  1  0  0  0
 26 28  1  0  0  0  0
 27 28  1  0  0  0  0
 29 27  1  1  0  0  0
 29 30  1  0  0  0  0
 29 31  1  0  0  0  0
 30 35  1  0  0  0  0
 31 33  1  0  0  0  0
 31 32  1  6  0  0  0
 33 34  1  6  0  0  0
 33 35  1  0  0  0  0
 35 45  1  1  0  0  0
 36 41  2  0  0  0  0
 36 37  1  0  0  0  0
 37 38  2  0  0  0  0
 38 39  1  0  0  0  0
 39 40  2  0  0  0  0
 39 45  1  0  0  0  0
 40 41  1  0  0  0  0
 40 43  1  0  0  0  0
 41 42  1  0  0  0  0
 43 44  2  0  0  0  0
 44 45  1  0  0  0  0
M  CHG  4   8  -1   9  -1  11  -1  12  -1
M  END
>  <CHROM.1>
-12.94846806,76.85009502,95.48921186,9.61337648,93.98616351,2.66260443,-1.35480115
-2.61736699

>  <Name>
ligand

>  <RI>
0

>  <Rbt.Current_Directory>
/home/itssahil/PROJECTS/Mol_Feturizer/New_Systems/rnas/4YAZ

>  <Rbt.Executable>
rbdock ($Id: //depot/dev/client3/rdock/2013.1/src/exe/rbdock.cxx#4 $)

>  <Rbt.Library>
libRbt.so (2013.1, Build901 2013/11/27)

>  <Rbt.Parameter_File>
/export/apps/rDock/src/rDock_2013.1_src/data/scripts/dock_solv.prm

>  <Rbt.Receptor>
prm/pocket_docking_7.prm

>  <SCORE>
-13.6532

>  <SCORE.INTER>
-11.5402

>  <SCORE.INTER.CONST>
1

>  <SCORE.INTER.POLAR>
0

>  <SCORE.INTER.ROT>
2

>  <SCORE.INTER.SOLV>
11.3517

>  <SCORE.INTER.VDW>
-16.4107

>  <SCORE.INTER.norm>
-0.25645

>  <SCORE.INTRA>
-2.11297

>  <SCORE.INTRA.DIHEDRAL>
0.10025

>  <SCORE.INTRA.DIHEDRAL.0>
2.39103

>  <SCORE.INTRA.POLAR>
0

>  <SCORE.INTRA.POLAR.0>
0

>  <SCORE.INTRA.REPUL>
0

>  <SCORE.INTRA.REPUL.0>
0

>  <SCORE.INTRA.SOLV>
0.0885406

>  <SCORE.INTRA.SOLV.lig_0>
-163.975

>  <SCORE.INTRA.VDW>
-2.20736

>  <SCORE.INTRA.VDW.0>
-1.49176

>  <SCORE.INTRA.norm>
-0.0469548

>  <SCORE.RESTR>
0

>  <SCORE.RESTR.CAVITY>
0

>  <SCORE.RESTR.norm>
0

>  <SCORE.SYSTEM>
0

>  <SCORE.SYSTEM.CONST>
0

>  <SCORE.SYSTEM.DIHEDRAL>
0

>  <SCORE.SYSTEM.SOLV>
0

>  <SCORE.SYSTEM.norm>
0

>  <SCORE.heavy>
45

>  <SCORE.norm>
-0.303405

>  <RMSD>
8.505

$$$$
ligand
 OpenBabel11021811513D
libRbt.so/2013.1/901 2013/11/27
 45 51  0  0  0  0  0  0  0  0999 V2000
   94.2925   10.7803   98.1394 C   0  0  0  0  0  0  0  0  0  0  0  0
   96.5907    8.3951   95.0163 C   0  0  0  0  0  0  0  0  0  0  0  0
   90.5673   12.8118   94.3447 N   0  0  0  0  0  0  0  0  0  0  0  0
   94.1774   12.0638   98.2527 N   0  0  0  0  0  0  0  0  0  0  0  0
   91.9877   11.4945   95.6499 N   0  0  0  0  0  0  0  0  0  0  0  0
   91.8964   13.7936   95.9985 N   0  0  0  0  0  0  0  0  0  0  0  0
   93.2012   14.8289   97.7305 O   0  0  0  0  0  0  0  0  0  0  0  0
   99.3958    9.5930   95.5398 O   0  5  0  0  0  0  0  0  0  0  0  0
   93.3661    7.8535   91.2141 O   0  5  0  0  0  0  0  0  0  0  0  0
   92.2148    7.8510   95.2532 O   0  0  0  0  0  0  0  0  0  0  0  0
   98.4185   11.5820   95.3348 O   0  5  0  0  0  0  0  0  0  0  0  0
   92.3725    9.4257   92.4539 O   0  5  0  0  0  0  0  0  0  0  0  0
   97.0473    9.5117   95.6683 O   0  0  0  0  0  0  0  0  0  0  0  0
   94.8281    8.3431   96.8552 O   0  0  0  0  0  0  0  0  0  0  0  0
   94.1324    7.8802   93.4607 O   0  0  0  0  0  0  0  0  0  0  0  0
   91.5441   12.6942   95.3795 C   0  0  0  0  0  0  0  0  0  0  0  0
   92.7702   13.7271   96.9939 C   0  0  0  0  0  0  0  0  0  0  0  0
   93.3106   12.4659   97.3320 C   0  0  0  0  0  0  0  0  0  0  0  0
   92.8912   11.3520   96.6473 C   0  0  0  0  0  0  0  0  0  0  0  0
   93.0907    8.8753   95.5421 C   0  0  2  0  0  0  0  0  0  0  0  0
   95.2051    8.0534   95.3921 C   0  0  1  0  0  0  0  0  0  0  0  0
   94.4061    8.6386   94.6329 C   0  0  1  0  0  0  0  0  0  0  0  0
   93.4693    8.9835   96.8021 C   0  0  2  0  0  0  0  0  0  0  0  0
   93.5557   10.3318   97.1914 N   0  0  0  0  0  0  0  0  0  0  0  0
   98.2625   10.2130   94.9873 P   0  0  2  0  0  0  0  0  0  0  0  0
   93.6222    8.7271   92.2774 P   0  0  1  0  0  0  0  0  0  0  0  0
   96.1155    9.1476   91.6227 C   0  0  0  0  0  0  0  0  0  0  0  0
   94.7801    9.6530   91.7816 O   0  0  0  0  0  0  0  0  0  0  0  0
   97.1622   10.1773   91.5420 C   0  0  1  0  0  0  0  0  0  0  0  0
   96.6282   11.3540   90.5864 O   0  0  0  0  0  0  0  0  0  0  0  0
   97.3323   10.7084   92.6684 C   0  0  1  0  0  0  0  0  0  0  0  0
   98.3029    9.9954   93.4691 O   0  0  0  0  0  0  0  0  0  0  0  0
   97.7193   12.1434   92.3447 C   0  0  1  0  0  0  0  0  0  0  0  0
   98.9566   12.2185   92.1096 O   0  0  0  0  0  0  0  0  0  0  0  0
   96.9545   12.4626   91.0601 C   0  0  2  0  0  0  0  0  0  0  0  0
   91.9878   13.4942   90.2221 N   0  0  0  0  0  0  0  0  0  0  0  0
   92.6536   12.3541   89.9001 C   0  0  0  0  0  0  0  0  0  0  0  0
   93.9418   12.2886   90.2142 N   0  0  0  0  0  0  0  0  0  0  0  0
   94.6419   13.3000   90.7711 C   0  0  0  0  0  0  0  0  0  0  0  0
   93.9853   14.4996   91.1200 C   0  0  0  0  0  0  0  0  0  0  0  0
   92.5917   14.5516   90.7969 C   0  0  0  0  0  0  0  0  0  0  0  0
   91.8520   15.7346   91.0924 N   0  0  0  0  0  0  0  0  0  0  0  0
   94.8706   15.2585   91.6641 N   0  0  0  0  0  0  0  0  0  0  0  0
   96.0230   14.6122   91.7004 C   0  0  0  0  0  0  0  0  0  0  0  0
   95.9170   13.4526   91.1568 N   0  0  0  0  0  0  0  0  0  0  0  0
  1 24  1  0  0  0  0
  1  4  2  0  0  0  0
  2 13  1  0  0  0  0
  2 21  1  0  0  0  0
  3 16  1  0  0  0  0
  4 18  1  0  0  0  0
  5 19  2  0  0  0  0
  5 16  1  0  0  0  0
  6 16  2  0  0  0  0
  6 17  1  0  0  0  0
  7 17  1  0  0  0  0
 11 25  2  0  0  0  0
 12 26  2  0  0  0  0
 13 25  1  0  0  0  0
 14 23  1  0  0  0  0
 15 26  1  0  0  0  0
 17 18  2  0  0  0  0
 18 19  1  0  0  0  0
 19 24  1  0  0  0  0
 20 10  1  1  0  0  0
 20 22  1  0  0  0  0
 20 23  1  0  0  0  0
 21 14  1  1  0  0  0
 21 22  1  0  0  0  0
 22 15  1  6  0  0  0
 23 24  1  6  0  0  0
 25  8  1  1  0  0  0
 25 32  1  0  0  0  0
 26  9  1  6  0  0  0
 26 28  1  0  0  0  0
 27 28  1  0  0  0  0
 29 27  1  1  0  0  0
 29 30  1  0  0  0  0
 29 31  1  0  0  0  0
 30 35  1  0  0  0  0
 31 33  1  0  0  0  0
 31 32  1  6  0  0  0
 33 34  1  6  0  0  0
 33 35  1  0  0  0  0
 35 45  1  1  0  0  0
 36 41  2  0  0  0  0
 36 37  1  0  0  0  0
 37 38  2  0  0  0  0
 38 39  1  0  0  0  0
 39 40  2  0  0  0  0
 39 45  1  0  0  0  0
 40 41  1  0  0  0  0
 40 43  1  0  0  0  0
 41 42  1  0  0  0  0
 43 44  2  0  0  0  0
 44 45  1  0  0  0  0
M  CHG  4   8  -1   9  -1  11  -1  12  -1
M  END
>  <CHROM.1>
-39.30061048,-0.89113602,94.77482980,11.10128888,93.77284334,1.37677078,-0.56974794
2.11740446

>  <Name>
ligand

>  <RI>
0

>  <Rbt.Current_Directory>
/home/itssahil/PROJECTS/Mol_Feturizer/New_Systems/rnas/4YAZ

>  <Rbt.Executable>
rbdock ($Id: //depot/dev/client3/rdock/2013.1/src/exe/rbdock.cxx#4 $)

>  <Rbt.Library>
libRbt.so (2013.1, Build901 2013/11/27)

>  <Rbt.Parameter_File>
/export/apps/rDock/src/rDock_2013.1_src/data/scripts/dock_solv.prm

>  <Rbt.Receptor>
prm/pocket_docking_6.prm

>  <SCORE>
-14.6591

>  <SCORE.INTER>
-14.9716

>  <SCORE.INTER.CONST>
1

>  <SCORE.INTER.POLAR>
0

>  <SCORE.INTER.ROT>
2

>  <SCORE.INTER.SOLV>
12.7862

>  <SCORE.INTER.VDW>
-19.1764

>  <SCORE.INTER.norm>
-0.332702

>  <SCORE.INTRA>
0.31245

>  <SCORE.INTRA.DIHEDRAL>
0.0264983

>  <SCORE.INTRA.DIHEDRAL.0>
2.39103

>  <SCORE.INTRA.POLAR>
0

>  <SCORE.INTRA.POLAR.0>
0

>  <SCORE.INTRA.REPUL>
0

>  <SCORE.INTRA.REPUL.0>
0

>  <SCORE.INTRA.SOLV>
0.819964

>  <SCORE.INTRA.SOLV.lig_0>
-163.975

>  <SCORE.INTRA.VDW>
-0.110781

>  <SCORE.INTRA.VDW.0>
-1.49176

>  <SCORE.INTRA.norm>
0.00694334

>  <SCORE.RESTR>
0

>  <SCORE.RESTR.CAVITY>
0

>  <SCORE.RESTR.norm>
0

>  <SCORE.SYSTEM>
0

>  <SCORE.SYSTEM.CONST>
0

>  <SCORE.SYSTEM.DIHEDRAL>
0

>  <SCORE.SYSTEM.SOLV>
0

>  <SCORE.SYSTEM.norm>
0

>  <SCORE.heavy>
45

>  <SCORE.norm>
-0.325758

>  <RMSD>
8.577

$$$$
ligand
 OpenBabel11021811513D
libRbt.so/2013.1/901 2013/11/27
 45 51  0  0  0  0  0  0  0  0999 V2000
   92.7763    9.6108   95.6222 C   0  0  0  0  0  0  0  0  0  0  0  0
   93.4003   13.3431   96.6009 C   0  0  0  0  0  0  0  0  0  0  0  0
   95.2956    4.6106   96.6488 N   0  0  0  0  0  0  0  0  0  0  0  0
   92.1847    8.6589   94.9763 N   0  0  0  0  0  0  0  0  0  0  0  0
   94.6689    6.8587   96.5514 N   0  0  0  0  0  0  0  0  0  0  0  0
   93.4816    5.2723   95.3309 N   0  0  0  0  0  0  0  0  0  0  0  0
   91.5737    5.9068   94.0151 O   0  0  0  0  0  0  0  0  0  0  0  0
   90.4959   14.3240   96.1768 O   0  5  0  0  0  0  0  0  0  0  0  0
   97.8944   13.7961   94.4223 O   0  5  0  0  0  0  0  0  0  0  0  0
   96.8305   10.5785   96.9032 O   0  0  0  0  0  0  0  0  0  0  0  0
   90.4350   12.9216   94.4497 O   0  5  0  0  0  0  0  0  0  0  0  0
   97.3420   11.6872   93.9285 O   0  5  0  0  0  0  0  0  0  0  0  0
   92.2413   12.7454   96.1770 O   0  0  0  0  0  0  0  0  0  0  0  0
   93.8724   11.0907   97.6938 O   0  0  0  0  0  0  0  0  0  0  0  0
   96.2297   12.9142   95.8667 O   0  0  0  0  0  0  0  0  0  0  0  0
   94.4431    5.6377   96.1421 C   0  0  0  0  0  0  0  0  0  0  0  0
   92.6400    6.1866   94.8677 C   0  0  0  0  0  0  0  0  0  0  0  0
   92.8321    7.5335   95.2498 C   0  0  0  0  0  0  0  0  0  0  0  0
   93.8557    7.8463   96.1101 C   0  0  0  0  0  0  0  0  0  0  0  0
   95.5707   10.5178   96.3472 C   0  0  2  0  0  0  0  0  0  0  0  0
   94.4188   12.3598   97.0175 C   0  0  1  0  0  0  0  0  0  0  0  0
   95.1208   12.0392   96.0368 C   0  0  1  0  0  0  0  0  0  0  0  0
   94.6336    9.9482   97.0820 C   0  0  2  0  0  0  0  0  0  0  0  0
   93.7751    9.1651   96.2906 N   0  0  0  0  0  0  0  0  0  0  0  0
   91.3353   13.6430   95.2793 P   0  0  2  0  0  0  0  0  0  0  0  0
   96.7991   12.9245   94.4337 P   0  0  1  0  0  0  0  0  0  0  0  0
   95.0437   14.7677   93.8479 C   0  0  0  0  0  0  0  0  0  0  0  0
   95.7466   13.5713   93.4757 O   0  0  0  0  0  0  0  0  0  0  0  0
   93.8296   15.0420   93.0649 C   0  0  1  0  0  0  0  0  0  0  0  0
   94.1595   14.7505   91.5192 O   0  0  0  0  0  0  0  0  0  0  0  0
   92.9231   14.2286   93.3757 C   0  0  1  0  0  0  0  0  0  0  0  0
   92.1294   14.6932   94.4918 O   0  0  0  0  0  0  0  0  0  0  0  0
   92.1401   14.0387   92.0854 C   0  0  1  0  0  0  0  0  0  0  0  0
   91.2861   14.9581   91.9547 O   0  0  0  0  0  0  0  0  0  0  0  0
   93.1876   14.1799   90.9810 C   0  0  2  0  0  0  0  0  0  0  0  0
   95.4007    9.5392   91.0119 N   0  0  0  0  0  0  0  0  0  0  0  0
   95.4064   10.4565   92.0146 C   0  0  0  0  0  0  0  0  0  0  0  0
   94.7626   11.5981   91.8029 N   0  0  0  0  0  0  0  0  0  0  0  0
   94.1617   11.9287   90.6399 C   0  0  0  0  0  0  0  0  0  0  0  0
   94.1346   11.0023   89.5755 C   0  0  0  0  0  0  0  0  0  0  0  0
   94.8129    9.7660   89.8219 C   0  0  0  0  0  0  0  0  0  0  0  0
   94.8566    8.7787   88.7936 N   0  0  0  0  0  0  0  0  0  0  0  0
   93.4689   11.5556   88.6234 N   0  0  0  0  0  0  0  0  0  0  0  0
   93.0607   12.7472   89.0240 C   0  0  0  0  0  0  0  0  0  0  0  0
   93.4775   13.0000   90.2130 N   0  0  0  0  0  0  0  0  0  0  0  0
  1 24  1  0  0  0  0
  1  4  2  0  0  0  0
  2 13  1  0  0  0  0
  2 21  1  0  0  0  0
  3 16  1  0  0  0  0
  4 18  1  0  0  0  0
  5 19  2  0  0  0  0
  5 16  1  0  0  0  0
  6 16  2  0  0  0  0
  6 17  1  0  0  0  0
  7 17  1  0  0  0  0
 11 25  2  0  0  0  0
 12 26  2  0  0  0  0
 13 25  1  0  0  0  0
 14 23  1  0  0  0  0
 15 26  1  0  0  0  0
 17 18  2  0  0  0  0
 18 19  1  0  0  0  0
 19 24  1  0  0  0  0
 20 10  1  1  0  0  0
 20 22  1  0  0  0  0
 20 23  1  0  0  0  0
 21 14  1  6  0  0  0
 21 22  1  0  0  0  0
 22 15  1  1  0  0  0
 23 24  1  6  0  0  0
 25  8  1  1  0  0  0
 25 32  1  0  0  0  0
 26  9  1  1  0  0  0
 26 28  1  0  0  0  0
 27 28  1  0  0  0  0
 29 27  1  1  0  0  0
 29 30  1  0  0  0  0
 29 31  1  0  0  0  0
 30 35  1  0  0  0  0
 31 33  1  0  0  0  0
 31 32  1  1  0  0  0
 33 34  1  6  0  0  0
 33 35  1  0  0  0  0
 35 45  1  1  0  0  0
 36 41  2  0  0  0  0
 36 37  1  0  0  0  0
 37 38  2  0  0  0  0
 38 39  1  0  0  0  0
 39 40  2  0  0  0  0
 39 45  1  0  0  0  0
 40 41  1  0  0  0  0
 40 43  1  0  0  0  0
 41 42  1  0  0  0  0
 43 44  2  0  0  0  0
 44 45  1  0  0  0  0
M  CHG  4   8  -1   9  -1  11  -1  12  -1
M  END
>  <CHROM.1>
32.96778639,53.17247542,93.96463192,11.37418889,94.02502467,0.76257396,-1.46940270
1.85400645

>  <Name>
ligand

>  <RI>
0

>  <Rbt.Current_Directory>
/home/itssahil/PROJECTS/Mol_Feturizer/New_Systems/rnas/4YAZ

>  <Rbt.Executable>
rbdock ($Id: //depot/dev/client3/rdock/2013.1/src/exe/rbdock.cxx#4 $)

>  <Rbt.Library>
libRbt.so (2013.1, Build901 2013/11/27)

>  <Rbt.Parameter_File>
/export/apps/rDock/src/rDock_2013.1_src/data/scripts/dock_solv.prm

>  <Rbt.Receptor>
prm/pocket_docking_8.prm

>  <SCORE>
-15.1601

>  <SCORE.INTER>
-13.5041

>  <SCORE.INTER.CONST>
1

>  <SCORE.INTER.POLAR>
0

>  <SCORE.INTER.ROT>
2

>  <SCORE.INTER.SOLV>
12.5064

>  <SCORE.INTER.VDW>
-18.1049

>  <SCORE.INTER.norm>
-0.300091

>  <SCORE.INTRA>
-1.65604

>  <SCORE.INTRA.DIHEDRAL>
-0.0481994

>  <SCORE.INTRA.DIHEDRAL.0>
2.39103

>  <SCORE.INTRA.POLAR>
0

>  <SCORE.INTRA.POLAR.0>
0

>  <SCORE.INTRA.REPUL>
0

>  <SCORE.INTRA.REPUL.0>
0

>  <SCORE.INTRA.SOLV>
1.30151

>  <SCORE.INTRA.SOLV.lig_0>
-163.975

>  <SCORE.INTRA.VDW>
-2.28269

>  <SCORE.INTRA.VDW.0>
-1.49176

>  <SCORE.INTRA.norm>
-0.0368008

>  <SCORE.RESTR>
0

>  <SCORE.RESTR.CAVITY>
0

>  <SCORE.RESTR.norm>
0

>  <SCORE.SYSTEM>
0

>  <SCORE.SYSTEM.CONST>
0

>  <SCORE.SYSTEM.DIHEDRAL>
0

>  <SCORE.SYSTEM.SOLV>
0

>  <SCORE.SYSTEM.norm>
0

>  <SCORE.heavy>
45

>  <SCORE.norm>
-0.336892

>  <RMSD>
8.647

$$$$
ligand
 OpenBabel11021811513D
libRbt.so/2013.1/901 2013/11/27
 45 51  0  0  0  0  0  0  0  0999 V2000
   92.7888    9.4617   95.9372 C   0  0  0  0  0  0  0  0  0  0  0  0
   93.5834   13.2492   96.5800 C   0  0  0  0  0  0  0  0  0  0  0  0
   95.6240    4.5752   96.6350 N   0  0  0  0  0  0  0  0  0  0  0  0
   92.1986    8.4963   95.3102 N   0  0  0  0  0  0  0  0  0  0  0  0
   94.8805    6.7896   96.6470 N   0  0  0  0  0  0  0  0  0  0  0  0
   93.6856    5.1739   95.4734 N   0  0  0  0  0  0  0  0  0  0  0  0
   91.6550    5.7404   94.3200 O   0  0  0  0  0  0  0  0  0  0  0  0
   90.7052   14.2742   96.0868 O   0  5  0  0  0  0  0  0  0  0  0  0
   98.0932   13.4631   94.3974 O   0  5  0  0  0  0  0  0  0  0  0  0
   96.9435   10.4241   97.0588 O   0  0  0  0  0  0  0  0  0  0  0  0
   90.6145   12.7744   94.4448 O   0  5  0  0  0  0  0  0  0  0  0  0
   97.4904   11.3430   94.0261 O   0  5  0  0  0  0  0  0  0  0  0  0
   92.4111   12.6561   96.1871 O   0  0  0  0  0  0  0  0  0  0  0  0
   93.9967   11.0542   97.8054 O   0  0  0  0  0  0  0  0  0  0  0  0
   96.4033   12.7087   95.8842 O   0  0  0  0  0  0  0  0  0  0  0  0
   94.6858    5.5688   96.2214 C   0  0  0  0  0  0  0  0  0  0  0  0
   92.7670    6.0543   95.0992 C   0  0  0  0  0  0  0  0  0  0  0  0
   92.9200    7.3997   95.5037 C   0  0  0  0  0  0  0  0  0  0  0  0
   93.9883    7.7441   96.2946 C   0  0  0  0  0  0  0  0  0  0  0  0
   95.6841   10.3617   96.5020 C   0  0  2  0  0  0  0  0  0  0  0  0
   94.5762   12.2675   97.0579 C   0  0  1  0  0  0  0  0  0  0  0  0
   95.2727   11.8726   96.1008 C   0  0  1  0  0  0  0  0  0  0  0  0
   94.7312    9.8593   97.2651 C   0  0  2  0  0  0  0  0  0  0  0  0
   93.8558    9.0522   96.5174 N   0  0  0  0  0  0  0  0  0  0  0  0
   91.5300   13.5211   95.2343 P   0  0  2  0  0  0  0  0  0  0  0  0
   96.9768   12.6207   94.4555 P   0  0  1  0  0  0  0  0  0  0  0  0
   95.2689   14.4686   93.7549 C   0  0  0  0  0  0  0  0  0  0  0  0
   95.9432   13.2356   93.4567 O   0  0  0  0  0  0  0  0  0  0  0  0
   94.0641   14.7259   92.9521 C   0  0  1  0  0  0  0  0  0  0  0  0
   94.3910   14.3360   91.4276 O   0  0  0  0  0  0  0  0  0  0  0  0
   93.1371   13.9547   93.3063 C   0  0  1  0  0  0  0  0  0  0  0  0
   92.3520   14.5035   94.3898 O   0  0  0  0  0  0  0  0  0  0  0  0
   92.3531   13.7084   92.0262 C   0  0  1  0  0  0  0  0  0  0  0  0
   91.5224   14.6391   91.8380 O   0  0  0  0  0  0  0  0  0  0  0  0
   93.4069   13.7586   90.9198 C   0  0  2  0  0  0  0  0  0  0  0  0
   96.7958    9.9728   90.1344 N   0  0  0  0  0  0  0  0  0  0  0  0
   96.9753   11.0903   90.8866 C   0  0  0  0  0  0  0  0  0  0  0  0
   95.9620   11.9445   90.9643 N   0  0  0  0  0  0  0  0  0  0  0  0
   94.7966   11.8057   90.2969 C   0  0  0  0  0  0  0  0  0  0  0  0
   94.5729   10.6585   89.5058 C   0  0  0  0  0  0  0  0  0  0  0  0
   95.6635    9.7332   89.4462 C   0  0  0  0  0  0  0  0  0  0  0  0
   95.5351    8.5558   88.6517 N   0  0  0  0  0  0  0  0  0  0  0  0
   93.3821   10.7665   89.0301 N   0  0  0  0  0  0  0  0  0  0  0  0
   92.8404   11.8833   89.4842 C   0  0  0  0  0  0  0  0  0  0  0  0
   93.6697   12.5288   90.2237 N   0  0  0  0  0  0  0  0  0  0  0  0
  1 24  1  0  0  0  0
  1  4  2  0  0  0  0
  2 13  1  0  0  0  0
  2 21  1  0  0  0  0
  3 16  1  0  0  0  0
  4 18  1  0  0  0  0
  5 19  2  0  0  0  0
  5 16  1  0  0  0  0
  6 16  2  0  0  0  0
  6 17  1  0  0  0  0
  7 17  1  0  0  0  0
 11 25  2  0  0  0  0
 12 26  2  0  0  0  0
 13 25  1  0  0  0  0
 14 23  1  0  0  0  0
 15 26  1  0  0  0  0
 17 18  2  0  0  0  0
 18 19  1  0  0  0  0
 19 24  1  0  0  0  0
 20 10  1  1  0  0  0
 20 22  1  0  0  0  0
 20 23  1  0  0  0  0
 21 14  1  6  0  0  0
 21 22  1  0  0  0  0
 22 15  1  1  0  0  0
 23 24  1  6  0  0  0
 25  8  1  1  0  0  0
 25 32  1  0  0  0  0
 26  9  1  6  0  0  0
 26 28  1  0  0  0  0
 27 28  1  0  0  0  0
 29 27  1  1  0  0  0
 29 30  1  0  0  0  0
 29 31  1  0  0  0  0
 30 35  1  0  0  0  0
 31 33  1  0  0  0  0
 31 32  1  1  0  0  0
 33 34  1  6  0  0  0
 33 35  1  0  0  0  0
 35 45  1  1  0  0  0
 36 41  2  0  0  0  0
 36 37  1  0  0  0  0
 37 38  2  0  0  0  0
 38 39  1  0  0  0  0
 39 40  2  0  0  0  0
 39 45  1  0  0  0  0
 40 41  1  0  0  0  0
 40 43  1  0  0  0  0
 41 42  1  0  0  0  0
 43 44  2  0  0  0  0
 44 45  1  0  0  0  0
M  CHG  4   8  -1   9  -1  11  -1  12  -1
M  END
>  <CHROM.1>
25.07153108,14.67608333,94.23287613,11.19354959,94.00928826,1.48189882,-1.28578208
2.45566555

>  <Name>
ligand

>  <RI>
0

>  <Rbt.Current_Directory>
/home/itssahil/PROJECTS/Mol_Feturizer/New_Systems/rnas/4YAZ

>  <Rbt.Executable>
rbdock ($Id: //depot/dev/client3/rdock/2013.1/src/exe/rbdock.cxx#4 $)

>  <Rbt.Library>
libRbt.so (2013.1, Build901 2013/11/27)

>  <Rbt.Parameter_File>
/export/apps/rDock/src/rDock_2013.1_src/data/scripts/dock_solv.prm

>  <Rbt.Receptor>
prm/pocket_docking_8.prm

>  <SCORE>
-16.9809

>  <SCORE.INTER>
-15.9466

>  <SCORE.INTER.CONST>
1

>  <SCORE.INTER.POLAR>
0

>  <SCORE.INTER.ROT>
2

>  <SCORE.INTER.SOLV>
12.3962

>  <SCORE.INTER.VDW>
-19.6965

>  <SCORE.INTER.norm>
-0.354369

>  <SCORE.INTRA>
-1.03432

>  <SCORE.INTRA.DIHEDRAL>
-0.0686092

>  <SCORE.INTRA.DIHEDRAL.0>
2.39103

>  <SCORE.INTRA.POLAR>
0

>  <SCORE.INTRA.POLAR.0>
0

>  <SCORE.INTRA.REPUL>
0

>  <SCORE.INTRA.REPUL.0>
0

>  <SCORE.INTRA.SOLV>
1.05874

>  <SCORE.INTRA.SOLV.lig_0>
-163.975

>  <SCORE.INTRA.VDW>
-1.52939

>  <SCORE.INTRA.VDW.0>
-1.49176

>  <SCORE.INTRA.norm>
-0.022985

>  <SCORE.RESTR>
0

>  <SCORE.RESTR.CAVITY>
0

>  <SCORE.RESTR.norm>
0

>  <SCORE.SYSTEM>
0

>  <SCORE.SYSTEM.CONST>
0

>  <SCORE.SYSTEM.DIHEDRAL>
0

>  <SCORE.SYSTEM.SOLV>
0

>  <SCORE.SYSTEM.norm>
0

>  <SCORE.heavy>
45

>  <SCORE.norm>
-0.377354

>  <RMSD>
8.675

$$$$
ligand
 OpenBabel11021811523D
libRbt.so/2013.1/901 2013/11/27
 45 51  0  0  0  0  0  0  0  0999 V2000
   92.3893    9.2978   96.1867 C   0  0  0  0  0  0  0  0  0  0  0  0
   96.7746    7.0978   94.5502 C   0  0  0  0  0  0  0  0  0  0  0  0
   97.1588    9.6927   99.2687 N   0  0  0  0  0  0  0  0  0  0  0  0
   92.5107   10.4821   96.6926 N   0  0  0  0  0  0  0  0  0  0  0  0
   95.3636    9.0022   97.9432 N   0  0  0  0  0  0  0  0  0  0  0  0
   95.4276   11.1797   98.7619 N   0  0  0  0  0  0  0  0  0  0  0  0
   93.6977   12.7537   98.2100 O   0  0  0  0  0  0  0  0  0  0  0  0
   99.3202    8.7399   95.1838 O   0  5  0  0  0  0  0  0  0  0  0  0
   93.8744    5.9984   90.6097 O   0  5  0  0  0  0  0  0  0  0  0  0
   92.5374    5.8549   94.5886 O   0  0  0  0  0  0  0  0  0  0  0  0
   98.0465   10.5420   94.8943 O   0  5  0  0  0  0  0  0  0  0  0  0
   92.5794    7.4027   91.7703 O   0  5  0  0  0  0  0  0  0  0  0  0
   97.0121    8.2809   95.2017 O   0  0  0  0  0  0  0  0  0  0  0  0
   94.9535    6.7817   96.3036 O   0  0  0  0  0  0  0  0  0  0  0  0
   94.5127    6.1741   92.8894 O   0  0  0  0  0  0  0  0  0  0  0  0
   95.9111    9.9692   98.6321 C   0  0  0  0  0  0  0  0  0  0  0  0
   94.2917   11.4942   98.1539 C   0  0  0  0  0  0  0  0  0  0  0  0
   93.6294   10.4946   97.4061 C   0  0  0  0  0  0  0  0  0  0  0  0
   94.1961    9.2479   97.3045 C   0  0  0  0  0  0  0  0  0  0  0  0
   93.2211    7.0107   94.8992 C   0  0  2  0  0  0  0  0  0  0  0  0
   95.4452    6.5404   94.8660 C   0  0  1  0  0  0  0  0  0  0  0  0
   94.6014    6.9800   94.0585 C   0  0  1  0  0  0  0  0  0  0  0  0
   93.5136    7.1930   96.1735 C   0  0  2  0  0  0  0  0  0  0  0  0
   93.3619    8.5417   96.5405 N   0  0  0  0  0  0  0  0  0  0  0  0
   98.1309    9.1620   94.5660 P   0  0  2  0  0  0  0  0  0  0  0  0
   93.9326    6.9138   91.6671 P   0  0  1  0  0  0  0  0  0  0  0  0
   96.3552    7.7251   91.1240 C   0  0  0  0  0  0  0  0  0  0  0  0
   94.9495    8.0094   91.2093 O   0  0  0  0  0  0  0  0  0  0  0  0
   97.2249    8.9098   91.0736 C   0  0  1  0  0  0  0  0  0  0  0  0
   96.5569    9.9736   90.0712 O   0  0  0  0  0  0  0  0  0  0  0  0
   97.2505    9.4740   92.1964 C   0  0  1  0  0  0  0  0  0  0  0  0
   98.2819    8.9367   93.0560 O   0  0  0  0  0  0  0  0  0  0  0  0
   97.4169   10.9491   91.8640 C   0  0  1  0  0  0  0  0  0  0  0  0
   98.6361   11.2209   91.6868 O   0  0  0  0  0  0  0  0  0  0  0  0
   96.6760   11.1257   90.5385 C   0  0  2  0  0  0  0  0  0  0  0  0
   94.6133   15.5714   92.0925 N   0  0  0  0  0  0  0  0  0  0  0  0
   95.8675   15.1158   92.3496 C   0  0  0  0  0  0  0  0  0  0  0  0
   96.2053   13.9359   91.8436 N   0  0  0  0  0  0  0  0  0  0  0  0
   95.3669   13.1372   91.1491 C   0  0  0  0  0  0  0  0  0  0  0  0
   94.0565   13.5758   90.8620 C   0  0  0  0  0  0  0  0  0  0  0  0
   93.7095   14.8588   91.3935 C   0  0  0  0  0  0  0  0  0  0  0  0
   92.3976   15.3726   91.1724 N   0  0  0  0  0  0  0  0  0  0  0  0
   93.5041   12.6490   90.1608 N   0  0  0  0  0  0  0  0  0  0  0  0
   94.3798   11.6774   89.9711 C   0  0  0  0  0  0  0  0  0  0  0  0
   95.4890   11.9357   90.5665 N   0  0  0  0  0  0  0  0  0  0  0  0
  1 24  1  0  0  0  0
  1  4  2  0  0  0  0
  2 13  1  0  0  0  0
  2 21  1  0  0  0  0
  3 16  1  0  0  0  0
  4 18  1  0  0  0  0
  5 19  2  0  0  0  0
  5 16  1  0  0  0  0
  6 16  2  0  0  0  0
  6 17  1  0  0  0  0
  7 17  1  0  0  0  0
 11 25  2  0  0  0  0
 12 26  2  0  0  0  0
 13 25  1  0  0  0  0
 14 23  1  0  0  0  0
 15 26  1  0  0  0  0
 17 18  2  0  0  0  0
 18 19  1  0  0  0  0
 19 24  1  0  0  0  0
 20 10  1  1  0  0  0
 20 22  1  0  0  0  0
 20 23  1  0  0  0  0
 21 14  1  1  0  0  0
 21 22  1  0  0  0  0
 22 15  1  6  0  0  0
 23 24  1  6  0  0  0
 25  8  1  1  0  0  0
 25 32  1  0  0  0  0
 26  9  1  6  0  0  0
 26 28  1  0  0  0  0
 27 28  1  0  0  0  0
 29 27  1  1  0  0  0
 29 30  1  0  0  0  0
 29 31  1  0  0  0  0
 30 35  1  0  0  0  0
 31 33  1  0  0  0  0
 31 32  1  1  0  0  0
 33 34  1  6  0  0  0
 33 35  1  0  0  0  0
 35 45  1  1  0  0  0
 36 41  2  0  0  0  0
 36 37  1  0  0  0  0
 37 38  2  0  0  0  0
 38 39  1  0  0  0  0
 39 40  2  0  0  0  0
 39 45  1  0  0  0  0
 40 41  1  0  0  0  0
 40 43  1  0  0  0  0
 41 42  1  0  0  0  0
 43 44  2  0  0  0  0
 44 45  1  0  0  0  0
M  CHG  4   8  -1   9  -1  11  -1  12  -1
M  END
>  <CHROM.1>
158.51119433,172.57621557,95.31211319,9.73809010,93.75934119,2.52532868,-1.51546636
-3.08612223

>  <Name>
ligand

>  <RI>
0

>  <Rbt.Current_Directory>
/home/itssahil/PROJECTS/Mol_Feturizer/New_Systems/rnas/4YAZ

>  <Rbt.Executable>
rbdock ($Id: //depot/dev/client3/rdock/2013.1/src/exe/rbdock.cxx#4 $)

>  <Rbt.Library>
libRbt.so (2013.1, Build901 2013/11/27)

>  <Rbt.Parameter_File>
/export/apps/rDock/src/rDock_2013.1_src/data/scripts/dock_solv.prm

>  <Rbt.Receptor>
prm/pocket_docking_8.prm

>  <SCORE>
-14.838

>  <SCORE.INTER>
-14.7367

>  <SCORE.INTER.CONST>
1

>  <SCORE.INTER.POLAR>
0

>  <SCORE.INTER.ROT>
2

>  <SCORE.INTER.SOLV>
17.8937

>  <SCORE.INTER.VDW>
-20.7224

>  <SCORE.INTER.norm>
-0.327483

>  <SCORE.INTRA>
-0.101307

>  <SCORE.INTRA.DIHEDRAL>
-0.0524392

>  <SCORE.INTRA.DIHEDRAL.0>
2.39103

>  <SCORE.INTRA.POLAR>
0

>  <SCORE.INTRA.POLAR.0>
0

>  <SCORE.INTRA.REPUL>
0

>  <SCORE.INTRA.REPUL.0>
0

>  <SCORE.INTRA.SOLV>
0.0512511

>  <SCORE.INTRA.SOLV.lig_0>
-163.975

>  <SCORE.INTRA.VDW>
-0.100713

>  <SCORE.INTRA.VDW.0>
-1.49176

>  <SCORE.INTRA.norm>
-0.00225126

>  <SCORE.RESTR>
0

>  <SCORE.RESTR.CAVITY>
0

>  <SCORE.RESTR.norm>
0

>  <SCORE.SYSTEM>
0

>  <SCORE.SYSTEM.CONST>
0

>  <SCORE.SYSTEM.DIHEDRAL>
0

>  <SCORE.SYSTEM.SOLV>
0

>  <SCORE.SYSTEM.norm>
0

>  <SCORE.heavy>
45

>  <SCORE.norm>
-0.329734

>  <RMSD>
8.675

$$$$
ligand
 OpenBabel11021811513D
libRbt.so/2013.1/901 2013/11/27
 45 51  0  0  0  0  0  0  0  0999 V2000
   90.7546   13.3142   91.3240 C   0  0  0  0  0  0  0  0  0  0  0  0
   89.8792   12.6223   95.1312 C   0  0  0  0  0  0  0  0  0  0  0  0
   93.3514   10.0836   87.4224 N   0  0  0  0  0  0  0  0  0  0  0  0
   91.3006   14.0496   90.4105 N   0  0  0  0  0  0  0  0  0  0  0  0
   92.1842   10.9190   89.2652 N   0  0  0  0  0  0  0  0  0  0  0  0
   93.0933   12.3896   87.7074 N   0  0  0  0  0  0  0  0  0  0  0  0
   92.7944   14.7631   87.9344 O   0  0  0  0  0  0  0  0  0  0  0  0
   88.8198   15.4722   95.7084 O   0  5  0  0  0  0  0  0  0  0  0  0
   93.7156    9.6791   96.4608 O   0  5  0  0  0  0  0  0  0  0  0  0
   91.5569    9.2077   92.8891 O   0  0  0  0  0  0  0  0  0  0  0  0
   90.5386   16.1938   94.4926 O   0  5  0  0  0  0  0  0  0  0  0  0
   94.2382   10.2108   94.3536 O   0  5  0  0  0  0  0  0  0  0  0  0
   89.8362   13.7902   94.4138 O   0  0  0  0  0  0  0  0  0  0  0  0
   89.4736   11.5094   92.8756 O   0  0  0  0  0  0  0  0  0  0  0  0
   91.8428   10.4161   95.2019 O   0  0  0  0  0  0  0  0  0  0  0  0
   92.8584   11.1900   88.1783 C   0  0  0  0  0  0  0  0  0  0  0  0
   92.6192   13.4457   88.3543 C   0  0  0  0  0  0  0  0  0  0  0  0
   91.8965   13.2340   89.5501 C   0  0  0  0  0  0  0  0  0  0  0  0
   91.6796   11.9491   89.9832 C   0  0  0  0  0  0  0  0  0  0  0  0
   91.5022   10.5718   92.6984 C   0  0  2  0  0  0  0  0  0  0  0  0
   90.1139   11.4450   94.2729 C   0  0  1  0  0  0  0  0  0  0  0  0
   91.3403   11.2439   94.1596 C   0  0  1  0  0  0  0  0  0  0  0  0
   90.5286   11.0160   91.9255 C   0  0  2  0  0  0  0  0  0  0  0  0
   90.9719   12.0698   91.1071 N   0  0  0  0  0  0  0  0  0  0  0  0
   90.0897   15.0803   95.2526 P   0  0  2  0  0  0  0  0  0  0  0  0
   93.3588   10.5678   95.4399 P   0  0  1  0  0  0  0  0  0  0  0  0
   92.8142   12.5494   97.0519 C   0  0  0  0  0  0  0  0  0  0  0  0
   93.6402   11.9935   96.0163 O   0  0  0  0  0  0  0  0  0  0  0  0
   92.9280   14.0058   97.2203 C   0  0  1  0  0  0  0  0  0  0  0  0
   94.4851   14.3949   97.1372 O   0  0  0  0  0  0  0  0  0  0  0  0
   92.3808   14.5956   96.2546 C   0  0  1  0  0  0  0  0  0  0  0  0
   90.9717   14.8284   96.4824 O   0  0  0  0  0  0  0  0  0  0  0  0
   93.2054   15.8619   96.0810 C   0  0  1  0  0  0  0  0  0  0  0  0
   92.8006   16.7575   96.8722 O   0  0  0  0  0  0  0  0  0  0  0  0
   94.6214   15.4517   96.4857 C   0  0  2  0  0  0  0  0  0  0  0  0
   99.6289   15.8676   95.3965 N   0  0  0  0  0  0  0  0  0  0  0  0
   99.0397   16.0148   96.6122 C   0  0  0  0  0  0  0  0  0  0  0  0
   97.7232   15.8571   96.6770 N   0  0  0  0  0  0  0  0  0  0  0  0
   96.9309   15.6249   95.6086 C   0  0  0  0  0  0  0  0  0  0  0  0
   97.5060   15.4657   94.3296 C   0  0  0  0  0  0  0  0  0  0  0  0
   98.9285   15.6160   94.2743 C   0  0  0  0  0  0  0  0  0  0  0  0
   99.5933   15.4945   93.0185 N   0  0  0  0  0  0  0  0  0  0  0  0
   96.5379   15.2141   93.5200 N   0  0  0  0  0  0  0  0  0  0  0  0
   95.4069   15.1823   94.2033 C   0  0  0  0  0  0  0  0  0  0  0  0
   95.6125   15.4437   95.4447 N   0  0  0  0  0  0  0  0  0  0  0  0
  1 24  1  0  0  0  0
  1  4  2  0  0  0  0
  2 13  1  0  0  0  0
  2 21  1  0  0  0  0
  3 16  1  0  0  0  0
  4 18  1  0  0  0  0
  5 19  2  0  0  0  0
  5 16  1  0  0  0  0
  6 16  2  0  0  0  0
  6 17  1  0  0  0  0
  7 17  1  0  0  0  0
 11 25  2  0  0  0  0
 12 26  2  0  0  0  0
 13 25  1  0  0  0  0
 14 23  1  0  0  0  0
 15 26  1  0  0  0  0
 17 18  2  0  0  0  0
 18 19  1  0  0  0  0
 19 24  1  0  0  0  0
 20 10  1  1  0  0  0
 20 22  1  0  0  0  0
 20 23  1  0  0  0  0
 21 14  1  6  0  0  0
 21 22  1  0  0  0  0
 22 15  1  1  0  0  0
 23 24  1  6  0  0  0
 25  8  1  1  0  0  0
 25 32  1  0  0  0  0
 26  9  1  1  0  0  0
 26 28  1  0  0  0  0
 27 28  1  0  0  0  0
 29 27  1  6  0  0  0
 29 30  1  0  0  0  0
 29 31  1  0  0  0  0
 30 35  1  0  0  0  0
 31 33  1  0  0  0  0
 31 32  1  1  0  0  0
 33 34  1  1  0  0  0
 33 35  1  0  0  0  0
 35 45  1  6  0  0  0
 36 41  2  0  0  0  0
 36 37  1  0  0  0  0
 37 38  2  0  0  0  0
 38 39  1  0  0  0  0
 39 40  2  0  0  0  0
 39 45  1  0  0  0  0
 40 41  1  0  0  0  0
 40 43  1  0  0  0  0
 41 42  1  0  0  0  0
 43 44  2  0  0  0  0
 44 45  1  0  0  0  0
M  CHG  4   8  -1   9  -1  11  -1  12  -1
M  END
>  <CHROM.1>
14.86109194,-81.56211736,93.06292257,13.33140036,93.82509361,-2.27736729
0.36401310,1.27026906

>  <Name>
ligand

>  <RI>
0

>  <Rbt.Current_Directory>
/home/itssahil/PROJECTS/Mol_Feturizer/New_Systems/rnas/4YAZ

>  <Rbt.Executable>
rbdock ($Id: //depot/dev/client3/rdock/2013.1/src/exe/rbdock.cxx#4 $)

>  <Rbt.Library>
libRbt.so (2013.1, Build901 2013/11/27)

>  <Rbt.Parameter_File>
/export/apps/rDock/src/rDock_2013.1_src/data/scripts/dock_solv.prm

>  <Rbt.Receptor>
prm/pocket_docking_8.prm

>  <SCORE>
-8.14712

>  <SCORE.INTER>
-7.77186

>  <SCORE.INTER.CONST>
1

>  <SCORE.INTER.POLAR>
0

>  <SCORE.INTER.ROT>
2

>  <SCORE.INTER.SOLV>
22.4488

>  <SCORE.INTER.VDW>
-17.5975

>  <SCORE.INTER.norm>
-0.172708

>  <SCORE.INTRA>
-0.382642

>  <SCORE.INTRA.DIHEDRAL>
-0.116819

>  <SCORE.INTRA.DIHEDRAL.0>
2.39103

>  <SCORE.INTRA.POLAR>
0

>  <SCORE.INTRA.POLAR.0>
0

>  <SCORE.INTRA.REPUL>
0

>  <SCORE.INTRA.REPUL.0>
0

>  <SCORE.INTRA.SOLV>
-0.0393363

>  <SCORE.INTRA.SOLV.lig_0>
-163.975

>  <SCORE.INTRA.VDW>
-0.304565

>  <SCORE.INTRA.VDW.0>
-1.49176

>  <SCORE.INTRA.norm>
-0.00850316

>  <SCORE.RESTR>
0.00738449

>  <SCORE.RESTR.CAVITY>
0.00738449

>  <SCORE.RESTR.norm>
0.0001641

>  <SCORE.SYSTEM>
0

>  <SCORE.SYSTEM.CONST>
0

>  <SCORE.SYSTEM.DIHEDRAL>
0

>  <SCORE.SYSTEM.SOLV>
0

>  <SCORE.SYSTEM.norm>
0

>  <SCORE.heavy>
45

>  <SCORE.norm>
-0.181047

>  <RMSD>
8.703

$$$$
ligand
 OpenBabel11021811523D
libRbt.so/2013.1/901 2013/11/27
 45 51  0  0  0  0  0  0  0  0999 V2000
   92.7596    9.2503   96.0756 C   0  0  0  0  0  0  0  0  0  0  0  0
   93.4141   13.0706   96.7139 C   0  0  0  0  0  0  0  0  0  0  0  0
   95.8958    4.5235   96.5496 N   0  0  0  0  0  0  0  0  0  0  0  0
   92.2054    8.2678   95.4426 N   0  0  0  0  0  0  0  0  0  0  0  0
   95.0259    6.6893   96.6451 N   0  0  0  0  0  0  0  0  0  0  0  0
   93.8874    5.0357   95.4681 N   0  0  0  0  0  0  0  0  0  0  0  0
   91.7893    5.5101   94.3970 O   0  0  0  0  0  0  0  0  0  0  0  0
   90.4862   13.9730   96.2776 O   0  5  0  0  0  0  0  0  0  0  0  0
   97.8727   13.4988   94.4587 O   0  5  0  0  0  0  0  0  0  0  0  0
   96.9016   10.3910   97.1118 O   0  0  0  0  0  0  0  0  0  0  0  0
   90.4329   12.4841   94.6242 O   0  5  0  0  0  0  0  0  0  0  0  0
   97.3564   11.3575   94.0787 O   0  5  0  0  0  0  0  0  0  0  0  0
   92.2622   12.4301   96.3352 O   0  0  0  0  0  0  0  0  0  0  0  0
   93.9433   10.8858   97.9128 O   0  0  0  0  0  0  0  0  0  0  0  0
   96.2427   12.6593   95.9666 O   0  0  0  0  0  0  0  0  0  0  0  0
   94.8879    5.4701   96.1935 C   0  0  0  0  0  0  0  0  0  0  0  0
   92.9071    5.8695   95.1477 C   0  0  0  0  0  0  0  0  0  0  0  0
   92.9954    7.2110   95.5830 C   0  0  0  0  0  0  0  0  0  0  0  0
   94.0683    7.5980   96.3477 C   0  0  0  0  0  0  0  0  0  0  0  0
   95.6369   10.2782   96.5754 C   0  0  2  0  0  0  0  0  0  0  0  0
   94.4566   12.1293   97.1666 C   0  0  1  0  0  0  0  0  0  0  0  0
   95.1534   11.7730   96.1945 C   0  0  1  0  0  0  0  0  0  0  0  0
   94.7198    9.7286   97.3498 C   0  0  2  0  0  0  0  0  0  0  0  0
   93.8677    8.8902   96.6096 N   0  0  0  0  0  0  0  0  0  0  0  0
   91.3284   13.2636   95.4050 P   0  0  2  0  0  0  0  0  0  0  0  0
   96.7951   12.6081   94.5278 P   0  0  1  0  0  0  0  0  0  0  0  0
   94.9969   14.3853   93.8721 C   0  0  0  0  0  0  0  0  0  0  0  0
   95.7189   13.1853   93.5518 O   0  0  0  0  0  0  0  0  0  0  0  0
   93.7685   14.5963   93.0917 C   0  0  1  0  0  0  0  0  0  0  0  0
   94.0861   14.2334   91.5586 O   0  0  0  0  0  0  0  0  0  0  0  0
   92.8821   13.7825   93.4544 C   0  0  1  0  0  0  0  0  0  0  0  0
   92.0924   14.2877   94.5557 O   0  0  0  0  0  0  0  0  0  0  0  0
   92.0879   13.5126   92.1854 C   0  0  1  0  0  0  0  0  0  0  0  0
   91.2145   14.4077   92.0193 O   0  0  0  0  0  0  0  0  0  0  0  0
   93.1196   13.6177   91.0621 C   0  0  2  0  0  0  0  0  0  0  0  0
   96.7398   10.1295   89.9850 N   0  0  0  0  0  0  0  0  0  0  0  0
   96.8894   11.2682   90.7116 C   0  0  0  0  0  0  0  0  0  0  0  0
   95.8168   12.0324   90.8787 N   0  0  0  0  0  0  0  0  0  0  0  0
   94.6115   11.7845   90.3229 C   0  0  0  0  0  0  0  0  0  0  0  0
   94.4171   10.6119   89.5619 C   0  0  0  0  0  0  0  0  0  0  0  0
   95.5743    9.7838   89.4060 C   0  0  0  0  0  0  0  0  0  0  0  0
   95.4769    8.5894   88.6328 N   0  0  0  0  0  0  0  0  0  0  0  0
   93.1828   10.6101   89.1981 N   0  0  0  0  0  0  0  0  0  0  0  0
   92.5896   11.6817   89.6948 C   0  0  0  0  0  0  0  0  0  0  0  0
   93.4238   12.4063   90.3509 N   0  0  0  0  0  0  0  0  0  0  0  0
  1 24  1  0  0  0  0
  1  4  2  0  0  0  0
  2 13  1  0  0  0  0
  2 21  1  0  0  0  0
  3 16  1  0  0  0  0
  4 18  1  0  0  0  0
  5 19  2  0  0  0  0
  5 16  1  0  0  0  0
  6 16  2  0  0  0  0
  6 17  1  0  0  0  0
  7 17  1  0  0  0  0
 11 25  2  0  0  0  0
 12 26  2  0  0  0  0
 13 25  1  0  0  0  0
 14 23  1  0  0  0  0
 15 26  1  0  0  0  0
 17 18  2  0  0  0  0
 18 19  1  0  0  0  0
 19 24  1  0  0  0  0
 20 10  1  1  0  0  0
 20 22  1  0  0  0  0
 20 23  1  0  0  0  0
 21 14  1  6  0  0  0
 21 22  1  0  0  0  0
 22 15  1  1  0  0  0
 23 24  1  6  0  0  0
 25  8  1  1  0  0  0
 25 32  1  0  0  0  0
 26  9  1  6  0  0  0
 26 28  1  0  0  0  0
 27 28  1  0  0  0  0
 29 27  1  1  0  0  0
 29 30  1  0  0  0  0
 29 31  1  0  0  0  0
 30 35  1  0  0  0  0
 31 33  1  0  0  0  0
 31 32  1  1  0  0  0
 33 34  1  6  0  0  0
 33 35  1  0  0  0  0
 35 45  1  1  0  0  0
 36 41  2  0  0  0  0
 36 37  1  0  0  0  0
 37 38  2  0  0  0  0
 38 39  1  0  0  0  0
 39 40  2  0  0  0  0
 39 45  1  0  0  0  0
 40 41  1  0  0  0  0
 40 43  1  0  0  0  0
 41 42  1  0  0  0  0
 43 44  2  0  0  0  0
 44 45  1  0  0  0  0
M  CHG  4   8  -1   9  -1  11  -1  12  -1
M  END
>  <CHROM.1>
23.45277318,9.56304240,94.11997789,11.07908017,94.09184945,1.36981965,-1.25115539
2.34186763

>  <Name>
ligand

>  <RI>
0

>  <Rbt.Current_Directory>
/home/itssahil/PROJECTS/Mol_Feturizer/New_Systems/rnas/4YAZ

>  <Rbt.Executable>
rbdock ($Id: //depot/dev/client3/rdock/2013.1/src/exe/rbdock.cxx#4 $)

>  <Rbt.Library>
libRbt.so (2013.1, Build901 2013/11/27)

>  <Rbt.Parameter_File>
/export/apps/rDock/src/rDock_2013.1_src/data/scripts/dock_solv.prm

>  <Rbt.Receptor>
prm/pocket_docking_8.prm

>  <SCORE>
-17.1245

>  <SCORE.INTER>
-16.1002

>  <SCORE.INTER.CONST>
1

>  <SCORE.INTER.POLAR>
0

>  <SCORE.INTER.ROT>
2

>  <SCORE.INTER.SOLV>
12.9006

>  <SCORE.INTER.VDW>
-19.967

>  <SCORE.INTER.norm>
-0.357781

>  <SCORE.INTRA>
-1.02438

>  <SCORE.INTRA.DIHEDRAL>
-0.0370107

>  <SCORE.INTRA.DIHEDRAL.0>
2.39103

>  <SCORE.INTRA.POLAR>
0

>  <SCORE.INTRA.POLAR.0>
0

>  <SCORE.INTRA.REPUL>
0

>  <SCORE.INTRA.REPUL.0>
0

>  <SCORE.INTRA.SOLV>
0.797124

>  <SCORE.INTRA.SOLV.lig_0>
-163.975

>  <SCORE.INTRA.VDW>
-1.40443

>  <SCORE.INTRA.VDW.0>
-1.49176

>  <SCORE.INTRA.norm>
-0.0227639

>  <SCORE.RESTR>
0

>  <SCORE.RESTR.CAVITY>
0

>  <SCORE.RESTR.norm>
0

>  <SCORE.SYSTEM>
0

>  <SCORE.SYSTEM.CONST>
0

>  <SCORE.SYSTEM.DIHEDRAL>
0

>  <SCORE.SYSTEM.SOLV>
0

>  <SCORE.SYSTEM.norm>
0

>  <SCORE.heavy>
45

>  <SCORE.norm>
-0.380545

>  <RMSD>
8.708

$$$$
ligand
 OpenBabel11021811523D
libRbt.so/2013.1/901 2013/11/27
 45 51  0  0  0  0  0  0  0  0999 V2000
   92.8766    9.4247   95.9026 C   0  0  0  0  0  0  0  0  0  0  0  0
   93.7320   13.1796   96.6143 C   0  0  0  0  0  0  0  0  0  0  0  0
   95.5229    4.4381   96.6335 N   0  0  0  0  0  0  0  0  0  0  0  0
   92.2411    8.4758   95.2953 N   0  0  0  0  0  0  0  0  0  0  0  0
   94.8685    6.6804   96.6244 N   0  0  0  0  0  0  0  0  0  0  0  0
   93.5963    5.0989   95.4860 N   0  0  0  0  0  0  0  0  0  0  0  0
   91.5765    5.7312   94.3481 O   0  0  0  0  0  0  0  0  0  0  0  0
   90.8547   14.2576   96.2452 O   0  5  0  0  0  0  0  0  0  0  0  0
   98.1606   13.3577   94.2683 O   0  5  0  0  0  0  0  0  0  0  0  0
   97.0610   10.2945   96.9231 O   0  0  0  0  0  0  0  0  0  0  0  0
   90.6785   12.7863   94.5846 O   0  5  0  0  0  0  0  0  0  0  0  0
   97.5098   11.2536   93.8868 O   0  5  0  0  0  0  0  0  0  0  0  0
   92.5364   12.6114   96.2563 O   0  0  0  0  0  0  0  0  0  0  0  0
   94.1546   10.9588   97.7891 O   0  0  0  0  0  0  0  0  0  0  0  0
   96.5149   12.6061   95.8052 O   0  0  0  0  0  0  0  0  0  0  0  0
   94.6202    5.4631   96.2173 C   0  0  0  0  0  0  0  0  0  0  0  0
   92.7092    6.0104   95.1104 C   0  0  0  0  0  0  0  0  0  0  0  0
   92.9204    7.3537   95.4952 C   0  0  0  0  0  0  0  0  0  0  0  0
   94.0109    7.6653   96.2694 C   0  0  0  0  0  0  0  0  0  0  0  0
   95.7810   10.2609   96.4128 C   0  0  2  0  0  0  0  0  0  0  0  0
   94.7257   12.1748   97.0395 C   0  0  1  0  0  0  0  0  0  0  0  0
   95.3797   11.7845   96.0509 C   0  0  1  0  0  0  0  0  0  0  0  0
   94.8490    9.7614   97.2031 C   0  0  2  0  0  0  0  0  0  0  0  0
   93.9333    8.9804   96.4762 N   0  0  0  0  0  0  0  0  0  0  0  0
   91.6349   13.5056   95.3508 P   0  0  2  0  0  0  0  0  0  0  0  0
   97.0335   12.5322   94.3549 P   0  0  1  0  0  0  0  0  0  0  0  0
   95.3312   14.4179   93.7476 C   0  0  0  0  0  0  0  0  0  0  0  0
   95.9737   13.1794   93.4052 O   0  0  0  0  0  0  0  0  0  0  0  0
   94.1018   14.7071   92.9945 C   0  0  1  0  0  0  0  0  0  0  0  0
   94.3654   14.3368   91.4530 O   0  0  0  0  0  0  0  0  0  0  0  0
   93.1761   13.9449   93.3711 C   0  0  1  0  0  0  0  0  0  0  0  0
   92.4408   14.4884   94.4916 O   0  0  0  0  0  0  0  0  0  0  0  0
   92.3412   13.7318   92.1175 C   0  0  1  0  0  0  0  0  0  0  0  0
   91.5194   14.6784   91.9751 O   0  0  0  0  0  0  0  0  0  0  0  0
   93.3538   13.7833   90.9733 C   0  0  2  0  0  0  0  0  0  0  0  0
   96.7029   10.0372   89.8849 N   0  0  0  0  0  0  0  0  0  0  0  0
   96.9327   11.1514   90.6283 C   0  0  0  0  0  0  0  0  0  0  0  0
   95.9211   11.9948   90.7951 N   0  0  0  0  0  0  0  0  0  0  0  0
   94.7064   11.8488   90.2242 C   0  0  0  0  0  0  0  0  0  0  0  0
   94.4296   10.7048   89.4454 C   0  0  0  0  0  0  0  0  0  0  0  0
   95.5204    9.7909   89.2898 C   0  0  0  0  0  0  0  0  0  0  0  0
   95.3387    8.6177   88.4996 N   0  0  0  0  0  0  0  0  0  0  0  0
   93.2029   10.8039   89.0695 N   0  0  0  0  0  0  0  0  0  0  0  0
   92.6896   11.9121   89.5747 C   0  0  0  0  0  0  0  0  0  0  0  0
   93.5705   12.5610   90.2488 N   0  0  0  0  0  0  0  0  0  0  0  0
  1 24  1  0  0  0  0
  1  4  2  0  0  0  0
  2 13  1  0  0  0  0
  2 21  1  0  0  0  0
  3 16  1  0  0  0  0
  4 18  1  0  0  0  0
  5 19  2  0  0  0  0
  5 16  1  0  0  0  0
  6 16  2  0  0  0  0
  6 17  1  0  0  0  0
  7 17  1  0  0  0  0
 11 25  2  0  0  0  0
 12 26  2  0  0  0  0
 13 25  1  0  0  0  0
 14 23  1  0  0  0  0
 15 26  1  0  0  0  0
 17 18  2  0  0  0  0
 18 19  1  0  0  0  0
 19 24  1  0  0  0  0
 20 10  1  1  0  0  0
 20 22  1  0  0  0  0
 20 23  1  0  0  0  0
 21 14  1  6  0  0  0
 21 22  1  0  0  0  0
 22 15  1  1  0  0  0
 23 24  1  6  0  0  0
 25  8  1  1  0  0  0
 25 32  1  0  0  0  0
 26  9  1  6  0  0  0
 26 28  1  0  0  0  0
 27 28  1  0  0  0  0
 29 27  1  1  0  0  0
 29 30  1  0  0  0  0
 29 31  1  0  0  0  0
 30 35  1  0  0  0  0
 31 33  1  0  0  0  0
 31 32  1  1  0  0  0
 33 34  1  6  0  0  0
 33 35  1  0  0  0  0
 35 45  1  1  0  0  0
 36 41  2  0  0  0  0
 36 37  1  0  0  0  0
 37 38  2  0  0  0  0
 38 39  1  0  0  0  0
 39 40  2  0  0  0  0
 39 45  1  0  0  0  0
 40 41  1  0  0  0  0
 40 43  1  0  0  0  0
 41 42  1  0  0  0  0
 43 44  2  0  0  0  0
 44 45  1  0  0  0  0
M  CHG  4   8  -1   9  -1  11  -1  12  -1
M  END
>  <CHROM.1>
27.68068671,11.68008634,94.24913511,11.15939198,93.99234446,1.50904706,-1.31831842
2.47239074

>  <Name>
ligand

>  <RI>
0

>  <Rbt.Current_Directory>
/home/itssahil/PROJECTS/Mol_Feturizer/New_Systems/rnas/4YAZ

>  <Rbt.Executable>
rbdock ($Id: //depot/dev/client3/rdock/2013.1/src/exe/rbdock.cxx#4 $)

>  <Rbt.Library>
libRbt.so (2013.1, Build901 2013/11/27)

>  <Rbt.Parameter_File>
/export/apps/rDock/src/rDock_2013.1_src/data/scripts/dock_solv.prm

>  <Rbt.Receptor>
prm/pocket_docking_8.prm

>  <SCORE>
-16.9253

>  <SCORE.INTER>
-15.8741

>  <SCORE.INTER.CONST>
1

>  <SCORE.INTER.POLAR>
0

>  <SCORE.INTER.ROT>
2

>  <SCORE.INTER.SOLV>
12.8644

>  <SCORE.INTER.VDW>
-19.8042

>  <SCORE.INTER.norm>
-0.352758

>  <SCORE.INTRA>
-1.05124

>  <SCORE.INTRA.DIHEDRAL>
-0.0504569

>  <SCORE.INTRA.DIHEDRAL.0>
2.39103

>  <SCORE.INTRA.POLAR>
0

>  <SCORE.INTRA.POLAR.0>
0

>  <SCORE.INTRA.REPUL>
0

>  <SCORE.INTRA.REPUL.0>
0

>  <SCORE.INTRA.SOLV>
0.910277

>  <SCORE.INTRA.SOLV.lig_0>
-163.975

>  <SCORE.INTRA.VDW>
-1.48115

>  <SCORE.INTRA.VDW.0>
-1.49176

>  <SCORE.INTRA.norm>
-0.0233608

>  <SCORE.RESTR>
0

>  <SCORE.RESTR.CAVITY>
0

>  <SCORE.RESTR.norm>
0

>  <SCORE.SYSTEM>
0

>  <SCORE.SYSTEM.CONST>
0

>  <SCORE.SYSTEM.DIHEDRAL>
0

>  <SCORE.SYSTEM.SOLV>
0

>  <SCORE.SYSTEM.norm>
0

>  <SCORE.heavy>
45

>  <SCORE.norm>
-0.376119

>  <RMSD>
8.721

$$$$
ligand
 OpenBabel11021811513D
libRbt.so/2013.1/901 2013/11/27
 45 51  0  0  0  0  0  0  0  0999 V2000
   92.6912    9.2216   96.1061 C   0  0  0  0  0  0  0  0  0  0  0  0
   93.3589   13.0679   96.6431 C   0  0  0  0  0  0  0  0  0  0  0  0
   95.9877    4.5907   96.4070 N   0  0  0  0  0  0  0  0  0  0  0  0
   92.1521    8.2338   95.4683 N   0  0  0  0  0  0  0  0  0  0  0  0
   95.0520    6.7250   96.5671 N   0  0  0  0  0  0  0  0  0  0  0  0
   93.9364    5.0578   95.3875 N   0  0  0  0  0  0  0  0  0  0  0  0
   91.7968    5.4841   94.3800 O   0  0  0  0  0  0  0  0  0  0  0  0
   90.4323   13.9560   96.1704 O   0  5  0  0  0  0  0  0  0  0  0  0
   97.8342   13.4743   94.4172 O   0  5  0  0  0  0  0  0  0  0  0  0
   96.8498   10.4037   97.1083 O   0  0  0  0  0  0  0  0  0  0  0  0
   90.3959   12.4427   94.5388 O   0  5  0  0  0  0  0  0  0  0  0  0
   97.3264   11.3263   94.0649 O   0  5  0  0  0  0  0  0  0  0  0  0
   92.2117   12.4188   96.2649 O   0  0  0  0  0  0  0  0  0  0  0  0
   93.8840   10.9025   97.8785 O   0  0  0  0  0  0  0  0  0  0  0  0
   96.1943   12.6530   95.9244 O   0  0  0  0  0  0  0  0  0  0  0  0
   94.9412    5.5107   96.0954 C   0  0  0  0  0  0  0  0  0  0  0  0
   92.9219    5.8653   95.1088 C   0  0  0  0  0  0  0  0  0  0  0  0
   92.9788    7.2006   95.5678 C   0  0  0  0  0  0  0  0  0  0  0  0
   94.0585    7.6078   96.3122 C   0  0  0  0  0  0  0  0  0  0  0  0
   95.5897   10.2796   96.5637 C   0  0  2  0  0  0  0  0  0  0  0  0
   94.4002   12.1361   97.1179 C   0  0  1  0  0  0  0  0  0  0  0  0
   95.1055   11.7673   96.1568 C   0  0  1  0  0  0  0  0  0  0  0  0
   94.6679    9.7391   97.3388 C   0  0  2  0  0  0  0  0  0  0  0  0
   93.8238    8.8876   96.6044 N   0  0  0  0  0  0  0  0  0  0  0  0
   91.2832   13.2360   95.3150 P   0  0  2  0  0  0  0  0  0  0  0  0
   96.7583   12.5819   94.4910 P   0  0  1  0  0  0  0  0  0  0  0  0
   94.9609   14.3445   93.7948 C   0  0  0  0  0  0  0  0  0  0  0  0
   95.6885   13.1419   93.4981 O   0  0  0  0  0  0  0  0  0  0  0  0
   93.7383   14.5408   93.0016 C   0  0  1  0  0  0  0  0  0  0  0  0
   94.0690   14.1560   91.4767 O   0  0  0  0  0  0  0  0  0  0  0  0
   92.8510   13.7301   93.3694 C   0  0  1  0  0  0  0  0  0  0  0  0
   92.0513   14.2494   94.4567 O   0  0  0  0  0  0  0  0  0  0  0  0
   92.0677   13.4393   92.0982 C   0  0  1  0  0  0  0  0  0  0  0  0
   91.1933   14.3296   91.9120 O   0  0  0  0  0  0  0  0  0  0  0  0
   93.1080   13.5306   90.9817 C   0  0  2  0  0  0  0  0  0  0  0  0
   96.7752   10.0945   89.8957 N   0  0  0  0  0  0  0  0  0  0  0  0
   96.9177   11.2526   90.5924 C   0  0  0  0  0  0  0  0  0  0  0  0
   95.8333   11.9980   90.7683 N   0  0  0  0  0  0  0  0  0  0  0  0
   94.6206   11.7122   90.2480 C   0  0  0  0  0  0  0  0  0  0  0  0
   94.4332   10.5184   89.5188 C   0  0  0  0  0  0  0  0  0  0  0  0
   95.6038    9.7112   89.3535 C   0  0  0  0  0  0  0  0  0  0  0  0
   95.5134    8.4974   88.6102 N   0  0  0  0  0  0  0  0  0  0  0  0
   93.1908   10.4824   89.1855 N   0  0  0  0  0  0  0  0  0  0  0  0
   92.5869   11.5527   89.6721 C   0  0  0  0  0  0  0  0  0  0  0  0
   93.4209   12.3095   90.2910 N   0  0  0  0  0  0  0  0  0  0  0  0
  1 24  1  0  0  0  0
  1  4  2  0  0  0  0
  2 13  1  0  0  0  0
  2 21  1  0  0  0  0
  3 16  1  0  0  0  0
  4 18  1  0  0  0  0
  5 19  2  0  0  0  0
  5 16  1  0  0  0  0
  6 16  2  0  0  0  0
  6 17  1  0  0  0  0
  7 17  1  0  0  0  0
 11 25  2  0  0  0  0
 12 26  2  0  0  0  0
 13 25  1  0  0  0  0
 14 23  1  0  0  0  0
 15 26  1  0  0  0  0
 17 18  2  0  0  0  0
 18 19  1  0  0  0  0
 19 24  1  0  0  0  0
 20 10  1  1  0  0  0
 20 22  1  0  0  0  0
 20 23  1  0  0  0  0
 21 14  1  6  0  0  0
 21 22  1  0  0  0  0
 22 15  1  1  0  0  0
 23 24  1  6  0  0  0
 25  8  1  1  0  0  0
 25 32  1  0  0  0  0
 26  9  1  6  0  0  0
 26 28  1  0  0  0  0
 27 28  1  0  0  0  0
 29 27  1  1  0  0  0
 29 30  1  0  0  0  0
 29 31  1  0  0  0  0
 30 35  1  0  0  0  0
 31 33  1  0  0  0  0
 31 32  1  1  0  0  0
 33 34  1  6  0  0  0
 33 35  1  0  0  0  0
 35 45  1  1  0  0  0
 36 41  2  0  0  0  0
 36 37  1  0  0  0  0
 37 38  2  0  0  0  0
 38 39  1  0  0  0  0
 39 40  2  0  0  0  0
 39 45  1  0  0  0  0
 40 41  1  0  0  0  0
 40 43  1  0  0  0  0
 41 42  1  0  0  0  0
 43 44  2  0  0  0  0
 44 45  1  0  0  0  0
M  CHG  4   8  -1   9  -1  11  -1  12  -1
M  END
>  <CHROM.1>
20.22492443,7.38227326,94.10142073,11.04869100,94.03492385,1.37034100,-1.23419922
2.33063793

>  <Name>
ligand

>  <RI>
0

>  <Rbt.Current_Directory>
/home/itssahil/PROJECTS/Mol_Feturizer/New_Systems/rnas/4YAZ

>  <Rbt.Executable>
rbdock ($Id: //depot/dev/client3/rdock/2013.1/src/exe/rbdock.cxx#4 $)

>  <Rbt.Library>
libRbt.so (2013.1, Build901 2013/11/27)

>  <Rbt.Parameter_File>
/export/apps/rDock/src/rDock_2013.1_src/data/scripts/dock_solv.prm

>  <Rbt.Receptor>
prm/pocket_docking_7.prm

>  <SCORE>
-17.2028

>  <SCORE.INTER>
-16.2464

>  <SCORE.INTER.CONST>
1

>  <SCORE.INTER.POLAR>
0

>  <SCORE.INTER.ROT>
2

>  <SCORE.INTER.SOLV>
11.5099

>  <SCORE.INTER.VDW>
-19.6009

>  <SCORE.INTER.norm>
-0.361032

>  <SCORE.INTRA>
-0.956397

>  <SCORE.INTRA.DIHEDRAL>
-0.0226031

>  <SCORE.INTRA.DIHEDRAL.0>
2.39103

>  <SCORE.INTRA.POLAR>
0

>  <SCORE.INTRA.POLAR.0>
0

>  <SCORE.INTRA.REPUL>
0

>  <SCORE.INTRA.REPUL.0>
0

>  <SCORE.INTRA.SOLV>
0.672973

>  <SCORE.INTRA.SOLV.lig_0>
-163.975

>  <SCORE.INTRA.VDW>
-1.28158

>  <SCORE.INTRA.VDW.0>
-1.49176

>  <SCORE.INTRA.norm>
-0.0212533

>  <SCORE.RESTR>
0

>  <SCORE.RESTR.CAVITY>
0

>  <SCORE.RESTR.norm>
0

>  <SCORE.SYSTEM>
0

>  <SCORE.SYSTEM.CONST>
0

>  <SCORE.SYSTEM.DIHEDRAL>
0

>  <SCORE.SYSTEM.SOLV>
0

>  <SCORE.SYSTEM.norm>
0

>  <SCORE.heavy>
45

>  <SCORE.norm>
-0.382285

>  <RMSD>
8.730

$$$$
ligand
 OpenBabel11021811523D
libRbt.so/2013.1/901 2013/11/27
 45 51  0  0  0  0  0  0  0  0999 V2000
   92.7468    9.2423   96.0386 C   0  0  0  0  0  0  0  0  0  0  0  0
   93.4002   13.0588   96.6886 C   0  0  0  0  0  0  0  0  0  0  0  0
   95.8512    4.4987   96.5527 N   0  0  0  0  0  0  0  0  0  0  0  0
   92.1897    8.2599   95.4079 N   0  0  0  0  0  0  0  0  0  0  0  0
   94.9943    6.6703   96.6327 N   0  0  0  0  0  0  0  0  0  0  0  0
   93.8514    5.0176   95.4586 N   0  0  0  0  0  0  0  0  0  0  0  0
   91.7616    5.4994   94.3746 O   0  0  0  0  0  0  0  0  0  0  0  0
   90.4726   13.9642   96.2564 O   0  5  0  0  0  0  0  0  0  0  0  0
   97.8568   13.4852   94.4292 O   0  5  0  0  0  0  0  0  0  0  0  0
   96.8857   10.3758   97.0803 O   0  0  0  0  0  0  0  0  0  0  0  0
   90.4162   12.4769   94.6016 O   0  5  0  0  0  0  0  0  0  0  0  0
   97.3382   11.3447   94.0477 O   0  5  0  0  0  0  0  0  0  0  0  0
   92.2474   12.4197   96.3106 O   0  0  0  0  0  0  0  0  0  0  0  0
   93.9287   10.8725   97.8850 O   0  0  0  0  0  0  0  0  0  0  0  0
   96.2276   12.6458   95.9379 O   0  0  0  0  0  0  0  0  0  0  0  0
   94.8510    5.4497   96.1867 C   0  0  0  0  0  0  0  0  0  0  0  0
   92.8779    5.8558   95.1290 C   0  0  0  0  0  0  0  0  0  0  0  0
   92.9724    7.1990   95.5578 C   0  0  0  0  0  0  0  0  0  0  0  0
   94.0438    7.5834   96.3257 C   0  0  0  0  0  0  0  0  0  0  0  0
   95.6203   10.2646   96.5452 C   0  0  2  0  0  0  0  0  0  0  0  0
   94.4424   12.1162   97.1393 C   0  0  1  0  0  0  0  0  0  0  0  0
   95.1378   11.7601   96.1662 C   0  0  1  0  0  0  0  0  0  0  0  0
   94.7036    9.7150   97.3200 C   0  0  2  0  0  0  0  0  0  0  0  0
   93.8500    8.8781   96.5800 N   0  0  0  0  0  0  0  0  0  0  0  0
   91.3133   13.2549   95.3821 P   0  0  2  0  0  0  0  0  0  0  0  0
   96.7785   12.5953   94.4986 P   0  0  1  0  0  0  0  0  0  0  0  0
   94.9811   14.3748   93.8464 C   0  0  0  0  0  0  0  0  0  0  0  0
   95.7018   13.1745   93.5243 O   0  0  0  0  0  0  0  0  0  0  0  0
   93.7521   14.5876   93.0675 C   0  0  1  0  0  0  0  0  0  0  0  0
   94.0678   14.2258   91.5338 O   0  0  0  0  0  0  0  0  0  0  0  0
   92.8653   13.7742   93.4304 C   0  0  1  0  0  0  0  0  0  0  0  0
   92.0772   14.2791   94.5330 O   0  0  0  0  0  0  0  0  0  0  0  0
   92.0696   13.5062   92.1620 C   0  0  1  0  0  0  0  0  0  0  0  0
   91.1968   14.4023   91.9977 O   0  0  0  0  0  0  0  0  0  0  0  0
   93.1002   13.6115   91.0377 C   0  0  2  0  0  0  0  0  0  0  0  0
   96.7144   10.1177   89.9586 N   0  0  0  0  0  0  0  0  0  0  0  0
   96.8656   11.2550   90.6869 C   0  0  0  0  0  0  0  0  0  0  0  0
   95.7944   12.0211   90.8542 N   0  0  0  0  0  0  0  0  0  0  0  0
   94.5891   11.7764   90.2971 C   0  0  0  0  0  0  0  0  0  0  0  0
   94.3930   10.6052   89.5343 C   0  0  0  0  0  0  0  0  0  0  0  0
   95.5487    9.7750   89.3782 C   0  0  0  0  0  0  0  0  0  0  0  0
   95.4495    8.5819   88.6033 N   0  0  0  0  0  0  0  0  0  0  0  0
   93.1590   10.6064   89.1695 N   0  0  0  0  0  0  0  0  0  0  0  0
   92.5675   11.6785   89.6672 C   0  0  0  0  0  0  0  0  0  0  0  0
   93.4026   12.4005   90.3250 N   0  0  0  0  0  0  0  0  0  0  0  0
  1 24  1  0  0  0  0
  1  4  2  0  0  0  0
  2 13  1  0  0  0  0
  2 21  1  0  0  0  0
  3 16  1  0  0  0  0
  4 18  1  0  0  0  0
  5 19  2  0  0  0  0
  5 16  1  0  0  0  0
  6 16  2  0  0  0  0
  6 17  1  0  0  0  0
  7 17  1  0  0  0  0
 11 25  2  0  0  0  0
 12 26  2  0  0  0  0
 13 25  1  0  0  0  0
 14 23  1  0  0  0  0
 15 26  1  0  0  0  0
 17 18  2  0  0  0  0
 18 19  1  0  0  0  0
 19 24  1  0  0  0  0
 20 10  1  1  0  0  0
 20 22  1  0  0  0  0
 20 23  1  0  0  0  0
 21 14  1  6  0  0  0
 21 22  1  0  0  0  0
 22 15  1  1  0  0  0
 23 24  1  6  0  0  0
 25  8  1  1  0  0  0
 25 32  1  0  0  0  0
 26  9  1  6  0  0  0
 26 28  1  0  0  0  0
 27 28  1  0  0  0  0
 29 27  1  1  0  0  0
 29 30  1  0  0  0  0
 29 31  1  0  0  0  0
 30 35  1  0  0  0  0
 31 33  1  0  0  0  0
 31 32  1  1  0  0  0
 33 34  1  6  0  0  0
 33 35  1  0  0  0  0
 35 45  1  1  0  0  0
 36 41  2  0  0  0  0
 36 37  1  0  0  0  0
 37 38  2  0  0  0  0
 38 39  1  0  0  0  0
 39 40  2  0  0  0  0
 39 45  1  0  0  0  0
 40 41  1  0  0  0  0
 40 43  1  0  0  0  0
 41 42  1  0  0  0  0
 43 44  2  0  0  0  0
 44 45  1  0  0  0  0
M  CHG  4   8  -1   9  -1  11  -1  12  -1
M  END
>  <CHROM.1>
24.03252451,9.69018901,94.09985647,11.06808917,94.06704974,1.37465116,-1.25368090
2.34543956

>  <Name>
ligand

>  <RI>
0

>  <Rbt.Current_Directory>
/home/itssahil/PROJECTS/Mol_Feturizer/New_Systems/rnas/4YAZ

>  <Rbt.Executable>
rbdock ($Id: //depot/dev/client3/rdock/2013.1/src/exe/rbdock.cxx#4 $)

>  <Rbt.Library>
libRbt.so (2013.1, Build901 2013/11/27)

>  <Rbt.Parameter_File>
/export/apps/rDock/src/rDock_2013.1_src/data/scripts/dock_solv.prm

>  <Rbt.Receptor>
prm/pocket_docking_8.prm

>  <SCORE>
-17.2525

>  <SCORE.INTER>
-16.224

>  <SCORE.INTER.CONST>
1

>  <SCORE.INTER.POLAR>
0

>  <SCORE.INTER.ROT>
2

>  <SCORE.INTER.SOLV>
12.7881

>  <SCORE.INTER.VDW>
-20.0121

>  <SCORE.INTER.norm>
-0.360534

>  <SCORE.INTRA>
-1.02847

>  <SCORE.INTRA.DIHEDRAL>
-0.0378014

>  <SCORE.INTRA.DIHEDRAL.0>
2.39103

>  <SCORE.INTRA.POLAR>
0

>  <SCORE.INTRA.POLAR.0>
0

>  <SCORE.INTRA.REPUL>
0

>  <SCORE.INTRA.REPUL.0>
0

>  <SCORE.INTRA.SOLV>
0.804077

>  <SCORE.INTRA.SOLV.lig_0>
-163.975

>  <SCORE.INTRA.VDW>
-1.41161

>  <SCORE.INTRA.VDW.0>
-1.49176

>  <SCORE.INTRA.norm>
-0.0228549

>  <SCORE.RESTR>
0

>  <SCORE.RESTR.CAVITY>
0

>  <SCORE.RESTR.norm>
0

>  <SCORE.SYSTEM>
0

>  <SCORE.SYSTEM.CONST>
0

>  <SCORE.SYSTEM.DIHEDRAL>
0

>  <SCORE.SYSTEM.SOLV>
0

>  <SCORE.SYSTEM.norm>
0

>  <SCORE.heavy>
45

>  <SCORE.norm>
-0.383389

>  <RMSD>
8.730

$$$$
ligand
 OpenBabel11021811523D
libRbt.so/2013.1/901 2013/11/27
 45 51  0  0  0  0  0  0  0  0999 V2000
   92.7699    9.3099   95.9528 C   0  0  0  0  0  0  0  0  0  0  0  0
   93.4398   13.1141   96.6105 C   0  0  0  0  0  0  0  0  0  0  0  0
   95.6643    4.4782   96.7776 N   0  0  0  0  0  0  0  0  0  0  0  0
   92.1995    8.3241   95.3396 N   0  0  0  0  0  0  0  0  0  0  0  0
   94.8905    6.6819   96.7374 N   0  0  0  0  0  0  0  0  0  0  0  0
   93.7300    5.0265   95.5847 N   0  0  0  0  0  0  0  0  0  0  0  0
   91.7039    5.5416   94.3997 O   0  0  0  0  0  0  0  0  0  0  0  0
   90.5289   14.0523   96.1372 O   0  5  0  0  0  0  0  0  0  0  0  0
   97.9251   13.4583   94.3942 O   0  5  0  0  0  0  0  0  0  0  0  0
   96.8858   10.3909   97.0684 O   0  0  0  0  0  0  0  0  0  0  0  0
   90.4706   12.5479   94.4981 O   0  5  0  0  0  0  0  0  0  0  0  0
   97.3828   11.3207   94.0305 O   0  5  0  0  0  0  0  0  0  0  0  0
   92.2828   12.4858   96.2271 O   0  0  0  0  0  0  0  0  0  0  0  0
   93.9272   10.9344   97.8360 O   0  0  0  0  0  0  0  0  0  0  0  0
   96.2693   12.6565   95.8946 O   0  0  0  0  0  0  0  0  0  0  0  0
   94.7169    5.4502   96.3346 C   0  0  0  0  0  0  0  0  0  0  0  0
   92.8034    5.8864   95.1836 C   0  0  0  0  0  0  0  0  0  0  0  0
   92.9338    7.2416   95.5624 C   0  0  0  0  0  0  0  0  0  0  0  0
   93.9891    7.6166   96.3569 C   0  0  0  0  0  0  0  0  0  0  0  0
   95.6248   10.2902   96.5210 C   0  0  2  0  0  0  0  0  0  0  0  0
   94.4648   12.1632   97.0825 C   0  0  1  0  0  0  0  0  0  0  0  0
   95.1658   11.7876   96.1208 C   0  0  1  0  0  0  0  0  0  0  0  0
   94.6929    9.7610   97.2919 C   0  0  2  0  0  0  0  0  0  0  0  0
   93.8364    8.9270   96.5519 N   0  0  0  0  0  0  0  0  0  0  0  0
   91.3694   13.3227   95.2798 P   0  0  2  0  0  0  0  0  0  0  0  0
   96.8346   12.5833   94.4618 P   0  0  1  0  0  0  0  0  0  0  0  0
   95.0675   14.3785   93.7713 C   0  0  0  0  0  0  0  0  0  0  0  0
   95.7758   13.1655   93.4698 O   0  0  0  0  0  0  0  0  0  0  0  0
   93.8497   14.5985   92.9770 C   0  0  1  0  0  0  0  0  0  0  0  0
   94.1767   14.2160   91.4507 O   0  0  0  0  0  0  0  0  0  0  0  0
   92.9486   13.8006   93.3392 C   0  0  1  0  0  0  0  0  0  0  0  0
   92.1555   14.3277   94.4278 O   0  0  0  0  0  0  0  0  0  0  0  0
   92.1629   13.5290   92.0653 C   0  0  1  0  0  0  0  0  0  0  0  0
   91.3035   14.4344   91.8820 O   0  0  0  0  0  0  0  0  0  0  0  0
   93.2065   13.6088   90.9510 C   0  0  2  0  0  0  0  0  0  0  0  0
   96.7743   10.0365   89.9795 N   0  0  0  0  0  0  0  0  0  0  0  0
   96.9318   11.1767   90.7020 C   0  0  0  0  0  0  0  0  0  0  0  0
   95.8724   11.9648   90.8396 N   0  0  0  0  0  0  0  0  0  0  0  0
   94.6750   11.7390   90.2580 C   0  0  0  0  0  0  0  0  0  0  0  0
   94.4728   10.5656   89.5002 C   0  0  0  0  0  0  0  0  0  0  0  0
   95.6151    9.7118   89.3763 C   0  0  0  0  0  0  0  0  0  0  0  0
   95.5096    8.5144   88.6087 N   0  0  0  0  0  0  0  0  0  0  0  0
   93.2473   10.5876   89.1084 N   0  0  0  0  0  0  0  0  0  0  0  0
   92.6661   11.6751   89.5844 C   0  0  0  0  0  0  0  0  0  0  0  0
   93.5006   12.3862   90.2548 N   0  0  0  0  0  0  0  0  0  0  0  0
  1 24  1  0  0  0  0
  1  4  2  0  0  0  0
  2 13  1  0  0  0  0
  2 21  1  0  0  0  0
  3 16  1  0  0  0  0
  4 18  1  0  0  0  0
  5 19  2  0  0  0  0
  5 16  1  0  0  0  0
  6 16  2  0  0  0  0
  6 17  1  0  0  0  0
  7 17  1  0  0  0  0
 11 25  2  0  0  0  0
 12 26  2  0  0  0  0
 13 25  1  0  0  0  0
 14 23  1  0  0  0  0
 15 26  1  0  0  0  0
 17 18  2  0  0  0  0
 18 19  1  0  0  0  0
 19 24  1  0  0  0  0
 20 10  1  1  0  0  0
 20 22  1  0  0  0  0
 20 23  1  0  0  0  0
 21 14  1  6  0  0  0
 21 22  1  0  0  0  0
 22 15  1  1  0  0  0
 23 24  1  6  0  0  0
 25  8  1  1  0  0  0
 25 32  1  0  0  0  0
 26  9  1  6  0  0  0
 26 28  1  0  0  0  0
 27 28  1  0  0  0  0
 29 27  1  1  0  0  0
 29 30  1  0  0  0  0
 29 31  1  0  0  0  0
 30 35  1  0  0  0  0
 31 33  1  0  0  0  0
 31 32  1  1  0  0  0
 33 34  1  6  0  0  0
 33 35  1  0  0  0  0
 35 45  1  1  0  0  0
 36 41  2  0  0  0  0
 36 37  1  0  0  0  0
 37 38  2  0  0  0  0
 38 39  1  0  0  0  0
 39 40  2  0  0  0  0
 39 45  1  0  0  0  0
 40 41  1  0  0  0  0
 40 43  1  0  0  0  0
 41 42  1  0  0  0  0
 43 44  2  0  0  0  0
 44 45  1  0  0  0  0
M  CHG  4   8  -1   9  -1  11  -1  12  -1
M  END
>  <CHROM.1>
26.80025608,10.46041160,94.13232312,11.08129828,94.03309158,1.45396167,-1.26096804
2.40124600

>  <Name>
ligand

>  <RI>
0

>  <Rbt.Current_Directory>
/home/itssahil/PROJECTS/Mol_Feturizer/New_Systems/rnas/4YAZ

>  <Rbt.Executable>
rbdock ($Id: //depot/dev/client3/rdock/2013.1/src/exe/rbdock.cxx#4 $)

>  <Rbt.Library>
libRbt.so (2013.1, Build901 2013/11/27)

>  <Rbt.Parameter_File>
/export/apps/rDock/src/rDock_2013.1_src/data/scripts/dock_solv.prm

>  <Rbt.Receptor>
prm/pocket_docking_8.prm

>  <SCORE>
-17.2681

>  <SCORE.INTER>
-16.2227

>  <SCORE.INTER.CONST>
1

>  <SCORE.INTER.POLAR>
0

>  <SCORE.INTER.ROT>
2

>  <SCORE.INTER.SOLV>
13.4619

>  <SCORE.INTER.VDW>
-20.2358

>  <SCORE.INTER.norm>
-0.360505

>  <SCORE.INTRA>
-1.04542

>  <SCORE.INTRA.DIHEDRAL>
-0.0426753

>  <SCORE.INTRA.DIHEDRAL.0>
2.39103

>  <SCORE.INTRA.POLAR>
0

>  <SCORE.INTRA.POLAR.0>
0

>  <SCORE.INTRA.REPUL>
0

>  <SCORE.INTRA.REPUL.0>
0

>  <SCORE.INTRA.SOLV>
0.845762

>  <SCORE.INTRA.SOLV.lig_0>
-163.975

>  <SCORE.INTRA.VDW>
-1.44696

>  <SCORE.INTRA.VDW.0>
-1.49176

>  <SCORE.INTRA.norm>
-0.0232315

>  <SCORE.RESTR>
0

>  <SCORE.RESTR.CAVITY>
0

>  <SCORE.RESTR.norm>
0

>  <SCORE.SYSTEM>
0

>  <SCORE.SYSTEM.CONST>
0

>  <SCORE.SYSTEM.DIHEDRAL>
0

>  <SCORE.SYSTEM.SOLV>
0

>  <SCORE.SYSTEM.norm>
0

>  <SCORE.heavy>
45

>  <SCORE.norm>
-0.383737

>  <RMSD>
8.732

$$$$
ligand
 OpenBabel11021811513D
libRbt.so/2013.1/901 2013/11/27
 45 51  0  0  0  0  0  0  0  0999 V2000
   92.7605    9.3283   95.9774 C   0  0  0  0  0  0  0  0  0  0  0  0
   93.5038   13.1224   96.6268 C   0  0  0  0  0  0  0  0  0  0  0  0
   95.6216    4.4623   96.7114 N   0  0  0  0  0  0  0  0  0  0  0  0
   92.1727    8.3543   95.3617 N   0  0  0  0  0  0  0  0  0  0  0  0
   94.8675    6.6731   96.7050 N   0  0  0  0  0  0  0  0  0  0  0  0
   93.6762    5.0407   95.5510 N   0  0  0  0  0  0  0  0  0  0  0  0
   91.6390    5.5865   94.3995 O   0  0  0  0  0  0  0  0  0  0  0  0
   90.6061   14.1091   96.1716 O   0  5  0  0  0  0  0  0  0  0  0  0
   97.9818   13.3978   94.3863 O   0  5  0  0  0  0  0  0  0  0  0  0
   96.9073   10.3423   97.0601 O   0  0  0  0  0  0  0  0  0  0  0  0
   90.5142   12.6092   94.5298 O   0  5  0  0  0  0  0  0  0  0  0  0
   97.4026   11.2700   94.0213 O   0  5  0  0  0  0  0  0  0  0  0  0
   92.3346   12.5139   96.2486 O   0  0  0  0  0  0  0  0  0  0  0  0
   93.9622   10.9325   97.8452 O   0  0  0  0  0  0  0  0  0  0  0  0
   96.3215   12.6201   95.8942 O   0  0  0  0  0  0  0  0  0  0  0  0
   94.6772    5.4475   96.2917 C   0  0  0  0  0  0  0  0  0  0  0  0
   92.7522    5.9131   95.1717 C   0  0  0  0  0  0  0  0  0  0  0  0
   92.9001    7.2629   95.5630 C   0  0  0  0  0  0  0  0  0  0  0  0
   93.9695    7.6200   96.3468 C   0  0  0  0  0  0  0  0  0  0  0  0
   95.6418   10.2633   96.5196 C   0  0  2  0  0  0  0  0  0  0  0  0
   94.5157   12.1538   97.0912 C   0  0  1  0  0  0  0  0  0  0  0  0
   95.2051   11.7688   96.1248 C   0  0  1  0  0  0  0  0  0  0  0  0
   94.7056    9.7478   97.2945 C   0  0  2  0  0  0  0  0  0  0  0  0
   93.8315    8.9295   96.5576 N   0  0  0  0  0  0  0  0  0  0  0  0
   91.4298   13.3676   95.3080 P   0  0  2  0  0  0  0  0  0  0  0  0
   96.8776   12.5406   94.4582 P   0  0  1  0  0  0  0  0  0  0  0  0
   95.1363   14.3658   93.7811 C   0  0  0  0  0  0  0  0  0  0  0  0
   95.8230   13.1421   93.4733 O   0  0  0  0  0  0  0  0  0  0  0  0
   93.9178   14.6075   92.9941 C   0  0  1  0  0  0  0  0  0  0  0  0
   94.2302   14.2228   91.4652 O   0  0  0  0  0  0  0  0  0  0  0  0
   93.0058   13.8237   93.3597 C   0  0  1  0  0  0  0  0  0  0  0  0
   92.2275   14.3613   94.4536 O   0  0  0  0  0  0  0  0  0  0  0  0
   92.2088   13.5676   92.0896 C   0  0  1  0  0  0  0  0  0  0  0  0
   91.3633   14.4873   91.9129 O   0  0  0  0  0  0  0  0  0  0  0  0
   93.2474   13.6325   90.9697 C   0  0  2  0  0  0  0  0  0  0  0  0
   96.7673   10.0325   89.9285 N   0  0  0  0  0  0  0  0  0  0  0  0
   96.9485   11.1726   90.6456 C   0  0  0  0  0  0  0  0  0  0  0  0
   95.8981   11.9687   90.8044 N   0  0  0  0  0  0  0  0  0  0  0  0
   94.6870   11.7509   90.2487 C   0  0  0  0  0  0  0  0  0  0  0  0
   94.4600   10.5779   89.4974 C   0  0  0  0  0  0  0  0  0  0  0  0
   95.5931    9.7155   89.3506 C   0  0  0  0  0  0  0  0  0  0  0  0
   95.4625    8.5178   88.5875 N   0  0  0  0  0  0  0  0  0  0  0  0
   93.2267   10.6084   89.1316 N   0  0  0  0  0  0  0  0  0  0  0  0
   92.6638   11.7009   89.6181 C   0  0  0  0  0  0  0  0  0  0  0  0
   93.5176   12.4068   90.2694 N   0  0  0  0  0  0  0  0  0  0  0  0
  1 24  1  0  0  0  0
  1  4  2  0  0  0  0
  2 13  1  0  0  0  0
  2 21  1  0  0  0  0
  3 16  1  0  0  0  0
  4 18  1  0  0  0  0
  5 19  2  0  0  0  0
  5 16  1  0  0  0  0
  6 16  2  0  0  0  0
  6 17  1  0  0  0  0
  7 17  1  0  0  0  0
 11 25  2  0  0  0  0
 12 26  2  0  0  0  0
 13 25  1  0  0  0  0
 14 23  1  0  0  0  0
 15 26  1  0  0  0  0
 17 18  2  0  0  0  0
 18 19  1  0  0  0  0
 19 24  1  0  0  0  0
 20 10  1  1  0  0  0
 20 22  1  0  0  0  0
 20 23  1  0  0  0  0
 21 14  1  6  0  0  0
 21 22  1  0  0  0  0
 22 15  1  1  0  0  0
 23 24  1  6  0  0  0
 25  8  1  1  0  0  0
 25 32  1  0  0  0  0
 26  9  1  6  0  0  0
 26 28  1  0  0  0  0
 27 28  1  0  0  0  0
 29 27  1  1  0  0  0
 29 30  1  0  0  0  0
 29 31  1  0  0  0  0
 30 35  1  0  0  0  0
 31 33  1  0  0  0  0
 31 32  1  1  0  0  0
 33 34  1  6  0  0  0
 33 35  1  0  0  0  0
 35 45  1  1  0  0  0
 36 41  2  0  0  0  0
 36 37  1  0  0  0  0
 37 38  2  0  0  0  0
 38 39  1  0  0  0  0
 39 40  2  0  0  0  0
 39 45  1  0  0  0  0
 40 41  1  0  0  0  0
 40 43  1  0  0  0  0
 41 42  1  0  0  0  0
 43 44  2  0  0  0  0
 44 45  1  0  0  0  0
M  CHG  4   8  -1   9  -1  11  -1  12  -1
M  END
>  <CHROM.1>
26.00354255,9.40305899,94.15236876,11.08686143,94.03466172,1.48307425,-1.27206866
2.42981639

>  <Name>
ligand

>  <RI>
0

>  <Rbt.Current_Directory>
/home/itssahil/PROJECTS/Mol_Feturizer/New_Systems/rnas/4YAZ

>  <Rbt.Executable>
rbdock ($Id: //depot/dev/client3/rdock/2013.1/src/exe/rbdock.cxx#4 $)

>  <Rbt.Library>
libRbt.so (2013.1, Build901 2013/11/27)

>  <Rbt.Parameter_File>
/export/apps/rDock/src/rDock_2013.1_src/data/scripts/dock_solv.prm

>  <Rbt.Receptor>
prm/pocket_docking_7.prm

>  <SCORE>
-17.1775

>  <SCORE.INTER>
-16.157

>  <SCORE.INTER.CONST>
1

>  <SCORE.INTER.POLAR>
0

>  <SCORE.INTER.ROT>
2

>  <SCORE.INTER.SOLV>
13.2223

>  <SCORE.INTER.VDW>
-20.1121

>  <SCORE.INTER.norm>
-0.359045

>  <SCORE.INTRA>
-1.02053

>  <SCORE.INTRA.DIHEDRAL>
-0.0357512

>  <SCORE.INTRA.DIHEDRAL.0>
2.39103

>  <SCORE.INTRA.POLAR>
0

>  <SCORE.INTRA.POLAR.0>
0

>  <SCORE.INTRA.REPUL>
0

>  <SCORE.INTRA.REPUL.0>
0

>  <SCORE.INTRA.SOLV>
0.787914

>  <SCORE.INTRA.SOLV.lig_0>
-163.975

>  <SCORE.INTRA.VDW>
-1.39661

>  <SCORE.INTRA.VDW.0>
-1.49176

>  <SCORE.INTRA.norm>
-0.0226784

>  <SCORE.RESTR>
0

>  <SCORE.RESTR.CAVITY>
0

>  <SCORE.RESTR.norm>
0

>  <SCORE.SYSTEM>
0

>  <SCORE.SYSTEM.CONST>
0

>  <SCORE.SYSTEM.DIHEDRAL>
0

>  <SCORE.SYSTEM.SOLV>
0

>  <SCORE.SYSTEM.norm>
0

>  <SCORE.heavy>
45

>  <SCORE.norm>
-0.381723

>  <RMSD>
8.735

$$$$
ligand
 OpenBabel11021811513D
libRbt.so/2013.1/901 2013/11/27
 45 51  0  0  0  0  0  0  0  0999 V2000
   92.8274    9.3105   95.9626 C   0  0  0  0  0  0  0  0  0  0  0  0
   93.7340   13.0643   96.6361 C   0  0  0  0  0  0  0  0  0  0  0  0
   95.4953    4.3235   96.6065 N   0  0  0  0  0  0  0  0  0  0  0  0
   92.1886    8.3671   95.3501 N   0  0  0  0  0  0  0  0  0  0  0  0
   94.8343    6.5638   96.6311 N   0  0  0  0  0  0  0  0  0  0  0  0
   93.5554    4.9923   95.4862 N   0  0  0  0  0  0  0  0  0  0  0  0
   91.5225    5.6323   94.3762 O   0  0  0  0  0  0  0  0  0  0  0  0
   90.8702   14.1711   96.2479 O   0  5  0  0  0  0  0  0  0  0  0  0
   98.1751   13.1830   94.3100 O   0  5  0  0  0  0  0  0  0  0  0  0
   97.0304   10.1454   96.9751 O   0  0  0  0  0  0  0  0  0  0  0  0
   90.6860   12.6932   94.5940 O   0  5  0  0  0  0  0  0  0  0  0  0
   97.5036   11.0841   93.9361 O   0  5  0  0  0  0  0  0  0  0  0  0
   92.5341   12.5071   96.2753 O   0  0  0  0  0  0  0  0  0  0  0  0
   94.1274   10.8451   97.8241 O   0  0  0  0  0  0  0  0  0  0  0  0
   96.5144   12.4569   95.8430 O   0  0  0  0  0  0  0  0  0  0  0  0
   94.5855    5.3507   96.2117 C   0  0  0  0  0  0  0  0  0  0  0  0
   92.6620    5.9056   95.1306 C   0  0  0  0  0  0  0  0  0  0  0  0
   92.8731    7.2448   95.5296 C   0  0  0  0  0  0  0  0  0  0  0  0
   93.9704    7.5502   96.2966 C   0  0  0  0  0  0  0  0  0  0  0  0
   95.7525   10.1229   96.4590 C   0  0  2  0  0  0  0  0  0  0  0  0
   94.7149   12.0511   97.0710 C   0  0  1  0  0  0  0  0  0  0  0  0
   95.3693   11.6488   96.0875 C   0  0  1  0  0  0  0  0  0  0  0  0
   94.8116    9.6374   97.2474 C   0  0  2  0  0  0  0  0  0  0  0  0
   93.8910    8.8625   96.5202 N   0  0  0  0  0  0  0  0  0  0  0  0
   91.6464   13.4062   95.3611 P   0  0  2  0  0  0  0  0  0  0  0  0
   97.0388   12.3701   94.3955 P   0  0  1  0  0  0  0  0  0  0  0  0
   95.3597   14.2707   93.7706 C   0  0  0  0  0  0  0  0  0  0  0  0
   95.9904   13.0237   93.4375 O   0  0  0  0  0  0  0  0  0  0  0  0
   94.1370   14.5692   93.0103 C   0  0  1  0  0  0  0  0  0  0  0  0
   94.4038   14.1882   91.4719 O   0  0  0  0  0  0  0  0  0  0  0  0
   93.2014   13.8189   93.3864 C   0  0  1  0  0  0  0  0  0  0  0  0
   92.4668   14.3759   94.5007 O   0  0  0  0  0  0  0  0  0  0  0  0
   92.3701   13.6082   92.1300 C   0  0  1  0  0  0  0  0  0  0  0  0
   91.5592   14.5628   91.9789 O   0  0  0  0  0  0  0  0  0  0  0  0
   93.3885   13.6431   90.9903 C   0  0  2  0  0  0  0  0  0  0  0  0
   96.7024    9.8560   89.9366 N   0  0  0  0  0  0  0  0  0  0  0  0
   96.9407   10.9714   90.6754 C   0  0  0  0  0  0  0  0  0  0  0  0
   95.9374   11.8264   90.8332 N   0  0  0  0  0  0  0  0  0  0  0  0
   94.7238   11.6905   90.2573 C   0  0  0  0  0  0  0  0  0  0  0  0
   94.4384   10.5454   89.4831 C   0  0  0  0  0  0  0  0  0  0  0  0
   95.5200    9.6192   89.3373 C   0  0  0  0  0  0  0  0  0  0  0  0
   95.3294    8.4439   88.5521 N   0  0  0  0  0  0  0  0  0  0  0  0
   93.2146   10.6557   89.1010 N   0  0  0  0  0  0  0  0  0  0  0  0
   92.7108   11.7719   89.5982 C   0  0  0  0  0  0  0  0  0  0  0  0
   93.5954   12.4148   90.2731 N   0  0  0  0  0  0  0  0  0  0  0  0
  1 24  1  0  0  0  0
  1  4  2  0  0  0  0
  2 13  1  0  0  0  0
  2 21  1  0  0  0  0
  3 16  1  0  0  0  0
  4 18  1  0  0  0  0
  5 19  2  0  0  0  0
  5 16  1  0  0  0  0
  6 16  2  0  0  0  0
  6 17  1  0  0  0  0
  7 17  1  0  0  0  0
 11 25  2  0  0  0  0
 12 26  2  0  0  0  0
 13 25  1  0  0  0  0
 14 23  1  0  0  0  0
 15 26  1  0  0  0  0
 17 18  2  0  0  0  0
 18 19  1  0  0  0  0
 19 24  1  0  0  0  0
 20 10  1  1  0  0  0
 20 22  1  0  0  0  0
 20 23  1  0  0  0  0
 21 14  1  6  0  0  0
 21 22  1  0  0  0  0
 22 15  1  1  0  0  0
 23 24  1  6  0  0  0
 25  8  1  1  0  0  0
 25 32  1  0  0  0  0
 26  9  1  6  0  0  0
 26 28  1  0  0  0  0
 27 28  1  0  0  0  0
 29 27  1  1  0  0  0
 29 30  1  0  0  0  0
 29 31  1  0  0  0  0
 30 35  1  0  0  0  0
 31 33  1  0  0  0  0
 31 32  1  1  0  0  0
 33 34  1  6  0  0  0
 33 35  1  0  0  0  0
 35 45  1  1  0  0  0
 36 41  2  0  0  0  0
 36 37  1  0  0  0  0
 37 38  2  0  0  0  0
 38 39  1  0  0  0  0
 39 40  2  0  0  0  0
 39 45  1  0  0  0  0
 40 41  1  0  0  0  0
 40 43  1  0  0  0  0
 41 42  1  0  0  0  0
 43 44  2  0  0  0  0
 44 45  1  0  0  0  0
M  CHG  4   8  -1   9  -1  11  -1  12  -1
M  END
>  <CHROM.1>
26.16752036,11.67701278,94.24596444,11.02661439,94.01991789,1.53220411,-1.31933324
2.49681366

>  <Name>
ligand

>  <RI>
0

>  <Rbt.Current_Directory>
/home/itssahil/PROJECTS/Mol_Feturizer/New_Systems/rnas/4YAZ

>  <Rbt.Executable>
rbdock ($Id: //depot/dev/client3/rdock/2013.1/src/exe/rbdock.cxx#4 $)

>  <Rbt.Library>
libRbt.so (2013.1, Build901 2013/11/27)

>  <Rbt.Parameter_File>
/export/apps/rDock/src/rDock_2013.1_src/data/scripts/dock_solv.prm

>  <Rbt.Receptor>
prm/pocket_docking_8.prm

>  <SCORE>
-16.9665

>  <SCORE.INTER>
-15.9218

>  <SCORE.INTER.CONST>
1

>  <SCORE.INTER.POLAR>
0

>  <SCORE.INTER.ROT>
2

>  <SCORE.INTER.SOLV>
12.5698

>  <SCORE.INTER.VDW>
-19.7378

>  <SCORE.INTER.norm>
-0.353819

>  <SCORE.INTRA>
-1.04464

>  <SCORE.INTRA.DIHEDRAL>
-0.0505048

>  <SCORE.INTRA.DIHEDRAL.0>
2.39103

>  <SCORE.INTRA.POLAR>
0

>  <SCORE.INTRA.POLAR.0>
0

>  <SCORE.INTRA.REPUL>
0

>  <SCORE.INTRA.REPUL.0>
0

>  <SCORE.INTRA.SOLV>
0.910288

>  <SCORE.INTRA.SOLV.lig_0>
-163.975

>  <SCORE.INTRA.VDW>
-1.47453

>  <SCORE.INTRA.VDW.0>
-1.49176

>  <SCORE.INTRA.norm>
-0.0232142

>  <SCORE.RESTR>
0

>  <SCORE.RESTR.CAVITY>
0

>  <SCORE.RESTR.norm>
0

>  <SCORE.SYSTEM>
0

>  <SCORE.SYSTEM.CONST>
0

>  <SCORE.SYSTEM.DIHEDRAL>
0

>  <SCORE.SYSTEM.SOLV>
0

>  <SCORE.SYSTEM.norm>
0

>  <SCORE.heavy>
45

>  <SCORE.norm>
-0.377033

>  <RMSD>
8.744

$$$$
ligand
 OpenBabel11021811513D
libRbt.so/2013.1/901 2013/11/27
 45 51  0  0  0  0  0  0  0  0999 V2000
   92.7255    9.2215   95.9319 C   0  0  0  0  0  0  0  0  0  0  0  0
   93.3655   13.0192   96.6558 C   0  0  0  0  0  0  0  0  0  0  0  0
   95.6655    4.4022   96.6629 N   0  0  0  0  0  0  0  0  0  0  0  0
   92.1644    8.2424   95.2996 N   0  0  0  0  0  0  0  0  0  0  0  0
   94.8709    6.5988   96.6655 N   0  0  0  0  0  0  0  0  0  0  0  0
   93.7260    4.9553   95.4807 N   0  0  0  0  0  0  0  0  0  0  0  0
   91.6951    5.4741   94.3057 O   0  0  0  0  0  0  0  0  0  0  0  0
   90.4479   13.9425   96.1942 O   0  5  0  0  0  0  0  0  0  0  0  0
   97.8514   13.4384   94.4538 O   0  5  0  0  0  0  0  0  0  0  0  0
   96.8325   10.3158   97.0713 O   0  0  0  0  0  0  0  0  0  0  0  0
   90.4043   12.4670   94.5286 O   0  5  0  0  0  0  0  0  0  0  0  0
   97.3268   11.3033   94.0512 O   0  5  0  0  0  0  0  0  0  0  0  0
   92.2142   12.3886   96.2594 O   0  0  0  0  0  0  0  0  0  0  0  0
   93.8683   10.8220   97.8433 O   0  0  0  0  0  0  0  0  0  0  0  0
   96.1997   12.5969   95.9368 O   0  0  0  0  0  0  0  0  0  0  0  0
   94.7089    5.3737   96.2388 C   0  0  0  0  0  0  0  0  0  0  0  0
   92.7913    5.8141   95.0963 C   0  0  0  0  0  0  0  0  0  0  0  0
   92.9089    7.1628   95.5014 C   0  0  0  0  0  0  0  0  0  0  0  0
   93.9607    7.5323   96.3031 C   0  0  0  0  0  0  0  0  0  0  0  0
   95.5732   10.2147   96.5200 C   0  0  2  0  0  0  0  0  0  0  0  0
   94.3973   12.0682   97.1126 C   0  0  1  0  0  0  0  0  0  0  0  0
   95.1028   11.7153   96.1456 C   0  0  1  0  0  0  0  0  0  0  0  0
   94.6443    9.6646   97.2797 C   0  0  2  0  0  0  0  0  0  0  0  0
   93.7956    8.8371   96.5236 N   0  0  0  0  0  0  0  0  0  0  0  0
   91.2957   13.2349   95.3254 P   0  0  2  0  0  0  0  0  0  0  0  0
   96.7679   12.5537   94.5039 P   0  0  1  0  0  0  0  0  0  0  0  0
   94.9876   14.3467   93.8423 C   0  0  0  0  0  0  0  0  0  0  0  0
   95.7061   13.1450   93.5206 O   0  0  0  0  0  0  0  0  0  0  0  0
   93.7693   14.5712   93.0500 C   0  0  1  0  0  0  0  0  0  0  0  0
   94.1018   14.2184   91.5177 O   0  0  0  0  0  0  0  0  0  0  0  0
   92.8740   13.7598   93.3964 C   0  0  1  0  0  0  0  0  0  0  0  0
   92.0751   14.2611   94.4928 O   0  0  0  0  0  0  0  0  0  0  0  0
   92.0926   13.5046   92.1165 C   0  0  1  0  0  0  0  0  0  0  0  0
   91.2263   14.4062   91.9478 O   0  0  0  0  0  0  0  0  0  0  0  0
   93.1373   13.6124   91.0056 C   0  0  2  0  0  0  0  0  0  0  0  0
   96.7316   10.0805   89.9858 N   0  0  0  0  0  0  0  0  0  0  0  0
   96.8786   11.2080   90.7301 C   0  0  0  0  0  0  0  0  0  0  0  0
   95.8137   11.9870   90.8770 N   0  0  0  0  0  0  0  0  0  0  0  0
   94.6205   11.7647   90.2853 C   0  0  0  0  0  0  0  0  0  0  0  0
   94.4292   10.6044   89.5050 C   0  0  0  0  0  0  0  0  0  0  0  0
   95.5773    9.7600   89.3709 C   0  0  0  0  0  0  0  0  0  0  0  0
   95.4829    8.5765   88.5807 N   0  0  0  0  0  0  0  0  0  0  0  0
   93.2055   10.6264   89.1075 N   0  0  0  0  0  0  0  0  0  0  0  0
   92.6154   11.7013   89.6007 C   0  0  0  0  0  0  0  0  0  0  0  0
   93.4423   12.4048   90.2883 N   0  0  0  0  0  0  0  0  0  0  0  0
  1 24  1  0  0  0  0
  1  4  2  0  0  0  0
  2 13  1  0  0  0  0
  2 21  1  0  0  0  0
  3 16  1  0  0  0  0
  4 18  1  0  0  0  0
  5 19  2  0  0  0  0
  5 16  1  0  0  0  0
  6 16  2  0  0  0  0
  6 17  1  0  0  0  0
  7 17  1  0  0  0  0
 11 25  2  0  0  0  0
 12 26  2  0  0  0  0
 13 25  1  0  0  0  0
 14 23  1  0  0  0  0
 15 26  1  0  0  0  0
 17 18  2  0  0  0  0
 18 19  1  0  0  0  0
 19 24  1  0  0  0  0
 20 10  1  1  0  0  0
 20 22  1  0  0  0  0
 20 23  1  0  0  0  0
 21 14  1  6  0  0  0
 21 22  1  0  0  0  0
 22 15  1  1  0  0  0
 23 24  1  6  0  0  0
 25  8  1  1  0  0  0
 25 32  1  0  0  0  0
 26  9  1  6  0  0  0
 26 28  1  0  0  0  0
 27 28  1  0  0  0  0
 29 27  1  1  0  0  0
 29 30  1  0  0  0  0
 29 31  1  0  0  0  0
 30 35  1  0  0  0  0
 31 33  1  0  0  0  0
 31 32  1  1  0  0  0
 33 34  1  6  0  0  0
 33 35  1  0  0  0  0
 35 45  1  1  0  0  0
 36 41  2  0  0  0  0
 36 37  1  0  0  0  0
 37 38  2  0  0  0  0
 38 39  1  0  0  0  0
 39 40  2  0  0  0  0
 39 45  1  0  0  0  0
 40 41  1  0  0  0  0
 40 43  1  0  0  0  0
 41 42  1  0  0  0  0
 43 44  2  0  0  0  0
 44 45  1  0  0  0  0
M  CHG  4   8  -1   9  -1  11  -1  12  -1
M  END
>  <CHROM.1>
26.64027273,10.68089861,94.07852152,11.03777591,94.04388920,1.43430606,-1.25475437
2.40198425

>  <Name>
ligand

>  <RI>
0

>  <Rbt.Current_Directory>
/home/itssahil/PROJECTS/Mol_Feturizer/New_Systems/rnas/4YAZ

>  <Rbt.Executable>
rbdock ($Id: //depot/dev/client3/rdock/2013.1/src/exe/rbdock.cxx#4 $)

>  <Rbt.Library>
libRbt.so (2013.1, Build901 2013/11/27)

>  <Rbt.Parameter_File>
/export/apps/rDock/src/rDock_2013.1_src/data/scripts/dock_solv.prm

>  <Rbt.Receptor>
prm/pocket_docking_7.prm

>  <SCORE>
-17.1571

>  <SCORE.INTER>
-16.1118

>  <SCORE.INTER.CONST>
1

>  <SCORE.INTER.POLAR>
0

>  <SCORE.INTER.ROT>
2

>  <SCORE.INTER.SOLV>
13.5388

>  <SCORE.INTER.VDW>
-20.1875

>  <SCORE.INTER.norm>
-0.358041

>  <SCORE.INTRA>
-1.04523

>  <SCORE.INTRA.DIHEDRAL>
-0.0441141

>  <SCORE.INTRA.DIHEDRAL.0>
2.39103

>  <SCORE.INTRA.POLAR>
0

>  <SCORE.INTRA.POLAR.0>
0

>  <SCORE.INTRA.REPUL>
0

>  <SCORE.INTRA.REPUL.0>
0

>  <SCORE.INTRA.SOLV>
0.857629

>  <SCORE.INTRA.SOLV.lig_0>
-163.975

>  <SCORE.INTRA.VDW>
-1.45198

>  <SCORE.INTRA.VDW.0>
-1.49176

>  <SCORE.INTRA.norm>
-0.0232273

>  <SCORE.RESTR>
0

>  <SCORE.RESTR.CAVITY>
0

>  <SCORE.RESTR.norm>
0

>  <SCORE.SYSTEM>
0

>  <SCORE.SYSTEM.CONST>
0

>  <SCORE.SYSTEM.DIHEDRAL>
0

>  <SCORE.SYSTEM.SOLV>
0

>  <SCORE.SYSTEM.norm>
0

>  <SCORE.heavy>
45

>  <SCORE.norm>
-0.381268

>  <RMSD>
8.770

$$$$
ligand
 OpenBabel11021811513D
libRbt.so/2013.1/901 2013/11/27
 45 51  0  0  0  0  0  0  0  0999 V2000
   93.6545   10.0154   97.6387 C   0  0  0  0  0  0  0  0  0  0  0  0
   95.8905    7.3810   94.8352 C   0  0  0  0  0  0  0  0  0  0  0  0
   90.1888   12.5709   93.9155 N   0  0  0  0  0  0  0  0  0  0  0  0
   93.6676   11.2979   97.8068 N   0  0  0  0  0  0  0  0  0  0  0  0
   91.4572   11.0630   95.1701 N   0  0  0  0  0  0  0  0  0  0  0  0
   91.5936   13.3428   95.6174 N   0  0  0  0  0  0  0  0  0  0  0  0
   92.9788   14.1669   97.3996 O   0  0  0  0  0  0  0  0  0  0  0  0
   98.7376    8.1615   95.7641 O   0  5  0  0  0  0  0  0  0  0  0  0
   93.1616    7.3719   90.6280 O   0  5  0  0  0  0  0  0  0  0  0  0
   91.4895    7.4543   94.4799 O   0  0  0  0  0  0  0  0  0  0  0  0
   98.0786   10.2719   95.5087 O   0  5  0  0  0  0  0  0  0  0  0  0
   92.2357    9.0444   91.7863 O   0  5  0  0  0  0  0  0  0  0  0  0
   96.4043    8.4095   95.5827 O   0  0  0  0  0  0  0  0  0  0  0  0
   93.9069    7.5427   96.4258 O   0  0  0  0  0  0  0  0  0  0  0  0
   93.6159    7.2474   92.9546 O   0  0  0  0  0  0  0  0  0  0  0  0
   91.1388   12.3117   94.9495 C   0  0  0  0  0  0  0  0  0  0  0  0
   92.4466   13.1464   96.6137 C   0  0  0  0  0  0  0  0  0  0  0  0
   92.8544   11.8240   96.8998 C   0  0  0  0  0  0  0  0  0  0  0  0
   92.3321   10.7880   96.1653 C   0  0  0  0  0  0  0  0  0  0  0  0
   92.4508    8.3393   94.9187 C   0  0  2  0  0  0  0  0  0  0  0  0
   94.4334    7.2307   95.0143 C   0  0  1  0  0  0  0  0  0  0  0  0
   93.8313    7.9372   94.1802 C   0  0  1  0  0  0  0  0  0  0  0  0
   92.6682    8.3690   96.2205 C   0  0  2  0  0  0  0  0  0  0  0  0
   92.8856    9.6839   96.6682 N   0  0  0  0  0  0  0  0  0  0  0  0
   97.7845    8.9455   95.0925 P   0  0  2  0  0  0  0  0  0  0  0  0
   93.3900    8.1802   91.7477 P   0  0  1  0  0  0  0  0  0  0  0  0
   95.9825    8.2577   91.4394 C   0  0  0  0  0  0  0  0  0  0  0  0
   94.7199    8.9431   91.4421 O   0  0  0  0  0  0  0  0  0  0  0  0
   97.1618    9.1310   91.5345 C   0  0  1  0  0  0  0  0  0  0  0  0
   96.9272   10.3893   90.5625 O   0  0  0  0  0  0  0  0  0  0  0  0
   97.2504    9.6112   92.6927 C   0  0  1  0  0  0  0  0  0  0  0  0
   97.9979    8.7534   93.5854 O   0  0  0  0  0  0  0  0  0  0  0  0
   97.8704   10.9833   92.4763 C   0  0  1  0  0  0  0  0  0  0  0  0
   99.1266   10.8879   92.4073 O   0  0  0  0  0  0  0  0  0  0  0  0
   97.3359   11.4316   91.1161 C   0  0  2  0  0  0  0  0  0  0  0  0
   92.4625   12.9687   90.5486 N   0  0  0  0  0  0  0  0  0  0  0  0
   92.9478   11.7089   90.3929 C   0  0  0  0  0  0  0  0  0  0  0  0
   94.2467   11.5244   90.5958 N   0  0  0  0  0  0  0  0  0  0  0  0
   95.1204   12.5133   90.8821 C   0  0  0  0  0  0  0  0  0  0  0  0
   94.6542   13.8346   91.0518 C   0  0  0  0  0  0  0  0  0  0  0  0
   93.2487   14.0188   90.8523 C   0  0  0  0  0  0  0  0  0  0  0  0
   92.6926   15.3258   90.9806 N   0  0  0  0  0  0  0  0  0  0  0  0
   95.6794   14.5497   91.3574 N   0  0  0  0  0  0  0  0  0  0  0  0
   96.7441   13.7684   91.4128 C   0  0  0  0  0  0  0  0  0  0  0  0
   96.4404   12.5559   91.1141 N   0  0  0  0  0  0  0  0  0  0  0  0
  1 24  1  0  0  0  0
  1  4  2  0  0  0  0
  2 13  1  0  0  0  0
  2 21  1  0  0  0  0
  3 16  1  0  0  0  0
  4 18  1  0  0  0  0
  5 19  2  0  0  0  0
  5 16  1  0  0  0  0
  6 16  2  0  0  0  0
  6 17  1  0  0  0  0
  7 17  1  0  0  0  0
 11 25  2  0  0  0  0
 12 26  2  0  0  0  0
 13 25  1  0  0  0  0
 14 23  1  0  0  0  0
 15 26  1  0  0  0  0
 17 18  2  0  0  0  0
 18 19  1  0  0  0  0
 19 24  1  0  0  0  0
 20 10  1  1  0  0  0
 20 22  1  0  0  0  0
 20 23  1  0  0  0  0
 21 14  1  1  0  0  0
 21 22  1  0  0  0  0
 22 15  1  6  0  0  0
 23 24  1  6  0  0  0
 25  8  1  1  0  0  0
 25 32  1  0  0  0  0
 26  9  1  6  0  0  0
 26 28  1  0  0  0  0
 27 28  1  0  0  0  0
 29 27  1  1  0  0  0
 29 30  1  0  0  0  0
 29 31  1  0  0  0  0
 30 35  1  0  0  0  0
 31 33  1  0  0  0  0
 31 32  1  1  0  0  0
 33 34  1  6  0  0  0
 33 35  1  0  0  0  0
 35 45  1  1  0  0  0
 36 41  2  0  0  0  0
 36 37  1  0  0  0  0
 37 38  2  0  0  0  0
 38 39  1  0  0  0  0
 39 40  2  0  0  0  0
 39 45  1  0  0  0  0
 40 41  1  0  0  0  0
 40 43  1  0  0  0  0
 41 42  1  0  0  0  0
 43 44  2  0  0  0  0
 44 45  1  0  0  0  0
M  CHG  4   8  -1   9  -1  11  -1  12  -1
M  END
>  <CHROM.1>
-31.72963900,17.46516466,94.59481360,10.32212278,93.56109979,-2.79595695
0.58694572,-0.80599894

>  <Name>
ligand

>  <RI>
0

>  <Rbt.Current_Directory>
/home/itssahil/PROJECTS/Mol_Feturizer/New_Systems/rnas/4YAZ

>  <Rbt.Executable>
rbdock ($Id: //depot/dev/client3/rdock/2013.1/src/exe/rbdock.cxx#4 $)

>  <Rbt.Library>
libRbt.so (2013.1, Build901 2013/11/27)

>  <Rbt.Parameter_File>
/export/apps/rDock/src/rDock_2013.1_src/data/scripts/dock_solv.prm

>  <Rbt.Receptor>
prm/pocket_docking_8.prm

>  <SCORE>
-13.6122

>  <SCORE.INTER>
-13.2423

>  <SCORE.INTER.CONST>
1

>  <SCORE.INTER.POLAR>
0

>  <SCORE.INTER.ROT>
2

>  <SCORE.INTER.SOLV>
9.52767

>  <SCORE.INTER.VDW>
-16.9374

>  <SCORE.INTER.norm>
-0.294273

>  <SCORE.INTRA>
-0.369894

>  <SCORE.INTRA.DIHEDRAL>
-0.0942745

>  <SCORE.INTRA.DIHEDRAL.0>
2.39103

>  <SCORE.INTRA.POLAR>
0

>  <SCORE.INTRA.POLAR.0>
0

>  <SCORE.INTRA.REPUL>
0

>  <SCORE.INTRA.REPUL.0>
0

>  <SCORE.INTRA.SOLV>
1.28441

>  <SCORE.INTRA.SOLV.lig_0>
-163.975

>  <SCORE.INTRA.VDW>
-0.964959

>  <SCORE.INTRA.VDW.0>
-1.49176

>  <SCORE.INTRA.norm>
-0.00821986

>  <SCORE.RESTR>
0

>  <SCORE.RESTR.CAVITY>
0

>  <SCORE.RESTR.norm>
0

>  <SCORE.SYSTEM>
0

>  <SCORE.SYSTEM.CONST>
0

>  <SCORE.SYSTEM.DIHEDRAL>
0

>  <SCORE.SYSTEM.SOLV>
0

>  <SCORE.SYSTEM.norm>
0

>  <SCORE.heavy>
45

>  <SCORE.norm>
-0.302493

>  <RMSD>
8.880

$$$$
ligand
 OpenBabel11021811523D
libRbt.so/2013.1/901 2013/11/27
 45 51  0  0  0  0  0  0  0  0999 V2000
   92.4509    8.7426   96.3952 C   0  0  0  0  0  0  0  0  0  0  0  0
   92.8663   12.8412   95.8968 C   0  0  0  0  0  0  0  0  0  0  0  0
   97.1956    5.5991   96.4888 N   0  0  0  0  0  0  0  0  0  0  0  0
   92.2879    7.6476   95.7262 N   0  0  0  0  0  0  0  0  0  0  0  0
   95.5603    7.2483   96.7384 N   0  0  0  0  0  0  0  0  0  0  0  0
   95.0906    5.3295   95.5082 N   0  0  0  0  0  0  0  0  0  0  0  0
   92.9182    4.9898   94.5388 O   0  0  0  0  0  0  0  0  0  0  0  0
   90.1826   13.2215   94.4032 O   0  5  0  0  0  0  0  0  0  0  0  0
   97.7718   13.4668   95.0648 O   0  5  0  0  0  0  0  0  0  0  0  0
   96.2220   10.8055   97.9206 O   0  0  0  0  0  0  0  0  0  0  0  0
   90.7831   11.4570   93.1870 O   0  5  0  0  0  0  0  0  0  0  0  0
   97.5689   11.2411   95.0333 O   0  5  0  0  0  0  0  0  0  0  0  0
   91.9522   11.9844   95.3392 O   0  0  0  0  0  0  0  0  0  0  0  0
   93.1361   11.0172   97.6549 O   0  0  0  0  0  0  0  0  0  0  0  0
   95.8061   12.7023   96.1542 O   0  0  0  0  0  0  0  0  0  0  0  0
   95.8819    6.0908   96.2225 C   0  0  0  0  0  0  0  0  0  0  0  0
   93.8479    5.7268   95.2701 C   0  0  0  0  0  0  0  0  0  0  0  0
   93.4323    6.9781   95.7784 C   0  0  0  0  0  0  0  0  0  0  0  0
   94.3106    7.7225   96.5268 C   0  0  0  0  0  0  0  0  0  0  0  0
   95.2138   10.4160   97.0651 C   0  0  2  0  0  0  0  0  0  0  0  0
   93.7709   12.1588   96.8422 C   0  0  1  0  0  0  0  0  0  0  0  0
   94.7713   11.7291   96.2324 C   0  0  1  0  0  0  0  0  0  0  0  0
   94.1378    9.8969   97.6267 C   0  0  2  0  0  0  0  0  0  0  0  0
   93.6391    8.8225   96.8693 N   0  0  0  0  0  0  0  0  0  0  0  0
   91.3139   12.4879   94.0083 P   0  0  2  0  0  0  0  0  0  0  0  0
   96.8002   12.4613   95.0004 P   0  0  1  0  0  0  0  0  0  0  0  0
   95.1875   13.8110   93.4513 C   0  0  0  0  0  0  0  0  0  0  0  0
   96.0618   12.6870   93.6410 O   0  0  0  0  0  0  0  0  0  0  0  0
   94.2692   13.6958   92.3086 C   0  0  1  0  0  0  0  0  0  0  0  0
   95.0960   13.1008   91.0655 O   0  0  0  0  0  0  0  0  0  0  0  0
   93.3761   12.8470   92.5570 C   0  0  1  0  0  0  0  0  0  0  0  0
   92.2348   13.4325   93.2251 O   0  0  0  0  0  0  0  0  0  0  0  0
   93.0623   12.2344   91.2005 C   0  0  1  0  0  0  0  0  0  0  0  0
   92.2268   12.9495   90.5822 O   0  0  0  0  0  0  0  0  0  0  0  0
   94.3932   12.2724   90.4494 C   0  0  2  0  0  0  0  0  0  0  0  0
   94.7533    8.4351   87.0466 N   0  0  0  0  0  0  0  0  0  0  0  0
   93.9385    9.5203   86.9747 C   0  0  0  0  0  0  0  0  0  0  0  0
   94.0081   10.4039   87.9630 N   0  0  0  0  0  0  0  0  0  0  0  0
   94.7849   10.2615   89.0581 C   0  0  0  0  0  0  0  0  0  0  0  0
   95.6449    9.1479   89.1687 C   0  0  0  0  0  0  0  0  0  0  0  0
   95.5780    8.2122   88.0874 C   0  0  0  0  0  0  0  0  0  0  0  0
   96.3954    7.0442   88.1256 N   0  0  0  0  0  0  0  0  0  0  0  0
   96.2892    9.2893   90.2736 N   0  0  0  0  0  0  0  0  0  0  0  0
   95.9111   10.4186   90.8470 C   0  0  0  0  0  0  0  0  0  0  0  0
   95.0023   11.0047   90.1528 N   0  0  0  0  0  0  0  0  0  0  0  0
  1 24  1  0  0  0  0
  1  4  2  0  0  0  0
  2 13  1  0  0  0  0
  2 21  1  0  0  0  0
  3 16  1  0  0  0  0
  4 18  1  0  0  0  0
  5 19  2  0  0  0  0
  5 16  1  0  0  0  0
  6 16  2  0  0  0  0
  6 17  1  0  0  0  0
  7 17  1  0  0  0  0
 11 25  2  0  0  0  0
 12 26  2  0  0  0  0
 13 25  1  0  0  0  0
 14 23  1  0  0  0  0
 15 26  1  0  0  0  0
 17 18  2  0  0  0  0
 18 19  1  0  0  0  0
 19 24  1  0  0  0  0
 20 10  1  1  0  0  0
 20 22  1  0  0  0  0
 20 23  1  0  0  0  0
 21 14  1  6  0  0  0
 21 22  1  0  0  0  0
 22 15  1  1  0  0  0
 23 24  1  6  0  0  0
 25  8  1  1  0  0  0
 25 32  1  0  0  0  0
 26  9  1  1  0  0  0
 26 28  1  0  0  0  0
 27 28  1  0  0  0  0
 29 27  1  1  0  0  0
 29 30  1  0  0  0  0
 29 31  1  0  0  0  0
 30 35  1  0  0  0  0
 31 33  1  0  0  0  0
 31 32  1  6  0  0  0
 33 34  1  6  0  0  0
 33 35  1  0  0  0  0
 35 45  1  1  0  0  0
 36 41  2  0  0  0  0
 36 37  1  0  0  0  0
 37 38  2  0  0  0  0
 38 39  1  0  0  0  0
 39 40  2  0  0  0  0
 39 45  1  0  0  0  0
 40 41  1  0  0  0  0
 40 43  1  0  0  0  0
 41 42  1  0  0  0  0
 43 44  2  0  0  0  0
 44 45  1  0  0  0  0
M  CHG  4   8  -1   9  -1  11  -1  12  -1
M  END
>  <CHROM.1>
-7.14875034,-145.80945340,94.34607305,10.51198685,93.65723891,-1.61830100
1.32812191,-1.37876442

>  <Name>
ligand

>  <RI>
0

>  <Rbt.Current_Directory>
/home/itssahil/PROJECTS/Mol_Feturizer/New_Systems/rnas/4YAZ

>  <Rbt.Executable>
rbdock ($Id: //depot/dev/client3/rdock/2013.1/src/exe/rbdock.cxx#4 $)

>  <Rbt.Library>
libRbt.so (2013.1, Build901 2013/11/27)

>  <Rbt.Parameter_File>
/export/apps/rDock/src/rDock_2013.1_src/data/scripts/dock_solv.prm

>  <Rbt.Receptor>
prm/pocket_docking_8.prm

>  <SCORE>
-14.254

>  <SCORE.INTER>
-14.0697

>  <SCORE.INTER.CONST>
1

>  <SCORE.INTER.POLAR>
0

>  <SCORE.INTER.ROT>
2

>  <SCORE.INTER.SOLV>
10.2591

>  <SCORE.INTER.VDW>
-17.7328

>  <SCORE.INTER.norm>
-0.31266

>  <SCORE.INTRA>
-0.18661

>  <SCORE.INTRA.DIHEDRAL>
0.143052

>  <SCORE.INTRA.DIHEDRAL.0>
2.39103

>  <SCORE.INTRA.POLAR>
0

>  <SCORE.INTRA.POLAR.0>
0

>  <SCORE.INTRA.REPUL>
0

>  <SCORE.INTRA.REPUL.0>
0

>  <SCORE.INTRA.SOLV>
-0.0410491

>  <SCORE.INTRA.SOLV.lig_0>
-163.975

>  <SCORE.INTRA.VDW>
-0.237611

>  <SCORE.INTRA.VDW.0>
-1.49176

>  <SCORE.INTRA.norm>
-0.00414689

>  <SCORE.RESTR>
0.00232783

>  <SCORE.RESTR.CAVITY>
0.00232783

>  <SCORE.RESTR.norm>
5.17296e-05

>  <SCORE.SYSTEM>
0

>  <SCORE.SYSTEM.CONST>
0

>  <SCORE.SYSTEM.DIHEDRAL>
0

>  <SCORE.SYSTEM.SOLV>
0

>  <SCORE.SYSTEM.norm>
0

>  <SCORE.heavy>
45

>  <SCORE.norm>
-0.316755

>  <RMSD>
8.980

$$$$
ligand
 OpenBabel11021811513D
libRbt.so/2013.1/901 2013/11/27
 45 51  0  0  0  0  0  0  0  0999 V2000
   92.9430    7.1646   95.6266 C   0  0  0  0  0  0  0  0  0  0  0  0
   95.8216    5.1070   93.3275 C   0  0  0  0  0  0  0  0  0  0  0  0
   91.4509   12.1700   93.3631 N   0  0  0  0  0  0  0  0  0  0  0  0
   92.8915    8.0817   96.5373 N   0  0  0  0  0  0  0  0  0  0  0  0
   92.0396    9.9451   93.7634 N   0  0  0  0  0  0  0  0  0  0  0  0
   91.9857   11.4632   95.5265 N   0  0  0  0  0  0  0  0  0  0  0  0
   92.4683   10.7588   97.7726 O   0  0  0  0  0  0  0  0  0  0  0  0
   97.3613    3.9397   95.7450 O   0  5  0  0  0  0  0  0  0  0  0  0
   96.6711    8.1135   89.4049 O   0  5  0  0  0  0  0  0  0  0  0  0
   92.8637    7.4741   91.0585 O   0  0  0  0  0  0  0  0  0  0  0  0
   97.3030    6.0002   96.5842 O   0  5  0  0  0  0  0  0  0  0  0  0
   95.4127    9.4058   90.7249 O   0  5  0  0  0  0  0  0  0  0  0  0
   95.8132    5.3538   94.6764 O   0  0  0  0  0  0  0  0  0  0  0  0
   93.3224    5.5792   93.4746 O   0  0  0  0  0  0  0  0  0  0  0  0
   95.4175    6.8704   90.9919 O   0  0  0  0  0  0  0  0  0  0  0  0
   91.8574   11.1392   94.2637 C   0  0  0  0  0  0  0  0  0  0  0  0
   92.3215   10.5290   96.4059 C   0  0  0  0  0  0  0  0  0  0  0  0
   92.5553    9.2165   95.9373 C   0  0  0  0  0  0  0  0  0  0  0  0
   92.3950    8.9436   94.6011 C   0  0  0  0  0  0  0  0  0  0  0  0
   93.3725    7.5116   92.3390 C   0  0  2  0  0  0  0  0  0  0  0  0
   94.6214    5.6378   92.6525 C   0  0  1  0  0  0  0  0  0  0  0  0
   94.8291    6.8125   92.2860 C   0  0  1  0  0  0  0  0  0  0  0  0
   92.6562    6.9112   93.2712 C   0  0  2  0  0  0  0  0  0  0  0  0
   92.6679    7.6448   94.4705 N   0  0  0  0  0  0  0  0  0  0  0  0
   97.2127    5.2830   95.3609 P   0  0  2  0  0  0  0  0  0  0  0  0
   96.1775    8.1828   90.7129 P   0  0  1  0  0  0  0  0  0  0  0  0
   98.2835    7.0872   91.8023 C   0  0  0  0  0  0  0  0  0  0  0  0
   97.4428    8.2393   91.6293 O   0  0  0  0  0  0  0  0  0  0  0  0
   99.1817    7.1445   92.9651 C   0  0  1  0  0  0  0  0  0  0  0  0
   99.8154    8.6200   93.0305 O   0  0  0  0  0  0  0  0  0  0  0  0
   98.5216    7.0134   94.0267 C   0  0  1  0  0  0  0  0  0  0  0  0
   98.3624    5.6266   94.4048 O   0  0  0  0  0  0  0  0  0  0  0  0
   99.2815    7.8562   95.0397 C   0  0  1  0  0  0  0  0  0  0  0  0
  100.2320    7.1905   95.5349 O   0  0  0  0  0  0  0  0  0  0  0  0
   99.8628    9.0063   94.2173 C   0  0  2  0  0  0  0  0  0  0  0  0
   98.9132   13.6733   92.2804 N   0  0  0  0  0  0  0  0  0  0  0  0
   99.5320   12.6372   91.6556 C   0  0  0  0  0  0  0  0  0  0  0  0
   99.6706   11.5066   92.3375 N   0  0  0  0  0  0  0  0  0  0  0  0
   99.2959   11.3430   93.6243 C   0  0  0  0  0  0  0  0  0  0  0  0
   98.6499   12.3961   94.3067 C   0  0  0  0  0  0  0  0  0  0  0  0
   98.4859   13.6035   93.5554 C   0  0  0  0  0  0  0  0  0  0  0  0
   97.8638   14.7287   94.1726 N   0  0  0  0  0  0  0  0  0  0  0  0
   98.3698   11.9549   95.4826 N   0  0  0  0  0  0  0  0  0  0  0  0
   98.7726   10.6995   95.5750 C   0  0  0  0  0  0  0  0  0  0  0  0
   99.3447   10.3192   94.4889 N   0  0  0  0  0  0  0  0  0  0  0  0
  1 24  1  0  0  0  0
  1  4  2  0  0  0  0
  2 13  1  0  0  0  0
  2 21  1  0  0  0  0
  3 16  1  0  0  0  0
  4 18  1  0  0  0  0
  5 19  2  0  0  0  0
  5 16  1  0  0  0  0
  6 16  2  0  0  0  0
  6 17  1  0  0  0  0
  7 17  1  0  0  0  0
 11 25  2  0  0  0  0
 12 26  2  0  0  0  0
 13 25  1  0  0  0  0
 14 23  1  0  0  0  0
 15 26  1  0  0  0  0
 17 18  2  0  0  0  0
 18 19  1  0  0  0  0
 19 24  1  0  0  0  0
 20 10  1  6  0  0  0
 20 22  1  0  0  0  0
 20 23  1  0  0  0  0
 21 14  1  1  0  0  0
 21 22  1  0  0  0  0
 22 15  1  6  0  0  0
 23 24  1  1  0  0  0
 25  8  1  1  0  0  0
 25 32  1  0  0  0  0
 26  9  1  6  0  0  0
 26 28  1  0  0  0  0
 27 28  1  0  0  0  0
 29 27  1  6  0  0  0
 29 30  1  0  0  0  0
 29 31  1  0  0  0  0
 30 35  1  0  0  0  0
 31 33  1  0  0  0  0
 31 32  1  1  0  0  0
 33 34  1  6  0  0  0
 33 35  1  0  0  0  0
 35 45  1  6  0  0  0
 36 41  2  0  0  0  0
 36 37  1  0  0  0  0
 37 38  2  0  0  0  0
 38 39  1  0  0  0  0
 39 40  2  0  0  0  0
 39 45  1  0  0  0  0
 40 41  1  0  0  0  0
 40 43  1  0  0  0  0
 41 42  1  0  0  0  0
 43 44  2  0  0  0  0
 44 45  1  0  0  0  0
M  CHG  4   8  -1   9  -1  11  -1  12  -1
M  END
>  <CHROM.1>
-13.48880036,-27.33798621,96.14357374,8.58699192,93.73047313,2.74288134,-0.14259945
-3.14026210

>  <Name>
ligand

>  <RI>
0

>  <Rbt.Current_Directory>
/home/itssahil/PROJECTS/Mol_Feturizer/New_Systems/rnas/4YAZ

>  <Rbt.Executable>
rbdock ($Id: //depot/dev/client3/rdock/2013.1/src/exe/rbdock.cxx#4 $)

>  <Rbt.Library>
libRbt.so (2013.1, Build901 2013/11/27)

>  <Rbt.Parameter_File>
/export/apps/rDock/src/rDock_2013.1_src/data/scripts/dock_solv.prm

>  <Rbt.Receptor>
prm/pocket_docking_7.prm

>  <SCORE>
-8.22804

>  <SCORE.INTER>
-8.50956

>  <SCORE.INTER.CONST>
1

>  <SCORE.INTER.POLAR>
0

>  <SCORE.INTER.ROT>
2

>  <SCORE.INTER.SOLV>
7.70969

>  <SCORE.INTER.VDW>
-13.1763

>  <SCORE.INTER.norm>
-0.189101

>  <SCORE.INTRA>
0.281523

>  <SCORE.INTRA.DIHEDRAL>
0.142178

>  <SCORE.INTRA.DIHEDRAL.0>
2.39103

>  <SCORE.INTRA.POLAR>
0

>  <SCORE.INTRA.POLAR.0>
0

>  <SCORE.INTRA.REPUL>
0

>  <SCORE.INTRA.REPUL.0>
0

>  <SCORE.INTRA.SOLV>
0.0296638

>  <SCORE.INTRA.SOLV.lig_0>
-163.975

>  <SCORE.INTRA.VDW>
0.195602

>  <SCORE.INTRA.VDW.0>
-1.49176

>  <SCORE.INTRA.norm>
0.00625606

>  <SCORE.RESTR>
0

>  <SCORE.RESTR.CAVITY>
0

>  <SCORE.RESTR.norm>
0

>  <SCORE.SYSTEM>
0

>  <SCORE.SYSTEM.CONST>
0

>  <SCORE.SYSTEM.DIHEDRAL>
0

>  <SCORE.SYSTEM.SOLV>
0

>  <SCORE.SYSTEM.norm>
0

>  <SCORE.heavy>
45

>  <SCORE.norm>
-0.182845

>  <RMSD>
9.059

$$$$
